# Generated by pormake.
# Topology gar, (4,6)-cn, num edge types: 1
# Building blocks:
#     Node 0, Type 0, BuildingBlock: AZAVOO_clean_sbu_0, # of connection points: 4
#     Node 1, Type 0, BuildingBlock: AZAVOO_clean_sbu_0, # of connection points: 4
#     Node 2, Type 0, BuildingBlock: AZAVOO_clean_sbu_0, # of connection points: 4
#     Node 3, Type 0, BuildingBlock: AZAVOO_clean_sbu_0, # of connection points: 4
#     Node 4, Type 0, BuildingBlock: AZAVOO_clean_sbu_0, # of connection points: 4
#     Node 5, Type 0, BuildingBlock: AZAVOO_clean_sbu_0, # of connection points: 4
#     Node 6, Type 0, BuildingBlock: AZAVOO_clean_sbu_0, # of connection points: 4
#     Node 7, Type 0, BuildingBlock: AZAVOO_clean_sbu_0, # of connection points: 4
#     Node 8, Type 0, BuildingBlock: AZAVOO_clean_sbu_0, # of connection points: 4
#     Node 9, Type 0, BuildingBlock: AZAVOO_clean_sbu_0, # of connection points: 4
#     Node 10, Type 0, BuildingBlock: AZAVOO_clean_sbu_0, # of connection points: 4
#     Node 11, Type 0, BuildingBlock: AZAVOO_clean_sbu_0, # of connection points: 4
#     Node 12, Type 0, BuildingBlock: AZAVOO_clean_sbu_0, # of connection points: 4
#     Node 13, Type 0, BuildingBlock: AZAVOO_clean_sbu_0, # of connection points: 4
#     Node 14, Type 0, BuildingBlock: AZAVOO_clean_sbu_0, # of connection points: 4
#     Node 15, Type 0, BuildingBlock: AZAVOO_clean_sbu_0, # of connection points: 4
#     Node 16, Type 0, BuildingBlock: AZAVOO_clean_sbu_0, # of connection points: 4
#     Node 17, Type 0, BuildingBlock: AZAVOO_clean_sbu_0, # of connection points: 4
#     Node 18, Type 0, BuildingBlock: AZAVOO_clean_sbu_0, # of connection points: 4
#     Node 19, Type 0, BuildingBlock: AZAVOO_clean_sbu_0, # of connection points: 4
#     Node 20, Type 0, BuildingBlock: AZAVOO_clean_sbu_0, # of connection points: 4
#     Node 21, Type 0, BuildingBlock: AZAVOO_clean_sbu_0, # of connection points: 4
#     Node 22, Type 0, BuildingBlock: AZAVOO_clean_sbu_0, # of connection points: 4
#     Node 23, Type 0, BuildingBlock: AZAVOO_clean_sbu_0, # of connection points: 4
#     Node 24, Type 1, BuildingBlock: KUMBUR_clean_sbu_0, # of connection points: 6
#     Node 25, Type 1, BuildingBlock: KUMBUR_clean_sbu_0, # of connection points: 6
#     Node 26, Type 1, BuildingBlock: KUMBUR_clean_sbu_0, # of connection points: 6
#     Node 27, Type 1, BuildingBlock: KUMBUR_clean_sbu_0, # of connection points: 6
#     Node 28, Type 1, BuildingBlock: KUMBUR_clean_sbu_0, # of connection points: 6
#     Node 29, Type 1, BuildingBlock: KUMBUR_clean_sbu_0, # of connection points: 6
#     Node 30, Type 1, BuildingBlock: KUMBUR_clean_sbu_0, # of connection points: 6
#     Node 31, Type 1, BuildingBlock: KUMBUR_clean_sbu_0, # of connection points: 6
#     Node 32, Type 1, BuildingBlock: KUMBUR_clean_sbu_0, # of connection points: 6
#     Node 33, Type 1, BuildingBlock: KUMBUR_clean_sbu_0, # of connection points: 6
#     Node 34, Type 1, BuildingBlock: KUMBUR_clean_sbu_0, # of connection points: 6
#     Node 35, Type 1, BuildingBlock: KUMBUR_clean_sbu_0, # of connection points: 6
#     Node 36, Type 1, BuildingBlock: KUMBUR_clean_sbu_0, # of connection points: 6
#     Node 37, Type 1, BuildingBlock: KUMBUR_clean_sbu_0, # of connection points: 6
#     Node 38, Type 1, BuildingBlock: KUMBUR_clean_sbu_0, # of connection points: 6
#     Node 39, Type 1, BuildingBlock: KUMBUR_clean_sbu_0, # of connection points: 6
#     Edge 40, Type (0, 1), BuildingBlock: AJUNOK_clean_linker_0, # of connection points: 2
#     Edge 41, Type (0, 1), BuildingBlock: AJUNOK_clean_linker_0, # of connection points: 2
#     Edge 42, Type (0, 1), BuildingBlock: AJUNOK_clean_linker_0, # of connection points: 2
#     Edge 43, Type (0, 1), BuildingBlock: AJUNOK_clean_linker_0, # of connection points: 2
#     Edge 44, Type (0, 1), BuildingBlock: AJUNOK_clean_linker_0, # of connection points: 2
#     Edge 45, Type (0, 1), BuildingBlock: AJUNOK_clean_linker_0, # of connection points: 2
#     Edge 46, Type (0, 1), BuildingBlock: AJUNOK_clean_linker_0, # of connection points: 2
#     Edge 47, Type (0, 1), BuildingBlock: AJUNOK_clean_linker_0, # of connection points: 2
#     Edge 48, Type (0, 1), BuildingBlock: AJUNOK_clean_linker_0, # of connection points: 2
#     Edge 49, Type (0, 1), BuildingBlock: AJUNOK_clean_linker_0, # of connection points: 2
#     Edge 50, Type (0, 1), BuildingBlock: AJUNOK_clean_linker_0, # of connection points: 2
#     Edge 51, Type (0, 1), BuildingBlock: AJUNOK_clean_linker_0, # of connection points: 2
#     Edge 52, Type (0, 1), BuildingBlock: AJUNOK_clean_linker_0, # of connection points: 2
#     Edge 53, Type (0, 1), BuildingBlock: AJUNOK_clean_linker_0, # of connection points: 2
#     Edge 54, Type (0, 1), BuildingBlock: AJUNOK_clean_linker_0, # of connection points: 2
#     Edge 55, Type (0, 1), BuildingBlock: AJUNOK_clean_linker_0, # of connection points: 2
#     Edge 56, Type (0, 1), BuildingBlock: AJUNOK_clean_linker_0, # of connection points: 2
#     Edge 57, Type (0, 1), BuildingBlock: AJUNOK_clean_linker_0, # of connection points: 2
#     Edge 58, Type (0, 1), BuildingBlock: AJUNOK_clean_linker_0, # of connection points: 2
#     Edge 59, Type (0, 1), BuildingBlock: AJUNOK_clean_linker_0, # of connection points: 2
#     Edge 60, Type (0, 1), BuildingBlock: AJUNOK_clean_linker_0, # of connection points: 2
#     Edge 61, Type (0, 1), BuildingBlock: AJUNOK_clean_linker_0, # of connection points: 2
#     Edge 62, Type (0, 1), BuildingBlock: AJUNOK_clean_linker_0, # of connection points: 2
#     Edge 63, Type (0, 1), BuildingBlock: AJUNOK_clean_linker_0, # of connection points: 2
#     Edge 64, Type (0, 1), BuildingBlock: AJUNOK_clean_linker_0, # of connection points: 2
#     Edge 65, Type (0, 1), BuildingBlock: AJUNOK_clean_linker_0, # of connection points: 2
#     Edge 66, Type (0, 1), BuildingBlock: AJUNOK_clean_linker_0, # of connection points: 2
#     Edge 67, Type (0, 1), BuildingBlock: AJUNOK_clean_linker_0, # of connection points: 2
#     Edge 68, Type (0, 1), BuildingBlock: AJUNOK_clean_linker_0, # of connection points: 2
#     Edge 69, Type (0, 1), BuildingBlock: AJUNOK_clean_linker_0, # of connection points: 2
#     Edge 70, Type (0, 1), BuildingBlock: AJUNOK_clean_linker_0, # of connection points: 2
#     Edge 71, Type (0, 1), BuildingBlock: AJUNOK_clean_linker_0, # of connection points: 2
#     Edge 72, Type (0, 1), BuildingBlock: AJUNOK_clean_linker_0, # of connection points: 2
#     Edge 73, Type (0, 1), BuildingBlock: AJUNOK_clean_linker_0, # of connection points: 2
#     Edge 74, Type (0, 1), BuildingBlock: AJUNOK_clean_linker_0, # of connection points: 2
#     Edge 75, Type (0, 1), BuildingBlock: AJUNOK_clean_linker_0, # of connection points: 2
#     Edge 76, Type (0, 1), BuildingBlock: AJUNOK_clean_linker_0, # of connection points: 2
#     Edge 77, Type (0, 1), BuildingBlock: AJUNOK_clean_linker_0, # of connection points: 2
#     Edge 78, Type (0, 1), BuildingBlock: AJUNOK_clean_linker_0, # of connection points: 2
#     Edge 79, Type (0, 1), BuildingBlock: AJUNOK_clean_linker_0, # of connection points: 2
#     Edge 80, Type (0, 1), BuildingBlock: AJUNOK_clean_linker_0, # of connection points: 2
#     Edge 81, Type (0, 1), BuildingBlock: AJUNOK_clean_linker_0, # of connection points: 2
#     Edge 82, Type (0, 1), BuildingBlock: AJUNOK_clean_linker_0, # of connection points: 2
#     Edge 83, Type (0, 1), BuildingBlock: AJUNOK_clean_linker_0, # of connection points: 2
#     Edge 84, Type (0, 1), BuildingBlock: AJUNOK_clean_linker_0, # of connection points: 2
#     Edge 85, Type (0, 1), BuildingBlock: AJUNOK_clean_linker_0, # of connection points: 2
#     Edge 86, Type (0, 1), BuildingBlock: AJUNOK_clean_linker_0, # of connection points: 2
#     Edge 87, Type (0, 1), BuildingBlock: AJUNOK_clean_linker_0, # of connection points: 2
#     Edge 88, Type (0, 1), BuildingBlock: AJUNOK_clean_linker_0, # of connection points: 2
#     Edge 89, Type (0, 1), BuildingBlock: AJUNOK_clean_linker_0, # of connection points: 2
#     Edge 90, Type (0, 1), BuildingBlock: AJUNOK_clean_linker_0, # of connection points: 2
#     Edge 91, Type (0, 1), BuildingBlock: AJUNOK_clean_linker_0, # of connection points: 2
#     Edge 92, Type (0, 1), BuildingBlock: AJUNOK_clean_linker_0, # of connection points: 2
#     Edge 93, Type (0, 1), BuildingBlock: AJUNOK_clean_linker_0, # of connection points: 2
#     Edge 94, Type (0, 1), BuildingBlock: AJUNOK_clean_linker_0, # of connection points: 2
#     Edge 95, Type (0, 1), BuildingBlock: AJUNOK_clean_linker_0, # of connection points: 2
#     Edge 96, Type (0, 1), BuildingBlock: AJUNOK_clean_linker_0, # of connection points: 2
#     Edge 97, Type (0, 1), BuildingBlock: AJUNOK_clean_linker_0, # of connection points: 2
#     Edge 98, Type (0, 1), BuildingBlock: AJUNOK_clean_linker_0, # of connection points: 2
#     Edge 99, Type (0, 1), BuildingBlock: AJUNOK_clean_linker_0, # of connection points: 2
#     Edge 100, Type (0, 1), BuildingBlock: AJUNOK_clean_linker_0, # of connection points: 2
#     Edge 101, Type (0, 1), BuildingBlock: AJUNOK_clean_linker_0, # of connection points: 2
#     Edge 102, Type (0, 1), BuildingBlock: AJUNOK_clean_linker_0, # of connection points: 2
#     Edge 103, Type (0, 1), BuildingBlock: AJUNOK_clean_linker_0, # of connection points: 2
#     Edge 104, Type (0, 1), BuildingBlock: AJUNOK_clean_linker_0, # of connection points: 2
#     Edge 105, Type (0, 1), BuildingBlock: AJUNOK_clean_linker_0, # of connection points: 2
#     Edge 106, Type (0, 1), BuildingBlock: AJUNOK_clean_linker_0, # of connection points: 2
#     Edge 107, Type (0, 1), BuildingBlock: AJUNOK_clean_linker_0, # of connection points: 2
#     Edge 108, Type (0, 1), BuildingBlock: AJUNOK_clean_linker_0, # of connection points: 2
#     Edge 109, Type (0, 1), BuildingBlock: AJUNOK_clean_linker_0, # of connection points: 2
#     Edge 110, Type (0, 1), BuildingBlock: AJUNOK_clean_linker_0, # of connection points: 2
#     Edge 111, Type (0, 1), BuildingBlock: AJUNOK_clean_linker_0, # of connection points: 2
#     Edge 112, Type (0, 1), BuildingBlock: AJUNOK_clean_linker_0, # of connection points: 2
#     Edge 113, Type (0, 1), BuildingBlock: AJUNOK_clean_linker_0, # of connection points: 2
#     Edge 114, Type (0, 1), BuildingBlock: AJUNOK_clean_linker_0, # of connection points: 2
#     Edge 115, Type (0, 1), BuildingBlock: AJUNOK_clean_linker_0, # of connection points: 2
#     Edge 116, Type (0, 1), BuildingBlock: AJUNOK_clean_linker_0, # of connection points: 2
#     Edge 117, Type (0, 1), BuildingBlock: AJUNOK_clean_linker_0, # of connection points: 2
#     Edge 118, Type (0, 1), BuildingBlock: AJUNOK_clean_linker_0, # of connection points: 2
#     Edge 119, Type (0, 1), BuildingBlock: AJUNOK_clean_linker_0, # of connection points: 2
#     Edge 120, Type (0, 1), BuildingBlock: AJUNOK_clean_linker_0, # of connection points: 2
#     Edge 121, Type (0, 1), BuildingBlock: AJUNOK_clean_linker_0, # of connection points: 2
#     Edge 122, Type (0, 1), BuildingBlock: AJUNOK_clean_linker_0, # of connection points: 2
#     Edge 123, Type (0, 1), BuildingBlock: AJUNOK_clean_linker_0, # of connection points: 2
#     Edge 124, Type (0, 1), BuildingBlock: AJUNOK_clean_linker_0, # of connection points: 2
#     Edge 125, Type (0, 1), BuildingBlock: AJUNOK_clean_linker_0, # of connection points: 2
#     Edge 126, Type (0, 1), BuildingBlock: AJUNOK_clean_linker_0, # of connection points: 2
#     Edge 127, Type (0, 1), BuildingBlock: AJUNOK_clean_linker_0, # of connection points: 2
#     Edge 128, Type (0, 1), BuildingBlock: AJUNOK_clean_linker_0, # of connection points: 2
#     Edge 129, Type (0, 1), BuildingBlock: AJUNOK_clean_linker_0, # of connection points: 2
#     Edge 130, Type (0, 1), BuildingBlock: AJUNOK_clean_linker_0, # of connection points: 2
#     Edge 131, Type (0, 1), BuildingBlock: AJUNOK_clean_linker_0, # of connection points: 2
#     Edge 132, Type (0, 1), BuildingBlock: AJUNOK_clean_linker_0, # of connection points: 2
#     Edge 133, Type (0, 1), BuildingBlock: AJUNOK_clean_linker_0, # of connection points: 2
#     Edge 134, Type (0, 1), BuildingBlock: AJUNOK_clean_linker_0, # of connection points: 2
#     Edge 135, Type (0, 1), BuildingBlock: AJUNOK_clean_linker_0, # of connection points: 2
# Relax obj value: 0.173
# Max RMSD: 0.345
# Mean RMSD: 0.196
data_MOF--net-gar--node1-AZAVOO_clean_sbu_0--node2-KUMBUR_clean_sbu_0--edge1-AJUNOK_clean_linker_0
_symmetry_space_group_name_H-M    P1
_symmetry_Int_Tables_number       1
_symmetry_cell_setting            triclinic
loop_
_symmetry_equiv_pos_as_xyz
'x, y, z'
_cell_length_a     48.067284
_cell_length_b     41.525301
_cell_length_c     42.104607
_cell_angle_alpha  104.69607
_cell_angle_beta   93.536681
_cell_angle_gamma 104.39541
loop_
_atom_site_label
_atom_site_type_symbol
_atom_site_fract_x
_atom_site_fract_y
_atom_site_fract_z
_atom_type_partial_charge
Mg0 Mg 0.13732 0.31939 0.36292 0.0
O1 O 0.1478 0.37376 0.39708 0.0
O2 O 0.10657 0.37677 0.41843 0.0
Mg3 Mg 0.0723 0.32605 0.40236 0.0
C4 C 0.13279 0.39008 0.4152 0.0
C5 C 0.19394 0.34016 0.33471 0.0
O6 O 0.17675 0.34815 0.31433 0.0
O7 O 0.14369 0.29977 0.40711 0.0
O8 O 0.10364 0.30633 0.42948 0.0
O9 O 0.11902 0.33842 0.32417 0.0
O10 O 0.0937 0.31475 0.35891 0.0
C11 C 0.12772 0.29865 0.43001 0.0
C12 C 0.09506 0.33069 0.33646 0.0
O13 O 0.18385 0.32824 0.35774 0.0
Mg14 Mg 0.01387 0.76516 0.68124 0.0
O15 O 0.0093 0.71044 0.65091 0.0
O16 O 0.9715 0.69186 0.61144 0.0
Mg17 Mg 0.94629 0.73307 0.62464 0.0
C18 C 0.99411 0.68776 0.6256 0.0
C19 C 0.05932 0.74338 0.70986 0.0
O20 O 0.03417 0.72439 0.71354 0.0
O21 O 0.02473 0.78373 0.63685 0.0
O22 O 0.98126 0.7699 0.60647 0.0
O23 O 0.98871 0.75049 0.72109 0.0
O24 O 0.97086 0.75748 0.67455 0.0
C25 C 1.00838 0.78526 0.61253 0.0
C26 C 0.96688 0.7527 0.70302 0.0
O27 O 0.05982 0.76811 0.69721 0.0
Mg28 Mg 0.6403 0.82066 0.87242 0.0
O29 O 0.65002 0.87755 0.90362 0.0
O30 O 0.61173 0.87697 0.93171 0.0
Mg31 Mg 0.57727 0.8262 0.91635 0.0
C32 C 0.63631 0.89223 0.92534 0.0
C33 C 0.69475 0.84821 0.84366 0.0
O34 O 0.68053 0.87036 0.83947 0.0
O35 O 0.65114 0.80566 0.91859 0.0
O36 O 0.6105 0.80794 0.94125 0.0
O37 O 0.61908 0.83245 0.83073 0.0
O38 O 0.59679 0.8165 0.87113 0.0
C39 C 0.63552 0.80274 0.94157 0.0
C40 C 0.59617 0.82771 0.84539 0.0
O41 O 0.68507 0.82672 0.85967 0.0
Mg42 Mg 0.51443 0.26913 0.17956 0.0
O43 O 0.50808 0.21489 0.14821 0.0
O44 O 0.46897 0.19542 0.11047 0.0
Mg45 Mg 0.44619 0.23872 0.12382 0.0
C46 C 0.49201 0.19177 0.12395 0.0
C47 C 0.56083 0.24244 0.20168 0.0
O48 O 0.53665 0.22152 0.20556 0.0
O49 O 0.52538 0.2861 0.13477 0.0
O50 O 0.48234 0.27163 0.10329 0.0
O51 O 0.48975 0.25447 0.21926 0.0
O52 O 0.4719 0.2631 0.17338 0.0
C53 C 0.50969 0.28581 0.10913 0.0
C54 C 0.46791 0.25713 0.20142 0.0
O55 O 0.55982 0.26947 0.19345 0.0
Mg56 Mg 0.13777 0.84096 0.1234 0.0
O57 O 0.12128 0.77976 0.0937 0.0
O58 O 0.08279 0.76079 0.0548 0.0
Mg59 Mg 0.05697 0.79947 0.07631 0.0
C60 C 0.10385 0.75515 0.0705 0.0
C61 C 0.19544 0.83416 0.16166 0.0
O62 O 0.20523 0.85562 0.14418 0.0
O63 O 0.11695 0.87317 0.09193 0.0
O64 O 0.07662 0.84693 0.05642 0.0
O65 O 0.11101 0.84643 0.1698 0.0
O66 O 0.08858 0.81956 0.12303 0.0
C67 C 0.09779 0.87371 0.06938 0.0
C68 C 0.08677 0.82964 0.15328 0.0
O69 O 0.16774 0.82148 0.15903 0.0
Mg70 Mg 0.52881 0.76922 0.43206 0.0
O71 O 0.54488 0.82944 0.46005 0.0
O72 O 0.50885 0.83161 0.48866 0.0
Mg73 Mg 0.50467 0.77332 0.47679 0.0
C74 C 0.53125 0.84751 0.47888 0.0
C75 C 0.58004 0.75697 0.39159 0.0
O76 O 0.55889 0.73061 0.37394 0.0
O77 O 0.54711 0.74161 0.46974 0.0
O78 O 0.50255 0.71558 0.47069 0.0
O79 O 0.50642 0.78623 0.39409 0.0
O80 O 0.47783 0.76395 0.42647 0.0
C81 C 0.52899 0.71578 0.47491 0.0
C82 C 0.48063 0.77604 0.4009 0.0
O83 O 0.57476 0.77751 0.41703 0.0
Mg84 Mg 0.63712 0.34397 0.62156 0.0
O85 O 0.62038 0.28418 0.59154 0.0
O86 O 0.58375 0.26499 0.55055 0.0
Mg87 Mg 0.55626 0.29967 0.57534 0.0
C88 C 0.6042 0.25971 0.56753 0.0
C89 C 0.68715 0.34148 0.67577 0.0
O90 O 0.68957 0.37483 0.68336 0.0
O91 O 0.61514 0.37456 0.59046 0.0
O92 O 0.57336 0.34918 0.55754 0.0
O93 O 0.60945 0.35134 0.66711 0.0
O94 O 0.58902 0.31755 0.62142 0.0
C95 C 0.59504 0.3756 0.56938 0.0
C96 C 0.58608 0.33114 0.65074 0.0
O97 O 0.66633 0.32096 0.65364 0.0
Mg98 Mg 0.02154 0.25897 0.92206 0.0
O99 O 0.04342 0.31873 0.95017 0.0
O100 O 0.01857 0.32034 0.99168 0.0
Mg101 Mg 1.00367 0.2604 0.96587 0.0
C102 C 0.03592 0.3368 0.97589 0.0
C103 C 0.08935 0.27897 0.91289 0.0
O104 O 0.0647 0.25719 0.89777 0.0
O105 O 0.03646 0.22181 0.95322 0.0
O106 O 0.02933 0.24281 1.00375 0.0
O107 O 1.00086 0.27957 0.88583 0.0
O108 O 0.9747 0.26791 0.9247 0.0
C109 C 0.03815 0.22045 0.98332 0.0
C110 C 0.97659 0.27648 0.89725 0.0
O111 O 0.06489 0.25808 0.89882 0.0
Mg112 Mg 0.44673 0.06048 0.33496 0.0
O113 O 0.41304 1.01031 0.32588 0.0
O114 O 0.39349 1.00689 0.37229 0.0
Mg115 Mg 0.41328 0.05934 0.40948 0.0
C116 C 0.39582 0.99428 0.34198 0.0
C117 C 0.47705 0.06273 0.28147 0.0
O118 O 0.4942 0.08036 0.3092 0.0
O119 O 0.41415 0.08541 0.33294 0.0
O120 O 0.38998 0.08403 0.3765 0.0
O121 O 0.47677 0.03575 0.34754 0.0
O122 O 0.45203 0.06433 0.38298 0.0
C123 C 0.39445 0.09225 0.34967 0.0
C124 C 0.47032 0.04594 0.37719 0.0
O125 O 0.45009 0.05183 0.2821 0.0
Mg126 Mg 0.30908 0.19479 0.50425 0.0
O127 O 0.31205 0.22806 0.55973 0.0
O128 O 0.35675 0.26301 0.57594 0.0
Mg129 Mg 0.38385 0.2496 0.53241 0.0
C130 C 0.33112 0.25109 0.58219 0.0
C131 C 0.24681 0.14457 0.4964 0.0
O132 O 0.26454 0.12478 0.49266 0.0
O133 O 0.31475 0.23647 0.47385 0.0
O134 O 0.36199 0.2632 0.48866 0.0
O135 O 0.32234 0.15503 0.5241 0.0
O136 O 0.35408 0.19672 0.51218 0.0
C137 C 0.33834 0.25702 0.46964 0.0
C138 C 0.3491 0.16959 0.5226 0.0
O139 O 0.25762 0.17692 0.49973 0.0
Mg140 Mg 0.18916 1.01134 0.76968 0.0
O141 O 0.22183 0.07025 0.7787 0.0
O142 O 0.25599 0.07991 0.82091 0.0
Mg143 Mg 0.24065 0.03637 0.84932 0.0
C144 C 0.24547 0.0898 0.7974 0.0
C145 C 0.14624 0.02172 0.70071 0.0
O146 O 0.13343 0.0359 0.72501 0.0
O147 O 0.22234 0.96758 0.76856 0.0
O148 O 0.25237 0.98693 0.81598 0.0
O149 O 0.15128 0.0154 0.80566 0.0
O150 O 0.19256 0.02116 0.82878 0.0
C151 C 0.24353 0.96409 0.78793 0.0
C152 C 0.16604 0.01999 0.83342 0.0
O153 O 0.16729 1.00908 0.70917 0.0
Mg154 Mg 0.37391 0.98356 0.02346 0.0
O155 O 0.36738 0.93151 0.98674 0.0
O156 O 0.40658 0.91301 0.99391 0.0
Mg157 Mg 0.43854 0.95376 0.03578 0.0
C158 C 0.38154 0.90907 0.97892 0.0
C159 C 0.32356 1.00802 1.00639 0.0
O160 O 0.34555 0.02795 0.99732 0.0
O161 O 0.3638 0.95654 0.06327 0.0
O162 O 0.40531 0.94212 0.06946 0.0
O163 O 0.39648 1.00838 0.98677 0.0
O164 O 0.41743 0.99092 0.0252 0.0
C165 C 0.38043 0.94346 0.07752 0.0
C166 C 0.41905 1.0022 0.9996 0.0
O167 O 0.32704 0.98167 0.01418 0.0
Mg168 Mg 0.35206 0.41176 0.05337 0.0
O169 O 0.3456 0.37478 0.99938 0.0
O170 O 0.37609 0.34242 0.99652 0.0
Mg171 Mg 0.40124 0.36081 0.05087 0.0
C172 C 0.35679 0.35228 0.98233 0.0
C173 C 0.29848 0.44213 0.05739 0.0
O174 O 0.31376 0.46122 0.08587 0.0
O175 O 0.33306 0.37587 0.0858 0.0
O176 O 0.36711 0.34825 0.08727 0.0
O177 O 0.38314 0.44894 0.03418 0.0
O178 O 0.39727 0.4156 0.06162 0.0
C179 C 0.34453 0.35612 0.09784 0.0
C180 C 0.40405 0.43931 0.0464 0.0
O181 O 0.30807 0.41887 0.03944 0.0
Mg182 Mg 0.79762 0.11187 0.02833 0.0
O183 O 0.79466 0.14841 0.07738 0.0
O184 O 0.83654 0.18983 0.0842 0.0
Mg185 Mg 0.867 0.17812 0.04664 0.0
C186 C 0.81186 0.17781 0.09276 0.0
C187 C 0.72775 0.06912 1.00794 0.0
O188 O 0.7268 0.04045 0.98515 0.0
O189 O 0.79151 0.15133 1.00414 0.0
O190 O 0.83547 0.18899 0.01136 0.0
O191 O 0.81792 0.07759 0.04954 0.0
O192 O 0.83988 0.12672 0.04004 0.0
C193 C 0.80878 0.17771 0.99941 0.0
C194 C 0.84172 0.099 0.04658 0.0
O195 O 0.7512 0.09104 0.02143 0.0
Mg196 Mg 0.21553 0.5304 0.22103 0.0
O197 O 0.24463 0.58553 0.23379 0.0
O198 O 0.2682 0.60119 0.28594 0.0
Mg199 Mg 0.25758 0.55611 0.30818 0.0
C200 C 0.26225 0.60712 0.25825 0.0
C201 C 0.17637 0.51561 0.16826 0.0
O202 O 0.16651 0.49841 0.18929 0.0
O203 O 0.25364 0.51016 0.2036 0.0
O204 O 0.25563 0.53256 0.25568 0.0
O205 O 0.18267 0.55037 0.24441 0.0
O206 O 0.21499 0.53702 0.27472 0.0
C207 C 0.26823 0.52114 0.23189 0.0
C208 C 0.19299 0.54944 0.27293 0.0
O209 O 0.20283 0.53182 0.17151 0.0
Mg210 Mg 0.85125 0.9102 0.55453 0.0
O211 O 0.84521 0.87533 0.49939 0.0
O212 O 0.87559 0.84264 0.49566 0.0
Mg213 Mg 0.90248 0.86071 0.54908 0.0
C214 C 0.85619 0.85278 0.4819 0.0
C215 C 0.80235 0.94533 0.55832 0.0
O216 O 0.82271 0.96808 0.58096 0.0
O217 O 0.83275 0.87059 0.58338 0.0
O218 O 0.86865 0.84582 0.5851 0.0
O219 O 0.882 0.95186 0.53956 0.0
O220 O 0.89598 0.914 0.5609 0.0
C221 C 0.84525 0.85157 0.59524 0.0
C222 C 0.90276 0.94024 0.54895 0.0
O223 O 0.80707 0.91709 0.54321 0.0
Mg224 Mg 0.96956 0.0888 0.2862 0.0
O225 O 0.9352 0.03112 0.27667 0.0
O226 O 0.9074 0.03594 0.31747 0.0
Mg227 Mg 0.92548 0.09198 0.35483 0.0
C228 C 0.91447 0.0174 0.29155 0.0
C229 C 0.0102 0.09194 0.21702 0.0
O230 O 0.03035 0.11281 0.24098 0.0
O231 O 0.93286 0.12528 0.27861 0.0
O232 O 0.91175 0.12956 0.32434 0.0
O233 O 1.00359 0.07129 0.31943 0.0
O234 O 0.97109 0.09193 0.34242 0.0
C235 C 0.91547 0.13874 0.29758 0.0
C236 C 0.99255 0.07874 0.34661 0.0
O237 O 0.98504 0.07908 0.22599 0.0
Mg238 Mg 0.27764 0.60962 0.54091 0.0
O239 O 0.29399 0.65013 0.58985 0.0
O240 O 0.33376 0.68726 0.58231 0.0
Mg241 Mg 0.35537 0.65898 0.54149 0.0
C242 C 0.31188 0.6801 0.59744 0.0
C243 C 0.23116 0.56504 0.47956 0.0
O244 O 0.2218 0.54492 0.44933 0.0
O245 O 0.27922 0.65213 0.51559 0.0
O246 O 0.32574 0.67398 0.50902 0.0
O247 O 0.30224 0.57011 0.55223 0.0
O248 O 0.32095 0.61122 0.53161 0.0
C249 C 0.29875 0.67129 0.50393 0.0
C250 C 0.32392 0.58562 0.54065 0.0
O251 O 0.25781 0.57162 0.49091 0.0
Mg252 Mg 0.47403 0.59028 0.78949 0.0
O253 O 0.4386 0.5326 0.7788 0.0
O254 O 0.41042 0.53701 0.81913 0.0
Mg255 Mg 0.42835 0.59306 0.8562 0.0
C256 C 0.41768 0.5186 0.79332 0.0
C257 C 0.5137 0.58376 0.71923 0.0
O258 O 0.53568 0.59087 0.74238 0.0
O259 O 0.44058 0.63013 0.78274 0.0
O260 O 0.4154 0.63062 0.82517 0.0
O261 O 0.5058 0.57013 0.82277 0.0
O262 O 0.47481 0.594 0.84568 0.0
C263 C 0.42184 0.64226 0.80022 0.0
C264 C 0.495 0.57894 0.84993 0.0
O265 O 0.48811 0.58151 0.72911 0.0
Mg266 Mg 0.70839 0.03032 0.71209 0.0
O267 O 0.73135 0.08473 0.70442 0.0
O268 O 0.73897 0.08681 0.75584 0.0
Mg269 Mg 0.74706 0.08855 0.8099 0.0
C270 C 0.74368 0.10213 0.73343 0.0
C271 C 0.67683 0.99551 0.63841 0.0
O272 O 0.6728 0.9733 0.60901 0.0
O273 O 0.7506 0.0163 0.71445 0.0
O274 O 0.74499 0.04962 0.76057 0.0
O275 O 0.66979 0.04563 0.73007 0.0
O276 O 0.70969 0.05741 0.76507 0.0
C277 C 0.75984 0.03111 0.74474 0.0
C278 C 0.68274 0.05682 0.76027 0.0
O279 O 0.69864 0.99898 0.65859 0.0
Mg280 Mg 0.80903 0.69204 1.00268 0.0
O281 O 0.81165 0.72563 0.05823 0.0
O282 O 0.8557 0.76229 0.07357 0.0
Mg283 Mg 0.88272 0.74887 0.02961 0.0
C284 C 0.83038 0.74964 0.08029 0.0
C285 C 0.74324 0.64246 0.983 0.0
O286 O 0.75631 0.62228 0.96389 0.0
O287 O 0.81277 0.73372 0.97202 0.0
O288 O 0.86018 0.76067 0.9849 0.0
O289 O 0.82304 0.65367 0.02387 0.0
O290 O 0.85404 0.69519 0.01041 0.0
C291 C 0.83597 0.75414 0.96679 0.0
C292 C 0.84964 0.66903 0.02232 0.0
O293 O 0.75813 0.6731 0.99925 0.0
Mg294 Mg 0.94473 0.56052 0.8227 0.0
O295 O 0.91114 0.51075 0.8199 0.0
O296 O 0.90002 0.50626 0.86968 0.0
Mg297 Mg 0.92383 0.55999 0.90268 0.0
C298 C 0.89751 0.49418 0.83835 0.0
C299 C 0.95824 0.56175 0.76084 0.0
O300 O 0.97745 0.5865 0.7833 0.0
O301 O 0.91387 0.58986 0.82941 0.0
O302 O 0.89249 0.57773 0.87213 0.0
O303 O 0.97732 0.53424 0.82661 0.0
O304 O 0.9584 0.56316 0.86881 0.0
C305 C 0.89369 0.5897 0.84712 0.0
C306 C 0.97456 0.543 0.85779 0.0
O307 O 0.93434 0.54844 0.76914 0.0
Mg308 Mg 0.86891 0.48433 0.52779 0.0
O309 O 0.86868 0.43832 0.48413 0.0
O310 O 0.912 0.42717 0.48691 0.0
Mg311 Mg 0.92399 0.44413 0.54181 0.0
C312 C 0.8872 0.42326 0.47142 0.0
C313 C 0.82071 0.51 0.50508 0.0
O314 O 0.84396 0.53572 0.50804 0.0
O315 O 0.85143 0.45162 0.56189 0.0
O316 O 0.87581 0.41733 0.53684 0.0
O317 O 0.90041 0.5162 0.50291 0.0
O318 O 0.91194 0.4918 0.5413 0.0
C319 C 0.86025 0.42485 0.55917 0.0
C320 C 0.91981 0.50863 0.52025 0.0
O321 O 0.82406 0.48175 0.50837 0.0
Mg322 Mg 0.6892 0.51118 0.27443 0.0
O323 O 0.7234 0.56921 0.28267 0.0
O324 O 0.75719 0.57913 0.32494 0.0
Mg325 Mg 0.74076 0.53436 0.3518 0.0
C326 C 0.74703 0.58896 0.30122 0.0
C327 C 0.64344 0.51108 0.20099 0.0
O328 O 0.62183 0.50514 0.21822 0.0
O329 O 0.7233 0.46857 0.26932 0.0
O330 O 0.75322 0.48604 0.3168 0.0
O331 O 0.65505 0.52775 0.31156 0.0
O332 O 0.69174 0.51722 0.33221 0.0
C333 C 0.7444 0.46422 0.28814 0.0
C334 C 0.6678 0.52528 0.33813 0.0
O335 O 0.66937 0.51277 0.21474 0.0
Tb336 Tb 0.0477 0.02464 1.00043 0.0
C337 C 0.1431 0.15152 0.08052 0.0
C338 C 0.15732 0.18196 0.03966 0.0
C339 C 0.16992 0.21244 0.09817 0.0
C340 C 0.14367 0.15138 0.04788 0.0
C341 C 0.15604 0.18208 0.10613 0.0
C342 C 0.17069 0.21233 0.06497 0.0
C343 C 0.1422 0.14979 0.14552 0.0
N344 N 0.13006 0.12159 0.08725 0.0
C345 C 0.13125 0.11995 0.11936 0.0
C346 C 0.15467 0.18115 0.13896 0.0
Tb347 Tb 0.11349 0.0734 0.04303 0.0
N348 N 0.1296 0.12178 0.0242 0.0
C349 C 0.12839 0.12165 0.99148 0.0
C350 C 0.15656 0.18137 1.0063 0.0
C351 C 0.1418 0.15113 0.98215 0.0
H352 H 0.12294 0.09553 0.12486 0.0
H353 H 0.14046 0.15054 0.95623 0.0
H354 H 0.18131 0.23597 0.05911 0.0
H355 H 0.14095 0.14822 0.17061 0.0
H356 H 0.11635 0.09956 0.97198 0.0
H357 H 0.01661 0.95614 0.09397 0.0
H358 H 0.16672 0.20426 0.99898 0.0
H359 H 0.04271 0.99178 0.91766 0.0
H360 H 0.04165 1.00428 0.07569 0.0
H361 H 0.03339 0.93536 0.87731 0.0
H362 H 0.18014 0.2361 0.1175 0.0
H363 H 0.99442 0.89928 0.05387 0.0
H364 H 0.98484 0.86255 0.99556 0.0
H365 H 0.16369 0.20425 0.15933 0.0
H366 H 0.99091 0.8564 0.93706 0.0
N367 N 0.03257 0.97817 0.02343 0.0
C368 C 0.03103 0.98112 0.05661 0.0
C369 C 1.00506 0.92103 0.04515 0.0
C370 C 1.00735 0.91725 0.01166 0.0
C371 C 0.01736 0.95303 0.06775 0.0
C372 C 0.02143 0.94649 1.00147 0.0
H373 H 0.01109 0.88265 0.89344 0.0
N374 N 0.03689 0.97199 0.95964 0.0
C375 C 0.03068 0.93703 0.90294 0.0
C376 C 0.02439 0.94314 0.96867 0.0
C377 C 0.03772 0.96919 0.9265 0.0
C378 C 0.01819 0.90741 0.91211 0.0
C379 C 0.01398 0.91034 0.94507 0.0
O380 O 0.01399 0.01823 0.96423 0.0
O381 O 0.07227 0.07874 0.02274 0.0
O382 O 0.08292 0.08501 0.08048 0.0
O383 O 0.03921 0.04748 0.05286 0.0
O384 O 0.05346 0.0655 0.97526 0.0
O385 O 1.00738 0.02918 0.0165 0.0
O386 O 0.14127 0.05906 0.07328 0.0
O387 O 0.088 0.01935 0.02093 0.0
O388 O 0.07857 0.02397 0.96125 0.0
O389 O 0.12346 0.05273 0.99121 0.0
O390 O 0.10331 0.03514 0.07062 0.0
O391 O 0.1563 0.0767 0.03161 0.0
C392 C 0.06672 0.09201 0.99939 0.0
C393 C 0.966 0.01779 0.97491 0.0
C394 C 0.92035 0.0295 0.98519 0.0
C395 C 0.9496 0.03493 0.99574 0.0
C396 C 0.90717 1.00557 0.95479 0.0
C397 C 0.95319 0.99529 0.9439 0.0
C398 C 0.9237 0.98847 0.9344 0.0
C399 C 0.055 0.06953 0.08083 0.0
C400 C 0.99615 0.02217 0.98583 0.0
C401 C 0.99951 0.88151 0.95495 0.0
C402 C 0.99602 0.88502 0.98818 0.0
C403 C 0.09121 1.00832 0.04636 0.0
C404 C 0.1917 0.0765 0.07428 0.0
C405 C 0.21345 0.06607 0.05736 0.0
C406 C 0.23922 0.06611 0.07484 0.0
C407 C 0.24328 0.07794 0.10969 0.0
C408 C 0.19662 0.08983 0.10893 0.0
C409 C 0.22246 0.09072 0.12648 0.0
C410 C 0.10734 0.03533 0.96217 0.0
C411 C 0.16251 0.06478 0.05616 0.0
H412 H 0.9597 0.05328 0.01937 0.0
H413 H 0.88435 1.00092 0.94652 0.0
H414 H 0.96598 0.98275 0.92728 0.0
H415 H 0.91386 0.97006 0.91123 0.0
H416 H 0.2095 0.05592 0.03058 0.0
H417 H 0.26212 0.07653 0.12411 0.0
H418 H 0.17994 0.09748 0.12262 0.0
H419 H 0.22578 0.09982 0.15327 0.0
Tb420 Tb 0.34858 0.78595 0.24347 0.0
C421 C 0.31418 0.88514 0.35693 0.0
C422 C 0.36004 0.91998 0.38922 0.0
C423 C 0.31807 0.94248 0.39336 0.0
C424 C 0.34308 0.88896 0.36626 0.0
C425 C 0.30117 0.91152 0.3712 0.0
C426 C 0.34747 0.94672 0.40233 0.0
C427 C 0.25483 0.87293 0.34509 0.0
N428 N 0.29832 0.85478 0.33567 0.0
C429 C 0.2687 0.84773 0.33194 0.0
C430 C 0.27123 0.90536 0.36423 0.0
Tb431 Tb 0.32128 0.81185 0.31991 0.0
N432 N 0.35451 0.86239 0.35311 0.0
C433 C 0.38356 0.86667 0.36174 0.0
C434 C 0.38915 0.92334 0.39859 0.0
C435 C 0.40094 0.89658 0.38472 0.0
H436 H 0.25538 0.82199 0.32009 0.0
H437 H 0.42373 0.89926 0.39109 0.0
H438 H 0.36022 0.97062 0.41981 0.0
H439 H 0.23142 0.86686 0.34139 0.0
H440 H 0.39473 0.84852 0.35035 0.0
H441 H 0.24647 0.69898 0.17252 0.0
H442 H 0.40281 0.94668 0.41608 0.0
H443 H 0.41437 0.77345 0.25146 0.0
H444 H 0.27531 0.74996 0.21347 0.0
H445 H 0.43802 0.72883 0.2294 0.0
H446 H 0.30845 0.96297 0.40435 0.0
H447 H 0.26802 0.65242 0.14655 0.0
H448 H 0.3112 0.62968 0.14142 0.0
H449 H 0.26044 0.92474 0.37499 0.0
H450 H 0.36268 0.63703 0.15803 0.0
N451 N 0.31518 0.73531 0.21186 0.0
C452 C 0.28632 0.73137 0.2026 0.0
C453 C 0.28131 0.67525 0.165 0.0
C454 C 0.31035 0.67853 0.1748 0.0
C455 C 0.26917 0.70156 0.17936 0.0
C456 C 0.3268 0.70877 0.1991 0.0
H457 H 0.40964 0.67312 0.19121 0.0
N458 N 0.37118 0.742 0.23227 0.0
C459 C 0.4147 0.72327 0.22435 0.0
C460 C 0.35561 0.71226 0.20954 0.0
C461 C 0.40081 0.74825 0.23802 0.0
C462 C 0.39865 0.69205 0.20266 0.0
C463 C 0.36894 0.68648 0.1944 0.0
O464 O 0.3885 0.81066 0.23053 0.0
O465 O 0.35229 0.82634 0.28838 0.0
O466 O 0.29142 0.81772 0.27892 0.0
O467 O 0.31027 0.80191 0.22874 0.0
O468 O 0.35273 0.83958 0.24413 0.0
O469 O 0.35218 0.77751 0.19339 0.0
O470 O 0.28091 0.78233 0.32699 0.0
O471 O 0.31724 0.77183 0.27411 0.0
O472 O 0.37851 0.78309 0.28586 0.0
O473 O 0.35936 0.79671 0.33584 0.0
O474 O 0.31994 0.75873 0.31801 0.0
O475 O 0.31565 0.81143 0.36877 0.0
C476 C 0.3533 0.85077 0.27559 0.0
C477 C 0.39041 0.81069 0.17426 0.0
C478 C 0.38458 0.84305 0.13577 0.0
C479 C 0.37604 0.83163 0.16286 0.0
C480 C 0.40737 0.83347 0.11994 0.0
C481 C 0.41336 0.80126 0.15886 0.0
C482 C 0.42177 0.81261 0.13158 0.0
C483 C 0.29024 0.81274 0.24594 0.0
C484 C 0.37953 0.79463 0.19921 0.0
C485 C 0.35268 0.65677 0.17005 0.0
C486 C 0.32343 0.65269 0.16044 0.0
C487 C 0.31744 0.74745 0.2864 0.0
C488 C 0.27068 0.77995 0.38175 0.0
C489 C 0.28001 0.76084 0.4008 0.0
C490 C 0.26247 0.74869 0.42276 0.0
C491 C 0.2355 0.75565 0.42562 0.0
C492 C 0.24378 0.78706 0.38446 0.0
C493 C 0.22627 0.775 0.40657 0.0
C494 C 0.37944 0.78675 0.31851 0.0
C495 C 0.2891 0.79188 0.35885 0.0
H496 H 0.35862 0.83937 0.17522 0.0
H497 H 0.4147 0.84331 0.09952 0.0
H498 H 0.42428 0.78455 0.16749 0.0
H499 H 0.43953 0.80547 0.11968 0.0
H500 H 0.30071 0.75502 0.39822 0.0
H501 H 0.22186 0.74648 0.44282 0.0
H502 H 0.23644 0.80201 0.36973 0.0
H503 H 0.20558 0.78064 0.40895 0.0
Tb504 Tb 0.61301 0.05878 0.51437 0.0
C505 C 0.51259 0.99555 0.58082 0.0
C506 C 0.48511 0.94619 0.53632 0.0
C507 C 0.48406 0.94414 0.59334 0.0
C508 C 0.50413 0.97997 0.54746 0.0
C509 C 0.50197 0.97827 0.60424 0.0
C510 C 0.47573 0.92808 0.5594 0.0
C511 C 0.52511 0.03087 0.64734 0.0
N512 N 0.52981 0.02851 0.59042 0.0
C513 C 0.53504 0.04689 0.62313 0.0
C514 C 0.50888 0.99622 0.63789 0.0
Tb515 Tb 0.54601 0.05261 0.5495 0.0
N516 N 0.51334 0.9986 0.52607 0.0
C517 C 0.50217 0.98534 0.49306 0.0
C518 C 0.47535 0.932 0.50248 0.0
C519 C 0.48354 0.95194 0.48086 0.0
H520 H 0.5476 0.07373 0.63046 0.0
H521 H 0.47554 0.9416 0.45467 0.0
H522 H 0.46136 0.90205 0.5513 0.0
H523 H 0.52994 0.04528 0.67326 0.0
H524 H 0.50751 0.99952 0.47519 0.0
H525 H 0.67833 0.18132 0.59721 0.0
H526 H 0.46085 0.90614 0.49296 0.0
H527 H 0.60697 0.02724 0.4327 0.0
H528 H 0.6425 0.12575 0.583 0.0
H529 H 0.62685 0.04587 0.3856 0.0
H530 H 0.47593 0.93029 0.61095 0.0
H531 H 0.70064 0.20414 0.55331 0.0
H532 H 0.70481 0.19584 0.49301 0.0
H533 H 0.50109 0.9839 0.65667 0.0
H534 H 0.69045 0.15943 0.43547 0.0
N535 N 0.64441 0.114 0.53087 0.0
C536 C 0.65257 0.13355 0.5632 0.0
C537 C 0.68503 0.1789 0.54676 0.0
C538 C 0.67699 0.15907 0.51378 0.0
C539 C 0.67267 0.16605 0.57157 0.0
C540 C 0.65644 0.12637 0.50657 0.0
H541 H 0.66131 0.10368 0.39523 0.0
N542 N 0.62867 0.07477 0.46864 0.0
C543 C 0.63289 0.06319 0.41042 0.0
C544 C 0.64824 0.10609 0.47435 0.0
C545 C 0.62154 0.05281 0.43716 0.0
C546 C 0.65236 0.0958 0.41595 0.0
C547 C 0.6605 0.11759 0.44823 0.0
O548 O 0.62642 0.01448 0.49506 0.0
O549 O 0.57566 0.02461 0.52758 0.0
O550 O 0.57631 0.04302 0.58457 0.0
O551 O 0.62011 0.06718 0.56785 0.0
O552 O 0.58756 1.00838 0.4818 0.0
O553 O 0.65442 0.05703 0.53318 0.0
O554 O 0.53094 0.09394 0.57437 0.0
O555 O 0.58273 0.08623 0.53598 0.0
O556 O 0.58588 0.07055 0.47928 0.0
O557 O 0.54163 0.05018 0.4975 0.0
O558 O 0.5703 0.10391 0.58106 0.0
O559 O 0.5062 0.05799 0.52962 0.0
C560 C 0.56991 0.99903 0.50167 0.0
C561 C 0.67558 0.01806 0.49717 0.0
C562 C 0.7145 0.99067 0.49739 0.0
C563 C 0.6946 1.00565 0.51405 0.0
C564 C 0.71587 0.98869 0.46381 0.0
C565 C 0.67724 0.01641 0.46358 0.0
C566 C 0.69743 1.00191 0.44705 0.0
C567 C 0.60484 0.0561 0.58989 0.0
C568 C 0.65121 0.02621 0.51352 0.0
C569 C 0.6808 0.15015 0.45518 0.0
C570 C 0.68901 0.17086 0.48792 0.0
C571 C 0.58737 0.11293 0.56047 0.0
C572 C 0.48153 0.09124 0.56709 0.0
C573 C 0.46244 0.10448 0.55059 0.0
C574 C 0.4395 0.11423 0.56609 0.0
C575 C 0.43622 0.11127 0.59822 0.0
C576 C 0.47734 0.08779 0.59891 0.0
C577 C 0.45495 0.09802 0.61441 0.0
C578 C 0.55755 0.05991 0.47551 0.0
C579 C 0.50791 0.08598 0.5531 0.0
H580 H 0.69309 1.00621 0.5398 0.0
H581 H 0.7313 0.9772 0.45074 0.0
H582 H 0.6624 0.02506 0.4498 0.0
H583 H 0.69841 1.00032 0.4211 0.0
H584 H 0.46551 0.10737 0.52605 0.0
H585 H 0.4189 0.11902 0.61071 0.0
H586 H 0.49191 0.07822 0.61226 0.0
H587 H 0.45219 0.09589 0.63918 0.0
Tb588 Tb 0.30132 0.30842 0.78043 0.0
C589 C 0.40019 0.26777 0.83703 0.0
C590 C 0.42168 0.31881 0.88265 0.0
C591 C 0.42615 0.26291 0.88631 0.0
C592 C 0.40533 0.30281 0.85098 0.0
C593 C 0.41124 0.24752 0.85413 0.0
C594 C 0.43141 0.29855 0.90053 0.0
C595 C 0.39599 0.19967 0.80461 0.0
N596 N 0.3864 0.25403 0.80564 0.0
C597 C 0.38583 0.22102 0.78864 0.0
C598 C 0.40823 0.21279 0.83777 0.0
Tb599 Tb 0.36962 0.29022 0.78118 0.0
N600 N 0.39572 0.32146 0.83277 0.0
C601 C 0.40304 0.35692 0.84489 0.0
C602 C 0.42859 0.35478 0.89502 0.0
C603 C 0.41953 0.37392 0.87582 0.0
H604 H 0.37733 0.21125 0.76261 0.0
H605 H 0.42466 0.40183 0.88512 0.0
H606 H 0.44373 0.31034 0.92497 0.0
H607 H 0.39476 0.17331 0.79121 0.0
H608 H 0.39504 0.37283 0.83233 0.0
H609 H 0.24543 0.19407 0.67991 0.0
H610 H 0.4412 0.36803 0.91911 0.0
H611 H 0.29525 0.38868 0.79553 0.0
H612 H 0.27347 0.22465 0.73355 0.0
H613 H 0.27676 0.42435 0.76515 0.0
H614 H 0.43457 0.24772 0.89995 0.0
H615 H 0.22995 0.22628 0.64352 0.0
H616 H 0.22697 0.28301 0.63552 0.0
H617 H 0.41643 0.19637 0.85002 0.0
H618 H 0.23574 0.34584 0.65854 0.0
N619 N 0.27495 0.27559 0.72957 0.0
C620 C 0.26703 0.24002 0.71907 0.0
C621 C 0.24244 0.24031 0.66754 0.0
C622 C 0.2493 0.27637 0.6787 0.0
C623 C 0.25098 0.22207 0.68805 0.0
C624 C 0.26564 0.29345 0.71023 0.0
H625 H 0.25397 0.39863 0.7069 0.0
N626 N 0.28495 0.34376 0.75415 0.0
C627 C 0.27524 0.3976 0.75282 0.0
C628 C 0.27084 0.32874 0.72296 0.0
C629 C 0.28583 0.37736 0.76985 0.0
C630 C 0.26245 0.38301 0.71996 0.0
C631 C 0.25948 0.348 0.70486 0.0
O632 O 0.28075 0.33205 0.81874 0.0
O633 O 0.33632 0.30195 0.81158 0.0
O634 O 0.33887 0.24173 0.78737 0.0
O635 O 0.29447 0.25482 0.78644 0.0
O636 O 0.32196 0.34533 0.82749 0.0
O637 O 0.25921 0.28163 0.78677 0.0
O638 O 0.38944 0.26923 0.7406 0.0
O639 O 0.33458 0.29674 0.7502 0.0
O640 O 0.33169 0.35623 0.7736 0.0
O641 O 0.37653 0.34507 0.77859 0.0
O642 O 0.34802 0.25273 0.73469 0.0
O643 O 0.4121 0.31713 0.77527 0.0
C644 C 0.33869 0.32835 0.8362 0.0
C645 C 0.22972 0.31522 0.81515 0.0
C646 C 0.18589 0.31307 0.84193 0.0
C647 C 0.21043 0.30104 0.83513 0.0
C648 C 0.18085 0.33926 0.82882 0.0
C649 C 0.22351 0.34042 0.80131 0.0
C650 C 0.19946 0.35264 0.80842 0.0
C651 C 0.3101 0.23258 0.78771 0.0
C652 C 0.25753 0.30629 0.81213 0.0
C653 C 0.2444 0.33142 0.6729 0.0
C654 C 0.23937 0.29566 0.65982 0.0
C655 C 0.33158 0.26999 0.72583 0.0
C656 C 0.44051 0.28492 0.74182 0.0
C657 C 0.46011 0.30114 0.72292 0.0
C658 C 0.484 0.28836 0.71326 0.0
C659 C 0.48788 0.25951 0.72263 0.0
C660 C 0.44585 0.25689 0.75152 0.0
C661 C 0.46912 0.24415 0.7418 0.0
C662 C 0.36054 0.36658 0.77591 0.0
C663 C 0.413 0.29449 0.7479 0.0
H664 H 0.21479 0.28142 0.84592 0.0
H665 H 0.16222 0.34902 0.83407 0.0
H666 H 0.23729 0.35107 0.78535 0.0
H667 H 0.19528 0.37264 0.79815 0.0
H668 H 0.45646 0.32289 0.71516 0.0
H669 H 0.50589 0.24917 0.71554 0.0
H670 H 0.4318 0.24428 0.76612 0.0
H671 H 0.47257 0.2221 0.74909 0.0
Tb672 Tb 0.06799 0.0843 0.54177 0.0
C673 C 0.0859 0.97099 0.42671 0.0
C674 C 0.03949 0.95121 0.39217 0.0
C675 C 0.08138 0.93678 0.36939 0.0
C676 C 0.05693 0.96951 0.42287 0.0
C677 C 0.09846 0.95439 0.40007 0.0
C678 C 0.05192 0.93512 0.36547 0.0
C679 C 0.14317 0.97061 0.43685 0.0
N680 N 0.10147 0.98707 0.457 0.0
C681 C 0.12956 0.9859 0.46259 0.0
C682 C 0.12758 0.95492 0.40535 0.0
Tb683 Tb 0.07686 1.00736 0.49928 0.0
N684 N 0.04557 0.98458 0.44955 0.0
C685 C 0.01628 0.98175 0.44645 0.0
C686 C 0.00992 0.94873 0.38932 0.0
C687 C 0.99831 0.96422 0.41657 0.0
H688 H 0.14143 0.99644 0.48719 0.0
H689 H 0.97539 0.9625 0.41473 0.0
H690 H 0.03883 0.9209 0.34184 0.0
H691 H 0.16548 0.97031 0.44152 0.0
H692 H 1.00589 0.9934 0.4664 0.0
H693 H 0.17316 0.13245 0.6186 0.0
H694 H 0.99584 0.93462 0.36634 0.0
H695 H 1.00222 0.08766 0.55977 0.0
H696 H 0.13987 0.09875 0.56903 0.0
H697 H 0.98048 0.11363 0.60788 0.0
H698 H 0.09061 0.92377 0.34873 0.0
H699 H 0.15513 0.16185 0.6684 0.0
H700 H 0.11322 0.17495 0.69624 0.0
H701 H 0.13799 0.94248 0.38554 0.0
H702 H 0.06086 0.16866 0.69383 0.0
N703 N 0.10167 0.10833 0.58891 0.0
C704 C 0.13088 0.11141 0.58979 0.0
C705 C 0.14002 0.14702 0.64633 0.0
C706 C 0.11037 0.14397 0.64566 0.0
C707 C 0.15026 0.1305 0.61831 0.0
C708 C 0.09152 0.12433 0.61626 0.0
H709 H 0.0113 0.14548 0.66131 0.0
N710 N 0.04469 0.10182 0.58632 0.0
C711 C 1.0034 0.11543 0.6104 0.0
C712 C 0.06205 0.12044 0.61508 0.0
C713 C 0.01578 0.10039 0.58333 0.0
C714 C 0.02087 0.13343 0.64045 0.0
C715 C 0.05062 0.13658 0.64297 0.0
O716 O 0.04518 0.11906 0.53365 0.0
O717 O 0.06525 0.05314 0.4899 0.0
O718 O 0.11413 0.04374 0.48849 0.0
O719 O 0.11008 0.09545 0.52233 0.0
O720 O 0.03076 0.07103 0.50319 0.0
O721 O 0.09279 0.13455 0.54404 0.0
O722 O 0.09663 0.97319 0.51388 0.0
O723 O 0.07922 0.03901 0.55094 0.0
O724 O 0.03363 0.04566 0.55562 0.0
O725 O 0.03355 0.99801 0.51365 0.0
O726 O 0.1136 0.02126 0.53902 0.0
O727 O 0.05026 0.95879 0.50041 0.0
C728 C 0.04077 0.05613 0.47756 0.0
C729 C 0.06935 0.17808 0.53747 0.0
C730 C 0.09039 0.22822 0.51914 0.0
C731 C 0.09132 0.19629 0.52346 0.0
C732 C 0.06808 0.24268 0.53068 0.0
C733 C 0.04702 0.19233 0.54872 0.0
C734 C 0.04663 0.22485 0.54567 0.0
C735 C 0.12446 0.07734 0.50256 0.0
C736 C 0.06917 0.14358 0.53887 0.0
C737 C 0.06926 0.15608 0.6722 0.0
C738 C 0.09907 0.15977 0.67353 0.0
C739 C 0.10319 0.03608 0.5644 0.0
C740 C 0.07246 0.91466 0.50608 0.0
C741 C 0.05772 0.89617 0.52626 0.0
C742 C 0.06164 0.86401 0.5265 0.0
C743 C 0.08033 0.8503 0.50606 0.0
C744 C 0.09088 0.9008 0.48547 0.0
C745 C 0.0947 0.86855 0.48546 0.0
C746 C 0.02103 1.01359 0.53735 0.0
C747 C 0.07224 0.95059 0.51234 0.0
H748 H 0.10846 0.18498 0.51466 0.0
H749 H 0.06666 0.26717 0.52708 0.0
H750 H 0.02994 0.17829 0.55973 0.0
H751 H 0.02935 0.23587 0.55419 0.0
H752 H 0.04453 0.90778 0.54326 0.0
H753 H 0.08385 0.82554 0.50614 0.0
H754 H 0.10299 0.91534 0.47039 0.0
H755 H 0.10927 0.858 0.47 0.0
Tb756 Tb 0.36166 0.8176 0.77335 0.0
C757 C 0.27911 0.71846 0.83084 0.0
C758 C 0.26656 0.66226 0.79028 0.0
C759 C 0.26035 0.66608 0.84773 0.0
C760 C 0.27851 0.69853 0.79886 0.0
C761 C 0.26982 0.70233 0.8556 0.0
C762 C 0.25812 0.64613 0.815 0.0
C763 C 0.27427 0.75869 0.89254 0.0
N764 N 0.28657 0.75346 0.83708 0.0
C765 C 0.28191 0.77332 0.86681 0.0
C766 C 0.26868 0.72304 0.88709 0.0
Tb767 Tb 0.29647 0.77365 0.79147 0.0
N768 N 0.28857 0.71461 0.77585 0.0
C769 C 0.28865 0.69523 0.7442 0.0
C770 C 0.26334 0.64322 0.75704 0.0
C771 C 0.27478 0.65977 0.73392 0.0
H772 H 0.28433 0.80068 0.87066 0.0
H773 H 0.27427 0.64498 0.70859 0.0
H774 H 0.24967 0.61826 0.80899 0.0
H775 H 0.27178 0.77481 0.91621 0.0
H776 H 0.3004 0.70625 0.72694 0.0
H777 H 0.36214 0.94602 0.84479 0.0
H778 H 0.25356 0.6155 0.74935 0.0
H779 H 0.38151 0.78858 0.70037 0.0
H780 H 0.34851 0.88323 0.8318 0.0
H781 H 0.40331 0.81338 0.6572 0.0
H782 H 0.2534 0.6533 0.86648 0.0
H783 H 0.38542 0.97529 0.80512 0.0
H784 H 0.40247 0.97054 0.7495 0.0
H785 H 0.26194 0.71159 0.90677 0.0
H786 H 0.4102 0.93413 0.69669 0.0
N787 N 0.3643 0.87534 0.78466 0.0
C788 C 0.35879 0.89487 0.81389 0.0
C789 C 0.3794 0.94729 0.79903 0.0
C790 C 0.38391 0.92734 0.76864 0.0
C791 C 0.36632 0.93091 0.82148 0.0
C792 C 0.37567 0.89093 0.76191 0.0
H793 H 0.41028 0.87549 0.66186 0.0
N794 N 0.37478 0.83586 0.72827 0.0
C795 C 0.3964 0.8296 0.67788 0.0
C796 C 0.37974 0.87038 0.73207 0.0
C797 C 0.3839 0.81561 0.70222 0.0
C798 C 0.40014 0.86464 0.6805 0.0
C799 C 0.39259 0.88573 0.70828 0.0
O800 O 0.40088 0.80516 0.76504 0.0
O801 O 0.34252 0.77066 0.79004 0.0
O802 O 0.32469 0.79392 0.83788 0.0
O803 O 0.36309 0.83345 0.82657 0.0
O804 O 0.36574 0.76397 0.75285 0.0
O805 O 0.39974 0.84863 0.8052 0.0
O806 O 0.25954 0.78704 0.80622 0.0
O807 O 0.31666 0.82194 0.77876 0.0
O808 O 0.33326 0.80322 0.72665 0.0
O809 O 0.29687 0.76168 0.73834 0.0
O810 O 0.28293 0.82167 0.80322 0.0
O811 O 0.25666 0.74546 0.76139 0.0
C812 C 0.35383 0.74713 0.77274 0.0
C813 C 0.44456 0.84928 0.78416 0.0
C814 C 0.49654 0.85942 0.79369 0.0
C815 C 0.46891 0.84554 0.80112 0.0
C816 C 0.50006 0.87794 0.77 0.0
C817 C 0.44834 0.86792 0.76054 0.0
C818 C 0.4759 0.88239 0.75362 0.0
C819 C 0.34774 0.82024 0.84707 0.0
C820 C 0.41588 0.83064 0.78966 0.0
C821 C 0.40013 0.92189 0.71453 0.0
C822 C 0.39604 0.94265 0.74475 0.0
C823 C 0.29895 0.84151 0.78866 0.0
C824 C 0.21454 0.74596 0.78851 0.0
C825 C 0.19082 0.73799 0.7643 0.0
C826 C 0.16274 0.73066 0.77276 0.0
C827 C 0.15859 0.73055 0.80555 0.0
C828 C 0.21006 0.74445 0.82082 0.0
C829 C 0.18214 0.73666 0.82922 0.0
C830 C 0.30981 0.77692 0.71732 0.0
C831 C 0.24268 0.7634 0.7813 0.0
H832 H 0.46634 0.83043 0.81887 0.0
H833 H 0.52139 0.88835 0.76386 0.0
H834 H 0.43035 0.8709 0.74693 0.0
H835 H 0.47845 0.89635 0.73502 0.0
H836 H 0.19426 0.73986 0.73952 0.0
H837 H 0.13721 0.72699 0.81326 0.0
H838 H 0.22792 0.75125 0.84011 0.0
H839 H 0.1788 0.73694 0.85447 0.0
Tb840 Tb 0.57831 0.03065 0.05806 0.0
C841 C 0.52221 0.07944 0.95516 0.0
C842 C 0.49691 0.02382 0.91751 0.0
C843 C 0.47494 0.07142 0.92521 0.0
C844 C 0.52101 0.04552 0.9406 0.0
C845 C 0.49962 0.0932 0.94691 0.0
C846 C 0.47359 0.03672 0.9105 0.0
C847 C 0.52876 0.14947 0.97958 0.0
N848 N 0.54607 0.09933 0.97654 0.0
C849 C 0.55051 0.13448 0.9869 0.0
C850 C 0.50288 0.12858 0.9601 0.0
Tb851 Tb 0.57902 0.07196 0.99102 0.0
N852 N 0.54346 0.03376 0.94922 0.0
C853 C 0.54354 1.00043 0.93386 0.0
C854 C 0.49698 0.98988 0.90213 0.0
C855 C 0.52063 0.9784 0.90996 0.0
H856 H 0.57045 0.15081 1.00213 0.0
H857 H 0.52072 0.95216 0.89831 0.0
H858 H 0.45467 0.02025 0.89336 0.0
H859 H 0.53194 0.17708 0.98905 0.0
H860 H 0.56028 0.98961 0.94065 0.0
H861 H 0.64345 0.15144 0.14523 0.0
H862 H 0.47892 0.97237 0.88429 0.0
H863 H 0.58283 0.95049 0.04634 0.0
H864 H 0.60243 0.11524 0.10485 0.0
H865 H 0.61589 0.92019 0.06538 0.0
H866 H 0.45711 0.08134 0.91904 0.0
H867 H 0.6805 0.12637 0.16453 0.0
H868 H 0.69779 0.07393 0.16301 0.0
H869 H 0.48601 0.14018 0.95449 0.0
H870 H 0.69033 1.01108 0.14152 0.0
N871 N 0.61448 0.06792 0.10005 0.0
C872 C 0.61733 0.10267 0.11302 0.0
C873 C 0.66195 0.10974 0.14691 0.0
C874 C 0.6585 0.0742 0.13501 0.0
C875 C 0.64109 0.12394 0.13609 0.0
C876 C 0.63412 0.05375 0.11168 0.0
H877 H 0.65975 0.95353 0.10536 0.0
N878 N 0.60763 1.00054 0.07533 0.0
C879 C 0.62035 0.94799 0.07493 0.0
C880 C 0.63033 0.01872 0.09916 0.0
C881 C 0.60165 0.96526 0.06429 0.0
C882 C 0.64503 0.96686 0.09754 0.0
C883 C 0.65021 1.00268 0.11014 0.0
O884 O 0.54758 0.98802 0.06414 0.0
O885 O 0.55543 0.04015 0.01797 0.0
O886 O 0.56057 0.1018 0.02996 0.0
O887 O 0.56126 0.07575 0.07345 0.0
O888 O 0.54287 0.99148 0.02246 0.0
O889 O 0.55697 0.03863 0.09994 0.0
O890 O 0.60814 0.11439 0.98245 0.0
O891 O 0.60197 0.06319 0.03129 0.0
O892 O 0.59964 1.00238 0.02096 0.0
O893 O 0.59889 0.02875 0.97781 0.0
O894 O 0.61331 0.11175 0.0267 0.0
O895 O 0.59956 0.06323 0.94837 0.0
C896 C 0.53657 1.01193 1.00654 0.0
C897 C 0.53981 0.98961 0.11897 0.0
C898 C 0.52154 0.98991 0.171 0.0
C899 C 0.52932 1.0062 0.14659 0.0
C900 C 0.52594 0.95727 0.16879 0.0
C901 C 0.54395 0.95672 0.11628 0.0
C902 C 0.53734 0.94083 0.14148 0.0
C903 C 0.55607 0.09976 0.06014 0.0
C904 C 0.54252 1.00595 0.09219 0.0
C905 C 0.6746 0.02285 0.13312 0.0
C906 C 0.67882 0.0586 0.1454 0.0
C907 C 0.62108 0.09156 0.04208 0.0
C908 C 0.61389 0.1109 0.92675 0.0
C909 C 0.62492 0.09532 0.89877 0.0
C910 C 0.62845 0.11048 0.87272 0.0
C911 C 0.62104 0.1415 0.87478 0.0
C912 C 0.60624 0.14181 0.9286 0.0
C913 C 0.60986 0.157 0.90263 0.0
C914 C 0.60569 1.00572 0.99147 0.0
C915 C 0.61315 0.09596 0.95459 0.0
H916 H 0.5265 0.03178 0.14869 0.0
H917 H 0.52019 0.94441 0.1878 0.0
H918 H 0.55162 0.94304 0.09467 0.0
H919 H 0.54045 0.91549 0.13947 0.0
H920 H 0.63109 0.07161 0.89742 0.0
H921 H 0.6243 0.15394 0.85508 0.0
H922 H 0.59808 0.15463 0.95026 0.0
H923 H 0.60437 0.18105 0.90428 0.0
Tb924 Tb 0.36257 0.35054 0.30285 0.0
C925 C 0.24867 0.2287 0.23466 0.0
C926 C 0.22062 0.22479 0.27978 0.0
C927 C 0.19791 0.19594 0.22344 0.0
C928 C 0.24702 0.23704 0.26793 0.0
C929 C 0.22428 0.2073 0.21187 0.0
C930 C 0.19599 0.20479 0.25732 0.0
C931 C 0.25487 0.20533 0.16874 0.0
N932 N 0.27491 0.23857 0.22483 0.0
C933 C 0.27835 0.22583 0.19245 0.0
C934 C 0.22758 0.19614 0.17846 0.0
Tb935 Tb 0.31443 0.26629 0.26472 0.0
N936 N 0.27177 0.25488 0.28875 0.0
C937 C 0.27098 0.26042 0.32226 0.0
C938 C 0.22001 0.23143 0.31382 0.0
C939 C 0.2454 0.2492 0.33514 0.0
H940 H 0.29955 0.22919 0.18514 0.0
H941 H 0.24537 0.25446 0.36167 0.0
H942 H 0.17564 0.19501 0.26594 0.0
H943 H 0.25811 0.19537 0.14328 0.0
H944 H 0.28942 0.27513 0.34021 0.0
H945 H 0.42919 0.36914 0.20573 0.0
H946 H 0.20025 0.22236 0.32384 0.0
H947 H 0.37747 0.37617 0.38337 0.0
H948 H 0.3854 0.34611 0.22707 0.0
H949 H 0.41908 0.41131 0.4253 0.0
H950 H 0.17919 0.17925 0.20662 0.0
H951 H 0.47365 0.40341 0.24389 0.0
H952 H 0.49657 0.43386 0.30193 0.0
H953 H 0.20968 0.17895 0.16033 0.0
H954 H 0.49215 0.44797 0.36103 0.0
N955 N 0.40431 0.36223 0.27806 0.0
C956 C 0.40439 0.35916 0.24478 0.0
C957 C 0.45455 0.39168 0.25365 0.0
C958 C 0.45418 0.39692 0.28764 0.0
C959 C 0.42952 0.37257 0.23212 0.0
C960 C 0.42878 0.38084 0.29919 0.0
H961 H 0.46624 0.43376 0.40768 0.0
N962 N 0.40202 0.3733 0.34276 0.0
C963 C 0.42189 0.40419 0.39937 0.0
C964 C 0.42748 0.38682 0.3327 0.0
C965 C 0.39857 0.38356 0.37554 0.0
C966 C 0.44836 0.41719 0.38934 0.0
C967 C 0.45101 0.41 0.35564 0.0
O968 O 0.35348 0.39209 0.33656 0.0
O969 O 0.3183 0.31971 0.28823 0.0
O970 O 0.30836 0.29537 0.22842 0.0
O971 O 0.34457 0.34774 0.25123 0.0
O972 O 0.3301 0.35107 0.33623 0.0
O973 O 0.36833 0.39709 0.28939 0.0
O974 O 0.32673 0.22553 0.23375 0.0
O975 O 0.35908 0.29783 0.2776 0.0
O976 O 0.36943 0.31946 0.33744 0.0
O977 O 0.32961 0.27126 0.31691 0.0
O978 O 0.34413 0.26866 0.22907 0.0
O979 O 0.31878 0.22542 0.28359 0.0
C980 C 0.30887 0.33043 0.31498 0.0
C981 C 0.3619 0.44832 0.32813 0.0
C982 C 0.34914 0.49342 0.3096 0.0
C983 C 0.35998 0.46469 0.30354 0.0
C984 C 0.34645 0.51018 0.34242 0.0
C985 C 0.35929 0.46469 0.36092 0.0
C986 C 0.35258 0.49637 0.36818 0.0
C987 C 0.3251 0.3255 0.22612 0.0
C988 C 0.36215 0.41231 0.31816 0.0
C989 C 0.4755 0.42733 0.34417 0.0
C990 C 0.47753 0.42004 0.31034 0.0
C991 C 0.36646 0.28858 0.24918 0.0
C992 C 0.3142 0.17151 0.24467 0.0
C993 C 0.32088 0.15468 0.26724 0.0
C994 C 0.32326 0.12122 0.25628 0.0
C995 C 0.31458 0.10219 0.22305 0.0
C996 C 0.30513 0.15291 0.21115 0.0
C997 C 0.30448 0.11786 0.20064 0.0
C998 C 0.3507 0.29118 0.34093 0.0
C999 C 0.32551 0.2089 0.25582 0.0
H1000 H 0.36321 0.45252 0.27855 0.0
H1001 H 0.33804 0.53259 0.34793 0.0
H1002 H 0.36135 0.45248 0.3805 0.0
H1003 H 0.3501 0.50887 0.39332 0.0
H1004 H 0.32895 0.16945 0.29287 0.0
H1005 H 0.31696 0.07626 0.2143 0.0
H1006 H 0.30025 0.16571 0.19294 0.0
H1007 H 0.29825 0.10367 0.17477 0.0
Tb1008 Tb 0.56931 0.5848 0.04652 0.0
C1009 C 0.58855 0.47269 0.9316 0.0
C1010 C 0.54298 0.45204 0.89522 0.0
C1011 C 0.58601 0.43891 0.87449 0.0
C1012 C 0.55943 0.47036 0.92651 0.0
C1013 C 0.60215 0.45673 0.9057 0.0
C1014 C 0.55647 0.43654 0.86928 0.0
C1015 C 0.64617 0.47458 0.94403 0.0
N1016 N 0.6033 0.48923 0.96229 0.0
C1017 C 0.63162 0.48938 0.96904 0.0
C1018 C 0.6314 0.45827 0.91216 0.0
Tb1019 Tb 0.57681 0.50794 1.00305 0.0
N1020 N 0.547 0.48492 0.95246 0.0
C1021 C 0.51769 0.48159 0.94805 0.0
C1022 C 0.51334 0.44911 0.891 0.0
C1023 C 0.50069 0.46407 0.91756 0.0
H1024 H 0.64303 0.50121 0.99386 0.0
H1025 H 0.4777 0.46196 0.91469 0.0
H1026 H 0.54416 0.42231 0.84521 0.0
H1027 H 0.66865 0.47531 0.94946 0.0
H1028 H 0.50661 0.49268 0.96738 0.0
H1029 H 0.67303 0.6377 0.12561 0.0
H1030 H 0.5 0.43513 0.86747 0.0
H1031 H 0.50243 0.58528 0.06183 0.0
H1032 H 0.64039 0.59913 0.07695 0.0
H1033 H 0.47926 0.61273 0.10793 0.0
H1034 H 0.59607 0.42641 0.85435 0.0
H1035 H 0.65361 0.66882 0.17337 0.0
H1036 H 0.61053 0.68088 0.19943 0.0
H1037 H 0.6426 0.44634 0.89292 0.0
H1038 H 0.55789 0.67296 0.1952 0.0
N1039 N 0.60177 0.60995 0.09441 0.0
C1040 C 0.63109 0.61361 0.09632 0.0
C1041 C 0.63893 0.6524 0.15146 0.0
C1042 C 0.60902 0.6478 0.15007 0.0
C1043 C 0.64998 0.63508 0.12451 0.0
C1044 C 0.5908 0.62628 0.12086 0.0
H1045 H 0.50889 0.64757 0.16136 0.0
N1046 N 0.54456 0.60204 0.08965 0.0
C1047 C 0.50227 0.61516 0.11141 0.0
C1048 C 0.5612 0.62179 0.11854 0.0
C1049 C 0.51543 0.59933 0.0855 0.0
C1050 C 0.51907 0.63484 0.14148 0.0
C1051 C 0.54893 0.63869 0.14525 0.0
O1052 O 0.54676 0.61919 0.03722 0.0
O1053 O 0.56571 0.55387 0.9943 0.0
O1054 O 0.61181 0.54479 0.98857 0.0
O1055 O 0.61215 0.59425 0.02888 0.0
O1056 O 0.53166 0.57159 1.00841 0.0
O1057 O 0.59437 0.63475 0.04794 0.0
O1058 O 0.59493 0.47232 0.01693 0.0
O1059 O 0.57992 0.53913 0.05505 0.0
O1060 O 0.5373 0.54652 0.06288 0.0
O1061 O 0.53283 0.50149 0.01647 0.0
O1062 O 0.61326 0.52021 0.04349 0.0
O1063 O 0.54871 0.45906 1.00123 0.0
C1064 C 0.54123 0.55698 0.98229 0.0
C1065 C 0.57086 0.67766 0.03916 0.0
C1066 C 0.59362 0.72855 0.02278 0.0
C1067 C 0.59456 0.69717 0.02849 0.0
C1068 C 0.56916 0.7409 0.02911 0.0
C1069 C 0.54654 0.69001 0.04545 0.0
C1070 C 0.54585 0.72177 0.04067 0.0
C1071 C 0.62449 0.57731 1.00547 0.0
C1072 C 0.57079 0.64352 0.04169 0.0
C1073 C 0.56691 0.65972 0.17447 0.0
C1074 C 0.59689 0.66431 0.17685 0.0
C1075 C 0.60356 0.53607 0.06903 0.0
C1076 C 0.57036 0.41338 1.0029 0.0
C1077 C 0.55693 0.39289 0.02216 0.0
C1078 C 0.56177 0.36064 0.01985 0.0
C1079 C 0.57938 0.3483 0.99699 0.0
C1080 C 0.58805 0.40118 0.98015 0.0
C1081 C 0.5923 0.36848 0.97706 0.0
C1082 C 0.52248 0.51641 0.04269 0.0
C1083 C 0.57013 0.44945 0.01272 0.0
H1084 H 0.61325 0.6874 0.0235 0.0
H1085 H 0.56772 0.76485 0.0242 0.0
H1086 H 0.52806 0.67499 0.05377 0.0
H1087 H 0.52701 0.73121 0.04524 0.0
H1088 H 0.54424 0.4031 0.04069 0.0
H1089 H 0.58319 0.32322 0.99466 0.0
H1090 H 0.59925 0.41724 0.96573 0.0
H1091 H 0.60617 0.3591 0.95978 0.0
Tb1092 Tb 0.86042 0.31816 0.27017 0.0
C1093 C 0.78749 0.22274 0.33725 0.0
C1094 C 0.79119 0.16685 0.30547 0.0
C1095 C 0.78014 0.17469 0.3619 0.0
C1096 C 0.79262 0.2019 0.30827 0.0
C1097 C 0.78045 0.20909 0.36412 0.0
C1098 C 0.7855 0.15362 0.33262 0.0
C1099 C 0.77037 0.26264 0.39164 0.0
N1100 N 0.78703 0.25549 0.3382 0.0
C1101 C 0.77685 0.27468 0.36412 0.0
C1102 C 0.77257 0.22985 0.39184 0.0
Tb1103 Tb 0.7965 0.27244 0.29127 0.0
N1104 N 0.79705 0.21521 0.28215 0.0
C1105 C 0.79919 0.19384 0.25203 0.0
C1106 C 0.79442 0.14567 0.27515 0.0
C1107 C 0.79819 0.15921 0.24826 0.0
H1108 H 0.7741 0.29962 0.36358 0.0
H1109 H 0.80035 0.14298 0.22448 0.0
H1110 H 0.78438 0.12683 0.3309 0.0
H1111 H 0.7632 0.27842 0.41239 0.0
H1112 H 0.80239 0.20274 0.23039 0.0
H1113 H 0.86545 0.44632 0.34565 0.0
H1114 H 0.79338 0.11866 0.27203 0.0
H1115 H 0.87699 0.29022 0.19473 0.0
H1116 H 0.85182 0.38337 0.33219 0.0
H1117 H 0.89096 0.31428 0.14838 0.0
H1118 H 0.77488 0.16382 0.38231 0.0
H1119 H 0.88257 0.47565 0.30337 0.0
H1120 H 0.89299 0.47094 0.24501 0.0
H1121 H 0.76703 0.22027 0.41294 0.0
H1122 H 0.89738 0.43475 0.19045 0.0
N1123 N 0.86259 0.37571 0.28271 0.0
C1124 C 0.85986 0.39514 0.31339 0.0
C1125 C 0.87692 0.44766 0.29728 0.0
C1126 C 0.87857 0.42774 0.26556 0.0
C1127 C 0.86736 0.43123 0.32122 0.0
C1128 C 0.8713 0.39137 0.25898 0.0
H1129 H 0.89617 0.37629 0.15397 0.0
N1130 N 0.86997 0.33658 0.22424 0.0
C1131 C 0.88583 0.33042 0.1705 0.0
C1132 C 0.87407 0.37101 0.22839 0.0
C1133 C 0.87734 0.31666 0.19653 0.0
C1134 C 0.88875 0.36542 0.17377 0.0
C1135 C 0.88375 0.38641 0.20335 0.0
O1136 O 0.89981 0.30765 0.259 0.0
O1137 O 0.84266 0.2722 0.28833 0.0
O1138 O 0.82266 0.29992 0.3389 0.0
O1139 O 0.86398 0.33106 0.32317 0.0
O1140 O 0.86761 0.26621 0.25193 0.0
O1141 O 0.89861 0.3501 0.30063 0.0
O1142 O 0.75653 0.28091 0.29975 0.0
O1143 O 0.81586 0.32127 0.27869 0.0
O1144 O 0.83002 0.30018 0.225 0.0
O1145 O 0.7974 0.25649 0.23842 0.0
O1146 O 0.78054 0.31889 0.30041 0.0
O1147 O 0.75961 0.23878 0.25854 0.0
C1148 C 0.85497 0.24973 0.27152 0.0
C1149 C 0.94296 0.35276 0.27882 0.0
C1150 C 0.99506 0.36664 0.29189 0.0
C1151 C 0.96723 0.35223 0.2984 0.0
C1152 C 0.99863 0.38378 0.26709 0.0
C1153 C 0.94657 0.36911 0.25344 0.0
C1154 C 0.97436 0.38507 0.24799 0.0
C1155 C 0.84838 0.32242 0.34563 0.0
C1156 C 0.91476 0.333 0.2839 0.0
C1157 C 0.88986 0.42246 0.20935 0.0
C1158 C 0.8875 0.44309 0.24046 0.0
C1159 C 0.7966 0.33917 0.28623 0.0
C1160 C 0.714 0.23671 0.27863 0.0
C1161 C 0.69163 0.23193 0.25373 0.0
C1162 C 0.66291 0.22396 0.25995 0.0
C1163 C 0.65658 0.2187 0.29073 0.0
C1164 C 0.70761 0.23116 0.30922 0.0
C1165 C 0.67887 0.22189 0.31509 0.0
C1166 C 0.80892 0.27136 0.21666 0.0
C1167 C 0.74271 0.2555 0.27443 0.0
H1168 H 0.96453 0.33851 0.31728 0.0
H1169 H 0.02006 0.39437 0.26132 0.0
H1170 H 0.92826 0.36891 0.23739 0.0
H1171 H 0.9771 0.39729 0.2281 0.0
H1172 H 0.6967 0.23685 0.23034 0.0
H1173 H 0.63448 0.21339 0.29638 0.0
H1174 H 0.72468 0.23545 0.32898 0.0
H1175 H 0.67392 0.21857 0.33899 0.0
Tb1176 Tb 0.08598 0.53048 0.56305 0.0
C1177 C 0.02451 0.56788 0.45323 0.0
C1178 C 1.00103 0.5115 0.41535 0.0
C1179 C 0.98017 0.55937 0.41712 0.0
C1180 C 0.02358 0.53346 0.4405 0.0
C1181 C 1.00318 0.5814 0.4411 0.0
C1182 C 0.97912 0.52449 0.40424 0.0
C1183 C 0.03029 0.63822 0.47478 0.0
N1184 N 0.04698 0.58852 0.47639 0.0
C1185 C 0.05089 0.62367 0.48598 0.0
C1186 C 1.00606 0.61691 0.45266 0.0
Tb1187 Tb 0.08022 0.56263 0.49262 0.0
N1188 N 0.04483 0.52159 0.4524 0.0
C1189 C 0.04445 0.4875 0.43963 0.0
C1190 C 1.00108 0.47708 0.40208 0.0
C1191 C 0.02293 0.46509 0.41424 0.0
H1192 H 0.06964 0.64038 0.50315 0.0
H1193 H 0.02289 0.4383 0.40455 0.0
H1194 H 0.96147 0.50788 0.38537 0.0
H1195 H 0.03316 0.66586 0.48321 0.0
H1196 H 0.05992 0.47632 0.44897 0.0
H1197 H 0.15244 0.65683 0.63923 0.0
H1198 H 0.98418 0.45949 0.3828 0.0
H1199 H 0.09233 0.45181 0.55551 0.0
H1200 H 0.11423 0.61846 0.59624 0.0
H1201 H 0.12156 0.42379 0.58412 0.0
H1202 H 0.96343 0.56923 0.40783 0.0
H1203 H 0.18399 0.63324 0.6701 0.0
H1204 H 0.19743 0.5816 0.6794 0.0
H1205 H 0.99015 0.62824 0.44392 0.0
H1206 H 0.18917 0.51844 0.66449 0.0
N1207 N 0.12216 0.57138 0.60207 0.0
C1208 C 0.12671 0.60665 0.60953 0.0
C1209 C 0.16665 0.61572 0.65133 0.0
C1210 C 0.16208 0.5799 0.64393 0.0
C1211 C 0.14891 0.6291 0.63398 0.0
C1212 C 0.13941 0.55817 0.61897 0.0
H1213 H 0.16104 0.4595 0.62907 0.0
N1214 N 0.11538 0.50301 0.58359 0.0
C1215 C 0.12605 0.4517 0.59125 0.0
C1216 C 0.13553 0.52275 0.60976 0.0
C1217 C 0.10966 0.46771 0.575 0.0
C1218 C 0.14813 0.47192 0.61677 0.0
C1219 C 0.15313 0.50789 0.62634 0.0
O1220 O 0.05751 0.48808 0.57275 0.0
O1221 O 0.05865 0.53532 0.52376 0.0
O1222 O 0.05509 0.58736 0.52721 0.0
O1223 O 0.0707 0.57773 0.5766 0.0
O1224 O 0.04793 0.48973 0.53255 0.0
O1225 O 0.06886 0.53966 0.60811 0.0
O1226 O 0.106 0.60569 0.48174 0.0
O1227 O 0.10896 0.55718 0.53075 0.0
O1228 O 0.10961 0.50236 0.52805 0.0
O1229 O 0.09845 0.51813 0.48022 0.0
O1230 O 0.11555 0.60453 0.5254 0.0
O1231 O 0.09851 0.55364 0.44856 0.0
C1232 C 0.03873 0.50771 0.51566 0.0
C1233 C 0.04848 0.49115 0.62779 0.0
C1234 C 0.01999 0.48746 0.6723 0.0
C1235 C 0.02525 0.49724 0.64362 0.0
C1236 C 0.03586 0.46709 0.68291 0.0
C1237 C 0.0648 0.47116 0.63821 0.0
C1238 C 0.05795 0.45839 0.66533 0.0
C1239 C 0.05751 0.59417 0.55975 0.0
C1240 C 0.05402 0.50709 0.60109 0.0
C1241 C 0.17526 0.52935 0.65167 0.0
C1242 C 0.1799 0.5653 0.66023 0.0
C1243 C 0.12829 0.58564 0.53777 0.0
C1244 C 0.11064 0.60052 0.42574 0.0
C1245 C 0.12683 0.58882 0.40154 0.0
C1246 C 0.13064 0.60347 0.37545 0.0
C1247 C 0.1172 0.62915 0.37262 0.0
C1248 C 0.09765 0.62685 0.42371 0.0
C1249 C 0.1007 0.64085 0.39687 0.0
C1250 C 0.11006 0.49961 0.49596 0.0
C1251 C 0.11075 0.58674 0.45396 0.0
H1252 H 0.0124 0.51224 0.63511 0.0
H1253 H 0.03221 0.45948 0.70541 0.0
H1254 H 0.08274 0.46573 0.62608 0.0
H1255 H 0.07058 0.44307 0.67357 0.0
H1256 H 0.1369 0.56848 0.40325 0.0
H1257 H 0.11976 0.6403 0.35198 0.0
H1258 H 0.08581 0.63712 0.44286 0.0
H1259 H 0.09068 0.66108 0.39516 0.0
Tb1260 Tb 0.80005 0.80715 0.27863 0.0
C1261 C 0.90526 0.769 0.33168 0.0
C1262 C 0.92896 0.82103 0.37559 0.0
C1263 C 0.93865 0.76662 0.37637 0.0
C1264 C 0.90981 0.80409 0.34586 0.0
C1265 C 0.9198 0.74992 0.3467 0.0
C1266 C 0.94325 0.80211 0.39076 0.0
C1267 C 0.89734 0.69948 0.30105 0.0
N1268 N 0.88694 0.75361 0.30298 0.0
C1269 C 0.88375 0.71955 0.28689 0.0
C1270 C 0.9153 0.71467 0.33122 0.0
Tb1271 Tb 0.86819 0.78936 0.28001 0.0
N1272 N 0.89549 0.82157 0.33061 0.0
C1273 C 0.89976 0.8565 0.34442 0.0
C1274 C 0.93336 0.85654 0.38922 0.0
C1275 C 0.91854 0.87428 0.37367 0.0
H1276 H 0.87049 0.70785 0.26303 0.0
H1277 H 0.92145 0.90173 0.38426 0.0
H1278 H 0.95796 0.81471 0.41358 0.0
H1279 H 0.89423 0.67242 0.28846 0.0
H1280 H 0.888 0.87127 0.33434 0.0
H1281 H 0.74716 0.6938 0.17538 0.0
H1282 H 0.9481 0.87045 0.41172 0.0
H1283 H 0.79494 0.88774 0.29437 0.0
H1284 H 0.77642 0.72408 0.22834 0.0
H1285 H 0.77545 0.92358 0.26511 0.0
H1286 H 0.94996 0.75236 0.38827 0.0
H1287 H 0.72869 0.72623 0.14124 0.0
H1288 H 0.7241 0.78296 0.13491 0.0
H1289 H 0.92602 0.69914 0.34202 0.0
H1290 H 0.73245 0.8456 0.15885 0.0
N1291 N 0.77375 0.77466 0.22748 0.0
C1292 C 0.76754 0.73927 0.21557 0.0
C1293 C 0.74117 0.74 0.16531 0.0
C1294 C 0.74704 0.7759 0.17744 0.0
C1295 C 0.75133 0.72161 0.18459 0.0
C1296 C 0.76341 0.79265 0.20901 0.0
H1297 H 0.75131 0.89811 0.20736 0.0
N1298 N 0.78313 0.8427 0.25315 0.0
C1299 C 0.7735 0.89676 0.25261 0.0
C1300 C 0.76835 0.82784 0.22226 0.0
C1301 C 0.7845 0.87636 0.26905 0.0
C1302 C 0.75996 0.88232 0.22004 0.0
C1303 C 0.75671 0.84731 0.20467 0.0
O1304 O 0.78135 0.82986 0.31905 0.0
O1305 O 0.83467 0.80043 0.31036 0.0
O1306 O 0.83815 0.74289 0.29102 0.0
O1307 O 0.79299 0.75275 0.28274 0.0
O1308 O 0.82113 0.84439 0.32531 0.0
O1309 O 0.75681 0.78251 0.28423 0.0
O1310 O 0.88568 0.76977 0.23707 0.0
O1311 O 0.8335 0.79605 0.24868 0.0
O1312 O 0.83012 0.85435 0.2705 0.0
O1313 O 0.87523 0.84466 0.27886 0.0
O1314 O 0.84582 0.75123 0.23394 0.0
O1315 O 0.91195 0.81327 0.27436 0.0
C1316 C 0.83689 0.82683 0.33498 0.0
C1317 C 0.73067 0.81798 0.31762 0.0
C1318 C 0.68434 0.81141 0.33969 0.0
C1319 C 0.70765 0.79808 0.32968 0.0
C1320 C 0.68407 0.84444 0.33743 0.0
C1321 C 0.73 0.85125 0.31623 0.0
C1322 C 0.7068 0.86421 0.32577 0.0
C1323 C 0.80906 0.7321 0.28806 0.0
C1324 C 0.75692 0.80602 0.31144 0.0
C1325 C 0.74133 0.83102 0.17282 0.0
C1326 C 0.73652 0.79536 0.15923 0.0
C1327 C 0.83027 0.76917 0.22443 0.0
C1328 C 0.93604 0.77849 0.23581 0.0
C1329 C 0.95975 0.79752 0.2233 0.0
C1330 C 0.98132 0.78177 0.21027 0.0
C1331 C 0.97845 0.74706 0.20942 0.0
C1332 C 0.93444 0.74392 0.23446 0.0
C1333 C 0.95538 0.72848 0.22154 0.0
C1334 C 0.859 0.86548 0.27459 0.0
C1335 C 0.9108 0.79223 0.24524 0.0
H1336 H 0.70811 0.77275 0.33185 0.0
H1337 H 0.66632 0.85506 0.34504 0.0
H1338 H 0.7478 0.86797 0.30904 0.0
H1339 H 0.70671 0.88995 0.32468 0.0
H1340 H 0.96126 0.82404 0.22348 0.0
H1341 H 0.99432 0.7342 0.19932 0.0
H1342 H 0.91625 0.72804 0.24199 0.0
H1343 H 0.95347 0.70168 0.22044 0.0
Tb1344 Tb 0.84537 0.28597 0.74025 0.0
C1345 C 0.80802 0.37896 0.85874 0.0
C1346 C 0.85439 0.414 0.88977 0.0
C1347 C 0.81096 0.43183 0.90199 0.0
C1348 C 0.83746 0.38399 0.86558 0.0
C1349 C 0.79437 0.40268 0.87718 0.0
C1350 C 0.84095 0.43762 0.90809 0.0
C1351 C 0.74869 0.36674 0.84608 0.0
N1352 N 0.7927 0.35072 0.83424 0.0
C1353 C 0.76309 0.34396 0.82865 0.0
C1354 C 0.76439 0.3963 0.87044 0.0
Tb1355 Tb 0.81655 0.30929 0.81527 0.0
N1356 N 0.84958 0.36014 0.8478 0.0
C1357 C 0.87929 0.36695 0.85156 0.0
C1358 C 0.88438 0.4197 0.89462 0.0
C1359 C 0.8969 0.39633 0.87503 0.0
H1360 H 0.75004 0.32018 0.81144 0.0
H1361 H 0.92023 0.40118 0.87758 0.0
H1362 H 0.85359 0.46054 0.92695 0.0
H1363 H 0.72535 0.36096 0.84123 0.0
H1364 H 0.8902 0.35112 0.8356 0.0
H1365 H 0.74923 0.19775 0.65826 0.0
H1366 H 0.8981 0.44252 0.91273 0.0
H1367 H 0.91261 0.27824 0.74891 0.0
H1368 H 0.77479 0.24899 0.70088 0.0
H1369 H 0.93827 0.23451 0.73068 0.0
H1370 H 0.80082 0.45018 0.91643 0.0
H1371 H 0.77202 0.15067 0.63873 0.0
H1372 H 0.81502 0.12811 0.64107 0.0
H1373 H 0.75313 0.41373 0.88421 0.0
H1374 H 0.86584 0.13724 0.66216 0.0
N1375 N 0.81462 0.23486 0.70584 0.0
C1376 C 0.78673 0.2307 0.69233 0.0
C1377 C 0.78405 0.17392 0.65761 0.0
C1378 C 0.81222 0.17761 0.67126 0.0
C1379 C 0.77126 0.20054 0.66828 0.0
C1380 C 0.82712 0.20852 0.69583 0.0
H1381 H 0.91164 0.17631 0.69567 0.0
N1382 N 0.87015 0.2441 0.73014 0.0
C1383 C 0.91491 0.22769 0.72496 0.0
C1384 C 0.85562 0.21322 0.70846 0.0
C1385 C 0.89992 0.25222 0.73609 0.0
C1386 C 0.89983 0.19501 0.70517 0.0
C1387 C 0.87008 0.18777 0.69575 0.0
O1388 O 0.88567 0.31385 0.73125 0.0
O1389 O 0.84769 0.3262 0.78486 0.0
O1390 O 0.78797 0.31709 0.77539 0.0
O1391 O 0.80626 0.30064 0.72509 0.0
O1392 O 0.8479 0.3393 0.74078 0.0
O1393 O 0.85161 0.28096 0.69077 0.0
O1394 O 0.77618 0.28061 0.82287 0.0
O1395 O 0.81254 0.26928 0.76892 0.0
O1396 O 0.87409 0.2814 0.78317 0.0
O1397 O 0.85514 0.29755 0.83254 0.0
O1398 O 0.8156 0.25578 0.81224 0.0
O1399 O 0.81224 0.30676 0.86392 0.0
C1400 C 0.84801 0.35069 0.77213 0.0
C1401 C 0.89367 0.31463 0.67614 0.0
C1402 C 0.89681 0.35019 0.63877 0.0
C1403 C 0.88314 0.33754 0.66313 0.0
C1404 C 0.92082 0.33949 0.62725 0.0
C1405 C 0.91784 0.30429 0.66511 0.0
C1406 C 0.93138 0.3167 0.64059 0.0
C1407 C 0.78651 0.31183 0.74254 0.0
C1408 C 0.8787 0.29905 0.69947 0.0
C1409 C 0.85502 0.15686 0.67214 0.0
C1410 C 0.82614 0.15175 0.66 0.0
C1411 C 0.8122 0.24418 0.78064 0.0
C1412 C 0.76685 0.2766 0.87744 0.0
C1413 C 0.77742 0.26026 0.89851 0.0
C1414 C 0.76068 0.24952 0.92167 0.0
C1415 C 0.73342 0.25567 0.92426 0.0
C1416 C 0.73939 0.2823 0.87934 0.0
C1417 C 0.72278 0.27202 0.90297 0.0
C1418 C 0.87512 0.28679 0.8161 0.0
C1419 C 0.78521 0.28864 0.85451 0.0
H1420 H 0.86434 0.3453 0.67177 0.0
H1421 H 0.93116 0.34847 0.60775 0.0
H1422 H 0.92585 0.28613 0.67501 0.0
H1423 H 0.9498 0.30838 0.6317 0.0
H1424 H 0.79869 0.2558 0.89685 0.0
H1425 H 0.72034 0.24738 0.94229 0.0
H1426 H 0.73106 0.29512 0.86304 0.0
H1427 H 0.70168 0.27667 0.90474 0.0
Tb1428 Tb 0.85674 0.85086 0.8009 0.0
C1429 C 0.75141 0.71796 0.73457 0.0
C1430 C 0.72627 0.70904 0.78082 0.0
C1431 C 0.70194 0.68095 0.72475 0.0
C1432 C 0.75145 0.7237 0.76812 0.0
C1433 C 0.72672 0.69632 0.71235 0.0
C1434 C 0.70172 0.68729 0.75896 0.0
C1435 C 0.75305 0.70575 0.66723 0.0
N1436 N 0.77545 0.73401 0.72367 0.0
C1437 C 0.77686 0.72688 0.69024 0.0
C1438 C 0.7277 0.69063 0.67833 0.0
Tb1439 Tb 0.81561 0.76352 0.76248 0.0
N1440 N 0.7751 0.74646 0.78829 0.0
C1441 C 0.77386 0.75645 0.82183 0.0
C1442 C 0.726 0.71779 0.81503 0.0
C1443 C 0.74979 0.74195 0.83557 0.0
H1444 H 0.79666 0.73677 0.68106 0.0
H1445 H 0.74941 0.75009 0.86205 0.0
H1446 H 0.68226 0.67583 0.76828 0.0
H1447 H 0.75447 0.70071 0.64096 0.0
H1448 H 0.79053 0.77675 0.83868 0.0
H1449 H 0.92501 0.88244 0.70787 0.0
H1450 H 0.70713 0.70711 0.82572 0.0
H1451 H 0.87242 0.87455 0.88325 0.0
H1452 H 0.88149 0.85667 0.72657 0.0
H1453 H 0.9148 0.90345 0.92541 0.0
H1454 H 0.68277 0.66437 0.70809 0.0
H1455 H 0.96955 0.91251 0.74702 0.0
H1456 H 0.99297 0.93595 0.8053 0.0
H1457 H 0.70922 0.67419 0.66049 0.0
H1458 H 0.98912 0.94362 0.86419 0.0
N1459 N 0.89917 0.86808 0.77788 0.0
C1460 C 0.8998 0.86841 0.74528 0.0
C1461 C 0.95016 0.90007 0.75585 0.0
C1462 C 0.94952 0.90185 0.78925 0.0
C1463 C 0.9251 0.88336 0.73382 0.0
C1464 C 0.92362 0.88508 0.79961 0.0
H1465 H 0.96246 0.92575 0.90873 0.0
N1466 N 0.89632 0.87453 0.84196 0.0
C1467 C 0.91729 0.899 0.89941 0.0
C1468 C 0.92215 0.88826 0.83271 0.0
C1469 C 0.89341 0.88175 0.87517 0.0
C1470 C 0.94403 0.91196 0.88996 0.0
C1471 C 0.94636 0.90828 0.85646 0.0
O1472 O 0.84989 0.89369 0.83458 0.0
O1473 O 0.81364 0.816 0.78303 0.0
O1474 O 0.80748 0.79113 0.72578 0.0
O1475 O 0.84106 0.84495 0.74808 0.0
O1476 O 0.82102 0.84797 0.83001 0.0
O1477 O 0.85139 0.89178 0.78261 0.0
O1478 O 0.82669 0.72483 0.72724 0.0
O1479 O 0.85875 0.79935 0.77852 0.0
O1480 O 0.85997 0.82257 0.83858 0.0
O1481 O 0.83026 0.76673 0.8143 0.0
O1482 O 0.84808 0.76935 0.73018 0.0
O1483 O 0.82575 0.72329 0.77808 0.0
C1484 C 0.80102 0.82673 0.80738 0.0
C1485 C 0.8595 0.94688 0.82105 0.0
C1486 C 0.85092 0.99919 0.8128 0.0
C1487 C 0.84599 0.96339 0.80281 0.0
C1488 C 0.86934 0.01865 0.84226 0.0
C1489 C 0.87827 0.96602 0.85001 0.0
C1490 C 0.88317 1.002 0.86072 0.0
C1491 C 0.82306 0.8213 0.72285 0.0
C1492 C 0.8486 0.90955 0.8119 0.0
C1493 C 0.97157 0.9257 0.84628 0.0
C1494 C 0.97342 0.92196 0.81273 0.0
C1495 C 0.86859 0.7913 0.7514 0.0
C1496 C 0.81729 0.66979 0.73645 0.0
C1497 C 0.81772 0.65163 0.75989 0.0
C1498 C 0.82531 0.62043 0.75191 0.0
C1499 C 0.82503 0.60363 0.71817 0.0
C1500 C 0.81547 0.65246 0.70279 0.0
C1501 C 0.81823 0.61879 0.69368 0.0
C1502 C 0.84635 0.79114 0.84014 0.0
C1503 C 0.82905 0.70737 0.7482 0.0
H1504 H 0.82975 0.94774 0.78188 0.0
H1505 H 0.8726 0.04635 0.85114 0.0
H1506 H 0.88804 0.95272 0.86438 0.0
H1507 H 0.89709 0.01688 0.88361 0.0
H1508 H 0.81689 0.66451 0.7855 0.0
H1509 H 0.83161 0.58012 0.71039 0.0
H1510 H 0.81439 0.66575 0.68388 0.0
H1511 H 0.81799 0.60588 0.66783 0.0
Tb1512 Tb 0.54587 0.52908 0.50231 0.0
C1513 C 0.63555 0.65967 0.57688 0.0
C1514 C 0.65571 0.68446 0.53406 0.0
C1515 C 0.6651 0.71968 0.59109 0.0
C1516 C 0.63934 0.65604 0.54382 0.0
C1517 C 0.64867 0.69171 0.60081 0.0
C1518 C 0.66856 0.71609 0.55784 0.0
C1519 C 0.63136 0.66587 0.64333 0.0
N1520 N 0.62081 0.6315 0.58586 0.0
C1521 C 0.61936 0.63453 0.6192 0.0
C1522 C 0.64612 0.69457 0.63416 0.0
Tb1523 Tb 0.61409 0.57979 0.54465 0.0
N1524 N 0.62724 0.62484 0.52125 0.0
C1525 C 0.62934 0.62149 0.48824 0.0
C1526 C 0.65885 0.68036 0.50062 0.0
C1527 C 0.6452 0.64889 0.47756 0.0
H1528 H 0.61176 0.61248 0.62858 0.0
H1529 H 0.64655 0.64577 0.45144 0.0
H1530 H 0.68137 0.73795 0.55076 0.0
H1531 H 0.63048 0.66734 0.66928 0.0
H1532 H 0.61787 0.59866 0.46939 0.0
H1533 H 0.52329 0.45939 0.5956 0.0
H1534 H 0.67117 0.70157 0.49226 0.0
H1535 H 0.54336 0.49716 0.41926 0.0
H1536 H 0.54744 0.50733 0.57578 0.0
H1537 H 0.53436 0.44025 0.37928 0.0
H1538 H 0.67552 0.74418 0.60923 0.0
H1539 H 0.49709 0.40347 0.55587 0.0
H1540 H 0.48375 0.36726 0.49697 0.0
H1541 H 0.65629 0.71853 0.65315 0.0
H1542 H 0.48852 0.36139 0.4381 0.0
N1543 N 0.53299 0.4823 0.52442 0.0
C1544 C 0.53464 0.48481 0.55765 0.0
C1545 C 0.50696 0.42529 0.54683 0.0
C1546 C 0.50665 0.42187 0.51298 0.0
C1547 C 0.52158 0.45677 0.56926 0.0
C1548 C 0.51993 0.45118 0.50251 0.0
H1549 H 0.51025 0.38763 0.39474 0.0
N1550 N 0.53468 0.477 0.46085 0.0
C1551 C 0.53012 0.4421 0.40452 0.0
C1552 C 0.52185 0.44812 0.46962 0.0
C1553 C 0.53658 0.47441 0.42792 0.0
C1554 C 0.5168 0.41245 0.41336 0.0
C1555 C 0.51162 0.41536 0.44605 0.0
O1556 O 0.5121 0.52833 0.46806 0.0
O1557 O 0.57194 0.58356 0.52383 0.0
O1558 O 0.5841 0.57488 0.58312 0.0
O1559 O 0.53791 0.554 0.55417 0.0
O1560 O 0.55275 0.56911 0.47612 0.0
O1561 O 0.50527 0.5316 0.51893 0.0
O1562 O 0.64487 0.58866 0.58516 0.0
O1563 O 0.58543 0.52756 0.52784 0.0
O1564 O 0.57839 0.52663 0.46452 0.0
O1565 O 0.62403 0.55489 0.49416 0.0
O1566 O 0.62232 0.53454 0.5567 0.0
O1567 O 0.65785 0.5898 0.53683 0.0
C1568 C 0.56648 0.59601 0.49972 0.0
C1569 C 0.46264 0.51884 0.47879 0.0
C1570 C 0.41379 0.52588 0.48518 0.0
C1571 C 0.44339 0.53368 0.49787 0.0
C1572 C 0.40384 0.50167 0.45384 0.0
C1573 C 0.45222 0.49709 0.44677 0.0
C1574 C 0.42297 0.4882 0.4346 0.0
C1575 C 0.55549 0.56846 0.58286 0.0
C1576 C 0.4942 0.53124 0.48986 0.0
C1577 C 0.49717 0.38649 0.45598 0.0
C1578 C 0.49442 0.38984 0.48943 0.0
C1579 C 0.59957 0.51089 0.54142 0.0
C1580 C 0.69061 0.58046 0.57648 0.0
C1581 C 0.70477 0.56362 0.55208 0.0
C1582 C 0.72956 0.55472 0.56159 0.0
C1583 C 0.74016 0.56245 0.59524 0.0
C1584 C 0.70153 0.58837 0.61012 0.0
C1585 C 0.72614 0.57926 0.61942 0.0
C1586 C 0.60742 0.53674 0.46553 0.0
C1587 C 0.6664 0.59354 0.56802 0.0
H1588 H 0.452 0.55293 0.52135 0.0
H1589 H 0.38121 0.49388 0.44348 0.0
H1590 H 0.46698 0.48805 0.43071 0.0
H1591 H 0.41513 0.47152 0.40976 0.0
H1592 H 0.69711 0.55817 0.52599 0.0
H1593 H 0.75968 0.55614 0.6027 0.0
H1594 H 0.69132 0.60226 0.62923 0.0
H1595 H 0.73464 0.58578 0.64535 0.0
Tb1596 Tb 0.10683 0.5512 1.00674 0.0
C1597 C 1.00716 0.49456 0.08076 0.0
C1598 C 0.9786 0.44321 0.03878 0.0
C1599 C 0.97571 0.44734 0.09693 0.0
C1600 C 0.9987 0.47635 0.04771 0.0
C1601 C 0.99541 0.48043 0.1057 0.0
C1602 C 0.96738 0.42876 0.06355 0.0
C1603 C 0.02235 0.53342 0.14624 0.0
N1604 N 0.02649 0.52634 0.08851 0.0
C1605 C 0.03345 0.54636 0.12068 0.0
C1606 C 1.00345 0.50018 0.13875 0.0
Tb1607 Tb 0.0418 0.54593 0.04488 0.0
N1608 N 0.01015 0.49101 0.02437 0.0
C1609 C 1.00144 0.47358 0.99139 0.0
C1610 C 0.97023 0.4255 1.00526 0.0
C1611 C 0.98167 0.44086 0.98149 0.0
H1612 H 0.04785 0.57224 0.12649 0.0
H1613 H 0.97554 0.42735 0.95541 0.0
H1614 H 0.95206 0.40333 0.05713 0.0
H1615 H 0.02824 0.54915 0.1717 0.0
H1616 H 0.01045 0.48326 0.97185 0.0
H1617 H 0.17803 0.66377 0.09882 0.0
H1618 H 0.95498 0.40001 0.99746 0.0
H1619 H 0.1049 0.52747 0.92584 0.0
H1620 H 0.145 0.60636 0.07995 0.0
H1621 H 0.12351 0.55329 0.88185 0.0
H1622 H 0.96659 0.43599 0.11577 0.0
H1623 H 0.19354 0.69713 0.0591 0.0
H1624 H 0.19354 0.69887 1.00011 0.0
H1625 H 0.99483 0.49025 0.15861 0.0
H1626 H 0.17891 0.66874 0.94082 0.0
N1627 N 0.13946 0.60549 0.02855 0.0
C1628 C 0.15081 0.61956 0.06144 0.0
C1629 C 0.17852 0.67153 0.05029 0.0
C1630 C 0.16854 0.65648 0.01661 0.0
C1631 C 0.16994 0.65273 0.07272 0.0
C1632 C 0.14885 0.62308 1.00643 0.0
H1633 H 0.1532 0.61423 0.89648 0.0
N1634 N 0.12277 0.57377 0.96474 0.0
C1635 C 0.1282 0.5687 0.90746 0.0
C1636 C 0.14033 0.6065 0.9733 0.0
C1637 C 0.1177 0.55419 0.93241 0.0
C1638 C 0.14488 0.6031 0.9158 0.0
C1639 C 0.15162 0.62229 0.94911 0.0
O1640 O 0.12235 0.51102 0.9799 0.0
O1641 O 0.07062 0.5166 0.02099 0.0
O1642 O 0.06983 0.53241 0.07774 0.0
O1643 O 0.11353 0.55348 0.05888 0.0
O1644 O 0.08199 0.50026 0.97508 0.0
O1645 O 0.14604 0.54484 0.02645 0.0
O1646 O 0.02892 0.59124 0.06269 0.0
O1647 O 0.07811 0.57991 0.03011 0.0
O1648 O 0.07639 0.5604 0.97173 0.0
O1649 O 0.03439 0.5403 0.99323 0.0
O1650 O 0.06877 0.5959 0.07718 0.0
O1651 O 0.99835 0.54585 0.03195 0.0
C1652 C 0.06564 0.49013 0.99578 0.0
C1653 C 0.17178 0.51373 0.98908 0.0
C1654 C 0.21333 0.4906 0.99326 0.0
C1655 C 0.18915 0.49939 1.00618 0.0
C1656 C 0.21975 0.49609 0.96258 0.0
C1657 C 0.17862 0.51941 0.95869 0.0
C1658 C 0.20252 0.51051 0.94551 0.0
C1659 C 0.09821 0.54246 0.08081 0.0
C1660 C 0.14485 0.51813 1.00171 0.0
C1661 C 0.1702 0.65606 0.95902 0.0
C1662 C 0.17855 0.6732 0.99275 0.0
C1663 C 0.08501 0.60553 0.05602 0.0
C1664 C 0.98024 0.58886 0.06711 0.0
C1665 C 0.95915 0.60053 0.05205 0.0
C1666 C 0.94068 0.61656 0.07124 0.0
C1667 C 0.9436 0.62029 0.10557 0.0
C1668 C 0.98226 0.59248 0.10127 0.0
C1669 C 0.96397 0.60798 0.1203 0.0
C1670 C 0.0479 0.54933 0.96958 0.0
C1671 C 1.00263 0.57816 0.04798 0.0
H1672 H 0.18326 0.49408 0.02911 0.0
H1673 H 0.23828 0.48959 0.95197 0.0
H1674 H 0.16523 0.52993 0.94483 0.0
H1675 H 0.2076 0.51457 0.92189 0.0
H1676 H 0.95746 0.59745 0.0256 0.0
H1677 H 0.93026 0.6331 0.12123 0.0
H1678 H 0.99866 0.58458 0.11352 0.0
H1679 H 0.966 0.61116 0.14674 0.0
C1680 C 0.07069 0.19033 0.01007 0.0
C1681 C 0.04448 0.18901 0.99192 0.0
C1682 C 0.07693 0.15994 0.01535 0.0
C1683 C 0.05799 0.12615 1.00185 0.0
H1684 H 0.08685 0.21499 0.01984 0.0
H1685 H 0.09704 0.16341 0.02971 0.0
S1686 S 0.98328 0.10959 0.95925 0.0
N1687 N 0.99725 0.15161 0.96561 0.0
N1688 N 1.00903 0.09558 0.97439 0.0
C1689 C 0.03077 0.12531 0.98584 0.0
C1690 C 0.0242 0.15614 0.98101 0.0
C1691 C 0.24443 0.82378 0.17249 0.0
C1692 C 0.21752 0.82577 0.18332 0.0
C1693 C 0.26714 0.81966 0.19281 0.0
C1694 C 0.26474 0.8178 0.22567 0.0
H1695 H 0.24817 0.82563 0.14783 0.0
H1696 H 0.28703 0.81833 0.18248 0.0
S1697 S 0.19838 0.82163 0.26639 0.0
N1698 N 0.18978 0.82584 0.22938 0.0
N1699 N 0.23156 0.81709 0.26702 0.0
C1700 C 0.23759 0.81932 0.23662 0.0
C1701 C 0.21433 0.82349 0.21573 0.0
C1702 C 0.54045 0.90174 0.46023 0.0
C1703 C 0.53993 0.88632 0.48639 0.0
C1704 C 0.54899 0.938 0.466 0.0
C1705 C 0.55758 0.96092 0.49821 0.0
H1706 H 0.53419 0.88556 0.43492 0.0
H1707 H 0.54922 0.94824 0.44477 0.0
S1708 S 0.56275 0.93375 0.57533 0.0
N1709 N 0.5499 0.89684 0.54593 0.0
N1710 N 0.56699 0.96479 0.55658 0.0
C1711 C 0.55759 0.94583 0.52467 0.0
C1712 C 0.54843 0.9087 0.51881 0.0
C1713 C 0.53466 0.29526 0.64801 0.0
C1714 C 0.55788 0.32421 0.66467 0.0
C1715 C 0.50946 0.28547 0.66268 0.0
C1716 C 0.50612 0.30454 0.69438 0.0
H1717 H 0.53657 0.27882 0.62424 0.0
H1718 H 0.4931 0.26171 0.64989 0.0
S1719 S 0.55889 0.38416 0.74721 0.0
N1720 N 0.57464 0.3732 0.71386 0.0
N1721 N 0.52727 0.35487 0.74095 0.0
C1722 C 0.52825 0.33464 0.71037 0.0
C1723 C 0.55409 0.34443 0.69567 0.0
C1724 C 0.05144 0.81478 0.59076 0.0
C1725 C 0.0213 0.80642 0.5912 0.0
C1726 C 0.06431 0.834 0.57015 0.0
C1727 C 0.04753 0.84566 0.54942 0.0
H1728 H 0.06522 0.80592 0.60599 0.0
H1729 H 0.08758 0.83963 0.57031 0.0
S1730 S 0.96828 0.835 0.5447 0.0
N1731 N 0.97531 0.81429 0.57158 0.0
N1732 N 0.99969 0.85045 0.53264 0.0
C1733 C 0.01758 0.83915 0.55085 0.0
C1734 C 1.00439 0.81937 0.57171 0.0
C1735 C 0.55945 0.82223 0.79974 0.0
C1736 C 0.57057 0.83598 0.83335 0.0
C1737 C 0.53509 0.82977 0.78718 0.0
C1738 C 0.52145 0.85139 0.80795 0.0
H1739 H 0.56953 0.80537 0.78316 0.0
H1740 H 0.52682 0.81866 0.7611 0.0
S1741 S 0.54312 0.89503 0.89743 0.0
N1742 N 0.5671 0.8733 0.88683 0.0
N1743 N 0.52053 0.88671 0.86331 0.0
C1744 C 0.53222 0.8652 0.84161 0.0
C1745 C 0.55714 0.8577 0.85433 0.0
C1746 C 0.52938 0.17848 0.0899 0.0
C1747 C 0.50579 0.16639 0.10592 0.0
C1748 C 0.54609 0.15692 0.07586 0.0
C1749 C 0.54001 0.12276 0.07788 0.0
H1750 H 0.53516 0.20504 0.08864 0.0
H1751 H 0.564 0.16712 0.06355 0.0
S1752 S 0.48011 0.0786 0.11616 0.0
N1753 N 0.47684 0.11836 0.12271 0.0
N1754 N 0.50837 0.07731 0.09605 0.0
C1755 C 0.5165 0.11032 0.09384 0.0
C1756 C 0.49927 0.1323 0.10792 0.0
C1757 C 0.24261 0.33804 0.35478 0.0
C1758 C 0.22395 0.34117 0.32939 0.0
C1759 C 0.2703 0.33528 0.34975 0.0
C1760 C 0.27963 0.33346 0.31862 0.0
H1761 H 0.23577 0.33741 0.37871 0.0
H1762 H 0.28411 0.33306 0.36998 0.0
S1763 S 0.24191 0.34811 0.24652 0.0
N1764 N 0.21875 0.34852 0.27392 0.0
N1765 N 0.27065 0.34095 0.26395 0.0
C1766 C 0.26208 0.33854 0.29359 0.0
C1767 C 0.23416 0.34285 0.29911 0.0
C1768 C 0.04651 0.10472 0.17546 0.0
C1769 C 0.01903 0.08537 0.18085 0.0
C1770 C 0.05711 0.10008 0.14394 0.0
C1771 C 0.04138 0.07556 0.1144 0.0
H1772 H 0.0606 0.12415 0.19623 0.0
H1773 H 0.07827 0.11624 0.14298 0.0
S1774 S 0.96784 0.01711 0.1126 0.0
N1775 N 0.97624 0.03979 0.15196 0.0
N1776 N 0.99545 0.03142 0.09362 0.0
C1777 C 0.01356 0.05609 0.11907 0.0
C1778 C 1.00273 0.06079 0.15155 0.0
C1779 C 0.26417 0.67703 0.46138 0.0
C1780 C 0.29001 0.69124 0.48339 0.0
C1781 C 0.25556 0.69571 0.44129 0.0
C1782 C 0.27256 0.72899 0.44291 0.0
H1783 H 0.25073 0.65128 0.4595 0.0
H1784 H 0.23555 0.68414 0.4244 0.0
S1785 S 0.34228 0.77726 0.49623 0.0
N1786 N 0.33273 0.7401 0.50558 0.0
N1787 N 0.31649 0.77526 0.46741 0.0
C1788 C 0.29878 0.74318 0.46427 0.0
C1789 C 0.30752 0.72424 0.48473 0.0
C1790 C 0.62951 1.00803 0.64348 0.0
C1791 C 0.6596 0.02029 0.64426 0.0
C1792 C 0.61076 0.02431 0.63116 0.0
C1793 C 0.62192 0.05236 0.61844 0.0
H1794 H 0.62036 0.98348 0.64844 0.0
H1795 H 0.58771 1.01174 0.62714 0.0
S1796 S 0.69956 0.10024 0.62569 0.0
N1797 N 0.69984 0.0665 0.63945 0.0
N1798 N 0.665 0.09767 0.61707 0.0
C1799 C 0.65201 0.06863 0.62553 0.0
C1800 C 0.67093 0.05216 0.63813 0.0
C1801 C 0.34718 0.31101 0.92266 0.0
C1802 C 0.35258 0.34462 0.94479 0.0
C1803 C 0.34373 0.30521 0.88749 0.0
C1804 C 0.34617 0.33289 0.87299 0.0
H1805 H 0.34497 0.28898 0.93255 0.0
H1806 H 0.33848 0.27892 0.87165 0.0
S1807 S 0.36441 0.42597 0.91958 0.0
N1808 N 0.3629 0.40582 0.94881 0.0
N1809 N 0.35669 0.39524 0.88416 0.0
C1810 C 0.35259 0.36643 0.89501 0.0
C1811 C 0.35582 0.37222 0.93033 0.0
C1812 C 0.03362 0.06935 0.38599 0.0
C1813 C 1.00453 0.0716 0.37961 0.0
C1814 C 0.04539 0.06339 0.41604 0.0
C1815 C 0.02889 0.05859 0.4423 0.0
H1816 H 0.04798 0.07297 0.3676 0.0
H1817 H 0.0679 0.06328 0.41885 0.0
S1818 S 0.9507 0.05756 0.43806 0.0
N1819 N 0.95947 0.06575 0.40304 0.0
N1820 N 0.98037 0.05416 0.4573 0.0
C1821 C 0.99957 0.0596 0.43559 0.0
C1822 C 0.98783 0.06609 0.40535 0.0
C1823 C 0.28699 0.69841 0.6462 0.0
C1824 C 0.3064 0.70751 0.62431 0.0
C1825 C 0.28371 0.72339 0.67374 0.0
C1826 C 0.30163 0.75756 0.68186 0.0
H1827 H 0.27506 0.6717 0.64291 0.0
H1828 H 0.26896 0.71494 0.69025 0.0
S1829 S 0.33946 0.79741 0.62164 0.0
N1830 N 0.33203 0.75531 0.60419 0.0
N1831 N 0.32733 0.80192 0.65798 0.0
C1832 C 0.31607 0.76821 0.65684 0.0
C1833 C 0.31852 0.743 0.62781 0.0
C1834 C 0.681 0.07522 0.82097 0.0
C1835 C 0.66779 0.06925 0.78842 0.0
C1836 C 0.66788 0.08793 0.84828 0.0
C1837 C 0.64092 0.0946 0.84388 0.0
H1838 H 0.70147 0.06983 0.8256 0.0
H1839 H 0.67911 0.09311 0.87294 0.0
S1840 S 0.59464 0.07693 0.76453 0.0
N1841 N 0.62456 0.06705 0.75366 0.0
N1842 N 0.59953 0.08995 0.80541 0.0
C1843 C 0.62657 0.08661 0.81176 0.0
C1844 C 0.64005 0.07405 0.78389 0.0
C1845 C 0.33412 0.37311 0.15757 0.0
C1846 C 0.33494 0.34702 0.12876 0.0
C1847 C 0.33036 0.36603 0.18861 0.0
C1848 C 0.32596 0.33231 0.19222 0.0
H1849 H 0.33804 0.39966 0.15659 0.0
H1850 H 0.33174 0.38733 0.2102 0.0
S1851 S 0.32822 0.25536 0.12482 0.0
N1852 N 0.33226 0.28657 0.10643 0.0
N1853 N 0.3251 0.27337 0.16364 0.0
C1854 C 0.32667 0.30623 0.16336 0.0
C1855 C 0.33108 0.31352 0.13207 0.0
C1856 C 0.27236 1.00759 0.01285 0.0
C1857 C 0.30205 0.0237 0.02199 0.0
C1858 C 0.25205 0.02165 0.02985 0.0
C1859 C 0.26097 0.05203 0.05666 0.0
H1860 H 0.26487 0.98396 0.99274 0.0
H1861 H 0.22929 1.00814 0.0224 0.0
S1862 S 0.33683 0.1021 0.09097 0.0
N1863 N 0.3397 0.06986 0.06022 0.0
N1864 N 0.30174 0.09726 0.0913 0.0
C1865 C 0.29077 0.06806 0.06588 0.0
C1866 C 0.31128 0.05364 0.04875 0.0
C1867 C 0.6949 0.59652 0.96599 0.0
C1868 C 0.71231 0.6279 0.98787 0.0
C1869 C 0.6666 0.5808 0.97141 0.0
C1870 C 0.65408 0.59571 0.99888 0.0
H1871 H 0.70332 0.58362 0.94456 0.0
H1872 H 0.65453 0.5566 0.95389 0.0
S1873 S 0.69068 0.67795 0.06394 0.0
N1874 N 0.71502 0.67282 0.03858 0.0
N1875 N 0.66188 0.64502 0.04778 0.0
C1876 C 0.67115 0.62766 0.02048 0.0
C1877 C 0.70013 0.64324 0.01527 0.0
C1878 C 0.78707 0.4325 0.27709 0.0
C1879 C 0.75721 0.43117 0.28039 0.0
C1880 C 0.7997 0.40353 0.27589 0.0
C1881 C 0.78455 0.37103 0.28056 0.0
H1882 H 0.80126 0.45659 0.27549 0.0
H1883 H 0.82172 0.40735 0.27155 0.0
S1884 S 0.70495 0.35196 0.28864 0.0
N1885 N 0.71274 0.39215 0.28616 0.0
N1886 N 0.73538 0.3405 0.28589 0.0
C1887 C 0.75435 0.36956 0.28293 0.0
C1888 C 0.74134 0.39836 0.28275 0.0
C1889 C 0.95911 0.49738 0.48705 0.0
C1890 C 0.95035 0.5158 0.51569 0.0
C1891 C 0.98743 0.49364 0.48741 0.0
C1892 C 1.00809 0.50934 0.51578 0.0
H1893 H 0.94345 0.48353 0.46521 0.0
H1894 H 0.99267 0.47709 0.46592 0.0
S1895 S 0.99264 0.55348 0.59875 0.0
N1896 N 0.96271 0.54622 0.57382 0.0
N1897 N 0.01506 0.53837 0.57481 0.0
C1898 C 0.99876 0.52666 0.54473 0.0
C1899 C 0.97028 0.53061 0.54437 0.0
C1900 C 0.34552 0.08776 0.32544 0.0
C1901 C 0.3749 0.10618 0.33342 0.0
C1902 C 0.32881 0.09084 0.29858 0.0
C1903 C 0.3415 0.11149 0.27885 0.0
H1904 H 0.33596 0.06938 0.33863 0.0
H1905 H 0.30597 0.07717 0.29319 0.0
S1906 S 0.41754 0.16547 0.29055 0.0
N1907 N 0.41557 0.14744 0.32132 0.0
N1908 N 0.38475 0.15123 0.26931 0.0
C1909 C 0.37078 0.13046 0.28706 0.0
C1910 C 0.38721 0.1287 0.31509 0.0
C1911 C 0.40214 0.17286 0.53443 0.0
C1912 C 0.37264 0.15444 0.53095 0.0
C1913 C 0.4243 0.15891 0.54362 0.0
C1914 C 0.41758 0.126 0.54921 0.0
H1915 H 0.40815 0.19856 0.53103 0.0
H1916 H 0.44662 0.17449 0.54782 0.0
S1917 S 0.34464 0.06517 0.53832 0.0
N1918 N 0.33858 0.09993 0.53036 0.0
N1919 N 0.38011 0.07404 0.5471 0.0
C1920 C 0.38851 0.1066 0.54362 0.0
C1921 C 0.36606 0.12073 0.53467 0.0
C1922 C 0.79274 0.64127 0.30773 0.0
C1923 C 0.76273 0.6249 0.29641 0.0
C1924 C 0.80741 0.67485 0.30465 0.0
C1925 C 0.79309 0.69531 0.29092 0.0
H1926 H 0.80531 0.62785 0.31909 0.0
H1927 H 0.8303 0.68512 0.31379 0.0
S1928 S 0.71408 0.66609 0.25845 0.0
N1929 N 0.7195 0.63307 0.27059 0.0
N1930 N 0.74576 0.69548 0.26677 0.0
C1931 C 0.7629 0.67939 0.28002 0.0
C1932 C 0.74824 0.64478 0.2822 0.0
C1933 C 0.90149 0.43619 0.81218 0.0
C1934 C 0.88365 0.45766 0.82323 0.0
C1935 C 0.8895 0.40143 0.79526 0.0
C1936 C 0.85939 0.38728 0.78921 0.0
H1937 H 0.92488 0.44642 0.81663 0.0
H1938 H 0.90383 0.38536 0.78732 0.0
S1939 S 0.80363 0.43428 0.80784 0.0
N1940 N 0.8347 0.46365 0.82424 0.0
N1941 N 0.81198 0.39796 0.79092 0.0
C1942 C 0.84128 0.40885 0.79836 0.0
C1943 C 0.85351 0.44425 0.81612 0.0
C1944 C 0.09808 0.937 0.08753 0.0
C1945 C 0.09741 0.90761 0.06158 0.0
C1946 C 0.09529 0.9682 0.08161 0.0
C1947 C 0.09203 0.97254 0.04937 0.0
H1948 H 0.1001 0.93567 0.1129 0.0
H1949 H 0.09565 0.98943 0.10296 0.0
S1950 S 0.09116 0.90459 0.97225 0.0
N1951 N 0.09395 0.88537 1.00178 0.0
N1952 N 0.0901 0.94434 0.99094 0.0
C1953 C 0.09186 0.94359 0.02301 0.0
C1954 C 0.09414 0.91127 0.02903 0.0
C1955 C 0.94918 0.27339 0.84271 0.0
C1956 C 0.95077 0.27981 0.87743 0.0
C1957 C 0.92487 0.27503 0.82315 0.0
C1958 C 0.9008 0.28358 0.83707 0.0
H1959 H 0.96681 0.26646 0.83027 0.0
H1960 H 0.92535 0.26962 0.79696 0.0
S1961 S 0.89495 0.30498 0.92768 0.0
N1962 N 0.9265 0.29616 0.92521 0.0
N1963 N 0.8813 0.29991 0.88925 0.0
C1964 C 0.90245 0.29057 0.87213 0.0
C1965 C 0.92714 0.28851 0.89196 0.0
C1966 C 0.60501 0.21131 0.59291 0.0
C1967 C 0.60469 0.22299 0.56433 0.0
C1968 C 0.60058 0.17598 0.59092 0.0
C1969 C 0.59605 0.15042 0.56032 0.0
H1970 H 0.60722 0.22942 0.61711 0.0
H1971 H 0.5999 0.16847 0.61376 0.0
S1972 S 0.59665 0.16787 0.47798 0.0
N1973 N 0.60164 0.20644 0.50437 0.0
N1974 N 0.59371 0.14032 0.50062 0.0
C1975 C 0.59712 0.16197 0.53151 0.0
C1976 C 0.60129 0.19808 0.53354 0.0
C1977 C 0.6072 0.76582 0.34479 0.0
C1978 C 0.60778 0.76643 0.37835 0.0
C1979 C 0.63257 0.77855 0.33199 0.0
C1980 C 0.65952 0.7915 0.35207 0.0
H1981 H 0.58676 0.75713 0.32866 0.0
H1982 H 0.63096 0.77959 0.3065 0.0
S1983 S 0.67335 0.79495 0.44059 0.0
N1984 N 0.63785 0.77877 0.43094 0.0
N1985 N 0.68582 0.80184 0.40647 0.0
C1986 C 0.66075 0.7905 0.38522 0.0
C1987 C 0.63477 0.77818 0.39849 0.0
C1988 C 0.13409 0.29878 0.48795 0.0
C1989 C 0.13309 0.28123 0.45454 0.0
C1990 C 0.1231 0.28066 0.51021 0.0
C1991 C 0.11048 0.24474 0.49931 0.0
H1992 H 0.14012 0.32684 0.49594 0.0
H1993 H 0.12183 0.29515 0.53515 0.0
S1994 S 0.1074 0.18703 0.41507 0.0
N1995 N 0.12317 0.22628 0.41261 0.0
N1996 N 0.10134 0.19183 0.45396 0.0
C1997 C 0.11279 0.22657 0.46688 0.0
C1998 C 0.12459 0.24507 0.44454 0.0
C1999 C 0.58829 0.20384 0.21582 0.0
C2000 C 0.58852 0.23519 0.20873 0.0
C2001 C 0.61348 0.19891 0.22945 0.0
C2002 C 0.6396 0.22514 0.23636 0.0
H2003 H 0.56824 0.1837 0.21274 0.0
H2004 H 0.61211 0.17542 0.23679 0.0
S2005 S 0.65314 0.30783 0.21336 0.0
N2006 N 0.61802 0.28965 0.20264 0.0
N2007 N 0.66562 0.28064 0.22893 0.0
C2008 C 0.64095 0.25472 0.2253 0.0
C2009 C 0.61522 0.2597 0.21129 0.0
C2010 C 0.64954 0.94105 0.97456 0.0
C2011 C 0.64507 0.92951 0.93987 0.0
C2012 C 0.63847 0.96772 0.99125 0.0
C2013 C 0.62289 0.98377 0.97369 0.0
H2014 H 0.65798 0.92634 0.98879 0.0
H2015 H 0.64051 0.9741 0.01799 0.0
S2016 S 0.61333 0.96911 0.88252 0.0
N2017 N 0.63005 0.9405 0.88858 0.0
N2018 N 0.60989 0.99155 0.91978 0.0
C2019 C 0.62275 0.97627 0.93914 0.0
C2020 C 0.63403 0.94902 0.92224 0.0
C2021 C 0.93025 0.78445 0.70508 0.0
C2022 C 0.9423 0.76217 0.71794 0.0
C2023 C 0.90783 0.79601 0.71842 0.0
C2024 C 0.89761 0.7881 0.74667 0.0
H2025 H 0.93752 0.79251 0.68375 0.0
H2026 H 0.897 0.80901 0.70455 0.0
S2027 S 0.91788 0.72536 0.7861 0.0
N2028 N 0.93993 0.7285 0.75772 0.0
N2029 N 0.89803 0.75232 0.78428 0.0
C2030 C 0.90909 0.76543 0.75985 0.0
C2031 C 0.93158 0.75231 0.74532 0.0
C2032 C 0.16646 0.02879 0.89894 0.0
C2033 C 0.15183 0.02432 0.8669 0.0
C2034 C 0.15238 0.03213 0.92875 0.0
C2035 C 0.12235 0.03095 0.92926 0.0
H2036 H 0.18922 0.02973 0.9012 0.0
H2037 H 0.16539 0.03551 0.95189 0.0
S2038 S 0.07369 0.02218 0.85322 0.0
N2039 N 0.10466 0.02008 0.83915 0.0
N2040 N 0.07964 0.02734 0.89343 0.0
C2041 C 0.10778 0.0271 0.89751 0.0
C2042 C 0.12194 0.02356 0.86729 0.0
C2043 C 0.84658 0.38358 0.59178 0.0
C2044 C 0.86545 0.41385 0.58847 0.0
C2045 C 0.85639 0.36396 0.61019 0.0
C2046 C 0.88549 0.37383 0.62467 0.0
H2047 H 0.82505 0.37355 0.57787 0.0
H2048 H 0.84184 0.33969 0.61095 0.0
S2049 S 0.94226 0.45271 0.62526 0.0
N2050 N 0.91312 0.45498 0.60405 0.0
N2051 N 0.93219 0.41684 0.63677 0.0
C2052 C 0.90386 0.40522 0.62331 0.0
C2053 C 0.8936 0.4257 0.6057 0.0
C2054 C 0.50032 0.07766 0.42927 0.0
C2055 C 0.4906 0.04672 0.4038 0.0
C2056 C 0.52557 0.08408 0.45013 0.0
C2057 C 0.54115 0.05942 0.4463 0.0
H2058 H 0.48906 0.09764 0.43239 0.0
H2059 H 0.53196 0.10745 0.47066 0.0
S2060 S 0.52312 0.97316 0.38548 0.0
N2061 N 0.49734 0.99057 0.37646 0.0
N2062 N 0.54491 1.00242 0.41723 0.0
C2063 C 0.53157 0.02819 0.42135 0.0
C2064 C 0.50593 0.02168 0.39987 0.0
C2065 C 0.82088 0.72812 0.13048 0.0
C2066 C 0.82561 0.7561 0.11641 0.0
C2067 C 0.82102 0.73291 0.16495 0.0
C2068 C 0.82524 0.76588 0.18756 0.0
H2069 H 0.81854 0.70223 0.11482 0.0
H2070 H 0.81862 0.7104 0.17416 0.0
S2071 S 0.83539 0.84777 0.16362 0.0
N2072 N 0.83291 0.81822 0.12803 0.0
N2073 N 0.83213 0.82699 0.19247 0.0
C2074 C 0.82846 0.79404 0.17374 0.0
C2075 C 0.82898 0.78923 0.13844 0.0
C2076 C 0.12104 0.04898 0.6617 0.0
C2077 C 0.13556 0.02358 0.66507 0.0
C2078 C 0.10907 0.05157 0.6305 0.0
C2079 C 0.11144 0.03005 0.59928 0.0
H2080 H 0.11855 0.06747 0.68388 0.0
H2081 H 0.0977 0.07083 0.63135 0.0
S2082 S 0.13982 0.95264 0.5926 0.0
N2083 N 0.1457 0.97156 0.6329 0.0
N2084 N 0.12551 0.97748 0.57547 0.0
C2085 C 0.12444 1.00312 0.60234 0.0
C2086 C 0.13591 0.9998 0.63435 0.0
C2087 C 0.84873 0.37858 0.43063 0.0
C2088 C 0.87812 0.397 0.43962 0.0
C2089 C 0.83948 0.35226 0.40112 0.0
C2090 C 0.8593 0.34355 0.37969 0.0
H2091 H 0.83269 0.38457 0.44644 0.0
H2092 H 0.81651 0.34008 0.39442 0.0
S2093 S 0.93885 0.38418 0.39233 0.0
N2094 N 0.92705 0.40523 0.42512 0.0
N2095 N 0.90994 0.35466 0.37002 0.0
C2096 C 0.88897 0.36121 0.38893 0.0
C2097 C 0.89831 0.38831 0.41879 0.0
C2098 C 0.51224 0.0325 0.25804 0.0
C2099 C 0.48933 0.04684 0.25308 0.0
C2100 C 0.52198 1.01307 0.23119 0.0
C2101 C 0.50932 1.00799 0.19881 0.0
H2102 H 0.52209 0.03542 0.28282 0.0
H2103 H 0.53977 1.00242 0.23574 0.0
S2104 S 0.44933 0.04186 0.17357 0.0
N2105 N 0.45446 0.05549 0.21436 0.0
N2106 N 0.47324 0.01978 0.16319 0.0
C2107 C 0.48673 0.02295 0.19362 0.0
C2108 C 0.47655 0.04216 0.22103 0.0
C2109 C 0.84952 0.74531 0.90873 0.0
C2110 C 0.83728 0.76388 0.93457 0.0
C2111 C 0.85303 0.75455 0.87873 0.0
C2112 C 0.84551 0.7837 0.8735 0.0
H2113 H 0.85636 0.72314 0.91167 0.0
H2114 H 0.86179 0.73877 0.85947 0.0
S2115 S 0.81203 0.84082 0.93276 0.0
N2116 N 0.81709 0.81244 0.95227 0.0
N2117 N 0.82432 0.83045 0.89681 0.0
C2118 C 0.83348 0.80268 0.89928 0.0
C2119 C 0.82928 0.79272 0.9295 0.0
C2120 C 0.87844 0.06671 0.05089 0.0
C2121 C 0.86566 0.08613 0.03477 0.0
C2122 C 0.89795 0.04978 0.03559 0.0
C2123 C 0.90415 0.05143 1.00374 0.0
H2124 H 0.87265 0.06377 0.07466 0.0
H2125 H 0.907 0.03393 0.04781 0.0
S2126 S 0.87697 0.09992 0.95202 0.0
N2127 N 0.86131 0.10704 0.98586 0.0
N2128 N 0.89794 0.07537 0.9577 0.0
C2129 C 0.89261 0.07214 0.9883 0.0
C2130 C 0.8732 0.08944 1.00369 0.0
C2131 C 0.44159 0.47478 0.02123 0.0
C2132 C 0.43467 0.45845 0.0463 0.0
C2133 C 0.46981 0.49484 0.0213 0.0
C2134 C 0.49229 0.49973 0.04656 0.0
H2135 H 0.42507 0.47189 1.0012 0.0
H2136 H 0.474 0.50671 1.00135 0.0
S2137 S 0.48532 0.46543 0.11957 0.0
N2138 N 0.45248 0.45043 0.09834 0.0
N2139 N 0.50554 0.48826 0.09824 0.0
C2140 C 0.48562 0.48456 0.07233 0.0
C2141 C 0.45685 0.46377 0.07218 0.0
C2142 C 0.41834 0.70503 0.79456 0.0
C2143 C 0.40543 0.6692 0.79204 0.0
C2144 C 0.40189 0.72942 0.79026 0.0
C2145 C 0.37071 0.72116 0.78383 0.0
H2146 H 0.44167 0.71475 0.80023 0.0
H2147 H 0.41421 0.75554 0.79187 0.0
S2148 S 0.32602 0.63019 0.77378 0.0
N2149 N 0.35907 0.62743 0.78187 0.0
N2150 N 0.32934 0.67094 0.77458 0.0
C2151 C 0.35813 0.6852 0.78149 0.0
C2152 C 0.37483 0.6605 0.78558 0.0
C2153 C 0.19553 0.6 0.49314 0.0
C2154 C 0.20985 0.57662 0.50047 0.0
C2155 C 0.17108 0.6055 0.50821 0.0
C2156 C 0.15862 0.5861 0.52957 0.0
H2157 H 0.20273 0.61338 0.47487 0.0
H2158 H 0.16103 0.62378 0.50138 0.0
S2159 S 0.19168 0.52582 0.56027 0.0
N2160 N 0.21313 0.53811 0.534 0.0
N2161 N 0.1659 0.54563 0.55973 0.0
C2162 C 0.17413 0.56416 0.53821 0.0
C2163 C 0.19987 0.55997 0.52418 0.0
C2164 C 0.79341 0.04088 0.79531 0.0
C2165 C 0.78646 0.02786 0.76072 0.0
C2166 C 0.81623 0.03405 0.81197 0.0
C2167 C 0.83296 1.01419 0.79451 0.0
H2168 H 0.78018 0.05468 0.81001 0.0
H2169 H 0.81937 0.04223 0.83882 0.0
S2170 S 0.82469 0.9757 0.70346 0.0
N2171 N 0.79871 0.99527 0.70932 0.0
N2172 N 0.84247 0.98341 0.7406 0.0
C2173 C 0.82734 1.00273 0.75966 0.0
C2174 C 0.8038 1.00922 0.74276 0.0
C2175 C 0.77716 0.99019 0.55501 0.0
C2176 C 0.77702 0.9551 0.54624 0.0
C2177 C 0.75609 1.0013 0.53982 0.0
C2178 C 0.73429 0.97771 0.5154 0.0
H2179 H 0.79439 1.00956 0.57262 0.0
H2180 H 0.75752 0.0287 0.54623 0.0
S2181 S 0.72074 0.88257 0.48778 0.0
N2182 N 0.75065 0.89623 0.51457 0.0
N2183 N 0.71107 0.91762 0.48599 0.0
C2184 C 0.73252 0.94239 0.50793 0.0
C2185 C 0.75391 0.93092 0.52343 0.0
C2186 C 0.37383 0.46389 0.77484 0.0
C2187 C 0.40405 0.47907 0.78404 0.0
C2188 C 0.3604 0.42798 0.77107 0.0
C2189 C 0.37602 0.40469 0.77699 0.0
H2190 H 0.36018 0.48009 0.77093 0.0
H2191 H 0.3373 0.41865 0.76383 0.0
S2192 S 0.45587 0.43151 0.80381 0.0
N2193 N 0.449 0.46757 0.80025 0.0
N2194 N 0.42459 0.40134 0.79297 0.0
C2195 C 0.40645 0.41972 0.78595 0.0
C2196 C 0.42008 0.45625 0.78964 0.0
C2197 C 0.30642 0.65269 0.26117 0.0
C2198 C 0.2761 0.64095 0.25517 0.0
C2199 C 0.32023 0.68787 0.26882 0.0
C2200 C 0.30387 0.71155 0.27011 0.0
H2201 H 0.31928 0.63487 0.26236 0.0
H2202 H 0.34354 0.69674 0.27565 0.0
S2203 S 0.22411 0.69307 0.2541 0.0
N2204 N 0.23023 0.6547 0.2484 0.0
N2205 N 0.25633 0.7215 0.26382 0.0
C2206 C 0.27369 0.69994 0.26212 0.0
C2207 C 0.25968 0.66415 0.25396 0.0
C2208 C 0.56777 0.68863 0.49279 0.0
C2209 C 0.53833 0.68685 0.48522 0.0
C2210 C 0.57671 0.66102 0.50059 0.0
C2211 C 0.55715 0.62956 0.50143 0.0
H2212 H 0.58433 0.71139 0.49202 0.0
H2213 H 0.59937 0.66476 0.50479 0.0
S2214 S 0.47685 0.61284 0.4866 0.0
N2215 N 0.48916 0.6515 0.48113 0.0
N2216 N 0.50584 0.60104 0.49634 0.0
C2217 C 0.52749 0.62857 0.49546 0.0
C2218 C 0.51824 0.65653 0.48731 0.0
C2219 C 0.71756 0.34063 0.72636 0.0
C2220 C 0.71025 0.3296 0.69169 0.0
C2221 C 0.74198 0.33496 0.74218 0.0
C2222 C 0.7609 0.31834 0.72438 0.0
H2223 H 0.70453 0.35449 0.74153 0.0
H2224 H 0.74641 0.34494 0.76868 0.0
S2225 S 0.75361 0.28846 0.63225 0.0
N2226 N 0.72511 0.30331 0.63962 0.0
N2227 N 0.77134 0.29381 0.66889 0.0
C2228 C 0.75425 0.30814 0.68938 0.0
C2229 C 0.72893 0.31333 0.67327 0.0
C2230 C 0.04877 0.39161 0.95732 0.0
C2231 C 0.04389 0.37627 0.98351 0.0
C2232 C 0.05466 0.42773 0.96212 0.0
C2233 C 0.0567 0.45143 0.99353 0.0
H2234 H 0.04751 0.37539 0.93237 0.0
H2235 H 0.05789 0.43726 0.94056 0.0
S2236 S 0.04782 0.42569 0.07153 0.0
N2237 N 0.04192 0.38836 0.04281 0.0
N2238 N 0.05486 0.45611 0.05204 0.0
C2239 C 0.05244 0.43668 0.02031 0.0
C2240 C 0.04557 0.3994 0.01525 0.0
C2241 C 0.03213 0.81912 0.1537 0.0
C2242 C 0.05971 0.82072 0.16883 0.0
C2243 C 1.00672 0.80925 0.1684 0.0
C2244 C 1.00798 0.80021 0.19851 0.0
H2245 H 0.03014 0.82517 0.13025 0.0
H2246 H 0.9859 0.80711 0.15539 0.0
S2247 S 0.07443 0.79809 0.24673 0.0
N2248 N 0.08623 0.81143 0.21503 0.0
N2249 N 0.0391 0.79286 0.24215 0.0
C2250 C 0.03545 0.80209 0.21374 0.0
C2251 C 0.06109 0.8123 0.19906 0.0
C2252 C 0.50679 0.31725 0.06679 0.0
C2253 C 0.52345 0.30397 0.08611 0.0
C2254 C 0.51942 0.33552 0.04537 0.0
C2255 C 0.54906 0.34085 0.04236 0.0
H2256 H 0.48391 0.31396 0.06854 0.0
H2257 H 0.50587 0.34543 0.03093 0.0
S2258 S 0.60247 0.31338 0.08911 0.0
N2259 N 0.57127 0.29829 0.10174 0.0
N2260 N 0.59515 0.33361 0.06191 0.0
C2261 C 0.5661 0.32838 0.06201 0.0
C2262 C 0.55325 0.30969 0.08381 0.0
C2263 C 0.06892 0.37489 0.33466 0.0
C2264 C 0.06972 0.34021 0.32597 0.0
C2265 C 0.04407 0.38359 0.32467 0.0
C2266 C 0.01971 0.35768 0.30606 0.0
H2267 H 0.08748 0.39517 0.34911 0.0
H2268 H 0.04396 0.41053 0.33108 0.0
S2269 S 0.01145 0.26319 0.27901 0.0
N2270 N 0.04441 0.28009 0.29962 0.0
N2271 N 0.99774 0.29618 0.28037 0.0
C2272 C 0.02018 0.3229 0.29843 0.0
C2273 C 0.04529 0.31421 0.30858 0.0
C2274 C 1.00265 0.64665 0.57496 0.0
C2275 C 1.00653 0.65944 0.60962 0.0
C2276 C 0.0191 0.62542 0.55909 0.0
C2277 C 0.04046 0.61674 0.57719 0.0
H2278 H 0.98761 0.65406 0.55988 0.0
H2279 H 0.01477 0.61565 0.53244 0.0
S2280 S 0.0541 0.63693 0.66835 0.0
N2281 N 0.02952 0.65686 0.66165 0.0
N2282 N 0.0614 0.61843 0.63164 0.0
C2283 C 0.04328 0.62772 0.61184 0.0
C2284 C 0.02607 0.64863 0.62805 0.0
C2285 C 0.72097 0.81235 0.80788 0.0
C2286 C 0.71986 0.84501 0.82671 0.0
C2287 C 0.74646 0.80781 0.79548 0.0
C2288 C 0.77232 0.83435 0.80507 0.0
H2289 H 0.70213 0.7902 0.80294 0.0
H2290 H 0.74577 0.78338 0.77925 0.0
S2291 S 0.77649 0.92744 0.84086 0.0
N2292 N 0.74308 0.90665 0.84362 0.0
N2293 N 0.79187 0.89709 0.82381 0.0
C2294 C 0.76988 0.8681 0.81923 0.0
C2295 C 0.74345 0.87344 0.82975 0.0
C2296 C 0.54572 0.56591 0.67443 0.0
C2297 C 0.52093 0.57771 0.68263 0.0
C2298 C 0.55619 0.56317 0.643 0.0
C2299 C 0.5428 0.57183 0.6166 0.0
H2300 H 0.5577 0.5588 0.69294 0.0
H2301 H 0.57521 0.55384 0.63935 0.0
S2302 S 0.47859 0.60708 0.6239 0.0
N2303 N 0.48428 0.60016 0.66045 0.0
N2304 N 0.50329 0.59441 0.602 0.0
C2305 C 0.51787 0.58362 0.62404 0.0
C2306 C 0.50724 0.5867 0.65648 0.0
C2307 C 0.78997 0.18232 0.94589 0.0
C2308 C 0.79702 0.19648 0.98018 0.0
C2309 C 0.77778 0.19968 0.92702 0.0
C2310 C 0.77193 0.23109 0.94229 0.0
H2311 H 0.79407 0.15793 0.9337 0.0
H2312 H 0.77289 0.18857 0.90041 0.0
S2313 S 0.78685 0.27816 0.0315 0.0
N2314 N 0.79771 0.24294 0.02893 0.0
N2315 N 0.77458 0.27594 0.99323 0.0
C2316 C 0.77891 0.24535 0.97662 0.0
C2317 C 0.79156 0.22783 0.99573 0.0
C2318 C 0.14394 0.54979 0.15768 0.0
C2319 C 0.15605 0.52213 0.14633 0.0
C2320 C 0.12319 0.55544 0.13676 0.0
C2321 C 0.11444 0.53319 0.10475 0.0
H2322 H 0.15077 0.56711 0.1825 0.0
H2323 H 0.11476 0.57765 0.14505 0.0
S2324 S 0.14053 0.45815 0.06445 0.0
N2325 N 0.15861 0.47312 0.10217 0.0
N2326 N 0.11942 0.48363 0.0624 0.0
C2327 C 0.12642 0.50558 0.09351 0.0
C2328 C 0.14746 0.50005 0.11458 0.0
C2329 C 0.84124 0.86619 0.42898 0.0
C2330 C 0.84976 0.84297 0.44422 0.0
C2331 C 0.83796 0.86045 0.39428 0.0
C2332 C 0.84213 0.83061 0.3721 0.0
H2333 H 0.83786 0.88988 0.44409 0.0
H2334 H 0.83197 0.88004 0.38475 0.0
S2335 S 0.86091 0.75888 0.39839 0.0
N2336 N 0.86109 0.7876 0.43377 0.0
N2337 N 0.85214 0.77541 0.36865 0.0
C2338 C 0.84924 0.80614 0.38677 0.0
C2339 C 0.85375 0.81266 0.42255 0.0
C2340 C 0.53097 0.559 0.88684 0.0
C2341 C 0.50632 0.57223 0.88341 0.0
C2342 C 0.54236 0.5538 0.91747 0.0
C2343 C 0.52987 0.561 0.94745 0.0
H2344 H 0.54205 0.5528 0.86544 0.0
H2345 H 0.56126 0.54405 0.91748 0.0
S2346 S 0.46459 0.59511 0.95333 0.0
N2347 N 0.47019 0.59186 0.91451 0.0
N2348 N 0.49003 0.58171 0.96988 0.0
C2349 C 0.50497 0.57368 0.94399 0.0
C2350 C 0.49374 0.57932 0.91309 0.0
C2351 C 0.82933 0.20697 0.15027 0.0
C2352 C 0.80642 0.19686 0.12473 0.0
C2353 C 0.82974 0.23197 0.17905 0.0
C2354 C 0.80717 0.24763 0.18402 0.0
H2355 H 0.84785 0.19646 0.14743 0.0
H2356 H 0.84815 0.23874 0.19743 0.0
S2357 S 0.73901 0.22507 0.12721 0.0
N2358 N 0.75841 0.20079 0.10697 0.0
N2359 N 0.7588 0.24757 0.16325 0.0
C2360 C 0.78263 0.23566 0.15996 0.0
C2361 C 0.78233 0.21019 0.12972 0.0
C2362 C 0.14899 0.56044 0.2938 0.0
C2363 C 0.17826 0.56148 0.30104 0.0
C2364 C 0.13396 0.57472 0.31808 0.0
C2365 C 0.14761 0.59023 0.35048 0.0
H2366 H 0.13748 0.54873 0.26893 0.0
H2367 H 0.11144 0.57332 0.31154 0.0
S2368 S 0.22286 0.59751 0.38353 0.0
N2369 N 0.21987 0.57795 0.34356 0.0
N2370 N 0.19098 0.60428 0.38995 0.0
C2371 C 0.17639 0.59031 0.35877 0.0
C2372 C 0.19193 0.57595 0.3338 0.0
C2373 C 0.82544 0.86345 0.65069 0.0
C2374 C 0.83553 0.84101 0.62556 0.0
C2375 C 0.82067 0.85671 0.68166 0.0
C2376 C 0.82478 0.82659 0.68864 0.0
H2377 H 0.82255 0.88739 0.64709 0.0
H2378 H 0.81419 0.87553 0.70049 0.0
S2379 S 0.85216 0.7602 0.63201 0.0
N2380 N 0.85019 0.78801 0.61066 0.0
N2381 N 0.84086 0.77503 0.66763 0.0
C2382 C 0.83454 0.80389 0.66352 0.0
C2383 C 0.83994 0.81111 0.63242 0.0
C2384 C 0.79034 0.55096 0.51145 0.0
C2385 C 0.79235 0.51716 0.50876 0.0
C2386 C 0.76767 0.5622 0.52553 0.0
C2387 C 0.74629 0.53983 0.53692 0.0
H2388 H 0.80765 0.56981 0.5054 0.0
H2389 H 0.76827 0.58928 0.5302 0.0
S2390 S 0.73759 0.44707 0.52888 0.0
N2391 N 0.76788 0.45975 0.51344 0.0
N2392 N 0.72532 0.48151 0.54001 0.0
C2393 C 0.74597 0.50506 0.53084 0.0
C2394 C 0.769 0.49346 0.51653 0.0
C2395 C 0.19283 0.14181 0.48916 0.0
C2396 C 0.21547 0.1287 0.49878 0.0
C2397 C 0.16334 0.12518 0.49004 0.0
C2398 C 0.15535 0.09464 0.50026 0.0
H2399 H 0.19786 0.16473 0.48044 0.0
H2400 H 0.14668 0.1361 0.48238 0.0
S2401 S 0.20625 0.05356 0.53382 0.0
N2402 N 0.22745 0.08549 0.52266 0.0
N2403 N 0.17287 0.05515 0.52448 0.0
C2404 C 0.17783 0.08236 0.51127 0.0
C2405 C 0.20759 0.09909 0.51045 0.0
C2406 C 0.2476 0.90538 0.79847 0.0
C2407 C 0.25668 0.9313 0.78194 0.0
C2408 C 0.26188 0.87873 0.79954 0.0
C2409 C 0.28723 0.87407 0.78429 0.0
H2410 H 0.2291 0.90598 0.81182 0.0
H2411 H 0.25223 0.86101 0.81327 0.0
S2412 S 0.3202 0.93378 0.73489 0.0
N2413 N 0.29407 0.95023 0.74938 0.0
N2414 N 0.3184 0.89926 0.74834 0.0
C2415 C 0.29611 0.89937 0.76636 0.0
C2416 C 0.28187 0.92767 0.7662 0.0
C2417 C 0.46715 0.03871 1.00276 0.0
C2418 C 0.44666 1.00755 0.98672 0.0
C2419 C 0.4963 0.04 1.00767 0.0
C2420 C 0.50616 1.01034 0.99678 0.0
H2421 H 0.46035 0.06132 0.01478 0.0
H2422 H 0.51066 0.06421 0.02157 0.0
S2423 S 0.46142 0.92431 0.94673 0.0
N2424 N 0.43827 0.94799 0.95395 0.0
N2425 N 0.49335 0.94982 0.96566 0.0
C2426 C 0.48609 0.97962 0.97842 0.0
C2427 C 0.45634 0.97859 0.97236 0.0
C2428 C 0.86904 0.62906 0.83318 0.0
C2429 C 0.86849 0.59501 0.83139 0.0
C2430 C 0.85488 0.63665 0.80743 0.0
C2431 C 0.83846 0.61025 0.77943 0.0
H2432 H 0.88309 0.65022 0.85278 0.0
H2433 H 0.85864 0.66381 0.80889 0.0
S2434 S 0.83292 0.51657 0.76276 0.0
N2435 N 0.85304 0.53472 0.79918 0.0
N2436 N 0.82359 0.5483 0.75184 0.0
C2437 C 0.83721 0.57573 0.77804 0.0
C2438 C 0.85255 0.56823 0.80398 0.0
C2439 C 0.86894 0.63661 0.05642 0.0
C2440 C 0.8737 0.6566 0.03394 0.0
C2441 C 0.89046 0.62317 0.06731 0.0
C2442 C 0.91789 0.62915 0.05638 0.0
H2443 H 0.84834 0.63136 0.06593 0.0
H2444 H 0.88547 0.60788 0.08463 0.0
S2445 S 0.94077 0.67774 0.99514 0.0
N2446 N 0.90731 0.68012 0.99923 0.0
N2447 N 0.9482 0.65534 0.02027 0.0
C2448 C 0.92284 0.64843 0.03311 0.0
C2449 C 0.90073 0.66222 0.02193 0.0
C2450 C 0.25047 0.15494 0.80239 0.0
C2451 C 0.26119 0.12546 0.79273 0.0
C2452 C 0.26614 0.18869 0.80076 0.0
C2453 C 0.29375 0.19559 0.78942 0.0
H2454 H 0.22987 0.15211 0.81196 0.0
H2455 H 0.25646 0.20981 0.80893 0.0
S2456 S 0.32991 0.12665 0.7566 0.0
N2457 N 0.30062 0.10569 0.76903 0.0
N2458 N 0.32881 0.16733 0.76466 0.0
C2459 C 0.30401 0.16589 0.77851 0.0
C2460 C 0.28823 0.13167 0.78053 0.0
C2461 C 0.3547 0.94313 0.31441 0.0
C2462 C 0.3841 0.95753 0.32704 0.0
C2463 C 0.34454 0.90802 0.29708 0.0
C2464 C 0.36361 0.88705 0.29304 0.0
H2465 H 0.33978 0.95908 0.31747 0.0
H2466 H 0.32178 0.89712 0.28734 0.0
S2467 S 0.44258 0.91351 0.32006 0.0
N2468 N 0.43216 0.94907 0.33344 0.0
N2469 N 0.41297 0.88304 0.30072 0.0
C2470 C 0.39305 0.90147 0.30479 0.0
C2471 C 0.40332 0.93686 0.32221 0.0
C2472 C 0.58259 0.41097 0.53043 0.0
C2473 C 0.59532 0.40952 0.56128 0.0
C2474 C 0.5829 0.44307 0.52344 0.0
C2475 C 0.59409 0.47524 0.54774 0.0
H2476 H 0.57317 0.38712 0.51107 0.0
H2477 H 0.57514 0.4426 0.49864 0.0
S2478 S 0.62911 0.48607 0.63282 0.0
N2479 N 0.61992 0.44388 0.61578 0.0
N2480 N 0.61802 0.5026 0.60432 0.0
C2481 C 0.60613 0.47367 0.57881 0.0
C2482 C 0.60718 0.4415 0.58522 0.0
C2483 C 0.42599 0.76639 0.38543 0.0
C2484 C 0.45481 0.77765 0.37896 0.0
C2485 C 0.40198 0.7688 0.36555 0.0
C2486 C 0.40534 0.78228 0.33788 0.0
H2487 H 0.42187 0.75588 0.40627 0.0
H2488 H 0.38048 0.76005 0.37204 0.0
S2489 S 0.47603 0.81796 0.31133 0.0
N2490 N 0.48489 0.804 0.34285 0.0
N2491 N 0.44039 0.80949 0.30701 0.0
C2492 C 0.43398 0.79398 0.33141 0.0
C2493 C 0.4584 0.79142 0.35145 0.0
C2494 C 0.09477 0.69263 0.03423 0.0
C2495 C 0.1045 0.71774 0.06538 0.0
C2496 C 0.0905 0.65658 0.03045 0.0
C2497 C 0.09498 0.64376 0.05784 0.0
H2498 H 0.08958 0.70082 0.01267 0.0
H2499 H 0.08216 0.63857 1.00624 0.0
S2500 S 0.12071 0.69787 0.14454 0.0
N2501 N 0.11934 0.72633 0.12373 0.0
N2502 N 0.11038 0.65955 0.11697 0.0
C2503 C 0.10534 0.66863 0.08878 0.0
C2504 C 0.11038 0.70518 0.09246 0.0
C2505 C 0.13994 0.31046 0.91114 0.0
C2506 C 0.11573 0.28236 0.89605 0.0
C2507 C 0.16395 0.31877 0.89444 0.0
C2508 C 0.16477 0.29881 0.8623 0.0
H2509 H 0.13964 0.32736 0.93533 0.0
H2510 H 0.18129 0.342 0.906 0.0
S2511 S 0.10889 0.2201 0.81315 0.0
N2512 N 0.09546 0.23254 0.84793 0.0
N2513 N 0.14079 0.24828 0.81696 0.0
C2514 C 0.14175 0.26927 0.8478 0.0
C2515 C 0.11713 0.26093 0.86457 0.0
C2516 C 0.64006 0.80281 0.99923 0.0
C2517 C 0.6429 0.78662 0.96649 0.0
C2518 C 0.62696 0.78318 0.01939 0.0
C2519 C 0.6166 0.74705 1.0072 0.0
H2520 H 0.64378 0.83066 1.00745 0.0
H2521 H 0.62202 0.79649 0.04312 0.0
S2522 S 0.62668 0.69283 0.92622 0.0
N2523 N 0.64088 0.73309 0.92543 0.0
N2524 N 0.6156 0.69562 0.96294 0.0
C2525 C 0.62388 0.7305 0.97657 0.0
C2526 C 0.63761 0.75064 0.95633 0.0
C2527 C 0.11322 0.75741 0.71833 0.0
C2528 C 0.08613 0.73619 0.72088 0.0
C2529 C 0.13877 0.75358 0.73266 0.0
C2530 C 0.13784 0.72785 0.74913 0.0
H2531 H 0.11466 0.77834 0.70696 0.0
H2532 H 0.15901 0.77241 0.73292 0.0
S2533 S 0.07325 0.66134 0.75657 0.0
N2534 N 0.06037 0.68652 0.73851 0.0
N2535 N 0.10877 0.67688 0.7614 0.0
C2536 C 0.11133 0.70394 0.7481 0.0
C2537 C 0.0853 0.70884 0.73517 0.0
C2538 C 0.1366 0.45024 0.42184 0.0
C2539 C 0.14532 0.42563 0.43427 0.0
C2540 C 0.12714 0.476 0.44274 0.0
C2541 C 0.12657 0.47786 0.47661 0.0
H2542 H 0.13274 0.44637 0.39532 0.0
H2543 H 0.11788 0.49235 0.43147 0.0
S2544 S 0.15866 0.42687 0.52179 0.0
N2545 N 0.16138 0.41026 0.48253 0.0
N2546 N 0.14368 0.4587 0.52239 0.0
C2547 C 0.14055 0.45727 0.48987 0.0
C2548 C 0.15046 0.43138 0.46847 0.0
C2549 C 0.4218 0.2714 0.19535 0.0
C2550 C 0.44128 0.26166 0.21483 0.0
C2551 C 0.3989 0.28221 0.2081 0.0
C2552 C 0.39439 0.2841 0.24094 0.0
H2553 H 0.4244 0.27157 0.17004 0.0
H2554 H 0.38426 0.28889 0.19182 0.0
S2555 S 0.43641 0.2575 0.30136 0.0
N2556 N 0.45319 0.25186 0.26809 0.0
N2557 N 0.40901 0.27241 0.29216 0.0
C2558 C 0.41286 0.2736 0.26076 0.0
C2559 C 0.43653 0.2622 0.24761 0.0
C2560 C 0.66373 0.52119 0.40036 0.0
C2561 C 0.65327 0.52894 0.37145 0.0
C2562 C 0.64914 0.52329 0.42978 0.0
C2563 C 0.62232 0.53227 0.43263 0.0
H2564 H 0.68357 0.51331 0.40042 0.0
H2565 H 0.65906 0.5174 0.45062 0.0
S2566 S 0.58589 0.55807 0.36626 0.0
N2567 N 0.61422 0.54845 0.35003 0.0
N2568 N 0.58746 0.55115 0.40316 0.0
C2569 C 0.61183 0.54027 0.4041 0.0
C2570 C 0.62688 0.53888 0.37454 0.0
C2571 C 0.3511 0.89109 0.08779 0.0
C2572 C 0.37018 0.92438 0.10089 0.0
C2573 C 0.3535 0.86424 0.10132 0.0
C2574 C 0.37443 0.87085 0.12854 0.0
H2575 H 0.33736 0.88467 0.06441 0.0
H2576 H 0.34109 0.83794 0.08867 0.0
S2577 S 0.42528 0.95423 0.17491 0.0
N2578 N 0.40754 0.96311 0.14481 0.0
N2579 N 0.41111 0.91279 0.17098 0.0
C2580 C 0.39052 0.90471 0.14446 0.0
C2581 C 0.38844 0.93171 0.13052 0.0
C2582 C 0.02214 0.5422 0.88109 0.0
C2583 C 0.99204 0.53368 0.88104 0.0
C2584 C 0.04046 0.54683 0.90983 0.0
C2585 C 0.02888 0.54347 0.93897 0.0
H2586 H 0.03158 0.54811 0.85982 0.0
H2587 H 0.06357 0.55461 0.90952 0.0
S2588 S 0.95016 0.51473 0.94773 0.0
N2589 N 0.95116 0.5145 0.9087 0.0
N2590 N 0.98435 0.52825 0.96431 0.0
C2591 C 0.99831 0.53252 0.9379 0.0
C2592 C 0.98016 0.5259 0.90825 0.0
C2593 C 0.33306 0.2904 0.641 0.0
C2594 C 0.32609 0.25705 0.61815 0.0
C2595 C 0.33238 0.29505 0.67569 0.0
C2596 C 0.32567 0.26652 0.68914 0.0
H2597 H 0.33981 0.31306 0.63212 0.0
H2598 H 0.33882 0.32108 0.69218 0.0
S2599 S 0.30732 0.17407 0.64048 0.0
N2600 N 0.31228 0.19536 0.61218 0.0
N2601 N 0.31253 0.20386 0.67633 0.0
C2602 C 0.31852 0.23328 0.66639 0.0
C2603 C 0.31834 0.22861 0.63135 0.0
C2604 C 0.63158 0.54961 0.16463 0.0
C2605 C 0.63587 0.5175 0.16669 0.0
C2606 C 0.61905 0.55478 0.13489 0.0
C2607 C 0.61048 0.52885 0.10382 0.0
H2608 H 0.63707 0.57114 0.18686 0.0
H2609 H 0.61547 0.57951 0.13733 0.0
S2610 S 0.60796 0.43668 0.09754 0.0
N2611 N 0.62329 0.45697 0.136 0.0
N2612 N 0.60236 0.46689 0.08093 0.0
C2613 C 0.6128 0.49589 0.10646 0.0
C2614 C 0.62462 0.49029 0.13713 0.0
C2615 C 0.34512 0.87998 0.92883 0.0
C2616 C 0.37067 0.88104 0.94789 0.0
C2617 C 0.33736 0.859 0.89636 0.0
C2618 C 0.3548 0.83842 0.88198 0.0
H2619 H 0.33167 0.89668 0.93835 0.0
H2620 H 0.31831 0.86007 0.88191 0.0
S2621 S 0.42149 0.82801 0.92144 0.0
N2622 N 0.41152 0.85623 0.95057 0.0
N2623 N 0.39713 0.81795 0.88855 0.0
C2624 C 0.37947 0.83774 0.90072 0.0
C2625 C 0.38724 0.8586 0.93409 0.0
C2626 C 0.9909 0.55859 0.71903 0.0
C2627 C 0.96894 0.54113 0.73364 0.0
C2628 C 1.00717 0.54067 0.69927 0.0
C2629 C 1.00184 0.50457 0.69327 0.0
H2630 H 0.99649 0.58655 0.72424 0.0
H2631 H 0.02468 0.55543 0.68935 0.0
S2632 S 0.94567 0.44648 0.7246 0.0
N2633 N 0.94166 0.48555 0.74022 0.0
N2634 N 0.97259 0.45169 0.70218 0.0
C2635 C 0.97933 0.48648 0.70681 0.0
C2636 C 0.96254 0.50478 0.72702 0.0
C2637 C 0.32262 0.24785 0.40845 0.0
C2638 C 0.34055 0.26832 0.43807 0.0
C2639 C 0.32731 0.25443 0.37755 0.0
C2640 C 0.3498 0.28241 0.37416 0.0
H2641 H 0.3053 0.22561 0.40882 0.0
H2642 H 0.31284 0.237 0.35599 0.0
S2643 S 0.40549 0.34127 0.44365 0.0
N2644 N 0.38325 0.31648 0.46159 0.0
N2645 N 0.39251 0.32775 0.40391 0.0
C2646 C 0.36862 0.30214 0.40352 0.0
C2647 C 0.3638 0.29554 0.43514 0.0
C2648 C 0.34995 0.5643 0.49527 0.0
C2649 C 0.34748 0.57072 0.52915 0.0
C2650 C 0.37231 0.55174 0.48211 0.0
C2651 C 0.39311 0.54417 0.50205 0.0
H2652 H 0.33428 0.56899 0.47857 0.0
H2653 H 0.373 0.54766 0.45576 0.0
S2654 S 0.4 0.56496 0.59402 0.0
N2655 N 0.37029 0.5752 0.58361 0.0
N2656 N 0.4122 0.54991 0.55895 0.0
C2657 C 0.39215 0.55308 0.53665 0.0
C2658 C 0.36923 0.56647 0.55015 0.0
C2659 C 0.94662 0.99135 0.56759 0.0
C2660 C 0.9332 0.95767 0.54723 0.0
C2661 C 0.97526 1.00889 0.56521 0.0
C2662 C 0.99136 0.99375 0.54179 0.0
H2663 H 0.93487 1.00424 0.58554 0.0
H2664 H 0.98459 0.03457 0.58163 0.0
S2665 S 0.96486 0.90512 0.48272 0.0
N2666 N 0.9375 0.90944 0.50362 0.0
N2667 N 0.99059 0.94165 0.498 0.0
C2668 C 0.97775 0.95955 0.52151 0.0
C2669 C 0.94888 0.94175 0.52447 0.0
C2670 C 0.89242 0.19222 0.31647 0.0
C2671 C 0.89928 0.16646 0.29041 0.0
C2672 C 0.87748 0.21755 0.31128 0.0
C2673 C 0.86733 0.21939 0.27932 0.0
H2674 H 0.89927 0.19343 0.34182 0.0
H2675 H 0.87456 0.23651 0.33284 0.0
S2676 S 0.87545 0.1564 0.20164 0.0
N2677 N 0.89159 0.14438 0.23067 0.0
N2678 N 0.86443 0.1899 0.22105 0.0
C2679 C 0.87336 0.1932 0.2532 0.0
C2680 C 0.88871 0.16769 0.2585 0.0
C2681 C 0.68268 0.05257 0.03096 0.0
C2682 C 0.70204 0.07698 0.02012 0.0
C2683 C 0.65835 0.06007 0.04346 0.0
C2684 C 0.65181 0.09144 0.04457 0.0
H2685 H 0.68613 0.02742 0.02936 0.0
H2686 H 0.6434 0.03961 0.04914 0.0
S2687 S 0.70086 0.16751 0.02726 0.0
N2688 N 0.71753 0.13671 0.01775 0.0
N2689 N 0.67047 0.15014 0.0403 0.0
C2690 C 0.67311 0.11775 0.03762 0.0
C2691 C 0.69841 0.11045 0.0253 0.0
C2692 C 0.31699 0.543 0.26179 0.0
C2693 C 0.29628 0.51613 0.23858 0.0
C2694 C 0.33654 0.53555 0.28272 0.0
C2695 C 0.33513 0.50107 0.28138 0.0
H2696 H 0.31589 0.56952 0.26627 0.0
H2697 H 0.35094 0.55668 0.30197 0.0
S2698 S 0.28602 0.42227 0.22107 0.0
N2699 N 0.27795 0.45506 0.21118 0.0
N2700 N 0.31241 0.43983 0.25237 0.0
C2701 C 0.31621 0.47415 0.25561 0.0
C2702 C 0.29744 0.48214 0.23342 0.0
C2703 C 0.26134 0.43524 0.0101 0.0
C2704 C 0.27332 0.45129 0.04349 0.0
C2705 C 0.2411 0.44726 0.99446 0.0
C2706 C 0.23191 0.4757 0.01157 0.0
H2707 H 0.26851 0.41411 0.99538 0.0
H2708 H 0.23313 0.43469 0.96849 0.0
S2709 S 0.2531 0.52346 0.10066 0.0
N2710 N 0.2717 0.49443 0.09424 0.0
N2711 N 0.23404 0.51741 0.06464 0.0
C2712 C 0.24206 0.49041 0.04556 0.0
C2713 C 0.26268 0.47812 0.06156 0.0
C2714 C 0.8716 0.96181 0.27104 0.0
C2715 C 0.90134 0.97795 0.28284 0.0
C2716 C 0.85857 0.92583 0.2673 0.0
C2717 C 0.87413 0.90361 0.27588 0.0
H2718 H 0.85804 0.97725 0.26494 0.0
H2719 H 0.83584 0.91553 0.25783 0.0
S2720 S 0.95261 0.93335 0.30994 0.0
N2721 N 0.94569 0.96861 0.30418 0.0
N2722 N 0.92198 0.9023 0.29721 0.0
C2723 C 0.90407 0.91966 0.28752 0.0
C2724 C 0.91729 0.95619 0.29111 0.0
C2725 C 0.7529 0.164 0.73397 0.0
C2726 C 0.76295 0.13752 0.74153 0.0
C2727 C 0.76909 0.19871 0.74659 0.0
C2728 C 0.79683 0.20771 0.76462 0.0
H2729 H 0.73163 0.15807 0.72014 0.0
H2730 H 0.75941 0.21871 0.74315 0.0
S2731 S 0.83167 0.14838 0.7935 0.0
N2732 N 0.80097 0.12289 0.77115 0.0
N2733 N 0.83255 0.18791 0.7918 0.0
C2734 C 0.80705 0.1815 0.77234 0.0
C2735 C 0.78997 0.14639 0.76115 0.0
loop_
_geom_bond_atom_site_label_1
_geom_bond_atom_site_label_2
_geom_bond_distance
_geom_bond_site_symmetry_2
_ccdc_geom_bond_type
Mg0 O1 2.028 . S
Mg0 O7 1.986 . S
Mg0 O9 2.114 . S
Mg0 O10 2.251 . S
Mg0 O13 2.010 . S
O1 Mg0 2.028 . S
O1 C4 1.250 . S
O2 Mg3 2.028 . S
O2 C4 1.248 . S
Mg3 O2 2.028 . S
Mg3 O8 2.032 . S
Mg3 O10 2.079 . S
C4 O1 1.250 . S
C4 O2 1.248 . S
C5 O6 1.264 . S
C5 O13 1.249 . S
O6 C5 1.264 . S
O7 Mg0 1.986 . S
O7 C11 1.246 . S
O8 Mg3 2.032 . S
O8 C11 1.259 . S
O9 Mg0 2.114 . S
O9 C12 1.252 . S
O10 Mg0 2.251 . S
O10 Mg3 2.079 . S
O10 C12 1.273 . S
C11 O7 1.246 . S
C11 O8 1.259 . S
C12 O9 1.252 . S
C12 O10 1.273 . S
O13 Mg0 2.010 . S
O13 C5 1.249 . S
Mg14 O15 2.028 . S
Mg14 O21 1.986 . S
Mg14 O23 2.114 1_455 S
Mg14 O24 2.251 1_455 S
Mg14 O27 2.010 . S
O15 Mg14 2.028 . S
O15 C18 1.250 1_455 S
O16 Mg17 2.028 . S
O16 C18 1.248 . S
Mg17 O16 2.028 . S
Mg17 O22 2.032 . S
Mg17 O24 2.079 . S
C18 O15 1.250 1_655 S
C18 O16 1.248 . S
C19 O20 1.264 . S
C19 O27 1.249 . S
O20 C19 1.264 . S
O21 Mg14 1.986 . S
O21 C25 1.246 1_455 S
O22 Mg17 2.032 . S
O22 C25 1.259 . S
O23 Mg14 2.114 1_655 S
O23 C26 1.252 . S
O24 Mg14 2.251 1_655 S
O24 Mg17 2.079 . S
O24 C26 1.273 . S
C25 O21 1.246 1_655 S
C25 O22 1.259 . S
C26 O23 1.252 . S
C26 O24 1.273 . S
O27 Mg14 2.010 . S
O27 C19 1.249 . S
Mg28 O29 2.028 . S
Mg28 O35 1.986 . S
Mg28 O37 2.114 . S
Mg28 O38 2.251 . S
Mg28 O41 2.010 . S
O29 Mg28 2.028 . S
O29 C32 1.250 . S
O30 Mg31 2.028 . S
O30 C32 1.248 . S
Mg31 O30 2.028 . S
Mg31 O36 2.032 . S
Mg31 O38 2.079 . S
C32 O29 1.250 . S
C32 O30 1.248 . S
C33 O34 1.264 . S
C33 O41 1.249 . S
O34 C33 1.264 . S
O35 Mg28 1.986 . S
O35 C39 1.246 . S
O36 Mg31 2.032 . S
O36 C39 1.259 . S
O37 Mg28 2.114 . S
O37 C40 1.252 . S
O38 Mg28 2.251 . S
O38 Mg31 2.079 . S
O38 C40 1.273 . S
C39 O35 1.246 . S
C39 O36 1.259 . S
C40 O37 1.252 . S
C40 O38 1.273 . S
O41 Mg28 2.010 . S
O41 C33 1.249 . S
Mg42 O43 2.028 . S
Mg42 O49 1.986 . S
Mg42 O51 2.114 . S
Mg42 O52 2.251 . S
Mg42 O55 2.010 . S
O43 Mg42 2.028 . S
O43 C46 1.250 . S
O44 Mg45 2.028 . S
O44 C46 1.248 . S
Mg45 O44 2.028 . S
Mg45 O50 2.032 . S
Mg45 O52 2.079 . S
C46 O43 1.250 . S
C46 O44 1.248 . S
C47 O48 1.264 . S
C47 O55 1.249 . S
O48 C47 1.264 . S
O49 Mg42 1.986 . S
O49 C53 1.246 . S
O50 Mg45 2.032 . S
O50 C53 1.259 . S
O51 Mg42 2.114 . S
O51 C54 1.252 . S
O52 Mg42 2.251 . S
O52 Mg45 2.079 . S
O52 C54 1.273 . S
C53 O49 1.246 . S
C53 O50 1.259 . S
C54 O51 1.252 . S
C54 O52 1.273 . S
O55 Mg42 2.010 . S
O55 C47 1.249 . S
Mg56 O57 2.028 . S
Mg56 O63 1.986 . S
Mg56 O65 2.114 . S
Mg56 O66 2.251 . S
Mg56 O69 2.010 . S
O57 Mg56 2.028 . S
O57 C60 1.250 . S
O58 Mg59 2.028 . S
O58 C60 1.248 . S
Mg59 O58 2.028 . S
Mg59 O64 2.032 . S
Mg59 O66 2.079 . S
C60 O57 1.250 . S
C60 O58 1.248 . S
C61 O62 1.264 . S
C61 O69 1.249 . S
O62 C61 1.264 . S
O63 Mg56 1.986 . S
O63 C67 1.246 . S
O64 Mg59 2.032 . S
O64 C67 1.259 . S
O65 Mg56 2.114 . S
O65 C68 1.252 . S
O66 Mg56 2.251 . S
O66 Mg59 2.079 . S
O66 C68 1.273 . S
C67 O63 1.246 . S
C67 O64 1.259 . S
C68 O65 1.252 . S
C68 O66 1.273 . S
O69 Mg56 2.010 . S
O69 C61 1.249 . S
Mg70 O71 2.028 . S
Mg70 O77 1.986 . S
Mg70 O79 2.114 . S
Mg70 O80 2.251 . S
Mg70 O83 2.010 . S
O71 Mg70 2.028 . S
O71 C74 1.250 . S
O72 Mg73 2.028 . S
O72 C74 1.248 . S
Mg73 O72 2.028 . S
Mg73 O78 2.032 . S
Mg73 O80 2.079 . S
C74 O71 1.250 . S
C74 O72 1.248 . S
C75 O76 1.264 . S
C75 O83 1.249 . S
O76 C75 1.264 . S
O77 Mg70 1.986 . S
O77 C81 1.246 . S
O78 Mg73 2.032 . S
O78 C81 1.259 . S
O79 Mg70 2.114 . S
O79 C82 1.252 . S
O80 Mg70 2.251 . S
O80 Mg73 2.079 . S
O80 C82 1.273 . S
C81 O77 1.246 . S
C81 O78 1.259 . S
C82 O79 1.252 . S
C82 O80 1.273 . S
O83 Mg70 2.010 . S
O83 C75 1.249 . S
Mg84 O85 2.028 . S
Mg84 O91 1.986 . S
Mg84 O93 2.114 . S
Mg84 O94 2.251 . S
Mg84 O97 2.010 . S
O85 Mg84 2.028 . S
O85 C88 1.250 . S
O86 Mg87 2.028 . S
O86 C88 1.248 . S
Mg87 O86 2.028 . S
Mg87 O92 2.032 . S
Mg87 O94 2.079 . S
C88 O85 1.250 . S
C88 O86 1.248 . S
C89 O90 1.264 . S
C89 O97 1.249 . S
O90 C89 1.264 . S
O91 Mg84 1.986 . S
O91 C95 1.246 . S
O92 Mg87 2.032 . S
O92 C95 1.259 . S
O93 Mg84 2.114 . S
O93 C96 1.252 . S
O94 Mg84 2.251 . S
O94 Mg87 2.079 . S
O94 C96 1.273 . S
C95 O91 1.246 . S
C95 O92 1.259 . S
C96 O93 1.252 . S
C96 O94 1.273 . S
O97 Mg84 2.010 . S
O97 C89 1.249 . S
Mg98 O99 2.028 . S
Mg98 O105 1.986 . S
Mg98 O107 2.121 . S
Mg98 O108 2.251 1_455 S
Mg98 O111 2.010 . S
O99 Mg98 2.028 . S
O99 C102 1.250 . S
O100 Mg101 2.028 1_455 S
O100 C102 1.248 . S
Mg101 O100 2.028 1_655 S
Mg101 O106 2.032 . S
Mg101 O108 2.079 . S
C102 O99 1.250 . S
C102 O100 1.248 . S
C103 O104 1.264 . S
C103 O111 1.249 . S
O104 C103 1.264 . S
O105 Mg98 1.986 . S
O105 C109 1.246 . S
O106 Mg101 2.032 . S
O106 C109 1.259 1_655 S
O107 Mg98 2.121 . S
O107 C110 1.241 1_455 S
O108 Mg98 2.251 1_655 S
O108 Mg101 2.079 . S
O108 C110 1.273 . S
C109 O105 1.246 . S
C109 O106 1.259 1_455 S
C110 O107 1.241 1_655 S
C110 O108 1.273 . S
O111 Mg98 2.010 . S
O111 C103 1.249 . S
Mg112 O113 2.028 1_545 S
Mg112 O119 1.986 . S
Mg112 O121 2.114 . S
Mg112 O122 2.251 . S
Mg112 O125 2.010 . S
O113 Mg112 2.028 1_565 S
O113 C116 1.250 . S
O114 Mg115 2.028 1_565 S
O114 C116 1.248 . S
Mg115 O114 2.028 1_545 S
Mg115 O120 2.032 . S
Mg115 O122 2.079 . S
C116 O113 1.250 . S
C116 O114 1.248 . S
C117 O118 1.264 . S
C117 O125 1.249 . S
O118 C117 1.264 . S
O119 Mg112 1.986 . S
O119 C123 1.246 . S
O120 Mg115 2.032 . S
O120 C123 1.259 . S
O121 Mg112 2.114 . S
O121 C124 1.252 . S
O122 Mg112 2.251 . S
O122 Mg115 2.079 . S
O122 C124 1.273 . S
C123 O119 1.246 . S
C123 O120 1.259 . S
C124 O121 1.252 . S
C124 O122 1.273 . S
O125 Mg112 2.010 . S
O125 C117 1.249 . S
Mg126 O127 2.028 . S
Mg126 O133 1.986 . S
Mg126 O135 2.114 . S
Mg126 O136 2.251 . S
Mg126 O139 2.010 . S
O127 Mg126 2.028 . S
O127 C130 1.250 . S
O128 Mg129 2.028 . S
O128 C130 1.248 . S
Mg129 O128 2.028 . S
Mg129 O134 2.032 . S
Mg129 O136 2.079 . S
C130 O127 1.250 . S
C130 O128 1.248 . S
C131 O132 1.264 . S
C131 O139 1.249 . S
O132 C131 1.264 . S
O133 Mg126 1.986 . S
O133 C137 1.246 . S
O134 Mg129 2.032 . S
O134 C137 1.259 . S
O135 Mg126 2.114 . S
O135 C138 1.252 . S
O136 Mg126 2.251 . S
O136 Mg129 2.079 . S
O136 C138 1.273 . S
C137 O133 1.246 . S
C137 O134 1.259 . S
C138 O135 1.252 . S
C138 O136 1.273 . S
O139 Mg126 2.010 . S
O139 C131 1.249 . S
Mg140 O141 2.028 1_565 S
Mg140 O147 1.986 . S
Mg140 O149 2.114 1_565 S
Mg140 O150 2.251 . S
Mg140 O153 2.010 . S
O141 Mg140 2.028 1_545 S
O141 C144 1.250 . S
O142 Mg143 2.028 . S
O142 C144 1.248 . S
Mg143 O142 2.028 . S
Mg143 O148 2.032 1_545 S
Mg143 O150 2.079 1_545 S
C144 O141 1.250 . S
C144 O142 1.248 . S
C145 O146 1.264 . S
C145 O153 1.249 . S
O146 C145 1.264 . S
O147 Mg140 1.986 . S
O147 C151 1.246 . S
O148 Mg143 2.032 1_565 S
O148 C151 1.259 . S
O149 Mg140 2.114 1_545 S
O149 C152 1.252 . S
O150 Mg140 2.251 . S
O150 Mg143 2.079 1_565 S
O150 C152 1.273 1_565 S
C151 O147 1.246 . S
C151 O148 1.259 . S
C152 O149 1.252 . S
C152 O150 1.273 1_545 S
O153 Mg140 2.010 . S
O153 C145 1.249 . S
Mg154 O155 2.028 1_554 S
Mg154 O161 1.986 . S
Mg154 O163 2.114 . S
Mg154 O164 2.251 . S
Mg154 O167 2.010 . S
O155 Mg154 2.028 1_556 S
O155 C158 1.250 . S
O156 Mg157 2.028 1_556 S
O156 C158 1.248 . S
Mg157 O156 2.028 1_554 S
Mg157 O162 2.032 . S
Mg157 O164 2.079 . S
C158 O155 1.250 . S
C158 O156 1.248 . S
C159 O160 1.264 1_565 S
C159 O167 1.249 . S
O160 C159 1.264 1_545 S
O161 Mg154 1.986 . S
O161 C165 1.246 . S
O162 Mg157 2.032 . S
O162 C165 1.259 . S
O163 Mg154 2.114 . S
O163 C166 1.252 . S
O164 Mg154 2.251 . S
O164 Mg157 2.079 . S
O164 C166 1.273 . S
C165 O161 1.246 . S
C165 O162 1.259 . S
C166 O163 1.252 . S
C166 O164 1.273 . S
O167 Mg154 2.010 . S
O167 C159 1.249 . S
Mg168 O169 2.028 . S
Mg168 O175 1.986 . S
Mg168 O177 2.114 . S
Mg168 O178 2.251 . S
Mg168 O181 2.010 . S
O169 Mg168 2.028 . S
O169 C172 1.250 1_554 S
O170 Mg171 2.028 1_556 S
O170 C172 1.248 . S
Mg171 O170 2.028 1_554 S
Mg171 O176 2.032 . S
Mg171 O178 2.079 . S
C172 O169 1.250 1_556 S
C172 O170 1.248 . S
C173 O174 1.264 . S
C173 O181 1.249 . S
O174 C173 1.264 . S
O175 Mg168 1.986 . S
O175 C179 1.246 . S
O176 Mg171 2.032 . S
O176 C179 1.259 . S
O177 Mg168 2.114 . S
O177 C180 1.252 . S
O178 Mg168 2.251 . S
O178 Mg171 2.079 . S
O178 C180 1.273 . S
C179 O175 1.246 . S
C179 O176 1.259 . S
C180 O177 1.252 . S
C180 O178 1.273 . S
O181 Mg168 2.010 . S
O181 C173 1.249 . S
Mg182 O183 2.028 . S
Mg182 O189 1.986 1_554 S
Mg182 O191 2.114 . S
Mg182 O192 2.251 . S
Mg182 O195 2.010 . S
O183 Mg182 2.028 . S
O183 C186 1.250 . S
O184 Mg185 2.028 . S
O184 C186 1.248 . S
Mg185 O184 2.028 . S
Mg185 O190 2.032 . S
Mg185 O192 2.079 . S
C186 O183 1.250 . S
C186 O184 1.248 . S
C187 O188 1.264 1_554 S
C187 O195 1.249 . S
O188 C187 1.264 1_556 S
O189 Mg182 1.986 1_556 S
O189 C193 1.246 . S
O190 Mg185 2.032 . S
O190 C193 1.259 1_554 S
O191 Mg182 2.114 . S
O191 C194 1.252 . S
O192 Mg182 2.251 . S
O192 Mg185 2.079 . S
O192 C194 1.273 . S
C193 O189 1.246 . S
C193 O190 1.259 1_556 S
C194 O191 1.252 . S
C194 O192 1.273 . S
O195 Mg182 2.010 . S
O195 C187 1.249 . S
Mg196 O197 2.028 . S
Mg196 O203 1.986 . S
Mg196 O205 2.114 . S
Mg196 O206 2.251 . S
Mg196 O209 2.010 . S
O197 Mg196 2.028 . S
O197 C200 1.250 . S
O198 Mg199 2.028 . S
O198 C200 1.248 . S
Mg199 O198 2.028 . S
Mg199 O204 2.032 . S
Mg199 O206 2.079 . S
C200 O197 1.250 . S
C200 O198 1.248 . S
C201 O202 1.264 . S
C201 O209 1.249 . S
O202 C201 1.264 . S
O203 Mg196 1.986 . S
O203 C207 1.246 . S
O204 Mg199 2.032 . S
O204 C207 1.259 . S
O205 Mg196 2.114 . S
O205 C208 1.252 . S
O206 Mg196 2.251 . S
O206 Mg199 2.079 . S
O206 C208 1.273 . S
C207 O203 1.246 . S
C207 O204 1.259 . S
C208 O205 1.252 . S
C208 O206 1.273 . S
O209 Mg196 2.010 . S
O209 C201 1.249 . S
Mg210 O211 2.028 . S
Mg210 O217 1.986 . S
Mg210 O219 2.114 . S
Mg210 O220 2.251 . S
Mg210 O223 2.010 . S
O211 Mg210 2.028 . S
O211 C214 1.250 . S
O212 Mg213 2.028 . S
O212 C214 1.248 . S
Mg213 O212 2.028 . S
Mg213 O218 2.032 . S
Mg213 O220 2.079 . S
C214 O211 1.250 . S
C214 O212 1.248 . S
C215 O216 1.264 . S
C215 O223 1.249 . S
O216 C215 1.264 . S
O217 Mg210 1.986 . S
O217 C221 1.246 . S
O218 Mg213 2.032 . S
O218 C221 1.259 . S
O219 Mg210 2.114 . S
O219 C222 1.252 . S
O220 Mg210 2.251 . S
O220 Mg213 2.079 . S
O220 C222 1.273 . S
C221 O217 1.246 . S
C221 O218 1.259 . S
C222 O219 1.252 . S
C222 O220 1.273 . S
O223 Mg210 2.010 . S
O223 C215 1.249 . S
Mg224 O225 2.028 . S
Mg224 O231 1.986 . S
Mg224 O233 2.136 . S
Mg224 O234 2.251 . S
Mg224 O237 2.010 . S
O225 Mg224 2.028 . S
O225 C228 1.250 . S
O226 Mg227 2.028 . S
O226 C228 1.248 . S
Mg227 O226 2.028 . S
Mg227 O232 2.032 . S
Mg227 O234 2.079 . S
C228 O225 1.250 . S
C228 O226 1.248 . S
C229 O230 1.280 . S
C229 O237 1.234 1_455 S
O230 C229 1.280 . S
O231 Mg224 1.986 . S
O231 C235 1.246 . S
O232 Mg227 2.032 . S
O232 C235 1.259 . S
O233 Mg224 2.136 . S
O233 C236 1.268 . S
O234 Mg224 2.251 . S
O234 Mg227 2.079 . S
O234 C236 1.273 . S
C235 O231 1.246 . S
C235 O232 1.259 . S
C236 O233 1.268 . S
C236 O234 1.273 . S
O237 Mg224 2.010 . S
O237 C229 1.234 1_655 S
Mg238 O239 2.028 . S
Mg238 O245 1.986 . S
Mg238 O247 2.114 . S
Mg238 O248 2.251 . S
Mg238 O251 2.010 . S
O239 Mg238 2.028 . S
O239 C242 1.250 . S
O240 Mg241 2.028 . S
O240 C242 1.248 . S
Mg241 O240 2.028 . S
Mg241 O246 2.032 . S
Mg241 O248 2.079 . S
C242 O239 1.250 . S
C242 O240 1.248 . S
C243 O244 1.264 . S
C243 O251 1.249 . S
O244 C243 1.264 . S
O245 Mg238 1.986 . S
O245 C249 1.246 . S
O246 Mg241 2.032 . S
O246 C249 1.259 . S
O247 Mg238 2.114 . S
O247 C250 1.252 . S
O248 Mg238 2.251 . S
O248 Mg241 2.079 . S
O248 C250 1.273 . S
C249 O245 1.246 . S
C249 O246 1.259 . S
C250 O247 1.252 . S
C250 O248 1.273 . S
O251 Mg238 2.010 . S
O251 C243 1.249 . S
Mg252 O253 2.028 . S
Mg252 O259 1.986 . S
Mg252 O261 2.114 . S
Mg252 O262 2.251 . S
Mg252 O265 2.010 . S
O253 Mg252 2.028 . S
O253 C256 1.250 . S
O254 Mg255 2.028 . S
O254 C256 1.248 . S
Mg255 O254 2.028 . S
Mg255 O260 2.032 . S
Mg255 O262 2.079 . S
C256 O253 1.250 . S
C256 O254 1.248 . S
C257 O258 1.264 . S
C257 O265 1.249 . S
O258 C257 1.264 . S
O259 Mg252 1.986 . S
O259 C263 1.246 . S
O260 Mg255 2.032 . S
O260 C263 1.259 . S
O261 Mg252 2.114 . S
O261 C264 1.252 . S
O262 Mg252 2.251 . S
O262 Mg255 2.079 . S
O262 C264 1.273 . S
C263 O259 1.246 . S
C263 O260 1.259 . S
C264 O261 1.252 . S
C264 O262 1.273 . S
O265 Mg252 2.010 . S
O265 C257 1.249 . S
Mg266 O267 2.028 . S
Mg266 O273 1.986 . S
Mg266 O275 2.114 . S
Mg266 O276 2.251 . S
Mg266 O279 2.010 . S
O267 Mg266 2.028 . S
O267 C270 1.250 . S
O268 Mg269 2.028 . S
O268 C270 1.248 . S
Mg269 O268 2.028 . S
Mg269 O274 2.032 . S
Mg269 O276 2.079 . S
C270 O267 1.250 . S
C270 O268 1.248 . S
C271 O272 1.264 . S
C271 O279 1.249 . S
O272 C271 1.264 . S
O273 Mg266 1.986 . S
O273 C277 1.246 . S
O274 Mg269 2.032 . S
O274 C277 1.259 . S
O275 Mg266 2.114 . S
O275 C278 1.252 . S
O276 Mg266 2.251 . S
O276 Mg269 2.079 . S
O276 C278 1.273 . S
C277 O273 1.246 . S
C277 O274 1.259 . S
C278 O275 1.252 . S
C278 O276 1.273 . S
O279 Mg266 2.010 . S
O279 C271 1.249 . S
Mg280 O281 2.028 1_556 S
Mg280 O287 1.986 . S
Mg280 O289 2.114 1_556 S
Mg280 O290 2.251 . S
Mg280 O293 2.010 . S
O281 Mg280 2.028 1_554 S
O281 C284 1.250 . S
O282 Mg283 2.028 . S
O282 C284 1.248 . S
Mg283 O282 2.028 . S
Mg283 O288 2.032 1_554 S
Mg283 O290 2.079 1_554 S
C284 O281 1.250 . S
C284 O282 1.248 . S
C285 O286 1.264 . S
C285 O293 1.249 . S
O286 C285 1.264 . S
O287 Mg280 1.986 . S
O287 C291 1.246 . S
O288 Mg283 2.032 1_556 S
O288 C291 1.259 . S
O289 Mg280 2.114 1_554 S
O289 C292 1.252 1_554 S
O290 Mg280 2.251 . S
O290 Mg283 2.079 1_556 S
O290 C292 1.273 . S
C291 O287 1.246 . S
C291 O288 1.259 . S
C292 O289 1.252 1_556 S
C292 O290 1.273 . S
O293 Mg280 2.010 . S
O293 C285 1.249 . S
Mg294 O295 2.028 . S
Mg294 O301 1.986 . S
Mg294 O303 2.114 . S
Mg294 O304 2.251 . S
Mg294 O307 2.010 . S
O295 Mg294 2.028 . S
O295 C298 1.250 . S
O296 Mg297 2.028 . S
O296 C298 1.248 . S
Mg297 O296 2.028 . S
Mg297 O302 2.032 . S
Mg297 O304 2.079 . S
C298 O295 1.250 . S
C298 O296 1.248 . S
C299 O300 1.264 . S
C299 O307 1.249 . S
O300 C299 1.264 . S
O301 Mg294 1.986 . S
O301 C305 1.246 . S
O302 Mg297 2.032 . S
O302 C305 1.259 . S
O303 Mg294 2.114 . S
O303 C306 1.252 . S
O304 Mg294 2.251 . S
O304 Mg297 2.079 . S
O304 C306 1.273 . S
C305 O301 1.246 . S
C305 O302 1.259 . S
C306 O303 1.252 . S
C306 O304 1.273 . S
O307 Mg294 2.010 . S
O307 C299 1.249 . S
Mg308 O309 2.028 . S
Mg308 O315 1.986 . S
Mg308 O317 2.114 . S
Mg308 O318 2.251 . S
Mg308 O321 2.010 . S
O309 Mg308 2.028 . S
O309 C312 1.250 . S
O310 Mg311 2.028 . S
O310 C312 1.248 . S
Mg311 O310 2.028 . S
Mg311 O316 2.032 . S
Mg311 O318 2.079 . S
C312 O309 1.250 . S
C312 O310 1.248 . S
C313 O314 1.264 . S
C313 O321 1.249 . S
O314 C313 1.264 . S
O315 Mg308 1.986 . S
O315 C319 1.246 . S
O316 Mg311 2.032 . S
O316 C319 1.259 . S
O317 Mg308 2.114 . S
O317 C320 1.252 . S
O318 Mg308 2.251 . S
O318 Mg311 2.079 . S
O318 C320 1.273 . S
C319 O315 1.246 . S
C319 O316 1.259 . S
C320 O317 1.252 . S
C320 O318 1.273 . S
O321 Mg308 2.010 . S
O321 C313 1.249 . S
Mg322 O323 2.028 . S
Mg322 O329 1.986 . S
Mg322 O331 2.114 . S
Mg322 O332 2.251 . S
Mg322 O335 2.010 . S
O323 Mg322 2.028 . S
O323 C326 1.250 . S
O324 Mg325 2.028 . S
O324 C326 1.248 . S
Mg325 O324 2.028 . S
Mg325 O330 2.032 . S
Mg325 O332 2.079 . S
C326 O323 1.250 . S
C326 O324 1.248 . S
C327 O328 1.264 . S
C327 O335 1.249 . S
O328 C327 1.264 . S
O329 Mg322 1.986 . S
O329 C333 1.246 . S
O330 Mg325 2.032 . S
O330 C333 1.259 . S
O331 Mg322 2.114 . S
O331 C334 1.252 . S
O332 Mg322 2.251 . S
O332 Mg325 2.079 . S
O332 C334 1.273 . S
C333 O329 1.246 . S
C333 O330 1.259 . S
C334 O331 1.252 . S
C334 O332 1.273 . S
O335 Mg322 2.010 . S
O335 C327 1.249 . S
Tb336 N367 2.660 1_546 S
Tb336 N374 2.600 1_545 S
Tb336 O380 2.546 1_455 S
Tb336 O381 2.610 1_556 S
Tb336 O383 2.320 1_556 S
Tb336 O384 2.552 . S
Tb336 O385 2.413 1_456 S
Tb336 O387 2.362 1_546 S
Tb336 O388 2.421 . S
Tb336 C400 2.833 1_455 S
C337 C340 1.432 . S
C337 C341 1.414 . S
C337 N344 1.359 . S
C338 C340 1.417 . S
C338 C342 1.432 . S
C338 C350 1.410 1_554 S
C339 C341 1.444 . S
C339 C342 1.317 . S
C339 H362 0.929 . S
C340 C337 1.432 . S
C340 C338 1.417 . S
C340 N348 1.360 . S
C341 C337 1.414 . S
C341 C339 1.444 . S
C341 C346 1.385 . S
C342 C338 1.432 . S
C342 C339 1.317 . S
C342 H354 0.930 . S
C343 C345 1.392 . S
C343 C346 1.370 . S
C343 H355 0.931 . S
N344 C337 1.359 . S
N344 C345 1.327 . S
N344 Tb347 2.600 . S
C345 C343 1.392 . S
C345 N344 1.327 . S
C345 H352 0.930 . S
C346 C341 1.385 . S
C346 C343 1.370 . S
C346 H365 0.930 . S
Tb347 N344 2.600 . S
Tb347 N348 2.660 . S
Tb347 O381 2.362 . S
Tb347 O382 2.421 . S
Tb347 O386 2.546 . S
Tb347 O387 2.610 1_545 S
Tb347 O389 2.320 1_554 S
Tb347 O390 2.552 1_545 S
Tb347 O391 2.413 . S
Tb347 C411 2.833 . S
N348 C340 1.360 . S
N348 Tb347 2.660 . S
N348 C349 1.305 1_554 S
C349 N348 1.305 1_556 S
C349 C351 1.407 . S
C349 H356 0.930 . S
C350 C338 1.410 1_556 S
C350 C351 1.345 . S
C350 H358 0.930 . S
C351 C349 1.407 . S
C351 C350 1.345 . S
C351 H353 0.930 . S
H352 C345 0.930 . S
H353 C351 0.930 . S
H354 C342 0.930 . S
H355 C343 0.931 . S
H356 C349 0.930 . S
H357 C371 0.929 . S
H358 C350 0.930 . S
H359 C377 0.930 . S
H360 C368 0.930 . S
H361 C375 0.931 . S
H362 C339 0.929 . S
H363 C369 0.930 . S
H364 C402 0.930 . S
H365 C346 0.930 . S
H366 C401 0.929 . S
N367 Tb336 2.660 1_564 S
N367 C368 1.305 . S
N367 C372 1.360 1_454 S
C368 H360 0.930 . S
C368 N367 1.305 . S
C368 C371 1.407 1_455 S
C369 H363 0.930 . S
C369 C370 1.410 . S
C369 C371 1.345 . S
C370 C369 1.410 . S
C370 C372 1.417 1_554 S
C370 C402 1.432 1_554 S
C371 H357 0.929 . S
C371 C368 1.407 1_655 S
C371 C369 1.345 . S
C372 N367 1.360 1_656 S
C372 C370 1.417 1_556 S
C372 C376 1.432 . S
H373 C378 0.930 . S
N374 Tb336 2.600 1_565 S
N374 C376 1.359 1_455 S
N374 C377 1.327 . S
C375 H361 0.931 . S
C375 C377 1.392 1_655 S
C375 C378 1.370 . S
C376 C372 1.432 . S
C376 N374 1.359 1_655 S
C376 C379 1.414 . S
C377 H359 0.930 . S
C377 N374 1.327 . S
C377 C375 1.392 1_455 S
C378 H373 0.930 . S
C378 C375 1.370 . S
C378 C379 1.385 . S
C379 C376 1.414 . S
C379 C378 1.385 . S
C379 C401 1.444 . S
O380 Tb336 2.546 1_655 S
O380 C400 1.251 . S
O381 Tb336 2.610 1_554 S
O381 Tb347 2.362 . S
O381 C392 1.283 . S
O382 Tb347 2.421 . S
O382 C399 1.262 . S
O383 Tb336 2.320 1_554 S
O383 C399 1.260 . S
O384 Tb336 2.552 . S
O384 C392 1.243 1_556 S
O385 Tb336 2.413 1_654 S
O385 C400 1.256 1_554 S
O386 Tb347 2.546 . S
O386 C411 1.251 . S
O387 Tb336 2.362 1_564 S
O387 Tb347 2.610 1_565 S
O387 C403 1.283 . S
O388 Tb336 2.421 . S
O388 C410 1.262 . S
O389 Tb347 2.320 1_556 S
O389 C410 1.260 . S
O390 Tb347 2.552 1_565 S
O390 C403 1.243 . S
O391 Tb347 2.413 . S
O391 C411 1.256 . S
C392 O381 1.283 . S
C392 O384 1.243 1_554 S
C393 C395 1.382 . S
C393 C397 1.393 1_545 S
C393 C400 1.500 . S
C394 C395 1.400 . S
C394 C396 1.384 . S
C395 C393 1.382 . S
C395 C394 1.400 . S
C395 H412 0.930 1_556 S
C396 C394 1.384 . S
C396 C398 1.392 1_545 S
C396 H413 0.931 . S
C397 C393 1.393 1_565 S
C397 C398 1.401 . S
C397 H414 0.930 . S
C398 C396 1.392 1_565 S
C398 C397 1.401 . S
C398 H415 0.930 . S
C399 O382 1.262 . S
C399 O383 1.260 . S
C400 Tb336 2.833 1_655 S
C400 O380 1.251 . S
C400 O385 1.256 1_556 S
C400 C393 1.500 . S
C401 H366 0.929 . S
C401 C379 1.444 . S
C401 C402 1.317 . S
C402 H364 0.930 . S
C402 C370 1.432 1_556 S
C402 C401 1.317 . S
C403 O387 1.283 . S
C403 O390 1.243 . S
C404 C405 1.382 . S
C404 C408 1.393 . S
C404 C411 1.500 . S
C405 C404 1.382 . S
C405 C406 1.400 . S
C405 H416 0.930 . S
C406 C405 1.400 . S
C406 C407 1.384 . S
C407 C406 1.384 . S
C407 C409 1.392 . S
C407 H417 0.931 . S
C408 C404 1.393 . S
C408 C409 1.401 . S
C408 H418 0.930 . S
C409 C407 1.392 . S
C409 C408 1.401 . S
C409 H419 0.930 . S
C410 O388 1.262 . S
C410 O389 1.260 . S
C411 Tb347 2.833 . S
C411 O386 1.251 . S
C411 O391 1.256 . S
C411 C404 1.500 . S
H412 C395 0.930 1_554 S
H413 C396 0.931 . S
H414 C397 0.930 . S
H415 C398 0.930 . S
H416 C405 0.930 . S
H417 C407 0.931 . S
H418 C408 0.930 . S
H419 C409 0.930 . S
Tb420 N451 2.660 . S
Tb420 N458 2.600 . S
Tb420 O464 2.546 . S
Tb420 O465 2.610 . S
Tb420 O467 2.320 . S
Tb420 O468 2.552 . S
Tb420 O469 2.413 . S
Tb420 O471 2.362 . S
Tb420 O472 2.421 . S
Tb420 C484 2.833 . S
C421 C424 1.432 . S
C421 C425 1.414 . S
C421 N428 1.359 . S
C422 C424 1.417 . S
C422 C426 1.432 . S
C422 C434 1.410 . S
C423 C425 1.444 . S
C423 C426 1.317 . S
C423 H446 0.929 . S
C424 C421 1.432 . S
C424 C422 1.417 . S
C424 N432 1.360 . S
C425 C421 1.414 . S
C425 C423 1.444 . S
C425 C430 1.385 . S
C426 C422 1.432 . S
C426 C423 1.317 . S
C426 H438 0.930 . S
C427 C429 1.392 . S
C427 C430 1.370 . S
C427 H439 0.931 . S
N428 C421 1.359 . S
N428 C429 1.327 . S
N428 Tb431 2.600 . S
C429 C427 1.392 . S
C429 N428 1.327 . S
C429 H436 0.930 . S
C430 C425 1.385 . S
C430 C427 1.370 . S
C430 H449 0.930 . S
Tb431 N428 2.600 . S
Tb431 N432 2.660 . S
Tb431 O465 2.362 . S
Tb431 O466 2.421 . S
Tb431 O470 2.546 . S
Tb431 O471 2.610 . S
Tb431 O473 2.320 . S
Tb431 O474 2.552 . S
Tb431 O475 2.413 . S
Tb431 C495 2.833 . S
N432 C424 1.360 . S
N432 Tb431 2.660 . S
N432 C433 1.305 . S
C433 N432 1.305 . S
C433 C435 1.407 . S
C433 H440 0.930 . S
C434 C422 1.410 . S
C434 C435 1.345 . S
C434 H442 0.930 . S
C435 C433 1.407 . S
C435 C434 1.345 . S
C435 H437 0.930 . S
H436 C429 0.930 . S
H437 C435 0.930 . S
H438 C426 0.930 . S
H439 C427 0.931 . S
H440 C433 0.930 . S
H441 C455 0.930 . S
H442 C434 0.930 . S
H443 C461 0.930 . S
H444 C452 0.930 . S
H445 C459 0.931 . S
H446 C423 0.929 . S
H447 C453 0.930 . S
H448 C486 0.930 . S
H449 C430 0.930 . S
H450 C485 0.929 . S
N451 Tb420 2.660 . S
N451 C452 1.305 . S
N451 C456 1.360 . S
C452 H444 0.930 . S
C452 N451 1.305 . S
C452 C455 1.407 . S
C453 H447 0.930 . S
C453 C454 1.410 . S
C453 C455 1.345 . S
C454 C453 1.410 . S
C454 C456 1.417 . S
C454 C486 1.432 . S
C455 H441 0.930 . S
C455 C452 1.407 . S
C455 C453 1.345 . S
C456 N451 1.360 . S
C456 C454 1.417 . S
C456 C460 1.432 . S
H457 C462 0.930 . S
N458 Tb420 2.600 . S
N458 C460 1.359 . S
N458 C461 1.327 . S
C459 H445 0.931 . S
C459 C461 1.392 . S
C459 C462 1.370 . S
C460 C456 1.432 . S
C460 N458 1.359 . S
C460 C463 1.414 . S
C461 H443 0.930 . S
C461 N458 1.327 . S
C461 C459 1.392 . S
C462 H457 0.930 . S
C462 C459 1.370 . S
C462 C463 1.385 . S
C463 C460 1.414 . S
C463 C462 1.385 . S
C463 C485 1.444 . S
O464 Tb420 2.546 . S
O464 C484 1.251 . S
O465 Tb420 2.610 . S
O465 Tb431 2.362 . S
O465 C476 1.283 . S
O466 Tb431 2.421 . S
O466 C483 1.262 . S
O467 Tb420 2.320 . S
O467 C483 1.260 . S
O468 Tb420 2.552 . S
O468 C476 1.243 . S
O469 Tb420 2.413 . S
O469 C484 1.256 . S
O470 Tb431 2.546 . S
O470 C495 1.251 . S
O471 Tb420 2.362 . S
O471 Tb431 2.610 . S
O471 C487 1.283 . S
O472 Tb420 2.421 . S
O472 C494 1.262 . S
O473 Tb431 2.320 . S
O473 C494 1.260 . S
O474 Tb431 2.552 . S
O474 C487 1.243 . S
O475 Tb431 2.413 . S
O475 C495 1.256 . S
C476 O465 1.283 . S
C476 O468 1.243 . S
C477 C479 1.382 . S
C477 C481 1.393 . S
C477 C484 1.500 . S
C478 C479 1.400 . S
C478 C480 1.384 . S
C479 C477 1.382 . S
C479 C478 1.400 . S
C479 H496 0.930 . S
C480 C478 1.384 . S
C480 C482 1.392 . S
C480 H497 0.931 . S
C481 C477 1.393 . S
C481 C482 1.401 . S
C481 H498 0.930 . S
C482 C480 1.392 . S
C482 C481 1.401 . S
C482 H499 0.930 . S
C483 O466 1.262 . S
C483 O467 1.260 . S
C484 Tb420 2.833 . S
C484 O464 1.251 . S
C484 O469 1.256 . S
C484 C477 1.500 . S
C485 H450 0.929 . S
C485 C463 1.444 . S
C485 C486 1.317 . S
C486 H448 0.930 . S
C486 C454 1.432 . S
C486 C485 1.317 . S
C487 O471 1.283 . S
C487 O474 1.243 . S
C488 C489 1.382 . S
C488 C492 1.393 . S
C488 C495 1.500 . S
C489 C488 1.382 . S
C489 C490 1.400 . S
C489 H500 0.930 . S
C490 C489 1.400 . S
C490 C491 1.384 . S
C491 C490 1.384 . S
C491 C493 1.392 . S
C491 H501 0.931 . S
C492 C488 1.393 . S
C492 C493 1.401 . S
C492 H502 0.930 . S
C493 C491 1.392 . S
C493 C492 1.401 . S
C493 H503 0.930 . S
C494 O472 1.262 . S
C494 O473 1.260 . S
C495 Tb431 2.833 . S
C495 O470 1.251 . S
C495 O475 1.256 . S
C495 C488 1.500 . S
H496 C479 0.930 . S
H497 C480 0.931 . S
H498 C481 0.930 . S
H499 C482 0.930 . S
H500 C489 0.930 . S
H501 C491 0.931 . S
H502 C492 0.930 . S
H503 C493 0.930 . S
Tb504 N535 2.660 . S
Tb504 N542 2.600 . S
Tb504 O548 2.546 . S
Tb504 O549 2.610 . S
Tb504 O551 2.320 . S
Tb504 O552 2.552 1_545 S
Tb504 O553 2.413 . S
Tb504 O555 2.362 . S
Tb504 O556 2.421 . S
Tb504 C568 2.833 . S
C505 C508 1.432 . S
C505 C509 1.414 . S
C505 N512 1.359 1_565 S
C506 C508 1.417 . S
C506 C510 1.432 . S
C506 C518 1.410 . S
C507 C509 1.444 . S
C507 C510 1.317 . S
C507 H530 0.929 . S
C508 C505 1.432 . S
C508 C506 1.417 . S
C508 N516 1.360 . S
C509 C505 1.414 . S
C509 C507 1.444 . S
C509 C514 1.385 . S
C510 C506 1.432 . S
C510 C507 1.317 . S
C510 H522 0.930 . S
C511 C513 1.399 . S
C511 C514 1.362 1_545 S
C511 H523 0.933 . S
N512 C505 1.359 1_545 S
N512 C513 1.327 . S
N512 Tb515 2.600 . S
C513 C511 1.399 . S
C513 N512 1.327 . S
C513 H520 0.930 . S
C514 C509 1.385 . S
C514 C511 1.362 1_565 S
C514 H533 0.930 . S
Tb515 N512 2.600 . S
Tb515 N516 2.660 1_545 S
Tb515 O549 2.362 . S
Tb515 O550 2.421 . S
Tb515 O554 2.546 . S
Tb515 O555 2.610 . S
Tb515 O557 2.320 . S
Tb515 O558 2.552 . S
Tb515 O559 2.413 . S
Tb515 C579 2.833 . S
N516 C508 1.360 . S
N516 Tb515 2.660 1_565 S
N516 C517 1.305 . S
C517 N516 1.305 . S
C517 C519 1.407 . S
C517 H524 0.930 . S
C518 C506 1.410 . S
C518 C519 1.345 . S
C518 H526 0.930 . S
C519 C517 1.407 . S
C519 C518 1.345 . S
C519 H521 0.930 . S
H520 C513 0.930 . S
H521 C519 0.930 . S
H522 C510 0.930 . S
H523 C511 0.933 . S
H524 C517 0.930 . S
H525 C539 0.930 . S
H526 C518 0.930 . S
H527 C545 0.930 . S
H528 C536 0.930 . S
H529 C543 0.931 . S
H530 C507 0.929 . S
H531 C537 0.930 . S
H532 C570 0.930 . S
H533 C514 0.930 . S
H534 C569 0.929 . S
N535 Tb504 2.660 . S
N535 C536 1.305 . S
N535 C540 1.360 . S
C536 H528 0.930 . S
C536 N535 1.305 . S
C536 C539 1.407 . S
C537 H531 0.930 . S
C537 C538 1.410 . S
C537 C539 1.345 . S
C538 C537 1.410 . S
C538 C540 1.417 . S
C538 C570 1.432 . S
C539 H525 0.930 . S
C539 C536 1.407 . S
C539 C537 1.345 . S
C540 N535 1.360 . S
C540 C538 1.417 . S
C540 C544 1.432 . S
H541 C546 0.930 . S
N542 Tb504 2.600 . S
N542 C544 1.359 . S
N542 C545 1.327 . S
C543 H529 0.931 . S
C543 C545 1.392 . S
C543 C546 1.370 . S
C544 C540 1.432 . S
C544 N542 1.359 . S
C544 C547 1.414 . S
C545 H527 0.930 . S
C545 N542 1.327 . S
C545 C543 1.392 . S
C546 H541 0.930 . S
C546 C543 1.370 . S
C546 C547 1.385 . S
C547 C544 1.414 . S
C547 C546 1.385 . S
C547 C569 1.444 . S
O548 Tb504 2.546 . S
O548 C568 1.251 . S
O549 Tb504 2.610 . S
O549 Tb515 2.362 . S
O549 C560 1.282 1_545 S
O550 Tb515 2.421 . S
O550 C567 1.262 . S
O551 Tb504 2.320 . S
O551 C567 1.260 . S
O552 Tb504 2.552 1_565 S
O552 C560 1.243 . S
O553 Tb504 2.413 . S
O553 C568 1.256 . S
O554 Tb515 2.546 . S
O554 C579 1.251 . S
O555 Tb504 2.362 . S
O555 Tb515 2.610 . S
O555 C571 1.283 . S
O556 Tb504 2.421 . S
O556 C578 1.262 . S
O557 Tb515 2.320 . S
O557 C578 1.260 . S
O558 Tb515 2.552 . S
O558 C571 1.243 . S
O559 Tb515 2.413 . S
O559 C579 1.256 . S
C560 O549 1.282 1_565 S
C560 O552 1.243 . S
C561 C563 1.382 . S
C561 C565 1.393 . S
C561 C568 1.500 1_565 S
C562 C563 1.400 . S
C562 C564 1.384 . S
C563 C561 1.382 . S
C563 C562 1.400 . S
C563 H580 0.930 . S
C564 C562 1.384 . S
C564 C566 1.392 . S
C564 H581 0.931 . S
C565 C561 1.393 . S
C565 C566 1.401 . S
C565 H582 0.930 . S
C566 C564 1.392 . S
C566 C565 1.401 . S
C566 H583 0.930 . S
C567 O550 1.262 . S
C567 O551 1.260 . S
C568 Tb504 2.833 . S
C568 O548 1.251 . S
C568 O553 1.256 . S
C568 C561 1.500 1_545 S
C569 H534 0.929 . S
C569 C547 1.444 . S
C569 C570 1.317 . S
C570 H532 0.930 . S
C570 C538 1.432 . S
C570 C569 1.317 . S
C571 O555 1.283 . S
C571 O558 1.243 . S
C572 C573 1.382 . S
C572 C576 1.393 . S
C572 C579 1.500 . S
C573 C572 1.382 . S
C573 C574 1.400 . S
C573 H584 0.930 . S
C574 C573 1.400 . S
C574 C575 1.384 . S
C575 C574 1.384 . S
C575 C577 1.392 . S
C575 H585 0.931 . S
C576 C572 1.393 . S
C576 C577 1.401 . S
C576 H586 0.930 . S
C577 C575 1.392 . S
C577 C576 1.401 . S
C577 H587 0.930 . S
C578 O556 1.262 . S
C578 O557 1.260 . S
C579 Tb515 2.833 . S
C579 O554 1.251 . S
C579 O559 1.256 . S
C579 C572 1.500 . S
H580 C563 0.930 . S
H581 C564 0.931 . S
H582 C565 0.930 . S
H583 C566 0.930 . S
H584 C573 0.930 . S
H585 C575 0.931 . S
H586 C576 0.930 . S
H587 C577 0.930 . S
Tb588 N619 2.660 . S
Tb588 N626 2.600 . S
Tb588 O632 2.546 . S
Tb588 O633 2.610 . S
Tb588 O635 2.320 . S
Tb588 O636 2.552 . S
Tb588 O637 2.413 . S
Tb588 O639 2.362 . S
Tb588 O640 2.421 . S
Tb588 C652 2.833 . S
C589 C592 1.432 . S
C589 C593 1.414 . S
C589 N596 1.359 . S
C590 C592 1.417 . S
C590 C594 1.432 . S
C590 C602 1.410 . S
C591 C593 1.444 . S
C591 C594 1.317 . S
C591 H614 0.929 . S
C592 C589 1.432 . S
C592 C590 1.417 . S
C592 N600 1.360 . S
C593 C589 1.414 . S
C593 C591 1.444 . S
C593 C598 1.385 . S
C594 C590 1.432 . S
C594 C591 1.317 . S
C594 H606 0.930 . S
C595 C597 1.392 . S
C595 C598 1.370 . S
C595 H607 0.931 . S
N596 C589 1.359 . S
N596 C597 1.327 . S
N596 Tb599 2.600 . S
C597 C595 1.392 . S
C597 N596 1.327 . S
C597 H604 0.930 . S
C598 C593 1.385 . S
C598 C595 1.370 . S
C598 H617 0.930 . S
Tb599 N596 2.600 . S
Tb599 N600 2.660 . S
Tb599 O633 2.362 . S
Tb599 O634 2.421 . S
Tb599 O638 2.546 . S
Tb599 O639 2.610 . S
Tb599 O641 2.320 . S
Tb599 O642 2.552 . S
Tb599 O643 2.413 . S
Tb599 C663 2.833 . S
N600 C592 1.360 . S
N600 Tb599 2.660 . S
N600 C601 1.305 . S
C601 N600 1.305 . S
C601 C603 1.407 . S
C601 H608 0.930 . S
C602 C590 1.410 . S
C602 C603 1.345 . S
C602 H610 0.930 . S
C603 C601 1.407 . S
C603 C602 1.345 . S
C603 H605 0.930 . S
H604 C597 0.930 . S
H605 C603 0.930 . S
H606 C594 0.930 . S
H607 C595 0.931 . S
H608 C601 0.930 . S
H609 C623 0.930 . S
H610 C602 0.930 . S
H611 C629 0.930 . S
H612 C620 0.930 . S
H613 C627 0.931 . S
H614 C591 0.929 . S
H615 C621 0.930 . S
H616 C654 0.930 . S
H617 C598 0.930 . S
H618 C653 0.929 . S
N619 Tb588 2.660 . S
N619 C620 1.305 . S
N619 C624 1.360 . S
C620 H612 0.930 . S
C620 N619 1.305 . S
C620 C623 1.407 . S
C621 H615 0.930 . S
C621 C622 1.410 . S
C621 C623 1.345 . S
C622 C621 1.410 . S
C622 C624 1.417 . S
C622 C654 1.432 . S
C623 H609 0.930 . S
C623 C620 1.407 . S
C623 C621 1.345 . S
C624 N619 1.360 . S
C624 C622 1.417 . S
C624 C628 1.432 . S
H625 C630 0.930 . S
N626 Tb588 2.600 . S
N626 C628 1.359 . S
N626 C629 1.327 . S
C627 H613 0.931 . S
C627 C629 1.392 . S
C627 C630 1.370 . S
C628 C624 1.432 . S
C628 N626 1.359 . S
C628 C631 1.414 . S
C629 H611 0.930 . S
C629 N626 1.327 . S
C629 C627 1.392 . S
C630 H625 0.930 . S
C630 C627 1.370 . S
C630 C631 1.385 . S
C631 C628 1.414 . S
C631 C630 1.385 . S
C631 C653 1.444 . S
O632 Tb588 2.546 . S
O632 C652 1.251 . S
O633 Tb588 2.610 . S
O633 Tb599 2.362 . S
O633 C644 1.283 . S
O634 Tb599 2.421 . S
O634 C651 1.262 . S
O635 Tb588 2.320 . S
O635 C651 1.260 . S
O636 Tb588 2.552 . S
O636 C644 1.243 . S
O637 Tb588 2.413 . S
O637 C652 1.256 . S
O638 Tb599 2.546 . S
O638 C663 1.251 . S
O639 Tb588 2.362 . S
O639 Tb599 2.610 . S
O639 C655 1.283 . S
O640 Tb588 2.421 . S
O640 C662 1.262 . S
O641 Tb599 2.320 . S
O641 C662 1.260 . S
O642 Tb599 2.552 . S
O642 C655 1.243 . S
O643 Tb599 2.413 . S
O643 C663 1.256 . S
C644 O633 1.283 . S
C644 O636 1.243 . S
C645 C647 1.382 . S
C645 C649 1.393 . S
C645 C652 1.500 . S
C646 C647 1.400 . S
C646 C648 1.384 . S
C647 C645 1.382 . S
C647 C646 1.400 . S
C647 H664 0.930 . S
C648 C646 1.384 . S
C648 C650 1.392 . S
C648 H665 0.931 . S
C649 C645 1.393 . S
C649 C650 1.401 . S
C649 H666 0.930 . S
C650 C648 1.392 . S
C650 C649 1.401 . S
C650 H667 0.930 . S
C651 O634 1.262 . S
C651 O635 1.260 . S
C652 Tb588 2.833 . S
C652 O632 1.251 . S
C652 O637 1.256 . S
C652 C645 1.500 . S
C653 H618 0.929 . S
C653 C631 1.444 . S
C653 C654 1.317 . S
C654 H616 0.930 . S
C654 C622 1.432 . S
C654 C653 1.317 . S
C655 O639 1.283 . S
C655 O642 1.243 . S
C656 C657 1.382 . S
C656 C660 1.393 . S
C656 C663 1.500 . S
C657 C656 1.382 . S
C657 C658 1.400 . S
C657 H668 0.930 . S
C658 C657 1.400 . S
C658 C659 1.384 . S
C659 C658 1.384 . S
C659 C661 1.392 . S
C659 H669 0.931 . S
C660 C656 1.393 . S
C660 C661 1.401 . S
C660 H670 0.930 . S
C661 C659 1.392 . S
C661 C660 1.401 . S
C661 H671 0.930 . S
C662 O640 1.262 . S
C662 O641 1.260 . S
C663 Tb599 2.833 . S
C663 O638 1.251 . S
C663 O643 1.256 . S
C663 C656 1.500 . S
H664 C647 0.930 . S
H665 C648 0.931 . S
H666 C649 0.930 . S
H667 C650 0.930 . S
H668 C657 0.930 . S
H669 C659 0.931 . S
H670 C660 0.930 . S
H671 C661 0.930 . S
Tb672 N703 2.660 . S
Tb672 N710 2.600 . S
Tb672 O716 2.546 . S
Tb672 O717 2.610 . S
Tb672 O719 2.320 . S
Tb672 O720 2.552 . S
Tb672 O721 2.413 . S
Tb672 O723 2.362 . S
Tb672 O724 2.421 . S
Tb672 C736 2.833 . S
C673 C676 1.432 . S
C673 C677 1.414 . S
C673 N680 1.359 . S
C674 C676 1.417 . S
C674 C678 1.432 . S
C674 C686 1.410 1_455 S
C675 C677 1.444 . S
C675 C678 1.317 . S
C675 H698 0.929 . S
C676 C673 1.432 . S
C676 C674 1.417 . S
C676 N684 1.360 . S
C677 C673 1.414 . S
C677 C675 1.444 . S
C677 C682 1.385 . S
C678 C674 1.432 . S
C678 C675 1.317 . S
C678 H690 0.930 . S
C679 C681 1.392 . S
C679 C682 1.370 . S
C679 H691 0.931 . S
N680 C673 1.359 . S
N680 C681 1.327 . S
N680 Tb683 2.600 . S
C681 C679 1.392 . S
C681 N680 1.327 . S
C681 H688 0.930 . S
C682 C677 1.385 . S
C682 C679 1.370 . S
C682 H701 0.930 . S
Tb683 N680 2.600 . S
Tb683 N684 2.660 . S
Tb683 O717 2.362 1_565 S
Tb683 O718 2.421 1_565 S
Tb683 O722 2.546 . S
Tb683 O723 2.610 1_565 S
Tb683 O725 2.320 . S
Tb683 O726 2.552 . S
Tb683 O727 2.413 . S
Tb683 C747 2.833 . S
N684 C676 1.360 . S
N684 Tb683 2.660 . S
N684 C685 1.305 . S
C685 N684 1.305 . S
C685 C687 1.407 1_455 S
C685 H692 0.930 1_455 S
C686 C674 1.410 1_655 S
C686 C687 1.345 . S
C686 H694 0.930 . S
C687 C685 1.407 1_655 S
C687 C686 1.345 . S
C687 H689 0.930 . S
H688 C681 0.930 . S
H689 C687 0.930 . S
H690 C678 0.930 . S
H691 C679 0.931 . S
H692 C685 0.930 1_655 S
H693 C707 0.930 . S
H694 C686 0.930 . S
H695 C713 0.935 . S
H696 C704 0.930 . S
H697 C711 0.931 1_655 S
H698 C675 0.929 . S
H699 C705 0.930 . S
H700 C738 0.930 . S
H701 C682 0.930 . S
H702 C737 0.929 . S
N703 Tb672 2.660 . S
N703 C704 1.305 . S
N703 C708 1.360 . S
C704 H696 0.930 . S
C704 N703 1.305 . S
C704 C707 1.407 . S
C705 H699 0.930 . S
C705 C706 1.410 . S
C705 C707 1.345 . S
C706 C705 1.410 . S
C706 C708 1.417 . S
C706 C738 1.432 . S
C707 H693 0.930 . S
C707 C704 1.407 . S
C707 C705 1.345 . S
C708 N703 1.360 . S
C708 C706 1.417 . S
C708 C712 1.432 . S
H709 C714 0.930 . S
N710 Tb672 2.600 . S
N710 C712 1.359 . S
N710 C713 1.327 . S
C711 H697 0.931 1_455 S
C711 C713 1.392 . S
C711 C714 1.370 . S
C712 C708 1.432 . S
C712 N710 1.359 . S
C712 C715 1.414 . S
C713 H695 0.935 . S
C713 N710 1.327 . S
C713 C711 1.392 . S
C714 H709 0.930 . S
C714 C711 1.370 . S
C714 C715 1.385 . S
C715 C712 1.414 . S
C715 C714 1.385 . S
C715 C737 1.444 . S
O716 Tb672 2.546 . S
O716 C736 1.251 . S
O717 Tb672 2.610 . S
O717 Tb683 2.362 1_545 S
O717 C728 1.283 . S
O718 Tb683 2.421 1_545 S
O718 C735 1.262 . S
O719 Tb672 2.320 . S
O719 C735 1.260 . S
O720 Tb672 2.552 . S
O720 C728 1.243 . S
O721 Tb672 2.413 . S
O721 C736 1.256 . S
O722 Tb683 2.546 . S
O722 C747 1.251 . S
O723 Tb672 2.362 . S
O723 Tb683 2.610 1_545 S
O723 C739 1.283 . S
O724 Tb672 2.421 . S
O724 C746 1.262 . S
O725 Tb683 2.320 . S
O725 C746 1.260 1_565 S
O726 Tb683 2.552 . S
O726 C739 1.243 1_565 S
O727 Tb683 2.413 . S
O727 C747 1.256 . S
C728 O717 1.283 . S
C728 O720 1.243 . S
C729 C731 1.382 . S
C729 C733 1.393 . S
C729 C736 1.500 . S
C730 C731 1.400 . S
C730 C732 1.384 . S
C731 C729 1.382 . S
C731 C730 1.400 . S
C731 H748 0.930 . S
C732 C730 1.384 . S
C732 C734 1.392 . S
C732 H749 0.931 . S
C733 C729 1.393 . S
C733 C734 1.401 . S
C733 H750 0.930 . S
C734 C732 1.392 . S
C734 C733 1.401 . S
C734 H751 0.930 . S
C735 O718 1.262 . S
C735 O719 1.260 . S
C736 Tb672 2.833 . S
C736 O716 1.251 . S
C736 O721 1.256 . S
C736 C729 1.500 . S
C737 H702 0.929 . S
C737 C715 1.444 . S
C737 C738 1.317 . S
C738 H700 0.930 . S
C738 C706 1.432 . S
C738 C737 1.317 . S
C739 O723 1.283 . S
C739 O726 1.243 1_545 S
C740 C741 1.382 . S
C740 C744 1.393 . S
C740 C747 1.500 . S
C741 C740 1.382 . S
C741 C742 1.400 . S
C741 H752 0.930 . S
C742 C741 1.400 . S
C742 C743 1.384 . S
C743 C742 1.384 . S
C743 C745 1.392 . S
C743 H753 0.931 . S
C744 C740 1.393 . S
C744 C745 1.401 . S
C744 H754 0.930 . S
C745 C743 1.392 . S
C745 C744 1.401 . S
C745 H755 0.930 . S
C746 O724 1.262 . S
C746 O725 1.260 1_545 S
C747 Tb683 2.833 . S
C747 O722 1.251 . S
C747 O727 1.256 . S
C747 C740 1.500 . S
H748 C731 0.930 . S
H749 C732 0.931 . S
H750 C733 0.930 . S
H751 C734 0.930 . S
H752 C741 0.930 . S
H753 C743 0.931 . S
H754 C744 0.930 . S
H755 C745 0.930 . S
Tb756 N787 2.660 . S
Tb756 N794 2.600 . S
Tb756 O800 2.546 . S
Tb756 O801 2.610 . S
Tb756 O803 2.320 . S
Tb756 O804 2.552 . S
Tb756 O805 2.413 . S
Tb756 O807 2.362 . S
Tb756 O808 2.421 . S
Tb756 C820 2.833 . S
C757 C760 1.432 . S
C757 C761 1.414 . S
C757 N764 1.359 . S
C758 C760 1.417 . S
C758 C762 1.432 . S
C758 C770 1.410 . S
C759 C761 1.444 . S
C759 C762 1.317 . S
C759 H782 0.929 . S
C760 C757 1.432 . S
C760 C758 1.417 . S
C760 N768 1.360 . S
C761 C757 1.414 . S
C761 C759 1.444 . S
C761 C766 1.385 . S
C762 C758 1.432 . S
C762 C759 1.317 . S
C762 H774 0.930 . S
C763 C765 1.392 . S
C763 C766 1.370 . S
C763 H775 0.931 . S
N764 C757 1.359 . S
N764 C765 1.327 . S
N764 Tb767 2.600 . S
C765 C763 1.392 . S
C765 N764 1.327 . S
C765 H772 0.930 . S
C766 C761 1.385 . S
C766 C763 1.370 . S
C766 H785 0.930 . S
Tb767 N764 2.600 . S
Tb767 N768 2.660 . S
Tb767 O801 2.362 . S
Tb767 O802 2.421 . S
Tb767 O806 2.546 . S
Tb767 O807 2.610 . S
Tb767 O809 2.320 . S
Tb767 O810 2.552 . S
Tb767 O811 2.413 . S
Tb767 C831 2.833 . S
N768 C760 1.360 . S
N768 Tb767 2.660 . S
N768 C769 1.305 . S
C769 N768 1.305 . S
C769 C771 1.407 . S
C769 H776 0.930 . S
C770 C758 1.410 . S
C770 C771 1.345 . S
C770 H778 0.930 . S
C771 C769 1.407 . S
C771 C770 1.345 . S
C771 H773 0.930 . S
H772 C765 0.930 . S
H773 C771 0.930 . S
H774 C762 0.930 . S
H775 C763 0.931 . S
H776 C769 0.930 . S
H777 C791 0.930 . S
H778 C770 0.930 . S
H779 C797 0.930 . S
H780 C788 0.930 . S
H781 C795 0.931 . S
H782 C759 0.929 . S
H783 C789 0.930 . S
H784 C822 0.930 . S
H785 C766 0.930 . S
H786 C821 0.929 . S
N787 Tb756 2.660 . S
N787 C788 1.305 . S
N787 C792 1.360 . S
C788 H780 0.930 . S
C788 N787 1.305 . S
C788 C791 1.407 . S
C789 H783 0.930 . S
C789 C790 1.410 . S
C789 C791 1.345 . S
C790 C789 1.410 . S
C790 C792 1.417 . S
C790 C822 1.432 . S
C791 H777 0.930 . S
C791 C788 1.407 . S
C791 C789 1.345 . S
C792 N787 1.360 . S
C792 C790 1.417 . S
C792 C796 1.432 . S
H793 C798 0.930 . S
N794 Tb756 2.600 . S
N794 C796 1.359 . S
N794 C797 1.327 . S
C795 H781 0.931 . S
C795 C797 1.392 . S
C795 C798 1.370 . S
C796 C792 1.432 . S
C796 N794 1.359 . S
C796 C799 1.414 . S
C797 H779 0.930 . S
C797 N794 1.327 . S
C797 C795 1.392 . S
C798 H793 0.930 . S
C798 C795 1.370 . S
C798 C799 1.385 . S
C799 C796 1.414 . S
C799 C798 1.385 . S
C799 C821 1.444 . S
O800 Tb756 2.546 . S
O800 C820 1.251 . S
O801 Tb756 2.610 . S
O801 Tb767 2.362 . S
O801 C812 1.283 . S
O802 Tb767 2.421 . S
O802 C819 1.262 . S
O803 Tb756 2.320 . S
O803 C819 1.260 . S
O804 Tb756 2.552 . S
O804 C812 1.243 . S
O805 Tb756 2.413 . S
O805 C820 1.256 . S
O806 Tb767 2.546 . S
O806 C831 1.251 . S
O807 Tb756 2.362 . S
O807 Tb767 2.610 . S
O807 C823 1.283 . S
O808 Tb756 2.421 . S
O808 C830 1.262 . S
O809 Tb767 2.320 . S
O809 C830 1.260 . S
O810 Tb767 2.552 . S
O810 C823 1.243 . S
O811 Tb767 2.413 . S
O811 C831 1.256 . S
C812 O801 1.283 . S
C812 O804 1.243 . S
C813 C815 1.382 . S
C813 C817 1.393 . S
C813 C820 1.500 . S
C814 C815 1.400 . S
C814 C816 1.384 . S
C815 C813 1.382 . S
C815 C814 1.400 . S
C815 H832 0.930 . S
C816 C814 1.384 . S
C816 C818 1.392 . S
C816 H833 0.931 . S
C817 C813 1.393 . S
C817 C818 1.401 . S
C817 H834 0.930 . S
C818 C816 1.392 . S
C818 C817 1.401 . S
C818 H835 0.930 . S
C819 O802 1.262 . S
C819 O803 1.260 . S
C820 Tb756 2.833 . S
C820 O800 1.251 . S
C820 O805 1.256 . S
C820 C813 1.500 . S
C821 H786 0.929 . S
C821 C799 1.444 . S
C821 C822 1.317 . S
C822 H784 0.930 . S
C822 C790 1.432 . S
C822 C821 1.317 . S
C823 O807 1.283 . S
C823 O810 1.243 . S
C824 C825 1.382 . S
C824 C828 1.393 . S
C824 C831 1.500 . S
C825 C824 1.382 . S
C825 C826 1.400 . S
C825 H836 0.930 . S
C826 C825 1.400 . S
C826 C827 1.384 . S
C827 C826 1.384 . S
C827 C829 1.392 . S
C827 H837 0.931 . S
C828 C824 1.393 . S
C828 C829 1.401 . S
C828 H838 0.930 . S
C829 C827 1.392 . S
C829 C828 1.401 . S
C829 H839 0.930 . S
C830 O808 1.262 . S
C830 O809 1.260 . S
C831 Tb767 2.833 . S
C831 O806 1.251 . S
C831 O811 1.256 . S
C831 C824 1.500 . S
H832 C815 0.930 . S
H833 C816 0.931 . S
H834 C817 0.930 . S
H835 C818 0.930 . S
H836 C825 0.930 . S
H837 C827 0.931 . S
H838 C828 0.930 . S
H839 C829 0.930 . S
Tb840 N871 2.660 . S
Tb840 N878 2.600 1_545 S
Tb840 O884 2.546 1_545 S
Tb840 O885 2.610 . S
Tb840 O887 2.320 . S
Tb840 O888 2.552 1_545 S
Tb840 O889 2.413 . S
Tb840 O891 2.362 . S
Tb840 O892 2.421 1_545 S
Tb840 C904 2.833 1_545 S
C841 C844 1.432 . S
C841 C845 1.414 . S
C841 N848 1.359 . S
C842 C844 1.417 1_565 S
C842 C846 1.432 1_565 S
C842 C854 1.410 . S
C843 C845 1.444 . S
C843 C846 1.317 . S
C843 H866 0.929 . S
C844 C841 1.432 . S
C844 C842 1.417 1_545 S
C844 N852 1.360 1_545 S
C845 C841 1.414 . S
C845 C843 1.444 . S
C845 C850 1.385 . S
C846 C842 1.432 1_545 S
C846 C843 1.317 . S
C846 H858 0.930 1_545 S
C847 C849 1.392 . S
C847 C850 1.370 . S
C847 H859 0.931 . S
N848 C841 1.359 . S
N848 C849 1.327 . S
N848 Tb851 2.600 . S
C849 C847 1.392 . S
C849 N848 1.327 . S
C849 H856 0.930 . S
C850 C845 1.385 . S
C850 C847 1.370 . S
C850 H869 0.930 . S
Tb851 N848 2.600 . S
Tb851 N852 2.660 1_545 S
Tb851 O885 2.362 1_556 S
Tb851 O886 2.421 1_556 S
Tb851 O890 2.546 . S
Tb851 O891 2.610 1_556 S
Tb851 O893 2.320 1_545 S
Tb851 O894 2.552 . S
Tb851 O895 2.413 . S
Tb851 C915 2.833 . S
N852 C844 1.360 1_565 S
N852 Tb851 2.660 1_565 S
N852 C853 1.305 . S
C853 N852 1.305 . S
C853 C855 1.407 . S
C853 H860 0.930 . S
C854 C842 1.410 . S
C854 C855 1.345 . S
C854 H862 0.930 . S
C855 C853 1.407 . S
C855 C854 1.345 . S
C855 H857 0.930 . S
H856 C849 0.930 . S
H857 C855 0.930 . S
H858 C846 0.930 1_565 S
H859 C847 0.931 . S
H860 C853 0.930 . S
H861 C875 0.930 . S
H862 C854 0.930 . S
H863 C881 0.930 . S
H864 C872 0.930 . S
H865 C879 0.931 . S
H866 C843 0.929 . S
H867 C873 0.930 . S
H868 C906 0.930 . S
H869 C850 0.930 . S
H870 C905 0.929 . S
N871 Tb840 2.660 . S
N871 C872 1.305 . S
N871 C876 1.360 . S
C872 H864 0.930 . S
C872 N871 1.305 . S
C872 C875 1.407 . S
C873 H867 0.930 . S
C873 C874 1.410 . S
C873 C875 1.345 . S
C874 C873 1.410 . S
C874 C876 1.417 . S
C874 C906 1.432 . S
C875 H861 0.930 . S
C875 C872 1.407 . S
C875 C873 1.345 . S
C876 N871 1.360 . S
C876 C874 1.417 . S
C876 C880 1.432 . S
H877 C882 0.930 . S
N878 Tb840 2.600 1_565 S
N878 C880 1.359 1_565 S
N878 C881 1.327 . S
C879 H865 0.931 . S
C879 C881 1.392 . S
C879 C882 1.370 . S
C880 C876 1.432 . S
C880 N878 1.359 1_545 S
C880 C883 1.414 1_545 S
C881 H863 0.930 . S
C881 N878 1.327 . S
C881 C879 1.392 . S
C882 H877 0.930 . S
C882 C879 1.370 . S
C882 C883 1.385 . S
C883 C880 1.414 1_565 S
C883 C882 1.385 . S
C883 C905 1.444 1_565 S
O884 Tb840 2.546 1_565 S
O884 C904 1.251 . S
O885 Tb840 2.610 . S
O885 Tb851 2.362 1_554 S
O885 C896 1.283 1_545 S
O886 Tb851 2.421 1_554 S
O886 C903 1.262 . S
O887 Tb840 2.320 . S
O887 C903 1.260 . S
O888 Tb840 2.552 1_565 S
O888 C896 1.243 . S
O889 Tb840 2.413 . S
O889 C904 1.256 1_545 S
O890 Tb851 2.546 . S
O890 C915 1.251 . S
O891 Tb840 2.362 . S
O891 Tb851 2.610 1_554 S
O891 C907 1.283 . S
O892 Tb840 2.421 1_565 S
O892 C914 1.262 1_554 S
O893 Tb851 2.320 1_565 S
O893 C914 1.260 . S
O894 Tb851 2.552 . S
O894 C907 1.243 1_556 S
O895 Tb851 2.413 . S
O895 C915 1.256 . S
C896 O885 1.283 1_565 S
C896 O888 1.243 . S
C897 C899 1.382 . S
C897 C901 1.393 . S
C897 C904 1.500 . S
C898 C899 1.400 . S
C898 C900 1.384 . S
C899 C897 1.382 . S
C899 C898 1.400 . S
C899 H916 0.930 1_565 S
C900 C898 1.384 . S
C900 C902 1.392 . S
C900 H917 0.931 . S
C901 C897 1.393 . S
C901 C902 1.401 . S
C901 H918 0.930 . S
C902 C900 1.392 . S
C902 C901 1.401 . S
C902 H919 0.930 . S
C903 O886 1.262 . S
C903 O887 1.260 . S
C904 Tb840 2.833 1_565 S
C904 O884 1.251 . S
C904 O889 1.256 1_565 S
C904 C897 1.500 . S
C905 H870 0.929 . S
C905 C883 1.444 1_545 S
C905 C906 1.317 . S
C906 H868 0.930 . S
C906 C874 1.432 . S
C906 C905 1.317 . S
C907 O891 1.283 . S
C907 O894 1.243 1_554 S
C908 C909 1.382 . S
C908 C912 1.393 . S
C908 C915 1.500 . S
C909 C908 1.382 . S
C909 C910 1.400 . S
C909 H920 0.930 . S
C910 C909 1.400 . S
C910 C911 1.384 . S
C911 C910 1.384 . S
C911 C913 1.392 . S
C911 H921 0.931 . S
C912 C908 1.393 . S
C912 C913 1.401 . S
C912 H922 0.930 . S
C913 C911 1.392 . S
C913 C912 1.401 . S
C913 H923 0.930 . S
C914 O892 1.262 1_556 S
C914 O893 1.260 . S
C915 Tb851 2.833 . S
C915 O890 1.251 . S
C915 O895 1.256 . S
C915 C908 1.500 . S
H916 C899 0.930 1_545 S
H917 C900 0.931 . S
H918 C901 0.930 . S
H919 C902 0.930 . S
H920 C909 0.930 . S
H921 C911 0.931 . S
H922 C912 0.930 . S
H923 C913 0.930 . S
Tb924 N955 2.660 . S
Tb924 N962 2.600 . S
Tb924 O968 2.546 . S
Tb924 O969 2.610 . S
Tb924 O971 2.320 . S
Tb924 O972 2.552 . S
Tb924 O973 2.413 . S
Tb924 O975 2.362 . S
Tb924 O976 2.421 . S
Tb924 C988 2.833 . S
C925 C928 1.432 . S
C925 C929 1.414 . S
C925 N932 1.359 . S
C926 C928 1.417 . S
C926 C930 1.432 . S
C926 C938 1.410 . S
C927 C929 1.444 . S
C927 C930 1.317 . S
C927 H950 0.929 . S
C928 C925 1.432 . S
C928 C926 1.417 . S
C928 N936 1.360 . S
C929 C925 1.414 . S
C929 C927 1.444 . S
C929 C934 1.385 . S
C930 C926 1.432 . S
C930 C927 1.317 . S
C930 H942 0.930 . S
C931 C933 1.392 . S
C931 C934 1.370 . S
C931 H943 0.931 . S
N932 C925 1.359 . S
N932 C933 1.327 . S
N932 Tb935 2.600 . S
C933 C931 1.392 . S
C933 N932 1.327 . S
C933 H940 0.930 . S
C934 C929 1.385 . S
C934 C931 1.370 . S
C934 H953 0.930 . S
Tb935 N932 2.600 . S
Tb935 N936 2.660 . S
Tb935 O969 2.362 . S
Tb935 O970 2.421 . S
Tb935 O974 2.546 . S
Tb935 O975 2.610 . S
Tb935 O977 2.320 . S
Tb935 O978 2.552 . S
Tb935 O979 2.413 . S
Tb935 C999 2.833 . S
N936 C928 1.360 . S
N936 Tb935 2.660 . S
N936 C937 1.305 . S
C937 N936 1.305 . S
C937 C939 1.407 . S
C937 H944 0.930 . S
C938 C926 1.410 . S
C938 C939 1.345 . S
C938 H946 0.930 . S
C939 C937 1.407 . S
C939 C938 1.345 . S
C939 H941 0.930 . S
H940 C933 0.930 . S
H941 C939 0.930 . S
H942 C930 0.930 . S
H943 C931 0.931 . S
H944 C937 0.930 . S
H945 C959 0.930 . S
H946 C938 0.930 . S
H947 C965 0.930 . S
H948 C956 0.930 . S
H949 C963 0.931 . S
H950 C927 0.929 . S
H951 C957 0.930 . S
H952 C990 0.930 . S
H953 C934 0.930 . S
H954 C989 0.929 . S
N955 Tb924 2.660 . S
N955 C956 1.305 . S
N955 C960 1.360 . S
C956 H948 0.930 . S
C956 N955 1.305 . S
C956 C959 1.407 . S
C957 H951 0.930 . S
C957 C958 1.410 . S
C957 C959 1.345 . S
C958 C957 1.410 . S
C958 C960 1.417 . S
C958 C990 1.432 . S
C959 H945 0.930 . S
C959 C956 1.407 . S
C959 C957 1.345 . S
C960 N955 1.360 . S
C960 C958 1.417 . S
C960 C964 1.432 . S
H961 C966 0.930 . S
N962 Tb924 2.600 . S
N962 C964 1.359 . S
N962 C965 1.327 . S
C963 H949 0.931 . S
C963 C965 1.392 . S
C963 C966 1.370 . S
C964 C960 1.432 . S
C964 N962 1.359 . S
C964 C967 1.414 . S
C965 H947 0.930 . S
C965 N962 1.327 . S
C965 C963 1.392 . S
C966 H961 0.930 . S
C966 C963 1.370 . S
C966 C967 1.385 . S
C967 C964 1.414 . S
C967 C966 1.385 . S
C967 C989 1.444 . S
O968 Tb924 2.546 . S
O968 C988 1.251 . S
O969 Tb924 2.610 . S
O969 Tb935 2.362 . S
O969 C980 1.283 . S
O970 Tb935 2.421 . S
O970 C987 1.262 . S
O971 Tb924 2.320 . S
O971 C987 1.260 . S
O972 Tb924 2.552 . S
O972 C980 1.243 . S
O973 Tb924 2.413 . S
O973 C988 1.256 . S
O974 Tb935 2.546 . S
O974 C999 1.251 . S
O975 Tb924 2.362 . S
O975 Tb935 2.610 . S
O975 C991 1.283 . S
O976 Tb924 2.421 . S
O976 C998 1.262 . S
O977 Tb935 2.320 . S
O977 C998 1.260 . S
O978 Tb935 2.552 . S
O978 C991 1.243 . S
O979 Tb935 2.413 . S
O979 C999 1.256 . S
C980 O969 1.283 . S
C980 O972 1.243 . S
C981 C983 1.382 . S
C981 C985 1.393 . S
C981 C988 1.500 . S
C982 C983 1.400 . S
C982 C984 1.384 . S
C983 C981 1.382 . S
C983 C982 1.400 . S
C983 H1000 0.930 . S
C984 C982 1.384 . S
C984 C986 1.392 . S
C984 H1001 0.931 . S
C985 C981 1.393 . S
C985 C986 1.401 . S
C985 H1002 0.930 . S
C986 C984 1.392 . S
C986 C985 1.401 . S
C986 H1003 0.930 . S
C987 O970 1.262 . S
C987 O971 1.260 . S
C988 Tb924 2.833 . S
C988 O968 1.251 . S
C988 O973 1.256 . S
C988 C981 1.500 . S
C989 H954 0.929 . S
C989 C967 1.444 . S
C989 C990 1.317 . S
C990 H952 0.930 . S
C990 C958 1.432 . S
C990 C989 1.317 . S
C991 O975 1.283 . S
C991 O978 1.243 . S
C992 C993 1.382 . S
C992 C996 1.393 . S
C992 C999 1.500 . S
C993 C992 1.382 . S
C993 C994 1.400 . S
C993 H1004 0.930 . S
C994 C993 1.400 . S
C994 C995 1.384 . S
C995 C994 1.384 . S
C995 C997 1.392 . S
C995 H1005 0.931 . S
C996 C992 1.393 . S
C996 C997 1.401 . S
C996 H1006 0.930 . S
C997 C995 1.392 . S
C997 C996 1.401 . S
C997 H1007 0.930 . S
C998 O976 1.262 . S
C998 O977 1.260 . S
C999 Tb935 2.833 . S
C999 O974 1.251 . S
C999 O979 1.256 . S
C999 C992 1.500 . S
H1000 C983 0.930 . S
H1001 C984 0.931 . S
H1002 C985 0.930 . S
H1003 C986 0.930 . S
H1004 C993 0.930 . S
H1005 C995 0.931 . S
H1006 C996 0.930 . S
H1007 C997 0.930 . S
Tb1008 N1039 2.660 . S
Tb1008 N1046 2.600 . S
Tb1008 O1052 2.546 . S
Tb1008 O1053 2.610 1_554 S
Tb1008 O1055 2.320 . S
Tb1008 O1056 2.552 1_554 S
Tb1008 O1057 2.413 . S
Tb1008 O1059 2.362 . S
Tb1008 O1060 2.421 . S
Tb1008 C1072 2.833 . S
C1009 C1012 1.432 . S
C1009 C1013 1.414 . S
C1009 N1016 1.359 . S
C1010 C1012 1.417 . S
C1010 C1014 1.432 . S
C1010 C1022 1.410 . S
C1011 C1013 1.444 . S
C1011 C1014 1.317 . S
C1011 H1034 0.929 . S
C1012 C1009 1.432 . S
C1012 C1010 1.417 . S
C1012 N1020 1.360 . S
C1013 C1009 1.414 . S
C1013 C1011 1.444 . S
C1013 C1018 1.385 . S
C1014 C1010 1.432 . S
C1014 C1011 1.317 . S
C1014 H1026 0.930 . S
C1015 C1017 1.392 . S
C1015 C1018 1.370 . S
C1015 H1027 0.931 . S
N1016 C1009 1.359 . S
N1016 C1017 1.327 . S
N1016 Tb1019 2.609 . S
C1017 C1015 1.392 . S
C1017 N1016 1.327 . S
C1017 H1024 0.930 . S
C1018 C1013 1.385 . S
C1018 C1015 1.370 . S
C1018 H1037 0.930 . S
Tb1019 N1016 2.609 . S
Tb1019 N1020 2.668 . S
Tb1019 O1053 2.368 . S
Tb1019 O1054 2.423 1_556 S
Tb1019 O1058 2.543 1_556 S
Tb1019 O1059 2.602 1_556 S
Tb1019 O1061 2.316 1_556 S
Tb1019 O1062 2.541 1_556 S
Tb1019 O1063 2.409 1_556 S
Tb1019 C1083 2.829 1_556 S
N1020 C1012 1.360 . S
N1020 Tb1019 2.668 . S
N1020 C1021 1.305 . S
C1021 N1020 1.305 . S
C1021 C1023 1.407 . S
C1021 H1028 0.930 . S
C1022 C1010 1.410 . S
C1022 C1023 1.345 . S
C1022 H1030 0.930 . S
C1023 C1021 1.407 . S
C1023 C1022 1.345 . S
C1023 H1025 0.930 . S
H1024 C1017 0.930 . S
H1025 C1023 0.930 . S
H1026 C1014 0.930 . S
H1027 C1015 0.931 . S
H1028 C1021 0.930 . S
H1029 C1043 0.930 . S
H1030 C1022 0.930 . S
H1031 C1049 0.930 . S
H1032 C1040 0.930 . S
H1033 C1047 0.931 . S
H1034 C1011 0.929 . S
H1035 C1041 0.930 . S
H1036 C1074 0.930 . S
H1037 C1018 0.930 . S
H1038 C1073 0.929 . S
N1039 Tb1008 2.660 . S
N1039 C1040 1.305 . S
N1039 C1044 1.360 . S
C1040 H1032 0.930 . S
C1040 N1039 1.305 . S
C1040 C1043 1.407 . S
C1041 H1035 0.930 . S
C1041 C1042 1.410 . S
C1041 C1043 1.345 . S
C1042 C1041 1.410 . S
C1042 C1044 1.417 . S
C1042 C1074 1.432 . S
C1043 H1029 0.930 . S
C1043 C1040 1.407 . S
C1043 C1041 1.345 . S
C1044 N1039 1.360 . S
C1044 C1042 1.417 . S
C1044 C1048 1.432 . S
H1045 C1050 0.930 . S
N1046 Tb1008 2.600 . S
N1046 C1048 1.359 . S
N1046 C1049 1.327 . S
C1047 H1033 0.931 . S
C1047 C1049 1.392 . S
C1047 C1050 1.370 . S
C1048 C1044 1.432 . S
C1048 N1046 1.359 . S
C1048 C1051 1.414 . S
C1049 H1031 0.930 . S
C1049 N1046 1.327 . S
C1049 C1047 1.392 . S
C1050 H1045 0.930 . S
C1050 C1047 1.370 . S
C1050 C1051 1.385 . S
C1051 C1048 1.414 . S
C1051 C1050 1.385 . S
C1051 C1073 1.444 . S
O1052 Tb1008 2.546 . S
O1052 C1072 1.251 . S
O1053 Tb1008 2.610 1_556 S
O1053 Tb1019 2.368 . S
O1053 C1064 1.283 . S
O1054 Tb1019 2.423 1_554 S
O1054 C1071 1.262 . S
O1055 Tb1008 2.320 . S
O1055 C1071 1.260 . S
O1056 Tb1008 2.552 1_556 S
O1056 C1064 1.243 . S
O1057 Tb1008 2.413 . S
O1057 C1072 1.256 . S
O1058 Tb1019 2.543 1_554 S
O1058 C1083 1.251 . S
O1059 Tb1008 2.362 . S
O1059 Tb1019 2.602 1_554 S
O1059 C1075 1.283 . S
O1060 Tb1008 2.421 . S
O1060 C1082 1.262 . S
O1061 Tb1019 2.316 1_554 S
O1061 C1082 1.260 . S
O1062 Tb1019 2.541 1_554 S
O1062 C1075 1.243 . S
O1063 Tb1019 2.409 1_554 S
O1063 C1083 1.256 . S
C1064 O1053 1.283 . S
C1064 O1056 1.243 . S
C1065 C1067 1.382 . S
C1065 C1069 1.393 . S
C1065 C1072 1.500 . S
C1066 C1067 1.400 1_556 S
C1066 C1068 1.384 1_556 S
C1067 C1065 1.382 . S
C1067 C1066 1.400 1_554 S
C1067 H1084 0.930 1_554 S
C1068 C1066 1.384 1_554 S
C1068 C1070 1.392 . S
C1068 H1085 0.931 . S
C1069 C1065 1.393 . S
C1069 C1070 1.401 . S
C1069 H1086 0.930 . S
C1070 C1068 1.392 . S
C1070 C1069 1.401 . S
C1070 H1087 0.930 . S
C1071 O1054 1.262 . S
C1071 O1055 1.260 . S
C1072 Tb1008 2.833 . S
C1072 O1052 1.251 . S
C1072 O1057 1.256 . S
C1072 C1065 1.500 . S
C1073 H1038 0.929 . S
C1073 C1051 1.444 . S
C1073 C1074 1.317 . S
C1074 H1036 0.930 . S
C1074 C1042 1.432 . S
C1074 C1073 1.317 . S
C1075 O1059 1.283 . S
C1075 O1062 1.243 . S
C1076 C1077 1.382 . S
C1076 C1080 1.384 1_554 S
C1076 C1083 1.500 . S
C1077 C1076 1.382 . S
C1077 C1078 1.400 . S
C1077 H1088 0.930 . S
C1078 C1077 1.400 . S
C1078 C1079 1.384 . S
C1079 C1078 1.384 . S
C1079 C1081 1.392 . S
C1079 H1089 0.931 . S
C1080 C1076 1.384 1_556 S
C1080 C1081 1.387 1_556 S
C1080 H1090 0.955 . S
C1081 C1079 1.392 . S
C1081 C1080 1.387 1_554 S
C1081 H1091 0.930 1_554 S
C1082 O1060 1.262 . S
C1082 O1061 1.260 . S
C1083 Tb1019 2.829 1_554 S
C1083 O1058 1.251 . S
C1083 O1063 1.256 . S
C1083 C1076 1.500 . S
H1084 C1067 0.930 1_556 S
H1085 C1068 0.931 . S
H1086 C1069 0.930 . S
H1087 C1070 0.930 . S
H1088 C1077 0.930 . S
H1089 C1079 0.931 . S
H1090 C1080 0.955 . S
H1091 C1081 0.930 1_556 S
Tb1092 N1123 2.660 . S
Tb1092 N1130 2.600 . S
Tb1092 O1136 2.546 . S
Tb1092 O1137 2.610 . S
Tb1092 O1139 2.320 . S
Tb1092 O1140 2.552 . S
Tb1092 O1141 2.413 . S
Tb1092 O1143 2.362 . S
Tb1092 O1144 2.421 . S
Tb1092 C1156 2.833 . S
C1093 C1096 1.432 . S
C1093 C1097 1.414 . S
C1093 N1100 1.359 . S
C1094 C1096 1.417 . S
C1094 C1098 1.432 . S
C1094 C1106 1.410 . S
C1095 C1097 1.444 . S
C1095 C1098 1.317 . S
C1095 H1118 0.929 . S
C1096 C1093 1.432 . S
C1096 C1094 1.417 . S
C1096 N1104 1.360 . S
C1097 C1093 1.414 . S
C1097 C1095 1.444 . S
C1097 C1102 1.385 . S
C1098 C1094 1.432 . S
C1098 C1095 1.317 . S
C1098 H1110 0.930 . S
C1099 C1101 1.392 . S
C1099 C1102 1.370 . S
C1099 H1111 0.931 . S
N1100 C1093 1.359 . S
N1100 C1101 1.327 . S
N1100 Tb1103 2.600 . S
C1101 C1099 1.392 . S
C1101 N1100 1.327 . S
C1101 H1108 0.930 . S
C1102 C1097 1.385 . S
C1102 C1099 1.370 . S
C1102 H1121 0.930 . S
Tb1103 N1100 2.600 . S
Tb1103 N1104 2.660 . S
Tb1103 O1137 2.362 . S
Tb1103 O1138 2.421 . S
Tb1103 O1142 2.546 . S
Tb1103 O1143 2.610 . S
Tb1103 O1145 2.320 . S
Tb1103 O1146 2.552 . S
Tb1103 O1147 2.413 . S
Tb1103 C1167 2.833 . S
N1104 C1096 1.360 . S
N1104 Tb1103 2.660 . S
N1104 C1105 1.305 . S
C1105 N1104 1.305 . S
C1105 C1107 1.407 . S
C1105 H1112 0.930 . S
C1106 C1094 1.410 . S
C1106 C1107 1.345 . S
C1106 H1114 0.930 . S
C1107 C1105 1.407 . S
C1107 C1106 1.345 . S
C1107 H1109 0.930 . S
H1108 C1101 0.930 . S
H1109 C1107 0.930 . S
H1110 C1098 0.930 . S
H1111 C1099 0.931 . S
H1112 C1105 0.930 . S
H1113 C1127 0.930 . S
H1114 C1106 0.930 . S
H1115 C1133 0.930 . S
H1116 C1124 0.930 . S
H1117 C1131 0.931 . S
H1118 C1095 0.929 . S
H1119 C1125 0.930 . S
H1120 C1158 0.930 . S
H1121 C1102 0.930 . S
H1122 C1157 0.929 . S
N1123 Tb1092 2.660 . S
N1123 C1124 1.305 . S
N1123 C1128 1.360 . S
C1124 H1116 0.930 . S
C1124 N1123 1.305 . S
C1124 C1127 1.407 . S
C1125 H1119 0.930 . S
C1125 C1126 1.410 . S
C1125 C1127 1.345 . S
C1126 C1125 1.410 . S
C1126 C1128 1.417 . S
C1126 C1158 1.432 . S
C1127 H1113 0.930 . S
C1127 C1124 1.407 . S
C1127 C1125 1.345 . S
C1128 N1123 1.360 . S
C1128 C1126 1.417 . S
C1128 C1132 1.432 . S
H1129 C1134 0.930 . S
N1130 Tb1092 2.600 . S
N1130 C1132 1.359 . S
N1130 C1133 1.327 . S
C1131 H1117 0.931 . S
C1131 C1133 1.392 . S
C1131 C1134 1.370 . S
C1132 C1128 1.432 . S
C1132 N1130 1.359 . S
C1132 C1135 1.414 . S
C1133 H1115 0.930 . S
C1133 N1130 1.327 . S
C1133 C1131 1.392 . S
C1134 H1129 0.930 . S
C1134 C1131 1.370 . S
C1134 C1135 1.385 . S
C1135 C1132 1.414 . S
C1135 C1134 1.385 . S
C1135 C1157 1.444 . S
O1136 Tb1092 2.546 . S
O1136 C1156 1.251 . S
O1137 Tb1092 2.610 . S
O1137 Tb1103 2.362 . S
O1137 C1148 1.283 . S
O1138 Tb1103 2.421 . S
O1138 C1155 1.262 . S
O1139 Tb1092 2.320 . S
O1139 C1155 1.260 . S
O1140 Tb1092 2.552 . S
O1140 C1148 1.243 . S
O1141 Tb1092 2.413 . S
O1141 C1156 1.256 . S
O1142 Tb1103 2.546 . S
O1142 C1167 1.251 . S
O1143 Tb1092 2.362 . S
O1143 Tb1103 2.610 . S
O1143 C1159 1.283 . S
O1144 Tb1092 2.421 . S
O1144 C1166 1.262 . S
O1145 Tb1103 2.320 . S
O1145 C1166 1.260 . S
O1146 Tb1103 2.552 . S
O1146 C1159 1.243 . S
O1147 Tb1103 2.413 . S
O1147 C1167 1.256 . S
C1148 O1137 1.283 . S
C1148 O1140 1.243 . S
C1149 C1151 1.382 . S
C1149 C1153 1.393 . S
C1149 C1156 1.500 . S
C1150 C1151 1.400 . S
C1150 C1152 1.384 1_655 S
C1151 C1149 1.382 . S
C1151 C1150 1.400 . S
C1151 H1168 0.930 . S
C1152 C1150 1.384 1_455 S
C1152 C1154 1.377 1_455 S
C1152 H1169 0.931 . S
C1153 C1149 1.393 . S
C1153 C1154 1.440 . S
C1153 H1170 0.930 . S
C1154 C1152 1.377 1_655 S
C1154 C1153 1.440 . S
C1154 H1171 0.907 1_655 S
C1155 O1138 1.262 . S
C1155 O1139 1.260 . S
C1156 Tb1092 2.833 . S
C1156 O1136 1.251 . S
C1156 O1141 1.256 . S
C1156 C1149 1.500 . S
C1157 H1122 0.929 . S
C1157 C1135 1.444 . S
C1157 C1158 1.317 . S
C1158 H1120 0.930 . S
C1158 C1126 1.432 . S
C1158 C1157 1.317 . S
C1159 O1143 1.283 . S
C1159 O1146 1.243 . S
C1160 C1161 1.382 . S
C1160 C1164 1.393 . S
C1160 C1167 1.500 . S
C1161 C1160 1.382 . S
C1161 C1162 1.400 . S
C1161 H1172 0.930 . S
C1162 C1161 1.400 . S
C1162 C1163 1.384 . S
C1163 C1162 1.384 . S
C1163 C1165 1.392 . S
C1163 H1173 0.931 . S
C1164 C1160 1.393 . S
C1164 C1165 1.401 . S
C1164 H1174 0.930 . S
C1165 C1163 1.392 . S
C1165 C1164 1.401 . S
C1165 H1175 0.930 . S
C1166 O1144 1.262 . S
C1166 O1145 1.260 . S
C1167 Tb1103 2.833 . S
C1167 O1142 1.251 . S
C1167 O1147 1.256 . S
C1167 C1160 1.500 . S
H1168 C1151 0.930 . S
H1169 C1152 0.931 . S
H1170 C1153 0.930 . S
H1171 C1154 0.907 1_455 S
H1172 C1161 0.930 . S
H1173 C1163 0.931 . S
H1174 C1164 0.930 . S
H1175 C1165 0.930 . S
Tb1176 N1207 2.660 . S
Tb1176 N1214 2.600 . S
Tb1176 O1220 2.546 . S
Tb1176 O1221 2.610 . S
Tb1176 O1223 2.320 . S
Tb1176 O1224 2.552 . S
Tb1176 O1225 2.413 . S
Tb1176 O1227 2.362 . S
Tb1176 O1228 2.421 . S
Tb1176 C1240 2.833 . S
C1177 C1180 1.432 1_455 S
C1177 C1181 1.414 1_455 S
C1177 N1184 1.359 . S
C1178 C1180 1.417 . S
C1178 C1182 1.432 . S
C1178 C1190 1.410 . S
C1179 C1181 1.444 . S
C1179 C1182 1.317 . S
C1179 H1202 0.929 . S
C1180 C1177 1.432 1_655 S
C1180 C1178 1.417 . S
C1180 N1188 1.360 1_655 S
C1181 C1177 1.414 1_655 S
C1181 C1179 1.444 . S
C1181 C1186 1.385 . S
C1182 C1178 1.432 . S
C1182 C1179 1.317 . S
C1182 H1194 0.930 . S
C1183 C1185 1.392 . S
C1183 C1186 1.370 1_455 S
C1183 H1195 0.931 . S
N1184 C1177 1.359 . S
N1184 C1185 1.327 . S
N1184 Tb1187 2.600 . S
C1185 C1183 1.392 . S
C1185 N1184 1.327 . S
C1185 H1192 0.930 . S
C1186 C1181 1.385 . S
C1186 C1183 1.370 1_655 S
C1186 H1205 0.930 . S
Tb1187 N1184 2.600 . S
Tb1187 N1188 2.660 . S
Tb1187 O1221 2.362 . S
Tb1187 O1222 2.421 . S
Tb1187 O1226 2.546 . S
Tb1187 O1227 2.610 . S
Tb1187 O1229 2.320 . S
Tb1187 O1230 2.552 . S
Tb1187 O1231 2.413 . S
Tb1187 C1251 2.833 . S
N1188 C1180 1.360 1_455 S
N1188 Tb1187 2.660 . S
N1188 C1189 1.305 . S
C1189 N1188 1.305 . S
C1189 C1191 1.407 1_455 S
C1189 H1196 0.930 . S
C1190 C1178 1.410 . S
C1190 C1191 1.345 . S
C1190 H1198 0.930 . S
C1191 C1189 1.407 1_655 S
C1191 C1190 1.345 . S
C1191 H1193 0.930 . S
H1192 C1185 0.930 . S
H1193 C1191 0.930 . S
H1194 C1182 0.930 . S
H1195 C1183 0.931 . S
H1196 C1189 0.930 . S
H1197 C1211 0.930 . S
H1198 C1190 0.930 . S
H1199 C1217 0.930 . S
H1200 C1208 0.930 . S
H1201 C1215 0.931 . S
H1202 C1179 0.929 . S
H1203 C1209 0.930 . S
H1204 C1242 0.930 . S
H1205 C1186 0.930 . S
H1206 C1241 0.929 . S
N1207 Tb1176 2.660 . S
N1207 C1208 1.305 . S
N1207 C1212 1.360 . S
C1208 H1200 0.930 . S
C1208 N1207 1.305 . S
C1208 C1211 1.407 . S
C1209 H1203 0.930 . S
C1209 C1210 1.410 . S
C1209 C1211 1.345 . S
C1210 C1209 1.410 . S
C1210 C1212 1.417 . S
C1210 C1242 1.432 . S
C1211 H1197 0.930 . S
C1211 C1208 1.407 . S
C1211 C1209 1.345 . S
C1212 N1207 1.360 . S
C1212 C1210 1.417 . S
C1212 C1216 1.432 . S
H1213 C1218 0.930 . S
N1214 Tb1176 2.600 . S
N1214 C1216 1.359 . S
N1214 C1217 1.327 . S
C1215 H1201 0.931 . S
C1215 C1217 1.392 . S
C1215 C1218 1.370 . S
C1216 C1212 1.432 . S
C1216 N1214 1.359 . S
C1216 C1219 1.414 . S
C1217 H1199 0.930 . S
C1217 N1214 1.327 . S
C1217 C1215 1.392 . S
C1218 H1213 0.930 . S
C1218 C1215 1.370 . S
C1218 C1219 1.385 . S
C1219 C1216 1.414 . S
C1219 C1218 1.385 . S
C1219 C1241 1.444 . S
O1220 Tb1176 2.546 . S
O1220 C1240 1.251 . S
O1221 Tb1176 2.610 . S
O1221 Tb1187 2.362 . S
O1221 C1232 1.283 . S
O1222 Tb1187 2.421 . S
O1222 C1239 1.262 . S
O1223 Tb1176 2.320 . S
O1223 C1239 1.260 . S
O1224 Tb1176 2.552 . S
O1224 C1232 1.243 . S
O1225 Tb1176 2.413 . S
O1225 C1240 1.256 . S
O1226 Tb1187 2.546 . S
O1226 C1251 1.251 . S
O1227 Tb1176 2.362 . S
O1227 Tb1187 2.610 . S
O1227 C1243 1.283 . S
O1228 Tb1176 2.421 . S
O1228 C1250 1.262 . S
O1229 Tb1187 2.320 . S
O1229 C1250 1.260 . S
O1230 Tb1187 2.552 . S
O1230 C1243 1.243 . S
O1231 Tb1187 2.413 . S
O1231 C1251 1.256 . S
C1232 O1221 1.283 . S
C1232 O1224 1.243 . S
C1233 C1235 1.382 . S
C1233 C1237 1.393 . S
C1233 C1240 1.500 . S
C1234 C1235 1.400 . S
C1234 C1236 1.384 . S
C1235 C1233 1.382 . S
C1235 C1234 1.400 . S
C1235 H1252 0.930 . S
C1236 C1234 1.384 . S
C1236 C1238 1.392 . S
C1236 H1253 0.931 1_455 S
C1237 C1233 1.393 . S
C1237 C1238 1.401 . S
C1237 H1254 0.930 . S
C1238 C1236 1.392 . S
C1238 C1237 1.401 . S
C1238 H1255 0.930 . S
C1239 O1222 1.262 . S
C1239 O1223 1.260 . S
C1240 Tb1176 2.833 . S
C1240 O1220 1.251 . S
C1240 O1225 1.256 . S
C1240 C1233 1.500 . S
C1241 H1206 0.929 . S
C1241 C1219 1.444 . S
C1241 C1242 1.317 . S
C1242 H1204 0.930 . S
C1242 C1210 1.432 . S
C1242 C1241 1.317 . S
C1243 O1227 1.283 . S
C1243 O1230 1.243 . S
C1244 C1245 1.382 . S
C1244 C1248 1.393 . S
C1244 C1251 1.500 . S
C1245 C1244 1.382 . S
C1245 C1246 1.400 . S
C1245 H1256 0.930 . S
C1246 C1245 1.400 . S
C1246 C1247 1.384 . S
C1247 C1246 1.384 . S
C1247 C1249 1.392 . S
C1247 H1257 0.931 . S
C1248 C1244 1.393 . S
C1248 C1249 1.401 . S
C1248 H1258 0.930 . S
C1249 C1247 1.392 . S
C1249 C1248 1.401 . S
C1249 H1259 0.930 . S
C1250 O1228 1.262 . S
C1250 O1229 1.260 . S
C1251 Tb1187 2.833 . S
C1251 O1226 1.251 . S
C1251 O1231 1.256 . S
C1251 C1244 1.500 . S
H1252 C1235 0.930 . S
H1253 C1236 0.931 1_655 S
H1254 C1237 0.930 . S
H1255 C1238 0.930 . S
H1256 C1245 0.930 . S
H1257 C1247 0.931 . S
H1258 C1248 0.930 . S
H1259 C1249 0.930 . S
Tb1260 N1291 2.660 . S
Tb1260 N1298 2.600 . S
Tb1260 O1304 2.546 . S
Tb1260 O1305 2.610 . S
Tb1260 O1307 2.320 . S
Tb1260 O1308 2.552 . S
Tb1260 O1309 2.413 . S
Tb1260 O1311 2.362 . S
Tb1260 O1312 2.421 . S
Tb1260 C1324 2.833 . S
C1261 C1264 1.432 . S
C1261 C1265 1.414 . S
C1261 N1268 1.359 . S
C1262 C1264 1.417 . S
C1262 C1266 1.432 . S
C1262 C1274 1.410 . S
C1263 C1265 1.444 . S
C1263 C1266 1.317 . S
C1263 H1286 0.929 . S
C1264 C1261 1.432 . S
C1264 C1262 1.417 . S
C1264 N1272 1.360 . S
C1265 C1261 1.414 . S
C1265 C1263 1.444 . S
C1265 C1270 1.385 . S
C1266 C1262 1.432 . S
C1266 C1263 1.317 . S
C1266 H1278 0.930 . S
C1267 C1269 1.392 . S
C1267 C1270 1.370 . S
C1267 H1279 0.931 . S
N1268 C1261 1.359 . S
N1268 C1269 1.327 . S
N1268 Tb1271 2.600 . S
C1269 C1267 1.392 . S
C1269 N1268 1.327 . S
C1269 H1276 0.930 . S
C1270 C1265 1.385 . S
C1270 C1267 1.370 . S
C1270 H1289 0.930 . S
Tb1271 N1268 2.600 . S
Tb1271 N1272 2.660 . S
Tb1271 O1305 2.362 . S
Tb1271 O1306 2.421 . S
Tb1271 O1310 2.546 . S
Tb1271 O1311 2.610 . S
Tb1271 O1313 2.320 . S
Tb1271 O1314 2.552 . S
Tb1271 O1315 2.413 . S
Tb1271 C1335 2.833 . S
N1272 C1264 1.360 . S
N1272 Tb1271 2.660 . S
N1272 C1273 1.305 . S
C1273 N1272 1.305 . S
C1273 C1275 1.407 . S
C1273 H1280 0.930 . S
C1274 C1262 1.410 . S
C1274 C1275 1.345 . S
C1274 H1282 0.930 . S
C1275 C1273 1.407 . S
C1275 C1274 1.345 . S
C1275 H1277 0.930 . S
H1276 C1269 0.930 . S
H1277 C1275 0.930 . S
H1278 C1266 0.930 . S
H1279 C1267 0.931 . S
H1280 C1273 0.930 . S
H1281 C1295 0.930 . S
H1282 C1274 0.930 . S
H1283 C1301 0.930 . S
H1284 C1292 0.930 . S
H1285 C1299 0.931 . S
H1286 C1263 0.929 . S
H1287 C1293 0.930 . S
H1288 C1326 0.930 . S
H1289 C1270 0.930 . S
H1290 C1325 0.929 . S
N1291 Tb1260 2.660 . S
N1291 C1292 1.305 . S
N1291 C1296 1.360 . S
C1292 H1284 0.930 . S
C1292 N1291 1.305 . S
C1292 C1295 1.407 . S
C1293 H1287 0.930 . S
C1293 C1294 1.410 . S
C1293 C1295 1.345 . S
C1294 C1293 1.410 . S
C1294 C1296 1.417 . S
C1294 C1326 1.432 . S
C1295 H1281 0.930 . S
C1295 C1292 1.407 . S
C1295 C1293 1.345 . S
C1296 N1291 1.360 . S
C1296 C1294 1.417 . S
C1296 C1300 1.432 . S
H1297 C1302 0.930 . S
N1298 Tb1260 2.600 . S
N1298 C1300 1.359 . S
N1298 C1301 1.327 . S
C1299 H1285 0.931 . S
C1299 C1301 1.392 . S
C1299 C1302 1.370 . S
C1300 C1296 1.432 . S
C1300 N1298 1.359 . S
C1300 C1303 1.414 . S
C1301 H1283 0.930 . S
C1301 N1298 1.327 . S
C1301 C1299 1.392 . S
C1302 H1297 0.930 . S
C1302 C1299 1.370 . S
C1302 C1303 1.385 . S
C1303 C1300 1.414 . S
C1303 C1302 1.385 . S
C1303 C1325 1.444 . S
O1304 Tb1260 2.546 . S
O1304 C1324 1.251 . S
O1305 Tb1260 2.610 . S
O1305 Tb1271 2.362 . S
O1305 C1316 1.283 . S
O1306 Tb1271 2.421 . S
O1306 C1323 1.262 . S
O1307 Tb1260 2.320 . S
O1307 C1323 1.260 . S
O1308 Tb1260 2.552 . S
O1308 C1316 1.243 . S
O1309 Tb1260 2.413 . S
O1309 C1324 1.256 . S
O1310 Tb1271 2.546 . S
O1310 C1335 1.251 . S
O1311 Tb1260 2.362 . S
O1311 Tb1271 2.610 . S
O1311 C1327 1.283 . S
O1312 Tb1260 2.421 . S
O1312 C1334 1.262 . S
O1313 Tb1271 2.320 . S
O1313 C1334 1.260 . S
O1314 Tb1271 2.552 . S
O1314 C1327 1.243 . S
O1315 Tb1271 2.413 . S
O1315 C1335 1.256 . S
C1316 O1305 1.283 . S
C1316 O1308 1.243 . S
C1317 C1319 1.382 . S
C1317 C1321 1.393 . S
C1317 C1324 1.500 . S
C1318 C1319 1.400 . S
C1318 C1320 1.384 . S
C1319 C1317 1.382 . S
C1319 C1318 1.400 . S
C1319 H1336 0.930 . S
C1320 C1318 1.384 . S
C1320 C1322 1.392 . S
C1320 H1337 0.931 . S
C1321 C1317 1.393 . S
C1321 C1322 1.401 . S
C1321 H1338 0.930 . S
C1322 C1320 1.392 . S
C1322 C1321 1.401 . S
C1322 H1339 0.930 . S
C1323 O1306 1.262 . S
C1323 O1307 1.260 . S
C1324 Tb1260 2.833 . S
C1324 O1304 1.251 . S
C1324 O1309 1.256 . S
C1324 C1317 1.500 . S
C1325 H1290 0.929 . S
C1325 C1303 1.444 . S
C1325 C1326 1.317 . S
C1326 H1288 0.930 . S
C1326 C1294 1.432 . S
C1326 C1325 1.317 . S
C1327 O1311 1.283 . S
C1327 O1314 1.243 . S
C1328 C1329 1.382 . S
C1328 C1332 1.393 . S
C1328 C1335 1.500 . S
C1329 C1328 1.382 . S
C1329 C1330 1.400 . S
C1329 H1340 0.930 . S
C1330 C1329 1.400 . S
C1330 C1331 1.384 . S
C1331 C1330 1.384 . S
C1331 C1333 1.392 . S
C1331 H1341 0.924 1_655 S
C1332 C1328 1.393 . S
C1332 C1333 1.401 . S
C1332 H1342 0.930 . S
C1333 C1331 1.392 . S
C1333 C1332 1.401 . S
C1333 H1343 0.930 . S
C1334 O1312 1.262 . S
C1334 O1313 1.260 . S
C1335 Tb1271 2.833 . S
C1335 O1310 1.251 . S
C1335 O1315 1.256 . S
C1335 C1328 1.500 . S
H1336 C1319 0.930 . S
H1337 C1320 0.931 . S
H1338 C1321 0.930 . S
H1339 C1322 0.930 . S
H1340 C1329 0.930 . S
H1341 C1331 0.924 1_455 S
H1342 C1332 0.930 . S
H1343 C1333 0.930 . S
Tb1344 N1375 2.660 . S
Tb1344 N1382 2.600 . S
Tb1344 O1388 2.546 . S
Tb1344 O1389 2.610 . S
Tb1344 O1391 2.320 . S
Tb1344 O1392 2.552 . S
Tb1344 O1393 2.413 . S
Tb1344 O1395 2.362 . S
Tb1344 O1396 2.421 . S
Tb1344 C1408 2.833 . S
C1345 C1348 1.432 . S
C1345 C1349 1.414 . S
C1345 N1352 1.359 . S
C1346 C1348 1.417 . S
C1346 C1350 1.432 . S
C1346 C1358 1.410 . S
C1347 C1349 1.444 . S
C1347 C1350 1.317 . S
C1347 H1370 0.929 . S
C1348 C1345 1.432 . S
C1348 C1346 1.417 . S
C1348 N1356 1.360 . S
C1349 C1345 1.414 . S
C1349 C1347 1.444 . S
C1349 C1354 1.385 . S
C1350 C1346 1.432 . S
C1350 C1347 1.317 . S
C1350 H1362 0.930 . S
C1351 C1353 1.392 . S
C1351 C1354 1.370 . S
C1351 H1363 0.931 . S
N1352 C1345 1.359 . S
N1352 C1353 1.327 . S
N1352 Tb1355 2.600 . S
C1353 C1351 1.392 . S
C1353 N1352 1.327 . S
C1353 H1360 0.930 . S
C1354 C1349 1.385 . S
C1354 C1351 1.370 . S
C1354 H1373 0.930 . S
Tb1355 N1352 2.600 . S
Tb1355 N1356 2.660 . S
Tb1355 O1389 2.362 . S
Tb1355 O1390 2.421 . S
Tb1355 O1394 2.546 . S
Tb1355 O1395 2.610 . S
Tb1355 O1397 2.320 . S
Tb1355 O1398 2.552 . S
Tb1355 O1399 2.413 . S
Tb1355 C1419 2.833 . S
N1356 C1348 1.360 . S
N1356 Tb1355 2.660 . S
N1356 C1357 1.305 . S
C1357 N1356 1.305 . S
C1357 C1359 1.407 . S
C1357 H1364 0.930 . S
C1358 C1346 1.410 . S
C1358 C1359 1.345 . S
C1358 H1366 0.930 . S
C1359 C1357 1.407 . S
C1359 C1358 1.345 . S
C1359 H1361 0.930 . S
H1360 C1353 0.930 . S
H1361 C1359 0.930 . S
H1362 C1350 0.930 . S
H1363 C1351 0.931 . S
H1364 C1357 0.930 . S
H1365 C1379 0.930 . S
H1366 C1358 0.930 . S
H1367 C1385 0.930 . S
H1368 C1376 0.930 . S
H1369 C1383 0.931 . S
H1370 C1347 0.929 . S
H1371 C1377 0.930 . S
H1372 C1410 0.930 . S
H1373 C1354 0.930 . S
H1374 C1409 0.929 . S
N1375 Tb1344 2.660 . S
N1375 C1376 1.305 . S
N1375 C1380 1.360 . S
C1376 H1368 0.930 . S
C1376 N1375 1.305 . S
C1376 C1379 1.407 . S
C1377 H1371 0.930 . S
C1377 C1378 1.410 . S
C1377 C1379 1.345 . S
C1378 C1377 1.410 . S
C1378 C1380 1.417 . S
C1378 C1410 1.432 . S
C1379 H1365 0.930 . S
C1379 C1376 1.407 . S
C1379 C1377 1.345 . S
C1380 N1375 1.360 . S
C1380 C1378 1.417 . S
C1380 C1384 1.432 . S
H1381 C1386 0.930 . S
N1382 Tb1344 2.600 . S
N1382 C1384 1.359 . S
N1382 C1385 1.327 . S
C1383 H1369 0.931 . S
C1383 C1385 1.392 . S
C1383 C1386 1.370 . S
C1384 C1380 1.432 . S
C1384 N1382 1.359 . S
C1384 C1387 1.414 . S
C1385 H1367 0.930 . S
C1385 N1382 1.327 . S
C1385 C1383 1.392 . S
C1386 H1381 0.930 . S
C1386 C1383 1.370 . S
C1386 C1387 1.385 . S
C1387 C1384 1.414 . S
C1387 C1386 1.385 . S
C1387 C1409 1.444 . S
O1388 Tb1344 2.546 . S
O1388 C1408 1.251 . S
O1389 Tb1344 2.610 . S
O1389 Tb1355 2.362 . S
O1389 C1400 1.283 . S
O1390 Tb1355 2.421 . S
O1390 C1407 1.262 . S
O1391 Tb1344 2.320 . S
O1391 C1407 1.260 . S
O1392 Tb1344 2.552 . S
O1392 C1400 1.243 . S
O1393 Tb1344 2.413 . S
O1393 C1408 1.256 . S
O1394 Tb1355 2.546 . S
O1394 C1419 1.251 . S
O1395 Tb1344 2.362 . S
O1395 Tb1355 2.610 . S
O1395 C1411 1.283 . S
O1396 Tb1344 2.421 . S
O1396 C1418 1.262 . S
O1397 Tb1355 2.320 . S
O1397 C1418 1.260 . S
O1398 Tb1355 2.552 . S
O1398 C1411 1.243 . S
O1399 Tb1355 2.413 . S
O1399 C1419 1.256 . S
C1400 O1389 1.283 . S
C1400 O1392 1.243 . S
C1401 C1403 1.382 . S
C1401 C1405 1.393 . S
C1401 C1408 1.500 . S
C1402 C1403 1.400 . S
C1402 C1404 1.384 . S
C1403 C1401 1.382 . S
C1403 C1402 1.400 . S
C1403 H1420 0.930 . S
C1404 C1402 1.384 . S
C1404 C1406 1.392 . S
C1404 H1421 0.931 . S
C1405 C1401 1.393 . S
C1405 C1406 1.401 . S
C1405 H1422 0.930 . S
C1406 C1404 1.392 . S
C1406 C1405 1.401 . S
C1406 H1423 0.930 . S
C1407 O1390 1.262 . S
C1407 O1391 1.260 . S
C1408 Tb1344 2.833 . S
C1408 O1388 1.251 . S
C1408 O1393 1.256 . S
C1408 C1401 1.500 . S
C1409 H1374 0.929 . S
C1409 C1387 1.444 . S
C1409 C1410 1.317 . S
C1410 H1372 0.930 . S
C1410 C1378 1.432 . S
C1410 C1409 1.317 . S
C1411 O1395 1.283 . S
C1411 O1398 1.243 . S
C1412 C1413 1.382 . S
C1412 C1416 1.393 . S
C1412 C1419 1.500 . S
C1413 C1412 1.382 . S
C1413 C1414 1.400 . S
C1413 H1424 0.930 . S
C1414 C1413 1.400 . S
C1414 C1415 1.384 . S
C1415 C1414 1.384 . S
C1415 C1417 1.392 . S
C1415 H1425 0.931 . S
C1416 C1412 1.393 . S
C1416 C1417 1.401 . S
C1416 H1426 0.930 . S
C1417 C1415 1.392 . S
C1417 C1416 1.401 . S
C1417 H1427 0.930 . S
C1418 O1396 1.262 . S
C1418 O1397 1.260 . S
C1419 Tb1355 2.833 . S
C1419 O1394 1.251 . S
C1419 O1399 1.256 . S
C1419 C1412 1.500 . S
H1420 C1403 0.930 . S
H1421 C1404 0.931 . S
H1422 C1405 0.930 . S
H1423 C1406 0.930 . S
H1424 C1413 0.930 . S
H1425 C1415 0.931 . S
H1426 C1416 0.930 . S
H1427 C1417 0.930 . S
Tb1428 N1459 2.660 . S
Tb1428 N1466 2.600 . S
Tb1428 O1472 2.546 . S
Tb1428 O1473 2.610 . S
Tb1428 O1475 2.320 . S
Tb1428 O1476 2.552 . S
Tb1428 O1477 2.413 . S
Tb1428 O1479 2.362 . S
Tb1428 O1480 2.421 . S
Tb1428 C1492 2.833 . S
C1429 C1432 1.432 . S
C1429 C1433 1.414 . S
C1429 N1436 1.359 . S
C1430 C1432 1.417 . S
C1430 C1434 1.432 . S
C1430 C1442 1.410 . S
C1431 C1433 1.444 . S
C1431 C1434 1.317 . S
C1431 H1454 0.929 . S
C1432 C1429 1.432 . S
C1432 C1430 1.417 . S
C1432 N1440 1.360 . S
C1433 C1429 1.414 . S
C1433 C1431 1.444 . S
C1433 C1438 1.385 . S
C1434 C1430 1.432 . S
C1434 C1431 1.317 . S
C1434 H1446 0.930 . S
C1435 C1437 1.392 . S
C1435 C1438 1.370 . S
C1435 H1447 0.931 . S
N1436 C1429 1.359 . S
N1436 C1437 1.327 . S
N1436 Tb1439 2.600 . S
C1437 C1435 1.392 . S
C1437 N1436 1.327 . S
C1437 H1444 0.930 . S
C1438 C1433 1.385 . S
C1438 C1435 1.370 . S
C1438 H1457 0.930 . S
Tb1439 N1436 2.600 . S
Tb1439 N1440 2.660 . S
Tb1439 O1473 2.362 . S
Tb1439 O1474 2.421 . S
Tb1439 O1478 2.546 . S
Tb1439 O1479 2.610 . S
Tb1439 O1481 2.320 . S
Tb1439 O1482 2.552 . S
Tb1439 O1483 2.413 . S
Tb1439 C1503 2.833 . S
N1440 C1432 1.360 . S
N1440 Tb1439 2.660 . S
N1440 C1441 1.305 . S
C1441 N1440 1.305 . S
C1441 C1443 1.407 . S
C1441 H1448 0.930 . S
C1442 C1430 1.410 . S
C1442 C1443 1.345 . S
C1442 H1450 0.930 . S
C1443 C1441 1.407 . S
C1443 C1442 1.345 . S
C1443 H1445 0.930 . S
H1444 C1437 0.930 . S
H1445 C1443 0.930 . S
H1446 C1434 0.930 . S
H1447 C1435 0.931 . S
H1448 C1441 0.930 . S
H1449 C1463 0.930 . S
H1450 C1442 0.930 . S
H1451 C1469 0.930 . S
H1452 C1460 0.930 . S
H1453 C1467 0.931 . S
H1454 C1431 0.929 . S
H1455 C1461 0.930 . S
H1456 C1494 0.930 . S
H1457 C1438 0.930 . S
H1458 C1493 0.929 . S
N1459 Tb1428 2.660 . S
N1459 C1460 1.305 . S
N1459 C1464 1.360 . S
C1460 H1452 0.930 . S
C1460 N1459 1.305 . S
C1460 C1463 1.407 . S
C1461 H1455 0.930 . S
C1461 C1462 1.410 . S
C1461 C1463 1.345 . S
C1462 C1461 1.410 . S
C1462 C1464 1.417 . S
C1462 C1494 1.432 . S
C1463 H1449 0.930 . S
C1463 C1460 1.407 . S
C1463 C1461 1.345 . S
C1464 N1459 1.360 . S
C1464 C1462 1.417 . S
C1464 C1468 1.432 . S
H1465 C1470 0.930 . S
N1466 Tb1428 2.600 . S
N1466 C1468 1.359 . S
N1466 C1469 1.327 . S
C1467 H1453 0.931 . S
C1467 C1469 1.392 . S
C1467 C1470 1.370 . S
C1468 C1464 1.432 . S
C1468 N1466 1.359 . S
C1468 C1471 1.414 . S
C1469 H1451 0.930 . S
C1469 N1466 1.327 . S
C1469 C1467 1.392 . S
C1470 H1465 0.930 . S
C1470 C1467 1.370 . S
C1470 C1471 1.385 . S
C1471 C1468 1.414 . S
C1471 C1470 1.385 . S
C1471 C1493 1.444 . S
O1472 Tb1428 2.546 . S
O1472 C1492 1.251 . S
O1473 Tb1428 2.610 . S
O1473 Tb1439 2.362 . S
O1473 C1484 1.283 . S
O1474 Tb1439 2.421 . S
O1474 C1491 1.262 . S
O1475 Tb1428 2.320 . S
O1475 C1491 1.260 . S
O1476 Tb1428 2.552 . S
O1476 C1484 1.243 . S
O1477 Tb1428 2.413 . S
O1477 C1492 1.256 . S
O1478 Tb1439 2.546 . S
O1478 C1503 1.251 . S
O1479 Tb1428 2.362 . S
O1479 Tb1439 2.610 . S
O1479 C1495 1.283 . S
O1480 Tb1428 2.421 . S
O1480 C1502 1.262 . S
O1481 Tb1439 2.320 . S
O1481 C1502 1.260 . S
O1482 Tb1439 2.552 . S
O1482 C1495 1.243 . S
O1483 Tb1439 2.413 . S
O1483 C1503 1.256 . S
C1484 O1473 1.283 . S
C1484 O1476 1.243 . S
C1485 C1487 1.382 . S
C1485 C1489 1.393 . S
C1485 C1492 1.500 . S
C1486 C1487 1.400 . S
C1486 C1488 1.384 1_565 S
C1487 C1485 1.382 . S
C1487 C1486 1.400 . S
C1487 H1504 0.930 . S
C1488 C1486 1.384 1_545 S
C1488 C1490 1.392 . S
C1488 H1505 0.931 . S
C1489 C1485 1.393 . S
C1489 C1490 1.401 1_565 S
C1489 H1506 0.930 . S
C1490 C1488 1.392 . S
C1490 C1489 1.401 1_545 S
C1490 H1507 0.930 . S
C1491 O1474 1.262 . S
C1491 O1475 1.260 . S
C1492 Tb1428 2.833 . S
C1492 O1472 1.251 . S
C1492 O1477 1.256 . S
C1492 C1485 1.500 . S
C1493 H1458 0.929 . S
C1493 C1471 1.444 . S
C1493 C1494 1.317 . S
C1494 H1456 0.930 . S
C1494 C1462 1.432 . S
C1494 C1493 1.317 . S
C1495 O1479 1.283 . S
C1495 O1482 1.243 . S
C1496 C1497 1.382 . S
C1496 C1500 1.393 . S
C1496 C1503 1.500 . S
C1497 C1496 1.382 . S
C1497 C1498 1.400 . S
C1497 H1508 0.930 . S
C1498 C1497 1.400 . S
C1498 C1499 1.384 . S
C1499 C1498 1.384 . S
C1499 C1501 1.392 . S
C1499 H1509 0.931 . S
C1500 C1496 1.393 . S
C1500 C1501 1.401 . S
C1500 H1510 0.930 . S
C1501 C1499 1.392 . S
C1501 C1500 1.401 . S
C1501 H1511 0.930 . S
C1502 O1480 1.262 . S
C1502 O1481 1.260 . S
C1503 Tb1439 2.833 . S
C1503 O1478 1.251 . S
C1503 O1483 1.256 . S
C1503 C1496 1.500 . S
H1504 C1487 0.930 . S
H1505 C1488 0.931 . S
H1506 C1489 0.930 . S
H1507 C1490 0.930 . S
H1508 C1497 0.930 . S
H1509 C1499 0.931 . S
H1510 C1500 0.930 . S
H1511 C1501 0.930 . S
Tb1512 N1543 2.660 . S
Tb1512 N1550 2.600 . S
Tb1512 O1556 2.546 . S
Tb1512 O1557 2.610 . S
Tb1512 O1559 2.320 . S
Tb1512 O1560 2.552 . S
Tb1512 O1561 2.413 . S
Tb1512 O1563 2.362 . S
Tb1512 O1564 2.421 . S
Tb1512 C1576 2.833 . S
C1513 C1516 1.432 . S
C1513 C1517 1.414 . S
C1513 N1520 1.359 . S
C1514 C1516 1.417 . S
C1514 C1518 1.432 . S
C1514 C1526 1.410 . S
C1515 C1517 1.444 . S
C1515 C1518 1.317 . S
C1515 H1538 0.929 . S
C1516 C1513 1.432 . S
C1516 C1514 1.417 . S
C1516 N1524 1.360 . S
C1517 C1513 1.414 . S
C1517 C1515 1.444 . S
C1517 C1522 1.385 . S
C1518 C1514 1.432 . S
C1518 C1515 1.317 . S
C1518 H1530 0.930 . S
C1519 C1521 1.392 . S
C1519 C1522 1.370 . S
C1519 H1531 0.931 . S
N1520 C1513 1.359 . S
N1520 C1521 1.327 . S
N1520 Tb1523 2.600 . S
C1521 C1519 1.392 . S
C1521 N1520 1.327 . S
C1521 H1528 0.930 . S
C1522 C1517 1.385 . S
C1522 C1519 1.370 . S
C1522 H1541 0.930 . S
Tb1523 N1520 2.600 . S
Tb1523 N1524 2.660 . S
Tb1523 O1557 2.362 . S
Tb1523 O1558 2.421 . S
Tb1523 O1562 2.546 . S
Tb1523 O1563 2.610 . S
Tb1523 O1565 2.320 . S
Tb1523 O1566 2.552 . S
Tb1523 O1567 2.413 . S
Tb1523 C1587 2.833 . S
N1524 C1516 1.360 . S
N1524 Tb1523 2.660 . S
N1524 C1525 1.305 . S
C1525 N1524 1.305 . S
C1525 C1527 1.407 . S
C1525 H1532 0.930 . S
C1526 C1514 1.410 . S
C1526 C1527 1.345 . S
C1526 H1534 0.930 . S
C1527 C1525 1.407 . S
C1527 C1526 1.345 . S
C1527 H1529 0.930 . S
H1528 C1521 0.930 . S
H1529 C1527 0.930 . S
H1530 C1518 0.930 . S
H1531 C1519 0.931 . S
H1532 C1525 0.930 . S
H1533 C1547 0.930 . S
H1534 C1526 0.930 . S
H1535 C1553 0.930 . S
H1536 C1544 0.930 . S
H1537 C1551 0.931 . S
H1538 C1515 0.929 . S
H1539 C1545 0.930 . S
H1540 C1578 0.930 . S
H1541 C1522 0.930 . S
H1542 C1577 0.929 . S
N1543 Tb1512 2.660 . S
N1543 C1544 1.305 . S
N1543 C1548 1.360 . S
C1544 H1536 0.930 . S
C1544 N1543 1.305 . S
C1544 C1547 1.407 . S
C1545 H1539 0.930 . S
C1545 C1546 1.410 . S
C1545 C1547 1.345 . S
C1546 C1545 1.410 . S
C1546 C1548 1.417 . S
C1546 C1578 1.432 . S
C1547 H1533 0.930 . S
C1547 C1544 1.407 . S
C1547 C1545 1.345 . S
C1548 N1543 1.360 . S
C1548 C1546 1.417 . S
C1548 C1552 1.432 . S
H1549 C1554 0.930 . S
N1550 Tb1512 2.600 . S
N1550 C1552 1.359 . S
N1550 C1553 1.327 . S
C1551 H1537 0.931 . S
C1551 C1553 1.392 . S
C1551 C1554 1.370 . S
C1552 C1548 1.432 . S
C1552 N1550 1.359 . S
C1552 C1555 1.414 . S
C1553 H1535 0.930 . S
C1553 N1550 1.327 . S
C1553 C1551 1.392 . S
C1554 H1549 0.930 . S
C1554 C1551 1.370 . S
C1554 C1555 1.385 . S
C1555 C1552 1.414 . S
C1555 C1554 1.385 . S
C1555 C1577 1.444 . S
O1556 Tb1512 2.546 . S
O1556 C1576 1.251 . S
O1557 Tb1512 2.610 . S
O1557 Tb1523 2.362 . S
O1557 C1568 1.283 . S
O1558 Tb1523 2.421 . S
O1558 C1575 1.262 . S
O1559 Tb1512 2.320 . S
O1559 C1575 1.260 . S
O1560 Tb1512 2.552 . S
O1560 C1568 1.243 . S
O1561 Tb1512 2.413 . S
O1561 C1576 1.256 . S
O1562 Tb1523 2.546 . S
O1562 C1587 1.251 . S
O1563 Tb1512 2.362 . S
O1563 Tb1523 2.610 . S
O1563 C1579 1.283 . S
O1564 Tb1512 2.421 . S
O1564 C1586 1.262 . S
O1565 Tb1523 2.320 . S
O1565 C1586 1.260 . S
O1566 Tb1523 2.552 . S
O1566 C1579 1.243 . S
O1567 Tb1523 2.413 . S
O1567 C1587 1.256 . S
C1568 O1557 1.283 . S
C1568 O1560 1.243 . S
C1569 C1571 1.382 . S
C1569 C1573 1.393 . S
C1569 C1576 1.500 . S
C1570 C1571 1.400 . S
C1570 C1572 1.384 . S
C1571 C1569 1.382 . S
C1571 C1570 1.400 . S
C1571 H1588 0.930 . S
C1572 C1570 1.384 . S
C1572 C1574 1.392 . S
C1572 H1589 0.931 . S
C1573 C1569 1.393 . S
C1573 C1574 1.401 . S
C1573 H1590 0.930 . S
C1574 C1572 1.392 . S
C1574 C1573 1.401 . S
C1574 H1591 0.930 . S
C1575 O1558 1.262 . S
C1575 O1559 1.260 . S
C1576 Tb1512 2.833 . S
C1576 O1556 1.251 . S
C1576 O1561 1.256 . S
C1576 C1569 1.500 . S
C1577 H1542 0.929 . S
C1577 C1555 1.444 . S
C1577 C1578 1.317 . S
C1578 H1540 0.930 . S
C1578 C1546 1.432 . S
C1578 C1577 1.317 . S
C1579 O1563 1.283 . S
C1579 O1566 1.243 . S
C1580 C1581 1.382 . S
C1580 C1584 1.393 . S
C1580 C1587 1.500 . S
C1581 C1580 1.382 . S
C1581 C1582 1.400 . S
C1581 H1592 0.930 . S
C1582 C1581 1.400 . S
C1582 C1583 1.384 . S
C1583 C1582 1.384 . S
C1583 C1585 1.392 . S
C1583 H1593 0.931 . S
C1584 C1580 1.393 . S
C1584 C1585 1.401 . S
C1584 H1594 0.930 . S
C1585 C1583 1.392 . S
C1585 C1584 1.401 . S
C1585 H1595 0.930 . S
C1586 O1564 1.262 . S
C1586 O1565 1.260 . S
C1587 Tb1523 2.833 . S
C1587 O1562 1.251 . S
C1587 O1567 1.256 . S
C1587 C1580 1.500 . S
H1588 C1571 0.930 . S
H1589 C1572 0.931 . S
H1590 C1573 0.930 . S
H1591 C1574 0.930 . S
H1592 C1581 0.930 . S
H1593 C1583 0.931 . S
H1594 C1584 0.930 . S
H1595 C1585 0.930 . S
Tb1596 N1627 2.660 1_556 S
Tb1596 N1634 2.600 . S
Tb1596 O1640 2.546 . S
Tb1596 O1641 2.610 1_556 S
Tb1596 O1643 2.320 1_556 S
Tb1596 O1644 2.552 . S
Tb1596 O1645 2.413 1_556 S
Tb1596 O1647 2.362 1_556 S
Tb1596 O1648 2.421 . S
Tb1596 C1660 2.833 . S
C1597 C1600 1.432 . S
C1597 C1601 1.414 . S
C1597 N1604 1.359 1_655 S
C1598 C1600 1.417 . S
C1598 C1602 1.432 . S
C1598 C1610 1.410 1_554 S
C1599 C1601 1.444 . S
C1599 C1602 1.317 . S
C1599 H1622 0.929 . S
C1600 C1597 1.432 . S
C1600 C1598 1.417 . S
C1600 N1608 1.360 . S
C1601 C1597 1.414 . S
C1601 C1599 1.444 . S
C1601 C1606 1.385 . S
C1602 C1598 1.432 . S
C1602 C1599 1.317 . S
C1602 H1614 0.930 . S
C1603 C1605 1.392 . S
C1603 C1606 1.370 1_455 S
C1603 H1615 0.931 . S
N1604 C1597 1.359 1_455 S
N1604 C1605 1.327 . S
N1604 Tb1607 2.600 . S
C1605 C1603 1.392 . S
C1605 N1604 1.327 . S
C1605 H1612 0.930 . S
C1606 C1601 1.385 . S
C1606 C1603 1.370 1_655 S
C1606 H1625 0.930 . S
Tb1607 N1604 2.600 . S
Tb1607 N1608 2.660 1_455 S
Tb1607 O1641 2.362 . S
Tb1607 O1642 2.421 . S
Tb1607 O1646 2.546 . S
Tb1607 O1647 2.610 . S
Tb1607 O1649 2.320 1_554 S
Tb1607 O1650 2.552 . S
Tb1607 O1651 2.413 1_455 S
Tb1607 C1671 2.833 1_455 S
N1608 C1600 1.360 . S
N1608 Tb1607 2.660 1_655 S
N1608 C1609 1.305 1_554 S
C1609 N1608 1.305 1_556 S
C1609 C1611 1.407 . S
C1609 H1616 0.930 . S
C1610 C1598 1.410 1_556 S
C1610 C1611 1.345 . S
C1610 H1618 0.930 . S
C1611 C1609 1.407 . S
C1611 C1610 1.345 . S
C1611 H1613 0.930 . S
H1612 C1605 0.930 . S
H1613 C1611 0.930 . S
H1614 C1602 0.930 . S
H1615 C1603 0.931 . S
H1616 C1609 0.930 . S
H1617 C1631 0.930 . S
H1618 C1610 0.930 . S
H1619 C1637 0.930 . S
H1620 C1628 0.930 . S
H1621 C1635 0.931 . S
H1622 C1599 0.929 . S
H1623 C1629 0.930 . S
H1624 C1662 0.930 . S
H1625 C1606 0.930 . S
H1626 C1661 0.929 . S
N1627 Tb1596 2.660 1_554 S
N1627 C1628 1.305 . S
N1627 C1632 1.372 . S
C1628 H1620 0.930 . S
C1628 N1627 1.305 . S
C1628 C1631 1.407 . S
C1629 H1623 0.930 . S
C1629 C1630 1.410 . S
C1629 C1631 1.345 . S
C1630 C1629 1.410 . S
C1630 C1632 1.418 . S
C1630 C1662 1.432 1_554 S
C1631 H1617 0.930 . S
C1631 C1628 1.407 . S
C1631 C1629 1.345 . S
C1632 N1627 1.372 . S
C1632 C1630 1.418 . S
C1632 C1636 1.419 1_554 S
H1633 C1638 0.930 . S
N1634 Tb1596 2.600 . S
N1634 C1636 1.359 . S
N1634 C1637 1.327 . S
C1635 H1621 0.931 . S
C1635 C1637 1.392 . S
C1635 C1638 1.370 . S
C1636 C1632 1.419 1_556 S
C1636 N1634 1.359 . S
C1636 C1639 1.414 . S
C1637 H1619 0.930 . S
C1637 N1634 1.327 . S
C1637 C1635 1.392 . S
C1638 H1633 0.930 . S
C1638 C1635 1.370 . S
C1638 C1639 1.385 . S
C1639 C1636 1.414 . S
C1639 C1638 1.385 . S
C1639 C1661 1.444 . S
O1640 Tb1596 2.546 . S
O1640 C1660 1.251 . S
O1641 Tb1596 2.610 1_554 S
O1641 Tb1607 2.362 . S
O1641 C1652 1.283 . S
O1642 Tb1607 2.421 . S
O1642 C1659 1.262 . S
O1643 Tb1596 2.320 1_554 S
O1643 C1659 1.260 . S
O1644 Tb1596 2.552 . S
O1644 C1652 1.243 1_556 S
O1645 Tb1596 2.413 1_554 S
O1645 C1660 1.256 1_554 S
O1646 Tb1607 2.546 . S
O1646 C1671 1.251 1_455 S
O1647 Tb1596 2.362 1_554 S
O1647 Tb1607 2.610 . S
O1647 C1663 1.283 . S
O1648 Tb1596 2.421 . S
O1648 C1670 1.262 . S
O1649 Tb1607 2.320 1_556 S
O1649 C1670 1.260 . S
O1650 Tb1607 2.552 . S
O1650 C1663 1.243 . S
O1651 Tb1607 2.413 1_655 S
O1651 C1671 1.256 . S
C1652 O1641 1.283 . S
C1652 O1644 1.243 1_554 S
C1653 C1655 1.382 . S
C1653 C1657 1.393 . S
C1653 C1660 1.500 . S
C1654 C1655 1.400 . S
C1654 C1656 1.384 . S
C1655 C1653 1.382 . S
C1655 C1654 1.400 . S
C1655 H1672 0.930 1_556 S
C1656 C1654 1.384 . S
C1656 C1658 1.392 . S
C1656 H1673 0.931 . S
C1657 C1653 1.393 . S
C1657 C1658 1.401 . S
C1657 H1674 0.930 . S
C1658 C1656 1.392 . S
C1658 C1657 1.401 . S
C1658 H1675 0.930 . S
C1659 O1642 1.262 . S
C1659 O1643 1.260 . S
C1660 Tb1596 2.833 . S
C1660 O1640 1.251 . S
C1660 O1645 1.256 1_556 S
C1660 C1653 1.500 . S
C1661 H1626 0.929 . S
C1661 C1639 1.444 . S
C1661 C1662 1.317 . S
C1662 H1624 0.930 . S
C1662 C1630 1.432 1_556 S
C1662 C1661 1.317 . S
C1663 O1647 1.283 . S
C1663 O1650 1.243 . S
C1664 C1665 1.382 . S
C1664 C1668 1.393 . S
C1664 C1671 1.500 . S
C1665 C1664 1.382 . S
C1665 C1666 1.400 . S
C1665 H1676 0.930 . S
C1666 C1665 1.400 . S
C1666 C1667 1.384 . S
C1667 C1666 1.384 . S
C1667 C1669 1.392 . S
C1667 H1677 0.931 . S
C1668 C1664 1.393 . S
C1668 C1669 1.401 . S
C1668 H1678 0.930 . S
C1669 C1667 1.392 . S
C1669 C1668 1.401 . S
C1669 H1679 0.930 . S
C1670 O1648 1.262 . S
C1670 O1649 1.260 . S
C1671 Tb1607 2.833 1_655 S
C1671 O1646 1.251 1_655 S
C1671 O1651 1.256 . S
C1671 C1664 1.500 . S
H1672 C1655 0.930 1_554 S
H1673 C1656 0.931 . S
H1674 C1657 0.930 . S
H1675 C1658 0.930 . S
H1676 C1665 0.930 . S
H1677 C1667 0.931 . S
H1678 C1668 0.930 . S
H1679 C1669 0.930 . S
C1680 C1681 1.369 1_554 S
C1680 C1682 1.419 . S
C1680 H1684 0.930 . S
C1681 C1680 1.369 1_556 S
C1681 C1690 1.429 . S
C1682 C1680 1.419 . S
C1682 C1683 1.363 . S
C1682 H1685 0.929 . S
C1683 C1682 1.363 . S
C1683 C1689 1.428 1_554 S
H1684 C1680 0.930 . S
H1685 C1682 0.929 . S
S1686 N1687 1.613 . S
S1686 N1688 1.610 . S
N1687 S1686 1.613 . S
N1687 C1690 1.350 1_655 S
N1688 S1686 1.610 . S
N1688 C1689 1.351 1_655 S
C1689 C1683 1.428 1_556 S
C1689 N1688 1.351 1_455 S
C1689 C1690 1.434 . S
C1690 C1681 1.429 . S
C1690 N1687 1.350 1_455 S
C1690 C1689 1.434 . S
C1691 C1692 1.369 . S
C1691 C1693 1.419 . S
C1691 H1695 0.930 . S
C1692 C1691 1.369 . S
C1692 C1701 1.429 . S
C1693 C1691 1.419 . S
C1693 C1694 1.363 . S
C1693 H1696 0.929 . S
C1694 C1693 1.363 . S
C1694 C1700 1.428 . S
H1695 C1691 0.930 . S
H1696 C1693 0.929 . S
S1697 N1698 1.613 . S
S1697 N1699 1.610 . S
N1698 S1697 1.613 . S
N1698 C1701 1.350 . S
N1699 S1697 1.610 . S
N1699 C1700 1.351 . S
C1700 C1694 1.428 . S
C1700 N1699 1.351 . S
C1700 C1701 1.434 . S
C1701 C1692 1.429 . S
C1701 N1698 1.350 . S
C1701 C1700 1.434 . S
C1702 C1703 1.369 . S
C1702 C1704 1.419 . S
C1702 H1706 0.930 . S
C1703 C1702 1.369 . S
C1703 C1712 1.429 . S
C1704 C1702 1.419 . S
C1704 C1705 1.363 . S
C1704 H1707 0.929 . S
C1705 C1704 1.363 . S
C1705 C1711 1.428 . S
H1706 C1702 0.930 . S
H1707 C1704 0.929 . S
S1708 N1709 1.613 . S
S1708 N1710 1.610 . S
N1709 S1708 1.613 . S
N1709 C1712 1.350 . S
N1710 S1708 1.610 . S
N1710 C1711 1.351 . S
C1711 C1705 1.428 . S
C1711 N1710 1.351 . S
C1711 C1712 1.434 . S
C1712 C1703 1.429 . S
C1712 N1709 1.350 . S
C1712 C1711 1.434 . S
C1713 C1714 1.369 . S
C1713 C1715 1.419 . S
C1713 H1717 0.930 . S
C1714 C1713 1.369 . S
C1714 C1723 1.429 . S
C1715 C1713 1.419 . S
C1715 C1716 1.363 . S
C1715 H1718 0.929 . S
C1716 C1715 1.363 . S
C1716 C1722 1.428 . S
H1717 C1713 0.930 . S
H1718 C1715 0.929 . S
S1719 N1720 1.613 . S
S1719 N1721 1.610 . S
N1720 S1719 1.613 . S
N1720 C1723 1.350 . S
N1721 S1719 1.610 . S
N1721 C1722 1.351 . S
C1722 C1716 1.428 . S
C1722 N1721 1.351 . S
C1722 C1723 1.434 . S
C1723 C1714 1.429 . S
C1723 N1720 1.350 . S
C1723 C1722 1.434 . S
C1724 C1725 1.369 . S
C1724 C1726 1.419 . S
C1724 H1728 0.930 . S
C1725 C1724 1.369 . S
C1725 C1734 1.429 1_455 S
C1726 C1724 1.419 . S
C1726 C1727 1.363 . S
C1726 H1729 0.929 . S
C1727 C1726 1.363 . S
C1727 C1733 1.428 . S
H1728 C1724 0.930 . S
H1729 C1726 0.929 . S
S1730 N1731 1.613 . S
S1730 N1732 1.610 . S
N1731 S1730 1.613 . S
N1731 C1734 1.350 . S
N1732 S1730 1.610 . S
N1732 C1733 1.351 1_655 S
C1733 C1727 1.428 . S
C1733 N1732 1.351 1_455 S
C1733 C1734 1.434 1_455 S
C1734 C1725 1.429 1_655 S
C1734 N1731 1.350 . S
C1734 C1733 1.434 1_655 S
C1735 C1736 1.369 . S
C1735 C1737 1.419 . S
C1735 H1739 0.930 . S
C1736 C1735 1.369 . S
C1736 C1745 1.429 . S
C1737 C1735 1.419 . S
C1737 C1738 1.363 . S
C1737 H1740 0.929 . S
C1738 C1737 1.363 . S
C1738 C1744 1.428 . S
H1739 C1735 0.930 . S
H1740 C1737 0.929 . S
S1741 N1742 1.613 . S
S1741 N1743 1.610 . S
N1742 S1741 1.613 . S
N1742 C1745 1.350 . S
N1743 S1741 1.610 . S
N1743 C1744 1.351 . S
C1744 C1738 1.428 . S
C1744 N1743 1.351 . S
C1744 C1745 1.434 . S
C1745 C1736 1.429 . S
C1745 N1742 1.350 . S
C1745 C1744 1.434 . S
C1746 C1747 1.369 . S
C1746 C1748 1.419 . S
C1746 H1750 0.930 . S
C1747 C1746 1.369 . S
C1747 C1756 1.429 . S
C1748 C1746 1.419 . S
C1748 C1749 1.363 . S
C1748 H1751 0.929 . S
C1749 C1748 1.363 . S
C1749 C1755 1.428 . S
H1750 C1746 0.930 . S
H1751 C1748 0.929 . S
S1752 N1753 1.613 . S
S1752 N1754 1.610 . S
N1753 S1752 1.613 . S
N1753 C1756 1.350 . S
N1754 S1752 1.610 . S
N1754 C1755 1.351 . S
C1755 C1749 1.428 . S
C1755 N1754 1.351 . S
C1755 C1756 1.434 . S
C1756 C1747 1.429 . S
C1756 N1753 1.350 . S
C1756 C1755 1.434 . S
C1757 C1758 1.369 . S
C1757 C1759 1.419 . S
C1757 H1761 0.930 . S
C1758 C1757 1.369 . S
C1758 C1767 1.429 . S
C1759 C1757 1.419 . S
C1759 C1760 1.363 . S
C1759 H1762 0.929 . S
C1760 C1759 1.363 . S
C1760 C1766 1.428 . S
H1761 C1757 0.930 . S
H1762 C1759 0.929 . S
S1763 N1764 1.613 . S
S1763 N1765 1.610 . S
N1764 S1763 1.613 . S
N1764 C1767 1.350 . S
N1765 S1763 1.610 . S
N1765 C1766 1.351 . S
C1766 C1760 1.428 . S
C1766 N1765 1.351 . S
C1766 C1767 1.434 . S
C1767 C1758 1.429 . S
C1767 N1764 1.350 . S
C1767 C1766 1.434 . S
C1768 C1769 1.369 . S
C1768 C1770 1.419 . S
C1768 H1772 0.930 . S
C1769 C1768 1.369 . S
C1769 C1778 1.429 1_455 S
C1770 C1768 1.419 . S
C1770 C1771 1.363 . S
C1770 H1773 0.929 . S
C1771 C1770 1.363 . S
C1771 C1777 1.428 . S
H1772 C1768 0.930 . S
H1773 C1770 0.929 . S
S1774 N1775 1.613 1_565 S
S1774 N1776 1.610 1_565 S
N1775 S1774 1.613 1_545 S
N1775 C1778 1.350 . S
N1776 S1774 1.610 1_545 S
N1776 C1777 1.351 1_655 S
C1777 C1771 1.428 . S
C1777 N1776 1.351 1_455 S
C1777 C1778 1.434 1_455 S
C1778 C1769 1.429 1_655 S
C1778 N1775 1.350 . S
C1778 C1777 1.434 1_655 S
C1779 C1780 1.369 . S
C1779 C1781 1.419 . S
C1779 H1783 0.930 . S
C1780 C1779 1.369 . S
C1780 C1789 1.429 . S
C1781 C1779 1.419 . S
C1781 C1782 1.363 . S
C1781 H1784 0.929 . S
C1782 C1781 1.363 . S
C1782 C1788 1.428 . S
H1783 C1779 0.930 . S
H1784 C1781 0.929 . S
S1785 N1786 1.613 . S
S1785 N1787 1.610 . S
N1786 S1785 1.613 . S
N1786 C1789 1.350 . S
N1787 S1785 1.610 . S
N1787 C1788 1.351 . S
C1788 C1782 1.428 . S
C1788 N1787 1.351 . S
C1788 C1789 1.434 . S
C1789 C1780 1.429 . S
C1789 N1786 1.350 . S
C1789 C1788 1.434 . S
C1790 C1791 1.369 . S
C1790 C1792 1.419 . S
C1790 H1794 0.930 . S
C1791 C1790 1.369 . S
C1791 C1800 1.429 . S
C1792 C1790 1.419 . S
C1792 C1793 1.363 . S
C1792 H1795 0.929 . S
C1793 C1792 1.363 . S
C1793 C1799 1.428 . S
H1794 C1790 0.930 . S
H1795 C1792 0.929 . S
S1796 N1797 1.613 . S
S1796 N1798 1.610 . S
N1797 S1796 1.613 . S
N1797 C1800 1.350 . S
N1798 S1796 1.610 . S
N1798 C1799 1.351 . S
C1799 C1793 1.428 . S
C1799 N1798 1.351 . S
C1799 C1800 1.434 . S
C1800 C1791 1.429 . S
C1800 N1797 1.350 . S
C1800 C1799 1.434 . S
C1801 C1802 1.369 . S
C1801 C1803 1.419 . S
C1801 H1805 0.930 . S
C1802 C1801 1.369 . S
C1802 C1811 1.429 . S
C1803 C1801 1.419 . S
C1803 C1804 1.363 . S
C1803 H1806 0.929 . S
C1804 C1803 1.363 . S
C1804 C1810 1.428 . S
H1805 C1801 0.930 . S
H1806 C1803 0.929 . S
S1807 N1808 1.613 . S
S1807 N1809 1.610 . S
N1808 S1807 1.613 . S
N1808 C1811 1.350 . S
N1809 S1807 1.610 . S
N1809 C1810 1.351 . S
C1810 C1804 1.428 . S
C1810 N1809 1.351 . S
C1810 C1811 1.434 . S
C1811 C1802 1.429 . S
C1811 N1808 1.350 . S
C1811 C1810 1.434 . S
C1812 C1813 1.369 . S
C1812 C1814 1.419 . S
C1812 H1816 0.930 . S
C1813 C1812 1.369 . S
C1813 C1822 1.429 1_455 S
C1814 C1812 1.419 . S
C1814 C1815 1.363 . S
C1814 H1817 0.929 . S
C1815 C1814 1.363 . S
C1815 C1821 1.428 . S
H1816 C1812 0.930 . S
H1817 C1814 0.929 . S
S1818 N1819 1.613 . S
S1818 N1820 1.610 . S
N1819 S1818 1.613 . S
N1819 C1822 1.350 . S
N1820 S1818 1.610 . S
N1820 C1821 1.351 1_655 S
C1821 C1815 1.428 . S
C1821 N1820 1.351 1_455 S
C1821 C1822 1.434 1_455 S
C1822 C1813 1.429 1_655 S
C1822 N1819 1.350 . S
C1822 C1821 1.434 1_655 S
C1823 C1824 1.369 . S
C1823 C1825 1.419 . S
C1823 H1827 0.930 . S
C1824 C1823 1.369 . S
C1824 C1833 1.429 . S
C1825 C1823 1.419 . S
C1825 C1826 1.363 . S
C1825 H1828 0.929 . S
C1826 C1825 1.363 . S
C1826 C1832 1.428 . S
H1827 C1823 0.930 . S
H1828 C1825 0.929 . S
S1829 N1830 1.613 . S
S1829 N1831 1.610 . S
N1830 S1829 1.613 . S
N1830 C1833 1.350 . S
N1831 S1829 1.610 . S
N1831 C1832 1.351 . S
C1832 C1826 1.428 . S
C1832 N1831 1.351 . S
C1832 C1833 1.434 . S
C1833 C1824 1.429 . S
C1833 N1830 1.350 . S
C1833 C1832 1.434 . S
C1834 C1835 1.369 . S
C1834 C1836 1.419 . S
C1834 H1838 0.930 . S
C1835 C1834 1.369 . S
C1835 C1844 1.429 . S
C1836 C1834 1.419 . S
C1836 C1837 1.363 . S
C1836 H1839 0.929 . S
C1837 C1836 1.363 . S
C1837 C1843 1.428 . S
H1838 C1834 0.930 . S
H1839 C1836 0.929 . S
S1840 N1841 1.613 . S
S1840 N1842 1.610 . S
N1841 S1840 1.613 . S
N1841 C1844 1.350 . S
N1842 S1840 1.610 . S
N1842 C1843 1.351 . S
C1843 C1837 1.428 . S
C1843 N1842 1.351 . S
C1843 C1844 1.434 . S
C1844 C1835 1.429 . S
C1844 N1841 1.350 . S
C1844 C1843 1.434 . S
C1845 C1846 1.369 . S
C1845 C1847 1.419 . S
C1845 H1849 0.930 . S
C1846 C1845 1.369 . S
C1846 C1855 1.429 . S
C1847 C1845 1.419 . S
C1847 C1848 1.363 . S
C1847 H1850 0.929 . S
C1848 C1847 1.363 . S
C1848 C1854 1.428 . S
H1849 C1845 0.930 . S
H1850 C1847 0.929 . S
S1851 N1852 1.613 . S
S1851 N1853 1.610 . S
N1852 S1851 1.613 . S
N1852 C1855 1.350 . S
N1853 S1851 1.610 . S
N1853 C1854 1.351 . S
C1854 C1848 1.428 . S
C1854 N1853 1.351 . S
C1854 C1855 1.434 . S
C1855 C1846 1.429 . S
C1855 N1852 1.350 . S
C1855 C1854 1.434 . S
C1856 C1857 1.369 1_556 S
C1856 C1858 1.423 . S
C1856 H1860 0.930 . S
C1857 C1856 1.369 1_554 S
C1857 C1866 1.429 1_565 S
C1858 C1856 1.423 . S
C1858 C1859 1.351 1_566 S
C1858 H1861 0.937 . S
C1859 C1858 1.351 1_544 S
C1859 C1865 1.428 . S
H1860 C1856 0.930 . S
H1861 C1858 0.937 . S
S1862 N1863 1.613 . S
S1862 N1864 1.610 . S
N1863 S1862 1.613 . S
N1863 C1866 1.350 . S
N1864 S1862 1.610 . S
N1864 C1865 1.351 . S
C1865 C1859 1.428 . S
C1865 N1864 1.351 . S
C1865 C1866 1.434 . S
C1866 C1857 1.429 1_545 S
C1866 N1863 1.350 . S
C1866 C1865 1.434 . S
C1867 C1868 1.369 . S
C1867 C1869 1.419 . S
C1867 H1871 0.930 . S
C1868 C1867 1.369 . S
C1868 C1877 1.429 1_556 S
C1869 C1867 1.419 . S
C1869 C1870 1.363 . S
C1869 H1872 0.929 . S
C1870 C1869 1.363 . S
C1870 C1876 1.428 1_556 S
H1871 C1867 0.930 . S
H1872 C1869 0.929 . S
S1873 N1874 1.613 . S
S1873 N1875 1.610 . S
N1874 S1873 1.613 . S
N1874 C1877 1.350 . S
N1875 S1873 1.610 . S
N1875 C1876 1.351 . S
C1876 C1870 1.428 1_554 S
C1876 N1875 1.351 . S
C1876 C1877 1.434 . S
C1877 C1868 1.429 1_554 S
C1877 N1874 1.350 . S
C1877 C1876 1.434 . S
C1878 C1879 1.369 . S
C1878 C1880 1.419 . S
C1878 H1882 0.930 . S
C1879 C1878 1.369 . S
C1879 C1888 1.429 . S
C1880 C1878 1.419 . S
C1880 C1881 1.363 . S
C1880 H1883 0.929 . S
C1881 C1880 1.363 . S
C1881 C1887 1.428 . S
H1882 C1878 0.930 . S
H1883 C1880 0.929 . S
S1884 N1885 1.613 . S
S1884 N1886 1.610 . S
N1885 S1884 1.613 . S
N1885 C1888 1.350 . S
N1886 S1884 1.610 . S
N1886 C1887 1.351 . S
C1887 C1881 1.428 . S
C1887 N1886 1.351 . S
C1887 C1888 1.434 . S
C1888 C1879 1.429 . S
C1888 N1885 1.350 . S
C1888 C1887 1.434 . S
C1889 C1890 1.369 . S
C1889 C1891 1.419 . S
C1889 H1893 0.930 . S
C1890 C1889 1.369 . S
C1890 C1899 1.429 . S
C1891 C1889 1.419 . S
C1891 C1892 1.378 . S
C1891 H1894 0.929 . S
C1892 C1891 1.378 . S
C1892 C1898 1.440 . S
H1893 C1889 0.930 . S
H1894 C1891 0.929 . S
S1895 N1896 1.613 . S
S1895 N1897 1.610 1_655 S
N1896 S1895 1.613 . S
N1896 C1899 1.350 . S
N1897 S1895 1.610 1_455 S
N1897 C1898 1.351 1_455 S
C1898 C1892 1.440 . S
C1898 N1897 1.351 1_655 S
C1898 C1899 1.434 . S
C1899 C1890 1.429 . S
C1899 N1896 1.350 . S
C1899 C1898 1.434 . S
C1900 C1901 1.369 . S
C1900 C1902 1.419 . S
C1900 H1904 0.930 . S
C1901 C1900 1.369 . S
C1901 C1910 1.429 . S
C1902 C1900 1.419 . S
C1902 C1903 1.363 . S
C1902 H1905 0.929 . S
C1903 C1902 1.363 . S
C1903 C1909 1.428 . S
H1904 C1900 0.930 . S
H1905 C1902 0.929 . S
S1906 N1907 1.613 . S
S1906 N1908 1.610 . S
N1907 S1906 1.613 . S
N1907 C1910 1.350 . S
N1908 S1906 1.610 . S
N1908 C1909 1.351 . S
C1909 C1903 1.428 . S
C1909 N1908 1.351 . S
C1909 C1910 1.434 . S
C1910 C1901 1.429 . S
C1910 N1907 1.350 . S
C1910 C1909 1.434 . S
C1911 C1912 1.369 . S
C1911 C1913 1.419 . S
C1911 H1915 0.930 . S
C1912 C1911 1.369 . S
C1912 C1921 1.429 . S
C1913 C1911 1.419 . S
C1913 C1914 1.363 . S
C1913 H1916 0.929 . S
C1914 C1913 1.363 . S
C1914 C1920 1.428 . S
H1915 C1911 0.930 . S
H1916 C1913 0.929 . S
S1917 N1918 1.613 . S
S1917 N1919 1.610 . S
N1918 S1917 1.613 . S
N1918 C1921 1.350 . S
N1919 S1917 1.610 . S
N1919 C1920 1.351 . S
C1920 C1914 1.428 . S
C1920 N1919 1.351 . S
C1920 C1921 1.434 . S
C1921 C1912 1.429 . S
C1921 N1918 1.350 . S
C1921 C1920 1.434 . S
C1922 C1923 1.369 . S
C1922 C1924 1.419 . S
C1922 H1926 0.930 . S
C1923 C1922 1.369 . S
C1923 C1932 1.429 . S
C1924 C1922 1.419 . S
C1924 C1925 1.363 . S
C1924 H1927 0.929 . S
C1925 C1924 1.363 . S
C1925 C1931 1.428 . S
H1926 C1922 0.930 . S
H1927 C1924 0.929 . S
S1928 N1929 1.613 . S
S1928 N1930 1.610 . S
N1929 S1928 1.613 . S
N1929 C1932 1.350 . S
N1930 S1928 1.610 . S
N1930 C1931 1.351 . S
C1931 C1925 1.428 . S
C1931 N1930 1.351 . S
C1931 C1932 1.434 . S
C1932 C1923 1.429 . S
C1932 N1929 1.350 . S
C1932 C1931 1.434 . S
C1933 C1934 1.369 . S
C1933 C1935 1.419 . S
C1933 H1937 0.930 . S
C1934 C1933 1.369 . S
C1934 C1943 1.429 . S
C1935 C1933 1.419 . S
C1935 C1936 1.363 . S
C1935 H1938 0.929 . S
C1936 C1935 1.363 . S
C1936 C1942 1.428 . S
H1937 C1933 0.930 . S
H1938 C1935 0.929 . S
S1939 N1940 1.613 . S
S1939 N1941 1.610 . S
N1940 S1939 1.613 . S
N1940 C1943 1.350 . S
N1941 S1939 1.610 . S
N1941 C1942 1.351 . S
C1942 C1936 1.428 . S
C1942 N1941 1.351 . S
C1942 C1943 1.434 . S
C1943 C1934 1.429 . S
C1943 N1940 1.350 . S
C1943 C1942 1.434 . S
C1944 C1945 1.369 . S
C1944 C1946 1.419 . S
C1944 H1948 0.930 . S
C1945 C1944 1.369 . S
C1945 C1954 1.429 . S
C1946 C1944 1.419 . S
C1946 C1947 1.363 . S
C1946 H1949 0.929 . S
C1947 C1946 1.363 . S
C1947 C1953 1.445 . S
H1948 C1944 0.930 . S
H1949 C1946 0.929 . S
S1950 N1951 1.613 . S
S1950 N1952 1.610 . S
N1951 S1950 1.613 . S
N1951 C1954 1.350 1_556 S
N1952 S1950 1.610 . S
N1952 C1953 1.320 1_556 S
C1953 C1947 1.445 . S
C1953 N1952 1.320 1_554 S
C1953 C1954 1.449 . S
C1954 C1945 1.429 . S
C1954 N1951 1.350 1_554 S
C1954 C1953 1.449 . S
C1955 C1956 1.369 . S
C1955 C1957 1.419 . S
C1955 H1959 0.930 . S
C1956 C1955 1.369 . S
C1956 C1965 1.429 . S
C1957 C1955 1.419 . S
C1957 C1958 1.363 . S
C1957 H1960 0.929 . S
C1958 C1957 1.363 . S
C1958 C1964 1.428 . S
H1959 C1955 0.930 . S
H1960 C1957 0.929 . S
S1961 N1962 1.613 . S
S1961 N1963 1.610 . S
N1962 S1961 1.613 . S
N1962 C1965 1.350 . S
N1963 S1961 1.610 . S
N1963 C1964 1.351 . S
C1964 C1958 1.428 . S
C1964 N1963 1.351 . S
C1964 C1965 1.434 . S
C1965 C1956 1.429 . S
C1965 N1962 1.350 . S
C1965 C1964 1.434 . S
C1966 C1967 1.369 . S
C1966 C1968 1.419 . S
C1966 H1970 0.930 . S
C1967 C1966 1.369 . S
C1967 C1976 1.429 . S
C1968 C1966 1.419 . S
C1968 C1969 1.363 . S
C1968 H1971 0.929 . S
C1969 C1968 1.363 . S
C1969 C1975 1.428 . S
H1970 C1966 0.930 . S
H1971 C1968 0.929 . S
S1972 N1973 1.613 . S
S1972 N1974 1.610 . S
N1973 S1972 1.613 . S
N1973 C1976 1.350 . S
N1974 S1972 1.610 . S
N1974 C1975 1.351 . S
C1975 C1969 1.428 . S
C1975 N1974 1.351 . S
C1975 C1976 1.434 . S
C1976 C1967 1.429 . S
C1976 N1973 1.350 . S
C1976 C1975 1.434 . S
C1977 C1978 1.369 . S
C1977 C1979 1.419 . S
C1977 H1981 0.930 . S
C1978 C1977 1.369 . S
C1978 C1987 1.429 . S
C1979 C1977 1.419 . S
C1979 C1980 1.363 . S
C1979 H1982 0.929 . S
C1980 C1979 1.363 . S
C1980 C1986 1.428 . S
H1981 C1977 0.930 . S
H1982 C1979 0.929 . S
S1983 N1984 1.613 . S
S1983 N1985 1.610 . S
N1984 S1983 1.613 . S
N1984 C1987 1.350 . S
N1985 S1983 1.610 . S
N1985 C1986 1.351 . S
C1986 C1980 1.428 . S
C1986 N1985 1.351 . S
C1986 C1987 1.434 . S
C1987 C1978 1.429 . S
C1987 N1984 1.350 . S
C1987 C1986 1.434 . S
C1988 C1989 1.369 . S
C1988 C1990 1.419 . S
C1988 H1992 0.930 . S
C1989 C1988 1.369 . S
C1989 C1998 1.429 . S
C1990 C1988 1.419 . S
C1990 C1991 1.363 . S
C1990 H1993 0.929 . S
C1991 C1990 1.363 . S
C1991 C1997 1.428 . S
H1992 C1988 0.930 . S
H1993 C1990 0.929 . S
S1994 N1995 1.613 . S
S1994 N1996 1.610 . S
N1995 S1994 1.613 . S
N1995 C1998 1.350 . S
N1996 S1994 1.610 . S
N1996 C1997 1.351 . S
C1997 C1991 1.428 . S
C1997 N1996 1.351 . S
C1997 C1998 1.434 . S
C1998 C1989 1.429 . S
C1998 N1995 1.350 . S
C1998 C1997 1.434 . S
C1999 C2000 1.369 . S
C1999 C2001 1.419 . S
C1999 H2003 0.930 . S
C2000 C1999 1.369 . S
C2000 C2009 1.429 . S
C2001 C1999 1.419 . S
C2001 C2002 1.363 . S
C2001 H2004 0.929 . S
C2002 C2001 1.363 . S
C2002 C2008 1.428 . S
H2003 C1999 0.930 . S
H2004 C2001 0.929 . S
S2005 N2006 1.613 . S
S2005 N2007 1.610 . S
N2006 S2005 1.613 . S
N2006 C2009 1.350 . S
N2007 S2005 1.610 . S
N2007 C2008 1.351 . S
C2008 C2002 1.428 . S
C2008 N2007 1.351 . S
C2008 C2009 1.434 . S
C2009 C2000 1.429 . S
C2009 N2006 1.350 . S
C2009 C2008 1.434 . S
C2010 C2011 1.369 . S
C2010 C2012 1.419 . S
C2010 H2014 0.930 . S
C2011 C2010 1.369 . S
C2011 C2020 1.429 . S
C2012 C2010 1.419 . S
C2012 C2013 1.363 . S
C2012 H2015 0.929 1_556 S
C2013 C2012 1.363 . S
C2013 C2019 1.428 . S
H2014 C2010 0.930 . S
H2015 C2012 0.929 1_554 S
S2016 N2017 1.613 . S
S2016 N2018 1.610 . S
N2017 S2016 1.613 . S
N2017 C2020 1.350 . S
N2018 S2016 1.610 . S
N2018 C2019 1.351 . S
C2019 C2013 1.428 . S
C2019 N2018 1.351 . S
C2019 C2020 1.434 . S
C2020 C2011 1.429 . S
C2020 N2017 1.350 . S
C2020 C2019 1.434 . S
C2021 C2022 1.369 . S
C2021 C2023 1.419 . S
C2021 H2025 0.930 . S
C2022 C2021 1.369 . S
C2022 C2031 1.429 . S
C2023 C2021 1.419 . S
C2023 C2024 1.363 . S
C2023 H2026 0.929 . S
C2024 C2023 1.363 . S
C2024 C2030 1.428 . S
H2025 C2021 0.930 . S
H2026 C2023 0.929 . S
S2027 N2028 1.613 . S
S2027 N2029 1.610 . S
N2028 S2027 1.613 . S
N2028 C2031 1.350 . S
N2029 S2027 1.610 . S
N2029 C2030 1.351 . S
C2030 C2024 1.428 . S
C2030 N2029 1.351 . S
C2030 C2031 1.434 . S
C2031 C2022 1.429 . S
C2031 N2028 1.350 . S
C2031 C2030 1.434 . S
C2032 C2033 1.369 . S
C2032 C2034 1.419 . S
C2032 H2036 0.930 . S
C2033 C2032 1.369 . S
C2033 C2042 1.429 . S
C2034 C2032 1.419 . S
C2034 C2035 1.363 . S
C2034 H2037 0.929 . S
C2035 C2034 1.363 . S
C2035 C2041 1.428 . S
H2036 C2032 0.930 . S
H2037 C2034 0.929 . S
S2038 N2039 1.613 . S
S2038 N2040 1.610 . S
N2039 S2038 1.613 . S
N2039 C2042 1.350 . S
N2040 S2038 1.610 . S
N2040 C2041 1.351 . S
C2041 C2035 1.428 . S
C2041 N2040 1.351 . S
C2041 C2042 1.434 . S
C2042 C2033 1.429 . S
C2042 N2039 1.350 . S
C2042 C2041 1.434 . S
C2043 C2044 1.369 . S
C2043 C2045 1.419 . S
C2043 H2047 0.930 . S
C2044 C2043 1.369 . S
C2044 C2053 1.429 . S
C2045 C2043 1.419 . S
C2045 C2046 1.363 . S
C2045 H2048 0.929 . S
C2046 C2045 1.363 . S
C2046 C2052 1.428 . S
H2047 C2043 0.930 . S
H2048 C2045 0.929 . S
S2049 N2050 1.613 . S
S2049 N2051 1.610 . S
N2050 S2049 1.613 . S
N2050 C2053 1.350 . S
N2051 S2049 1.610 . S
N2051 C2052 1.351 . S
C2052 C2046 1.428 . S
C2052 N2051 1.351 . S
C2052 C2053 1.434 . S
C2053 C2044 1.429 . S
C2053 N2050 1.350 . S
C2053 C2052 1.434 . S
C2054 C2055 1.369 . S
C2054 C2056 1.419 . S
C2054 H2058 0.930 . S
C2055 C2054 1.369 . S
C2055 C2064 1.429 1_545 S
C2056 C2054 1.419 . S
C2056 C2057 1.363 . S
C2056 H2059 0.929 . S
C2057 C2056 1.363 . S
C2057 C2063 1.428 . S
H2058 C2054 0.930 . S
H2059 C2056 0.929 . S
S2060 N2061 1.613 . S
S2060 N2062 1.610 . S
N2061 S2060 1.613 . S
N2061 C2064 1.350 . S
N2062 S2060 1.610 . S
N2062 C2063 1.351 1_565 S
C2063 C2057 1.428 . S
C2063 N2062 1.351 1_545 S
C2063 C2064 1.434 1_545 S
C2064 C2055 1.429 1_565 S
C2064 N2061 1.350 . S
C2064 C2063 1.434 1_565 S
C2065 C2066 1.369 . S
C2065 C2067 1.419 . S
C2065 H2069 0.930 . S
C2066 C2065 1.369 . S
C2066 C2075 1.429 . S
C2067 C2065 1.419 . S
C2067 C2068 1.363 . S
C2067 H2070 0.929 . S
C2068 C2067 1.363 . S
C2068 C2074 1.428 . S
H2069 C2065 0.930 . S
H2070 C2067 0.929 . S
S2071 N2072 1.613 . S
S2071 N2073 1.610 . S
N2072 S2071 1.613 . S
N2072 C2075 1.350 . S
N2073 S2071 1.610 . S
N2073 C2074 1.351 . S
C2074 C2068 1.428 . S
C2074 N2073 1.351 . S
C2074 C2075 1.434 . S
C2075 C2066 1.429 . S
C2075 N2072 1.350 . S
C2075 C2074 1.434 . S
C2076 C2077 1.369 1_545 S
C2076 C2078 1.419 . S
C2076 H2080 0.930 . S
C2077 C2076 1.369 1_565 S
C2077 C2086 1.429 . S
C2078 C2076 1.419 . S
C2078 C2079 1.363 . S
C2078 H2081 0.929 . S
C2079 C2078 1.363 . S
C2079 C2085 1.428 1_545 S
H2080 C2076 0.930 . S
H2081 C2078 0.929 . S
S2082 N2083 1.613 . S
S2082 N2084 1.610 . S
N2083 S2082 1.613 . S
N2083 C2086 1.350 . S
N2084 S2082 1.610 . S
N2084 C2085 1.351 . S
C2085 C2079 1.428 1_565 S
C2085 N2084 1.351 . S
C2085 C2086 1.434 . S
C2086 C2077 1.429 . S
C2086 N2083 1.350 . S
C2086 C2085 1.434 . S
C2087 C2088 1.369 . S
C2087 C2089 1.419 . S
C2087 H2091 0.930 . S
C2088 C2087 1.369 . S
C2088 C2097 1.429 . S
C2089 C2087 1.419 . S
C2089 C2090 1.363 . S
C2089 H2092 0.929 . S
C2090 C2089 1.363 . S
C2090 C2096 1.428 . S
H2091 C2087 0.930 . S
H2092 C2089 0.929 . S
S2093 N2094 1.613 . S
S2093 N2095 1.610 . S
N2094 S2093 1.613 . S
N2094 C2097 1.350 . S
N2095 S2093 1.610 . S
N2095 C2096 1.351 . S
C2096 C2090 1.428 . S
C2096 N2095 1.351 . S
C2096 C2097 1.434 . S
C2097 C2088 1.429 . S
C2097 N2094 1.350 . S
C2097 C2096 1.434 . S
C2098 C2099 1.369 . S
C2098 C2100 1.419 . S
C2098 H2102 0.930 . S
C2099 C2098 1.369 . S
C2099 C2108 1.429 . S
C2100 C2098 1.419 . S
C2100 C2101 1.363 . S
C2100 H2103 0.929 . S
C2101 C2100 1.363 . S
C2101 C2107 1.420 1_565 S
H2102 C2098 0.930 . S
H2103 C2100 0.929 . S
S2104 N2105 1.622 . S
S2104 N2106 1.610 . S
N2105 S2104 1.622 . S
N2105 C2108 1.343 1_545 S
N2106 S2104 1.610 . S
N2106 C2107 1.364 . S
C2107 C2101 1.420 1_545 S
C2107 N2106 1.364 . S
C2107 C2108 1.429 1_545 S
C2108 C2099 1.429 . S
C2108 N2105 1.343 1_565 S
C2108 C2107 1.429 1_565 S
C2109 C2110 1.369 . S
C2109 C2111 1.419 . S
C2109 H2113 0.930 . S
C2110 C2109 1.369 . S
C2110 C2119 1.429 . S
C2111 C2109 1.419 . S
C2111 C2112 1.363 . S
C2111 H2114 0.929 . S
C2112 C2111 1.363 . S
C2112 C2118 1.428 . S
H2113 C2109 0.930 . S
H2114 C2111 0.929 . S
S2115 N2116 1.613 . S
S2115 N2117 1.610 . S
N2116 S2115 1.613 . S
N2116 C2119 1.350 . S
N2117 S2115 1.610 . S
N2117 C2118 1.351 . S
C2118 C2112 1.428 . S
C2118 N2117 1.351 . S
C2118 C2119 1.434 . S
C2119 C2110 1.429 . S
C2119 N2116 1.350 . S
C2119 C2118 1.434 . S
C2120 C2121 1.369 . S
C2120 C2122 1.419 . S
C2120 H2124 0.930 . S
C2121 C2120 1.369 . S
C2121 C2130 1.429 1_554 S
C2122 C2120 1.419 . S
C2122 C2123 1.363 . S
C2122 H2125 0.929 . S
C2123 C2122 1.363 . S
C2123 C2129 1.428 1_554 S
H2124 C2120 0.930 . S
H2125 C2122 0.929 . S
S2126 N2127 1.613 . S
S2126 N2128 1.610 . S
N2127 S2126 1.613 . S
N2127 C2130 1.350 . S
N2128 S2126 1.610 . S
N2128 C2129 1.351 . S
C2129 C2123 1.428 1_556 S
C2129 N2128 1.351 . S
C2129 C2130 1.434 . S
C2130 C2121 1.429 1_556 S
C2130 N2127 1.350 . S
C2130 C2129 1.434 . S
C2131 C2132 1.369 . S
C2131 C2133 1.419 . S
C2131 H2135 0.930 1_554 S
C2132 C2131 1.369 . S
C2132 C2141 1.429 . S
C2133 C2131 1.419 . S
C2133 C2134 1.363 . S
C2133 H2136 0.929 1_554 S
C2134 C2133 1.363 . S
C2134 C2140 1.428 . S
H2135 C2131 0.930 1_556 S
H2136 C2133 0.929 1_556 S
S2137 N2138 1.613 . S
S2137 N2139 1.610 . S
N2138 S2137 1.613 . S
N2138 C2141 1.350 . S
N2139 S2137 1.610 . S
N2139 C2140 1.351 . S
C2140 C2134 1.428 . S
C2140 N2139 1.351 . S
C2140 C2141 1.434 . S
C2141 C2132 1.429 . S
C2141 N2138 1.350 . S
C2141 C2140 1.434 . S
C2142 C2143 1.369 . S
C2142 C2144 1.419 . S
C2142 H2146 0.930 . S
C2143 C2142 1.369 . S
C2143 C2152 1.429 . S
C2144 C2142 1.419 . S
C2144 C2145 1.363 . S
C2144 H2147 0.929 . S
C2145 C2144 1.363 . S
C2145 C2151 1.428 . S
H2146 C2142 0.930 . S
H2147 C2144 0.929 . S
S2148 N2149 1.613 . S
S2148 N2150 1.610 . S
N2149 S2148 1.613 . S
N2149 C2152 1.350 . S
N2150 S2148 1.610 . S
N2150 C2151 1.351 . S
C2151 C2145 1.428 . S
C2151 N2150 1.351 . S
C2151 C2152 1.434 . S
C2152 C2143 1.429 . S
C2152 N2149 1.350 . S
C2152 C2151 1.434 . S
C2153 C2154 1.369 . S
C2153 C2155 1.419 . S
C2153 H2157 0.930 . S
C2154 C2153 1.369 . S
C2154 C2163 1.429 . S
C2155 C2153 1.419 . S
C2155 C2156 1.363 . S
C2155 H2158 0.929 . S
C2156 C2155 1.363 . S
C2156 C2162 1.428 . S
H2157 C2153 0.930 . S
H2158 C2155 0.929 . S
S2159 N2160 1.613 . S
S2159 N2161 1.610 . S
N2160 S2159 1.613 . S
N2160 C2163 1.350 . S
N2161 S2159 1.610 . S
N2161 C2162 1.351 . S
C2162 C2156 1.428 . S
C2162 N2161 1.351 . S
C2162 C2163 1.434 . S
C2163 C2154 1.429 . S
C2163 N2160 1.350 . S
C2163 C2162 1.434 . S
C2164 C2165 1.369 . S
C2164 C2166 1.419 . S
C2164 H2168 0.930 . S
C2165 C2164 1.369 . S
C2165 C2174 1.429 1_545 S
C2166 C2164 1.419 . S
C2166 C2167 1.363 1_545 S
C2166 H2169 0.929 . S
C2167 C2166 1.363 1_565 S
C2167 C2173 1.428 . S
H2168 C2164 0.930 . S
H2169 C2166 0.929 . S
S2170 N2171 1.613 . S
S2170 N2172 1.610 . S
N2171 S2170 1.613 . S
N2171 C2174 1.350 . S
N2172 S2170 1.610 . S
N2172 C2173 1.351 . S
C2173 C2167 1.428 . S
C2173 N2172 1.351 . S
C2173 C2174 1.434 . S
C2174 C2165 1.429 1_565 S
C2174 N2171 1.350 . S
C2174 C2173 1.434 . S
C2175 C2176 1.369 . S
C2175 C2177 1.419 . S
C2175 H2179 0.930 . S
C2176 C2175 1.369 . S
C2176 C2185 1.429 . S
C2177 C2175 1.419 . S
C2177 C2178 1.363 . S
C2177 H2180 0.929 . S
C2178 C2177 1.363 . S
C2178 C2184 1.428 . S
H2179 C2175 0.930 . S
H2180 C2177 0.929 . S
S2181 N2182 1.613 . S
S2181 N2183 1.610 . S
N2182 S2181 1.613 . S
N2182 C2185 1.350 . S
N2183 S2181 1.610 . S
N2183 C2184 1.351 . S
C2184 C2178 1.428 . S
C2184 N2183 1.351 . S
C2184 C2185 1.434 . S
C2185 C2176 1.429 . S
C2185 N2182 1.350 . S
C2185 C2184 1.434 . S
C2186 C2187 1.369 . S
C2186 C2188 1.419 . S
C2186 H2190 0.930 . S
C2187 C2186 1.369 . S
C2187 C2196 1.429 . S
C2188 C2186 1.419 . S
C2188 C2189 1.363 . S
C2188 H2191 0.929 . S
C2189 C2188 1.363 . S
C2189 C2195 1.428 . S
H2190 C2186 0.930 . S
H2191 C2188 0.929 . S
S2192 N2193 1.613 . S
S2192 N2194 1.610 . S
N2193 S2192 1.613 . S
N2193 C2196 1.350 . S
N2194 S2192 1.610 . S
N2194 C2195 1.351 . S
C2195 C2189 1.428 . S
C2195 N2194 1.351 . S
C2195 C2196 1.434 . S
C2196 C2187 1.429 . S
C2196 N2193 1.350 . S
C2196 C2195 1.434 . S
C2197 C2198 1.369 . S
C2197 C2199 1.419 . S
C2197 H2201 0.930 . S
C2198 C2197 1.369 . S
C2198 C2207 1.429 . S
C2199 C2197 1.419 . S
C2199 C2200 1.363 . S
C2199 H2202 0.929 . S
C2200 C2199 1.363 . S
C2200 C2206 1.428 . S
H2201 C2197 0.930 . S
H2202 C2199 0.929 . S
S2203 N2204 1.613 . S
S2203 N2205 1.610 . S
N2204 S2203 1.613 . S
N2204 C2207 1.350 . S
N2205 S2203 1.610 . S
N2205 C2206 1.351 . S
C2206 C2200 1.428 . S
C2206 N2205 1.351 . S
C2206 C2207 1.434 . S
C2207 C2198 1.429 . S
C2207 N2204 1.350 . S
C2207 C2206 1.434 . S
C2208 C2209 1.369 . S
C2208 C2210 1.419 . S
C2208 H2212 0.930 . S
C2209 C2208 1.369 . S
C2209 C2218 1.429 . S
C2210 C2208 1.419 . S
C2210 C2211 1.363 . S
C2210 H2213 0.929 . S
C2211 C2210 1.363 . S
C2211 C2217 1.428 . S
H2212 C2208 0.930 . S
H2213 C2210 0.929 . S
S2214 N2215 1.613 . S
S2214 N2216 1.610 . S
N2215 S2214 1.613 . S
N2215 C2218 1.350 . S
N2216 S2214 1.610 . S
N2216 C2217 1.351 . S
C2217 C2211 1.428 . S
C2217 N2216 1.351 . S
C2217 C2218 1.434 . S
C2218 C2209 1.429 . S
C2218 N2215 1.350 . S
C2218 C2217 1.434 . S
C2219 C2220 1.369 . S
C2219 C2221 1.419 . S
C2219 H2223 0.930 . S
C2220 C2219 1.369 . S
C2220 C2229 1.429 . S
C2221 C2219 1.419 . S
C2221 C2222 1.363 . S
C2221 H2224 0.929 . S
C2222 C2221 1.363 . S
C2222 C2228 1.428 . S
H2223 C2219 0.930 . S
H2224 C2221 0.929 . S
S2225 N2226 1.613 . S
S2225 N2227 1.610 . S
N2226 S2225 1.613 . S
N2226 C2229 1.350 . S
N2227 S2225 1.610 . S
N2227 C2228 1.351 . S
C2228 C2222 1.428 . S
C2228 N2227 1.351 . S
C2228 C2229 1.434 . S
C2229 C2220 1.429 . S
C2229 N2226 1.350 . S
C2229 C2228 1.434 . S
C2230 C2231 1.369 . S
C2230 C2232 1.419 . S
C2230 H2234 0.930 . S
C2231 C2230 1.369 . S
C2231 C2240 1.429 1_556 S
C2232 C2230 1.419 . S
C2232 C2233 1.363 1_556 S
C2232 H2235 0.929 . S
C2233 C2232 1.363 1_554 S
C2233 C2239 1.428 . S
H2234 C2230 0.930 . S
H2235 C2232 0.929 . S
S2236 N2237 1.613 . S
S2236 N2238 1.610 . S
N2237 S2236 1.613 . S
N2237 C2240 1.350 . S
N2238 S2236 1.610 . S
N2238 C2239 1.351 . S
C2239 C2233 1.428 . S
C2239 N2238 1.351 . S
C2239 C2240 1.434 . S
C2240 C2231 1.429 1_554 S
C2240 N2237 1.350 . S
C2240 C2239 1.434 . S
C2241 C2242 1.369 . S
C2241 C2243 1.419 1_455 S
C2241 H2245 0.930 . S
C2242 C2241 1.369 . S
C2242 C2251 1.429 . S
C2243 C2241 1.419 1_655 S
C2243 C2244 1.363 . S
C2243 H2246 0.929 . S
C2244 C2243 1.363 . S
C2244 C2250 1.428 1_655 S
H2245 C2241 0.930 . S
H2246 C2243 0.929 . S
S2247 N2248 1.613 . S
S2247 N2249 1.610 . S
N2248 S2247 1.613 . S
N2248 C2251 1.350 . S
N2249 S2247 1.610 . S
N2249 C2250 1.351 . S
C2250 C2244 1.428 1_455 S
C2250 N2249 1.351 . S
C2250 C2251 1.434 . S
C2251 C2242 1.429 . S
C2251 N2248 1.350 . S
C2251 C2250 1.434 . S
C2252 C2253 1.369 . S
C2252 C2254 1.419 . S
C2252 H2256 0.930 . S
C2253 C2252 1.369 . S
C2253 C2262 1.429 . S
C2254 C2252 1.419 . S
C2254 C2255 1.363 . S
C2254 H2257 0.929 . S
C2255 C2254 1.363 . S
C2255 C2261 1.428 . S
H2256 C2252 0.930 . S
H2257 C2254 0.929 . S
S2258 N2259 1.613 . S
S2258 N2260 1.610 . S
N2259 S2258 1.613 . S
N2259 C2262 1.350 . S
N2260 S2258 1.610 . S
N2260 C2261 1.351 . S
C2261 C2255 1.428 . S
C2261 N2260 1.351 . S
C2261 C2262 1.434 . S
C2262 C2253 1.429 . S
C2262 N2259 1.350 . S
C2262 C2261 1.434 . S
C2263 C2264 1.369 . S
C2263 C2265 1.419 . S
C2263 H2267 0.930 . S
C2264 C2263 1.369 . S
C2264 C2273 1.429 . S
C2265 C2263 1.419 . S
C2265 C2266 1.363 . S
C2265 H2268 0.929 . S
C2266 C2265 1.363 . S
C2266 C2272 1.428 . S
H2267 C2263 0.930 . S
H2268 C2265 0.929 . S
S2269 N2270 1.613 . S
S2269 N2271 1.610 . S
N2270 S2269 1.613 . S
N2270 C2273 1.350 . S
N2271 S2269 1.610 . S
N2271 C2272 1.351 . S
C2272 C2266 1.428 . S
C2272 N2271 1.351 . S
C2272 C2273 1.434 . S
C2273 C2264 1.429 . S
C2273 N2270 1.350 . S
C2273 C2272 1.434 . S
C2274 C2275 1.369 . S
C2274 C2276 1.419 1_655 S
C2274 H2278 0.930 . S
C2275 C2274 1.369 . S
C2275 C2284 1.429 1_655 S
C2276 C2274 1.419 1_455 S
C2276 C2277 1.363 . S
C2276 H2279 0.929 . S
C2277 C2276 1.363 . S
C2277 C2283 1.428 . S
H2278 C2274 0.930 . S
H2279 C2276 0.929 . S
S2280 N2281 1.613 . S
S2280 N2282 1.610 . S
N2281 S2280 1.613 . S
N2281 C2284 1.350 . S
N2282 S2280 1.610 . S
N2282 C2283 1.351 . S
C2283 C2277 1.428 . S
C2283 N2282 1.351 . S
C2283 C2284 1.434 . S
C2284 C2275 1.429 1_455 S
C2284 N2281 1.350 . S
C2284 C2283 1.434 . S
C2285 C2286 1.369 . S
C2285 C2287 1.419 . S
C2285 H2289 0.930 . S
C2286 C2285 1.369 . S
C2286 C2295 1.429 . S
C2287 C2285 1.419 . S
C2287 C2288 1.363 . S
C2287 H2290 0.929 . S
C2288 C2287 1.363 . S
C2288 C2294 1.428 . S
H2289 C2285 0.930 . S
H2290 C2287 0.929 . S
S2291 N2292 1.613 . S
S2291 N2293 1.610 . S
N2292 S2291 1.613 . S
N2292 C2295 1.350 . S
N2293 S2291 1.610 . S
N2293 C2294 1.351 . S
C2294 C2288 1.428 . S
C2294 N2293 1.351 . S
C2294 C2295 1.434 . S
C2295 C2286 1.429 . S
C2295 N2292 1.350 . S
C2295 C2294 1.434 . S
C2296 C2297 1.369 . S
C2296 C2298 1.419 . S
C2296 H2300 0.930 . S
C2297 C2296 1.369 . S
C2297 C2306 1.429 . S
C2298 C2296 1.419 . S
C2298 C2299 1.363 . S
C2298 H2301 0.929 . S
C2299 C2298 1.363 . S
C2299 C2305 1.428 . S
H2300 C2296 0.930 . S
H2301 C2298 0.929 . S
S2302 N2303 1.613 . S
S2302 N2304 1.610 . S
N2303 S2302 1.613 . S
N2303 C2306 1.350 . S
N2304 S2302 1.610 . S
N2304 C2305 1.351 . S
C2305 C2299 1.428 . S
C2305 N2304 1.351 . S
C2305 C2306 1.434 . S
C2306 C2297 1.429 . S
C2306 N2303 1.350 . S
C2306 C2305 1.434 . S
C2307 C2308 1.369 . S
C2307 C2309 1.419 . S
C2307 H2311 0.930 . S
C2308 C2307 1.369 . S
C2308 C2317 1.429 . S
C2309 C2307 1.419 . S
C2309 C2310 1.363 . S
C2309 H2312 0.929 . S
C2310 C2309 1.363 . S
C2310 C2316 1.428 . S
H2311 C2307 0.930 . S
H2312 C2309 0.929 . S
S2313 N2314 1.613 . S
S2313 N2315 1.610 1_554 S
N2314 S2313 1.613 . S
N2314 C2317 1.350 1_554 S
N2315 S2313 1.610 1_556 S
N2315 C2316 1.351 . S
C2316 C2310 1.428 . S
C2316 N2315 1.351 . S
C2316 C2317 1.434 . S
C2317 C2308 1.429 . S
C2317 N2314 1.350 1_556 S
C2317 C2316 1.434 . S
C2318 C2319 1.369 . S
C2318 C2320 1.419 . S
C2318 H2322 0.930 . S
C2319 C2318 1.369 . S
C2319 C2328 1.429 . S
C2320 C2318 1.419 . S
C2320 C2321 1.363 . S
C2320 H2323 0.929 . S
C2321 C2320 1.363 . S
C2321 C2327 1.428 . S
H2322 C2318 0.930 . S
H2323 C2320 0.929 . S
S2324 N2325 1.613 . S
S2324 N2326 1.610 . S
N2325 S2324 1.613 . S
N2325 C2328 1.350 . S
N2326 S2324 1.610 . S
N2326 C2327 1.351 . S
C2327 C2321 1.428 . S
C2327 N2326 1.351 . S
C2327 C2328 1.434 . S
C2328 C2319 1.429 . S
C2328 N2325 1.350 . S
C2328 C2327 1.434 . S
C2329 C2330 1.369 . S
C2329 C2331 1.419 . S
C2329 H2333 0.930 . S
C2330 C2329 1.369 . S
C2330 C2339 1.429 . S
C2331 C2329 1.419 . S
C2331 C2332 1.363 . S
C2331 H2334 0.929 . S
C2332 C2331 1.363 . S
C2332 C2338 1.428 . S
H2333 C2329 0.930 . S
H2334 C2331 0.929 . S
S2335 N2336 1.613 . S
S2335 N2337 1.610 . S
N2336 S2335 1.613 . S
N2336 C2339 1.350 . S
N2337 S2335 1.610 . S
N2337 C2338 1.351 . S
C2338 C2332 1.428 . S
C2338 N2337 1.351 . S
C2338 C2339 1.434 . S
C2339 C2330 1.429 . S
C2339 N2336 1.350 . S
C2339 C2338 1.434 . S
C2340 C2341 1.369 . S
C2340 C2342 1.419 . S
C2340 H2344 0.930 . S
C2341 C2340 1.369 . S
C2341 C2350 1.429 . S
C2342 C2340 1.419 . S
C2342 C2343 1.363 . S
C2342 H2345 0.929 . S
C2343 C2342 1.363 . S
C2343 C2349 1.428 . S
H2344 C2340 0.930 . S
H2345 C2342 0.929 . S
S2346 N2347 1.613 . S
S2346 N2348 1.610 . S
N2347 S2346 1.613 . S
N2347 C2350 1.350 . S
N2348 S2346 1.610 . S
N2348 C2349 1.351 . S
C2349 C2343 1.428 . S
C2349 N2348 1.351 . S
C2349 C2350 1.434 . S
C2350 C2341 1.429 . S
C2350 N2347 1.350 . S
C2350 C2349 1.434 . S
C2351 C2352 1.369 . S
C2351 C2353 1.419 . S
C2351 H2355 0.930 . S
C2352 C2351 1.369 . S
C2352 C2361 1.429 . S
C2353 C2351 1.419 . S
C2353 C2354 1.363 . S
C2353 H2356 0.929 . S
C2354 C2353 1.363 . S
C2354 C2360 1.428 . S
H2355 C2351 0.930 . S
H2356 C2353 0.929 . S
S2357 N2358 1.613 . S
S2357 N2359 1.610 . S
N2358 S2357 1.613 . S
N2358 C2361 1.350 . S
N2359 S2357 1.610 . S
N2359 C2360 1.351 . S
C2360 C2354 1.428 . S
C2360 N2359 1.351 . S
C2360 C2361 1.434 . S
C2361 C2352 1.429 . S
C2361 N2358 1.350 . S
C2361 C2360 1.434 . S
C2362 C2363 1.369 . S
C2362 C2364 1.419 . S
C2362 H2366 0.930 . S
C2363 C2362 1.369 . S
C2363 C2372 1.429 . S
C2364 C2362 1.419 . S
C2364 C2365 1.363 . S
C2364 H2367 0.929 . S
C2365 C2364 1.363 . S
C2365 C2371 1.428 . S
H2366 C2362 0.930 . S
H2367 C2364 0.929 . S
S2368 N2369 1.613 . S
S2368 N2370 1.610 . S
N2369 S2368 1.613 . S
N2369 C2372 1.350 . S
N2370 S2368 1.610 . S
N2370 C2371 1.351 . S
C2371 C2365 1.428 . S
C2371 N2370 1.351 . S
C2371 C2372 1.434 . S
C2372 C2363 1.429 . S
C2372 N2369 1.350 . S
C2372 C2371 1.434 . S
C2373 C2374 1.369 . S
C2373 C2375 1.419 . S
C2373 H2377 0.930 . S
C2374 C2373 1.369 . S
C2374 C2383 1.429 . S
C2375 C2373 1.419 . S
C2375 C2376 1.363 . S
C2375 H2378 0.929 . S
C2376 C2375 1.363 . S
C2376 C2382 1.428 . S
H2377 C2373 0.930 . S
H2378 C2375 0.929 . S
S2379 N2380 1.613 . S
S2379 N2381 1.610 . S
N2380 S2379 1.613 . S
N2380 C2383 1.350 . S
N2381 S2379 1.610 . S
N2381 C2382 1.351 . S
C2382 C2376 1.428 . S
C2382 N2381 1.351 . S
C2382 C2383 1.434 . S
C2383 C2374 1.429 . S
C2383 N2380 1.350 . S
C2383 C2382 1.434 . S
C2384 C2385 1.369 . S
C2384 C2386 1.419 . S
C2384 H2388 0.930 . S
C2385 C2384 1.369 . S
C2385 C2394 1.429 . S
C2386 C2384 1.419 . S
C2386 C2387 1.363 . S
C2386 H2389 0.929 . S
C2387 C2386 1.363 . S
C2387 C2393 1.428 . S
H2388 C2384 0.930 . S
H2389 C2386 0.929 . S
S2390 N2391 1.613 . S
S2390 N2392 1.610 . S
N2391 S2390 1.613 . S
N2391 C2394 1.350 . S
N2392 S2390 1.610 . S
N2392 C2393 1.351 . S
C2393 C2387 1.428 . S
C2393 N2392 1.351 . S
C2393 C2394 1.434 . S
C2394 C2385 1.429 . S
C2394 N2391 1.350 . S
C2394 C2393 1.434 . S
C2395 C2396 1.369 . S
C2395 C2397 1.419 . S
C2395 H2399 0.930 . S
C2396 C2395 1.369 . S
C2396 C2405 1.429 . S
C2397 C2395 1.419 . S
C2397 C2398 1.363 . S
C2397 H2400 0.929 . S
C2398 C2397 1.363 . S
C2398 C2404 1.428 . S
H2399 C2395 0.930 . S
H2400 C2397 0.929 . S
S2401 N2402 1.613 . S
S2401 N2403 1.610 . S
N2402 S2401 1.613 . S
N2402 C2405 1.350 . S
N2403 S2401 1.610 . S
N2403 C2404 1.351 . S
C2404 C2398 1.428 . S
C2404 N2403 1.351 . S
C2404 C2405 1.434 . S
C2405 C2396 1.429 . S
C2405 N2402 1.350 . S
C2405 C2404 1.434 . S
C2406 C2407 1.369 . S
C2406 C2408 1.419 . S
C2406 H2410 0.930 . S
C2407 C2406 1.369 . S
C2407 C2416 1.429 . S
C2408 C2406 1.419 . S
C2408 C2409 1.363 . S
C2408 H2411 0.929 . S
C2409 C2408 1.363 . S
C2409 C2415 1.428 . S
H2410 C2406 0.930 . S
H2411 C2408 0.929 . S
S2412 N2413 1.613 . S
S2412 N2414 1.610 . S
N2413 S2412 1.613 . S
N2413 C2416 1.350 . S
N2414 S2412 1.610 . S
N2414 C2415 1.351 . S
C2415 C2409 1.428 . S
C2415 N2414 1.351 . S
C2415 C2416 1.434 . S
C2416 C2407 1.429 . S
C2416 N2413 1.350 . S
C2416 C2415 1.434 . S
C2417 C2418 1.369 1_545 S
C2417 C2419 1.419 . S
C2417 H2421 0.930 . S
C2418 C2417 1.369 1_565 S
C2418 C2427 1.429 1_554 S
C2419 C2417 1.419 . S
C2419 C2420 1.363 1_545 S
C2419 H2422 0.929 . S
C2420 C2419 1.363 1_565 S
C2420 C2426 1.428 1_554 S
H2421 C2417 0.930 . S
H2422 C2419 0.929 . S
S2423 N2424 1.613 . S
S2423 N2425 1.610 . S
N2424 S2423 1.613 . S
N2424 C2427 1.350 . S
N2425 S2423 1.610 . S
N2425 C2426 1.351 . S
C2426 C2420 1.428 1_556 S
C2426 N2425 1.351 . S
C2426 C2427 1.434 . S
C2427 C2418 1.429 1_556 S
C2427 N2424 1.350 . S
C2427 C2426 1.434 . S
C2428 C2429 1.369 . S
C2428 C2430 1.419 . S
C2428 H2432 0.930 . S
C2429 C2428 1.369 . S
C2429 C2438 1.429 . S
C2430 C2428 1.419 . S
C2430 C2431 1.363 . S
C2430 H2433 0.929 . S
C2431 C2430 1.363 . S
C2431 C2437 1.428 . S
H2432 C2428 0.930 . S
H2433 C2430 0.929 . S
S2434 N2435 1.613 . S
S2434 N2436 1.610 . S
N2435 S2434 1.613 . S
N2435 C2438 1.350 . S
N2436 S2434 1.610 . S
N2436 C2437 1.351 . S
C2437 C2431 1.428 . S
C2437 N2436 1.351 . S
C2437 C2438 1.434 . S
C2438 C2429 1.429 . S
C2438 N2435 1.350 . S
C2438 C2437 1.434 . S
C2439 C2440 1.369 . S
C2439 C2441 1.419 . S
C2439 H2443 0.930 . S
C2440 C2439 1.369 . S
C2440 C2449 1.429 1_554 S
C2441 C2439 1.419 . S
C2441 C2442 1.363 . S
C2441 H2444 0.929 . S
C2442 C2441 1.363 . S
C2442 C2448 1.428 . S
H2443 C2439 0.930 . S
H2444 C2441 0.929 . S
S2445 N2446 1.613 . S
S2445 N2447 1.610 . S
N2446 S2445 1.613 . S
N2446 C2449 1.350 . S
N2447 S2445 1.610 . S
N2447 C2448 1.351 1_556 S
C2448 C2442 1.428 . S
C2448 N2447 1.351 1_554 S
C2448 C2449 1.434 1_554 S
C2449 C2440 1.429 1_556 S
C2449 N2446 1.350 . S
C2449 C2448 1.434 1_556 S
C2450 C2451 1.369 . S
C2450 C2452 1.419 . S
C2450 H2454 0.930 . S
C2451 C2450 1.369 . S
C2451 C2460 1.429 . S
C2452 C2450 1.419 . S
C2452 C2453 1.363 . S
C2452 H2455 0.929 . S
C2453 C2452 1.363 . S
C2453 C2459 1.428 . S
H2454 C2450 0.930 . S
H2455 C2452 0.929 . S
S2456 N2457 1.613 . S
S2456 N2458 1.610 . S
N2457 S2456 1.613 . S
N2457 C2460 1.350 . S
N2458 S2456 1.610 . S
N2458 C2459 1.351 . S
C2459 C2453 1.428 . S
C2459 N2458 1.351 . S
C2459 C2460 1.434 . S
C2460 C2451 1.429 . S
C2460 N2457 1.350 . S
C2460 C2459 1.434 . S
C2461 C2462 1.369 . S
C2461 C2463 1.419 . S
C2461 H2465 0.930 . S
C2462 C2461 1.369 . S
C2462 C2471 1.429 . S
C2463 C2461 1.419 . S
C2463 C2464 1.363 . S
C2463 H2466 0.929 . S
C2464 C2463 1.363 . S
C2464 C2470 1.428 . S
H2465 C2461 0.930 . S
H2466 C2463 0.929 . S
S2467 N2468 1.613 . S
S2467 N2469 1.610 . S
N2468 S2467 1.613 . S
N2468 C2471 1.350 . S
N2469 S2467 1.610 . S
N2469 C2470 1.351 . S
C2470 C2464 1.428 . S
C2470 N2469 1.351 . S
C2470 C2471 1.434 . S
C2471 C2462 1.429 . S
C2471 N2468 1.350 . S
C2471 C2470 1.434 . S
C2472 C2473 1.369 . S
C2472 C2474 1.419 . S
C2472 H2476 0.930 . S
C2473 C2472 1.369 . S
C2473 C2482 1.429 . S
C2474 C2472 1.419 . S
C2474 C2475 1.363 . S
C2474 H2477 0.929 . S
C2475 C2474 1.363 . S
C2475 C2481 1.428 . S
H2476 C2472 0.930 . S
H2477 C2474 0.929 . S
S2478 N2479 1.613 . S
S2478 N2480 1.610 . S
N2479 S2478 1.613 . S
N2479 C2482 1.350 . S
N2480 S2478 1.610 . S
N2480 C2481 1.351 . S
C2481 C2475 1.428 . S
C2481 N2480 1.351 . S
C2481 C2482 1.434 . S
C2482 C2473 1.429 . S
C2482 N2479 1.350 . S
C2482 C2481 1.434 . S
C2483 C2484 1.369 . S
C2483 C2485 1.419 . S
C2483 H2487 0.930 . S
C2484 C2483 1.369 . S
C2484 C2493 1.429 . S
C2485 C2483 1.419 . S
C2485 C2486 1.363 . S
C2485 H2488 0.929 . S
C2486 C2485 1.363 . S
C2486 C2492 1.428 . S
H2487 C2483 0.930 . S
H2488 C2485 0.929 . S
S2489 N2490 1.613 . S
S2489 N2491 1.610 . S
N2490 S2489 1.613 . S
N2490 C2493 1.350 . S
N2491 S2489 1.610 . S
N2491 C2492 1.351 . S
C2492 C2486 1.428 . S
C2492 N2491 1.351 . S
C2492 C2493 1.434 . S
C2493 C2484 1.429 . S
C2493 N2490 1.350 . S
C2493 C2492 1.434 . S
C2494 C2495 1.369 . S
C2494 C2496 1.419 . S
C2494 H2498 0.930 1_554 S
C2495 C2494 1.369 . S
C2495 C2504 1.429 . S
C2496 C2494 1.419 . S
C2496 C2497 1.363 . S
C2496 H2499 0.929 1_554 S
C2497 C2496 1.363 . S
C2497 C2503 1.428 . S
H2498 C2494 0.930 1_556 S
H2499 C2496 0.929 1_556 S
S2500 N2501 1.613 . S
S2500 N2502 1.610 . S
N2501 S2500 1.613 . S
N2501 C2504 1.350 . S
N2502 S2500 1.610 . S
N2502 C2503 1.351 . S
C2503 C2497 1.428 . S
C2503 N2502 1.351 . S
C2503 C2504 1.434 . S
C2504 C2495 1.429 . S
C2504 N2501 1.350 . S
C2504 C2503 1.434 . S
C2505 C2506 1.369 . S
C2505 C2507 1.419 . S
C2505 H2509 0.930 . S
C2506 C2505 1.369 . S
C2506 C2515 1.429 . S
C2507 C2505 1.419 . S
C2507 C2508 1.363 . S
C2507 H2510 0.929 . S
C2508 C2507 1.363 . S
C2508 C2514 1.428 . S
H2509 C2505 0.930 . S
H2510 C2507 0.929 . S
S2511 N2512 1.613 . S
S2511 N2513 1.610 . S
N2512 S2511 1.613 . S
N2512 C2515 1.350 . S
N2513 S2511 1.610 . S
N2513 C2514 1.351 . S
C2514 C2508 1.428 . S
C2514 N2513 1.351 . S
C2514 C2515 1.434 . S
C2515 C2506 1.429 . S
C2515 N2512 1.350 . S
C2515 C2514 1.434 . S
C2516 C2517 1.369 . S
C2516 C2518 1.419 . S
C2516 H2520 0.930 . S
C2517 C2516 1.369 . S
C2517 C2526 1.429 . S
C2518 C2516 1.419 . S
C2518 C2519 1.363 . S
C2518 H2521 0.929 . S
C2519 C2518 1.363 . S
C2519 C2525 1.428 . S
H2520 C2516 0.930 . S
H2521 C2518 0.929 . S
S2522 N2523 1.613 . S
S2522 N2524 1.610 . S
N2523 S2522 1.613 . S
N2523 C2526 1.350 . S
N2524 S2522 1.610 . S
N2524 C2525 1.351 . S
C2525 C2519 1.428 . S
C2525 N2524 1.351 . S
C2525 C2526 1.434 . S
C2526 C2517 1.429 . S
C2526 N2523 1.350 . S
C2526 C2525 1.434 . S
C2527 C2528 1.369 . S
C2527 C2529 1.419 . S
C2527 H2531 0.930 . S
C2528 C2527 1.369 . S
C2528 C2537 1.429 . S
C2529 C2527 1.419 . S
C2529 C2530 1.363 . S
C2529 H2532 0.929 . S
C2530 C2529 1.363 . S
C2530 C2536 1.428 . S
H2531 C2527 0.930 . S
H2532 C2529 0.929 . S
S2533 N2534 1.613 . S
S2533 N2535 1.610 . S
N2534 S2533 1.613 . S
N2534 C2537 1.350 . S
N2535 S2533 1.610 . S
N2535 C2536 1.351 . S
C2536 C2530 1.428 . S
C2536 N2535 1.351 . S
C2536 C2537 1.434 . S
C2537 C2528 1.429 . S
C2537 N2534 1.350 . S
C2537 C2536 1.434 . S
C2538 C2539 1.369 . S
C2538 C2540 1.419 . S
C2538 H2542 0.930 . S
C2539 C2538 1.369 . S
C2539 C2548 1.429 . S
C2540 C2538 1.419 . S
C2540 C2541 1.363 . S
C2540 H2543 0.929 . S
C2541 C2540 1.363 . S
C2541 C2547 1.428 . S
H2542 C2538 0.930 . S
H2543 C2540 0.929 . S
S2544 N2545 1.613 . S
S2544 N2546 1.610 . S
N2545 S2544 1.613 . S
N2545 C2548 1.350 . S
N2546 S2544 1.610 . S
N2546 C2547 1.351 . S
C2547 C2541 1.428 . S
C2547 N2546 1.351 . S
C2547 C2548 1.434 . S
C2548 C2539 1.429 . S
C2548 N2545 1.350 . S
C2548 C2547 1.434 . S
C2549 C2550 1.369 . S
C2549 C2551 1.419 . S
C2549 H2553 0.930 . S
C2550 C2549 1.369 . S
C2550 C2559 1.429 . S
C2551 C2549 1.419 . S
C2551 C2552 1.363 . S
C2551 H2554 0.929 . S
C2552 C2551 1.363 . S
C2552 C2558 1.428 . S
H2553 C2549 0.930 . S
H2554 C2551 0.929 . S
S2555 N2556 1.613 . S
S2555 N2557 1.610 . S
N2556 S2555 1.613 . S
N2556 C2559 1.350 . S
N2557 S2555 1.610 . S
N2557 C2558 1.351 . S
C2558 C2552 1.428 . S
C2558 N2557 1.351 . S
C2558 C2559 1.434 . S
C2559 C2550 1.429 . S
C2559 N2556 1.350 . S
C2559 C2558 1.434 . S
C2560 C2561 1.369 . S
C2560 C2562 1.419 . S
C2560 H2564 0.930 . S
C2561 C2560 1.369 . S
C2561 C2570 1.429 . S
C2562 C2560 1.419 . S
C2562 C2563 1.363 . S
C2562 H2565 0.929 . S
C2563 C2562 1.363 . S
C2563 C2569 1.428 . S
H2564 C2560 0.930 . S
H2565 C2562 0.929 . S
S2566 N2567 1.613 . S
S2566 N2568 1.610 . S
N2567 S2566 1.613 . S
N2567 C2570 1.350 . S
N2568 S2566 1.610 . S
N2568 C2569 1.351 . S
C2569 C2563 1.428 . S
C2569 N2568 1.351 . S
C2569 C2570 1.434 . S
C2570 C2561 1.429 . S
C2570 N2567 1.350 . S
C2570 C2569 1.434 . S
C2571 C2572 1.369 . S
C2571 C2573 1.419 . S
C2571 H2575 0.930 . S
C2572 C2571 1.369 . S
C2572 C2581 1.429 . S
C2573 C2571 1.419 . S
C2573 C2574 1.363 . S
C2573 H2576 0.929 . S
C2574 C2573 1.363 . S
C2574 C2580 1.428 . S
H2575 C2571 0.930 . S
H2576 C2573 0.929 . S
S2577 N2578 1.613 . S
S2577 N2579 1.610 . S
N2578 S2577 1.613 . S
N2578 C2581 1.350 . S
N2579 S2577 1.610 . S
N2579 C2580 1.351 . S
C2580 C2574 1.428 . S
C2580 N2579 1.351 . S
C2580 C2581 1.434 . S
C2581 C2572 1.429 . S
C2581 N2578 1.350 . S
C2581 C2580 1.434 . S
C2582 C2583 1.369 1_455 S
C2582 C2584 1.419 . S
C2582 H2586 0.930 . S
C2583 C2582 1.369 1_655 S
C2583 C2592 1.429 . S
C2584 C2582 1.419 . S
C2584 C2585 1.363 . S
C2584 H2587 0.929 . S
C2585 C2584 1.363 . S
C2585 C2591 1.428 1_455 S
H2586 C2582 0.930 . S
H2587 C2584 0.929 . S
S2588 N2589 1.613 . S
S2588 N2590 1.610 . S
N2589 S2588 1.613 . S
N2589 C2592 1.350 . S
N2590 S2588 1.610 . S
N2590 C2591 1.351 . S
C2591 C2585 1.428 1_655 S
C2591 N2590 1.351 . S
C2591 C2592 1.434 . S
C2592 C2583 1.429 . S
C2592 N2589 1.350 . S
C2592 C2591 1.434 . S
C2593 C2594 1.369 . S
C2593 C2595 1.419 . S
C2593 H2597 0.930 . S
C2594 C2593 1.369 . S
C2594 C2603 1.429 . S
C2595 C2593 1.419 . S
C2595 C2596 1.363 . S
C2595 H2598 0.929 . S
C2596 C2595 1.363 . S
C2596 C2602 1.428 . S
H2597 C2593 0.930 . S
H2598 C2595 0.929 . S
S2599 N2600 1.613 . S
S2599 N2601 1.610 . S
N2600 S2599 1.613 . S
N2600 C2603 1.350 . S
N2601 S2599 1.610 . S
N2601 C2602 1.351 . S
C2602 C2596 1.428 . S
C2602 N2601 1.351 . S
C2602 C2603 1.434 . S
C2603 C2594 1.429 . S
C2603 N2600 1.350 . S
C2603 C2602 1.434 . S
C2604 C2605 1.369 . S
C2604 C2606 1.419 . S
C2604 H2608 0.930 . S
C2605 C2604 1.369 . S
C2605 C2614 1.429 . S
C2606 C2604 1.419 . S
C2606 C2607 1.363 . S
C2606 H2609 0.929 . S
C2607 C2606 1.363 . S
C2607 C2613 1.428 . S
H2608 C2604 0.930 . S
H2609 C2606 0.929 . S
S2610 N2611 1.613 . S
S2610 N2612 1.610 . S
N2611 S2610 1.613 . S
N2611 C2614 1.350 . S
N2612 S2610 1.610 . S
N2612 C2613 1.351 . S
C2613 C2607 1.428 . S
C2613 N2612 1.351 . S
C2613 C2614 1.434 . S
C2614 C2605 1.429 . S
C2614 N2611 1.350 . S
C2614 C2613 1.434 . S
C2615 C2616 1.369 . S
C2615 C2617 1.419 . S
C2615 H2619 0.930 . S
C2616 C2615 1.369 . S
C2616 C2625 1.429 . S
C2617 C2615 1.419 . S
C2617 C2618 1.363 . S
C2617 H2620 0.929 . S
C2618 C2617 1.363 . S
C2618 C2624 1.428 . S
H2619 C2615 0.930 . S
H2620 C2617 0.929 . S
S2621 N2622 1.613 . S
S2621 N2623 1.610 . S
N2622 S2621 1.613 . S
N2622 C2625 1.350 . S
N2623 S2621 1.610 . S
N2623 C2624 1.351 . S
C2624 C2618 1.428 . S
C2624 N2623 1.351 . S
C2624 C2625 1.434 . S
C2625 C2616 1.429 . S
C2625 N2622 1.350 . S
C2625 C2624 1.434 . S
C2626 C2627 1.369 . S
C2626 C2628 1.419 . S
C2626 H2630 0.930 . S
C2627 C2626 1.369 . S
C2627 C2636 1.429 . S
C2628 C2626 1.419 . S
C2628 C2629 1.363 . S
C2628 H2631 0.929 1_655 S
C2629 C2628 1.363 . S
C2629 C2635 1.428 . S
H2630 C2626 0.930 . S
H2631 C2628 0.929 1_455 S
S2632 N2633 1.613 . S
S2632 N2634 1.610 . S
N2633 S2632 1.613 . S
N2633 C2636 1.350 . S
N2634 S2632 1.610 . S
N2634 C2635 1.351 . S
C2635 C2629 1.428 . S
C2635 N2634 1.351 . S
C2635 C2636 1.434 . S
C2636 C2627 1.429 . S
C2636 N2633 1.350 . S
C2636 C2635 1.434 . S
C2637 C2638 1.369 . S
C2637 C2639 1.419 . S
C2637 H2641 0.930 . S
C2638 C2637 1.369 . S
C2638 C2647 1.429 . S
C2639 C2637 1.419 . S
C2639 C2640 1.363 . S
C2639 H2642 0.929 . S
C2640 C2639 1.363 . S
C2640 C2646 1.428 . S
H2641 C2637 0.930 . S
H2642 C2639 0.929 . S
S2643 N2644 1.613 . S
S2643 N2645 1.610 . S
N2644 S2643 1.613 . S
N2644 C2647 1.350 . S
N2645 S2643 1.610 . S
N2645 C2646 1.351 . S
C2646 C2640 1.428 . S
C2646 N2645 1.351 . S
C2646 C2647 1.434 . S
C2647 C2638 1.429 . S
C2647 N2644 1.350 . S
C2647 C2646 1.434 . S
C2648 C2649 1.369 . S
C2648 C2650 1.419 . S
C2648 H2652 0.930 . S
C2649 C2648 1.369 . S
C2649 C2658 1.429 . S
C2650 C2648 1.419 . S
C2650 C2651 1.363 . S
C2650 H2653 0.929 . S
C2651 C2650 1.363 . S
C2651 C2657 1.428 . S
H2652 C2648 0.930 . S
H2653 C2650 0.929 . S
S2654 N2655 1.613 . S
S2654 N2656 1.610 . S
N2655 S2654 1.613 . S
N2655 C2658 1.350 . S
N2656 S2654 1.610 . S
N2656 C2657 1.351 . S
C2657 C2651 1.428 . S
C2657 N2656 1.351 . S
C2657 C2658 1.434 . S
C2658 C2649 1.429 . S
C2658 N2655 1.350 . S
C2658 C2657 1.434 . S
C2659 C2660 1.369 . S
C2659 C2661 1.419 . S
C2659 H2663 0.930 . S
C2660 C2659 1.369 . S
C2660 C2669 1.429 . S
C2661 C2659 1.419 . S
C2661 C2662 1.363 . S
C2661 H2664 0.929 1_565 S
C2662 C2661 1.363 . S
C2662 C2668 1.428 . S
H2663 C2659 0.930 . S
H2664 C2661 0.929 1_545 S
S2665 N2666 1.613 . S
S2665 N2667 1.610 . S
N2666 S2665 1.613 . S
N2666 C2669 1.350 . S
N2667 S2665 1.610 . S
N2667 C2668 1.351 . S
C2668 C2662 1.428 . S
C2668 N2667 1.351 . S
C2668 C2669 1.434 . S
C2669 C2660 1.429 . S
C2669 N2666 1.350 . S
C2669 C2668 1.434 . S
C2670 C2671 1.369 . S
C2670 C2672 1.419 . S
C2670 H2674 0.930 . S
C2671 C2670 1.369 . S
C2671 C2680 1.429 . S
C2672 C2670 1.419 . S
C2672 C2673 1.363 . S
C2672 H2675 0.929 . S
C2673 C2672 1.363 . S
C2673 C2679 1.428 . S
H2674 C2670 0.930 . S
H2675 C2672 0.929 . S
S2676 N2677 1.613 . S
S2676 N2678 1.610 . S
N2677 S2676 1.613 . S
N2677 C2680 1.350 . S
N2678 S2676 1.610 . S
N2678 C2679 1.351 . S
C2679 C2673 1.428 . S
C2679 N2678 1.351 . S
C2679 C2680 1.434 . S
C2680 C2671 1.429 . S
C2680 N2677 1.350 . S
C2680 C2679 1.434 . S
C2681 C2682 1.369 . S
C2681 C2683 1.419 . S
C2681 H2685 0.930 . S
C2682 C2681 1.369 . S
C2682 C2691 1.429 . S
C2683 C2681 1.419 . S
C2683 C2684 1.363 . S
C2683 H2686 0.929 . S
C2684 C2683 1.363 . S
C2684 C2690 1.428 . S
H2685 C2681 0.930 . S
H2686 C2683 0.929 . S
S2687 N2688 1.613 . S
S2687 N2689 1.610 . S
N2688 S2687 1.613 . S
N2688 C2691 1.350 . S
N2689 S2687 1.610 . S
N2689 C2690 1.351 . S
C2690 C2684 1.428 . S
C2690 N2689 1.351 . S
C2690 C2691 1.434 . S
C2691 C2682 1.429 . S
C2691 N2688 1.350 . S
C2691 C2690 1.434 . S
C2692 C2693 1.369 . S
C2692 C2694 1.419 . S
C2692 H2696 0.930 . S
C2693 C2692 1.369 . S
C2693 C2702 1.429 . S
C2694 C2692 1.419 . S
C2694 C2695 1.363 . S
C2694 H2697 0.929 . S
C2695 C2694 1.363 . S
C2695 C2701 1.428 . S
H2696 C2692 0.930 . S
H2697 C2694 0.929 . S
S2698 N2699 1.613 . S
S2698 N2700 1.610 . S
N2699 S2698 1.613 . S
N2699 C2702 1.350 . S
N2700 S2698 1.610 . S
N2700 C2701 1.351 . S
C2701 C2695 1.428 . S
C2701 N2700 1.351 . S
C2701 C2702 1.434 . S
C2702 C2693 1.429 . S
C2702 N2699 1.350 . S
C2702 C2701 1.434 . S
C2703 C2704 1.369 1_556 S
C2703 C2705 1.419 . S
C2703 H2707 0.930 . S
C2704 C2703 1.369 1_554 S
C2704 C2713 1.429 . S
C2705 C2703 1.419 . S
C2705 C2706 1.370 . S
C2705 H2708 0.929 . S
C2706 C2705 1.370 . S
C2706 C2712 1.410 1_556 S
H2707 C2703 0.930 . S
H2708 C2705 0.929 . S
S2709 N2710 1.613 . S
S2709 N2711 1.610 . S
N2710 S2709 1.613 . S
N2710 C2713 1.350 . S
N2711 S2709 1.610 . S
N2711 C2712 1.351 . S
C2712 C2706 1.410 1_554 S
C2712 N2711 1.351 . S
C2712 C2713 1.434 . S
C2713 C2704 1.429 . S
C2713 N2710 1.350 . S
C2713 C2712 1.434 . S
C2714 C2715 1.369 . S
C2714 C2716 1.419 . S
C2714 H2718 0.930 . S
C2715 C2714 1.369 . S
C2715 C2724 1.429 . S
C2716 C2714 1.419 . S
C2716 C2717 1.363 . S
C2716 H2719 0.929 . S
C2717 C2716 1.363 . S
C2717 C2723 1.428 . S
H2718 C2714 0.930 . S
H2719 C2716 0.929 . S
S2720 N2721 1.613 . S
S2720 N2722 1.610 . S
N2721 S2720 1.613 . S
N2721 C2724 1.350 . S
N2722 S2720 1.610 . S
N2722 C2723 1.351 . S
C2723 C2717 1.428 . S
C2723 N2722 1.351 . S
C2723 C2724 1.434 . S
C2724 C2715 1.429 . S
C2724 N2721 1.350 . S
C2724 C2723 1.434 . S
C2725 C2726 1.369 . S
C2725 C2727 1.419 . S
C2725 H2729 0.930 . S
C2726 C2725 1.369 . S
C2726 C2735 1.429 . S
C2727 C2725 1.419 . S
C2727 C2728 1.363 . S
C2727 H2730 0.929 . S
C2728 C2727 1.363 . S
C2728 C2734 1.428 . S
H2729 C2725 0.930 . S
H2730 C2727 0.929 . S
S2731 N2732 1.613 . S
S2731 N2733 1.610 . S
N2732 S2731 1.613 . S
N2732 C2735 1.350 . S
N2733 S2731 1.610 . S
N2733 C2734 1.351 . S
C2734 C2728 1.428 . S
C2734 N2733 1.351 . S
C2734 C2735 1.434 . S
C2735 C2726 1.429 . S
C2735 N2732 1.350 . S
C2735 C2734 1.434 . S
C1681 C109 2.021 . S
C1683 C392 1.873 . S
C1692 C61 1.940 . S
C1694 C483 2.119 . S
C1703 C74 1.738 . S
C1705 C560 1.713 . S
C1716 C658 1.340 . S
C1714 C96 1.474 . S
C1725 C25 1.527 1_455 S
C1727 C742 1.517 . S
C1738 C814 0.989 . S
C1736 C40 1.075 . S
C1749 C903 1.395 . S
C1747 C46 1.353 . S
C1758 C5 1.183 . S
C1760 C980 1.496 . S
C1771 C399 1.981 . S
C1769 C229 1.800 . S
C1780 C249 0.777 . S
C1782 C490 0.775 . S
C1793 C567 1.079 . S
C1791 C271 0.936 . S
C1804 C644 1.795 . S
C1802 C172 1.814 . S
C1813 C236 2.135 1_455 S
C1815 C728 1.951 . S
C1826 C830 1.316 . S
C1824 C242 1.372 . S
C1837 C910 0.786 . S
C1835 C278 0.829 . S
C1848 C987 1.729 . S
C1846 C179 1.902 . S
C1859 C406 1.384 . S
C1857 C159 1.126 . S
C1868 C285 1.602 . S
C1870 C1071 1.733 1_556 S
C1881 C1159 2.226 . S
C1879 C333 2.383 . S
C1892 C1232 0.686 1_655 S
C1890 C320 0.723 . S
C1901 C123 1.231 . S
C1903 C994 1.269 . S
C1912 C138 1.514 . S
C1914 C574 1.502 . S
C1923 C326 2.261 . S
C1925 C1323 2.196 . S
C1936 C1400 0.759 . S
C1934 C298 0.749 . S
C1947 C403 1.827 . S
C1945 C67 1.885 . S
C1958 C1418 2.085 . S
C1956 C110 2.135 . S
C1967 C88 1.699 . S
C1969 C571 1.687 . S
C1978 C75 1.187 . S
C1980 C1318 1.255 . S
C1991 C730 1.508 . S
C1989 C11 1.418 . S
C2000 C47 0.980 . S
C2002 C1162 0.963 . S
C2013 C914 1.226 . S
C2011 C32 0.979 . S
C2024 C1495 1.544 . S
C2022 C26 1.808 . S
C2035 C410 2.062 . S
C2033 C152 2.190 . S
C2046 C1402 0.777 . S
C2044 C319 0.782 . S
C2055 C124 1.133 . S
C2057 C578 1.079 . S
C2066 C284 1.848 . S
C2068 C1327 1.814 . S
C2077 C145 2.034 . S
C2079 C739 1.939 . S
C2090 C1155 1.225 . S
C2088 C312 1.305 . S
C2099 C117 0.748 1_565 S
C2101 C898 0.737 . S
C2110 C291 1.772 . S
C2112 C1502 1.625 . S
C2121 C194 1.470 . S
C2123 C394 1.450 1_554 S
C2132 C180 1.798 . S
C2134 C1082 1.722 . S
C2143 C263 2.274 . S
C2145 C812 2.115 . S
C2154 C243 0.732 . S
C2156 C1243 0.713 . S
C2167 C1486 1.526 . S
C2165 C277 1.275 . S
C2176 C215 1.427 . S
C2178 C562 1.510 . S
C2189 C662 2.114 . S
C2187 C256 2.129 . S
C2200 C487 0.827 . S
C2198 C200 0.858 . S
C2209 C81 2.021 . S
C2211 C1568 1.873 . S
C2222 C1407 2.117 . S
C2220 C89 1.951 . S
C2231 C102 1.736 . S
C2233 C1652 1.713 . S
C2242 C68 1.474 . S
C2244 C1330 1.334 . S
C2253 C53 1.525 . S
C2255 C1078 1.515 . S
C2266 C1150 0.973 1_455 S
C2264 C12 1.086 . S
C2277 C1239 1.395 . S
C2275 C18 1.346 . S
C2288 C1484 1.492 . S
C2286 C33 1.190 . S
C2299 C1575 1.986 . S
C2297 C257 1.786 . S
C2308 C193 0.781 . S
C2310 C1414 0.768 . S
C2321 C1659 1.086 . S
C2319 C201 0.924 . S
C2332 C1316 1.799 . S
C2330 C214 1.814 . S
C2343 C1064 1.950 . S
C2341 C264 2.137 . S
C2352 C186 1.377 . S
C2354 C1166 1.319 . S
C2365 C1246 0.805 . S
C2363 C208 0.824 . S
C2374 C221 1.902 . S
C2376 C1491 1.727 . S
C2387 C1582 1.391 . S
C2385 C313 1.143 . S
C2396 C131 1.595 . S
C2398 C735 1.735 . S
C2409 C823 2.233 . S
C2407 C151 2.387 . S
C2420 C896 0.717 . S
C2418 C166 0.707 . S
C2431 C1498 1.267 . S
C2429 C305 1.222 . S
C2440 C292 1.520 1_554 S
C2442 C1666 1.508 . S
C2453 C651 2.195 . S
C2451 C144 2.254 . S
C2464 C476 0.747 . S
C2462 C116 0.755 . S
C2473 C95 1.881 . S
C2475 C1579 1.823 . S
C2486 C494 2.083 . S
C2484 C82 2.132 . S
C2495 C60 1.696 . S
C2497 C1663 1.682 . S
C2506 C103 1.171 . S
C2508 C646 1.257 . S
C2517 C39 1.422 . S
C2519 C1066 1.509 . S
C2530 C826 0.953 . S
C2528 C19 0.986 . S
C2539 C4 0.975 . S
C2541 C1250 1.226 . S
C2550 C54 1.807 . S
C2552 C991 1.545 . S
C2563 C1586 2.061 . S
C2561 C334 2.190 . S
C2572 C165 0.783 . S
C2574 C478 0.779 . S
C2585 C1670 1.082 . S
C2583 C306 1.136 . S
C2594 C130 1.845 . S
C2596 C655 1.811 . S
C2605 C327 2.033 . S
C2607 C1075 1.941 . S
C2618 C819 1.230 . S
C2616 C158 1.299 . S
C2627 C299 0.755 . S
C2629 C1234 0.723 1_655 S
C2640 C998 1.633 . S
C2638 C137 1.767 . S
C2651 C1570 1.457 . S
C2649 C250 1.474 . S
C2662 C746 1.717 1_665 S
C2660 C222 1.798 . S
C2671 C235 2.275 . S
C2673 C1148 2.113 . S
C2684 C907 0.709 . S
C2682 C187 0.732 . S
C2693 C207 1.273 . S
C2695 C982 1.526 . S
C2704 C173 1.416 . S
C2706 C1654 1.525 . S
C2717 C1334 2.115 . S
C2715 C228 2.129 1_565 S
C2728 C1411 0.832 . S
C2726 C270 0.845 . S
