# Generated by pormake.
# Topology the, (3,8)-cn, num edge types: 1
# Building blocks:
#     Node 0, Type 0, BuildingBlock: WUSLED_clean_sbu_0, # of connection points: 3
#     Node 1, Type 0, BuildingBlock: WUSLED_clean_sbu_0, # of connection points: 3
#     Node 2, Type 0, BuildingBlock: WUSLED_clean_sbu_0, # of connection points: 3
#     Node 3, Type 0, BuildingBlock: WUSLED_clean_sbu_0, # of connection points: 3
#     Node 4, Type 0, BuildingBlock: WUSLED_clean_sbu_0, # of connection points: 3
#     Node 5, Type 0, BuildingBlock: WUSLED_clean_sbu_0, # of connection points: 3
#     Node 6, Type 0, BuildingBlock: WUSLED_clean_sbu_0, # of connection points: 3
#     Node 7, Type 0, BuildingBlock: WUSLED_clean_sbu_0, # of connection points: 3
#     Node 8, Type 1, BuildingBlock: GIZVER_clean_sbu_0, # of connection points: 8
#     Node 9, Type 1, BuildingBlock: GIZVER_clean_sbu_0, # of connection points: 8
#     Node 10, Type 1, BuildingBlock: GIZVER_clean_sbu_0, # of connection points: 8
#     Edge 11, Type (0, 1), BuildingBlock: UVAHIK_clean_linker_0, # of connection points: 2
#     Edge 12, Type (0, 1), BuildingBlock: UVAHIK_clean_linker_0, # of connection points: 2
#     Edge 13, Type (0, 1), BuildingBlock: UVAHIK_clean_linker_0, # of connection points: 2
#     Edge 14, Type (0, 1), BuildingBlock: UVAHIK_clean_linker_0, # of connection points: 2
#     Edge 15, Type (0, 1), BuildingBlock: UVAHIK_clean_linker_0, # of connection points: 2
#     Edge 16, Type (0, 1), BuildingBlock: UVAHIK_clean_linker_0, # of connection points: 2
#     Edge 17, Type (0, 1), BuildingBlock: UVAHIK_clean_linker_0, # of connection points: 2
#     Edge 18, Type (0, 1), BuildingBlock: UVAHIK_clean_linker_0, # of connection points: 2
#     Edge 19, Type (0, 1), BuildingBlock: UVAHIK_clean_linker_0, # of connection points: 2
#     Edge 20, Type (0, 1), BuildingBlock: UVAHIK_clean_linker_0, # of connection points: 2
#     Edge 21, Type (0, 1), BuildingBlock: UVAHIK_clean_linker_0, # of connection points: 2
#     Edge 22, Type (0, 1), BuildingBlock: UVAHIK_clean_linker_0, # of connection points: 2
#     Edge 23, Type (0, 1), BuildingBlock: UVAHIK_clean_linker_0, # of connection points: 2
#     Edge 24, Type (0, 1), BuildingBlock: UVAHIK_clean_linker_0, # of connection points: 2
#     Edge 25, Type (0, 1), BuildingBlock: UVAHIK_clean_linker_0, # of connection points: 2
#     Edge 26, Type (0, 1), BuildingBlock: UVAHIK_clean_linker_0, # of connection points: 2
#     Edge 27, Type (0, 1), BuildingBlock: UVAHIK_clean_linker_0, # of connection points: 2
#     Edge 28, Type (0, 1), BuildingBlock: UVAHIK_clean_linker_0, # of connection points: 2
#     Edge 29, Type (0, 1), BuildingBlock: UVAHIK_clean_linker_0, # of connection points: 2
#     Edge 30, Type (0, 1), BuildingBlock: UVAHIK_clean_linker_0, # of connection points: 2
#     Edge 31, Type (0, 1), BuildingBlock: UVAHIK_clean_linker_0, # of connection points: 2
#     Edge 32, Type (0, 1), BuildingBlock: UVAHIK_clean_linker_0, # of connection points: 2
#     Edge 33, Type (0, 1), BuildingBlock: UVAHIK_clean_linker_0, # of connection points: 2
#     Edge 34, Type (0, 1), BuildingBlock: UVAHIK_clean_linker_0, # of connection points: 2
# Relax obj value: 0.042
# Max RMSD: 0.140
# Mean RMSD: 0.059
data_MOF--net-the--node1-WUSLED_clean_sbu_0--node2-GIZVER_clean_sbu_0--edge1-UVAHIK_clean_linker_0
_symmetry_space_group_name_H-M    P1
_symmetry_Int_Tables_number       1
_symmetry_cell_setting            triclinic
loop_
_symmetry_equiv_pos_as_xyz
'x, y, z'
_cell_length_a     63.736971
_cell_length_b     60.163725
_cell_length_c     56.002459
_cell_angle_alpha  86.791173
_cell_angle_beta   93.44802
_cell_angle_gamma 99.850057
loop_
_atom_site_label
_atom_site_type_symbol
_atom_site_fract_x
_atom_site_fract_y
_atom_site_fract_z
_atom_type_partial_charge
C0 C 0.33724 0.29342 0.43531 0.0
C1 C 0.34161 0.27851 0.41856 0.0
C2 C 0.35675 0.25603 0.45038 0.0
C3 C 0.35113 0.25991 0.42606 0.0
C4 C 0.35276 0.27118 0.46709 0.0
C5 C 0.34295 0.28968 0.4596 0.0
U6 U 0.33136 0.3428 0.39167 0.0
O7 O 0.3026 0.35392 0.37487 0.0
O8 O 0.32505 0.37689 0.39725 0.0
C9 C 0.30625 0.37309 0.38577 0.0
C10 C 0.32687 0.31291 0.42765 0.0
C11 C 0.28805 0.37821 0.39824 0.0
C12 C 0.27129 0.38462 0.43455 0.0
C13 C 0.28902 0.38032 0.42318 0.0
C14 C 0.25134 0.38444 0.39632 0.0
C15 C 0.25224 0.38656 0.42123 0.0
C16 C 0.26911 0.3804 0.38493 0.0
C17 C 0.36685 0.35499 0.339 0.0
C18 C 0.3604 0.38283 0.30755 0.0
C19 C 0.39175 0.365 0.30754 0.0
C20 C 0.38562 0.35247 0.32848 0.0
C21 C 0.37916 0.38025 0.29675 0.0
C22 C 0.35432 0.37033 0.32854 0.0
C23 C 0.36049 0.34163 0.36088 0.0
O24 O 0.33898 0.33284 0.42927 0.0
O25 O 0.315 0.31085 0.4076 0.0
O26 O 0.34143 0.32916 0.35946 0.0
O27 O 0.36438 0.35255 0.38077 0.0
H28 H 0.33765 0.28117 0.39965 0.0
H29 H 0.35434 0.24867 0.41277 0.0
H30 H 0.3569 0.26852 0.48595 0.0
H31 H 0.33979 0.30105 0.47278 0.0
H32 H 0.27234 0.38605 0.4538 0.0
H33 H 0.30339 0.3785 0.43393 0.0
H34 H 0.23693 0.38614 0.38559 0.0
H35 H 0.26803 0.37883 0.3657 0.0
H36 H 0.35023 0.39423 0.29958 0.0
H37 H 0.40646 0.36287 0.29992 0.0
H38 H 0.39553 0.3408 0.33646 0.0
H39 H 0.33977 0.37249 0.33652 0.0
C40 C 0.669 0.34252 0.27171 0.0
C41 C 0.67022 0.3661 0.27054 0.0
C42 C 0.64993 0.36425 0.23208 0.0
C43 C 0.66077 0.37687 0.25088 0.0
C44 C 0.64946 0.34075 0.23303 0.0
C45 C 0.65885 0.33004 0.25263 0.0
U46 U 0.70866 0.33348 0.32542 0.0
O47 O 0.70109 0.32004 0.36187 0.0
O48 O 0.71864 0.30176 0.33925 0.0
C49 C 0.70897 0.30155 0.35937 0.0
C50 C 0.67676 0.33021 0.2931 0.0
C51 C 0.69508 0.28025 0.36618 0.0
C52 C 0.66731 0.2485 0.3565 0.0
C53 C 0.68012 0.26891 0.34967 0.0
C54 C 0.68404 0.25076 0.39649 0.0
C55 C 0.66917 0.23909 0.38 0.0
C56 C 0.69687 0.27109 0.38961 0.0
C57 C 0.75986 0.37588 0.33911 0.0
C58 C 0.79533 0.37131 0.35539 0.0
C59 C 0.7812 0.40494 0.36303 0.0
C60 C 0.76247 0.39686 0.34966 0.0
C61 C 0.79789 0.3923 0.36603 0.0
C62 C 0.7765 0.36314 0.34213 0.0
C63 C 0.74 0.36807 0.32458 0.0
O64 O 0.69394 0.32128 0.29087 0.0
O65 O 0.67644 0.33939 0.31381 0.0
O66 O 0.72205 0.36831 0.33489 0.0
O67 O 0.73955 0.35004 0.31218 0.0
H68 H 0.67799 0.37613 0.28505 0.0
H69 H 0.66134 0.39497 0.25081 0.0
H70 H 0.64163 0.33055 0.21869 0.0
H71 H 0.65777 0.31185 0.25313 0.0
H72 H 0.6562 0.23992 0.34327 0.0
H73 H 0.67846 0.27577 0.33149 0.0
H74 H 0.68565 0.24431 0.41483 0.0
H75 H 0.70822 0.27969 0.40265 0.0
H76 H 0.8078 0.36107 0.35753 0.0
H77 H 0.78275 0.42131 0.37069 0.0
H78 H 0.75001 0.40712 0.34744 0.0
H79 H 0.77503 0.34688 0.33425 0.0
C80 C 0.6699 0.69954 0.29303 0.0
C81 C 0.68216 0.69816 0.27325 0.0
C82 C 0.65267 0.67286 0.25414 0.0
C83 C 0.67359 0.68502 0.25396 0.0
C84 C 0.64052 0.67423 0.274 0.0
C85 C 0.64902 0.68747 0.29315 0.0
U86 U 0.71087 0.71715 0.34474 0.0
O87 O 0.7244 0.75093 0.35718 0.0
O88 O 0.70585 0.72611 0.38128 0.0
C89 C 0.71568 0.74703 0.37801 0.0
C90 C 0.67821 0.71375 0.31343 0.0
C91 C 0.7044 0.76464 0.38559 0.0
C92 C 0.67475 0.78543 0.38161 0.0
C93 C 0.68525 0.76869 0.37386 0.0
C94 C 0.70249 0.79424 0.41278 0.0
C95 C 0.68324 0.79842 0.40121 0.0
C96 C 0.71294 0.77753 0.40503 0.0
C97 C 0.75861 0.68564 0.35572 0.0
C98 C 0.78269 0.68766 0.39124 0.0
C99 C 0.79066 0.66877 0.35663 0.0
C100 C 0.77207 0.67375 0.34459 0.0
C101 C 0.79621 0.67559 0.38014 0.0
C102 C 0.76406 0.69271 0.37909 0.0
C103 C 0.73884 0.68998 0.34268 0.0
O104 O 0.67738 0.70341 0.33475 0.0
O105 O 0.69603 0.72809 0.31058 0.0
O106 O 0.7401 0.70938 0.33039 0.0
O107 O 0.72129 0.68468 0.35441 0.0
H108 H 0.69834 0.70722 0.2726 0.0
H109 H 0.68343 0.68417 0.23904 0.0
H110 H 0.62426 0.66535 0.27458 0.0
H111 H 0.63918 0.68838 0.30807 0.0
H112 H 0.66009 0.78835 0.3721 0.0
H113 H 0.67845 0.75891 0.35876 0.0
H114 H 0.70934 0.80362 0.42813 0.0
H115 H 0.72768 0.77457 0.41435 0.0
H116 H 0.78658 0.69332 0.40924 0.0
H117 H 0.80046 0.65913 0.34767 0.0
H118 H 0.76807 0.66808 0.32659 0.0
H119 H 0.75388 0.70199 0.38796 0.0
C120 C 0.27139 0.66111 0.34353 0.0
C121 C 0.26904 0.66256 0.36816 0.0
C122 C 0.23153 0.64526 0.36359 0.0
C123 C 0.24931 0.65468 0.3781 0.0
C124 C 0.23392 0.64441 0.33885 0.0
C125 C 0.25362 0.65219 0.32898 0.0
U126 U 0.32527 0.70057 0.33598 0.0
O127 O 0.35689 0.69189 0.33118 0.0
O128 O 0.342 0.71178 0.30306 0.0
C129 C 0.358 0.70117 0.30939 0.0
C130 C 0.29222 0.66795 0.33266 0.0
C131 C 0.36435 0.68737 0.29105 0.0
C132 C 0.35718 0.65549 0.26512 0.0
C133 C 0.35077 0.6681 0.28287 0.0
C134 C 0.39078 0.68126 0.26374 0.0
C135 C 0.37725 0.66201 0.25523 0.0
C136 C 0.38437 0.69378 0.28142 0.0
C137 C 0.34021 0.75354 0.37292 0.0
C138 C 0.37591 0.77443 0.38097 0.0
C139 C 0.34511 0.79129 0.38808 0.0
C140 C 0.33167 0.77187 0.3803 0.0
C141 C 0.3674 0.79274 0.38874 0.0
C142 C 0.36245 0.75505 0.37304 0.0
C143 C 0.32562 0.73295 0.3657 0.0
O144 O 0.29424 0.68639 0.31866 0.0
O145 O 0.30927 0.66646 0.34669 0.0
O146 O 0.33182 0.71361 0.37205 0.0
O147 O 0.31717 0.73354 0.34373 0.0
H148 H 0.28249 0.66945 0.37979 0.0
H149 H 0.24816 0.65544 0.39723 0.0
H150 H 0.22054 0.63771 0.32703 0.0
H151 H 0.25505 0.651 0.30992 0.0
H152 H 0.3463 0.64087 0.2589 0.0
H153 H 0.33521 0.66291 0.29011 0.0
H154 H 0.40649 0.68655 0.25692 0.0
H155 H 0.3951 0.70855 0.28759 0.0
H156 H 0.393 0.77511 0.38095 0.0
H157 H 0.33801 0.80495 0.39417 0.0
H158 H 0.31456 0.77104 0.38034 0.0
H159 H 0.36941 0.74118 0.36722 0.0
C160 C 0.28397 0.66287 0.70855 0.0
C161 C 0.28045 0.67262 0.68561 0.0
C162 C 0.24546 0.64881 0.68168 0.0
C163 C 0.26139 0.66561 0.67227 0.0
C164 C 0.24892 0.6395 0.70491 0.0
C165 C 0.26801 0.64645 0.71818 0.0
U166 U 0.33655 0.70286 0.72075 0.0
O167 O 0.35342 0.71334 0.75477 0.0
O168 O 0.3688 0.69525 0.72965 0.0
C169 C 0.36988 0.70372 0.75091 0.0
C170 C 0.30433 0.6692 0.72238 0.0
C171 C 0.37827 0.6902 0.77101 0.0
C172 C 0.40858 0.67534 0.79018 0.0
C173 C 0.39931 0.68627 0.77065 0.0
C174 C 0.37571 0.6715 0.81072 0.0
C175 C 0.39705 0.66816 0.81066 0.0
C176 C 0.3664 0.68244 0.79109 0.0
C177 C 0.35051 0.75699 0.68132 0.0
C178 C 0.37436 0.79168 0.69145 0.0
C179 C 0.36696 0.7825 0.6499 0.0
C180 C 0.35358 0.76259 0.65698 0.0
C181 C 0.37744 0.79733 0.66705 0.0
C182 C 0.36111 0.77164 0.69854 0.0
C183 C 0.33609 0.73596 0.6882 0.0
O184 O 0.3216 0.66871 0.71084 0.0
O185 O 0.3058 0.68711 0.73518 0.0
O186 O 0.32731 0.73545 0.70893 0.0
O187 O 0.34276 0.71707 0.68421 0.0
H188 H 0.29254 0.68545 0.67792 0.0
H189 H 0.25914 0.67332 0.65457 0.0
H190 H 0.23712 0.62637 0.7126 0.0
H191 H 0.27045 0.63873 0.73585 0.0
H192 H 0.42488 0.67267 0.78928 0.0
H193 H 0.40877 0.69207 0.75537 0.0
H194 H 0.3664 0.6663 0.82623 0.0
H195 H 0.35012 0.68524 0.79187 0.0
H196 H 0.38241 0.80261 0.70509 0.0
H197 H 0.36883 0.78646 0.63097 0.0
H198 H 0.34554 0.75157 0.6434 0.0
H199 H 0.35917 0.76765 0.71746 0.0
C200 C 0.28328 0.32584 0.66277 0.0
C201 C 0.27967 0.34479 0.6744 0.0
C202 C 0.24799 0.347 0.64818 0.0
C203 C 0.26219 0.3553 0.66716 0.0
C204 C 0.25162 0.32781 0.63683 0.0
C205 C 0.2691 0.31737 0.64406 0.0
U206 U 0.33269 0.31906 0.70325 0.0
O207 O 0.3453 0.28832 0.7155 0.0
O208 O 0.36454 0.31441 0.69332 0.0
C209 C 0.36269 0.29401 0.70352 0.0
C210 C 0.30199 0.31505 0.66947 0.0
C211 C 0.36834 0.27649 0.68889 0.0
C212 C 0.35881 0.2461 0.66126 0.0
C213 C 0.35292 0.26278 0.67476 0.0
C214 C 0.39554 0.25685 0.67568 0.0
C215 C 0.38022 0.24298 0.66152 0.0
C216 C 0.38964 0.2734 0.68921 0.0
C217 C 0.34747 0.3565 0.75752 0.0
C218 C 0.38229 0.3707 0.77629 0.0
C219 C 0.35045 0.3697 0.79809 0.0
C220 C 0.33796 0.3605 0.77847 0.0
C221 C 0.37274 0.37526 0.7971 0.0
C222 C 0.36979 0.36134 0.75673 0.0
C223 C 0.33371 0.34846 0.73646 0.0
O224 O 0.32059 0.32806 0.66704 0.0
O225 O 0.30104 0.3026 0.68955 0.0
O226 O 0.32317 0.32771 0.73837 0.0
O227 O 0.34172 0.35366 0.71537 0.0
H228 H 0.29044 0.35153 0.68894 0.0
H229 H 0.25974 0.36985 0.67649 0.0
H230 H 0.24122 0.32114 0.62197 0.0
H231 H 0.2717 0.30279 0.63483 0.0
H232 H 0.34665 0.23587 0.65037 0.0
H233 H 0.33638 0.26499 0.67416 0.0
H234 H 0.41211 0.25472 0.67658 0.0
H235 H 0.40176 0.28376 0.70004 0.0
H236 H 0.39943 0.37451 0.77507 0.0
H237 H 0.34256 0.37319 0.81373 0.0
H238 H 0.32078 0.35696 0.77947 0.0
H239 H 0.37758 0.35826 0.74086 0.0
C240 C 0.67794 0.28426 0.69553 0.0
C241 C 0.68431 0.28187 0.67237 0.0
C242 C 0.66167 0.24486 0.6706 0.0
C243 C 0.67618 0.26239 0.65998 0.0
C244 C 0.65565 0.24723 0.69397 0.0
C245 C 0.66368 0.26675 0.70626 0.0
U246 U 0.71976 0.33652 0.70883 0.0
O247 O 0.71567 0.37114 0.71565 0.0
O248 O 0.73119 0.35131 0.7433 0.0
C249 C 0.72374 0.37011 0.73777 0.0
C250 C 0.68574 0.30491 0.70866 0.0
C251 C 0.71148 0.37793 0.75614 0.0
C252 C 0.67891 0.3761 0.77723 0.0
C253 C 0.69027 0.36803 0.75983 0.0
C254 C 0.70993 0.40385 0.7875 0.0
C255 C 0.68862 0.39415 0.79127 0.0
C256 C 0.72121 0.39582 0.77011 0.0
C257 C 0.77126 0.34771 0.67436 0.0
C258 C 0.79517 0.38354 0.66868 0.0
C259 C 0.80718 0.34853 0.66158 0.0
C260 C 0.78738 0.33642 0.66778 0.0
C261 C 0.8113 0.37228 0.66169 0.0
C262 C 0.77536 0.37137 0.67501 0.0
C263 C 0.75031 0.33442 0.67998 0.0
O264 O 0.70248 0.30418 0.7234 0.0
O265 O 0.68678 0.32411 0.696 0.0
O266 O 0.73353 0.34382 0.6736 0.0
O267 O 0.74921 0.32417 0.70132 0.0
H268 H 0.69546 0.29511 0.66381 0.0
H269 H 0.68134 0.261 0.64213 0.0
H270 H 0.64434 0.23419 0.70258 0.0
H271 H 0.65857 0.26828 0.72413 0.0
H272 H 0.66261 0.36808 0.77982 0.0
H273 H 0.68252 0.35413 0.74925 0.0
H274 H 0.71782 0.41796 0.79769 0.0
H275 H 0.73756 0.4037 0.76745 0.0
H276 H 0.79765 0.40179 0.66877 0.0
H277 H 0.8193 0.33923 0.65676 0.0
H278 H 0.78459 0.31816 0.66731 0.0
H279 H 0.76317 0.38045 0.68013 0.0
C280 C 0.7072 0.74274 0.6096 0.0
C281 C 0.70229 0.75708 0.62664 0.0
C282 C 0.688 0.78046 0.595 0.0
C283 C 0.69291 0.77585 0.61938 0.0
C284 C 0.69251 0.76584 0.57801 0.0
C285 C 0.70215 0.74718 0.58527 0.0
U286 U 0.71372 0.69263 0.65229 0.0
O287 O 0.72015 0.65884 0.64545 0.0
O288 O 0.74278 0.68142 0.66803 0.0
C289 C 0.73913 0.66257 0.65655 0.0
C290 C 0.7176 0.72321 0.61691 0.0
C291 C 0.75722 0.65812 0.6434 0.0
C292 C 0.77334 0.6523 0.60645 0.0
C293 C 0.75564 0.65572 0.61848 0.0
C294 C 0.79445 0.65385 0.64397 0.0
C295 C 0.79296 0.65154 0.61907 0.0
C296 C 0.77672 0.657 0.65601 0.0
C297 C 0.67934 0.67906 0.70611 0.0
C298 C 0.6721 0.64273 0.72801 0.0
C299 C 0.67037 0.67713 0.74779 0.0
C300 C 0.67567 0.68978 0.72667 0.0
C301 C 0.66848 0.65347 0.74866 0.0
C302 C 0.67763 0.65542 0.70695 0.0
C303 C 0.68538 0.69284 0.68423 0.0
O304 O 0.7296 0.72504 0.63687 0.0
O305 O 0.70549 0.7033 0.61509 0.0
O306 O 0.68097 0.68271 0.66387 0.0
O307 O 0.70439 0.7054 0.68548 0.0
H308 H 0.70577 0.75385 0.64557 0.0
H309 H 0.6893 0.78667 0.63287 0.0
H310 H 0.68894 0.76907 0.55911 0.0
H311 H 0.70575 0.73627 0.57187 0.0
H312 H 0.77182 0.65066 0.58723 0.0
H313 H 0.74082 0.65668 0.60825 0.0
H314 H 0.8093 0.65302 0.65418 0.0
H315 H 0.77829 0.65878 0.67522 0.0
H316 H 0.67095 0.62455 0.72825 0.0
H317 H 0.66746 0.68583 0.76338 0.0
H318 H 0.67697 0.70799 0.72641 0.0
H319 H 0.68064 0.64675 0.69139 0.0
Co320 Co 0.06602 0.49321 0.53685 0.0
Co321 Co 0.04407 0.48449 0.4962 0.0
Co322 Co 0.02295 0.51885 0.52343 0.0
O323 O 0.03644 0.49106 0.52636 0.0
H324 H 0.02743 0.47824 0.53365 0.0
O325 O 1.00959 0.54675 0.52061 0.0
Co326 Co 0.98035 0.54488 0.50912 0.0
Co327 Co 1.00111 0.55322 0.5505 0.0
H328 H 0.01883 0.55962 0.51368 0.0
O329 O 0.05039 0.45635 0.48977 0.0
O330 O 0.0729 0.48583 0.50459 0.0
O331 O 0.04286 0.50722 0.47071 0.0
O332 O 0.04107 0.53361 0.49634 0.0
O333 O 1.00074 0.50315 0.50005 0.0
O334 O 0.95405 0.54533 0.4974 0.0
O335 O 0.98177 0.57412 0.49815 0.0
O336 O 0.97503 0.51408 0.51834 0.0
O337 O 1.00482 0.50403 0.55043 0.0
O338 O 1.00068 0.52999 0.57569 0.0
O339 O 0.97265 0.55266 0.54084 0.0
O340 O 0.99513 0.58164 0.55663 0.0
C341 C 0.08518 0.47179 0.55278 0.0
C342 C 0.06482 0.53703 0.54255 0.0
C343 C 0.04599 0.52778 0.47604 0.0
C344 C 0.0696 0.46567 0.49638 0.0
C345 C 0.96184 0.56632 0.49214 0.0
C346 C 0.98097 0.50106 0.50402 0.0
C347 C 0.99866 0.50951 0.57031 0.0
C348 C 0.97606 0.57286 0.54894 0.0
O349 O 0.09262 0.49286 0.54752 0.0
O350 O 0.06511 0.4639 0.54747 0.0
O351 O 0.04508 0.53449 0.54678 0.0
O352 O 0.071 0.52424 0.52812 0.0
Co353 Co 0.54671 0.97447 0.5115 0.0
Co354 Co 0.55673 0.99311 0.55274 0.0
Co355 Co 0.5226 0.01849 0.52356 0.0
O356 O 0.54885 1.00446 0.52251 0.0
H357 H 0.56067 0.0148 0.51597 0.0
O358 O 0.4965 0.03272 0.5245 0.0
Co359 Co 0.4987 0.06302 0.53497 0.0
Co360 Co 0.48884 0.04373 0.49388 0.0
H361 H 0.48467 0.02251 0.53111 0.0
O362 O 0.58418 0.98722 0.5602 0.0
O363 O 0.5565 0.96388 0.54363 0.0
O364 O 0.53621 0.99058 0.57694 0.0
O365 O 0.5101 0.99797 0.55108 0.0
O366 O 0.53882 0.04068 0.54636 0.0
O367 O 0.49857 0.09018 0.5454 0.0
O368 O 0.47163 0.06065 0.54488 0.0
O369 O 0.5275 0.06957 0.52695 0.0
O370 O 0.53518 0.03898 0.49611 0.0
O371 O 0.50941 0.04606 0.46971 0.0
O372 O 0.48938 0.07316 0.50244 0.0
O373 O 0.46154 0.04987 0.48606 0.0
C374 C 0.56612 0.95641 0.4954 0.0
C375 C 0.50486 0.97498 0.50529 0.0
C376 C 0.51653 0.98981 0.5713 0.0
C377 C 0.5761 0.96752 0.55237 0.0
C378 C 0.479 0.0816 0.54995 0.0
C379 C 0.54085 0.06191 0.54156 0.0
C380 C 0.52903 0.04699 0.47573 0.0
C381 C 0.46985 0.06967 0.49348 0.0
O382 O 0.54672 0.94757 0.50034 0.0
O383 O 0.57359 0.97719 0.50106 0.0
O384 O 0.5063 0.99622 0.50075 0.0
O385 O 0.51828 0.9678 0.52013 0.0
Co386 Co 0.4976 0.52671 0.07254 0.0
Co387 Co 0.48672 0.48793 0.05259 0.0
Co388 Co 0.5231 0.51843 0.0231 0.0
O389 O 0.49623 0.51702 0.04033 0.0
H390 H 0.48506 0.52245 0.03037 0.0
O391 O 0.55 0.51986 1.00594 0.0
Co392 Co 0.54903 0.50934 0.97413 0.0
Co393 Co 0.55927 0.5486 0.99276 0.0
H394 H 0.56124 0.51489 0.01613 0.0
O395 O 0.45871 0.47861 0.06142 0.0
O396 O 0.48641 0.4956 0.08422 0.0
O397 O 0.50629 0.46675 0.05285 0.0
O398 O 0.53378 0.49337 0.04368 0.0
O399 O 0.50691 0.4961 1.00036 0.0
O400 O 0.55017 0.4987 0.94548 0.0
O401 O 0.57553 0.50182 0.97541 0.0
O402 O 0.52097 0.51494 0.96875 0.0
O403 O 0.51232 0.54344 1.00253 0.0
O404 O 0.53954 0.56958 0.99147 0.0
O405 O 0.56031 0.54022 0.96151 0.0
O406 O 0.58733 0.55814 0.98468 0.0
C407 C 0.47808 0.54019 0.09362 0.0
C408 C 0.53981 0.53619 0.06844 0.0
C409 C 0.52622 0.47366 0.05229 0.0
C410 C 0.46669 0.48553 0.08211 0.0
C411 C 0.56895 0.49553 0.95387 0.0
C412 C 0.50643 0.50035 0.97775 0.0
C413 C 0.51967 0.56285 0.99302 0.0
C414 C 0.57987 0.55077 0.96397 0.0
O415 O 0.49684 0.53658 0.10162 0.0
O416 O 0.47117 0.53435 0.07202 0.0
O417 O 0.53921 0.54081 0.0459 0.0
O418 O 0.52564 0.52095 0.07711 0.0
C419 C 0.23524 0.40805 0.44957 0.0
C420 C 0.23332 0.39094 0.43314 0.0
C421 C 0.21714 0.41318 0.4595 0.0
C422 C 0.15906 0.40788 0.44685 0.0
H423 H 0.15956 0.42863 0.51126 0.0
C424 C 0.08448 0.43259 0.48351 0.0
C425 C 0.08778 0.45389 0.49352 0.0
C426 C 0.1018 0.42225 0.47912 0.0
C427 C 0.15924 0.42288 0.49323 0.0
H428 H 0.21121 0.36496 0.41516 0.0
H429 H 0.17966 0.37355 0.43282 0.0
H430 H 0.19081 0.41509 0.49803 0.0
H431 H 0.11184 0.48061 0.50766 0.0
H432 H 0.14199 0.46244 0.50015 0.0
H433 H 0.12762 0.41583 0.44197 0.0
C434 C 0.19503 0.38347 0.43757 0.0
C435 C 0.17713 0.4152 0.48562 0.0
C436 C 0.21309 0.3785 0.42748 0.0
C437 C 0.10871 0.4642 0.49993 0.0
C438 C 0.12601 0.45374 0.49575 0.0
C439 C 0.14118 0.41539 0.45451 0.0
C440 C 0.19677 0.40116 0.45335 0.0
C441 C 0.17734 0.40787 0.46222 0.0
C442 C 0.12274 0.4329 0.48481 0.0
C443 C 0.14116 0.42321 0.47766 0.0
H444 H 0.25066 0.41799 0.4541 0.0
H445 H 0.21907 0.4271 0.47133 0.0
H446 H 0.15878 0.40281 0.42857 0.0
H447 H 0.06856 0.42411 0.47853 0.0
H448 H 0.09882 0.40604 0.47092 0.0
C449 C 0.6643 0.20149 0.40291 0.0
C450 C 0.65574 0.21724 0.38738 0.0
C451 C 0.65161 0.1813 0.41047 0.0
C452 C 0.60153 0.14225 0.39592 0.0
H453 H 0.60565 0.12404 0.4633 0.0
C454 C 0.53847 0.07492 0.44138 0.0
C455 C 0.54504 0.06159 0.46095 0.0
C456 C 0.55305 0.09186 0.43036 0.0
C457 C 0.60454 0.12857 0.44434 0.0
H458 H 0.62698 0.22387 0.36755 0.0
H459 H 0.6049 0.18855 0.3806 0.0
H460 H 0.62876 0.15769 0.44829 0.0
H461 H 0.57253 0.05466 0.48308 0.0
H462 H 0.598 0.08375 0.46347 0.0
H463 H 0.5772 0.11316 0.392 0.0
C464 C 0.62153 0.19178 0.38675 0.0
C465 C 0.61777 0.14797 0.43574 0.0
C466 C 0.63421 0.21204 0.37926 0.0
C467 C 0.56684 0.06467 0.46818 0.0
C468 C 0.58143 0.08154 0.45707 0.0
C469 C 0.58834 0.12275 0.4045 0.0
C470 C 0.63003 0.17625 0.40262 0.0
C471 C 0.61635 0.15515 0.41147 0.0
C472 C 0.57462 0.09584 0.43852 0.0
C473 C 0.58956 0.11573 0.42888 0.0
H474 H 0.6809 0.20466 0.40915 0.0
H475 H 0.65876 0.16955 0.42239 0.0
H476 H 0.60022 0.14716 0.37705 0.0
H477 H 0.52183 0.07311 0.43532 0.0
H478 H 0.54715 0.10258 0.41625 0.0
C479 C 0.83456 0.67039 0.38078 0.0
C480 C 0.81577 0.66953 0.393 0.0
C481 C 0.85232 0.6627 0.39205 0.0
C482 C 0.87714 0.64677 0.45081 0.0
H483 H 0.90208 0.6068 0.41314 0.0
C484 C 0.95071 0.60432 0.48341 0.0
C485 C 0.94749 0.58094 0.48027 0.0
C486 C 0.93598 0.61746 0.47317 0.0
C487 C 0.89535 0.618 0.42386 0.0
H488 H 0.8013 0.66062 0.42706 0.0
H489 H 0.83236 0.64722 0.44676 0.0
H490 H 0.87393 0.62593 0.39506 0.0
H491 H 0.92651 0.55304 0.46391 0.0
H492 H 0.9013 0.57589 0.4457 0.0
H493 H 0.89839 0.63821 0.47984 0.0
C494 C 0.83337 0.65402 0.42846 0.0
C495 C 0.87933 0.62912 0.41345 0.0
C496 C 0.81555 0.6617 0.41716 0.0
C497 C 0.92949 0.57103 0.46657 0.0
C498 C 0.91507 0.58413 0.45606 0.0
C499 C 0.89337 0.63575 0.46121 0.0
C500 C 0.8518 0.65397 0.41586 0.0
C501 C 0.86982 0.64344 0.42684 0.0
C502 C 0.91808 0.60746 0.45925 0.0
C503 C 0.90239 0.62096 0.44791 0.0
H504 H 0.83548 0.67679 0.36234 0.0
H505 H 0.8664 0.66332 0.38196 0.0
H506 H 0.87023 0.6578 0.46156 0.0
H507 H 0.9643 0.61233 0.4942 0.0
H508 H 0.93867 0.63542 0.47591 0.0
C509 C 0.37742 0.83489 0.39234 0.0
C510 C 0.38165 0.81298 0.39819 0.0
C511 C 0.39054 0.8538 0.40182 0.0
C512 C 0.44421 0.87187 0.43137 0.0
H513 H 0.41905 0.92093 0.4533 0.0
C514 C 0.48965 0.93501 0.49658 0.0
C515 C 0.48932 0.95819 0.49197 0.0
C516 C 0.47623 0.91881 0.48346 0.0
C517 C 0.42633 0.9075 0.44697 0.0
H518 H 0.40287 0.79384 0.41892 0.0
H519 H 0.42556 0.82661 0.43557 0.0
H520 H 0.39635 0.88959 0.43347 0.0
H521 H 0.47399 0.9824 0.47025 0.0
H522 H 0.45013 0.95376 0.4473 0.0
H523 H 0.47405 0.88944 0.44539 0.0
C524 C 0.4124 0.82933 0.42323 0.0
C525 C 0.41334 0.88953 0.43558 0.0
C526 C 0.39936 0.81047 0.41368 0.0
C527 C 0.47469 0.96471 0.47422 0.0
C528 C 0.46102 0.94833 0.46113 0.0
C529 C 0.45711 0.8897 0.44284 0.0
C530 C 0.40819 0.85127 0.41744 0.0
C531 C 0.42207 0.87127 0.428 0.0
C532 C 0.46193 0.92521 0.46539 0.0
C533 C 0.44829 0.90752 0.45117 0.0
H534 H 0.36404 0.83745 0.38025 0.0
H535 H 0.38696 0.87042 0.39669 0.0
H536 H 0.45162 0.85846 0.42525 0.0
H537 H 0.50054 0.92925 0.51021 0.0
H538 H 0.47703 0.90115 0.48754 0.0
C539 C 0.20572 0.6355 0.67731 0.0
C540 C 0.2257 0.64033 0.66701 0.0
C541 C 0.1874 0.62638 0.66374 0.0
C542 C 0.17133 0.59307 0.61051 0.0
H543 H 0.11663 0.61237 0.61421 0.0
C544 C 0.10141 0.55947 0.54636 0.0
C545 C 0.0812 0.55295 0.55573 0.0
C546 C 0.11805 0.572 0.5597 0.0
C547 C 0.13174 0.60663 0.61316 0.0
H548 H 0.24194 0.63953 0.63421 0.0
H549 H 0.21005 0.62386 0.61055 0.0
H550 H 0.14763 0.63063 0.63807 0.0
H551 H 0.06231 0.55538 0.58607 0.0
H552 H 0.09163 0.57708 0.60974 0.0
H553 H 0.15564 0.56891 0.58602 0.0
C554 C 0.20856 0.62698 0.62918 0.0
C555 C 0.1495 0.61712 0.62681 0.0
C556 C 0.22682 0.63621 0.64269 0.0
C557 C 0.07771 0.56019 0.57837 0.0
C558 C 0.09452 0.57264 0.59189 0.0
C559 C 0.15364 0.58257 0.59701 0.0
C560 C 0.18866 0.6217 0.63959 0.0
C561 C 0.16956 0.61057 0.62546 0.0
C562 C 0.11505 0.57818 0.58293 0.0
C563 C 0.13364 0.58933 0.59792 0.0
H564 H 0.20426 0.63869 0.69593 0.0
H565 H 0.17235 0.62241 0.67234 0.0
H566 H 0.1864 0.58724 0.60946 0.0
H567 H 0.10455 0.55446 0.52881 0.0
H568 H 0.13343 0.57652 0.55189 0.0
C569 C 0.37448 0.20365 0.64609 0.0
C570 C 0.38673 0.22541 0.64713 0.0
C571 C 0.38126 0.18695 0.6334 0.0
C572 C 0.41817 0.17925 0.58668 0.0
H573 H 0.41614 0.11921 0.61648 0.0
C574 C 0.47314 0.11962 0.56091 0.0
C575 C 0.46529 0.09641 0.55933 0.0
C576 C 0.46068 0.1341 0.56938 0.0
C577 C 0.41649 0.13577 0.60771 0.0
H578 H 0.41537 0.24682 0.63496 0.0
H579 H 0.4273 0.21778 0.61325 0.0
H580 H 0.39964 0.14706 0.63545 0.0
H581 H 0.43794 0.07027 0.56525 0.0
H582 H 0.41609 0.09574 0.58056 0.0
H583 H 0.43565 0.16831 0.55944 0.0
C584 C 0.41238 0.21357 0.62206 0.0
C585 C 0.40704 0.15175 0.61858 0.0
C586 C 0.40566 0.23018 0.63479 0.0
C587 C 0.4445 0.08804 0.56638 0.0
C588 C 0.43202 0.1026 0.57516 0.0
C589 C 0.42767 0.16336 0.57591 0.0
C590 C 0.40035 0.19169 0.6213 0.0
C591 C 0.40822 0.17388 0.60849 0.0
C592 C 0.44 0.12583 0.5767 0.0
C593 C 0.4274 0.14158 0.58657 0.0
H594 H 0.35989 0.19937 0.65554 0.0
H595 H 0.37153 0.17034 0.63305 0.0
H596 H 0.41896 0.19594 0.5781 0.0
H597 H 0.48902 0.12678 0.55553 0.0
H598 H 0.46749 0.1518 0.57064 0.0
C599 C 0.84208 0.40465 0.66572 0.0
C600 C 0.83218 0.38516 0.65409 0.0
C601 C 0.86157 0.41675 0.65834 0.0
C602 C 0.89591 0.42563 0.60623 0.0
H603 H 0.93925 0.45275 0.65236 0.0
C604 C 0.97755 0.47052 0.57596 0.0
C605 C 0.98456 0.49218 0.58467 0.0
C606 C 0.96079 0.45584 0.58638 0.0
C607 C 0.92727 0.44535 0.63926 0.0
H608 H 0.83512 0.36335 0.62531 0.0
H609 H 0.86923 0.38397 0.61298 0.0
H610 H 0.90604 0.43072 0.66632 0.0
H611 H 0.98033 0.51461 0.61238 0.0
H612 H 0.9512 0.48896 0.63056 0.0
H613 H 0.91702 0.4403 0.57918 0.0
C614 C 0.86183 0.39012 0.62763 0.0
C615 C 0.90818 0.43278 0.64725 0.0
C616 C 0.84235 0.37808 0.63494 0.0
C617 C 0.97538 0.4981 0.60515 0.0
C618 C 0.95865 0.48335 0.61562 0.0
C619 C 0.91498 0.43807 0.59828 0.0
C620 C 0.87169 0.40968 0.63914 0.0
C621 C 0.89221 0.42281 0.63082 0.0
C622 C 0.95066 0.46237 0.60584 0.0
C623 C 0.93089 0.44816 0.61466 0.0
H624 H 0.83486 0.4105 0.68069 0.0
H625 H 0.86854 0.43187 0.66748 0.0
H626 H 0.88385 0.41862 0.59301 0.0
H627 H 0.98423 0.46529 0.56027 0.0
H628 H 0.9553 0.4396 0.5787 0.0
C629 C 0.66026 0.79875 0.57153 0.0
C630 C 0.67827 0.80055 0.58747 0.0
C631 C 0.65043 0.81754 0.56556 0.0
C632 C 0.64604 0.87299 0.58853 0.0
H633 H 0.61927 0.88316 0.52572 0.0
C634 C 0.61011 0.95301 0.56337 0.0
C635 C 0.58898 0.94918 0.5538 0.0
C636 C 0.62207 0.93555 0.56545 0.0
C637 C 0.62665 0.88044 0.54334 0.0
H638 H 0.70077 0.82353 0.60876 0.0
H639 H 0.68404 0.85643 0.59795 0.0
H640 H 0.63862 0.85143 0.53299 0.0
H641 H 0.56398 0.92402 0.53855 0.0
H642 H 0.58512 0.89369 0.5417 0.0
H643 H 0.63422 0.90207 0.5988 0.0
C644 C 0.67703 0.84042 0.59059 0.0
C645 C 0.63765 0.86225 0.54756 0.0
C646 C 0.68668 0.82161 0.59674 0.0
C647 C 0.58025 0.92761 0.54586 0.0
C648 C 0.59235 0.91024 0.54758 0.0
C649 C 0.63527 0.89125 0.58424 0.0
C650 C 0.65856 0.83856 0.57526 0.0
C651 C 0.6474 0.85824 0.57027 0.0
C652 C 0.61325 0.91397 0.55775 0.0
C653 C 0.62538 0.89508 0.56168 0.0
H654 H 0.65338 0.78265 0.56426 0.0
H655 H 0.6361 0.81539 0.55394 0.0
H656 H 0.65289 0.87018 0.60638 0.0
H657 H 0.61736 0.96944 0.56956 0.0
H658 H 0.63823 0.93888 0.5732 0.0
C659 C 0.35812 0.21482 0.44972 0.0
C660 C 0.36677 0.23618 0.45809 0.0
C661 C 0.36816 0.19626 0.45574 0.0
C662 C 0.40958 0.17586 0.49697 0.0
H663 H 0.41087 0.13479 0.44629 0.0
C664 C 0.46641 0.11006 0.49833 0.0
C665 C 0.45727 0.08827 0.49139 0.0
C666 C 0.45452 0.12761 0.49622 0.0
C667 C 0.41044 0.14598 0.46069 0.0
H668 H 0.39247 0.25488 0.47965 0.0
H669 H 0.41042 0.22256 0.48972 0.0
H670 H 0.39179 0.16643 0.4391 0.0
H671 H 0.42845 0.06784 0.4768 0.0
H672 H 0.40793 0.09866 0.47254 0.0
H673 H 0.42893 0.15553 0.5182 0.0
C674 C 0.39562 0.22 0.47891 0.0
C675 C 0.39944 0.16409 0.45664 0.0
C676 C 0.3854 0.23854 0.47309 0.0
C677 C 0.43601 0.08443 0.48225 0.0
C678 C 0.42424 0.10206 0.4798 0.0
C679 C 0.4208 0.15783 0.50093 0.0
C680 C 0.38727 0.19868 0.47002 0.0
C681 C 0.39881 0.17925 0.47472 0.0
C682 C 0.43342 0.12382 0.48665 0.0
C683 C 0.42129 0.14272 0.48282 0.0
H684 H 0.34356 0.21248 0.43844 0.0
H685 H 0.36097 0.18001 0.44905 0.0
H686 H 0.40921 0.18702 0.51141 0.0
H687 H 0.4828 0.11365 0.50527 0.0
H688 H 0.46203 0.14429 0.50146 0.0
C689 C 0.838 0.39967 0.37201 0.0
C690 C 0.81784 0.40113 0.38018 0.0
C691 C 0.8567 0.40902 0.38485 0.0
C692 C 0.87573 0.45174 0.43001 0.0
H693 H 0.92586 0.42288 0.43742 0.0
C694 C 0.94326 0.48207 0.49797 0.0
C695 C 0.96426 0.48583 0.49037 0.0
C696 C 0.92659 0.47031 0.48406 0.0
C697 C 0.91204 0.43123 0.43528 0.0
H698 H 0.8016 0.41264 0.40884 0.0
H699 H 0.83402 0.42863 0.43129 0.0
H700 H 0.89425 0.40504 0.41412 0.0
H701 H 0.98435 0.47902 0.46271 0.0
H702 H 0.95492 0.45821 0.43818 0.0
H703 H 0.89327 0.47773 0.45129 0.0
C704 C 0.83548 0.42084 0.41464 0.0
C705 C 0.89393 0.42103 0.42193 0.0
C706 C 0.81685 0.41162 0.40178 0.0
C707 C 0.96835 0.47643 0.46903 0.0
C708 C 0.95151 0.46453 0.45501 0.0
C709 C 0.89369 0.4618 0.44336 0.0
C710 C 0.85568 0.41999 0.40619 0.0
C711 C 0.87542 0.43102 0.41943 0.0
C712 C 0.93036 0.46192 0.46211 0.0
C713 C 0.91195 0.45154 0.4465 0.0
H714 H 0.83932 0.39185 0.35533 0.0
H715 H 0.87194 0.40819 0.37769 0.0
H716 H 0.86205 0.46029 0.42794 0.0
H717 H 0.93953 0.48873 0.51449 0.0
H718 H 0.91058 0.46812 0.49034 0.0
C719 C 0.64967 0.81226 0.41068 0.0
C720 C 0.67201 0.81606 0.40979 0.0
C721 C 0.63917 0.82859 0.41925 0.0
C722 C 0.64763 0.87844 0.45678 0.0
H723 H 0.59432 0.88923 0.42506 0.0
C724 C 0.60172 0.94866 0.48353 0.0
C725 C 0.57953 0.94214 0.48462 0.0
C726 C 0.61403 0.93434 0.47405 0.0
C727 C 0.60912 0.88632 0.43425 0.0
H728 H 0.70074 0.84036 0.41684 0.0
H729 H 0.68242 0.86877 0.43185 0.0
H730 H 0.61362 0.86219 0.4092 0.0
H731 H 0.55294 0.91535 0.47678 0.0
H732 H 0.57422 0.89069 0.46041 0.0
H733 H 0.64292 0.9025 0.48199 0.0
C734 C 0.67305 0.853 0.42623 0.0
C735 C 0.62017 0.87077 0.42516 0.0
C736 C 0.68355 0.83669 0.41761 0.0
C737 C 0.56997 0.92106 0.47608 0.0
C738 C 0.58217 0.9069 0.46654 0.0
C739 C 0.63653 0.89403 0.46591 0.0
C740 C 0.65072 0.84915 0.42718 0.0
C741 C 0.63946 0.86643 0.43643 0.0
C742 C 0.60433 0.91333 0.4653 0.0
C743 C 0.61701 0.89795 0.45489 0.0
H744 H 0.64027 0.79646 0.40521 0.0
H745 H 0.62199 0.82489 0.42008 0.0
H746 H 0.66234 0.87535 0.46606 0.0
H747 H 0.60959 0.96469 0.49021 0.0
H748 H 0.63108 0.93981 0.4733 0.0
C749 C 0.20316 0.64644 0.39293 0.0
C750 C 0.21074 0.63583 0.3742 0.0
C751 C 0.1837 0.63736 0.40288 0.0
C752 C 0.13303 0.59814 0.39051 0.0
H753 H 0.12959 0.59437 0.45952 0.0
C754 C 0.06692 0.53803 0.43926 0.0
C755 C 0.05997 0.54443 0.46084 0.0
C756 C 0.08333 0.55187 0.42735 0.0
C757 C 0.1301 0.59564 0.44019 0.0
H758 H 0.2038 0.60699 0.35169 0.0
H759 H 0.16996 0.59135 0.36886 0.0
H760 H 0.16235 0.61314 0.44178 0.0
H761 H 0.06408 0.57126 0.48594 0.0
H762 H 0.09242 0.59554 0.46493 0.0
H763 H 0.10089 0.58036 0.38892 0.0
C764 C 0.17887 0.60692 0.37559 0.0
C765 C 0.14894 0.60638 0.43001 0.0
C766 C 0.19832 0.61592 0.36572 0.0
C767 C 0.06898 0.56572 0.46938 0.0
C768 C 0.08544 0.57956 0.45747 0.0
C769 C 0.11417 0.58745 0.40067 0.0
C770 C 0.1713 0.61749 0.3943 0.0
C771 C 0.15076 0.60747 0.40506 0.0
C772 C 0.09324 0.57252 0.43668 0.0
C773 C 0.11255 0.58576 0.42567 0.0
H774 H 0.21213 0.66194 0.39973 0.0
H775 H 0.17825 0.64606 0.41712 0.0
H776 H 0.13374 0.59903 0.3712 0.0
H777 H 0.0604 0.52177 0.43212 0.0
H778 H 0.08899 0.54579 0.4115 0.0
C779 C 0.40604 0.81854 0.6415 0.0
C780 C 0.39154 0.81858 0.65944 0.0
C781 C 0.41924 0.83849 0.63422 0.0
C782 C 0.42404 0.90041 0.63212 0.0
H783 H 0.48344 0.89911 0.62192 0.0
C784 C 0.47918 0.9702 0.57855 0.0
C785 C 0.50079 0.97519 0.5864 0.0
C786 C 0.46523 0.95301 0.59017 0.0
C787 C 0.46695 0.89986 0.62493 0.0
H788 H 0.37939 0.83967 0.68362 0.0
H789 H 0.40248 0.87458 0.67086 0.0
H790 H 0.46066 0.86498 0.63663 0.0
H791 H 0.52421 0.967 0.61381 0.0
H792 H 0.49989 0.93724 0.63403 0.0
H793 H 0.43037 0.93532 0.62017 0.0
C794 C 0.40359 0.85908 0.66244 0.0
C795 C 0.45383 0.88021 0.63309 0.0
C796 C 0.39052 0.83906 0.66989 0.0
C797 C 0.50774 0.96357 0.6071 0.0
C798 C 0.49383 0.94636 0.61863 0.0
C799 C 0.43715 0.92006 0.62373 0.0
C800 C 0.41815 0.85901 0.64456 0.0
C801 C 0.43219 0.88019 0.63665 0.0
C802 C 0.4726 0.94039 0.60985 0.0
C803 C 0.45875 0.91999 0.61996 0.0
H804 H 0.40734 0.80302 0.63323 0.0
H805 H 0.43015 0.8379 0.62025 0.0
H806 H 0.4074 0.90091 0.63454 0.0
H807 H 0.47323 0.97874 0.56268 0.0
H808 H 0.44899 0.9488 0.58291 0.0
C809 C 0.23236 0.38228 0.63818 0.0
C810 C 0.22977 0.35857 0.63986 0.0
C811 C 0.21547 0.39319 0.62982 0.0
C812 C 0.16408 0.3845 0.5942 0.0
H813 H 0.15634 0.43919 0.62353 0.0
C814 C 0.09415 0.43355 0.56623 0.0
C815 C 0.10003 0.45714 0.56375 0.0
C816 C 0.10878 0.42018 0.57624 0.0
C817 C 0.15835 0.424 0.61503 0.0
H818 H 0.20711 0.32778 0.63443 0.0
H819 H 0.17762 0.34683 0.61987 0.0
H820 H 0.1841 0.41856 0.63973 0.0
H821 H 0.12598 0.4851 0.56962 0.0
H822 H 0.15116 0.462 0.58686 0.0
H823 H 0.13834 0.39018 0.56935 0.0
C824 C 0.19285 0.35698 0.6247 0.0
C825 C 0.17431 0.41219 0.6243 0.0
C826 C 0.20977 0.34606 0.63306 0.0
C827 C 0.12079 0.46701 0.57139 0.0
C828 C 0.13526 0.45375 0.58144 0.0
C829 C 0.14804 0.39634 0.58492 0.0
C830 C 0.19549 0.3807 0.62294 0.0
C831 C 0.17762 0.39247 0.61381 0.0
C832 C 0.12947 0.43019 0.58412 0.0
C833 C 0.14522 0.41644 0.59501 0.0
H834 H 0.24762 0.39247 0.64284 0.0
H835 H 0.21821 0.41147 0.62831 0.0
H836 H 0.16629 0.36948 0.58553 0.0
H837 H 0.07834 0.42542 0.56034 0.0
H838 H 0.10382 0.40206 0.5781 0.0
C839 C 0.64558 0.22646 0.63297 0.0
C840 C 0.65244 0.22442 0.6572 0.0
C841 C 0.63613 0.20741 0.62061 0.0
C842 C 0.60831 0.14845 0.63067 0.0
H843 H 0.61703 0.14488 0.56316 0.0
C844 C 0.56776 0.07214 0.57573 0.0
C845 C 0.55752 0.07817 0.55398 0.0
C846 C 0.5818 0.08846 0.58842 0.0
C847 C 0.6144 0.14564 0.58201 0.0
H848 H 0.65529 0.20058 0.68722 0.0
H849 H 0.63904 0.1673 0.66562 0.0
H850 H 0.63686 0.17626 0.58522 0.0
H851 H 0.55473 0.1058 0.52801 0.0
H852 H 0.57919 0.13398 0.54991 0.0
H853 H 0.58571 0.11786 0.62731 0.0
C854 C 0.64055 0.1837 0.65626 0.0
C855 C 0.62571 0.16369 0.59466 0.0
C856 C 0.64991 0.20279 0.66866 0.0
C857 C 0.56227 0.10059 0.54477 0.0
C858 C 0.57642 0.11675 0.55726 0.0
C859 C 0.59709 0.13031 0.61803 0.0
C860 C 0.63338 0.18575 0.6321 0.0
C861 C 0.62254 0.16559 0.61907 0.0
C862 C 0.5861 0.11102 0.57943 0.0
C863 C 0.59972 0.1289 0.59344 0.0
H864 H 0.64699 0.24289 0.62369 0.0
H865 H 0.63047 0.20977 0.60218 0.0
H866 H 0.60522 0.14943 0.64935 0.0
H867 H 0.56441 0.05503 0.58332 0.0
H868 H 0.58915 0.08348 0.60537 0.0
C869 C 0.83176 0.66163 0.61143 0.0
C870 C 0.81187 0.64816 0.60651 0.0
C871 C 0.84997 0.65738 0.60108 0.0
C872 C 0.86891 0.62518 0.55408 0.0
H873 H 0.9183 0.62644 0.59825 0.0
C874 C 0.9372 0.57521 0.54356 0.0
C875 C 0.9581 0.58529 0.55038 0.0
C876 C 0.92004 0.58628 0.54647 0.0
C877 C 0.90481 0.6264 0.58552 0.0
H878 H 0.79526 0.62014 0.58639 0.0
H879 H 0.82715 0.6123 0.5687 0.0
H880 H 0.88688 0.63952 0.61072 0.0
H881 H 0.97747 0.61537 0.56457 0.0
H882 H 0.94744 0.63455 0.56995 0.0
H883 H 0.8868 0.61115 0.52923 0.0
C884 C 0.82867 0.62645 0.58017 0.0
C885 C 0.88676 0.63393 0.59266 0.0
C886 C 0.8104 0.63086 0.59037 0.0
C887 C 0.96155 0.60703 0.55936 0.0
C888 C 0.94437 0.61802 0.56245 0.0
C889 C 0.88699 0.61751 0.54697 0.0
C890 C 0.84874 0.6394 0.58578 0.0
C891 C 0.86847 0.63315 0.57717 0.0
C892 C 0.92341 0.60756 0.55649 0.0
C893 C 0.90501 0.61777 0.56277 0.0
H894 H 0.83326 0.67535 0.62349 0.0
H895 H 0.86509 0.668 0.60538 0.0
H896 H 0.85521 0.62467 0.54158 0.0
H897 H 0.93397 0.55848 0.53656 0.0
H898 H 0.90405 0.57771 0.54191 0.0
C899 C 0.38313 0.41597 0.27058 0.0
C900 C 0.38547 0.39317 0.27417 0.0
C901 C 0.38926 0.42808 0.24937 0.0
C902 C 0.40144 0.42013 0.18679 0.0
H903 H 0.43283 0.48117 0.18989 0.0
C904 C 0.43286 0.46892 0.10171 0.0
C905 C 0.45416 0.4799 0.10367 0.0
C906 C 0.42184 0.46128 0.12222 0.0
C907 C 0.4241 0.46413 0.18872 0.0
H908 H 0.39573 0.36515 0.25803 0.0
H909 H 0.40696 0.38635 0.22146 0.0
H910 H 0.41904 0.46122 0.22629 0.0
H911 H 0.48016 0.49269 0.12871 0.0
H912 H 0.46115 0.47892 0.16438 0.0
H913 H 0.40735 0.42252 0.14955 0.0
C914 C 0.40012 0.39484 0.23486 0.0
C915 C 0.41599 0.45278 0.20955 0.0
C916 C 0.39396 0.38275 0.256 0.0
C917 C 0.4638 0.48415 0.12656 0.0
C918 C 0.45283 0.47639 0.14706 0.0
C919 C 0.4096 0.43142 0.16603 0.0
C920 C 0.39786 0.41765 0.23127 0.0
C921 C 0.40491 0.43048 0.20889 0.0
C922 C 0.43189 0.46434 0.14513 0.0
C923 C 0.42134 0.45342 0.16679 0.0
H924 H 0.37682 0.42456 0.28431 0.0
H925 H 0.38716 0.44557 0.2471 0.0
H926 H 0.39266 0.40312 0.18557 0.0
H927 H 0.42486 0.46566 0.08433 0.0
H928 H 0.40557 0.4525 0.1201 0.0
C929 C 0.39679 0.63947 0.84539 0.0
C930 C 0.4076 0.65798 0.83206 0.0
C931 C 0.407 0.62989 0.86528 0.0
C932 C 0.45331 0.64191 0.90901 0.0
H933 H 0.44723 0.57674 0.91682 0.0
C934 C 0.5123 0.59683 0.96782 0.0
C935 C 0.50462 0.57621 0.97999 0.0
C936 C 0.49871 0.60768 0.95248 0.0
C937 C 0.44884 0.59497 0.91519 0.0
H938 H 0.4375 0.68127 0.82969 0.0
H939 H 0.45534 0.66437 0.86388 0.0
H940 H 0.42678 0.59369 0.88469 0.0
H941 H 0.47621 0.5515 0.98638 0.0
H942 H 0.45249 0.57063 0.95988 0.0
H943 H 0.47565 0.64321 0.93924 0.0
C944 C 0.43892 0.65731 0.85915 0.0
C945 C 0.43711 0.60469 0.89671 0.0
C946 C 0.42876 0.66683 0.8393 0.0
C947 C 0.48274 0.56732 0.9773 0.0
C948 C 0.46914 0.57818 0.96191 0.0
C949 C 0.46503 0.6322 0.92747 0.0
C950 C 0.42822 0.63869 0.87239 0.0
C951 C 0.43945 0.6283 0.89315 0.0
C952 C 0.47705 0.59823 0.94889 0.0
C953 C 0.46319 0.6086 0.9306 0.0
H954 H 0.38053 0.63215 0.84025 0.0
H955 H 0.39823 0.61566 0.87517 0.0
H956 H 0.45521 0.66015 0.90709 0.0
H957 H 0.52904 0.60419 0.96938 0.0
H958 H 0.50542 0.62298 0.94262 0.0
C959 C 0.38187 0.37997 0.84121 0.0
C960 C 0.38582 0.38679 0.81721 0.0
C961 C 0.39359 0.3916 0.86001 0.0
C962 C 0.42499 0.44728 0.87329 0.0
H963 H 0.4486 0.41615 0.92834 0.0
C964 C 0.49002 0.49324 0.93665 0.0
C965 C 0.4901 0.48754 0.96136 0.0
C966 C 0.47567 0.4808 0.92062 0.0
C967 C 0.44182 0.42511 0.9133 0.0
H968 H 0.40524 0.4112 0.79425 0.0
H969 H 0.42569 0.43135 0.82694 0.0
H970 H 0.42701 0.39433 0.89729 0.0
H971 H 0.47481 0.46432 0.98858 0.0
H972 H 0.44941 0.44258 0.9604 0.0
H973 H 0.43968 0.47801 0.88908 0.0
C974 C 0.41347 0.41707 0.83124 0.0
C975 C 0.4295 0.4126 0.89547 0.0
C976 C 0.40191 0.40535 0.81249 0.0
C977 C 0.47517 0.46918 0.96967 0.0
C978 C 0.46072 0.45664 0.95351 0.0
C979 C 0.43715 0.45975 0.89111 0.0
C980 C 0.40934 0.41047 0.85523 0.0
C981 C 0.42129 0.42355 0.87503 0.0
C982 C 0.46086 0.46229 0.92874 0.0
C983 C 0.44611 0.44886 0.91112 0.0
H984 H 0.36969 0.36563 0.84545 0.0
H985 H 0.38998 0.38613 0.87828 0.0
H986 H 0.41849 0.45626 0.85805 0.0
H987 H 0.5013 0.5072 0.92951 0.0
H988 H 0.47657 0.48545 0.9017 0.0
C989 C 0.68648 0.40967 0.83178 0.0
C990 C 0.67656 0.40314 0.80953 0.0
C991 C 0.67542 0.41886 0.84859 0.0
C992 C 0.62076 0.42373 0.86469 0.0
H993 H 0.64957 0.47496 0.89982 0.0
C994 C 0.57446 0.47817 0.91572 0.0
C995 C 0.58249 0.48513 0.93854 0.0
C996 C 0.58656 0.46777 0.90118 0.0
C997 C 0.64137 0.46048 0.89039 0.0
H998 H 0.64716 0.40128 0.78759 0.0
H999 H 0.6279 0.4173 0.81681 0.0
H1000 H 0.66926 0.45733 0.87218 0.0
H1001 H 0.60984 0.487 0.96374 0.0
H1002 H 0.63112 0.46872 0.93817 0.0
H1003 H 0.59282 0.42703 0.88264 0.0
C1004 C 0.64416 0.415 0.82145 0.0
C1005 C 0.65265 0.45035 0.87453 0.0
C1006 C 0.65521 0.4058 0.80466 0.0
C1007 C 0.60316 0.48177 0.9463 0.0
C1008 C 0.61537 0.47139 0.93161 0.0
C1009 C 0.60949 0.43387 0.88047 0.0
C1010 C 0.65414 0.42175 0.84361 0.0
C1011 C 0.64243 0.43198 0.86128 0.0
C1012 C 0.60709 0.46406 0.90896 0.0
C1013 C 0.61958 0.45253 0.89332 0.0
H1014 H 0.7028 0.40754 0.8363 0.0
H1015 H 0.68351 0.4235 0.8656 0.0
H1016 H 0.61246 0.40934 0.8552 0.0
H1017 H 0.55868 0.4806 0.90901 0.0
H1018 H 0.57984 0.46278 0.88367 0.0
C1019 C 0.67243 0.64691 0.79314 0.0
C1020 C 0.66257 0.64011 0.77102 0.0
C1021 C 0.66619 0.63495 0.81435 0.0
C1022 C 0.63542 0.58092 0.83854 0.0
H1023 H 0.6303 0.61702 0.89245 0.0
C1024 C 0.58468 0.54931 0.92 0.0
C1025 C 0.59272 0.5567 0.94267 0.0
C1026 C 0.59571 0.55708 0.89951 0.0
C1027 C 0.63196 0.60664 0.8777 0.0
H1028 H 0.63868 0.61532 0.75369 0.0
H1029 H 0.62739 0.59471 0.79076 0.0
H1030 H 0.64464 0.63539 0.85579 0.0
H1031 H 0.61928 0.57696 0.96171 0.0
H1032 H 0.63841 0.59054 0.92594 0.0
H1033 H 0.62196 0.55223 0.86045 0.0
C1034 C 0.64027 0.60898 0.79174 0.0
C1035 C 0.64022 0.61717 0.85665 0.0
C1036 C 0.64666 0.62082 0.77049 0.0
C1037 C 0.61253 0.5711 0.94452 0.0
C1038 C 0.62346 0.57896 0.92402 0.0
C1039 C 0.62699 0.57038 0.85961 0.0
C1040 C 0.64979 0.61605 0.81398 0.0
C1041 C 0.64195 0.60449 0.83673 0.0
C1042 C 0.61491 0.57249 0.90125 0.0
C1043 C 0.62507 0.58317 0.87936 0.0
H1044 H 0.68499 0.6615 0.79403 0.0
H1045 H 0.6742 0.64061 0.83108 0.0
H1046 H 0.63681 0.57059 0.82368 0.0
H1047 H 0.56952 0.53812 0.91795 0.0
H1048 H 0.58867 0.55185 0.8822 0.0
C1049 C 0.6311 0.63743 0.23805 0.0
C1050 C 0.64339 0.65884 0.23374 0.0
C1051 C 0.62147 0.62462 0.21905 0.0
C1052 C 0.62206 0.61838 0.1534 0.0
H1053 H 0.56488 0.58585 0.16231 0.0
C1054 C 0.56691 0.57084 0.07805 0.0
C1055 C 0.55488 0.54998 0.08529 0.0
C1056 C 0.57916 0.58462 0.09501 0.0
C1057 C 0.58092 0.59465 0.15957 0.0
H1058 H 0.65546 0.68342 0.20593 0.0
H1059 H 0.63846 0.66111 0.17269 0.0
H1060 H 0.5833 0.60883 0.19394 0.0
H1061 H 0.54735 0.52669 0.11582 0.0
H1062 H 0.56863 0.55041 0.14498 0.0
H1063 H 0.61941 0.60412 0.11878 0.0
C1064 C 0.63649 0.6541 0.19081 0.0
C1065 C 0.59153 0.60782 0.17778 0.0
C1066 C 0.64622 0.66691 0.20987 0.0
C1067 C 0.55614 0.54279 0.10959 0.0
C1068 C 0.56828 0.55646 0.1264 0.0
C1069 C 0.61135 0.60518 0.13506 0.0
C1070 C 0.62375 0.6329 0.19517 0.0
C1071 C 0.61236 0.61962 0.17513 0.0
C1072 C 0.57954 0.57777 0.11948 0.0
C1073 C 0.59077 0.59289 0.13811 0.0
H1074 H 0.62894 0.6305 0.25618 0.0
H1075 H 0.61222 0.60815 0.22312 0.0
H1076 H 0.63812 0.62715 0.15077 0.0
H1077 H 0.5663 0.57686 0.05947 0.0
H1078 H 0.58767 0.60096 0.08911 0.0
C1079 C 0.39583 0.66015 0.21719 0.0
C1080 C 0.38428 0.6489 0.23622 0.0
C1081 C 0.40378 0.64803 0.20022 0.0
C1082 C 0.39936 0.59169 0.17484 0.0
H1083 H 0.45816 0.61328 0.15978 0.0
C1084 C 0.44418 0.5541 0.10231 0.0
C1085 C 0.46509 0.55094 0.10927 0.0
C1086 C 0.4327 0.56532 0.11703 0.0
C1087 C 0.44173 0.607 0.1638 0.0
H1088 H 0.37153 0.61588 0.25179 0.0
H1089 H 0.38537 0.59469 0.22204 0.0
H1090 H 0.44088 0.63419 0.18651 0.0
H1091 H 0.49002 0.55657 0.13754 0.0
H1092 H 0.47018 0.57603 0.16284 0.0
H1093 H 0.4005 0.56423 0.15225 0.0
C1094 C 0.38814 0.61296 0.22023 0.0
C1095 C 0.43174 0.61911 0.17896 0.0
C1096 C 0.38022 0.62512 0.23729 0.0
C1097 C 0.47403 0.55879 0.13145 0.0
C1098 C 0.46269 0.57009 0.14597 0.0
C1099 C 0.40934 0.57962 0.15944 0.0
C1100 C 0.40035 0.62429 0.20173 0.0
C1101 C 0.41049 0.61157 0.18483 0.0
C1102 C 0.44202 0.57378 0.13884 0.0
C1103 C 0.43074 0.58702 0.154 0.0
H1104 H 0.39885 0.67842 0.21543 0.0
H1105 H 0.41276 0.65729 0.18594 0.0
H1106 H 0.38292 0.58551 0.17887 0.0
H1107 H 0.4368 0.54816 0.0854 0.0
H1108 H 0.41679 0.56794 0.11106 0.0
C1109 C 0.64706 0.39635 0.2016 0.0
C1110 C 0.63831 0.37524 0.21206 0.0
C1111 C 0.63587 0.40654 0.18293 0.0
C1112 C 0.58122 0.406 0.15624 0.0
H1113 H 0.60982 0.43591 0.10109 0.0
C1114 C 0.53314 0.43848 0.07558 0.0
C1115 C 0.54089 0.46018 0.06584 0.0
C1116 C 0.54593 0.42731 0.09165 0.0
C1117 C 0.60161 0.42778 0.11646 0.0
H1118 H 0.61071 0.34854 0.21123 0.0
H1119 H 0.59147 0.36605 0.17859 0.0
H1120 H 0.63034 0.41871 0.13315 0.0
H1121 H 0.56869 0.48663 0.06459 0.0
H1122 H 0.59087 0.46725 0.09272 0.0
H1123 H 0.55259 0.4152 0.13986 0.0
C1124 C 0.60692 0.37483 0.18486 0.0
C1125 C 0.61339 0.41795 0.13486 0.0
C1126 C 0.6181 0.36464 0.20341 0.0
C1127 C 0.56217 0.4699 0.07162 0.0
C1128 C 0.57494 0.45875 0.08779 0.0
C1129 C 0.56949 0.41583 0.13793 0.0
C1130 C 0.6156 0.39594 0.1744 0.0
C1131 C 0.60331 0.40684 0.15494 0.0
C1132 C 0.56679 0.43757 0.0985 0.0
C1133 C 0.57948 0.42678 0.11772 0.0
H1134 H 0.66264 0.40492 0.20771 0.0
H1135 H 0.64294 0.42289 0.17542 0.0
H1136 H 0.57299 0.39798 0.17165 0.0
H1137 H 0.5169 0.43037 0.07143 0.0
H1138 H 0.53928 0.41079 0.09909 0.0
loop_
_geom_bond_atom_site_label_1
_geom_bond_atom_site_label_2
_geom_bond_distance
_geom_bond_site_symmetry_2
_ccdc_geom_bond_type
C0 C1 1.264 . S
C0 C5 1.479 . S
C0 C10 1.465 . S
C1 C0 1.264 . S
C1 C3 1.339 . S
C1 H28 0.931 . S
C2 C3 1.395 . S
C2 C4 1.320 . S
C3 C1 1.339 . S
C3 C2 1.395 . S
C3 H29 0.929 . S
C4 C2 1.320 . S
C4 C5 1.405 . S
C4 H30 0.930 . S
C5 C0 1.479 . S
C5 C4 1.405 . S
C5 H31 0.931 . S
U6 O7 2.454 . S
U6 O8 2.458 . S
U6 C9 2.984 . S
U6 C10 2.847 . S
U6 C23 2.882 . S
U6 O24 2.441 . S
U6 O25 2.420 . S
U6 O26 2.455 . S
U6 O27 2.449 . S
O7 U6 2.454 . S
O7 C9 1.353 . S
O8 U6 2.458 . S
O8 C9 1.286 . S
C9 U6 2.984 . S
C9 O7 1.353 . S
C9 O8 1.286 . S
C9 C11 1.363 . S
C10 C0 1.465 . S
C10 U6 2.847 . S
C10 O24 1.249 . S
C10 O25 1.202 . S
C11 C9 1.363 . S
C11 C13 1.408 . S
C11 C16 1.342 . S
C12 C13 1.310 . S
C12 C15 1.461 . S
C12 H32 0.932 . S
C13 C11 1.408 . S
C13 C12 1.310 . S
C13 H33 0.930 . S
C14 C15 1.474 . S
C14 C16 1.285 . S
C14 H34 0.929 . S
C15 C12 1.461 . S
C15 C14 1.474 . S
C16 C11 1.342 . S
C16 C14 1.285 . S
C16 H35 0.930 . S
C17 C20 1.424 . S
C17 C22 1.245 . S
C17 C23 1.428 . S
C18 C21 1.260 . S
C18 C22 1.477 . S
C18 H36 0.932 . S
C19 C20 1.384 . S
C19 C21 1.479 . S
C19 H37 0.929 . S
C20 C17 1.424 . S
C20 C19 1.384 . S
C20 H38 0.928 . S
C21 C18 1.260 . S
C21 C19 1.479 . S
C22 C17 1.245 . S
C22 C18 1.477 . S
C22 H39 0.932 . S
C23 U6 2.882 . S
C23 C17 1.428 . S
C23 O26 1.301 . S
C23 O27 1.282 . S
O24 U6 2.441 . S
O24 C10 1.249 . S
O25 U6 2.420 . S
O25 C10 1.202 . S
O26 U6 2.455 . S
O26 C23 1.301 . S
O27 U6 2.449 . S
O27 C23 1.282 . S
H28 C1 0.931 . S
H29 C3 0.929 . S
H30 C4 0.930 . S
H31 C5 0.931 . S
H32 C12 0.932 . S
H33 C13 0.930 . S
H34 C14 0.929 . S
H35 C16 0.930 . S
H36 C18 0.932 . S
H37 C19 0.929 . S
H38 C20 0.928 . S
H39 C22 0.932 . S
C40 C41 1.264 . S
C40 C45 1.479 . S
C40 C50 1.465 . S
C41 C40 1.264 . S
C41 C43 1.339 . S
C41 H68 0.931 . S
C42 C43 1.395 . S
C42 C44 1.320 . S
C43 C41 1.339 . S
C43 C42 1.395 . S
C43 H69 0.929 . S
C44 C42 1.320 . S
C44 C45 1.405 . S
C44 H70 0.930 . S
C45 C40 1.479 . S
C45 C44 1.405 . S
C45 H71 0.931 . S
U46 O47 2.454 . S
U46 O48 2.458 . S
U46 C49 2.984 . S
U46 C50 2.847 . S
U46 C63 2.882 . S
U46 O64 2.441 . S
U46 O65 2.420 . S
U46 O66 2.455 . S
U46 O67 2.449 . S
O47 U46 2.454 . S
O47 C49 1.353 . S
O48 U46 2.458 . S
O48 C49 1.286 . S
C49 U46 2.984 . S
C49 O47 1.353 . S
C49 O48 1.286 . S
C49 C51 1.363 . S
C50 C40 1.465 . S
C50 U46 2.847 . S
C50 O64 1.249 . S
C50 O65 1.202 . S
C51 C49 1.363 . S
C51 C53 1.408 . S
C51 C56 1.342 . S
C52 C53 1.310 . S
C52 C55 1.461 . S
C52 H72 0.932 . S
C53 C51 1.408 . S
C53 C52 1.310 . S
C53 H73 0.930 . S
C54 C55 1.474 . S
C54 C56 1.285 . S
C54 H74 0.929 . S
C55 C52 1.461 . S
C55 C54 1.474 . S
C56 C51 1.342 . S
C56 C54 1.285 . S
C56 H75 0.930 . S
C57 C60 1.424 . S
C57 C62 1.245 . S
C57 C63 1.428 . S
C58 C61 1.260 . S
C58 C62 1.477 . S
C58 H76 0.932 . S
C59 C60 1.384 . S
C59 C61 1.479 . S
C59 H77 0.929 . S
C60 C57 1.424 . S
C60 C59 1.384 . S
C60 H78 0.928 . S
C61 C58 1.260 . S
C61 C59 1.479 . S
C62 C57 1.245 . S
C62 C58 1.477 . S
C62 H79 0.932 . S
C63 U46 2.882 . S
C63 C57 1.428 . S
C63 O66 1.301 . S
C63 O67 1.282 . S
O64 U46 2.441 . S
O64 C50 1.249 . S
O65 U46 2.420 . S
O65 C50 1.202 . S
O66 U46 2.455 . S
O66 C63 1.301 . S
O67 U46 2.449 . S
O67 C63 1.282 . S
H68 C41 0.931 . S
H69 C43 0.929 . S
H70 C44 0.930 . S
H71 C45 0.931 . S
H72 C52 0.932 . S
H73 C53 0.930 . S
H74 C54 0.929 . S
H75 C56 0.930 . S
H76 C58 0.932 . S
H77 C59 0.929 . S
H78 C60 0.928 . S
H79 C62 0.932 . S
C80 C81 1.264 . S
C80 C85 1.479 . S
C80 C90 1.465 . S
C81 C80 1.264 . S
C81 C83 1.339 . S
C81 H108 0.931 . S
C82 C83 1.395 . S
C82 C84 1.320 . S
C83 C81 1.339 . S
C83 C82 1.395 . S
C83 H109 0.929 . S
C84 C82 1.320 . S
C84 C85 1.405 . S
C84 H110 0.930 . S
C85 C80 1.479 . S
C85 C84 1.405 . S
C85 H111 0.931 . S
U86 O87 2.454 . S
U86 O88 2.458 . S
U86 C89 2.984 . S
U86 C90 2.847 . S
U86 C103 2.882 . S
U86 O104 2.441 . S
U86 O105 2.420 . S
U86 O106 2.455 . S
U86 O107 2.449 . S
O87 U86 2.454 . S
O87 C89 1.353 . S
O88 U86 2.458 . S
O88 C89 1.286 . S
C89 U86 2.984 . S
C89 O87 1.353 . S
C89 O88 1.286 . S
C89 C91 1.363 . S
C90 C80 1.465 . S
C90 U86 2.847 . S
C90 O104 1.249 . S
C90 O105 1.202 . S
C91 C89 1.363 . S
C91 C93 1.408 . S
C91 C96 1.342 . S
C92 C93 1.310 . S
C92 C95 1.461 . S
C92 H112 0.932 . S
C93 C91 1.408 . S
C93 C92 1.310 . S
C93 H113 0.930 . S
C94 C95 1.474 . S
C94 C96 1.285 . S
C94 H114 0.929 . S
C95 C92 1.461 . S
C95 C94 1.474 . S
C96 C91 1.342 . S
C96 C94 1.285 . S
C96 H115 0.930 . S
C97 C100 1.424 . S
C97 C102 1.245 . S
C97 C103 1.428 . S
C98 C101 1.260 . S
C98 C102 1.477 . S
C98 H116 0.932 . S
C99 C100 1.384 . S
C99 C101 1.479 . S
C99 H117 0.929 . S
C100 C97 1.424 . S
C100 C99 1.384 . S
C100 H118 0.928 . S
C101 C98 1.260 . S
C101 C99 1.479 . S
C102 C97 1.245 . S
C102 C98 1.477 . S
C102 H119 0.932 . S
C103 U86 2.882 . S
C103 C97 1.428 . S
C103 O106 1.301 . S
C103 O107 1.282 . S
O104 U86 2.441 . S
O104 C90 1.249 . S
O105 U86 2.420 . S
O105 C90 1.202 . S
O106 U86 2.455 . S
O106 C103 1.301 . S
O107 U86 2.449 . S
O107 C103 1.282 . S
H108 C81 0.931 . S
H109 C83 0.929 . S
H110 C84 0.930 . S
H111 C85 0.931 . S
H112 C92 0.932 . S
H113 C93 0.930 . S
H114 C94 0.929 . S
H115 C96 0.930 . S
H116 C98 0.932 . S
H117 C99 0.929 . S
H118 C100 0.928 . S
H119 C102 0.932 . S
C120 C121 1.264 . S
C120 C125 1.479 . S
C120 C130 1.465 . S
C121 C120 1.264 . S
C121 C123 1.339 . S
C121 H148 0.931 . S
C122 C123 1.395 . S
C122 C124 1.320 . S
C123 C121 1.339 . S
C123 C122 1.395 . S
C123 H149 0.929 . S
C124 C122 1.320 . S
C124 C125 1.405 . S
C124 H150 0.930 . S
C125 C120 1.479 . S
C125 C124 1.405 . S
C125 H151 0.931 . S
U126 O127 2.454 . S
U126 O128 2.458 . S
U126 C129 2.984 . S
U126 C130 2.847 . S
U126 C143 2.882 . S
U126 O144 2.441 . S
U126 O145 2.420 . S
U126 O146 2.455 . S
U126 O147 2.449 . S
O127 U126 2.454 . S
O127 C129 1.353 . S
O128 U126 2.458 . S
O128 C129 1.286 . S
C129 U126 2.984 . S
C129 O127 1.353 . S
C129 O128 1.286 . S
C129 C131 1.363 . S
C130 C120 1.465 . S
C130 U126 2.847 . S
C130 O144 1.249 . S
C130 O145 1.202 . S
C131 C129 1.363 . S
C131 C133 1.408 . S
C131 C136 1.342 . S
C132 C133 1.310 . S
C132 C135 1.461 . S
C132 H152 0.932 . S
C133 C131 1.408 . S
C133 C132 1.310 . S
C133 H153 0.930 . S
C134 C135 1.474 . S
C134 C136 1.285 . S
C134 H154 0.929 . S
C135 C132 1.461 . S
C135 C134 1.474 . S
C136 C131 1.342 . S
C136 C134 1.285 . S
C136 H155 0.930 . S
C137 C140 1.424 . S
C137 C142 1.245 . S
C137 C143 1.428 . S
C138 C141 1.260 . S
C138 C142 1.477 . S
C138 H156 0.932 . S
C139 C140 1.384 . S
C139 C141 1.479 . S
C139 H157 0.929 . S
C140 C137 1.424 . S
C140 C139 1.384 . S
C140 H158 0.928 . S
C141 C138 1.260 . S
C141 C139 1.479 . S
C142 C137 1.245 . S
C142 C138 1.477 . S
C142 H159 0.932 . S
C143 U126 2.882 . S
C143 C137 1.428 . S
C143 O146 1.301 . S
C143 O147 1.282 . S
O144 U126 2.441 . S
O144 C130 1.249 . S
O145 U126 2.420 . S
O145 C130 1.202 . S
O146 U126 2.455 . S
O146 C143 1.301 . S
O147 U126 2.449 . S
O147 C143 1.282 . S
H148 C121 0.931 . S
H149 C123 0.929 . S
H150 C124 0.930 . S
H151 C125 0.931 . S
H152 C132 0.932 . S
H153 C133 0.930 . S
H154 C134 0.929 . S
H155 C136 0.930 . S
H156 C138 0.932 . S
H157 C139 0.929 . S
H158 C140 0.928 . S
H159 C142 0.932 . S
C160 C161 1.264 . S
C160 C165 1.479 . S
C160 C170 1.465 . S
C161 C160 1.264 . S
C161 C163 1.339 . S
C161 H188 0.931 . S
C162 C163 1.395 . S
C162 C164 1.320 . S
C163 C161 1.339 . S
C163 C162 1.395 . S
C163 H189 0.929 . S
C164 C162 1.320 . S
C164 C165 1.405 . S
C164 H190 0.930 . S
C165 C160 1.479 . S
C165 C164 1.405 . S
C165 H191 0.931 . S
U166 O167 2.454 . S
U166 O168 2.458 . S
U166 C169 2.984 . S
U166 C170 2.847 . S
U166 C183 2.882 . S
U166 O184 2.441 . S
U166 O185 2.420 . S
U166 O186 2.455 . S
U166 O187 2.449 . S
O167 U166 2.454 . S
O167 C169 1.353 . S
O168 U166 2.458 . S
O168 C169 1.286 . S
C169 U166 2.984 . S
C169 O167 1.353 . S
C169 O168 1.286 . S
C169 C171 1.363 . S
C170 C160 1.465 . S
C170 U166 2.847 . S
C170 O184 1.249 . S
C170 O185 1.202 . S
C171 C169 1.363 . S
C171 C173 1.408 . S
C171 C176 1.342 . S
C172 C173 1.310 . S
C172 C175 1.461 . S
C172 H192 0.932 . S
C173 C171 1.408 . S
C173 C172 1.310 . S
C173 H193 0.930 . S
C174 C175 1.474 . S
C174 C176 1.285 . S
C174 H194 0.929 . S
C175 C172 1.461 . S
C175 C174 1.474 . S
C176 C171 1.342 . S
C176 C174 1.285 . S
C176 H195 0.930 . S
C177 C180 1.424 . S
C177 C182 1.245 . S
C177 C183 1.428 . S
C178 C181 1.260 . S
C178 C182 1.477 . S
C178 H196 0.932 . S
C179 C180 1.384 . S
C179 C181 1.479 . S
C179 H197 0.929 . S
C180 C177 1.424 . S
C180 C179 1.384 . S
C180 H198 0.928 . S
C181 C178 1.260 . S
C181 C179 1.479 . S
C182 C177 1.245 . S
C182 C178 1.477 . S
C182 H199 0.932 . S
C183 U166 2.882 . S
C183 C177 1.428 . S
C183 O186 1.301 . S
C183 O187 1.282 . S
O184 U166 2.441 . S
O184 C170 1.249 . S
O185 U166 2.420 . S
O185 C170 1.202 . S
O186 U166 2.455 . S
O186 C183 1.301 . S
O187 U166 2.449 . S
O187 C183 1.282 . S
H188 C161 0.931 . S
H189 C163 0.929 . S
H190 C164 0.930 . S
H191 C165 0.931 . S
H192 C172 0.932 . S
H193 C173 0.930 . S
H194 C174 0.929 . S
H195 C176 0.930 . S
H196 C178 0.932 . S
H197 C179 0.929 . S
H198 C180 0.928 . S
H199 C182 0.932 . S
C200 C201 1.264 . S
C200 C205 1.479 . S
C200 C210 1.465 . S
C201 C200 1.264 . S
C201 C203 1.339 . S
C201 H228 0.931 . S
C202 C203 1.395 . S
C202 C204 1.320 . S
C203 C201 1.339 . S
C203 C202 1.395 . S
C203 H229 0.929 . S
C204 C202 1.320 . S
C204 C205 1.405 . S
C204 H230 0.930 . S
C205 C200 1.479 . S
C205 C204 1.405 . S
C205 H231 0.931 . S
U206 O207 2.454 . S
U206 O208 2.458 . S
U206 C209 2.984 . S
U206 C210 2.847 . S
U206 C223 2.882 . S
U206 O224 2.441 . S
U206 O225 2.420 . S
U206 O226 2.455 . S
U206 O227 2.449 . S
O207 U206 2.454 . S
O207 C209 1.353 . S
O208 U206 2.458 . S
O208 C209 1.286 . S
C209 U206 2.984 . S
C209 O207 1.353 . S
C209 O208 1.286 . S
C209 C211 1.363 . S
C210 C200 1.465 . S
C210 U206 2.847 . S
C210 O224 1.249 . S
C210 O225 1.202 . S
C211 C209 1.363 . S
C211 C213 1.408 . S
C211 C216 1.342 . S
C212 C213 1.310 . S
C212 C215 1.461 . S
C212 H232 0.932 . S
C213 C211 1.408 . S
C213 C212 1.310 . S
C213 H233 0.930 . S
C214 C215 1.474 . S
C214 C216 1.285 . S
C214 H234 0.929 . S
C215 C212 1.461 . S
C215 C214 1.474 . S
C216 C211 1.342 . S
C216 C214 1.285 . S
C216 H235 0.930 . S
C217 C220 1.424 . S
C217 C222 1.245 . S
C217 C223 1.428 . S
C218 C221 1.260 . S
C218 C222 1.477 . S
C218 H236 0.932 . S
C219 C220 1.384 . S
C219 C221 1.479 . S
C219 H237 0.929 . S
C220 C217 1.424 . S
C220 C219 1.384 . S
C220 H238 0.928 . S
C221 C218 1.260 . S
C221 C219 1.479 . S
C222 C217 1.245 . S
C222 C218 1.477 . S
C222 H239 0.932 . S
C223 U206 2.882 . S
C223 C217 1.428 . S
C223 O226 1.301 . S
C223 O227 1.282 . S
O224 U206 2.441 . S
O224 C210 1.249 . S
O225 U206 2.420 . S
O225 C210 1.202 . S
O226 U206 2.455 . S
O226 C223 1.301 . S
O227 U206 2.449 . S
O227 C223 1.282 . S
H228 C201 0.931 . S
H229 C203 0.929 . S
H230 C204 0.930 . S
H231 C205 0.931 . S
H232 C212 0.932 . S
H233 C213 0.930 . S
H234 C214 0.929 . S
H235 C216 0.930 . S
H236 C218 0.932 . S
H237 C219 0.929 . S
H238 C220 0.928 . S
H239 C222 0.932 . S
C240 C241 1.264 . S
C240 C245 1.479 . S
C240 C250 1.465 . S
C241 C240 1.264 . S
C241 C243 1.339 . S
C241 H268 0.931 . S
C242 C243 1.395 . S
C242 C244 1.320 . S
C243 C241 1.339 . S
C243 C242 1.395 . S
C243 H269 0.929 . S
C244 C242 1.320 . S
C244 C245 1.405 . S
C244 H270 0.930 . S
C245 C240 1.479 . S
C245 C244 1.405 . S
C245 H271 0.931 . S
U246 O247 2.454 . S
U246 O248 2.458 . S
U246 C249 2.984 . S
U246 C250 2.847 . S
U246 C263 2.882 . S
U246 O264 2.441 . S
U246 O265 2.420 . S
U246 O266 2.455 . S
U246 O267 2.449 . S
O247 U246 2.454 . S
O247 C249 1.353 . S
O248 U246 2.458 . S
O248 C249 1.286 . S
C249 U246 2.984 . S
C249 O247 1.353 . S
C249 O248 1.286 . S
C249 C251 1.363 . S
C250 C240 1.465 . S
C250 U246 2.847 . S
C250 O264 1.249 . S
C250 O265 1.202 . S
C251 C249 1.363 . S
C251 C253 1.408 . S
C251 C256 1.342 . S
C252 C253 1.310 . S
C252 C255 1.461 . S
C252 H272 0.932 . S
C253 C251 1.408 . S
C253 C252 1.310 . S
C253 H273 0.930 . S
C254 C255 1.474 . S
C254 C256 1.285 . S
C254 H274 0.929 . S
C255 C252 1.461 . S
C255 C254 1.474 . S
C256 C251 1.342 . S
C256 C254 1.285 . S
C256 H275 0.930 . S
C257 C260 1.424 . S
C257 C262 1.245 . S
C257 C263 1.428 . S
C258 C261 1.260 . S
C258 C262 1.477 . S
C258 H276 0.932 . S
C259 C260 1.384 . S
C259 C261 1.479 . S
C259 H277 0.929 . S
C260 C257 1.424 . S
C260 C259 1.384 . S
C260 H278 0.928 . S
C261 C258 1.260 . S
C261 C259 1.479 . S
C262 C257 1.245 . S
C262 C258 1.477 . S
C262 H279 0.932 . S
C263 U246 2.882 . S
C263 C257 1.428 . S
C263 O266 1.301 . S
C263 O267 1.282 . S
O264 U246 2.441 . S
O264 C250 1.249 . S
O265 U246 2.420 . S
O265 C250 1.202 . S
O266 U246 2.455 . S
O266 C263 1.301 . S
O267 U246 2.449 . S
O267 C263 1.282 . S
H268 C241 0.931 . S
H269 C243 0.929 . S
H270 C244 0.930 . S
H271 C245 0.931 . S
H272 C252 0.932 . S
H273 C253 0.930 . S
H274 C254 0.929 . S
H275 C256 0.930 . S
H276 C258 0.932 . S
H277 C259 0.929 . S
H278 C260 0.928 . S
H279 C262 0.932 . S
C280 C281 1.264 . S
C280 C285 1.479 . S
C280 C290 1.465 . S
C281 C280 1.264 . S
C281 C283 1.339 . S
C281 H308 0.931 . S
C282 C283 1.395 . S
C282 C284 1.320 . S
C283 C281 1.339 . S
C283 C282 1.395 . S
C283 H309 0.929 . S
C284 C282 1.320 . S
C284 C285 1.405 . S
C284 H310 0.930 . S
C285 C280 1.479 . S
C285 C284 1.405 . S
C285 H311 0.931 . S
U286 O287 2.454 . S
U286 O288 2.458 . S
U286 C289 2.984 . S
U286 C290 2.847 . S
U286 C303 2.882 . S
U286 O304 2.441 . S
U286 O305 2.420 . S
U286 O306 2.455 . S
U286 O307 2.449 . S
O287 U286 2.454 . S
O287 C289 1.353 . S
O288 U286 2.458 . S
O288 C289 1.286 . S
C289 U286 2.984 . S
C289 O287 1.353 . S
C289 O288 1.286 . S
C289 C291 1.363 . S
C290 C280 1.465 . S
C290 U286 2.847 . S
C290 O304 1.249 . S
C290 O305 1.202 . S
C291 C289 1.363 . S
C291 C293 1.408 . S
C291 C296 1.342 . S
C292 C293 1.310 . S
C292 C295 1.461 . S
C292 H312 0.932 . S
C293 C291 1.408 . S
C293 C292 1.310 . S
C293 H313 0.930 . S
C294 C295 1.474 . S
C294 C296 1.285 . S
C294 H314 0.929 . S
C295 C292 1.461 . S
C295 C294 1.474 . S
C296 C291 1.342 . S
C296 C294 1.285 . S
C296 H315 0.930 . S
C297 C300 1.424 . S
C297 C302 1.245 . S
C297 C303 1.428 . S
C298 C301 1.260 . S
C298 C302 1.477 . S
C298 H316 0.932 . S
C299 C300 1.384 . S
C299 C301 1.479 . S
C299 H317 0.929 . S
C300 C297 1.424 . S
C300 C299 1.384 . S
C300 H318 0.928 . S
C301 C298 1.260 . S
C301 C299 1.479 . S
C302 C297 1.245 . S
C302 C298 1.477 . S
C302 H319 0.932 . S
C303 U286 2.882 . S
C303 C297 1.428 . S
C303 O306 1.301 . S
C303 O307 1.282 . S
O304 U286 2.441 . S
O304 C290 1.249 . S
O305 U286 2.420 . S
O305 C290 1.202 . S
O306 U286 2.455 . S
O306 C303 1.301 . S
O307 U286 2.449 . S
O307 C303 1.282 . S
H308 C281 0.931 . S
H309 C283 0.929 . S
H310 C284 0.930 . S
H311 C285 0.931 . S
H312 C292 0.932 . S
H313 C293 0.930 . S
H314 C294 0.929 . S
H315 C296 0.930 . S
H316 C298 0.932 . S
H317 C299 0.929 . S
H318 C300 0.928 . S
H319 C302 0.932 . S
Co320 O323 2.042 . S
Co320 O330 2.264 . S
Co320 O349 2.286 . S
Co320 O350 2.069 . S
Co320 O352 2.015 . S
Co321 O323 2.122 . S
Co321 O329 2.073 . S
Co321 O330 2.327 . S
Co321 O331 1.976 . S
Co322 O323 2.087 . S
Co322 O325 2.087 1_455 S
Co322 O332 2.111 . S
Co322 O333 2.143 1_455 S
Co322 O337 2.111 1_455 S
Co322 O351 2.143 . S
O323 Co320 2.042 . S
O323 Co321 2.122 . S
O323 Co322 2.087 . S
O323 H324 0.980 . S
H324 O323 0.980 . S
O325 Co322 2.087 1_655 S
O325 Co326 2.042 . S
O325 Co327 2.122 . S
O325 H328 0.980 . S
Co326 O325 2.042 . S
Co326 O334 2.286 . S
Co326 O335 2.069 . S
Co326 O336 2.015 . S
Co326 O339 2.264 . S
Co327 O325 2.122 . S
Co327 O338 1.976 . S
Co327 O339 2.327 . S
Co327 O340 2.073 . S
H328 O325 0.980 . S
O329 Co321 2.073 . S
O329 C344 1.245 . S
O330 Co320 2.264 . S
O330 Co321 2.327 . S
O330 C344 1.257 . S
O331 Co321 1.976 . S
O331 C343 1.251 . S
O332 Co322 2.111 . S
O332 C343 1.274 . S
O333 Co322 2.143 1_655 S
O333 C346 1.246 . S
O334 Co326 2.286 . S
O334 C345 1.259 . S
O335 Co326 2.069 . S
O335 C345 1.289 . S
O336 Co326 2.015 . S
O336 C346 1.257 . S
O337 Co322 2.111 1_655 S
O337 C347 1.274 . S
O338 Co327 1.976 . S
O338 C347 1.251 . S
O339 Co326 2.264 . S
O339 Co327 2.327 . S
O339 C348 1.257 . S
O340 Co327 2.073 . S
O340 C348 1.245 . S
C341 O349 1.259 . S
C341 O350 1.289 . S
C342 O351 1.246 . S
C342 O352 1.257 . S
C343 O331 1.251 . S
C343 O332 1.274 . S
C344 O329 1.245 . S
C344 O330 1.257 . S
C345 O334 1.259 . S
C345 O335 1.289 . S
C346 O333 1.246 . S
C346 O336 1.257 . S
C347 O337 1.274 . S
C347 O338 1.251 . S
C348 O339 1.257 . S
C348 O340 1.245 . S
O349 Co320 2.286 . S
O349 C341 1.259 . S
O350 Co320 2.069 . S
O350 C341 1.289 . S
O351 Co322 2.143 . S
O351 C342 1.246 . S
O352 Co320 2.015 . S
O352 C342 1.257 . S
Co353 O356 2.042 . S
Co353 O363 2.264 . S
Co353 O382 2.286 . S
Co353 O383 2.069 . S
Co353 O385 2.015 . S
Co354 O356 2.122 . S
Co354 O362 2.073 . S
Co354 O363 2.327 . S
Co354 O364 1.976 . S
Co355 O356 2.087 1_545 S
Co355 O358 2.087 . S
Co355 O365 2.111 1_545 S
Co355 O366 2.143 . S
Co355 O370 2.111 . S
Co355 O384 2.143 1_545 S
O356 Co353 2.042 . S
O356 Co354 2.122 . S
O356 Co355 2.087 1_565 S
O356 H357 0.980 . S
H357 O356 0.980 . S
O358 Co355 2.087 . S
O358 Co359 2.042 . S
O358 Co360 2.122 . S
O358 H361 0.980 . S
Co359 O358 2.042 . S
Co359 O367 2.286 . S
Co359 O368 2.069 . S
Co359 O369 2.015 . S
Co359 O372 2.264 . S
Co360 O358 2.122 . S
Co360 O371 1.976 . S
Co360 O372 2.327 . S
Co360 O373 2.073 . S
H361 O358 0.980 . S
O362 Co354 2.073 . S
O362 C377 1.245 . S
O363 Co353 2.264 . S
O363 Co354 2.327 . S
O363 C377 1.257 . S
O364 Co354 1.976 . S
O364 C376 1.251 . S
O365 Co355 2.111 1_565 S
O365 C376 1.274 . S
O366 Co355 2.143 . S
O366 C379 1.246 . S
O367 Co359 2.286 . S
O367 C378 1.259 . S
O368 Co359 2.069 . S
O368 C378 1.289 . S
O369 Co359 2.015 . S
O369 C379 1.257 . S
O370 Co355 2.111 . S
O370 C380 1.274 . S
O371 Co360 1.976 . S
O371 C380 1.251 . S
O372 Co359 2.264 . S
O372 Co360 2.327 . S
O372 C381 1.257 . S
O373 Co360 2.073 . S
O373 C381 1.245 . S
C374 O382 1.259 . S
C374 O383 1.289 . S
C375 O384 1.246 . S
C375 O385 1.257 . S
C376 O364 1.251 . S
C376 O365 1.274 . S
C377 O362 1.245 . S
C377 O363 1.257 . S
C378 O367 1.259 . S
C378 O368 1.289 . S
C379 O366 1.246 . S
C379 O369 1.257 . S
C380 O370 1.274 . S
C380 O371 1.251 . S
C381 O372 1.257 . S
C381 O373 1.245 . S
O382 Co353 2.286 . S
O382 C374 1.259 . S
O383 Co353 2.069 . S
O383 C374 1.289 . S
O384 Co355 2.143 1_565 S
O384 C375 1.246 . S
O385 Co353 2.015 . S
O385 C375 1.257 . S
Co386 O389 2.042 . S
Co386 O396 2.264 . S
Co386 O415 2.286 . S
Co386 O416 2.069 . S
Co386 O418 2.015 . S
Co387 O389 2.122 . S
Co387 O395 2.073 . S
Co387 O396 2.327 . S
Co387 O397 1.976 . S
Co388 O389 2.087 . S
Co388 O391 2.087 1_554 S
Co388 O398 2.111 . S
Co388 O399 2.143 1_554 S
Co388 O403 2.111 1_554 S
Co388 O417 2.143 . S
O389 Co386 2.042 . S
O389 Co387 2.122 . S
O389 Co388 2.087 . S
O389 H390 0.980 . S
H390 O389 0.980 . S
O391 Co388 2.087 1_556 S
O391 Co392 2.042 . S
O391 Co393 2.122 . S
O391 H394 0.980 . S
Co392 O391 2.042 . S
Co392 O400 2.286 . S
Co392 O401 2.069 . S
Co392 O402 2.015 . S
Co392 O405 2.264 . S
Co393 O391 2.122 . S
Co393 O404 1.976 . S
Co393 O405 2.327 . S
Co393 O406 2.073 . S
H394 O391 0.980 . S
O395 Co387 2.073 . S
O395 C410 1.245 . S
O396 Co386 2.264 . S
O396 Co387 2.327 . S
O396 C410 1.257 . S
O397 Co387 1.976 . S
O397 C409 1.251 . S
O398 Co388 2.111 . S
O398 C409 1.274 . S
O399 Co388 2.143 1_556 S
O399 C412 1.246 . S
O400 Co392 2.286 . S
O400 C411 1.259 . S
O401 Co392 2.069 . S
O401 C411 1.289 . S
O402 Co392 2.015 . S
O402 C412 1.257 . S
O403 Co388 2.111 1_556 S
O403 C413 1.274 . S
O404 Co393 1.976 . S
O404 C413 1.251 . S
O405 Co392 2.264 . S
O405 Co393 2.327 . S
O405 C414 1.257 . S
O406 Co393 2.073 . S
O406 C414 1.245 . S
C407 O415 1.259 . S
C407 O416 1.289 . S
C408 O417 1.246 . S
C408 O418 1.257 . S
C409 O397 1.251 . S
C409 O398 1.274 . S
C410 O395 1.245 . S
C410 O396 1.257 . S
C411 O400 1.259 . S
C411 O401 1.289 . S
C412 O399 1.246 . S
C412 O402 1.257 . S
C413 O403 1.274 . S
C413 O404 1.251 . S
C414 O405 1.257 . S
C414 O406 1.245 . S
O415 Co386 2.286 . S
O415 C407 1.259 . S
O416 Co386 2.069 . S
O416 C407 1.289 . S
O417 Co388 2.143 . S
O417 C408 1.246 . S
O418 Co386 2.015 . S
O418 C408 1.257 . S
C419 C420 1.349 . S
C419 C421 1.327 . S
C419 H444 0.950 . S
C420 C419 1.349 . S
C420 C436 1.349 . S
C421 C419 1.327 . S
C421 C440 1.429 . S
C421 H445 0.950 . S
C422 C439 1.574 . S
C422 C441 1.368 . S
C422 H446 0.949 . S
H423 C427 0.949 . S
C424 C425 1.349 . S
C424 C426 1.327 . S
C424 H447 0.950 . S
C425 C424 1.349 . S
C425 C437 1.349 . S
C426 C424 1.327 . S
C426 C442 1.429 . S
C426 H448 0.950 . S
C427 H423 0.949 . S
C427 C435 1.574 . S
C427 C443 1.368 . S
H428 C436 0.950 . S
H429 C434 0.950 . S
H430 C435 0.949 . S
H431 C437 0.950 . S
H432 C438 0.950 . S
H433 C439 0.949 . S
C434 H429 0.950 . S
C434 C436 1.327 . S
C434 C440 1.429 . S
C435 C427 1.574 . S
C435 H430 0.949 . S
C435 C441 1.368 . S
C436 C420 1.349 . S
C436 H428 0.950 . S
C436 C434 1.327 . S
C437 C425 1.349 . S
C437 H431 0.950 . S
C437 C438 1.327 . S
C438 H432 0.950 . S
C438 C437 1.327 . S
C438 C442 1.429 . S
C439 C422 1.574 . S
C439 H433 0.949 . S
C439 C443 1.368 . S
C440 C421 1.429 . S
C440 C434 1.429 . S
C440 C441 1.523 . S
C441 C422 1.368 . S
C441 C435 1.368 . S
C441 C440 1.523 . S
C442 C426 1.429 . S
C442 C438 1.429 . S
C442 C443 1.523 . S
C443 C427 1.368 . S
C443 C439 1.368 . S
C443 C442 1.523 . S
H444 C419 0.950 . S
H445 C421 0.950 . S
H446 C422 0.949 . S
H447 C424 0.950 . S
H448 C426 0.950 . S
C449 C450 1.349 . S
C449 C451 1.327 . S
C449 H474 0.950 . S
C450 C449 1.349 . S
C450 C466 1.349 . S
C451 C449 1.327 . S
C451 C470 1.429 . S
C451 H475 0.950 . S
C452 C469 1.574 . S
C452 C471 1.368 . S
C452 H476 0.949 . S
H453 C457 0.949 . S
C454 C455 1.349 . S
C454 C456 1.327 . S
C454 H477 0.950 . S
C455 C454 1.349 . S
C455 C467 1.349 . S
C456 C454 1.327 . S
C456 C472 1.429 . S
C456 H478 0.950 . S
C457 H453 0.949 . S
C457 C465 1.574 . S
C457 C473 1.368 . S
H458 C466 0.950 . S
H459 C464 0.950 . S
H460 C465 0.949 . S
H461 C467 0.950 . S
H462 C468 0.950 . S
H463 C469 0.949 . S
C464 H459 0.950 . S
C464 C466 1.327 . S
C464 C470 1.429 . S
C465 C457 1.574 . S
C465 H460 0.949 . S
C465 C471 1.368 . S
C466 C450 1.349 . S
C466 H458 0.950 . S
C466 C464 1.327 . S
C467 C455 1.349 . S
C467 H461 0.950 . S
C467 C468 1.327 . S
C468 H462 0.950 . S
C468 C467 1.327 . S
C468 C472 1.429 . S
C469 C452 1.574 . S
C469 H463 0.949 . S
C469 C473 1.368 . S
C470 C451 1.429 . S
C470 C464 1.429 . S
C470 C471 1.523 . S
C471 C452 1.368 . S
C471 C465 1.368 . S
C471 C470 1.523 . S
C472 C456 1.429 . S
C472 C468 1.429 . S
C472 C473 1.523 . S
C473 C457 1.368 . S
C473 C469 1.368 . S
C473 C472 1.523 . S
H474 C449 0.950 . S
H475 C451 0.950 . S
H476 C452 0.949 . S
H477 C454 0.950 . S
H478 C456 0.950 . S
C479 C480 1.349 . S
C479 C481 1.327 . S
C479 H504 0.950 . S
C480 C479 1.349 . S
C480 C496 1.349 . S
C481 C479 1.327 . S
C481 C500 1.429 . S
C481 H505 0.950 . S
C482 C499 1.574 . S
C482 C501 1.368 . S
C482 H506 0.949 . S
H483 C487 0.949 . S
C484 C485 1.349 . S
C484 C486 1.327 . S
C484 H507 0.950 . S
C485 C484 1.349 . S
C485 C497 1.349 . S
C486 C484 1.327 . S
C486 C502 1.429 . S
C486 H508 0.950 . S
C487 H483 0.949 . S
C487 C495 1.574 . S
C487 C503 1.368 . S
H488 C496 0.950 . S
H489 C494 0.950 . S
H490 C495 0.949 . S
H491 C497 0.950 . S
H492 C498 0.950 . S
H493 C499 0.949 . S
C494 H489 0.950 . S
C494 C496 1.327 . S
C494 C500 1.429 . S
C495 C487 1.574 . S
C495 H490 0.949 . S
C495 C501 1.368 . S
C496 C480 1.349 . S
C496 H488 0.950 . S
C496 C494 1.327 . S
C497 C485 1.349 . S
C497 H491 0.950 . S
C497 C498 1.327 . S
C498 H492 0.950 . S
C498 C497 1.327 . S
C498 C502 1.429 . S
C499 C482 1.574 . S
C499 H493 0.949 . S
C499 C503 1.368 . S
C500 C481 1.429 . S
C500 C494 1.429 . S
C500 C501 1.523 . S
C501 C482 1.368 . S
C501 C495 1.368 . S
C501 C500 1.523 . S
C502 C486 1.429 . S
C502 C498 1.429 . S
C502 C503 1.523 . S
C503 C487 1.368 . S
C503 C499 1.368 . S
C503 C502 1.523 . S
H504 C479 0.950 . S
H505 C481 0.950 . S
H506 C482 0.949 . S
H507 C484 0.950 . S
H508 C486 0.950 . S
C509 C510 1.349 . S
C509 C511 1.327 . S
C509 H534 0.950 . S
C510 C509 1.349 . S
C510 C526 1.349 . S
C511 C509 1.327 . S
C511 C530 1.429 . S
C511 H535 0.950 . S
C512 C529 1.574 . S
C512 C531 1.368 . S
C512 H536 0.949 . S
H513 C517 0.949 . S
C514 C515 1.349 . S
C514 C516 1.327 . S
C514 H537 0.950 . S
C515 C514 1.349 . S
C515 C527 1.349 . S
C516 C514 1.327 . S
C516 C532 1.429 . S
C516 H538 0.950 . S
C517 H513 0.949 . S
C517 C525 1.574 . S
C517 C533 1.368 . S
H518 C526 0.950 . S
H519 C524 0.950 . S
H520 C525 0.949 . S
H521 C527 0.950 . S
H522 C528 0.950 . S
H523 C529 0.949 . S
C524 H519 0.950 . S
C524 C526 1.327 . S
C524 C530 1.429 . S
C525 C517 1.574 . S
C525 H520 0.949 . S
C525 C531 1.368 . S
C526 C510 1.349 . S
C526 H518 0.950 . S
C526 C524 1.327 . S
C527 C515 1.349 . S
C527 H521 0.950 . S
C527 C528 1.327 . S
C528 H522 0.950 . S
C528 C527 1.327 . S
C528 C532 1.429 . S
C529 C512 1.574 . S
C529 H523 0.949 . S
C529 C533 1.368 . S
C530 C511 1.429 . S
C530 C524 1.429 . S
C530 C531 1.523 . S
C531 C512 1.368 . S
C531 C525 1.368 . S
C531 C530 1.523 . S
C532 C516 1.429 . S
C532 C528 1.429 . S
C532 C533 1.523 . S
C533 C517 1.368 . S
C533 C529 1.368 . S
C533 C532 1.523 . S
H534 C509 0.950 . S
H535 C511 0.950 . S
H536 C512 0.949 . S
H537 C514 0.950 . S
H538 C516 0.950 . S
C539 C540 1.349 . S
C539 C541 1.327 . S
C539 H564 0.950 . S
C540 C539 1.349 . S
C540 C556 1.349 . S
C541 C539 1.327 . S
C541 C560 1.429 . S
C541 H565 0.950 . S
C542 C559 1.574 . S
C542 C561 1.368 . S
C542 H566 0.949 . S
H543 C547 0.949 . S
C544 C545 1.349 . S
C544 C546 1.327 . S
C544 H567 0.950 . S
C545 C544 1.349 . S
C545 C557 1.349 . S
C546 C544 1.327 . S
C546 C562 1.429 . S
C546 H568 0.950 . S
C547 H543 0.949 . S
C547 C555 1.574 . S
C547 C563 1.368 . S
H548 C556 0.950 . S
H549 C554 0.950 . S
H550 C555 0.949 . S
H551 C557 0.950 . S
H552 C558 0.950 . S
H553 C559 0.949 . S
C554 H549 0.950 . S
C554 C556 1.327 . S
C554 C560 1.429 . S
C555 C547 1.574 . S
C555 H550 0.949 . S
C555 C561 1.368 . S
C556 C540 1.349 . S
C556 H548 0.950 . S
C556 C554 1.327 . S
C557 C545 1.349 . S
C557 H551 0.950 . S
C557 C558 1.327 . S
C558 H552 0.950 . S
C558 C557 1.327 . S
C558 C562 1.429 . S
C559 C542 1.574 . S
C559 H553 0.949 . S
C559 C563 1.368 . S
C560 C541 1.429 . S
C560 C554 1.429 . S
C560 C561 1.523 . S
C561 C542 1.368 . S
C561 C555 1.368 . S
C561 C560 1.523 . S
C562 C546 1.429 . S
C562 C558 1.429 . S
C562 C563 1.523 . S
C563 C547 1.368 . S
C563 C559 1.368 . S
C563 C562 1.523 . S
H564 C539 0.950 . S
H565 C541 0.950 . S
H566 C542 0.949 . S
H567 C544 0.950 . S
H568 C546 0.950 . S
C569 C570 1.349 . S
C569 C571 1.327 . S
C569 H594 0.950 . S
C570 C569 1.349 . S
C570 C586 1.349 . S
C571 C569 1.327 . S
C571 C590 1.429 . S
C571 H595 0.950 . S
C572 C589 1.574 . S
C572 C591 1.368 . S
C572 H596 0.949 . S
H573 C577 0.949 . S
C574 C575 1.349 . S
C574 C576 1.327 . S
C574 H597 0.950 . S
C575 C574 1.349 . S
C575 C587 1.349 . S
C576 C574 1.327 . S
C576 C592 1.429 . S
C576 H598 0.950 . S
C577 H573 0.949 . S
C577 C585 1.574 . S
C577 C593 1.368 . S
H578 C586 0.950 . S
H579 C584 0.950 . S
H580 C585 0.949 . S
H581 C587 0.950 . S
H582 C588 0.950 . S
H583 C589 0.949 . S
C584 H579 0.950 . S
C584 C586 1.327 . S
C584 C590 1.429 . S
C585 C577 1.574 . S
C585 H580 0.949 . S
C585 C591 1.368 . S
C586 C570 1.349 . S
C586 H578 0.950 . S
C586 C584 1.327 . S
C587 C575 1.349 . S
C587 H581 0.950 . S
C587 C588 1.327 . S
C588 H582 0.950 . S
C588 C587 1.327 . S
C588 C592 1.429 . S
C589 C572 1.574 . S
C589 H583 0.949 . S
C589 C593 1.368 . S
C590 C571 1.429 . S
C590 C584 1.429 . S
C590 C591 1.523 . S
C591 C572 1.368 . S
C591 C585 1.368 . S
C591 C590 1.523 . S
C592 C576 1.429 . S
C592 C588 1.429 . S
C592 C593 1.523 . S
C593 C577 1.368 . S
C593 C589 1.368 . S
C593 C592 1.523 . S
H594 C569 0.950 . S
H595 C571 0.950 . S
H596 C572 0.949 . S
H597 C574 0.950 . S
H598 C576 0.950 . S
C599 C600 1.349 . S
C599 C601 1.327 . S
C599 H624 0.950 . S
C600 C599 1.349 . S
C600 C616 1.349 . S
C601 C599 1.327 . S
C601 C620 1.429 . S
C601 H625 0.950 . S
C602 C619 1.574 . S
C602 C621 1.368 . S
C602 H626 0.949 . S
H603 C607 0.949 . S
C604 C605 1.349 . S
C604 C606 1.327 . S
C604 H627 0.950 . S
C605 C604 1.349 . S
C605 C617 1.349 . S
C606 C604 1.327 . S
C606 C622 1.429 . S
C606 H628 0.950 . S
C607 H603 0.949 . S
C607 C615 1.574 . S
C607 C623 1.368 . S
H608 C616 0.950 . S
H609 C614 0.950 . S
H610 C615 0.949 . S
H611 C617 0.950 . S
H612 C618 0.950 . S
H613 C619 0.949 . S
C614 H609 0.950 . S
C614 C616 1.327 . S
C614 C620 1.429 . S
C615 C607 1.574 . S
C615 H610 0.949 . S
C615 C621 1.368 . S
C616 C600 1.349 . S
C616 H608 0.950 . S
C616 C614 1.327 . S
C617 C605 1.349 . S
C617 H611 0.950 . S
C617 C618 1.327 . S
C618 H612 0.950 . S
C618 C617 1.327 . S
C618 C622 1.429 . S
C619 C602 1.574 . S
C619 H613 0.949 . S
C619 C623 1.368 . S
C620 C601 1.429 . S
C620 C614 1.429 . S
C620 C621 1.523 . S
C621 C602 1.368 . S
C621 C615 1.368 . S
C621 C620 1.523 . S
C622 C606 1.429 . S
C622 C618 1.429 . S
C622 C623 1.523 . S
C623 C607 1.368 . S
C623 C619 1.368 . S
C623 C622 1.523 . S
H624 C599 0.950 . S
H625 C601 0.950 . S
H626 C602 0.949 . S
H627 C604 0.950 . S
H628 C606 0.950 . S
C629 C630 1.349 . S
C629 C631 1.327 . S
C629 H654 0.950 . S
C630 C629 1.349 . S
C630 C646 1.349 . S
C631 C629 1.327 . S
C631 C650 1.429 . S
C631 H655 0.950 . S
C632 C649 1.574 . S
C632 C651 1.368 . S
C632 H656 0.949 . S
H633 C637 0.949 . S
C634 C635 1.349 . S
C634 C636 1.327 . S
C634 H657 0.950 . S
C635 C634 1.349 . S
C635 C647 1.349 . S
C636 C634 1.327 . S
C636 C652 1.429 . S
C636 H658 0.950 . S
C637 H633 0.949 . S
C637 C645 1.574 . S
C637 C653 1.368 . S
H638 C646 0.950 . S
H639 C644 0.950 . S
H640 C645 0.949 . S
H641 C647 0.950 . S
H642 C648 0.950 . S
H643 C649 0.949 . S
C644 H639 0.950 . S
C644 C646 1.327 . S
C644 C650 1.429 . S
C645 C637 1.574 . S
C645 H640 0.949 . S
C645 C651 1.368 . S
C646 C630 1.349 . S
C646 H638 0.950 . S
C646 C644 1.327 . S
C647 C635 1.349 . S
C647 H641 0.950 . S
C647 C648 1.327 . S
C648 H642 0.950 . S
C648 C647 1.327 . S
C648 C652 1.429 . S
C649 C632 1.574 . S
C649 H643 0.949 . S
C649 C653 1.368 . S
C650 C631 1.429 . S
C650 C644 1.429 . S
C650 C651 1.523 . S
C651 C632 1.368 . S
C651 C645 1.368 . S
C651 C650 1.523 . S
C652 C636 1.429 . S
C652 C648 1.429 . S
C652 C653 1.523 . S
C653 C637 1.368 . S
C653 C649 1.368 . S
C653 C652 1.523 . S
H654 C629 0.950 . S
H655 C631 0.950 . S
H656 C632 0.949 . S
H657 C634 0.950 . S
H658 C636 0.950 . S
C659 C660 1.349 . S
C659 C661 1.327 . S
C659 H684 0.950 . S
C660 C659 1.349 . S
C660 C676 1.349 . S
C661 C659 1.327 . S
C661 C680 1.429 . S
C661 H685 0.950 . S
C662 C679 1.574 . S
C662 C681 1.368 . S
C662 H686 0.949 . S
H663 C667 0.949 . S
C664 C665 1.349 . S
C664 C666 1.327 . S
C664 H687 0.950 . S
C665 C664 1.349 . S
C665 C677 1.349 . S
C666 C664 1.327 . S
C666 C682 1.429 . S
C666 H688 0.950 . S
C667 H663 0.949 . S
C667 C675 1.574 . S
C667 C683 1.368 . S
H668 C676 0.950 . S
H669 C674 0.950 . S
H670 C675 0.949 . S
H671 C677 0.950 . S
H672 C678 0.950 . S
H673 C679 0.949 . S
C674 H669 0.950 . S
C674 C676 1.327 . S
C674 C680 1.429 . S
C675 C667 1.574 . S
C675 H670 0.949 . S
C675 C681 1.368 . S
C676 C660 1.349 . S
C676 H668 0.950 . S
C676 C674 1.327 . S
C677 C665 1.349 . S
C677 H671 0.950 . S
C677 C678 1.327 . S
C678 H672 0.950 . S
C678 C677 1.327 . S
C678 C682 1.429 . S
C679 C662 1.574 . S
C679 H673 0.949 . S
C679 C683 1.368 . S
C680 C661 1.429 . S
C680 C674 1.429 . S
C680 C681 1.523 . S
C681 C662 1.368 . S
C681 C675 1.368 . S
C681 C680 1.523 . S
C682 C666 1.429 . S
C682 C678 1.429 . S
C682 C683 1.523 . S
C683 C667 1.368 . S
C683 C679 1.368 . S
C683 C682 1.523 . S
H684 C659 0.950 . S
H685 C661 0.950 . S
H686 C662 0.949 . S
H687 C664 0.950 . S
H688 C666 0.950 . S
C689 C690 1.349 . S
C689 C691 1.327 . S
C689 H714 0.950 . S
C690 C689 1.349 . S
C690 C706 1.349 . S
C691 C689 1.327 . S
C691 C710 1.429 . S
C691 H715 0.950 . S
C692 C709 1.574 . S
C692 C711 1.368 . S
C692 H716 0.949 . S
H693 C697 0.949 . S
C694 C695 1.349 . S
C694 C696 1.327 . S
C694 H717 0.950 . S
C695 C694 1.349 . S
C695 C707 1.349 . S
C696 C694 1.327 . S
C696 C712 1.429 . S
C696 H718 0.950 . S
C697 H693 0.949 . S
C697 C705 1.574 . S
C697 C713 1.368 . S
H698 C706 0.950 . S
H699 C704 0.950 . S
H700 C705 0.949 . S
H701 C707 0.950 . S
H702 C708 0.950 . S
H703 C709 0.949 . S
C704 H699 0.950 . S
C704 C706 1.327 . S
C704 C710 1.429 . S
C705 C697 1.574 . S
C705 H700 0.949 . S
C705 C711 1.368 . S
C706 C690 1.349 . S
C706 H698 0.950 . S
C706 C704 1.327 . S
C707 C695 1.349 . S
C707 H701 0.950 . S
C707 C708 1.327 . S
C708 H702 0.950 . S
C708 C707 1.327 . S
C708 C712 1.429 . S
C709 C692 1.574 . S
C709 H703 0.949 . S
C709 C713 1.368 . S
C710 C691 1.429 . S
C710 C704 1.429 . S
C710 C711 1.523 . S
C711 C692 1.368 . S
C711 C705 1.368 . S
C711 C710 1.523 . S
C712 C696 1.429 . S
C712 C708 1.429 . S
C712 C713 1.523 . S
C713 C697 1.368 . S
C713 C709 1.368 . S
C713 C712 1.523 . S
H714 C689 0.950 . S
H715 C691 0.950 . S
H716 C692 0.949 . S
H717 C694 0.950 . S
H718 C696 0.950 . S
C719 C720 1.349 . S
C719 C721 1.327 . S
C719 H744 0.950 . S
C720 C719 1.349 . S
C720 C736 1.349 . S
C721 C719 1.327 . S
C721 C740 1.429 . S
C721 H745 0.950 . S
C722 C739 1.574 . S
C722 C741 1.368 . S
C722 H746 0.949 . S
H723 C727 0.949 . S
C724 C725 1.349 . S
C724 C726 1.327 . S
C724 H747 0.950 . S
C725 C724 1.349 . S
C725 C737 1.349 . S
C726 C724 1.327 . S
C726 C742 1.429 . S
C726 H748 0.950 . S
C727 H723 0.949 . S
C727 C735 1.574 . S
C727 C743 1.368 . S
H728 C736 0.950 . S
H729 C734 0.950 . S
H730 C735 0.949 . S
H731 C737 0.950 . S
H732 C738 0.950 . S
H733 C739 0.949 . S
C734 H729 0.950 . S
C734 C736 1.327 . S
C734 C740 1.429 . S
C735 C727 1.574 . S
C735 H730 0.949 . S
C735 C741 1.368 . S
C736 C720 1.349 . S
C736 H728 0.950 . S
C736 C734 1.327 . S
C737 C725 1.349 . S
C737 H731 0.950 . S
C737 C738 1.327 . S
C738 H732 0.950 . S
C738 C737 1.327 . S
C738 C742 1.429 . S
C739 C722 1.574 . S
C739 H733 0.949 . S
C739 C743 1.368 . S
C740 C721 1.429 . S
C740 C734 1.429 . S
C740 C741 1.523 . S
C741 C722 1.368 . S
C741 C735 1.368 . S
C741 C740 1.523 . S
C742 C726 1.429 . S
C742 C738 1.429 . S
C742 C743 1.523 . S
C743 C727 1.368 . S
C743 C739 1.368 . S
C743 C742 1.523 . S
H744 C719 0.950 . S
H745 C721 0.950 . S
H746 C722 0.949 . S
H747 C724 0.950 . S
H748 C726 0.950 . S
C749 C750 1.349 . S
C749 C751 1.327 . S
C749 H774 0.950 . S
C750 C749 1.349 . S
C750 C766 1.349 . S
C751 C749 1.327 . S
C751 C770 1.429 . S
C751 H775 0.950 . S
C752 C769 1.574 . S
C752 C771 1.368 . S
C752 H776 0.949 . S
H753 C757 0.949 . S
C754 C755 1.349 . S
C754 C756 1.327 . S
C754 H777 0.950 . S
C755 C754 1.349 . S
C755 C767 1.349 . S
C756 C754 1.327 . S
C756 C772 1.429 . S
C756 H778 0.950 . S
C757 H753 0.949 . S
C757 C765 1.574 . S
C757 C773 1.368 . S
H758 C766 0.950 . S
H759 C764 0.950 . S
H760 C765 0.949 . S
H761 C767 0.950 . S
H762 C768 0.950 . S
H763 C769 0.949 . S
C764 H759 0.950 . S
C764 C766 1.327 . S
C764 C770 1.429 . S
C765 C757 1.574 . S
C765 H760 0.949 . S
C765 C771 1.368 . S
C766 C750 1.349 . S
C766 H758 0.950 . S
C766 C764 1.327 . S
C767 C755 1.349 . S
C767 H761 0.950 . S
C767 C768 1.327 . S
C768 H762 0.950 . S
C768 C767 1.327 . S
C768 C772 1.429 . S
C769 C752 1.574 . S
C769 H763 0.949 . S
C769 C773 1.368 . S
C770 C751 1.429 . S
C770 C764 1.429 . S
C770 C771 1.523 . S
C771 C752 1.368 . S
C771 C765 1.368 . S
C771 C770 1.523 . S
C772 C756 1.429 . S
C772 C768 1.429 . S
C772 C773 1.523 . S
C773 C757 1.368 . S
C773 C769 1.368 . S
C773 C772 1.523 . S
H774 C749 0.950 . S
H775 C751 0.950 . S
H776 C752 0.949 . S
H777 C754 0.950 . S
H778 C756 0.950 . S
C779 C780 1.349 . S
C779 C781 1.327 . S
C779 H804 0.950 . S
C780 C779 1.349 . S
C780 C796 1.349 . S
C781 C779 1.327 . S
C781 C800 1.429 . S
C781 H805 0.950 . S
C782 C799 1.574 . S
C782 C801 1.368 . S
C782 H806 0.949 . S
H783 C787 0.949 . S
C784 C785 1.349 . S
C784 C786 1.327 . S
C784 H807 0.950 . S
C785 C784 1.349 . S
C785 C797 1.349 . S
C786 C784 1.327 . S
C786 C802 1.429 . S
C786 H808 0.950 . S
C787 H783 0.949 . S
C787 C795 1.574 . S
C787 C803 1.368 . S
H788 C796 0.950 . S
H789 C794 0.950 . S
H790 C795 0.949 . S
H791 C797 0.950 . S
H792 C798 0.950 . S
H793 C799 0.949 . S
C794 H789 0.950 . S
C794 C796 1.327 . S
C794 C800 1.429 . S
C795 C787 1.574 . S
C795 H790 0.949 . S
C795 C801 1.368 . S
C796 C780 1.349 . S
C796 H788 0.950 . S
C796 C794 1.327 . S
C797 C785 1.349 . S
C797 H791 0.950 . S
C797 C798 1.327 . S
C798 H792 0.950 . S
C798 C797 1.327 . S
C798 C802 1.429 . S
C799 C782 1.574 . S
C799 H793 0.949 . S
C799 C803 1.368 . S
C800 C781 1.429 . S
C800 C794 1.429 . S
C800 C801 1.523 . S
C801 C782 1.368 . S
C801 C795 1.368 . S
C801 C800 1.523 . S
C802 C786 1.429 . S
C802 C798 1.429 . S
C802 C803 1.523 . S
C803 C787 1.368 . S
C803 C799 1.368 . S
C803 C802 1.523 . S
H804 C779 0.950 . S
H805 C781 0.950 . S
H806 C782 0.949 . S
H807 C784 0.950 . S
H808 C786 0.950 . S
C809 C810 1.349 . S
C809 C811 1.327 . S
C809 H834 0.950 . S
C810 C809 1.349 . S
C810 C826 1.349 . S
C811 C809 1.327 . S
C811 C830 1.429 . S
C811 H835 0.950 . S
C812 C829 1.574 . S
C812 C831 1.368 . S
C812 H836 0.949 . S
H813 C817 0.949 . S
C814 C815 1.349 . S
C814 C816 1.327 . S
C814 H837 0.950 . S
C815 C814 1.349 . S
C815 C827 1.349 . S
C816 C814 1.327 . S
C816 C832 1.429 . S
C816 H838 0.950 . S
C817 H813 0.949 . S
C817 C825 1.574 . S
C817 C833 1.368 . S
H818 C826 0.950 . S
H819 C824 0.950 . S
H820 C825 0.949 . S
H821 C827 0.950 . S
H822 C828 0.950 . S
H823 C829 0.949 . S
C824 H819 0.950 . S
C824 C826 1.327 . S
C824 C830 1.429 . S
C825 C817 1.574 . S
C825 H820 0.949 . S
C825 C831 1.368 . S
C826 C810 1.349 . S
C826 H818 0.950 . S
C826 C824 1.327 . S
C827 C815 1.349 . S
C827 H821 0.950 . S
C827 C828 1.327 . S
C828 H822 0.950 . S
C828 C827 1.327 . S
C828 C832 1.429 . S
C829 C812 1.574 . S
C829 H823 0.949 . S
C829 C833 1.368 . S
C830 C811 1.429 . S
C830 C824 1.429 . S
C830 C831 1.523 . S
C831 C812 1.368 . S
C831 C825 1.368 . S
C831 C830 1.523 . S
C832 C816 1.429 . S
C832 C828 1.429 . S
C832 C833 1.523 . S
C833 C817 1.368 . S
C833 C829 1.368 . S
C833 C832 1.523 . S
H834 C809 0.950 . S
H835 C811 0.950 . S
H836 C812 0.949 . S
H837 C814 0.950 . S
H838 C816 0.950 . S
C839 C840 1.349 . S
C839 C841 1.327 . S
C839 H864 0.950 . S
C840 C839 1.349 . S
C840 C856 1.349 . S
C841 C839 1.327 . S
C841 C860 1.429 . S
C841 H865 0.950 . S
C842 C859 1.574 . S
C842 C861 1.368 . S
C842 H866 0.949 . S
H843 C847 0.949 . S
C844 C845 1.349 . S
C844 C846 1.327 . S
C844 H867 0.950 . S
C845 C844 1.349 . S
C845 C857 1.349 . S
C846 C844 1.327 . S
C846 C862 1.429 . S
C846 H868 0.950 . S
C847 H843 0.949 . S
C847 C855 1.574 . S
C847 C863 1.368 . S
H848 C856 0.950 . S
H849 C854 0.950 . S
H850 C855 0.949 . S
H851 C857 0.950 . S
H852 C858 0.950 . S
H853 C859 0.949 . S
C854 H849 0.950 . S
C854 C856 1.327 . S
C854 C860 1.429 . S
C855 C847 1.574 . S
C855 H850 0.949 . S
C855 C861 1.368 . S
C856 C840 1.349 . S
C856 H848 0.950 . S
C856 C854 1.327 . S
C857 C845 1.349 . S
C857 H851 0.950 . S
C857 C858 1.327 . S
C858 H852 0.950 . S
C858 C857 1.327 . S
C858 C862 1.429 . S
C859 C842 1.574 . S
C859 H853 0.949 . S
C859 C863 1.368 . S
C860 C841 1.429 . S
C860 C854 1.429 . S
C860 C861 1.523 . S
C861 C842 1.368 . S
C861 C855 1.368 . S
C861 C860 1.523 . S
C862 C846 1.429 . S
C862 C858 1.429 . S
C862 C863 1.523 . S
C863 C847 1.368 . S
C863 C859 1.368 . S
C863 C862 1.523 . S
H864 C839 0.950 . S
H865 C841 0.950 . S
H866 C842 0.949 . S
H867 C844 0.950 . S
H868 C846 0.950 . S
C869 C870 1.349 . S
C869 C871 1.327 . S
C869 H894 0.950 . S
C870 C869 1.349 . S
C870 C886 1.349 . S
C871 C869 1.327 . S
C871 C890 1.429 . S
C871 H895 0.950 . S
C872 C889 1.574 . S
C872 C891 1.368 . S
C872 H896 0.949 . S
H873 C877 0.949 . S
C874 C875 1.349 . S
C874 C876 1.327 . S
C874 H897 0.950 . S
C875 C874 1.349 . S
C875 C887 1.349 . S
C876 C874 1.327 . S
C876 C892 1.429 . S
C876 H898 0.950 . S
C877 H873 0.949 . S
C877 C885 1.574 . S
C877 C893 1.368 . S
H878 C886 0.950 . S
H879 C884 0.950 . S
H880 C885 0.949 . S
H881 C887 0.950 . S
H882 C888 0.950 . S
H883 C889 0.949 . S
C884 H879 0.950 . S
C884 C886 1.327 . S
C884 C890 1.429 . S
C885 C877 1.574 . S
C885 H880 0.949 . S
C885 C891 1.368 . S
C886 C870 1.349 . S
C886 H878 0.950 . S
C886 C884 1.327 . S
C887 C875 1.349 . S
C887 H881 0.950 . S
C887 C888 1.327 . S
C888 H882 0.950 . S
C888 C887 1.327 . S
C888 C892 1.429 . S
C889 C872 1.574 . S
C889 H883 0.949 . S
C889 C893 1.368 . S
C890 C871 1.429 . S
C890 C884 1.429 . S
C890 C891 1.523 . S
C891 C872 1.368 . S
C891 C885 1.368 . S
C891 C890 1.523 . S
C892 C876 1.429 . S
C892 C888 1.429 . S
C892 C893 1.523 . S
C893 C877 1.368 . S
C893 C889 1.368 . S
C893 C892 1.523 . S
H894 C869 0.950 . S
H895 C871 0.950 . S
H896 C872 0.949 . S
H897 C874 0.950 . S
H898 C876 0.950 . S
C899 C900 1.349 . S
C899 C901 1.327 . S
C899 H924 0.950 . S
C900 C899 1.349 . S
C900 C916 1.349 . S
C901 C899 1.327 . S
C901 C920 1.429 . S
C901 H925 0.950 . S
C902 C919 1.574 . S
C902 C921 1.368 . S
C902 H926 0.949 . S
H903 C907 0.949 . S
C904 C905 1.349 . S
C904 C906 1.327 . S
C904 H927 0.950 . S
C905 C904 1.349 . S
C905 C917 1.349 . S
C906 C904 1.327 . S
C906 C922 1.429 . S
C906 H928 0.950 . S
C907 H903 0.949 . S
C907 C915 1.574 . S
C907 C923 1.368 . S
H908 C916 0.950 . S
H909 C914 0.950 . S
H910 C915 0.949 . S
H911 C917 0.950 . S
H912 C918 0.950 . S
H913 C919 0.949 . S
C914 H909 0.950 . S
C914 C916 1.327 . S
C914 C920 1.429 . S
C915 C907 1.574 . S
C915 H910 0.949 . S
C915 C921 1.368 . S
C916 C900 1.349 . S
C916 H908 0.950 . S
C916 C914 1.327 . S
C917 C905 1.349 . S
C917 H911 0.950 . S
C917 C918 1.327 . S
C918 H912 0.950 . S
C918 C917 1.327 . S
C918 C922 1.429 . S
C919 C902 1.574 . S
C919 H913 0.949 . S
C919 C923 1.368 . S
C920 C901 1.429 . S
C920 C914 1.429 . S
C920 C921 1.523 . S
C921 C902 1.368 . S
C921 C915 1.368 . S
C921 C920 1.523 . S
C922 C906 1.429 . S
C922 C918 1.429 . S
C922 C923 1.523 . S
C923 C907 1.368 . S
C923 C919 1.368 . S
C923 C922 1.523 . S
H924 C899 0.950 . S
H925 C901 0.950 . S
H926 C902 0.949 . S
H927 C904 0.950 . S
H928 C906 0.950 . S
C929 C930 1.349 . S
C929 C931 1.327 . S
C929 H954 0.950 . S
C930 C929 1.349 . S
C930 C946 1.349 . S
C931 C929 1.327 . S
C931 C950 1.429 . S
C931 H955 0.950 . S
C932 C949 1.574 . S
C932 C951 1.368 . S
C932 H956 0.949 . S
H933 C937 0.949 . S
C934 C935 1.349 . S
C934 C936 1.327 . S
C934 H957 0.950 . S
C935 C934 1.349 . S
C935 C947 1.349 . S
C936 C934 1.327 . S
C936 C952 1.429 . S
C936 H958 0.950 . S
C937 H933 0.949 . S
C937 C945 1.574 . S
C937 C953 1.368 . S
H938 C946 0.950 . S
H939 C944 0.950 . S
H940 C945 0.949 . S
H941 C947 0.950 . S
H942 C948 0.950 . S
H943 C949 0.949 . S
C944 H939 0.950 . S
C944 C946 1.327 . S
C944 C950 1.429 . S
C945 C937 1.574 . S
C945 H940 0.949 . S
C945 C951 1.368 . S
C946 C930 1.349 . S
C946 H938 0.950 . S
C946 C944 1.327 . S
C947 C935 1.349 . S
C947 H941 0.950 . S
C947 C948 1.327 . S
C948 H942 0.950 . S
C948 C947 1.327 . S
C948 C952 1.429 . S
C949 C932 1.574 . S
C949 H943 0.949 . S
C949 C953 1.368 . S
C950 C931 1.429 . S
C950 C944 1.429 . S
C950 C951 1.523 . S
C951 C932 1.368 . S
C951 C945 1.368 . S
C951 C950 1.523 . S
C952 C936 1.429 . S
C952 C948 1.429 . S
C952 C953 1.523 . S
C953 C937 1.368 . S
C953 C949 1.368 . S
C953 C952 1.523 . S
H954 C929 0.950 . S
H955 C931 0.950 . S
H956 C932 0.949 . S
H957 C934 0.950 . S
H958 C936 0.950 . S
C959 C960 1.349 . S
C959 C961 1.327 . S
C959 H984 0.950 . S
C960 C959 1.349 . S
C960 C976 1.349 . S
C961 C959 1.327 . S
C961 C980 1.429 . S
C961 H985 0.950 . S
C962 C979 1.574 . S
C962 C981 1.368 . S
C962 H986 0.949 . S
H963 C967 0.949 . S
C964 C965 1.349 . S
C964 C966 1.327 . S
C964 H987 0.950 . S
C965 C964 1.349 . S
C965 C977 1.349 . S
C966 C964 1.327 . S
C966 C982 1.429 . S
C966 H988 0.950 . S
C967 H963 0.949 . S
C967 C975 1.574 . S
C967 C983 1.368 . S
H968 C976 0.950 . S
H969 C974 0.950 . S
H970 C975 0.949 . S
H971 C977 0.950 . S
H972 C978 0.950 . S
H973 C979 0.949 . S
C974 H969 0.950 . S
C974 C976 1.327 . S
C974 C980 1.429 . S
C975 C967 1.574 . S
C975 H970 0.949 . S
C975 C981 1.368 . S
C976 C960 1.349 . S
C976 H968 0.950 . S
C976 C974 1.327 . S
C977 C965 1.349 . S
C977 H971 0.950 . S
C977 C978 1.327 . S
C978 H972 0.950 . S
C978 C977 1.327 . S
C978 C982 1.429 . S
C979 C962 1.574 . S
C979 H973 0.949 . S
C979 C983 1.368 . S
C980 C961 1.429 . S
C980 C974 1.429 . S
C980 C981 1.523 . S
C981 C962 1.368 . S
C981 C975 1.368 . S
C981 C980 1.523 . S
C982 C966 1.429 . S
C982 C978 1.429 . S
C982 C983 1.523 . S
C983 C967 1.368 . S
C983 C979 1.368 . S
C983 C982 1.523 . S
H984 C959 0.950 . S
H985 C961 0.950 . S
H986 C962 0.949 . S
H987 C964 0.950 . S
H988 C966 0.950 . S
C989 C990 1.349 . S
C989 C991 1.327 . S
C989 H1014 0.950 . S
C990 C989 1.349 . S
C990 C1006 1.349 . S
C991 C989 1.327 . S
C991 C1010 1.429 . S
C991 H1015 0.950 . S
C992 C1009 1.574 . S
C992 C1011 1.368 . S
C992 H1016 0.949 . S
H993 C997 0.949 . S
C994 C995 1.349 . S
C994 C996 1.327 . S
C994 H1017 0.950 . S
C995 C994 1.349 . S
C995 C1007 1.349 . S
C996 C994 1.327 . S
C996 C1012 1.429 . S
C996 H1018 0.950 . S
C997 H993 0.949 . S
C997 C1005 1.574 . S
C997 C1013 1.368 . S
H998 C1006 0.950 . S
H999 C1004 0.950 . S
H1000 C1005 0.949 . S
H1001 C1007 0.950 . S
H1002 C1008 0.950 . S
H1003 C1009 0.949 . S
C1004 H999 0.950 . S
C1004 C1006 1.327 . S
C1004 C1010 1.429 . S
C1005 C997 1.574 . S
C1005 H1000 0.949 . S
C1005 C1011 1.368 . S
C1006 C990 1.349 . S
C1006 H998 0.950 . S
C1006 C1004 1.327 . S
C1007 C995 1.349 . S
C1007 H1001 0.950 . S
C1007 C1008 1.327 . S
C1008 H1002 0.950 . S
C1008 C1007 1.327 . S
C1008 C1012 1.429 . S
C1009 C992 1.574 . S
C1009 H1003 0.949 . S
C1009 C1013 1.368 . S
C1010 C991 1.429 . S
C1010 C1004 1.429 . S
C1010 C1011 1.523 . S
C1011 C992 1.368 . S
C1011 C1005 1.368 . S
C1011 C1010 1.523 . S
C1012 C996 1.429 . S
C1012 C1008 1.429 . S
C1012 C1013 1.523 . S
C1013 C997 1.368 . S
C1013 C1009 1.368 . S
C1013 C1012 1.523 . S
H1014 C989 0.950 . S
H1015 C991 0.950 . S
H1016 C992 0.949 . S
H1017 C994 0.950 . S
H1018 C996 0.950 . S
C1019 C1020 1.349 . S
C1019 C1021 1.327 . S
C1019 H1044 0.950 . S
C1020 C1019 1.349 . S
C1020 C1036 1.349 . S
C1021 C1019 1.327 . S
C1021 C1040 1.429 . S
C1021 H1045 0.950 . S
C1022 C1039 1.574 . S
C1022 C1041 1.368 . S
C1022 H1046 0.949 . S
H1023 C1027 0.949 . S
C1024 C1025 1.349 . S
C1024 C1026 1.327 . S
C1024 H1047 0.950 . S
C1025 C1024 1.349 . S
C1025 C1037 1.349 . S
C1026 C1024 1.327 . S
C1026 C1042 1.429 . S
C1026 H1048 0.950 . S
C1027 H1023 0.949 . S
C1027 C1035 1.574 . S
C1027 C1043 1.368 . S
H1028 C1036 0.950 . S
H1029 C1034 0.950 . S
H1030 C1035 0.949 . S
H1031 C1037 0.950 . S
H1032 C1038 0.950 . S
H1033 C1039 0.949 . S
C1034 H1029 0.950 . S
C1034 C1036 1.327 . S
C1034 C1040 1.429 . S
C1035 C1027 1.574 . S
C1035 H1030 0.949 . S
C1035 C1041 1.368 . S
C1036 C1020 1.349 . S
C1036 H1028 0.950 . S
C1036 C1034 1.327 . S
C1037 C1025 1.349 . S
C1037 H1031 0.950 . S
C1037 C1038 1.327 . S
C1038 H1032 0.950 . S
C1038 C1037 1.327 . S
C1038 C1042 1.429 . S
C1039 C1022 1.574 . S
C1039 H1033 0.949 . S
C1039 C1043 1.368 . S
C1040 C1021 1.429 . S
C1040 C1034 1.429 . S
C1040 C1041 1.523 . S
C1041 C1022 1.368 . S
C1041 C1035 1.368 . S
C1041 C1040 1.523 . S
C1042 C1026 1.429 . S
C1042 C1038 1.429 . S
C1042 C1043 1.523 . S
C1043 C1027 1.368 . S
C1043 C1039 1.368 . S
C1043 C1042 1.523 . S
H1044 C1019 0.950 . S
H1045 C1021 0.950 . S
H1046 C1022 0.949 . S
H1047 C1024 0.950 . S
H1048 C1026 0.950 . S
C1049 C1050 1.349 . S
C1049 C1051 1.327 . S
C1049 H1074 0.950 . S
C1050 C1049 1.349 . S
C1050 C1066 1.349 . S
C1051 C1049 1.327 . S
C1051 C1070 1.429 . S
C1051 H1075 0.950 . S
C1052 C1069 1.574 . S
C1052 C1071 1.368 . S
C1052 H1076 0.949 . S
H1053 C1057 0.949 . S
C1054 C1055 1.349 . S
C1054 C1056 1.327 . S
C1054 H1077 0.950 . S
C1055 C1054 1.349 . S
C1055 C1067 1.349 . S
C1056 C1054 1.327 . S
C1056 C1072 1.429 . S
C1056 H1078 0.950 . S
C1057 H1053 0.949 . S
C1057 C1065 1.574 . S
C1057 C1073 1.368 . S
H1058 C1066 0.950 . S
H1059 C1064 0.950 . S
H1060 C1065 0.949 . S
H1061 C1067 0.950 . S
H1062 C1068 0.950 . S
H1063 C1069 0.949 . S
C1064 H1059 0.950 . S
C1064 C1066 1.327 . S
C1064 C1070 1.429 . S
C1065 C1057 1.574 . S
C1065 H1060 0.949 . S
C1065 C1071 1.368 . S
C1066 C1050 1.349 . S
C1066 H1058 0.950 . S
C1066 C1064 1.327 . S
C1067 C1055 1.349 . S
C1067 H1061 0.950 . S
C1067 C1068 1.327 . S
C1068 H1062 0.950 . S
C1068 C1067 1.327 . S
C1068 C1072 1.429 . S
C1069 C1052 1.574 . S
C1069 H1063 0.949 . S
C1069 C1073 1.368 . S
C1070 C1051 1.429 . S
C1070 C1064 1.429 . S
C1070 C1071 1.523 . S
C1071 C1052 1.368 . S
C1071 C1065 1.368 . S
C1071 C1070 1.523 . S
C1072 C1056 1.429 . S
C1072 C1068 1.429 . S
C1072 C1073 1.523 . S
C1073 C1057 1.368 . S
C1073 C1069 1.368 . S
C1073 C1072 1.523 . S
H1074 C1049 0.950 . S
H1075 C1051 0.950 . S
H1076 C1052 0.949 . S
H1077 C1054 0.950 . S
H1078 C1056 0.950 . S
C1079 C1080 1.349 . S
C1079 C1081 1.327 . S
C1079 H1104 0.950 . S
C1080 C1079 1.349 . S
C1080 C1096 1.349 . S
C1081 C1079 1.327 . S
C1081 C1100 1.429 . S
C1081 H1105 0.950 . S
C1082 C1099 1.574 . S
C1082 C1101 1.368 . S
C1082 H1106 0.949 . S
H1083 C1087 0.949 . S
C1084 C1085 1.349 . S
C1084 C1086 1.327 . S
C1084 H1107 0.950 . S
C1085 C1084 1.349 . S
C1085 C1097 1.349 . S
C1086 C1084 1.327 . S
C1086 C1102 1.429 . S
C1086 H1108 0.950 . S
C1087 H1083 0.949 . S
C1087 C1095 1.574 . S
C1087 C1103 1.368 . S
H1088 C1096 0.950 . S
H1089 C1094 0.950 . S
H1090 C1095 0.949 . S
H1091 C1097 0.950 . S
H1092 C1098 0.950 . S
H1093 C1099 0.949 . S
C1094 H1089 0.950 . S
C1094 C1096 1.327 . S
C1094 C1100 1.429 . S
C1095 C1087 1.574 . S
C1095 H1090 0.949 . S
C1095 C1101 1.368 . S
C1096 C1080 1.349 . S
C1096 H1088 0.950 . S
C1096 C1094 1.327 . S
C1097 C1085 1.349 . S
C1097 H1091 0.950 . S
C1097 C1098 1.327 . S
C1098 H1092 0.950 . S
C1098 C1097 1.327 . S
C1098 C1102 1.429 . S
C1099 C1082 1.574 . S
C1099 H1093 0.949 . S
C1099 C1103 1.368 . S
C1100 C1081 1.429 . S
C1100 C1094 1.429 . S
C1100 C1101 1.523 . S
C1101 C1082 1.368 . S
C1101 C1095 1.368 . S
C1101 C1100 1.523 . S
C1102 C1086 1.429 . S
C1102 C1098 1.429 . S
C1102 C1103 1.523 . S
C1103 C1087 1.368 . S
C1103 C1099 1.368 . S
C1103 C1102 1.523 . S
H1104 C1079 0.950 . S
H1105 C1081 0.950 . S
H1106 C1082 0.949 . S
H1107 C1084 0.950 . S
H1108 C1086 0.950 . S
C1109 C1110 1.349 . S
C1109 C1111 1.327 . S
C1109 H1134 0.950 . S
C1110 C1109 1.349 . S
C1110 C1126 1.349 . S
C1111 C1109 1.327 . S
C1111 C1130 1.429 . S
C1111 H1135 0.950 . S
C1112 C1129 1.574 . S
C1112 C1131 1.368 . S
C1112 H1136 0.949 . S
H1113 C1117 0.949 . S
C1114 C1115 1.349 . S
C1114 C1116 1.327 . S
C1114 H1137 0.950 . S
C1115 C1114 1.349 . S
C1115 C1127 1.349 . S
C1116 C1114 1.327 . S
C1116 C1132 1.429 . S
C1116 H1138 0.950 . S
C1117 H1113 0.949 . S
C1117 C1125 1.574 . S
C1117 C1133 1.368 . S
H1118 C1126 0.950 . S
H1119 C1124 0.950 . S
H1120 C1125 0.949 . S
H1121 C1127 0.950 . S
H1122 C1128 0.950 . S
H1123 C1129 0.949 . S
C1124 H1119 0.950 . S
C1124 C1126 1.327 . S
C1124 C1130 1.429 . S
C1125 C1117 1.574 . S
C1125 H1120 0.949 . S
C1125 C1131 1.368 . S
C1126 C1110 1.349 . S
C1126 H1118 0.950 . S
C1126 C1124 1.327 . S
C1127 C1115 1.349 . S
C1127 H1121 0.950 . S
C1127 C1128 1.327 . S
C1128 H1122 0.950 . S
C1128 C1127 1.327 . S
C1128 C1132 1.429 . S
C1129 C1112 1.574 . S
C1129 H1123 0.949 . S
C1129 C1133 1.368 . S
C1130 C1111 1.429 . S
C1130 C1124 1.429 . S
C1130 C1131 1.523 . S
C1131 C1112 1.368 . S
C1131 C1125 1.368 . S
C1131 C1130 1.523 . S
C1132 C1116 1.429 . S
C1132 C1128 1.429 . S
C1132 C1133 1.523 . S
C1133 C1117 1.368 . S
C1133 C1129 1.368 . S
C1133 C1132 1.523 . S
H1134 C1109 0.950 . S
H1135 C1111 0.950 . S
H1136 C1112 0.949 . S
H1137 C1114 0.950 . S
H1138 C1116 0.950 . S
C425 C344 0.984 . S
C420 C15 1.019 . S
C455 C380 1.602 . S
C450 C55 1.689 . S
C485 C345 1.450 . S
C480 C101 1.464 . S
C515 C375 1.583 . S
C510 C141 1.587 . S
C545 C342 1.412 . S
C540 C162 1.473 . S
C570 C215 1.766 . S
C575 C378 1.771 . S
C600 C261 1.109 . S
C605 C347 1.052 . S
C635 C377 1.412 . S
C630 C282 1.431 . S
C665 C381 1.463 . S
C660 C2 1.503 . S
C695 C346 1.448 . S
C690 C61 1.458 . S
C725 C374 1.765 . S
C720 C95 1.756 . S
C755 C343 1.012 . S
C750 C122 1.064 . S
C785 C376 1.654 . S
C780 C181 1.765 . S
C810 C202 1.474 . S
C815 C341 1.458 . S
C840 C242 1.543 . S
C845 C379 1.550 . S
C875 C348 0.923 . S
C870 C295 0.951 . S
C905 C410 1.837 . S
C900 C21 1.938 . S
C930 C175 1.974 . S
C935 C413 1.859 . S
C965 C412 1.828 . S
C960 C221 1.905 . S
C990 C255 2.185 . S
C995 C411 2.181 . S
C1025 C414 1.790 . S
C1020 C301 1.865 . S
C1050 C82 1.788 . S
C1055 C408 1.718 . S
C1085 C407 2.203 . S
C1080 C135 2.209 . S
C1110 C42 1.955 . S
C1115 C409 1.900 . S
