# Generated by pormake.
# Topology pth, (4,4)-cn, num edge types: 1
# Building blocks:
#     Node 0, Type 0, BuildingBlock: AZAVOO_clean_sbu_0, # of connection points: 4
#     Node 1, Type 0, BuildingBlock: AZAVOO_clean_sbu_0, # of connection points: 4
#     Node 2, Type 0, BuildingBlock: AZAVOO_clean_sbu_0, # of connection points: 4
#     Node 3, Type 1, BuildingBlock: MUDLON_clean_sbu_0, # of connection points: 4
#     Node 4, Type 1, BuildingBlock: MUDLON_clean_sbu_0, # of connection points: 4
#     Node 5, Type 1, BuildingBlock: MUDLON_clean_sbu_0, # of connection points: 4
#     Edge 6, Type (0, 1), BuildingBlock: XUDNAN_clean_linker_2, # of connection points: 2
#     Edge 7, Type (0, 1), BuildingBlock: XUDNAN_clean_linker_2, # of connection points: 2
#     Edge 8, Type (0, 1), BuildingBlock: XUDNAN_clean_linker_2, # of connection points: 2
#     Edge 9, Type (0, 1), BuildingBlock: XUDNAN_clean_linker_2, # of connection points: 2
#     Edge 10, Type (0, 1), BuildingBlock: XUDNAN_clean_linker_2, # of connection points: 2
#     Edge 11, Type (0, 1), BuildingBlock: XUDNAN_clean_linker_2, # of connection points: 2
#     Edge 12, Type (0, 1), BuildingBlock: XUDNAN_clean_linker_2, # of connection points: 2
#     Edge 13, Type (0, 1), BuildingBlock: XUDNAN_clean_linker_2, # of connection points: 2
#     Edge 14, Type (0, 1), BuildingBlock: XUDNAN_clean_linker_2, # of connection points: 2
#     Edge 15, Type (0, 1), BuildingBlock: XUDNAN_clean_linker_2, # of connection points: 2
#     Edge 16, Type (0, 1), BuildingBlock: XUDNAN_clean_linker_2, # of connection points: 2
#     Edge 17, Type (0, 1), BuildingBlock: XUDNAN_clean_linker_2, # of connection points: 2
# Relax obj value: 0.104
# Max RMSD: 0.230
# Mean RMSD: 0.137
data_MOF--net-pth--node1-AZAVOO_clean_sbu_0--node2-MUDLON_clean_sbu_0--edge1-XUDNAN_clean_linker_2
_symmetry_space_group_name_H-M    P1
_symmetry_Int_Tables_number       1
_symmetry_cell_setting            triclinic
loop_
_symmetry_equiv_pos_as_xyz
'x, y, z'
_cell_length_a     22.492693
_cell_length_b     23.064781
_cell_length_c     59.354609
_cell_angle_alpha  91.037848
_cell_angle_beta   93.158937
_cell_angle_gamma 122.25763
loop_
_atom_site_label
_atom_site_type_symbol
_atom_site_fract_x
_atom_site_fract_y
_atom_site_fract_z
_atom_type_partial_charge
Mg0 Mg 0.13545 0.1108 0.09025 0.0
O1 O 0.03569 0.05307 0.06548 0.0
O2 O 0.0342 0.13413 0.04572 0.0
Mg3 Mg 0.13149 0.23972 0.05671 0.0
C4 C 1.00702 0.07134 0.05034 0.0
C5 C 0.11262 0.97394 0.10928 0.0
O6 O 0.13856 0.97111 0.0903 0.0
O7 O 0.0813 0.14979 0.11127 0.0
O8 O 0.08615 0.23335 0.09141 0.0
O9 O 0.19818 0.09895 0.06501 0.0
O10 O 0.18537 0.18736 0.06762 0.0
C11 C 0.0696 0.19777 0.1089 0.0
C12 C 0.20974 0.1558 0.05715 0.0
O13 O 0.09987 0.02069 0.11275 0.0
Mg14 Mg 0.96969 0.04018 0.41423 0.0
O15 O 0.06542 0.08444 0.44068 0.0
O16 O 0.06613 0.16623 0.46176 0.0
Mg17 Mg 0.97354 0.17475 0.44922 0.0
C18 C 0.0927 0.13107 0.45677 0.0
C19 C 0.98766 0.96469 0.37367 0.0
O20 O 0.95454 0.99039 0.3632 0.0
O21 O 0.03032 0.1361 0.39391 0.0
O22 O 0.02823 0.2141 0.41627 0.0
O23 O 0.89997 0.96454 0.43838 0.0
O24 O 0.91736 0.06777 0.43576 0.0
C25 C 0.04583 0.19732 0.39834 0.0
C26 C 0.88882 0.01081 0.44576 0.0
O27 O 1.0064 0.9802 0.39463 0.0
Mg28 Mg 1.00128 0.00573 0.74942 0.0
O29 O 0.06315 0.10144 0.77452 0.0
O30 O 0.98347 0.0945 0.79721 0.0
Mg31 Mg 0.87546 0.99831 0.78765 0.0
C32 C 0.04628 0.12519 0.791 0.0
C33 C 0.13747 0.03307 0.72757 0.0
O34 O 0.14323 0.0056 0.7461 0.0
O35 O 0.95076 0.05641 0.73057 0.0
O36 O 0.87302 0.04742 0.75442 0.0
O37 O 0.02239 0.94353 0.77326 0.0
O38 O 0.92921 0.95207 0.77313 0.0
C39 C 0.90216 0.06603 0.73578 0.0
C40 C 0.96505 0.92872 0.78221 0.0
O41 O 0.08886 0.04554 0.72513 0.0
Mg42 Mg 0.06973 0.56332 0.25318 0.0
C43 C 0.13655 0.48798 0.27345 0.0
O44 O 0.11314 0.45237 0.25399 0.0
C45 C 0.12452 0.65589 0.21417 0.0
O46 O 0.09688 0.59658 0.20281 0.0
C47 C 0.97452 0.41642 0.23105 0.0
O48 O 0.96004 0.39779 0.25184 0.0
O49 O 0.01241 0.4799 0.22749 0.0
O50 O 0.13188 0.54018 0.27639 0.0
O51 O 0.00868 0.58402 0.27539 0.0
C52 C 0.99721 0.63128 0.27119 0.0
O53 O 0.0101 0.65756 0.25127 0.0
O54 O 0.12797 0.6575 0.23565 0.0
Mg55 Mg 0.54658 0.10331 0.58071 0.0
C56 C 0.47079 0.12258 0.54368 0.0
O57 O 0.45729 0.06006 0.54029 0.0
C58 C 0.68784 0.16097 0.60704 0.0
O59 O 0.70046 0.13784 0.58871 0.0
C60 C 0.4539 0.03773 0.61922 0.0
O61 O 0.5154 0.06346 0.63055 0.0
O62 O 0.45131 0.0388 0.59777 0.0
O63 O 0.51421 0.16016 0.56016 0.0
O64 O 0.57945 0.05404 0.55733 0.0
C65 C 0.59009 0.00617 0.56121 0.0
O66 O 0.57499 0.97719 0.58067 0.0
O67 O 0.63096 0.16036 0.60725 0.0
Mg68 Mg 0.56044 0.57069 0.91981 0.0
C69 C 0.45938 0.49745 0.88022 0.0
O70 O 0.51361 0.49338 0.87572 0.0
C71 C 0.63493 0.6691 0.95888 0.0
O72 O 0.64206 0.6176 0.9636 0.0
C73 C 0.50221 0.42626 0.93688 0.0
O74 O 0.49361 0.40721 0.91536 0.0
O75 O 0.5338 0.4897 0.94282 0.0
O76 O 0.46423 0.53206 0.89797 0.0
O77 O 0.64341 0.599 0.89731 0.0
C78 C 0.70906 0.631 0.90309 0.0
O79 O 0.73077 0.63988 0.92459 0.0
O80 O 0.59775 0.66359 0.94102 0.0
H81 H 0.06729 0.3145 0.1162 0.0
H82 H 1.00007 0.11699 0.14347 0.0
H83 H 0.9527 0.14571 0.17537 0.0
H84 H 0.1287 0.40858 0.16778 0.0
H85 H 0.10119 0.46707 0.16097 0.0
H86 H 0.12085 0.42716 0.13878 0.0
H87 H 0.99658 0.37935 0.11887 0.0
H88 H 0.97649 0.41899 0.14114 0.0
H89 H 0.91963 0.32809 0.13421 0.0
H90 H 0.92273 0.20007 0.20615 0.0
H91 H 0.91962 0.27842 0.23429 0.0
H92 H 1.00699 0.44048 0.18703 0.0
C93 C 0.04125 0.27664 0.1286 0.0
C94 C 0.03706 0.21331 0.12722 0.0
C95 C 1.00391 0.16585 0.14412 0.0
C96 C 0.9764 0.1815 0.16225 0.0
C97 C 0.98229 0.24478 0.16327 0.0
C98 C 0.01401 0.29166 0.14691 0.0
C99 C 0.01966 0.35854 0.15303 0.0
C100 C 0.09719 0.41885 0.15528 0.0
C101 C 0.97544 0.37201 0.13579 0.0
C102 C 0.98811 0.34269 0.1757 0.0
C103 C 0.96573 0.27643 0.18115 0.0
C104 C 0.93916 0.25176 0.20193 0.0
C105 C 0.93742 0.29663 0.21781 0.0
C106 C 0.9628 0.36559 0.21289 0.0
C107 C 0.98645 0.38791 0.19127 0.0
H108 H 0.83552 0.0867 0.45967 0.0
H109 H 0.84213 0.90688 0.47497 0.0
H110 H 0.76466 0.88421 0.50601 0.0
H111 H 0.83592 0.14087 0.51707 0.0
H112 H 0.77608 0.16821 0.50979 0.0
H113 H 0.83359 0.17069 0.48937 0.0
H114 H 0.72531 0.09527 0.46094 0.0
H115 H 0.66742 0.09203 0.48135 0.0
H116 H 0.65413 0.0135 0.46911 0.0
H117 H 0.6864 0.88219 0.53577 0.0
H118 H 0.61411 0.90096 0.56137 0.0
H119 H 0.65621 0.07929 0.52506 0.0
C120 C 0.82128 0.04291 0.46967 0.0
C121 C 0.84521 0.9988 0.465 0.0
C122 C 0.82451 0.94147 0.47829 0.0
C123 C 0.7805 0.92815 0.49594 0.0
C124 C 0.75725 0.97234 0.49995 0.0
C125 C 0.77693 0.02851 0.48715 0.0
C126 C 0.74384 0.06743 0.49454 0.0
C127 C 0.80075 0.14115 0.50321 0.0
C128 C 0.69476 0.06699 0.47534 0.0
C129 C 0.70254 0.02454 0.51354 0.0
C130 C 0.71103 0.97006 0.51652 0.0
C131 C 0.67912 0.92452 0.53351 0.0
C132 C 0.63808 0.93548 0.54793 0.0
C133 C 0.62895 0.9912 0.54514 0.0
C134 C 0.66129 0.03568 0.52753 0.0
H135 H 0.83135 0.85431 0.79542 0.0
H136 H 0.04447 0.90622 0.81332 0.0
H137 H 1.00242 0.83225 0.84591 0.0
H138 H 0.77832 0.84826 0.85146 0.0
H139 H 0.68993 0.77603 0.84446 0.0
H140 H 0.73806 0.8343 0.82314 0.0
H141 H 0.71834 0.73213 0.79762 0.0
H142 H 0.67073 0.67362 0.81897 0.0
H143 H 0.74599 0.67688 0.80839 0.0
H144 H 0.93612 0.75594 0.87779 0.0
H145 H 0.85097 0.68064 0.90488 0.0
H146 H 0.68149 0.67294 0.86352 0.0
C147 C 0.8693 0.85052 0.80628 0.0
C148 C 0.94121 0.88638 0.80204 0.0
C149 C 0.9891 0.87921 0.81638 0.0
C150 C 0.9657 0.83735 0.83489 0.0
C151 C 0.89414 0.8022 0.83852 0.0
C152 C 0.84666 0.80801 0.82446 0.0
C153 C 0.77239 0.76391 0.83158 0.0
C154 C 0.74298 0.80828 0.83805 0.0
C155 C 0.72404 0.70834 0.81303 0.0
C156 C 0.78538 0.73286 0.85201 0.0
C157 C 0.8559 0.75579 0.85592 0.0
C158 C 0.88064 0.73692 0.8747 0.0
C159 C 0.83202 0.69414 0.88996 0.0
C160 C 0.75957 0.67001 0.8861 0.0
C161 C 0.73625 0.68911 0.86668 0.0
H162 H 0.11505 0.85599 0.10704 0.0
H163 H 0.10784 0.99798 0.15416 0.0
H164 H 0.11882 0.93657 0.18607 0.0
H165 H 0.01045 0.70494 0.13878 0.0
H166 H 0.05975 0.66702 0.13161 0.0
H167 H 0.05213 0.72289 0.11251 0.0
H168 H 0.18838 0.79918 0.11318 0.0
H169 H 0.1964 0.74417 0.1326 0.0
H170 H 0.23971 0.83478 0.13984 0.0
H171 H 0.13643 0.86376 0.21292 0.0
H172 H 0.14021 0.77299 0.23294 0.0
H173 H 0.1298 0.67419 0.16856 0.0
C174 C 0.11527 0.87381 0.12407 0.0
C175 C 0.11086 0.93195 0.1281 0.0
C176 C 0.11085 0.95342 0.15063 0.0
C177 C 0.11767 0.91923 0.1689 0.0
C178 C 0.12356 0.86315 0.16437 0.0
C179 C 0.12093 0.83961 0.14254 0.0
C180 C 0.12528 0.77624 0.14238 0.0
C181 C 0.05789 0.7141 0.13063 0.0
C182 C 0.19139 0.78942 0.13135 0.0
C183 C 0.13097 0.76807 0.16754 0.0
C184 C 0.13101 0.81942 0.17991 0.0
C185 C 0.13606 0.82304 0.20344 0.0
C186 C 0.13869 0.77142 0.21466 0.0
C187 C 0.13516 0.71631 0.20233 0.0
C188 C 0.13271 0.71564 0.17847 0.0
H189 H 0.1538 0.0545 0.45744 0.0
H190 H 0.17834 0.24091 0.48653 0.0
H191 H 0.28438 0.26467 0.50953 0.0
H192 H 0.2008 0.00497 0.50786 0.0
H193 H 0.24681 0.97111 0.49441 0.0
H194 H 0.1763 0.97184 0.47885 0.0
H195 H 0.26028 0.0402 0.44797 0.0
H196 H 0.33123 0.03992 0.46353 0.0
H197 H 0.342 0.12007 0.45585 0.0
H198 H 0.38468 0.26533 0.53097 0.0
H199 H 0.4672 0.23906 0.55034 0.0
H200 H 0.3765 0.05236 0.50742 0.0
C201 C 0.1819 0.10076 0.46843 0.0
C202 C 0.15762 0.14584 0.47008 0.0
C203 C 0.19563 0.20539 0.48494 0.0
C204 C 0.25625 0.21962 0.49802 0.0
C205 C 0.27846 0.17392 0.4961 0.0
C206 C 0.24236 0.1156 0.48172 0.0
C207 C 0.27481 0.07272 0.48381 0.0
C208 C 0.22151 1.00094 0.49171 0.0
C209 C 0.30381 0.06798 0.46146 0.0
C210 C 0.3339 0.11537 0.50189 0.0
C211 C 0.33575 0.17398 0.50859 0.0
C212 C 0.38413 0.21985 0.52573 0.0
C213 C 0.43092 0.20463 0.53661 0.0
C214 C 0.42849 0.14379 0.5304 0.0
C215 C 0.38009 0.09952 0.51251 0.0
H216 H 0.1912 0.19116 0.79192 0.0
H217 H 0.02398 0.20523 0.81934 0.0
H218 H 0.11232 0.3085 0.84263 0.0
H219 H 0.29666 0.23616 0.84291 0.0
H220 H 0.37968 0.28508 0.83037 0.0
H221 H 0.30386 0.21633 0.81405 0.0
H222 H 0.31802 0.30037 0.78332 0.0
H223 H 0.394 0.36949 0.79959 0.0
H224 H 0.32069 0.37766 0.79117 0.0
H225 H 0.21786 0.40517 0.86518 0.0
H226 H 0.33319 0.48639 0.88579 0.0
H227 H 0.43164 0.40974 0.84384 0.0
C228 C 0.17324 0.21667 0.80251 0.0
C229 C 0.10054 0.18999 0.80372 0.0
C230 C 0.0793 0.2244 0.81812 0.0
C231 C 0.12912 0.28342 0.83137 0.0
C232 C 0.20022 0.30775 0.83007 0.0
C233 C 0.22237 0.27559 0.816 0.0
C234 C 0.30169 0.30966 0.81892 0.0
C235 C 0.32161 0.25878 0.82705 0.0
C236 C 0.33559 0.34117 0.79694 0.0
C237 C 0.3203 0.3649 0.83713 0.0
C238 C 0.26114 0.36344 0.84318 0.0
C239 C 0.26475 0.40737 0.86043 0.0
C240 C 0.33048 0.45336 0.87204 0.0
C241 C 0.39157 0.45476 0.86641 0.0
C242 C 0.38617 0.41056 0.84846 0.0
H243 H 0.91586 0.07604 0.69 0.0
H244 H 0.83036 0.1277 0.74518 0.0
H245 H 0.78046 0.17377 0.71827 0.0
H246 H 0.9546 0.22337 0.65508 0.0
H247 H 0.9275 0.17122 0.62907 0.0
H248 H 0.96546 0.15151 0.65296 0.0
H249 H 0.8554 0.02757 0.65119 0.0
H250 H 0.81737 0.04683 0.62732 0.0
H251 H 0.76919 0.01477 0.65213 0.0
H252 H 0.72898 0.20252 0.68526 0.0
H253 H 0.67498 0.20633 0.64844 0.0
H254 H 0.79313 0.13574 0.61454 0.0
C255 C 0.88812 0.09858 0.69648 0.0
C256 C 0.87739 0.09859 0.71973 0.0
C257 C 0.83929 0.12708 0.72745 0.0
C258 C 0.81112 0.15383 0.71231 0.0
C259 C 0.82149 0.1519 0.68946 0.0
C260 C 0.85906 0.125 0.68155 0.0
C261 C 0.8565 0.12272 0.65596 0.0
C262 C 0.93043 0.17004 0.64779 0.0
C263 C 0.82257 0.04858 0.64608 0.0
C264 C 0.80976 0.15042 0.65074 0.0
C265 C 0.79115 0.16806 0.67031 0.0
C266 C 0.74407 0.18994 0.6698 0.0
C267 C 0.71368 0.19199 0.64879 0.0
C268 C 0.73008 0.1718 0.62855 0.0
C269 C 0.78034 0.15267 0.62962 0.0
H270 H 0.94458 0.93092 0.04872 0.0
H271 H 0.9215 0.0919 0.02143 0.0
H272 H 0.81715 0.00522 0.9973 0.0
H273 H 0.90275 0.83414 0.99755 0.0
H274 H 0.85554 0.7517 0.00977 0.0
H275 H 0.92418 0.82556 0.02651 0.0
H276 H 0.83654 0.80483 0.05661 0.0
H277 H 0.76751 0.73076 0.03992 0.0
H278 H 0.75515 0.79897 0.04822 0.0
H279 H 0.72038 0.90182 0.97391 0.0
H280 H 0.64037 0.78993 0.95296 0.0
H281 H 0.72664 0.69719 0.99566 0.0
C282 C 0.91693 0.94792 0.03797 0.0
C283 C 0.94135 0.01837 0.03707 0.0
C284 C 0.90404 0.03832 0.02247 0.0
C285 C 0.84443 0.98941 0.00872 0.0
C286 C 0.82245 0.92058 0.00977 0.0
C287 C 0.85744 0.8998 0.02407 0.0
C288 C 0.82566 0.82319 0.02098 0.0
C289 C 0.88028 0.80778 0.01324 0.0
C290 C 0.79434 0.78733 0.04273 0.0
C291 C 0.76834 0.80444 1.00242 0.0
C292 C 0.76683 0.86113 0.9963 0.0
C293 C 0.72052 0.85687 0.97874 0.0
C294 C 0.67525 0.79313 0.96693 0.0
C295 C 0.6769 0.73466 0.9727 0.0
C296 C 0.72344 0.74062 0.99093 0.0
H297 H 0.97332 0.93368 0.32804 0.0
H298 H 0.01407 0.87298 0.39301 0.0
H299 H 0.01234 0.776 0.37394 0.0
H300 H 0.85647 0.76483 0.30226 0.0
H301 H 0.89051 0.78677 0.27482 0.0
H302 H 0.89425 0.85131 0.29347 0.0
H303 H 0.02938 0.92883 0.29092 0.0
H304 H 0.02585 0.86501 0.27198 0.0
H305 H 0.08379 0.89477 0.29748 0.0
H306 H 1.00211 0.68322 0.3479 0.0
H307 H 1.00067 0.61085 0.31649 0.0
H308 H 0.9709 0.73443 0.26834 0.0
C309 C 0.98222 0.90019 0.33825 0.0
C310 C 0.99358 0.9108 0.36204 0.0
C311 C 1.00553 0.86608 0.37477 0.0
C312 C 1.0041 0.81051 0.3641 0.0
C313 C 0.99134 0.8007 0.34068 0.0
C314 C 0.98185 0.84497 0.32786 0.0
C315 C 0.97192 0.82454 0.30287 0.0
C316 C 0.89894 0.80574 0.29277 0.0
C317 C 0.03128 0.88167 0.29006 0.0
C318 C 0.97727 0.76183 0.30365 0.0
C319 C 0.98752 0.74843 0.32563 0.0
C320 C 0.99434 0.69335 0.33061 0.0
C321 C 0.993 0.65223 0.31263 0.0
C322 C 0.98571 0.66687 0.2899 0.0
C323 C 0.9763 0.72164 0.28549 0.0
H324 H 0.25648 0.02739 0.72813 0.0
H325 H 0.11043 0.04779 0.68321 0.0
H326 H 0.1703 0.04205 0.65041 0.0
H327 H 0.41011 0.13311 0.69727 0.0
H328 H 0.44688 0.08144 0.70283 0.0
H329 H 0.39167 0.08633 0.72262 0.0
H330 H 0.3102 0.95359 0.71965 0.0
H331 H 0.36452 0.94842 0.69952 0.0
H332 H 0.27153 0.9098 0.69235 0.0
H333 H 0.24259 0.0289 0.62236 0.0
H334 H 0.33382 0.0281 0.60139 0.0
H335 H 0.4364 0.02156 0.66459 0.0
C336 C 0.2374 0.03115 0.71141 0.0
C337 C 0.17858 0.03782 0.70825 0.0
C338 C 0.15552 0.04295 0.68609 0.0
C339 C 0.18881 0.03914 0.66732 0.0
C340 C 0.24553 0.03089 0.67098 0.0
C341 C 0.27056 0.02832 0.69249 0.0
C342 C 0.33426 0.02215 0.69182 0.0
C343 C 0.39959 0.08448 0.70437 0.0
C344 C 0.31919 0.95446 0.70141 0.0
C345 C 0.34126 0.02192 0.66658 0.0
C346 C 0.28878 0.02577 0.65485 0.0
C347 C 0.28413 0.02618 0.63136 0.0
C348 C 0.33598 0.02517 0.61958 0.0
C349 C 0.3924 0.02482 0.63133 0.0
C350 C 0.39392 0.02166 0.65511 0.0
H351 H 0.28016 0.28864 0.0447 0.0
H352 H 0.23118 0.0851 0.02453 0.0
H353 H 0.3034 0.13208 0.99185 0.0
H354 H 0.28025 0.3475 0.98887 0.0
H355 H 0.3535 0.43357 0.99634 0.0
H356 H 0.29567 0.38284 0.01747 0.0
H357 H 0.4032 0.40147 0.04255 0.0
H358 H 0.46125 0.4516 0.02137 0.0
H359 H 0.46057 0.37779 0.03122 0.0
H360 H 0.37893 0.20168 0.96068 0.0
H361 H 0.45395 0.28889 0.93422 0.0
H362 H 0.45982 0.44715 0.97675 0.0
C363 C 0.28407 0.25388 0.03327 0.0
C364 C 0.2497 0.1832 0.03699 0.0
C365 C 0.25702 0.13946 0.02191 0.0
C366 C 0.29793 0.16565 1.00333 0.0
C367 C 0.33196 0.23583 1.00029 0.0
C368 C 0.32573 0.27936 0.01492 0.0
C369 C 0.36916 0.35298 0.00829 0.0
C370 C 0.32181 0.38084 1.00239 0.0
C371 C 0.42697 0.39863 0.02697 0.0
C372 C 0.40039 0.34407 0.98756 0.0
C373 C 0.37801 0.27612 0.98309 0.0
C374 C 0.39741 0.25516 0.96415 0.0
C375 C 0.44007 0.30495 0.94925 0.0
C376 C 0.46357 0.37482 0.9536 0.0
C377 C 0.44403 0.39438 0.97319 0.0
H378 H 0.04122 0.18179 0.35208 0.0
H379 H 0.13308 0.33464 0.40814 0.0
H380 H 0.18433 0.42675 0.3814 0.0
H381 H 0.18493 0.27977 0.31267 0.0
H382 H 0.12201 0.25128 0.28845 0.0
H383 H 0.10388 0.19681 0.31185 0.0
H384 H 0.98573 0.1893 0.31553 0.0
H385 H 1.00348 0.24355 0.29222 0.0
H386 H 0.98613 0.26733 0.31903 0.0
H387 H 0.21015 0.50195 0.34931 0.0
H388 H 0.20573 0.55477 0.31398 0.0
H389 H 0.09758 0.35456 0.27824 0.0
C390 C 0.07412 0.23459 0.35868 0.0
C391 C 0.08371 0.25111 0.38218 0.0
C392 C 0.1252 0.32085 0.3902 0.0
C393 C 0.15494 0.37355 0.37514 0.0
C394 C 0.14284 0.35583 0.35206 0.0
C395 C 0.10361 0.28805 0.34381 0.0
C396 C 0.09134 0.28333 0.31827 0.0
C397 C 0.12773 0.25088 0.30716 0.0
C398 C 0.01198 0.24356 0.31084 0.0
C399 C 0.12716 0.35883 0.31362 0.0
C400 C 0.15768 0.39978 0.33331 0.0
C401 C 0.18784 0.47062 0.33369 0.0
C402 C 0.18502 0.5002 0.31354 0.0
C403 C 0.15209 0.45899 0.29331 0.0
C404 C 0.12475 0.3877 0.29329 0.0
loop_
_geom_bond_atom_site_label_1
_geom_bond_atom_site_label_2
_geom_bond_distance
_geom_bond_site_symmetry_2
_ccdc_geom_bond_type
Mg0 O1 2.028 . S
Mg0 O7 1.986 . S
Mg0 O9 2.114 . S
Mg0 O10 2.251 . S
Mg0 O13 2.010 . S
O1 Mg0 2.028 . S
O1 C4 1.250 1_455 S
O2 Mg3 2.028 . S
O2 C4 1.248 1_455 S
Mg3 O2 2.028 . S
Mg3 O8 2.032 . S
Mg3 O10 2.079 . S
C4 O1 1.250 1_655 S
C4 O2 1.248 1_655 S
C5 O6 1.264 1_565 S
C5 O13 1.249 1_565 S
O6 C5 1.264 1_545 S
O7 Mg0 1.986 . S
O7 C11 1.246 . S
O8 Mg3 2.032 . S
O8 C11 1.259 . S
O9 Mg0 2.114 . S
O9 C12 1.252 . S
O10 Mg0 2.251 . S
O10 Mg3 2.079 . S
O10 C12 1.273 . S
C11 O7 1.246 . S
C11 O8 1.259 . S
C12 O9 1.252 . S
C12 O10 1.273 . S
O13 Mg0 2.010 . S
O13 C5 1.249 1_545 S
Mg14 O15 2.028 1_655 S
Mg14 O21 1.986 1_655 S
Mg14 O23 2.114 1_545 S
Mg14 O24 2.251 . S
Mg14 O27 2.010 1_545 S
O15 Mg14 2.028 1_455 S
O15 C18 1.250 . S
O16 Mg17 2.028 . S
O16 C18 1.248 . S
Mg17 O16 2.028 . S
Mg17 O22 2.032 . S
Mg17 O24 2.079 1_455 S
C18 O15 1.250 . S
C18 O16 1.248 . S
C19 O20 1.264 . S
C19 O27 1.249 . S
O20 C19 1.264 . S
O21 Mg14 1.986 1_455 S
O21 C25 1.246 . S
O22 Mg17 2.032 . S
O22 C25 1.259 . S
O23 Mg14 2.114 1_565 S
O23 C26 1.252 1_565 S
O24 Mg14 2.251 . S
O24 Mg17 2.079 1_655 S
O24 C26 1.273 . S
C25 O21 1.246 . S
C25 O22 1.259 . S
C26 O23 1.252 1_545 S
C26 O24 1.273 . S
O27 Mg14 2.010 1_565 S
O27 C19 1.249 . S
Mg28 O29 2.028 . S
Mg28 O35 1.986 1_455 S
Mg28 O37 2.114 1_545 S
Mg28 O38 2.251 1_445 S
Mg28 O41 2.010 . S
O29 Mg28 2.028 . S
O29 C32 1.250 . S
O30 Mg31 2.028 1_455 S
O30 C32 1.248 . S
Mg31 O30 2.028 1_655 S
Mg31 O36 2.032 . S
Mg31 O38 2.079 1_545 S
C32 O29 1.250 . S
C32 O30 1.248 . S
C33 O34 1.265 1_545 S
C33 O41 1.248 . S
O34 C33 1.265 1_565 S
O35 Mg28 1.986 1_655 S
O35 C39 1.246 . S
O36 Mg31 2.032 . S
O36 C39 1.259 . S
O37 Mg28 2.114 1_565 S
O37 C40 1.252 1_455 S
O38 Mg28 2.251 1_665 S
O38 Mg31 2.079 1_565 S
O38 C40 1.273 . S
C39 O35 1.246 . S
C39 O36 1.259 . S
C40 O37 1.252 1_655 S
C40 O38 1.273 . S
O41 Mg28 2.010 . S
O41 C33 1.248 . S
Mg42 O49 2.141 . S
Mg42 O50 2.048 . S
Mg42 O51 2.048 . S
Mg42 O54 2.141 . S
C43 O44 1.313 1_455 S
C43 O50 1.195 . S
O44 C43 1.313 1_655 S
C45 O46 1.245 1_455 S
C45 O54 1.289 . S
O46 C45 1.245 1_655 S
C47 O48 1.245 1_455 S
C47 O49 1.289 . S
O48 C47 1.245 1_655 S
O49 Mg42 2.141 . S
O49 C47 1.289 . S
O50 Mg42 2.048 . S
O50 C43 1.195 . S
O51 Mg42 2.048 . S
O51 C52 1.195 . S
C52 O51 1.195 . S
C52 O53 1.313 1_455 S
O53 C52 1.313 1_655 S
O54 Mg42 2.141 . S
O54 C45 1.289 . S
Mg55 O62 2.141 . S
Mg55 O63 2.048 . S
Mg55 O64 2.048 . S
Mg55 O67 2.141 . S
C56 O57 1.313 . S
C56 O63 1.195 . S
O57 C56 1.313 . S
C58 O59 1.245 . S
C58 O67 1.289 . S
O59 C58 1.245 . S
C60 O61 1.245 . S
C60 O62 1.289 . S
O61 C60 1.245 . S
O62 Mg55 2.141 . S
O62 C60 1.289 . S
O63 Mg55 2.048 . S
O63 C56 1.195 . S
O64 Mg55 2.048 . S
O64 C65 1.195 . S
C65 O64 1.195 . S
C65 O66 1.313 . S
O66 C65 1.313 . S
O67 Mg55 2.141 . S
O67 C58 1.289 . S
Mg68 O75 2.141 . S
Mg68 O76 2.048 . S
Mg68 O77 2.048 . S
Mg68 O80 2.141 . S
C69 O70 1.313 . S
C69 O76 1.195 . S
O70 C69 1.313 . S
C71 O72 1.245 . S
C71 O80 1.289 . S
O72 C71 1.245 . S
C73 O74 1.245 . S
C73 O75 1.289 . S
O74 C73 1.245 . S
O75 Mg68 2.141 . S
O75 C73 1.289 . S
O76 Mg68 2.048 . S
O76 C69 1.195 . S
O77 Mg68 2.048 . S
O77 C78 1.195 . S
C78 O77 1.195 . S
C78 O79 1.313 . S
O79 C78 1.313 . S
O80 Mg68 2.141 . S
O80 C71 1.289 . S
H81 C93 0.930 . S
H82 C95 0.930 . S
H83 C96 0.930 . S
H84 C100 0.959 . S
H85 C100 0.959 . S
H86 C100 0.961 . S
H87 C101 0.960 . S
H88 C101 0.961 . S
H89 C101 0.959 . S
H90 C104 0.929 . S
H91 C105 0.931 . S
H92 C107 0.930 . S
C93 H81 0.930 . S
C93 C94 1.399 . S
C93 C98 1.399 . S
C94 C93 1.399 . S
C94 C95 1.376 1_455 S
C95 H82 0.930 . S
C95 C94 1.376 1_655 S
C95 C96 1.388 . S
C96 H83 0.930 . S
C96 C95 1.388 . S
C96 C97 1.390 1_655 S
C97 C96 1.390 1_455 S
C97 C98 1.394 . S
C97 C103 1.465 . S
C98 C93 1.399 . S
C98 C97 1.394 . S
C98 C99 1.516 . S
C99 C98 1.516 . S
C99 C100 1.502 . S
C99 C101 1.561 . S
C99 C102 1.526 . S
C100 H84 0.959 . S
C100 H85 0.959 . S
C100 H86 0.961 . S
C100 C99 1.502 . S
C101 H87 0.960 . S
C101 H88 0.961 . S
C101 H89 0.959 . S
C101 C99 1.561 . S
C102 C99 1.526 . S
C102 C103 1.396 . S
C102 C107 1.390 . S
C103 C97 1.465 . S
C103 C102 1.396 . S
C103 C104 1.399 1_455 S
C104 H90 0.929 . S
C104 C103 1.399 1_655 S
C104 C105 1.385 . S
C105 H91 0.931 . S
C105 C104 1.385 . S
C105 C106 1.389 1_655 S
C106 C105 1.389 1_455 S
C106 C107 1.387 . S
C107 H92 0.930 . S
C107 C102 1.390 . S
C107 C106 1.387 . S
H108 C120 0.930 . S
H109 C122 0.930 . S
H110 C123 0.930 . S
H111 C127 0.959 . S
H112 C127 0.959 . S
H113 C127 0.961 . S
H114 C128 0.960 . S
H115 C128 0.961 . S
H116 C128 0.959 . S
H117 C131 0.929 . S
H118 C132 0.931 1_565 S
H119 C134 0.930 . S
C120 H108 0.930 . S
C120 C121 1.399 . S
C120 C125 1.399 . S
C121 C120 1.399 . S
C121 C122 1.376 1_545 S
C122 H109 0.930 . S
C122 C121 1.376 1_565 S
C122 C123 1.388 . S
C123 H110 0.930 . S
C123 C122 1.388 . S
C123 C124 1.390 1_565 S
C124 C123 1.390 1_545 S
C124 C125 1.394 . S
C124 C130 1.465 . S
C125 C120 1.399 . S
C125 C124 1.394 . S
C125 C126 1.516 . S
C126 C125 1.516 . S
C126 C127 1.502 . S
C126 C128 1.561 . S
C126 C129 1.526 . S
C127 H111 0.959 . S
C127 H112 0.959 . S
C127 H113 0.961 . S
C127 C126 1.502 . S
C128 H114 0.960 . S
C128 H115 0.961 . S
C128 H116 0.959 . S
C128 C126 1.561 . S
C129 C126 1.526 . S
C129 C130 1.396 . S
C129 C134 1.390 . S
C130 C124 1.465 . S
C130 C129 1.396 . S
C130 C131 1.399 1_545 S
C131 H117 0.929 . S
C131 C130 1.399 1_565 S
C131 C132 1.385 1_565 S
C132 H118 0.931 1_545 S
C132 C131 1.385 1_545 S
C132 C133 1.389 . S
C133 C132 1.389 . S
C133 C134 1.387 . S
C134 H119 0.930 . S
C134 C129 1.390 . S
C134 C133 1.387 . S
H135 C147 0.930 . S
H136 C149 0.930 . S
H137 C150 0.930 . S
H138 C154 0.959 . S
H139 C154 0.959 . S
H140 C154 0.961 . S
H141 C155 0.960 . S
H142 C155 0.961 . S
H143 C155 0.959 . S
H144 C158 0.929 . S
H145 C159 0.931 . S
H146 C161 0.930 . S
C147 H135 0.930 . S
C147 C148 1.399 . S
C147 C152 1.399 . S
C148 C147 1.399 . S
C148 C149 1.376 . S
C149 H136 0.930 . S
C149 C148 1.376 . S
C149 C150 1.388 . S
C150 H137 0.930 . S
C150 C149 1.388 . S
C150 C151 1.390 . S
C151 C150 1.390 . S
C151 C152 1.394 . S
C151 C157 1.465 . S
C152 C147 1.399 . S
C152 C151 1.394 . S
C152 C153 1.516 . S
C153 C152 1.516 . S
C153 C154 1.502 . S
C153 C155 1.561 . S
C153 C156 1.526 . S
C154 H138 0.959 . S
C154 H139 0.959 . S
C154 H140 0.961 . S
C154 C153 1.502 . S
C155 H141 0.960 . S
C155 H142 0.961 . S
C155 H143 0.959 . S
C155 C153 1.561 . S
C156 C153 1.526 . S
C156 C157 1.396 . S
C156 C161 1.390 . S
C157 C151 1.465 . S
C157 C156 1.396 . S
C157 C158 1.399 . S
C158 H144 0.929 . S
C158 C157 1.399 . S
C158 C159 1.385 . S
C159 H145 0.931 . S
C159 C158 1.385 . S
C159 C160 1.389 . S
C160 C159 1.389 . S
C160 C161 1.387 . S
C161 H146 0.930 . S
C161 C156 1.390 . S
C161 C160 1.387 . S
H162 C174 0.930 . S
H163 C176 0.930 1_545 S
H164 C177 0.930 . S
H165 C181 0.959 . S
H166 C181 0.959 . S
H167 C181 0.961 . S
H168 C182 0.960 . S
H169 C182 0.961 . S
H170 C182 0.959 . S
H171 C185 0.929 . S
H172 C186 0.931 . S
H173 C188 0.930 . S
C174 H162 0.930 . S
C174 C175 1.399 . S
C174 C179 1.399 . S
C175 C174 1.399 . S
C175 C176 1.376 . S
C176 H163 0.930 1_565 S
C176 C175 1.376 . S
C176 C177 1.388 . S
C177 H164 0.930 . S
C177 C176 1.388 . S
C177 C178 1.390 . S
C178 C177 1.390 . S
C178 C179 1.394 . S
C178 C184 1.465 . S
C179 C174 1.399 . S
C179 C178 1.394 . S
C179 C180 1.516 . S
C180 C179 1.516 . S
C180 C181 1.502 1_455 S
C180 C182 1.561 . S
C180 C183 1.526 . S
C181 H165 0.959 . S
C181 H166 0.959 . S
C181 H167 0.961 . S
C181 C180 1.502 1_655 S
C182 H168 0.960 . S
C182 H169 0.961 . S
C182 H170 0.959 . S
C182 C180 1.561 . S
C183 C180 1.526 . S
C183 C184 1.396 . S
C183 C188 1.390 . S
C184 C178 1.465 . S
C184 C183 1.396 . S
C184 C185 1.399 . S
C185 H171 0.929 . S
C185 C184 1.399 . S
C185 C186 1.385 . S
C186 H172 0.931 . S
C186 C185 1.385 . S
C186 C187 1.389 . S
C187 C186 1.389 . S
C187 C188 1.387 . S
C188 H173 0.930 . S
C188 C183 1.390 . S
C188 C187 1.387 . S
H189 C201 0.930 1_565 S
H190 C203 0.930 . S
H191 C204 0.930 . S
H192 C208 0.959 . S
H193 C208 0.959 . S
H194 C208 0.961 . S
H195 C209 0.960 . S
H196 C209 0.961 . S
H197 C209 0.959 . S
H198 C212 0.929 . S
H199 C213 0.931 . S
H200 C215 0.930 1_565 S
C201 H189 0.930 1_545 S
C201 C202 1.399 . S
C201 C206 1.399 . S
C202 C201 1.399 . S
C202 C203 1.376 . S
C203 H190 0.930 . S
C203 C202 1.376 . S
C203 C204 1.388 . S
C204 H191 0.930 . S
C204 C203 1.388 . S
C204 C205 1.390 . S
C205 C204 1.390 . S
C205 C206 1.394 . S
C205 C211 1.465 . S
C206 C201 1.399 . S
C206 C205 1.394 . S
C206 C207 1.513 1_545 S
C207 C206 1.513 1_565 S
C207 C208 1.502 . S
C207 C209 1.564 . S
C207 C210 1.525 1_565 S
C208 H192 0.959 . S
C208 H193 0.959 . S
C208 H194 0.961 . S
C208 C207 1.502 . S
C209 H195 0.960 . S
C209 H196 0.961 . S
C209 H197 0.959 . S
C209 C207 1.564 . S
C210 C207 1.525 1_545 S
C210 C211 1.396 . S
C210 C215 1.390 . S
C211 C205 1.465 . S
C211 C210 1.396 . S
C211 C212 1.399 . S
C212 H198 0.929 . S
C212 C211 1.399 . S
C212 C213 1.385 . S
C213 H199 0.931 . S
C213 C212 1.385 . S
C213 C214 1.389 . S
C214 C213 1.389 . S
C214 C215 1.387 . S
C215 H200 0.930 1_545 S
C215 C210 1.390 . S
C215 C214 1.387 . S
H216 C228 0.930 . S
H217 C230 0.930 . S
H218 C231 0.930 . S
H219 C235 0.959 . S
H220 C235 0.959 . S
H221 C235 0.961 . S
H222 C236 0.960 . S
H223 C236 0.961 . S
H224 C236 0.959 . S
H225 C239 0.929 . S
H226 C240 0.931 . S
H227 C242 0.930 . S
C228 H216 0.930 . S
C228 C229 1.399 . S
C228 C233 1.399 . S
C229 C228 1.399 . S
C229 C230 1.376 . S
C230 H217 0.930 . S
C230 C229 1.376 . S
C230 C231 1.388 . S
C231 H218 0.930 . S
C231 C230 1.388 . S
C231 C232 1.390 . S
C232 C231 1.390 . S
C232 C233 1.394 . S
C232 C238 1.465 . S
C233 C228 1.399 . S
C233 C232 1.394 . S
C233 C234 1.516 . S
C234 C233 1.516 . S
C234 C235 1.502 . S
C234 C236 1.561 . S
C234 C237 1.526 . S
C235 H219 0.959 . S
C235 H220 0.959 . S
C235 H221 0.961 . S
C235 C234 1.502 . S
C236 H222 0.960 . S
C236 H223 0.961 . S
C236 H224 0.959 . S
C236 C234 1.561 . S
C237 C234 1.526 . S
C237 C238 1.396 . S
C237 C242 1.390 . S
C238 C232 1.465 . S
C238 C237 1.396 . S
C238 C239 1.399 . S
C239 H225 0.929 . S
C239 C238 1.399 . S
C239 C240 1.385 . S
C240 H226 0.931 . S
C240 C239 1.385 . S
C240 C241 1.389 . S
C241 C240 1.389 . S
C241 C242 1.387 . S
C242 H227 0.930 . S
C242 C237 1.390 . S
C242 C241 1.387 . S
H243 C255 0.930 . S
H244 C257 0.930 . S
H245 C258 0.930 . S
H246 C262 0.959 1_545 S
H247 C262 0.959 . S
H248 C262 0.961 . S
H249 C263 0.960 . S
H250 C263 0.961 . S
H251 C263 0.959 . S
H252 C266 0.929 . S
H253 C267 0.931 . S
H254 C269 0.930 1_565 S
C255 H243 0.930 . S
C255 C256 1.399 . S
C255 C260 1.399 . S
C256 C255 1.399 . S
C256 C257 1.376 . S
C257 H244 0.930 . S
C257 C256 1.376 . S
C257 C258 1.388 . S
C258 H245 0.930 . S
C258 C257 1.388 . S
C258 C259 1.390 . S
C259 C258 1.390 . S
C259 C260 1.394 . S
C259 C265 1.465 . S
C260 C255 1.399 . S
C260 C259 1.394 . S
C260 C261 1.516 . S
C261 C260 1.516 . S
C261 C262 1.502 1_545 S
C261 C263 1.561 1_545 S
C261 C264 1.526 . S
C262 H246 0.959 1_565 S
C262 H247 0.959 . S
C262 H248 0.961 . S
C262 C261 1.502 1_565 S
C263 H249 0.960 . S
C263 H250 0.961 . S
C263 H251 0.959 . S
C263 C261 1.561 1_565 S
C264 C261 1.526 . S
C264 C265 1.396 . S
C264 C269 1.390 . S
C265 C259 1.465 . S
C265 C264 1.396 . S
C265 C266 1.399 . S
C266 H252 0.929 . S
C266 C265 1.399 . S
C266 C267 1.385 . S
C267 H253 0.931 . S
C267 C266 1.385 . S
C267 C268 1.389 . S
C268 C267 1.389 . S
C268 C269 1.387 . S
C269 H254 0.930 1_545 S
C269 C264 1.390 . S
C269 C268 1.387 . S
H270 C282 0.930 . S
H271 C284 0.930 . S
H272 C285 0.930 . S
H273 C289 0.959 . S
H274 C289 0.959 . S
H275 C289 0.961 . S
H276 C290 0.960 1_554 S
H277 C290 0.961 . S
H278 C290 0.959 1_554 S
H279 C293 0.929 1_554 S
H280 C294 0.931 . S
H281 C296 0.930 . S
C282 H270 0.930 . S
C282 C283 1.399 . S
C282 C287 1.399 . S
C283 C282 1.399 . S
C283 C284 1.376 . S
C284 H271 0.930 . S
C284 C283 1.376 . S
C284 C285 1.388 . S
C285 H272 0.930 . S
C285 C284 1.388 . S
C285 C286 1.390 . S
C286 C285 1.390 . S
C286 C287 1.394 . S
C286 C292 1.471 . S
C287 C282 1.399 . S
C287 C286 1.394 . S
C287 C288 1.516 1_554 S
C288 C287 1.516 1_556 S
C288 C289 1.502 . S
C288 C290 1.561 . S
C288 C291 1.526 . S
C289 H273 0.959 . S
C289 H274 0.959 . S
C289 H275 0.961 . S
C289 C288 1.502 . S
C290 H276 0.960 1_556 S
C290 H277 0.961 . S
C290 H278 0.959 1_556 S
C290 C288 1.561 . S
C291 C288 1.526 . S
C291 C292 1.390 1_556 S
C291 C296 1.390 . S
C292 C286 1.471 . S
C292 C291 1.390 1_554 S
C292 C293 1.399 1_554 S
C293 H279 0.929 1_556 S
C293 C292 1.399 1_556 S
C293 C294 1.385 . S
C294 H280 0.931 . S
C294 C293 1.385 . S
C294 C295 1.389 . S
C295 C294 1.389 . S
C295 C296 1.387 . S
C296 H281 0.930 . S
C296 C291 1.390 . S
C296 C295 1.387 . S
H297 C309 0.930 . S
H298 C311 0.930 . S
H299 C312 0.930 . S
H300 C316 0.959 . S
H301 C316 0.959 . S
H302 C316 0.961 . S
H303 C317 0.960 . S
H304 C317 0.961 . S
H305 C317 0.959 . S
H306 C320 0.929 . S
H307 C321 0.931 . S
H308 C323 0.930 1_655 S
C309 H297 0.930 . S
C309 C310 1.399 . S
C309 C314 1.399 . S
C310 C309 1.399 . S
C310 C311 1.376 1_655 S
C311 H298 0.930 . S
C311 C310 1.376 1_455 S
C311 C312 1.388 . S
C312 H299 0.930 . S
C312 C311 1.388 . S
C312 C313 1.390 . S
C313 C312 1.390 . S
C313 C314 1.394 1_455 S
C313 C319 1.465 . S
C314 C309 1.399 . S
C314 C313 1.394 1_655 S
C314 C315 1.516 . S
C315 C314 1.516 . S
C315 C316 1.502 . S
C315 C317 1.561 1_655 S
C315 C318 1.526 1_655 S
C316 H300 0.959 . S
C316 H301 0.959 . S
C316 H302 0.961 . S
C316 C315 1.502 . S
C317 H303 0.960 . S
C317 H304 0.961 . S
C317 H305 0.959 . S
C317 C315 1.561 1_455 S
C318 C315 1.526 1_455 S
C318 C319 1.396 . S
C318 C323 1.390 . S
C319 C313 1.465 . S
C319 C318 1.396 . S
C319 C320 1.399 . S
C320 H306 0.929 . S
C320 C319 1.399 . S
C320 C321 1.385 . S
C321 H307 0.931 . S
C321 C320 1.385 . S
C321 C322 1.389 . S
C322 C321 1.389 . S
C322 C323 1.387 . S
C323 H308 0.930 1_455 S
C323 C318 1.390 . S
C323 C322 1.387 . S
H324 C336 0.930 . S
H325 C338 0.930 . S
H326 C339 0.930 . S
H327 C343 0.959 . S
H328 C343 0.959 . S
H329 C343 0.961 . S
H330 C344 0.960 . S
H331 C344 0.961 . S
H332 C344 0.959 . S
H333 C347 0.929 . S
H334 C348 0.931 . S
H335 C350 0.930 1_565 S
C336 H324 0.930 . S
C336 C337 1.399 1_565 S
C336 C341 1.399 1_565 S
C337 C336 1.399 1_545 S
C337 C338 1.376 . S
C338 H325 0.930 . S
C338 C337 1.376 . S
C338 C339 1.388 . S
C339 H326 0.930 . S
C339 C338 1.388 . S
C339 C340 1.390 . S
C340 C339 1.390 . S
C340 C341 1.394 . S
C340 C346 1.465 . S
C341 C336 1.399 1_545 S
C341 C340 1.394 . S
C341 C342 1.516 1_545 S
C342 C341 1.516 1_565 S
C342 C343 1.502 . S
C342 C344 1.561 . S
C342 C345 1.526 1_565 S
C343 H327 0.959 . S
C343 H328 0.959 . S
C343 H329 0.961 . S
C343 C342 1.502 . S
C344 H330 0.960 . S
C344 H331 0.961 . S
C344 H332 0.959 . S
C344 C342 1.561 . S
C345 C342 1.526 1_545 S
C345 C346 1.396 . S
C345 C350 1.390 . S
C346 C340 1.465 . S
C346 C345 1.396 . S
C346 C347 1.399 . S
C347 H333 0.929 . S
C347 C346 1.399 . S
C347 C348 1.385 . S
C348 H334 0.931 . S
C348 C347 1.385 . S
C348 C349 1.389 . S
C349 C348 1.389 . S
C349 C350 1.387 . S
C350 H335 0.930 1_545 S
C350 C345 1.390 . S
C350 C349 1.387 . S
H351 C363 0.930 . S
H352 C365 0.930 . S
H353 C366 0.930 . S
H354 C370 0.959 . S
H355 C370 0.959 . S
H356 C370 0.961 . S
H357 C371 0.960 . S
H358 C371 0.961 1_556 S
H359 C371 0.959 . S
H360 C374 0.929 . S
H361 C375 0.931 . S
H362 C377 0.930 . S
C363 H351 0.930 . S
C363 C364 1.399 . S
C363 C368 1.399 . S
C364 C363 1.399 . S
C364 C365 1.376 . S
C365 H352 0.930 . S
C365 C364 1.376 . S
C365 C366 1.388 . S
C366 H353 0.930 . S
C366 C365 1.388 . S
C366 C367 1.390 . S
C367 C366 1.390 . S
C367 C368 1.394 . S
C367 C373 1.465 1_554 S
C368 C363 1.399 . S
C368 C367 1.394 . S
C368 C369 1.516 1_554 S
C369 C368 1.516 1_556 S
C369 C370 1.502 . S
C369 C371 1.561 1_556 S
C369 C372 1.526 . S
C370 H354 0.959 . S
C370 H355 0.959 . S
C370 H356 0.961 . S
C370 C369 1.502 . S
C371 H357 0.960 . S
C371 H358 0.961 1_554 S
C371 H359 0.959 . S
C371 C369 1.561 1_554 S
C372 C369 1.526 . S
C372 C373 1.396 . S
C372 C377 1.390 . S
C373 C367 1.465 1_556 S
C373 C372 1.396 . S
C373 C374 1.399 . S
C374 H360 0.929 . S
C374 C373 1.399 . S
C374 C375 1.385 . S
C375 H361 0.931 . S
C375 C374 1.385 . S
C375 C376 1.389 . S
C376 C375 1.389 . S
C376 C377 1.387 . S
C377 H362 0.930 . S
C377 C372 1.390 . S
C377 C376 1.387 . S
H378 C390 0.930 . S
H379 C392 0.930 . S
H380 C393 0.930 . S
H381 C397 0.959 . S
H382 C397 0.959 1_655 S
H383 C397 0.961 . S
H384 C398 0.960 . S
H385 C398 0.961 . S
H386 C398 0.959 . S
H387 C401 0.929 . S
H388 C402 0.931 . S
H389 C404 0.930 1_655 S
C390 H378 0.930 . S
C390 C391 1.399 . S
C390 C395 1.399 . S
C391 C390 1.399 . S
C391 C392 1.376 . S
C392 H379 0.930 . S
C392 C391 1.376 . S
C392 C393 1.388 . S
C393 H380 0.930 . S
C393 C392 1.388 . S
C393 C394 1.390 . S
C394 C393 1.390 . S
C394 C395 1.394 . S
C394 C400 1.465 . S
C395 C390 1.399 . S
C395 C394 1.394 . S
C395 C396 1.516 1_455 S
C396 C395 1.516 1_655 S
C396 C397 1.502 1_655 S
C396 C398 1.561 . S
C396 C399 1.526 1_655 S
C397 H381 0.959 . S
C397 H382 0.959 1_455 S
C397 H383 0.961 . S
C397 C396 1.502 1_455 S
C398 H384 0.960 . S
C398 H385 0.961 . S
C398 H386 0.959 . S
C398 C396 1.561 . S
C399 C396 1.526 1_455 S
C399 C400 1.396 . S
C399 C404 1.390 . S
C400 C394 1.465 . S
C400 C399 1.396 . S
C400 C401 1.399 . S
C401 H387 0.929 . S
C401 C400 1.399 . S
C401 C402 1.385 . S
C402 H388 0.931 . S
C402 C401 1.385 . S
C402 C403 1.389 . S
C403 C402 1.389 . S
C403 C404 1.387 . S
C404 H389 0.930 1_455 S
C404 C399 1.390 . S
C404 C403 1.387 . S
C106 C47 1.319 . S
C94 C11 1.359 . S
C121 C26 1.523 . S
C133 C65 1.490 . S
C148 C40 1.407 . S
C160 C78 1.407 . S
C175 C5 1.099 . S
C187 C45 1.352 . S
C214 C56 1.541 . S
C202 C18 1.521 . S
C229 C32 1.368 . S
C241 C69 1.417 . S
C268 C58 1.250 . S
C256 C39 1.233 . S
C283 C4 1.367 1_565 S
C295 C71 1.369 . S
C322 C52 1.418 . S
C310 C19 1.321 . S
C349 C60 1.293 . S
C337 C33 1.128 . S
C376 C73 1.324 . S
C364 C12 1.375 . S
C391 C25 1.405 . S
C403 C43 1.437 . S
