# Generated by pormake.
# Topology pto, (3,4)-cn, num edge types: 1
# Building blocks:
#     Node 0, Type 0, BuildingBlock: OLANEW_clean_sbu_2, # of connection points: 3
#     Node 1, Type 0, BuildingBlock: OLANEW_clean_sbu_2, # of connection points: 3
#     Node 2, Type 0, BuildingBlock: OLANEW_clean_sbu_2, # of connection points: 3
#     Node 3, Type 0, BuildingBlock: OLANEW_clean_sbu_2, # of connection points: 3
#     Node 4, Type 0, BuildingBlock: OLANEW_clean_sbu_2, # of connection points: 3
#     Node 5, Type 0, BuildingBlock: OLANEW_clean_sbu_2, # of connection points: 3
#     Node 6, Type 0, BuildingBlock: OLANEW_clean_sbu_2, # of connection points: 3
#     Node 7, Type 0, BuildingBlock: OLANEW_clean_sbu_2, # of connection points: 3
#     Node 8, Type 1, BuildingBlock: KOZSID_clean_sbu_0, # of connection points: 4
#     Node 9, Type 1, BuildingBlock: KOZSID_clean_sbu_0, # of connection points: 4
#     Node 10, Type 1, BuildingBlock: KOZSID_clean_sbu_0, # of connection points: 4
#     Node 11, Type 1, BuildingBlock: KOZSID_clean_sbu_0, # of connection points: 4
#     Node 12, Type 1, BuildingBlock: KOZSID_clean_sbu_0, # of connection points: 4
#     Node 13, Type 1, BuildingBlock: KOZSID_clean_sbu_0, # of connection points: 4
#     Edge 14, Type (0, 1), BuildingBlock: OJICUG_clean_linker_0, # of connection points: 2
#     Edge 15, Type (0, 1), BuildingBlock: OJICUG_clean_linker_0, # of connection points: 2
#     Edge 16, Type (0, 1), BuildingBlock: OJICUG_clean_linker_0, # of connection points: 2
#     Edge 17, Type (0, 1), BuildingBlock: OJICUG_clean_linker_0, # of connection points: 2
#     Edge 18, Type (0, 1), BuildingBlock: OJICUG_clean_linker_0, # of connection points: 2
#     Edge 19, Type (0, 1), BuildingBlock: OJICUG_clean_linker_0, # of connection points: 2
#     Edge 20, Type (0, 1), BuildingBlock: OJICUG_clean_linker_0, # of connection points: 2
#     Edge 21, Type (0, 1), BuildingBlock: OJICUG_clean_linker_0, # of connection points: 2
#     Edge 22, Type (0, 1), BuildingBlock: OJICUG_clean_linker_0, # of connection points: 2
#     Edge 23, Type (0, 1), BuildingBlock: OJICUG_clean_linker_0, # of connection points: 2
#     Edge 24, Type (0, 1), BuildingBlock: OJICUG_clean_linker_0, # of connection points: 2
#     Edge 25, Type (0, 1), BuildingBlock: OJICUG_clean_linker_0, # of connection points: 2
#     Edge 26, Type (0, 1), BuildingBlock: OJICUG_clean_linker_0, # of connection points: 2
#     Edge 27, Type (0, 1), BuildingBlock: OJICUG_clean_linker_0, # of connection points: 2
#     Edge 28, Type (0, 1), BuildingBlock: OJICUG_clean_linker_0, # of connection points: 2
#     Edge 29, Type (0, 1), BuildingBlock: OJICUG_clean_linker_0, # of connection points: 2
#     Edge 30, Type (0, 1), BuildingBlock: OJICUG_clean_linker_0, # of connection points: 2
#     Edge 31, Type (0, 1), BuildingBlock: OJICUG_clean_linker_0, # of connection points: 2
#     Edge 32, Type (0, 1), BuildingBlock: OJICUG_clean_linker_0, # of connection points: 2
#     Edge 33, Type (0, 1), BuildingBlock: OJICUG_clean_linker_0, # of connection points: 2
#     Edge 34, Type (0, 1), BuildingBlock: OJICUG_clean_linker_0, # of connection points: 2
#     Edge 35, Type (0, 1), BuildingBlock: OJICUG_clean_linker_0, # of connection points: 2
#     Edge 36, Type (0, 1), BuildingBlock: OJICUG_clean_linker_0, # of connection points: 2
#     Edge 37, Type (0, 1), BuildingBlock: OJICUG_clean_linker_0, # of connection points: 2
# Relax obj value: 0.010
# Max RMSD: 0.123
# Mean RMSD: 0.050
data_MOF--net-pto--node1-OLANEW_clean_sbu_2--node2-KOZSID_clean_sbu_0--edge1-OJICUG_clean_linker_0
_symmetry_space_group_name_H-M    P1
_symmetry_Int_Tables_number       1
_symmetry_cell_setting            triclinic
loop_
_symmetry_equiv_pos_as_xyz
'x, y, z'
_cell_length_a     30.290752
_cell_length_b     42.517113
_cell_length_c     35.781146
_cell_angle_alpha  90.073368
_cell_angle_beta   86.215441
_cell_angle_gamma 110.11749
loop_
_atom_site_label
_atom_site_type_symbol
_atom_site_fract_x
_atom_site_fract_y
_atom_site_fract_z
_atom_type_partial_charge
O0 O 0.39419 0.3539 0.2775 0.0
Cd1 Cd 0.34579 0.34696 0.33626 0.0
O2 O 0.36688 0.39035 0.25283 0.0
Cd3 Cd 0.32392 0.39608 0.30227 0.0
O4 O 0.2757 0.41693 0.33297 0.0
C5 C 0.23504 0.41039 0.32087 0.0
O6 O 0.22359 0.3902 0.2925 0.0
C7 C 0.39274 0.37227 0.24994 0.0
C8 C 0.34512 0.28952 0.3743 0.0
O9 O 0.31792 0.28765 0.34781 0.0
O10 O 0.37226 0.31861 0.38329 0.0
O11 O 0.35999 0.90678 0.79943 0.0
Cd12 Cd 0.29705 0.90004 0.75744 0.0
O13 O 0.38661 0.87177 0.7679 0.0
Cd14 Cd 0.32967 0.85556 0.73024 0.0
O15 O 0.2733 0.81251 0.71058 0.0
C16 C 0.27696 0.78433 0.71809 0.0
O17 O 0.31362 0.78379 0.73544 0.0
C18 C 0.38977 0.89187 0.79477 0.0
C19 C 0.31622 0.9531 0.70601 0.0
O20 O 0.29581 0.95372 0.73841 0.0
O21 O 0.32806 0.92754 0.69812 0.0
O22 O 0.81936 0.82035 0.36383 0.0
Cd23 Cd 0.80824 0.77242 0.32266 0.0
O24 O 0.74331 0.80497 0.37919 0.0
Cd25 Cd 0.72682 0.77278 0.33095 0.0
O26 O 0.71414 0.7784 0.2724 0.0
C27 C 0.71587 0.80779 0.2636 0.0
O28 O 0.72518 0.83074 0.28941 0.0
C29 C 0.78519 0.82428 0.38354 0.0
C30 C 0.85083 0.72758 0.34575 0.0
O31 O 0.87289 0.75246 0.32352 0.0
O32 O 0.80845 0.72396 0.35756 0.0
O33 O 0.8293 0.34979 0.71656 0.0
Cd34 Cd 0.78259 0.29598 0.74674 0.0
O35 O 0.87943 0.36254 0.76067 0.0
Cd36 Cd 0.83441 0.32297 0.79927 0.0
O37 O 0.78203 0.31036 0.84706 0.0
C38 C 0.74071 0.30956 0.84126 0.0
O39 O 0.73089 0.31382 0.80682 0.0
C40 C 0.86696 0.36938 0.7293 0.0
C41 C 0.78823 0.24182 0.7051 0.0
O42 O 0.75654 0.25473 0.69991 0.0
O43 O 0.8174 0.25459 0.73002 0.0
O44 O 0.77752 0.81717 0.5921 0.0
Cd45 Cd 0.75247 0.75645 0.6033 0.0
O46 O 0.76516 0.82079 0.65252 0.0
Cd47 Cd 0.75413 0.84178 0.70688 0.0
O48 O 0.74124 0.8513 0.76595 0.0
C49 C 0.7007 0.85086 0.77827 0.0
O50 O 0.6675 0.8457 0.75476 0.0
C51 C 0.77624 0.83512 0.62033 0.0
C52 C 0.82258 0.72896 0.61281 0.0
O53 O 0.8057 0.72861 0.58082 0.0
O54 O 0.80738 0.74318 0.63983 0.0
O55 O 0.85207 0.32165 0.35466 0.0
Cd56 Cd 0.80378 0.26529 0.33614 0.0
O57 O 0.79371 0.3405 0.34813 0.0
Cd58 Cd 0.74816 0.29803 0.31842 0.0
O59 O 0.70655 0.28826 0.26923 0.0
C60 C 0.7279 0.30299 0.23893 0.0
O61 O 0.77311 0.32048 0.23876 0.0
C62 C 0.8351 0.34515 0.3578 0.0
C63 C 0.81069 0.21308 0.38045 0.0
O64 O 0.83585 0.22223 0.34951 0.0
O65 O 0.78287 0.22888 0.39068 0.0
O66 O 0.27578 0.36763 0.82476 0.0
Cd67 Cd 0.21597 0.35614 0.77879 0.0
O68 O 0.33586 0.3737 0.7839 0.0
Cd69 Cd 0.29328 0.35489 0.73642 0.0
O70 O 0.2858 0.31554 0.69535 0.0
C71 C 0.30938 0.29684 0.70227 0.0
O72 O 0.33371 0.30271 0.73218 0.0
C73 C 0.31976 0.37433 0.8175 0.0
C74 C 0.19092 0.41124 0.75965 0.0
O75 O 0.17547 0.39513 0.79077 0.0
O76 O 0.21883 0.40174 0.73766 0.0
O77 O 0.44176 0.86482 0.26837 0.0
Cd78 Cd 0.40332 0.85273 0.33177 0.0
O79 O 0.37741 0.83297 0.2434 0.0
Cd80 Cd 0.34276 0.80808 0.29614 0.0
O81 O 0.3057 0.76104 0.32694 0.0
C82 C 0.27186 0.75766 0.3513 0.0
O83 O 0.26003 0.78389 0.35996 0.0
C84 C 0.41935 0.85365 0.23956 0.0
C85 C 0.39089 0.90883 0.36543 0.0
O86 O 0.42782 0.90137 0.36985 0.0
O87 O 0.35987 0.88987 0.34486 0.0
C88 C 0.11666 0.61011 0.41819 0.0
C89 C 0.13415 0.62182 0.45242 0.0
C90 C 0.0998 0.60561 0.4796 0.0
C91 C 0.06345 0.58481 0.46062 0.0
N92 N 0.07313 0.58652 0.4232 0.0
Co93 Co 0.02991 0.56106 0.38567 0.0
N94 N 0.98913 0.52929 0.4246 0.0
C95 C 0.98727 0.53419 0.46171 0.0
C96 C 0.95622 0.50691 0.48142 0.0
C97 C 0.93773 0.48345 0.45496 0.0
C98 C 0.95866 0.49785 0.42058 0.0
N99 N 0.98657 0.53537 0.34854 0.0
C100 C 0.95655 0.50338 0.35101 0.0
C101 C 0.93312 0.49448 0.31847 0.0
C102 C 0.94937 0.52214 0.2949 0.0
C103 C 0.98167 0.54624 0.31434 0.0
N104 N 0.07008 0.5928 0.34636 0.0
C105 C 0.057 0.59743 0.31206 0.0
C106 C 0.0911 0.62204 0.29118 0.0
C107 C 0.12756 0.63407 0.31393 0.0
C108 C 0.11365 0.61605 0.34772 0.0
N109 N 0.06757 0.53214 0.37762 0.0
C110 C 0.11911 0.48927 0.36454 0.0
C111 C 0.10383 0.50322 0.33474 0.0
C112 C 0.07843 0.5246 0.34183 0.0
C113 C 0.10856 0.4976 0.40116 0.0
C114 C 0.0825 0.51895 0.40711 0.0
N115 N 0.99235 0.59032 0.39299 0.0
C116 C 0.99053 0.64639 0.3919 0.0
C117 C 0.94219 0.63427 0.38687 0.0
C118 C 0.91862 0.59946 0.38852 0.0
C119 C 0.94435 0.5779 0.39194 0.0
C120 C 0.01481 0.62416 0.39476 0.0
H121 H 0.92581 0.55121 0.39163 0.0
H122 H 0.05232 0.63471 0.39629 0.0
H123 H 0.06733 0.5349 0.31821 0.0
H124 H 0.07413 0.5246 0.43551 0.0
C125 C 0.02224 0.56091 0.477 0.0
C126 C 0.13948 0.62534 0.38183 0.0
C127 C 0.94838 0.48177 0.38443 0.0
C128 C 0.01478 0.57589 0.29901 0.0
H129 H 0.16764 0.64089 0.45715 0.0
H130 H 0.10139 0.60838 0.5096 0.0
H131 H 0.94985 0.50363 0.51152 0.0
H132 H 0.91238 0.45852 0.46034 0.0
H133 H 0.90739 0.4705 0.3123 0.0
H134 H 0.94063 0.5238 0.26629 0.0
H135 H 0.08982 0.63013 0.26273 0.0
H136 H 0.1599 0.65466 0.30676 0.0
H137 H 0.11192 0.49797 0.30596 0.0
H138 H 0.11966 0.48729 0.42499 0.0
H139 H 0.01004 0.67305 0.39212 0.0
H140 H 0.88114 0.5889 0.38514 0.0
C141 C 0.09503 0.64526 0.72488 0.0
C142 C 0.09924 0.65949 0.76002 0.0
C143 C 0.06195 0.63971 0.78254 0.0
C144 C 0.0372 0.6146 0.76003 0.0
N145 N 0.05644 0.61717 0.72442 0.0
Co146 Co 0.03257 0.58572 0.68266 0.0
N147 N 0.97743 0.55717 0.71569 0.0
C148 C 0.96442 0.56336 0.75104 0.0
C149 C 0.92543 0.53843 0.76656 0.0
C150 C 0.91365 0.51454 0.73987 0.0
C151 C 0.94647 0.52635 0.70966 0.0
N152 N 0.00948 0.55324 0.64152 0.0
C153 C 0.97742 0.52173 0.64382 0.0
C154 C 0.97526 0.50555 0.60999 0.0
C155 C 0.00795 0.52745 0.5855 0.0
C156 C 0.02818 0.55552 0.60584 0.0
N157 N 0.08684 0.61492 0.64914 0.0
C158 C 0.09582 0.61074 0.61226 0.0
C159 C 0.13471 0.63549 0.59639 0.0
C160 C 0.15137 0.65693 0.62473 0.0
C161 C 0.12152 0.64394 0.65637 0.0
N162 N 0.07054 0.55878 0.69822 0.0
C163 C 0.1174 0.51486 0.71872 0.0
C164 C 0.12558 0.53003 0.68294 0.0
C165 C 0.10163 0.55138 0.67325 0.0
C166 C 0.08646 0.52329 0.74433 0.0
C167 C 0.06438 0.5455 0.73383 0.0
N168 N 0.99423 0.61272 0.66708 0.0
C169 C 0.96564 0.63949 0.61901 0.0
C170 C 0.94233 0.65317 0.64597 0.0
C171 C 0.94501 0.64572 0.68358 0.0
C172 C 0.97106 0.62598 0.69335 0.0
C173 C 0.99085 0.61936 0.63007 0.0
H174 H 0.97187 0.62199 0.72248 0.0
H175 H 0.00752 0.6097 0.60811 0.0
H176 H 0.10825 0.56123 0.6452 0.0
H177 H 0.04152 0.55093 0.7548 0.0
C178 C 0.99415 0.58968 0.77084 0.0
C179 C 0.12765 0.66002 0.69261 0.0
C180 C 0.95103 0.50572 0.67823 0.0
C181 C 0.06802 0.58267 0.59369 0.0
H182 H 0.12606 0.68217 0.76837 0.0
H183 H 0.05336 0.64356 0.81163 0.0
H184 H 0.90955 0.53672 0.79483 0.0
H185 H 0.88599 0.49028 0.74306 0.0
H186 H 0.9536 0.48017 0.60406 0.0
H187 H 0.01767 0.52277 0.55693 0.0
H188 H 0.14935 0.63761 0.56769 0.0
H189 H 0.18203 0.67958 0.6224 0.0
H190 H 0.1501 0.52542 0.66214 0.0
H191 H 0.0779 0.51219 0.77224 0.0
H192 H 0.96508 0.64456 0.58943 0.0
H193 H 0.92669 0.65478 0.70573 0.0
C194 C 0.3822 0.07935 0.57943 0.0
C195 C 0.42454 0.08141 0.59383 0.0
C196 C 0.45923 0.10541 0.57304 0.0
C197 C 0.43624 0.11666 0.5473 0.0
N198 N 0.38883 0.10151 0.55056 0.0
Co199 Co 0.34202 0.10961 0.51812 0.0
N200 N 0.39294 0.14594 0.48865 0.0
C201 C 0.4398 0.15646 0.49302 0.0
C202 C 0.46572 0.18286 0.46978 0.0
C203 C 0.43339 0.19024 0.45002 0.0
C204 C 0.38946 0.16789 0.46256 0.0
N205 N 0.29545 0.11727 0.4851 0.0
C206 C 0.30127 0.14193 0.45923 0.0
C207 C 0.25895 0.13919 0.44428 0.0
C208 C 0.22532 0.11199 0.46135 0.0
C209 C 0.24868 0.0998 0.48585 0.0
N210 N 0.29085 0.07409 0.54839 0.0
C211 C 0.24414 0.06331 0.54342 0.0
C212 C 0.21754 0.03867 0.56843 0.0
C213 C 0.24909 0.03329 0.59079 0.0
C214 C 0.29335 0.05514 0.57808 0.0
N215 N 0.33395 0.14389 0.55287 0.0
C216 C 0.32326 0.19329 0.60159 0.0
C217 C 0.28432 0.17048 0.58576 0.0
C218 C 0.29039 0.14606 0.56176 0.0
C219 C 0.3676 0.19102 0.59243 0.0
C220 C 0.37212 0.1664 0.56821 0.0
N221 N 0.35023 0.07501 0.48331 0.0
C222 C 0.31803 0.02175 0.4529 0.0
C223 C 0.36312 0.02239 0.4406 0.0
C224 C 0.40138 0.0506 0.44862 0.0
C225 C 0.39423 0.07628 0.46973 0.0
C226 C 0.31244 0.04815 0.47377 0.0
H227 H 0.4251 0.0966 0.47505 0.0
H228 H 0.2772 0.04585 0.48242 0.0
H229 H 0.25937 0.12919 0.55074 0.0
H230 H 0.40689 0.16615 0.56216 0.0
C231 C 0.45805 0.14202 0.52044 0.0
C232 C 0.33676 0.05588 0.5941 0.0
C233 C 0.34538 0.1696 0.45019 0.0
C234 C 0.22664 0.07557 0.51375 0.0
H235 H 0.42979 0.06702 0.61698 0.0
H236 H 0.49674 0.11375 0.57638 0.0
H237 H 0.50345 0.19582 0.46819 0.0
H238 H 0.44111 0.21035 0.4294 0.0
H239 H 0.25227 0.15579 0.42432 0.0
H240 H 0.18781 0.10338 0.45795 0.0
H241 H 0.17981 0.0257 0.56978 0.0
H242 H 0.24048 0.01489 0.61344 0.0
H243 H 0.24919 0.17108 0.59231 0.0
H244 H 0.39894 0.20843 0.60356 0.0
H245 H 0.28708 1.00052 0.44749 0.0
H246 H 0.437 0.0529 0.43885 0.0
C247 C 0.54516 0.89768 0.075 0.0
C248 C 0.55308 0.92909 0.09005 0.0
C249 C 0.5924 0.95048 0.07096 0.0
C250 C 0.60603 0.93101 0.04536 0.0
N251 N 0.5772 0.8986 0.04636 0.0
Co252 Co 0.58512 0.86131 0.01541 0.0
N253 N 0.64473 0.89226 0.98904 0.0
C254 C 0.66633 0.92526 0.99506 0.0
C255 C 0.70426 0.9404 0.97026 0.0
C256 C 0.70621 0.91584 0.94628 0.0
C257 C 0.66929 0.88705 0.95803 0.0
N258 N 0.59348 0.82395 0.98485 0.0
C259 C 0.62374 0.82541 0.95482 0.0
C260 C 0.61692 0.79402 0.94013 0.0
C261 C 0.5799 0.77197 0.96104 0.0
C262 C 0.56647 0.79113 0.9872 0.0
N263 N 0.52497 0.83039 0.04112 0.0
C264 C 0.50368 0.79734 0.03486 0.0
C265 C 0.46412 0.78237 0.05801 0.0
C266 C 0.46022 0.80711 0.08084 0.0
C267 C 0.49773 0.83604 0.07015 0.0
N268 N 0.54904 0.87142 0.97564 0.0
C269 C 0.50346 0.88466 0.91471 0.0
C270 C 0.4952 0.85188 0.92695 0.0
C271 C 0.51777 0.8459 0.95738 0.0
C272 C 0.5337 0.91088 0.93419 0.0
C273 C 0.55625 0.90373 0.96429 0.0
N274 N 0.62117 0.85108 0.05535 0.0
C275 C 0.6292 0.81191 0.10112 0.0
C276 C 0.66297 0.83753 0.11876 0.0
C277 C 0.67735 0.8698 0.10279 0.0
C278 C 0.65625 0.87594 0.0713 0.0
C279 C 0.60929 0.81913 0.06965 0.0
H280 H 0.66814 0.90114 0.06096 0.0
H281 H 0.58331 0.79847 0.05821 0.0
H282 H 0.50983 0.82034 0.96525 0.0
H283 H 0.5799 0.92467 0.97755 0.0
C284 C 0.64685 0.94203 0.02128 0.0
C285 C 0.50838 0.86748 0.09027 0.0
C286 C 0.65594 0.85623 0.93706 0.0
C287 C 0.52466 0.7802 0.01017 0.0
H288 H 0.53318 0.93562 0.11313 0.0
H289 H 0.60973 0.97687 0.07587 0.0
H290 H 0.72621 0.9666 0.96852 0.0
H291 H 0.73068 0.91913 0.92196 0.0
H292 H 0.63531 0.78807 0.91567 0.0
H293 H 0.56289 0.74553 0.95619 0.0
H294 H 0.44208 0.75619 0.05941 0.0
H295 H 0.43372 0.80363 0.1037 0.0
H296 H 0.47115 0.83081 0.91314 0.0
H297 H 0.54082 0.9367 0.92567 0.0
H298 H 0.61652 0.78648 0.11233 0.0
H299 H 0.7043 0.89042 0.1148 0.0
C300 C 0.84006 1.00113 0.59307 0.0
C301 C 0.88152 1.00059 0.60683 0.0
C302 C 0.91698 0.0273 0.59044 0.0
C303 C 0.89519 0.04247 0.56765 0.0
N304 N 0.84782 0.02763 0.5694 0.0
Co305 Co 0.80236 0.0389 0.53825 0.0
N306 N 0.85498 0.07249 0.5071 0.0
C307 C 0.90175 0.08008 0.5104 0.0
C308 C 0.92941 0.10521 0.48634 0.0
C309 C 0.89856 0.11457 0.46683 0.0
C310 C 0.85354 0.09441 0.48004 0.0
N311 N 0.75665 0.05046 0.5077 0.0
C312 C 0.76454 0.07439 0.48059 0.0
C313 C 0.72269 0.07461 0.46709 0.0
C314 C 0.68704 0.05074 0.48722 0.0
C315 C 0.709 0.03719 0.5116 0.0
N316 N 0.74989 0.00471 0.56875 0.0
C317 C 0.70301 0.99696 0.56612 0.0
C318 C 0.676 0.97016 0.58849 0.0
C319 C 0.70757 0.95945 0.60542 0.0
C320 C 0.75201 0.98045 0.59229 0.0
N321 N 0.80045 0.07467 0.57366 0.0
C322 C 0.79719 0.12838 0.61894 0.0
C323 C 0.75591 0.1032 0.60983 0.0
C324 C 0.75833 0.07684 0.58748 0.0
C325 C 0.84022 0.12564 0.606 0.0
C326 C 0.84102 0.09879 0.58369 0.0
N327 N 0.80412 0.00308 0.50326 0.0
C328 C 0.76212 0.953 0.47077 0.0
C329 C 0.80302 0.94495 0.46481 0.0
C330 C 0.84517 0.96776 0.4763 0.0
C331 C 0.845 0.99666 0.49495 0.0
C332 C 0.76344 0.98187 0.48985 0.0
H333 H 0.87807 0.01292 0.50346 0.0
H334 H 0.7308 0.98599 0.49433 0.0
H335 H 0.72551 0.05883 0.58144 0.0
H336 H 0.87494 0.09851 0.57442 0.0
C337 C 0.91842 0.066 0.53925 0.0
C338 C 0.79495 0.9741 0.5994 0.0
C339 C 0.81059 0.0986 0.46814 0.0
C340 C 0.68586 0.01257 0.53904 0.0
H341 H 0.88606 0.98185 0.62508 0.0
H342 H 0.95445 0.03329 0.59259 0.0
H343 H 0.96745 0.11649 0.48446 0.0
H344 H 0.90832 0.13482 0.44626 0.0
H345 H 0.71836 0.09089 0.44548 0.0
H346 H 0.64956 0.04447 0.48488 0.0
H347 H 0.63802 0.9585 0.59042 0.0
H348 H 0.69909 0.93761 0.6237 0.0
H349 H 0.72165 0.10374 0.61986 0.0
H350 H 0.87327 0.14457 0.61216 0.0
H351 H 0.72886 0.9369 0.46114 0.0
H352 H 0.87797 0.96294 0.47204 0.0
C353 C 0.51805 0.38977 0.08427 0.0
C354 C 0.53059 0.42313 0.09422 0.0
C355 C 0.55962 0.44168 0.06511 0.0
C356 C 0.56347 0.41872 0.03924 0.0
N357 N 0.53885 0.38695 0.05041 0.0
Co358 Co 0.53589 0.34605 0.02255 0.0
N359 N 0.59406 0.37047 0.99123 0.0
C360 C 0.61282 0.40396 0.98603 0.0
C361 C 0.65264 0.41371 0.96208 0.0
C362 C 0.65901 0.38454 0.95127 0.0
C363 C 0.62255 0.35846 0.96937 0.0
N364 N 0.53266 0.30506 0.9947 0.0
C365 C 0.56631 0.29841 0.97266 0.0
C366 C 0.5489 0.26641 0.95837 0.0
C367 C 0.50249 0.25302 0.97136 0.0
C368 C 0.49418 0.27736 0.99297 0.0
N369 N 0.47759 0.32183 0.05368 0.0
C370 C 0.44441 0.29276 0.04539 0.0
C371 C 0.40775 0.28227 0.07243 0.0
C372 C 0.41865 0.30634 0.09926 0.0
C373 C 0.46159 0.33016 0.08704 0.0
N374 N 0.4983 0.35729 0.98577 0.0
C375 C 0.44293 0.37146 0.9329 0.0
C376 C 0.43447 0.37575 0.97126 0.0
C377 C 0.4624 0.36846 0.99717 0.0
C378 C 0.48026 0.36038 0.92171 0.0
C379 C 0.50751 0.35363 0.94842 0.0
N380 N 0.57333 0.33486 0.05929 0.0
C381 C 0.58474 0.29521 0.10218 0.0
C382 C 0.62491 0.31986 0.11446 0.0
C383 C 0.63898 0.35204 0.09808 0.0
C384 C 0.61278 0.359 0.07065 0.0
C385 C 0.55961 0.30318 0.07449 0.0
H386 H 0.62407 0.38411 0.05902 0.0
H387 H 0.52874 0.2838 0.06567 0.0
H388 H 0.45466 0.37162 0.02649 0.0
H389 H 0.53568 0.34498 0.93875 0.0
C390 C 0.59637 0.42529 0.00831 0.0
C391 C 0.4846 0.36143 0.10628 0.0
C392 C 0.61322 0.32282 0.96187 0.0
C393 C 0.4534 0.27338 0.01616 0.0
H394 H 0.52019 0.4331 0.11981 0.0
H395 H 0.5776 0.46854 0.06388 0.0
H396 H 0.67511 0.43901 0.95417 0.0
H397 H 0.68682 0.38271 0.93175 0.0
H398 H 0.56755 0.25421 0.94002 0.0
H399 H 0.47816 0.22816 0.96648 0.0
H400 H 0.37775 0.25921 0.07339 0.0
H401 H 0.39743 0.30638 0.12479 0.0
H402 H 0.40645 0.38463 0.98132 0.0
H403 H 0.48779 0.35601 0.89255 0.0
H404 H 0.57286 0.26992 0.11376 0.0
H405 H 0.66938 0.37203 0.10704 0.0
C406 C 0.21623 0.45172 0.36378 0.0
C407 C 0.20308 0.42798 0.33543 0.0
H408 H 0.19983 0.48974 0.39536 0.0
C409 C 0.16018 0.4227 0.31919 0.0
H410 H 0.24899 0.45633 0.37694 0.0
C411 C 0.13221 0.44179 0.3297 0.0
C412 C 0.14631 0.46655 0.35681 0.0
H413 H 0.14873 0.40446 0.29751 0.0
H414 H 0.09984 0.43759 0.31606 0.0
C415 C 0.18801 0.47076 0.37446 0.0
C416 C 0.19939 0.75256 0.69207 0.0
C417 C 0.23971 0.75254 0.70944 0.0
H418 H 0.13213 0.72286 0.673 0.0
C419 C 0.24357 0.72169 0.7197 0.0
H420 H 0.19536 0.77587 0.68381 0.0
C421 C 0.20751 0.6916 0.7135 0.0
C422 C 0.16709 0.69183 0.69684 0.0
H423 H 0.27414 0.72074 0.7331 0.0
H424 H 0.21076 0.66815 0.72221 0.0
C425 C 0.16332 0.72238 0.68582 0.0
C426 C 0.91951 0.70765 0.34232 0.0
C427 C 0.87368 0.70362 0.3569 0.0
H428 H 0.97635 0.68875 0.3397 0.0
C429 C 0.85007 0.67638 0.38159 0.0
H430 H 0.93862 0.72814 0.32301 0.0
C431 C 0.87202 0.65374 0.39151 0.0
C432 C 0.91805 0.65798 0.37702 0.0
H433 H 0.81465 0.67255 0.39327 0.0
H434 H 0.85319 0.63317 0.4108 0.0
C435 C 0.94132 0.68512 0.35215 0.0
C436 C 0.87282 0.41474 0.68235 0.0
C437 C 0.89324 0.40202 0.71024 0.0
H438 H 0.87548 0.45808 0.65015 0.0
C439 C 0.93653 0.42251 0.72296 0.0
H440 H 0.83946 0.39963 0.67201 0.0
C441 C 0.95715 0.45567 0.71011 0.0
C442 C 0.93494 0.46895 0.68434 0.0
H443 H 0.95336 0.41347 0.74423 0.0
H444 H 0.98912 0.47155 0.72188 0.0
C445 C 0.8934 0.44808 0.66968 0.0
C446 C 0.33182 0.22814 0.37532 0.0
C447 C 0.34548 0.25894 0.39361 0.0
H448 H 0.32281 0.17586 0.37851 0.0
C449 C 0.35977 0.26027 0.43032 0.0
H450 H 0.32126 0.22651 0.34683 0.0
C451 C 0.35933 0.23114 0.4487 0.0
C452 C 0.34544 0.20037 0.43044 0.0
H453 H 0.37055 0.28369 0.44503 0.0
H454 H 0.36975 0.23258 0.47722 0.0
C455 C 0.33258 0.19922 0.39337 0.0
C456 C 0.45317 0.87455 0.81993 0.0
C457 C 0.42469 0.89462 0.82283 0.0
H458 H 0.50063 0.85594 0.84675 0.0
C459 C 0.4266 0.91445 0.85464 0.0
H460 H 0.45293 0.85914 0.79576 0.0
C461 C 0.45427 0.91266 0.88386 0.0
C462 C 0.48009 0.89082 0.88186 0.0
H463 H 0.40524 0.93027 0.85768 0.0
H464 H 0.45352 0.92699 0.9088 0.0
C465 C 0.48038 0.87257 0.84919 0.0
C466 C 0.75755 0.85441 0.43488 0.0
C467 C 0.79305 0.85345 0.40809 0.0
H468 H 0.73357 0.88357 0.47462 0.0
C469 C 0.83383 0.88198 0.40229 0.0
H470 H 0.72592 0.83272 0.44028 0.0
C471 C 0.83776 0.91149 0.42133 0.0
C472 C 0.80118 0.91295 0.44686 0.0
H473 H 0.86171 0.88207 0.38167 0.0
H474 H 0.86856 0.93351 0.41482 0.0
C475 C 0.76174 0.88371 0.45426 0.0
C476 C 0.66072 0.30779 0.86593 0.0
C477 C 0.70609 0.30833 0.87297 0.0
H478 H 0.59579 0.31189 0.88889 0.0
C479 C 0.71906 0.31056 0.91022 0.0
H480 H 0.64956 0.3061 0.83763 0.0
C481 C 0.68803 0.31376 0.93956 0.0
C482 C 0.6435 0.31441 0.9321 0.0
H483 H 0.75381 0.31116 0.91657 0.0
H484 H 0.69931 0.31686 0.96785 0.0
C485 C 0.62981 0.31092 0.8952 0.0
C486 C 0.31135 0.00854 0.68709 0.0
C487 C 0.32441 0.98056 0.67809 0.0
H488 H 0.30548 0.05453 0.66731 0.0
C489 C 0.34378 0.97851 0.64172 0.0
H490 H 0.29644 0.01092 0.71485 0.0
C491 C 0.3488 0.00344 0.61469 0.0
C492 C 0.3347 0.03083 0.6236 0.0
H493 H 0.35423 0.95734 0.63389 0.0
H494 H 0.36282 1.00104 0.5866 0.0
C495 C 0.31653 0.03349 0.66005 0.0
C496 C 0.69947 0.79287 0.19674 0.0
C497 C 0.70543 0.81597 0.22572 0.0
H498 H 0.68293 0.78191 0.13987 0.0
C499 C 0.70011 0.84692 0.21855 0.0
H500 H 0.70375 0.76893 0.20128 0.0
C501 C 0.68763 0.85421 0.18358 0.0
C502 C 0.68053 0.83085 0.15476 0.0
H503 H 0.70438 0.86529 0.24028 0.0
H504 H 0.68196 0.87775 0.17964 0.0
C505 C 0.68735 0.80028 0.16159 0.0
C506 C 0.75923 0.19973 0.65528 0.0
C507 C 0.79086 0.21295 0.68304 0.0
H508 H 0.7369 0.16313 0.61301 0.0
C509 C 0.82481 0.19824 0.68954 0.0
H510 H 0.73278 0.21055 0.64944 0.0
C511 C 0.82696 0.17084 0.66879 0.0
C512 C 0.79518 0.15753 0.6411 0.0
H513 H 0.84964 0.20779 0.71079 0.0
H514 H 0.85311 0.15979 0.6748 0.0
C515 C 0.76139 0.17238 0.63455 0.0
C516 C 0.41315 0.38859 0.18204 0.0
C517 C 0.41917 0.37141 0.2138 0.0
H518 H 0.42887 0.39853 0.123 0.0
C519 C 0.44882 0.35217 0.21012 0.0
H520 H 0.39034 0.40343 0.18374 0.0
C521 C 0.47122 0.34974 0.17531 0.0
C522 C 0.46454 0.36659 0.14372 0.0
H523 H 0.4541 0.33851 0.23395 0.0
H524 H 0.49313 0.33425 0.17287 0.0
C525 C 0.43532 0.38598 0.1473 0.0
C526 C 0.88308 0.71891 0.65073 0.0
C527 C 0.85659 0.71183 0.61909 0.0
H528 H 0.93225 0.70714 0.68313 0.0
C529 C 0.86077 0.6868 0.59487 0.0
H530 H 0.88102 0.73831 0.6697 0.0
C531 C 0.88927 0.6682 0.60306 0.0
C532 C 0.91477 0.67455 0.63541 0.0
H533 H 0.84058 0.68067 0.57033 0.0
H534 H 0.8899 0.64808 0.5847 0.0
C535 C 0.91216 0.70076 0.65858 0.0
C536 C 0.84285 0.40287 0.37867 0.0
C537 C 0.8642 0.37893 0.36968 0.0
H538 H 0.85317 0.45426 0.39082 0.0
C539 C 0.91361 0.38863 0.3689 0.0
H540 H 0.80491 0.39624 0.37967 0.0
C541 C 0.94109 0.42197 0.37508 0.0
C542 C 0.91951 0.44588 0.38257 0.0
H543 H 0.93113 0.37086 0.36191 0.0
H544 H 0.97917 0.42934 0.37285 0.0
C545 C 0.87028 0.43601 0.38515 0.0
C546 C 0.16929 0.44475 0.71131 0.0
C547 C 0.17544 0.43914 0.74892 0.0
H548 H 0.14438 0.4716 0.67241 0.0
C549 C 0.16467 0.45945 0.77638 0.0
H550 H 0.17694 0.4292 0.68962 0.0
C551 C 0.14771 0.48478 0.76646 0.0
C552 C 0.13948 0.48971 0.72893 0.0
H553 H 0.16961 0.45585 0.80557 0.0
H554 H 0.14095 0.50035 0.78846 0.0
C555 C 0.1509 0.46938 0.70148 0.0
C556 C 0.25365 0.69546 0.35481 0.0
C557 C 0.24191 0.72372 0.36523 0.0
H558 H 0.23024 0.64173 0.35259 0.0
C559 C 0.19895 0.71893 0.38595 0.0
H560 H 0.28658 0.69828 0.33899 0.0
C561 C 0.16699 0.68663 0.39365 0.0
C562 C 0.17761 0.65856 0.38117 0.0
H563 H 0.18883 0.74008 0.39448 0.0
H564 H 0.13283 0.68361 0.40752 0.0
C565 C 0.2217 0.66311 0.36274 0.0
C566 C 0.77544 0.88303 0.58032 0.0
C567 C 0.78387 0.87123 0.6149 0.0
H568 H 0.77225 0.92492 0.54868 0.0
C569 C 0.79829 0.89405 0.64396 0.0
H570 H 0.7644 0.86618 0.5573 0.0
C571 C 0.80245 0.92764 0.63899 0.0
C572 C 0.79298 0.93903 0.6047 0.0
H573 H 0.80681 0.88616 0.6704 0.0
H574 H 0.81262 0.94465 0.66198 0.0
C575 C 0.77976 0.91656 0.57535 0.0
C576 C 0.65223 0.28948 0.20707 0.0
C577 C 0.70163 0.30399 0.20569 0.0
H578 H 0.58922 0.28332 0.17948 0.0
C579 C 0.72567 0.32165 0.17299 0.0
H580 H 0.63262 0.27573 0.23184 0.0
C581 C 0.70084 0.3259 0.14299 0.0
C582 C 0.65135 0.31258 0.14493 0.0
H583 H 0.76373 0.33294 0.17083 0.0
H584 H 0.72043 0.34003 0.11842 0.0
C585 C 0.62735 0.29372 0.17699 0.0
C586 C 0.2854 0.26265 0.64474 0.0
C587 C 0.31116 0.26968 0.67687 0.0
H588 H 0.26911 0.23301 0.5956 0.0
C589 C 0.33972 0.25079 0.68446 0.0
H590 H 0.26307 0.27674 0.63812 0.0
C591 C 0.34313 0.22587 0.66023 0.0
C592 C 0.31798 0.21909 0.62782 0.0
H593 H 0.35988 0.25539 0.70904 0.0
H594 H 0.36542 0.21177 0.667 0.0
C595 C 0.28868 0.23751 0.6205 0.0
C596 C 0.49203 0.87014 0.19591 0.0
C597 C 0.44296 0.8619 0.20155 0.0
H598 H 0.55096 0.87768 0.15588 0.0
C599 C 0.41609 0.85841 0.17022 0.0
H600 H 0.5136 0.87288 0.2195 0.0
C601 C 0.43762 0.8618 0.13397 0.0
C602 C 0.48611 0.86777 0.12848 0.0
H603 H 0.37825 0.85234 0.17374 0.0
H604 H 0.41618 0.85848 0.11021 0.0
C605 C 0.51338 0.87279 0.15963 0.0
C606 C 0.79354 0.17953 0.44058 0.0
C607 C 0.81273 0.18461 0.40329 0.0
H608 H 0.77883 0.14857 0.49042 0.0
C609 C 0.83255 0.16166 0.38772 0.0
H610 H 0.7781 0.19676 0.4534 0.0
C611 C 0.83223 0.13383 0.40878 0.0
C612 C 0.81302 0.12886 0.44598 0.0
H613 H 0.8473 0.16475 0.35899 0.0
H614 H 0.84654 0.11599 0.39592 0.0
C615 C 0.79397 0.15203 0.46177 0.0
C616 C 0.33314 0.36845 0.88514 0.0
C617 C 0.35158 0.37882 0.84833 0.0
H618 H 0.34717 0.35731 0.94043 0.0
C619 C 0.40068 0.39003 0.84057 0.0
H620 H 0.29545 0.35953 0.89206 0.0
C621 C 0.43048 0.38923 0.86848 0.0
C622 C 0.41188 0.37678 0.90473 0.0
H623 H 0.41609 0.39851 0.81259 0.0
H624 H 0.46808 0.39762 0.86132 0.0
C625 C 0.3629 0.36728 0.91298 0.0
C626 C 0.34549 0.94792 0.37672 0.0
C627 C 0.38407 0.93818 0.38398 0.0
H628 H 0.30906 0.9824 0.38817 0.0
C629 C 0.41586 0.95653 0.40959 0.0
H630 H 0.32043 0.93439 0.35702 0.0
C631 C 0.40908 0.9838 0.42775 0.0
C632 C 0.37048 0.99361 0.4206 0.0
H633 H 0.4458 0.94961 0.41601 0.0
H634 H 0.43372 0.9968 0.44797 0.0
C635 C 0.33882 0.97535 0.39475 0.0
C636 C 0.72478 0.85742 0.84448 0.0
C637 C 0.69022 0.85413 0.81883 0.0
H638 H 0.74079 0.86059 0.9023 0.0
C639 C 0.64496 0.85278 0.83248 0.0
H640 H 0.75994 0.85845 0.83492 0.0
C641 C 0.63429 0.8541 0.8709 0.0
C642 C 0.66867 0.85692 0.89632 0.0
H643 H 0.61753 0.85025 0.81355 0.0
H644 H 0.59901 0.85256 0.88088 0.0
C645 C 0.71401 0.85871 0.88294 0.0
loop_
_geom_bond_atom_site_label_1
_geom_bond_atom_site_label_2
_geom_bond_distance
_geom_bond_site_symmetry_2
_ccdc_geom_bond_type
O0 Cd1 2.300 . S
O0 C7 1.275 . S
Cd1 O0 2.300 . S
Cd1 O9 2.381 . S
Cd1 O10 2.378 . S
O2 Cd3 2.385 . S
O2 C7 1.255 . S
Cd3 O2 2.385 . S
Cd3 O4 2.317 . S
O4 Cd3 2.317 . S
O4 C5 1.232 . S
C5 O4 1.232 . S
C5 O6 1.218 . S
O6 C5 1.218 . S
C7 O0 1.275 . S
C7 O2 1.255 . S
C8 O9 1.258 . S
C8 O10 1.256 . S
O9 Cd1 2.381 . S
O9 C8 1.258 . S
O10 Cd1 2.378 . S
O10 C8 1.256 . S
O11 Cd12 2.300 . S
O11 C18 1.275 . S
Cd12 O11 2.300 . S
Cd12 O20 2.381 . S
Cd12 O21 2.378 . S
O13 Cd14 2.385 . S
O13 C18 1.255 . S
Cd14 O13 2.385 . S
Cd14 O15 2.317 . S
O15 Cd14 2.317 . S
O15 C16 1.232 . S
C16 O15 1.232 . S
C16 O17 1.218 . S
O17 C16 1.218 . S
C18 O11 1.275 . S
C18 O13 1.255 . S
C19 O20 1.258 . S
C19 O21 1.256 . S
O20 Cd12 2.381 . S
O20 C19 1.258 . S
O21 Cd12 2.378 . S
O21 C19 1.256 . S
O22 Cd23 2.300 . S
O22 C29 1.275 . S
Cd23 O22 2.300 . S
Cd23 O31 2.381 . S
Cd23 O32 2.378 . S
O24 Cd25 2.385 . S
O24 C29 1.255 . S
Cd25 O24 2.385 . S
Cd25 O26 2.317 . S
O26 Cd25 2.317 . S
O26 C27 1.232 . S
C27 O26 1.232 . S
C27 O28 1.218 . S
O28 C27 1.218 . S
C29 O22 1.275 . S
C29 O24 1.255 . S
C30 O31 1.258 . S
C30 O32 1.256 . S
O31 Cd23 2.381 . S
O31 C30 1.258 . S
O32 Cd23 2.378 . S
O32 C30 1.256 . S
O33 Cd34 2.300 . S
O33 C40 1.275 . S
Cd34 O33 2.300 . S
Cd34 O42 2.381 . S
Cd34 O43 2.378 . S
O35 Cd36 2.385 . S
O35 C40 1.255 . S
Cd36 O35 2.385 . S
Cd36 O37 2.317 . S
O37 Cd36 2.317 . S
O37 C38 1.232 . S
C38 O37 1.232 . S
C38 O39 1.218 . S
O39 C38 1.218 . S
C40 O33 1.275 . S
C40 O35 1.255 . S
C41 O42 1.258 . S
C41 O43 1.256 . S
O42 Cd34 2.381 . S
O42 C41 1.258 . S
O43 Cd34 2.378 . S
O43 C41 1.256 . S
O44 Cd45 2.300 . S
O44 C51 1.275 . S
Cd45 O44 2.300 . S
Cd45 O53 2.381 . S
Cd45 O54 2.378 . S
O46 Cd47 2.385 . S
O46 C51 1.255 . S
Cd47 O46 2.385 . S
Cd47 O48 2.317 . S
O48 Cd47 2.317 . S
O48 C49 1.232 . S
C49 O48 1.232 . S
C49 O50 1.218 . S
O50 C49 1.218 . S
C51 O44 1.275 . S
C51 O46 1.255 . S
C52 O53 1.258 . S
C52 O54 1.256 . S
O53 Cd45 2.381 . S
O53 C52 1.258 . S
O54 Cd45 2.378 . S
O54 C52 1.256 . S
O55 Cd56 2.300 . S
O55 C62 1.275 . S
Cd56 O55 2.300 . S
Cd56 O64 2.381 . S
Cd56 O65 2.378 . S
O57 Cd58 2.385 . S
O57 C62 1.255 . S
Cd58 O57 2.385 . S
Cd58 O59 2.317 . S
O59 Cd58 2.317 . S
O59 C60 1.232 . S
C60 O59 1.232 . S
C60 O61 1.218 . S
O61 C60 1.218 . S
C62 O55 1.275 . S
C62 O57 1.255 . S
C63 O64 1.258 . S
C63 O65 1.256 . S
O64 Cd56 2.381 . S
O64 C63 1.258 . S
O65 Cd56 2.378 . S
O65 C63 1.256 . S
O66 Cd67 2.300 . S
O66 C73 1.275 . S
Cd67 O66 2.300 . S
Cd67 O75 2.381 . S
Cd67 O76 2.378 . S
O68 Cd69 2.385 . S
O68 C73 1.255 . S
Cd69 O68 2.385 . S
Cd69 O70 2.317 . S
O70 Cd69 2.317 . S
O70 C71 1.232 . S
C71 O70 1.232 . S
C71 O72 1.218 . S
O72 C71 1.218 . S
C73 O66 1.275 . S
C73 O68 1.255 . S
C74 O75 1.258 . S
C74 O76 1.256 . S
O75 Cd67 2.381 . S
O75 C74 1.258 . S
O76 Cd67 2.378 . S
O76 C74 1.256 . S
O77 Cd78 2.300 . S
O77 C84 1.275 . S
Cd78 O77 2.300 . S
Cd78 O86 2.381 . S
Cd78 O87 2.378 . S
O79 Cd80 2.385 . S
O79 C84 1.255 . S
Cd80 O79 2.385 . S
Cd80 O81 2.317 . S
O81 Cd80 2.317 . S
O81 C82 1.232 . S
C82 O81 1.232 . S
C82 O83 1.218 . S
O83 C82 1.218 . S
C84 O77 1.275 . S
C84 O79 1.255 . S
C85 O86 1.258 . S
C85 O87 1.256 . S
O86 Cd78 2.381 . S
O86 C85 1.258 . S
O87 Cd78 2.378 . S
O87 C85 1.256 . S
C88 C89 1.443 . S
C88 N92 1.376 . S
C88 C126 1.389 . S
C89 C88 1.443 . S
C89 C90 1.340 . S
C89 H129 0.951 . S
C90 C89 1.340 . S
C90 C91 1.439 . S
C90 H130 0.950 . S
C91 C90 1.439 . S
C91 N92 1.374 . S
C91 C125 1.395 . S
N92 C88 1.376 . S
N92 C91 1.374 . S
N92 Co93 2.008 . S
Co93 N92 2.008 . S
Co93 N94 1.995 . S
Co93 N99 2.008 . S
Co93 N104 1.995 . S
Co93 N109 2.282 . S
Co93 N115 2.282 . S
N94 Co93 1.995 . S
N94 C95 1.376 . S
N94 C98 1.383 1_455 S
C95 N94 1.376 . S
C95 C96 1.446 1_455 S
C95 C125 1.391 . S
C96 C95 1.446 1_655 S
C96 C97 1.339 . S
C96 H131 0.949 . S
C97 C96 1.339 . S
C97 C98 1.439 . S
C97 H132 0.950 . S
C98 N94 1.383 1_655 S
C98 C97 1.439 . S
C98 C127 1.392 . S
N99 Co93 2.008 . S
N99 C100 1.376 . S
N99 C103 1.374 . S
C100 N99 1.376 . S
C100 C101 1.443 . S
C100 C127 1.389 1_455 S
C101 C100 1.443 . S
C101 C102 1.340 . S
C101 H133 0.951 1_455 S
C102 C101 1.340 . S
C102 C103 1.439 . S
C102 H134 0.950 . S
C103 N99 1.374 . S
C103 C102 1.439 . S
C103 C128 1.395 . S
N104 Co93 1.995 . S
N104 C105 1.376 . S
N104 C108 1.383 . S
C105 N104 1.376 . S
C105 C106 1.446 . S
C105 C128 1.391 . S
C106 C105 1.446 . S
C106 C107 1.339 . S
C106 H135 0.949 . S
C107 C106 1.339 . S
C107 C108 1.439 . S
C107 H136 0.950 . S
C108 N104 1.383 . S
C108 C107 1.439 . S
C108 C126 1.392 . S
N109 Co93 2.282 . S
N109 C112 1.332 . S
N109 C114 1.332 . S
C110 C111 1.386 . S
C110 C113 1.388 . S
C111 C110 1.386 . S
C111 C112 1.382 . S
C111 H137 0.950 . S
C112 N109 1.332 . S
C112 C111 1.382 . S
C112 H123 0.952 . S
C113 C110 1.388 . S
C113 C114 1.382 . S
C113 H138 0.950 . S
C114 N109 1.332 . S
C114 C113 1.382 . S
C114 H124 0.948 . S
N115 Co93 2.282 . S
N115 C119 1.332 1_455 S
N115 C120 1.332 . S
C116 C117 1.388 . S
C116 C120 1.382 1_655 S
C116 H139 0.950 . S
C117 C116 1.388 . S
C117 C118 1.386 . S
C118 C117 1.386 . S
C118 C119 1.382 . S
C118 H140 0.950 . S
C119 N115 1.332 1_655 S
C119 C118 1.382 . S
C119 H121 0.952 . S
C120 N115 1.332 . S
C120 C116 1.382 1_455 S
C120 H122 0.948 . S
H121 C119 0.952 . S
H122 C120 0.948 . S
H123 C112 0.952 . S
H124 C114 0.948 . S
C125 C91 1.395 . S
C125 C95 1.391 . S
C126 C88 1.389 . S
C126 C108 1.392 . S
C127 C98 1.392 . S
C127 C100 1.389 1_655 S
C128 C103 1.395 . S
C128 C105 1.391 . S
H129 C89 0.951 . S
H130 C90 0.950 . S
H131 C96 0.949 . S
H132 C97 0.950 . S
H133 C101 0.951 1_655 S
H134 C102 0.950 . S
H135 C106 0.949 . S
H136 C107 0.950 . S
H137 C111 0.950 . S
H138 C113 0.950 . S
H139 C116 0.950 . S
H140 C118 0.950 . S
C141 C142 1.443 . S
C141 N145 1.376 . S
C141 C179 1.389 . S
C142 C141 1.443 . S
C142 C143 1.340 . S
C142 H182 0.951 . S
C143 C142 1.340 . S
C143 C144 1.439 . S
C143 H183 0.950 . S
C144 C143 1.439 . S
C144 N145 1.374 . S
C144 C178 1.395 1_455 S
N145 C141 1.376 . S
N145 C144 1.374 . S
N145 Co146 2.008 . S
Co146 N145 2.008 . S
Co146 N147 1.995 1_455 S
Co146 N152 2.008 1_455 S
Co146 N157 1.995 . S
Co146 N162 2.282 . S
Co146 N168 2.282 1_455 S
N147 Co146 1.995 1_655 S
N147 C148 1.376 . S
N147 C151 1.383 . S
C148 N147 1.376 . S
C148 C149 1.446 . S
C148 C178 1.391 . S
C149 C148 1.446 . S
C149 C150 1.339 . S
C149 H184 0.949 . S
C150 C149 1.339 . S
C150 C151 1.439 . S
C150 H185 0.950 . S
C151 N147 1.383 . S
C151 C150 1.439 . S
C151 C180 1.392 . S
N152 Co146 2.008 1_655 S
N152 C153 1.376 . S
N152 C156 1.374 1_655 S
C153 N152 1.376 . S
C153 C154 1.443 . S
C153 C180 1.389 . S
C154 C153 1.443 . S
C154 C155 1.340 . S
C154 H186 0.951 . S
C155 C154 1.340 . S
C155 C156 1.439 1_655 S
C155 H187 0.950 . S
C156 N152 1.374 1_455 S
C156 C155 1.439 1_455 S
C156 C181 1.395 . S
N157 Co146 1.995 . S
N157 C158 1.376 . S
N157 C161 1.383 . S
C158 N157 1.376 . S
C158 C159 1.446 . S
C158 C181 1.391 . S
C159 C158 1.446 . S
C159 C160 1.339 . S
C159 H188 0.949 . S
C160 C159 1.339 . S
C160 C161 1.439 . S
C160 H189 0.950 . S
C161 N157 1.383 . S
C161 C160 1.439 . S
C161 C179 1.392 . S
N162 Co146 2.282 . S
N162 C165 1.332 . S
N162 C167 1.332 . S
C163 C164 1.386 . S
C163 C166 1.388 . S
C164 C163 1.386 . S
C164 C165 1.382 . S
C164 H190 0.950 . S
C165 N162 1.332 . S
C165 C164 1.382 . S
C165 H176 0.952 . S
C166 C163 1.388 . S
C166 C167 1.382 . S
C166 H191 0.950 . S
C167 N162 1.332 . S
C167 C166 1.382 . S
C167 H177 0.948 . S
N168 Co146 2.282 1_655 S
N168 C172 1.332 . S
N168 C173 1.332 . S
C169 C170 1.388 . S
C169 C173 1.382 . S
C169 H192 0.950 . S
C170 C169 1.388 . S
C170 C171 1.386 . S
C171 C170 1.386 . S
C171 C172 1.382 . S
C171 H193 0.950 . S
C172 N168 1.332 . S
C172 C171 1.382 . S
C172 H174 0.952 . S
C173 N168 1.332 . S
C173 C169 1.382 . S
C173 H175 0.948 . S
H174 C172 0.952 . S
H175 C173 0.948 . S
H176 C165 0.952 . S
H177 C167 0.948 . S
C178 C144 1.395 1_655 S
C178 C148 1.391 . S
C179 C141 1.389 . S
C179 C161 1.392 . S
C180 C151 1.392 . S
C180 C153 1.389 . S
C181 C156 1.395 . S
C181 C158 1.391 . S
H182 C142 0.951 . S
H183 C143 0.950 . S
H184 C149 0.949 . S
H185 C150 0.950 . S
H186 C154 0.951 . S
H187 C155 0.950 . S
H188 C159 0.949 . S
H189 C160 0.950 . S
H190 C164 0.950 . S
H191 C166 0.950 . S
H192 C169 0.950 . S
H193 C171 0.950 . S
C194 C195 1.443 . S
C194 N198 1.376 . S
C194 C232 1.389 . S
C195 C194 1.443 . S
C195 C196 1.340 . S
C195 H235 0.951 . S
C196 C195 1.340 . S
C196 C197 1.439 . S
C196 H236 0.950 . S
C197 C196 1.439 . S
C197 N198 1.374 . S
C197 C231 1.395 . S
N198 C194 1.376 . S
N198 C197 1.374 . S
N198 Co199 2.008 . S
Co199 N198 2.008 . S
Co199 N200 1.995 . S
Co199 N205 2.008 . S
Co199 N210 1.995 . S
Co199 N215 2.282 . S
Co199 N221 2.282 . S
N200 Co199 1.995 . S
N200 C201 1.376 . S
N200 C204 1.383 . S
C201 N200 1.376 . S
C201 C202 1.446 . S
C201 C231 1.391 . S
C202 C201 1.446 . S
C202 C203 1.339 . S
C202 H237 0.949 . S
C203 C202 1.339 . S
C203 C204 1.439 . S
C203 H238 0.950 . S
C204 N200 1.383 . S
C204 C203 1.439 . S
C204 C233 1.392 . S
N205 Co199 2.008 . S
N205 C206 1.376 . S
N205 C209 1.374 . S
C206 N205 1.376 . S
C206 C207 1.443 . S
C206 C233 1.389 . S
C207 C206 1.443 . S
C207 C208 1.340 . S
C207 H239 0.951 . S
C208 C207 1.340 . S
C208 C209 1.439 . S
C208 H240 0.950 . S
C209 N205 1.374 . S
C209 C208 1.439 . S
C209 C234 1.395 . S
N210 Co199 1.995 . S
N210 C211 1.376 . S
N210 C214 1.383 . S
C211 N210 1.376 . S
C211 C212 1.446 . S
C211 C234 1.391 . S
C212 C211 1.446 . S
C212 C213 1.339 . S
C212 H241 0.949 . S
C213 C212 1.339 . S
C213 C214 1.439 . S
C213 H242 0.950 . S
C214 N210 1.383 . S
C214 C213 1.439 . S
C214 C232 1.392 . S
N215 Co199 2.282 . S
N215 C218 1.332 . S
N215 C220 1.332 . S
C216 C217 1.386 . S
C216 C219 1.388 . S
C217 C216 1.386 . S
C217 C218 1.382 . S
C217 H243 0.950 . S
C218 N215 1.332 . S
C218 C217 1.382 . S
C218 H229 0.952 . S
C219 C216 1.388 . S
C219 C220 1.382 . S
C219 H244 0.950 . S
C220 N215 1.332 . S
C220 C219 1.382 . S
C220 H230 0.948 . S
N221 Co199 2.282 . S
N221 C225 1.332 . S
N221 C226 1.332 . S
C222 C223 1.388 . S
C222 C226 1.382 . S
C222 H245 0.950 . S
C223 C222 1.388 . S
C223 C224 1.386 . S
C224 C223 1.386 . S
C224 C225 1.382 . S
C224 H246 0.950 . S
C225 N221 1.332 . S
C225 C224 1.382 . S
C225 H227 0.952 . S
C226 N221 1.332 . S
C226 C222 1.382 . S
C226 H228 0.948 . S
H227 C225 0.952 . S
H228 C226 0.948 . S
H229 C218 0.952 . S
H230 C220 0.948 . S
C231 C197 1.395 . S
C231 C201 1.391 . S
C232 C194 1.389 . S
C232 C214 1.392 . S
C233 C204 1.392 . S
C233 C206 1.389 . S
C234 C209 1.395 . S
C234 C211 1.391 . S
H235 C195 0.951 . S
H236 C196 0.950 . S
H237 C202 0.949 . S
H238 C203 0.950 . S
H239 C207 0.951 . S
H240 C208 0.950 . S
H241 C212 0.949 . S
H242 C213 0.950 . S
H243 C217 0.950 . S
H244 C219 0.950 . S
H245 C222 0.950 . S
H246 C224 0.950 . S
C247 C248 1.443 . S
C247 N251 1.376 . S
C247 C285 1.389 . S
C248 C247 1.443 . S
C248 C249 1.340 . S
C248 H288 0.951 . S
C249 C248 1.340 . S
C249 C250 1.439 . S
C249 H289 0.950 . S
C250 C249 1.439 . S
C250 N251 1.374 . S
C250 C284 1.395 . S
N251 C247 1.376 . S
N251 C250 1.374 . S
N251 Co252 2.008 . S
Co252 N251 2.008 . S
Co252 N253 1.995 1_554 S
Co252 N258 2.008 1_554 S
Co252 N263 1.995 . S
Co252 N268 2.282 1_554 S
Co252 N274 2.282 . S
N253 Co252 1.995 1_556 S
N253 C254 1.376 . S
N253 C257 1.383 . S
C254 N253 1.376 . S
C254 C255 1.446 . S
C254 C284 1.391 1_556 S
C255 C254 1.446 . S
C255 C256 1.339 . S
C255 H290 0.949 . S
C256 C255 1.339 . S
C256 C257 1.439 . S
C256 H291 0.950 . S
C257 N253 1.383 . S
C257 C256 1.439 . S
C257 C286 1.392 . S
N258 Co252 2.008 1_556 S
N258 C259 1.376 . S
N258 C262 1.374 . S
C259 N258 1.376 . S
C259 C260 1.443 . S
C259 C286 1.389 . S
C260 C259 1.443 . S
C260 C261 1.340 . S
C260 H292 0.951 . S
C261 C260 1.340 . S
C261 C262 1.439 . S
C261 H293 0.950 . S
C262 N258 1.374 . S
C262 C261 1.439 . S
C262 C287 1.395 1_556 S
N263 Co252 1.995 . S
N263 C264 1.376 . S
N263 C267 1.383 . S
C264 N263 1.376 . S
C264 C265 1.446 . S
C264 C287 1.391 . S
C265 C264 1.446 . S
C265 C266 1.339 . S
C265 H294 0.949 . S
C266 C265 1.339 . S
C266 C267 1.439 . S
C266 H295 0.950 . S
C267 N263 1.383 . S
C267 C266 1.439 . S
C267 C285 1.392 . S
N268 Co252 2.282 1_556 S
N268 C271 1.332 . S
N268 C273 1.332 . S
C269 C270 1.386 . S
C269 C272 1.388 . S
C270 C269 1.386 . S
C270 C271 1.382 . S
C270 H296 0.950 . S
C271 N268 1.332 . S
C271 C270 1.382 . S
C271 H282 0.952 . S
C272 C269 1.388 . S
C272 C273 1.382 . S
C272 H297 0.950 . S
C273 N268 1.332 . S
C273 C272 1.382 . S
C273 H283 0.948 . S
N274 Co252 2.282 . S
N274 C278 1.332 . S
N274 C279 1.332 . S
C275 C276 1.388 . S
C275 C279 1.382 . S
C275 H298 0.950 . S
C276 C275 1.388 . S
C276 C277 1.386 . S
C277 C276 1.386 . S
C277 C278 1.382 . S
C277 H299 0.950 . S
C278 N274 1.332 . S
C278 C277 1.382 . S
C278 H280 0.952 . S
C279 N274 1.332 . S
C279 C275 1.382 . S
C279 H281 0.948 . S
H280 C278 0.952 . S
H281 C279 0.948 . S
H282 C271 0.952 . S
H283 C273 0.948 . S
C284 C250 1.395 . S
C284 C254 1.391 1_554 S
C285 C247 1.389 . S
C285 C267 1.392 . S
C286 C257 1.392 . S
C286 C259 1.389 . S
C287 C262 1.395 1_554 S
C287 C264 1.391 . S
H288 C248 0.951 . S
H289 C249 0.950 . S
H290 C255 0.949 . S
H291 C256 0.950 . S
H292 C260 0.951 . S
H293 C261 0.950 . S
H294 C265 0.949 . S
H295 C266 0.950 . S
H296 C270 0.950 . S
H297 C272 0.950 . S
H298 C275 0.950 . S
H299 C277 0.950 . S
C300 C301 1.443 . S
C300 N304 1.376 1_565 S
C300 C338 1.389 . S
C301 C300 1.443 . S
C301 C302 1.340 1_565 S
C301 H341 0.951 . S
C302 C301 1.340 1_545 S
C302 C303 1.439 . S
C302 H342 0.950 . S
C303 C302 1.439 . S
C303 N304 1.374 . S
C303 C337 1.395 . S
N304 C300 1.376 1_545 S
N304 C303 1.374 . S
N304 Co305 2.008 . S
Co305 N304 2.008 . S
Co305 N306 1.995 . S
Co305 N311 2.008 . S
Co305 N316 1.995 1_545 S
Co305 N321 2.282 . S
Co305 N327 2.282 1_545 S
N306 Co305 1.995 . S
N306 C307 1.376 . S
N306 C310 1.383 . S
C307 N306 1.376 . S
C307 C308 1.446 . S
C307 C337 1.391 . S
C308 C307 1.446 . S
C308 C309 1.339 . S
C308 H343 0.949 . S
C309 C308 1.339 . S
C309 C310 1.439 . S
C309 H344 0.950 . S
C310 N306 1.383 . S
C310 C309 1.439 . S
C310 C339 1.392 . S
N311 Co305 2.008 . S
N311 C312 1.376 . S
N311 C315 1.374 . S
C312 N311 1.376 . S
C312 C313 1.443 . S
C312 C339 1.389 . S
C313 C312 1.443 . S
C313 C314 1.340 . S
C313 H345 0.951 . S
C314 C313 1.340 . S
C314 C315 1.439 . S
C314 H346 0.950 . S
C315 N311 1.374 . S
C315 C314 1.439 . S
C315 C340 1.395 . S
N316 Co305 1.995 1_565 S
N316 C317 1.376 . S
N316 C320 1.383 . S
C317 N316 1.376 . S
C317 C318 1.446 . S
C317 C340 1.391 1_565 S
C318 C317 1.446 . S
C318 C319 1.339 . S
C318 H347 0.949 . S
C319 C318 1.339 . S
C319 C320 1.439 . S
C319 H348 0.950 . S
C320 N316 1.383 . S
C320 C319 1.439 . S
C320 C338 1.392 . S
N321 Co305 2.282 . S
N321 C324 1.332 . S
N321 C326 1.332 . S
C322 C323 1.386 . S
C322 C325 1.388 . S
C323 C322 1.386 . S
C323 C324 1.382 . S
C323 H349 0.950 . S
C324 N321 1.332 . S
C324 C323 1.382 . S
C324 H335 0.952 . S
C325 C322 1.388 . S
C325 C326 1.382 . S
C325 H350 0.950 . S
C326 N321 1.332 . S
C326 C325 1.382 . S
C326 H336 0.948 . S
N327 Co305 2.282 1_565 S
N327 C331 1.332 . S
N327 C332 1.332 . S
C328 C329 1.388 . S
C328 C332 1.382 . S
C328 H351 0.950 . S
C329 C328 1.388 . S
C329 C330 1.386 . S
C330 C329 1.386 . S
C330 C331 1.382 . S
C330 H352 0.950 . S
C331 N327 1.332 . S
C331 C330 1.382 . S
C331 H333 0.952 1_565 S
C332 N327 1.332 . S
C332 C328 1.382 . S
C332 H334 0.948 . S
H333 C331 0.952 1_545 S
H334 C332 0.948 . S
H335 C324 0.952 . S
H336 C326 0.948 . S
C337 C303 1.395 . S
C337 C307 1.391 . S
C338 C300 1.389 . S
C338 C320 1.392 . S
C339 C310 1.392 . S
C339 C312 1.389 . S
C340 C315 1.395 . S
C340 C317 1.391 1_545 S
H341 C301 0.951 . S
H342 C302 0.950 . S
H343 C308 0.949 . S
H344 C309 0.950 . S
H345 C313 0.951 . S
H346 C314 0.950 . S
H347 C318 0.949 . S
H348 C319 0.950 . S
H349 C323 0.950 . S
H350 C325 0.950 . S
H351 C328 0.950 . S
H352 C330 0.950 . S
C353 C354 1.443 . S
C353 N357 1.376 . S
C353 C391 1.389 . S
C354 C353 1.443 . S
C354 C355 1.340 . S
C354 H394 0.951 . S
C355 C354 1.340 . S
C355 C356 1.439 . S
C355 H395 0.950 . S
C356 C355 1.439 . S
C356 N357 1.374 . S
C356 C390 1.395 . S
N357 C353 1.376 . S
N357 C356 1.374 . S
N357 Co358 2.008 . S
Co358 N357 2.008 . S
Co358 N359 1.995 . S
Co358 N364 2.008 . S
Co358 N369 1.995 . S
Co358 N374 2.282 1_554 S
Co358 N380 2.282 . S
N359 Co358 1.995 . S
N359 C360 1.376 . S
N359 C363 1.383 1_554 S
C360 N359 1.376 . S
C360 C361 1.446 1_554 S
C360 C390 1.391 . S
C361 C360 1.446 1_556 S
C361 C362 1.339 . S
C361 H396 0.949 . S
C362 C361 1.339 . S
C362 C363 1.439 . S
C362 H397 0.950 . S
C363 N359 1.383 1_556 S
C363 C362 1.439 . S
C363 C392 1.392 . S
N364 Co358 2.008 . S
N364 C365 1.376 1_554 S
N364 C368 1.374 . S
C365 N364 1.376 1_556 S
C365 C366 1.443 . S
C365 C392 1.389 . S
C366 C365 1.443 . S
C366 C367 1.340 . S
C366 H398 0.951 . S
C367 C366 1.340 . S
C367 C368 1.439 1_556 S
C367 H399 0.950 . S
C368 N364 1.374 . S
C368 C367 1.439 1_554 S
C368 C393 1.395 . S
N369 Co358 1.995 . S
N369 C370 1.376 . S
N369 C373 1.383 . S
C370 N369 1.376 . S
C370 C371 1.446 . S
C370 C393 1.391 . S
C371 C370 1.446 . S
C371 C372 1.339 . S
C371 H400 0.949 . S
C372 C371 1.339 . S
C372 C373 1.439 . S
C372 H401 0.950 . S
C373 N369 1.383 . S
C373 C372 1.439 . S
C373 C391 1.392 . S
N374 Co358 2.282 1_556 S
N374 C377 1.332 . S
N374 C379 1.332 . S
C375 C376 1.386 . S
C375 C378 1.388 . S
C376 C375 1.386 . S
C376 C377 1.382 . S
C376 H402 0.950 . S
C377 N374 1.332 . S
C377 C376 1.382 . S
C377 H388 0.952 1_556 S
C378 C375 1.388 . S
C378 C379 1.382 . S
C378 H403 0.950 . S
C379 N374 1.332 . S
C379 C378 1.382 . S
C379 H389 0.948 . S
N380 Co358 2.282 . S
N380 C384 1.332 . S
N380 C385 1.332 . S
C381 C382 1.388 . S
C381 C385 1.382 . S
C381 H404 0.950 . S
C382 C381 1.388 . S
C382 C383 1.386 . S
C383 C382 1.386 . S
C383 C384 1.382 . S
C383 H405 0.950 . S
C384 N380 1.332 . S
C384 C383 1.382 . S
C384 H386 0.952 . S
C385 N380 1.332 . S
C385 C381 1.382 . S
C385 H387 0.948 . S
H386 C384 0.952 . S
H387 C385 0.948 . S
H388 C377 0.952 1_554 S
H389 C379 0.948 . S
C390 C356 1.395 . S
C390 C360 1.391 . S
C391 C353 1.389 . S
C391 C373 1.392 . S
C392 C363 1.392 . S
C392 C365 1.389 . S
C393 C368 1.395 . S
C393 C370 1.391 . S
H394 C354 0.951 . S
H395 C355 0.950 . S
H396 C361 0.949 . S
H397 C362 0.950 . S
H398 C366 0.951 . S
H399 C367 0.950 . S
H400 C371 0.949 . S
H401 C372 0.950 . S
H402 C376 0.950 . S
H403 C378 0.950 . S
H404 C381 0.950 . S
H405 C383 0.950 . S
C406 C407 1.387 . S
C406 H410 0.950 . S
C406 C415 1.390 . S
C407 C406 1.387 . S
C407 C409 1.387 . S
H408 C415 0.950 . S
C409 C407 1.387 . S
C409 C411 1.390 . S
C409 H413 0.950 . S
H410 C406 0.950 . S
C411 C409 1.390 . S
C411 C412 1.387 . S
C411 H414 0.950 . S
C412 C411 1.387 . S
C412 C415 1.387 . S
H413 C409 0.950 . S
H414 C411 0.950 . S
C415 C406 1.390 . S
C415 H408 0.950 . S
C415 C412 1.387 . S
C416 C417 1.387 . S
C416 H420 0.950 . S
C416 C425 1.390 . S
C417 C416 1.387 . S
C417 C419 1.387 . S
H418 C425 0.950 . S
C419 C417 1.387 . S
C419 C421 1.390 . S
C419 H423 0.950 . S
H420 C416 0.950 . S
C421 C419 1.390 . S
C421 C422 1.387 . S
C421 H424 0.950 . S
C422 C421 1.387 . S
C422 C425 1.387 . S
H423 C419 0.950 . S
H424 C421 0.950 . S
C425 C416 1.390 . S
C425 H418 0.950 . S
C425 C422 1.387 . S
C426 C427 1.387 . S
C426 H430 0.950 . S
C426 C435 1.390 . S
C427 C426 1.387 . S
C427 C429 1.387 . S
H428 C435 0.950 . S
C429 C427 1.387 . S
C429 C431 1.390 . S
C429 H433 0.950 . S
H430 C426 0.950 . S
C431 C429 1.390 . S
C431 C432 1.387 . S
C431 H434 0.950 . S
C432 C431 1.387 . S
C432 C435 1.387 . S
H433 C429 0.950 . S
H434 C431 0.950 . S
C435 C426 1.390 . S
C435 H428 0.950 . S
C435 C432 1.387 . S
C436 C437 1.387 . S
C436 H440 0.950 . S
C436 C445 1.390 . S
C437 C436 1.387 . S
C437 C439 1.387 . S
H438 C445 0.950 . S
C439 C437 1.387 . S
C439 C441 1.390 . S
C439 H443 0.950 . S
H440 C436 0.950 . S
C441 C439 1.390 . S
C441 C442 1.387 . S
C441 H444 0.950 . S
C442 C441 1.387 . S
C442 C445 1.387 . S
H443 C439 0.950 . S
H444 C441 0.950 . S
C445 C436 1.390 . S
C445 H438 0.950 . S
C445 C442 1.387 . S
C446 C447 1.387 . S
C446 H450 0.950 . S
C446 C455 1.390 . S
C447 C446 1.387 . S
C447 C449 1.387 . S
H448 C455 0.950 . S
C449 C447 1.387 . S
C449 C451 1.390 . S
C449 H453 0.950 . S
H450 C446 0.950 . S
C451 C449 1.390 . S
C451 C452 1.387 . S
C451 H454 0.950 . S
C452 C451 1.387 . S
C452 C455 1.387 . S
H453 C449 0.950 . S
H454 C451 0.950 . S
C455 C446 1.390 . S
C455 H448 0.950 . S
C455 C452 1.387 . S
C456 C457 1.387 . S
C456 H460 0.950 . S
C456 C465 1.390 . S
C457 C456 1.387 . S
C457 C459 1.387 . S
H458 C465 0.950 . S
C459 C457 1.387 . S
C459 C461 1.390 . S
C459 H463 0.950 . S
H460 C456 0.950 . S
C461 C459 1.390 . S
C461 C462 1.387 . S
C461 H464 0.950 . S
C462 C461 1.387 . S
C462 C465 1.387 . S
H463 C459 0.950 . S
H464 C461 0.950 . S
C465 C456 1.390 . S
C465 H458 0.950 . S
C465 C462 1.387 . S
C466 C467 1.387 . S
C466 H470 0.950 . S
C466 C475 1.390 . S
C467 C466 1.387 . S
C467 C469 1.387 . S
H468 C475 0.950 . S
C469 C467 1.387 . S
C469 C471 1.390 . S
C469 H473 0.950 . S
H470 C466 0.950 . S
C471 C469 1.390 . S
C471 C472 1.387 . S
C471 H474 0.950 . S
C472 C471 1.387 . S
C472 C475 1.387 . S
H473 C469 0.950 . S
H474 C471 0.950 . S
C475 C466 1.390 . S
C475 H468 0.950 . S
C475 C472 1.387 . S
C476 C477 1.387 . S
C476 H480 0.950 . S
C476 C485 1.390 . S
C477 C476 1.387 . S
C477 C479 1.387 . S
H478 C485 0.950 . S
C479 C477 1.387 . S
C479 C481 1.390 . S
C479 H483 0.950 . S
H480 C476 0.950 . S
C481 C479 1.390 . S
C481 C482 1.387 . S
C481 H484 0.950 . S
C482 C481 1.387 . S
C482 C485 1.387 . S
H483 C479 0.950 . S
H484 C481 0.950 . S
C485 C476 1.390 . S
C485 H478 0.950 . S
C485 C482 1.387 . S
C486 C487 1.387 1_545 S
C486 H490 0.950 . S
C486 C495 1.390 . S
C487 C486 1.387 1_565 S
C487 C489 1.387 . S
H488 C495 0.950 . S
C489 C487 1.387 . S
C489 C491 1.390 1_565 S
C489 H493 0.950 . S
H490 C486 0.950 . S
C491 C489 1.390 1_545 S
C491 C492 1.387 . S
C491 H494 0.950 . S
C492 C491 1.387 . S
C492 C495 1.387 . S
H493 C489 0.950 . S
H494 C491 0.950 . S
C495 C486 1.390 . S
C495 H488 0.950 . S
C495 C492 1.387 . S
C496 C497 1.387 . S
C496 H500 0.950 . S
C496 C505 1.390 . S
C497 C496 1.387 . S
C497 C499 1.387 . S
H498 C505 0.950 . S
C499 C497 1.387 . S
C499 C501 1.390 . S
C499 H503 0.950 . S
H500 C496 0.950 . S
C501 C499 1.390 . S
C501 C502 1.387 . S
C501 H504 0.950 . S
C502 C501 1.387 . S
C502 C505 1.387 . S
H503 C499 0.950 . S
H504 C501 0.950 . S
C505 C496 1.390 . S
C505 H498 0.950 . S
C505 C502 1.387 . S
C506 C507 1.387 . S
C506 H510 0.950 . S
C506 C515 1.390 . S
C507 C506 1.387 . S
C507 C509 1.387 . S
H508 C515 0.950 . S
C509 C507 1.387 . S
C509 C511 1.390 . S
C509 H513 0.950 . S
H510 C506 0.950 . S
C511 C509 1.390 . S
C511 C512 1.387 . S
C511 H514 0.950 . S
C512 C511 1.387 . S
C512 C515 1.387 . S
H513 C509 0.950 . S
H514 C511 0.950 . S
C515 C506 1.390 . S
C515 H508 0.950 . S
C515 C512 1.387 . S
C516 C517 1.387 . S
C516 H520 0.950 . S
C516 C525 1.390 . S
C517 C516 1.387 . S
C517 C519 1.387 . S
H518 C525 0.950 . S
C519 C517 1.387 . S
C519 C521 1.390 . S
C519 H523 0.950 . S
H520 C516 0.950 . S
C521 C519 1.390 . S
C521 C522 1.387 . S
C521 H524 0.950 . S
C522 C521 1.387 . S
C522 C525 1.387 . S
H523 C519 0.950 . S
H524 C521 0.950 . S
C525 C516 1.390 . S
C525 H518 0.950 . S
C525 C522 1.387 . S
C526 C527 1.387 . S
C526 H530 0.950 . S
C526 C535 1.390 . S
C527 C526 1.387 . S
C527 C529 1.387 . S
H528 C535 0.950 . S
C529 C527 1.387 . S
C529 C531 1.390 . S
C529 H533 0.950 . S
H530 C526 0.950 . S
C531 C529 1.390 . S
C531 C532 1.387 . S
C531 H534 0.950 . S
C532 C531 1.387 . S
C532 C535 1.387 . S
H533 C529 0.950 . S
H534 C531 0.950 . S
C535 C526 1.390 . S
C535 H528 0.950 . S
C535 C532 1.387 . S
C536 C537 1.387 . S
C536 H540 0.950 . S
C536 C545 1.390 . S
C537 C536 1.387 . S
C537 C539 1.387 . S
H538 C545 0.950 . S
C539 C537 1.387 . S
C539 C541 1.390 . S
C539 H543 0.950 . S
H540 C536 0.950 . S
C541 C539 1.390 . S
C541 C542 1.387 . S
C541 H544 0.950 . S
C542 C541 1.387 . S
C542 C545 1.387 . S
H543 C539 0.950 . S
H544 C541 0.950 . S
C545 C536 1.390 . S
C545 H538 0.950 . S
C545 C542 1.387 . S
C546 C547 1.387 . S
C546 H550 0.950 . S
C546 C555 1.390 . S
C547 C546 1.387 . S
C547 C549 1.387 . S
H548 C555 0.950 . S
C549 C547 1.387 . S
C549 C551 1.390 . S
C549 H553 0.950 . S
H550 C546 0.950 . S
C551 C549 1.390 . S
C551 C552 1.387 . S
C551 H554 0.950 . S
C552 C551 1.387 . S
C552 C555 1.387 . S
H553 C549 0.950 . S
H554 C551 0.950 . S
C555 C546 1.390 . S
C555 H548 0.950 . S
C555 C552 1.387 . S
C556 C557 1.387 . S
C556 H560 0.950 . S
C556 C565 1.390 . S
C557 C556 1.387 . S
C557 C559 1.387 . S
H558 C565 0.950 . S
C559 C557 1.387 . S
C559 C561 1.390 . S
C559 H563 0.950 . S
H560 C556 0.950 . S
C561 C559 1.390 . S
C561 C562 1.387 . S
C561 H564 0.950 . S
C562 C561 1.387 . S
C562 C565 1.387 . S
H563 C559 0.950 . S
H564 C561 0.950 . S
C565 C556 1.390 . S
C565 H558 0.950 . S
C565 C562 1.387 . S
C566 C567 1.387 . S
C566 H570 0.950 . S
C566 C575 1.390 . S
C567 C566 1.387 . S
C567 C569 1.387 . S
H568 C575 0.950 . S
C569 C567 1.387 . S
C569 C571 1.390 . S
C569 H573 0.950 . S
H570 C566 0.950 . S
C571 C569 1.390 . S
C571 C572 1.387 . S
C571 H574 0.950 . S
C572 C571 1.387 . S
C572 C575 1.387 . S
H573 C569 0.950 . S
H574 C571 0.950 . S
C575 C566 1.390 . S
C575 H568 0.950 . S
C575 C572 1.387 . S
C576 C577 1.387 . S
C576 H580 0.950 . S
C576 C585 1.390 . S
C577 C576 1.387 . S
C577 C579 1.387 . S
H578 C585 0.950 . S
C579 C577 1.387 . S
C579 C581 1.390 . S
C579 H583 0.950 . S
H580 C576 0.950 . S
C581 C579 1.390 . S
C581 C582 1.387 . S
C581 H584 0.950 . S
C582 C581 1.387 . S
C582 C585 1.387 . S
H583 C579 0.950 . S
H584 C581 0.950 . S
C585 C576 1.390 . S
C585 H578 0.950 . S
C585 C582 1.387 . S
C586 C587 1.387 . S
C586 H590 0.950 . S
C586 C595 1.390 . S
C587 C586 1.387 . S
C587 C589 1.387 . S
H588 C595 0.950 . S
C589 C587 1.387 . S
C589 C591 1.390 . S
C589 H593 0.950 . S
H590 C586 0.950 . S
C591 C589 1.390 . S
C591 C592 1.387 . S
C591 H594 0.950 . S
C592 C591 1.387 . S
C592 C595 1.387 . S
H593 C589 0.950 . S
H594 C591 0.950 . S
C595 C586 1.390 . S
C595 H588 0.950 . S
C595 C592 1.387 . S
C596 C597 1.387 . S
C596 H600 0.950 . S
C596 C605 1.390 . S
C597 C596 1.387 . S
C597 C599 1.387 . S
H598 C605 0.950 . S
C599 C597 1.387 . S
C599 C601 1.390 . S
C599 H603 0.950 . S
H600 C596 0.950 . S
C601 C599 1.390 . S
C601 C602 1.387 . S
C601 H604 0.950 . S
C602 C601 1.387 . S
C602 C605 1.387 . S
H603 C599 0.950 . S
H604 C601 0.950 . S
C605 C596 1.390 . S
C605 H598 0.950 . S
C605 C602 1.387 . S
C606 C607 1.387 . S
C606 H610 0.950 . S
C606 C615 1.390 . S
C607 C606 1.387 . S
C607 C609 1.387 . S
H608 C615 0.950 . S
C609 C607 1.387 . S
C609 C611 1.390 . S
C609 H613 0.950 . S
H610 C606 0.950 . S
C611 C609 1.390 . S
C611 C612 1.387 . S
C611 H614 0.950 . S
C612 C611 1.387 . S
C612 C615 1.387 . S
H613 C609 0.950 . S
H614 C611 0.950 . S
C615 C606 1.390 . S
C615 H608 0.950 . S
C615 C612 1.387 . S
C616 C617 1.387 . S
C616 H620 0.950 . S
C616 C625 1.390 . S
C617 C616 1.387 . S
C617 C619 1.387 . S
H618 C625 0.950 . S
C619 C617 1.387 . S
C619 C621 1.390 . S
C619 H623 0.950 . S
H620 C616 0.950 . S
C621 C619 1.390 . S
C621 C622 1.387 . S
C621 H624 0.950 . S
C622 C621 1.387 . S
C622 C625 1.387 . S
H623 C619 0.950 . S
H624 C621 0.950 . S
C625 C616 1.390 . S
C625 H618 0.950 . S
C625 C622 1.387 . S
C626 C627 1.387 . S
C626 H630 0.950 . S
C626 C635 1.390 1_565 S
C627 C626 1.387 . S
C627 C629 1.387 . S
H628 C635 0.950 . S
C629 C627 1.387 . S
C629 C631 1.390 . S
C629 H633 0.950 . S
H630 C626 0.950 . S
C631 C629 1.390 . S
C631 C632 1.387 1_565 S
C631 H634 0.950 . S
C632 C631 1.387 1_545 S
C632 C635 1.387 . S
H633 C629 0.950 . S
H634 C631 0.950 . S
C635 C626 1.390 1_545 S
C635 H628 0.950 . S
C635 C632 1.387 . S
C636 C637 1.387 . S
C636 H640 0.950 . S
C636 C645 1.390 . S
C637 C636 1.387 . S
C637 C639 1.387 . S
H638 C645 0.950 . S
C639 C637 1.387 . S
C639 C641 1.390 . S
C639 H643 0.950 . S
H640 C636 0.950 . S
C641 C639 1.390 . S
C641 C642 1.387 . S
C641 H644 0.950 . S
C642 C641 1.387 . S
C642 C645 1.387 . S
H643 C639 0.950 . S
H644 C641 0.950 . S
C645 C636 1.390 . S
C645 H638 0.950 . S
C645 C642 1.387 . S
C412 C110 1.543 . S
C407 C5 1.411 . S
C422 C179 1.496 . S
C417 C16 1.253 . S
C432 C117 1.672 . S
C427 C30 1.673 . S
C442 C180 1.615 . S
C437 C40 1.554 . S
C452 C233 1.491 . S
C447 C8 1.494 . S
C462 C269 1.515 . S
C457 C18 1.441 . S
C467 C29 1.720 . S
C472 C329 1.733 . S
C482 C392 1.540 . S
C477 C38 1.272 . S
C492 C232 1.469 . S
C487 C19 1.453 . S
C497 C27 1.506 . S
C502 C276 1.623 . S
C512 C322 1.608 . S
C507 C41 1.573 . S
C522 C391 1.546 . S
C517 C7 1.503 . S
C527 C52 1.533 . S
C532 C170 1.568 . S
C542 C127 1.600 . S
C537 C62 1.562 . S
C547 C74 1.424 . S
C552 C163 1.431 . S
C557 C82 1.233 . S
C562 C126 1.413 . S
C572 C338 1.784 . S
C567 C51 1.661 . S
C582 C382 1.588 . S
C577 C60 1.314 . S
C592 C216 1.554 . S
C587 C71 1.263 . S
C597 C84 1.427 . S
C602 C285 1.494 . S
C612 C339 1.634 . S
C607 C63 1.631 . S
C622 C375 1.517 . S
C617 C73 1.455 . S
C632 C223 1.548 . S
C627 C85 1.580 . S
C637 C49 1.329 . S
C642 C286 1.659 . S
