# Generated by pormake.
# Topology pyr, (3,6)-cn, num edge types: 1
# Building blocks:
#     Node 0, Type 0, BuildingBlock: OLANEW_clean_sbu_2, # of connection points: 3
#     Node 1, Type 0, BuildingBlock: OLANEW_clean_sbu_2, # of connection points: 3
#     Node 2, Type 0, BuildingBlock: OLANEW_clean_sbu_2, # of connection points: 3
#     Node 3, Type 0, BuildingBlock: OLANEW_clean_sbu_2, # of connection points: 3
#     Node 4, Type 0, BuildingBlock: OLANEW_clean_sbu_2, # of connection points: 3
#     Node 5, Type 0, BuildingBlock: OLANEW_clean_sbu_2, # of connection points: 3
#     Node 6, Type 0, BuildingBlock: OLANEW_clean_sbu_2, # of connection points: 3
#     Node 7, Type 0, BuildingBlock: OLANEW_clean_sbu_2, # of connection points: 3
#     Node 8, Type 1, BuildingBlock: BETGAK_clean_sbu_0, # of connection points: 6
#     Node 9, Type 1, BuildingBlock: BETGAK_clean_sbu_0, # of connection points: 6
#     Node 10, Type 1, BuildingBlock: BETGAK_clean_sbu_0, # of connection points: 6
#     Node 11, Type 1, BuildingBlock: BETGAK_clean_sbu_0, # of connection points: 6
#     Edge 12, Type (0, 1), BuildingBlock: XUDNAN_clean_linker_2, # of connection points: 2
#     Edge 13, Type (0, 1), BuildingBlock: XUDNAN_clean_linker_2, # of connection points: 2
#     Edge 14, Type (0, 1), BuildingBlock: XUDNAN_clean_linker_2, # of connection points: 2
#     Edge 15, Type (0, 1), BuildingBlock: XUDNAN_clean_linker_2, # of connection points: 2
#     Edge 16, Type (0, 1), BuildingBlock: XUDNAN_clean_linker_2, # of connection points: 2
#     Edge 17, Type (0, 1), BuildingBlock: XUDNAN_clean_linker_2, # of connection points: 2
#     Edge 18, Type (0, 1), BuildingBlock: XUDNAN_clean_linker_2, # of connection points: 2
#     Edge 19, Type (0, 1), BuildingBlock: XUDNAN_clean_linker_2, # of connection points: 2
#     Edge 20, Type (0, 1), BuildingBlock: XUDNAN_clean_linker_2, # of connection points: 2
#     Edge 21, Type (0, 1), BuildingBlock: XUDNAN_clean_linker_2, # of connection points: 2
#     Edge 22, Type (0, 1), BuildingBlock: XUDNAN_clean_linker_2, # of connection points: 2
#     Edge 23, Type (0, 1), BuildingBlock: XUDNAN_clean_linker_2, # of connection points: 2
#     Edge 24, Type (0, 1), BuildingBlock: XUDNAN_clean_linker_2, # of connection points: 2
#     Edge 25, Type (0, 1), BuildingBlock: XUDNAN_clean_linker_2, # of connection points: 2
#     Edge 26, Type (0, 1), BuildingBlock: XUDNAN_clean_linker_2, # of connection points: 2
#     Edge 27, Type (0, 1), BuildingBlock: XUDNAN_clean_linker_2, # of connection points: 2
#     Edge 28, Type (0, 1), BuildingBlock: XUDNAN_clean_linker_2, # of connection points: 2
#     Edge 29, Type (0, 1), BuildingBlock: XUDNAN_clean_linker_2, # of connection points: 2
#     Edge 30, Type (0, 1), BuildingBlock: XUDNAN_clean_linker_2, # of connection points: 2
#     Edge 31, Type (0, 1), BuildingBlock: XUDNAN_clean_linker_2, # of connection points: 2
#     Edge 32, Type (0, 1), BuildingBlock: XUDNAN_clean_linker_2, # of connection points: 2
#     Edge 33, Type (0, 1), BuildingBlock: XUDNAN_clean_linker_2, # of connection points: 2
#     Edge 34, Type (0, 1), BuildingBlock: XUDNAN_clean_linker_2, # of connection points: 2
#     Edge 35, Type (0, 1), BuildingBlock: XUDNAN_clean_linker_2, # of connection points: 2
# Relax obj value: 0.129
# Max RMSD: 0.169
# Mean RMSD: 0.121
data_MOF--net-pyr--node1-OLANEW_clean_sbu_2--node2-BETGAK_clean_sbu_0--edge1-XUDNAN_clean_linker_2
_symmetry_space_group_name_H-M    P1
_symmetry_Int_Tables_number       1
_symmetry_cell_setting            triclinic
loop_
_symmetry_equiv_pos_as_xyz
'x, y, z'
_cell_length_a     40.665947
_cell_length_b     44.446057
_cell_length_c     39.299373
_cell_angle_alpha  95.430456
_cell_angle_beta   88.238543
_cell_angle_gamma 104.85117
loop_
_atom_site_label
_atom_site_type_symbol
_atom_site_fract_x
_atom_site_fract_y
_atom_site_fract_z
_atom_type_partial_charge
O0 O 0.33463 0.25483 0.13741 0.0
Cd1 Cd 0.30758 0.29 0.17383 0.0
O2 O 0.34407 0.24576 0.18927 0.0
Cd3 Cd 0.35504 0.21866 0.22892 0.0
O4 O 0.33172 0.19749 0.27437 0.0
C5 C 0.33044 0.21544 0.30126 0.0
O6 O 0.3462 0.24523 0.30146 0.0
C7 C 0.34689 0.23954 0.15726 0.0
C8 C 0.27582 0.33116 0.14702 0.0
O9 O 0.30724 0.33987 0.15566 0.0
O10 O 0.25994 0.30249 0.14925 0.0
O11 O 0.43386 0.99998 0.68573 0.0
Cd12 Cd 0.44204 0.99988 0.62397 0.0
O13 O 0.38004 0.98014 0.67398 0.0
Cd14 Cd 0.32586 0.96534 0.68601 0.0
O15 O 0.27221 0.96433 0.68408 0.0
C16 C 0.26626 0.99002 0.67813 0.0
O17 O 0.29209 1.01448 0.67536 0.0
C18 C 0.40361 0.98895 0.69598 0.0
C19 C 0.45906 0.94482 0.60018 0.0
O20 O 0.42789 0.94556 0.60442 0.0
O21 O 0.48216 0.97034 0.60632 0.0
O22 O 0.70135 0.44274 0.8823 0.0
Cd23 Cd 0.64642 0.43401 0.84979 0.0
O24 O 0.68385 0.39864 0.90649 0.0
Cd25 Cd 0.67616 0.35685 0.93702 0.0
O26 O 0.66169 0.31267 0.96388 0.0
C27 C 0.6336 0.29182 0.95913 0.0
O28 O 0.6117 0.29614 0.93739 0.0
C29 C 0.70709 0.42379 0.90269 0.0
C30 C 0.63604 0.46292 0.79039 0.0
O31 O 0.62914 0.47405 0.82029 0.0
O32 O 0.6495 0.43966 0.7887 0.0
O33 O 0.91418 0.77045 0.36595 0.0
Cd34 Cd 0.88736 0.72304 0.3272 0.0
O35 O 0.87759 0.75118 0.40595 0.0
Cd36 Cd 0.84485 0.70823 0.3815 0.0
O37 O 0.79566 0.67656 0.39316 0.0
C38 C 0.78661 0.67812 0.42444 0.0
O39 O 0.80738 0.69716 0.4466 0.0
C40 C 0.90248 0.77257 0.39638 0.0
C41 C 0.91744 0.70079 0.26719 0.0
O42 O 0.90099 0.72181 0.26666 0.0
O43 O 0.92156 0.69155 0.29635 0.0
O44 O 0.71224 0.77543 0.81478 0.0
Cd45 Cd 0.66438 0.73618 0.83614 0.0
O46 O 0.70546 0.8076 0.85844 0.0
Cd47 Cd 0.7113 0.85057 0.89274 0.0
O48 O 0.69734 0.88458 0.93071 0.0
C49 C 0.71788 0.9087 0.94499 0.0
O50 O 0.75035 0.91463 0.93686 0.0
C51 C 0.72214 0.8019 0.83171 0.0
C52 C 0.69086 0.69114 0.86186 0.0
O53 O 0.67999 0.68754 0.8311 0.0
O54 O 0.68806 0.71551 0.88075 0.0
O55 O 0.65314 0.08528 0.51495 0.0
Cd56 Cd 0.67018 0.0687 0.56721 0.0
O57 O 0.66194 0.13296 0.53975 0.0
Cd58 Cd 0.66118 0.18211 0.54104 0.0
O59 O 0.65323 0.22857 0.53852 0.0
C60 C 0.66357 0.2502 0.56219 0.0
O61 O 0.67978 0.24448 0.58827 0.0
C62 C 0.65437 0.11393 0.51319 0.0
C63 C 0.74068 0.07983 0.56468 0.0
O64 O 0.72154 0.05355 0.55275 0.0
O65 O 0.72641 0.10054 0.5786 0.0
O66 O 0.40932 0.79631 0.25177 0.0
Cd67 Cd 0.38157 0.74657 0.27885 0.0
O68 O 0.37653 0.79742 0.20761 0.0
Cd69 Cd 0.33394 0.75419 0.20279 0.0
O70 O 0.28548 0.72939 0.17599 0.0
C71 C 0.27187 0.7001 0.1706 0.0
O72 O 0.2867 0.68026 0.18243 0.0
C73 C 0.40242 0.8099 0.22646 0.0
C74 C 0.41617 0.7165 0.32241 0.0
O75 O 0.41649 0.71156 0.28971 0.0
O76 O 0.40098 0.737 0.33514 0.0
O77 O 0.1653 0.43811 0.77775 0.0
Cd78 Cd 0.19804 0.41698 0.73139 0.0
O79 O 0.12654 0.39299 0.77838 0.0
Cd80 Cd 0.14169 0.36248 0.73635 0.0
O81 O 0.13533 0.31708 0.70518 0.0
C82 C 0.14634 0.29595 0.71724 0.0
O83 O 0.16235 0.30266 0.74661 0.0
C84 C 0.13829 0.42131 0.79044 0.0
C85 C 0.24853 0.45814 0.69519 0.0
O86 O 0.21719 0.45068 0.68632 0.0
O87 O 0.25609 0.44721 0.72212 0.0
La88 La 0.02674 0.04338 0.5327 0.0
La89 La 1.00036 1.0236 0.60052 0.0
C90 C 0.0395 0.06246 0.47443 0.0
C91 C 0.06978 0.08389 0.46115 0.0
C92 C 0.09534 0.10102 0.48369 0.0
C93 C 0.12567 0.11923 0.4711 0.0
C94 C 0.13101 0.12058 0.4357 0.0
C95 C 0.10497 0.10381 0.41323 0.0
C96 C 0.07461 0.08554 0.42589 0.0
C97 C 0.06966 1.02411 0.5686 0.0
C98 C 0.05284 0.08772 0.59867 0.0
C99 C 0.97876 0.99985 0.65521 0.0
C100 C 0.96033 0.97123 0.67062 0.0
C101 C 0.92806 0.95413 0.65876 0.0
C102 C 0.90668 0.93307 0.67911 0.0
C103 C 0.91723 0.92852 0.71159 0.0
C104 C 0.95078 0.94344 0.72181 0.0
C105 C 0.97203 0.96474 0.70159 0.0
C106 C 0.97128 0.0629 0.57395 0.0
C107 C 0.97934 0.97511 0.53494 0.0
O108 O 0.04451 0.03616 0.48279 0.0
O109 O 0.022 0.07494 0.4978 0.0
O110 O 0.07866 0.04628 0.54856 0.0
O111 O 0.03812 1.01268 0.56674 0.0
O112 O 0.04382 0.08688 0.56638 0.0
O113 O 0.04306 0.06279 0.61597 0.0
O114 O 0.96098 1.01192 0.6357 0.0
O115 O 1.00998 1.00242 0.64397 0.0
O116 O 0.9802 0.06479 0.60545 0.0
O117 O 0.97899 0.03962 0.55828 0.0
O118 O 0.97834 0.98036 0.56868 0.0
O119 O 0.99528 0.99708 0.51543 0.0
H120 H 0.09215 0.09976 0.51103 0.0
H121 H 0.14531 0.13149 0.48908 0.0
H122 H 0.10811 0.10472 0.38585 0.0
H123 H 0.05518 0.0723 0.40817 0.0
H124 H 0.91837 0.95862 0.63488 0.0
H125 H 0.88105 0.92212 0.67033 0.0
H126 H 0.9601 0.93986 0.74623 0.0
H127 H 0.9968 0.97765 0.71125 0.0
La128 La 0.55022 0.07318 0.12806 0.0
La129 La 0.50823 0.03215 0.07457 0.0
C130 C 0.58181 0.11829 0.16843 0.0
C131 C 0.59357 0.12286 0.20385 0.0
C132 C 0.5987 0.0979 0.22048 0.0
C133 C 0.60781 0.10237 0.25492 0.0
C134 C 0.61169 0.13182 0.27331 0.0
C135 C 0.60678 0.15678 0.25633 0.0
C136 C 0.59779 0.1523 0.22188 0.0
C137 C 0.52213 1.01674 0.14819 0.0
C138 C 0.47737 0.08228 0.11094 0.0
C139 C 0.47602 0.98821 0.03346 0.0
C140 C 0.45421 0.98618 1.00392 0.0
C141 C 0.44781 1.01325 0.99294 0.0
C142 C 0.43123 1.01186 0.96202 0.0
C143 C 0.42067 0.98334 0.94174 0.0
C144 C 0.42562 0.95601 0.95378 0.0
C145 C 0.4424 0.95748 0.98462 0.0
C146 C 0.53976 0.0888 0.05577 0.0
C147 C 0.5823 0.02692 0.08514 0.0
O148 O 0.59677 0.102 0.14661 0.0
O149 O 0.54886 0.11031 0.16476 0.0
O150 O 0.55061 0.03517 0.15871 0.0
O151 O 0.50796 0.03148 0.12952 0.0
O152 O 0.50867 0.09541 0.12171 0.0
O153 O 0.46936 0.05412 0.09479 0.0
O154 O 0.46402 0.99619 0.06327 0.0
O155 O 0.50777 1.00326 0.02924 0.0
O156 O 0.51049 0.07247 0.04438 0.0
O157 O 0.55109 0.07223 0.07413 0.0
O158 O 0.55038 1.01099 0.08045 0.0
O159 O 0.58928 0.05601 0.09914 0.0
H160 H 0.59535 0.07494 0.20695 0.0
H161 H 0.61187 0.08278 0.26712 0.0
H162 H 0.60909 0.17961 0.26985 0.0
H163 H 0.59355 0.17171 0.20944 0.0
H164 H 0.45671 0.03561 1.00766 0.0
H165 H 0.42746 0.03321 0.9535 0.0
H166 H 0.41811 0.93378 0.93853 0.0
H167 H 0.44733 0.93642 0.99271 0.0
La168 La 0.50891 0.54178 0.52598 0.0
La169 La 0.51087 0.59735 0.57393 0.0
C170 C 0.52247 0.49503 0.49279 0.0
C171 C 0.53903 0.47139 0.50265 0.0
C172 C 0.53694 0.46328 0.53647 0.0
C173 C 0.55452 0.4424 0.54632 0.0
C174 C 0.57436 0.42905 0.52249 0.0
C175 C 0.576 0.43685 0.48849 0.0
C176 C 0.55858 0.45799 0.4787 0.0
C177 C 0.45138 0.54164 0.55857 0.0
C178 C 0.53958 0.54629 0.60113 0.0
C179 C 0.49398 0.64151 0.6089 0.0
C180 C 0.49109 0.67234 0.60107 0.0
C181 C 0.47566 0.69015 0.62463 0.0
C182 C 0.47405 0.72006 0.6179 0.0
C183 C 0.48795 0.73259 0.58749 0.0
C184 C 0.50277 0.71431 0.5636 0.0
C185 C 0.50428 0.68439 0.57032 0.0
C186 C 0.5682 0.59923 0.53968 0.0
C187 C 0.4877 0.59602 0.49497 0.0
O188 O 0.49289 0.49465 0.50702 0.0
O189 O 0.54209 0.52339 0.49305 0.0
O190 O 0.45363 0.53207 0.52664 0.0
O191 O 0.48067 0.55025 0.57158 0.0
O192 O 0.53984 0.53574 0.56852 0.0
O193 O 0.52398 0.5684 0.61098 0.0
O194 O 0.52487 0.63773 0.60779 0.0
O195 O 0.47207 0.61754 0.59362 0.0
O196 O 0.56672 0.61227 0.57041 0.0
O197 O 0.53845 0.58864 0.52874 0.0
O198 O 0.4889 0.60943 0.52691 0.0
O199 O 0.4976 0.56995 0.48791 0.0
H200 H 0.52195 0.4733 0.55543 0.0
H201 H 0.55237 0.43654 0.57257 0.0
H202 H 0.59129 0.42709 0.46963 0.0
H203 H 0.56069 0.46415 0.45256 0.0
H204 H 0.46534 0.68113 0.64846 0.0
H205 H 0.46281 0.73372 0.63695 0.0
H206 H 0.51332 0.7232 0.5398 0.0
H207 H 0.51618 0.67085 0.55176 0.0
La208 La 1.00698 0.52143 0.03958 0.0
La209 La 0.9968 0.57597 0.99914 0.0
C210 C 0.0296 0.47548 0.04984 0.0
C211 C 0.05737 0.46851 0.06846 0.0
C212 C 0.05106 0.44097 0.08495 0.0
C213 C 0.07796 0.43138 0.09806 0.0
C214 C 0.11185 0.44897 0.0945 0.0
C215 C 0.11784 0.47735 0.07929 0.0
C216 C 0.09092 0.4871 0.06662 0.0
C217 C 0.98308 0.5626 0.08029 0.0
C218 C 0.06165 0.58848 0.04504 0.0
C219 C 0.97317 0.61429 0.97112 0.0
C220 C 0.93839 0.61458 0.96165 0.0
C221 C 0.93012 0.61228 0.92693 0.0
C222 C 0.8971 0.61104 0.91709 0.0
C223 C 0.87172 0.61244 0.94179 0.0
C224 C 0.87993 0.61484 0.97658 0.0
C225 C 0.91294 0.61573 0.98645 0.0
C226 C 0.03182 0.5385 0.96862 0.0
C227 C 0.93599 0.51345 1.00401 0.0
O228 O 1.00439 0.48265 0.06771 0.0
O229 O 0.03911 0.49291 0.02439 0.0
O230 O 0.99064 0.53828 0.09076 0.0
O231 O 0.98907 0.56168 0.04867 0.0
O232 O 0.05526 0.55785 0.04785 0.0
O233 O 0.04056 0.60119 0.02964 0.0
O234 O 0.9853 0.59269 0.9541 0.0
O235 O 0.98036 0.61729 1.00378 0.0
O236 O 0.03859 0.56827 0.96547 0.0
O237 O 1.00588 0.53105 0.98744 0.0
O238 O 0.94603 0.54314 0.99711 0.0
O239 O 0.95626 0.49936 0.01876 0.0
H240 H 0.0254 0.4263 0.0867 0.0
H241 H 0.07218 0.40983 0.11037 0.0
H242 H 0.14346 0.49147 0.07571 0.0
H243 H 0.09658 0.50855 0.05407 0.0
H244 H 0.94925 0.61133 0.90733 0.0
H245 H 0.89163 0.60971 0.8901 0.0
H246 H 0.86077 0.61588 0.99611 0.0
H247 H 0.91841 0.61722 1.01344 0.0
H248 H 0.28509 0.15818 0.30334 0.0
H249 H 0.32161 0.24775 0.36227 0.0
H250 H 0.27656 0.23179 0.40533 0.0
H251 H 0.19931 0.15327 0.31445 0.0
H252 H 0.18626 0.11174 0.3179 0.0
H253 H 0.22403 0.12819 0.29406 0.0
H254 H 0.25974 0.10344 0.33132 0.0
H255 H 0.22194 0.08646 0.35499 0.0
H256 H 0.25875 0.1109 0.37718 0.0
H257 H 0.22394 0.2084 0.43855 0.0
H258 H 0.16909 0.17834 0.46078 0.0
H259 H 0.16738 0.10399 0.38028 0.0
C260 C 0.28421 0.17416 0.32572 0.0
C261 C 0.30695 0.20419 0.32948 0.0
C262 C 0.30454 0.22458 0.35889 0.0
C263 C 0.27904 0.21574 0.3835 0.0
C264 C 0.2563 0.18638 0.3784 0.0
C265 C 0.25888 0.16576 0.35043 0.0
C266 C 0.22996 0.13644 0.34973 0.0
C267 C 0.20864 0.13219 0.3171 0.0
C268 C 0.24341 0.10761 0.35354 0.0
C269 C 0.21019 0.14417 0.38112 0.0
C270 C 0.22594 0.17294 0.39749 0.0
C271 C 0.21165 0.18562 0.42626 0.0
C272 C 0.18051 0.16835 0.43872 0.0
C273 C 0.16394 0.13877 0.42234 0.0
C274 C 0.1792 0.12662 0.39323 0.0
H275 H 0.43767 0.02622 0.7496 0.0
H276 H 0.3551 0.94397 0.72523 0.0
H277 H 0.34566 0.93729 0.78664 0.0
H278 H 0.47229 0.9957 0.81406 0.0
H279 H 0.48447 0.03179 0.84109 0.0
H280 H 0.48151 0.03264 0.79566 0.0
H281 H 0.43915 0.06748 0.80524 0.0
H282 H 0.44199 0.0667 0.85081 0.0
H283 H 0.4011 0.05444 0.83025 0.0
H284 H 0.34942 0.93615 0.85011 0.0
H285 H 0.36634 0.94073 0.91071 0.0
H286 H 0.44691 1.02322 0.89342 0.0
C287 C 0.41714 1.00721 0.75728 0.0
C288 C 0.39636 0.98622 0.73274 0.0
C289 C 0.37028 0.96118 0.74364 0.0
C290 C 0.36495 0.957 0.77848 0.0
C291 C 0.38595 0.97808 0.80207 0.0
C292 C 0.41147 1.00276 0.79194 0.0
C293 C 0.4322 1.02067 0.82211 0.0
C294 C 0.46983 1.02014 0.81797 0.0
C295 C 0.42836 0.05432 0.82741 0.0
C296 C 0.41506 1.00162 0.85063 0.0
C297 C 0.38822 0.97734 0.83865 0.0
C298 C 0.37006 0.95535 0.85989 0.0
C299 C 0.37991 0.95803 0.89418 0.0
C300 C 0.40767 0.9825 0.90678 0.0
C301 C 0.42502 1.00477 0.88474 0.0
H302 H 0.59646 0.50473 0.7834 0.0
H303 H 0.65473 0.44819 0.72484 0.0
H304 H 0.63742 0.46456 0.67146 0.0
H305 H 0.52638 0.48807 0.7255 0.0
H306 H 0.51958 0.52676 0.73085 0.0
H307 H 0.53777 0.51216 0.76504 0.0
H308 H 0.5898 0.56013 0.76635 0.0
H309 H 0.5717 0.57495 0.73224 0.0
H310 H 0.61388 0.56901 0.72766 0.0
H311 H 0.61265 0.48508 0.62423 0.0
H312 H 0.58266 0.50905 0.58565 0.0
H313 H 0.53878 0.55284 0.67293 0.0
C314 C 0.60596 0.49614 0.75936 0.0
C315 C 0.62725 0.47519 0.75855 0.0
C316 C 0.6386 0.46424 0.72639 0.0
C317 C 0.62886 0.47343 0.69581 0.0
C318 C 0.60761 0.49367 0.69747 0.0
C319 C 0.59631 0.50505 0.72834 0.0
C320 C 0.57284 0.5259 0.72251 0.0
C321 C 0.53702 0.51241 0.73683 0.0
C322 C 0.58796 0.55949 0.73812 0.0
C323 C 0.5726 0.52427 0.68358 0.0
C324 C 0.59296 0.50552 0.66987 0.0
C325 C 0.59669 0.49983 0.63471 0.0
C326 C 0.57925 0.51354 0.61291 0.0
C327 C 0.55795 0.53282 0.62594 0.0
C328 C 0.55483 0.53834 0.66198 0.0
H329 H 0.94822 0.65188 0.25913 0.0
H330 H 0.91205 0.71567 0.20177 0.0
H331 H 0.92629 0.68842 0.14778 0.0
H332 H 0.01888 0.64433 0.20137 0.0
H333 H 0.01292 0.60347 0.20688 0.0
H334 H 1.00176 0.6292 0.24097 0.0
H335 H 0.9407 0.59305 0.24232 0.0
H336 H 0.95161 0.56735 0.20811 0.0
H337 H 0.91592 0.58375 0.20371 0.0
H338 H 0.94106 0.65172 0.09951 0.0
H339 H 0.95729 0.61001 0.06172 0.0
H340 H 0.98487 0.5709 0.15009 0.0
C341 C 0.94376 0.66046 0.23525 0.0
C342 C 0.9291 0.68611 0.23486 0.0
C343 C 0.92337 0.69623 0.2029 0.0
C344 C 0.93133 0.68083 0.17202 0.0
C345 C 0.94518 0.65532 0.17332 0.0
C346 C 0.95158 0.64534 0.20414 0.0
C347 C 0.96576 0.61679 0.19847 0.0
C348 C 1.00198 0.62388 0.21277 0.0
C349 C 0.94208 0.58857 0.21408 0.0
C350 C 0.96592 0.61203 0.15971 0.0
C351 C 0.95404 0.63453 0.14564 0.0
C352 C 0.95093 0.63432 0.11032 0.0
C353 C 0.96046 0.6107 0.08892 0.0
C354 C 0.97308 0.58767 0.10274 0.0
C355 C 0.97561 0.58838 0.13867 0.0
H356 H 0.40101 0.22405 0.18332 0.0
H357 H 0.32778 0.19795 0.10103 0.0
H358 H 0.35178 0.15329 0.08114 0.0
H359 H 0.47098 0.20615 0.1343 0.0
H360 H 0.48799 0.19218 0.16976 0.0
H361 H 0.46446 0.22143 0.17743 0.0
H362 H 0.42334 0.18613 0.21771 0.0
H363 H 0.44665 0.1567 0.20997 0.0
H364 H 0.40157 0.14686 0.202 0.0
H365 H 0.3826 0.11003 0.07218 0.0
H366 H 0.42175 0.07549 0.07057 0.0
H367 H 0.47641 0.13204 0.15718 0.0
C368 C 0.38989 0.20878 0.16126 0.0
C369 C 0.36225 0.21404 0.14395 0.0
C370 C 0.34895 0.19418 0.11461 0.0
C371 C 0.36229 0.16872 0.1033 0.0
C372 C 0.38923 0.16385 0.12134 0.0
C373 C 0.40322 0.18367 0.14937 0.0
C374 C 0.43288 0.17416 0.16355 0.0
C375 C 0.46604 0.20002 0.16109 0.0
C376 C 0.42566 0.16544 0.2005 0.0
C377 C 0.43336 0.14575 0.13927 0.0
C378 C 0.40775 0.13991 0.11535 0.0
C379 C 0.40284 0.1145 0.09067 0.0
C380 C 0.42506 0.09491 0.09009 0.0
C381 C 0.45211 0.10113 0.11373 0.0
C382 C 0.45605 0.12679 0.1387 0.0
H383 H 0.24768 0.03804 0.65237 0.0
H384 H 0.20642 0.94519 0.68522 0.0
H385 H 0.14937 0.94601 0.66593 0.0
H386 H 0.1712 0.06821 0.67245 0.0
H387 H 0.17745 0.0895 0.63497 0.0
H388 H 0.2136 0.08362 0.65636 0.0
H389 H 0.23294 0.05851 0.5995 0.0
H390 H 0.19685 0.0641 0.57804 0.0
H391 H 0.20387 1.02559 0.57701 0.0
H392 H 0.09801 0.95512 0.63802 0.0
H393 H 0.05739 0.97124 0.60233 0.0
H394 H 0.13361 0.05689 0.58613 0.0
C395 C 0.22653 1.01816 0.65634 0.0
C396 C 0.23144 0.99161 0.67045 0.0
C397 C 0.20319 0.96584 0.67457 0.0
C398 C 0.17069 0.96614 0.66381 0.0
C399 C 0.16694 0.9924 0.6491 0.0
C400 C 0.19412 1.018 0.64552 0.0
C401 C 0.18425 0.04207 0.62601 0.0
C402 C 0.18678 0.07265 0.64881 0.0
C403 C 0.20575 0.04788 0.5932 0.0
C404 C 0.14765 1.0255 0.618 0.0
C405 C 0.13782 0.9972 0.63214 0.0
C406 C 0.10535 0.97736 0.6271 0.0
C407 C 0.08253 0.98661 0.6068 0.0
C408 C 0.09266 1.01512 0.59146 0.0
C409 C 0.1254 0.03488 0.59749 0.0
H410 H 0.75648 0.4798 0.90798 0.0
H411 H 0.73389 0.3856 0.93936 0.0
H412 H 0.78853 0.39865 0.96978 0.0
H413 H 0.84604 0.48828 0.89309 0.0
H414 H 0.85815 0.52895 0.90903 0.0
H415 H 0.81684 0.51238 0.89032 0.0
H416 H 0.78869 0.53107 0.94539 0.0
H417 H 0.82987 0.5473 0.96449 0.0
H418 H 0.79798 0.51928 0.98594 0.0
H419 H 0.84695 0.42175 0.99605 0.0
H420 H 0.90373 0.45277 1.01565 0.0
H421 H 0.88868 0.53218 0.96745 0.0
C422 C 0.76289 0.46185 0.9213 0.0
C423 C 0.74028 0.43159 0.92139 0.0
C424 C 0.75007 0.409 0.93918 0.0
C425 C 0.78133 0.4162 0.95648 0.0
C426 C 0.80283 0.44619 0.95594 0.0
C427 C 0.79402 0.46869 0.93879 0.0
C428 C 0.82192 0.49907 0.94182 0.0
C429 C 0.83661 0.50766 0.90646 0.0
C430 C 0.80882 0.52575 0.96053 0.0
C431 C 0.84784 0.49008 0.96322 0.0
C432 C 0.83634 0.45948 0.9711 0.0
C433 C 0.8561 0.44577 0.9901 0.0
C434 C 0.88844 0.46364 1.00116 0.0
C435 C 0.90097 0.49507 0.99334 0.0
C436 C 0.88004 0.50834 0.97418 0.0
H437 H 0.76034 0.67777 0.48949 0.0
H438 H 0.73572 0.6388 0.3851 0.0
H439 H 0.67799 0.61188 0.40396 0.0
H440 H 0.71224 0.60982 0.53129 0.0
H441 H 0.69895 0.63337 0.56628 0.0
H442 H 0.73891 0.64791 0.54487 0.0
H443 H 0.7203 0.69738 0.53262 0.0
H444 H 0.68031 0.68299 0.55391 0.0
H445 H 0.68095 0.69311 0.51051 0.0
H446 H 0.62179 0.59213 0.43363 0.0
H447 H 0.57168 0.58048 0.47187 0.0
H448 H 0.63333 0.63155 0.55709 0.0
C449 C 0.74299 0.6633 0.47058 0.0
C450 C 0.75262 0.66037 0.43576 0.0
C451 C 0.72899 0.64135 0.4119 0.0
C452 C 0.69614 0.62595 0.42238 0.0
C453 C 0.68739 0.62967 0.45684 0.0
C454 C 0.71019 0.64777 0.4806 0.0
C455 C 0.69412 0.64891 0.51586 0.0
C456 C 0.71213 0.63411 0.54106 0.0
C457 C 0.69391 0.6826 0.52898 0.0
C458 C 0.65849 0.62902 0.50816 0.0
C459 C 0.65517 0.61804 0.47399 0.0
C460 C 0.62423 0.60026 0.4605 0.0
C461 C 0.59593 0.59369 0.48244 0.0
C462 C 0.59875 0.6048 0.51749 0.0
C463 C 0.63054 0.62247 0.53048 0.0
H464 H 0.21174 0.31931 0.12004 0.0
H465 H 0.29856 0.39491 0.15343 0.0
H466 H 0.26617 0.4333 0.14378 0.0
H467 H 0.18512 0.3597 0.0529 0.0
H468 H 0.14051 0.34304 0.06056 0.0
H469 H 0.17115 0.32174 0.06888 0.0
H470 H 0.14855 0.31742 0.13108 0.0
H471 H 0.11818 0.33909 0.1231 0.0
H472 H 0.14777 0.35248 0.15786 0.0
H473 H 0.22272 0.46324 0.1348 0.0
H474 H 0.1735 0.48285 0.12166 0.0
H475 H 0.11635 0.38783 0.09061 0.0
C476 C 0.22411 0.34394 0.12492 0.0
C477 C 0.2577 0.35409 0.13752 0.0
C478 C 0.27292 0.38656 0.1436 0.0
C479 C 0.25467 0.40856 0.13835 0.0
C480 C 0.22136 0.39774 0.12664 0.0
C481 C 0.2064 0.36623 0.11945 0.0
C482 C 0.17026 0.36078 0.10706 0.0
C483 C 0.16656 0.34541 0.07016 0.0
C484 C 0.14469 0.34129 0.13122 0.0
C485 C 0.16707 0.39411 0.10891 0.0
C486 C 0.19674 0.41507 0.12043 0.0
C487 C 0.19951 0.44708 0.12523 0.0
C488 C 0.17139 0.458 0.11752 0.0
C489 C 0.14089 0.43704 0.10478 0.0
C490 C 0.13893 0.40462 0.10066 0.0
H491 H 0.5756 0.24298 0.95434 0.0
H492 H 0.67278 0.27469 1.00611 0.0
H493 H 0.65914 0.22674 0.03657 0.0
H494 H 0.527 0.2083 0.02573 0.0
H495 H 0.50098 0.17593 0.99964 0.0
H496 H 0.51828 0.21274 0.98203 0.0
H497 H 0.54634 0.18487 0.93285 0.0
H498 H 0.52911 0.14798 0.95031 0.0
H499 H 0.57425 0.16136 0.9429 0.0
H500 H 0.63488 0.17469 0.0613 0.0
H501 H 0.60223 0.12315 0.07803 0.0
H502 H 0.52058 0.12511 1.01055 0.0
C503 C 0.59408 0.23994 0.9721 0.0
C504 C 0.62539 0.26285 0.97772 0.0
C505 C 0.64868 0.25768 1.00125 0.0
C506 C 0.64112 0.23045 0.01872 0.0
C507 C 0.61009 0.20841 1.01254 0.0
C508 C 0.58692 0.21288 0.98979 0.0
C509 C 0.55542 0.18552 0.98763 0.0
C510 C 0.52354 0.19628 0.99947 0.0
C511 C 0.55104 0.16895 0.95126 0.0
C512 C 0.56447 0.1649 1.01265 0.0
C513 C 0.59613 0.17856 0.02676 0.0
C514 C 0.61008 0.16387 0.05039 0.0
C515 C 0.59133 0.13455 0.05976 0.0
C516 C 0.55887 0.12002 0.04562 0.0
C517 C 0.54531 0.13558 0.02182 0.0
H518 H 0.93769 0.83372 0.38499 0.0
H519 H 0.89709 0.77339 0.46524 0.0
H520 H 0.91179 0.81836 0.50822 0.0
H521 H 1.00873 0.88533 0.43592 0.0
H522 H 1.00512 0.92015 0.41791 0.0
H523 H 0.9932 0.88288 0.393 0.0
H524 H 0.93359 0.89135 0.38363 0.0
H525 H 0.94518 0.92845 0.40887 0.0
H526 H 0.90804 0.89897 0.42015 0.0
H527 H 0.92701 0.86936 0.54258 0.0
H528 H 0.94693 0.92375 0.56734 0.0
H529 H 0.97902 0.95289 0.46642 0.0
C530 C 0.93255 0.82995 0.41167 0.0
C531 C 0.91614 0.79986 0.42159 0.0
C532 C 0.90945 0.7961 0.45681 0.0
C533 C 0.91768 0.82155 0.48155 0.0
C534 C 0.93279 0.85092 0.47097 0.0
C535 C 0.94063 0.85538 0.43701 0.0
C536 C 0.95647 0.88983 0.43299 0.0
C537 C 0.99306 0.89484 0.41913 0.0
C538 C 0.9345 0.90291 0.41004 0.0
C539 C 0.95594 0.90378 0.46986 0.0
C540 C 0.94203 0.88079 0.4912 0.0
C541 C 0.93821 0.88761 0.5262 0.0
C542 C 0.94951 0.91871 0.54002 0.0
C543 C 0.96465 0.94282 0.51899 0.0
C544 C 0.96754 0.93512 0.4833 0.0
H545 H 0.41914 0.88566 0.60483 0.0
H546 H 0.51994 0.93696 0.57466 0.0
H547 H 0.53663 0.88726 0.56289 0.0
H548 H 0.44641 0.83268 0.64989 0.0
H549 H 0.4113 0.79967 0.6379 0.0
H550 H 0.40578 0.83867 0.63958 0.0
H551 H 0.38562 0.8288 0.57664 0.0
H552 H 0.39091 0.78964 0.57481 0.0
H553 H 0.41223 0.81573 0.54399 0.0
H554 H 0.54356 0.83256 0.55842 0.0
H555 H 0.54109 0.77713 0.56395 0.0
H556 H 0.4362 0.76175 0.59854 0.0
C557 C 0.44448 0.88638 0.59499 0.0
C558 C 0.46818 0.91509 0.5903 0.0
C559 C 0.50136 0.91517 0.57825 0.0
C560 C 0.51102 0.88708 0.57139 0.0
C561 C 0.48722 0.85919 0.57687 0.0
C562 C 0.45465 0.85862 0.58845 0.0
C563 C 0.43488 0.82586 0.59508 0.0
C564 C 0.42397 0.82414 0.63285 0.0
C565 C 0.40409 0.81433 0.5712 0.0
C566 C 0.46166 0.80819 0.58611 0.0
C567 C 0.49149 0.82774 0.57516 0.0
C568 C 0.52022 0.81695 0.5666 0.0
C569 C 0.51853 0.78542 0.56969 0.0
C570 C 0.48843 0.76515 0.58158 0.0
C571 C 0.45958 0.77673 0.58949 0.0
H572 H 0.7493 0.80451 0.76731 0.0
H573 H 0.76536 0.84996 0.8703 0.0
H574 H 0.81743 0.88656 0.85096 0.0
H575 H 0.83724 0.80876 0.74857 0.0
H576 H 0.83435 0.81574 0.70445 0.0
H577 H 0.79757 0.79378 0.72611 0.0
H578 H 0.76304 0.83218 0.71083 0.0
H579 H 0.79963 0.85412 0.68892 0.0
H580 H 0.7793 0.87345 0.72254 0.0
H581 H 0.8679 0.91806 0.82032 0.0
H582 H 0.912 0.94336 0.78051 0.0
H583 H 0.86493 0.87537 0.69798 0.0
C584 C 0.76363 0.8223 0.78579 0.0
C585 C 0.75265 0.82491 0.82019 0.0
C586 C 0.77236 0.84827 0.84359 0.0
C587 C 0.80233 0.86888 0.83292 0.0
C588 C 0.8124 0.86562 0.79884 0.0
C589 C 0.79363 0.84294 0.77561 0.0
C590 C 0.81012 0.84425 0.74049 0.0
C591 C 0.82043 0.81382 0.72926 0.0
C592 C 0.78662 0.85143 0.71415 0.0
C593 C 0.84104 0.87135 0.74755 0.0
C594 C 0.84193 0.88327 0.78138 0.0
C595 C 0.86764 0.90876 0.79384 0.0
C596 C 0.89283 0.92278 0.77101 0.0
C597 C 0.89229 0.91125 0.73603 0.0
C598 C 0.86612 0.8849 0.72444 0.0
H599 H 0.61138 0.08171 0.46276 0.0
H600 H 0.68639 0.16928 0.48795 0.0
H601 H 0.68045 0.1852 0.43049 0.0
H602 H 0.64041 0.06856 0.37955 0.0
H603 H 0.59895 0.05179 0.36118 0.0
H604 H 0.60577 0.04884 0.40563 0.0
H605 H 0.55688 0.07506 0.42271 0.0
H606 H 0.54964 0.0778 0.37823 0.0
H607 H 0.55776 0.1124 0.40781 0.0
H608 H 0.67035 0.18939 0.36869 0.0
H609 H 0.65575 0.18211 0.30743 0.0
H610 H 0.58732 0.09172 0.32253 0.0
C611 C 0.62598 0.10452 0.45637 0.0
C612 C 0.64845 0.12476 0.48016 0.0
C613 C 0.6678 0.15408 0.4707 0.0
C614 C 0.66494 0.16314 0.43795 0.0
C615 C 0.64269 0.14254 0.41499 0.0
C616 C 0.62339 0.11391 0.42382 0.0
C617 C 0.60287 0.09534 0.39383 0.0
C618 C 0.6126 0.06431 0.38451 0.0
C619 C 0.56451 0.08984 0.40109 0.0
C620 C 0.61434 0.11766 0.36652 0.0
C621 C 0.63711 0.14484 0.37927 0.0
C622 C 0.65217 0.1684 0.35851 0.0
C623 C 0.64364 0.16409 0.32378 0.0
C624 C 0.62033 0.13638 0.31017 0.0
C625 C 0.60545 0.11303 0.33203 0.0
H626 H 0.41842 0.71866 0.39385 0.0
H627 H 0.44764 0.67081 0.30077 0.0
H628 H 0.46895 0.63639 0.33497 0.0
H629 H 0.49175 0.71449 0.44498 0.0
H630 H 0.46724 0.70794 0.48381 0.0
H631 H 0.4551 0.73008 0.45243 0.0
H632 H 0.39486 0.69239 0.44996 0.0
H633 H 0.40695 0.67008 0.48117 0.0
H634 H 0.39025 0.65103 0.44049 0.0
H635 H 0.48427 0.60507 0.37779 0.0
H636 H 0.4963 0.58018 0.42733 0.0
H637 H 0.45974 0.64779 0.49527 0.0
C638 C 0.42966 0.70117 0.38071 0.0
C639 C 0.43126 0.69764 0.34433 0.0
C640 C 0.44604 0.67424 0.32837 0.0
C641 C 0.45824 0.65443 0.34764 0.0
C642 C 0.45586 0.65818 0.38316 0.0
C643 C 0.44232 0.68112 0.39975 0.0
C644 C 0.44282 0.67958 0.43844 0.0
C645 C 0.46558 0.70982 0.45595 0.0
C646 C 0.40655 0.67287 0.45339 0.0
C647 C 0.4583 0.65197 0.44076 0.0
C648 C 0.46546 0.64012 0.40839 0.0
C649 C 0.47898 0.61428 0.40328 0.0
C650 C 0.48562 0.60017 0.43182 0.0
C651 C 0.47903 0.61177 0.46557 0.0
C652 C 0.46518 0.63824 0.46997 0.0
H653 H 0.14814 0.48283 0.81876 0.0
H654 H 0.08668 0.38842 0.8286 0.0
H655 H 0.05513 0.40798 0.87633 0.0
H656 H 0.15251 0.50855 0.91004 0.0
H657 H 0.14907 0.54733 0.90404 0.0
H658 H 0.16821 0.52605 0.87122 0.0
H659 H 0.1254 0.53312 0.82708 0.0
H660 H 0.10619 0.55445 0.85974 0.0
H661 H 0.0804 0.52048 0.83574 0.0
H662 H 0.02875 0.43725 0.92194 0.0
H663 H 1.00837 0.47502 0.96173 0.0
H664 H 0.08596 0.55104 0.92354 0.0
C665 C 0.12821 0.46626 0.83111 0.0
C666 C 0.12006 0.43398 0.81973 0.0
C667 C 0.09353 0.41321 0.83656 0.0
C668 C 0.07543 0.42408 0.86388 0.0
C669 C 0.08392 0.45589 0.87433 0.0
C670 C 0.1096 0.47678 0.85851 0.0
C671 C 0.11267 0.50996 0.87432 0.0
C672 C 0.1477 0.52378 0.89089 0.0
C673 C 0.10575 0.53072 0.84763 0.0
C674 C 0.08455 0.50438 0.90118 0.0
C675 C 0.06849 0.47295 0.90082 0.0
C676 C 0.04129 0.46191 0.92265 0.0
C677 C 0.02996 0.48355 0.94529 0.0
C678 C 0.04578 0.51593 0.94607 0.0
C679 C 0.07356 0.52639 0.92376 0.0
H680 H 0.65261 0.90136 0.96867 0.0
H681 H 0.75363 0.96428 0.97813 0.0
H682 H 0.73097 1.00022 0.01872 0.0
H683 H 0.60762 0.95936 0.96913 0.0
H684 H 0.57199 0.93855 0.99326 0.0
H685 H 0.59682 0.91726 0.9668 0.0
H686 H 0.60792 0.88991 0.01916 0.0
H687 H 0.58318 0.91124 0.04582 0.0
H688 H 0.62635 0.91329 0.05718 0.0
H689 H 0.69582 0.0308 0.056 0.0
H690 H 0.65154 0.05309 0.08553 0.0
H691 H 0.57466 0.96899 0.05161 0.0
C692 C 0.67013 0.92256 0.97943 0.0
C693 C 0.70493 0.92997 0.97019 0.0
C694 C 0.72687 0.95805 0.98485 0.0
C695 C 0.71424 0.97858 1.00799 0.0
C696 C 0.67969 0.97059 1.01635 0.0
C697 C 0.65803 0.94316 1.00252 0.0
C698 C 0.62177 0.94035 1.01448 0.0
C699 C 0.59817 0.93881 0.98412 0.0
C700 C 0.60907 0.91202 0.03541 0.0
C701 C 0.62622 0.97071 0.03679 0.0
C702 C 0.65977 0.98786 0.0378 0.0
C703 C 0.66953 1.0174 0.05564 0.0
C704 C 0.64423 0.02986 0.07238 0.0
C705 C 0.60964 1.01277 0.07106 0.0
C706 C 0.60085 0.98263 0.05345 0.0
H707 H 0.77824 0.041 0.53527 0.0
H708 H 0.7878 0.13246 0.58968 0.0
H709 H 0.85026 0.1416 0.58893 0.0
H710 H 0.84026 1.02092 0.57922 0.0
H711 H 0.8563 1.00072 0.54308 0.0
H712 H 0.81294 1.00337 0.54356 0.0
H713 H 0.82311 0.02842 0.48592 0.0
H714 H 0.86673 1.02605 0.48548 0.0
H715 H 0.85717 0.06309 0.48222 0.0
H716 H 0.91012 0.13769 0.58999 0.0
H717 H 0.96296 0.12041 0.59362 0.0
H718 H 0.91545 0.03271 0.53621 0.0
C719 C 0.79349 0.06319 0.54648 0.0
C720 C 0.77815 0.08602 0.56254 0.0
C721 C 0.79898 0.11464 0.5772 0.0
C722 C 0.8345 0.12013 0.57669 0.0
C723 C 0.8488 0.09696 0.56104 0.0
C724 C 0.82897 0.06911 0.54602 0.0
C725 C 0.85043 0.04694 0.53363 0.0
C726 C 0.83933 1.0162 0.55092 0.0
C727 C 0.84929 0.04077 0.49448 0.0
C728 C 0.88523 0.06607 0.54551 0.0
C729 C 0.8838 0.09507 0.5608 0.0
C730 C 0.9118 0.11544 0.57729 0.0
C731 C 0.94166 0.1055 0.57921 0.0
C732 C 0.94325 0.07562 0.56456 0.0
C733 C 0.91513 0.05611 0.54652 0.0
H734 H 0.23367 0.63907 0.15614 0.0
H735 H 0.23758 0.73497 0.13868 0.0
H736 H 0.18548 0.71655 0.10419 0.0
H737 H 0.20317 0.60422 0.07227 0.0
H738 H 0.17551 0.56963 0.0878 0.0
H739 H 0.21339 0.59005 0.11108 0.0
H740 H 0.17717 0.59541 0.1656 0.0
H741 H 0.13925 0.57492 0.14244 0.0
H742 H 0.14207 0.61312 0.16404 0.0
H743 H 0.13318 0.68821 0.07147 0.0
H744 H 0.08305 0.652 0.04391 0.0
H745 H 0.11158 0.57376 0.08232 0.0
C746 C 0.2236 0.65622 0.14507 0.0
C747 C 0.23997 0.68859 0.15022 0.0
C748 C 0.22571 0.71013 0.13526 0.0
C749 C 0.19607 0.69987 0.11552 0.0
C750 C 0.1807 0.66793 0.11088 0.0
C751 C 0.19383 0.64636 0.12529 0.0
C752 C 0.17188 0.61335 0.11656 0.0
C753 C 0.19221 0.59313 0.09568 0.0
C754 C 0.15669 0.59832 0.1491 0.0
C755 C 0.14445 0.61981 0.09501 0.0
C756 C 0.15019 0.65147 0.09206 0.0
C757 C 0.12843 0.66336 0.07362 0.0
C758 C 0.09992 0.64248 0.05797 0.0
C759 C 0.09309 0.60984 0.06075 0.0
C760 C 0.11595 0.59848 0.0795 0.0
H761 H 0.31835 0.47469 0.70402 0.0
H762 H 0.23931 0.48383 0.63688 0.0
H763 H 0.28312 0.51066 0.59761 0.0
H764 H 0.37909 0.55073 0.68923 0.0
H765 H 0.41566 0.53495 0.69032 0.0
H766 H 0.37821 0.51912 0.71509 0.0
H767 H 0.37536 0.46384 0.68572 0.0
H768 H 0.41268 0.4795 0.66088 0.0
H769 H 0.37405 0.4576 0.63972 0.0
H770 H 0.33461 0.53057 0.56228 0.0
H771 H 0.39102 0.54456 0.53428 0.0
H772 H 0.43792 0.52547 0.62464 0.0
C773 C 0.31025 0.4829 0.68141 0.0
C774 C 0.27524 0.47716 0.67366 0.0
C775 C 0.26584 0.48797 0.64353 0.0
C776 C 0.29059 0.5033 0.62103 0.0
C777 C 0.32478 0.50802 0.62904 0.0
C778 C 0.33473 0.49847 0.65865 0.0
C779 C 0.37328 0.50508 0.66017 0.0
C780 C 0.38739 0.52889 0.69051 0.0
C781 C 0.38449 0.4747 0.66171 0.0
C782 C 0.38331 0.519 0.62635 0.0
C783 C 0.35484 0.52053 0.60891 0.0
C784 C 0.35713 0.53009 0.57596 0.0
C785 C 0.38923 0.53793 0.56024 0.0
C786 C 0.41873 0.53656 0.57751 0.0
C787 C 0.41581 0.52748 0.61124 0.0
H788 H 0.72832 0.69927 0.92007 0.0
H789 H 0.69527 0.63448 0.8307 0.0
H790 H 0.73224 0.60207 0.84712 0.0
H791 H 0.81204 0.70024 0.91294 0.0
H792 H 0.82043 0.70291 0.95805 0.0
H793 H 0.7865 0.71741 0.94341 0.0
H794 H 0.74366 0.68171 0.98193 0.0
H795 H 0.77762 0.66714 0.99686 0.0
H796 H 0.74022 0.64028 0.97819 0.0
H797 H 0.77904 0.58154 0.86795 0.0
H798 H 0.83215 0.57482 0.8914 0.0
H799 H 0.83499 0.65318 0.96681 0.0
C800 C 0.72797 0.67771 0.90457 0.0
C801 C 0.70874 0.66926 0.87425 0.0
C802 C 0.70966 0.6413 0.85415 0.0
C803 C 0.73048 0.62268 0.86335 0.0
C804 C 0.75004 0.63225 0.89281 0.0
C805 C 0.74876 0.65901 0.91327 0.0
C806 C 0.77517 0.66623 0.94122 0.0
C807 C 0.79999 0.69859 0.93872 0.0
C808 C 0.75814 0.66367 0.97665 0.0
C809 C 0.79253 0.64017 0.93237 0.0
C810 C 0.77728 0.62046 0.90476 0.0
C811 C 0.79077 0.59643 0.88999 0.0
C812 C 0.82101 0.59289 0.90332 0.0
C813 C 0.83744 0.61334 0.93103 0.0
C814 C 0.82249 0.63674 0.94618 0.0
H815 H 0.39333 0.84852 0.1776 0.0
H816 H 0.46182 0.84278 0.25804 0.0
H817 H 0.4982 0.89439 0.24646 0.0
H818 H 0.45835 0.88703 0.11953 0.0
H819 H 0.43356 0.91167 0.10523 0.0
H820 H 0.41255 0.87407 0.1194 0.0
H821 H 0.37783 0.90045 0.16358 0.0
H822 H 0.39876 0.93813 0.14957 0.0
H823 H 0.39985 0.93144 0.194 0.0
H824 H 0.52758 0.94592 0.22644 0.0
H825 H 0.54866 0.99494 0.19975 0.0
H826 H 0.46172 0.97005 0.13184 0.0
C827 C 0.41604 0.85805 0.19279 0.0
C828 C 0.42458 0.84122 0.21888 0.0
C829 C 0.45452 0.85486 0.23804 0.0
C830 C 0.47541 0.88429 0.2316 0.0
C831 C 0.46621 0.90014 0.20592 0.0
C832 C 0.43726 0.88762 0.18676 0.0
C833 C 0.43338 0.90993 0.16073 0.0
C834 C 0.43453 0.89476 0.12405 0.0
C835 C 0.4005 0.92062 0.16738 0.0
C836 C 0.46472 0.93693 0.16829 0.0
C837 C 0.48317 0.9305 0.19447 0.0
C838 C 0.51328 0.95122 0.20604 0.0
C839 C 0.52503 0.97916 0.19058 0.0
C840 C 0.50687 0.98673 0.16371 0.0
C841 C 0.4761 0.9652 0.15246 0.0
H842 H 0.10721 0.27074 0.65982 0.0
H843 H 0.1694 0.24761 0.73627 0.0
H844 H 0.15535 0.19298 0.7114 0.0
H845 H 0.04111 0.20138 0.65937 0.0
H846 H 0.03361 0.19744 0.61401 0.0
H847 H 0.05056 0.23553 0.63584 0.0
H848 H 0.10206 0.24497 0.59421 0.0
H849 H 0.08521 0.20688 0.57218 0.0
H850 H 0.12773 0.21723 0.58911 0.0
H851 H 0.13118 0.14018 0.68193 0.0
H852 H 0.09907 0.09244 0.64852 0.0
H853 H 0.05332 0.14863 0.5895 0.0
C854 C 0.11829 0.25429 0.67098 0.0
C855 C 0.13952 0.26364 0.70007 0.0
C856 C 0.15314 0.2412 0.71406 0.0
C857 C 0.14535 0.21003 0.70006 0.0
C858 C 0.12403 0.20148 0.67182 0.0
C859 C 0.11081 0.2229 0.65722 0.0
C860 C 0.08735 0.20705 0.62779 0.0
C861 C 0.05101 0.21056 0.63468 0.0
C862 C 0.10144 0.21979 0.59381 0.0
C863 C 0.08891 0.17334 0.62873 0.0
C864 C 0.11037 0.17078 0.65429 0.0
C865 C 0.11461 0.14193 0.66159 0.0
C866 C 0.09616 0.11493 0.64257 0.0
C867 C 0.07388 0.11688 0.61635 0.0
C868 C 0.07064 0.14654 0.60901 0.0
H869 H 0.63061 0.26934 0.51173 0.0
H870 H 0.67915 0.30052 0.61025 0.0
H871 H 0.66398 0.35084 0.60958 0.0
H872 H 0.65544 0.3449 0.4761 0.0
H873 H 0.61567 0.33864 0.45412 0.0
H874 H 0.63203 0.30581 0.46153 0.0
H875 H 0.57571 0.28043 0.49204 0.0
H876 H 0.5592 0.31316 0.48477 0.0
H877 H 0.56069 0.30217 0.52758 0.0
H878 H 0.64064 0.39654 0.59964 0.0
H879 H 0.61175 0.43458 0.5806 0.0
H880 H 0.57866 0.37334 0.48867 0.0
C881 C 0.63836 0.28683 0.53305 0.0
C882 C 0.65608 0.28097 0.56106 0.0
C883 C 0.66561 0.30447 0.58848 0.0
C884 C 0.65714 0.33314 0.58833 0.0
C885 C 0.63932 0.33799 0.56049 0.0
C886 C 0.6302 0.31555 0.53327 0.0
C887 C 0.61024 0.32616 0.50696 0.0
C888 C 0.62951 0.32905 0.47265 0.0
C889 C 0.57433 0.30417 0.5026 0.0
C890 C 0.60905 0.35789 0.52388 0.0
C891 C 0.62608 0.36435 0.55467 0.0
C892 C 0.62742 0.39182 0.57547 0.0
C893 C 0.61077 0.41317 0.56456 0.0
C894 C 0.59302 0.40692 0.53314 0.0
C895 C 0.59246 0.37899 0.51253 0.0
loop_
_geom_bond_atom_site_label_1
_geom_bond_atom_site_label_2
_geom_bond_distance
_geom_bond_site_symmetry_2
_ccdc_geom_bond_type
O0 Cd1 2.300 . S
O0 C7 1.275 . S
Cd1 O0 2.300 . S
Cd1 O9 2.381 . S
Cd1 O10 2.378 . S
O2 Cd3 2.385 . S
O2 C7 1.255 . S
Cd3 O2 2.385 . S
Cd3 O4 2.317 . S
O4 Cd3 2.317 . S
O4 C5 1.232 . S
C5 O4 1.232 . S
C5 O6 1.218 . S
O6 C5 1.218 . S
C7 O0 1.275 . S
C7 O2 1.255 . S
C8 O9 1.258 . S
C8 O10 1.256 . S
O9 Cd1 2.381 . S
O9 C8 1.258 . S
O10 Cd1 2.378 . S
O10 C8 1.256 . S
O11 Cd12 2.300 . S
O11 C18 1.275 . S
Cd12 O11 2.300 . S
Cd12 O20 2.381 . S
Cd12 O21 2.378 . S
O13 Cd14 2.385 . S
O13 C18 1.255 . S
Cd14 O13 2.385 . S
Cd14 O15 2.317 . S
O15 Cd14 2.317 . S
O15 C16 1.232 . S
C16 O15 1.232 . S
C16 O17 1.218 . S
O17 C16 1.218 . S
C18 O11 1.275 . S
C18 O13 1.255 . S
C19 O20 1.258 . S
C19 O21 1.256 . S
O20 Cd12 2.381 . S
O20 C19 1.258 . S
O21 Cd12 2.378 . S
O21 C19 1.256 . S
O22 Cd23 2.300 . S
O22 C29 1.275 . S
Cd23 O22 2.300 . S
Cd23 O31 2.381 . S
Cd23 O32 2.378 . S
O24 Cd25 2.385 . S
O24 C29 1.255 . S
Cd25 O24 2.385 . S
Cd25 O26 2.317 . S
O26 Cd25 2.317 . S
O26 C27 1.232 . S
C27 O26 1.232 . S
C27 O28 1.218 . S
O28 C27 1.218 . S
C29 O22 1.275 . S
C29 O24 1.255 . S
C30 O31 1.258 . S
C30 O32 1.256 . S
O31 Cd23 2.381 . S
O31 C30 1.258 . S
O32 Cd23 2.378 . S
O32 C30 1.256 . S
O33 Cd34 2.300 . S
O33 C40 1.275 . S
Cd34 O33 2.300 . S
Cd34 O42 2.381 . S
Cd34 O43 2.378 . S
O35 Cd36 2.385 . S
O35 C40 1.255 . S
Cd36 O35 2.385 . S
Cd36 O37 2.317 . S
O37 Cd36 2.317 . S
O37 C38 1.232 . S
C38 O37 1.232 . S
C38 O39 1.218 . S
O39 C38 1.218 . S
C40 O33 1.275 . S
C40 O35 1.255 . S
C41 O42 1.258 . S
C41 O43 1.256 . S
O42 Cd34 2.381 . S
O42 C41 1.258 . S
O43 Cd34 2.378 . S
O43 C41 1.256 . S
O44 Cd45 2.300 . S
O44 C51 1.275 . S
Cd45 O44 2.300 . S
Cd45 O53 2.381 . S
Cd45 O54 2.378 . S
O46 Cd47 2.385 . S
O46 C51 1.255 . S
Cd47 O46 2.385 . S
Cd47 O48 2.317 . S
O48 Cd47 2.317 . S
O48 C49 1.232 . S
C49 O48 1.232 . S
C49 O50 1.218 . S
O50 C49 1.218 . S
C51 O44 1.275 . S
C51 O46 1.255 . S
C52 O53 1.258 . S
C52 O54 1.256 . S
O53 Cd45 2.381 . S
O53 C52 1.258 . S
O54 Cd45 2.378 . S
O54 C52 1.256 . S
O55 Cd56 2.300 . S
O55 C62 1.275 . S
Cd56 O55 2.300 . S
Cd56 O64 2.381 . S
Cd56 O65 2.378 . S
O57 Cd58 2.385 . S
O57 C62 1.255 . S
Cd58 O57 2.385 . S
Cd58 O59 2.317 . S
O59 Cd58 2.317 . S
O59 C60 1.232 . S
C60 O59 1.232 . S
C60 O61 1.218 . S
O61 C60 1.218 . S
C62 O55 1.275 . S
C62 O57 1.255 . S
C63 O64 1.258 . S
C63 O65 1.256 . S
O64 Cd56 2.381 . S
O64 C63 1.258 . S
O65 Cd56 2.378 . S
O65 C63 1.256 . S
O66 Cd67 2.300 . S
O66 C73 1.275 . S
Cd67 O66 2.300 . S
Cd67 O75 2.381 . S
Cd67 O76 2.378 . S
O68 Cd69 2.385 . S
O68 C73 1.255 . S
Cd69 O68 2.385 . S
Cd69 O70 2.317 . S
O70 Cd69 2.317 . S
O70 C71 1.232 . S
C71 O70 1.232 . S
C71 O72 1.218 . S
O72 C71 1.218 . S
C73 O66 1.275 . S
C73 O68 1.255 . S
C74 O75 1.258 . S
C74 O76 1.256 . S
O75 Cd67 2.381 . S
O75 C74 1.258 . S
O76 Cd67 2.378 . S
O76 C74 1.256 . S
O77 Cd78 2.300 . S
O77 C84 1.275 . S
Cd78 O77 2.300 . S
Cd78 O86 2.381 . S
Cd78 O87 2.378 . S
O79 Cd80 2.385 . S
O79 C84 1.255 . S
Cd80 O79 2.385 . S
Cd80 O81 2.317 . S
O81 Cd80 2.317 . S
O81 C82 1.232 . S
C82 O81 1.232 . S
C82 O83 1.218 . S
O83 C82 1.218 . S
C84 O77 1.275 . S
C84 O79 1.255 . S
C85 O86 1.258 . S
C85 O87 1.256 . S
O86 Cd78 2.381 . S
O86 C85 1.258 . S
O87 Cd78 2.378 . S
O87 C85 1.256 . S
La88 C90 2.928 . S
La88 O108 2.521 . S
La88 O109 2.628 . S
La88 O110 2.544 1_545 S
La88 O111 2.757 1_545 S
La88 O112 2.470 . S
La88 O117 2.482 1_455 S
La88 O119 2.503 1_445 S
La89 C99 2.928 1_545 S
La89 O111 2.482 1_645 S
La89 O113 2.503 1_655 S
La89 O114 2.521 1_545 S
La89 O115 2.628 1_545 S
La89 O116 2.554 . S
La89 O117 2.757 . S
La89 O118 2.470 1_545 S
C90 La88 2.928 . S
C90 C91 1.503 . S
C90 O108 1.261 . S
C90 O109 1.243 . S
C91 C90 1.503 . S
C91 C92 1.394 . S
C91 C96 1.373 . S
C92 C91 1.394 . S
C92 C93 1.380 . S
C92 H120 0.930 . S
C93 C92 1.380 . S
C93 C94 1.376 . S
C93 H121 0.930 . S
C94 C93 1.376 . S
C94 C95 1.370 . S
C95 C94 1.370 . S
C95 C96 1.396 . S
C95 H122 0.929 . S
C96 C91 1.373 . S
C96 C95 1.396 . S
C96 H123 0.929 . S
C97 O110 1.244 . S
C97 O111 1.289 . S
C98 O112 1.258 . S
C98 O113 1.256 . S
C99 La89 2.928 1_565 S
C99 C100 1.503 . S
C99 O114 1.261 . S
C99 O115 1.243 . S
C100 C99 1.503 . S
C100 C101 1.394 . S
C100 C105 1.373 . S
C101 C100 1.394 . S
C101 C102 1.380 . S
C101 H124 0.930 . S
C102 C101 1.380 . S
C102 C103 1.376 . S
C102 H125 0.930 . S
C103 C102 1.376 . S
C103 C104 1.370 . S
C104 C103 1.370 . S
C104 C105 1.396 . S
C104 H126 0.929 . S
C105 C100 1.373 . S
C105 C104 1.396 . S
C105 H127 0.929 . S
C106 O116 1.240 . S
C106 O117 1.289 . S
C107 O118 1.258 . S
C107 O119 1.256 . S
O108 La88 2.521 . S
O108 C90 1.261 . S
O109 La88 2.628 . S
O109 C90 1.243 . S
O110 La88 2.544 1_565 S
O110 C97 1.244 . S
O111 La88 2.757 1_565 S
O111 La89 2.482 1_465 S
O111 C97 1.289 . S
O112 La88 2.470 . S
O112 C98 1.258 . S
O113 La89 2.503 1_455 S
O113 C98 1.256 . S
O114 La89 2.521 1_565 S
O114 C99 1.261 . S
O115 La89 2.628 1_565 S
O115 C99 1.243 . S
O116 La89 2.554 . S
O116 C106 1.240 . S
O117 La88 2.482 1_655 S
O117 La89 2.757 . S
O117 C106 1.289 . S
O118 La89 2.470 1_565 S
O118 C107 1.258 . S
O119 La88 2.503 1_665 S
O119 C107 1.256 . S
H120 C92 0.930 . S
H121 C93 0.930 . S
H122 C95 0.929 . S
H123 C96 0.929 . S
H124 C101 0.930 . S
H125 C102 0.930 . S
H126 C104 0.929 . S
H127 C105 0.929 . S
La128 C130 2.928 . S
La128 O148 2.521 . S
La128 O149 2.628 . S
La128 O150 2.554 1_545 S
La128 O151 2.757 . S
La128 O152 2.470 . S
La128 O157 2.482 . S
La128 O159 2.503 . S
La129 C139 2.928 1_544 S
La129 O151 2.482 . S
La129 O153 2.503 . S
La129 O154 2.521 1_554 S
La129 O155 2.628 1_544 S
La129 O156 2.554 . S
La129 O157 2.757 . S
La129 O158 2.473 . S
C130 La128 2.928 . S
C130 C131 1.503 . S
C130 O148 1.261 . S
C130 O149 1.243 . S
C131 C130 1.503 . S
C131 C132 1.394 . S
C131 C136 1.373 . S
C132 C131 1.394 . S
C132 C133 1.380 . S
C132 H160 0.930 . S
C133 C132 1.380 . S
C133 C134 1.376 . S
C133 H161 0.930 . S
C134 C133 1.376 . S
C134 C135 1.370 . S
C135 C134 1.370 . S
C135 C136 1.396 . S
C135 H162 0.929 . S
C136 C131 1.373 . S
C136 C135 1.396 . S
C136 H163 0.929 . S
C137 O150 1.240 . S
C137 O151 1.289 1_565 S
C138 O152 1.258 . S
C138 O153 1.256 . S
C139 La129 2.928 1_566 S
C139 C140 1.503 . S
C139 O154 1.261 1_565 S
C139 O155 1.243 . S
C140 C139 1.503 . S
C140 C141 1.394 . S
C140 C145 1.373 . S
C141 C140 1.394 . S
C141 C142 1.380 . S
C141 H164 0.930 1_565 S
C142 C141 1.380 . S
C142 C143 1.376 . S
C142 H165 0.930 . S
C143 C142 1.376 . S
C143 C144 1.370 . S
C144 C143 1.370 . S
C144 C145 1.396 . S
C144 H166 0.929 . S
C145 C140 1.373 . S
C145 C144 1.396 . S
C145 H167 0.929 . S
C146 O156 1.240 . S
C146 O157 1.289 . S
C147 O158 1.250 1_565 S
C147 O159 1.255 1_565 S
O148 La128 2.521 . S
O148 C130 1.261 . S
O149 La128 2.628 . S
O149 C130 1.243 . S
O150 La128 2.554 1_565 S
O150 C137 1.240 . S
O151 La128 2.757 . S
O151 La129 2.482 . S
O151 C137 1.289 1_545 S
O152 La128 2.470 . S
O152 C138 1.258 . S
O153 La129 2.503 . S
O153 C138 1.256 . S
O154 La129 2.521 1_556 S
O154 C139 1.261 1_545 S
O155 La129 2.628 1_566 S
O155 C139 1.243 . S
O156 La129 2.554 . S
O156 C146 1.240 . S
O157 La128 2.482 . S
O157 La129 2.757 . S
O157 C146 1.289 . S
O158 La129 2.473 . S
O158 C147 1.250 1_545 S
O159 La128 2.503 . S
O159 C147 1.255 1_545 S
H160 C132 0.930 . S
H161 C133 0.930 . S
H162 C135 0.929 . S
H163 C136 0.929 . S
H164 C141 0.930 1_545 S
H165 C142 0.930 . S
H166 C144 0.929 . S
H167 C145 0.929 . S
La168 C170 2.928 . S
La168 O188 2.521 . S
La168 O189 2.628 . S
La168 O190 2.554 . S
La168 O191 2.757 . S
La168 O192 2.470 . S
La168 O197 2.482 . S
La168 O199 2.503 . S
La169 C179 2.928 . S
La169 O191 2.482 . S
La169 O193 2.503 . S
La169 O194 2.521 . S
La169 O195 2.628 . S
La169 O196 2.554 . S
La169 O197 2.757 . S
La169 O198 2.470 . S
C170 La168 2.928 . S
C170 C171 1.503 . S
C170 O188 1.261 . S
C170 O189 1.243 . S
C171 C170 1.503 . S
C171 C172 1.394 . S
C171 C176 1.373 . S
C172 C171 1.394 . S
C172 C173 1.380 . S
C172 H200 0.930 . S
C173 C172 1.380 . S
C173 C174 1.376 . S
C173 H201 0.930 . S
C174 C173 1.376 . S
C174 C175 1.370 . S
C175 C174 1.370 . S
C175 C176 1.396 . S
C175 H202 0.929 . S
C176 C171 1.373 . S
C176 C175 1.396 . S
C176 H203 0.929 . S
C177 O190 1.240 . S
C177 O191 1.289 . S
C178 O192 1.258 . S
C178 O193 1.256 . S
C179 La169 2.928 . S
C179 C180 1.503 . S
C179 O194 1.261 . S
C179 O195 1.243 . S
C180 C179 1.503 . S
C180 C181 1.394 . S
C180 C185 1.373 . S
C181 C180 1.394 . S
C181 C182 1.380 . S
C181 H204 0.930 . S
C182 C181 1.380 . S
C182 C183 1.376 . S
C182 H205 0.930 . S
C183 C182 1.376 . S
C183 C184 1.370 . S
C184 C183 1.370 . S
C184 C185 1.396 . S
C184 H206 0.929 . S
C185 C180 1.373 . S
C185 C184 1.396 . S
C185 H207 0.929 . S
C186 O196 1.240 . S
C186 O197 1.289 . S
C187 O198 1.258 . S
C187 O199 1.256 . S
O188 La168 2.521 . S
O188 C170 1.261 . S
O189 La168 2.628 . S
O189 C170 1.243 . S
O190 La168 2.554 . S
O190 C177 1.240 . S
O191 La168 2.757 . S
O191 La169 2.482 . S
O191 C177 1.289 . S
O192 La168 2.470 . S
O192 C178 1.258 . S
O193 La169 2.503 . S
O193 C178 1.256 . S
O194 La169 2.521 . S
O194 C179 1.261 . S
O195 La169 2.628 . S
O195 C179 1.243 . S
O196 La169 2.554 . S
O196 C186 1.240 . S
O197 La168 2.482 . S
O197 La169 2.757 . S
O197 C186 1.289 . S
O198 La169 2.470 . S
O198 C187 1.258 . S
O199 La168 2.503 . S
O199 C187 1.256 . S
H200 C172 0.930 . S
H201 C173 0.930 . S
H202 C175 0.929 . S
H203 C176 0.929 . S
H204 C181 0.930 . S
H205 C182 0.930 . S
H206 C184 0.929 . S
H207 C185 0.929 . S
La208 C210 2.928 . S
La208 O228 2.521 . S
La208 O229 2.628 . S
La208 O230 2.554 1_455 S
La208 O231 2.757 1_455 S
La208 O232 2.470 . S
La208 O237 2.482 1_554 S
La208 O239 2.503 1_455 S
La209 C219 2.928 1_455 S
La209 O231 2.482 1_456 S
La209 O233 2.503 1_556 S
La209 O234 2.521 1_455 S
La209 O235 2.628 1_455 S
La209 O236 2.554 . S
La209 O237 2.757 . S
La209 O238 2.470 1_455 S
C210 La208 2.928 . S
C210 C211 1.503 . S
C210 O228 1.261 . S
C210 O229 1.243 . S
C211 C210 1.503 . S
C211 C212 1.394 . S
C211 C216 1.373 . S
C212 C211 1.394 . S
C212 C213 1.380 . S
C212 H240 0.930 . S
C213 C212 1.380 . S
C213 C214 1.376 . S
C213 H241 0.930 . S
C214 C213 1.376 . S
C214 C215 1.370 . S
C215 C214 1.370 . S
C215 C216 1.396 . S
C215 H242 0.929 . S
C216 C211 1.373 . S
C216 C215 1.396 . S
C216 H243 0.929 . S
C217 O230 1.240 . S
C217 O231 1.289 . S
C218 O232 1.258 . S
C218 O233 1.256 . S
C219 La209 2.928 1_655 S
C219 C220 1.503 . S
C219 O234 1.261 . S
C219 O235 1.243 . S
C220 C219 1.503 . S
C220 C221 1.394 . S
C220 C225 1.373 . S
C221 C220 1.394 . S
C221 C222 1.380 . S
C221 H244 0.930 . S
C222 C221 1.380 . S
C222 C223 1.376 . S
C222 H245 0.930 . S
C223 C222 1.376 . S
C223 C224 1.370 . S
C224 C223 1.370 . S
C224 C225 1.396 . S
C224 H246 0.929 . S
C225 C220 1.373 . S
C225 C224 1.396 . S
C225 H247 0.929 . S
C226 O236 1.240 . S
C226 O237 1.289 . S
C227 O238 1.258 . S
C227 O239 1.256 1_556 S
O228 La208 2.521 . S
O228 C210 1.261 . S
O229 La208 2.628 . S
O229 C210 1.243 . S
O230 La208 2.554 1_655 S
O230 C217 1.240 . S
O231 La208 2.757 1_655 S
O231 La209 2.482 1_654 S
O231 C217 1.289 . S
O232 La208 2.470 . S
O232 C218 1.258 . S
O233 La209 2.503 1_554 S
O233 C218 1.256 . S
O234 La209 2.521 1_655 S
O234 C219 1.261 . S
O235 La209 2.628 1_655 S
O235 C219 1.243 . S
O236 La209 2.554 . S
O236 C226 1.240 . S
O237 La208 2.482 1_556 S
O237 La209 2.757 . S
O237 C226 1.289 . S
O238 La209 2.470 1_655 S
O238 C227 1.258 . S
O239 La208 2.503 1_655 S
O239 C227 1.256 1_554 S
H240 C212 0.930 . S
H241 C213 0.930 . S
H242 C215 0.929 . S
H243 C216 0.929 . S
H244 C221 0.930 . S
H245 C222 0.930 . S
H246 C224 0.929 . S
H247 C225 0.929 . S
H248 C260 0.930 . S
H249 C262 0.930 . S
H250 C263 0.930 . S
H251 C267 0.959 . S
H252 C267 0.959 . S
H253 C267 0.961 . S
H254 C268 0.960 . S
H255 C268 0.961 . S
H256 C268 0.959 . S
H257 C271 0.929 . S
H258 C272 0.931 . S
H259 C274 0.930 . S
C260 H248 0.930 . S
C260 C261 1.399 . S
C260 C265 1.399 . S
C261 C260 1.399 . S
C261 C262 1.376 . S
C262 H249 0.930 . S
C262 C261 1.376 . S
C262 C263 1.388 . S
C263 H250 0.930 . S
C263 C262 1.388 . S
C263 C264 1.390 . S
C264 C263 1.390 . S
C264 C265 1.394 . S
C264 C270 1.465 . S
C265 C260 1.399 . S
C265 C264 1.394 . S
C265 C266 1.516 . S
C266 C265 1.516 . S
C266 C267 1.502 . S
C266 C268 1.561 . S
C266 C269 1.526 . S
C267 H251 0.959 . S
C267 H252 0.959 . S
C267 H253 0.961 . S
C267 C266 1.502 . S
C268 H254 0.960 . S
C268 H255 0.961 . S
C268 H256 0.959 . S
C268 C266 1.561 . S
C269 C266 1.526 . S
C269 C270 1.396 . S
C269 C274 1.390 . S
C270 C264 1.465 . S
C270 C269 1.396 . S
C270 C271 1.399 . S
C271 H257 0.929 . S
C271 C270 1.399 . S
C271 C272 1.385 . S
C272 H258 0.931 . S
C272 C271 1.385 . S
C272 C273 1.389 . S
C273 C272 1.389 . S
C273 C274 1.387 . S
C274 H259 0.930 . S
C274 C269 1.390 . S
C274 C273 1.387 . S
H275 C287 0.930 . S
H276 C289 0.930 . S
H277 C290 0.930 . S
H278 C294 0.959 . S
H279 C294 0.959 . S
H280 C294 0.961 . S
H281 C295 0.960 . S
H282 C295 0.961 . S
H283 C295 0.959 . S
H284 C298 0.929 . S
H285 C299 0.931 . S
H286 C301 0.930 . S
C287 H275 0.930 . S
C287 C288 1.399 . S
C287 C292 1.399 . S
C288 C287 1.399 . S
C288 C289 1.376 . S
C289 H276 0.930 . S
C289 C288 1.376 . S
C289 C290 1.388 . S
C290 H277 0.930 . S
C290 C289 1.388 . S
C290 C291 1.390 . S
C291 C290 1.390 . S
C291 C292 1.394 . S
C291 C297 1.465 . S
C292 C287 1.399 . S
C292 C291 1.394 . S
C292 C293 1.516 . S
C293 C292 1.516 . S
C293 C294 1.502 . S
C293 C295 1.561 . S
C293 C296 1.526 . S
C294 H278 0.959 . S
C294 H279 0.959 . S
C294 H280 0.961 . S
C294 C293 1.502 . S
C295 H281 0.960 . S
C295 H282 0.961 . S
C295 H283 0.959 . S
C295 C293 1.561 . S
C296 C293 1.526 . S
C296 C297 1.396 . S
C296 C301 1.390 . S
C297 C291 1.465 . S
C297 C296 1.396 . S
C297 C298 1.399 . S
C298 H284 0.929 . S
C298 C297 1.399 . S
C298 C299 1.385 . S
C299 H285 0.931 . S
C299 C298 1.385 . S
C299 C300 1.389 . S
C300 C299 1.389 . S
C300 C301 1.387 . S
C301 H286 0.930 . S
C301 C296 1.390 . S
C301 C300 1.387 . S
H302 C314 0.930 . S
H303 C316 0.930 . S
H304 C317 0.930 . S
H305 C321 0.959 . S
H306 C321 0.959 . S
H307 C321 0.961 . S
H308 C322 0.960 . S
H309 C322 0.961 . S
H310 C322 0.959 . S
H311 C325 0.929 . S
H312 C326 0.931 . S
H313 C328 0.930 . S
C314 H302 0.930 . S
C314 C315 1.399 . S
C314 C319 1.399 . S
C315 C314 1.399 . S
C315 C316 1.376 . S
C316 H303 0.930 . S
C316 C315 1.376 . S
C316 C317 1.388 . S
C317 H304 0.930 . S
C317 C316 1.388 . S
C317 C318 1.390 . S
C318 C317 1.390 . S
C318 C319 1.394 . S
C318 C324 1.465 . S
C319 C314 1.399 . S
C319 C318 1.394 . S
C319 C320 1.516 . S
C320 C319 1.516 . S
C320 C321 1.502 . S
C320 C322 1.561 . S
C320 C323 1.526 . S
C321 H305 0.959 . S
C321 H306 0.959 . S
C321 H307 0.961 . S
C321 C320 1.502 . S
C322 H308 0.960 . S
C322 H309 0.961 . S
C322 H310 0.959 . S
C322 C320 1.561 . S
C323 C320 1.526 . S
C323 C324 1.396 . S
C323 C328 1.390 . S
C324 C318 1.465 . S
C324 C323 1.396 . S
C324 C325 1.399 . S
C325 H311 0.929 . S
C325 C324 1.399 . S
C325 C326 1.385 . S
C326 H312 0.931 . S
C326 C325 1.385 . S
C326 C327 1.389 . S
C327 C326 1.389 . S
C327 C328 1.387 . S
C328 H313 0.930 . S
C328 C323 1.390 . S
C328 C327 1.387 . S
H329 C341 0.930 . S
H330 C343 0.930 . S
H331 C344 0.930 . S
H332 C348 0.959 1_455 S
H333 C348 0.958 1_455 S
H334 C348 0.961 . S
H335 C349 0.960 . S
H336 C349 0.961 . S
H337 C349 0.959 . S
H338 C352 0.929 . S
H339 C353 0.931 . S
H340 C355 0.930 . S
C341 H329 0.930 . S
C341 C342 1.399 . S
C341 C346 1.399 . S
C342 C341 1.399 . S
C342 C343 1.376 . S
C343 H330 0.930 . S
C343 C342 1.376 . S
C343 C344 1.388 . S
C344 H331 0.930 . S
C344 C343 1.388 . S
C344 C345 1.390 . S
C345 C344 1.390 . S
C345 C346 1.394 . S
C345 C351 1.465 . S
C346 C341 1.399 . S
C346 C345 1.394 . S
C346 C347 1.516 . S
C347 C346 1.516 . S
C347 C348 1.502 . S
C347 C349 1.561 . S
C347 C350 1.526 . S
C348 H332 0.959 1_655 S
C348 H333 0.958 1_655 S
C348 H334 0.961 . S
C348 C347 1.502 . S
C349 H335 0.960 . S
C349 H336 0.961 . S
C349 H337 0.959 . S
C349 C347 1.561 . S
C350 C347 1.526 . S
C350 C351 1.396 . S
C350 C355 1.390 . S
C351 C345 1.465 . S
C351 C350 1.396 . S
C351 C352 1.399 . S
C352 H338 0.929 . S
C352 C351 1.399 . S
C352 C353 1.385 . S
C353 H339 0.931 . S
C353 C352 1.385 . S
C353 C354 1.389 . S
C354 C353 1.389 . S
C354 C355 1.387 . S
C355 H340 0.930 . S
C355 C350 1.390 . S
C355 C354 1.387 . S
H356 C368 0.930 . S
H357 C370 0.930 . S
H358 C371 0.930 . S
H359 C375 0.959 . S
H360 C375 0.959 . S
H361 C375 0.961 . S
H362 C376 0.960 . S
H363 C376 0.961 . S
H364 C376 0.959 . S
H365 C379 0.929 . S
H366 C380 0.931 . S
H367 C382 0.930 . S
C368 H356 0.930 . S
C368 C369 1.399 . S
C368 C373 1.399 . S
C369 C368 1.399 . S
C369 C370 1.376 . S
C370 H357 0.930 . S
C370 C369 1.376 . S
C370 C371 1.388 . S
C371 H358 0.930 . S
C371 C370 1.388 . S
C371 C372 1.390 . S
C372 C371 1.390 . S
C372 C373 1.394 . S
C372 C378 1.465 . S
C373 C368 1.399 . S
C373 C372 1.394 . S
C373 C374 1.516 . S
C374 C373 1.516 . S
C374 C375 1.502 . S
C374 C376 1.561 . S
C374 C377 1.526 . S
C375 H359 0.959 . S
C375 H360 0.959 . S
C375 H361 0.961 . S
C375 C374 1.502 . S
C376 H362 0.960 . S
C376 H363 0.961 . S
C376 H364 0.959 . S
C376 C374 1.561 . S
C377 C374 1.526 . S
C377 C378 1.396 . S
C377 C382 1.390 . S
C378 C372 1.465 . S
C378 C377 1.396 . S
C378 C379 1.399 . S
C379 H365 0.929 . S
C379 C378 1.399 . S
C379 C380 1.385 . S
C380 H366 0.931 . S
C380 C379 1.385 . S
C380 C381 1.389 . S
C381 C380 1.389 . S
C381 C382 1.387 . S
C382 H367 0.930 . S
C382 C377 1.390 . S
C382 C381 1.387 . S
H383 C395 0.930 . S
H384 C397 0.930 . S
H385 C398 0.930 . S
H386 C402 0.959 . S
H387 C402 0.959 . S
H388 C402 0.961 . S
H389 C403 0.960 . S
H390 C403 0.961 1_545 S
H391 C403 0.959 1_545 S
H392 C406 0.929 . S
H393 C407 0.931 . S
H394 C409 0.930 . S
C395 H383 0.930 . S
C395 C396 1.399 . S
C395 C400 1.399 . S
C396 C395 1.399 . S
C396 C397 1.376 . S
C397 H384 0.930 . S
C397 C396 1.376 . S
C397 C398 1.388 . S
C398 H385 0.930 . S
C398 C397 1.388 . S
C398 C399 1.390 . S
C399 C398 1.390 . S
C399 C400 1.394 . S
C399 C405 1.465 . S
C400 C395 1.399 . S
C400 C399 1.394 . S
C400 C401 1.516 . S
C401 C400 1.516 . S
C401 C402 1.502 . S
C401 C403 1.561 . S
C401 C404 1.526 . S
C402 H386 0.959 . S
C402 H387 0.959 . S
C402 H388 0.961 . S
C402 C401 1.502 . S
C403 H389 0.960 . S
C403 H390 0.961 1_565 S
C403 H391 0.959 1_565 S
C403 C401 1.561 . S
C404 C401 1.526 . S
C404 C405 1.396 . S
C404 C409 1.390 . S
C405 C399 1.465 . S
C405 C404 1.396 . S
C405 C406 1.399 . S
C406 H392 0.929 . S
C406 C405 1.399 . S
C406 C407 1.385 . S
C407 H393 0.931 . S
C407 C406 1.385 . S
C407 C408 1.389 . S
C408 C407 1.389 . S
C408 C409 1.387 . S
C409 H394 0.930 . S
C409 C404 1.390 . S
C409 C408 1.387 . S
H410 C422 0.930 . S
H411 C424 0.930 . S
H412 C425 0.930 . S
H413 C429 0.959 . S
H414 C429 0.959 . S
H415 C429 0.961 . S
H416 C430 0.960 . S
H417 C430 0.961 . S
H418 C430 0.959 . S
H419 C433 0.929 1_554 S
H420 C434 0.931 1_554 S
H421 C436 0.930 . S
C422 H410 0.930 . S
C422 C423 1.399 . S
C422 C427 1.399 . S
C423 C422 1.399 . S
C423 C424 1.376 . S
C424 H411 0.930 . S
C424 C423 1.376 . S
C424 C425 1.388 . S
C425 H412 0.930 . S
C425 C424 1.388 . S
C425 C426 1.390 . S
C426 C425 1.390 . S
C426 C427 1.394 . S
C426 C432 1.465 . S
C427 C422 1.399 . S
C427 C426 1.394 . S
C427 C428 1.516 . S
C428 C427 1.516 . S
C428 C429 1.502 . S
C428 C430 1.561 . S
C428 C431 1.526 . S
C429 H413 0.959 . S
C429 H414 0.959 . S
C429 H415 0.961 . S
C429 C428 1.502 . S
C430 H416 0.960 . S
C430 H417 0.961 . S
C430 H418 0.959 . S
C430 C428 1.561 . S
C431 C428 1.526 . S
C431 C432 1.396 . S
C431 C436 1.390 . S
C432 C426 1.465 . S
C432 C431 1.396 . S
C432 C433 1.399 . S
C433 H419 0.929 1_556 S
C433 C432 1.399 . S
C433 C434 1.385 . S
C434 H420 0.931 1_556 S
C434 C433 1.385 . S
C434 C435 1.389 . S
C435 C434 1.389 . S
C435 C436 1.387 . S
C436 H421 0.930 . S
C436 C431 1.390 . S
C436 C435 1.387 . S
H437 C449 0.930 . S
H438 C451 0.930 . S
H439 C452 0.930 . S
H440 C456 0.959 . S
H441 C456 0.959 . S
H442 C456 0.961 . S
H443 C457 0.960 . S
H444 C457 0.961 . S
H445 C457 0.959 . S
H446 C460 0.929 . S
H447 C461 0.931 . S
H448 C463 0.930 . S
C449 H437 0.930 . S
C449 C450 1.399 . S
C449 C454 1.399 . S
C450 C449 1.399 . S
C450 C451 1.376 . S
C451 H438 0.930 . S
C451 C450 1.376 . S
C451 C452 1.388 . S
C452 H439 0.930 . S
C452 C451 1.388 . S
C452 C453 1.390 . S
C453 C452 1.390 . S
C453 C454 1.394 . S
C453 C459 1.465 . S
C454 C449 1.399 . S
C454 C453 1.394 . S
C454 C455 1.516 . S
C455 C454 1.516 . S
C455 C456 1.502 . S
C455 C457 1.561 . S
C455 C458 1.526 . S
C456 H440 0.959 . S
C456 H441 0.959 . S
C456 H442 0.961 . S
C456 C455 1.502 . S
C457 H443 0.960 . S
C457 H444 0.961 . S
C457 H445 0.959 . S
C457 C455 1.561 . S
C458 C455 1.526 . S
C458 C459 1.396 . S
C458 C463 1.390 . S
C459 C453 1.465 . S
C459 C458 1.396 . S
C459 C460 1.399 . S
C460 H446 0.929 . S
C460 C459 1.399 . S
C460 C461 1.385 . S
C461 H447 0.931 . S
C461 C460 1.385 . S
C461 C462 1.389 . S
C462 C461 1.389 . S
C462 C463 1.387 . S
C463 H448 0.930 . S
C463 C458 1.390 . S
C463 C462 1.387 . S
H464 C476 0.930 . S
H465 C478 0.930 . S
H466 C479 0.930 . S
H467 C483 0.959 . S
H468 C483 0.959 . S
H469 C483 0.961 . S
H470 C484 0.960 . S
H471 C484 0.961 . S
H472 C484 0.959 . S
H473 C487 0.929 . S
H474 C488 0.931 . S
H475 C490 0.930 . S
C476 H464 0.930 . S
C476 C477 1.399 . S
C476 C481 1.399 . S
C477 C476 1.399 . S
C477 C478 1.376 . S
C478 H465 0.930 . S
C478 C477 1.376 . S
C478 C479 1.388 . S
C479 H466 0.930 . S
C479 C478 1.388 . S
C479 C480 1.390 . S
C480 C479 1.390 . S
C480 C481 1.394 . S
C480 C486 1.465 . S
C481 C476 1.399 . S
C481 C480 1.394 . S
C481 C482 1.516 . S
C482 C481 1.516 . S
C482 C483 1.502 . S
C482 C484 1.561 . S
C482 C485 1.526 . S
C483 H467 0.959 . S
C483 H468 0.959 . S
C483 H469 0.961 . S
C483 C482 1.502 . S
C484 H470 0.960 . S
C484 H471 0.961 . S
C484 H472 0.959 . S
C484 C482 1.561 . S
C485 C482 1.526 . S
C485 C486 1.396 . S
C485 C490 1.390 . S
C486 C480 1.465 . S
C486 C485 1.396 . S
C486 C487 1.399 . S
C487 H473 0.929 . S
C487 C486 1.399 . S
C487 C488 1.385 . S
C488 H474 0.931 . S
C488 C487 1.385 . S
C488 C489 1.389 . S
C489 C488 1.389 . S
C489 C490 1.387 . S
C490 H475 0.930 . S
C490 C485 1.390 . S
C490 C489 1.387 . S
H491 C503 0.930 . S
H492 C505 0.930 . S
H493 C506 0.930 1_554 S
H494 C510 0.959 . S
H495 C510 0.959 . S
H496 C510 0.961 . S
H497 C511 0.960 . S
H498 C511 0.961 . S
H499 C511 0.959 . S
H500 C514 0.929 . S
H501 C515 0.931 . S
H502 C517 0.930 . S
C503 H491 0.930 . S
C503 C504 1.399 . S
C503 C508 1.399 . S
C504 C503 1.399 . S
C504 C505 1.376 . S
C505 H492 0.930 . S
C505 C504 1.376 . S
C505 C506 1.388 . S
C506 H493 0.930 1_556 S
C506 C505 1.388 . S
C506 C507 1.390 . S
C507 C506 1.390 . S
C507 C508 1.394 . S
C507 C513 1.465 . S
C508 C503 1.399 . S
C508 C507 1.394 . S
C508 C509 1.516 . S
C509 C508 1.516 . S
C509 C510 1.502 . S
C509 C511 1.561 . S
C509 C512 1.526 . S
C510 H494 0.959 . S
C510 H495 0.959 . S
C510 H496 0.961 . S
C510 C509 1.502 . S
C511 H497 0.960 . S
C511 H498 0.961 . S
C511 H499 0.959 . S
C511 C509 1.561 . S
C512 C509 1.526 . S
C512 C513 1.396 . S
C512 C517 1.390 . S
C513 C507 1.465 . S
C513 C512 1.396 . S
C513 C514 1.399 1_556 S
C514 H500 0.929 . S
C514 C513 1.399 1_554 S
C514 C515 1.385 . S
C515 H501 0.931 . S
C515 C514 1.385 . S
C515 C516 1.389 . S
C516 C515 1.389 . S
C516 C517 1.387 1_554 S
C517 H502 0.930 . S
C517 C512 1.390 . S
C517 C516 1.387 1_556 S
H518 C530 0.930 . S
H519 C532 0.930 . S
H520 C533 0.930 . S
H521 C537 0.959 . S
H522 C537 0.959 . S
H523 C537 0.961 . S
H524 C538 0.960 . S
H525 C538 0.961 . S
H526 C538 0.959 . S
H527 C541 0.929 . S
H528 C542 0.931 . S
H529 C544 0.930 . S
C530 H518 0.930 . S
C530 C531 1.399 . S
C530 C535 1.399 . S
C531 C530 1.399 . S
C531 C532 1.376 . S
C532 H519 0.930 . S
C532 C531 1.376 . S
C532 C533 1.388 . S
C533 H520 0.930 . S
C533 C532 1.388 . S
C533 C534 1.390 . S
C534 C533 1.390 . S
C534 C535 1.394 . S
C534 C540 1.465 . S
C535 C530 1.399 . S
C535 C534 1.394 . S
C535 C536 1.516 . S
C536 C535 1.516 . S
C536 C537 1.502 . S
C536 C538 1.561 . S
C536 C539 1.526 . S
C537 H521 0.959 . S
C537 H522 0.959 . S
C537 H523 0.961 . S
C537 C536 1.502 . S
C538 H524 0.960 . S
C538 H525 0.961 . S
C538 H526 0.959 . S
C538 C536 1.561 . S
C539 C536 1.526 . S
C539 C540 1.396 . S
C539 C544 1.390 . S
C540 C534 1.465 . S
C540 C539 1.396 . S
C540 C541 1.399 . S
C541 H527 0.929 . S
C541 C540 1.399 . S
C541 C542 1.385 . S
C542 H528 0.931 . S
C542 C541 1.385 . S
C542 C543 1.389 . S
C543 C542 1.389 . S
C543 C544 1.387 . S
C544 H529 0.930 . S
C544 C539 1.390 . S
C544 C543 1.387 . S
H545 C557 0.930 . S
H546 C559 0.930 . S
H547 C560 0.930 . S
H548 C564 0.959 . S
H549 C564 0.959 . S
H550 C564 0.961 . S
H551 C565 0.960 . S
H552 C565 0.961 . S
H553 C565 0.959 . S
H554 C568 0.929 . S
H555 C569 0.931 . S
H556 C571 0.930 . S
C557 H545 0.930 . S
C557 C558 1.399 . S
C557 C562 1.399 . S
C558 C557 1.399 . S
C558 C559 1.376 . S
C559 H546 0.930 . S
C559 C558 1.376 . S
C559 C560 1.388 . S
C560 H547 0.930 . S
C560 C559 1.388 . S
C560 C561 1.390 . S
C561 C560 1.390 . S
C561 C562 1.394 . S
C561 C567 1.465 . S
C562 C557 1.399 . S
C562 C561 1.394 . S
C562 C563 1.516 . S
C563 C562 1.516 . S
C563 C564 1.502 . S
C563 C565 1.561 . S
C563 C566 1.526 . S
C564 H548 0.959 . S
C564 H549 0.959 . S
C564 H550 0.961 . S
C564 C563 1.502 . S
C565 H551 0.960 . S
C565 H552 0.961 . S
C565 H553 0.959 . S
C565 C563 1.561 . S
C566 C563 1.526 . S
C566 C567 1.396 . S
C566 C571 1.390 . S
C567 C561 1.465 . S
C567 C566 1.396 . S
C567 C568 1.399 . S
C568 H554 0.929 . S
C568 C567 1.399 . S
C568 C569 1.385 . S
C569 H555 0.931 . S
C569 C568 1.385 . S
C569 C570 1.389 . S
C570 C569 1.389 . S
C570 C571 1.387 . S
C571 H556 0.930 . S
C571 C566 1.390 . S
C571 C570 1.387 . S
H572 C584 0.930 . S
H573 C586 0.930 . S
H574 C587 0.930 . S
H575 C591 0.959 . S
H576 C591 0.959 . S
H577 C591 0.961 . S
H578 C592 0.960 . S
H579 C592 0.961 . S
H580 C592 0.959 . S
H581 C595 0.929 . S
H582 C596 0.931 . S
H583 C598 0.930 . S
C584 H572 0.930 . S
C584 C585 1.399 . S
C584 C589 1.399 . S
C585 C584 1.399 . S
C585 C586 1.376 . S
C586 H573 0.930 . S
C586 C585 1.376 . S
C586 C587 1.388 . S
C587 H574 0.930 . S
C587 C586 1.388 . S
C587 C588 1.390 . S
C588 C587 1.390 . S
C588 C589 1.394 . S
C588 C594 1.465 . S
C589 C584 1.399 . S
C589 C588 1.394 . S
C589 C590 1.516 . S
C590 C589 1.516 . S
C590 C591 1.502 . S
C590 C592 1.561 . S
C590 C593 1.526 . S
C591 H575 0.959 . S
C591 H576 0.959 . S
C591 H577 0.961 . S
C591 C590 1.502 . S
C592 H578 0.960 . S
C592 H579 0.961 . S
C592 H580 0.959 . S
C592 C590 1.561 . S
C593 C590 1.526 . S
C593 C594 1.396 . S
C593 C598 1.390 . S
C594 C588 1.465 . S
C594 C593 1.396 . S
C594 C595 1.399 . S
C595 H581 0.929 . S
C595 C594 1.399 . S
C595 C596 1.385 . S
C596 H582 0.931 . S
C596 C595 1.385 . S
C596 C597 1.389 . S
C597 C596 1.389 . S
C597 C598 1.387 . S
C598 H583 0.930 . S
C598 C593 1.390 . S
C598 C597 1.387 . S
H599 C611 0.930 . S
H600 C613 0.930 . S
H601 C614 0.930 . S
H602 C618 0.959 . S
H603 C618 0.959 . S
H604 C618 0.961 . S
H605 C619 0.960 . S
H606 C619 0.961 . S
H607 C619 0.959 . S
H608 C622 0.929 . S
H609 C623 0.931 . S
H610 C625 0.930 . S
C611 H599 0.930 . S
C611 C612 1.399 . S
C611 C616 1.399 . S
C612 C611 1.399 . S
C612 C613 1.376 . S
C613 H600 0.930 . S
C613 C612 1.376 . S
C613 C614 1.388 . S
C614 H601 0.930 . S
C614 C613 1.388 . S
C614 C615 1.390 . S
C615 C614 1.390 . S
C615 C616 1.394 . S
C615 C621 1.465 . S
C616 C611 1.399 . S
C616 C615 1.394 . S
C616 C617 1.516 . S
C617 C616 1.516 . S
C617 C618 1.502 . S
C617 C619 1.561 . S
C617 C620 1.526 . S
C618 H602 0.959 . S
C618 H603 0.959 . S
C618 H604 0.961 . S
C618 C617 1.502 . S
C619 H605 0.960 . S
C619 H606 0.961 . S
C619 H607 0.959 . S
C619 C617 1.561 . S
C620 C617 1.526 . S
C620 C621 1.396 . S
C620 C625 1.390 . S
C621 C615 1.465 . S
C621 C620 1.396 . S
C621 C622 1.399 . S
C622 H608 0.929 . S
C622 C621 1.399 . S
C622 C623 1.385 . S
C623 H609 0.931 . S
C623 C622 1.385 . S
C623 C624 1.389 . S
C624 C623 1.389 . S
C624 C625 1.387 . S
C625 H610 0.930 . S
C625 C620 1.390 . S
C625 C624 1.387 . S
H626 C638 0.930 . S
H627 C640 0.930 . S
H628 C641 0.930 . S
H629 C645 0.959 . S
H630 C645 0.959 . S
H631 C645 0.961 . S
H632 C646 0.960 . S
H633 C646 0.961 . S
H634 C646 0.959 . S
H635 C649 0.929 . S
H636 C650 0.931 . S
H637 C652 0.930 . S
C638 H626 0.930 . S
C638 C639 1.399 . S
C638 C643 1.399 . S
C639 C638 1.399 . S
C639 C640 1.376 . S
C640 H627 0.930 . S
C640 C639 1.376 . S
C640 C641 1.388 . S
C641 H628 0.930 . S
C641 C640 1.388 . S
C641 C642 1.390 . S
C642 C641 1.390 . S
C642 C643 1.394 . S
C642 C648 1.465 . S
C643 C638 1.399 . S
C643 C642 1.394 . S
C643 C644 1.516 . S
C644 C643 1.516 . S
C644 C645 1.502 . S
C644 C646 1.561 . S
C644 C647 1.526 . S
C645 H629 0.959 . S
C645 H630 0.959 . S
C645 H631 0.961 . S
C645 C644 1.502 . S
C646 H632 0.960 . S
C646 H633 0.961 . S
C646 H634 0.959 . S
C646 C644 1.561 . S
C647 C644 1.526 . S
C647 C648 1.396 . S
C647 C652 1.390 . S
C648 C642 1.465 . S
C648 C647 1.396 . S
C648 C649 1.399 . S
C649 H635 0.929 . S
C649 C648 1.399 . S
C649 C650 1.385 . S
C650 H636 0.931 . S
C650 C649 1.385 . S
C650 C651 1.389 . S
C651 C650 1.389 . S
C651 C652 1.387 . S
C652 H637 0.930 . S
C652 C647 1.390 . S
C652 C651 1.387 . S
H653 C665 0.930 . S
H654 C667 0.930 . S
H655 C668 0.930 . S
H656 C672 0.959 . S
H657 C672 0.959 . S
H658 C672 0.961 . S
H659 C673 0.960 . S
H660 C673 0.961 . S
H661 C673 0.959 . S
H662 C676 0.929 . S
H663 C677 0.931 . S
H664 C679 0.930 . S
C665 H653 0.930 . S
C665 C666 1.399 . S
C665 C670 1.399 . S
C666 C665 1.399 . S
C666 C667 1.376 . S
C667 H654 0.930 . S
C667 C666 1.376 . S
C667 C668 1.388 . S
C668 H655 0.930 . S
C668 C667 1.388 . S
C668 C669 1.390 . S
C669 C668 1.390 . S
C669 C670 1.394 . S
C669 C675 1.465 . S
C670 C665 1.399 . S
C670 C669 1.394 . S
C670 C671 1.516 . S
C671 C670 1.516 . S
C671 C672 1.502 . S
C671 C673 1.561 . S
C671 C674 1.526 . S
C672 H656 0.959 . S
C672 H657 0.959 . S
C672 H658 0.961 . S
C672 C671 1.502 . S
C673 H659 0.960 . S
C673 H660 0.961 . S
C673 H661 0.959 . S
C673 C671 1.561 . S
C674 C671 1.526 . S
C674 C675 1.396 . S
C674 C679 1.390 . S
C675 C669 1.465 . S
C675 C674 1.396 . S
C675 C676 1.399 . S
C676 H662 0.929 . S
C676 C675 1.399 . S
C676 C677 1.385 . S
C677 H663 0.931 . S
C677 C676 1.385 . S
C677 C678 1.389 . S
C678 C677 1.389 . S
C678 C679 1.387 . S
C679 H664 0.930 . S
C679 C674 1.390 . S
C679 C678 1.387 . S
H680 C692 0.930 . S
H681 C694 0.930 . S
H682 C695 0.930 . S
H683 C699 0.959 . S
H684 C699 0.959 1_554 S
H685 C699 0.961 . S
H686 C700 0.960 . S
H687 C700 0.961 . S
H688 C700 0.959 . S
H689 C703 0.929 . S
H690 C704 0.931 . S
H691 C706 0.930 . S
C692 H680 0.930 . S
C692 C693 1.399 . S
C692 C697 1.399 . S
C693 C692 1.399 . S
C693 C694 1.376 . S
C694 H681 0.930 . S
C694 C693 1.376 . S
C694 C695 1.388 . S
C695 H682 0.930 . S
C695 C694 1.388 . S
C695 C696 1.390 . S
C696 C695 1.390 . S
C696 C697 1.394 . S
C696 C702 1.465 . S
C697 C692 1.399 . S
C697 C696 1.394 . S
C697 C698 1.516 . S
C698 C697 1.516 . S
C698 C699 1.502 . S
C698 C700 1.561 . S
C698 C701 1.526 . S
C699 H683 0.959 . S
C699 H684 0.959 1_556 S
C699 H685 0.961 . S
C699 C698 1.502 . S
C700 H686 0.960 . S
C700 H687 0.961 . S
C700 H688 0.959 . S
C700 C698 1.561 . S
C701 C698 1.526 . S
C701 C702 1.396 . S
C701 C706 1.390 . S
C702 C696 1.465 . S
C702 C701 1.396 . S
C702 C703 1.399 . S
C703 H689 0.929 . S
C703 C702 1.399 . S
C703 C704 1.385 . S
C704 H690 0.931 . S
C704 C703 1.385 . S
C704 C705 1.389 . S
C705 C704 1.389 . S
C705 C706 1.387 . S
C706 H691 0.930 . S
C706 C701 1.390 . S
C706 C705 1.387 . S
H707 C719 0.930 . S
H708 C721 0.930 . S
H709 C722 0.930 . S
H710 C726 0.959 . S
H711 C726 0.959 . S
H712 C726 0.961 . S
H713 C727 0.960 . S
H714 C727 0.961 . S
H715 C727 0.959 . S
H716 C730 0.929 . S
H717 C731 0.931 . S
H718 C733 0.930 . S
C719 H707 0.930 . S
C719 C720 1.399 . S
C719 C724 1.399 . S
C720 C719 1.399 . S
C720 C721 1.376 . S
C721 H708 0.930 . S
C721 C720 1.376 . S
C721 C722 1.388 . S
C722 H709 0.930 . S
C722 C721 1.388 . S
C722 C723 1.390 . S
C723 C722 1.390 . S
C723 C724 1.394 . S
C723 C729 1.465 . S
C724 C719 1.399 . S
C724 C723 1.394 . S
C724 C725 1.516 . S
C725 C724 1.516 . S
C725 C726 1.502 . S
C725 C727 1.561 . S
C725 C728 1.526 . S
C726 H710 0.959 . S
C726 H711 0.959 . S
C726 H712 0.961 . S
C726 C725 1.502 . S
C727 H713 0.960 . S
C727 H714 0.961 . S
C727 H715 0.959 . S
C727 C725 1.561 . S
C728 C725 1.526 . S
C728 C729 1.396 . S
C728 C733 1.390 . S
C729 C723 1.465 . S
C729 C728 1.396 . S
C729 C730 1.399 . S
C730 H716 0.929 . S
C730 C729 1.399 . S
C730 C731 1.385 . S
C731 H717 0.931 . S
C731 C730 1.385 . S
C731 C732 1.389 . S
C732 C731 1.389 . S
C732 C733 1.387 . S
C733 H718 0.930 . S
C733 C728 1.390 . S
C733 C732 1.387 . S
H734 C746 0.930 . S
H735 C748 0.930 . S
H736 C749 0.930 . S
H737 C753 0.959 . S
H738 C753 0.959 . S
H739 C753 0.961 . S
H740 C754 0.960 . S
H741 C754 0.961 . S
H742 C754 0.959 . S
H743 C757 0.929 . S
H744 C758 0.931 . S
H745 C760 0.930 . S
C746 H734 0.930 . S
C746 C747 1.399 . S
C746 C751 1.399 . S
C747 C746 1.399 . S
C747 C748 1.376 . S
C748 H735 0.930 . S
C748 C747 1.376 . S
C748 C749 1.388 . S
C749 H736 0.930 . S
C749 C748 1.388 . S
C749 C750 1.390 . S
C750 C749 1.390 . S
C750 C751 1.394 . S
C750 C756 1.465 . S
C751 C746 1.399 . S
C751 C750 1.394 . S
C751 C752 1.516 . S
C752 C751 1.516 . S
C752 C753 1.502 . S
C752 C754 1.561 . S
C752 C755 1.526 . S
C753 H737 0.959 . S
C753 H738 0.959 . S
C753 H739 0.961 . S
C753 C752 1.502 . S
C754 H740 0.960 . S
C754 H741 0.961 . S
C754 H742 0.959 . S
C754 C752 1.561 . S
C755 C752 1.526 . S
C755 C756 1.396 . S
C755 C760 1.390 . S
C756 C750 1.465 . S
C756 C755 1.396 . S
C756 C757 1.399 . S
C757 H743 0.929 . S
C757 C756 1.399 . S
C757 C758 1.385 . S
C758 H744 0.931 . S
C758 C757 1.385 . S
C758 C759 1.389 . S
C759 C758 1.389 . S
C759 C760 1.387 . S
C760 H745 0.930 . S
C760 C755 1.390 . S
C760 C759 1.387 . S
H761 C773 0.930 . S
H762 C775 0.930 . S
H763 C776 0.930 . S
H764 C780 0.959 . S
H765 C780 0.959 . S
H766 C780 0.961 . S
H767 C781 0.960 . S
H768 C781 0.961 . S
H769 C781 0.959 . S
H770 C784 0.929 . S
H771 C785 0.931 . S
H772 C787 0.930 . S
C773 H761 0.930 . S
C773 C774 1.399 . S
C773 C778 1.399 . S
C774 C773 1.399 . S
C774 C775 1.376 . S
C775 H762 0.930 . S
C775 C774 1.376 . S
C775 C776 1.388 . S
C776 H763 0.930 . S
C776 C775 1.388 . S
C776 C777 1.390 . S
C777 C776 1.390 . S
C777 C778 1.394 . S
C777 C783 1.465 . S
C778 C773 1.399 . S
C778 C777 1.394 . S
C778 C779 1.516 . S
C779 C778 1.516 . S
C779 C780 1.502 . S
C779 C781 1.561 . S
C779 C782 1.526 . S
C780 H764 0.959 . S
C780 H765 0.959 . S
C780 H766 0.961 . S
C780 C779 1.502 . S
C781 H767 0.960 . S
C781 H768 0.961 . S
C781 H769 0.959 . S
C781 C779 1.561 . S
C782 C779 1.526 . S
C782 C783 1.396 . S
C782 C787 1.390 . S
C783 C777 1.465 . S
C783 C782 1.396 . S
C783 C784 1.399 . S
C784 H770 0.929 . S
C784 C783 1.399 . S
C784 C785 1.385 . S
C785 H771 0.931 . S
C785 C784 1.385 . S
C785 C786 1.389 . S
C786 C785 1.389 . S
C786 C787 1.387 . S
C787 H772 0.930 . S
C787 C782 1.390 . S
C787 C786 1.387 . S
H788 C800 0.930 . S
H789 C802 0.930 . S
H790 C803 0.930 . S
H791 C807 0.959 . S
H792 C807 0.959 . S
H793 C807 0.961 . S
H794 C808 0.960 . S
H795 C808 0.961 . S
H796 C808 0.959 . S
H797 C811 0.929 . S
H798 C812 0.931 . S
H799 C814 0.930 . S
C800 H788 0.930 . S
C800 C801 1.399 . S
C800 C805 1.399 . S
C801 C800 1.399 . S
C801 C802 1.376 . S
C802 H789 0.930 . S
C802 C801 1.376 . S
C802 C803 1.388 . S
C803 H790 0.930 . S
C803 C802 1.388 . S
C803 C804 1.390 . S
C804 C803 1.390 . S
C804 C805 1.394 . S
C804 C810 1.465 . S
C805 C800 1.399 . S
C805 C804 1.394 . S
C805 C806 1.516 . S
C806 C805 1.516 . S
C806 C807 1.502 . S
C806 C808 1.561 . S
C806 C809 1.526 . S
C807 H791 0.959 . S
C807 H792 0.959 . S
C807 H793 0.961 . S
C807 C806 1.502 . S
C808 H794 0.960 . S
C808 H795 0.961 . S
C808 H796 0.959 . S
C808 C806 1.561 . S
C809 C806 1.526 . S
C809 C810 1.396 . S
C809 C814 1.390 . S
C810 C804 1.465 . S
C810 C809 1.396 . S
C810 C811 1.399 . S
C811 H797 0.929 . S
C811 C810 1.399 . S
C811 C812 1.385 . S
C812 H798 0.931 . S
C812 C811 1.385 . S
C812 C813 1.389 . S
C813 C812 1.389 . S
C813 C814 1.387 . S
C814 H799 0.930 . S
C814 C809 1.390 . S
C814 C813 1.387 . S
H815 C827 0.930 . S
H816 C829 0.930 . S
H817 C830 0.930 . S
H818 C834 0.959 . S
H819 C834 0.959 . S
H820 C834 0.961 . S
H821 C835 0.960 . S
H822 C835 0.961 . S
H823 C835 0.959 . S
H824 C838 0.929 . S
H825 C839 0.931 . S
H826 C841 0.930 . S
C827 H815 0.930 . S
C827 C828 1.399 . S
C827 C832 1.399 . S
C828 C827 1.399 . S
C828 C829 1.376 . S
C829 H816 0.930 . S
C829 C828 1.376 . S
C829 C830 1.388 . S
C830 H817 0.930 . S
C830 C829 1.388 . S
C830 C831 1.390 . S
C831 C830 1.390 . S
C831 C832 1.394 . S
C831 C837 1.465 . S
C832 C827 1.399 . S
C832 C831 1.394 . S
C832 C833 1.516 . S
C833 C832 1.516 . S
C833 C834 1.502 . S
C833 C835 1.561 . S
C833 C836 1.526 . S
C834 H818 0.959 . S
C834 H819 0.959 . S
C834 H820 0.961 . S
C834 C833 1.502 . S
C835 H821 0.960 . S
C835 H822 0.961 . S
C835 H823 0.959 . S
C835 C833 1.561 . S
C836 C833 1.526 . S
C836 C837 1.396 . S
C836 C841 1.390 . S
C837 C831 1.465 . S
C837 C836 1.396 . S
C837 C838 1.399 . S
C838 H824 0.929 . S
C838 C837 1.399 . S
C838 C839 1.385 . S
C839 H825 0.931 . S
C839 C838 1.385 . S
C839 C840 1.389 . S
C840 C839 1.389 . S
C840 C841 1.387 . S
C841 H826 0.930 . S
C841 C836 1.390 . S
C841 C840 1.387 . S
H842 C854 0.930 . S
H843 C856 0.930 . S
H844 C857 0.930 . S
H845 C861 0.959 . S
H846 C861 0.959 . S
H847 C861 0.961 . S
H848 C862 0.960 . S
H849 C862 0.961 . S
H850 C862 0.959 . S
H851 C865 0.929 . S
H852 C866 0.931 . S
H853 C868 0.930 . S
C854 H842 0.930 . S
C854 C855 1.399 . S
C854 C859 1.399 . S
C855 C854 1.399 . S
C855 C856 1.376 . S
C856 H843 0.930 . S
C856 C855 1.376 . S
C856 C857 1.388 . S
C857 H844 0.930 . S
C857 C856 1.388 . S
C857 C858 1.390 . S
C858 C857 1.390 . S
C858 C859 1.394 . S
C858 C864 1.465 . S
C859 C854 1.399 . S
C859 C858 1.394 . S
C859 C860 1.516 . S
C860 C859 1.516 . S
C860 C861 1.502 . S
C860 C862 1.561 . S
C860 C863 1.526 . S
C861 H845 0.959 . S
C861 H846 0.959 . S
C861 H847 0.961 . S
C861 C860 1.502 . S
C862 H848 0.960 . S
C862 H849 0.961 . S
C862 H850 0.959 . S
C862 C860 1.561 . S
C863 C860 1.526 . S
C863 C864 1.396 . S
C863 C868 1.390 . S
C864 C858 1.465 . S
C864 C863 1.396 . S
C864 C865 1.399 . S
C865 H851 0.929 . S
C865 C864 1.399 . S
C865 C866 1.385 . S
C866 H852 0.931 . S
C866 C865 1.385 . S
C866 C867 1.389 . S
C867 C866 1.389 . S
C867 C868 1.387 . S
C868 H853 0.930 . S
C868 C863 1.390 . S
C868 C867 1.387 . S
H869 C881 0.930 . S
H870 C883 0.930 . S
H871 C884 0.930 . S
H872 C888 0.959 . S
H873 C888 0.959 . S
H874 C888 0.961 . S
H875 C889 0.960 . S
H876 C889 0.961 . S
H877 C889 0.959 . S
H878 C892 0.929 . S
H879 C893 0.931 . S
H880 C895 0.930 . S
C881 H869 0.930 . S
C881 C882 1.399 . S
C881 C886 1.399 . S
C882 C881 1.399 . S
C882 C883 1.376 . S
C883 H870 0.930 . S
C883 C882 1.376 . S
C883 C884 1.388 . S
C884 H871 0.930 . S
C884 C883 1.388 . S
C884 C885 1.390 . S
C885 C884 1.390 . S
C885 C886 1.394 . S
C885 C891 1.465 . S
C886 C881 1.399 . S
C886 C885 1.394 . S
C886 C887 1.516 . S
C887 C886 1.516 . S
C887 C888 1.502 . S
C887 C889 1.561 . S
C887 C890 1.526 . S
C888 H872 0.959 . S
C888 H873 0.959 . S
C888 H874 0.961 . S
C888 C887 1.502 . S
C889 H875 0.960 . S
C889 H876 0.961 . S
C889 H877 0.959 . S
C889 C887 1.561 . S
C890 C887 1.526 . S
C890 C891 1.396 . S
C890 C895 1.390 . S
C891 C885 1.465 . S
C891 C890 1.396 . S
C891 C892 1.399 . S
C892 H878 0.929 . S
C892 C891 1.399 . S
C892 C893 1.385 . S
C893 H879 0.931 . S
C893 C892 1.385 . S
C893 C894 1.389 . S
C894 C893 1.389 . S
C894 C895 1.387 . S
C895 H880 0.930 . S
C895 C890 1.390 . S
C895 C894 1.387 . S
C261 C5 0.993 . S
C273 C94 1.196 . S
C288 C18 0.940 . S
C300 C143 1.089 . S
C327 C178 2.356 . S
C315 C30 2.375 . S
C342 C41 2.092 . S
C354 C217 2.063 . S
C381 C138 2.311 . S
C369 C7 2.085 . S
C408 C97 0.856 . S
C396 C16 0.960 . S
C435 C227 1.963 . S
C423 C29 1.926 . S
C462 C186 1.262 . S
C450 C38 1.205 . S
C477 C8 1.525 . S
C489 C214 1.562 . S
C516 C146 2.567 . S
C504 C27 2.376 . S
C531 C40 2.447 . S
C543 C107 2.460 . S
C558 C19 0.765 . S
C570 C183 0.702 . S
C597 C103 1.112 . S
C585 C51 0.988 . S
C612 C62 1.305 . S
C624 C134 1.286 . S
C639 C74 2.463 . S
C651 C187 2.428 . S
C666 C84 2.215 . S
C678 C226 2.256 . S
C693 C49 1.949 . S
C705 C147 2.548 1_556 S
C732 C106 0.917 . S
C720 C63 0.957 . S
C759 C218 1.777 . S
C747 C71 1.639 . S
C786 C177 1.390 . S
C774 C85 1.399 . S
C801 C52 1.542 . S
C813 C223 1.585 . S
C840 C137 2.625 . S
C828 C73 2.676 . S
C867 C98 1.982 . S
C855 C82 1.714 . S
C882 C60 0.903 . S
C894 C174 0.825 . S
