# Generated by pormake.
# Topology scu, (8,4)-cn, num edge types: 1
# Building blocks:
#     Node 0, Type 0, BuildingBlock: TAGTUT_clean_sbu_3, # of connection points: 8
#     Node 1, Type 1, BuildingBlock: KOZSID_clean_sbu_0, # of connection points: 4
#     Node 2, Type 1, BuildingBlock: KOZSID_clean_sbu_0, # of connection points: 4
#     Edge 3, Type (0, 1), BuildingBlock: FUNLAD_clean_linker_1, # of connection points: 2
#     Edge 4, Type (0, 1), BuildingBlock: FUNLAD_clean_linker_1, # of connection points: 2
#     Edge 5, Type (0, 1), BuildingBlock: FUNLAD_clean_linker_1, # of connection points: 2
#     Edge 6, Type (0, 1), BuildingBlock: FUNLAD_clean_linker_1, # of connection points: 2
#     Edge 7, Type (0, 1), BuildingBlock: FUNLAD_clean_linker_1, # of connection points: 2
#     Edge 8, Type (0, 1), BuildingBlock: FUNLAD_clean_linker_1, # of connection points: 2
#     Edge 9, Type (0, 1), BuildingBlock: FUNLAD_clean_linker_1, # of connection points: 2
#     Edge 10, Type (0, 1), BuildingBlock: FUNLAD_clean_linker_1, # of connection points: 2
# Relax obj value: 0.023
# Max RMSD: 0.102
# Mean RMSD: 0.062
data_MOF--net-scu--node1-TAGTUT_clean_sbu_3--node2-KOZSID_clean_sbu_0--edge1-FUNLAD_clean_linker_1
_symmetry_space_group_name_H-M    P1
_symmetry_Int_Tables_number       1
_symmetry_cell_setting            triclinic
loop_
_symmetry_equiv_pos_as_xyz
'x, y, z'
_cell_length_a     31.656069
_cell_length_b     26.948526
_cell_length_c     21.972078
_cell_angle_alpha  84.899149
_cell_angle_beta   87.403569
_cell_angle_gamma 90.072648
loop_
_atom_site_label
_atom_site_type_symbol
_atom_site_fract_x
_atom_site_fract_y
_atom_site_fract_z
_atom_type_partial_charge
C0 C 0.01648 0.90462 0.09446 0.0
C1 C 0.86246 0.98462 0.09501 0.0
C2 C 0.89274 0.02043 0.90262 0.0
Mg3 Mg 0.10022 0.93659 0.00774 0.0
Mg4 Mg 0.11632 0.05478 0.96535 0.0
O5 O 0.08017 -2e-05 0.96253 0.0
Mg6 Mg 0.0206 0.00409 0.99819 0.0
O7 O 0.96086 0.00241 0.03428 0.0
Mg8 Mg 0.93981 0.93866 0.00532 0.0
Mg9 Mg 0.92529 0.05774 0.01876 0.0
C10 C 0.03472 0.10654 0.90701 0.0
O11 O 0.03261 0.06831 0.05726 0.0
O12 O 0.15982 0.94305 0.93921 0.0
O13 O 0.9707 0.1104 0.04953 0.0
O14 O 0.13859 0.97673 0.0766 0.0
O15 O 0.16882 0.0256 0.91435 0.0
O16 O 0.13763 0.05913 0.05655 0.0
O17 O 1.00134 0.94156 0.94289 0.0
O18 O 0.06041 0.89639 0.9412 0.0
C19 C 0.0221 0.90417 0.92623 0.0
C20 C 0.1802 0.98026 0.91078 0.0
O21 O 0.00985 0.06938 0.92408 0.0
O22 O 0.88147 0.94719 0.07366 0.0
O23 O 0.07334 0.10882 0.92244 0.0
O24 O 0.90336 0.97767 0.9265 0.0
O25 O 0.8739 0.02988 0.08013 0.0
O26 O 0.90149 0.06019 0.92717 0.0
O27 O 0.03858 0.9411 0.06899 0.0
O28 O 0.97798 0.89855 0.08101 0.0
C29 C 0.14822 0.02044 0.08994 0.0
C30 C 0.00913 0.10617 0.06646 0.0
C31 C 0.03967 0.55467 0.40243 0.0
C32 C 0.08109 0.55648 0.3784 0.0
C33 C 0.1051 0.53069 0.42041 0.0
C34 C 0.07697 0.51294 0.46641 0.0
N35 N 0.03633 0.52485 0.45553 0.0
Co36 Co 0.98488 0.50061 0.50618 0.0
N37 N 0.02021 0.46612 0.57021 0.0
C38 C 0.06273 0.46879 0.57298 0.0
C39 C 0.07771 0.44474 0.62513 0.0
C40 C 0.04277 0.42443 0.65666 0.0
C41 C 0.00847 0.43569 0.62064 0.0
N42 N 0.93344 0.47547 0.55649 0.0
C43 C 0.93021 0.44439 0.60862 0.0
C44 C 0.8882 0.43789 0.62947 0.0
C45 C 0.86422 0.46397 0.5878 0.0
C46 C 0.89264 0.48518 0.54434 0.0
N47 N 0.94951 0.53569 0.4424 0.0
C48 C 0.9068 0.5362 0.44214 0.0
C49 C 0.89133 0.56122 0.39109 0.0
C50 C 0.92617 0.5789 0.35728 0.0
C51 C 0.9613 0.56406 0.3902 0.0
N52 N 0.98484 0.43973 0.46195 0.0
C53 C 0.98865 0.36211 0.3848 0.0
C54 C 0.95056 0.38613 0.39663 0.0
C55 C 0.9493 0.42458 0.43529 0.0
C56 C 0.0239 0.37454 0.41633 0.0
C57 C 0.02116 0.41286 0.45483 0.0
N58 N 0.98537 0.56174 0.55029 0.0
C59 C 0.94868 0.62559 0.6024 0.0
C60 C 0.98702 0.64414 0.62027 0.0
C61 C 0.02436 0.62258 0.59984 0.0
C62 C 0.02287 0.58178 0.56538 0.0
C63 C 0.94865 0.58489 0.56711 0.0
H64 H 0.0526 0.56709 0.5518 0.0
H65 H 0.9186 0.57296 0.55397 0.0
H66 H 0.91947 0.44195 0.44223 0.0
H67 H 0.049 0.42037 0.47783 0.0
C68 C 0.08783 0.48888 0.52264 0.0
C69 C 1.00451 0.58258 0.3747 0.0
C70 C 0.96551 0.41575 0.63452 0.0
C71 C 0.88205 0.51295 0.49062 0.0
H72 H 0.093 0.5752 0.33546 0.0
H73 H 0.13911 0.52631 0.41823 0.0
H74 H 0.11028 0.44097 0.63777 0.0
H75 H 0.04285 0.40261 0.70041 0.0
H76 H 0.87567 0.41564 0.66959 0.0
H77 H 0.83007 0.46613 0.58832 0.0
H78 H 0.85856 0.56655 0.38009 0.0
H79 H 0.9252 0.60104 0.31389 0.0
H80 H 0.92211 0.37633 0.37469 0.0
H81 H 0.05356 0.355 0.41148 0.0
H82 H 0.91885 0.64239 0.61488 0.0
H83 H 0.05482 0.63648 0.61157 0.0
C84 C 0.48008 0.9531 0.62994 0.0
C85 C 0.47251 0.90868 0.66631 0.0
C86 C 0.48372 0.8708 0.63158 0.0
C87 C 0.4979 0.89379 0.57636 0.0
N88 N 0.49715 0.9439 0.57425 0.0
Co89 Co 0.51848 0.99091 0.50434 0.0
N90 N 0.54741 0.93647 0.46341 0.0
C91 C 0.53949 0.88739 0.47549 0.0
C92 C 0.56269 0.85833 0.43845 0.0
C93 C 0.58672 0.89104 0.40033 0.0
C94 C 0.57657 0.93866 0.4161 0.0
N95 N 0.54109 0.03781 0.43541 0.0
C96 C 0.57356 0.03207 0.39411 0.0
C97 C 0.57774 0.07398 0.3525 0.0
C98 C 0.54778 0.1073 0.36951 0.0
C99 C 0.52647 0.08382 0.41971 0.0
N100 N 0.48812 0.04515 0.54384 0.0
C101 C 0.48059 0.09109 0.51709 0.0
C102 C 0.45914 0.12105 0.55505 0.0
C103 C 0.45167 0.09185 0.6086 0.0
C104 C 0.46809 0.04511 0.59977 0.0
N105 N 0.56925 0.00316 0.54919 0.0
C106 C 0.63975 0.02312 0.61691 0.0
C107 C 0.6166 0.06175 0.58783 0.0
C108 C 0.5819 0.05111 0.55413 0.0
C109 C 0.62707 0.97386 0.61065 0.0
C110 C 0.59181 0.96476 0.57656 0.0
N111 N 0.46752 0.97965 0.4593 0.0
C112 C 0.43383 0.97627 0.36341 0.0
C113 C 0.39374 0.97517 0.39352 0.0
C114 C 0.39157 0.97384 0.45733 0.0
C115 C 0.42861 0.97645 0.48923 0.0
C116 C 0.47021 0.97811 0.39714 0.0
H117 H 0.42542 0.97701 0.53806 0.0
H118 H 0.50049 0.97923 0.37259 0.0
H119 H 0.56511 0.08202 0.5325 0.0
H120 H 0.58249 0.92668 0.57308 0.0
C121 C 0.51611 0.86976 0.52818 0.0
C122 C 0.46158 0.0011 0.64412 0.0
C123 C 0.59612 0.98494 0.38716 0.0
C124 C 0.49782 0.10632 0.45873 0.0
H125 H 0.45857 0.90372 0.71229 0.0
H126 H 0.48202 0.83122 0.6452 0.0
H127 H 0.56365 0.81805 0.44088 0.0
H128 H 0.60963 0.88038 0.36596 0.0
H129 H 0.59918 0.07946 0.31276 0.0
H130 H 0.54284 0.14461 0.34858 0.0
H131 H 0.45069 0.15977 0.54542 0.0
H132 H 0.43545 0.10342 0.6493 0.0
H133 H 0.62513 0.10031 0.59135 0.0
H134 H 0.64328 0.94247 0.63295 0.0
H135 H 0.43729 0.97543 0.31428 0.0
H136 H 0.36127 0.97222 0.48246 0.0
H137 H 0.057 0.1394 0.12109 0.0
C138 C 0.02564 0.1443 0.10328 0.0
H139 H 0.96962 0.1871 0.10318 0.0
H140 H 0.02673 0.23221 0.37411 0.0
H141 H 0.01317 0.14432 0.40241 0.0
H142 H 0.99826 0.08743 0.32393 0.0
H143 H 0.99748 0.11779 0.21698 0.0
C144 C 1.00085 0.18124 0.12104 0.0
C145 C 0.01344 0.21393 0.16789 0.0
C146 C 0.01284 0.19533 0.23044 0.0
C147 C 0.01976 0.22835 0.27592 0.0
C148 C 0.02029 0.2089 0.33794 0.0
C149 C 0.01278 0.15852 0.35477 0.0
C150 C 1.00451 0.12648 0.31058 0.0
C151 C 1.00438 0.14445 0.24914 0.0
H152 H 0.96159 0.30536 0.33088 0.0
C153 C 0.99071 0.32439 0.33984 0.0
H154 H 0.05494 0.33668 0.3107 0.0
H155 H 0.02002 0.26013 0.0519 0.0
H156 H 0.033 0.34829 0.02393 0.0
H157 H 0.04287 0.40609 0.10325 0.0
H158 H 0.03993 0.37614 0.21091 0.0
C159 C 0.02618 0.31546 0.30664 0.0
C160 C 0.02556 0.27993 0.25891 0.0
C161 C 0.02801 0.2981 0.19632 0.0
C162 C 0.02192 0.26495 0.15069 0.0
C163 C 0.02398 0.28395 0.08841 0.0
C164 C 0.03153 0.33438 0.07176 0.0
C165 C 0.03712 0.36691 0.11642 0.0
C166 C 0.03536 0.34923 0.17805 0.0
H167 H 0.83601 0.9536 0.18468 0.0
C168 C 0.82854 0.9758 0.1429 0.0
H169 H 0.7851 0.02103 0.0954 0.0
H170 H 0.69573 0.92524 0.36805 0.0
H171 H 0.71995 0.84357 0.34372 0.0
H172 H 0.75783 0.83283 0.24509 0.0
H173 H 0.77421 0.90407 0.17253 0.0
C174 C 0.79113 -0.00082 0.13811 0.0
C175 C 0.75994 0.00253 0.19112 0.0
C176 C 0.74595 0.95953 0.22885 0.0
C177 C 0.71907 0.96467 0.28166 0.0
C178 C 0.71208 0.92249 0.32418 0.0
C179 C 0.72633 0.87556 0.31118 0.0
C180 C 0.74796 0.86959 0.25594 0.0
C181 C 0.7577 0.91095 0.21504 0.0
H182 H 0.63171 0.95082 0.31625 0.0
C183 C 0.63019 0.98224 0.34374 0.0
H184 H 0.66549 0.04497 0.3687 0.0
H185 H 0.78398 0.09414 0.13456 0.0
H186 H 0.75449 0.17393 0.15437 0.0
H187 H 0.69865 0.18063 0.23503 0.0
H188 H 0.67293 0.10777 0.29741 0.0
C189 C 0.66473 0.01531 0.33839 0.0
C190 C 0.70009 0.01137 0.29108 0.0
C191 C 0.71363 0.05436 0.25309 0.0
C192 C 0.74449 0.05015 0.20448 0.0
C193 C 0.75931 0.09435 0.17016 0.0
C194 C 0.74287 0.14072 0.18133 0.0
C195 C 0.71153 0.14451 0.22682 0.0
C196 C 0.69702 0.10209 0.26242 0.0
H197 H 0.06921 0.87123 0.14729 0.0
C198 C 0.03604 0.86728 0.13778 0.0
H199 H 0.98049 0.82371 0.1544 0.0
H200 H 0.06357 0.61989 0.23016 0.0
H201 H 0.0623 0.61242 0.12083 0.0
H202 H 0.04741 0.68547 0.04921 0.0
H203 H 0.03379 0.76643 0.08645 0.0
C204 C 0.01341 0.82845 0.16473 0.0
C205 C 0.03189 0.78822 0.20568 0.0
C206 C 0.03998 0.74138 0.18319 0.0
C207 C 0.04807 0.69923 0.22449 0.0
C208 C 0.05629 0.65286 0.20079 0.0
C209 C 0.05592 0.64815 0.13816 0.0
C210 C 0.04753 0.68927 0.09783 0.0
C211 C 0.03963 0.73545 0.11981 0.0
H212 H 0.98472 0.64103 0.30813 0.0
C213 C 0.01052 0.62706 0.33539 0.0
H214 H 0.07064 0.65328 0.36499 0.0
H215 H 0.02302 0.87407 0.26258 0.0
H216 H 0.02686 0.88216 0.37143 0.0
H217 H 0.04042 0.80886 0.44332 0.0
H218 H 0.05027 0.72702 0.40686 0.0
C219 C 0.04618 0.65839 0.33206 0.0
C220 C 0.04733 0.70392 0.28829 0.0
C221 C 0.04302 0.75162 0.31025 0.0
C222 C 0.03516 0.79391 0.2688 0.0
C223 C 0.0292 0.84082 0.29208 0.0
C224 C 0.03132 0.84596 0.35442 0.0
C225 C 0.03898 0.80468 0.3949 0.0
C226 C 0.0446 0.75792 0.37338 0.0
H227 H 0.19014 0.06314 0.14431 0.0
C228 C 0.17783 0.02613 0.1393 0.0
H229 H 0.18328 0.94918 0.16459 0.0
H230 H 0.37466 0.94275 0.21919 0.0
H231 H 0.37296 0.89961 0.12717 0.0
H232 H 0.30815 0.89817 0.06915 0.0
H233 H 0.24457 0.93935 0.10305 0.0
C234 C 0.19446 0.98638 0.17122 0.0
C235 C 0.23391 0.99009 0.20554 0.0
C236 C 0.2712 0.9664 0.18455 0.0
C237 C 0.30893 0.96821 0.21719 0.0
C238 C 0.34533 0.94332 0.1957 0.0
C239 C 0.34481 0.91829 0.14296 0.0
C240 C 0.3083 0.91738 0.11037 0.0
C241 C 0.2719 0.94108 0.13061 0.0
H242 H 0.32601 0.9574 0.38437 0.0
C243 C 0.35382 0.97453 0.36022 0.0
H244 H 0.37699 0.01471 0.27847 0.0
H245 H 0.16764 0.03631 0.26115 0.0
H246 H 0.17039 0.0834 0.34998 0.0
H247 H 0.23716 0.09202 0.40186 0.0
H248 H 0.30137 0.05281 0.36603 0.0
C249 C 0.34995 0.99653 0.30326 0.0
C250 C 0.30973 0.9943 0.2704 0.0
C251 C 0.27275 0.01906 0.29061 0.0
C252 C 0.2346 0.01604 0.25893 0.0
C253 C 0.19774 0.03893 0.28203 0.0
C254 C 0.19884 0.06586 0.3332 0.0
C255 C 0.2364 0.07056 0.36254 0.0
C256 C 0.27301 0.04757 0.3417 0.0
H257 H 0.96891 0.87814 0.87577 0.0
C258 C 1.00118 0.87005 0.88835 0.0
H259 H 0.05314 0.82154 0.88007 0.0
H260 H 0.94945 0.64075 0.8009 0.0
H261 H 0.95816 0.61295 0.90765 0.0
H262 H 0.98569 0.67003 0.97838 0.0
H263 H 1.00514 0.7552 0.9426 0.0
C264 C 0.02129 0.83104 0.86685 0.0
C265 C 1.00047 0.79879 0.82573 0.0
C266 C 0.98867 0.74949 0.84768 0.0
C267 C 0.9723 0.71682 0.8071 0.0
C268 C 0.96176 0.6673 0.8298 0.0
C269 C 0.96659 0.65085 0.89102 0.0
C270 C 0.98214 0.68297 0.93083 0.0
C271 C 0.9932 0.73173 0.90967 0.0
H272 H 0.02004 0.70494 0.65959 0.0
C273 C 0.98983 0.68556 0.65984 0.0
H274 H 0.9295 0.6763 0.70538 0.0
H275 H 0.01965 0.89156 0.76863 0.0
H276 H 0.00654 0.92071 0.66372 0.0
H277 H 0.97408 0.86527 0.59522 0.0
H278 H 0.95509 0.77997 0.63133 0.0
C279 C 0.95901 0.6971 0.70017 0.0
C280 C 0.96787 0.73368 0.74477 0.0
C281 C 0.97681 0.78404 0.72393 0.0
C282 C 0.99397 0.81645 0.7641 0.0
C283 C 1.00518 0.86569 0.74087 0.0
C284 C 0.99803 0.88288 0.68054 0.0
C285 C 0.97988 0.85163 0.64192 0.0
C286 C 0.96938 0.80273 0.66308 0.0
H287 H 0.21655 0.94079 0.84146 0.0
C288 C 0.21754 0.97128 0.87056 0.0
H289 H 0.25101 0.0323 0.89746 0.0
H290 H 0.38196 0.91873 0.70252 0.0
H291 H 0.36985 0.84162 0.76674 0.0
H292 H 0.32166 0.83916 0.8585 0.0
H293 H 0.28388 0.91309 0.88454 0.0
C294 C 0.25095 0.00264 0.86697 0.0
C295 C 0.28503 0.00416 0.81734 0.0
C296 C 0.30996 0.96176 0.8067 0.0
C297 C 0.34132 0.96444 0.75785 0.0
C298 C 0.36117 0.91987 0.7427 0.0
C299 C 0.35389 0.87518 0.77859 0.0
C300 C 0.32652 0.87372 0.82993 0.0
C301 C 0.30468 0.91637 0.84401 0.0
H302 H 0.43388 0.97959 0.73432 0.0
C303 C 0.4291 0.00053 0.69069 0.0
H304 H 0.38102 0.03174 0.63226 0.0
H305 H 0.24038 0.09149 0.81985 0.0
H306 H 0.25612 0.1693 0.7598 0.0
H307 H 0.3162 0.17638 0.68411 0.0
H308 H 0.36028 0.1054 0.6673 0.0
C309 C 0.38767 0.01585 0.678 0.0
C310 C 0.35159 0.01096 0.72471 0.0
C311 C 0.32673 0.05337 0.7354 0.0
C312 C 0.29295 0.04971 0.78068 0.0
C313 C 0.26743 0.09224 0.78793 0.0
C314 C 0.27589 0.13727 0.75337 0.0
C315 C 0.30964 0.14122 0.7107 0.0
C316 C 0.33478 0.09997 0.70156 0.0
H317 H 0.04227 0.1801 0.85728 0.0
C318 C 0.0198 0.14963 0.86809 0.0
H319 H 0.95846 0.12335 0.85252 0.0
H320 H 0.98451 0.37143 0.78357 0.0
H321 H 0.98176 0.37563 0.89334 0.0
H322 H 0.97229 0.29945 0.96371 0.0
H323 H 0.9665 0.2183 0.92433 0.0
C324 C 0.98131 0.15361 0.84493 0.0
C325 C 0.97163 0.19911 0.8044 0.0
C326 C 0.97251 0.24644 0.82781 0.0
C327 C 0.97625 0.29044 0.78714 0.0
C328 C 0.98027 0.33685 0.81206 0.0
C329 C 0.97892 0.3398 0.87513 0.0
C330 C 0.97376 0.2969 0.91478 0.0
C331 C 0.97068 0.25064 0.89165 0.0
H332 H 0.92582 0.36194 0.69043 0.0
C333 C 0.95733 0.37012 0.67079 0.0
H334 H 0.01619 0.33214 0.65244 0.0
H335 H 0.96152 0.11496 0.74572 0.0
H336 H 0.95833 0.11065 0.63598 0.0
H337 H 0.96326 0.187 0.56508 0.0
H338 H 0.97157 0.26819 0.6034 0.0
C339 C 0.98686 0.33183 0.68003 0.0
C340 C 0.97731 0.28697 0.723 0.0
C341 C 0.97182 0.24001 0.69991 0.0
C342 C 0.96874 0.19599 0.74076 0.0
C343 C 0.96411 0.14946 0.71655 0.0
C344 C 0.96209 0.14651 0.65375 0.0
C345 C 0.96488 0.18952 0.61382 0.0
C346 C 0.96976 0.23583 0.63635 0.0
H347 H 0.86522 0.98708 0.82572 0.0
C348 C 0.86666 0.02132 0.84833 0.0
H349 H 0.83827 0.09112 0.85744 0.0
H350 H 0.76897 0.0097 0.59749 0.0
H351 H 0.84119 0.0218 0.5568 0.0
H352 H 0.89723 0.04777 0.62182 0.0
H353 H 0.88152 0.06165 0.72814 0.0
C354 C 0.83953 0.05806 0.8325 0.0
C355 C 0.80496 0.04916 0.79028 0.0
C356 C 0.81439 0.04208 0.7279 0.0
C357 C 0.78184 0.02775 0.69009 0.0
C358 C 0.7924 0.02052 0.62822 0.0
C359 C 0.83371 0.02746 0.60424 0.0
C360 C 0.86529 0.04205 0.64088 0.0
C361 C 0.85591 0.04952 0.70194 0.0
H362 H 0.67607 0.07435 0.66858 0.0
C363 C 0.67508 0.03639 0.65545 0.0
H364 H 0.70789 0.96781 0.65971 0.0
H365 H 0.77526 0.06185 0.90695 0.0
H366 H 0.70316 0.05034 0.94736 0.0
H367 H 0.64705 0.02466 0.8823 0.0
H368 H 0.66269 0.01046 0.7764 0.0
C369 C 0.70582 0.00505 0.6747 0.0
C370 C 0.73963 0.02141 0.71421 0.0
C371 C 0.73 0.02967 0.77626 0.0
C372 C 0.76256 0.04395 0.81407 0.0
C373 C 0.75194 0.0512 0.87601 0.0
C374 C 0.71063 0.04461 0.89993 0.0
C375 C 0.67903 0.0302 0.86328 0.0
C376 C 0.68843 0.02252 0.80232 0.0
loop_
_geom_bond_atom_site_label_1
_geom_bond_atom_site_label_2
_geom_bond_distance
_geom_bond_site_symmetry_2
_ccdc_geom_bond_type
C0 O27 1.312 1_655 S
C0 O28 1.208 . S
C1 O22 1.331 . S
C1 O25 1.244 1_565 S
C2 O24 1.264 1_545 S
C2 O26 1.273 . S
Mg3 O5 1.936 1_565 S
Mg3 O12 2.081 . S
Mg3 O14 2.023 1_556 S
Mg3 O18 2.031 . S
Mg3 O27 2.291 1_556 S
Mg4 O5 1.963 . S
Mg4 O15 1.942 . S
Mg4 O16 1.955 1_556 S
Mg4 O23 1.986 . S
O5 Mg3 1.936 1_545 S
O5 Mg4 1.963 . S
O5 Mg6 1.911 1_556 S
Mg6 O5 1.911 1_554 S
Mg6 O7 1.919 1_455 S
Mg6 O11 2.025 . S
Mg6 O17 2.104 1_444 S
Mg6 O21 2.001 1_454 S
Mg6 O27 2.123 1_545 S
O7 Mg6 1.919 1_655 S
O7 Mg8 1.936 1_545 S
O7 Mg9 1.963 . S
Mg8 O7 1.936 1_565 S
Mg8 O17 2.291 1_554 S
Mg8 O22 2.081 . S
Mg8 O24 2.023 1_554 S
Mg8 O28 2.031 . S
Mg9 O7 1.963 . S
Mg9 O13 1.986 . S
Mg9 O25 1.942 . S
Mg9 O26 1.955 1_554 S
C10 O21 1.191 1_455 S
C10 O23 1.307 . S
O11 Mg6 2.025 . S
O11 C30 1.191 1_455 S
O12 Mg3 2.081 . S
O12 C20 1.331 . S
O13 Mg9 1.986 . S
O13 C30 1.307 . S
O14 Mg3 2.023 1_554 S
O14 C29 1.264 1_565 S
O15 Mg4 1.942 . S
O15 C20 1.244 1_545 S
O16 Mg4 1.955 1_554 S
O16 C29 1.273 . S
O17 Mg6 2.104 1_666 S
O17 Mg8 2.291 1_556 S
O17 C19 1.312 1_655 S
O18 Mg3 2.031 . S
O18 C19 1.208 . S
C19 O17 1.312 1_455 S
C19 O18 1.208 . S
C20 O12 1.331 . S
C20 O15 1.244 1_565 S
O21 Mg6 2.001 1_656 S
O21 C10 1.191 1_655 S
O22 C1 1.331 . S
O22 Mg8 2.081 . S
O23 Mg4 1.986 . S
O23 C10 1.307 . S
O24 C2 1.264 1_565 S
O24 Mg8 2.023 1_556 S
O25 C1 1.244 1_545 S
O25 Mg9 1.942 . S
O26 C2 1.273 . S
O26 Mg9 1.955 1_556 S
O27 C0 1.312 1_455 S
O27 Mg3 2.291 1_554 S
O27 Mg6 2.123 1_565 S
O28 C0 1.208 . S
O28 Mg8 2.031 . S
C29 O14 1.264 1_545 S
C29 O16 1.273 . S
C30 O11 1.191 1_655 S
C30 O13 1.307 . S
C31 C32 1.443 . S
C31 N35 1.376 . S
C31 C69 1.389 . S
C32 C31 1.443 . S
C32 C33 1.340 . S
C32 H72 0.951 . S
C33 C32 1.340 . S
C33 C34 1.439 . S
C33 H73 0.950 . S
C34 C33 1.439 . S
C34 N35 1.374 . S
C34 C68 1.395 . S
N35 C31 1.376 . S
N35 C34 1.374 . S
N35 Co36 2.008 . S
Co36 N35 2.008 . S
Co36 N37 1.995 . S
Co36 N42 2.008 1_455 S
Co36 N47 1.995 1_455 S
Co36 N52 2.282 . S
Co36 N58 2.282 . S
N37 Co36 1.995 . S
N37 C38 1.376 . S
N37 C41 1.383 . S
C38 N37 1.376 . S
C38 C39 1.446 . S
C38 C68 1.391 . S
C39 C38 1.446 . S
C39 C40 1.339 . S
C39 H74 0.949 . S
C40 C39 1.339 . S
C40 C41 1.439 . S
C40 H75 0.950 . S
C41 N37 1.383 . S
C41 C40 1.439 . S
C41 C70 1.392 . S
N42 Co36 2.008 1_655 S
N42 C43 1.376 . S
N42 C46 1.374 . S
C43 N42 1.376 . S
C43 C44 1.443 . S
C43 C70 1.389 1_655 S
C44 C43 1.443 . S
C44 C45 1.340 . S
C44 H76 0.951 . S
C45 C44 1.340 . S
C45 C46 1.439 . S
C45 H77 0.950 . S
C46 N42 1.374 . S
C46 C45 1.439 . S
C46 C71 1.395 . S
N47 Co36 1.995 1_655 S
N47 C48 1.376 . S
N47 C51 1.383 . S
C48 N47 1.376 . S
C48 C49 1.446 . S
C48 C71 1.391 . S
C49 C48 1.446 . S
C49 C50 1.339 . S
C49 H78 0.949 . S
C50 C49 1.339 . S
C50 C51 1.439 . S
C50 H79 0.950 . S
C51 N47 1.383 . S
C51 C50 1.439 . S
C51 C69 1.392 1_655 S
N52 Co36 2.282 . S
N52 C55 1.332 1_455 S
N52 C57 1.332 . S
C53 C54 1.386 1_455 S
C53 C56 1.388 . S
C54 C53 1.386 1_655 S
C54 C55 1.382 . S
C54 H80 0.950 . S
C55 N52 1.332 1_655 S
C55 C54 1.382 . S
C55 H66 0.952 . S
C56 C53 1.388 . S
C56 C57 1.382 . S
C56 H81 0.950 . S
C57 N52 1.332 . S
C57 C56 1.382 . S
C57 H67 0.948 . S
N58 Co36 2.282 . S
N58 C62 1.332 . S
N58 C63 1.332 1_455 S
C59 C60 1.388 1_655 S
C59 C63 1.382 . S
C59 H82 0.950 . S
C60 C59 1.388 1_455 S
C60 C61 1.386 . S
C61 C60 1.386 . S
C61 C62 1.382 . S
C61 H83 0.950 . S
C62 N58 1.332 . S
C62 C61 1.382 . S
C62 H64 0.952 . S
C63 N58 1.332 1_655 S
C63 C59 1.382 . S
C63 H65 0.948 . S
H64 C62 0.952 . S
H65 C63 0.948 . S
H66 C55 0.952 . S
H67 C57 0.948 . S
C68 C34 1.395 . S
C68 C38 1.391 . S
C69 C31 1.389 . S
C69 C51 1.392 1_455 S
C70 C41 1.392 . S
C70 C43 1.389 1_455 S
C71 C46 1.395 . S
C71 C48 1.391 . S
H72 C32 0.951 . S
H73 C33 0.950 . S
H74 C39 0.949 . S
H75 C40 0.950 . S
H76 C44 0.951 . S
H77 C45 0.950 . S
H78 C49 0.949 . S
H79 C50 0.950 . S
H80 C54 0.950 . S
H81 C56 0.950 . S
H82 C59 0.950 . S
H83 C61 0.950 . S
C84 C85 1.443 . S
C84 N88 1.376 . S
C84 C122 1.367 1_565 S
C85 C84 1.443 . S
C85 C86 1.340 . S
C85 H125 0.951 . S
C86 C85 1.340 . S
C86 C87 1.439 . S
C86 H126 0.950 . S
C87 C86 1.439 . S
C87 N88 1.374 . S
C87 C121 1.395 . S
N88 C84 1.376 . S
N88 C87 1.374 . S
N88 Co89 2.008 1_565 S
Co89 N88 2.008 1_545 S
Co89 N90 1.995 1_545 S
Co89 N95 2.008 . S
Co89 N100 1.995 . S
Co89 N105 2.282 1_545 S
Co89 N111 2.282 . S
N90 Co89 1.995 1_565 S
N90 C91 1.376 . S
N90 C94 1.383 . S
C91 N90 1.376 . S
C91 C92 1.446 . S
C91 C121 1.391 . S
C92 C91 1.446 . S
C92 C93 1.339 . S
C92 H127 0.949 . S
C93 C92 1.339 . S
C93 C94 1.439 . S
C93 H128 0.950 . S
C94 N90 1.383 . S
C94 C93 1.439 . S
C94 C123 1.392 1_565 S
N95 Co89 2.008 . S
N95 C96 1.376 . S
N95 C99 1.374 . S
C96 N95 1.376 . S
C96 C97 1.443 . S
C96 C123 1.389 . S
C97 C96 1.443 . S
C97 C98 1.340 . S
C97 H129 0.951 . S
C98 C97 1.340 . S
C98 C99 1.439 . S
C98 H130 0.950 . S
C99 N95 1.374 . S
C99 C98 1.439 . S
C99 C124 1.395 . S
N100 Co89 1.995 . S
N100 C101 1.376 . S
N100 C104 1.383 . S
C101 N100 1.376 . S
C101 C102 1.446 . S
C101 C124 1.391 . S
C102 C101 1.446 . S
C102 C103 1.339 . S
C102 H131 0.949 . S
C103 C102 1.339 . S
C103 C104 1.439 . S
C103 H132 0.950 . S
C104 N100 1.383 . S
C104 C103 1.439 . S
C104 C122 1.413 . S
N105 Co89 2.282 1_565 S
N105 C108 1.332 1_565 S
N105 C110 1.332 . S
C106 C107 1.386 . S
C106 C109 1.388 1_545 S
C107 C106 1.386 . S
C107 C108 1.382 . S
C107 H133 0.950 . S
C108 N105 1.332 1_545 S
C108 C107 1.382 . S
C108 H119 0.952 . S
C109 C106 1.388 1_565 S
C109 C110 1.382 . S
C109 H134 0.950 . S
C110 N105 1.332 . S
C110 C109 1.382 . S
C110 H120 0.948 . S
N111 Co89 2.282 . S
N111 C115 1.332 1_545 S
N111 C116 1.332 . S
C112 C113 1.388 . S
C112 C116 1.382 . S
C112 H135 0.950 . S
C113 C112 1.388 . S
C113 C114 1.386 1_545 S
C114 C113 1.386 1_565 S
C114 C115 1.382 . S
C114 H136 0.950 . S
C115 N111 1.332 1_565 S
C115 C114 1.382 . S
C115 H117 0.952 . S
C116 N111 1.332 . S
C116 C112 1.382 . S
C116 H118 0.948 . S
H117 C115 0.952 . S
H118 C116 0.948 . S
H119 C108 0.952 . S
H120 C110 0.948 . S
C121 C87 1.395 . S
C121 C91 1.391 . S
C122 C84 1.367 1_545 S
C122 C104 1.413 . S
C123 C94 1.392 1_545 S
C123 C96 1.389 . S
C124 C99 1.395 . S
C124 C101 1.391 . S
H125 C85 0.951 . S
H126 C86 0.950 . S
H127 C92 0.949 . S
H128 C93 0.950 . S
H129 C97 0.951 . S
H130 C98 0.950 . S
H131 C102 0.949 . S
H132 C103 0.950 . S
H133 C107 0.950 . S
H134 C109 0.950 . S
H135 C112 0.950 . S
H136 C114 0.950 . S
H137 C138 0.951 . S
C138 H137 0.951 . S
C138 C144 1.265 1_455 S
H139 C144 0.950 . S
H140 C148 0.949 1_455 S
H141 C149 0.950 . S
H142 C150 0.951 . S
H143 C151 0.951 . S
C144 C138 1.265 1_655 S
C144 H139 0.950 . S
C144 C145 1.478 . S
C145 C144 1.478 . S
C145 C146 1.397 . S
C145 C162 1.394 1_655 S
C146 C145 1.397 . S
C146 C147 1.444 . S
C146 C151 1.429 . S
C147 C146 1.444 . S
C147 C148 1.429 . S
C147 C160 1.387 1_655 S
C148 H140 0.949 1_655 S
C148 C147 1.429 . S
C148 C149 1.345 . S
C149 H141 0.950 . S
C149 C148 1.345 . S
C149 C150 1.424 . S
C150 H142 0.951 . S
C150 C149 1.424 . S
C150 C151 1.347 . S
C151 H143 0.951 . S
C151 C146 1.429 . S
C151 C150 1.347 . S
H152 C153 0.951 . S
C153 H152 0.951 . S
C153 C159 1.265 1_655 S
H154 C159 0.950 . S
H155 C163 0.949 . S
H156 C164 0.950 . S
H157 C165 0.951 . S
H158 C166 0.951 . S
C159 C153 1.265 1_455 S
C159 H154 0.950 . S
C159 C160 1.478 . S
C160 C147 1.387 1_455 S
C160 C159 1.478 . S
C160 C161 1.397 . S
C161 C160 1.397 . S
C161 C162 1.438 . S
C161 C166 1.429 . S
C162 C145 1.394 1_455 S
C162 C161 1.438 . S
C162 C163 1.428 . S
C163 H155 0.949 . S
C163 C162 1.428 . S
C163 C164 1.345 . S
C164 H156 0.950 . S
C164 C163 1.345 . S
C164 C165 1.424 . S
C165 H157 0.951 . S
C165 C164 1.424 . S
C165 C166 1.347 . S
C166 H158 0.951 . S
C166 C161 1.429 . S
C166 C165 1.347 . S
H167 C168 0.951 . S
C168 H167 0.951 . S
C168 C174 1.265 . S
H169 C174 0.950 . S
H170 C178 0.949 . S
H171 C179 0.950 . S
H172 C180 0.951 . S
H173 C181 0.951 . S
C174 C168 1.265 . S
C174 H169 0.950 . S
C174 C175 1.478 . S
C175 C174 1.478 . S
C175 C176 1.397 . S
C175 C192 1.394 1_565 S
C176 C175 1.397 . S
C176 C177 1.438 . S
C176 C181 1.429 . S
C177 C176 1.438 . S
C177 C178 1.428 . S
C177 C190 1.394 . S
C178 H170 0.949 . S
C178 C177 1.428 . S
C178 C179 1.345 . S
C179 H171 0.950 . S
C179 C178 1.345 . S
C179 C180 1.424 . S
C180 H172 0.951 . S
C180 C179 1.424 . S
C180 C181 1.347 . S
C181 H173 0.951 . S
C181 C176 1.429 . S
C181 C180 1.347 . S
H182 C183 0.952 . S
C183 H182 0.952 . S
C183 C189 1.265 1_565 S
H184 C189 0.950 . S
H185 C193 0.949 . S
H186 C194 0.950 . S
H187 C195 0.951 . S
H188 C196 0.951 . S
C189 C183 1.265 1_545 S
C189 H184 0.950 . S
C189 C190 1.478 1_545 S
C190 C177 1.394 . S
C190 C189 1.478 1_565 S
C190 C191 1.397 1_565 S
C191 C190 1.397 1_545 S
C191 C192 1.438 . S
C191 C196 1.429 . S
C192 C175 1.394 1_545 S
C192 C191 1.438 . S
C192 C193 1.428 . S
C193 H185 0.949 . S
C193 C192 1.428 . S
C193 C194 1.345 . S
C194 H186 0.950 . S
C194 C193 1.345 . S
C194 C195 1.424 . S
C195 H187 0.951 . S
C195 C194 1.424 . S
C195 C196 1.347 . S
C196 H188 0.951 . S
C196 C191 1.429 . S
C196 C195 1.347 . S
H197 C198 0.951 . S
C198 H197 0.951 . S
C198 C204 1.265 1_455 S
H199 C204 0.950 . S
H200 C208 0.949 . S
H201 C209 0.950 . S
H202 C210 0.951 . S
H203 C211 0.951 . S
C204 C198 1.265 1_655 S
C204 H199 0.950 . S
C204 C205 1.478 . S
C205 C204 1.478 . S
C205 C206 1.397 . S
C205 C222 1.394 1_655 S
C206 C205 1.397 . S
C206 C207 1.438 . S
C206 C211 1.429 . S
C207 C206 1.438 . S
C207 C208 1.428 . S
C207 C220 1.394 1_655 S
C208 H200 0.949 . S
C208 C207 1.428 . S
C208 C209 1.345 . S
C209 H201 0.950 . S
C209 C208 1.345 . S
C209 C210 1.424 . S
C210 H202 0.951 . S
C210 C209 1.424 . S
C210 C211 1.347 . S
C211 H203 0.951 . S
C211 C206 1.429 . S
C211 C210 1.347 . S
H212 C213 0.951 . S
C213 H212 0.951 . S
C213 C219 1.265 1_655 S
H214 C219 0.950 . S
H215 C223 0.949 . S
H216 C224 0.950 . S
H217 C225 0.951 . S
H218 C226 0.951 . S
C219 C213 1.265 1_455 S
C219 H214 0.950 . S
C219 C220 1.478 . S
C220 C207 1.394 1_455 S
C220 C219 1.478 . S
C220 C221 1.397 . S
C221 C220 1.397 . S
C221 C222 1.438 . S
C221 C226 1.429 . S
C222 C205 1.394 1_455 S
C222 C221 1.438 . S
C222 C223 1.428 . S
C223 H215 0.949 . S
C223 C222 1.428 . S
C223 C224 1.345 . S
C224 H216 0.950 . S
C224 C223 1.345 . S
C224 C225 1.424 . S
C225 H217 0.951 . S
C225 C224 1.424 . S
C225 C226 1.347 . S
C226 H218 0.951 . S
C226 C221 1.429 . S
C226 C225 1.347 . S
H227 C228 0.951 . S
C228 H227 0.951 . S
C228 C234 1.265 . S
H229 C234 0.950 . S
H230 C238 0.949 . S
H231 C239 0.950 . S
H232 C240 0.951 . S
H233 C241 0.951 . S
C234 C228 1.265 . S
C234 H229 0.950 . S
C234 C235 1.478 . S
C235 C234 1.478 . S
C235 C236 1.397 1_545 S
C235 C252 1.394 . S
C236 C235 1.397 1_565 S
C236 C237 1.438 . S
C236 C241 1.429 . S
C237 C236 1.438 . S
C237 C238 1.428 . S
C237 C250 1.394 1_565 S
C238 H230 0.949 . S
C238 C237 1.428 . S
C238 C239 1.345 . S
C239 H231 0.950 . S
C239 C238 1.345 . S
C239 C240 1.424 . S
C240 H232 0.951 . S
C240 C239 1.424 . S
C240 C241 1.347 . S
C241 H233 0.951 . S
C241 C236 1.429 . S
C241 C240 1.347 . S
H242 C243 0.951 1_565 S
C243 H242 0.951 1_545 S
C243 C249 1.265 . S
H244 C249 0.950 . S
H245 C253 0.949 . S
H246 C254 0.950 . S
H247 C255 0.951 . S
H248 C256 0.951 . S
C249 C243 1.265 . S
C249 H244 0.950 . S
C249 C250 1.478 . S
C250 C237 1.394 1_545 S
C250 C249 1.478 . S
C250 C251 1.397 . S
C251 C250 1.397 . S
C251 C252 1.438 . S
C251 C256 1.429 . S
C252 C235 1.394 . S
C252 C251 1.438 . S
C252 C253 1.428 . S
C253 H245 0.949 . S
C253 C252 1.428 . S
C253 C254 1.345 . S
C254 H246 0.950 . S
C254 C253 1.345 . S
C254 C255 1.424 . S
C255 H247 0.951 . S
C255 C254 1.424 . S
C255 C256 1.347 . S
C256 H248 0.951 . S
C256 C251 1.429 . S
C256 C255 1.347 . S
H257 C258 0.951 1_655 S
C258 H257 0.951 1_455 S
C258 C264 1.265 . S
H259 C264 0.950 . S
H260 C268 0.949 . S
H261 C269 0.950 . S
H262 C270 0.951 . S
H263 C271 0.951 . S
C264 C258 1.265 . S
C264 H259 0.950 . S
C264 C265 1.478 . S
C265 C264 1.478 . S
C265 C266 1.397 1_455 S
C265 C282 1.394 . S
C266 C265 1.397 1_655 S
C266 C267 1.438 . S
C266 C271 1.429 . S
C267 C266 1.438 . S
C267 C268 1.428 . S
C267 C280 1.394 . S
C268 H260 0.949 . S
C268 C267 1.428 . S
C268 C269 1.345 . S
C269 H261 0.950 . S
C269 C268 1.345 . S
C269 C270 1.424 . S
C270 H262 0.951 . S
C270 C269 1.424 . S
C270 C271 1.347 . S
C271 H263 0.951 . S
C271 C266 1.429 . S
C271 C270 1.347 . S
H272 C273 0.951 . S
C273 H272 0.951 . S
C273 C279 1.265 1_455 S
H274 C279 0.950 . S
H275 C283 0.949 . S
H276 C284 0.950 . S
H277 C285 0.951 . S
H278 C286 0.951 . S
C279 C273 1.265 1_655 S
C279 H274 0.950 . S
C279 C280 1.478 . S
C280 C267 1.394 . S
C280 C279 1.478 . S
C280 C281 1.396 1_655 S
C281 C280 1.396 1_455 S
C281 C282 1.438 . S
C281 C286 1.429 . S
C282 C265 1.394 . S
C282 C281 1.438 . S
C282 C283 1.428 . S
C283 H275 0.949 . S
C283 C282 1.428 . S
C283 C284 1.345 . S
C284 H276 0.950 . S
C284 C283 1.345 . S
C284 C285 1.424 . S
C285 H277 0.951 . S
C285 C284 1.424 . S
C285 C286 1.347 . S
C286 H278 0.951 . S
C286 C281 1.429 . S
C286 C285 1.347 . S
H287 C288 0.951 1_545 S
C288 H287 0.951 1_565 S
C288 C294 1.265 . S
H289 C294 0.950 . S
H290 C298 0.949 . S
H291 C299 0.950 . S
H292 C300 0.951 . S
H293 C301 0.951 . S
C294 C288 1.265 . S
C294 H289 0.950 . S
C294 C295 1.478 . S
C295 C294 1.478 . S
C295 C296 1.397 . S
C295 C312 1.394 1_565 S
C296 C295 1.397 . S
C296 C297 1.438 . S
C296 C301 1.429 . S
C297 C296 1.438 . S
C297 C298 1.428 . S
C297 C310 1.394 1_565 S
C298 H290 0.949 . S
C298 C297 1.428 . S
C298 C299 1.345 . S
C299 H291 0.950 . S
C299 C298 1.345 . S
C299 C300 1.424 . S
C300 H292 0.951 . S
C300 C299 1.424 . S
C300 C301 1.347 . S
C301 H293 0.951 . S
C301 C296 1.429 . S
C301 C300 1.347 . S
H302 C303 0.951 . S
C303 H302 0.951 . S
C303 C309 1.265 1_565 S
H304 C309 0.950 . S
H305 C313 0.949 . S
H306 C314 0.950 . S
H307 C315 0.951 . S
H308 C316 0.951 . S
C309 C303 1.265 1_545 S
C309 H304 0.950 . S
C309 C310 1.478 . S
C310 C297 1.394 1_545 S
C310 C309 1.478 . S
C310 C311 1.397 . S
C311 C310 1.397 . S
C311 C312 1.438 . S
C311 C316 1.429 . S
C312 C295 1.394 1_545 S
C312 C311 1.438 . S
C312 C313 1.428 . S
C313 H305 0.949 . S
C313 C312 1.428 . S
C313 C314 1.345 . S
C314 H306 0.950 . S
C314 C313 1.345 . S
C314 C315 1.424 . S
C315 H307 0.951 . S
C315 C314 1.424 . S
C315 C316 1.347 . S
C316 H308 0.951 . S
C316 C311 1.429 . S
C316 C315 1.347 . S
H317 C318 0.951 . S
C318 H317 0.951 . S
C318 C324 1.265 1_455 S
H319 C324 0.950 . S
H320 C328 0.949 . S
H321 C329 0.950 . S
H322 C330 0.951 . S
H323 C331 0.951 . S
C324 C318 1.265 1_655 S
C324 H319 0.950 . S
C324 C325 1.478 1_655 S
C325 C324 1.478 1_455 S
C325 C326 1.398 . S
C325 C342 1.393 1_455 S
C326 C325 1.398 . S
C326 C327 1.438 . S
C326 C331 1.429 . S
C327 C326 1.438 . S
C327 C328 1.428 . S
C327 C340 1.394 . S
C328 H320 0.949 . S
C328 C327 1.428 . S
C328 C329 1.345 . S
C329 H321 0.950 . S
C329 C328 1.345 . S
C329 C330 1.424 . S
C330 H322 0.951 . S
C330 C329 1.424 . S
C330 C331 1.347 . S
C331 H323 0.951 . S
C331 C326 1.429 . S
C331 C330 1.347 . S
H332 C333 0.948 1_655 S
C333 H332 0.948 1_455 S
C333 C339 1.267 . S
H334 C339 0.950 . S
H335 C343 0.949 . S
H336 C344 0.950 . S
H337 C345 0.951 . S
H338 C346 0.949 1_455 S
C339 C333 1.267 . S
C339 H334 0.950 . S
C339 C340 1.478 . S
C340 C327 1.394 . S
C340 C339 1.478 . S
C340 C341 1.397 . S
C341 C340 1.397 . S
C341 C342 1.438 1_455 S
C341 C346 1.429 1_455 S
C342 C325 1.393 1_655 S
C342 C341 1.438 1_655 S
C342 C343 1.428 . S
C343 H335 0.949 . S
C343 C342 1.428 . S
C343 C344 1.345 . S
C344 H336 0.950 . S
C344 C343 1.345 . S
C344 C345 1.424 . S
C345 H337 0.951 . S
C345 C344 1.424 . S
C345 C346 1.347 . S
C346 H338 0.949 1_655 S
C346 C341 1.429 1_655 S
C346 C345 1.347 . S
H347 C348 0.957 . S
C348 H347 0.957 . S
C348 C354 1.265 . S
H349 C354 0.950 . S
H350 C358 0.949 . S
H351 C359 0.950 . S
H352 C360 0.951 . S
H353 C361 0.951 . S
C354 C348 1.265 . S
C354 H349 0.950 . S
C354 C355 1.478 . S
C355 C354 1.478 . S
C355 C356 1.397 1_545 S
C355 C372 1.394 . S
C356 C355 1.397 1_565 S
C356 C357 1.438 . S
C356 C361 1.429 . S
C357 C356 1.438 . S
C357 C358 1.428 . S
C357 C370 1.394 1_565 S
C358 H350 0.949 . S
C358 C357 1.428 . S
C358 C359 1.345 . S
C359 H351 0.950 . S
C359 C358 1.345 . S
C359 C360 1.424 . S
C360 H352 0.951 . S
C360 C359 1.424 . S
C360 C361 1.347 . S
C361 H353 0.951 . S
C361 C356 1.429 . S
C361 C360 1.347 . S
H362 C363 0.951 . S
C363 H362 0.951 . S
C363 C369 1.265 1_545 S
H364 C369 0.950 . S
H365 C373 0.949 . S
H366 C374 0.950 . S
H367 C375 0.951 . S
H368 C376 0.951 . S
C369 C363 1.265 1_565 S
C369 H364 0.950 . S
C369 C370 1.478 1_565 S
C370 C357 1.394 1_545 S
C370 C369 1.478 1_545 S
C370 C371 1.397 . S
C371 C370 1.397 . S
C371 C372 1.438 . S
C371 C376 1.429 . S
C372 C355 1.394 . S
C372 C371 1.438 . S
C372 C373 1.428 . S
C373 H365 0.949 . S
C373 C372 1.428 . S
C373 C374 1.345 . S
C374 H366 0.950 . S
C374 C373 1.345 . S
C374 C375 1.424 . S
C375 H367 0.951 . S
C375 C374 1.424 . S
C375 C376 1.347 . S
C376 H368 0.951 . S
C376 C371 1.429 . S
C376 C375 1.347 . S
C138 C30 1.306 1_455 S
C153 C53 1.314 1_655 S
C168 C1 1.645 . S
C183 C123 1.651 1_565 S
C198 C0 1.416 1_455 S
C213 C69 1.443 1_655 S
C228 C29 1.486 . S
C243 C113 1.553 . S
C258 C19 1.329 . S
C273 C60 1.316 . S
C288 C20 1.636 . S
C303 C122 1.641 1_565 S
C333 C70 1.429 . S
C318 C10 1.393 . S
C348 C2 1.492 . S
C363 C106 1.561 . S
