# Generated by pormake.
# Topology zzz, (3,6)-cn, num edge types: 1
# Building blocks:
#     Node 0, Type 0, BuildingBlock: OLANEW_clean_sbu_2, # of connection points: 3
#     Node 1, Type 0, BuildingBlock: OLANEW_clean_sbu_2, # of connection points: 3
#     Node 2, Type 0, BuildingBlock: OLANEW_clean_sbu_2, # of connection points: 3
#     Node 3, Type 0, BuildingBlock: OLANEW_clean_sbu_2, # of connection points: 3
#     Node 4, Type 0, BuildingBlock: OLANEW_clean_sbu_2, # of connection points: 3
#     Node 5, Type 0, BuildingBlock: OLANEW_clean_sbu_2, # of connection points: 3
#     Node 6, Type 0, BuildingBlock: OLANEW_clean_sbu_2, # of connection points: 3
#     Node 7, Type 0, BuildingBlock: OLANEW_clean_sbu_2, # of connection points: 3
#     Node 8, Type 1, BuildingBlock: MIFKUJ_clean_sbu_0, # of connection points: 6
#     Node 9, Type 1, BuildingBlock: MIFKUJ_clean_sbu_0, # of connection points: 6
#     Node 10, Type 1, BuildingBlock: MIFKUJ_clean_sbu_0, # of connection points: 6
#     Node 11, Type 1, BuildingBlock: MIFKUJ_clean_sbu_0, # of connection points: 6
#     Edge 12, Type (0, 1), BuildingBlock: UVAHIK_clean_linker_0, # of connection points: 2
#     Edge 13, Type (0, 1), BuildingBlock: UVAHIK_clean_linker_0, # of connection points: 2
#     Edge 14, Type (0, 1), BuildingBlock: UVAHIK_clean_linker_0, # of connection points: 2
#     Edge 15, Type (0, 1), BuildingBlock: UVAHIK_clean_linker_0, # of connection points: 2
#     Edge 16, Type (0, 1), BuildingBlock: UVAHIK_clean_linker_0, # of connection points: 2
#     Edge 17, Type (0, 1), BuildingBlock: UVAHIK_clean_linker_0, # of connection points: 2
#     Edge 18, Type (0, 1), BuildingBlock: UVAHIK_clean_linker_0, # of connection points: 2
#     Edge 19, Type (0, 1), BuildingBlock: UVAHIK_clean_linker_0, # of connection points: 2
#     Edge 20, Type (0, 1), BuildingBlock: UVAHIK_clean_linker_0, # of connection points: 2
#     Edge 21, Type (0, 1), BuildingBlock: UVAHIK_clean_linker_0, # of connection points: 2
#     Edge 22, Type (0, 1), BuildingBlock: UVAHIK_clean_linker_0, # of connection points: 2
#     Edge 23, Type (0, 1), BuildingBlock: UVAHIK_clean_linker_0, # of connection points: 2
#     Edge 24, Type (0, 1), BuildingBlock: UVAHIK_clean_linker_0, # of connection points: 2
#     Edge 25, Type (0, 1), BuildingBlock: UVAHIK_clean_linker_0, # of connection points: 2
#     Edge 26, Type (0, 1), BuildingBlock: UVAHIK_clean_linker_0, # of connection points: 2
#     Edge 27, Type (0, 1), BuildingBlock: UVAHIK_clean_linker_0, # of connection points: 2
#     Edge 28, Type (0, 1), BuildingBlock: UVAHIK_clean_linker_0, # of connection points: 2
#     Edge 29, Type (0, 1), BuildingBlock: UVAHIK_clean_linker_0, # of connection points: 2
#     Edge 30, Type (0, 1), BuildingBlock: UVAHIK_clean_linker_0, # of connection points: 2
#     Edge 31, Type (0, 1), BuildingBlock: UVAHIK_clean_linker_0, # of connection points: 2
#     Edge 32, Type (0, 1), BuildingBlock: UVAHIK_clean_linker_0, # of connection points: 2
#     Edge 33, Type (0, 1), BuildingBlock: UVAHIK_clean_linker_0, # of connection points: 2
#     Edge 34, Type (0, 1), BuildingBlock: UVAHIK_clean_linker_0, # of connection points: 2
#     Edge 35, Type (0, 1), BuildingBlock: UVAHIK_clean_linker_0, # of connection points: 2
# Relax obj value: 0.118
# Max RMSD: 0.125
# Mean RMSD: 0.094
data_MOF--net-zzz--node1-OLANEW_clean_sbu_2--node2-MIFKUJ_clean_sbu_0--edge1-UVAHIK_clean_linker_0
_symmetry_space_group_name_H-M    P1
_symmetry_Int_Tables_number       1
_symmetry_cell_setting            triclinic
loop_
_symmetry_equiv_pos_as_xyz
'x, y, z'
_cell_length_a     67.379359
_cell_length_b     68.222149
_cell_length_c     22.322645
_cell_angle_alpha  89.891138
_cell_angle_beta   89.966042
_cell_angle_gamma 89.926738
loop_
_atom_site_label
_atom_site_type_symbol
_atom_site_fract_x
_atom_site_fract_y
_atom_site_fract_z
_atom_type_partial_charge
O0 O 0.77822 0.62604 0.91835 0.0
Cd1 Cd 0.74629 0.64281 0.92501 0.0
O2 O 0.77022 0.60668 0.99338 0.0
Cd3 Cd 0.77993 0.58482 0.05873 0.0
O4 O 0.79951 0.56975 0.12152 0.0
C5 C 0.81751 0.5753 0.12333 0.0
O6 O 0.82331 0.5894 0.08722 0.0
C7 C 0.78253 0.61197 0.95337 0.0
C8 C 0.71534 0.61859 0.88818 0.0
O9 O 0.72505 0.62898 0.85033 0.0
O10 O 0.72025 0.61969 0.94355 0.0
O11 O 0.9283 0.77007 0.96101 0.0
Cd12 Cd 0.9128 0.7395 0.99234 0.0
O13 O 0.94808 0.76974 0.03915 0.0
Cd14 Cd 0.96925 0.78484 0.09678 0.0
O15 O 0.98359 0.80754 0.14981 0.0
C16 C 0.98203 0.82518 0.13206 0.0
O17 O 0.97226 0.8289 0.08243 0.0
C18 C 0.94226 0.77782 0.99089 0.0
C19 C 0.92989 0.70841 0.93036 0.0
O20 O 0.9152 0.71795 0.90836 0.0
O21 O 0.93633 0.71343 0.98213 0.0
O22 O 0.732 0.89465 0.87524 0.0
Cd23 Cd 0.76171 0.87637 0.90358 0.0
O24 O 0.72347 0.89929 0.96915 0.0
Cd25 Cd 0.702 0.90915 0.03619 0.0
O26 O 0.67819 0.92049 0.09274 0.0
C27 C 0.67577 0.9389 0.09696 0.0
O28 O 0.68779 0.95061 0.06749 0.0
C29 C 0.72015 0.90185 0.91363 0.0
C30 C 0.79579 0.89616 0.86683 0.0
O31 O 0.78667 0.88449 0.83135 0.0
O32 O 0.78887 0.89836 0.9199 0.0
O33 O 0.44824 0.74545 0.96296 0.0
Cd34 Cd 0.44121 0.77774 0.00486 0.0
O35 O 0.44411 0.73346 0.05332 0.0
Cd36 Cd 0.44644 0.70927 0.11716 0.0
O37 O 0.45148 0.68254 0.16856 0.0
C38 C 0.46807 0.67374 0.16473 0.0
O39 O 0.48194 0.68104 0.12984 0.0
C40 C 0.44799 0.73081 0.99818 0.0
C41 C 0.44594 0.80807 0.92223 0.0
O42 O 0.46068 0.80165 0.95284 0.0
O43 O 0.42898 0.79999 0.93028 0.0
O44 O 0.2373 0.41377 0.34961 0.0
Cd45 Cd 0.2679 0.39568 0.32987 0.0
O46 O 0.22636 0.40377 0.26234 0.0
Cd47 Cd 0.20453 0.40486 0.19004 0.0
O48 O 0.18058 0.41366 0.13012 0.0
C49 C 0.17573 0.43166 0.12971 0.0
O50 O 0.18523 0.44386 0.16502 0.0
C51 C 0.22365 0.4134 0.3104 0.0
C52 C 0.30048 0.41116 0.39033 0.0
O53 O 0.29528 0.41776 0.33888 0.0
O54 O 0.29018 0.39728 0.41344 0.0
O55 O 0.89248 0.23721 0.28978 0.0
Cd56 Cd 0.88471 0.26993 0.25254 0.0
O57 O 0.91812 0.23754 0.22921 0.0
Cd58 Cd 0.94518 0.22439 0.19295 0.0
O59 O 0.96285 0.20062 0.15545 0.0
C60 C 0.97516 0.20319 0.11308 0.0
O61 O 0.97816 0.221 0.09251 0.0
C62 C 0.9076 0.22866 0.26807 0.0
C63 C 0.9029 0.29871 0.32158 0.0
O64 O 0.88494 0.29352 0.33188 0.0
O65 O 0.91221 0.2903 0.27862 0.0
O66 O 0.26342 0.12626 0.32151 0.0
Cd67 Cd 0.23271 0.14519 0.31991 0.0
O68 O 0.2737 0.13772 0.23476 0.0
Cd69 Cd 0.29485 0.13669 0.16047 0.0
O70 O 0.31789 0.12658 0.09912 0.0
C71 C 0.32112 0.10823 0.09734 0.0
O72 O 0.31056 0.09661 0.13189 0.0
C73 C 0.27641 0.12681 0.28028 0.0
C74 C 0.20253 0.12349 0.37375 0.0
O75 O 0.2054 0.12283 0.31702 0.0
O76 O 0.21377 0.13465 0.40495 0.0
O77 O 0.65056 0.2686 0.33851 0.0
Cd78 Cd 0.65963 0.23624 0.30123 0.0
O79 O 0.62437 0.26627 0.28072 0.0
Cd80 Cd 0.59611 0.27747 0.24672 0.0
O81 O 0.57659 0.2998 0.20901 0.0
C82 C 0.57036 0.2982 0.15558 0.0
O83 O 0.57478 0.28232 0.12511 0.0
C84 C 0.63467 0.27603 0.31797 0.0
C85 C 0.63445 0.20787 0.34881 0.0
O86 O 0.65136 0.21134 0.37278 0.0
O87 O 0.62954 0.21769 0.30211 0.0
Zn88 Zn 0.99516 0.02418 0.61207 0.0
Zn89 Zn 0.01304 0.99092 0.67564 0.0
C90 C 0.00885 0.05361 0.69026 0.0
O91 O 0.01617 0.05975 0.63898 0.0
C92 C 0.02397 0.97173 0.56743 0.0
O93 O 0.04121 0.97198 0.59491 0.0
O94 O 0.98235 0.04498 0.56148 0.0
O95 O 0.0224 0.01861 0.57913 0.0
O96 O 0.03481 0.01117 0.6677 0.0
C97 C 0.98525 0.04837 0.50621 0.0
O98 O 0.99744 0.03713 0.47573 0.0
O99 O 0.99908 0.03768 0.69138 0.0
C100 C 0.01009 0.9527 0.71424 0.0
O101 O 0.99617 0.95447 0.67345 0.0
O102 O 0.02098 0.96743 0.72623 0.0
O103 O 0.9867 0.99864 0.71137 0.0
O104 O 0.975 0.0025 0.62101 0.0
O105 O 0.00911 0.97982 0.59242 0.0
C106 C 0.0371 0.01797 0.61492 0.0
C107 C 0.97235 0.99724 0.67494 0.0
Zn108 Zn 0.47968 0.02336 0.55862 0.0
Zn109 Zn 0.51576 0.01711 0.63616 0.0
C110 C 0.45105 0.02656 0.65111 0.0
O111 O 0.44441 0.01103 0.62278 0.0
C112 C 0.54203 0.0146 0.53925 0.0
O113 O 0.55004 0.02846 0.5721 0.0
O114 O 0.45861 0.02619 0.49501 0.0
O115 O 0.50276 0.04066 0.53501 0.0
O116 O 0.5126 0.04632 0.62724 0.0
C117 C 0.45735 0.0418 0.46398 0.0
O118 O 0.47082 0.05551 0.47081 0.0
O119 O 0.4668 0.03482 0.63245 0.0
C120 C 0.54273 0.9925 0.69031 0.0
O121 O 0.53183 0.98083 0.6571 0.0
O122 O 0.53829 0.01062 0.69233 0.0
O123 O 0.49256 0.00142 0.66538 0.0
O124 O 0.48398 0.99426 0.57335 0.0
O125 O 0.52591 0.00675 0.5567 0.0
C126 C 0.51131 0.05173 0.57284 0.0
C127 C 0.48511 0.98945 0.62827 0.0
Zn128 Zn 0.52705 0.47305 0.65032 0.0
Zn129 Zn 0.50549 0.50646 0.70901 0.0
C130 C 0.54045 0.45504 0.75759 0.0
O131 O 0.55755 0.45848 0.7313 0.0
C132 C 0.49136 0.52482 0.60545 0.0
O133 O 0.47506 0.52222 0.63685 0.0
O134 O 0.54193 0.45273 0.60328 0.0
O135 O 0.49961 0.47532 0.61593 0.0
O136 O 0.48596 0.48416 0.70147 0.0
C137 C 0.54064 0.44942 0.54746 0.0
O138 O 0.52872 0.46018 0.51441 0.0
O139 O 0.52459 0.46078 0.7322 0.0
C140 C 0.50427 0.54383 0.75636 0.0
O141 O 0.52054 0.54373 0.72387 0.0
O142 O 0.49394 0.52825 0.7592 0.0
O143 O 0.53269 0.50204 0.74398 0.0
O144 O 0.54474 0.49686 0.65448 0.0
O145 O 0.5077 0.51857 0.62661 0.0
C146 C 0.4845 0.47622 0.65008 0.0
C147 C 0.54688 0.50366 0.70694 0.0
Zn148 Zn 0.01273 0.50236 0.58453 0.0
Zn149 Zn 0.97814 0.50238 0.67305 0.0
C150 C 0.04181 0.50216 0.67677 0.0
O151 O 0.0467 0.51841 0.64879 0.0
C152 C 0.94683 0.50453 0.58957 0.0
O153 O 0.94083 0.49008 0.62409 0.0
O154 O 0.03412 0.5025 0.52111 0.0
O155 O 0.9919 0.48266 0.56162 0.0
O156 O 0.98426 0.47405 0.65402 0.0
C157 C 0.03647 0.4879 0.48646 0.0
O158 O 0.02358 0.47348 0.48834 0.0
O159 O 0.02704 0.49235 0.65802 0.0
C160 C 0.96127 0.51536 0.78589 0.0
O161 O 0.97903 0.52279 0.79386 0.0
O162 O 0.95804 0.50465 0.74033 0.0
O163 O 0.00036 0.52103 0.6923 0.0
O164 O 0.00332 0.53011 0.59887 0.0
O165 O 0.9633 0.51277 0.60112 0.0
C166 C 0.98534 0.46998 0.59845 0.0
C167 C 0.00242 0.53461 0.65395 0.0
C168 C 0.17353 0.1007 0.36725 0.0
C169 C 0.18688 0.11149 0.40242 0.0
C170 C 0.1589 0.08917 0.39416 0.0
C171 C 0.13133 0.08257 0.53619 0.0
H172 H 0.11656 0.03312 0.46345 0.0
C173 C 0.07092 0.03165 0.63648 0.0
C174 C 0.05644 0.0258 0.59495 0.0
C175 C 0.08849 0.04054 0.61684 0.0
C176 C 0.12053 0.0469 0.48423 0.0
H177 H 0.19544 0.11855 0.49352 0.0
H178 H 0.1701 0.09817 0.54054 0.0
H179 H 0.14412 0.05188 0.42196 0.0
H180 H 0.04927 0.02401 0.50037 0.0
H181 H 0.07989 0.03927 0.4663 0.0
H182 H 0.10761 0.07753 0.59831 0.0
C183 C 0.17072 0.09886 0.49211 0.0
C184 C 0.13625 0.05771 0.46032 0.0
C185 C 0.1853 0.11049 0.46514 0.0
C186 C 0.06012 0.02842 0.5335 0.0
C187 C 0.07772 0.03705 0.51392 0.0
C188 C 0.11569 0.07167 0.56038 0.0
C189 C 0.15734 0.08805 0.45693 0.0
C190 C 0.1416 0.07587 0.48526 0.0
C191 C 0.09197 0.04344 0.55534 0.0
C192 C 0.1099 0.05391 0.53393 0.0
H193 H 0.17429 0.10121 0.3188 0.0
H194 H 0.14862 0.08136 0.36562 0.0
H195 H 0.1349 0.09658 0.55617 0.0
H196 H 0.06845 0.02987 0.68413 0.0
H197 H 0.09929 0.04525 0.6497 0.0
C198 C 0.62812 0.17873 0.41429 0.0
C199 C 0.62095 0.19298 0.3743 0.0
C200 C 0.61541 0.16445 0.43758 0.0
C201 C 0.56636 0.14113 0.41033 0.0
H202 H 0.57496 0.12035 0.56995 0.0
C203 C 0.52821 0.08384 0.59199 0.0
C204 C 0.52222 0.0692 0.55177 0.0
C205 C 0.53916 0.09996 0.5718 0.0
C206 C 0.57212 0.12616 0.5256 0.0
H207 H 0.59476 0.2038 0.32852 0.0
H208 H 0.57242 0.17941 0.3708 0.0
H209 H 0.59561 0.147 0.5336 0.0
H210 H 0.52322 0.05981 0.45903 0.0
H211 H 0.54283 0.08737 0.4243 0.0
H212 H 0.54236 0.12087 0.40319 0.0
C213 C 0.58797 0.17879 0.38283 0.0
C214 C 0.58422 0.14127 0.50429 0.0
C215 C 0.60076 0.19286 0.35879 0.0
C216 C 0.52738 0.07099 0.49104 0.0
C217 C 0.53857 0.0869 0.47105 0.0
C218 C 0.55408 0.12623 0.43194 0.0
C219 C 0.59515 0.16427 0.42218 0.0
C220 C 0.58167 0.14879 0.44606 0.0
C221 C 0.54463 0.10163 0.51109 0.0
C222 C 0.55696 0.11834 0.48956 0.0
H223 H 0.64365 0.17839 0.4268 0.0
H224 H 0.6216 0.15333 0.46678 0.0
H225 H 0.56404 0.14632 0.36502 0.0
H226 H 0.52437 0.08288 0.63903 0.0
H227 H 0.54327 0.11115 0.60381 0.0
C228 C 0.32565 0.40974 0.4729 0.0
C229 C 0.31815 0.41903 0.42141 0.0
C230 C 0.34291 0.41663 0.50045 0.0
C231 C 0.37474 0.43941 0.56707 0.0
H232 H 0.4173 0.45708 0.46336 0.0
C233 C 0.44739 0.47389 0.65813 0.0
C234 C 0.46508 0.46915 0.62805 0.0
C235 C 0.42903 0.46801 0.63501 0.0
C236 C 0.40565 0.45204 0.49304 0.0
H237 H 0.32248 0.44323 0.35967 0.0
H238 H 0.35228 0.45551 0.40842 0.0
H239 H 0.38615 0.44643 0.41969 0.0
H240 H 0.47743 0.45401 0.55115 0.0
H241 H 0.4456 0.4434 0.51179 0.0
H242 H 0.3946 0.44439 0.64032 0.0
C243 C 0.34514 0.44261 0.42674 0.0
C244 C 0.38763 0.4462 0.46799 0.0
C245 C 0.32798 0.43563 0.39896 0.0
C246 C 0.46407 0.45806 0.57517 0.0
C247 C 0.44578 0.45208 0.55235 0.0
C248 C 0.39284 0.44517 0.59216 0.0
C249 C 0.35299 0.43304 0.47737 0.0
C250 C 0.37195 0.43975 0.50461 0.0
C251 C 0.42801 0.45718 0.5815 0.0
C252 C 0.40856 0.45144 0.55538 0.0
H253 H 0.31844 0.39688 0.49123 0.0
H254 H 0.34865 0.40875 0.53889 0.0
H255 H 0.36291 0.43474 0.59669 0.0
H256 H 0.44767 0.4825 0.69883 0.0
H257 H 0.41564 0.47235 0.65831 0.0
C258 C 0.90111 0.32671 0.39372 0.0
C259 C 0.91251 0.31423 0.3574 0.0
C260 C 0.91009 0.34203 0.42511 0.0
C261 C 0.95557 0.37245 0.42336 0.0
H262 H 0.93504 0.39086 0.57551 0.0
C263 C 0.97331 0.43546 0.6143 0.0
C264 C 0.97797 0.45101 0.57543 0.0
C265 C 0.96638 0.41762 0.59148 0.0
C266 C 0.94115 0.38577 0.53345 0.0
H267 H 0.94235 0.30745 0.32746 0.0
H268 H 0.95811 0.33372 0.38364 0.0
H269 H 0.92151 0.36116 0.53104 0.0
H270 H 0.97862 0.46018 0.48226 0.0
H271 H 0.96611 0.42953 0.44294 0.0
H272 H 0.97555 0.39669 0.42638 0.0
C273 C 0.94215 0.33213 0.38655 0.0
C274 C 0.93319 0.36887 0.50748 0.0
C275 C 0.93314 0.31698 0.35455 0.0
C276 C 0.9754 0.44843 0.51349 0.0
C277 C 0.96833 0.43076 0.49083 0.0
C278 C 0.96364 0.38919 0.44956 0.0
C279 C 0.93071 0.34506 0.42149 0.0
C280 C 0.94009 0.36217 0.4516 0.0
C281 C 0.96384 0.41506 0.52938 0.0
C282 C 0.95629 0.3963 0.50435 0.0
H283 H 0.88516 0.32498 0.39668 0.0
H284 H 0.90073 0.35183 0.45074 0.0
H285 H 0.96115 0.36794 0.38003 0.0
H286 H 0.97518 0.43699 0.66225 0.0
H287 H 0.96323 0.40579 0.62243 0.0
C288 C 0.82569 0.91671 0.8887 0.0
C289 C 0.81372 0.90684 0.84698 0.0
C290 C 0.84266 0.92676 0.86993 0.0
C291 C 0.86507 0.95086 0.73989 0.0
H292 H 0.91473 0.94264 0.82397 0.0
C293 C 0.93946 0.98185 0.65202 0.0
C294 C 0.95348 0.98817 0.69433 0.0
C295 C 0.92215 0.97229 0.67047 0.0
C296 C 0.90094 0.94539 0.80051 0.0
H297 H 0.81004 0.89995 0.7528 0.0
H298 H 0.83958 0.91774 0.72002 0.0
H299 H 0.885 0.92543 0.85693 0.0
H300 H 0.9601 0.9899 0.78923 0.0
H301 H 0.92969 0.97386 0.82152 0.0
H302 H 0.88081 0.9711 0.68417 0.0
C303 C 0.83582 0.91764 0.76721 0.0
C304 C 0.88393 0.93544 0.81933 0.0
C305 C 0.81899 0.90737 0.78606 0.0
C306 C 0.94965 0.98509 0.75548 0.0
C307 C 0.93226 0.97574 0.77396 0.0
C308 C 0.88204 0.961 0.72146 0.0
C309 C 0.84785 0.92737 0.80899 0.0
C310 C 0.86585 0.93804 0.78914 0.0
C311 C 0.91837 0.96901 0.73171 0.0
C312 C 0.90021 0.95837 0.75148 0.0
H313 H 0.82203 0.91657 0.93596 0.0
H314 H 0.8516 0.93427 0.90302 0.0
H315 H 0.85125 0.95329 0.71622 0.0
H316 H 0.94206 0.98388 0.60452 0.0
H317 H 0.91197 0.96708 0.63657 0.0
C318 C 0.43162 0.83392 0.85501 0.0
C319 C 0.44833 0.82476 0.88042 0.0
C320 C 0.43381 0.85055 0.81894 0.0
C321 C 0.44304 0.89306 0.78703 0.0
H322 H 0.48506 0.89828 0.66919 0.0
C323 C 0.47422 0.9673 0.71087 0.0
C324 C 0.478 0.97019 0.64959 0.0
C325 C 0.46845 0.94896 0.73228 0.0
C326 C 0.4731 0.89695 0.70142 0.0
H327 H 0.48046 0.82543 0.88608 0.0
H328 H 0.48425 0.85441 0.82292 0.0
H329 H 0.47927 0.86655 0.71755 0.0
H330 H 0.47847 0.95619 0.56248 0.0
H331 H 0.46863 0.92385 0.60036 0.0
H332 H 0.43723 0.92356 0.77219 0.0
C333 C 0.46948 0.8487 0.83082 0.0
C334 C 0.46991 0.87887 0.72943 0.0
C335 C 0.46729 0.83218 0.86734 0.0
C336 C 0.47561 0.95439 0.60993 0.0
C337 C 0.47009 0.9359 0.63157 0.0
C338 C 0.44637 0.91116 0.75953 0.0
C339 C 0.45274 0.85824 0.80703 0.0
C340 C 0.45503 0.87683 0.77316 0.0
C341 C 0.46653 0.93302 0.69303 0.0
C342 C 0.46163 0.91336 0.71717 0.0
H343 H 0.41681 0.82853 0.86412 0.0
H344 H 0.42066 0.85752 0.80079 0.0
H345 H 0.43156 0.89198 0.82088 0.0
H346 H 0.47586 0.97921 0.74253 0.0
H347 H 0.46601 0.94712 0.77994 0.0
C348 C 0.6864 0.59678 0.9108 0.0
C349 C 0.6989 0.60577 0.86854 0.0
C350 C 0.67068 0.58492 0.8922 0.0
C351 C 0.63916 0.57429 0.75997 0.0
H352 H 0.62477 0.52819 0.85208 0.0
C353 C 0.57954 0.51913 0.68122 0.0
C354 C 0.56533 0.51387 0.72447 0.0
C355 C 0.59653 0.52955 0.69771 0.0
C356 C 0.62857 0.54108 0.8261 0.0
H357 H 0.70492 0.6091 0.77361 0.0
H358 H 0.67784 0.58803 0.74118 0.0
H359 H 0.65326 0.54779 0.88257 0.0
H360 H 0.558 0.51506 0.81907 0.0
H361 H 0.58774 0.53307 0.84779 0.0
H362 H 0.61453 0.56739 0.70323 0.0
C363 C 0.67986 0.59049 0.7887 0.0
C364 C 0.64485 0.55236 0.84366 0.0
C365 C 0.69547 0.60249 0.8073 0.0
C366 C 0.56865 0.51891 0.78466 0.0
C367 C 0.58573 0.52913 0.8012 0.0
C368 C 0.623 0.56289 0.74214 0.0
C369 C 0.66719 0.58162 0.8309 0.0
C370 C 0.65026 0.56922 0.81111 0.0
C371 C 0.59976 0.5347 0.75785 0.0
C372 C 0.61745 0.54627 0.7753 0.0
H373 H 0.68859 0.5991 0.95832 0.0
H374 H 0.66106 0.57862 0.92597 0.0
H375 H 0.64266 0.58733 0.73438 0.0
H376 H 0.57739 0.51547 0.63448 0.0
H377 H 0.60719 0.53352 0.66345 0.0
C378 C 0.93438 0.68894 0.83639 0.0
C379 C 0.93924 0.6922 0.89674 0.0
C380 C 0.94327 0.67366 0.80451 0.0
C381 C 0.98588 0.6389 0.80917 0.0
H382 H 0.95312 0.60847 0.70112 0.0
C383 C 0.00396 0.56023 0.73311 0.0
C384 C 4e-05 0.55513 0.67336 0.0
C385 C 0.99898 0.57879 0.75453 0.0
C386 C 0.96255 0.61703 0.73037 0.0
H387 H 0.95721 0.68197 0.97109 0.0
H388 H 0.97226 0.65498 0.91618 0.0
H389 H 0.93911 0.63704 0.7509 0.0
H390 H 0.98866 0.56566 0.58837 0.0
H391 H 0.97976 0.5982 0.62613 0.0
H392 H 0.00905 0.61826 0.79029 0.0
C393 C 0.96196 0.6645 0.89286 0.0
C394 C 0.95454 0.63343 0.75893 0.0
C395 C 0.9532 0.67989 0.92455 0.0
C396 C 0.99191 0.56924 0.63459 0.0
C397 C 0.98669 0.58777 0.65626 0.0
C398 C 0.99383 0.62238 0.78104 0.0
C399 C 0.9571 0.66118 0.83243 0.0
C400 C 0.96602 0.64444 0.79928 0.0
C401 C 0.98982 0.59256 0.71674 0.0
C402 C 0.98216 0.61117 0.74189 0.0
H403 H 0.92379 0.69828 0.81354 0.0
H404 H 0.93939 0.67174 0.75782 0.0
H405 H 0.99529 0.64726 0.83899 0.0
H406 H 0.01033 0.54965 0.76386 0.0
H407 H 0.00144 0.58203 0.80144 0.0
C408 C 0.91107 0.20407 0.35025 0.0
C409 C 0.91331 0.20897 0.28958 0.0
C410 C 0.91772 0.18596 0.37166 0.0
C411 C 0.93337 0.1361 0.32381 0.0
H412 H 0.9605 0.13625 0.47694 0.0
C413 C 0.97851 0.06994 0.41698 0.0
C414 C 0.97574 0.06566 0.47805 0.0
C415 C 0.97017 0.08687 0.39179 0.0
C416 C 0.95281 0.13593 0.43435 0.0
H417 H 0.92234 0.19811 0.20262 0.0
H418 H 0.9349 0.16689 0.2402 0.0
H419 H 0.94694 0.16668 0.43737 0.0
H420 H 0.96167 0.07558 0.56018 0.0
H421 H 0.94723 0.10492 0.5163 0.0
H422 H 0.9396 0.10527 0.32077 0.0
C423 C 0.92812 0.177 0.2715 0.0
C424 C 0.94496 0.15337 0.41173 0.0
C425 C 0.92133 0.19506 0.25011 0.0
C426 C 0.96419 0.07845 0.51304 0.0
C427 C 0.95599 0.09534 0.48802 0.0
C428 C 0.94134 0.11864 0.34636 0.0
C429 C 0.9267 0.17235 0.33276 0.0
C430 C 0.93502 0.15367 0.35639 0.0
C431 C 0.95904 0.09986 0.42734 0.0
C432 C 0.95101 0.11837 0.4021 0.0
H433 H 0.90465 0.21444 0.38146 0.0
H434 H 0.91594 0.18267 0.41883 0.0
H435 H 0.92563 0.13576 0.28132 0.0
H436 H 0.98731 0.06038 0.38882 0.0
H437 H 0.97284 0.09005 0.34492 0.0
C438 C 0.29323 0.0957 0.30999 0.0
C439 C 0.29441 0.11462 0.28552 0.0
C440 C 0.31039 0.08446 0.31796 0.0
C441 C 0.36402 0.0816 0.2777 0.0
H442 H 0.36825 0.05505 0.4309 0.0
C443 C 0.43817 0.06299 0.39307 0.0
C444 C 0.4395 0.04573 0.42731 0.0
C445 C 0.42036 0.06818 0.36523 0.0
C446 C 0.36721 0.06203 0.3874 0.0
H447 H 0.31439 0.1369 0.25184 0.0
H448 H 0.34436 0.11742 0.26588 0.0
H449 H 0.33704 0.07028 0.40244 0.0
H450 H 0.42351 0.01977 0.45614 0.0
H451 H 0.3924 0.02888 0.40748 0.0
H452 H 0.39456 0.07397 0.26411 0.0
C453 C 0.33017 0.11093 0.27714 0.0
C454 C 0.34928 0.07078 0.37101 0.0
C455 C 0.313 0.1221 0.26895 0.0
C456 C 0.42296 0.03322 0.43036 0.0
C457 C 0.4051 0.03848 0.40275 0.0
C458 C 0.38201 0.07292 0.29429 0.0
C459 C 0.32911 0.09205 0.3024 0.0
C460 C 0.34756 0.08099 0.31648 0.0
C461 C 0.40347 0.05626 0.37124 0.0
C462 C 0.38389 0.06335 0.34982 0.0
H463 H 0.27904 0.08961 0.32313 0.0
H464 H 0.309 0.0699 0.33689 0.0
H465 H 0.36308 0.08905 0.2349 0.0
H466 H 0.45066 0.07289 0.38958 0.0
H467 H 0.41954 0.08205 0.34166 0.0
C468 C 0.63 0.30063 0.39936 0.0
C469 C 0.62782 0.29538 0.33901 0.0
C470 C 0.62207 0.31825 0.42048 0.0
C471 C 0.60217 0.36657 0.37193 0.0
H472 H 0.5747 0.36418 0.52445 0.0
C473 C 0.55048 0.42841 0.45986 0.0
C474 C 0.552 0.43296 0.52109 0.0
C475 C 0.56069 0.41231 0.43613 0.0
C476 C 0.5825 0.36516 0.48209 0.0
H477 H 0.61748 0.30524 0.25217 0.0
H478 H 0.60283 0.33559 0.28924 0.0
H479 H 0.59126 0.33508 0.48618 0.0
H480 H 0.56582 0.42441 0.60507 0.0
H481 H 0.58359 0.39653 0.56367 0.0
H482 H 0.59306 0.39667 0.36776 0.0
C483 C 0.61054 0.32612 0.32053 0.0
C484 C 0.59205 0.34849 0.4602 0.0
C485 C 0.61857 0.30855 0.29946 0.0
C486 C 0.5642 0.42128 0.55777 0.0
C487 C 0.57432 0.40522 0.53414 0.0
C488 C 0.59253 0.38327 0.3938 0.0
C489 C 0.61187 0.33102 0.38155 0.0
C490 C 0.60205 0.34898 0.40495 0.0
C491 C 0.57254 0.40042 0.47323 0.0
C492 C 0.58265 0.38275 0.44924 0.0
H493 H 0.63733 0.29084 0.43061 0.0
H494 H 0.62377 0.32179 0.46747 0.0
H495 H 0.60991 0.36752 0.32949 0.0
H496 H 0.54121 0.43712 0.43042 0.0
H497 H 0.55892 0.40889 0.38908 0.0
C498 C 0.20525 0.44262 0.34896 0.0
C499 C 0.20503 0.42434 0.32019 0.0
C500 C 0.18756 0.45291 0.35844 0.0
C501 C 0.13468 0.45516 0.31102 0.0
H502 H 0.12663 0.47821 0.46778 0.0
C503 C 0.05773 0.46929 0.41441 0.0
C504 C 0.05512 0.48556 0.45213 0.0
C505 C 0.07628 0.46525 0.38932 0.0
C506 C 0.12874 0.47221 0.42333 0.0
H507 H 0.18613 0.40199 0.2818 0.0
H508 H 0.15532 0.4199 0.29788 0.0
H509 H 0.15884 0.46444 0.44217 0.0
H510 H 0.06964 0.51106 0.49003 0.0
H511 H 0.10204 0.50399 0.446 0.0
H512 H 0.10429 0.46235 0.29315 0.0
C513 C 0.16915 0.42666 0.31134 0.0
C514 C 0.14723 0.46429 0.40865 0.0
C515 C 0.18682 0.4164 0.30191 0.0
C516 C 0.07117 0.49835 0.46138 0.0
C517 C 0.08976 0.49425 0.43649 0.0
C518 C 0.11615 0.46303 0.3258 0.0
C519 C 0.16929 0.44502 0.33982 0.0
C520 C 0.1503 0.4553 0.3528 0.0
C521 C 0.09264 0.47736 0.40153 0.0
C522 C 0.11287 0.4713 0.38258 0.0
H523 H 0.21912 0.44902 0.36365 0.0
H524 H 0.18819 0.46707 0.38023 0.0
H525 H 0.13668 0.44867 0.26716 0.0
H526 H 0.04565 0.45919 0.40616 0.0
H527 H 0.07802 0.45204 0.36296 0.0
C528 C 0.97191 0.79905 0.97288 0.0
C529 C 0.95129 0.79626 0.96984 0.0
C530 C 0.98052 0.81611 0.94969 0.0
C531 C 0.97064 0.85485 0.83913 0.0
H532 H 0.01426 0.8821 0.91581 0.0
C533 C 0.00896 0.91658 0.71527 0.0
C534 C 0.01149 0.93408 0.74712 0.0
C535 C 0.00514 0.8991 0.74543 0.0
C536 C 0.00206 0.87465 0.89401 0.0
H537 H 0.92346 0.80898 0.94085 0.0
H538 H 0.93835 0.83895 0.90155 0.0
H539 H 0.99931 0.8535 0.96487 0.0
H540 H 0.0133 0.94703 0.83533 0.0
H541 H 0.00608 0.91637 0.88872 0.0
H542 H 0.97283 0.87607 0.7693 0.0
C543 C 0.94795 0.82791 0.92105 0.0
C544 C 0.9936 0.85821 0.92182 0.0
C545 C 0.9394 0.81081 0.94371 0.0
C546 C 0.01159 0.93362 0.80997 0.0
C547 C 0.00741 0.91609 0.84038 0.0
C548 C 0.97903 0.87118 0.81152 0.0
C549 C 0.96864 0.83066 0.92308 0.0
C550 C 0.97776 0.84818 0.89462 0.0
C551 C 0.00328 0.89883 0.80814 0.0
C552 C 0.99491 0.88124 0.83832 0.0
H553 H 0.98144 0.7878 0.9915 0.0
H554 H 0.99651 0.81764 0.95112 0.0
H555 H 0.95864 0.84734 0.81653 0.0
H556 H 0.00894 0.9166 0.66671 0.0
H557 H 0.00263 0.88597 0.71933 0.0
C558 C 0.69183 0.90611 0.84315 0.0
C559 C 0.70239 0.91262 0.89336 0.0
C560 C 0.67505 0.91625 0.82347 0.0
C561 C 0.63731 0.95267 0.87179 0.0
H562 H 0.62678 0.95494 0.70114 0.0
C563 C 0.57205 0.9961 0.7594 0.0
C564 C 0.56086 0.98474 0.71921 0.0
C565 C 0.58974 0.98871 0.78361 0.0
C566 C 0.62956 0.95441 0.74892 0.0
H567 H 0.70445 0.93535 0.96058 0.0
H568 H 0.67516 0.95326 0.92612 0.0
H569 H 0.65724 0.9397 0.73692 0.0
H570 H 0.55933 0.95668 0.6736 0.0
H571 H 0.59016 0.94409 0.71497 0.0
H572 H 0.60952 0.96768 0.8831 0.0
C573 C 0.67941 0.93996 0.90299 0.0
C574 C 0.64693 0.94557 0.76952 0.0
C575 C 0.69613 0.92968 0.92293 0.0
C576 C 0.56756 0.96584 0.70439 0.0
C577 C 0.58529 0.95864 0.72778 0.0
C578 C 0.61999 0.96176 0.851 0.0
C579 C 0.66865 0.93336 0.85296 0.0
C580 C 0.65084 0.94418 0.83127 0.0
C581 C 0.59664 0.97004 0.76712 0.0
C582 C 0.61579 0.96232 0.78945 0.0
H583 H 0.69639 0.89297 0.81959 0.0
H584 H 0.66695 0.9105 0.78551 0.0
H585 H 0.63975 0.95175 0.91965 0.0
H586 H 0.56723 0.0107 0.77169 0.0
H587 H 0.59829 0.99776 0.81392 0.0
C588 C 0.46828 0.70864 0.93379 0.0
C589 C 0.45299 0.7111 0.9758 0.0
C590 C 0.47355 0.6899 0.91424 0.0
C591 C 0.45466 0.63996 0.89644 0.0
H592 H 0.51039 0.62587 0.89025 0.0
C593 C 0.48133 0.56258 0.82446 0.0
C594 C 0.49808 0.56206 0.78693 0.0
C595 C 0.47561 0.58012 0.85215 0.0
C596 C 0.49477 0.62962 0.89113 0.0
H597 H 0.43041 0.69613 0.02765 0.0
H598 H 0.43969 0.6633 0.99373 0.0
H599 H 0.50066 0.65797 0.92798 0.0
H600 H 0.52188 0.57953 0.74887 0.0
H601 H 0.51173 0.60993 0.79571 0.0
H602 H 0.44877 0.61182 0.85808 0.0
C603 C 0.44777 0.67583 0.97655 0.0
C604 C 0.48922 0.648 0.91284 0.0
C605 C 0.44263 0.69456 0.99649 0.0
C606 C 0.50897 0.57936 0.77779 0.0
C607 C 0.50322 0.59682 0.80509 0.0
C608 C 0.46023 0.6216 0.87418 0.0
C609 C 0.4634 0.6733 0.93564 0.0
C610 C 0.46914 0.65344 0.91507 0.0
C611 C 0.4865 0.59745 0.84268 0.0
C612 C 0.48038 0.61632 0.87051 0.0
H613 H 0.4764 0.72119 0.91692 0.0
H614 H 0.48548 0.68839 0.88201 0.0
H615 H 0.43907 0.64383 0.89734 0.0
H616 H 0.47266 0.54948 0.83246 0.0
H617 H 0.46276 0.58006 0.8813 0.0
C618 C 0.80267 0.58138 0.94811 0.0
C619 C 0.80178 0.60192 0.94777 0.0
C620 C 0.82077 0.57173 0.9401 0.0
C621 C 0.87178 0.58048 0.88176 0.0
H622 H 0.88155 0.52897 0.94969 0.0
C623 C 0.94627 0.54055 0.85312 0.0
C624 C 0.94438 0.52282 0.82157 0.0
C625 C 0.92961 0.54958 0.87807 0.0
C626 C 0.87898 0.54338 0.93069 0.0
H627 H 0.81893 0.62857 0.94023 0.0
H628 H 0.85076 0.61187 0.92917 0.0
H629 H 0.85131 0.54677 0.97652 0.0
H630 H 0.92382 0.50002 0.79492 0.0
H631 H 0.89472 0.51565 0.84038 0.0
H632 H 0.89974 0.57716 0.83724 0.0
C633 C 0.83749 0.60307 0.93357 0.0
C634 C 0.86161 0.55354 0.94555 0.0
C635 C 0.81929 0.6127 0.94031 0.0
C636 C 0.92572 0.51368 0.81892 0.0
C637 C 0.9091 0.52257 0.84498 0.0
C638 C 0.8893 0.5705 0.86806 0.0
C639 C 0.83846 0.58243 0.93243 0.0
C640 C 0.85761 0.57212 0.92049 0.0
C641 C 0.91084 0.54088 0.87308 0.0
C642 C 0.89292 0.55179 0.89174 0.0
H643 H 0.78926 0.57277 0.95279 0.0
H644 H 0.82073 0.55588 0.93822 0.0
H645 H 0.86917 0.59449 0.86037 0.0
H646 H 0.96041 0.54803 0.85576 0.0
H647 H 0.93128 0.56369 0.89972 0.0
C648 C 0.99596 0.18846 0.03154 0.0
C649 C 0.98411 0.18602 0.08284 0.0
C650 C 0.00236 0.17218 0.99886 0.0
C651 C 0.98661 0.12211 0.96623 0.0
H652 H 0.03718 0.11864 0.88398 0.0
C653 C 0.0021 0.05998 0.79902 0.0
C654 C 0.01048 0.06599 0.74433 0.0
C655 C 0.00198 0.07261 0.84829 0.0
C656 C 0.02297 0.11943 0.90653 0.0
H657 H 0.97075 0.16451 0.14221 0.0
H658 H 0.98201 0.13615 0.08532 0.0
H659 H 0.03156 0.14481 0.95664 0.0
H660 H 0.02612 0.08959 0.69931 0.0
H661 H 0.02554 0.11167 0.78451 0.0
H662 H 0.97767 0.09729 0.91477 0.0
C663 C 0.98607 0.15066 0.06984 0.0
C664 C 0.01977 0.13439 0.94817 0.0
C665 C 0.97969 0.16693 0.10254 0.0
C666 C 0.01948 0.08452 0.74073 0.0
C667 C 0.0193 0.09715 0.78985 0.0
C668 C 0.98977 0.10722 0.92451 0.0
C669 C 0.99704 0.15312 0.01683 0.0
C670 C 0.00142 0.13609 0.97766 0.0
C671 C 0.01018 0.09152 0.84385 0.0
C672 C 0.00785 0.10591 0.89329 0.0
H673 H -0.00032 0.20297 0.01527 0.0
H674 H 0.01067 0.17457 0.95795 0.0
H675 H 0.9722 0.12318 0.98748 0.0
H676 H 0.9952 0.04572 0.80339 0.0
H677 H 0.99513 0.06769 0.88955 0.0
C678 C 0.34909 0.11219 0.02398 0.0
C679 C 0.33599 0.09993 0.05565 0.0
C680 C 0.36271 0.10426 0.98332 0.0
C681 C 0.36983 0.06191 0.88585 0.0
H682 H 0.42521 0.07727 0.88289 0.0
C683 C 0.42528 0.02317 0.73078 0.0
C684 C 0.43977 0.03463 0.70225 0.0
C685 C 0.41366 0.03101 0.77666 0.0
C686 C 0.40974 0.073 0.88257 0.0
H687 H 0.32713 0.06972 0.07015 0.0
H688 H 0.3507 0.05597 0.99869 0.0
H689 H 0.40287 0.09152 0.95737 0.0
H690 H 0.45376 0.06322 0.70013 0.0
H691 H 0.43306 0.07717 0.77909 0.0
H692 H 0.37633 0.04385 0.81041 0.0
C693 C 0.3504 0.0717 0.00527 0.0
C694 C 0.39699 0.08113 0.92537 0.0
C695 C 0.33696 0.07958 0.04636 0.0
C696 C 0.44273 0.05401 0.72146 0.0
C697 C 0.43091 0.06196 0.76694 0.0
C698 C 0.38249 0.05397 0.84273 0.0
C699 C 0.36332 0.08396 0.97305 0.0
C700 C 0.37693 0.07557 0.9276 0.0
C701 C 0.41605 0.05063 0.79463 0.0
C702 C 0.40265 0.05929 0.84069 0.0
H703 H 0.34876 0.12792 0.03031 0.0
H704 H 0.37242 0.11405 0.95881 0.0
H705 H 0.35436 0.05761 0.8859 0.0
H706 H 0.42282 0.0081 0.71749 0.0
H707 H 0.40274 0.02166 0.7979 0.0
C708 C 0.55538 0.31396 0.0649 0.0
C709 C 0.56065 0.31505 0.12568 0.0
C710 C 0.54866 0.3306 0.03447 0.0
C711 C 0.52877 0.36676 0.98277 0.0
H712 H 0.56101 0.41293 0.01015 0.0
C713 C 0.52144 0.43572 0.83426 0.0
C714 C 0.53965 0.44277 0.81223 0.0
C715 C 0.521 0.42225 0.88156 0.0
C716 C 0.55181 0.40019 0.00215 0.0
H717 H 0.56184 0.3342 0.20315 0.0
H718 H 0.54994 0.36319 0.15006 0.0
H719 H 0.56479 0.38449 0.07522 0.0
H720 H 0.57157 0.44199 0.82455 0.0
H721 H 0.57081 0.4185 0.90649 0.0
H722 H 0.51658 0.38212 0.90763 0.0
C723 C 0.55132 0.34954 0.12572 0.0
C724 C 0.55381 0.38395 0.03986 0.0
C725 C 0.55804 0.33289 0.15619 0.0
C726 C 0.5573 0.4368 0.8403 0.0
C727 C 0.55686 0.42342 0.88764 0.0
C728 C 0.52676 0.38302 0.94504 0.0
C729 C 0.54704 0.3487 0.06415 0.0
C730 C 0.5427 0.36685 0.02962 0.0
C731 C 0.53874 0.41567 0.908 0.0
C732 C 0.53867 0.3997 0.95332 0.0
H733 H 0.55716 0.30044 0.04011 0.0
H734 H 0.5457 0.32947 0.98693 0.0
H735 H 0.51981 0.3539 0.97418 0.0
H736 H 0.50756 0.4401 0.81371 0.0
H737 H 0.5068 0.4167 0.89673 0.0
C738 C 0.15764 0.45924 0.0797 0.0
C739 C 0.16024 0.43899 0.08836 0.0
C740 C 0.14373 0.46622 0.03847 0.0
C741 C 0.09844 0.45342 0.9565 0.0
H742 H 0.1168 0.49203 0.84155 0.0
C743 C 0.05227 0.47581 0.74857 0.0
C744 C 0.05363 0.49528 0.72843 0.0
C745 C 0.0644 0.46911 0.79516 0.0
C746 C 0.11126 0.48152 0.87387 0.0
H747 H 0.14984 0.41018 0.06199 0.0
H748 H 0.12534 0.42245 0.99032 0.0
H749 H 0.13928 0.48021 0.91886 0.0
H750 H 0.06811 0.52323 0.74295 0.0
H751 H 0.08873 0.5118 0.8253 0.0
H752 H 0.07032 0.45491 0.91219 0.0
C753 C 0.13415 0.43288 0.01537 0.0
C754 C 0.12421 0.47469 0.91804 0.0
C755 C 0.14824 0.42587 0.05612 0.0
C756 C 0.0669 0.50807 0.75698 0.0
C757 C 0.07882 0.50146 0.804 0.0
C758 C 0.08538 0.46042 0.91268 0.0
C759 C 0.13196 0.45311 0.00558 0.0
C760 C 0.11795 0.46054 0.95967 0.0
C761 C 0.07798 0.48181 0.8231 0.0
C762 C 0.09165 0.47454 0.87067 0.0
H763 H 0.1666 0.46973 0.10395 0.0
H764 H 0.14219 0.4819 0.0322 0.0
H765 H 0.0932 0.44262 0.98841 0.0
H766 H 0.04222 0.46559 0.72728 0.0
H767 H 0.06349 0.45384 0.80809 0.0
C768 C 0.98946 0.86077 0.14683 0.0
C769 C 0.98984 0.84145 0.16874 0.0
C770 C 0.99551 0.87634 0.18303 0.0
C771 C 0.02256 0.88804 0.32354 0.0
H772 H 0.98935 0.93451 0.32234 0.0
C773 C 0.0381 0.95246 0.48235 0.0
C774 C 0.02148 0.9603 0.51184 0.0
C775 C 0.03572 0.9399 0.43356 0.0
C776 C 0.99875 0.92162 0.32333 0.0
H777 H 0.99736 0.82323 0.2452 0.0
H778 H 0.0075 0.85037 0.3087 0.0
H779 H 0.98286 0.90823 0.2514 0.0
H780 H 0.98931 0.9617 0.512 0.0
H781 H 0.98512 0.9395 0.42778 0.0
H782 H 0.0378 0.90096 0.39745 0.0
C783 C 0.00285 0.85352 0.26326 0.0
C784 C 0.99519 0.90665 0.28212 0.0
C785 C 0.99692 0.83795 0.22696 0.0
C786 C 0.00243 0.95594 0.49012 0.0
C787 C 4e-05 0.94327 0.44159 0.0
C788 C 0.02605 0.90296 0.36493 0.0
C789 C 0.00198 0.87293 0.24202 0.0
C790 C 0.00686 0.88954 0.28235 0.0
C791 C 0.01664 0.9348 0.41344 0.0
C792 C 0.014 0.91981 0.36592 0.0
H793 H 0.98427 0.86393 0.10191 0.0
H794 H 0.99498 0.89107 0.16493 0.0
H795 H 0.03201 0.87519 0.32439 0.0
H796 H 0.05299 0.9557 0.49769 0.0
H797 H 0.04883 0.93394 0.41219 0.0
C798 C 0.65913 0.96734 0.14688 0.0
C799 C 0.66003 0.94708 0.1359 0.0
C800 C 0.64483 0.97503 0.18563 0.0
C801 C 0.59663 0.96506 0.25716 0.0
H802 H 0.61558 0.00122 0.37797 0.0
C803 C 0.54957 0.98877 0.46276 0.0
C804 C 0.55241 0.0078 0.48492 0.0
C805 C 0.56129 0.98177 0.41559 0.0
C806 C 0.6099 0.99143 0.34394 0.0
H807 H 0.64624 0.91907 0.1556 0.0
H808 H 0.62121 0.93257 0.22325 0.0
H809 H 0.63857 0.98837 0.30392 0.0
H810 H 0.56868 0.03491 0.4727 0.0
H811 H 0.58858 0.02302 0.38945 0.0
H812 H 0.56788 0.96822 0.29711 0.0
C813 C 0.63158 0.94247 0.20175 0.0
C814 C 0.62314 0.98402 0.30159 0.0
C815 C 0.64599 0.93474 0.16332 0.0
C816 C 0.5664 0.02005 0.45714 0.0
C817 C 0.5779 0.01317 0.40965 0.0
C818 C 0.5833 0.97263 0.29934 0.0
C819 C 0.63103 0.96266 0.21389 0.0
C820 C 0.61668 0.97074 0.25782 0.0
C821 C 0.57591 0.99377 0.38934 0.0
C822 C 0.58978 0.98591 0.3433 0.0
H823 H 0.66965 0.97727 0.12628 0.0
H824 H 0.64461 0.99068 0.19365 0.0
H825 H 0.59123 0.95494 0.2236 0.0
H826 H 0.5389 0.97901 0.48353 0.0
H827 H 0.55944 0.96671 0.40141 0.0
C828 C 0.45634 0.64678 0.23214 0.0
C829 C 0.47184 0.65578 0.20024 0.0
C830 C 0.45995 0.63018 0.26713 0.0
C831 C 0.49926 0.60558 0.35111 0.0
H832 H 0.46172 0.56257 0.35627 0.0
C833 C 0.50812 0.54136 0.51841 0.0
C834 C 0.49065 0.53621 0.54906 0.0
C835 C 0.50729 0.55357 0.46798 0.0
C836 C 0.47232 0.57449 0.35552 0.0
H837 H 0.50326 0.65423 0.17936 0.0
H838 H 0.50958 0.62525 0.24109 0.0
H839 H 0.45743 0.5887 0.28266 0.0
H840 H 0.45859 0.53924 0.54958 0.0
H841 H 0.45717 0.56061 0.46277 0.0
H842 H 0.51374 0.59181 0.42539 0.0
C843 C 0.49465 0.63112 0.23897 0.0
C844 C 0.46986 0.58943 0.31333 0.0
C845 C 0.491 0.64766 0.2035 0.0
C846 C 0.47234 0.54294 0.52711 0.0
C847 C 0.47151 0.5551 0.4769 0.0
C848 C 0.50166 0.59068 0.39358 0.0
C849 C 0.47917 0.62226 0.27134 0.0
C850 C 0.48305 0.60535 0.31154 0.0
C851 C 0.48897 0.5608 0.44718 0.0
C852 C 0.48795 0.5752 0.39719 0.0
H853 H 0.4414 0.65265 0.23052 0.0
H854 H 0.44777 0.62383 0.29217 0.0
H855 H 0.50958 0.61774 0.3511 0.0
H856 H 0.52246 0.53634 0.53413 0.0
H857 H 0.52099 0.55751 0.44567 0.0
C858 C 0.82543 0.55163 0.20604 0.0
C859 C 0.83149 0.56676 0.16738 0.0
C860 C 0.83839 0.54424 0.24944 0.0
C861 C 0.89154 0.54203 0.29266 0.0
H862 H 0.87 0.53124 0.45042 0.0
C863 C 0.94067 0.52636 0.50073 0.0
C864 C 0.93436 0.51117 0.53889 0.0
C865 C 0.92854 0.53278 0.45374 0.0
C866 C 0.87621 0.53399 0.40643 0.0
H867 H 0.85607 0.58573 0.14323 0.0
H868 H 0.87852 0.57307 0.2195 0.0
H869 H 0.84809 0.54281 0.37118 0.0
H870 H 0.9105 0.49065 0.55709 0.0
H871 H 0.88946 0.50182 0.4753 0.0
H872 H 0.91974 0.53338 0.32847 0.0
C873 C 0.86385 0.56672 0.21584 0.0
C874 C 0.86365 0.54058 0.36093 0.0
C875 C 0.85092 0.57407 0.17232 0.0
C876 C 0.91579 0.50244 0.52873 0.0
C877 C 0.90366 0.50891 0.48202 0.0
C878 C 0.90414 0.5355 0.33832 0.0
C879 C 0.85768 0.55184 0.25532 0.0
C880 C 0.87113 0.54464 0.30343 0.0
C881 C 0.90983 0.52422 0.44421 0.0
C882 C 0.89659 0.53135 0.39566 0.0
H883 H 0.8106 0.54558 0.20316 0.0
H884 H 0.83326 0.53254 0.27841 0.0
H885 H 0.89775 0.54478 0.24869 0.0
H886 H 0.95491 0.53338 0.50738 0.0
H887 H 0.93363 0.54471 0.42562 0.0
loop_
_geom_bond_atom_site_label_1
_geom_bond_atom_site_label_2
_geom_bond_distance
_geom_bond_site_symmetry_2
_ccdc_geom_bond_type
O0 Cd1 2.300 1_556 S
O0 C7 1.275 . S
Cd1 O0 2.300 1_554 S
Cd1 O9 2.381 1_554 S
Cd1 O10 2.378 . S
O2 Cd3 2.385 . S
O2 C7 1.255 1_554 S
Cd3 O2 2.385 . S
Cd3 O4 2.317 . S
O4 Cd3 2.317 . S
O4 C5 1.232 . S
C5 O4 1.232 . S
C5 O6 1.218 . S
O6 C5 1.218 . S
C7 O0 1.275 . S
C7 O2 1.255 1_556 S
C8 O9 1.258 . S
C8 O10 1.256 1_556 S
O9 Cd1 2.381 1_556 S
O9 C8 1.258 . S
O10 Cd1 2.378 . S
O10 C8 1.256 1_554 S
O11 Cd12 2.300 1_656 S
O11 C18 1.275 1_655 S
Cd12 O11 2.300 1_454 S
Cd12 O20 2.381 1_454 S
Cd12 O21 2.378 . S
O13 Cd14 2.385 . S
O13 C18 1.255 1_554 S
Cd14 O13 2.385 . S
Cd14 O15 2.317 . S
O15 Cd14 2.317 . S
O15 C16 1.232 . S
C16 O15 1.232 . S
C16 O17 1.218 . S
O17 C16 1.218 . S
C18 O11 1.275 1_455 S
C18 O13 1.255 1_556 S
C19 O20 1.258 1_455 S
C19 O21 1.256 1_556 S
O20 Cd12 2.381 1_656 S
O20 C19 1.258 1_655 S
O21 Cd12 2.378 . S
O21 C19 1.256 1_554 S
O22 Cd23 2.300 1_556 S
O22 C29 1.275 . S
Cd23 O22 2.300 1_554 S
Cd23 O31 2.381 1_554 S
Cd23 O32 2.378 . S
O24 Cd25 2.385 . S
O24 C29 1.255 1_554 S
Cd25 O24 2.385 . S
Cd25 O26 2.317 . S
O26 Cd25 2.317 . S
O26 C27 1.232 . S
C27 O26 1.232 . S
C27 O28 1.218 . S
O28 C27 1.218 . S
C29 O22 1.275 . S
C29 O24 1.255 1_556 S
C30 O31 1.258 . S
C30 O32 1.256 1_556 S
O31 Cd23 2.381 1_556 S
O31 C30 1.258 . S
O32 Cd23 2.378 . S
O32 C30 1.256 1_554 S
O33 Cd34 2.300 1_556 S
O33 C40 1.275 . S
Cd34 O33 2.300 1_554 S
Cd34 O42 2.381 1_554 S
Cd34 O43 2.378 . S
O35 Cd36 2.385 . S
O35 C40 1.255 1_554 S
Cd36 O35 2.385 . S
Cd36 O37 2.317 . S
O37 Cd36 2.317 . S
O37 C38 1.232 . S
C38 O37 1.232 . S
C38 O39 1.218 . S
O39 C38 1.218 . S
C40 O33 1.275 . S
C40 O35 1.255 1_556 S
C41 O42 1.258 . S
C41 O43 1.256 1_556 S
O42 Cd34 2.381 1_556 S
O42 C41 1.258 . S
O43 Cd34 2.378 . S
O43 C41 1.256 1_554 S
O44 Cd45 2.300 . S
O44 C51 1.275 . S
Cd45 O44 2.300 . S
Cd45 O53 2.381 . S
Cd45 O54 2.378 . S
O46 Cd47 2.385 . S
O46 C51 1.255 . S
Cd47 O46 2.385 . S
Cd47 O48 2.317 . S
O48 Cd47 2.317 . S
O48 C49 1.232 . S
C49 O48 1.232 . S
C49 O50 1.218 . S
O50 C49 1.218 . S
C51 O44 1.275 . S
C51 O46 1.255 . S
C52 O53 1.258 . S
C52 O54 1.256 . S
O53 Cd45 2.381 . S
O53 C52 1.258 . S
O54 Cd45 2.378 . S
O54 C52 1.256 . S
O55 Cd56 2.300 1_655 S
O55 C62 1.275 1_655 S
Cd56 O55 2.300 1_455 S
Cd56 O64 2.381 1_455 S
Cd56 O65 2.378 . S
O57 Cd58 2.385 . S
O57 C62 1.255 . S
Cd58 O57 2.385 . S
Cd58 O59 2.317 . S
O59 Cd58 2.317 . S
O59 C60 1.232 . S
C60 O59 1.232 . S
C60 O61 1.218 . S
O61 C60 1.218 . S
C62 O55 1.275 1_455 S
C62 O57 1.255 . S
C63 O64 1.258 1_455 S
C63 O65 1.256 . S
O64 Cd56 2.381 1_655 S
O64 C63 1.258 1_655 S
O65 Cd56 2.378 . S
O65 C63 1.256 . S
O66 Cd67 2.300 . S
O66 C73 1.275 . S
Cd67 O66 2.300 . S
Cd67 O75 2.381 . S
Cd67 O76 2.378 . S
O68 Cd69 2.385 . S
O68 C73 1.255 . S
Cd69 O68 2.385 . S
Cd69 O70 2.317 . S
O70 Cd69 2.317 . S
O70 C71 1.232 . S
C71 O70 1.232 . S
C71 O72 1.218 . S
O72 C71 1.218 . S
C73 O66 1.275 . S
C73 O68 1.255 . S
C74 O75 1.258 . S
C74 O76 1.256 . S
O75 Cd67 2.381 . S
O75 C74 1.258 . S
O76 Cd67 2.378 . S
O76 C74 1.256 . S
O77 Cd78 2.300 . S
O77 C84 1.275 . S
Cd78 O77 2.300 . S
Cd78 O86 2.381 . S
Cd78 O87 2.378 . S
O79 Cd80 2.385 . S
O79 C84 1.255 . S
Cd80 O79 2.385 . S
Cd80 O81 2.317 . S
O81 Cd80 2.317 . S
O81 C82 1.232 . S
C82 O81 1.232 . S
C82 O83 1.218 . S
O83 C82 1.218 . S
C84 O77 1.275 . S
C84 O79 1.255 . S
C85 O86 1.258 . S
C85 O87 1.256 . S
O86 Cd78 2.381 . S
O86 C85 1.258 . S
O87 Cd78 2.378 . S
O87 C85 1.256 . S
Zn88 O94 1.969 . S
Zn88 O95 1.965 1_655 S
Zn88 O99 2.024 1_655 S
Zn88 O104 1.969 . S
Zn89 O96 1.969 . S
Zn89 O102 1.969 . S
Zn89 O103 1.965 1_455 S
Zn89 O105 2.024 1_455 S
C90 O91 1.229 1_455 S
C90 O99 1.058 . S
O91 C90 1.229 1_655 S
C92 O93 1.229 1_655 S
C92 O105 1.058 . S
O93 C92 1.229 1_455 S
O94 Zn88 1.969 . S
O94 C97 1.267 . S
O95 Zn88 1.965 1_455 S
O95 C106 1.260 . S
O96 Zn89 1.969 . S
O96 C106 1.258 1_565 S
C97 O94 1.267 . S
C97 O98 1.228 1_655 S
O98 C97 1.228 1_455 S
O99 Zn88 2.024 1_455 S
O99 C90 1.058 . S
C100 O101 1.228 1_455 S
C100 O102 1.267 . S
O101 C100 1.228 1_655 S
O102 Zn89 1.969 . S
O102 C100 1.267 . S
O103 Zn89 1.965 1_655 S
O103 C107 1.260 1_565 S
O104 Zn88 1.969 . S
O104 C107 1.258 . S
O105 Zn89 2.024 1_655 S
O105 C92 1.058 . S
C106 O95 1.260 . S
C106 O96 1.258 1_545 S
C107 O103 1.260 1_545 S
C107 O104 1.258 . S
Zn108 O114 1.969 . S
Zn108 O115 1.965 . S
Zn108 O119 2.024 . S
Zn108 O124 1.969 1_545 S
Zn109 O116 1.969 . S
Zn109 O122 1.969 . S
Zn109 O123 1.965 1_545 S
Zn109 O125 2.024 1_545 S
C110 O111 1.229 . S
C110 O119 1.058 . S
O111 C110 1.229 . S
C112 O113 1.229 1_565 S
C112 O125 1.058 . S
O113 C112 1.229 1_545 S
O114 Zn108 1.969 . S
O114 C117 1.267 . S
O115 Zn108 1.965 . S
O115 C126 1.260 . S
O116 Zn109 1.969 . S
O116 C126 1.258 . S
C117 O114 1.267 . S
C117 O118 1.228 . S
O118 C117 1.228 . S
O119 Zn108 2.024 . S
O119 C110 1.058 . S
C120 O121 1.231 . S
C120 O122 1.265 1_565 S
O121 C120 1.231 . S
O122 Zn109 1.969 . S
O122 C120 1.265 1_545 S
O123 Zn109 1.965 1_565 S
O123 C127 1.260 . S
O124 Zn108 1.969 1_565 S
O124 C127 1.258 . S
O125 Zn109 2.024 1_565 S
O125 C112 1.058 . S
C126 O115 1.260 . S
C126 O116 1.258 . S
C127 O123 1.260 . S
C127 O124 1.258 . S
Zn128 O134 1.969 . S
Zn128 O135 1.965 . S
Zn128 O139 2.024 . S
Zn128 O144 1.969 . S
Zn129 O136 1.969 . S
Zn129 O142 1.969 . S
Zn129 O143 1.965 . S
Zn129 O145 2.024 . S
C130 O131 1.229 . S
C130 O139 1.058 . S
O131 C130 1.229 . S
C132 O133 1.229 . S
C132 O145 1.058 . S
O133 C132 1.229 . S
O134 Zn128 1.969 . S
O134 C137 1.267 . S
O135 Zn128 1.965 . S
O135 C146 1.260 . S
O136 Zn129 1.969 . S
O136 C146 1.258 . S
C137 O134 1.267 . S
C137 O138 1.228 . S
O138 C137 1.228 . S
O139 Zn128 2.024 . S
O139 C130 1.058 . S
C140 O141 1.228 . S
C140 O142 1.267 . S
O141 C140 1.228 . S
O142 Zn129 1.969 . S
O142 C140 1.267 . S
O143 Zn129 1.965 . S
O143 C147 1.260 . S
O144 Zn128 1.969 . S
O144 C147 1.258 . S
O145 Zn129 2.024 . S
O145 C132 1.058 . S
C146 O135 1.260 . S
C146 O136 1.258 . S
C147 O143 1.260 . S
C147 O144 1.258 . S
Zn148 O154 1.969 . S
Zn148 O155 1.965 . S
Zn148 O159 2.024 . S
Zn148 O164 1.969 . S
Zn149 O156 1.969 . S
Zn149 O162 1.969 . S
Zn149 O163 1.965 . S
Zn149 O165 2.024 . S
C150 O151 1.229 . S
C150 O159 1.058 . S
O151 C150 1.229 . S
C152 O153 1.229 . S
C152 O165 1.058 . S
O153 C152 1.229 . S
O154 Zn148 1.969 . S
O154 C157 1.267 . S
O155 Zn148 1.965 . S
O155 C166 1.260 1_455 S
O156 Zn149 1.969 . S
O156 C166 1.258 . S
C157 O154 1.267 . S
C157 O158 1.228 . S
O158 C157 1.228 . S
O159 Zn148 2.024 . S
O159 C150 1.058 . S
C160 O161 1.228 . S
C160 O162 1.267 . S
O161 C160 1.228 . S
O162 Zn149 1.969 . S
O162 C160 1.267 . S
O163 Zn149 1.965 . S
O163 C167 1.260 1_655 S
O164 Zn148 1.969 . S
O164 C167 1.258 . S
O165 Zn149 2.024 . S
O165 C152 1.058 . S
C166 O155 1.260 1_655 S
C166 O156 1.258 . S
C167 O163 1.260 1_455 S
C167 O164 1.258 . S
C168 C169 1.349 . S
C168 C170 1.327 . S
C168 H193 0.950 . S
C169 C168 1.349 . S
C169 C185 1.349 . S
C170 C168 1.327 . S
C170 C189 1.429 . S
C170 H194 0.950 . S
C171 C188 1.574 . S
C171 C190 1.368 . S
C171 H195 0.949 . S
H172 C176 0.949 . S
C173 C174 1.349 . S
C173 C175 1.327 . S
C173 H196 0.950 . S
C174 C173 1.349 . S
C174 C186 1.349 . S
C175 C173 1.327 . S
C175 C191 1.429 . S
C175 H197 0.950 . S
C176 H172 0.949 . S
C176 C184 1.574 . S
C176 C192 1.368 . S
H177 C185 0.950 . S
H178 C183 0.950 . S
H179 C184 0.949 . S
H180 C186 0.950 1_565 S
H181 C187 0.950 1_565 S
H182 C188 0.949 . S
C183 H178 0.950 . S
C183 C185 1.327 . S
C183 C189 1.429 . S
C184 C176 1.574 . S
C184 H179 0.949 . S
C184 C190 1.368 . S
C185 C169 1.349 . S
C185 H177 0.950 . S
C185 C183 1.327 . S
C186 C174 1.349 . S
C186 H180 0.950 1_545 S
C186 C187 1.327 . S
C187 H181 0.950 1_545 S
C187 C186 1.327 . S
C187 C191 1.429 . S
C188 C171 1.574 . S
C188 H182 0.949 . S
C188 C192 1.368 . S
C189 C170 1.429 . S
C189 C183 1.429 . S
C189 C190 1.523 . S
C190 C171 1.368 . S
C190 C184 1.368 . S
C190 C189 1.523 . S
C191 C175 1.429 . S
C191 C187 1.429 . S
C191 C192 1.523 . S
C192 C176 1.368 . S
C192 C188 1.368 . S
C192 C191 1.523 . S
H193 C168 0.950 . S
H194 C170 0.950 . S
H195 C171 0.949 . S
H196 C173 0.950 . S
H197 C175 0.950 . S
C198 C199 1.349 . S
C198 C200 1.327 . S
C198 H223 0.950 . S
C199 C198 1.349 . S
C199 C215 1.349 . S
C200 C198 1.327 . S
C200 C219 1.429 . S
C200 H224 0.950 . S
C201 C218 1.574 . S
C201 C220 1.368 . S
C201 H225 0.949 . S
H202 C206 0.949 . S
C203 C204 1.349 . S
C203 C205 1.327 . S
C203 H226 0.950 . S
C204 C203 1.349 . S
C204 C216 1.349 . S
C205 C203 1.327 . S
C205 C221 1.429 . S
C205 H227 0.950 . S
C206 H202 0.949 . S
C206 C214 1.574 . S
C206 C222 1.368 . S
H207 C215 0.950 . S
H208 C213 0.950 . S
H209 C214 0.949 . S
H210 C216 0.950 . S
H211 C217 0.950 . S
H212 C218 0.949 . S
C213 H208 0.950 . S
C213 C215 1.327 . S
C213 C219 1.429 . S
C214 C206 1.574 . S
C214 H209 0.949 . S
C214 C220 1.368 . S
C215 C199 1.349 . S
C215 H207 0.950 . S
C215 C213 1.327 . S
C216 C204 1.349 . S
C216 H210 0.950 . S
C216 C217 1.327 . S
C217 H211 0.950 . S
C217 C216 1.327 . S
C217 C221 1.429 . S
C218 C201 1.574 . S
C218 H212 0.949 . S
C218 C222 1.368 . S
C219 C200 1.429 . S
C219 C213 1.429 . S
C219 C220 1.523 . S
C220 C201 1.368 . S
C220 C214 1.368 . S
C220 C219 1.523 . S
C221 C205 1.429 . S
C221 C217 1.429 . S
C221 C222 1.523 . S
C222 C206 1.368 . S
C222 C218 1.368 . S
C222 C221 1.523 . S
H223 C198 0.950 . S
H224 C200 0.950 . S
H225 C201 0.949 . S
H226 C203 0.950 . S
H227 C205 0.950 . S
C228 C229 1.349 . S
C228 C230 1.327 . S
C228 H253 0.950 . S
C229 C228 1.349 . S
C229 C245 1.349 . S
C230 C228 1.327 . S
C230 C249 1.429 . S
C230 H254 0.950 . S
C231 C248 1.574 . S
C231 C250 1.368 . S
C231 H255 0.949 . S
H232 C236 0.949 . S
C233 C234 1.349 . S
C233 C235 1.327 . S
C233 H256 0.950 . S
C234 C233 1.349 . S
C234 C246 1.349 . S
C235 C233 1.327 . S
C235 C251 1.429 . S
C235 H257 0.950 . S
C236 H232 0.949 . S
C236 C244 1.574 . S
C236 C252 1.368 . S
H237 C245 0.950 . S
H238 C243 0.950 . S
H239 C244 0.949 . S
H240 C246 0.950 . S
H241 C247 0.950 . S
H242 C248 0.949 . S
C243 H238 0.950 . S
C243 C245 1.327 . S
C243 C249 1.429 . S
C244 C236 1.574 . S
C244 H239 0.949 . S
C244 C250 1.368 . S
C245 C229 1.349 . S
C245 H237 0.950 . S
C245 C243 1.327 . S
C246 C234 1.349 . S
C246 H240 0.950 . S
C246 C247 1.327 . S
C247 H241 0.950 . S
C247 C246 1.327 . S
C247 C251 1.429 . S
C248 C231 1.574 . S
C248 H242 0.949 . S
C248 C252 1.368 . S
C249 C230 1.429 . S
C249 C243 1.429 . S
C249 C250 1.523 . S
C250 C231 1.368 . S
C250 C244 1.368 . S
C250 C249 1.523 . S
C251 C235 1.429 . S
C251 C247 1.429 . S
C251 C252 1.523 . S
C252 C236 1.368 . S
C252 C248 1.368 . S
C252 C251 1.523 . S
H253 C228 0.950 . S
H254 C230 0.950 . S
H255 C231 0.949 . S
H256 C233 0.950 . S
H257 C235 0.950 . S
C258 C259 1.347 . S
C258 C260 1.327 . S
C258 H283 0.950 . S
C259 C258 1.347 . S
C259 C275 1.351 1_655 S
C260 C258 1.327 . S
C260 C279 1.436 . S
C260 H284 0.950 . S
C261 C278 1.574 . S
C261 C280 1.354 1_455 S
C261 H285 0.949 . S
H262 C266 0.949 . S
C263 C264 1.349 1_455 S
C263 C265 1.327 . S
C263 H286 0.950 . S
C264 C263 1.349 1_655 S
C264 C276 1.349 . S
C265 C263 1.327 . S
C265 C281 1.429 1_455 S
C265 H287 0.950 . S
C266 H262 0.949 . S
C266 C274 1.574 . S
C266 C282 1.368 . S
H267 C275 0.950 . S
H268 C273 0.950 . S
H269 C274 0.949 . S
H270 C276 0.950 . S
H271 C277 0.950 . S
H272 C278 0.949 . S
C273 H268 0.950 . S
C273 C275 1.327 . S
C273 C279 1.421 1_455 S
C274 C266 1.574 . S
C274 H269 0.949 . S
C274 C280 1.383 . S
C275 C259 1.351 1_455 S
C275 H267 0.950 . S
C275 C273 1.327 . S
C276 C264 1.349 . S
C276 H270 0.950 . S
C276 C277 1.327 . S
C277 H271 0.950 . S
C277 C276 1.327 . S
C277 C281 1.429 . S
C278 C261 1.574 . S
C278 H272 0.949 . S
C278 C282 1.368 1_455 S
C279 C260 1.436 . S
C279 C273 1.421 1_655 S
C279 C280 1.523 . S
C280 C261 1.354 1_655 S
C280 C274 1.383 . S
C280 C279 1.523 . S
C281 C265 1.429 1_655 S
C281 C277 1.429 . S
C281 C282 1.523 . S
C282 C266 1.368 . S
C282 C278 1.368 1_655 S
C282 C281 1.523 . S
H283 C258 0.950 . S
H284 C260 0.950 . S
H285 C261 0.949 . S
H286 C263 0.950 . S
H287 C265 0.950 . S
C288 C289 1.349 . S
C288 C290 1.327 . S
C288 H313 0.950 1_556 S
C289 C288 1.349 . S
C289 C305 1.349 . S
C290 C288 1.327 . S
C290 C309 1.429 . S
C290 H314 0.950 . S
C291 C308 1.574 . S
C291 C310 1.368 . S
C291 H315 0.949 . S
H292 C296 0.949 . S
C293 C294 1.343 1_545 S
C293 C295 1.314 1_545 S
C293 H316 0.973 . S
C294 C293 1.343 1_565 S
C294 C306 1.349 . S
C295 C293 1.314 1_565 S
C295 C311 1.429 . S
C295 H317 0.950 . S
C296 H292 0.949 . S
C296 C304 1.574 . S
C296 C312 1.368 . S
H297 C305 0.950 . S
H298 C303 0.950 . S
H299 C304 0.949 . S
H300 C306 0.950 . S
H301 C307 0.950 . S
H302 C308 0.949 . S
C303 H298 0.950 . S
C303 C305 1.327 . S
C303 C309 1.429 . S
C304 C296 1.574 . S
C304 H299 0.949 . S
C304 C310 1.368 . S
C305 C289 1.349 . S
C305 H297 0.950 . S
C305 C303 1.327 . S
C306 C294 1.349 . S
C306 H300 0.950 . S
C306 C307 1.327 . S
C307 H301 0.950 . S
C307 C306 1.327 . S
C307 C311 1.429 . S
C308 C291 1.574 . S
C308 H302 0.949 . S
C308 C312 1.368 . S
C309 C290 1.429 . S
C309 C303 1.429 . S
C309 C310 1.523 . S
C310 C291 1.368 . S
C310 C304 1.368 . S
C310 C309 1.523 . S
C311 C295 1.429 . S
C311 C307 1.429 . S
C311 C312 1.523 . S
C312 C296 1.368 . S
C312 C308 1.368 . S
C312 C311 1.523 . S
H313 C288 0.950 1_554 S
H314 C290 0.950 . S
H315 C291 0.949 . S
H316 C293 0.973 . S
H317 C295 0.950 . S
C318 C319 1.349 . S
C318 C320 1.327 . S
C318 H343 0.950 . S
C319 C318 1.349 . S
C319 C335 1.349 . S
C320 C318 1.327 . S
C320 C339 1.429 . S
C320 H344 0.950 . S
C321 C338 1.574 . S
C321 C340 1.368 . S
C321 H345 0.949 . S
H322 C326 0.949 . S
C323 C324 1.349 . S
C323 C325 1.327 . S
C323 H346 0.950 . S
C324 C323 1.349 . S
C324 C336 1.349 . S
C325 C323 1.327 . S
C325 C341 1.429 . S
C325 H347 0.950 . S
C326 H322 0.949 . S
C326 C334 1.574 . S
C326 C342 1.368 . S
H327 C335 0.950 1_554 S
H328 C333 0.950 . S
H329 C334 0.949 . S
H330 C336 0.950 . S
H331 C337 0.950 . S
H332 C338 0.949 . S
C333 H328 0.950 . S
C333 C335 1.327 . S
C333 C339 1.429 . S
C334 C326 1.574 . S
C334 H329 0.949 . S
C334 C340 1.368 . S
C335 C319 1.349 . S
C335 H327 0.950 1_556 S
C335 C333 1.327 . S
C336 C324 1.349 . S
C336 H330 0.950 . S
C336 C337 1.327 . S
C337 H331 0.950 . S
C337 C336 1.327 . S
C337 C341 1.429 . S
C338 C321 1.574 . S
C338 H332 0.949 . S
C338 C342 1.368 . S
C339 C320 1.429 . S
C339 C333 1.429 . S
C339 C340 1.523 . S
C340 C321 1.368 . S
C340 C334 1.368 . S
C340 C339 1.523 . S
C341 C325 1.429 . S
C341 C337 1.429 . S
C341 C342 1.523 . S
C342 C326 1.368 . S
C342 C338 1.368 . S
C342 C341 1.523 . S
H343 C318 0.950 . S
H344 C320 0.950 . S
H345 C321 0.949 . S
H346 C323 0.950 . S
H347 C325 0.950 . S
C348 C349 1.349 . S
C348 C350 1.327 . S
C348 H373 0.950 . S
C349 C348 1.349 . S
C349 C365 1.349 . S
C350 C348 1.327 . S
C350 C369 1.429 . S
C350 H374 0.950 . S
C351 C368 1.574 . S
C351 C370 1.368 . S
C351 H375 0.949 . S
H352 C356 0.949 . S
C353 C354 1.349 . S
C353 C355 1.327 . S
C353 H376 0.950 . S
C354 C353 1.349 . S
C354 C366 1.349 . S
C355 C353 1.327 . S
C355 C371 1.429 . S
C355 H377 0.950 . S
C356 H352 0.949 . S
C356 C364 1.574 . S
C356 C372 1.368 . S
H357 C365 0.950 . S
H358 C363 0.950 . S
H359 C364 0.949 . S
H360 C366 0.950 . S
H361 C367 0.950 . S
H362 C368 0.949 . S
C363 H358 0.950 . S
C363 C365 1.327 . S
C363 C369 1.429 . S
C364 C356 1.574 . S
C364 H359 0.949 . S
C364 C370 1.368 . S
C365 C349 1.349 . S
C365 H357 0.950 . S
C365 C363 1.327 . S
C366 C354 1.349 . S
C366 H360 0.950 . S
C366 C367 1.327 . S
C367 H361 0.950 . S
C367 C366 1.327 . S
C367 C371 1.429 . S
C368 C351 1.574 . S
C368 H362 0.949 . S
C368 C372 1.368 . S
C369 C350 1.429 . S
C369 C363 1.429 . S
C369 C370 1.523 . S
C370 C351 1.368 . S
C370 C364 1.368 . S
C370 C369 1.523 . S
C371 C355 1.429 . S
C371 C367 1.429 . S
C371 C372 1.523 . S
C372 C356 1.368 . S
C372 C368 1.368 . S
C372 C371 1.523 . S
H373 C348 0.950 . S
H374 C350 0.950 . S
H375 C351 0.949 . S
H376 C353 0.950 . S
H377 C355 0.950 . S
C378 C379 1.351 1_655 S
C378 C380 1.327 . S
C378 H403 0.950 . S
C379 C378 1.351 1_455 S
C379 C395 1.346 . S
C380 C378 1.327 . S
C380 C399 1.421 1_655 S
C380 H404 0.950 . S
C381 C398 1.574 . S
C381 C400 1.384 . S
C381 H405 0.949 . S
H382 C386 0.949 . S
C383 C384 1.349 . S
C383 C385 1.327 . S
C383 H406 0.950 . S
C384 C383 1.349 . S
C384 C396 1.349 1_455 S
C385 C383 1.327 . S
C385 C401 1.429 . S
C385 H407 0.950 . S
C386 H382 0.949 . S
C386 C394 1.574 . S
C386 C402 1.368 1_655 S
H387 C395 0.950 1_554 S
H388 C393 0.950 . S
H389 C394 0.949 . S
H390 C396 0.950 . S
H391 C397 0.950 . S
H392 C398 0.949 . S
C393 H388 0.950 . S
C393 C395 1.327 . S
C393 C399 1.437 . S
C394 C386 1.574 . S
C394 H389 0.949 . S
C394 C400 1.354 1_655 S
C395 C379 1.346 . S
C395 H387 0.950 1_556 S
C395 C393 1.327 . S
C396 C384 1.349 1_655 S
C396 H390 0.950 . S
C396 C397 1.327 . S
C397 H391 0.950 . S
C397 C396 1.327 . S
C397 C401 1.429 1_655 S
C398 C381 1.574 . S
C398 H392 0.949 . S
C398 C402 1.368 . S
C399 C380 1.421 1_455 S
C399 C393 1.437 . S
C399 C400 1.523 . S
C400 C381 1.384 . S
C400 C394 1.354 1_455 S
C400 C399 1.523 . S
C401 C385 1.429 . S
C401 C397 1.429 1_455 S
C401 C402 1.523 . S
C402 C386 1.368 1_455 S
C402 C398 1.368 . S
C402 C401 1.523 . S
H403 C378 0.950 . S
H404 C380 0.950 . S
H405 C381 0.949 . S
H406 C383 0.950 . S
H407 C385 0.950 . S
C408 C409 1.348 1_655 S
C408 C410 1.327 . S
C408 H433 0.950 . S
C409 C408 1.348 1_455 S
C409 C425 1.349 . S
C410 C408 1.327 . S
C410 C429 1.429 . S
C410 H434 0.950 . S
C411 C428 1.576 . S
C411 C430 1.368 1_455 S
C411 H435 0.949 . S
H412 C416 0.949 . S
C413 C414 1.349 . S
C413 C415 1.327 . S
C413 H436 0.951 1_655 S
C414 C413 1.349 . S
C414 C426 1.349 . S
C415 C413 1.327 . S
C415 C431 1.429 . S
C415 H437 0.950 1_655 S
C416 H412 0.949 . S
C416 C424 1.574 . S
C416 C432 1.368 . S
H417 C425 0.950 . S
H418 C423 0.950 . S
H419 C424 0.949 . S
H420 C426 0.950 . S
H421 C427 0.950 . S
H422 C428 0.958 . S
C423 H418 0.950 . S
C423 C425 1.327 . S
C423 C429 1.429 1_455 S
C424 C416 1.574 . S
C424 H419 0.949 . S
C424 C430 1.368 . S
C425 C409 1.349 . S
C425 H417 0.950 . S
C425 C423 1.327 . S
C426 C414 1.349 . S
C426 H420 0.950 . S
C426 C427 1.327 . S
C427 H421 0.950 . S
C427 C426 1.327 . S
C427 C431 1.429 . S
C428 C411 1.576 . S
C428 H422 0.958 . S
C428 C432 1.358 1_455 S
C429 C410 1.429 . S
C429 C423 1.429 1_655 S
C429 C430 1.523 . S
C430 C411 1.368 1_655 S
C430 C424 1.368 . S
C430 C429 1.523 . S
C431 C415 1.429 . S
C431 C427 1.429 . S
C431 C432 1.523 . S
C432 C416 1.368 . S
C432 C428 1.358 1_655 S
C432 C431 1.523 . S
H433 C408 0.950 . S
H434 C410 0.950 . S
H435 C411 0.949 . S
H436 C413 0.951 1_455 S
H437 C415 0.950 1_455 S
C438 C439 1.349 . S
C438 C440 1.327 . S
C438 H463 0.950 . S
C439 C438 1.349 . S
C439 C455 1.349 . S
C440 C438 1.327 . S
C440 C459 1.429 . S
C440 H464 0.950 . S
C441 C458 1.574 . S
C441 C460 1.368 . S
C441 H465 0.949 . S
H442 C446 0.949 . S
C443 C444 1.349 . S
C443 C445 1.327 . S
C443 H466 0.950 . S
C444 C443 1.349 . S
C444 C456 1.349 . S
C445 C443 1.327 . S
C445 C461 1.429 . S
C445 H467 0.950 . S
C446 H442 0.949 . S
C446 C454 1.574 . S
C446 C462 1.368 . S
H447 C455 0.950 . S
H448 C453 0.950 . S
H449 C454 0.949 . S
H450 C456 0.950 1_565 S
H451 C457 0.950 . S
H452 C458 0.949 . S
C453 H448 0.950 . S
C453 C455 1.327 . S
C453 C459 1.429 . S
C454 C446 1.574 . S
C454 H449 0.949 . S
C454 C460 1.368 . S
C455 C439 1.349 . S
C455 H447 0.950 . S
C455 C453 1.327 . S
C456 C444 1.349 . S
C456 H450 0.950 1_545 S
C456 C457 1.327 . S
C457 H451 0.950 . S
C457 C456 1.327 . S
C457 C461 1.429 . S
C458 C441 1.574 . S
C458 H452 0.949 . S
C458 C462 1.368 . S
C459 C440 1.429 . S
C459 C453 1.429 . S
C459 C460 1.523 . S
C460 C441 1.368 . S
C460 C454 1.368 . S
C460 C459 1.523 . S
C461 C445 1.429 . S
C461 C457 1.429 . S
C461 C462 1.523 . S
C462 C446 1.368 . S
C462 C458 1.368 . S
C462 C461 1.523 . S
H463 C438 0.950 . S
H464 C440 0.950 . S
H465 C441 0.949 . S
H466 C443 0.950 . S
H467 C445 0.950 . S
C468 C469 1.349 . S
C468 C470 1.327 . S
C468 H493 0.950 . S
C469 C468 1.349 . S
C469 C485 1.349 . S
C470 C468 1.327 . S
C470 C489 1.429 . S
C470 H494 0.950 . S
C471 C488 1.574 . S
C471 C490 1.368 . S
C471 H495 0.949 . S
H472 C476 0.949 . S
C473 C474 1.349 . S
C473 C475 1.327 . S
C473 H496 0.950 . S
C474 C473 1.349 . S
C474 C486 1.349 . S
C475 C473 1.327 . S
C475 C491 1.429 . S
C475 H497 0.950 . S
C476 H472 0.949 . S
C476 C484 1.574 . S
C476 C492 1.368 . S
H477 C485 0.950 . S
H478 C483 0.950 . S
H479 C484 0.949 . S
H480 C486 0.950 . S
H481 C487 0.950 . S
H482 C488 0.949 . S
C483 H478 0.950 . S
C483 C485 1.327 . S
C483 C489 1.429 . S
C484 C476 1.574 . S
C484 H479 0.949 . S
C484 C490 1.368 . S
C485 C469 1.349 . S
C485 H477 0.950 . S
C485 C483 1.327 . S
C486 C474 1.349 . S
C486 H480 0.950 . S
C486 C487 1.327 . S
C487 H481 0.950 . S
C487 C486 1.327 . S
C487 C491 1.429 . S
C488 C471 1.574 . S
C488 H482 0.949 . S
C488 C492 1.368 . S
C489 C470 1.429 . S
C489 C483 1.429 . S
C489 C490 1.523 . S
C490 C471 1.368 . S
C490 C484 1.368 . S
C490 C489 1.523 . S
C491 C475 1.429 . S
C491 C487 1.429 . S
C491 C492 1.523 . S
C492 C476 1.368 . S
C492 C488 1.368 . S
C492 C491 1.523 . S
H493 C468 0.950 . S
H494 C470 0.950 . S
H495 C471 0.949 . S
H496 C473 0.950 . S
H497 C475 0.950 . S
C498 C499 1.349 . S
C498 C500 1.327 . S
C498 H523 0.950 . S
C499 C498 1.349 . S
C499 C515 1.349 . S
C500 C498 1.327 . S
C500 C519 1.429 . S
C500 H524 0.950 . S
C501 C518 1.574 . S
C501 C520 1.368 . S
C501 H525 0.949 . S
H502 C506 0.949 . S
C503 C504 1.349 . S
C503 C505 1.327 . S
C503 H526 0.950 . S
C504 C503 1.349 . S
C504 C516 1.349 . S
C505 C503 1.327 . S
C505 C521 1.429 . S
C505 H527 0.950 . S
C506 H502 0.949 . S
C506 C514 1.574 . S
C506 C522 1.368 . S
H507 C515 0.950 . S
H508 C513 0.950 . S
H509 C514 0.949 . S
H510 C516 0.950 . S
H511 C517 0.950 . S
H512 C518 0.949 . S
C513 H508 0.950 . S
C513 C515 1.327 . S
C513 C519 1.429 . S
C514 C506 1.574 . S
C514 H509 0.949 . S
C514 C520 1.368 . S
C515 C499 1.349 . S
C515 H507 0.950 . S
C515 C513 1.327 . S
C516 C504 1.349 . S
C516 H510 0.950 . S
C516 C517 1.327 . S
C517 H511 0.950 . S
C517 C516 1.327 . S
C517 C521 1.429 . S
C518 C501 1.574 . S
C518 H512 0.949 . S
C518 C522 1.368 . S
C519 C500 1.429 . S
C519 C513 1.429 . S
C519 C520 1.523 . S
C520 C501 1.368 . S
C520 C514 1.368 . S
C520 C519 1.523 . S
C521 C505 1.429 . S
C521 C517 1.429 . S
C521 C522 1.523 . S
C522 C506 1.368 . S
C522 C518 1.368 . S
C522 C521 1.523 . S
H523 C498 0.950 . S
H524 C500 0.950 . S
H525 C501 0.949 . S
H526 C503 0.950 . S
H527 C505 0.950 . S
C528 C529 1.348 1_455 S
C528 C530 1.327 . S
C528 H553 0.950 1_556 S
C529 C528 1.348 1_655 S
C529 C545 1.349 . S
C530 C528 1.327 . S
C530 C549 1.429 . S
C530 H554 0.950 . S
C531 C548 1.574 . S
C531 C550 1.368 1_655 S
C531 H555 0.949 . S
H532 C536 0.949 . S
C533 C534 1.349 . S
C533 C535 1.327 . S
C533 H556 0.950 1_455 S
C534 C533 1.349 . S
C534 C546 1.349 . S
C535 C533 1.327 . S
C535 C551 1.429 . S
C535 H557 0.950 1_455 S
C536 H532 0.949 . S
C536 C544 1.574 . S
C536 C552 1.368 . S
H537 C545 0.950 . S
H538 C543 0.950 . S
H539 C544 0.949 . S
H540 C546 0.950 . S
H541 C547 0.950 . S
H542 C548 0.949 . S
C543 H538 0.950 . S
C543 C545 1.327 . S
C543 C549 1.429 1_655 S
C544 C536 1.574 . S
C544 H539 0.949 . S
C544 C550 1.368 . S
C545 C529 1.349 . S
C545 H537 0.950 . S
C545 C543 1.327 . S
C546 C534 1.349 . S
C546 H540 0.950 . S
C546 C547 1.327 . S
C547 H541 0.950 . S
C547 C546 1.327 . S
C547 C551 1.429 . S
C548 C531 1.574 . S
C548 H542 0.949 . S
C548 C552 1.368 1_655 S
C549 C530 1.429 . S
C549 C543 1.429 1_455 S
C549 C550 1.523 . S
C550 C531 1.368 1_455 S
C550 C544 1.368 . S
C550 C549 1.523 . S
C551 C535 1.429 . S
C551 C547 1.429 . S
C551 C552 1.523 . S
C552 C536 1.368 . S
C552 C548 1.368 1_455 S
C552 C551 1.523 . S
H553 C528 0.950 1_554 S
H554 C530 0.950 . S
H555 C531 0.949 . S
H556 C533 0.950 1_655 S
H557 C535 0.950 1_655 S
C558 C559 1.349 . S
C558 C560 1.327 . S
C558 H583 0.950 . S
C559 C558 1.349 . S
C559 C575 1.349 . S
C560 C558 1.327 . S
C560 C579 1.429 . S
C560 H584 0.950 . S
C561 C578 1.579 . S
C561 C580 1.368 . S
C561 H585 0.949 1_565 S
H562 C566 0.949 . S
C563 C564 1.349 . S
C563 C565 1.327 . S
C563 H586 0.950 . S
C564 C563 1.349 . S
C564 C576 1.349 1_545 S
C565 C563 1.327 . S
C565 C581 1.429 1_545 S
C565 H587 0.950 . S
C566 H562 0.949 . S
C566 C574 1.574 . S
C566 C582 1.368 . S
H567 C575 0.950 . S
H568 C573 0.950 . S
H569 C574 0.949 . S
H570 C576 0.950 . S
H571 C577 0.950 . S
H572 C578 0.932 1_545 S
C573 H568 0.950 . S
C573 C575 1.327 . S
C573 C579 1.429 . S
C574 C566 1.574 . S
C574 H569 0.949 . S
C574 C580 1.368 . S
C575 C559 1.349 . S
C575 H567 0.950 . S
C575 C573 1.327 . S
C576 C564 1.349 1_565 S
C576 H570 0.950 . S
C576 C577 1.327 . S
C577 H571 0.950 . S
C577 C576 1.327 . S
C577 C581 1.429 . S
C578 C561 1.579 . S
C578 H572 0.932 1_565 S
C578 C582 1.382 . S
C579 C560 1.429 . S
C579 C573 1.429 . S
C579 C580 1.523 . S
C580 C561 1.368 . S
C580 C574 1.368 . S
C580 C579 1.523 . S
C581 C565 1.429 1_565 S
C581 C577 1.429 . S
C581 C582 1.523 . S
C582 C566 1.368 . S
C582 C578 1.382 . S
C582 C581 1.523 . S
H583 C558 0.950 . S
H584 C560 0.950 . S
H585 C561 0.949 1_545 S
H586 C563 0.950 . S
H587 C565 0.950 . S
C588 C589 1.349 . S
C588 C590 1.327 . S
C588 H613 0.950 . S
C589 C588 1.349 . S
C589 C605 1.349 . S
C590 C588 1.327 . S
C590 C609 1.429 . S
C590 H614 0.950 . S
C591 C608 1.574 . S
C591 C610 1.368 . S
C591 H615 0.949 . S
H592 C596 0.949 . S
C593 C594 1.349 . S
C593 C595 1.327 . S
C593 H616 0.950 . S
C594 C593 1.349 . S
C594 C606 1.349 . S
C595 C593 1.327 . S
C595 C611 1.429 . S
C595 H617 0.950 . S
C596 H592 0.949 . S
C596 C604 1.574 . S
C596 C612 1.368 . S
H597 C605 0.950 1_554 S
H598 C603 0.950 . S
H599 C604 0.949 . S
H600 C606 0.950 . S
H601 C607 0.950 . S
H602 C608 0.949 . S
C603 H598 0.950 . S
C603 C605 1.327 . S
C603 C609 1.429 . S
C604 C596 1.574 . S
C604 H599 0.949 . S
C604 C610 1.368 . S
C605 C589 1.349 . S
C605 H597 0.950 1_556 S
C605 C603 1.327 . S
C606 C594 1.349 . S
C606 H600 0.950 . S
C606 C607 1.327 . S
C607 H601 0.950 . S
C607 C606 1.327 . S
C607 C611 1.429 . S
C608 C591 1.574 . S
C608 H602 0.949 . S
C608 C612 1.368 . S
C609 C590 1.429 . S
C609 C603 1.429 . S
C609 C610 1.523 . S
C610 C591 1.368 . S
C610 C604 1.368 . S
C610 C609 1.523 . S
C611 C595 1.429 . S
C611 C607 1.429 . S
C611 C612 1.523 . S
C612 C596 1.368 . S
C612 C608 1.368 . S
C612 C611 1.523 . S
H613 C588 0.950 . S
H614 C590 0.950 . S
H615 C591 0.949 . S
H616 C593 0.950 . S
H617 C595 0.950 . S
C618 C619 1.349 . S
C618 C620 1.327 . S
C618 H643 0.950 . S
C619 C618 1.349 . S
C619 C635 1.349 . S
C620 C618 1.327 . S
C620 C639 1.429 . S
C620 H644 0.950 . S
C621 C638 1.574 . S
C621 C640 1.368 . S
C621 H645 0.949 . S
H622 C626 0.949 . S
C623 C624 1.349 . S
C623 C625 1.327 . S
C623 H646 0.950 . S
C624 C623 1.349 . S
C624 C636 1.349 . S
C625 C623 1.327 . S
C625 C641 1.429 . S
C625 H647 0.950 . S
C626 H622 0.949 . S
C626 C634 1.574 . S
C626 C642 1.368 . S
H627 C635 0.950 1_554 S
H628 C633 0.950 . S
H629 C634 0.949 . S
H630 C636 0.950 . S
H631 C637 0.950 . S
H632 C638 0.949 . S
C633 H628 0.950 . S
C633 C635 1.327 . S
C633 C639 1.429 . S
C634 C626 1.574 . S
C634 H629 0.949 . S
C634 C640 1.368 . S
C635 C619 1.349 . S
C635 H627 0.950 1_556 S
C635 C633 1.327 . S
C636 C624 1.349 . S
C636 H630 0.950 . S
C636 C637 1.327 . S
C637 H631 0.950 . S
C637 C636 1.327 . S
C637 C641 1.429 . S
C638 C621 1.574 . S
C638 H632 0.949 . S
C638 C642 1.368 . S
C639 C620 1.429 . S
C639 C633 1.429 . S
C639 C640 1.523 . S
C640 C621 1.368 . S
C640 C634 1.368 . S
C640 C639 1.523 . S
C641 C625 1.429 . S
C641 C637 1.429 . S
C641 C642 1.523 . S
C642 C626 1.368 . S
C642 C638 1.368 . S
C642 C641 1.523 . S
H643 C618 0.950 . S
H644 C620 0.950 . S
H645 C621 0.949 . S
H646 C623 0.950 . S
H647 C625 0.950 . S
C648 C649 1.326 1_655 S
C648 C650 1.327 1_554 S
C648 H673 0.950 . S
C649 C648 1.326 1_455 S
C649 C665 1.373 . S
C650 C648 1.327 1_556 S
C650 C669 1.429 1_655 S
C650 H674 0.950 . S
C651 C668 1.574 . S
C651 C670 1.368 . S
C651 H675 0.949 . S
H652 C656 0.949 . S
C653 C654 1.349 . S
C653 C655 1.327 . S
C653 H676 0.950 . S
C654 C653 1.349 . S
C654 C666 1.349 1_455 S
C655 C653 1.327 . S
C655 C671 1.429 . S
C655 H677 0.950 . S
C656 H652 0.949 . S
C656 C664 1.574 . S
C656 C672 1.368 1_655 S
H657 C665 0.950 . S
H658 C663 0.950 . S
H659 C664 0.949 . S
H660 C666 0.950 . S
H661 C667 0.950 . S
H662 C668 0.949 . S
C663 H658 0.950 . S
C663 C665 1.327 1_556 S
C663 C669 1.429 . S
C664 C656 1.574 . S
C664 H659 0.949 . S
C664 C670 1.368 1_655 S
C665 C649 1.373 . S
C665 H657 0.950 . S
C665 C663 1.327 1_554 S
C666 C654 1.349 1_655 S
C666 H660 0.950 . S
C666 C667 1.327 . S
C667 H661 0.950 . S
C667 C666 1.327 . S
C667 C671 1.429 1_655 S
C668 C651 1.574 . S
C668 H662 0.949 . S
C668 C672 1.368 . S
C669 C650 1.429 1_455 S
C669 C663 1.429 . S
C669 C670 1.523 . S
C670 C651 1.368 . S
C670 C664 1.368 1_455 S
C670 C669 1.523 . S
C671 C655 1.429 . S
C671 C667 1.429 1_455 S
C671 C672 1.523 . S
C672 C656 1.368 1_455 S
C672 C668 1.368 . S
C672 C671 1.523 . S
H673 C648 0.950 . S
H674 C650 0.950 . S
H675 C651 0.949 . S
H676 C653 0.950 . S
H677 C655 0.950 . S
C678 C679 1.349 . S
C678 C680 1.327 . S
C678 H703 0.950 . S
C679 C678 1.349 . S
C679 C695 1.349 . S
C680 C678 1.327 . S
C680 C699 1.429 1_554 S
C680 H704 0.950 . S
C681 C698 1.574 . S
C681 C700 1.368 . S
C681 H705 0.949 . S
H682 C686 0.949 . S
C683 C684 1.349 . S
C683 C685 1.327 . S
C683 H706 0.950 . S
C684 C683 1.349 . S
C684 C696 1.349 . S
C685 C683 1.327 . S
C685 C701 1.429 . S
C685 H707 0.950 . S
C686 H682 0.949 . S
C686 C694 1.574 . S
C686 C702 1.368 . S
H687 C695 0.950 . S
H688 C693 0.950 . S
H689 C694 0.949 . S
H690 C696 0.950 . S
H691 C697 0.950 . S
H692 C698 0.949 . S
C693 H688 0.950 . S
C693 C695 1.327 1_556 S
C693 C699 1.429 . S
C694 C686 1.574 . S
C694 H689 0.949 . S
C694 C700 1.368 . S
C695 C679 1.349 . S
C695 H687 0.950 . S
C695 C693 1.327 1_554 S
C696 C684 1.349 . S
C696 H690 0.950 . S
C696 C697 1.327 . S
C697 H691 0.950 . S
C697 C696 1.327 . S
C697 C701 1.429 . S
C698 C681 1.574 . S
C698 H692 0.949 . S
C698 C702 1.368 . S
C699 C680 1.429 1_556 S
C699 C693 1.429 . S
C699 C700 1.523 . S
C700 C681 1.368 . S
C700 C694 1.368 . S
C700 C699 1.523 . S
C701 C685 1.429 . S
C701 C697 1.429 . S
C701 C702 1.523 . S
C702 C686 1.368 . S
C702 C698 1.368 . S
C702 C701 1.523 . S
H703 C678 0.950 . S
H704 C680 0.950 . S
H705 C681 0.949 . S
H706 C683 0.950 . S
H707 C685 0.950 . S
C708 C709 1.349 1_556 S
C708 C710 1.327 . S
C708 H733 0.950 . S
C709 C708 1.349 1_554 S
C709 C725 1.349 . S
C710 C708 1.327 . S
C710 C729 1.429 . S
C710 H734 0.950 . S
C711 C728 1.574 . S
C711 C730 1.368 . S
C711 H735 0.949 . S
H712 C716 0.949 . S
C713 C714 1.349 . S
C713 C715 1.327 . S
C713 H736 0.950 . S
C714 C713 1.349 . S
C714 C726 1.349 . S
C715 C713 1.327 . S
C715 C731 1.429 . S
C715 H737 0.950 . S
C716 H712 0.949 . S
C716 C724 1.574 . S
C716 C732 1.368 . S
H717 C725 0.950 . S
H718 C723 0.950 . S
H719 C724 0.949 . S
H720 C726 0.950 . S
H721 C727 0.950 . S
H722 C728 0.949 . S
C723 H718 0.950 . S
C723 C725 1.327 . S
C723 C729 1.429 1_554 S
C724 C716 1.574 . S
C724 H719 0.949 . S
C724 C730 1.368 . S
C725 C709 1.349 . S
C725 H717 0.950 . S
C725 C723 1.327 . S
C726 C714 1.349 . S
C726 H720 0.950 . S
C726 C727 1.327 . S
C727 H721 0.950 . S
C727 C726 1.327 . S
C727 C731 1.429 . S
C728 C711 1.574 . S
C728 H722 0.949 . S
C728 C732 1.368 . S
C729 C710 1.429 . S
C729 C723 1.429 1_556 S
C729 C730 1.523 . S
C730 C711 1.368 . S
C730 C724 1.368 . S
C730 C729 1.523 . S
C731 C715 1.429 . S
C731 C727 1.429 . S
C731 C732 1.523 . S
C732 C716 1.368 . S
C732 C728 1.368 . S
C732 C731 1.523 . S
H733 C708 0.950 . S
H734 C710 0.950 . S
H735 C711 0.949 . S
H736 C713 0.950 . S
H737 C715 0.950 . S
C738 C739 1.349 . S
C738 C740 1.327 1_554 S
C738 H763 0.950 . S
C739 C738 1.349 . S
C739 C755 1.349 . S
C740 C738 1.327 1_556 S
C740 C759 1.429 . S
C740 H764 0.950 . S
C741 C758 1.574 . S
C741 C760 1.368 . S
C741 H765 0.949 . S
H742 C746 0.949 . S
C743 C744 1.349 . S
C743 C745 1.327 . S
C743 H766 0.950 . S
C744 C743 1.349 . S
C744 C756 1.349 . S
C745 C743 1.327 . S
C745 C761 1.429 . S
C745 H767 0.950 . S
C746 H742 0.949 . S
C746 C754 1.574 . S
C746 C762 1.368 . S
H747 C755 0.950 . S
H748 C753 0.950 . S
H749 C754 0.949 . S
H750 C756 0.950 . S
H751 C757 0.950 . S
H752 C758 0.949 . S
C753 H748 0.950 . S
C753 C755 1.327 . S
C753 C759 1.429 1_554 S
C754 C746 1.574 . S
C754 H749 0.949 . S
C754 C760 1.368 . S
C755 C739 1.349 . S
C755 H747 0.950 . S
C755 C753 1.327 . S
C756 C744 1.349 . S
C756 H750 0.950 . S
C756 C757 1.327 . S
C757 H751 0.950 . S
C757 C756 1.327 . S
C757 C761 1.429 . S
C758 C741 1.574 . S
C758 H752 0.949 . S
C758 C762 1.368 . S
C759 C740 1.429 . S
C759 C753 1.429 1_556 S
C759 C760 1.523 . S
C760 C741 1.368 . S
C760 C754 1.368 . S
C760 C759 1.523 . S
C761 C745 1.429 . S
C761 C757 1.429 . S
C761 C762 1.523 . S
C762 C746 1.368 . S
C762 C758 1.368 . S
C762 C761 1.523 . S
H763 C738 0.950 . S
H764 C740 0.950 . S
H765 C741 0.949 . S
H766 C743 0.950 . S
H767 C745 0.950 . S
C768 C769 1.373 . S
C768 C770 1.327 . S
C768 H793 0.950 . S
C769 C768 1.373 . S
C769 C785 1.326 1_655 S
C770 C768 1.327 . S
C770 C789 1.429 . S
C770 H794 0.950 . S
C771 C788 1.574 . S
C771 C790 1.368 1_455 S
C771 H795 0.949 . S
H772 C776 0.949 . S
C773 C774 1.349 1_455 S
C773 C775 1.327 . S
C773 H796 0.950 . S
C774 C773 1.349 1_655 S
C774 C786 1.349 . S
C775 C773 1.327 . S
C775 C791 1.429 1_455 S
C775 H797 0.950 . S
C776 H772 0.949 . S
C776 C784 1.574 . S
C776 C792 1.368 . S
H777 C785 0.950 . S
H778 C783 0.950 . S
H779 C784 0.949 . S
H780 C786 0.950 . S
H781 C787 0.950 . S
H782 C788 0.949 . S
C783 H778 0.950 . S
C783 C785 1.327 . S
C783 C789 1.429 1_455 S
C784 C776 1.574 . S
C784 H779 0.949 . S
C784 C790 1.368 . S
C785 C769 1.326 1_455 S
C785 H777 0.950 . S
C785 C783 1.327 . S
C786 C774 1.349 . S
C786 H780 0.950 . S
C786 C787 1.327 . S
C787 H781 0.950 . S
C787 C786 1.327 . S
C787 C791 1.429 . S
C788 C771 1.574 . S
C788 H782 0.949 . S
C788 C792 1.368 1_455 S
C789 C770 1.429 . S
C789 C783 1.429 1_655 S
C789 C790 1.523 . S
C790 C771 1.368 1_655 S
C790 C784 1.368 . S
C790 C789 1.523 . S
C791 C775 1.429 1_655 S
C791 C787 1.429 . S
C791 C792 1.523 . S
C792 C776 1.368 . S
C792 C788 1.368 1_655 S
C792 C791 1.523 . S
H793 C768 0.950 . S
H794 C770 0.950 . S
H795 C771 0.949 . S
H796 C773 0.950 . S
H797 C775 0.950 . S
C798 C799 1.349 . S
C798 C800 1.327 . S
C798 H823 0.950 . S
C799 C798 1.349 . S
C799 C815 1.349 . S
C800 C798 1.327 . S
C800 C819 1.429 . S
C800 H824 0.950 . S
C801 C818 1.574 . S
C801 C820 1.368 . S
C801 H825 0.949 . S
H802 C806 0.949 . S
C803 C804 1.349 . S
C803 C805 1.327 . S
C803 H826 0.950 . S
C804 C803 1.349 . S
C804 C816 1.349 . S
C805 C803 1.327 . S
C805 C821 1.429 . S
C805 H827 0.950 . S
C806 H802 0.949 . S
C806 C814 1.574 . S
C806 C822 1.368 . S
H807 C815 0.950 . S
H808 C813 0.950 . S
H809 C814 0.949 . S
H810 C816 0.950 . S
H811 C817 0.950 . S
H812 C818 0.949 . S
C813 H808 0.950 . S
C813 C815 1.327 . S
C813 C819 1.429 . S
C814 C806 1.574 . S
C814 H809 0.949 . S
C814 C820 1.368 . S
C815 C799 1.349 . S
C815 H807 0.950 . S
C815 C813 1.327 . S
C816 C804 1.349 . S
C816 H810 0.950 . S
C816 C817 1.327 . S
C817 H811 0.950 . S
C817 C816 1.327 . S
C817 C821 1.429 . S
C818 C801 1.574 . S
C818 H812 0.949 . S
C818 C822 1.368 . S
C819 C800 1.429 . S
C819 C813 1.429 . S
C819 C820 1.523 . S
C820 C801 1.368 . S
C820 C814 1.368 . S
C820 C819 1.523 . S
C821 C805 1.429 . S
C821 C817 1.429 . S
C821 C822 1.523 . S
C822 C806 1.368 . S
C822 C818 1.368 . S
C822 C821 1.523 . S
H823 C798 0.950 . S
H824 C800 0.950 . S
H825 C801 0.949 . S
H826 C803 0.950 . S
H827 C805 0.950 . S
C828 C829 1.349 . S
C828 C830 1.327 . S
C828 H853 0.950 . S
C829 C828 1.349 . S
C829 C845 1.349 . S
C830 C828 1.327 . S
C830 C849 1.429 . S
C830 H854 0.950 . S
C831 C848 1.574 . S
C831 C850 1.368 . S
C831 H855 0.949 . S
H832 C836 0.949 . S
C833 C834 1.349 . S
C833 C835 1.327 . S
C833 H856 0.950 . S
C834 C833 1.349 . S
C834 C846 1.349 . S
C835 C833 1.327 . S
C835 C851 1.429 . S
C835 H857 0.950 . S
C836 H832 0.949 . S
C836 C844 1.574 . S
C836 C852 1.368 . S
H837 C845 0.950 . S
H838 C843 0.950 . S
H839 C844 0.949 . S
H840 C846 0.950 . S
H841 C847 0.950 . S
H842 C848 0.949 . S
C843 H838 0.950 . S
C843 C845 1.327 . S
C843 C849 1.429 . S
C844 C836 1.574 . S
C844 H839 0.949 . S
C844 C850 1.368 . S
C845 C829 1.349 . S
C845 H837 0.950 . S
C845 C843 1.327 . S
C846 C834 1.349 . S
C846 H840 0.950 . S
C846 C847 1.327 . S
C847 H841 0.950 . S
C847 C846 1.327 . S
C847 C851 1.429 . S
C848 C831 1.574 . S
C848 H842 0.949 . S
C848 C852 1.368 . S
C849 C830 1.429 . S
C849 C843 1.429 . S
C849 C850 1.523 . S
C850 C831 1.368 . S
C850 C844 1.368 . S
C850 C849 1.523 . S
C851 C835 1.429 . S
C851 C847 1.429 . S
C851 C852 1.523 . S
C852 C836 1.368 . S
C852 C848 1.368 . S
C852 C851 1.523 . S
H853 C828 0.950 . S
H854 C830 0.950 . S
H855 C831 0.949 . S
H856 C833 0.950 . S
H857 C835 0.950 . S
C858 C859 1.349 . S
C858 C860 1.327 . S
C858 H883 0.950 . S
C859 C858 1.349 . S
C859 C875 1.349 . S
C860 C858 1.327 . S
C860 C879 1.429 . S
C860 H884 0.950 . S
C861 C878 1.574 . S
C861 C880 1.368 . S
C861 H885 0.949 . S
H862 C866 0.949 . S
C863 C864 1.349 . S
C863 C865 1.327 . S
C863 H886 0.950 . S
C864 C863 1.349 . S
C864 C876 1.349 . S
C865 C863 1.327 . S
C865 C881 1.429 . S
C865 H887 0.950 . S
C866 H862 0.949 . S
C866 C874 1.574 . S
C866 C882 1.368 . S
H867 C875 0.950 . S
H868 C873 0.950 . S
H869 C874 0.949 . S
H870 C876 0.950 . S
H871 C877 0.950 . S
H872 C878 0.949 . S
C873 H868 0.950 . S
C873 C875 1.327 . S
C873 C879 1.429 . S
C874 C866 1.574 . S
C874 H869 0.949 . S
C874 C880 1.368 . S
C875 C859 1.349 . S
C875 H867 0.950 . S
C875 C873 1.327 . S
C876 C864 1.349 . S
C876 H870 0.950 . S
C876 C877 1.327 . S
C877 H871 0.950 . S
C877 C876 1.327 . S
C877 C881 1.429 . S
C878 C861 1.574 . S
C878 H872 0.949 . S
C878 C882 1.368 . S
C879 C860 1.429 . S
C879 C873 1.429 . S
C879 C880 1.523 . S
C880 C861 1.368 . S
C880 C874 1.368 . S
C880 C879 1.523 . S
C881 C865 1.429 . S
C881 C877 1.429 . S
C881 C882 1.523 . S
C882 C866 1.368 . S
C882 C878 1.368 . S
C882 C881 1.523 . S
H883 C858 0.950 . S
H884 C860 0.950 . S
H885 C861 0.949 . S
H886 C863 0.950 . S
H887 C865 0.950 . S
C169 C74 1.530 . S
C174 C106 1.508 . S
C204 C126 1.365 . S
C199 C85 1.376 . S
C234 C146 1.505 . S
C229 C52 1.523 . S
C264 C166 1.372 . S
C259 C63 1.386 1_655 S
C294 C107 1.514 1_565 S
C289 C30 1.496 . S
C319 C41 1.381 . S
C324 C127 1.365 . S
C349 C8 1.482 . S
C354 C147 1.505 . S
C379 C19 1.383 . S
C384 C167 1.374 . S
C414 C97 0.727 . S
C409 C62 0.723 . S
C444 C117 0.770 . S
C439 C73 0.774 . S
C474 C137 0.744 . S
C469 C84 0.744 . S
C499 C51 0.748 . S
C504 C157 0.745 . S
C529 C18 0.724 1_655 S
C534 C100 0.722 . S
C564 C120 0.769 1_545 S
C559 C29 0.769 . S
C594 C140 0.744 . S
C589 C40 0.744 . S
C619 C7 0.748 . S
C624 C160 0.752 . S
C649 C60 1.278 . S
C654 C90 1.451 . S
C679 C71 1.403 . S
C684 C110 1.515 . S
C714 C130 1.426 . S
C709 C82 1.231 . S
C744 C150 1.539 . S
C739 C49 1.424 . S
C769 C16 1.278 1_655 S
C774 C92 1.453 . S
C804 C112 1.514 . S
C799 C27 1.259 . S
C834 C132 1.426 . S
C829 C38 1.283 . S
C859 C5 1.278 . S
C864 C152 1.541 . S
