# Generated by pormake.
# Topology zzz, (3,6)-cn, num edge types: 1
# Building blocks:
#     Node 0, Type 0, BuildingBlock: OLANEW_clean_sbu_2, # of connection points: 3
#     Node 1, Type 0, BuildingBlock: OLANEW_clean_sbu_2, # of connection points: 3
#     Node 2, Type 0, BuildingBlock: OLANEW_clean_sbu_2, # of connection points: 3
#     Node 3, Type 0, BuildingBlock: OLANEW_clean_sbu_2, # of connection points: 3
#     Node 4, Type 0, BuildingBlock: OLANEW_clean_sbu_2, # of connection points: 3
#     Node 5, Type 0, BuildingBlock: OLANEW_clean_sbu_2, # of connection points: 3
#     Node 6, Type 0, BuildingBlock: OLANEW_clean_sbu_2, # of connection points: 3
#     Node 7, Type 0, BuildingBlock: OLANEW_clean_sbu_2, # of connection points: 3
#     Node 8, Type 1, BuildingBlock: PAMTOO_clean_sbu_0, # of connection points: 6
#     Node 9, Type 1, BuildingBlock: PAMTOO_clean_sbu_0, # of connection points: 6
#     Node 10, Type 1, BuildingBlock: PAMTOO_clean_sbu_0, # of connection points: 6
#     Node 11, Type 1, BuildingBlock: PAMTOO_clean_sbu_0, # of connection points: 6
#     Edge 12, Type (0, 1), BuildingBlock: CIFDUS_clean_linker_0, # of connection points: 2
#     Edge 13, Type (0, 1), BuildingBlock: CIFDUS_clean_linker_0, # of connection points: 2
#     Edge 14, Type (0, 1), BuildingBlock: CIFDUS_clean_linker_0, # of connection points: 2
#     Edge 15, Type (0, 1), BuildingBlock: CIFDUS_clean_linker_0, # of connection points: 2
#     Edge 16, Type (0, 1), BuildingBlock: CIFDUS_clean_linker_0, # of connection points: 2
#     Edge 17, Type (0, 1), BuildingBlock: CIFDUS_clean_linker_0, # of connection points: 2
#     Edge 18, Type (0, 1), BuildingBlock: CIFDUS_clean_linker_0, # of connection points: 2
#     Edge 19, Type (0, 1), BuildingBlock: CIFDUS_clean_linker_0, # of connection points: 2
#     Edge 20, Type (0, 1), BuildingBlock: CIFDUS_clean_linker_0, # of connection points: 2
#     Edge 21, Type (0, 1), BuildingBlock: CIFDUS_clean_linker_0, # of connection points: 2
#     Edge 22, Type (0, 1), BuildingBlock: CIFDUS_clean_linker_0, # of connection points: 2
#     Edge 23, Type (0, 1), BuildingBlock: CIFDUS_clean_linker_0, # of connection points: 2
#     Edge 24, Type (0, 1), BuildingBlock: CIFDUS_clean_linker_0, # of connection points: 2
#     Edge 25, Type (0, 1), BuildingBlock: CIFDUS_clean_linker_0, # of connection points: 2
#     Edge 26, Type (0, 1), BuildingBlock: CIFDUS_clean_linker_0, # of connection points: 2
#     Edge 27, Type (0, 1), BuildingBlock: CIFDUS_clean_linker_0, # of connection points: 2
#     Edge 28, Type (0, 1), BuildingBlock: CIFDUS_clean_linker_0, # of connection points: 2
#     Edge 29, Type (0, 1), BuildingBlock: CIFDUS_clean_linker_0, # of connection points: 2
#     Edge 30, Type (0, 1), BuildingBlock: CIFDUS_clean_linker_0, # of connection points: 2
#     Edge 31, Type (0, 1), BuildingBlock: CIFDUS_clean_linker_0, # of connection points: 2
#     Edge 32, Type (0, 1), BuildingBlock: CIFDUS_clean_linker_0, # of connection points: 2
#     Edge 33, Type (0, 1), BuildingBlock: CIFDUS_clean_linker_0, # of connection points: 2
#     Edge 34, Type (0, 1), BuildingBlock: CIFDUS_clean_linker_0, # of connection points: 2
#     Edge 35, Type (0, 1), BuildingBlock: CIFDUS_clean_linker_0, # of connection points: 2
# Relax obj value: 0.202
# Max RMSD: 0.241
# Mean RMSD: 0.134
data_MOF--net-zzz--node1-OLANEW_clean_sbu_2--node2-PAMTOO_clean_sbu_0--edge1-CIFDUS_clean_linker_0
_symmetry_space_group_name_H-M    P1
_symmetry_Int_Tables_number       1
_symmetry_cell_setting            triclinic
loop_
_symmetry_equiv_pos_as_xyz
'x, y, z'
_cell_length_a     55.435974
_cell_length_b     46.141413
_cell_length_c     15.505084
_cell_angle_alpha  91.648475
_cell_angle_beta   79.980346
_cell_angle_gamma 85.192543
loop_
_atom_site_label
_atom_site_type_symbol
_atom_site_fract_x
_atom_site_fract_y
_atom_site_fract_z
_atom_type_partial_charge
O0 O 0.77129 0.53418 0.4104 0.0
Cd1 Cd 0.72972 0.5579 0.45381 0.0
O2 O 0.78111 0.54671 0.536 0.0
Cd3 Cd 0.8021 0.55071 0.64217 0.0
O4 O 0.80025 0.57181 0.77147 0.0
C5 C 0.81742 0.57396 0.81526 0.0
O6 O 0.81276 0.58969 0.88922 0.0
C7 C 0.7872 0.53416 0.46035 0.0
C8 C 0.69945 0.53879 0.34195 0.0
O9 O 0.71138 0.56117 0.32483 0.0
O10 O 0.70163 0.52576 0.41246 0.0
O11 O 0.94408 0.73733 0.3304 0.0
Cd12 Cd 0.93658 0.69154 0.40024 0.0
O13 O 0.98123 0.72769 0.35744 0.0
Cd14 Cd 0.01661 0.73972 0.38299 0.0
O15 O 0.02765 0.77543 0.45673 0.0
C16 C 0.00908 0.79327 0.48513 0.0
O17 O 0.98747 0.78742 0.46904 0.0
C18 C 0.96577 0.74471 0.32695 0.0
C19 C 0.94762 0.64608 0.2751 0.0
O20 O 0.92529 0.65633 0.30217 0.0
O21 O 0.96463 0.65699 0.30831 0.0
O22 O 0.75662 0.94007 0.11915 0.0
Cd23 Cd 0.79366 0.91535 0.15727 0.0
O24 O 0.75283 0.96831 0.2376 0.0
Cd25 Cd 0.72989 0.99733 0.33775 0.0
O26 O 0.69417 0.00907 0.41856 0.0
C27 C 0.6776 0.9925 0.40838 0.0
O28 O 0.68312 0.97045 0.35077 0.0
C29 C 0.74472 0.96055 0.16946 0.0
C30 C 0.83571 0.93644 0.06571 0.0
O31 O 0.82505 0.91652 0.03182 0.0
O32 O 0.82652 0.94641 0.14357 0.0
O33 O 0.57698 0.70614 0.03015 0.0
Cd34 Cd 0.59423 0.74475 0.10455 0.0
O35 O 0.55763 0.697 0.16037 0.0
Cd36 Cd 0.5297 0.67972 0.25782 0.0
O37 O 0.50313 0.69692 0.38114 0.0
C38 C 0.50205 0.68615 0.45666 0.0
O39 O 0.5024 0.69797 0.38114 0.0
C40 C 0.56189 0.69152 0.07808 0.0
C41 C 0.58016 0.79906 0.04587 0.0
O42 O 0.60142 0.786 0.01588 0.0
O43 O 0.56568 0.78658 0.10393 0.0
O44 O 0.2553 0.45101 0.12683 0.0
Cd45 Cd 0.29799 0.43689 0.05879 0.0
O46 O 0.24391 0.4133 0.06007 0.0
Cd47 Cd 0.21524 0.38943 0.01879 0.0
O48 O 0.17943 0.39006 0.97963 0.0
C49 C 0.17547 0.40965 0.92666 0.0
O50 O 0.19314 0.42616 0.89835 0.0
C51 C 0.23838 0.43565 0.11203 0.0
C52 C 0.32911 0.45817 0.16351 0.0
O53 O 0.32377 0.47242 0.09857 0.0
O54 O 0.32014 0.43367 0.17748 0.0
O55 O 0.95784 0.29472 0.18605 0.0
Cd56 Cd 0.9682 0.33697 0.1001 0.0
O57 O 0.99771 0.28357 0.16706 0.0
Cd58 Cd 0.03003 0.25465 0.181 0.0
O59 O 0.04584 0.21122 0.13307 0.0
C60 C 0.04454 0.20698 0.05281 0.0
O61 O 0.03734 0.22924 0.00954 0.0
C62 C 0.976 0.27768 0.19862 0.0
C63 C 0.98938 0.3725 0.20727 0.0
O64 O 0.96654 0.37692 0.20236 0.0
O65 O 0.00246 0.35217 0.15797 0.0
O66 O 0.26319 0.96071 0.31347 0.0
Cd67 Cd 0.22813 0.98051 0.25199 0.0
O68 O 0.26544 0.00711 0.33978 0.0
Cd69 Cd 0.28739 0.04292 0.35877 0.0
O70 O 0.32296 0.04804 0.28012 0.0
C71 C 0.32347 0.0449 0.19814 0.0
O72 O 0.30278 0.04175 0.16989 0.0
C73 C 0.27427 0.98086 0.34245 0.0
C74 C 0.18565 0.9886 0.37724 0.0
O75 O 0.18888 0.96725 0.32054 0.0
O76 O 0.20245 0.00612 0.37505 0.0
O77 O 0.43557 0.29776 0.59629 0.0
Cd78 Cd 0.41505 0.25435 0.57043 0.0
O79 O 0.4099 0.31915 0.52054 0.0
Cd80 Cd 0.39737 0.35622 0.45017 0.0
O81 O 0.40902 0.38829 0.35529 0.0
C82 C 0.4323 0.38689 0.33448 0.0
O83 O 0.44551 0.36793 0.37274 0.0
C84 C 0.42723 0.3207 0.56416 0.0
C85 C 0.435 0.20449 0.63813 0.0
O86 O 0.44173 0.2103 0.55761 0.0
O87 O 0.41905 0.22243 0.68664 0.0
Dy88 Dy 0.99299 0.02225 0.69455 0.0
Dy89 Dy 0.0205 0.99004 0.84905 0.0
C90 C 0.0515 0.00794 0.66418 0.0
O91 O 0.00019 0.97564 0.65112 0.0
O92 O 0.00587 0.95416 0.77984 0.0
O93 O 0.98913 0.02866 0.55998 0.0
O94 O 0.96361 0.05217 0.66589 0.0
O95 O 0.98091 0.00243 0.90575 0.0
O96 O 0.96483 -0.00047 0.78013 0.0
O97 O 0.03049 0.03574 0.85034 0.0
O98 O 0.99823 0.05674 0.79147 0.0
O99 O 0.02339 0.98679 0.98589 0.0
O100 O 0.04601 0.95715 0.88803 0.0
C101 C 0.00223 0.95273 0.6984 0.0
O102 O 0.03286 0.02494 0.64703 0.0
O103 O 0.05009 0.99117 0.73174 0.0
C104 C 0.97257 0.07532 0.5302 0.0
C105 C 0.97577 0.12499 0.4281 0.0
C106 C 0.9771 0.1271 0.51786 0.0
C107 C 0.97563 0.10244 0.56846 0.0
C108 C 0.97111 0.07323 0.4409 0.0
C109 C 0.97276 0.09777 0.39025 0.0
C110 C 0.97097 0.04885 0.58119 0.0
C111 C 0.96246 0.99845 0.86542 0.0
C112 C 0.01684 0.05871 0.83284 0.0
C113 C 0.03111 0.93809 0.0234 0.0
C114 C 0.019 0.88718 0.1118 0.0
C115 C 0.0028 0.90117 0.06233 0.0
C116 C 0.00883 0.92635 0.01842 0.0
C117 C 0.04711 0.92465 0.07394 0.0
C118 C 0.04112 0.89942 0.11784 0.0
C119 C 0.03839 0.96312 0.97145 0.0
H120 H 0.97969 0.14772 0.54858 0.0
H121 H 0.97698 0.10458 0.63716 0.0
H122 H 0.96871 0.05252 0.41019 0.0
H123 H 0.97143 0.0955 0.32155 0.0
H124 H 0.9858 0.89215 0.05517 0.0
H125 H 0.99634 0.93631 0.97896 0.0
H126 H 0.06443 0.93338 0.07824 0.0
H127 H 0.05387 0.8894 0.15612 0.0
Dy128 Dy 0.48814 0.97775 0.74935 0.0
Dy129 Dy 0.51665 0.01218 0.8858 0.0
C130 C 0.48845 0.04747 0.755 0.0
O131 O 0.52835 0.96867 0.69743 0.0
O132 O 0.54 0.01061 0.75346 0.0
O133 O 0.48281 0.9666 0.61816 0.0
O134 O 0.4615 0.94772 0.7297 0.0
O135 O 0.53108 0.9655 0.87972 0.0
O136 O 0.49641 0.94672 0.85077 0.0
O137 O 0.47979 0.00385 0.95959 0.0
O138 O 0.45878 0.00307 0.84516 0.0
O139 O 0.52283 0.01939 0.01792 0.0
O140 O 0.54312 0.04178 0.912 0.0
C141 C 0.54421 0.98829 0.69704 0.0
O142 O 0.48975 0.02347 0.70581 0.0
O143 O 0.49351 0.04728 0.83479 0.0
C144 C 0.442 0.95736 0.60935 0.0
C145 C 0.39732 0.96874 0.54758 0.0
C146 C 0.41034 0.99178 0.57128 0.0
C147 C 0.43242 0.98614 0.60228 0.0
C148 C 0.42931 0.93434 0.58491 0.0
C149 C 0.40717 0.93994 0.55436 0.0
C150 C 0.46461 0.95103 0.64539 0.0
C151 C 0.51717 0.94391 0.88066 0.0
C152 C 0.4591 0.00654 0.9292 0.0
C153 C 0.56485 0.0243 0.02088 0.0
C154 C 0.61095 0.00309 0.05927 0.0
C155 C 0.59083 0.98611 0.07364 0.0
C156 C 0.56811 0.9965 0.05424 0.0
C157 C 0.58466 0.04168 0.0089 0.0
C158 C 0.60752 0.03117 0.02772 0.0
C159 C 0.54149 0.03451 0.99332 0.0
H160 H 0.40348 0.01421 0.56584 0.0
H161 H 0.4419 0.00424 0.62133 0.0
H162 H 0.43636 0.91199 0.59068 0.0
H163 H 0.39748 0.92168 0.53808 0.0
H164 H 0.59267 0.96461 0.09935 0.0
H165 H 0.55324 0.98246 0.06401 0.0
H166 H 0.58263 0.06311 0.98286 0.0
H167 H 0.62267 0.04472 0.01499 0.0
Dy168 Dy 0.52917 0.4889 0.80041 0.0
Dy169 Dy 0.47693 0.5239 0.76975 0.0
C170 C 0.47868 0.48241 0.92878 0.0
O171 O 0.51638 0.46149 0.69819 0.0
O172 O 0.47527 0.47766 0.7286 0.0
O173 O 0.55011 0.46394 0.88186 0.0
O174 O 0.56774 0.47586 0.75349 0.0
O175 O 0.50617 0.52286 0.65097 0.0
O176 O 0.53717 0.52819 0.72372 0.0
O177 O 0.49559 0.55693 0.83595 0.0
O178 O 0.52049 0.52543 0.90219 0.0
O179 O 0.45901 0.55249 0.68709 0.0
O180 O 0.43774 0.5353 0.80137 0.0
C181 C 0.49326 0.4583 0.69315 0.0
O182 O 0.49884 0.46862 0.88376 0.0
O183 O 0.46947 0.50751 0.90514 0.0
C184 C 0.59028 0.47676 0.86936 0.0
C185 C 0.62322 0.49824 0.96954 0.0
C186 C 0.62358 0.46816 0.95088 0.0
C187 C 0.60721 0.45752 0.90121 0.0
C188 C 0.59031 0.50685 0.88552 0.0
C189 C 0.60673 0.51752 0.93488 0.0
C190 C 0.57087 0.46532 0.82848 0.0
C191 C 0.52627 0.53493 0.65783 0.0
C192 C 0.50997 0.5516 0.89389 0.0
C193 C 0.421 0.53613 0.67192 0.0
C194 C 0.39459 0.51157 0.55231 0.0
C195 C 0.39677 0.54179 0.55614 0.0
C196 C 0.41001 0.55393 0.61519 0.0
C197 C 0.41836 0.50617 0.66959 0.0
C198 C 0.40548 0.49402 0.61021 0.0
C199 C 0.4371 0.54799 0.72763 0.0
H200 H 0.63626 0.45283 0.97595 0.0
H201 H 0.60726 0.43423 0.88996 0.0
H202 H 0.57707 0.522 0.86251 0.0
H203 H 0.60581 0.54076 0.94897 0.0
H204 H 0.3883 0.55607 0.51353 0.0
H205 H 0.41197 0.5771 0.61566 0.0
H206 H 0.42672 0.49201 0.71269 0.0
H207 H 0.40458 0.4707 0.60844 0.0
Dy208 Dy 0.01684 0.51305 0.67396 0.0
Dy209 Dy 0.99081 0.4624 0.83377 0.0
C210 C 0.00326 0.44609 0.65511 0.0
O211 O 0.9768 0.52658 0.69974 0.0
O212 O 0.96006 0.48965 0.78714 0.0
O213 O 0.02111 0.50939 0.53324 0.0
O214 O 0.03809 0.54328 0.59696 0.0
O215 O 0.98955 0.50851 0.89034 0.0
O216 O 0.01065 0.54071 0.79534 0.0
O217 O 0.03236 0.45555 0.81468 0.0
O218 O 0.04858 0.49254 0.72718 0.0
O219 O 0.99162 0.44898 0.96563 0.0
O220 O 0.96469 0.4335 0.89365 0.0
C221 C 0.9582 0.51364 0.74249 0.0
O222 O 0.00856 0.46957 0.6906 0.0
O223 O 0.99329 0.43068 0.71682 0.0
C224 C 0.06046 0.52063 0.46637 0.0
C225 C 0.10684 0.50473 0.36151 0.0
C226 C 0.09837 0.48882 0.4351 0.0
C227 C 0.07541 0.49671 0.48701 0.0
C228 C 0.06866 0.53651 0.39298 0.0
C229 C 0.09169 0.52864 0.34088 0.0
C230 C 0.03673 0.52941 0.52313 0.0
C231 C 0.99821 0.53409 0.87189 0.0
C232 C 0.05085 0.46996 0.7768 0.0
C233 C 0.95206 0.44299 0.04487 0.0
C234 C 0.9102 0.45783 0.17471 0.0
C235 C 0.92478 0.47951 0.1386 0.0
C236 C 0.94549 0.47216 0.07387 0.0
C237 C 0.93826 0.42121 0.0836 0.0
C238 C 0.91752 0.42853 0.14812 0.0
C239 C 0.9718 0.43532 0.96934 0.0
H240 H 0.10971 0.47061 0.45373 0.0
H241 H 0.06941 0.48431 0.54388 0.0
H242 H 0.05733 0.55507 0.37629 0.0
H243 H 0.09758 0.54117 0.28425 0.0
H244 H 0.91945 0.50229 0.15689 0.0
H245 H 0.95582 0.48933 0.0442 0.0
H246 H 0.94303 0.3986 0.06178 0.0
H247 H 0.90675 0.41136 0.17532 0.0
H248 H 0.13944 0.98883 0.34626 0.0
H249 H 0.18135 -0.00067 0.55258 0.0
H250 H 0.14329 0.0059 0.66159 0.0
H251 H 0.09792 0.00786 0.69756 0.0
H252 H 0.05625 0.00285 0.48822 0.0
H253 H 0.09429 0.99514 0.38045 0.0
C254 C 0.14011 0.99254 0.4152 0.0
C255 C 0.1629 0.99324 0.44221 0.0
C256 C 0.11824 0.9974 0.47648 0.0
C257 C 0.16382 -0.00137 0.53102 0.0
C258 C 0.14214 0.00236 0.59308 0.0
C259 C 0.09731 0.00525 0.62823 0.0
C260 C 0.07453 0.00577 0.60034 0.0
C261 C 0.11924 0.00169 0.56655 0.0
C262 C 0.07372 0.00269 0.51062 0.0
C263 C 0.0954 0.99813 0.4492 0.0
H264 H 0.45832 0.15611 0.54655 0.0
H265 H 0.43354 0.19235 0.80987 0.0
H266 H 0.44881 0.14733 0.86933 0.0
H267 H 0.46828 0.09725 0.84659 0.0
H268 H 0.49092 0.06011 0.58334 0.0
H269 H 0.47741 0.10589 0.5238 0.0
C270 C 0.45641 0.15421 0.61693 0.0
C271 C 0.4449 0.17754 0.67372 0.0
C272 C 0.46477 0.12807 0.65068 0.0
C273 C 0.4423 0.17466 0.76477 0.0
C274 C 0.45103 0.14894 0.79884 0.0
C275 C 0.4704 0.09926 0.77619 0.0
C276 C 0.48066 0.07539 0.71948 0.0
C277 C 0.46217 0.12545 0.74243 0.0
C278 C 0.483 0.07816 0.62842 0.0
C279 C 0.47532 0.10434 0.59429 0.0
H280 H 0.33325 0.4408 0.32589 0.0
H281 H 0.35848 0.50294 0.1355 0.0
H282 H 0.38153 0.52452 0.23809 0.0
H283 H 0.39371 0.52631 0.38313 0.0
H284 H 0.36552 0.46631 0.57654 0.0
H285 H 0.34482 0.44306 0.47084 0.0
C286 C 0.34394 0.45893 0.30654 0.0
C287 C 0.34417 0.47024 0.22326 0.0
C288 C 0.35663 0.47164 0.36642 0.0
C289 C 0.35792 0.49391 0.19946 0.0
C290 C 0.37108 0.50628 0.2581 0.0
C291 C 0.38278 0.50842 0.40271 0.0
C292 C 0.38131 0.49814 0.48797 0.0
C293 C 0.37033 0.49552 0.34216 0.0
C294 C 0.3674 0.47448 0.51117 0.0
C295 C 0.35538 0.46122 0.45087 0.0
H296 H 0.97132 0.42384 0.2941 0.0
H297 H 0.02972 0.35474 0.27605 0.0
H298 H 0.04096 0.37355 0.41085 0.0
H299 H 0.03024 0.40538 0.54453 0.0
H300 H 0.97272 0.47514 0.56204 0.0
H301 H 0.96506 0.46057 0.4164 0.0
C302 C 0.98682 0.4133 0.31883 0.0
C303 C 0.99941 0.3877 0.2762 0.0
C304 C 0.99312 0.42416 0.39661 0.0
C305 C 0.01969 0.37444 0.30793 0.0
C306 C 0.02602 0.38504 0.38537 0.0
C307 C 0.01644 0.41767 0.51513 0.0
C308 C 0.00191 0.44103 0.56276 0.0
C309 C 0.01228 0.40921 0.43184 0.0
C310 C 0.98408 0.45707 0.52538 0.0
C311 C 0.97966 0.44867 0.44265 0.0
H312 H 0.8692 0.96691 0.12981 0.0
H313 H 0.8523 0.93051 0.89002 0.0
H314 H 0.8894 0.94786 0.80687 0.0
H315 H 0.92702 0.97211 0.80242 0.0
H316 H 0.94561 0.0063 0.04206 0.0
H317 H 0.90739 0.99111 0.12527 0.0
C318 C 0.87361 0.96292 0.05931 0.0
C319 C 0.85803 0.94748 0.01609 0.0
C320 C 0.89523 0.97252 0.01199 0.0
C321 C 0.86405 0.94223 0.92486 0.0
C322 C 0.88523 0.95219 0.87721 0.0
C323 C 0.92263 0.97652 0.87277 0.0
C324 C 0.93901 0.9905 0.91596 0.0
C325 C 0.90099 0.9672 0.92014 0.0
C326 C 0.93325 0.99559 0.00731 0.0
C327 C 0.91143 0.98691 0.05487 0.0
H328 H 0.53362 0.82141 0.04229 0.0
H329 H 0.60937 0.84022 0.9759 0.0
H330 H 0.59649 0.88733 0.92183 0.0
H331 H 0.56367 0.92283 0.89173 0.0
H332 H 0.48818 0.90227 0.94813 0.0
H333 H 0.50096 0.85613 0.00764 0.0
C334 C 0.54728 0.8359 0.0163 0.0
C335 C 0.57237 0.82751 0.01351 0.0
C336 C 0.53978 0.86255 0.98328 0.0
C337 C 0.58993 0.84624 0.97854 0.0
C338 C 0.58258 0.87316 0.94775 0.0
C339 C 0.55003 0.90826 0.91729 0.0
C340 C 0.52502 0.91596 0.91589 0.0
C341 C 0.55756 0.88149 0.94955 0.0
C342 C 0.50756 0.89676 0.94822 0.0
C343 C 0.51484 0.87042 0.98244 0.0
H344 H 0.6918 0.56106 0.18703 0.0
H345 H 0.67228 0.49203 0.36101 0.0
H346 H 0.6474 0.4733 0.26056 0.0
H347 H 0.63105 0.47648 0.12384 0.0
H348 H 0.65034 0.54529 0.9493 0.0
H349 H 0.67534 0.56425 0.04976 0.0
C350 C 0.68208 0.54194 0.20306 0.0
C351 C 0.68395 0.52797 0.28147 0.0
C352 C 0.66778 0.53123 0.1449 0.0
C353 C 0.6712 0.50323 0.30117 0.0
C354 C 0.65697 0.49245 0.2437 0.0
C355 C 0.64097 0.49542 0.10727 0.0
C356 C 0.63899 0.50934 0.02898 0.0
C357 C 0.6552 0.50621 0.16533 0.0
C358 C 0.6515 0.53426 0.00938 0.0
C359 C 0.66583 0.54506 0.06666 0.0
H360 H 0.98952 0.63679 0.15556 0.0
H361 H 0.91901 0.60382 0.23865 0.0
H362 H 0.92882 0.56567 0.12183 0.0
H363 H 0.95715 0.54235 0.99502 0.0
H364 H 0.02647 0.57727 0.90527 0.0
H365 H 0.01733 0.61439 0.02535 0.0
C366 C 0.97639 0.62113 0.14822 0.0
C367 C 0.95368 0.62286 0.20568 0.0
C368 C 0.98187 0.59986 0.07954 0.0
C369 C 0.93661 0.60283 0.19493 0.0
C370 C 0.9422 0.58106 0.1283 0.0
C371 C 0.97031 0.55799 0.00218 0.0
C372 C 0.99254 0.55701 0.94226 0.0
C373 C 0.96473 0.57947 0.07011 0.0
C374 C 0.00922 0.57773 0.95076 0.0
C375 C 0.00404 0.59883 0.01946 0.0
H376 H 0.99622 0.22285 0.15428 0.0
H377 H 0.94605 0.274 0.35569 0.0
H378 H 0.94145 0.23122 0.44542 0.0
H379 H 0.95285 0.1795 0.46794 0.0
H380 H 0.00316 0.12851 0.26518 0.0
H381 H 0.00665 0.17087 0.17465 0.0
C382 C 0.98461 0.22458 0.21836 0.0
C383 C 0.97199 0.25149 0.2496 0.0
C384 C 0.98212 0.19995 0.26918 0.0
C385 C 0.95605 0.25342 0.33085 0.0
C386 C 0.95352 0.22904 0.38217 0.0
C387 C 0.96474 0.17777 0.40425 0.0
C388 C 0.97781 0.15093 0.37359 0.0
C389 C 0.9667 0.20226 0.35241 0.0
C390 C 0.99278 0.14886 0.29015 0.0
C391 C 0.99491 0.17311 0.23848 0.0
H392 H 0.29126 0.00861 0.47281 0.0
H393 H 0.31008 0.93751 0.27991 0.0
H394 H 0.35002 0.92759 0.32536 0.0
H395 H 0.37989 0.94002 0.41777 0.0
H396 H 0.36038 0.01081 0.61239 0.0
H397 H 0.3208 0.02068 0.56602 0.0
C398 C 0.30428 0.99126 0.43979 0.0
C399 C 0.29799 0.97419 0.37199 0.0
C400 C 0.32716 0.98581 0.46601 0.0
C401 C 0.31459 0.951 0.33214 0.0
C402 C 0.33744 0.94542 0.35782 0.0
C403 C 0.36691 0.95745 0.45061 0.0
C404 C 0.37325 0.97471 0.51828 0.0
C405 C 0.34396 0.96278 0.42449 0.0
C406 C 0.35626 0.99748 0.55912 0.0
C407 C 0.3335 0.00301 0.53317 0.0
H408 H 0.47455 0.33091 0.57417 0.0
H409 H 0.40136 0.37345 0.59353 0.0
H410 H 0.41618 0.42006 0.62409 0.0
H411 H 0.44899 0.44827 0.65419 0.0
H412 H 0.52208 0.40675 0.64519 0.0
H413 H 0.50843 0.36036 0.60002 0.0
C414 C 0.46197 0.35051 0.58441 0.0
C415 C 0.43699 0.34887 0.57938 0.0
C416 C 0.4706 0.3774 0.60373 0.0
C417 C 0.42081 0.37429 0.59357 0.0
C418 C 0.42923 0.40096 0.61203 0.0
C419 C 0.46206 0.42922 0.64205 0.0
C420 C 0.48646 0.43104 0.65416 0.0
C421 C 0.45398 0.40271 0.61815 0.0
C422 C 0.50317 0.40604 0.63653 0.0
C423 C 0.49532 0.37945 0.61124 0.0
H424 H 0.21605 0.49022 0.15111 0.0
H425 H 0.20335 0.39959 0.17291 0.0
H426 H 0.16108 0.41297 0.24607 0.0
H427 H 0.12818 0.45036 0.30898 0.0
H428 H 0.14126 0.54111 0.29418 0.0
H429 H 0.18277 0.52782 0.21286 0.0
C430 C 0.20395 0.47345 0.17158 0.0
C431 C 0.2126 0.44396 0.15447 0.0
C432 C 0.17975 0.48134 0.21522 0.0
C433 C 0.19684 0.42243 0.18204 0.0
C434 C 0.17275 0.43008 0.22502 0.0
C435 C 0.14014 0.46724 0.28829 0.0
C436 C 0.13162 0.49668 0.30805 0.0
C437 C 0.16407 0.45944 0.24247 0.0
C438 C 0.14723 0.51829 0.2792 0.0
C439 C 0.17105 0.5107 0.2332 0.0
H440 H 0.01056 0.75977 0.24715 0.0
H441 H 0.93494 0.7939 0.32935 0.0
H442 H 0.94481 0.84127 0.27345 0.0
H443 H 0.97481 0.87284 0.19949 0.0
H444 H 0.05044 0.83856 0.11704 0.0
H445 H 0.04089 0.79183 0.17804 0.0
C446 C 0.99637 0.77773 0.25471 0.0
C447 C 0.97214 0.7734 0.29365 0.0
C448 C 0.00219 0.80497 0.22273 0.0
C449 C 0.95375 0.79664 0.29961 0.0
C450 C 0.95939 0.82377 0.26797 0.0
C451 C 0.98919 0.85512 0.19462 0.0
C452 C 0.0133 0.85927 0.15349 0.0
C453 C 0.98352 0.82815 0.22895 0.0
C454 C 0.03179 0.83617 0.14915 0.0
C455 C 0.0263 0.80932 0.18343 0.0
H456 H 0.71125 0.93312 0.09815 0.0
H457 H 0.72491 0.01703 0.19933 0.0
H458 H 0.6844 0.03744 0.17731 0.0
H459 H 0.64494 0.03124 0.12988 0.0
H460 H 0.63249 0.9477 0.02116 0.0
H461 H 0.67255 0.92737 0.04599 0.0
C462 C 0.70537 0.95591 0.115 0.0
C463 C 0.72074 0.97336 0.15244 0.0
C464 C 0.68222 0.96755 0.10104 0.0
C465 C 0.71302 0.00289 0.17341 0.0
C466 C 0.68996 0.01464 0.15997 0.0
C467 C 0.65107 0.00866 0.11085 0.0
C468 C 0.63556 0.99103 0.07426 0.0
C469 C 0.67435 0.99712 0.12417 0.0
C470 C 0.64376 0.96169 0.05103 0.0
C471 C 0.66679 0.95005 0.06452 0.0
H472 H 0.5503 0.63933 0.14142 0.0
H473 H 0.54564 0.69407 0.92315 0.0
H474 H 0.52651 0.65655 0.851 0.0
H475 H 0.51331 0.60723 0.84629 0.0
H476 H 0.52218 0.55036 0.05661 0.0
H477 H 0.53702 0.58974 0.13657 0.0
C478 C 0.54472 0.64312 0.07872 0.0
C479 C 0.54912 0.6694 0.03781 0.0
C480 C 0.53452 0.62107 0.03635 0.0
C481 C 0.5424 0.67392 0.95566 0.0
C482 C 0.53145 0.65253 0.91451 0.0
C483 C 0.51821 0.60359 0.9101 0.0
C484 C 0.51656 0.57606 0.94582 0.0
C485 C 0.52771 0.62589 0.95373 0.0
C486 C 0.5233 0.57145 0.02795 0.0
C487 C 0.53183 0.59391 0.07352 0.0
H488 H 0.79931 0.48812 0.34661 0.0
H489 H 0.83111 0.54908 0.50002 0.0
H490 H 0.87248 0.52926 0.42972 0.0
H491 H 0.89939 0.49734 0.31426 0.0
H492 H 0.86661 0.43704 0.16129 0.0
H493 H 0.8259 0.45371 0.24212 0.0
C494 C 0.81531 0.49686 0.36537 0.0
C495 C 0.81219 0.52003 0.42817 0.0
C496 C 0.83888 0.48558 0.32424 0.0
C497 C 0.83304 0.53099 0.45261 0.0
C498 C 0.85669 0.51985 0.41174 0.0
C499 C 0.88331 0.48773 0.29935 0.0
C500 C 0.88603 0.46602 0.23174 0.0
C501 C 0.8598 0.49757 0.34595 0.0
C502 C 0.86509 0.45353 0.2136 0.0
C503 C 0.84176 0.4632 0.25934 0.0
H504 H 0.02769 0.19099 0.90735 0.0
H505 H 0.06242 0.1559 0.11491 0.0
H506 H 0.0582 0.10636 0.06186 0.0
H507 H 0.04184 0.07331 0.96232 0.0
H508 H 0.00458 0.10977 0.76239 0.0
H509 H 0.01253 0.15855 0.80703 0.0
C510 C 0.03472 0.17255 0.94036 0.0
C511 C 0.04539 0.17711 0.01483 0.0
C512 C 0.03147 0.14438 0.9115 0.0
C513 C 0.05418 0.15293 0.05721 0.0
C514 C 0.05165 0.12464 0.02722 0.0
C515 C 0.03562 0.09195 0.92831 0.0
C516 C 0.02248 0.08796 0.85963 0.0
C517 C 0.03986 0.12013 0.95543 0.0
C518 C 0.01445 0.11228 0.81623 0.0
C519 C 0.01908 0.14019 0.84138 0.0
H520 H 0.36937 0.03722 0.23766 0.0
H521 H 0.33048 0.04313 0.01963 0.0
H522 H 0.36908 0.03201 0.91706 0.0
H523 H 0.41356 0.01882 0.88955 0.0
H524 H 0.45236 0.0122 0.10784 0.0
H525 H 0.41404 0.02528 0.20992 0.0
C526 C 0.36937 0.03641 0.16767 0.0
C527 C 0.3471 0.041 0.13635 0.0
C528 C 0.39156 0.0296 0.10909 0.0
C529 C 0.34738 0.03965 0.04548 0.0
C530 C 0.36943 0.03321 0.98674 0.0
C531 C 0.41367 0.02021 0.95943 0.0
C532 C 0.4358 0.01437 0.99088 0.0
C533 C 0.39157 0.02777 0.01788 0.0
C534 C 0.43559 0.01648 0.0817 0.0
C535 C 0.41368 0.02401 0.14024 0.0
H536 H 0.41153 0.43111 0.24988 0.0
H537 H 0.48058 0.38152 0.26012 0.0
H538 H 0.50085 0.40716 0.13711 0.0
H539 H 0.49892 0.44204 0.02329 0.0
H540 H 0.43066 0.49284 0.01186 0.0
H541 H 0.41017 0.46831 0.13871 0.0
C542 C 0.43103 0.42602 0.22532 0.0
C543 C 0.44446 0.40423 0.2637 0.0
C544 C 0.44271 0.44096 0.15426 0.0
C545 C 0.46976 0.39811 0.23176 0.0
C546 C 0.4814 0.41271 0.1612 0.0
C547 C 0.47954 0.44779 0.04845 0.0
C548 C 0.46626 0.46897 0.00775 0.0
C549 C 0.46801 0.43388 0.12138 0.0
C550 C 0.44128 0.47655 0.0421 0.0
C551 C 0.42955 0.46252 0.11451 0.0
H552 H 0.16253 0.448 0.81014 0.0
H553 H 0.13328 0.38435 0.98885 0.0
H554 H 0.09221 0.39665 0.9558 0.0
H555 H 0.06439 0.42708 0.88137 0.0
H556 H 0.0941 0.49083 0.70312 0.0
H557 H 0.1352 0.47674 0.73102 0.0
C558 C 0.14722 0.43667 0.8416 0.0
C559 C 0.15095 0.41541 0.90221 0.0
C560 C 0.12369 0.44395 0.82277 0.0
C561 C 0.13091 0.40084 0.94194 0.0
C562 C 0.10741 0.40791 0.92327 0.0
C563 C 0.07983 0.43783 0.84819 0.0
C564 C 0.07598 0.4602 0.79085 0.0
C565 C 0.10354 0.4297 0.86459 0.0
C566 C 0.09634 0.47373 0.74826 0.0
C567 C 0.11993 0.46568 0.76402 0.0
H568 H 0.98008 0.8429 0.48824 0.0
H569 H 0.04342 0.80513 0.58531 0.0
H570 H 0.04595 0.85104 0.66575 0.0
H571 H 0.03012 0.90222 0.70671 0.0
H572 H 0.9689 0.94034 0.59828 0.0
H573 H 0.96528 0.8938 0.52448 0.0
C574 C 0.99437 0.84469 0.52739 0.0
C575 C 0.01141 0.82078 0.53181 0.0
C576 C 0.99597 0.87112 0.57146 0.0
C577 C 0.03013 0.82341 0.58116 0.0
C578 C 0.03151 0.84955 0.62726 0.0
C579 C 0.01591 0.90009 0.66744 0.0
C580 C -0.00034 0.92433 0.65803 0.0
C581 C 0.0145 0.87355 0.62287 0.0
C582 C 0.98156 0.92178 0.60602 0.0
C583 C 0.97951 0.89527 0.56394 0.0
H584 H 0.64037 0.95742 0.41494 0.0
H585 H 0.65944 0.03745 0.52623 0.0
H586 H 0.6195 0.04346 0.62308 0.0
H587 H 0.58004 0.02526 0.67953 0.0
H588 H 0.56088 0.9448 0.57118 0.0
H589 H 0.60015 0.93973 0.46945 0.0
C590 C 0.63576 0.97626 0.46007 0.0
C591 C 0.65293 0.99688 0.46367 0.0
C592 C 0.61285 0.97944 0.51623 0.0
C593 C 0.64663 0.02118 0.52243 0.0
C594 C 0.6238 0.02463 0.57787 0.0
C595 C 0.58434 0.00659 0.63361 0.0
C596 C 0.56755 0.98536 0.63329 0.0
C597 C 0.60692 0.00375 0.57592 0.0
C598 C 0.57348 0.96142 0.57301 0.0
C599 C 0.59593 0.95851 0.51484 0.0
H600 H 0.5263 0.6669 0.58092 0.0
H601 H 0.49828 0.63789 0.35409 0.0
H602 H 0.50589 0.58706 0.39149 0.0
H603 H 0.51511 0.55173 0.50128 0.0
H604 H 0.54616 0.58112 0.72147 0.0
H605 H 0.54325 0.63086 0.67342 0.0
C606 C 0.52251 0.64934 0.53855 0.0
C607 C 0.51167 0.65591 0.46551 0.0
C608 C 0.52729 0.62031 0.55972 0.0
C609 C 0.50681 0.63319 0.41051 0.0
C610 C 0.51099 0.60418 0.43226 0.0
C611 C 0.52184 0.56893 0.53724 0.0
C612 C 0.53039 0.56284 0.61563 0.0
C613 C 0.52045 0.59756 0.50846 0.0
C614 C 0.53935 0.58522 0.66117 0.0
C615 C 0.53756 0.61376 0.63407 0.0
H616 H 0.86009 0.59539 0.83093 0.0
H617 H 0.83037 0.52032 0.73259 0.0
H618 H 0.8717 0.49461 0.69913 0.0
H619 H 0.9162 0.49265 0.70761 0.0
H620 H 0.94556 0.56946 0.79669 0.0
H621 H 0.90451 0.5954 0.82444 0.0
C622 C 0.86275 0.5735 0.80136 0.0
C623 C 0.84235 0.55964 0.78469 0.0
C624 C 0.88646 0.55915 0.78137 0.0
C625 C 0.84592 0.53144 0.74543 0.0
C626 C 0.86949 0.51669 0.72695 0.0
C627 C 0.91348 0.51514 0.73221 0.0
C628 C 0.93365 0.52924 0.75043 0.0
C629 C 0.88986 0.53016 0.74608 0.0
C630 C 0.93019 0.55839 0.7817 0.0
C631 C 0.90677 0.57315 0.79791 0.0
loop_
_geom_bond_atom_site_label_1
_geom_bond_atom_site_label_2
_geom_bond_distance
_geom_bond_site_symmetry_2
_ccdc_geom_bond_type
O0 Cd1 2.300 . S
O0 C7 1.275 . S
Cd1 O0 2.300 . S
Cd1 O9 2.381 . S
Cd1 O10 2.378 . S
O2 Cd3 2.385 . S
O2 C7 1.255 . S
Cd3 O2 2.385 . S
Cd3 O4 2.317 . S
O4 Cd3 2.317 . S
O4 C5 1.232 . S
C5 O4 1.232 . S
C5 O6 1.218 . S
O6 C5 1.218 . S
C7 O0 1.275 . S
C7 O2 1.255 . S
C8 O9 1.258 . S
C8 O10 1.256 . S
O9 Cd1 2.381 . S
O9 C8 1.258 . S
O10 Cd1 2.378 . S
O10 C8 1.256 . S
O11 Cd12 2.300 1_655 S
O11 C18 1.271 1_655 S
Cd12 O11 2.300 1_455 S
Cd12 O20 2.381 1_455 S
Cd12 O21 2.378 . S
O13 Cd14 2.385 . S
O13 C18 1.262 . S
Cd14 O13 2.385 . S
Cd14 O15 2.317 . S
O15 Cd14 2.317 . S
O15 C16 1.232 . S
C16 O15 1.232 . S
C16 O17 1.218 . S
O17 C16 1.218 . S
C18 O11 1.271 1_455 S
C18 O13 1.262 . S
C19 O20 1.258 . S
C19 O21 1.256 1_655 S
O20 Cd12 2.381 1_655 S
O20 C19 1.258 . S
O21 Cd12 2.378 . S
O21 C19 1.256 1_455 S
O22 Cd23 2.300 1_565 S
O22 C29 1.275 1_565 S
Cd23 O22 2.300 1_545 S
Cd23 O31 2.381 1_545 S
Cd23 O32 2.378 . S
O24 Cd25 2.385 . S
O24 C29 1.255 . S
Cd25 O24 2.385 . S
Cd25 O26 2.317 . S
O26 Cd25 2.317 . S
O26 C27 1.232 . S
C27 O26 1.232 . S
C27 O28 1.218 . S
O28 C27 1.218 . S
C29 O22 1.275 1_545 S
C29 O24 1.255 . S
C30 O31 1.258 1_545 S
C30 O32 1.256 . S
O31 Cd23 2.381 1_565 S
O31 C30 1.258 1_565 S
O32 Cd23 2.378 . S
O32 C30 1.256 . S
O33 Cd34 2.300 . S
O33 C40 1.275 . S
Cd34 O33 2.300 . S
Cd34 O42 2.381 . S
Cd34 O43 2.378 . S
O35 Cd36 2.385 . S
O35 C40 1.255 . S
Cd36 O35 2.385 . S
Cd36 O37 2.317 . S
O37 Cd36 2.317 . S
O37 C38 1.232 . S
C38 O37 1.232 . S
C38 O39 1.218 . S
O39 C38 1.218 . S
C40 O33 1.275 . S
C40 O35 1.255 . S
C41 O42 1.258 . S
C41 O43 1.256 . S
O42 Cd34 2.381 . S
O42 C41 1.258 . S
O43 Cd34 2.378 . S
O43 C41 1.256 . S
O44 Cd45 2.300 . S
O44 C51 1.275 . S
Cd45 O44 2.300 . S
Cd45 O53 2.381 . S
Cd45 O54 2.378 . S
O46 Cd47 2.385 1_554 S
O46 C51 1.255 . S
Cd47 O46 2.385 1_556 S
Cd47 O48 2.317 . S
O48 Cd47 2.317 . S
O48 C49 1.232 . S
C49 O48 1.232 . S
C49 O50 1.218 . S
O50 C49 1.218 . S
C51 O44 1.275 . S
C51 O46 1.255 . S
C52 O53 1.258 . S
C52 O54 1.256 . S
O53 Cd45 2.381 . S
O53 C52 1.258 . S
O54 Cd45 2.378 . S
O54 C52 1.256 . S
O55 Cd56 2.300 . S
O55 C62 1.275 . S
Cd56 O55 2.300 . S
Cd56 O64 2.375 1_455 S
Cd56 O65 2.378 . S
O57 Cd58 2.385 . S
O57 C62 1.255 . S
Cd58 O57 2.385 . S
Cd58 O59 2.317 1_554 S
O59 Cd58 2.317 1_556 S
O59 C60 1.232 . S
C60 O59 1.232 . S
C60 O61 1.218 . S
O61 C60 1.218 . S
C62 O55 1.275 . S
C62 O57 1.255 . S
C63 O64 1.250 1_455 S
C63 O65 1.256 . S
O64 Cd56 2.375 1_655 S
O64 C63 1.250 1_655 S
O65 Cd56 2.378 . S
O65 C63 1.256 . S
O66 Cd67 2.300 1_565 S
O66 C73 1.275 1_565 S
Cd67 O66 2.300 1_545 S
Cd67 O75 2.381 1_545 S
Cd67 O76 2.378 . S
O68 Cd69 2.385 . S
O68 C73 1.255 . S
Cd69 O68 2.385 . S
Cd69 O70 2.317 . S
O70 Cd69 2.317 . S
O70 C71 1.232 . S
C71 O70 1.232 . S
C71 O72 1.218 . S
O72 C71 1.218 . S
C73 O66 1.275 1_545 S
C73 O68 1.255 . S
C74 O75 1.258 1_545 S
C74 O76 1.256 . S
O75 Cd67 2.381 1_565 S
O75 C74 1.258 1_565 S
O76 Cd67 2.378 . S
O76 C74 1.256 . S
O77 Cd78 2.300 . S
O77 C84 1.275 . S
Cd78 O77 2.300 . S
Cd78 O86 2.381 . S
Cd78 O87 2.378 . S
O79 Cd80 2.385 . S
O79 C84 1.255 . S
Cd80 O79 2.385 . S
Cd80 O81 2.317 . S
O81 Cd80 2.317 . S
O81 C82 1.232 . S
C82 O81 1.232 . S
C82 O83 1.218 . S
O83 C82 1.218 . S
C84 O77 1.275 . S
C84 O79 1.255 . S
C85 O86 1.258 . S
C85 O87 1.256 . S
O86 Cd78 2.381 . S
O86 C85 1.258 . S
O87 Cd78 2.378 . S
O87 C85 1.256 . S
Dy88 O91 2.307 1_545 S
Dy88 O93 2.395 1_655 S
Dy88 O94 2.379 . S
Dy88 O96 2.339 . S
Dy88 O98 2.298 . S
Dy88 O102 2.275 1_655 S
Dy88 C110 2.738 . S
Dy89 O92 2.298 . S
Dy89 O95 2.275 1_455 S
Dy89 O97 2.307 1_565 S
Dy89 O99 2.395 1_455 S
Dy89 O100 2.379 . S
Dy89 O103 2.339 . S
Dy89 C119 2.738 . S
C90 O102 1.254 1_565 S
C90 O103 1.257 . S
O91 Dy88 2.307 1_565 S
O91 C101 1.266 . S
O92 Dy89 2.298 . S
O92 C101 1.236 1_455 S
O93 Dy88 2.395 1_455 S
O93 C110 1.255 1_455 S
O94 Dy88 2.379 . S
O94 C110 1.249 . S
O95 Dy89 2.275 1_655 S
O95 C111 1.254 1_565 S
O96 Dy88 2.339 . S
O96 C111 1.257 . S
O97 Dy89 2.307 1_545 S
O97 C112 1.266 . S
O98 Dy88 2.298 . S
O98 C112 1.236 1_655 S
O99 Dy89 2.395 1_655 S
O99 C119 1.255 1_655 S
O100 Dy89 2.379 . S
O100 C119 1.249 . S
C101 O91 1.266 . S
C101 O92 1.236 1_655 S
O102 Dy88 2.275 1_455 S
O102 C90 1.254 1_545 S
O103 Dy89 2.339 . S
O103 C90 1.257 . S
C104 C107 1.344 1_655 S
C104 C108 1.328 . S
C104 C110 1.516 . S
C105 C106 1.304 1_655 S
C105 C109 1.323 . S
C106 C105 1.304 1_455 S
C106 C107 1.371 . S
C106 H120 0.930 . S
C107 C104 1.344 1_455 S
C107 C106 1.371 . S
C107 H121 0.931 . S
C108 C104 1.328 . S
C108 C109 1.433 . S
C108 H122 0.931 . S
C109 C105 1.323 . S
C109 C108 1.433 . S
C109 H123 0.933 . S
C110 Dy88 2.738 . S
C110 O93 1.255 1_655 S
C110 O94 1.249 . S
C110 C104 1.516 . S
C111 O95 1.254 1_545 S
C111 O96 1.257 . S
C112 O97 1.266 . S
C112 O98 1.236 1_455 S
C113 C116 1.344 1_455 S
C113 C117 1.328 . S
C113 C119 1.516 1_554 S
C114 C115 1.304 1_455 S
C114 C118 1.323 . S
C115 C114 1.304 1_655 S
C115 C116 1.371 . S
C115 H124 0.930 . S
C116 C113 1.344 1_655 S
C116 C115 1.371 . S
C116 H125 0.931 . S
C117 C113 1.328 . S
C117 C118 1.433 . S
C117 H126 0.931 . S
C118 C114 1.323 . S
C118 C117 1.433 . S
C118 H127 0.933 . S
C119 Dy89 2.738 . S
C119 O99 1.255 1_455 S
C119 O100 1.249 . S
C119 C113 1.516 1_556 S
H120 C106 0.930 . S
H121 C107 0.931 . S
H122 C108 0.931 . S
H123 C109 0.933 . S
H124 C115 0.930 . S
H125 C116 0.931 . S
H126 C117 0.931 . S
H127 C118 0.933 . S
Dy128 O131 2.307 . S
Dy128 O133 2.395 1_565 S
Dy128 O134 2.379 . S
Dy128 O136 2.339 . S
Dy128 O138 2.298 . S
Dy128 O142 2.275 1_565 S
Dy128 C150 2.738 . S
Dy129 O132 2.298 . S
Dy129 O135 2.275 1_545 S
Dy129 O137 2.307 . S
Dy129 O139 2.395 1_545 S
Dy129 O140 2.379 . S
Dy129 O143 2.339 . S
Dy129 C159 2.738 . S
C130 O142 1.254 . S
C130 O143 1.257 . S
O131 Dy128 2.307 . S
O131 C141 1.266 . S
O132 Dy129 2.298 . S
O132 C141 1.236 1_545 S
O133 Dy128 2.395 1_545 S
O133 C150 1.255 1_545 S
O134 Dy128 2.379 . S
O134 C150 1.249 . S
O135 Dy129 2.275 1_565 S
O135 C151 1.254 . S
O136 Dy128 2.339 . S
O136 C151 1.257 . S
O137 Dy129 2.307 . S
O137 C152 1.266 . S
O138 Dy128 2.298 . S
O138 C152 1.236 1_565 S
O139 Dy129 2.395 1_565 S
O139 C159 1.255 1_565 S
O140 Dy129 2.379 . S
O140 C159 1.249 . S
C141 O131 1.266 . S
C141 O132 1.236 1_565 S
O142 Dy128 2.275 1_545 S
O142 C130 1.254 . S
O143 Dy129 2.339 . S
O143 C130 1.257 . S
C144 C147 1.344 1_565 S
C144 C148 1.328 . S
C144 C150 1.516 . S
C145 C146 1.304 1_565 S
C145 C149 1.323 . S
C146 C145 1.304 1_545 S
C146 C147 1.371 . S
C146 H160 0.930 . S
C147 C144 1.344 1_545 S
C147 C146 1.371 . S
C147 H161 0.931 . S
C148 C144 1.328 . S
C148 C149 1.433 . S
C148 H162 0.931 . S
C149 C145 1.323 . S
C149 C148 1.433 . S
C149 H163 0.933 . S
C150 Dy128 2.738 . S
C150 O133 1.255 1_565 S
C150 O134 1.249 . S
C150 C144 1.516 . S
C151 O135 1.254 . S
C151 O136 1.257 . S
C152 O137 1.266 . S
C152 O138 1.236 1_545 S
C153 C156 1.344 1_545 S
C153 C157 1.328 1_556 S
C153 C159 1.516 . S
C154 C155 1.304 1_545 S
C154 C158 1.323 . S
C155 C154 1.304 1_565 S
C155 C156 1.371 1_554 S
C155 H164 0.930 . S
C156 C153 1.344 1_565 S
C156 C155 1.371 1_556 S
C156 H165 0.931 . S
C157 C153 1.328 1_554 S
C157 C158 1.433 . S
C157 H166 0.931 . S
C158 C154 1.323 . S
C158 C157 1.433 . S
C158 H167 0.933 . S
C159 Dy129 2.738 . S
C159 O139 1.255 1_545 S
C159 O140 1.249 . S
C159 C153 1.516 . S
H160 C146 0.930 . S
H161 C147 0.931 . S
H162 C148 0.931 . S
H163 C149 0.933 . S
H164 C155 0.930 . S
H165 C156 0.931 . S
H166 C157 0.931 . S
H167 C158 0.933 . S
Dy168 O171 2.307 . S
Dy168 O173 2.395 . S
Dy168 O174 2.379 . S
Dy168 O176 2.339 . S
Dy168 O178 2.298 . S
Dy168 O182 2.275 . S
Dy168 C190 2.738 . S
Dy169 O172 2.298 . S
Dy169 O175 2.275 . S
Dy169 O177 2.307 . S
Dy169 O179 2.395 . S
Dy169 O180 2.379 . S
Dy169 O183 2.339 . S
Dy169 C199 2.738 . S
C170 O182 1.254 . S
C170 O183 1.257 . S
O171 Dy168 2.307 . S
O171 C181 1.266 . S
O172 Dy169 2.298 . S
O172 C181 1.236 . S
O173 Dy168 2.395 . S
O173 C190 1.255 . S
O174 Dy168 2.379 . S
O174 C190 1.249 . S
O175 Dy169 2.275 . S
O175 C191 1.254 . S
O176 Dy168 2.339 . S
O176 C191 1.257 . S
O177 Dy169 2.307 . S
O177 C192 1.266 . S
O178 Dy168 2.298 . S
O178 C192 1.236 . S
O179 Dy169 2.395 . S
O179 C199 1.255 . S
O180 Dy169 2.379 . S
O180 C199 1.249 . S
C181 O171 1.266 . S
C181 O172 1.236 . S
O182 Dy168 2.275 . S
O182 C170 1.254 . S
O183 Dy169 2.339 . S
O183 C170 1.257 . S
C184 C187 1.344 1_556 S
C184 C188 1.328 . S
C184 C190 1.516 . S
C185 C186 1.304 . S
C185 C189 1.323 1_554 S
C186 C185 1.304 . S
C186 C187 1.371 . S
C186 H200 0.930 . S
C187 C184 1.344 1_554 S
C187 C186 1.371 . S
C187 H201 0.931 . S
C188 C184 1.328 . S
C188 C189 1.433 . S
C188 H202 0.931 . S
C189 C185 1.323 1_556 S
C189 C188 1.433 . S
C189 H203 0.933 . S
C190 Dy168 2.738 . S
C190 O173 1.255 . S
C190 O174 1.249 . S
C190 C184 1.516 . S
C191 O175 1.254 . S
C191 O176 1.257 . S
C192 O177 1.266 . S
C192 O178 1.236 . S
C193 C196 1.344 . S
C193 C197 1.328 . S
C193 C199 1.516 . S
C194 C195 1.304 . S
C194 C198 1.323 . S
C195 C194 1.304 . S
C195 C196 1.371 . S
C195 H204 0.930 . S
C196 C193 1.344 . S
C196 C195 1.371 . S
C196 H205 0.931 . S
C197 C193 1.328 . S
C197 C198 1.433 . S
C197 H206 0.931 . S
C198 C194 1.323 . S
C198 C197 1.433 . S
C198 H207 0.933 . S
C199 Dy169 2.738 . S
C199 O179 1.255 . S
C199 O180 1.249 . S
C199 C193 1.516 . S
H200 C186 0.930 . S
H201 C187 0.931 . S
H202 C188 0.931 . S
H203 C189 0.933 . S
H204 C195 0.930 . S
H205 C196 0.931 . S
H206 C197 0.931 . S
H207 C198 0.933 . S
Dy208 O211 2.307 1_455 S
Dy208 O213 2.395 . S
Dy208 O214 2.379 . S
Dy208 O216 2.339 . S
Dy208 O218 2.298 . S
Dy208 O222 2.275 . S
Dy208 C230 2.738 . S
Dy209 O212 2.298 . S
Dy209 O215 2.275 . S
Dy209 O217 2.307 1_655 S
Dy209 O219 2.395 . S
Dy209 O220 2.379 . S
Dy209 O223 2.339 . S
Dy209 C239 2.738 . S
C210 O222 1.270 . S
C210 O223 1.239 1_455 S
O211 Dy208 2.307 1_655 S
O211 C221 1.266 . S
O212 Dy209 2.298 . S
O212 C221 1.236 . S
O213 Dy208 2.395 . S
O213 C230 1.255 . S
O214 Dy208 2.379 . S
O214 C230 1.249 . S
O215 Dy209 2.275 . S
O215 C231 1.254 1_655 S
O216 Dy208 2.339 . S
O216 C231 1.257 . S
O217 Dy209 2.307 1_455 S
O217 C232 1.266 . S
O218 Dy208 2.298 . S
O218 C232 1.236 . S
O219 Dy209 2.395 . S
O219 C239 1.255 . S
O220 Dy209 2.379 . S
O220 C239 1.249 . S
C221 O211 1.266 . S
C221 O212 1.236 . S
O222 Dy208 2.275 . S
O222 C210 1.270 . S
O223 Dy209 2.339 . S
O223 C210 1.239 1_655 S
C224 C227 1.344 . S
C224 C228 1.328 . S
C224 C230 1.516 . S
C225 C226 1.304 . S
C225 C229 1.323 . S
C226 C225 1.304 . S
C226 C227 1.371 . S
C226 H240 0.930 . S
C227 C224 1.344 . S
C227 C226 1.371 . S
C227 H241 0.931 . S
C228 C224 1.328 . S
C228 C229 1.433 . S
C228 H242 0.931 . S
C229 C225 1.323 . S
C229 C228 1.433 . S
C229 H243 0.933 . S
C230 Dy208 2.738 . S
C230 O213 1.255 . S
C230 O214 1.249 . S
C230 C224 1.516 . S
C231 O215 1.254 1_455 S
C231 O216 1.257 . S
C232 O217 1.266 . S
C232 O218 1.236 . S
C233 C236 1.344 . S
C233 C237 1.328 . S
C233 C239 1.516 1_554 S
C234 C235 1.304 . S
C234 C238 1.323 . S
C235 C234 1.304 . S
C235 C236 1.371 . S
C235 H244 0.930 . S
C236 C233 1.344 . S
C236 C235 1.371 . S
C236 H245 0.931 . S
C237 C233 1.328 . S
C237 C238 1.433 . S
C237 H246 0.931 . S
C238 C234 1.323 . S
C238 C237 1.433 . S
C238 H247 0.933 . S
C239 Dy209 2.738 . S
C239 O219 1.255 . S
C239 O220 1.249 . S
C239 C233 1.516 1_556 S
H240 C226 0.930 . S
H241 C227 0.931 . S
H242 C228 0.931 . S
H243 C229 0.933 . S
H244 C235 0.930 . S
H245 C236 0.931 . S
H246 C237 0.931 . S
H247 C238 0.933 . S
H248 C254 0.930 . S
H249 C257 0.930 . S
H250 C258 0.930 . S
H251 C259 0.930 . S
H252 C262 0.930 . S
H253 C263 0.930 . S
C254 H248 0.930 . S
C254 C255 1.353 1_565 S
C254 C256 1.413 . S
C255 C254 1.353 1_545 S
C255 C257 1.419 . S
C256 C254 1.413 . S
C256 C261 1.423 1_565 S
C256 C263 1.414 . S
C257 H249 0.930 . S
C257 C255 1.419 . S
C257 C258 1.362 . S
C258 H250 0.930 . S
C258 C257 1.362 . S
C258 C261 1.409 . S
C259 H251 0.930 . S
C259 C260 1.354 1_545 S
C259 C261 1.415 . S
C260 C259 1.354 1_565 S
C260 C262 1.420 . S
C261 C256 1.423 1_545 S
C261 C258 1.409 . S
C261 C259 1.415 . S
C262 H252 0.930 . S
C262 C260 1.420 . S
C262 C263 1.362 . S
C263 H253 0.930 . S
C263 C256 1.414 . S
C263 C262 1.362 . S
H264 C270 0.930 . S
H265 C273 0.930 . S
H266 C274 0.930 . S
H267 C275 0.930 . S
H268 C278 0.930 . S
H269 C279 0.930 . S
C270 H264 0.930 . S
C270 C271 1.355 . S
C270 C272 1.415 . S
C271 C270 1.355 . S
C271 C273 1.419 . S
C272 C270 1.415 . S
C272 C277 1.425 . S
C272 C279 1.409 . S
C273 H265 0.930 . S
C273 C271 1.419 . S
C273 C274 1.362 . S
C274 H266 0.930 . S
C274 C273 1.362 . S
C274 C277 1.409 . S
C275 H267 0.930 . S
C275 C276 1.355 . S
C275 C277 1.415 . S
C276 C275 1.355 . S
C276 C278 1.419 . S
C277 C272 1.425 . S
C277 C274 1.409 . S
C277 C275 1.415 . S
C278 H268 0.930 . S
C278 C276 1.419 . S
C278 C279 1.362 . S
C279 H269 0.930 . S
C279 C272 1.409 . S
C279 C278 1.362 . S
H280 C286 0.930 . S
H281 C289 0.930 . S
H282 C290 0.930 . S
H283 C291 0.930 . S
H284 C294 0.930 . S
H285 C295 0.930 . S
C286 H280 0.930 . S
C286 C287 1.355 . S
C286 C288 1.415 . S
C287 C286 1.355 . S
C287 C289 1.419 . S
C288 C286 1.415 . S
C288 C293 1.425 . S
C288 C295 1.409 . S
C289 H281 0.930 . S
C289 C287 1.419 . S
C289 C290 1.362 . S
C290 H282 0.930 . S
C290 C289 1.362 . S
C290 C293 1.409 . S
C291 H283 0.930 . S
C291 C292 1.355 . S
C291 C293 1.415 . S
C292 C291 1.355 . S
C292 C294 1.419 . S
C293 C288 1.425 . S
C293 C290 1.409 . S
C293 C291 1.415 . S
C294 H284 0.930 . S
C294 C292 1.419 . S
C294 C295 1.362 . S
C295 H285 0.930 . S
C295 C288 1.409 . S
C295 C294 1.362 . S
H296 C302 0.930 1_655 S
H297 C305 0.930 . S
H298 C306 0.930 . S
H299 C307 0.930 . S
H300 C310 0.930 . S
H301 C311 0.930 . S
C302 H296 0.930 1_455 S
C302 C303 1.355 . S
C302 C304 1.415 . S
C303 C302 1.355 . S
C303 C305 1.419 . S
C304 C302 1.415 . S
C304 C309 1.425 . S
C304 C311 1.409 1_455 S
C305 H297 0.930 . S
C305 C303 1.419 . S
C305 C306 1.362 . S
C306 H298 0.930 . S
C306 C305 1.362 . S
C306 C309 1.409 . S
C307 H299 0.930 . S
C307 C308 1.355 . S
C307 C309 1.415 . S
C308 C307 1.355 . S
C308 C310 1.419 1_455 S
C309 C304 1.425 . S
C309 C306 1.409 . S
C309 C307 1.415 . S
C310 H300 0.930 . S
C310 C308 1.419 1_655 S
C310 C311 1.362 . S
C311 H301 0.930 . S
C311 C304 1.409 1_655 S
C311 C310 1.362 . S
H312 C318 0.930 . S
H313 C321 0.930 . S
H314 C322 0.930 1_556 S
H315 C323 0.930 . S
H316 C326 0.930 . S
H317 C327 0.930 . S
C318 H312 0.930 . S
C318 C319 1.351 1_545 S
C318 C320 1.415 . S
C319 C318 1.351 1_565 S
C319 C321 1.423 . S
C320 C318 1.415 . S
C320 C325 1.425 1_545 S
C320 C327 1.409 . S
C321 H313 0.930 . S
C321 C319 1.423 . S
C321 C322 1.362 . S
C322 H314 0.930 1_554 S
C322 C321 1.362 . S
C322 C325 1.409 . S
C323 H315 0.930 . S
C323 C324 1.363 . S
C323 C325 1.415 1_556 S
C324 C323 1.363 . S
C324 C326 1.411 1_566 S
C325 C320 1.425 1_565 S
C325 C322 1.409 . S
C325 C323 1.415 1_554 S
C326 H316 0.930 . S
C326 C324 1.411 1_544 S
C326 C327 1.362 . S
C327 H317 0.930 . S
C327 C320 1.409 . S
C327 C326 1.362 . S
H328 C334 0.930 . S
H329 C337 0.930 . S
H330 C338 0.930 . S
H331 C339 0.930 . S
H332 C342 0.930 . S
H333 C343 0.930 . S
C334 H328 0.930 . S
C334 C335 1.355 1_556 S
C334 C336 1.415 . S
C335 C334 1.355 1_554 S
C335 C337 1.419 . S
C336 C334 1.415 . S
C336 C341 1.425 . S
C336 C343 1.409 . S
C337 H329 0.930 . S
C337 C335 1.419 . S
C337 C338 1.362 1_554 S
C338 H330 0.930 . S
C338 C337 1.362 1_556 S
C338 C341 1.409 . S
C339 H331 0.930 . S
C339 C340 1.355 . S
C339 C341 1.415 . S
C340 C339 1.355 . S
C340 C342 1.419 . S
C341 C336 1.425 . S
C341 C338 1.409 . S
C341 C339 1.415 . S
C342 H332 0.930 . S
C342 C340 1.419 . S
C342 C343 1.362 . S
C343 H333 0.930 . S
C343 C336 1.409 . S
C343 C342 1.362 . S
H344 C350 0.930 . S
H345 C353 0.930 . S
H346 C354 0.930 . S
H347 C355 0.930 . S
H348 C358 0.930 . S
H349 C359 0.930 . S
C350 H344 0.930 . S
C350 C351 1.355 . S
C350 C352 1.415 . S
C351 C350 1.355 . S
C351 C353 1.419 . S
C352 C350 1.415 . S
C352 C357 1.425 . S
C352 C359 1.409 . S
C353 H345 0.930 . S
C353 C351 1.419 . S
C353 C354 1.362 . S
C354 H346 0.930 . S
C354 C353 1.362 . S
C354 C357 1.409 . S
C355 H347 0.930 . S
C355 C356 1.355 . S
C355 C357 1.415 . S
C356 C355 1.355 . S
C356 C358 1.419 . S
C357 C352 1.425 . S
C357 C354 1.409 . S
C357 C355 1.415 . S
C358 H348 0.930 . S
C358 C356 1.419 . S
C358 C359 1.362 . S
C359 H349 0.930 . S
C359 C352 1.409 . S
C359 C358 1.362 . S
H360 C366 0.930 . S
H361 C369 0.930 . S
H362 C370 0.930 . S
H363 C371 0.930 . S
H364 C374 0.930 . S
H365 C375 0.930 . S
C366 H360 0.930 . S
C366 C367 1.355 1_455 S
C366 C368 1.415 . S
C367 C366 1.355 1_655 S
C367 C369 1.419 . S
C368 C366 1.415 . S
C368 C373 1.425 1_455 S
C368 C375 1.409 . S
C369 H361 0.930 . S
C369 C367 1.419 . S
C369 C370 1.362 . S
C370 H362 0.930 . S
C370 C369 1.362 . S
C370 C373 1.409 . S
C371 H363 0.930 . S
C371 C372 1.353 1_654 S
C371 C373 1.415 . S
C372 C371 1.353 1_456 S
C372 C374 1.423 . S
C373 C368 1.425 1_655 S
C373 C370 1.409 . S
C373 C371 1.415 . S
C374 H364 0.930 . S
C374 C372 1.423 . S
C374 C375 1.362 1_556 S
C375 H365 0.930 . S
C375 C368 1.409 . S
C375 C374 1.362 1_554 S
H376 C382 0.930 . S
H377 C385 0.930 . S
H378 C386 0.930 . S
H379 C387 0.930 . S
H380 C390 0.930 . S
H381 C391 0.930 . S
C382 H376 0.930 . S
C382 C383 1.355 . S
C382 C384 1.415 1_455 S
C383 C382 1.355 . S
C383 C385 1.419 . S
C384 C382 1.415 1_655 S
C384 C389 1.425 . S
C384 C391 1.409 . S
C385 H377 0.930 . S
C385 C383 1.419 . S
C385 C386 1.362 1_455 S
C386 H378 0.930 . S
C386 C385 1.362 1_655 S
C386 C389 1.409 . S
C387 H379 0.930 . S
C387 C388 1.355 . S
C387 C389 1.415 . S
C388 C387 1.355 . S
C388 C390 1.419 . S
C389 C384 1.425 . S
C389 C386 1.409 . S
C389 C387 1.415 . S
C390 H380 0.930 . S
C390 C388 1.419 . S
C390 C391 1.362 . S
C391 H381 0.930 . S
C391 C384 1.409 . S
C391 C390 1.362 . S
H392 C398 0.930 . S
H393 C401 0.930 . S
H394 C402 0.930 . S
H395 C403 0.930 . S
H396 C406 0.930 . S
H397 C407 0.930 . S
C398 H392 0.930 . S
C398 C399 1.355 1_545 S
C398 C400 1.415 . S
C399 C398 1.355 1_565 S
C399 C401 1.419 . S
C400 C398 1.415 . S
C400 C405 1.425 1_545 S
C400 C407 1.409 . S
C401 H393 0.930 . S
C401 C399 1.419 . S
C401 C402 1.362 . S
C402 H394 0.930 . S
C402 C401 1.362 . S
C402 C405 1.409 . S
C403 H395 0.930 . S
C403 C404 1.355 . S
C403 C405 1.415 . S
C404 C403 1.355 . S
C404 C406 1.419 1_565 S
C405 C400 1.425 1_565 S
C405 C402 1.409 . S
C405 C403 1.415 . S
C406 H396 0.930 . S
C406 C404 1.419 1_545 S
C406 C407 1.362 . S
C407 H397 0.930 . S
C407 C400 1.409 . S
C407 C406 1.362 . S
H408 C414 0.930 . S
H409 C417 0.930 . S
H410 C418 0.930 . S
H411 C419 0.930 . S
H412 C422 0.930 . S
H413 C423 0.930 . S
C414 H408 0.930 . S
C414 C415 1.355 . S
C414 C416 1.415 . S
C415 C414 1.355 . S
C415 C417 1.419 . S
C416 C414 1.415 . S
C416 C421 1.425 . S
C416 C423 1.409 . S
C417 H409 0.930 . S
C417 C415 1.419 . S
C417 C418 1.362 . S
C418 H410 0.930 . S
C418 C417 1.362 . S
C418 C421 1.409 . S
C419 H411 0.930 . S
C419 C420 1.355 . S
C419 C421 1.415 . S
C420 C419 1.355 . S
C420 C422 1.419 . S
C421 C416 1.425 . S
C421 C418 1.409 . S
C421 C419 1.415 . S
C422 H412 0.930 . S
C422 C420 1.419 . S
C422 C423 1.362 . S
C423 H413 0.930 . S
C423 C416 1.409 . S
C423 C422 1.362 . S
H424 C430 0.930 . S
H425 C433 0.930 . S
H426 C434 0.930 . S
H427 C435 0.930 . S
H428 C438 0.930 . S
H429 C439 0.930 . S
C430 H424 0.930 . S
C430 C431 1.355 . S
C430 C432 1.415 . S
C431 C430 1.355 . S
C431 C433 1.419 . S
C432 C430 1.415 . S
C432 C437 1.425 . S
C432 C439 1.409 . S
C433 H425 0.930 . S
C433 C431 1.419 . S
C433 C434 1.362 . S
C434 H426 0.930 . S
C434 C433 1.362 . S
C434 C437 1.409 . S
C435 H427 0.930 . S
C435 C436 1.355 . S
C435 C437 1.415 . S
C436 C435 1.355 . S
C436 C438 1.419 . S
C437 C432 1.425 . S
C437 C434 1.409 . S
C437 C435 1.415 . S
C438 H428 0.930 . S
C438 C436 1.419 . S
C438 C439 1.362 . S
C439 H429 0.930 . S
C439 C432 1.409 . S
C439 C438 1.362 . S
H440 C446 0.930 . S
H441 C449 0.930 . S
H442 C450 0.930 . S
H443 C451 0.930 1_655 S
H444 C454 0.930 . S
H445 C455 0.930 . S
C446 H440 0.930 . S
C446 C447 1.355 1_455 S
C446 C448 1.415 . S
C447 C446 1.355 1_655 S
C447 C449 1.419 . S
C448 C446 1.415 . S
C448 C453 1.425 . S
C448 C455 1.409 . S
C449 H441 0.930 . S
C449 C447 1.419 . S
C449 C450 1.362 . S
C450 H442 0.930 . S
C450 C449 1.362 . S
C450 C453 1.409 1_655 S
C451 H443 0.930 1_455 S
C451 C452 1.355 . S
C451 C453 1.415 . S
C452 C451 1.355 . S
C452 C454 1.419 . S
C453 C448 1.425 . S
C453 C450 1.409 1_455 S
C453 C451 1.415 . S
C454 H444 0.930 . S
C454 C452 1.419 . S
C454 C455 1.362 . S
C455 H445 0.930 . S
C455 C448 1.409 . S
C455 C454 1.362 . S
H456 C462 0.930 . S
H457 C465 0.930 . S
H458 C466 0.930 . S
H459 C467 0.930 . S
H460 C470 0.930 1_556 S
H461 C471 0.936 . S
C462 H456 0.930 . S
C462 C463 1.355 1_565 S
C462 C464 1.415 1_565 S
C463 C462 1.355 1_545 S
C463 C465 1.419 . S
C464 C462 1.415 1_545 S
C464 C469 1.425 . S
C464 C471 1.409 1_545 S
C465 H457 0.930 . S
C465 C463 1.419 . S
C465 C466 1.362 . S
C466 H458 0.930 . S
C466 C465 1.362 . S
C466 C469 1.409 . S
C467 H459 0.930 . S
C467 C468 1.355 . S
C467 C469 1.415 . S
C468 C467 1.355 . S
C468 C470 1.419 . S
C469 C464 1.425 . S
C469 C466 1.409 . S
C469 C467 1.415 . S
C470 H460 0.930 1_554 S
C470 C468 1.419 . S
C470 C471 1.362 1_545 S
C471 H461 0.936 . S
C471 C464 1.409 1_565 S
C471 C470 1.362 1_565 S
H472 C478 0.930 . S
H473 C481 0.930 . S
H474 C482 0.930 . S
H475 C483 0.930 . S
H476 C486 0.930 . S
H477 C487 0.930 . S
C478 H472 0.930 . S
C478 C479 1.355 . S
C478 C480 1.417 . S
C479 C478 1.355 . S
C479 C481 1.419 1_554 S
C480 C478 1.417 . S
C480 C485 1.422 1_554 S
C480 C487 1.410 . S
C481 H473 0.930 . S
C481 C479 1.419 1_556 S
C481 C482 1.362 . S
C482 H474 0.930 . S
C482 C481 1.362 . S
C482 C485 1.409 . S
C483 H475 0.930 . S
C483 C484 1.355 . S
C483 C485 1.415 . S
C484 C483 1.355 . S
C484 C486 1.419 . S
C485 C480 1.422 1_556 S
C485 C482 1.409 . S
C485 C483 1.415 . S
C486 H476 0.930 . S
C486 C484 1.419 . S
C486 C487 1.362 1_556 S
C487 H477 0.930 . S
C487 C480 1.410 . S
C487 C486 1.362 1_554 S
H488 C494 0.930 . S
H489 C497 0.930 . S
H490 C498 0.930 . S
H491 C499 0.930 . S
H492 C502 0.930 . S
H493 C503 0.930 . S
C494 H488 0.930 . S
C494 C495 1.355 . S
C494 C496 1.415 . S
C495 C494 1.355 . S
C495 C497 1.419 . S
C496 C494 1.415 . S
C496 C501 1.425 . S
C496 C503 1.409 . S
C497 H489 0.930 . S
C497 C495 1.419 . S
C497 C498 1.362 . S
C498 H490 0.930 . S
C498 C497 1.362 . S
C498 C501 1.409 . S
C499 H491 0.930 . S
C499 C500 1.355 . S
C499 C501 1.415 . S
C500 C499 1.355 . S
C500 C502 1.419 . S
C501 C496 1.425 . S
C501 C498 1.409 . S
C501 C499 1.415 . S
C502 H492 0.930 . S
C502 C500 1.419 . S
C502 C503 1.362 . S
C503 H493 0.930 . S
C503 C496 1.409 . S
C503 C502 1.362 . S
H504 C510 0.930 . S
H505 C513 0.930 . S
H506 C514 0.930 . S
H507 C515 0.930 . S
H508 C518 0.930 . S
H509 C519 0.930 . S
C510 H504 0.930 . S
C510 C511 1.355 1_655 S
C510 C512 1.415 . S
C511 C510 1.355 1_455 S
C511 C513 1.419 . S
C512 C510 1.415 . S
C512 C517 1.425 1_655 S
C512 C519 1.409 . S
C513 H505 0.930 . S
C513 C511 1.419 . S
C513 C514 1.362 . S
C514 H506 0.930 . S
C514 C513 1.362 . S
C514 C517 1.409 . S
C515 H507 0.930 . S
C515 C516 1.355 . S
C515 C517 1.415 . S
C516 C515 1.355 . S
C516 C518 1.419 1_455 S
C517 C512 1.425 1_455 S
C517 C514 1.409 . S
C517 C515 1.415 . S
C518 H508 0.930 . S
C518 C516 1.419 1_655 S
C518 C519 1.362 . S
C519 H509 0.930 . S
C519 C512 1.409 . S
C519 C518 1.362 . S
H520 C526 0.930 1_554 S
H521 C529 0.930 . S
H522 C530 0.930 . S
H523 C531 0.930 . S
H524 C534 0.930 . S
H525 C535 0.930 1_554 S
C526 H520 0.930 1_556 S
C526 C527 1.339 1_545 S
C526 C528 1.415 . S
C527 C526 1.339 1_565 S
C527 C529 1.435 . S
C528 C526 1.415 . S
C528 C533 1.425 1_545 S
C528 C535 1.409 . S
C529 H521 0.930 . S
C529 C527 1.435 . S
C529 C530 1.362 . S
C530 H522 0.930 . S
C530 C529 1.362 . S
C530 C533 1.409 . S
C531 H523 0.930 . S
C531 C532 1.355 1_565 S
C531 C533 1.415 . S
C532 C531 1.355 1_545 S
C532 C534 1.419 . S
C533 C528 1.425 1_565 S
C533 C530 1.409 . S
C533 C531 1.415 . S
C534 H524 0.930 . S
C534 C532 1.419 . S
C534 C535 1.362 . S
C535 H525 0.930 1_556 S
C535 C528 1.409 . S
C535 C534 1.362 . S
H536 C542 0.930 . S
H537 C545 0.930 . S
H538 C546 0.930 . S
H539 C547 0.930 . S
H540 C550 0.930 . S
H541 C551 0.930 . S
C542 H536 0.930 . S
C542 C543 1.355 . S
C542 C544 1.415 . S
C543 C542 1.355 . S
C543 C545 1.419 . S
C544 C542 1.415 . S
C544 C549 1.425 . S
C544 C551 1.409 . S
C545 H537 0.930 . S
C545 C543 1.419 . S
C545 C546 1.362 . S
C546 H538 0.930 . S
C546 C545 1.362 . S
C546 C549 1.409 . S
C547 H539 0.930 . S
C547 C548 1.355 1_554 S
C547 C549 1.415 . S
C548 C547 1.355 1_556 S
C548 C550 1.419 . S
C549 C544 1.425 . S
C549 C546 1.409 . S
C549 C547 1.415 . S
C550 H540 0.930 . S
C550 C548 1.419 . S
C550 C551 1.362 1_556 S
C551 H541 0.930 . S
C551 C544 1.409 . S
C551 C550 1.362 1_554 S
H552 C558 0.930 . S
H553 C561 0.930 . S
H554 C562 0.930 . S
H555 C563 0.930 . S
H556 C566 0.930 . S
H557 C567 0.930 . S
C558 H552 0.930 . S
C558 C559 1.355 . S
C558 C560 1.415 . S
C559 C558 1.355 . S
C559 C561 1.419 . S
C560 C558 1.415 . S
C560 C565 1.425 . S
C560 C567 1.409 . S
C561 H553 0.930 . S
C561 C559 1.419 . S
C561 C562 1.362 . S
C562 H554 0.930 . S
C562 C561 1.362 . S
C562 C565 1.409 . S
C563 H555 0.930 . S
C563 C564 1.355 . S
C563 C565 1.415 . S
C564 C563 1.355 . S
C564 C566 1.419 . S
C565 C560 1.425 . S
C565 C562 1.409 . S
C565 C563 1.415 . S
C566 H556 0.930 . S
C566 C564 1.419 . S
C566 C567 1.362 . S
C567 H557 0.930 . S
C567 C560 1.409 . S
C567 C566 1.362 . S
H568 C574 0.930 . S
H569 C577 0.930 . S
H570 C578 0.930 . S
H571 C579 0.930 . S
H572 C582 0.930 . S
H573 C583 0.930 . S
C574 H568 0.930 . S
C574 C575 1.355 . S
C574 C576 1.415 . S
C575 C574 1.355 . S
C575 C577 1.419 1_655 S
C576 C574 1.415 . S
C576 C581 1.425 1_655 S
C576 C583 1.409 . S
C577 H569 0.930 . S
C577 C575 1.419 1_455 S
C577 C578 1.362 . S
C578 H570 0.930 . S
C578 C577 1.362 . S
C578 C581 1.409 . S
C579 H571 0.930 . S
C579 C580 1.355 1_455 S
C579 C581 1.415 . S
C580 C579 1.355 1_655 S
C580 C582 1.419 . S
C581 C576 1.425 1_455 S
C581 C578 1.409 . S
C581 C579 1.415 . S
C582 H572 0.930 . S
C582 C580 1.419 . S
C582 C583 1.362 . S
C583 H573 0.930 . S
C583 C576 1.409 . S
C583 C582 1.362 . S
H584 C590 0.930 . S
H585 C593 0.930 . S
H586 C594 0.930 . S
H587 C595 0.930 1_545 S
H588 C598 0.930 . S
H589 C599 0.930 . S
C590 H584 0.930 . S
C590 C591 1.355 . S
C590 C592 1.415 . S
C591 C590 1.355 . S
C591 C593 1.419 1_565 S
C592 C590 1.415 . S
C592 C597 1.425 . S
C592 C599 1.409 . S
C593 H585 0.930 . S
C593 C591 1.419 1_545 S
C593 C594 1.362 . S
C594 H586 0.930 . S
C594 C593 1.362 . S
C594 C597 1.409 1_545 S
C595 H587 0.930 1_565 S
C595 C596 1.355 . S
C595 C597 1.415 . S
C596 C595 1.355 . S
C596 C598 1.419 . S
C597 C592 1.425 . S
C597 C594 1.409 1_565 S
C597 C595 1.415 . S
C598 H588 0.930 . S
C598 C596 1.419 . S
C598 C599 1.362 . S
C599 H589 0.930 . S
C599 C592 1.409 . S
C599 C598 1.362 . S
H600 C606 0.930 . S
H601 C609 0.930 . S
H602 C610 0.930 . S
H603 C611 0.930 . S
H604 C614 0.930 . S
H605 C615 0.930 . S
C606 H600 0.930 . S
C606 C607 1.355 . S
C606 C608 1.415 . S
C607 C606 1.355 . S
C607 C609 1.419 . S
C608 C606 1.415 . S
C608 C613 1.425 . S
C608 C615 1.409 . S
C609 H601 0.930 . S
C609 C607 1.419 . S
C609 C610 1.362 . S
C610 H602 0.930 . S
C610 C609 1.362 . S
C610 C613 1.409 . S
C611 H603 0.930 . S
C611 C612 1.355 . S
C611 C613 1.415 . S
C612 C611 1.355 . S
C612 C614 1.419 . S
C613 C608 1.425 . S
C613 C610 1.409 . S
C613 C611 1.415 . S
C614 H604 0.930 . S
C614 C612 1.419 . S
C614 C615 1.362 . S
C615 H605 0.930 . S
C615 C608 1.409 . S
C615 C614 1.362 . S
H616 C622 0.930 . S
H617 C625 0.930 . S
H618 C626 0.930 . S
H619 C627 0.930 . S
H620 C630 0.930 . S
H621 C631 0.930 . S
C622 H616 0.930 . S
C622 C623 1.355 . S
C622 C624 1.415 . S
C623 C622 1.355 . S
C623 C625 1.419 . S
C624 C622 1.415 . S
C624 C629 1.425 . S
C624 C631 1.409 . S
C625 H617 0.930 . S
C625 C623 1.419 . S
C625 C626 1.362 . S
C626 H618 0.930 . S
C626 C625 1.362 . S
C626 C629 1.409 . S
C627 H619 0.930 . S
C627 C628 1.355 . S
C627 C629 1.415 . S
C628 C627 1.355 . S
C628 C630 1.419 . S
C629 C624 1.425 . S
C629 C626 1.409 . S
C629 C627 1.415 . S
C630 H620 0.930 . S
C630 C628 1.419 . S
C630 C631 1.362 . S
C631 H621 0.930 . S
C631 C624 1.409 . S
C631 C630 1.362 . S
C255 C74 1.899 . S
C260 C90 1.970 . S
C276 C130 1.970 . S
C271 C85 1.974 . S
C292 C194 1.997 . S
C287 C52 1.955 . S
C308 C210 1.697 . S
C303 C63 1.528 . S
C324 C111 1.970 1_565 S
C319 C30 1.904 1_565 S
C335 C41 1.956 . S
C340 C151 1.975 . S
C351 C8 1.918 . S
C356 C185 2.003 . S
C367 C19 1.618 . S
C372 C231 1.728 . S
C388 C105 0.570 . S
C383 C62 0.527 . S
C404 C145 0.824 . S
C399 C73 0.904 1_565 S
C420 C181 0.968 . S
C415 C84 0.936 . S
C431 C51 0.907 . S
C436 C225 0.910 . S
C447 C18 0.679 1_655 S
C452 C114 0.609 . S
C468 C154 0.827 . S
C463 C29 0.830 . S
C484 C192 0.922 . S
C479 C40 0.846 . S
C495 C7 0.826 . S
C500 C234 0.810 . S
C511 C60 1.545 . S
C516 C112 2.084 . S
C527 C71 1.636 1_566 S
C532 C152 2.068 . S
C548 C170 1.617 . S
C543 C82 1.513 . S
C564 C232 2.488 . S
C559 C49 1.970 . S
C575 C16 1.564 1_655 S
C580 C101 2.113 . S
C596 C141 2.038 . S
C591 C27 1.608 1_565 S
C612 C191 1.600 . S
C607 C38 1.248 . S
C623 C5 1.866 . S
C628 C221 2.494 . S
