# Generated by pormake.
# Topology zzz, (3,6)-cn, num edge types: 1
# Building blocks:
#     Node 0, Type 0, BuildingBlock: OLANEW_clean_sbu_2, # of connection points: 3
#     Node 1, Type 0, BuildingBlock: OLANEW_clean_sbu_2, # of connection points: 3
#     Node 2, Type 0, BuildingBlock: OLANEW_clean_sbu_2, # of connection points: 3
#     Node 3, Type 0, BuildingBlock: OLANEW_clean_sbu_2, # of connection points: 3
#     Node 4, Type 0, BuildingBlock: OLANEW_clean_sbu_2, # of connection points: 3
#     Node 5, Type 0, BuildingBlock: OLANEW_clean_sbu_2, # of connection points: 3
#     Node 6, Type 0, BuildingBlock: OLANEW_clean_sbu_2, # of connection points: 3
#     Node 7, Type 0, BuildingBlock: OLANEW_clean_sbu_2, # of connection points: 3
#     Node 8, Type 1, BuildingBlock: CUWYAW_clean_sbu_0, # of connection points: 6
#     Node 9, Type 1, BuildingBlock: CUWYAW_clean_sbu_0, # of connection points: 6
#     Node 10, Type 1, BuildingBlock: CUWYAW_clean_sbu_0, # of connection points: 6
#     Node 11, Type 1, BuildingBlock: CUWYAW_clean_sbu_0, # of connection points: 6
#     Edge 12, Type (0, 1), BuildingBlock: AJUNOK_clean_linker_0, # of connection points: 2
#     Edge 13, Type (0, 1), BuildingBlock: AJUNOK_clean_linker_0, # of connection points: 2
#     Edge 14, Type (0, 1), BuildingBlock: AJUNOK_clean_linker_0, # of connection points: 2
#     Edge 15, Type (0, 1), BuildingBlock: AJUNOK_clean_linker_0, # of connection points: 2
#     Edge 16, Type (0, 1), BuildingBlock: AJUNOK_clean_linker_0, # of connection points: 2
#     Edge 17, Type (0, 1), BuildingBlock: AJUNOK_clean_linker_0, # of connection points: 2
#     Edge 18, Type (0, 1), BuildingBlock: AJUNOK_clean_linker_0, # of connection points: 2
#     Edge 19, Type (0, 1), BuildingBlock: AJUNOK_clean_linker_0, # of connection points: 2
#     Edge 20, Type (0, 1), BuildingBlock: AJUNOK_clean_linker_0, # of connection points: 2
#     Edge 21, Type (0, 1), BuildingBlock: AJUNOK_clean_linker_0, # of connection points: 2
#     Edge 22, Type (0, 1), BuildingBlock: AJUNOK_clean_linker_0, # of connection points: 2
#     Edge 23, Type (0, 1), BuildingBlock: AJUNOK_clean_linker_0, # of connection points: 2
#     Edge 24, Type (0, 1), BuildingBlock: AJUNOK_clean_linker_0, # of connection points: 2
#     Edge 25, Type (0, 1), BuildingBlock: AJUNOK_clean_linker_0, # of connection points: 2
#     Edge 26, Type (0, 1), BuildingBlock: AJUNOK_clean_linker_0, # of connection points: 2
#     Edge 27, Type (0, 1), BuildingBlock: AJUNOK_clean_linker_0, # of connection points: 2
#     Edge 28, Type (0, 1), BuildingBlock: AJUNOK_clean_linker_0, # of connection points: 2
#     Edge 29, Type (0, 1), BuildingBlock: AJUNOK_clean_linker_0, # of connection points: 2
#     Edge 30, Type (0, 1), BuildingBlock: AJUNOK_clean_linker_0, # of connection points: 2
#     Edge 31, Type (0, 1), BuildingBlock: AJUNOK_clean_linker_0, # of connection points: 2
#     Edge 32, Type (0, 1), BuildingBlock: AJUNOK_clean_linker_0, # of connection points: 2
#     Edge 33, Type (0, 1), BuildingBlock: AJUNOK_clean_linker_0, # of connection points: 2
#     Edge 34, Type (0, 1), BuildingBlock: AJUNOK_clean_linker_0, # of connection points: 2
#     Edge 35, Type (0, 1), BuildingBlock: AJUNOK_clean_linker_0, # of connection points: 2
# Relax obj value: 0.289
# Max RMSD: 0.182
# Mean RMSD: 0.148
data_MOF--net-zzz--node1-OLANEW_clean_sbu_2--node2-CUWYAW_clean_sbu_0--edge1-AJUNOK_clean_linker_0
_symmetry_space_group_name_H-M    P1
_symmetry_Int_Tables_number       1
_symmetry_cell_setting            triclinic
loop_
_symmetry_equiv_pos_as_xyz
'x, y, z'
_cell_length_a     42.30625
_cell_length_b     42.286992
_cell_length_c     12.285292
_cell_angle_alpha  89.68551
_cell_angle_beta   89.906126
_cell_angle_gamma 90.110795
loop_
_atom_site_label
_atom_site_type_symbol
_atom_site_fract_x
_atom_site_fract_y
_atom_site_fract_z
_atom_type_partial_charge
O0 O 0.72445 0.4858 0.28879 0.0
Cd1 Cd 0.67652 0.49766 0.38954 0.0
O2 O 0.73904 0.46101 0.43505 0.0
Cd3 Cd 0.77056 0.44264 0.55788 0.0
O4 O 0.81611 0.46036 0.60366 0.0
C5 C 0.81841 0.48481 0.66251 0.0
O6 O 0.79304 0.49709 0.70705 0.0
C7 C 0.74573 0.47077 0.33947 0.0
C8 C 0.62976 0.50129 0.23485 0.0
O9 O 0.6466 0.52559 0.25749 0.0
O10 O 0.63404 0.47583 0.28994 0.0
O11 O 0.98219 0.71889 0.32932 0.0
Cd12 Cd 0.97491 0.66813 0.4208 0.0
O13 O 0.02512 0.72711 0.42466 0.0
Cd14 Cd 0.05725 0.76265 0.48608 0.0
O15 O 0.03979 0.80922 0.52741 0.0
C16 C 0.01753 0.81079 0.59675 0.0
O17 O 0.00818 0.78498 0.6474 0.0
C18 C 0.0057 0.73624 0.35226 0.0
C19 C 0.98221 0.62395 0.25793 0.0
O20 O 0.95526 0.63651 0.27729 0.0
O21 O 0.00543 0.63086 0.32036 0.0
O22 O 0.77304 0.03438 0.33842 0.0
Cd23 Cd 0.82602 0.02832 0.41368 0.0
O24 O 0.75492 0.00901 0.48087 0.0
Cd25 Cd 0.72238 0.98015 0.57726 0.0
O26 O 0.71523 0.93266 0.66237 0.0
C27 C 0.68803 0.92067 0.68154 0.0
O28 O 0.71637 0.93181 0.66407 0.0
C29 C 0.74983 0.02233 0.3896 0.0
C30 C 0.86846 0.01599 0.24552 0.0
O31 O 0.85355 0.9934 0.293 0.0
O32 O 0.86361 0.04423 0.27903 0.0
O33 O 0.4434 0.77937 0.26216 0.0
Cd34 Cd 0.44904 0.83404 0.32353 0.0
O35 O 0.48632 0.77024 0.35716 0.0
Cd36 Cd 0.52006 0.7354 0.41477 0.0
O37 O 0.53077 0.68915 0.48171 0.0
C38 C 0.51717 0.68288 0.57142 0.0
O39 O 0.50016 0.70506 0.61752 0.0
C40 C 0.46404 0.76017 0.29751 0.0
C41 C 0.46454 0.87624 0.15666 0.0
O42 O 0.48598 0.86028 0.20583 0.0
O43 O 0.43573 0.87198 0.18579 0.0
O44 O 0.28503 0.55942 0.2151 0.0
Cd45 Cd 0.33856 0.55992 0.14354 0.0
O46 O 0.27972 0.51195 0.14733 0.0
Cd47 Cd 0.25294 0.46935 0.11169 0.0
O48 O 0.2092 0.45297 0.04056 0.0
C49 C 0.20303 0.46399 0.94668 0.0
O50 O 0.22479 0.48085 0.8964 0.0
C51 C 0.26816 0.53502 0.20008 0.0
C52 C 0.37859 0.54424 0.31404 0.0
O53 O 0.37053 0.57297 0.29546 0.0
O54 O 0.36817 0.52287 0.24977 0.0
O55 O 0.95826 0.28169 0.23741 0.0
Cd56 Cd 0.96575 0.33365 0.15534 0.0
O57 O 0.99938 0.27327 0.13574 0.0
Cd58 Cd 0.03263 0.24721 0.03675 0.0
O59 O 0.03543 0.20597 0.93608 0.0
C60 C 0.05754 0.18584 0.94038 0.0
O61 O 0.08208 0.19123 0.00301 0.0
C62 C 0.97908 0.26261 0.20335 0.0
C63 C 0.98382 0.37502 0.31682 0.0
O64 O 0.95501 0.37335 0.28532 0.0
O65 O 0.0044 0.35762 0.26969 0.0
O66 O 0.2218 0.97081 0.20187 0.0
Cd67 Cd 0.17137 0.98599 0.12216 0.0
O68 O 0.23437 0.01373 0.11418 0.0
Cd69 Cd 0.26389 0.04966 0.03812 0.0
O70 O 0.30804 0.06375 0.96408 0.0
C71 C 0.31546 0.04973 0.87673 0.0
O72 O 0.29497 0.03007 0.83354 0.0
C73 C 0.24278 0.99092 0.17578 0.0
C74 C 0.12819 0.99561 0.28765 0.0
O75 O 0.12792 0.97004 0.23216 0.0
O76 O 0.14858 0.01698 0.26378 0.0
O77 O 0.54684 0.2286 0.10575 0.0
Cd78 Cd 0.54476 0.17438 0.04259 0.0
O79 O 0.49554 0.22306 0.12502 0.0
Cd80 Cd 0.45118 0.24745 0.15405 0.0
O81 O 0.44205 0.29568 0.10178 0.0
C82 C 0.4532 0.30263 0.00854 0.0
O83 O 0.46628 0.28009 0.9507 0.0
C84 C 0.52038 0.23972 0.1354 0.0
C85 C 0.53323 0.13675 0.22441 0.0
O86 O 0.56146 0.14178 0.19052 0.0
O87 O 0.5103 0.14892 0.17076 0.0
C88 C 0.9556 0.04037 0.50538 0.0
Eu89 Eu 0.97846 0.01057 0.67491 0.0
C90 C 0.96097 0.0712 0.45212 0.0
C91 C 0.9389 0.08298 0.37758 0.0
C92 C 0.94334 0.11267 0.32886 0.0
C93 C 0.96968 0.13154 0.35575 0.0
C94 C 0.99176 0.11941 0.43082 0.0
C95 C 0.98773 0.08935 0.47681 0.0
C96 C 0.94776 1.00021 0.86488 0.0
C97 C 0.02185 0.05914 0.81965 0.0
C98 C 0.03901 0.95529 0.03386 0.0
Eu99 Eu 0.01909 0.98617 0.86315 0.0
C100 C 0.03386 0.92285 0.07491 0.0
C101 C 0.05626 0.90845 0.14269 0.0
C102 C 0.05146 0.87756 0.18102 0.0
C103 C 0.02445 0.86017 0.15029 0.0
C104 C 0.00269 0.87448 0.07894 0.0
C105 C 0.00699 0.90569 0.04395 0.0
C106 C 0.05077 0.99682 0.67528 0.0
C107 C 0.98067 0.93662 0.7086 0.0
O108 O 0.979 0.02035 0.50067 0.0
O109 O 0.94254 0.04109 0.60184 0.0
O110 O 0.9358 0.99341 0.77055 0.0
O111 O 0.9745 0.01286 0.85427 0.0
O112 O 0.00834 0.05273 0.72518 0.0
O113 O 0.02557 0.03751 0.89624 0.0
O114 O 0.01437 0.97401 0.035 0.0
O115 O 0.05521 0.95763 0.94344 0.0
O116 O 0.06289 0.00164 0.77093 0.0
O117 O 0.02363 0.98477 0.68392 0.0
O118 O 0.99161 0.94316 0.80652 0.0
O119 O 0.97596 0.95905 0.63547 0.0
H120 H 0.91809 0.06928 0.35776 0.0
H121 H 0.92594 0.12096 0.27084 0.0
H122 H 0.01172 0.1334 0.45726 0.0
H123 H 0.00524 0.08058 0.53346 0.0
H124 H 0.07728 0.92122 0.16713 0.0
H125 H 0.0686 0.86761 0.2368 0.0
H126 H 0.98223 0.86169 0.04992 0.0
H127 H 0.98921 0.91644 0.99276 0.0
C128 C 0.47036 0.97716 0.43364 0.0
Eu129 Eu 0.49782 0.99401 0.61367 0.0
C130 C 0.43734 0.97885 0.3955 0.0
C131 C 0.42442 0.95383 0.33589 0.0
C132 C 0.39276 0.95468 0.30286 0.0
C133 C 0.37328 0.98044 0.32989 0.0
C134 C 0.38637 0.00532 0.39079 0.0
C135 C 0.41804 0.00463 0.4226 0.0
C136 C 0.4984 0.96081 0.80181 0.0
C137 C 0.44637 0.03616 0.75353 0.0
C138 C 0.54423 0.05007 0.99103 0.0
Eu139 Eu 0.51865 0.03144 0.81001 0.0
C140 C 0.57374 0.04373 0.05058 0.0
C141 C 0.59021 0.06904 0.09695 0.0
C142 C 0.61774 0.06368 0.15673 0.0
C143 C 0.62956 0.03291 0.16894 0.0
C144 C 0.61374 0.0076 0.1195 0.0
C145 C 0.58587 0.01292 0.06114 0.0
C146 C 0.51662 0.06406 0.62103 0.0
C147 C 0.56925 0.98731 0.67786 0.0
O148 O 0.48519 0.00416 0.44527 0.0
O149 O 0.47557 0.95758 0.51434 0.0
O150 O 0.5069 0.94907 0.70886 0.0
O151 O 0.48894 0.98886 0.79039 0.0
O152 O 0.45377 0.02161 0.66189 0.0
O153 O 0.46719 0.04035 0.83159 0.0
O154 O 0.52382 0.02683 0.98541 0.0
O155 O 0.54711 0.06566 0.89929 0.0
O156 O 0.50767 0.07588 0.71336 0.0
O157 O 0.5272 0.03651 0.63346 0.0
O158 O 0.56084 1.00032 0.77116 0.0
O159 O 0.54965 0.98525 0.5948 0.0
H160 H 0.43886 0.93364 0.31468 0.0
H161 H 0.38378 0.93538 0.25444 0.0
H162 H 0.37207 0.02534 0.41467 0.0
H163 H 0.42732 0.02424 0.46897 0.0
H164 H 0.58165 0.09296 0.08711 0.0
H165 H 0.63001 0.08358 0.19254 0.0
H166 H 0.62284 0.98375 0.12677 0.0
H167 H 0.57389 0.99302 0.02424 0.0
C168 C 0.52816 0.45126 0.50901 0.0
Eu169 Eu 0.51077 0.47904 0.68817 0.0
C170 C 0.52386 0.42187 0.44753 0.0
C171 C 0.54911 0.41057 0.38505 0.0
C172 C 0.54659 0.3818 0.33051 0.0
C173 C 0.51864 0.36382 0.33683 0.0
C174 C 0.49301 0.37575 0.39732 0.0
C175 C 0.49574 0.40436 0.4533 0.0
C176 C 0.54944 0.49053 0.85807 0.0
C177 C 0.47292 0.43169 0.85671 0.0
C178 C 0.46863 0.52965 0.08693 0.0
Eu179 Eu 0.48008 0.50655 0.89622 0.0
C180 C 0.46757 0.56276 0.12633 0.0
C181 C 0.43852 0.57709 0.15073 0.0
C182 C 0.43728 0.60877 0.1831 0.0
C183 C 0.46507 0.62686 0.18949 0.0
C184 C 0.49413 0.61268 0.16499 0.0
C185 C 0.49544 0.58091 0.13464 0.0
C186 C 0.44701 0.51571 0.71071 0.0
C187 C 0.51372 0.55318 0.72683 0.0
O188 O 0.50419 0.47082 0.51451 0.0
O189 O 0.5434 0.44856 0.60111 0.0
O190 O 0.55732 0.49688 0.75828 0.0
O191 O 0.52241 0.47861 0.86236 0.0
O192 O 0.48849 0.43504 0.7633 0.0
O193 O 0.46645 0.45582 0.92085 0.0
O194 O 0.49651 0.51924 0.05727 0.0
O195 O 0.44598 0.52074 0.02063 0.0
O196 O 0.44793 0.5359 0.78972 0.0
O197 O 0.46185 0.49092 0.73572 0.0
O198 O 0.50999 0.54654 0.83121 0.0
O199 O 0.51111 0.53127 0.65113 0.0
H200 H 0.57108 0.42373 0.38022 0.0
H201 H 0.5669 0.37324 0.28574 0.0
H202 H 0.47084 0.36298 0.40177 0.0
H203 H 0.47609 0.41257 0.502 0.0
H204 H 0.41673 0.56395 0.1422 0.0
H205 H 0.41455 0.61941 0.2003 0.0
H206 H 0.51585 0.62622 0.16929 0.0
H207 H 0.51831 0.57083 0.11586 0.0
C208 C 0.04514 0.53988 0.49783 0.0
Eu209 Eu 0.02011 0.52195 0.68199 0.0
C210 C 0.07694 0.53872 0.4471 0.0
C211 C 0.09612 0.56587 0.44574 0.0
C212 C 0.12679 0.56468 0.40372 0.0
C213 C 0.13889 0.53637 0.36144 0.0
C214 C 0.11933 0.50953 0.35831 0.0
C215 C 0.08866 0.51065 0.40098 0.0
C216 C 0.01127 0.55586 0.86364 0.0
C217 C 0.07241 0.48398 0.83167 0.0
C218 C 0.97207 0.46405 0.06234 0.0
Eu219 Eu 0.99977 0.4838 0.88523 0.0
C220 C 0.93912 0.46474 0.1029 0.0
C221 C 0.92346 0.43627 0.12733 0.0
C222 C 0.89179 0.43631 0.16048 0.0
C223 C 0.87506 0.4649 0.17003 0.0
C224 C 0.89102 0.49342 0.14694 0.0
C225 C 0.92259 0.49336 0.11321 0.0
C226 C 0.00582 0.45098 0.698 0.0
C227 C 0.94689 0.51942 0.73599 0.0
O228 O 0.03029 0.51292 0.51119 0.0
O229 O 0.04183 0.55869 0.58147 0.0
O230 O 0.00428 0.56625 0.76691 0.0
O231 O 0.02439 0.52916 0.85947 0.0
O232 O 0.06487 0.49647 0.73598 0.0
O233 O 0.05166 0.48056 0.9111 0.0
O234 O 0.98711 0.49113 0.05529 0.0
O235 O 0.97717 0.44592 0.97825 0.0
O236 O 0.01378 0.4395 0.79231 0.0
O237 O 0.99393 0.47788 0.70865 0.0
O238 O 0.95528 0.5098 0.83433 0.0
O239 O 0.96773 0.52261 0.65647 0.0
H240 H 0.08757 0.58799 0.47865 0.0
H241 H 0.14116 0.58591 0.40469 0.0
H242 H 0.12806 0.48748 0.32541 0.0
H243 H 0.07437 0.48938 0.39926 0.0
H244 H 0.93564 0.4139 0.11923 0.0
H245 H 0.88027 0.41391 0.17718 0.0
H246 H 0.87935 0.51598 0.15701 0.0
H247 H 0.93393 0.51576 0.09497 0.0
C248 C 0.11841 0.01176 0.47927 0.0
C249 C 0.10688 0.99929 0.3813 0.0
C250 C 0.09973 0.01154 0.5736 0.0
C251 C 0.06888 0.99905 0.57263 0.0
H252 H 0.14244 0.02054 0.48423 0.0
H253 H 0.10982 0.02055 0.64828 0.0
S254 S 0.02641 0.96846 0.33089 0.0
N255 N 0.06191 0.97771 0.28489 0.0
N256 N 0.02684 0.97658 0.46213 0.0
C257 C 0.05664 0.98802 0.47339 0.0
C258 C 0.07567 0.98829 0.37764 0.0
C259 C 0.54864 0.09349 0.35206 0.0
C260 C 0.52753 0.11779 0.32374 0.0
C261 C 0.54435 0.07559 0.44702 0.0
C262 C 0.51944 0.08217 0.51905 0.0
H263 H 0.56869 0.08825 0.30069 0.0
H264 H 0.56119 0.05706 0.46563 0.0
S265 S 0.45787 0.14355 0.48401 0.0
N266 N 0.48051 0.14727 0.37497 0.0
N267 N 0.47327 0.1144 0.55648 0.0
C268 C 0.49821 0.10645 0.49245 0.0
C269 C 0.50204 0.12409 0.39395 0.0
C270 C 0.40674 0.56018 0.48312 0.0
C271 C 0.39841 0.53621 0.40946 0.0
C272 C 0.4229 0.5532 0.57936 0.0
C273 C 0.43161 0.52204 0.60543 0.0
H274 H 0.40014 0.58454 0.46788 0.0
H275 H 0.42834 0.57242 0.63428 0.0
S276 S 0.41773 0.45088 0.43706 0.0
N277 N 0.40183 0.48013 0.36652 0.0
N278 N 0.43227 0.46712 0.54825 0.0
C279 C 0.42462 0.49794 0.53104 0.0
C280 C 0.408 0.505 0.4328 0.0
C281 C 0.975 0.42321 0.42708 0.0
C282 C 0.99248 0.39557 0.40841 0.0
C283 C 0.98046 0.4416 0.51925 0.0
C284 C 0.00304 0.43259 0.5973 0.0
H285 H 0.95665 0.43047 0.3708 0.0
H286 H 0.96605 0.46243 0.53125 0.0
S287 S 0.05638 0.36341 0.58326 0.0
N288 N 0.03464 0.36103 0.47196 0.0
N289 N 0.04421 0.39538 0.64752 0.0
C290 C 0.02134 0.40558 0.57828 0.0
C291 C 0.01626 0.38713 0.48302 0.0
C292 C 0.91149 0.03378 0.11993 0.0
C293 C 0.89001 0.01009 0.15262 0.0
C294 C 0.93094 0.02982 0.0288 0.0
C295 C 0.92896 0.00242 0.96517 0.0
H296 H 0.91313 0.05578 0.16418 0.0
H297 H 0.94685 0.04884 0.00582 0.0
S298 S 0.87841 0.93248 0.01791 0.0
N299 N 0.8695 0.95725 0.11684 0.0
N300 N 0.90538 0.95058 0.94265 0.0
C301 C 0.90818 0.97828 0.99733 0.0
C302 C 0.88888 0.98191 0.09191 0.0
C303 C 0.50203 0.89565 0.01332 0.0
C304 C 0.47295 0.89872 0.06825 0.0
C305 C 0.51026 0.91605 0.9274 0.0
C306 C 0.49016 0.94081 0.89595 0.0
H307 H 0.5183 0.87692 0.03517 0.0
H308 H 0.53251 0.91249 0.88545 0.0
S309 S 0.41163 0.95948 0.01308 0.0
N310 N 0.42385 0.92833 0.08273 0.0
N311 N 0.44019 0.96765 0.92567 0.0
C312 C 0.4614 0.94467 0.95134 0.0
C313 C 0.45255 0.92333 0.03634 0.0
C314 C 0.5828 0.47958 0.13972 0.0
C315 C 0.60768 0.5016 0.14237 0.0
C316 C 0.56362 0.47681 0.04784 0.0
C317 C 0.56911 0.49548 0.95468 0.0
H318 H 0.57837 0.46403 0.2085 0.0
H319 H 0.54491 0.45926 0.04875 0.0
S320 S 0.62983 0.55799 0.92228 0.0
N321 N 0.63567 0.54369 0.04601 0.0
N322 N 0.5998 0.53782 0.87197 0.0
C323 C 0.59328 0.51814 0.95692 0.0
C324 C 0.6125 0.52143 0.05138 0.0
C325 C 0.01173 0.58205 0.15767 0.0
C326 C 0.98718 0.60443 0.16029 0.0
C327 C 0.01886 0.56566 0.06184 0.0
C328 C 0.00221 0.57178 0.96512 0.0
H329 H 0.02575 0.57744 0.22974 0.0
H330 H 0.03812 0.54881 0.06269 0.0
S331 S 0.93506 0.62711 0.93002 0.0
N332 N 0.94537 0.63082 0.05886 0.0
N333 N 0.9593 0.60054 0.87854 0.0
C334 C 0.97721 0.59354 0.96721 0.0
C335 C 0.96953 0.60973 0.06503 0.0
C336 C 0.94842 0.21519 0.26476 0.0
C337 C 0.97775 0.22876 0.23678 0.0
C338 C 0.94608 0.18378 0.30106 0.0
C339 C 0.97297 0.16435 0.3106 0.0
H340 H 0.92697 0.22906 0.25942 0.0
H341 H 0.92298 0.17498 0.32438 0.0
S342 S 0.05566 0.1888 0.25175 0.0
N343 N 0.03458 0.2209 0.22811 0.0
N344 N 0.03001 0.1611 0.28669 0.0
C345 C 0.00248 0.17754 0.28163 0.0
C346 C 0.00491 0.20984 0.24699 0.0
C347 C 0.29617 0.01382 0.21875 0.0
C348 C 0.27593 0.98742 0.21493 0.0
C349 C 0.32749 0.01116 0.25438 0.0
C350 C 0.33979 0.98218 0.29184 0.0
H351 H 0.28775 0.03705 0.19719 0.0
H352 H 0.34215 0.03219 0.25251 0.0
S353 S 0.29549 0.90642 0.31199 0.0
N354 N 0.27004 0.93143 0.25757 0.0
N355 N 0.3282 0.92692 0.33177 0.0
C356 C 0.31946 0.95574 0.29278 0.0
C357 C 0.28771 0.95829 0.25358 0.0
C358 C 0.53118 0.29788 0.1309 0.0
C359 C 0.51843 0.27137 0.18441 0.0
C360 C 0.53014 0.32789 0.17908 0.0
C361 C 0.517 0.33227 0.28359 0.0
H362 H 0.54181 0.29544 0.05111 0.0
H363 H 0.53992 0.34778 0.13438 0.0
S364 S 0.48246 0.26929 0.45942 0.0
N365 N 0.49285 0.25083 0.3469 0.0
N366 N 0.49219 0.30674 0.44016 0.0
C367 C 0.50433 0.30566 0.33775 0.0
C368 C 0.50483 0.27532 0.28761 0.0
C369 C 0.21041 0.52319 0.17897 0.0
C370 C 0.23558 0.53392 0.24366 0.0
C371 C 0.17917 0.52344 0.21803 0.0
C372 C 0.1721 0.53481 0.32276 0.0
H373 H 0.21476 0.51558 0.09645 0.0
H374 H 0.16037 0.51549 0.16495 0.0
S375 S 0.22993 0.56321 0.52688 0.0
N376 N 0.25161 0.55468 0.41907 0.0
N377 N 0.19306 0.55516 0.49267 0.0
C378 C 0.19719 0.54502 0.38883 0.0
C379 C 0.22887 0.54468 0.34912 0.0
C380 C 0.03963 0.77736 0.26322 0.0
C381 C 0.00961 0.76745 0.29886 0.0
C382 C 0.04402 0.80689 0.21284 0.0
C383 C 0.01857 0.82784 0.19646 0.0
H384 H 0.05991 0.76204 0.27378 0.0
H385 H 0.06763 0.81329 0.18644 0.0
S386 S 0.93518 0.81308 0.27958 0.0
N387 N 0.95408 0.78058 0.31571 0.0
N388 N 0.96205 0.8363 0.22312 0.0
C389 C 0.98824 0.81786 0.23086 0.0
C390 C 0.98386 0.78768 0.2817 0.0
C391 C 0.71568 0.01629 0.2264 0.0
C392 C 0.71827 0.02229 0.33862 0.0
C393 C 0.68655 0.01855 0.17289 0.0
C394 C 0.65921 0.02762 0.22937 0.0
H395 H 0.73642 0.01007 0.17935 0.0
H396 H 0.68558 0.01419 0.08612 0.0
S397 S 0.65315 0.04593 0.52312 0.0
N398 N 0.69083 0.03712 0.50466 0.0
N399 N 0.63611 0.04221 0.40296 0.0
C400 C 0.66129 0.03333 0.34161 0.0
C401 C 0.69084 0.0304 0.39667 0.0
C402 C 0.47444 0.71604 0.16947 0.0
C403 C 0.46255 0.7264 0.26977 0.0
C404 C 0.47535 0.68372 0.14445 0.0
C405 C 0.46382 0.66082 0.21807 0.0
H406 H 0.48364 0.73297 0.11093 0.0
H407 H 0.48517 0.67662 0.06704 0.0
S408 S 0.43149 0.67596 0.4933 0.0
N409 N 0.44015 0.71149 0.44482 0.0
N410 N 0.44103 0.65072 0.3965 0.0
C411 C 0.45186 0.67097 0.31865 0.0
C412 C 0.45145 0.70381 0.34486 0.0
C413 C 0.80035 0.44655 0.33348 0.0
C414 C 0.77805 0.46798 0.29105 0.0
C415 C 0.83145 0.44542 0.2934 0.0
C416 C 0.8414 0.4651 0.207 0.0
H417 H 0.79392 0.43018 0.39734 0.0
H418 H 0.84795 0.42935 0.33197 0.0
S419 S 0.79083 0.52111 0.0524 0.0
N420 N 0.76751 0.50704 0.14901 0.0
N421 N 0.82519 0.50351 0.07041 0.0
C422 C 0.81881 0.48508 0.15878 0.0
C423 C 0.78735 0.48672 0.20098 0.0
C424 C 0.06744 0.12772 0.93898 0.0
C425 C 0.05184 0.15414 0.89467 0.0
C426 C 0.05799 0.09696 0.91254 0.0
C427 C 0.03288 0.09162 0.8401 0.0
H428 H 0.08603 0.13071 0.99857 0.0
H429 H 0.07007 0.07725 0.95072 0.0
S430 S 0.98569 0.15279 0.69641 0.0
N431 N 0.01144 0.17296 0.76922 0.0
N432 N 0.9933 0.1152 0.72161 0.0
C433 C 0.01803 0.1178 0.79148 0.0
C434 C 0.02765 0.14907 0.81817 0.0
C435 C 0.35722 0.03152 0.748 0.0
C436 C 0.3483 0.0511 0.83504 0.0
C437 C 0.38894 0.02821 0.71813 0.0
C438 C 0.41298 0.0443 0.77425 0.0
H439 H 0.33978 0.01748 0.70542 0.0
H440 H 0.39469 0.01158 0.6544 0.0
S441 S 0.40187 0.10234 0.99641 0.0
N442 N 0.36585 0.08973 0.96852 0.0
N443 N 0.42552 0.08339 0.91214 0.0
C444 C 0.40427 0.06561 0.85638 0.0
C445 C 0.37192 0.06908 0.8867 0.0
C446 C 0.46389 0.34232 0.86159 0.0
C447 C 0.45474 0.33585 0.96967 0.0
C448 C 0.46861 0.37339 0.82477 0.0
C449 C 0.46443 0.39932 0.89458 0.0
H450 H 0.46807 0.3232 0.80505 0.0
H451 H 0.47624 0.37695 0.74137 0.0
S452 S 0.43955 0.39521 0.18498 0.0
N453 N 0.44081 0.358 0.14563 0.0
N454 N 0.44958 0.41633 0.07704 0.0
C455 C 0.45434 0.39322 0.00228 0.0
C456 C 0.44953 0.36153 0.03967 0.0
C457 C 0.1617 0.48473 0.8206 0.0
C458 C 0.17007 0.46426 0.90661 0.0
C459 C 0.13001 0.48997 0.79369 0.0
C460 C 0.10555 0.47503 0.85208 0.0
H461 H 0.17961 0.49802 0.77675 0.0
H462 H 0.12469 0.50697 0.73003 0.0
S463 S 0.11491 0.41488 0.07067 0.0
N464 N 0.15137 0.42577 0.04016 0.0
N465 N 0.09178 0.43573 0.9896 0.0
C466 C 0.11359 0.45282 0.93293 0.0
C467 C 0.14587 0.44737 0.96008 0.0
C468 C 0.99371 0.84867 0.72816 0.0
C469 C 0.00265 0.84139 0.62114 0.0
C470 C 0.98334 0.87912 0.75477 0.0
C471 C 0.98116 0.90309 0.67501 0.0
H472 H 0.99646 0.83136 0.79279 0.0
H473 H 0.97857 0.88429 0.83924 0.0
S474 S 0.99403 0.89309 0.37896 0.0
N475 N 0.00386 0.85866 0.43266 0.0
N476 N 0.98286 0.91538 0.48159 0.0
C477 C 0.98652 0.89484 0.56597 0.0
C478 C 0.99788 0.86416 0.5394 0.0
C479 C 0.63313 0.92758 0.61804 0.0
C480 C 0.65951 0.94023 0.67149 0.0
C481 C 0.60434 0.94388 0.61543 0.0
C482 C 0.60075 0.97276 0.67002 0.0
H483 H 0.63466 0.90473 0.57893 0.0
H484 H 0.58439 0.93306 0.57473 0.0
S485 S 0.66268 0.01566 0.82375 0.0
N486 N 0.68058 0.98355 0.77899 0.0
N487 N 0.626 0.01357 0.77843 0.0
C488 C 0.62706 0.98578 0.72344 0.0
C489 C 0.65662 0.96965 0.72317 0.0
C490 C 0.53408 0.62624 0.56139 0.0
C491 C 0.51808 0.65042 0.61752 0.0
C492 C 0.53325 0.59485 0.59843 0.0
C493 C 0.51683 0.58659 0.69383 0.0
H494 H 0.54678 0.6314 0.48672 0.0
H495 H 0.54528 0.57688 0.55153 0.0
S496 S 0.47018 0.64035 0.86922 0.0
N497 N 0.48481 0.6635 0.77295 0.0
N498 N 0.48363 0.60465 0.84266 0.0
C499 C 0.50115 0.61047 0.75178 0.0
C500 C 0.50168 0.64235 0.71361 0.0
C501 C 0.85919 0.51033 0.77865 0.0
C502 C 0.84942 0.49975 0.67611 0.0
C503 C 0.89058 0.51958 0.7959 0.0
C504 C 0.91286 0.51907 0.71043 0.0
H505 H 0.8431 0.50948 0.84725 0.0
H506 H 0.89784 0.52539 0.87796 0.0
S507 S 0.89672 0.499 0.42221 0.0
N508 N 0.86273 0.49319 0.48525 0.0
N509 N 0.92147 0.51149 0.51624 0.0
C510 C 0.90231 0.5116 0.60516 0.0
C511 C 0.87062 0.50155 0.5884 0.0
loop_
_geom_bond_atom_site_label_1
_geom_bond_atom_site_label_2
_geom_bond_distance
_geom_bond_site_symmetry_2
_ccdc_geom_bond_type
O0 Cd1 2.300 . S
O0 C7 1.275 . S
Cd1 O0 2.300 . S
Cd1 O9 2.381 . S
Cd1 O10 2.378 . S
O2 Cd3 2.385 . S
O2 C7 1.255 . S
Cd3 O2 2.385 . S
Cd3 O4 2.317 . S
O4 Cd3 2.317 . S
O4 C5 1.232 . S
C5 O4 1.232 . S
C5 O6 1.218 . S
O6 C5 1.218 . S
C7 O0 1.275 . S
C7 O2 1.255 . S
C8 O9 1.258 . S
C8 O10 1.256 . S
O9 Cd1 2.381 . S
O9 C8 1.258 . S
O10 Cd1 2.378 . S
O10 C8 1.256 . S
O11 Cd12 2.300 1_655 S
O11 C18 1.275 1_655 S
Cd12 O11 2.300 1_455 S
Cd12 O20 2.381 1_455 S
Cd12 O21 2.378 . S
O13 Cd14 2.385 . S
O13 C18 1.255 . S
Cd14 O13 2.385 . S
Cd14 O15 2.317 . S
O15 Cd14 2.317 . S
O15 C16 1.232 . S
C16 O15 1.232 . S
C16 O17 1.218 . S
O17 C16 1.218 . S
C18 O11 1.275 1_455 S
C18 O13 1.255 . S
C19 O20 1.258 1_455 S
C19 O21 1.256 . S
O20 Cd12 2.381 1_655 S
O20 C19 1.258 1_655 S
O21 Cd12 2.378 . S
O21 C19 1.256 . S
O22 Cd23 2.300 1_565 S
O22 C29 1.275 1_565 S
Cd23 O22 2.300 1_545 S
Cd23 O31 2.381 1_545 S
Cd23 O32 2.378 . S
O24 Cd25 2.385 . S
O24 C29 1.255 . S
Cd25 O24 2.385 . S
Cd25 O26 2.317 . S
O26 Cd25 2.317 . S
O26 C27 1.232 . S
C27 O26 1.232 . S
C27 O28 1.218 . S
O28 C27 1.218 . S
C29 O22 1.275 1_545 S
C29 O24 1.255 . S
C30 O31 1.258 1_545 S
C30 O32 1.256 . S
O31 Cd23 2.381 1_565 S
O31 C30 1.258 1_565 S
O32 Cd23 2.378 . S
O32 C30 1.256 . S
O33 Cd34 2.300 . S
O33 C40 1.275 . S
Cd34 O33 2.300 . S
Cd34 O42 2.381 . S
Cd34 O43 2.378 . S
O35 Cd36 2.385 . S
O35 C40 1.255 . S
Cd36 O35 2.385 . S
Cd36 O37 2.317 . S
O37 Cd36 2.317 . S
O37 C38 1.232 . S
C38 O37 1.232 . S
C38 O39 1.218 . S
O39 C38 1.218 . S
C40 O33 1.275 . S
C40 O35 1.255 . S
C41 O42 1.258 . S
C41 O43 1.256 . S
O42 Cd34 2.381 . S
O42 C41 1.258 . S
O43 Cd34 2.378 . S
O43 C41 1.256 . S
O44 Cd45 2.300 . S
O44 C51 1.275 . S
Cd45 O44 2.300 . S
Cd45 O53 2.381 . S
Cd45 O54 2.378 . S
O46 Cd47 2.385 1_554 S
O46 C51 1.255 . S
Cd47 O46 2.385 1_556 S
Cd47 O48 2.317 . S
O48 Cd47 2.317 . S
O48 C49 1.232 . S
C49 O48 1.232 . S
C49 O50 1.218 . S
O50 C49 1.218 . S
C51 O44 1.275 . S
C51 O46 1.255 . S
C52 O53 1.258 . S
C52 O54 1.256 . S
O53 Cd45 2.381 . S
O53 C52 1.258 . S
O54 Cd45 2.378 . S
O54 C52 1.256 . S
O55 Cd56 2.300 1_655 S
O55 C62 1.275 1_655 S
Cd56 O55 2.300 1_455 S
Cd56 O64 2.381 1_455 S
Cd56 O65 2.378 . S
O57 Cd58 2.385 1_554 S
O57 C62 1.255 . S
Cd58 O57 2.385 1_556 S
Cd58 O59 2.317 . S
O59 Cd58 2.317 . S
O59 C60 1.232 . S
C60 O59 1.232 . S
C60 O61 1.218 . S
O61 C60 1.218 . S
C62 O55 1.275 1_455 S
C62 O57 1.255 . S
C63 O64 1.258 1_455 S
C63 O65 1.256 . S
O64 Cd56 2.381 1_655 S
O64 C63 1.258 1_655 S
O65 Cd56 2.378 . S
O65 C63 1.256 . S
O66 Cd67 2.300 1_565 S
O66 C73 1.275 1_565 S
Cd67 O66 2.300 1_545 S
Cd67 O75 2.381 1_545 S
Cd67 O76 2.378 . S
O68 Cd69 2.385 1_554 S
O68 C73 1.255 . S
Cd69 O68 2.385 1_556 S
Cd69 O70 2.317 . S
O70 Cd69 2.317 . S
O70 C71 1.232 . S
C71 O70 1.232 . S
C71 O72 1.218 . S
O72 C71 1.218 . S
C73 O66 1.275 1_545 S
C73 O68 1.255 . S
C74 O75 1.258 1_545 S
C74 O76 1.256 . S
O75 Cd67 2.381 1_565 S
O75 C74 1.258 1_565 S
O76 Cd67 2.378 . S
O76 C74 1.256 . S
O77 Cd78 2.300 . S
O77 C84 1.275 . S
Cd78 O77 2.300 . S
Cd78 O86 2.381 . S
Cd78 O87 2.378 . S
O79 Cd80 2.385 1_554 S
O79 C84 1.255 . S
Cd80 O79 2.385 1_556 S
Cd80 O81 2.317 . S
O81 Cd80 2.317 . S
O81 C82 1.232 . S
C82 O81 1.232 . S
C82 O83 1.218 . S
O83 C82 1.218 . S
C84 O77 1.275 . S
C84 O79 1.255 . S
C85 O86 1.258 . S
C85 O87 1.256 . S
O86 Cd78 2.381 . S
O86 C85 1.258 . S
O87 Cd78 2.378 . S
O87 C85 1.256 . S
C88 Eu89 2.835 . S
C88 C90 1.500 . S
C88 O108 1.257 . S
C88 O109 1.260 . S
Eu89 C88 2.835 . S
Eu89 O108 2.473 . S
Eu89 O109 2.480 . S
Eu89 O110 2.430 . S
Eu89 O111 2.670 1_545 S
Eu89 O112 2.394 . S
Eu89 O117 2.355 1_655 S
Eu89 O119 2.374 1_545 S
C90 C88 1.500 . S
C90 C91 1.377 . S
C90 C95 1.377 . S
C91 C90 1.377 . S
C91 C92 1.395 . S
C91 H120 0.931 . S
C92 C91 1.395 . S
C92 C93 1.383 . S
C92 H121 0.931 . S
C93 C92 1.383 . S
C93 C94 1.394 . S
C94 C93 1.394 . S
C94 C95 1.378 . S
C94 H122 0.931 1_655 S
C95 C90 1.377 . S
C95 C94 1.378 . S
C95 H123 0.931 1_655 S
C96 O110 1.259 . S
C96 O111 1.270 1_545 S
C97 O112 1.251 1_455 S
C97 O113 1.251 . S
C98 Eu99 2.835 . S
C98 C100 1.500 1_556 S
C98 O114 1.257 . S
C98 O115 1.260 . S
Eu99 C98 2.835 . S
Eu99 O111 2.355 1_455 S
Eu99 O113 2.374 1_565 S
Eu99 O114 2.473 . S
Eu99 O115 2.480 . S
Eu99 O116 2.430 . S
Eu99 O117 2.670 1_565 S
Eu99 O118 2.394 . S
C100 C98 1.500 1_554 S
C100 C101 1.377 . S
C100 C105 1.377 . S
C101 C100 1.377 . S
C101 C102 1.395 . S
C101 H124 0.931 . S
C102 C101 1.395 . S
C102 C103 1.383 . S
C102 H125 0.931 . S
C103 C102 1.383 . S
C103 C104 1.394 . S
C104 C103 1.394 . S
C104 C105 1.378 . S
C104 H126 0.931 1_455 S
C105 C100 1.377 . S
C105 C104 1.378 . S
C105 H127 0.931 1_455 S
C106 O116 1.259 . S
C106 O117 1.270 1_565 S
C107 O118 1.251 1_655 S
C107 O119 1.251 . S
O108 C88 1.257 . S
O108 Eu89 2.473 . S
O109 C88 1.260 . S
O109 Eu89 2.480 . S
O110 Eu89 2.430 . S
O110 C96 1.259 . S
O111 Eu89 2.670 1_565 S
O111 C96 1.270 1_565 S
O111 Eu99 2.355 1_655 S
O112 Eu89 2.394 . S
O112 C97 1.251 1_655 S
O113 C97 1.251 . S
O113 Eu99 2.374 1_545 S
O114 C98 1.257 . S
O114 Eu99 2.473 . S
O115 C98 1.260 . S
O115 Eu99 2.480 . S
O116 Eu99 2.430 . S
O116 C106 1.259 . S
O117 Eu89 2.355 1_455 S
O117 Eu99 2.670 1_545 S
O117 C106 1.270 1_545 S
O118 Eu99 2.394 . S
O118 C107 1.251 1_455 S
O119 Eu89 2.374 1_565 S
O119 C107 1.251 . S
H120 C91 0.931 . S
H121 C92 0.931 . S
H122 C94 0.931 1_455 S
H123 C95 0.931 1_455 S
H124 C101 0.931 . S
H125 C102 0.931 . S
H126 C104 0.931 1_655 S
H127 C105 0.931 1_655 S
C128 Eu129 2.835 . S
C128 C130 1.500 . S
C128 O148 1.257 . S
C128 O149 1.260 . S
Eu129 C128 2.835 . S
Eu129 O148 2.473 . S
Eu129 O149 2.480 . S
Eu129 O150 2.430 . S
Eu129 O151 2.670 . S
Eu129 O152 2.394 . S
Eu129 O157 2.355 1_565 S
Eu129 O159 2.374 . S
C130 C128 1.500 . S
C130 C131 1.377 . S
C130 C135 1.377 . S
C131 C130 1.377 . S
C131 C132 1.395 . S
C131 H160 0.931 . S
C132 C131 1.395 . S
C132 C133 1.383 . S
C132 H161 0.931 . S
C133 C132 1.383 . S
C133 C134 1.394 . S
C134 C133 1.394 . S
C134 C135 1.378 . S
C134 H162 0.931 1_565 S
C135 C130 1.377 . S
C135 C134 1.378 . S
C135 H163 0.931 1_565 S
C136 O150 1.259 . S
C136 O151 1.270 . S
C137 O152 1.251 1_545 S
C137 O153 1.251 . S
C138 Eu139 2.835 . S
C138 C140 1.500 1_556 S
C138 O154 1.257 . S
C138 O155 1.260 . S
Eu139 C138 2.835 . S
Eu139 O151 2.355 1_545 S
Eu139 O153 2.374 . S
Eu139 O154 2.473 . S
Eu139 O155 2.480 . S
Eu139 O156 2.430 . S
Eu139 O157 2.670 . S
Eu139 O158 2.394 . S
C140 C138 1.500 1_554 S
C140 C141 1.377 . S
C140 C145 1.377 . S
C141 C140 1.377 . S
C141 C142 1.395 . S
C141 H164 0.931 . S
C142 C141 1.395 . S
C142 C143 1.383 . S
C142 H165 0.931 . S
C143 C142 1.383 . S
C143 C144 1.394 . S
C144 C143 1.394 . S
C144 C145 1.378 . S
C144 H166 0.931 1_545 S
C145 C140 1.377 . S
C145 C144 1.378 . S
C145 H167 0.931 1_545 S
C146 O156 1.259 . S
C146 O157 1.270 . S
C147 O158 1.251 1_565 S
C147 O159 1.251 . S
O148 C128 1.257 . S
O148 Eu129 2.473 . S
O149 C128 1.260 . S
O149 Eu129 2.480 . S
O150 Eu129 2.430 . S
O150 C136 1.259 . S
O151 Eu129 2.670 . S
O151 C136 1.270 . S
O151 Eu139 2.355 1_565 S
O152 Eu129 2.394 . S
O152 C137 1.251 1_565 S
O153 C137 1.251 . S
O153 Eu139 2.374 . S
O154 C138 1.257 . S
O154 Eu139 2.473 . S
O155 C138 1.260 . S
O155 Eu139 2.480 . S
O156 Eu139 2.430 . S
O156 C146 1.259 . S
O157 Eu129 2.355 1_545 S
O157 Eu139 2.670 . S
O157 C146 1.270 . S
O158 Eu139 2.394 . S
O158 C147 1.251 1_545 S
O159 Eu129 2.374 . S
O159 C147 1.251 . S
H160 C131 0.931 . S
H161 C132 0.931 . S
H162 C134 0.931 1_545 S
H163 C135 0.931 1_545 S
H164 C141 0.931 . S
H165 C142 0.931 . S
H166 C144 0.931 1_565 S
H167 C145 0.931 1_565 S
C168 Eu169 2.835 . S
C168 C170 1.500 . S
C168 O188 1.257 . S
C168 O189 1.260 . S
Eu169 C168 2.835 . S
Eu169 O188 2.473 . S
Eu169 O189 2.480 . S
Eu169 O190 2.430 . S
Eu169 O191 2.670 . S
Eu169 O192 2.394 . S
Eu169 O197 2.355 . S
Eu169 O199 2.374 . S
C170 C168 1.500 . S
C170 C171 1.377 . S
C170 C175 1.377 . S
C171 C170 1.377 . S
C171 C172 1.395 . S
C171 H200 0.931 . S
C172 C171 1.395 . S
C172 C173 1.383 . S
C172 H201 0.931 . S
C173 C172 1.383 . S
C173 C174 1.394 . S
C174 C173 1.394 . S
C174 C175 1.378 . S
C174 H202 0.931 . S
C175 C170 1.377 . S
C175 C174 1.378 . S
C175 H203 0.931 . S
C176 O190 1.259 . S
C176 O191 1.270 . S
C177 O192 1.251 . S
C177 O193 1.251 . S
C178 Eu179 2.835 . S
C178 C180 1.500 1_556 S
C178 O194 1.257 . S
C178 O195 1.260 . S
Eu179 C178 2.835 . S
Eu179 O191 2.355 . S
Eu179 O193 2.374 . S
Eu179 O194 2.473 . S
Eu179 O195 2.480 . S
Eu179 O196 2.430 . S
Eu179 O197 2.670 . S
Eu179 O198 2.394 . S
C180 C178 1.500 1_554 S
C180 C181 1.377 . S
C180 C185 1.377 . S
C181 C180 1.377 . S
C181 C182 1.395 . S
C181 H204 0.931 . S
C182 C181 1.395 . S
C182 C183 1.383 . S
C182 H205 0.931 . S
C183 C182 1.383 . S
C183 C184 1.394 . S
C184 C183 1.394 . S
C184 C185 1.378 . S
C184 H206 0.931 . S
C185 C180 1.377 . S
C185 C184 1.378 . S
C185 H207 0.931 . S
C186 O196 1.259 . S
C186 O197 1.270 . S
C187 O198 1.251 . S
C187 O199 1.251 . S
O188 C168 1.257 . S
O188 Eu169 2.473 . S
O189 C168 1.260 . S
O189 Eu169 2.480 . S
O190 Eu169 2.430 . S
O190 C176 1.259 . S
O191 Eu169 2.670 . S
O191 C176 1.270 . S
O191 Eu179 2.355 . S
O192 Eu169 2.394 . S
O192 C177 1.251 . S
O193 C177 1.251 . S
O193 Eu179 2.374 . S
O194 C178 1.257 . S
O194 Eu179 2.473 . S
O195 C178 1.260 . S
O195 Eu179 2.480 . S
O196 Eu179 2.430 . S
O196 C186 1.259 . S
O197 Eu169 2.355 . S
O197 Eu179 2.670 . S
O197 C186 1.270 . S
O198 Eu179 2.394 . S
O198 C187 1.251 . S
O199 Eu169 2.374 . S
O199 C187 1.251 . S
H200 C171 0.931 . S
H201 C172 0.931 . S
H202 C174 0.931 . S
H203 C175 0.931 . S
H204 C181 0.931 . S
H205 C182 0.931 . S
H206 C184 0.931 . S
H207 C185 0.931 . S
C208 Eu209 2.835 . S
C208 C210 1.500 . S
C208 O228 1.257 . S
C208 O229 1.260 . S
Eu209 C208 2.835 . S
Eu209 O228 2.473 . S
Eu209 O229 2.480 . S
Eu209 O230 2.430 . S
Eu209 O231 2.670 1_455 S
Eu209 O232 2.394 . S
Eu209 O237 2.355 . S
Eu209 O239 2.374 1_455 S
C210 C208 1.500 . S
C210 C211 1.377 . S
C210 C215 1.377 . S
C211 C210 1.377 . S
C211 C212 1.395 . S
C211 H240 0.931 . S
C212 C211 1.395 . S
C212 C213 1.383 . S
C212 H241 0.931 . S
C213 C212 1.383 . S
C213 C214 1.394 . S
C214 C213 1.394 . S
C214 C215 1.378 . S
C214 H242 0.931 . S
C215 C210 1.377 . S
C215 C214 1.378 . S
C215 H243 0.931 . S
C216 O230 1.264 . S
C216 O231 1.266 1_455 S
C217 O232 1.251 . S
C217 O233 1.251 . S
C218 Eu219 2.835 . S
C218 C220 1.500 1_556 S
C218 O234 1.257 . S
C218 O235 1.260 . S
Eu219 C218 2.835 . S
Eu219 O231 2.355 . S
Eu219 O233 2.374 1_655 S
Eu219 O234 2.473 . S
Eu219 O235 2.480 . S
Eu219 O236 2.430 . S
Eu219 O237 2.670 1_655 S
Eu219 O238 2.394 . S
C220 C218 1.500 1_554 S
C220 C221 1.377 . S
C220 C225 1.377 . S
C221 C220 1.377 . S
C221 C222 1.395 . S
C221 H244 0.931 . S
C222 C221 1.395 . S
C222 C223 1.383 . S
C222 H245 0.931 . S
C223 C222 1.383 . S
C223 C224 1.394 . S
C224 C223 1.394 . S
C224 C225 1.378 . S
C224 H246 0.931 . S
C225 C220 1.377 . S
C225 C224 1.378 . S
C225 H247 0.931 . S
C226 O236 1.260 . S
C226 O237 1.269 1_655 S
C227 O238 1.251 . S
C227 O239 1.251 . S
O228 C208 1.257 . S
O228 Eu209 2.473 . S
O229 C208 1.260 . S
O229 Eu209 2.480 . S
O230 Eu209 2.430 . S
O230 C216 1.264 . S
O231 Eu209 2.670 1_655 S
O231 C216 1.266 1_655 S
O231 Eu219 2.355 . S
O232 Eu209 2.394 . S
O232 C217 1.251 . S
O233 C217 1.251 . S
O233 Eu219 2.374 1_455 S
O234 C218 1.257 . S
O234 Eu219 2.473 . S
O235 C218 1.260 . S
O235 Eu219 2.480 . S
O236 Eu219 2.430 . S
O236 C226 1.260 . S
O237 Eu209 2.355 . S
O237 Eu219 2.670 1_455 S
O237 C226 1.269 1_455 S
O238 Eu219 2.394 . S
O238 C227 1.251 . S
O239 Eu209 2.374 1_655 S
O239 C227 1.251 . S
H240 C211 0.931 . S
H241 C212 0.931 . S
H242 C214 0.931 . S
H243 C215 0.931 . S
H244 C221 0.931 . S
H245 C222 0.931 . S
H246 C224 0.931 . S
H247 C225 0.931 . S
C248 C249 1.365 1_565 S
C248 C250 1.419 . S
C248 H252 0.930 . S
C249 C248 1.365 1_545 S
C249 C258 1.433 . S
C250 C248 1.419 . S
C250 C251 1.361 1_565 S
C250 H253 0.929 . S
C251 C250 1.361 1_545 S
C251 C257 1.431 . S
H252 C248 0.930 . S
H253 C250 0.929 . S
S254 N255 1.613 . S
S254 N256 1.610 . S
N255 S254 1.613 . S
N255 C258 1.350 . S
N256 S254 1.610 . S
N256 C257 1.351 . S
C257 C251 1.431 . S
C257 N256 1.351 . S
C257 C258 1.434 . S
C258 C249 1.433 . S
C258 N255 1.350 . S
C258 C257 1.434 . S
C259 C260 1.369 . S
C259 C261 1.419 . S
C259 H263 0.930 . S
C260 C259 1.369 . S
C260 C269 1.429 . S
C261 C259 1.419 . S
C261 C262 1.363 . S
C261 H264 0.929 . S
C262 C261 1.363 . S
C262 C268 1.428 . S
H263 C259 0.930 . S
H264 C261 0.929 . S
S265 N266 1.613 . S
S265 N267 1.610 . S
N266 S265 1.613 . S
N266 C269 1.350 . S
N267 S265 1.610 . S
N267 C268 1.351 . S
C268 C262 1.428 . S
C268 N267 1.351 . S
C268 C269 1.434 . S
C269 C260 1.429 . S
C269 N266 1.350 . S
C269 C268 1.434 . S
C270 C271 1.369 . S
C270 C272 1.419 . S
C270 H274 0.930 . S
C271 C270 1.369 . S
C271 C280 1.429 . S
C272 C270 1.419 . S
C272 C273 1.363 . S
C272 H275 0.929 . S
C273 C272 1.363 . S
C273 C279 1.428 . S
H274 C270 0.930 . S
H275 C272 0.929 . S
S276 N277 1.613 . S
S276 N278 1.610 . S
N277 S276 1.613 . S
N277 C280 1.350 . S
N278 S276 1.610 . S
N278 C279 1.351 . S
C279 C273 1.428 . S
C279 N278 1.351 . S
C279 C280 1.434 . S
C280 C271 1.429 . S
C280 N277 1.350 . S
C280 C279 1.434 . S
C281 C282 1.348 1_655 S
C281 C283 1.419 . S
C281 H285 0.930 . S
C282 C281 1.348 1_455 S
C282 C291 1.451 . S
C283 C281 1.419 . S
C283 C284 1.363 1_655 S
C283 H286 0.929 . S
C284 C283 1.363 1_455 S
C284 C290 1.428 . S
H285 C281 0.930 . S
H286 C283 0.929 . S
S287 N288 1.613 . S
S287 N289 1.610 . S
N288 S287 1.613 . S
N288 C291 1.350 . S
N289 S287 1.610 . S
N289 C290 1.351 . S
C290 C284 1.428 . S
C290 N289 1.351 . S
C290 C291 1.434 . S
C291 C282 1.451 . S
C291 N288 1.350 . S
C291 C290 1.434 . S
C292 C293 1.365 1_545 S
C292 C294 1.419 . S
C292 H296 0.930 . S
C293 C292 1.365 1_565 S
C293 C302 1.433 . S
C294 C292 1.419 . S
C294 C295 1.361 1_545 S
C294 H297 0.929 . S
C295 C294 1.361 1_565 S
C295 C301 1.430 . S
H296 C292 0.930 . S
H297 C294 0.929 . S
S298 N299 1.613 . S
S298 N300 1.610 . S
N299 S298 1.613 . S
N299 C302 1.350 . S
N300 S298 1.610 . S
N300 C301 1.351 . S
C301 C295 1.430 . S
C301 N300 1.351 . S
C301 C302 1.434 . S
C302 C293 1.433 . S
C302 N299 1.350 . S
C302 C301 1.434 . S
C303 C304 1.369 . S
C303 C305 1.419 . S
C303 H307 0.930 . S
C304 C303 1.369 . S
C304 C313 1.429 . S
C305 C303 1.419 . S
C305 C306 1.363 . S
C305 H308 0.929 . S
C306 C305 1.363 . S
C306 C312 1.428 . S
H307 C303 0.930 . S
H308 C305 0.929 . S
S309 N310 1.613 . S
S309 N311 1.610 1_554 S
N310 S309 1.613 . S
N310 C313 1.350 . S
N311 S309 1.610 1_556 S
N311 C312 1.351 1_556 S
C312 C306 1.428 . S
C312 N311 1.351 1_554 S
C312 C313 1.434 . S
C313 C304 1.429 . S
C313 N310 1.350 . S
C313 C312 1.434 . S
C314 C315 1.369 . S
C314 C316 1.419 . S
C314 H318 0.930 . S
C315 C314 1.369 . S
C315 C324 1.429 . S
C316 C314 1.419 . S
C316 C317 1.363 . S
C316 H319 0.929 . S
C317 C316 1.363 . S
C317 C323 1.428 . S
H318 C314 0.930 . S
H319 C316 0.929 . S
S320 N321 1.613 . S
S320 N322 1.610 1_554 S
N321 S320 1.613 . S
N321 C324 1.350 . S
N322 S320 1.610 1_556 S
N322 C323 1.351 1_556 S
C323 C317 1.428 . S
C323 N322 1.351 1_554 S
C323 C324 1.434 . S
C324 C315 1.429 . S
C324 N321 1.350 . S
C324 C323 1.434 . S
C325 C326 1.372 . S
C325 C327 1.419 . S
C325 H329 0.930 . S
C326 C325 1.372 . S
C326 C335 1.427 1_655 S
C327 C325 1.419 . S
C327 C328 1.363 . S
C327 H330 0.929 . S
C328 C327 1.363 . S
C328 C334 1.428 1_655 S
H329 C325 0.930 . S
H330 C327 0.929 . S
S331 N332 1.613 . S
S331 N333 1.610 1_554 S
N332 S331 1.613 . S
N332 C335 1.350 . S
N333 S331 1.610 1_556 S
N333 C334 1.351 1_556 S
C334 C328 1.428 1_455 S
C334 N333 1.351 1_554 S
C334 C335 1.434 . S
C335 C326 1.427 1_455 S
C335 N332 1.350 . S
C335 C334 1.434 . S
C336 C337 1.369 . S
C336 C338 1.419 . S
C336 H340 0.930 . S
C337 C336 1.369 . S
C337 C346 1.429 1_655 S
C338 C336 1.419 . S
C338 C339 1.363 . S
C338 H341 0.929 . S
C339 C338 1.363 . S
C339 C345 1.428 . S
H340 C336 0.930 . S
H341 C338 0.929 . S
S342 N343 1.613 . S
S342 N344 1.610 1_455 S
N343 S342 1.613 . S
N343 C346 1.349 . S
N344 S342 1.610 1_655 S
N344 C345 1.351 . S
C345 C339 1.428 . S
C345 N344 1.351 . S
C345 C346 1.435 1_655 S
C346 C337 1.429 1_455 S
C346 N343 1.349 . S
C346 C345 1.435 1_455 S
C347 C348 1.369 1_545 S
C347 C349 1.419 1_545 S
C347 H351 0.930 . S
C348 C347 1.369 1_565 S
C348 C357 1.429 . S
C349 C347 1.419 1_565 S
C349 C350 1.363 . S
C349 H352 0.927 1_565 S
C350 C349 1.363 . S
C350 C356 1.428 . S
H351 C347 0.930 . S
H352 C349 0.927 1_545 S
S353 N354 1.613 . S
S353 N355 1.610 . S
N354 S353 1.613 . S
N354 C357 1.350 . S
N355 S353 1.610 . S
N355 C356 1.351 . S
C356 C350 1.428 . S
C356 N355 1.351 . S
C356 C357 1.434 . S
C357 C348 1.429 . S
C357 N354 1.350 . S
C357 C356 1.434 . S
C358 C359 1.369 . S
C358 C360 1.419 . S
C358 H362 0.930 . S
C359 C358 1.369 . S
C359 C368 1.429 . S
C360 C358 1.419 . S
C360 C361 1.363 . S
C360 H363 0.929 . S
C361 C360 1.363 . S
C361 C367 1.428 . S
H362 C358 0.930 . S
H363 C360 0.929 . S
S364 N365 1.613 . S
S364 N366 1.610 . S
N365 S364 1.613 . S
N365 C368 1.350 . S
N366 S364 1.610 . S
N366 C367 1.351 . S
C367 C361 1.428 . S
C367 N366 1.351 . S
C367 C368 1.434 . S
C368 C359 1.429 . S
C368 N365 1.350 . S
C368 C367 1.434 . S
C369 C370 1.369 . S
C369 C371 1.419 . S
C369 H373 0.930 . S
C370 C369 1.369 . S
C370 C379 1.429 . S
C371 C369 1.419 . S
C371 C372 1.363 . S
C371 H374 0.929 . S
C372 C371 1.363 . S
C372 C378 1.428 . S
H373 C369 0.930 . S
H374 C371 0.929 . S
S375 N376 1.613 . S
S375 N377 1.610 . S
N376 S375 1.613 . S
N376 C379 1.350 . S
N377 S375 1.610 . S
N377 C378 1.351 . S
C378 C372 1.428 . S
C378 N377 1.351 . S
C378 C379 1.434 . S
C379 C370 1.429 . S
C379 N376 1.350 . S
C379 C378 1.434 . S
C380 C381 1.401 . S
C380 C382 1.419 . S
C380 H384 0.930 . S
C381 C380 1.401 . S
C381 C390 1.418 1_455 S
C382 C380 1.419 . S
C382 C383 1.363 . S
C382 H385 0.929 . S
C383 C382 1.363 . S
C383 C389 1.428 . S
H384 C380 0.930 . S
H385 C382 0.929 . S
S386 N387 1.613 . S
S386 N388 1.610 . S
N387 S386 1.613 . S
N387 C390 1.350 . S
N388 S386 1.610 . S
N388 C389 1.351 1_655 S
C389 C383 1.428 . S
C389 N388 1.351 1_455 S
C389 C390 1.434 1_455 S
C390 C381 1.418 1_655 S
C390 N387 1.350 . S
C390 C389 1.434 1_655 S
C391 C392 1.369 . S
C391 C393 1.419 . S
C391 H395 0.930 1_545 S
C392 C391 1.369 . S
C392 C401 1.429 . S
C393 C391 1.419 . S
C393 C394 1.363 . S
C393 H396 0.929 . S
C394 C393 1.363 . S
C394 C400 1.428 . S
H395 C391 0.930 1_565 S
H396 C393 0.929 . S
S397 N398 1.613 . S
S397 N399 1.610 . S
N398 S397 1.613 . S
N398 C401 1.350 . S
N399 S397 1.610 . S
N399 C400 1.351 . S
C400 C394 1.428 . S
C400 N399 1.351 . S
C400 C401 1.434 . S
C401 C392 1.429 . S
C401 N398 1.350 . S
C401 C400 1.434 . S
C402 C403 1.369 . S
C402 C404 1.419 . S
C402 H406 0.930 . S
C403 C402 1.369 . S
C403 C412 1.429 . S
C404 C402 1.419 . S
C404 C405 1.363 . S
C404 H407 0.929 . S
C405 C404 1.363 . S
C405 C411 1.428 . S
H406 C402 0.930 . S
H407 C404 0.929 . S
S408 N409 1.613 . S
S408 N410 1.610 . S
N409 S408 1.613 . S
N409 C412 1.350 . S
N410 S408 1.610 . S
N410 C411 1.351 . S
C411 C405 1.428 . S
C411 N410 1.351 . S
C411 C412 1.434 . S
C412 C403 1.429 . S
C412 N409 1.350 . S
C412 C411 1.434 . S
C413 C414 1.369 . S
C413 C415 1.419 . S
C413 H417 0.930 . S
C414 C413 1.369 . S
C414 C423 1.429 . S
C415 C413 1.419 . S
C415 C416 1.363 . S
C415 H418 0.929 . S
C416 C415 1.363 . S
C416 C422 1.428 . S
H417 C413 0.930 . S
H418 C415 0.929 . S
S419 N420 1.613 1_556 S
S419 N421 1.610 1_556 S
N420 S419 1.613 1_554 S
N420 C423 1.350 . S
N421 S419 1.610 1_554 S
N421 C422 1.351 . S
C422 C416 1.428 . S
C422 N421 1.351 . S
C422 C423 1.434 . S
C423 C414 1.429 . S
C423 N420 1.350 . S
C423 C422 1.434 . S
C424 C425 1.369 . S
C424 C426 1.419 . S
C424 H428 0.930 . S
C425 C424 1.369 . S
C425 C434 1.429 1_455 S
C426 C424 1.419 . S
C426 C427 1.363 . S
C426 H429 0.929 . S
C427 C426 1.363 . S
C427 C433 1.428 1_455 S
H428 C424 0.930 . S
H429 C426 0.929 . S
S430 N431 1.613 . S
S430 N432 1.610 . S
N431 S430 1.613 . S
N431 C434 1.350 . S
N432 S430 1.610 . S
N432 C433 1.351 . S
C433 C427 1.428 1_655 S
C433 N432 1.351 . S
C433 C434 1.434 . S
C434 C425 1.429 1_655 S
C434 N431 1.350 . S
C434 C433 1.434 . S
C435 C436 1.369 1_565 S
C435 C437 1.419 . S
C435 H439 0.930 . S
C436 C435 1.369 1_545 S
C436 C445 1.429 . S
C437 C435 1.419 . S
C437 C438 1.363 1_565 S
C437 H440 0.929 . S
C438 C437 1.363 1_545 S
C438 C444 1.428 . S
H439 C435 0.930 . S
H440 C437 0.929 . S
S441 N442 1.613 . S
S441 N443 1.610 . S
N442 S441 1.613 . S
N442 C445 1.350 . S
N443 S441 1.610 . S
N443 C444 1.351 . S
C444 C438 1.428 . S
C444 N443 1.351 . S
C444 C445 1.434 . S
C445 C436 1.429 . S
C445 N442 1.350 . S
C445 C444 1.434 . S
C446 C447 1.369 . S
C446 C448 1.419 . S
C446 H450 0.930 . S
C447 C446 1.369 . S
C447 C456 1.429 . S
C448 C446 1.419 . S
C448 C449 1.363 . S
C448 H451 0.929 . S
C449 C448 1.363 . S
C449 C455 1.428 . S
H450 C446 0.930 . S
H451 C448 0.929 . S
S452 N453 1.613 . S
S452 N454 1.610 . S
N453 S452 1.613 . S
N453 C456 1.350 1_554 S
N454 S452 1.610 . S
N454 C455 1.351 1_554 S
C455 C449 1.428 . S
C455 N454 1.351 1_556 S
C455 C456 1.434 . S
C456 C447 1.429 . S
C456 N453 1.350 1_556 S
C456 C455 1.434 . S
C457 C458 1.369 . S
C457 C459 1.419 . S
C457 H461 0.930 . S
C458 C457 1.369 . S
C458 C467 1.429 . S
C459 C457 1.419 . S
C459 C460 1.363 . S
C459 H462 0.929 . S
C460 C459 1.363 . S
C460 C466 1.428 . S
H461 C457 0.930 . S
H462 C459 0.929 . S
S463 N464 1.613 . S
S463 N465 1.610 . S
N464 S463 1.613 . S
N464 C467 1.350 . S
N465 S463 1.610 . S
N465 C466 1.351 . S
C466 C460 1.428 . S
C466 N465 1.351 . S
C466 C467 1.434 . S
C467 C458 1.429 . S
C467 N464 1.350 . S
C467 C466 1.434 . S
C468 C469 1.369 . S
C468 C470 1.419 . S
C468 H472 0.930 . S
C469 C468 1.369 . S
C469 C478 1.429 . S
C470 C468 1.419 . S
C470 C471 1.363 . S
C470 H473 0.929 . S
C471 C470 1.363 . S
C471 C477 1.428 . S
H472 C468 0.930 . S
H473 C470 0.929 . S
S474 N475 1.613 . S
S474 N476 1.610 . S
N475 S474 1.613 . S
N475 C478 1.350 . S
N476 S474 1.610 . S
N476 C477 1.351 . S
C477 C471 1.428 . S
C477 N476 1.351 . S
C477 C478 1.434 . S
C478 C469 1.429 . S
C478 N475 1.350 . S
C478 C477 1.434 . S
C479 C480 1.369 . S
C479 C481 1.419 . S
C479 H483 0.930 . S
C480 C479 1.369 . S
C480 C489 1.429 1_565 S
C481 C479 1.419 . S
C481 C482 1.363 . S
C481 H484 0.929 . S
C482 C481 1.363 . S
C482 C488 1.428 1_565 S
H483 C479 0.930 . S
H484 C481 0.929 . S
S485 N486 1.613 . S
S485 N487 1.610 . S
N486 S485 1.613 . S
N486 C489 1.350 . S
N487 S485 1.610 . S
N487 C488 1.351 . S
C488 C482 1.428 1_545 S
C488 N487 1.351 . S
C488 C489 1.434 . S
C489 C480 1.429 1_545 S
C489 N486 1.350 . S
C489 C488 1.434 . S
C490 C491 1.369 . S
C490 C492 1.419 . S
C490 H494 0.930 . S
C491 C490 1.369 . S
C491 C500 1.429 . S
C492 C490 1.419 . S
C492 C493 1.363 . S
C492 H495 0.929 . S
C493 C492 1.363 . S
C493 C499 1.428 . S
H494 C490 0.930 . S
H495 C492 0.929 . S
S496 N497 1.613 . S
S496 N498 1.610 . S
N497 S496 1.613 . S
N497 C500 1.350 . S
N498 S496 1.610 . S
N498 C499 1.351 . S
C499 C493 1.428 . S
C499 N498 1.351 . S
C499 C500 1.434 . S
C500 C491 1.429 . S
C500 N497 1.350 . S
C500 C499 1.434 . S
C501 C502 1.369 . S
C501 C503 1.419 . S
C501 H505 0.930 . S
C502 C501 1.369 . S
C502 C511 1.429 . S
C503 C501 1.419 . S
C503 C504 1.363 . S
C503 H506 0.929 . S
C504 C503 1.363 . S
C504 C510 1.428 . S
H505 C501 0.930 . S
H506 C503 0.929 . S
S507 N508 1.613 . S
S507 N509 1.610 . S
N508 S507 1.613 . S
N508 C511 1.350 . S
N509 S507 1.610 . S
N509 C510 1.351 . S
C510 C504 1.428 . S
C510 N509 1.351 . S
C510 C511 1.434 . S
C511 C502 1.429 . S
C511 N508 1.350 . S
C511 C510 1.434 . S
C249 C74 1.950 . S
C251 C106 2.157 1_545 S
C262 C146 2.175 . S
C260 C85 1.946 . S
C273 C186 2.182 . S
C271 C52 1.961 . S
C284 C226 2.166 1_455 S
C282 C63 1.952 . S
C295 C96 2.159 1_564 S
C293 C30 1.953 1_565 S
C304 C41 1.966 . S
C306 C136 2.176 1_554 S
C315 C8 1.979 . S
C317 C176 2.182 1_554 S
C326 C19 1.950 1_655 S
C328 C216 2.166 1_654 S
C339 C93 0.819 . S
C337 C62 0.839 1_655 S
C350 C133 0.827 . S
C348 C73 0.835 1_565 S
C361 C173 0.804 . S
C359 C84 0.830 . S
C370 C51 0.823 . S
C372 C213 0.802 . S
C381 C18 0.828 . S
C383 C103 0.814 . S
C394 C143 0.822 . S
C392 C29 0.809 . S
C405 C183 0.815 . S
C403 C40 0.804 . S
C414 C7 0.795 . S
C416 C223 0.811 . S
C425 C60 1.928 . S
C427 C97 2.537 . S
C436 C71 1.881 . S
C438 C137 2.511 . S
C449 C177 2.498 . S
C447 C82 1.838 . S
C460 C217 2.532 . S
C458 C49 1.873 . S
C469 C16 2.017 1_655 S
C471 C107 2.547 . S
C482 C147 2.508 . S
C480 C27 1.989 1_565 S
C493 C187 2.495 . S
C491 C38 2.019 . S
C502 C5 2.039 . S
C504 C227 2.533 . S
