# Generated by pormake.
# Topology zzz, (3,6)-cn, num edge types: 1
# Building blocks:
#     Node 0, Type 0, BuildingBlock: OLANEW_clean_sbu_2, # of connection points: 3
#     Node 1, Type 0, BuildingBlock: OLANEW_clean_sbu_2, # of connection points: 3
#     Node 2, Type 0, BuildingBlock: OLANEW_clean_sbu_2, # of connection points: 3
#     Node 3, Type 0, BuildingBlock: OLANEW_clean_sbu_2, # of connection points: 3
#     Node 4, Type 0, BuildingBlock: OLANEW_clean_sbu_2, # of connection points: 3
#     Node 5, Type 0, BuildingBlock: OLANEW_clean_sbu_2, # of connection points: 3
#     Node 6, Type 0, BuildingBlock: OLANEW_clean_sbu_2, # of connection points: 3
#     Node 7, Type 0, BuildingBlock: OLANEW_clean_sbu_2, # of connection points: 3
#     Node 8, Type 1, BuildingBlock: KUMBUR_clean_sbu_0, # of connection points: 6
#     Node 9, Type 1, BuildingBlock: KUMBUR_clean_sbu_0, # of connection points: 6
#     Node 10, Type 1, BuildingBlock: KUMBUR_clean_sbu_0, # of connection points: 6
#     Node 11, Type 1, BuildingBlock: KUMBUR_clean_sbu_0, # of connection points: 6
#     Edge 12, Type (0, 1), BuildingBlock: MIFKUJ_clean_linker_0, # of connection points: 2
#     Edge 13, Type (0, 1), BuildingBlock: MIFKUJ_clean_linker_0, # of connection points: 2
#     Edge 14, Type (0, 1), BuildingBlock: MIFKUJ_clean_linker_0, # of connection points: 2
#     Edge 15, Type (0, 1), BuildingBlock: MIFKUJ_clean_linker_0, # of connection points: 2
#     Edge 16, Type (0, 1), BuildingBlock: MIFKUJ_clean_linker_0, # of connection points: 2
#     Edge 17, Type (0, 1), BuildingBlock: MIFKUJ_clean_linker_0, # of connection points: 2
#     Edge 18, Type (0, 1), BuildingBlock: MIFKUJ_clean_linker_0, # of connection points: 2
#     Edge 19, Type (0, 1), BuildingBlock: MIFKUJ_clean_linker_0, # of connection points: 2
#     Edge 20, Type (0, 1), BuildingBlock: MIFKUJ_clean_linker_0, # of connection points: 2
#     Edge 21, Type (0, 1), BuildingBlock: MIFKUJ_clean_linker_0, # of connection points: 2
#     Edge 22, Type (0, 1), BuildingBlock: MIFKUJ_clean_linker_0, # of connection points: 2
#     Edge 23, Type (0, 1), BuildingBlock: MIFKUJ_clean_linker_0, # of connection points: 2
#     Edge 24, Type (0, 1), BuildingBlock: MIFKUJ_clean_linker_0, # of connection points: 2
#     Edge 25, Type (0, 1), BuildingBlock: MIFKUJ_clean_linker_0, # of connection points: 2
#     Edge 26, Type (0, 1), BuildingBlock: MIFKUJ_clean_linker_0, # of connection points: 2
#     Edge 27, Type (0, 1), BuildingBlock: MIFKUJ_clean_linker_0, # of connection points: 2
#     Edge 28, Type (0, 1), BuildingBlock: MIFKUJ_clean_linker_0, # of connection points: 2
#     Edge 29, Type (0, 1), BuildingBlock: MIFKUJ_clean_linker_0, # of connection points: 2
#     Edge 30, Type (0, 1), BuildingBlock: MIFKUJ_clean_linker_0, # of connection points: 2
#     Edge 31, Type (0, 1), BuildingBlock: MIFKUJ_clean_linker_0, # of connection points: 2
#     Edge 32, Type (0, 1), BuildingBlock: MIFKUJ_clean_linker_0, # of connection points: 2
#     Edge 33, Type (0, 1), BuildingBlock: MIFKUJ_clean_linker_0, # of connection points: 2
#     Edge 34, Type (0, 1), BuildingBlock: MIFKUJ_clean_linker_0, # of connection points: 2
#     Edge 35, Type (0, 1), BuildingBlock: MIFKUJ_clean_linker_0, # of connection points: 2
# Relax obj value: 0.134
# Max RMSD: 0.157
# Mean RMSD: 0.121
data_MOF--net-zzz--node1-OLANEW_clean_sbu_2--node2-KUMBUR_clean_sbu_0--edge1-MIFKUJ_clean_linker_0
_symmetry_space_group_name_H-M    P1
_symmetry_Int_Tables_number       1
_symmetry_cell_setting            triclinic
loop_
_symmetry_equiv_pos_as_xyz
'x, y, z'
_cell_length_a     68.988396
_cell_length_b     68.994921
_cell_length_c     21.263226
_cell_angle_alpha  90.034844
_cell_angle_beta   90.072281
_cell_angle_gamma 89.93183
loop_
_atom_site_label
_atom_site_type_symbol
_atom_site_fract_x
_atom_site_fract_y
_atom_site_fract_z
_atom_type_partial_charge
O0 O 0.74534 0.60615 0.97131 0.0
Cd1 Cd 0.71566 0.62375 0.9969 0.0
O2 O 0.74926 0.59922 0.07102 0.0
Cd3 Cd 0.76548 0.58794 0.15119 0.0
O4 O 0.78742 0.57704 0.21564 0.0
C5 C 0.79862 0.58914 0.24224 0.0
O6 O 0.79614 0.60772 0.23136 0.0
C7 C 0.755 0.59777 0.01435 0.0
C8 C 0.6843 0.60564 0.93899 0.0
O9 O 0.69341 0.61943 0.91157 0.0
O10 O 0.68981 0.60069 0.99429 0.0
O11 O 0.9173 0.75947 0.98038 0.0
Cd12 Cd 0.90038 0.72896 0.99864 0.0
O13 O 0.90894 0.7703 0.07375 0.0
Cd14 Cd 0.91214 0.79244 0.14643 0.0
O15 O 0.92367 0.8165 0.2014 0.0
C16 C 0.91892 0.83375 0.18731 0.0
O17 O 0.90641 0.83665 0.14164 0.0
C18 C 0.91749 0.77283 0.0215 0.0
C19 C 0.9195 0.69823 0.9402 0.0
O20 O 0.90671 0.7082 0.91071 0.0
O21 O 0.92317 0.70275 0.99747 0.0
O22 O 0.75611 0.89667 0.96583 0.0
Cd23 Cd 0.78522 0.87771 0.9889 0.0
O24 O 0.74601 0.891 0.06188 0.0
Cd25 Cd 0.72593 0.89774 0.13788 0.0
O26 O 0.70427 0.9126 0.1945 0.0
C27 C 0.68645 0.90829 0.18886 0.0
O28 O 0.68141 0.89428 0.15033 0.0
C29 C 0.74345 0.89891 0.00853 0.0
C30 C 0.81774 0.89536 0.93662 0.0
O31 O 0.80878 0.88184 0.90723 0.0
O32 O 0.81145 0.90035 0.99098 0.0
O33 O 0.6251 0.76126 0.98931 0.0
Cd34 Cd 0.641 0.79087 0.02533 0.0
O35 O 0.6141 0.75842 0.08526 0.0
Cd36 Cd 0.59672 0.74604 0.16115 0.0
O37 O 0.58268 0.72629 0.22674 0.0
C38 C 0.59179 0.71081 0.24 0.0
O39 O 0.60908 0.70803 0.21582 0.0
C40 C 0.61506 0.75197 0.0292 0.0
C41 C 0.62165 0.8231 0.97742 0.0
O42 O 0.63624 0.81575 0.94868 0.0
O43 O 0.61638 0.81537 0.02943 0.0
O44 O 0.26484 0.3961 0.19743 0.0
Cd45 Cd 0.29678 0.38519 0.16219 0.0
O46 O 0.25076 0.38862 0.10788 0.0
Cd47 Cd 0.2262 0.3898 0.0426 0.0
O48 O 0.20338 0.39813 0.97631 0.0
C49 C 0.20439 0.41492 0.95198 0.0
O50 O 0.21905 0.42615 0.96708 0.0
C51 C 0.24969 0.39535 0.16346 0.0
C52 C 0.32612 0.4057 0.2237 0.0
O53 O 0.31925 0.41155 0.17099 0.0
O54 O 0.31924 0.39004 0.2471 0.0
O55 O 0.10468 0.28002 0.15082 0.0
Cd56 Cd 0.12046 0.30828 0.1039 0.0
O57 O 0.10715 0.2622 0.0654 0.0
Cd58 Cd 0.10362 0.23447 0.01628 0.0
O59 O 0.09258 0.20681 0.98109 0.0
C60 C 0.09036 0.20451 0.92226 0.0
O61 O 0.09538 0.21864 0.88423 0.0
C62 C 0.10144 0.26421 0.12192 0.0
C63 C 0.10525 0.34187 0.1582 0.0
O64 O 0.0978 0.33458 0.10825 0.0
O65 O 0.1202 0.33351 0.1817 0.0
O66 O 0.25576 0.09647 0.13415 0.0
Cd67 Cd 0.22666 0.11304 0.0972 0.0
O68 O 0.27272 0.11155 0.06222 0.0
Cd69 Cd 0.29852 0.11511 0.00445 0.0
O70 O 0.32221 0.10939 0.9396 0.0
C71 C 0.31923 0.09713 0.89602 0.0
O72 O 0.30202 0.08912 0.89113 0.0
C73 C 0.27189 0.09942 0.10713 0.0
C74 C 0.19437 0.10135 0.16571 0.0
O75 O 0.20042 0.09143 0.11868 0.0
O76 O 0.20351 0.11689 0.18013 0.0
O77 O 0.38954 0.25239 0.18487 0.0
Cd78 Cd 0.37566 0.2213 0.15423 0.0
O79 O 0.40457 0.25318 0.09389 0.0
Cd80 Cd 0.42248 0.26923 0.02701 0.0
O81 O 0.436 0.2935 0.97809 0.0
C82 C 0.43304 0.29636 0.91984 0.0
O83 O 0.42224 0.28404 0.88834 0.0
C84 C 0.40115 0.26072 0.14733 0.0
C85 C 0.39574 0.19131 0.21335 0.0
O86 O 0.40162 0.19836 0.16099 0.0
O87 O 0.38021 0.1983 0.23745 0.0
Tb88 Tb 0.01368 0.00896 0.6272 0.0
C89 C 0.94496 0.01547 0.44193 0.0
C90 C 0.95693 0.00017 0.34744 0.0
C91 C 0.92246 0.99955 0.37061 0.0
C92 C 0.96022 0.01056 0.40365 0.0
C93 C 0.92581 0.01051 0.42523 0.0
C94 C 0.93803 0.99434 0.3318 0.0
C95 C 0.91468 0.029 0.51461 0.0
N96 N 0.94883 0.02593 0.49427 0.0
C97 C 0.93395 0.03351 0.52909 0.0
C98 C 0.9106 0.01717 0.46299 0.0
Tb99 Tb 0.98077 0.03234 0.51603 0.0
N100 N 0.97825 0.01635 0.42091 0.0
C101 C 0.99351 0.01336 0.38076 0.0
C102 C 0.97269 0.99619 0.30827 0.0
C103 C 0.991 0.00307 0.32462 0.0
H104 H 0.93703 0.04254 0.56947 0.0
H105 H 0.00326 0.00035 0.29414 0.0
H106 H 0.93525 0.98617 0.28921 0.0
H107 H 0.90302 0.0346 0.5434 0.0
H108 H 0.00791 0.01825 0.39182 0.0
H109 H 0.99959 0.0468 0.84544 0.0
H110 H 0.97081 0.98816 0.26489 0.0
H111 H 0.05491 0.99163 0.57084 0.0
H112 H 0.99124 0.02704 0.75306 0.0
H113 H 0.08996 0.99602 0.58898 0.0
H114 H 0.90788 0.99539 0.35729 0.0
H115 H 0.0334 0.05754 0.86231 0.0
H116 H 0.06838 0.05604 0.8287 0.0
H117 H 0.89568 0.01369 0.4518 0.0
H118 H 0.09318 0.0419 0.75902 0.0
N119 N 0.01996 0.0269 0.716 0.0
C120 C 0.0061 0.03148 0.75953 0.0
C121 C 0.02983 0.04884 0.82147 0.0
C122 C 0.0442 0.0429 0.77932 0.0
C123 C 0.01075 0.04274 0.81223 0.0
C124 C 0.03872 0.03161 0.72695 0.0
H125 H 0.1014 0.01894 0.67056 0.0
N126 N 0.04649 0.012 0.64106 0.0
C127 C 0.07958 0.00402 0.61699 0.0
C128 C 0.05255 0.02376 0.68815 0.0
C129 C 0.05968 0.00155 0.60692 0.0
C130 C 0.08599 0.01702 0.66293 0.0
C131 C 0.07241 0.02687 0.69993 0.0
O132 O 0.02205 0.97965 0.63314 0.0
O133 O 0.99543 0.00652 0.54562 0.0
O134 O 0.96361 0.01185 0.57175 0.0
O135 O 0.98345 0.00808 0.66019 0.0
O136 O 0.01991 0.9902 0.54596 0.0
O137 O 0.00412 0.99277 0.7046 0.0
O138 O 0.96627 0.05892 0.50742 0.0
O139 O 0.99903 0.03496 0.59742 0.0
O140 O 0.03166 0.02847 0.57198 0.0
O141 O 0.01131 0.03465 0.48575 0.0
O142 O 0.97373 0.04978 0.59968 0.0
O143 O 0.99144 0.05287 0.45115 0.0
C144 C 0.00459 0.99416 0.51405 0.0
C145 C 0.02306 0.9661 0.73542 0.0
C146 C 0.02174 0.93992 0.81222 0.0
C147 C 0.0129 0.95113 0.76514 0.0
C148 C 0.04104 0.9439 0.82919 0.0
C149 C 0.04221 0.97011 0.75321 0.0
C150 C 0.05115 0.95899 0.79995 0.0
C151 C 0.96685 0.00557 0.62977 0.0
C152 C 0.01307 0.97715 0.68634 0.0
C153 C 0.078 0.03909 0.74963 0.0
C154 C 0.06388 0.04714 0.78928 0.0
C155 C 0.98961 0.04692 0.62983 0.0
C156 C 0.98791 0.08488 0.49 0.0
C157 C 0.00091 0.09478 0.4504 0.0
C158 C 0.00923 0.1125 0.46967 0.0
C159 C 0.00468 0.11983 0.52964 0.0
C160 C 0.9832 0.09297 0.54873 0.0
C161 C 0.99181 0.11006 0.56869 0.0
C162 C 0.02847 0.03508 0.51432 0.0
C163 C 0.97939 0.06616 0.47038 0.0
H164 H 0.99812 0.94802 0.75079 0.0
H165 H 0.0482 0.93553 0.86551 0.0
H166 H 0.05022 0.98172 0.73105 0.0
H167 H 0.06595 0.96206 0.81358 0.0
H168 H 0.00449 0.08872 0.40484 0.0
H169 H 0.01057 0.1335 0.54563 0.0
H170 H 0.97286 0.08616 0.57981 0.0
H171 H 0.9882 0.11578 0.61443 0.0
Tb172 Tb 0.52435 0.02328 0.64064 0.0
C173 C 0.51467 0.95131 0.46873 0.0
C174 C 0.53347 0.95886 0.37627 0.0
C175 C 0.529 0.92527 0.40727 0.0
C176 C 0.52258 0.96481 0.42899 0.0
C177 C 0.51723 0.93134 0.45746 0.0
C178 C 0.53715 0.93904 0.3667 0.0
C179 C 0.49452 0.92502 0.54126 0.0
N180 N 0.50323 0.9578 0.5159 0.0
C181 C 0.49244 0.94501 0.55029 0.0
C182 C 0.50725 0.91813 0.49537 0.0
Tb183 Tb 0.50078 0.99066 0.52874 0.0
N184 N 0.51849 0.98373 0.43977 0.0
C185 C 0.52352 0.99737 0.39599 0.0
C186 C 0.53968 0.97293 0.33359 0.0
C187 C 0.53437 0.99223 0.34293 0.0
H188 H 0.48266 0.95022 0.58617 0.0
H189 H 0.53873 0.0032 0.30947 0.0
H190 H 0.5457 0.9342 0.32697 0.0
H191 H 0.48634 0.91496 0.56982 0.0
H192 H 0.51977 0.01241 0.40217 0.0
H193 H 0.4807 0.01364 0.84975 0.0
H194 H 0.54806 0.96898 0.29244 0.0
H195 H 0.54511 0.06288 0.58484 0.0
H196 H 0.50243 0.00328 0.76459 0.0
H197 H 0.54168 0.09833 0.59653 0.0
H198 H 0.53137 0.91 0.39822 0.0
H199 H 0.47116 0.0481 0.85947 0.0
H200 H 0.47516 0.08255 0.82213 0.0
H201 H 0.50879 0.90265 0.48825 0.0
H202 H 0.49193 0.10578 0.75301 0.0
N203 N 0.50506 0.03152 0.72469 0.0
C204 C 0.49864 0.01841 0.76819 0.0
C205 C 0.48082 0.04365 0.82199 0.0
C206 C 0.48858 0.05722 0.7802 0.0
C207 C 0.48622 0.02421 0.81674 0.0
C208 C 0.50098 0.05059 0.73212 0.0
H209 H 0.51725 0.11183 0.66971 0.0
N210 N 0.52281 0.05634 0.65062 0.0
C211 C 0.53265 0.0887 0.62391 0.0
C212 C 0.51027 0.06353 0.69363 0.0
C213 C 0.5346 0.06858 0.61757 0.0
C214 C 0.5188 0.09627 0.66509 0.0
C215 C 0.50762 0.08364 0.70149 0.0
O216 O 0.55377 0.03033 0.65407 0.0
O217 O 0.52696 0.00398 0.56191 0.0
O218 O 0.51848 0.97243 0.59048 0.0
O219 O 0.52229 0.99336 0.67657 0.0
O220 O 0.54517 0.02714 0.5634 0.0
O221 O 0.53832 0.01261 0.72097 0.0
O222 O 0.4715 0.98226 0.52109 0.0
O223 O 0.49814 0.01012 0.60682 0.0
O224 O 0.50741 0.04182 0.57805 0.0
O225 O 0.50191 0.02075 0.49315 0.0
O226 O 0.48069 0.98652 0.60775 0.0
O227 O 0.4847 0.00119 0.45266 0.0
C228 C 0.54055 0.01189 0.53219 0.0
C229 C 0.56494 0.03004 0.75969 0.0
C230 C 0.58838 0.02641 0.84462 0.0
C231 C 0.57771 0.01852 0.79465 0.0
C232 C 0.58604 0.04611 0.85961 0.0
C233 C 0.56241 0.04961 0.77556 0.0
C234 C 0.57297 0.05758 0.8255 0.0
C235 C 0.5236 0.97605 0.64952 0.0
C236 C 0.55465 0.02095 0.70716 0.0
C237 C 0.49442 0.09039 0.74678 0.0
C238 C 0.48487 0.07717 0.78611 0.0
C239 C 0.48458 0.00234 0.63706 0.0
C240 C 0.45792 0.98313 0.41878 0.0
C241 C 0.44242 0.99363 0.39359 0.0
C242 C 0.43179 0.98646 0.34226 0.0
C243 C 0.43673 0.9682 0.3174 0.0
C244 C 0.46283 0.96504 0.39344 0.0
C245 C 0.45214 0.95757 0.34305 0.0
C246 C 0.50134 0.03815 0.52003 0.0
C247 C 0.46903 0.99212 0.46952 0.0
H248 H 0.5797 0.00341 0.78187 0.0
H249 H 0.59421 0.05256 0.89777 0.0
H250 H 0.55244 0.05867 0.74936 0.0
H251 H 0.57112 0.07272 0.83755 0.0
H252 H 0.4387 0.00753 0.41422 0.0
H253 H 0.42896 0.96229 0.27749 0.0
H254 H 0.4749 0.95682 0.41219 0.0
H255 H 0.45594 0.94361 0.32331 0.0
Tb256 Tb 0.51347 0.49693 0.52612 0.0
C257 C 0.44948 0.51495 0.71798 0.0
C258 C 0.42394 0.52847 0.65369 0.0
C259 C 0.41591 0.51187 0.75104 0.0
C260 C 0.44372 0.52452 0.66442 0.0
C261 C 0.43573 0.50885 0.76274 0.0
C262 C 0.41004 0.52178 0.69674 0.0
C263 C 0.46227 0.49942 0.83027 0.0
N264 N 0.46874 0.51284 0.72818 0.0
C265 C 0.47533 0.50596 0.78469 0.0
C266 C 0.44237 0.50067 0.81896 0.0
Tb267 Tb 0.48912 0.52332 0.65021 0.0
N268 N 0.45767 0.53124 0.62534 0.0
C269 C 0.45281 0.54333 0.57679 0.0
C270 C 0.41883 0.53975 0.6016 0.0
C271 C 0.43336 0.54741 0.56345 0.0
H272 H 0.49067 0.50504 0.79415 0.0
H273 H 0.42962 0.55656 0.52392 0.0
H274 H 0.39479 0.52479 0.68966 0.0
H275 H 0.46757 0.49353 0.87422 0.0
H276 H 0.46381 0.54952 0.54698 0.0
H277 H 0.57177 0.46138 0.6517 0.0
H278 H 0.40381 0.54317 0.59167 0.0
H279 H 0.51272 0.51725 0.38499 0.0
H280 H 0.53782 0.46959 0.62887 0.0
H281 H 0.53636 0.52867 0.30644 0.0
H282 H 0.40509 0.5072 0.78466 0.0
H283 H 0.59798 0.4744 0.58486 0.0
H284 H 0.60786 0.49406 0.49077 0.0
H285 H 0.43229 0.4959 0.85472 0.0
H286 H 0.59823 0.51242 0.39639 0.0
N287 N 0.54457 0.48798 0.5513 0.0
C288 C 0.54902 0.47558 0.59942 0.0
C289 C 0.5831 0.47837 0.57528 0.0
C290 C 0.57843 0.49021 0.52417 0.0
C291 C 0.56832 0.47086 0.61273 0.0
C292 C 0.55878 0.49465 0.51305 0.0
H293 H 0.57153 0.5251 0.32655 0.0
N294 N 0.53426 0.50777 0.45002 0.0
C295 C 0.54137 0.52211 0.34973 0.0
C296 C 0.55343 0.5049 0.46034 0.0
C297 C 0.52801 0.51559 0.3944 0.0
C298 C 0.56121 0.52011 0.36131 0.0
C299 C 0.56747 0.51113 0.41674 0.0
O300 O 0.50038 0.48387 0.44757 0.0
O301 O 0.48643 0.5068 0.56498 0.0
O302 O 0.48124 0.49311 0.66478 0.0
O303 O 0.50477 0.47739 0.60327 0.0
O304 O 0.48986 0.50941 0.47068 0.0
O305 O 0.51617 0.46673 0.51524 0.0
O306 O 0.5027 0.5376 0.7257 0.0
O307 O 0.51602 0.51309 0.61176 0.0
O308 O 0.52246 0.52693 0.51678 0.0
O309 O 0.4973 0.54239 0.57071 0.0
O310 O 0.51307 0.51161 0.70633 0.0
O311 O 0.4857 0.55353 0.65835 0.0
C312 C 0.47755 0.5115 0.51553 0.0
C313 C 0.51424 0.45493 0.41102 0.0
C314 C 0.50918 0.42856 0.33633 0.0
C315 C 0.5028 0.43985 0.38733 0.0
C316 C 0.52737 0.43265 0.30949 0.0
C317 C 0.53235 0.45878 0.38405 0.0
C318 C 0.53885 0.44765 0.33338 0.0
C319 C 0.49084 0.47749 0.64633 0.0
C320 C 0.50649 0.46666 0.46261 0.0
C321 C 0.58718 0.5076 0.42897 0.0
C322 C 0.59266 0.49715 0.48267 0.0
C323 C 0.52509 0.50869 0.66113 0.0
C324 C 0.48849 0.56656 0.76078 0.0
C325 C 0.49987 0.58205 0.78205 0.0
C326 C 0.4938 0.5935 0.83303 0.0
C327 C 0.47607 0.58924 0.86246 0.0
C328 C 0.47075 0.56258 0.79007 0.0
C329 C 0.46459 0.57392 0.84077 0.0
C330 C 0.51244 0.54262 0.53204 0.0
C331 C 0.49598 0.55447 0.70961 0.0
H332 H 0.48896 0.4368 0.40935 0.0
H333 H 0.53266 0.42437 0.26975 0.0
H334 H 0.54137 0.47033 0.40188 0.0
H335 H 0.55281 0.45069 0.31241 0.0
H336 H 0.51369 0.58492 0.75964 0.0
H337 H 0.471 0.59789 0.90167 0.0
H338 H 0.46176 0.55073 0.7741 0.0
H339 H 0.45091 0.5708 0.86344 0.0
Tb340 Tb 0.0197 0.52413 0.54147 0.0
C341 C 0.99922 0.44939 0.6868 0.0
C342 C 0.98683 0.42676 0.60983 0.0
C343 C 0.00121 0.41476 0.70674 0.0
C344 C 0.99071 0.44591 0.62928 0.0
C345 C 0.00461 0.43389 0.72634 0.0
C346 C 0.99213 0.41121 0.6489 0.0
C347 C 0.01493 0.4574 0.80351 0.0
N348 N 0.0017 0.46807 0.70474 0.0
C349 C 0.00902 0.47227 0.7631 0.0
C350 C 0.01279 0.43811 0.78498 0.0
Tb351 Tb 0.99108 0.49139 0.63597 0.0
N352 N 0.98529 0.46135 0.59397 0.0
C353 C 0.97515 0.45858 0.53941 0.0
C354 C 0.97719 0.42387 0.55268 0.0
C355 C 0.97129 0.43987 0.51742 0.0
H356 H 0.01074 0.48708 0.77831 0.0
H357 H 0.96353 0.43782 0.47364 0.0
H358 H 0.98901 0.39641 0.6354 0.0
H359 H 0.02103 0.46083 0.84908 0.0
H360 H 0.97004 0.47074 0.51216 0.0
H361 H 0.0537 0.56932 0.72089 0.0
H362 H 0.97385 0.40942 0.53607 0.0
H363 H 0.99972 0.53622 0.40473 0.0
H364 H 0.04662 0.53904 0.66792 0.0
H365 H 0.98822 0.56591 0.35204 0.0
H366 H 0.00514 0.40264 0.73653 0.0
H367 H 0.04082 0.60021 0.67979 0.0
H368 H 0.02222 0.6178 0.59629 0.0
H369 H 0.0172 0.42662 0.81663 0.0
H370 H 0.00427 0.61694 0.49629 0.0
N371 N 0.0292 0.55175 0.5951 0.0
C372 C 0.04077 0.552 0.64762 0.0
C373 C 0.03763 0.58679 0.65539 0.0
C374 C 0.02665 0.58671 0.6002 0.0
C375 C 0.04493 0.56939 0.67865 0.0
C376 C 0.02282 0.5688 0.57044 0.0
H377 H 0.99167 0.59771 0.40461 0.0
N378 N 0.00953 0.55099 0.48694 0.0
C379 C 0.99485 0.56682 0.39803 0.0
C380 C 0.01257 0.56838 0.51468 0.0
C381 C 0.00149 0.55005 0.42792 0.0
C382 C 0.99686 0.58473 0.42785 0.0
C383 C 0.00607 0.58572 0.48644 0.0
O384 O 0.03649 0.53194 0.46297 0.0
O385 O 0.00897 0.49522 0.55369 0.0
O386 O 0.02109 0.48233 0.6441 0.0
O387 O 0.03669 0.51145 0.61993 0.0
O388 O 0.00892 0.50561 0.46509 0.0
O389 O 0.0477 0.51206 0.53083 0.0
O390 O 0.97427 0.49784 0.71573 0.0
O391 O 0.00085 0.52059 0.61988 0.0
O392 O 0.98894 0.5311 0.5281 0.0
O393 O 0.9733 0.5027 0.55841 0.0
O394 O 0.9987 0.5123 0.71046 0.0
O395 O 0.96096 0.48743 0.62995 0.0
C396 C 0.00579 0.49027 0.4977 0.0
C397 C 0.05484 0.50551 0.42441 0.0
C398 C 0.07586 0.48014 0.38257 0.0
C399 C 0.07146 0.49378 0.42965 0.0
C400 C 0.06359 0.47842 0.33013 0.0
C401 C 0.04282 0.50358 0.37118 0.0
C402 C 0.04715 0.49002 0.32468 0.0
C403 C 0.03647 0.49375 0.64503 0.0
C404 C 0.04993 0.51934 0.47511 0.0
C405 C 0.00932 0.60348 0.51687 0.0
C406 C 0.01957 0.60397 0.57371 0.0
C407 C 0.00273 0.52677 0.67499 0.0
C408 C 0.94412 0.48205 0.72517 0.0
C409 C 0.92907 0.4924 0.75375 0.0
C410 C 0.91443 0.48284 0.78754 0.0
C411 C 0.91552 0.46255 0.79377 0.0
C412 C 0.94503 0.46187 0.73163 0.0
C413 C 0.93079 0.45219 0.7662 0.0
C414 C 0.97339 0.51993 0.53114 0.0
C415 C 0.95819 0.49298 0.68785 0.0
H416 H 0.08086 0.49516 0.4703 0.0
H417 H 0.06705 0.46842 0.29248 0.0
H418 H 0.03004 0.5125 0.36527 0.0
H419 H 0.03782 0.48862 0.28397 0.0
H420 H 0.92884 0.50803 0.74936 0.0
H421 H 0.90441 0.45462 0.81881 0.0
H422 H 0.95659 0.45367 0.70981 0.0
H423 H 0.93144 0.43659 0.77098 0.0
H424 H 0.17822 0.06529 0.16904 0.0
H425 H 0.15009 0.05477 0.22973 0.0
H426 H 0.14348 0.11269 0.30364 0.0
H427 H 0.17215 0.12304 0.24528 0.0
H428 H 0.13708 0.08893 0.39264 0.0
H429 H 0.11401 0.09454 0.18269 0.0
H430 H 0.11388 0.08913 0.06809 0.0
H431 H 0.10687 0.02796 0.09735 0.0
H432 H 0.10725 0.03299 0.21229 0.0
H433 H 0.02794 0.05352 0.39986 0.0
H434 H 0.05541 0.06671 0.34209 0.0
H435 H 0.09407 0.04723 0.48901 0.0
H436 H 0.06659 0.03618 0.54966 0.0
H437 H 0.08377 0.05314 0.28773 0.0
H438 H 0.13383 0.07274 0.50308 0.0
H439 H 0.12996 0.08596 0.61021 0.0
H440 H 0.07536 0.11122 0.55783 0.0
H441 H 0.07899 0.09838 0.45036 0.0
C442 C 0.17077 0.07577 0.1983 0.0
C443 C 0.17732 0.095 0.20225 0.0
C444 C 0.15465 0.06976 0.23281 0.0
C445 C 0.14446 0.08299 0.27066 0.0
C446 C 0.15111 0.10218 0.27499 0.0
C447 C 0.16745 0.10811 0.2414 0.0
C448 C 0.1268 0.07689 0.30532 0.0
C449 C 0.12539 0.08116 0.36971 0.0
C450 C 0.11126 0.06724 0.27508 0.0
C451 C 0.11087 0.06412 0.20605 0.0
C452 C 0.11258 0.07992 0.16467 0.0
C453 C 0.11244 0.07693 0.09966 0.0
C454 C 0.11044 0.0582 0.07543 0.0
C455 C 0.10847 0.04245 0.1162 0.0
C456 C 0.10863 0.04536 0.18128 0.0
C457 C 0.04227 0.05222 0.42026 0.0
C458 C 0.04504 0.04335 0.47918 0.0
C459 C 0.05802 0.05967 0.38684 0.0
C460 C 0.07692 0.05808 0.41103 0.0
C461 C 0.07968 0.04907 0.46958 0.0
C462 C 0.06389 0.04231 0.50391 0.0
C463 C 0.09382 0.06553 0.37503 0.0
C464 C 0.0953 0.06114 0.31069 0.0
C465 C 0.10873 0.07643 0.40422 0.0
C466 C 0.1066 0.08437 0.46882 0.0
C467 C 0.12104 0.08117 0.51436 0.0
C468 C 0.11887 0.08859 0.57519 0.0
C469 C 0.1024 0.09935 0.5909 0.0
C470 C 0.08808 0.1028 0.54574 0.0
C471 C 0.09016 0.09542 0.48491 0.0
H472 H 0.10074 0.10505 0.63803 0.0
H473 H 0.11037 0.05591 0.02507 0.0
H474 H 0.43221 0.17836 0.18647 0.0
H475 H 0.45031 0.15263 0.2393 0.0
H476 H 0.40201 0.1429 0.36407 0.0
H477 H 0.38406 0.1691 0.31274 0.0
H478 H 0.4349 0.14166 0.42791 0.0
H479 H 0.4113 0.11256 0.23517 0.0
H480 H 0.40694 0.11202 0.11993 0.0
H481 H 0.46866 0.11049 0.09465 0.0
H482 H 0.47339 0.11123 0.20962 0.0
H483 H 0.47114 0.03491 0.43784 0.0
H484 H 0.4532 0.06082 0.38657 0.0
H485 H 0.49127 0.10306 0.47115 0.0
H486 H 0.50902 0.07706 0.5237 0.0
H487 H 0.46218 0.08726 0.30332 0.0
H488 H 0.46732 0.14386 0.50173 0.0
H489 H 0.47092 0.14497 0.61721 0.0
H490 H 0.44267 0.08982 0.63286 0.0
H491 H 0.4392 0.08823 0.51748 0.0
C492 C 0.42543 0.17073 0.22513 0.0
C493 C 0.40665 0.17567 0.24518 0.0
C494 C 0.43577 0.15599 0.25518 0.0
C495 C 0.4274 0.1456 0.30502 0.0
C496 C 0.40875 0.15068 0.32566 0.0
C497 C 0.39848 0.16561 0.29613 0.0
C498 C 0.43802 0.12935 0.33527 0.0
C499 C 0.44084 0.12976 0.40067 0.0
C500 C 0.4456 0.11369 0.29991 0.0
C501 C 0.4427 0.11217 0.23094 0.0
C502 C 0.42393 0.11216 0.20499 0.0
C503 C 0.4214 0.11187 0.13973 0.0
C504 C 0.43753 0.11143 0.10004 0.0
C505 C 0.4562 0.11094 0.12548 0.0
C506 C 0.45881 0.11125 0.19065 0.0
C507 C 0.47594 0.04965 0.44492 0.0
C508 C 0.49164 0.0539 0.48487 0.0
C509 C 0.46556 0.0645 0.4157 0.0
C510 C 0.47072 0.08392 0.4255 0.0
C511 C 0.48674 0.0882 0.46389 0.0
C512 C 0.49696 0.07333 0.49384 0.0
C513 C 0.45918 0.09963 0.39591 0.0
C514 C 0.45619 0.09913 0.33062 0.0
C515 C 0.45119 0.11504 0.43152 0.0
C516 C 0.45306 0.11591 0.50099 0.0
C517 C 0.46186 0.13198 0.52986 0.0
C518 C 0.46398 0.13264 0.59525 0.0
C519 C 0.45715 0.11739 0.63231 0.0
C520 C 0.44815 0.10148 0.60406 0.0
C521 C 0.44614 0.10068 0.53868 0.0
H522 H 0.45877 0.11793 0.68292 0.0
H523 H 0.43559 0.11146 0.04957 0.0
H524 H 0.34451 0.43853 0.18381 0.0
H525 H 0.36872 0.4576 0.24038 0.0
H526 H 0.36634 0.41742 0.3955 0.0
H527 H 0.34195 0.39831 0.33937 0.0
H528 H 0.36511 0.45421 0.43687 0.0
H529 H 0.40617 0.41748 0.30048 0.0
H530 H 0.41828 0.40365 0.20109 0.0
H531 H 0.4256 0.46081 0.12537 0.0
H532 H 0.41354 0.47504 0.22444 0.0
H533 H 0.45419 0.48618 0.57993 0.0
H534 H 0.42528 0.47045 0.53799 0.0
H535 H 0.42645 0.50869 0.3775 0.0
H536 H 0.45571 0.52412 0.41876 0.0
H537 H 0.4282 0.47205 0.34183 0.0
H538 H 0.38647 0.50836 0.48288 0.0
H539 H 0.37518 0.52081 0.58526 0.0
H540 H 0.3712 0.46271 0.65617 0.0
H541 H 0.38212 0.44988 0.55375 0.0
C542 C 0.34919 0.43368 0.22983 0.0
C543 C 0.3413 0.41689 0.25707 0.0
C544 C 0.3631 0.44456 0.26201 0.0
C545 C 0.36946 0.43885 0.32198 0.0
C546 C 0.36164 0.42208 0.34928 0.0
C547 C 0.34775 0.41115 0.31703 0.0
C548 C 0.38387 0.45073 0.35667 0.0
C549 C 0.37901 0.45794 0.41642 0.0
C550 C 0.4019 0.45579 0.32977 0.0
C551 C 0.40872 0.44731 0.26959 0.0
C552 C 0.41016 0.4271 0.26241 0.0
C553 C 0.41708 0.41919 0.2062 0.0
C554 C 0.4226 0.43132 0.15681 0.0
C555 C 0.42128 0.45142 0.16362 0.0
C556 C 0.41446 0.45942 0.21984 0.0
C557 C 0.44787 0.49173 0.53701 0.0
C558 C 0.45722 0.5063 0.5023 0.0
C559 C 0.43129 0.48271 0.51298 0.0
C560 C 0.42375 0.48828 0.45426 0.0
C561 C 0.43209 0.50405 0.42264 0.0
C562 C 0.44872 0.51293 0.44635 0.0
C563 C 0.40926 0.47599 0.42142 0.0
C564 C 0.41422 0.4685 0.36212 0.0
C565 C 0.39148 0.47051 0.44911 0.0
C566 C 0.38521 0.47819 0.51088 0.0
C567 C 0.38328 0.49826 0.52043 0.0
C568 C 0.37687 0.50537 0.57835 0.0
C569 C 0.37257 0.49257 0.62728 0.0
C570 C 0.37454 0.4726 0.61824 0.0
C571 C 0.38072 0.4654 0.56015 0.0
H572 H 0.36767 0.49811 0.67216 0.0
H573 H 0.42795 0.42514 0.11336 0.0
H574 H 0.07301 0.36192 0.12135 0.0
H575 H 0.05585 0.38712 0.17966 0.0
H576 H 0.09946 0.38506 0.32512 0.0
H577 H 0.11666 0.35967 0.26724 0.0
H578 H 0.06407 0.38278 0.37445 0.0
H579 H 0.09611 0.42341 0.23357 0.0
H580 H 0.10857 0.43587 0.13318 0.0
H581 H 0.0504 0.44653 0.06976 0.0
H582 H 0.03755 0.43375 0.16974 0.0
H583 H 0.03392 0.46597 0.54142 0.0
H584 H 0.04926 0.43965 0.48419 0.0
H585 H 0.00742 0.44612 0.33443 0.0
H586 H 0.99274 0.47347 0.39068 0.0
H587 H 0.04078 0.44506 0.28596 0.0
H588 H 0.01072 0.39989 0.43163 0.0
H589 H 0.00132 0.38617 0.53413 0.0
H590 H 0.06061 0.38793 0.59562 0.0
H591 H 0.07047 0.40058 0.49189 0.0
C592 C 0.07911 0.36698 0.16536 0.0
C593 C 0.09612 0.35866 0.18992 0.0
C594 C 0.0693 0.38145 0.19856 0.0
C595 C 0.07635 0.38796 0.25682 0.0
C596 C 0.0937 0.38017 0.28043 0.0
C597 C 0.10354 0.3657 0.24719 0.0
C598 C 0.06491 0.40196 0.29467 0.0
C599 C 0.05934 0.39661 0.35559 0.0
C600 C 0.05835 0.41978 0.26959 0.0
C601 C 0.06586 0.42738 0.20897 0.0
C602 C 0.08595 0.42823 0.19804 0.0
C603 C 0.0931 0.4354 0.1412 0.0
C604 C 0.08029 0.44197 0.09495 0.0
C605 C 0.0603 0.4414 0.10559 0.0
C606 C 0.05308 0.43419 0.16239 0.0
C607 C 0.02751 0.46133 0.49754 0.0
C608 C 0.01186 0.47148 0.47107 0.0
C609 C 0.0363 0.44616 0.46464 0.0
C610 C 0.0293 0.44048 0.40529 0.0
C611 C 0.01306 0.45009 0.38022 0.0
C612 C 0.00456 0.46559 0.4125 0.0
C613 C 0.04027 0.42616 0.36666 0.0
C614 C 0.04561 0.43132 0.30507 0.0
C615 C 0.04719 0.40847 0.39186 0.0
C616 C 0.04127 0.40141 0.45459 0.0
C617 C 0.02171 0.39744 0.4672 0.0
C618 C 0.01633 0.38975 0.52535 0.0
C619 C 0.0303 0.38647 0.57183 0.0
C620 C 0.04978 0.39055 0.55976 0.0
C621 C 0.0553 0.39777 0.50107 0.0
H622 H 0.02606 0.38064 0.61699 0.0
H623 H 0.08585 0.44753 0.05094 0.0
H624 H 0.83428 0.9294 0.97373 0.0
H625 H 0.86031 0.94718 0.92174 0.0
H626 H 0.86553 0.9015 0.78403 0.0
H627 H 0.83895 0.88399 0.83446 0.0
H628 H 0.89678 0.94092 0.89905 0.0
H629 H 0.87818 0.92003 0.64322 0.0
H630 H 0.84987 0.91022 0.5797 0.0
H631 H 0.81198 0.9404 0.70657 0.0
H632 H 0.84008 0.95058 0.77034 0.0
H633 H 0.97218 0.97262 0.69724 0.0
H634 H 0.94777 0.95293 0.74972 0.0
H635 H 0.90312 0.99203 0.68517 0.0
H636 H 0.92765 0.0118 0.63275 0.0
H637 H 0.89173 0.95585 0.67138 0.0
H638 H 0.92141 0.99302 0.83685 0.0
H639 H 0.94854 0.00505 0.90154 0.0
H640 H 0.96162 0.94695 0.95985 0.0
H641 H 0.93484 0.93448 0.89435 0.0
C642 C 0.84101 0.92311 0.93248 0.0
C643 C 0.83443 0.90539 0.90777 0.0
C644 C 0.85593 0.93327 0.90289 0.0
C645 C 0.86467 0.92586 0.84832 0.0
C646 C 0.85869 0.90775 0.82515 0.0
C647 C 0.84355 0.89771 0.85417 0.0
C648 C 0.87966 0.93736 0.81504 0.0
C649 C 0.89567 0.94419 0.84927 0.0
C650 C 0.87819 0.94174 0.75015 0.0
C651 C 0.8612 0.93588 0.71184 0.0
C652 C 0.8638 0.92462 0.6574 0.0
C653 C 0.8478 0.91898 0.62139 0.0
C654 C 0.82913 0.92463 0.63921 0.0
C655 C 0.82644 0.93598 0.69295 0.0
C656 C 0.84239 0.94167 0.72907 0.0
C657 C 0.95722 0.97719 0.6949 0.0
C658 C 0.95184 0.9939 0.66132 0.0
C659 C 0.94325 0.96584 0.72467 0.0
C660 C 0.92363 0.97112 0.72206 0.0
C661 C 0.91818 0.98765 0.68769 0.0
C662 C 0.93218 0.99893 0.65751 0.0
C663 C 0.90877 0.95952 0.75546 0.0
C664 C 0.89285 0.95257 0.72115 0.0
C665 C 0.91018 0.95532 0.82052 0.0
C666 C 0.92625 0.9628 0.8601 0.0
C667 C 0.93018 0.98278 0.863 0.0
C668 C 0.94549 0.98968 0.89984 0.0
C669 C 0.95683 0.97676 0.93464 0.0
C670 C 0.95284 0.95692 0.93282 0.0
C671 C 0.93763 0.94993 0.89573 0.0
H672 H 0.96868 0.98211 0.96316 0.0
H673 H 0.81676 0.92024 0.6113 0.0
H674 H 0.58739 0.83873 0.01802 0.0
H675 H 0.56845 0.86448 0.96788 0.0
H676 H 0.61274 0.87082 0.82634 0.0
H677 H 0.6315 0.84486 0.87518 0.0
H678 H 0.5746 0.90198 0.94251 0.0
H679 H 0.5929 0.87961 0.68648 0.0
H680 H 0.60074 0.85002 0.62642 0.0
H681 H 0.57026 0.81545 0.76186 0.0
H682 H 0.56201 0.84485 0.82222 0.0
H683 H 0.55432 0.9782 0.72912 0.0
H684 H 0.56864 0.95228 0.79161 0.0
H685 H 0.52602 0.91227 0.71918 0.0
H686 H 0.51175 0.93829 0.65659 0.0
H687 H 0.55951 0.89612 0.71505 0.0
H688 H 0.52481 0.93094 0.87335 0.0
H689 H 0.51487 0.95966 0.93446 0.0
H690 H 0.57337 0.96743 0.99836 0.0
H691 H 0.58379 0.93893 0.93664 0.0
C692 C 0.59313 0.84567 0.97636 0.0
C693 C 0.61084 0.83961 0.95014 0.0
C694 C 0.5823 0.86041 0.94787 0.0
C695 C 0.58901 0.86932 0.89275 0.0
C696 C 0.60708 0.86384 0.86806 0.0
C697 C 0.61782 0.84904 0.89617 0.0
C698 C 0.57701 0.88403 0.85998 0.0
C699 C 0.57116 0.90068 0.8929 0.0
C700 C 0.57228 0.88218 0.79548 0.0
C701 C 0.57697 0.86443 0.75907 0.0
C702 C 0.58779 0.86571 0.70325 0.0
C703 C 0.59232 0.84896 0.6692 0.0
C704 C 0.58604 0.83086 0.69039 0.0
C705 C 0.57517 0.82947 0.74559 0.0
C706 C 0.57058 0.84617 0.77978 0.0
C707 C 0.54786 0.96394 0.72705 0.0
C708 C 0.53191 0.96025 0.68768 0.0
C709 C 0.55608 0.9491 0.76284 0.0
C710 C 0.54832 0.93031 0.76068 0.0
C711 C 0.53232 0.92663 0.7215 0.0
C712 C 0.52423 0.94147 0.68527 0.0
C713 C 0.55734 0.91431 0.79715 0.0
C714 C 0.5627 0.8974 0.76486 0.0
C715 C 0.56129 0.91583 0.86241 0.0
C716 C 0.5551 0.93288 0.89998 0.0
C717 C 0.5356 0.93884 0.90008 0.0
C718 C 0.52988 0.95507 0.93484 0.0
C719 C 0.54351 0.96536 0.97017 0.0
C720 C 0.56287 0.95941 0.97095 0.0
C721 C 0.56869 0.94324 0.93608 0.0
H722 H 0.53907 0.97793 0.99704 0.0
H723 H 0.58958 0.81792 0.66399 0.0
H724 H 0.66869 0.61333 0.82335 0.0
H725 H 0.6435 0.59508 0.76824 0.0
H726 H 0.63868 0.55628 0.92647 0.0
H727 H 0.66396 0.57435 0.98171 0.0
H728 H 0.64044 0.53646 0.81819 0.0
H729 H 0.60451 0.58955 0.89969 0.0
H730 H 0.59625 0.62359 0.92098 0.0
H731 H 0.58933 0.63407 0.72317 0.0
H732 H 0.59818 0.6001 0.70052 0.0
H733 H 0.54684 0.49639 0.75874 0.0
H734 H 0.57749 0.51026 0.79479 0.0
H735 H 0.58016 0.54549 0.6275 0.0
H736 H 0.5495 0.53188 0.59195 0.0
H737 H 0.5807 0.567 0.73403 0.0
H738 H 0.61815 0.51222 0.65624 0.0
H739 H 0.62697 0.47777 0.64239 0.0
H740 H 0.62782 0.46996 0.84258 0.0
H741 H 0.61971 0.5045 0.85772 0.0
C742 C 0.6622 0.60098 0.84659 0.0
C743 C 0.66833 0.59528 0.9069 0.0
C744 C 0.64777 0.5906 0.81507 0.0
C745 C 0.63918 0.57436 0.84335 0.0
C746 C 0.64517 0.56873 0.90373 0.0
C747 C 0.65956 0.57913 0.93533 0.0
C748 C 0.6242 0.56302 0.80948 0.0
C749 C 0.6273 0.54311 0.80023 0.0
C750 C 0.6072 0.57176 0.78517 0.0
C751 C 0.6022 0.59231 0.79835 0.0
C752 C 0.60145 0.59915 0.86063 0.0
C753 C 0.59662 0.61845 0.87297 0.0
C754 C 0.59222 0.63103 0.82349 0.0
C755 C 0.59274 0.62432 0.76149 0.0
C756 C 0.5977 0.60504 0.74885 0.0
C757 C 0.55435 0.50659 0.72868 0.0
C758 C 0.54577 0.51299 0.6725 0.0
C759 C 0.57189 0.51446 0.74917 0.0
C760 C 0.58112 0.52893 0.71383 0.0
C761 C 0.57329 0.53432 0.65545 0.0
C762 C 0.55576 0.52641 0.63491 0.0
C763 C 0.59701 0.54044 0.74231 0.0
C764 C 0.594 0.56041 0.75104 0.0
C765 C 0.61391 0.53171 0.76708 0.0
C766 C 0.61818 0.51086 0.75806 0.0
C767 C 0.6201 0.50311 0.69726 0.0
C768 C 0.62502 0.4836 0.68919 0.0
C769 C 0.62769 0.47164 0.74149 0.0
C770 C 0.62568 0.47922 0.80208 0.0
C771 C 0.62108 0.49879 0.81046 0.0
H772 H 0.63144 0.45653 0.73507 0.0
H773 H 0.58841 0.64596 0.83318 0.0
H774 H 0.94462 0.6723 0.99334 0.0
H775 H 0.96095 0.6451 0.94232 0.0
H776 H 0.93411 0.66032 0.76568 0.0
H777 H 0.91734 0.68729 0.81678 0.0
H778 H 0.93163 0.62283 0.78384 0.0
H779 H 0.9827 0.66931 0.79485 0.0
H780 H 0.00438 0.69314 0.84502 0.0
H781 H 0.02671 0.64894 0.96743 0.0
H782 H 0.00496 0.62488 0.91856 0.0
H783 H 0.98384 0.55524 0.60929 0.0
H784 H 0.97344 0.58667 0.64717 0.0
H785 H 0.99824 0.57403 0.82901 0.0
H786 H 0.01016 0.54285 0.7889 0.0
H787 H 0.00249 0.61152 0.80193 0.0
H788 H 0.94815 0.56624 0.79695 0.0
H789 H 0.92713 0.54252 0.7433 0.0
H790 H 0.91201 0.58507 0.60441 0.0
H791 H 0.93282 0.60914 0.65768 0.0
C792 C 0.94224 0.66991 0.94358 0.0
C793 C 0.92969 0.68196 0.90909 0.0
C794 C 0.95168 0.65441 0.91437 0.0
C795 C 0.94898 0.65082 0.84993 0.0
C796 C 0.93645 0.66283 0.81541 0.0
C797 C 0.92689 0.67826 0.84468 0.0
C798 C 0.95868 0.6341 0.81913 0.0
C799 C 0.94717 0.62055 0.78705 0.0
C800 C 0.97892 0.63092 0.82398 0.0
C801 C 0.99207 0.64533 0.8534 0.0
C802 C 0.99212 0.6647 0.83279 0.0
C803 C 0.00445 0.67825 0.86094 0.0
C804 C 0.01688 0.67257 0.90948 0.0
C805 C 0.01706 0.65332 0.92987 0.0
C806 C 0.00475 0.63972 0.90191 0.0
C807 C 0.98771 0.55931 0.6565 0.0
C808 C 0.99823 0.54671 0.69557 0.0
C809 C 0.98145 0.57725 0.67859 0.0
C810 C 0.98463 0.58254 0.74143 0.0
C811 C 0.99558 0.57023 0.78032 0.0
C812 C 0.0023 0.55243 0.75754 0.0
C813 C 0.9754 0.60022 0.76759 0.0
C814 C 0.98698 0.61391 0.79868 0.0
C815 C 0.95522 0.60362 0.76164 0.0
C816 C 0.94209 0.58943 0.73111 0.0
C817 C 0.9403 0.57053 0.75505 0.0
C818 C 0.92844 0.55703 0.72469 0.0
C819 C 0.9183 0.56224 0.67032 0.0
C820 C 0.91986 0.58105 0.64655 0.0
C821 C 0.93161 0.59466 0.67698 0.0
H822 H 0.90922 0.55172 0.64669 0.0
H823 H 0.02642 0.68308 0.93121 0.0
H824 H 0.07451 0.23908 0.07442 0.0
H825 H 0.05965 0.21148 0.1279 0.0
H826 H 0.08973 0.22681 0.29892 0.0
H827 H 0.10538 0.25387 0.24451 0.0
H828 H 0.09288 0.18907 0.27624 0.0
H829 H 0.04088 0.23557 0.27867 0.0
H830 H 0.01761 0.25865 0.23216 0.0
H831 H 0.99323 0.21307 0.11965 0.0
H832 H 0.01653 0.18976 0.16492 0.0
H833 H 0.04164 0.13355 0.49945 0.0
H834 H 0.05784 0.15753 0.43445 0.0
H835 H 0.022 0.14135 0.27642 0.0
H836 H 0.00467 0.11826 0.34284 0.0
H837 H 0.02188 0.17838 0.28566 0.0
H838 H 0.07392 0.13184 0.2837 0.0
H839 H 0.0978 0.10922 0.32804 0.0
H840 H 0.12214 0.155 0.44 0.0
H841 H 0.09835 0.17799 0.39582 0.0
C842 C 0.07829 0.23628 0.12299 0.0
C843 C 0.09159 0.24819 0.1548 0.0
C844 C 0.0695 0.22074 0.15386 0.0
C845 C 0.07355 0.21709 0.21749 0.0
C846 C 0.08647 0.2293 0.24973 0.0
C847 C 0.09532 0.24478 0.21875 0.0
C848 C 0.06485 0.20022 0.25014 0.0
C849 C 0.07733 0.18685 0.27892 0.0
C850 C 0.04461 0.19698 0.2519 0.0
C851 C 0.03058 0.21097 0.2247 0.0
C852 C 0.03066 0.23051 0.24363 0.0
C853 C 0.01745 0.24362 0.21757 0.0
C854 C 0.00399 0.23734 0.17285 0.0
C855 C 0.00368 0.21792 0.15422 0.0
C856 C 0.01687 0.20475 0.1801 0.0
C857 C 0.03721 0.13502 0.45079 0.0
C858 C 0.02162 0.12417 0.42672 0.0
C859 C 0.04673 0.14858 0.41325 0.0
C860 C 0.04128 0.15124 0.35016 0.0
C861 C 0.02645 0.13963 0.32497 0.0
C862 C 0.0167 0.12624 0.36286 0.0
C863 C 0.04992 0.1672 0.31236 0.0
C864 C 0.03743 0.18046 0.28258 0.0
C865 C 0.07017 0.17038 0.30964 0.0
C866 C 0.08429 0.15656 0.33682 0.0
C867 C 0.08429 0.13704 0.31806 0.0
C868 C 0.09788 0.12417 0.34309 0.0
C869 C 0.11149 0.13064 0.38711 0.0
C870 C 0.11159 0.15002 0.40594 0.0
C871 C 0.09811 0.163 0.38073 0.0
H872 H 0.12201 0.12073 0.4067 0.0
H873 H 0.99376 0.24752 0.15274 0.0
H874 H 0.27313 0.06146 0.13972 0.0
H875 H 0.30112 0.04281 0.17575 0.0
H876 H 0.33724 0.09356 0.15746 0.0
H877 H 0.30931 0.112 0.11835 0.0
H878 H 0.35733 0.06419 0.12343 0.0
H879 H 0.31854 0.07705 0.30406 0.0
H880 H 0.2889 0.07821 0.36869 0.0
H881 H 0.28438 0.0162 0.35996 0.0
H882 H 0.31386 0.01469 0.29456 0.0
H883 H 0.43097 0.02577 0.32478 0.0
H884 H 0.40421 0.0455 0.28632 0.0
H885 H 0.37006 0.99404 0.2558 0.0
H886 H 0.39645 0.97411 0.29812 0.0
H887 H 0.35017 0.02507 0.31786 0.0
H888 H 0.38331 0.01803 0.10292 0.0
H889 H 0.41445 0.01736 0.04558 0.0
H890 H 0.43192 0.06992 0.13768 0.0
H891 H 0.40062 0.07117 0.19404 0.0
C892 C 0.28708 0.06858 0.14307 0.0
C893 C 0.2891 0.08814 0.12629 0.0
C894 C 0.30307 0.05796 0.16405 0.0
C895 C 0.32126 0.06687 0.17099 0.0
C896 C 0.32338 0.08634 0.15277 0.0
C897 C 0.30744 0.09687 0.13033 0.0
C898 C 0.33789 0.05591 0.19823 0.0
C899 C 0.35575 0.05589 0.16637 0.0
C900 C 0.33601 0.04495 0.25439 0.0
C901 C 0.31832 0.04578 0.29394 0.0
C902 C 0.31116 0.06367 0.31558 0.0
C903 C 0.2944 0.06439 0.3524 0.0
C904 C 0.28474 0.04729 0.3683 0.0
C905 C 0.29186 0.02943 0.34755 0.0
C906 C 0.30861 0.02864 0.31066 0.0
C907 C 0.41774 0.01858 0.31042 0.0
C908 C 0.41586 0.9983 0.31481 0.0
C909 C 0.40254 0.0299 0.28752 0.0
C910 C 0.38531 0.0212 0.26707 0.0
C911 C 0.38334 0.001 0.27099 0.0
C912 C 0.39849 0.98963 0.2946 0.0
C913 C 0.36923 0.03326 0.24252 0.0
C914 C 0.35159 0.03348 0.275 0.0
C915 C 0.37141 0.04478 0.18821 0.0
C916 C 0.38972 0.0447 0.15229 0.0
C917 C 0.39376 0.0295 0.1104 0.0
C918 C 0.41139 0.02905 0.07806 0.0
C919 C 0.42513 0.04363 0.08791 0.0
C920 C 0.42121 0.05874 0.12983 0.0
C921 C 0.40349 0.0594 0.16163 0.0
H922 H 0.4388 0.04322 0.06304 0.0
H923 H 0.27177 0.04788 0.39679 0.0
H924 H 0.3853 0.29217 0.20587 0.0
H925 H 0.40206 0.32212 0.23756 0.0
H926 H 0.45579 0.29928 0.16507 0.0
H927 H 0.43912 0.26956 0.13275 0.0
H928 H 0.45597 0.31533 0.29568 0.0
H929 H 0.43743 0.3308 0.07946 0.0
H930 H 0.4136 0.33463 0.99359 0.0
H931 H 0.38153 0.37544 0.10509 0.0
H932 H 0.40489 0.37143 0.19214 0.0
H933 H 0.52114 0.39262 0.29788 0.0
H934 H 0.50105 0.36537 0.26503 0.0
H935 H 0.44958 0.40002 0.29129 0.0
H936 H 0.46966 0.42772 0.32104 0.0
H937 H 0.44564 0.37862 0.18994 0.0
H938 H 0.46334 0.36638 0.40214 0.0
H939 H 0.48492 0.36295 0.49404 0.0
H940 H 0.51517 0.31645 0.40236 0.0
H941 H 0.49388 0.31971 0.30963 0.0
C942 C 0.40066 0.29366 0.19654 0.0
C943 C 0.41091 0.2788 0.16603 0.0
C944 C 0.41017 0.31071 0.21446 0.0
C945 C 0.43009 0.31285 0.20326 0.0
C946 C 0.44038 0.29787 0.17376 0.0
C947 C 0.43084 0.28102 0.15493 0.0
C948 C 0.44043 0.33056 0.22315 0.0
C949 C 0.45388 0.32916 0.27235 0.0
C950 C 0.43705 0.34866 0.19416 0.0
C951 C 0.42292 0.35087 0.14214 0.0
C952 C 0.42524 0.3405 0.0857 0.0
C953 C 0.41183 0.3427 0.03686 0.0
C954 C 0.39611 0.35532 0.04379 0.0
C955 C 0.39374 0.36572 0.09969 0.0
C956 C 0.40707 0.3635 0.14876 0.0
C957 C 0.50558 0.39459 0.29562 0.0
C958 C 0.49703 0.41233 0.31268 0.0
C959 C 0.49408 0.3789 0.27759 0.0
C960 C 0.47378 0.38051 0.27708 0.0
C961 C 0.4652 0.39839 0.29188 0.0
C962 C 0.47671 0.41415 0.30947 0.0
C963 C 0.46159 0.36341 0.26199 0.0
C964 C 0.4477 0.36489 0.21384 0.0
C965 C 0.46423 0.34544 0.29305 0.0
C966 C 0.47712 0.34342 0.34868 0.0
C967 C 0.47469 0.35552 0.40137 0.0
C968 C 0.48685 0.35359 0.45365 0.0
C969 C 0.50145 0.33954 0.45393 0.0
C970 C 0.50387 0.32734 0.40203 0.0
C971 C 0.49174 0.32921 0.34964 0.0
H972 H 0.51086 0.33807 0.49442 0.0
H973 H 0.38577 0.35702 0.00589 0.0
H974 H 0.214 0.37864 0.15444 0.0
H975 H 0.18392 0.38951 0.2042 0.0
H976 H 0.21367 0.43982 0.27718 0.0
H977 H 0.24395 0.42817 0.23105 0.0
H978 H 0.19276 0.4276 0.36351 0.0
H979 H 0.17888 0.43888 0.14253 0.0
H980 H 0.17339 0.43148 0.03079 0.0
H981 H 0.13005 0.38961 0.08068 0.0
H982 H 0.1352 0.39688 0.19302 0.0
H983 H 0.11296 0.49275 0.39853 0.0
H984 H 0.14262 0.47411 0.37938 0.0
H985 H 0.10851 0.42241 0.35162 0.0
H986 H 0.07897 0.44102 0.37163 0.0
H987 H 0.13016 0.43162 0.24989 0.0
H988 H 0.14284 0.42136 0.46998 0.0
H989 H 0.14669 0.43048 0.58154 0.0
H990 H 0.19004 0.47224 0.53131 0.0
H991 H 0.18687 0.46297 0.4196 0.0
C992 C 0.21398 0.39211 0.18059 0.0
C993 C 0.23118 0.40268 0.18861 0.0
C994 C 0.19677 0.39839 0.20887 0.0
C995 C 0.19632 0.41571 0.24388 0.0
C996 C 0.21355 0.42638 0.25081 0.0
C997 C 0.23083 0.4198 0.22415 0.0
C998 C 0.17819 0.42255 0.27499 0.0
C999 C 0.17914 0.42862 0.33819 0.0
C1000 C 0.16009 0.42325 0.24339 0.0
C1001 C 0.15773 0.41815 0.17615 0.0
C1002 C 0.16844 0.42785 0.12971 0.0
C1003 C 0.16538 0.42366 0.0662 0.0
C1004 C 0.15159 0.40984 0.04853 0.0
C1005 C 0.14082 0.4002 0.0944 0.0
C1006 C 0.14379 0.40436 0.15799 0.0
C1007 C 0.1119 0.47729 0.39037 0.0
C1008 C 0.09371 0.46833 0.38515 0.0
C1009 C 0.12882 0.46663 0.37964 0.0
C1010 C 0.12775 0.44689 0.36378 0.0
C1011 C 0.10965 0.43765 0.3634 0.0
C1012 C 0.09279 0.44828 0.37426 0.0
C1013 C 0.14491 0.43688 0.33739 0.0
C1014 C 0.14375 0.43026 0.27521 0.0
C1015 C 0.16274 0.43576 0.36969 0.0
C1016 C 0.16452 0.44157 0.43651 0.0
C1017 C 0.15312 0.43255 0.48274 0.0
C1018 C 0.15522 0.4377 0.54598 0.0
C1019 C 0.16842 0.45207 0.56344 0.0
C1020 C 0.17977 0.46115 0.51773 0.0
C1021 C 0.17794 0.45585 0.45451 0.0
H1022 H 0.16993 0.4561 0.61241 0.0
H1023 H 0.14906 0.40678 0.99934 0.0
H1024 H 0.95357 0.77712 0.97229 0.0
H1025 H 0.9705 0.80759 0.9494 0.0
H1026 H 0.92115 0.83997 0.01631 0.0
H1027 H 0.90433 0.80949 0.0404 0.0
H1028 H 0.93516 0.85158 0.89653 0.0
H1029 H 0.95756 0.84268 0.10437 0.0
H1030 H 0.97123 0.82534 0.19556 0.0
H1031 H 0.02437 0.81612 0.09498 0.0
H1032 H 0.01091 0.83315 0.00269 0.0
H1033 H 0.9847 0.94092 0.8569 0.0
H1034 H 0.96606 0.91423 0.90234 0.0
H1035 H 0.01515 0.87612 0.87912 0.0
H1036 H 0.03402 0.90293 0.83548 0.0
H1037 H 0.99903 0.86931 0.98704 0.0
H1038 H 0.97368 0.87686 0.77486 0.0
H1039 H 0.95824 0.89381 0.68604 0.0
H1040 H 0.90874 0.90679 0.80083 0.0
H1041 H 0.92398 0.89002 0.89063 0.0
C1042 C 0.94645 0.79077 0.98254 0.0
C1043 C 0.92781 0.79107 0.0088 0.0
C1044 C 0.95612 0.80811 0.96978 0.0
C1045 C 0.94711 0.82598 0.98187 0.0
C1046 C 0.92837 0.8263 0.00731 0.0
C1047 C 0.91886 0.80895 0.02125 0.0
C1048 C 0.95699 0.84425 0.9648 0.0
C1049 C 0.94896 0.85572 0.91707 0.0
C1050 C 0.97501 0.84946 0.99138 0.0
C1051 C 0.98313 0.83897 0.04631 0.0
C1052 C 0.97207 0.83674 0.10139 0.0
C1053 C 0.97981 0.82704 0.15337 0.0
C1054 C 0.99863 0.8196 0.15101 0.0
C1055 C 0.00978 0.82187 0.09669 0.0
C1056 C 0.00211 0.83156 0.04453 0.0
C1057 C 0.9915 0.92684 0.86169 0.0
C1058 C 0.01078 0.92397 0.84251 0.0
C1059 C 0.9808 0.91159 0.88729 0.0
C1060 C 0.98903 0.89305 0.89299 0.0
C1061 C 0.00845 0.89027 0.87512 0.0
C1062 C 0.01924 0.9056 0.8503 0.0
C1063 C 0.97748 0.8765 0.91735 0.0
C1064 C 0.98518 0.86533 0.96667 0.0
C1065 C 0.95896 0.87174 0.89285 0.0
C1066 C 0.95007 0.88239 0.83959 0.0
C1067 C 0.95961 0.88355 0.78137 0.0
C1068 C 0.95088 0.89314 0.73086 0.0
C1069 C 0.9326 0.90163 0.738 0.0
C1070 C 0.92298 0.90043 0.7956 0.0
C1071 C 0.93163 0.89084 0.84625 0.0
H1072 H 0.9258 0.909 0.69884 0.0
H1073 H 0.0046 0.8121 0.19133 0.0
H1074 H 0.74269 0.93426 0.9522 0.0
H1075 H 0.71449 0.95553 0.93715 0.0
H1076 H 0.67766 0.91262 0.02311 0.0
H1077 H 0.70588 0.89142 0.03899 0.0
H1078 H 0.6642 0.92897 0.90376 0.0
H1079 H 0.68608 0.94795 0.1082 0.0
H1080 H 0.71044 0.95828 0.18629 0.0
H1081 H 0.72119 0.01009 0.08035 0.0
H1082 H 0.69729 0.99984 0.00065 0.0
H1083 H 0.58234 0.9909 0.89713 0.0
H1084 H 0.60688 0.96863 0.93871 0.0
H1085 H 0.65115 0.0115 0.90495 0.0
H1086 H 0.62654 0.03401 0.86573 0.0
H1087 H 0.65939 0.99323 0.00731 0.0
H1088 H 0.63579 0.97428 0.80312 0.0
H1089 H 0.61201 0.96291 0.72487 0.0
H1090 H 0.60634 0.90914 0.82356 0.0
H1091 H 0.62825 0.92086 0.90646 0.0
C1092 C 0.72856 0.9294 0.96777 0.0
C1093 C 0.72641 0.91136 0.99741 0.0
C1094 C 0.71253 0.94156 0.95948 0.0
C1095 C 0.69408 0.93568 0.9796 0.0
C1096 C 0.69182 0.91744 0.0077 0.0
C1097 C 0.70791 0.90543 0.01701 0.0
C1098 C 0.67712 0.94852 0.97019 0.0
C1099 C 0.66283 0.9429 0.92709 0.0
C1100 C 0.67575 0.96676 1.00002 0.0
C1101 C 0.69004 0.97302 0.04809 0.0
C1102 C 0.69378 0.96145 0.1012 0.0
C1103 C 0.70747 0.96731 0.14583 0.0
C1104 C 0.71734 0.98482 0.1383 0.0
C1105 C 0.71354 0.99652 0.0861 0.0
C1106 C 0.69994 0.99068 0.04115 0.0
C1107 C 0.59728 0.99564 0.89989 0.0
C1108 C 0.60262 0.0141 0.87807 0.0
C1109 C 0.61128 0.98291 0.92341 0.0
C1110 C 0.63093 0.98819 0.92373 0.0
C1111 C 0.6361 0.00703 0.90501 0.0
C1112 C 0.62205 0.01991 0.88265 0.0
C1113 C 0.64631 0.97389 0.93984 0.0
C1114 C 0.66045 0.97925 0.98418 0.0
C1115 C 0.64747 0.95534 0.91092 0.0
C1116 C 0.63353 0.94865 0.86194 0.0
C1117 C 0.62908 0.96023 0.8093 0.0
C1118 C 0.61584 0.95374 0.76414 0.0
C1119 C 0.60762 0.93533 0.76931 0.0
C1120 C 0.61239 0.92351 0.82023 0.0
C1121 C 0.62504 0.93017 0.86677 0.0
H1122 H 0.59762 0.9302 0.73375 0.0
H1123 H 0.72792 0.98933 0.17296 0.0
H1124 H 0.60605 0.7198 0.09878 0.0
H1125 H 0.58558 0.69256 0.06794 0.0
H1126 H 0.58085 0.71635 0.88079 0.0
H1127 H 0.60014 0.74434 0.91329 0.0
H1128 H 0.54707 0.70536 0.91588 0.0
H1129 H 0.6091 0.67486 0.91481 0.0
H1130 H 0.6411 0.66443 0.95413 0.0
H1131 H 0.61382 0.63387 0.10593 0.0
H1132 H 0.5817 0.64424 0.06768 0.0
H1133 H 0.51155 0.62127 0.76231 0.0
H1134 H 0.53258 0.64753 0.79882 0.0
H1135 H 0.525 0.62858 0.99043 0.0
H1136 H 0.50402 0.60216 0.95415 0.0
H1137 H 0.56416 0.63667 0.95696 0.0
H1138 H 0.50137 0.66698 0.94678 0.0
H1139 H 0.47051 0.67579 0.89553 0.0
H1140 H 0.50156 0.70586 0.75047 0.0
H1141 H 0.53263 0.697 0.80045 0.0
C1142 C 0.60018 0.7195 0.05176 0.0
C1143 C 0.60407 0.73458 0.00935 0.0
C1144 C 0.58887 0.70365 0.03353 0.0
C1145 C 0.58166 0.70231 0.97184 0.0
C1146 C 0.58611 0.71708 0.92876 0.0
C1147 C 0.59723 0.73303 0.94728 0.0
C1148 C 0.56884 0.68599 0.95285 0.0
C1149 C 0.55103 0.69034 0.92401 0.0
C1150 C 0.57369 0.66635 0.96458 0.0
C1151 C 0.593 0.66055 0.98889 0.0
C1152 C 0.60995 0.66611 0.95701 0.0
C1153 C 0.62811 0.66014 0.97893 0.0
C1154 C 0.6295 0.64855 0.03261 0.0
C1155 C 0.61273 0.64288 0.06442 0.0
C1156 C 0.59454 0.64878 0.0426 0.0
C1157 C 0.51442 0.62267 0.81221 0.0
C1158 C 0.50613 0.6097 0.85544 0.0
C1159 C 0.52636 0.63771 0.83298 0.0
C1160 C 0.53026 0.64003 0.89732 0.0
C1161 C 0.52215 0.62702 0.9406 0.0
C1162 C 0.51006 0.61206 0.91989 0.0
C1163 C 0.54278 0.65613 0.9191 0.0
C1164 C 0.56039 0.65172 0.94878 0.0
C1165 C 0.53798 0.67569 0.90684 0.0
C1166 C 0.51932 0.68121 0.87711 0.0
C1167 C 0.50161 0.67536 0.90373 0.0
C1168 C 0.48409 0.68038 0.87495 0.0
C1169 C 0.48407 0.69135 0.81971 0.0
C1170 C 0.50159 0.69736 0.79324 0.0
C1171 C 0.51916 0.69237 0.82182 0.0
H1172 H 0.47048 0.69521 0.79749 0.0
H1173 H 0.64357 0.64391 0.04944 0.0
H1174 H 0.76949 0.56507 0.07111 0.0
H1175 H 0.79798 0.54626 0.0403 0.0
H1176 H 0.80765 0.58519 0.88493 0.0
H1177 H 0.77964 0.60457 0.91718 0.0
H1178 H 0.8068 0.547 0.84954 0.0
H1179 H 0.83746 0.58613 0.00624 0.0
H1180 H 0.84384 0.60062 0.11017 0.0
H1181 H 0.85184 0.54398 0.18951 0.0
H1182 H 0.84509 0.52908 0.08627 0.0
H1183 H 0.89629 0.5146 0.73694 0.0
H1184 H 0.8704 0.53391 0.78214 0.0
H1185 H 0.86812 0.49566 0.94236 0.0
H1186 H 0.89519 0.47689 0.89941 0.0
H1187 H 0.86477 0.53231 0.97938 0.0
H1188 H 0.83366 0.49326 0.82119 0.0
H1189 H 0.82969 0.47947 0.71488 0.0
H1190 H 0.82362 0.53673 0.6382 0.0
H1191 H 0.82765 0.55083 0.74378 0.0
C1192 C 0.77814 0.57013 0.03209 0.0
C1193 C 0.77267 0.5867 0.99784 0.0
C1194 C 0.79429 0.5592 0.01401 0.0
C1195 C 0.80505 0.56445 0.96076 0.0
C1196 C 0.79959 0.58095 0.9264 0.0
C1197 C 0.78358 0.59198 0.94481 0.0
C1198 C 0.82113 0.55202 0.93808 0.0
C1199 C 0.81957 0.54395 0.87774 0.0
C1200 C 0.8375 0.54759 0.97565 0.0
C1201 C 0.84055 0.55646 0.03853 0.0
C1202 C 0.84025 0.57672 0.04601 0.0
C1203 C 0.84401 0.58502 0.10477 0.0
C1204 C 0.84828 0.57323 0.15631 0.0
C1205 C 0.84854 0.55309 0.14947 0.0
C1206 C 0.84473 0.54471 0.09086 0.0
C1207 C 0.89058 0.51037 0.7823 0.0
C1208 C 0.89798 0.49414 0.81455 0.0
C1209 C 0.87551 0.52133 0.8077 0.0
C1210 C 0.86702 0.51605 0.86512 0.0
C1211 C 0.87436 0.49994 0.89776 0.0
C1212 C 0.8897 0.48909 0.87276 0.0
C1213 C 0.85049 0.52742 0.89066 0.0
C1214 C 0.85191 0.53522 0.95152 0.0
C1215 C 0.83392 0.53161 0.85373 0.0
C1216 C 0.83105 0.5231 0.79033 0.0
C1217 C 0.83152 0.5029 0.78157 0.0
C1218 C 0.82924 0.49502 0.72142 0.0
C1219 C 0.8264 0.5072 0.66972 0.0
C1220 C 0.82576 0.52728 0.67813 0.0
C1221 C 0.828 0.53522 0.73816 0.0
H1222 H 0.82468 0.50107 0.62321 0.0
H1223 H 0.85152 0.5797 0.20144 0.0
H1224 H 0.07728 0.17283 0.9878 0.0
H1225 H 0.05949 0.1449 0.94601 0.0
H1226 H 0.06436 0.16833 0.75869 0.0
H1227 H 0.08202 0.1962 0.7998 0.0
H1228 H 0.02744 0.15887 0.78772 0.0
H1229 H 0.09093 0.12977 0.80539 0.0
H1230 H 0.12052 0.11844 0.85922 0.0
H1231 H 0.08631 0.08153 0.9777 0.0
H1232 H 0.05652 0.09287 0.92533 0.0
H1233 H 0.02533 0.063 0.61244 0.0
H1234 H 0.03977 0.09001 0.66952 0.0
H1235 H 0.98878 0.09398 0.7859 0.0
H1236 H 0.97372 0.0676 0.72577 0.0
H1237 H 0.04594 0.08964 0.80405 0.0
H1238 H 0.98148 0.1261 0.79538 0.0
H1239 H 0.95329 0.13931 0.73834 0.0
H1240 H 0.9912 0.16466 0.60123 0.0
H1241 H 0.01956 0.15073 0.656 0.0
C1242 C 0.07473 0.17193 0.93762 0.0
C1243 C 0.08097 0.18681 0.89715 0.0
C1244 C 0.06462 0.15593 0.91384 0.0
C1245 C 0.0606 0.15456 0.84927 0.0
C1246 C 0.06725 0.16915 0.80873 0.0
C1247 C 0.07738 0.18507 0.83233 0.0
C1248 C 0.04847 0.13865 0.82376 0.0
C1249 C 0.03146 0.1437 0.79156 0.0
C1250 C 0.05352 0.11886 0.82975 0.0
C1251 C 0.07145 0.11243 0.86217 0.0
C1252 C 0.08969 0.11946 0.84356 0.0
C1253 C 0.10652 0.11297 0.87367 0.0
C1254 C 0.10531 0.09934 0.92208 0.0
C1255 C 0.08726 0.09214 0.94041 0.0
C1256 C 0.07039 0.0986 0.91056 0.0
C1257 C 0.01717 0.0696 0.65008 0.0
C1258 C 0.99857 0.06291 0.66573 0.0
C1259 C 0.02535 0.08521 0.68225 0.0
C1260 C 0.01516 0.09444 0.73087 0.0
C1261 C 0.99657 0.08777 0.7467 0.0
C1262 C 0.98813 0.07245 0.71322 0.0
C1263 C 0.02497 0.10986 0.7676 0.0
C1264 C 0.04167 0.10476 0.80164 0.0
C1265 C 0.01962 0.12963 0.76355 0.0
C1266 C 0.00253 0.1365 0.72792 0.0
C1267 C 0.98374 0.13377 0.75164 0.0
C1268 C 0.96775 0.14157 0.72007 0.0
C1269 C 0.97042 0.15261 0.66571 0.0
C1270 C 0.98912 0.15595 0.64299 0.0
C1271 C 0.00514 0.14796 0.67397 0.0
H1272 H 0.95803 0.15873 0.64154 0.0
H1273 H 0.11836 0.09429 0.94518 0.0
H1274 H 0.31926 0.06679 0.81331 0.0
H1275 H 0.34737 0.0524 0.7611 0.0
H1276 H 0.3838 0.0977 0.83557 0.0
H1277 H 0.35589 0.11197 0.88913 0.0
H1278 H 0.37727 0.06431 0.67698 0.0
H1279 H 0.42204 0.07713 0.8961 0.0
H1280 H 0.41517 0.08729 0.00505 0.0
H1281 H 0.36265 0.05407 0.00419 0.0
H1282 H 0.36929 0.04349 0.89542 0.0
H1283 H 0.47422 0.04015 0.61833 0.0
H1284 H 0.44639 0.05705 0.66096 0.0
H1285 H 0.42998 0.00577 0.76348 0.0
H1286 H 0.45847 0.98867 0.72138 0.0
H1287 H 0.42568 0.04092 0.83287 0.0
H1288 H 0.40914 0.01419 0.62995 0.0
H1289 H 0.41437 0.00872 0.51662 0.0
H1290 H 0.40935 0.06981 0.48211 0.0
H1291 H 0.40467 0.07574 0.59556 0.0
C1292 C 0.33319 0.0739 0.81772 0.0
C1293 C 0.33544 0.0903 0.85637 0.0
C1294 C 0.3492 0.06571 0.78747 0.0
C1295 C 0.36765 0.07384 0.79529 0.0
C1296 C 0.36967 0.0911 0.82965 0.0
C1297 C 0.35372 0.09919 0.86036 0.0
C1298 C 0.38502 0.06292 0.77496 0.0
C1299 C 0.38787 0.05919 0.71084 0.0
C1300 C 0.39864 0.056 0.81948 0.0
C1301 C 0.39609 0.05968 0.88761 0.0
C1302 C 0.40921 0.07171 0.91959 0.0
C1303 C 0.40528 0.07768 0.98106 0.0
C1304 C 0.38834 0.07162 0.01103 0.0
C1305 C 0.37565 0.05893 0.9806 0.0
C1306 C 0.37953 0.05289 0.91914 0.0
C1307 C 0.46511 0.03255 0.65112 0.0
C1308 C 0.4688 0.0132 0.66766 0.0
C1309 C 0.44904 0.04223 0.67506 0.0
C1310 C 0.4361 0.03263 0.71492 0.0
C1311 C 0.43989 0.01342 0.73281 0.0
C1312 C 0.45605 0.00368 0.70871 0.0
C1313 C 0.41805 0.0424 0.73464 0.0
C1314 C 0.41506 0.0459 0.79882 0.0
C1315 C 0.40427 0.049 0.68997 0.0
C1316 C 0.40668 0.04542 0.62145 0.0
C1317 C 0.40931 0.02649 0.59832 0.0
C1318 C 0.41221 0.0233 0.53404 0.0
C1319 C 0.41227 0.03892 0.49225 0.0
C1320 C 0.40937 0.05774 0.51462 0.0
C1321 C 0.4066 0.06102 0.57892 0.0
H1322 H 0.4145 0.03644 0.44253 0.0
H1323 H 0.38505 0.07678 0.05782 0.0
H1324 H 0.4295 0.30694 0.79628 0.0
H1325 H 0.44006 0.33727 0.7475 0.0
H1326 H 0.46365 0.35632 0.92494 0.0
H1327 H 0.45343 0.32598 0.9739 0.0
H1328 H 0.43942 0.38373 0.86579 0.0
H1329 H 0.49356 0.34181 0.81318 0.0
H1330 H 0.50871 0.31272 0.76695 0.0
H1331 H 0.48565 0.32769 0.5857 0.0
H1332 H 0.47021 0.35678 0.63093 0.0
H1333 H 0.48938 0.46771 0.76996 0.0
H1334 H 0.47998 0.43644 0.81459 0.0
H1335 H 0.46982 0.4142 0.62741 0.0
H1336 H 0.48022 0.44526 0.58302 0.0
H1337 H 0.48621 0.38789 0.68941 0.0
H1338 H 0.43254 0.42906 0.73366 0.0
H1339 H 0.41519 0.45775 0.77403 0.0
H1340 H 0.43322 0.44389 0.96207 0.0
H1341 H 0.45106 0.41536 0.92271 0.0
C1342 C 0.43709 0.3175 0.82483 0.0
C1343 C 0.44052 0.31409 0.8891 0.0
C1344 C 0.44313 0.3348 0.79684 0.0
C1345 C 0.45264 0.34899 0.83266 0.0
C1346 C 0.45629 0.34554 0.89657 0.0
C1347 C 0.45046 0.32818 0.92441 0.0
C1348 C 0.45826 0.36772 0.80411 0.0
C1349 C 0.44983 0.38474 0.82773 0.0
C1350 C 0.47122 0.36884 0.75282 0.0
C1351 C 0.48055 0.35136 0.72563 0.0
C1352 C 0.49158 0.33881 0.76358 0.0
C1353 C 0.50027 0.32235 0.7375 0.0
C1354 C 0.49812 0.31834 0.67344 0.0
C1355 C 0.48732 0.33082 0.63528 0.0
C1356 C 0.47861 0.3473 0.66111 0.0
C1357 C 0.48498 0.45615 0.73867 0.0
C1358 C 0.48525 0.4588 0.67338 0.0
C1359 C 0.47957 0.4383 0.76404 0.0
C1360 C 0.47374 0.42302 0.7245 0.0
C1361 C 0.4742 0.42572 0.65899 0.0
C1362 C 0.48009 0.44343 0.63364 0.0
C1363 C 0.46749 0.40413 0.75131 0.0
C1364 C 0.47574 0.38703 0.72734 0.0
C1365 C 0.45396 0.40291 0.80128 0.0
C1366 C 0.44328 0.42013 0.82511 0.0
C1367 C 0.43295 0.43221 0.78356 0.0
C1368 C 0.42302 0.44844 0.80626 0.0
C1369 C 0.4231 0.45262 0.87056 0.0
C1370 C 0.43318 0.44063 0.91227 0.0
C1371 C 0.44321 0.42443 0.88978 0.0
H1372 H 0.4153 0.46511 0.88812 0.0
H1373 H 0.50485 0.30559 0.65335 0.0
H1374 H 0.19882 0.45215 0.91272 0.0
H1375 H 0.17102 0.4653 0.85581 0.0
H1376 H 0.14589 0.4082 0.84473 0.0
H1377 H 0.17381 0.39484 0.90153 0.0
H1378 H 0.14179 0.42869 0.73328 0.0
H1379 H 0.12714 0.43878 0.95336 0.0
H1380 H 0.13283 0.4498 0.0623 0.0
H1381 H 0.14297 0.50768 0.99651 0.0
H1382 H 0.13702 0.4971 0.88722 0.0
H1383 H 0.04406 0.45626 0.6779 0.0
H1384 H 0.07353 0.44324 0.72507 0.0
H1385 H 0.09924 0.50018 0.7232 0.0
H1386 H 0.06976 0.51343 0.67565 0.0
H1387 H 0.10333 0.4801 0.83898 0.0
H1388 H 0.11378 0.4699 0.61904 0.0
H1389 H 0.1044 0.45885 0.51333 0.0
H1390 H 0.10089 0.40021 0.57965 0.0
H1391 H 0.10987 0.41099 0.68652 0.0
C1392 C 0.18751 0.44232 0.89759 0.0
C1393 C 0.18846 0.42246 0.91208 0.0
C1394 C 0.17157 0.44989 0.86538 0.0
C1395 C 0.15626 0.43777 0.84688 0.0
C1396 C 0.15753 0.41781 0.85879 0.0
C1397 C 0.17347 0.41021 0.8913 0.0
C1398 C 0.13873 0.44612 0.81689 0.0
C1399 C 0.13325 0.43976 0.75666 0.0
C1400 C 0.12778 0.46082 0.84686 0.0
C1401 C 0.13186 0.46712 0.91218 0.0
C1402 C 0.13073 0.45383 0.96212 0.0
C1403 C 0.13392 0.46 0.0239 0.0
C1404 C 0.13842 0.47936 0.03626 0.0
C1405 C 0.13956 0.49266 0.98686 0.0
C1406 C 0.13618 0.48662 0.92503 0.0
C1407 C 0.0559 0.4661 0.68775 0.0
C1408 C 0.05444 0.48598 0.67351 0.0
C1409 C 0.07278 0.45858 0.7144 0.0
C1410 C 0.08854 0.47075 0.72735 0.0
C1411 C 0.08717 0.49058 0.71359 0.0
C1412 C 0.07032 0.49812 0.68635 0.0
C1413 C 0.10642 0.46269 0.75559 0.0
C1414 C 0.11193 0.46909 0.81549 0.0
C1415 C 0.11726 0.44795 0.72545 0.0
C1416 C 0.11235 0.44128 0.66097 0.0
C1417 C 0.11085 0.45467 0.61129 0.0
C1418 C 0.1056 0.44845 0.5511 0.0
C1419 C 0.10201 0.42884 0.53972 0.0
C1420 C 0.10367 0.4154 0.58857 0.0
C1421 C 0.10885 0.42156 0.649 0.0
H1422 H 0.09803 0.42405 0.49302 0.0
H1423 H 0.14093 0.48408 0.08413 0.0
H1424 H 0.91368 0.87229 0.16323 0.0
H1425 H 0.92913 0.89971 0.2158 0.0
H1426 H 0.96028 0.86036 0.33698 0.0
H1427 H 0.94462 0.83283 0.28539 0.0
H1428 H 0.94582 0.89032 0.40286 0.0
H1429 H 0.98348 0.88212 0.21488 0.0
H1430 H 0.98903 0.87871 0.10102 0.0
H1431 H 0.9629 0.93435 0.06892 0.0
H1432 H 0.95723 0.93812 0.18275 0.0
H1433 H 0.02305 0.9715 0.42881 0.0
H1434 H 0.00929 0.94451 0.36807 0.0
H1435 H 0.95272 0.95744 0.44376 0.0
H1436 H 0.96666 0.98277 0.50834 0.0
H1437 H 0.98219 0.93946 0.27989 0.0
H1438 H 0.92849 0.91953 0.4738 0.0
H1439 H 0.92507 0.92656 0.58715 0.0
H1440 H 0.98696 0.92584 0.60855 0.0
H1441 H 0.99073 0.91866 0.49549 0.0
C1442 C 0.92376 0.86945 0.20123 0.0
C1443 C 0.92793 0.85037 0.22011 0.0
C1444 C 0.93266 0.88514 0.23099 0.0
C1445 C 0.94602 0.88206 0.27984 0.0
C1446 C 0.95003 0.86305 0.29936 0.0
C1447 C 0.94109 0.84734 0.26971 0.0
C1448 C 0.95575 0.8987 0.31064 0.0
C1449 C 0.95385 0.90098 0.37596 0.0
C1450 C 0.96638 0.91255 0.27574 0.0
C1451 C 0.9698 0.91034 0.20727 0.0
C1452 C 0.97881 0.89357 0.18349 0.0
C1453 C 0.98199 0.89158 0.11891 0.0
C1454 C 0.97623 0.90626 0.07762 0.0
C1455 C 0.96734 0.92299 0.10089 0.0
C1456 C 0.9642 0.92509 0.16546 0.0
C1457 C 0.00767 0.96854 0.43206 0.0
C1458 C 0.99584 0.97954 0.47222 0.0
C1459 C 0.99981 0.95326 0.39709 0.0
C1460 C 0.98002 0.94878 0.40203 0.0
C1461 C 0.9681 0.96033 0.44014 0.0
C1462 C 0.97606 0.9751 0.47647 0.0
C1463 C 0.97205 0.93115 0.3717 0.0
C1464 C 0.97427 0.92869 0.30668 0.0
C1465 C 0.96204 0.91692 0.40699 0.0
C1466 C 0.95987 0.91861 0.47622 0.0
C1467 C 0.94134 0.92052 0.50293 0.0
C1468 C 0.93935 0.92468 0.56699 0.0
C1469 C 0.9558 0.9268 0.60478 0.0
C1470 C 0.97425 0.92429 0.57907 0.0
C1471 C 0.97632 0.92013 0.51508 0.0
H1472 H 0.95427 0.93032 0.65409 0.0
H1473 H 0.97872 0.90472 0.02769 0.0
H1474 H 0.64735 0.90188 0.19185 0.0
H1475 H 0.62278 0.92072 0.24767 0.0
H1476 H 0.66719 0.95911 0.31781 0.0
H1477 H 0.69187 0.93987 0.26441 0.0
H1478 H 0.64321 0.95133 0.40757 0.0
H1479 H 0.63704 0.97162 0.19433 0.0
H1480 H 0.63352 0.96622 0.08034 0.0
H1481 H 0.57751 0.94079 0.10971 0.0
H1482 H 0.58083 0.94568 0.22425 0.0
H1483 H 0.56196 0.0274 0.43837 0.0
H1484 H 0.58705 0.0112 0.37518 0.0
H1485 H 0.57738 0.95818 0.47777 0.0
H1486 H 0.55233 0.97422 0.54029 0.0
H1487 H 0.58486 0.97652 0.29781 0.0
H1488 H 0.62433 0.9417 0.51224 0.0
H1489 H 0.63179 0.94937 0.62305 0.0
H1490 H 0.62515 0.01011 0.58466 0.0
H1491 H 0.61804 0.00284 0.47354 0.0
C1492 C 0.65189 0.9143 0.21932 0.0
C1493 C 0.67156 0.91945 0.22338 0.0
C1494 C 0.63781 0.92513 0.25089 0.0
C1495 C 0.6431 0.94152 0.28615 0.0
C1496 C 0.66275 0.94655 0.29079 0.0
C1497 C 0.67685 0.93559 0.25993 0.0
C1498 C 0.62819 0.95332 0.31885 0.0
C1499 C 0.63046 0.95679 0.38348 0.0
C1500 C 0.61178 0.96091 0.28709 0.0
C1501 C 0.60929 0.95882 0.21802 0.0
C1502 C 0.62399 0.96481 0.17656 0.0
C1503 C 0.62205 0.96184 0.11184 0.0
C1504 C 0.60537 0.95307 0.08786 0.0
C1505 C 0.59046 0.94751 0.12846 0.0
C1506 C 0.59236 0.95039 0.1933 0.0
C1507 C 0.56512 0.01223 0.44673 0.0
C1508 C 0.55487 0.00185 0.49266 0.0
C1509 C 0.57933 0.00301 0.41063 0.0
C1510 C 0.58392 0.9835 0.42169 0.0
C1511 C 0.57393 0.97323 0.4684 0.0
C1512 C 0.55955 0.98235 0.50376 0.0
C1513 C 0.59974 0.97399 0.38649 0.0
C1514 C 0.59762 0.97097 0.3216 0.0
C1515 C 0.61659 0.96727 0.4175 0.0
C1516 C 0.62042 0.97169 0.4847 0.0
C1517 C 0.62445 0.95669 0.52748 0.0
C1518 C 0.62866 0.96097 0.59033 0.0
C1519 C 0.62893 0.98022 0.61086 0.0
C1520 C 0.62488 0.99521 0.56873 0.0
C1521 C 0.62073 0.99101 0.50584 0.0
H1522 H 0.63236 0.98355 0.65934 0.0
H1523 H 0.60401 0.95055 0.03785 0.0
H1524 H 0.60331 0.67326 0.25123 0.0
H1525 H 0.58685 0.64713 0.30698 0.0
H1526 H 0.54302 0.6872 0.37033 0.0
H1527 H 0.55931 0.71358 0.31371 0.0
H1528 H 0.55852 0.6586 0.46547 0.0
H1529 H 0.52898 0.66269 0.2615 0.0
H1530 H 0.52905 0.66558 0.14592 0.0
H1531 H 0.5604 0.61199 0.13101 0.0
H1532 H 0.56077 0.60892 0.24668 0.0
H1533 H 0.49558 0.57844 0.54692 0.0
H1534 H 0.50655 0.60929 0.50235 0.0
H1535 H 0.55397 0.57992 0.41087 0.0
H1536 H 0.54375 0.54938 0.45684 0.0
H1537 H 0.5323 0.60574 0.33163 0.0
H1538 H 0.56395 0.60253 0.5331 0.0
H1539 H 0.56483 0.59904 0.64833 0.0
H1540 H 0.5306 0.65067 0.66865 0.0
H1541 H 0.52903 0.65417 0.55313 0.0
C1542 C 0.59029 0.67661 0.27753 0.0
C1543 C 0.58254 0.69545 0.27785 0.0
C1544 C 0.58092 0.66166 0.3093 0.0
C1545 C 0.56373 0.6653 0.34243 0.0
C1546 C 0.55631 0.6842 0.34502 0.0
C1547 C 0.56556 0.69918 0.31245 0.0
C1548 C 0.55308 0.64894 0.37072 0.0
C1549 C 0.55237 0.64723 0.43643 0.0
C1550 C 0.54541 0.63404 0.33247 0.0
C1551 C 0.54502 0.63565 0.26282 0.0
C1552 C 0.53601 0.65159 0.23362 0.0
C1553 C 0.53594 0.65324 0.1681 0.0
C1554 C 0.54471 0.63897 0.1312 0.0
C1555 C 0.55357 0.62301 0.15971 0.0
C1556 C 0.5537 0.62129 0.22526 0.0
C1557 C 0.50833 0.57853 0.51725 0.0
C1558 C 0.51858 0.56131 0.50459 0.0
C1559 C 0.51455 0.59616 0.49188 0.0
C1560 C 0.53097 0.59677 0.45309 0.0
C1561 C 0.54113 0.57966 0.44016 0.0
C1562 C 0.53516 0.56216 0.46627 0.0
C1563 C 0.53794 0.61524 0.42642 0.0
C1564 C 0.53803 0.6173 0.36084 0.0
C1565 C 0.54506 0.63038 0.46489 0.0
C1566 C 0.54614 0.62846 0.53437 0.0
C1567 C 0.55641 0.61303 0.56203 0.0
C1568 C 0.55708 0.61106 0.62742 0.0
C1569 C 0.54778 0.62462 0.66578 0.0
C1570 C 0.53778 0.64016 0.63882 0.0
C1571 C 0.53697 0.64213 0.57336 0.0
H1572 H 0.54841 0.62309 0.71638 0.0
H1573 H 0.54468 0.64032 0.08052 0.0
H1574 H 0.80906 0.55171 0.26806 0.0
H1575 H 0.83781 0.54061 0.32478 0.0
H1576 H 0.85412 0.59992 0.36089 0.0
H1577 H 0.82553 0.61119 0.30358 0.0
H1578 H 0.88383 0.57886 0.31316 0.0
H1579 H 0.83659 0.57131 0.47797 0.0
H1580 H 0.80577 0.5595 0.5222 0.0
H1581 H 0.82367 0.50068 0.49075 0.0
H1582 H 0.85449 0.51213 0.44539 0.0
H1583 H 0.96324 0.55762 0.51092 0.0
H1584 H 0.93255 0.56994 0.47017 0.0
H1585 H 0.91157 0.51136 0.44936 0.0
H1586 H 0.94197 0.49897 0.49293 0.0
H1587 H 0.88379 0.53287 0.49245 0.0
H1588 H 0.92893 0.53904 0.32158 0.0
H1589 H 0.95904 0.54946 0.2692 0.0
H1590 H 0.94479 0.60901 0.30554 0.0
H1591 H 0.91466 0.59894 0.3587 0.0
C1592 C 0.81862 0.56241 0.28876 0.0
C1593 C 0.81503 0.58234 0.28119 0.0
C1594 C 0.83501 0.55603 0.32135 0.0
C1595 C 0.84802 0.56945 0.3474 0.0
C1596 C 0.84425 0.58934 0.34113 0.0
C1597 C 0.82787 0.59574 0.30851 0.0
C1598 C 0.86612 0.56278 0.37806 0.0
C1599 C 0.88383 0.56907 0.35309 0.0
C1600 C 0.86608 0.54951 0.42877 0.0
C1601 C 0.84778 0.5426 0.45768 0.0
C1602 C 0.83391 0.55586 0.48008 0.0
C1603 C 0.81642 0.54923 0.50528 0.0
C1604 C 0.81271 0.52936 0.50884 0.0
C1605 C 0.82653 0.51607 0.48766 0.0
C1606 C 0.84402 0.52262 0.4623 0.0
C1607 C 0.95213 0.54735 0.49741 0.0
C1608 C 0.95508 0.52731 0.50443 0.0
C1609 C 0.93459 0.55442 0.474 0.0
C1610 C 0.91986 0.54157 0.45551 0.0
C1611 C 0.92272 0.52155 0.46319 0.0
C1612 C 0.94013 0.51449 0.48777 0.0
C1613 C 0.90156 0.54895 0.42752 0.0
C1614 C 0.88381 0.54277 0.45284 0.0
C1615 C 0.90153 0.56214 0.37649 0.0
C1616 C 0.91963 0.56823 0.34455 0.0
C1617 C 0.93227 0.55435 0.31871 0.0
C1618 C 0.94932 0.5602 0.28876 0.0
C1619 C 0.95381 0.57988 0.28402 0.0
C1620 C 0.94127 0.59377 0.30921 0.0
C1621 C 0.9242 0.58801 0.33917 0.0
H1622 H 0.96703 0.58438 0.26088 0.0
H1623 H 0.79918 0.52425 0.52849 0.0
loop_
_geom_bond_atom_site_label_1
_geom_bond_atom_site_label_2
_geom_bond_distance
_geom_bond_site_symmetry_2
_ccdc_geom_bond_type
O0 Cd1 2.300 . S
O0 C7 1.275 . S
Cd1 O0 2.300 . S
Cd1 O9 2.381 . S
Cd1 O10 2.378 . S
O2 Cd3 2.385 . S
O2 C7 1.255 . S
Cd3 O2 2.385 . S
Cd3 O4 2.317 . S
O4 Cd3 2.317 . S
O4 C5 1.232 . S
C5 O4 1.232 . S
C5 O6 1.218 . S
O6 C5 1.218 . S
C7 O0 1.275 . S
C7 O2 1.255 . S
C8 O9 1.258 . S
C8 O10 1.256 . S
O9 Cd1 2.381 . S
O9 C8 1.258 . S
O10 Cd1 2.378 . S
O10 C8 1.256 . S
O11 Cd12 2.300 . S
O11 C18 1.275 . S
Cd12 O11 2.300 . S
Cd12 O20 2.381 . S
Cd12 O21 2.378 . S
O13 Cd14 2.385 . S
O13 C18 1.255 . S
Cd14 O13 2.385 . S
Cd14 O15 2.317 . S
O15 Cd14 2.317 . S
O15 C16 1.232 . S
C16 O15 1.232 . S
C16 O17 1.218 . S
O17 C16 1.218 . S
C18 O11 1.275 . S
C18 O13 1.255 . S
C19 O20 1.258 . S
C19 O21 1.256 . S
O20 Cd12 2.381 . S
O20 C19 1.258 . S
O21 Cd12 2.378 . S
O21 C19 1.256 . S
O22 Cd23 2.300 . S
O22 C29 1.275 . S
Cd23 O22 2.300 . S
Cd23 O31 2.381 . S
Cd23 O32 2.378 . S
O24 Cd25 2.385 . S
O24 C29 1.255 . S
Cd25 O24 2.385 . S
Cd25 O26 2.317 . S
O26 Cd25 2.317 . S
O26 C27 1.232 . S
C27 O26 1.232 . S
C27 O28 1.218 . S
O28 C27 1.218 . S
C29 O22 1.275 . S
C29 O24 1.255 . S
C30 O31 1.258 . S
C30 O32 1.256 . S
O31 Cd23 2.381 . S
O31 C30 1.258 . S
O32 Cd23 2.378 . S
O32 C30 1.256 . S
O33 Cd34 2.300 . S
O33 C40 1.275 . S
Cd34 O33 2.300 . S
Cd34 O42 2.381 . S
Cd34 O43 2.378 . S
O35 Cd36 2.385 . S
O35 C40 1.255 . S
Cd36 O35 2.385 . S
Cd36 O37 2.317 . S
O37 Cd36 2.317 . S
O37 C38 1.232 . S
C38 O37 1.232 . S
C38 O39 1.218 . S
O39 C38 1.218 . S
C40 O33 1.275 . S
C40 O35 1.255 . S
C41 O42 1.258 . S
C41 O43 1.256 . S
O42 Cd34 2.381 . S
O42 C41 1.258 . S
O43 Cd34 2.378 . S
O43 C41 1.256 . S
O44 Cd45 2.300 . S
O44 C51 1.275 . S
Cd45 O44 2.300 . S
Cd45 O53 2.381 . S
Cd45 O54 2.378 . S
O46 Cd47 2.385 1_554 S
O46 C51 1.255 . S
Cd47 O46 2.385 1_556 S
Cd47 O48 2.317 . S
O48 Cd47 2.317 . S
O48 C49 1.232 . S
C49 O48 1.232 . S
C49 O50 1.218 . S
O50 C49 1.218 . S
C51 O44 1.275 . S
C51 O46 1.255 . S
C52 O53 1.258 . S
C52 O54 1.256 . S
O53 Cd45 2.381 . S
O53 C52 1.258 . S
O54 Cd45 2.378 . S
O54 C52 1.256 . S
O55 Cd56 2.300 . S
O55 C62 1.275 . S
Cd56 O55 2.300 . S
Cd56 O64 2.381 . S
Cd56 O65 2.378 . S
O57 Cd58 2.385 1_554 S
O57 C62 1.255 . S
Cd58 O57 2.385 1_556 S
Cd58 O59 2.317 . S
O59 Cd58 2.317 . S
O59 C60 1.232 . S
C60 O59 1.232 . S
C60 O61 1.218 . S
O61 C60 1.218 . S
C62 O55 1.275 . S
C62 O57 1.255 . S
C63 O64 1.258 . S
C63 O65 1.256 . S
O64 Cd56 2.381 . S
O64 C63 1.258 . S
O65 Cd56 2.378 . S
O65 C63 1.256 . S
O66 Cd67 2.300 . S
O66 C73 1.275 . S
Cd67 O66 2.300 . S
Cd67 O75 2.381 . S
Cd67 O76 2.378 . S
O68 Cd69 2.385 1_554 S
O68 C73 1.255 . S
Cd69 O68 2.385 1_556 S
Cd69 O70 2.317 . S
O70 Cd69 2.317 . S
O70 C71 1.232 . S
C71 O70 1.232 . S
C71 O72 1.218 . S
O72 C71 1.218 . S
C73 O66 1.275 . S
C73 O68 1.255 . S
C74 O75 1.258 . S
C74 O76 1.256 . S
O75 Cd67 2.381 . S
O75 C74 1.258 . S
O76 Cd67 2.378 . S
O76 C74 1.256 . S
O77 Cd78 2.300 . S
O77 C84 1.275 . S
Cd78 O77 2.300 . S
Cd78 O86 2.381 . S
Cd78 O87 2.378 . S
O79 Cd80 2.385 1_554 S
O79 C84 1.255 . S
Cd80 O79 2.385 1_556 S
Cd80 O81 2.317 . S
O81 Cd80 2.317 . S
O81 C82 1.232 . S
C82 O81 1.232 . S
C82 O83 1.218 . S
O83 C82 1.218 . S
C84 O77 1.275 . S
C84 O79 1.255 . S
C85 O86 1.258 . S
C85 O87 1.256 . S
O86 Cd78 2.381 . S
O86 C85 1.258 . S
O87 Cd78 2.378 . S
O87 C85 1.256 . S
Tb88 N119 2.660 1_565 S
Tb88 N126 2.607 . S
Tb88 O132 2.546 . S
Tb88 O133 2.610 1_455 S
Tb88 O135 2.332 1_455 S
Tb88 O136 2.552 . S
Tb88 O137 2.413 . S
Tb88 O139 2.362 1_565 S
Tb88 O140 2.421 . S
Tb88 C152 2.833 . S
C89 C92 1.432 . S
C89 C93 1.414 . S
C89 N96 1.359 . S
C90 C92 1.417 1_565 S
C90 C94 1.432 . S
C90 C102 1.410 . S
C91 C93 1.444 1_565 S
C91 C94 1.317 . S
C91 H114 0.929 . S
C92 C89 1.432 . S
C92 C90 1.417 1_545 S
C92 N100 1.360 . S
C93 C89 1.414 . S
C93 C91 1.444 1_545 S
C93 C98 1.385 . S
C94 C90 1.432 . S
C94 C91 1.317 . S
C94 H106 0.930 . S
C95 C97 1.392 . S
C95 C98 1.370 . S
C95 H107 0.931 . S
N96 C89 1.359 . S
N96 C97 1.327 . S
N96 Tb99 2.600 . S
C97 C95 1.392 . S
C97 N96 1.327 . S
C97 H104 0.930 . S
C98 C93 1.385 . S
C98 C95 1.370 . S
C98 H117 0.930 . S
Tb99 N96 2.600 . S
Tb99 N100 2.660 . S
Tb99 O133 2.362 1_545 S
Tb99 O134 2.421 . S
Tb99 O138 2.546 . S
Tb99 O139 2.610 1_655 S
Tb99 O141 2.320 1_655 S
Tb99 O142 2.552 1_655 S
Tb99 O143 2.416 . S
Tb99 C163 2.833 . S
N100 C92 1.360 . S
N100 Tb99 2.660 . S
N100 C101 1.305 1_645 S
C101 N100 1.305 1_465 S
C101 C103 1.407 . S
C101 H108 0.941 . S
C102 C90 1.410 . S
C102 C103 1.345 1_655 S
C102 H110 0.930 . S
C103 C101 1.407 . S
C103 C102 1.345 1_455 S
C103 H105 0.930 . S
H104 C97 0.930 . S
H105 C103 0.930 . S
H106 C94 0.930 . S
H107 C95 0.931 . S
H108 C101 0.941 . S
H109 C123 0.930 1_655 S
H110 C102 0.930 . S
H111 C129 0.930 . S
H112 C120 0.930 1_655 S
H113 C127 0.931 . S
H114 C91 0.929 . S
H115 C121 0.930 . S
H116 C154 0.930 . S
H117 C98 0.930 . S
H118 C153 0.929 . S
N119 Tb88 2.660 1_545 S
N119 C120 1.305 . S
N119 C124 1.360 . S
C120 H112 0.930 1_455 S
C120 N119 1.305 . S
C120 C123 1.407 . S
C121 H115 0.930 . S
C121 C122 1.410 . S
C121 C123 1.345 . S
C122 C121 1.410 . S
C122 C124 1.417 . S
C122 C154 1.432 . S
C123 H109 0.930 1_455 S
C123 C120 1.407 . S
C123 C121 1.345 . S
C124 N119 1.360 . S
C124 C122 1.417 . S
C124 C128 1.432 . S
H125 C130 0.930 . S
N126 Tb88 2.607 . S
N126 C128 1.342 1_565 S
N126 C129 1.342 . S
C127 H113 0.931 . S
C127 C129 1.392 . S
C127 C130 1.370 1_565 S
C128 C124 1.432 . S
C128 N126 1.342 1_545 S
C128 C131 1.414 . S
C129 H111 0.930 . S
C129 N126 1.342 . S
C129 C127 1.392 . S
C130 H125 0.930 . S
C130 C127 1.370 1_545 S
C130 C131 1.385 . S
C131 C128 1.414 . S
C131 C130 1.385 . S
C131 C153 1.444 . S
O132 Tb88 2.546 . S
O132 C152 1.251 . S
O133 Tb88 2.610 1_655 S
O133 Tb99 2.362 1_565 S
O133 C144 1.283 . S
O134 Tb99 2.421 . S
O134 C151 1.262 . S
O135 Tb88 2.332 1_655 S
O135 C151 1.243 1_565 S
O136 Tb88 2.552 . S
O136 C144 1.243 1_455 S
O137 Tb88 2.413 . S
O137 C152 1.256 . S
O138 Tb99 2.546 . S
O138 C163 1.251 . S
O139 Tb88 2.362 1_545 S
O139 Tb99 2.610 1_455 S
O139 C155 1.283 . S
O140 Tb88 2.421 . S
O140 C162 1.262 1_565 S
O141 Tb99 2.320 1_455 S
O141 C162 1.260 . S
O142 Tb99 2.552 1_455 S
O142 C155 1.243 . S
O143 Tb99 2.416 . S
O143 C163 1.264 . S
C144 O133 1.283 . S
C144 O136 1.243 1_655 S
C145 C147 1.382 . S
C145 C149 1.393 . S
C145 C152 1.500 . S
C146 C147 1.400 . S
C146 C148 1.384 . S
C147 C145 1.382 . S
C147 C146 1.400 . S
C147 H164 0.930 1_455 S
C148 C146 1.384 . S
C148 C150 1.392 . S
C148 H165 0.931 . S
C149 C145 1.393 . S
C149 C150 1.401 . S
C149 H166 0.930 . S
C150 C148 1.392 . S
C150 C149 1.401 . S
C150 H167 0.930 . S
C151 O134 1.262 . S
C151 O135 1.243 1_545 S
C152 Tb88 2.833 . S
C152 O132 1.251 . S
C152 O137 1.256 . S
C152 C145 1.500 . S
C153 H118 0.929 . S
C153 C131 1.444 . S
C153 C154 1.317 . S
C154 H116 0.930 . S
C154 C122 1.432 . S
C154 C153 1.317 . S
C155 O139 1.283 . S
C155 O142 1.243 . S
C156 C157 1.382 1_655 S
C156 C160 1.393 . S
C156 C163 1.500 . S
C157 C156 1.382 1_455 S
C157 C158 1.401 . S
C157 H168 0.930 . S
C158 C157 1.401 . S
C158 C159 1.374 1_455 S
C159 C158 1.374 1_655 S
C159 C161 1.392 . S
C159 H169 0.931 . S
C160 C156 1.393 . S
C160 C161 1.401 . S
C160 H170 0.930 . S
C161 C159 1.392 . S
C161 C160 1.401 . S
C161 H171 0.930 . S
C162 O140 1.262 1_545 S
C162 O141 1.260 . S
C163 Tb99 2.833 . S
C163 O138 1.251 . S
C163 O143 1.264 . S
C163 C156 1.500 . S
H164 C147 0.930 1_655 S
H165 C148 0.931 . S
H166 C149 0.930 . S
H167 C150 0.930 . S
H168 C157 0.930 . S
H169 C159 0.931 . S
H170 C160 0.930 . S
H171 C161 0.930 . S
Tb172 N203 2.660 . S
Tb172 N210 2.600 . S
Tb172 O216 2.546 . S
Tb172 O217 2.616 . S
Tb172 O219 2.320 1_545 S
Tb172 O220 2.552 . S
Tb172 O221 2.413 . S
Tb172 O223 2.362 . S
Tb172 O224 2.421 . S
Tb172 C236 2.833 . S
C173 C176 1.432 . S
C173 C177 1.414 . S
C173 N180 1.359 . S
C174 C176 1.417 . S
C174 C178 1.432 . S
C174 C186 1.410 . S
C175 C177 1.444 . S
C175 C178 1.317 . S
C175 H198 0.929 . S
C176 C173 1.432 . S
C176 C174 1.417 . S
C176 N184 1.360 . S
C177 C173 1.414 . S
C177 C175 1.444 . S
C177 C182 1.385 . S
C178 C174 1.432 . S
C178 C175 1.317 . S
C178 H190 0.930 . S
C179 C181 1.392 . S
C179 C182 1.370 . S
C179 H191 0.931 . S
N180 C173 1.359 . S
N180 C181 1.327 . S
N180 Tb183 2.600 . S
C181 C179 1.392 . S
C181 N180 1.327 . S
C181 H188 0.930 . S
C182 C177 1.385 . S
C182 C179 1.370 . S
C182 H201 0.930 . S
Tb183 N180 2.600 . S
Tb183 N184 2.660 . S
Tb183 O217 2.360 1_565 S
Tb183 O218 2.421 . S
Tb183 O222 2.546 . S
Tb183 O223 2.610 1_565 S
Tb183 O225 2.320 1_565 S
Tb183 O226 2.552 1_565 S
Tb183 O227 2.413 1_565 S
Tb183 C247 2.833 . S
N184 C176 1.360 . S
N184 Tb183 2.660 . S
N184 C185 1.305 1_565 S
C185 N184 1.305 1_545 S
C185 C187 1.407 . S
C185 H192 0.930 . S
C186 C174 1.410 . S
C186 C187 1.345 1_565 S
C186 H194 0.930 . S
C187 C185 1.407 . S
C187 C186 1.345 1_545 S
C187 H189 0.930 . S
H188 C181 0.930 . S
H189 C187 0.930 . S
H190 C178 0.930 . S
H191 C179 0.931 . S
H192 C185 0.930 . S
H193 C207 0.930 1_565 S
H194 C186 0.930 . S
H195 C213 0.930 . S
H196 C204 0.930 1_565 S
H197 C211 0.931 . S
H198 C175 0.929 . S
H199 C205 0.930 . S
H200 C238 0.930 . S
H201 C182 0.930 . S
H202 C237 0.929 . S
N203 Tb172 2.660 . S
N203 C204 1.305 . S
N203 C208 1.360 . S
C204 H196 0.930 1_545 S
C204 N203 1.305 . S
C204 C207 1.407 . S
C205 H199 0.930 . S
C205 C206 1.410 . S
C205 C207 1.345 . S
C206 C205 1.410 . S
C206 C208 1.417 . S
C206 C238 1.432 . S
C207 H193 0.930 1_545 S
C207 C204 1.407 . S
C207 C205 1.345 . S
C208 N203 1.360 . S
C208 C206 1.417 . S
C208 C212 1.432 . S
H209 C214 0.930 . S
N210 Tb172 2.600 . S
N210 C212 1.359 . S
N210 C213 1.327 . S
C211 H197 0.931 . S
C211 C213 1.392 . S
C211 C214 1.370 . S
C212 C208 1.432 . S
C212 N210 1.359 . S
C212 C215 1.414 . S
C213 H195 0.930 . S
C213 N210 1.327 . S
C213 C211 1.392 . S
C214 H209 0.930 . S
C214 C211 1.370 . S
C214 C215 1.385 . S
C215 C212 1.414 . S
C215 C214 1.385 . S
C215 C237 1.444 . S
O216 Tb172 2.546 . S
O216 C236 1.251 . S
O217 Tb172 2.616 . S
O217 Tb183 2.360 1_545 S
O217 C228 1.283 . S
O218 Tb183 2.421 . S
O218 C235 1.262 . S
O219 Tb172 2.320 1_565 S
O219 C235 1.260 . S
O220 Tb172 2.552 . S
O220 C228 1.255 . S
O221 Tb172 2.413 . S
O221 C236 1.256 . S
O222 Tb183 2.546 . S
O222 C247 1.251 . S
O223 Tb172 2.362 . S
O223 Tb183 2.610 1_545 S
O223 C239 1.283 . S
O224 Tb172 2.421 . S
O224 C246 1.262 . S
O225 Tb183 2.320 1_545 S
O225 C246 1.260 . S
O226 Tb183 2.552 1_545 S
O226 C239 1.243 . S
O227 Tb183 2.413 1_545 S
O227 C247 1.256 1_545 S
C228 O217 1.283 . S
C228 O220 1.255 . S
C229 C231 1.382 . S
C229 C233 1.393 . S
C229 C236 1.500 . S
C230 C231 1.400 . S
C230 C232 1.384 . S
C231 C229 1.382 . S
C231 C230 1.400 . S
C231 H248 0.930 . S
C232 C230 1.384 . S
C232 C234 1.392 . S
C232 H249 0.931 . S
C233 C229 1.393 . S
C233 C234 1.401 . S
C233 H250 0.930 . S
C234 C232 1.392 . S
C234 C233 1.401 . S
C234 H251 0.930 . S
C235 O218 1.262 . S
C235 O219 1.260 . S
C236 Tb172 2.833 . S
C236 O216 1.251 . S
C236 O221 1.256 . S
C236 C229 1.500 . S
C237 H202 0.929 . S
C237 C215 1.444 . S
C237 C238 1.317 . S
C238 H200 0.930 . S
C238 C206 1.432 . S
C238 C237 1.317 . S
C239 O223 1.283 . S
C239 O226 1.243 . S
C240 C241 1.382 1_565 S
C240 C244 1.393 . S
C240 C247 1.500 . S
C241 C240 1.382 1_545 S
C241 C242 1.400 . S
C241 H252 0.930 . S
C242 C241 1.400 . S
C242 C243 1.384 1_545 S
C243 C242 1.384 1_565 S
C243 C245 1.392 . S
C243 H253 0.931 . S
C244 C240 1.393 . S
C244 C245 1.401 . S
C244 H254 0.930 . S
C245 C243 1.392 . S
C245 C244 1.401 . S
C245 H255 0.930 . S
C246 O224 1.262 . S
C246 O225 1.260 . S
C247 Tb183 2.833 . S
C247 O222 1.251 . S
C247 O227 1.256 1_565 S
C247 C240 1.500 . S
H248 C231 0.930 . S
H249 C232 0.931 . S
H250 C233 0.930 . S
H251 C234 0.930 . S
H252 C241 0.930 . S
H253 C243 0.931 . S
H254 C244 0.930 . S
H255 C245 0.930 . S
Tb256 N287 2.660 . S
Tb256 N294 2.600 . S
Tb256 O300 2.546 . S
Tb256 O301 2.610 . S
Tb256 O303 2.320 . S
Tb256 O304 2.552 . S
Tb256 O305 2.413 . S
Tb256 O307 2.362 . S
Tb256 O308 2.421 . S
Tb256 C320 2.833 . S
C257 C260 1.432 . S
C257 C261 1.414 . S
C257 N264 1.359 . S
C258 C260 1.417 . S
C258 C262 1.432 . S
C258 C270 1.410 . S
C259 C261 1.444 . S
C259 C262 1.317 . S
C259 H282 0.929 . S
C260 C257 1.432 . S
C260 C258 1.417 . S
C260 N268 1.360 . S
C261 C257 1.414 . S
C261 C259 1.444 . S
C261 C266 1.385 . S
C262 C258 1.432 . S
C262 C259 1.317 . S
C262 H274 0.930 . S
C263 C265 1.392 . S
C263 C266 1.370 . S
C263 H275 0.931 . S
N264 C257 1.359 . S
N264 C265 1.327 . S
N264 Tb267 2.600 . S
C265 C263 1.392 . S
C265 N264 1.327 . S
C265 H272 0.930 . S
C266 C261 1.385 . S
C266 C263 1.370 . S
C266 H285 0.930 . S
Tb267 N264 2.600 . S
Tb267 N268 2.660 . S
Tb267 O301 2.362 . S
Tb267 O302 2.421 . S
Tb267 O306 2.546 . S
Tb267 O307 2.610 . S
Tb267 O309 2.320 . S
Tb267 O310 2.552 . S
Tb267 O311 2.413 . S
Tb267 C331 2.833 . S
N268 C260 1.360 . S
N268 Tb267 2.660 . S
N268 C269 1.305 . S
C269 N268 1.305 . S
C269 C271 1.407 . S
C269 H276 0.930 . S
C270 C258 1.410 . S
C270 C271 1.345 . S
C270 H278 0.930 . S
C271 C269 1.407 . S
C271 C270 1.345 . S
C271 H273 0.930 . S
H272 C265 0.930 . S
H273 C271 0.930 . S
H274 C262 0.930 . S
H275 C263 0.931 . S
H276 C269 0.930 . S
H277 C291 0.930 . S
H278 C270 0.930 . S
H279 C297 0.930 . S
H280 C288 0.930 . S
H281 C295 0.931 . S
H282 C259 0.929 . S
H283 C289 0.930 . S
H284 C322 0.930 . S
H285 C266 0.930 . S
H286 C321 0.929 . S
N287 Tb256 2.660 . S
N287 C288 1.305 . S
N287 C292 1.360 . S
C288 H280 0.930 . S
C288 N287 1.305 . S
C288 C291 1.407 . S
C289 H283 0.930 . S
C289 C290 1.410 . S
C289 C291 1.345 . S
C290 C289 1.410 . S
C290 C292 1.417 . S
C290 C322 1.432 . S
C291 H277 0.930 . S
C291 C288 1.407 . S
C291 C289 1.345 . S
C292 N287 1.360 . S
C292 C290 1.417 . S
C292 C296 1.432 . S
H293 C298 0.930 . S
N294 Tb256 2.600 . S
N294 C296 1.359 . S
N294 C297 1.327 . S
C295 H281 0.931 . S
C295 C297 1.392 . S
C295 C298 1.370 . S
C296 C292 1.432 . S
C296 N294 1.359 . S
C296 C299 1.414 . S
C297 H279 0.930 . S
C297 N294 1.327 . S
C297 C295 1.392 . S
C298 H293 0.930 . S
C298 C295 1.370 . S
C298 C299 1.385 . S
C299 C296 1.414 . S
C299 C298 1.385 . S
C299 C321 1.444 . S
O300 Tb256 2.546 . S
O300 C320 1.251 . S
O301 Tb256 2.610 . S
O301 Tb267 2.362 . S
O301 C312 1.283 . S
O302 Tb267 2.421 . S
O302 C319 1.262 . S
O303 Tb256 2.320 . S
O303 C319 1.260 . S
O304 Tb256 2.552 . S
O304 C312 1.243 . S
O305 Tb256 2.413 . S
O305 C320 1.256 . S
O306 Tb267 2.546 . S
O306 C331 1.251 . S
O307 Tb256 2.362 . S
O307 Tb267 2.610 . S
O307 C323 1.283 . S
O308 Tb256 2.421 . S
O308 C330 1.262 . S
O309 Tb267 2.320 . S
O309 C330 1.260 . S
O310 Tb267 2.552 . S
O310 C323 1.243 . S
O311 Tb267 2.413 . S
O311 C331 1.256 . S
C312 O301 1.283 . S
C312 O304 1.243 . S
C313 C315 1.382 . S
C313 C317 1.393 . S
C313 C320 1.500 . S
C314 C315 1.400 . S
C314 C316 1.384 . S
C315 C313 1.382 . S
C315 C314 1.400 . S
C315 H332 0.930 . S
C316 C314 1.384 . S
C316 C318 1.392 . S
C316 H333 0.931 . S
C317 C313 1.393 . S
C317 C318 1.401 . S
C317 H334 0.930 . S
C318 C316 1.392 . S
C318 C317 1.401 . S
C318 H335 0.930 . S
C319 O302 1.262 . S
C319 O303 1.260 . S
C320 Tb256 2.833 . S
C320 O300 1.251 . S
C320 O305 1.256 . S
C320 C313 1.500 . S
C321 H286 0.929 . S
C321 C299 1.444 . S
C321 C322 1.317 . S
C322 H284 0.930 . S
C322 C290 1.432 . S
C322 C321 1.317 . S
C323 O307 1.283 . S
C323 O310 1.243 . S
C324 C325 1.382 . S
C324 C328 1.393 . S
C324 C331 1.500 . S
C325 C324 1.382 . S
C325 C326 1.400 . S
C325 H336 0.930 . S
C326 C325 1.400 . S
C326 C327 1.384 . S
C327 C326 1.384 . S
C327 C329 1.392 . S
C327 H337 0.931 . S
C328 C324 1.393 . S
C328 C329 1.401 . S
C328 H338 0.930 . S
C329 C327 1.392 . S
C329 C328 1.401 . S
C329 H339 0.930 . S
C330 O308 1.262 . S
C330 O309 1.260 . S
C331 Tb267 2.833 . S
C331 O306 1.251 . S
C331 O311 1.256 . S
C331 C324 1.500 . S
H332 C315 0.930 . S
H333 C316 0.931 . S
H334 C317 0.930 . S
H335 C318 0.930 . S
H336 C325 0.930 . S
H337 C327 0.931 . S
H338 C328 0.930 . S
H339 C329 0.930 . S
Tb340 N371 2.660 . S
Tb340 N378 2.600 . S
Tb340 O384 2.546 . S
Tb340 O385 2.610 . S
Tb340 O387 2.320 . S
Tb340 O388 2.552 . S
Tb340 O389 2.413 . S
Tb340 O391 2.362 . S
Tb340 O392 2.421 1_455 S
Tb340 C404 2.833 . S
C341 C344 1.432 . S
C341 C345 1.414 . S
C341 N348 1.359 . S
C342 C344 1.417 . S
C342 C346 1.432 . S
C342 C354 1.410 . S
C343 C345 1.444 . S
C343 C346 1.317 . S
C343 H366 0.929 . S
C344 C341 1.432 . S
C344 C342 1.417 . S
C344 N352 1.360 . S
C345 C341 1.414 . S
C345 C343 1.444 . S
C345 C350 1.385 . S
C346 C342 1.432 . S
C346 C343 1.317 . S
C346 H358 0.930 . S
C347 C349 1.392 . S
C347 C350 1.370 1_455 S
C347 H359 0.931 . S
N348 C341 1.359 . S
N348 C349 1.327 1_655 S
N348 Tb351 2.600 . S
C349 C347 1.392 . S
C349 N348 1.327 1_455 S
C349 H356 0.930 . S
C350 C345 1.385 . S
C350 C347 1.370 1_655 S
C350 H369 0.933 . S
Tb351 N348 2.600 . S
Tb351 N352 2.660 . S
Tb351 O385 2.362 1_655 S
Tb351 O386 2.421 1_655 S
Tb351 O390 2.546 . S
Tb351 O391 2.610 1_655 S
Tb351 O393 2.320 . S
Tb351 O394 2.552 . S
Tb351 O395 2.413 . S
Tb351 C415 2.833 . S
N352 C344 1.360 . S
N352 Tb351 2.660 . S
N352 C353 1.305 . S
C353 N352 1.305 . S
C353 C355 1.407 . S
C353 H360 0.930 . S
C354 C342 1.410 . S
C354 C355 1.345 . S
C354 H362 0.930 . S
C355 C353 1.407 . S
C355 C354 1.345 . S
C355 H357 0.930 . S
H356 C349 0.930 . S
H357 C355 0.930 . S
H358 C346 0.930 . S
H359 C347 0.931 . S
H360 C353 0.930 . S
H361 C375 0.930 . S
H362 C354 0.930 . S
H363 C381 0.930 1_655 S
H364 C372 0.930 . S
H365 C379 0.931 1_655 S
H366 C343 0.929 . S
H367 C373 0.930 . S
H368 C406 0.930 . S
H369 C350 0.933 . S
H370 C405 0.929 . S
N371 Tb340 2.660 . S
N371 C372 1.305 . S
N371 C376 1.360 . S
C372 H364 0.930 . S
C372 N371 1.305 . S
C372 C375 1.407 . S
C373 H367 0.930 . S
C373 C374 1.410 . S
C373 C375 1.345 . S
C374 C373 1.410 . S
C374 C376 1.417 . S
C374 C406 1.432 . S
C375 H361 0.930 . S
C375 C372 1.407 . S
C375 C373 1.345 . S
C376 N371 1.360 . S
C376 C374 1.417 . S
C376 C380 1.432 . S
H377 C382 0.930 . S
N378 Tb340 2.600 . S
N378 C380 1.359 . S
N378 C381 1.327 . S
C379 H365 0.931 1_455 S
C379 C381 1.392 . S
C379 C382 1.370 . S
C380 C376 1.432 . S
C380 N378 1.359 . S
C380 C383 1.414 . S
C381 H363 0.930 1_455 S
C381 N378 1.327 . S
C381 C379 1.392 . S
C382 H377 0.930 . S
C382 C379 1.370 . S
C382 C383 1.385 . S
C383 C380 1.414 . S
C383 C382 1.385 . S
C383 C405 1.444 . S
O384 Tb340 2.546 . S
O384 C404 1.251 . S
O385 Tb340 2.610 . S
O385 Tb351 2.362 1_455 S
O385 C396 1.283 . S
O386 Tb351 2.421 1_455 S
O386 C403 1.262 . S
O387 Tb340 2.320 . S
O387 C403 1.260 . S
O388 Tb340 2.552 . S
O388 C396 1.243 . S
O389 Tb340 2.413 . S
O389 C404 1.256 . S
O390 Tb351 2.546 . S
O390 C415 1.251 . S
O391 Tb340 2.362 . S
O391 Tb351 2.610 1_455 S
O391 C407 1.283 1_455 S
O392 Tb340 2.421 1_655 S
O392 C414 1.262 . S
O393 Tb351 2.320 . S
O393 C414 1.260 . S
O394 Tb351 2.552 . S
O394 C407 1.243 . S
O395 Tb351 2.413 . S
O395 C415 1.256 . S
C396 O385 1.283 . S
C396 O388 1.243 . S
C397 C399 1.382 . S
C397 C401 1.393 . S
C397 C404 1.500 . S
C398 C399 1.400 . S
C398 C400 1.384 . S
C399 C397 1.382 . S
C399 C398 1.400 . S
C399 H416 0.930 . S
C400 C398 1.384 . S
C400 C402 1.392 . S
C400 H417 0.931 . S
C401 C397 1.393 . S
C401 C402 1.401 . S
C401 H418 0.930 . S
C402 C400 1.392 . S
C402 C401 1.401 . S
C402 H419 0.930 . S
C403 O386 1.262 . S
C403 O387 1.260 . S
C404 Tb340 2.833 . S
C404 O384 1.251 . S
C404 O389 1.256 . S
C404 C397 1.500 . S
C405 H370 0.929 . S
C405 C383 1.444 . S
C405 C406 1.317 . S
C406 H368 0.930 . S
C406 C374 1.432 . S
C406 C405 1.317 . S
C407 O391 1.283 1_655 S
C407 O394 1.243 . S
C408 C409 1.382 . S
C408 C412 1.393 . S
C408 C415 1.500 . S
C409 C408 1.382 . S
C409 C410 1.400 . S
C409 H420 0.930 . S
C410 C409 1.400 . S
C410 C411 1.384 . S
C411 C410 1.384 . S
C411 C413 1.392 . S
C411 H421 0.931 . S
C412 C408 1.393 . S
C412 C413 1.401 . S
C412 H422 0.930 . S
C413 C411 1.392 . S
C413 C412 1.401 . S
C413 H423 0.930 . S
C414 O392 1.262 . S
C414 O393 1.260 . S
C415 Tb351 2.833 . S
C415 O390 1.251 . S
C415 O395 1.256 . S
C415 C408 1.500 . S
H416 C399 0.930 . S
H417 C400 0.931 . S
H418 C401 0.930 . S
H419 C402 0.930 . S
H420 C409 0.930 . S
H421 C411 0.931 . S
H422 C412 0.930 . S
H423 C413 0.930 . S
H424 C442 0.951 . S
H425 C444 0.951 . S
H426 C446 0.950 . S
H427 C447 0.950 . S
H428 C449 0.950 . S
H429 C452 0.950 . S
H430 C453 0.950 . S
H431 C455 0.950 . S
H432 C456 0.950 . S
H433 C457 0.951 . S
H434 C459 0.951 . S
H435 C461 0.950 . S
H436 C462 0.948 1_565 S
H437 C464 0.950 . S
H438 C467 0.950 . S
H439 C468 0.950 . S
H440 C470 0.950 . S
H441 C471 0.950 . S
C442 H424 0.951 . S
C442 C443 1.366 . S
C442 C444 1.388 . S
C443 C442 1.366 . S
C443 C447 1.385 . S
C444 H425 0.951 . S
C444 C442 1.388 . S
C444 C445 1.366 . S
C445 C444 1.366 . S
C445 C446 1.414 . S
C445 C448 1.499 . S
C446 H426 0.950 . S
C446 C445 1.414 . S
C446 C447 1.374 . S
C447 H427 0.950 . S
C447 C443 1.385 . S
C447 C446 1.374 . S
C448 C445 1.499 . S
C448 C449 1.373 . S
C448 C450 1.389 . S
C449 H428 0.950 . S
C449 C448 1.373 . S
C449 C465 1.377 . S
C450 C448 1.389 . S
C450 C451 1.524 . S
C450 C464 1.377 . S
C451 C450 1.524 . S
C451 C452 1.397 . S
C451 C456 1.363 1_545 S
C452 H429 0.950 . S
C452 C451 1.397 . S
C452 C453 1.334 . S
C453 H430 0.950 . S
C453 C452 1.334 . S
C453 C454 1.287 1_545 S
C454 C453 1.287 1_565 S
C454 C455 1.524 . S
C454 H473 0.913 . S
C455 H431 0.950 . S
C455 C454 1.524 . S
C455 C456 1.415 . S
C456 H432 0.950 . S
C456 C451 1.363 1_565 S
C456 C455 1.415 . S
C457 H433 0.951 . S
C457 C458 1.366 . S
C457 C459 1.388 . S
C458 C457 1.366 . S
C458 C462 1.385 . S
C459 H434 0.951 . S
C459 C457 1.388 . S
C459 C460 1.366 . S
C460 C459 1.366 . S
C460 C461 1.414 . S
C460 C463 1.499 . S
C461 H435 0.950 . S
C461 C460 1.414 . S
C461 C462 1.374 . S
C462 H436 0.948 1_545 S
C462 C458 1.385 . S
C462 C461 1.374 . S
C463 C460 1.499 . S
C463 C464 1.373 . S
C463 C465 1.389 . S
C464 H437 0.950 . S
C464 C450 1.377 . S
C464 C463 1.373 . S
C465 C449 1.377 . S
C465 C463 1.389 . S
C465 C466 1.524 . S
C466 C465 1.524 . S
C466 C467 1.397 . S
C466 C471 1.363 . S
C467 H438 0.950 . S
C467 C466 1.397 . S
C467 C468 1.334 . S
C468 H439 0.950 . S
C468 C467 1.334 . S
C468 C469 1.287 . S
C469 C468 1.287 . S
C469 C470 1.524 . S
C469 H472 0.999 . S
C470 H440 0.950 . S
C470 C469 1.524 . S
C470 C471 1.415 . S
C471 H441 0.950 . S
C471 C466 1.363 . S
C471 C470 1.415 . S
H472 C469 0.999 . S
H473 C454 0.913 . S
H474 C492 0.951 . S
H475 C494 0.951 . S
H476 C496 0.950 . S
H477 C497 0.950 . S
H478 C499 0.950 . S
H479 C502 0.950 . S
H480 C503 0.950 . S
H481 C505 0.950 . S
H482 C506 0.950 . S
H483 C507 0.951 . S
H484 C509 0.951 . S
H485 C511 0.950 . S
H486 C512 0.950 . S
H487 C514 0.950 . S
H488 C517 0.950 . S
H489 C518 0.950 . S
H490 C520 0.950 . S
H491 C521 0.950 . S
C492 H474 0.951 . S
C492 C493 1.366 . S
C492 C494 1.388 . S
C493 C492 1.366 . S
C493 C497 1.385 . S
C494 H475 0.951 . S
C494 C492 1.388 . S
C494 C495 1.366 . S
C495 C494 1.366 . S
C495 C496 1.414 . S
C495 C498 1.499 . S
C496 H476 0.950 . S
C496 C495 1.414 . S
C496 C497 1.374 . S
C497 H477 0.950 . S
C497 C493 1.385 . S
C497 C496 1.374 . S
C498 C495 1.499 . S
C498 C499 1.373 . S
C498 C500 1.389 . S
C499 H478 0.950 . S
C499 C498 1.373 . S
C499 C515 1.377 . S
C500 C498 1.389 . S
C500 C501 1.524 . S
C500 C514 1.377 . S
C501 C500 1.524 . S
C501 C502 1.397 . S
C501 C506 1.363 . S
C502 H479 0.950 . S
C502 C501 1.397 . S
C502 C503 1.334 . S
C503 H480 0.950 . S
C503 C502 1.334 . S
C503 C504 1.287 . S
C504 C503 1.287 . S
C504 C505 1.524 . S
C504 H523 0.913 . S
C505 H481 0.950 . S
C505 C504 1.524 . S
C505 C506 1.415 . S
C506 H482 0.950 . S
C506 C501 1.363 . S
C506 C505 1.415 . S
C507 H483 0.951 . S
C507 C508 1.366 . S
C507 C509 1.388 . S
C508 C507 1.366 . S
C508 C512 1.385 . S
C509 H484 0.951 . S
C509 C507 1.388 . S
C509 C510 1.366 . S
C510 C509 1.366 . S
C510 C511 1.414 . S
C510 C513 1.499 . S
C511 H485 0.950 . S
C511 C510 1.414 . S
C511 C512 1.374 . S
C512 H486 0.950 . S
C512 C508 1.385 . S
C512 C511 1.374 . S
C513 C510 1.499 . S
C513 C514 1.373 . S
C513 C515 1.389 . S
C514 H487 0.950 . S
C514 C500 1.377 . S
C514 C513 1.373 . S
C515 C499 1.377 . S
C515 C513 1.389 . S
C515 C516 1.524 . S
C516 C515 1.524 . S
C516 C517 1.397 . S
C516 C521 1.363 . S
C517 H488 0.950 . S
C517 C516 1.397 . S
C517 C518 1.334 . S
C518 H489 0.950 . S
C518 C517 1.334 . S
C518 C519 1.287 . S
C519 C518 1.287 . S
C519 C520 1.524 . S
C519 H522 0.999 . S
C520 H490 0.950 . S
C520 C519 1.524 . S
C520 C521 1.415 . S
C521 H491 0.950 . S
C521 C516 1.363 . S
C521 C520 1.415 . S
H522 C519 0.999 . S
H523 C504 0.913 . S
H524 C542 0.951 . S
H525 C544 0.951 . S
H526 C546 0.950 . S
H527 C547 0.950 . S
H528 C549 0.950 . S
H529 C552 0.950 . S
H530 C553 0.950 . S
H531 C555 0.950 . S
H532 C556 0.950 . S
H533 C557 0.951 . S
H534 C559 0.951 . S
H535 C561 0.950 . S
H536 C562 0.950 . S
H537 C564 0.950 . S
H538 C567 0.950 . S
H539 C568 0.950 . S
H540 C570 0.950 . S
H541 C571 0.950 . S
C542 H524 0.951 . S
C542 C543 1.366 . S
C542 C544 1.388 . S
C543 C542 1.366 . S
C543 C547 1.385 . S
C544 H525 0.951 . S
C544 C542 1.388 . S
C544 C545 1.366 . S
C545 C544 1.366 . S
C545 C546 1.414 . S
C545 C548 1.499 . S
C546 H526 0.950 . S
C546 C545 1.414 . S
C546 C547 1.374 . S
C547 H527 0.950 . S
C547 C543 1.385 . S
C547 C546 1.374 . S
C548 C545 1.499 . S
C548 C549 1.373 . S
C548 C550 1.389 . S
C549 H528 0.950 . S
C549 C548 1.373 . S
C549 C565 1.377 . S
C550 C548 1.389 . S
C550 C551 1.524 . S
C550 C564 1.377 . S
C551 C550 1.524 . S
C551 C552 1.397 . S
C551 C556 1.363 . S
C552 H529 0.950 . S
C552 C551 1.397 . S
C552 C553 1.334 . S
C553 H530 0.950 . S
C553 C552 1.334 . S
C553 C554 1.287 . S
C554 C553 1.287 . S
C554 C555 1.524 . S
C554 H573 0.913 . S
C555 H531 0.950 . S
C555 C554 1.524 . S
C555 C556 1.415 . S
C556 H532 0.950 . S
C556 C551 1.363 . S
C556 C555 1.415 . S
C557 H533 0.951 . S
C557 C558 1.366 . S
C557 C559 1.388 . S
C558 C557 1.366 . S
C558 C562 1.385 . S
C559 H534 0.951 . S
C559 C557 1.388 . S
C559 C560 1.366 . S
C560 C559 1.366 . S
C560 C561 1.414 . S
C560 C563 1.499 . S
C561 H535 0.950 . S
C561 C560 1.414 . S
C561 C562 1.374 . S
C562 H536 0.950 . S
C562 C558 1.385 . S
C562 C561 1.374 . S
C563 C560 1.499 . S
C563 C564 1.373 . S
C563 C565 1.389 . S
C564 H537 0.950 . S
C564 C550 1.377 . S
C564 C563 1.373 . S
C565 C549 1.377 . S
C565 C563 1.389 . S
C565 C566 1.524 . S
C566 C565 1.524 . S
C566 C567 1.397 . S
C566 C571 1.363 . S
C567 H538 0.950 . S
C567 C566 1.397 . S
C567 C568 1.334 . S
C568 H539 0.950 . S
C568 C567 1.334 . S
C568 C569 1.287 . S
C569 C568 1.287 . S
C569 C570 1.524 . S
C569 H572 0.999 . S
C570 H540 0.950 . S
C570 C569 1.524 . S
C570 C571 1.415 . S
C571 H541 0.950 . S
C571 C566 1.363 . S
C571 C570 1.415 . S
H572 C569 0.999 . S
H573 C554 0.913 . S
H574 C592 0.951 . S
H575 C594 0.951 . S
H576 C596 0.950 . S
H577 C597 0.950 . S
H578 C599 0.950 . S
H579 C602 0.950 . S
H580 C603 0.950 . S
H581 C605 0.950 . S
H582 C606 0.950 . S
H583 C607 0.951 . S
H584 C609 0.951 . S
H585 C611 0.950 . S
H586 C612 0.950 . S
H587 C614 0.950 . S
H588 C617 0.950 . S
H589 C618 0.950 1_655 S
H590 C620 0.950 . S
H591 C621 0.950 . S
C592 H574 0.951 . S
C592 C593 1.366 . S
C592 C594 1.388 . S
C593 C592 1.366 . S
C593 C597 1.385 . S
C594 H575 0.951 . S
C594 C592 1.388 . S
C594 C595 1.366 . S
C595 C594 1.366 . S
C595 C596 1.414 . S
C595 C598 1.499 . S
C596 H576 0.950 . S
C596 C595 1.414 . S
C596 C597 1.374 . S
C597 H577 0.950 . S
C597 C593 1.385 . S
C597 C596 1.374 . S
C598 C595 1.499 . S
C598 C599 1.373 . S
C598 C600 1.389 . S
C599 H578 0.950 . S
C599 C598 1.373 . S
C599 C615 1.377 . S
C600 C598 1.389 . S
C600 C601 1.524 . S
C600 C614 1.377 . S
C601 C600 1.524 . S
C601 C602 1.397 . S
C601 C606 1.363 . S
C602 H579 0.950 . S
C602 C601 1.397 . S
C602 C603 1.334 . S
C603 H580 0.950 . S
C603 C602 1.334 . S
C603 C604 1.287 . S
C604 C603 1.287 . S
C604 C605 1.524 . S
C604 H623 0.913 . S
C605 H581 0.950 . S
C605 C604 1.524 . S
C605 C606 1.415 . S
C606 H582 0.950 . S
C606 C601 1.363 . S
C606 C605 1.415 . S
C607 H583 0.951 . S
C607 C608 1.366 . S
C607 C609 1.388 . S
C608 C607 1.366 . S
C608 C612 1.385 . S
C609 H584 0.951 . S
C609 C607 1.388 . S
C609 C610 1.366 . S
C610 C609 1.366 . S
C610 C611 1.414 . S
C610 C613 1.499 . S
C611 H585 0.950 . S
C611 C610 1.414 . S
C611 C612 1.374 . S
C612 H586 0.950 . S
C612 C608 1.385 . S
C612 C611 1.374 . S
C613 C610 1.499 . S
C613 C614 1.373 . S
C613 C615 1.389 . S
C614 H587 0.950 . S
C614 C600 1.377 . S
C614 C613 1.373 . S
C615 C599 1.377 . S
C615 C613 1.389 . S
C615 C616 1.524 . S
C616 C615 1.524 . S
C616 C617 1.397 . S
C616 C621 1.363 . S
C617 H588 0.950 . S
C617 C616 1.397 . S
C617 C618 1.334 . S
C618 H589 0.950 1_455 S
C618 C617 1.334 . S
C618 C619 1.287 . S
C619 C618 1.287 . S
C619 C620 1.524 . S
C619 H622 0.999 . S
C620 H590 0.950 . S
C620 C619 1.524 . S
C620 C621 1.415 . S
C621 H591 0.950 . S
C621 C616 1.363 . S
C621 C620 1.415 . S
H622 C619 0.999 . S
H623 C604 0.913 . S
H624 C642 0.951 . S
H625 C644 0.951 . S
H626 C646 0.950 . S
H627 C647 0.950 . S
H628 C649 0.950 . S
H629 C652 0.950 . S
H630 C653 0.950 . S
H631 C655 0.950 . S
H632 C656 0.950 . S
H633 C657 0.951 . S
H634 C659 0.951 . S
H635 C661 0.950 . S
H636 C662 0.950 . S
H637 C664 0.950 . S
H638 C667 0.950 1_545 S
H639 C668 0.937 1_545 S
H640 C670 0.950 . S
H641 C671 0.950 . S
C642 H624 0.951 . S
C642 C643 1.366 . S
C642 C644 1.388 1_554 S
C643 C642 1.366 . S
C643 C647 1.385 . S
C644 H625 0.951 . S
C644 C642 1.388 1_556 S
C644 C645 1.366 . S
C645 C644 1.366 . S
C645 C646 1.414 . S
C645 C648 1.499 . S
C646 H626 0.950 . S
C646 C645 1.414 . S
C646 C647 1.374 1_556 S
C647 H627 0.950 . S
C647 C643 1.385 . S
C647 C646 1.374 1_554 S
C648 C645 1.499 . S
C648 C649 1.373 . S
C648 C650 1.389 . S
C649 H628 0.950 . S
C649 C648 1.373 . S
C649 C665 1.377 . S
C650 C648 1.389 . S
C650 C651 1.524 . S
C650 C664 1.377 . S
C651 C650 1.524 . S
C651 C652 1.397 . S
C651 C656 1.363 . S
C652 H629 0.950 . S
C652 C651 1.397 . S
C652 C653 1.334 . S
C653 H630 0.950 . S
C653 C652 1.334 . S
C653 C654 1.287 . S
C654 C653 1.287 . S
C654 C655 1.524 . S
C654 H673 0.913 . S
C655 H631 0.950 . S
C655 C654 1.524 . S
C655 C656 1.415 . S
C656 H632 0.950 . S
C656 C651 1.363 . S
C656 C655 1.415 . S
C657 H633 0.951 . S
C657 C658 1.366 . S
C657 C659 1.388 . S
C658 C657 1.366 . S
C658 C662 1.385 1_565 S
C659 H634 0.951 . S
C659 C657 1.388 . S
C659 C660 1.366 . S
C660 C659 1.366 . S
C660 C661 1.414 1_565 S
C660 C663 1.499 . S
C661 H635 0.950 . S
C661 C660 1.414 1_545 S
C661 C662 1.374 . S
C662 H636 0.950 . S
C662 C658 1.385 1_545 S
C662 C661 1.374 . S
C663 C660 1.499 . S
C663 C664 1.373 . S
C663 C665 1.389 . S
C664 H637 0.950 . S
C664 C650 1.377 . S
C664 C663 1.373 . S
C665 C649 1.377 . S
C665 C663 1.389 . S
C665 C666 1.524 . S
C666 C665 1.524 . S
C666 C667 1.397 . S
C666 C671 1.363 . S
C667 H638 0.950 1_565 S
C667 C666 1.397 . S
C667 C668 1.337 . S
C668 H639 0.937 1_565 S
C668 C667 1.337 . S
C668 C669 1.298 . S
C669 C668 1.298 . S
C669 C670 1.524 . S
C669 H672 0.999 . S
C670 H640 0.950 . S
C670 C669 1.524 . S
C670 C671 1.415 . S
C671 H641 0.950 . S
C671 C666 1.363 . S
C671 C670 1.415 . S
H672 C669 0.999 . S
H673 C654 0.913 . S
H674 C692 0.951 . S
H675 C694 0.951 . S
H676 C696 0.950 . S
H677 C697 0.950 . S
H678 C699 0.950 . S
H679 C702 0.950 . S
H680 C703 0.950 . S
H681 C705 0.950 . S
H682 C706 0.950 . S
H683 C707 0.951 . S
H684 C709 0.951 . S
H685 C711 0.950 . S
H686 C712 0.950 . S
H687 C714 0.950 . S
H688 C717 0.950 . S
H689 C718 0.950 . S
H690 C720 0.950 1_554 S
H691 C721 0.950 . S
C692 H674 0.951 . S
C692 C693 1.366 . S
C692 C694 1.388 1_554 S
C693 C692 1.366 . S
C693 C697 1.385 . S
C694 H675 0.951 . S
C694 C692 1.388 1_556 S
C694 C695 1.366 . S
C695 C694 1.366 . S
C695 C696 1.414 . S
C695 C698 1.499 . S
C696 H676 0.950 . S
C696 C695 1.414 . S
C696 C697 1.374 1_556 S
C697 H677 0.950 . S
C697 C693 1.385 . S
C697 C696 1.374 1_554 S
C698 C695 1.499 . S
C698 C699 1.373 . S
C698 C700 1.389 . S
C699 H678 0.950 . S
C699 C698 1.373 . S
C699 C715 1.377 . S
C700 C698 1.389 . S
C700 C701 1.524 . S
C700 C714 1.377 . S
C701 C700 1.524 . S
C701 C702 1.397 . S
C701 C706 1.363 . S
C702 H679 0.950 . S
C702 C701 1.397 . S
C702 C703 1.334 . S
C703 H680 0.950 . S
C703 C702 1.334 . S
C703 C704 1.287 . S
C704 C703 1.287 . S
C704 C705 1.524 . S
C704 H723 0.913 . S
C705 H681 0.950 . S
C705 C704 1.524 . S
C705 C706 1.415 . S
C706 H682 0.950 . S
C706 C701 1.363 . S
C706 C705 1.415 . S
C707 H683 0.951 . S
C707 C708 1.366 . S
C707 C709 1.388 . S
C708 C707 1.366 . S
C708 C712 1.385 . S
C709 H684 0.951 . S
C709 C707 1.388 . S
C709 C710 1.366 . S
C710 C709 1.366 . S
C710 C711 1.414 . S
C710 C713 1.499 . S
C711 H685 0.950 . S
C711 C710 1.414 . S
C711 C712 1.374 . S
C712 H686 0.950 . S
C712 C708 1.385 . S
C712 C711 1.374 . S
C713 C710 1.499 . S
C713 C714 1.373 . S
C713 C715 1.389 . S
C714 H687 0.950 . S
C714 C700 1.377 . S
C714 C713 1.373 . S
C715 C699 1.377 . S
C715 C713 1.389 . S
C715 C716 1.524 . S
C716 C715 1.524 . S
C716 C717 1.397 . S
C716 C721 1.363 . S
C717 H688 0.950 . S
C717 C716 1.397 . S
C717 C718 1.334 . S
C718 H689 0.950 . S
C718 C717 1.334 . S
C718 C719 1.287 . S
C719 C718 1.287 . S
C719 C720 1.524 . S
C719 H722 0.999 . S
C720 H690 0.950 1_556 S
C720 C719 1.524 . S
C720 C721 1.415 . S
C721 H691 0.950 . S
C721 C716 1.363 . S
C721 C720 1.415 . S
H722 C719 0.999 . S
H723 C704 0.913 . S
H724 C742 0.951 . S
H725 C744 0.951 . S
H726 C746 0.950 . S
H727 C747 0.950 . S
H728 C749 0.950 . S
H729 C752 0.950 . S
H730 C753 0.950 . S
H731 C755 0.950 . S
H732 C756 0.950 . S
H733 C757 0.951 . S
H734 C759 0.951 . S
H735 C761 0.950 . S
H736 C762 0.950 . S
H737 C764 0.950 . S
H738 C767 0.950 . S
H739 C768 0.950 . S
H740 C770 0.950 . S
H741 C771 0.950 . S
C742 H724 0.951 . S
C742 C743 1.366 1_556 S
C742 C744 1.388 . S
C743 C742 1.366 1_554 S
C743 C747 1.385 . S
C744 H725 0.951 . S
C744 C742 1.388 . S
C744 C745 1.366 . S
C745 C744 1.366 . S
C745 C746 1.414 1_556 S
C745 C748 1.499 . S
C746 H726 0.950 . S
C746 C745 1.414 1_554 S
C746 C747 1.374 . S
C747 H727 0.950 . S
C747 C743 1.385 . S
C747 C746 1.374 . S
C748 C745 1.499 . S
C748 C749 1.373 . S
C748 C750 1.389 . S
C749 H728 0.950 . S
C749 C748 1.373 . S
C749 C765 1.377 . S
C750 C748 1.389 . S
C750 C751 1.524 . S
C750 C764 1.377 . S
C751 C750 1.524 . S
C751 C752 1.397 . S
C751 C756 1.363 . S
C752 H729 0.950 . S
C752 C751 1.397 . S
C752 C753 1.334 . S
C753 H730 0.950 . S
C753 C752 1.334 . S
C753 C754 1.287 . S
C754 C753 1.287 . S
C754 C755 1.524 . S
C754 H773 0.913 . S
C755 H731 0.950 . S
C755 C754 1.524 . S
C755 C756 1.415 . S
C756 H732 0.950 . S
C756 C751 1.363 . S
C756 C755 1.415 . S
C757 H733 0.951 . S
C757 C758 1.366 . S
C757 C759 1.388 . S
C758 C757 1.366 . S
C758 C762 1.385 . S
C759 H734 0.951 . S
C759 C757 1.388 . S
C759 C760 1.366 . S
C760 C759 1.366 . S
C760 C761 1.414 . S
C760 C763 1.499 . S
C761 H735 0.950 . S
C761 C760 1.414 . S
C761 C762 1.374 . S
C762 H736 0.950 . S
C762 C758 1.385 . S
C762 C761 1.374 . S
C763 C760 1.499 . S
C763 C764 1.373 . S
C763 C765 1.389 . S
C764 H737 0.950 . S
C764 C750 1.377 . S
C764 C763 1.373 . S
C765 C749 1.377 . S
C765 C763 1.389 . S
C765 C766 1.524 . S
C766 C765 1.524 . S
C766 C767 1.397 . S
C766 C771 1.363 . S
C767 H738 0.950 . S
C767 C766 1.397 . S
C767 C768 1.334 . S
C768 H739 0.950 . S
C768 C767 1.334 . S
C768 C769 1.287 . S
C769 C768 1.287 . S
C769 C770 1.524 . S
C769 H772 0.999 . S
C770 H740 0.950 . S
C770 C769 1.524 . S
C770 C771 1.415 . S
C771 H741 0.950 . S
C771 C766 1.363 . S
C771 C770 1.415 . S
H772 C769 0.999 . S
H773 C754 0.913 . S
H774 C792 0.951 . S
H775 C794 0.951 . S
H776 C796 0.950 . S
H777 C797 0.950 . S
H778 C799 0.950 . S
H779 C802 0.950 1_655 S
H780 C803 0.950 . S
H781 C805 0.950 . S
H782 C806 0.950 . S
H783 C807 0.951 . S
H784 C809 0.951 . S
H785 C811 0.950 . S
H786 C812 0.950 1_455 S
H787 C814 0.977 . S
H788 C817 0.950 . S
H789 C818 0.950 . S
H790 C820 0.950 . S
H791 C821 0.950 . S
C792 H774 0.951 . S
C792 C793 1.366 . S
C792 C794 1.388 . S
C793 C792 1.366 . S
C793 C797 1.385 1_554 S
C794 H775 0.951 . S
C794 C792 1.388 . S
C794 C795 1.366 1_554 S
C795 C794 1.366 1_556 S
C795 C796 1.414 . S
C795 C798 1.499 . S
C796 H776 0.950 . S
C796 C795 1.414 . S
C796 C797 1.374 . S
C797 H777 0.950 . S
C797 C793 1.385 1_556 S
C797 C796 1.374 . S
C798 C795 1.499 . S
C798 C799 1.373 . S
C798 C800 1.389 . S
C799 H778 0.950 . S
C799 C798 1.373 . S
C799 C815 1.377 . S
C800 C798 1.389 . S
C800 C801 1.524 . S
C800 C814 1.377 . S
C801 C800 1.524 . S
C801 C802 1.397 1_655 S
C801 C806 1.363 1_655 S
C802 H779 0.950 1_455 S
C802 C801 1.397 1_455 S
C802 C803 1.334 . S
C803 H780 0.950 . S
C803 C802 1.334 . S
C803 C804 1.287 1_556 S
C804 C803 1.287 1_554 S
C804 C805 1.524 . S
C804 H823 0.913 . S
C805 H781 0.950 . S
C805 C804 1.524 . S
C805 C806 1.415 1_554 S
C806 H782 0.950 . S
C806 C801 1.363 1_455 S
C806 C805 1.415 1_556 S
C807 H783 0.951 . S
C807 C808 1.366 . S
C807 C809 1.388 . S
C808 C807 1.366 . S
C808 C812 1.385 . S
C809 H784 0.951 . S
C809 C807 1.388 . S
C809 C810 1.366 . S
C810 C809 1.366 . S
C810 C811 1.414 . S
C810 C813 1.499 . S
C811 H785 0.950 . S
C811 C810 1.414 . S
C811 C812 1.374 . S
C812 H786 0.950 1_655 S
C812 C808 1.385 . S
C812 C811 1.374 . S
C813 C810 1.499 . S
C813 C814 1.373 . S
C813 C815 1.389 . S
C814 H787 0.977 . S
C814 C800 1.377 . S
C814 C813 1.373 . S
C815 C799 1.377 . S
C815 C813 1.389 . S
C815 C816 1.524 . S
C816 C815 1.524 . S
C816 C817 1.397 . S
C816 C821 1.363 . S
C817 H788 0.950 . S
C817 C816 1.397 . S
C817 C818 1.334 . S
C818 H789 0.950 . S
C818 C817 1.334 . S
C818 C819 1.287 . S
C819 C818 1.287 . S
C819 C820 1.524 . S
C819 H822 0.999 . S
C820 H790 0.950 . S
C820 C819 1.524 . S
C820 C821 1.415 . S
C821 H791 0.950 . S
C821 C816 1.363 . S
C821 C820 1.415 . S
H822 C819 0.999 . S
H823 C804 0.913 . S
H824 C842 0.951 . S
H825 C844 0.951 . S
H826 C846 0.950 . S
H827 C847 0.950 . S
H828 C849 0.950 . S
H829 C852 0.950 . S
H830 C853 0.950 . S
H831 C855 0.950 . S
H832 C856 0.950 . S
H833 C857 0.951 . S
H834 C859 0.951 . S
H835 C861 0.953 . S
H836 C862 0.988 . S
H837 C864 0.950 . S
H838 C867 0.950 . S
H839 C868 0.950 . S
H840 C870 0.950 . S
H841 C871 0.950 . S
C842 H824 0.951 . S
C842 C843 1.366 . S
C842 C844 1.388 . S
C843 C842 1.366 . S
C843 C847 1.385 . S
C844 H825 0.951 . S
C844 C842 1.388 . S
C844 C845 1.366 . S
C845 C844 1.366 . S
C845 C846 1.414 . S
C845 C848 1.499 . S
C846 H826 0.950 . S
C846 C845 1.414 . S
C846 C847 1.374 . S
C847 H827 0.950 . S
C847 C843 1.385 . S
C847 C846 1.374 . S
C848 C845 1.499 . S
C848 C849 1.373 . S
C848 C850 1.389 . S
C849 H828 0.950 . S
C849 C848 1.373 . S
C849 C865 1.377 . S
C850 C848 1.389 . S
C850 C851 1.524 . S
C850 C864 1.377 . S
C851 C850 1.524 . S
C851 C852 1.397 . S
C851 C856 1.363 1_455 S
C852 H829 0.950 . S
C852 C851 1.397 . S
C852 C853 1.334 . S
C853 H830 0.950 . S
C853 C852 1.334 . S
C853 C854 1.287 1_455 S
C854 C853 1.287 1_655 S
C854 C855 1.524 . S
C854 H873 0.913 . S
C855 H831 0.950 . S
C855 C854 1.524 . S
C855 C856 1.415 . S
C856 H832 0.950 . S
C856 C851 1.363 1_655 S
C856 C855 1.415 . S
C857 H833 0.951 . S
C857 C858 1.366 . S
C857 C859 1.388 . S
C858 C857 1.366 . S
C858 C862 1.365 1_455 S
C859 H834 0.951 . S
C859 C857 1.388 . S
C859 C860 1.366 . S
C860 C859 1.366 . S
C860 C861 1.414 . S
C860 C863 1.499 . S
C861 H835 0.953 . S
C861 C860 1.414 . S
C861 C862 1.357 1_455 S
C862 H836 0.988 . S
C862 C858 1.365 1_655 S
C862 C861 1.357 1_655 S
C863 C860 1.499 . S
C863 C864 1.373 . S
C863 C865 1.389 . S
C864 H837 0.950 . S
C864 C850 1.377 . S
C864 C863 1.373 . S
C865 C849 1.377 . S
C865 C863 1.389 . S
C865 C866 1.524 . S
C866 C865 1.524 . S
C866 C867 1.397 . S
C866 C871 1.363 . S
C867 H838 0.950 . S
C867 C866 1.397 . S
C867 C868 1.334 . S
C868 H839 0.950 . S
C868 C867 1.334 . S
C868 C869 1.287 . S
C869 C868 1.287 . S
C869 C870 1.524 . S
C869 H872 0.999 . S
C870 H840 0.950 . S
C870 C869 1.524 . S
C870 C871 1.415 . S
C871 H841 0.950 . S
C871 C866 1.363 . S
C871 C870 1.415 . S
H872 C869 0.999 . S
H873 C854 0.913 . S
H874 C892 0.951 . S
H875 C894 0.951 . S
H876 C896 0.950 . S
H877 C897 0.950 . S
H878 C899 0.950 . S
H879 C902 0.950 . S
H880 C903 0.950 . S
H881 C905 0.950 . S
H882 C906 0.950 . S
H883 C907 0.951 . S
H884 C909 0.951 . S
H885 C911 0.950 1_565 S
H886 C912 1.004 . S
H887 C914 0.950 . S
H888 C917 0.950 . S
H889 C918 0.950 . S
H890 C920 0.950 . S
H891 C921 0.950 . S
C892 H874 0.951 . S
C892 C893 1.366 . S
C892 C894 1.388 . S
C893 C892 1.366 . S
C893 C897 1.385 . S
C894 H875 0.951 . S
C894 C892 1.388 . S
C894 C895 1.366 . S
C895 C894 1.366 . S
C895 C896 1.414 . S
C895 C898 1.499 . S
C896 H876 0.950 . S
C896 C895 1.414 . S
C896 C897 1.374 . S
C897 H877 0.950 . S
C897 C893 1.385 . S
C897 C896 1.374 . S
C898 C895 1.499 . S
C898 C899 1.373 . S
C898 C900 1.389 . S
C899 H878 0.950 . S
C899 C898 1.373 . S
C899 C915 1.377 . S
C900 C898 1.389 . S
C900 C901 1.524 . S
C900 C914 1.377 . S
C901 C900 1.524 . S
C901 C902 1.397 . S
C901 C906 1.363 . S
C902 H879 0.950 . S
C902 C901 1.397 . S
C902 C903 1.334 . S
C903 H880 0.950 . S
C903 C902 1.334 . S
C903 C904 1.287 . S
C904 C903 1.287 . S
C904 C905 1.524 . S
C904 H923 0.913 . S
C905 H881 0.950 . S
C905 C904 1.524 . S
C905 C906 1.415 . S
C906 H882 0.950 . S
C906 C901 1.363 . S
C906 C905 1.415 . S
C907 H883 0.951 . S
C907 C908 1.366 . S
C907 C909 1.388 . S
C908 C907 1.366 . S
C908 C912 1.352 1_545 S
C909 H884 0.951 . S
C909 C907 1.388 . S
C909 C910 1.366 . S
C910 C909 1.366 . S
C910 C911 1.414 . S
C910 C913 1.499 . S
C911 H885 0.950 1_545 S
C911 C910 1.414 . S
C911 C912 1.355 1_545 S
C912 H886 1.004 . S
C912 C908 1.352 1_565 S
C912 C911 1.355 1_565 S
C913 C910 1.499 . S
C913 C914 1.373 . S
C913 C915 1.389 . S
C914 H887 0.950 . S
C914 C900 1.377 . S
C914 C913 1.373 . S
C915 C899 1.377 . S
C915 C913 1.389 . S
C915 C916 1.524 . S
C916 C915 1.524 . S
C916 C917 1.397 . S
C916 C921 1.363 . S
C917 H888 0.950 . S
C917 C916 1.397 . S
C917 C918 1.334 . S
C918 H889 0.950 . S
C918 C917 1.334 . S
C918 C919 1.287 . S
C919 C918 1.287 . S
C919 C920 1.524 . S
C919 H922 0.999 . S
C920 H890 0.950 . S
C920 C919 1.524 . S
C920 C921 1.415 . S
C921 H891 0.950 . S
C921 C916 1.363 . S
C921 C920 1.415 . S
H922 C919 0.999 . S
H923 C904 0.913 . S
H924 C942 0.951 . S
H925 C944 0.951 . S
H926 C946 0.950 . S
H927 C947 0.950 . S
H928 C949 0.950 . S
H929 C952 0.950 . S
H930 C953 0.950 1_556 S
H931 C955 0.950 . S
H932 C956 0.950 . S
H933 C957 0.951 . S
H934 C959 0.951 . S
H935 C961 0.950 . S
H936 C962 0.950 . S
H937 C964 0.950 . S
H938 C967 0.950 . S
H939 C968 0.950 . S
H940 C970 0.950 . S
H941 C971 0.950 . S
C942 H924 0.951 . S
C942 C943 1.366 . S
C942 C944 1.388 . S
C943 C942 1.366 . S
C943 C947 1.385 . S
C944 H925 0.951 . S
C944 C942 1.388 . S
C944 C945 1.366 . S
C945 C944 1.366 . S
C945 C946 1.414 . S
C945 C948 1.499 . S
C946 H926 0.950 . S
C946 C945 1.414 . S
C946 C947 1.374 . S
C947 H927 0.950 . S
C947 C943 1.385 . S
C947 C946 1.374 . S
C948 C945 1.499 . S
C948 C949 1.373 . S
C948 C950 1.389 . S
C949 H928 0.950 . S
C949 C948 1.373 . S
C949 C965 1.377 . S
C950 C948 1.389 . S
C950 C951 1.524 . S
C950 C964 1.377 . S
C951 C950 1.524 . S
C951 C952 1.397 . S
C951 C956 1.363 . S
C952 H929 0.950 . S
C952 C951 1.397 . S
C952 C953 1.334 . S
C953 H930 0.950 1_554 S
C953 C952 1.334 . S
C953 C954 1.287 . S
C954 C953 1.287 . S
C954 C955 1.524 . S
C954 H973 0.913 1_554 S
C955 H931 0.950 . S
C955 C954 1.524 . S
C955 C956 1.415 . S
C956 H932 0.950 . S
C956 C951 1.363 . S
C956 C955 1.415 . S
C957 H933 0.951 . S
C957 C958 1.366 . S
C957 C959 1.388 . S
C958 C957 1.366 . S
C958 C962 1.385 . S
C959 H934 0.951 . S
C959 C957 1.388 . S
C959 C960 1.366 . S
C960 C959 1.366 . S
C960 C961 1.414 . S
C960 C963 1.499 . S
C961 H935 0.950 . S
C961 C960 1.414 . S
C961 C962 1.374 . S
C962 H936 0.950 . S
C962 C958 1.385 . S
C962 C961 1.374 . S
C963 C960 1.499 . S
C963 C964 1.373 . S
C963 C965 1.389 . S
C964 H937 0.950 . S
C964 C950 1.377 . S
C964 C963 1.373 . S
C965 C949 1.377 . S
C965 C963 1.389 . S
C965 C966 1.524 . S
C966 C965 1.524 . S
C966 C967 1.397 . S
C966 C971 1.363 . S
C967 H938 0.950 . S
C967 C966 1.397 . S
C967 C968 1.334 . S
C968 H939 0.950 . S
C968 C967 1.334 . S
C968 C969 1.287 . S
C969 C968 1.287 . S
C969 C970 1.524 . S
C969 H972 0.999 . S
C970 H940 0.950 . S
C970 C969 1.524 . S
C970 C971 1.415 . S
C971 H941 0.950 . S
C971 C966 1.363 . S
C971 C970 1.415 . S
H972 C969 0.999 . S
H973 C954 0.913 1_556 S
H974 C992 0.951 . S
H975 C994 0.951 . S
H976 C996 0.950 . S
H977 C997 0.950 . S
H978 C999 0.950 . S
H979 C1002 0.950 . S
H980 C1003 0.950 . S
H981 C1005 0.950 . S
H982 C1006 0.950 . S
H983 C1007 0.951 . S
H984 C1009 0.951 . S
H985 C1011 0.950 . S
H986 C1012 0.950 . S
H987 C1014 0.950 . S
H988 C1017 0.950 . S
H989 C1018 0.950 . S
H990 C1020 0.950 . S
H991 C1021 0.950 . S
C992 H974 0.951 . S
C992 C993 1.366 . S
C992 C994 1.388 . S
C993 C992 1.366 . S
C993 C997 1.385 . S
C994 H975 0.951 . S
C994 C992 1.388 . S
C994 C995 1.366 . S
C995 C994 1.366 . S
C995 C996 1.414 . S
C995 C998 1.499 . S
C996 H976 0.950 . S
C996 C995 1.414 . S
C996 C997 1.374 . S
C997 H977 0.950 . S
C997 C993 1.385 . S
C997 C996 1.374 . S
C998 C995 1.499 . S
C998 C999 1.373 . S
C998 C1000 1.389 . S
C999 H978 0.950 . S
C999 C998 1.373 . S
C999 C1015 1.377 . S
C1000 C998 1.389 . S
C1000 C1001 1.524 . S
C1000 C1014 1.377 . S
C1001 C1000 1.524 . S
C1001 C1002 1.397 . S
C1001 C1006 1.363 . S
C1002 H979 0.950 . S
C1002 C1001 1.397 . S
C1002 C1003 1.334 . S
C1003 H980 0.950 . S
C1003 C1002 1.334 . S
C1003 C1004 1.287 . S
C1004 C1003 1.287 . S
C1004 C1005 1.524 . S
C1004 H1023 0.913 . S
C1005 H981 0.950 . S
C1005 C1004 1.524 . S
C1005 C1006 1.415 . S
C1006 H982 0.950 . S
C1006 C1001 1.363 . S
C1006 C1005 1.415 . S
C1007 H983 0.951 . S
C1007 C1008 1.366 . S
C1007 C1009 1.388 . S
C1008 C1007 1.366 . S
C1008 C1012 1.385 . S
C1009 H984 0.951 . S
C1009 C1007 1.388 . S
C1009 C1010 1.366 . S
C1010 C1009 1.366 . S
C1010 C1011 1.414 . S
C1010 C1013 1.499 . S
C1011 H985 0.950 . S
C1011 C1010 1.414 . S
C1011 C1012 1.374 . S
C1012 H986 0.950 . S
C1012 C1008 1.385 . S
C1012 C1011 1.374 . S
C1013 C1010 1.499 . S
C1013 C1014 1.373 . S
C1013 C1015 1.389 . S
C1014 H987 0.950 . S
C1014 C1000 1.377 . S
C1014 C1013 1.373 . S
C1015 C999 1.377 . S
C1015 C1013 1.389 . S
C1015 C1016 1.524 . S
C1016 C1015 1.524 . S
C1016 C1017 1.397 . S
C1016 C1021 1.363 . S
C1017 H988 0.950 . S
C1017 C1016 1.397 . S
C1017 C1018 1.334 . S
C1018 H989 0.950 . S
C1018 C1017 1.334 . S
C1018 C1019 1.287 . S
C1019 C1018 1.287 . S
C1019 C1020 1.524 . S
C1019 H1022 0.999 . S
C1020 H990 0.950 . S
C1020 C1019 1.524 . S
C1020 C1021 1.415 . S
C1021 H991 0.950 . S
C1021 C1016 1.363 . S
C1021 C1020 1.415 . S
H1022 C1019 0.999 . S
H1023 C1004 0.913 . S
H1024 C1042 0.951 . S
H1025 C1044 0.951 1_556 S
H1026 C1046 0.950 . S
H1027 C1047 0.950 . S
H1028 C1049 0.950 . S
H1029 C1052 0.950 . S
H1030 C1053 0.950 . S
H1031 C1055 0.950 . S
H1032 C1056 0.950 . S
H1033 C1057 0.951 . S
H1034 C1059 0.951 . S
H1035 C1061 0.950 . S
H1036 C1062 0.950 . S
H1037 C1064 0.950 1_455 S
H1038 C1067 0.950 . S
H1039 C1068 0.950 . S
H1040 C1070 0.950 . S
H1041 C1071 0.950 . S
C1042 H1024 0.951 . S
C1042 C1043 1.366 . S
C1042 C1044 1.388 . S
C1043 C1042 1.366 . S
C1043 C1047 1.385 . S
C1044 H1025 0.951 1_554 S
C1044 C1042 1.388 . S
C1044 C1045 1.366 . S
C1045 C1044 1.366 . S
C1045 C1046 1.414 . S
C1045 C1048 1.499 1_554 S
C1046 H1026 0.950 . S
C1046 C1045 1.414 . S
C1046 C1047 1.374 . S
C1047 H1027 0.950 . S
C1047 C1043 1.385 . S
C1047 C1046 1.374 . S
C1048 C1045 1.499 1_556 S
C1048 C1049 1.373 . S
C1048 C1050 1.389 . S
C1049 H1028 0.950 . S
C1049 C1048 1.373 . S
C1049 C1065 1.377 . S
C1050 C1048 1.389 . S
C1050 C1051 1.524 1_556 S
C1050 C1064 1.377 . S
C1051 C1050 1.524 1_554 S
C1051 C1052 1.397 . S
C1051 C1056 1.363 1_654 S
C1052 H1029 0.950 . S
C1052 C1051 1.397 . S
C1052 C1053 1.334 1_655 S
C1053 H1030 0.950 . S
C1053 C1052 1.334 1_455 S
C1053 C1054 1.287 . S
C1054 C1053 1.287 . S
C1054 C1055 1.524 . S
C1054 H1073 0.913 . S
C1055 H1031 0.950 . S
C1055 C1054 1.524 . S
C1055 C1056 1.415 1_554 S
C1056 H1032 0.950 . S
C1056 C1051 1.363 1_456 S
C1056 C1055 1.415 1_556 S
C1057 H1033 0.951 . S
C1057 C1058 1.366 1_655 S
C1057 C1059 1.388 . S
C1058 C1057 1.366 1_455 S
C1058 C1062 1.385 . S
C1059 H1034 0.951 . S
C1059 C1057 1.388 . S
C1059 C1060 1.366 . S
C1060 C1059 1.366 . S
C1060 C1061 1.414 1_655 S
C1060 C1063 1.499 . S
C1061 H1035 0.950 . S
C1061 C1060 1.414 1_455 S
C1061 C1062 1.374 . S
C1062 H1036 0.950 . S
C1062 C1058 1.385 . S
C1062 C1061 1.374 . S
C1063 C1060 1.499 . S
C1063 C1064 1.373 . S
C1063 C1065 1.389 . S
C1064 H1037 0.950 1_655 S
C1064 C1050 1.377 . S
C1064 C1063 1.373 . S
C1065 C1049 1.377 . S
C1065 C1063 1.389 . S
C1065 C1066 1.524 . S
C1066 C1065 1.524 . S
C1066 C1067 1.397 . S
C1066 C1071 1.363 . S
C1067 H1038 0.950 . S
C1067 C1066 1.397 . S
C1067 C1068 1.334 . S
C1068 H1039 0.950 . S
C1068 C1067 1.334 . S
C1068 C1069 1.287 . S
C1069 C1068 1.287 . S
C1069 C1070 1.524 . S
C1069 H1072 0.999 . S
C1070 H1040 0.950 . S
C1070 C1069 1.524 . S
C1070 C1071 1.415 . S
C1071 H1041 0.950 . S
C1071 C1066 1.363 . S
C1071 C1070 1.415 . S
H1072 C1069 0.999 . S
H1073 C1054 0.913 . S
H1074 C1092 0.951 . S
H1075 C1094 0.951 . S
H1076 C1096 0.950 . S
H1077 C1097 0.950 . S
H1078 C1099 0.950 . S
H1079 C1102 0.945 1_565 S
H1080 C1103 0.950 . S
H1081 C1105 0.950 . S
H1082 C1106 0.950 . S
H1083 C1107 0.951 . S
H1084 C1109 0.951 . S
H1085 C1111 0.950 . S
H1086 C1112 0.950 . S
H1087 C1114 0.950 1_545 S
H1088 C1117 0.950 . S
H1089 C1118 0.950 . S
H1090 C1120 0.950 . S
H1091 C1121 0.950 . S
C1092 H1074 0.951 . S
C1092 C1093 1.366 . S
C1092 C1094 1.388 1_554 S
C1093 C1092 1.366 . S
C1093 C1097 1.385 . S
C1094 H1075 0.951 . S
C1094 C1092 1.388 1_556 S
C1094 C1095 1.366 1_556 S
C1095 C1094 1.366 1_554 S
C1095 C1096 1.414 . S
C1095 C1098 1.499 1_554 S
C1096 H1076 0.950 . S
C1096 C1095 1.414 . S
C1096 C1097 1.374 . S
C1097 H1077 0.950 . S
C1097 C1093 1.385 . S
C1097 C1096 1.374 . S
C1098 C1095 1.499 1_556 S
C1098 C1099 1.373 . S
C1098 C1100 1.389 . S
C1099 H1078 0.950 . S
C1099 C1098 1.373 . S
C1099 C1115 1.377 . S
C1100 C1098 1.389 . S
C1100 C1101 1.524 1_565 S
C1100 C1114 1.377 . S
C1101 C1100 1.524 1_545 S
C1101 C1102 1.397 1_556 S
C1101 C1106 1.363 . S
C1102 H1079 0.945 1_545 S
C1102 C1101 1.397 1_554 S
C1102 C1103 1.334 . S
C1103 H1080 0.950 . S
C1103 C1102 1.334 . S
C1103 C1104 1.287 . S
C1104 C1103 1.287 . S
C1104 C1105 1.524 1_554 S
C1104 H1123 0.913 . S
C1105 H1081 0.950 . S
C1105 C1104 1.524 1_556 S
C1105 C1106 1.415 . S
C1106 H1082 0.950 . S
C1106 C1101 1.363 . S
C1106 C1105 1.415 . S
C1107 H1083 0.951 . S
C1107 C1108 1.366 1_565 S
C1107 C1109 1.388 . S
C1108 C1107 1.366 1_545 S
C1108 C1112 1.385 . S
C1109 H1084 0.951 . S
C1109 C1107 1.388 . S
C1109 C1110 1.366 . S
C1110 C1109 1.366 . S
C1110 C1111 1.414 1_565 S
C1110 C1113 1.499 . S
C1111 H1085 0.950 . S
C1111 C1110 1.414 1_545 S
C1111 C1112 1.374 . S
C1112 H1086 0.950 . S
C1112 C1108 1.385 . S
C1112 C1111 1.374 . S
C1113 C1110 1.499 . S
C1113 C1114 1.373 . S
C1113 C1115 1.389 . S
C1114 H1087 0.950 1_565 S
C1114 C1100 1.377 . S
C1114 C1113 1.373 . S
C1115 C1099 1.377 . S
C1115 C1113 1.389 . S
C1115 C1116 1.524 . S
C1116 C1115 1.524 . S
C1116 C1117 1.397 . S
C1116 C1121 1.363 . S
C1117 H1088 0.950 . S
C1117 C1116 1.397 . S
C1117 C1118 1.334 . S
C1118 H1089 0.950 . S
C1118 C1117 1.334 . S
C1118 C1119 1.287 . S
C1119 C1118 1.287 . S
C1119 C1120 1.524 . S
C1119 H1122 0.999 . S
C1120 H1090 0.950 . S
C1120 C1119 1.524 . S
C1120 C1121 1.415 . S
C1121 H1091 0.950 . S
C1121 C1116 1.363 . S
C1121 C1120 1.415 . S
H1122 C1119 0.999 . S
H1123 C1104 0.913 . S
H1124 C1142 0.951 . S
H1125 C1144 0.951 . S
H1126 C1146 0.950 . S
H1127 C1147 0.950 1_556 S
H1128 C1149 0.950 . S
H1129 C1152 0.950 . S
H1130 C1153 0.950 . S
H1131 C1155 0.950 . S
H1132 C1156 0.950 . S
H1133 C1157 0.951 . S
H1134 C1159 0.951 . S
H1135 C1161 0.950 . S
H1136 C1162 0.950 . S
H1137 C1164 0.950 . S
H1138 C1167 0.950 . S
H1139 C1168 0.950 . S
H1140 C1170 0.950 . S
H1141 C1171 0.950 . S
C1142 H1124 0.951 . S
C1142 C1143 1.366 . S
C1142 C1144 1.388 . S
C1143 C1142 1.366 . S
C1143 C1147 1.385 . S
C1144 H1125 0.951 . S
C1144 C1142 1.388 . S
C1144 C1145 1.366 . S
C1145 C1144 1.366 . S
C1145 C1146 1.414 1_554 S
C1145 C1148 1.499 1_554 S
C1146 H1126 0.950 . S
C1146 C1145 1.414 1_556 S
C1146 C1147 1.374 1_556 S
C1147 H1127 0.950 1_554 S
C1147 C1143 1.385 . S
C1147 C1146 1.374 1_554 S
C1148 C1145 1.499 1_556 S
C1148 C1149 1.373 . S
C1148 C1150 1.389 . S
C1149 H1128 0.950 . S
C1149 C1148 1.373 . S
C1149 C1165 1.377 . S
C1150 C1148 1.389 . S
C1150 C1151 1.524 . S
C1150 C1164 1.377 . S
C1151 C1150 1.524 . S
C1151 C1152 1.397 . S
C1151 C1156 1.363 1_556 S
C1152 H1129 0.950 . S
C1152 C1151 1.397 . S
C1152 C1153 1.334 . S
C1153 H1130 0.950 . S
C1153 C1152 1.334 . S
C1153 C1154 1.287 . S
C1154 C1153 1.287 . S
C1154 C1155 1.524 1_556 S
C1154 H1173 0.913 . S
C1155 H1131 0.950 . S
C1155 C1154 1.524 1_554 S
C1155 C1156 1.415 . S
C1156 H1132 0.950 . S
C1156 C1151 1.363 1_554 S
C1156 C1155 1.415 . S
C1157 H1133 0.951 . S
C1157 C1158 1.366 . S
C1157 C1159 1.388 . S
C1158 C1157 1.366 . S
C1158 C1162 1.385 . S
C1159 H1134 0.951 . S
C1159 C1157 1.388 . S
C1159 C1160 1.366 . S
C1160 C1159 1.366 . S
C1160 C1161 1.414 . S
C1160 C1163 1.499 . S
C1161 H1135 0.950 . S
C1161 C1160 1.414 . S
C1161 C1162 1.374 . S
C1162 H1136 0.950 . S
C1162 C1158 1.385 . S
C1162 C1161 1.374 . S
C1163 C1160 1.499 . S
C1163 C1164 1.373 . S
C1163 C1165 1.389 . S
C1164 H1137 0.950 . S
C1164 C1150 1.377 . S
C1164 C1163 1.373 . S
C1165 C1149 1.377 . S
C1165 C1163 1.389 . S
C1165 C1166 1.524 . S
C1166 C1165 1.524 . S
C1166 C1167 1.397 . S
C1166 C1171 1.363 . S
C1167 H1138 0.950 . S
C1167 C1166 1.397 . S
C1167 C1168 1.334 . S
C1168 H1139 0.950 . S
C1168 C1167 1.334 . S
C1168 C1169 1.287 . S
C1169 C1168 1.287 . S
C1169 C1170 1.524 . S
C1169 H1172 0.999 . S
C1170 H1140 0.950 . S
C1170 C1169 1.524 . S
C1170 C1171 1.415 . S
C1171 H1141 0.950 . S
C1171 C1166 1.363 . S
C1171 C1170 1.415 . S
H1172 C1169 0.999 . S
H1173 C1154 0.913 . S
H1174 C1192 0.951 . S
H1175 C1194 0.951 . S
H1176 C1196 0.950 . S
H1177 C1197 0.950 1_556 S
H1178 C1199 0.950 . S
H1179 C1202 0.950 1_556 S
H1180 C1203 0.950 . S
H1181 C1205 0.950 . S
H1182 C1206 0.950 . S
H1183 C1207 0.951 . S
H1184 C1209 0.951 . S
H1185 C1211 0.950 . S
H1186 C1212 0.950 . S
H1187 C1214 0.950 . S
H1188 C1217 0.950 . S
H1189 C1218 0.950 . S
H1190 C1220 0.950 . S
H1191 C1221 0.950 . S
C1192 H1174 0.951 . S
C1192 C1193 1.366 . S
C1192 C1194 1.388 . S
C1193 C1192 1.366 . S
C1193 C1197 1.385 . S
C1194 H1175 0.951 . S
C1194 C1192 1.388 . S
C1194 C1195 1.366 . S
C1195 C1194 1.366 . S
C1195 C1196 1.414 1_554 S
C1195 C1198 1.499 1_554 S
C1196 H1176 0.950 . S
C1196 C1195 1.414 1_556 S
C1196 C1197 1.374 1_556 S
C1197 H1177 0.950 1_554 S
C1197 C1193 1.385 . S
C1197 C1196 1.374 1_554 S
C1198 C1195 1.499 1_556 S
C1198 C1199 1.373 . S
C1198 C1200 1.389 . S
C1199 H1178 0.950 . S
C1199 C1198 1.373 . S
C1199 C1215 1.377 . S
C1200 C1198 1.389 . S
C1200 C1201 1.524 1_556 S
C1200 C1214 1.377 . S
C1201 C1200 1.524 1_554 S
C1201 C1202 1.397 . S
C1201 C1206 1.363 . S
C1202 H1179 0.950 1_554 S
C1202 C1201 1.397 . S
C1202 C1203 1.334 . S
C1203 H1180 0.950 . S
C1203 C1202 1.334 . S
C1203 C1204 1.287 . S
C1204 C1203 1.287 . S
C1204 C1205 1.524 . S
C1204 H1223 0.913 . S
C1205 H1181 0.950 . S
C1205 C1204 1.524 . S
C1205 C1206 1.415 . S
C1206 H1182 0.950 . S
C1206 C1201 1.363 . S
C1206 C1205 1.415 . S
C1207 H1183 0.951 . S
C1207 C1208 1.366 . S
C1207 C1209 1.388 . S
C1208 C1207 1.366 . S
C1208 C1212 1.385 . S
C1209 H1184 0.951 . S
C1209 C1207 1.388 . S
C1209 C1210 1.366 . S
C1210 C1209 1.366 . S
C1210 C1211 1.414 . S
C1210 C1213 1.499 . S
C1211 H1185 0.950 . S
C1211 C1210 1.414 . S
C1211 C1212 1.374 . S
C1212 H1186 0.950 . S
C1212 C1208 1.385 . S
C1212 C1211 1.374 . S
C1213 C1210 1.499 . S
C1213 C1214 1.373 . S
C1213 C1215 1.389 . S
C1214 H1187 0.950 . S
C1214 C1200 1.377 . S
C1214 C1213 1.373 . S
C1215 C1199 1.377 . S
C1215 C1213 1.389 . S
C1215 C1216 1.524 . S
C1216 C1215 1.524 . S
C1216 C1217 1.397 . S
C1216 C1221 1.363 . S
C1217 H1188 0.950 . S
C1217 C1216 1.397 . S
C1217 C1218 1.334 . S
C1218 H1189 0.950 . S
C1218 C1217 1.334 . S
C1218 C1219 1.287 . S
C1219 C1218 1.287 . S
C1219 C1220 1.524 . S
C1219 H1222 0.999 . S
C1220 H1190 0.950 . S
C1220 C1219 1.524 . S
C1220 C1221 1.415 . S
C1221 H1191 0.950 . S
C1221 C1216 1.363 . S
C1221 C1220 1.415 . S
H1222 C1219 0.999 . S
H1223 C1204 0.913 . S
H1224 C1242 0.951 . S
H1225 C1244 0.951 . S
H1226 C1246 0.950 . S
H1227 C1247 0.950 . S
H1228 C1249 0.950 . S
H1229 C1252 0.950 . S
H1230 C1253 0.950 . S
H1231 C1255 0.950 . S
H1232 C1256 0.950 . S
H1233 C1257 0.951 . S
H1234 C1259 0.951 . S
H1235 C1261 0.950 . S
H1236 C1262 0.950 . S
H1237 C1264 0.950 . S
H1238 C1267 0.950 . S
H1239 C1268 0.950 . S
H1240 C1270 0.950 . S
H1241 C1271 0.950 . S
C1242 H1224 0.951 . S
C1242 C1243 1.366 . S
C1242 C1244 1.388 . S
C1243 C1242 1.366 . S
C1243 C1247 1.385 . S
C1244 H1225 0.951 . S
C1244 C1242 1.388 . S
C1244 C1245 1.366 . S
C1245 C1244 1.366 . S
C1245 C1246 1.414 . S
C1245 C1248 1.499 . S
C1246 H1226 0.950 . S
C1246 C1245 1.414 . S
C1246 C1247 1.374 . S
C1247 H1227 0.950 . S
C1247 C1243 1.385 . S
C1247 C1246 1.374 . S
C1248 C1245 1.499 . S
C1248 C1249 1.373 . S
C1248 C1250 1.389 . S
C1249 H1228 0.950 . S
C1249 C1248 1.373 . S
C1249 C1265 1.377 . S
C1250 C1248 1.389 . S
C1250 C1251 1.524 . S
C1250 C1264 1.377 . S
C1251 C1250 1.524 . S
C1251 C1252 1.397 . S
C1251 C1256 1.363 . S
C1252 H1229 0.950 . S
C1252 C1251 1.397 . S
C1252 C1253 1.334 . S
C1253 H1230 0.950 . S
C1253 C1252 1.334 . S
C1253 C1254 1.287 . S
C1254 C1253 1.287 . S
C1254 C1255 1.524 . S
C1254 H1273 0.913 . S
C1255 H1231 0.950 . S
C1255 C1254 1.524 . S
C1255 C1256 1.415 . S
C1256 H1232 0.950 . S
C1256 C1251 1.363 . S
C1256 C1255 1.415 . S
C1257 H1233 0.951 . S
C1257 C1258 1.366 . S
C1257 C1259 1.388 . S
C1258 C1257 1.366 . S
C1258 C1262 1.385 . S
C1259 H1234 0.951 . S
C1259 C1257 1.388 . S
C1259 C1260 1.366 . S
C1260 C1259 1.366 . S
C1260 C1261 1.414 . S
C1260 C1263 1.499 . S
C1261 H1235 0.950 . S
C1261 C1260 1.414 . S
C1261 C1262 1.374 . S
C1262 H1236 0.950 . S
C1262 C1258 1.385 . S
C1262 C1261 1.374 . S
C1263 C1260 1.499 . S
C1263 C1264 1.373 . S
C1263 C1265 1.389 . S
C1264 H1237 0.950 . S
C1264 C1250 1.377 . S
C1264 C1263 1.373 . S
C1265 C1249 1.377 . S
C1265 C1263 1.389 . S
C1265 C1266 1.524 . S
C1266 C1265 1.524 . S
C1266 C1267 1.397 1_455 S
C1266 C1271 1.363 . S
C1267 H1238 0.950 . S
C1267 C1266 1.397 1_655 S
C1267 C1268 1.334 . S
C1268 H1239 0.950 . S
C1268 C1267 1.334 . S
C1268 C1269 1.287 . S
C1269 C1268 1.287 . S
C1269 C1270 1.524 . S
C1269 H1272 0.999 . S
C1270 H1240 0.950 . S
C1270 C1269 1.524 . S
C1270 C1271 1.415 1_655 S
C1271 H1241 0.950 . S
C1271 C1266 1.363 . S
C1271 C1270 1.415 1_455 S
H1272 C1269 0.999 . S
H1273 C1254 0.913 . S
H1274 C1292 0.951 . S
H1275 C1294 0.951 . S
H1276 C1296 0.950 . S
H1277 C1297 0.950 . S
H1278 C1299 0.950 . S
H1279 C1302 0.950 . S
H1280 C1303 0.950 . S
H1281 C1305 0.950 1_554 S
H1282 C1306 0.950 . S
H1283 C1307 0.951 . S
H1284 C1309 0.951 . S
H1285 C1311 0.950 . S
H1286 C1312 0.950 . S
H1287 C1314 0.950 . S
H1288 C1317 0.950 . S
H1289 C1318 0.912 1_565 S
H1290 C1320 0.950 . S
H1291 C1321 0.950 . S
C1292 H1274 0.951 . S
C1292 C1293 1.366 . S
C1292 C1294 1.388 . S
C1293 C1292 1.366 . S
C1293 C1297 1.385 . S
C1294 H1275 0.951 . S
C1294 C1292 1.388 . S
C1294 C1295 1.366 . S
C1295 C1294 1.366 . S
C1295 C1296 1.414 . S
C1295 C1298 1.499 . S
C1296 H1276 0.950 . S
C1296 C1295 1.414 . S
C1296 C1297 1.374 . S
C1297 H1277 0.950 . S
C1297 C1293 1.385 . S
C1297 C1296 1.374 . S
C1298 C1295 1.499 . S
C1298 C1299 1.373 . S
C1298 C1300 1.389 . S
C1299 H1278 0.950 . S
C1299 C1298 1.373 . S
C1299 C1315 1.377 . S
C1300 C1298 1.389 . S
C1300 C1301 1.524 . S
C1300 C1314 1.377 . S
C1301 C1300 1.524 . S
C1301 C1302 1.397 . S
C1301 C1306 1.363 . S
C1302 H1279 0.950 . S
C1302 C1301 1.397 . S
C1302 C1303 1.334 . S
C1303 H1280 0.950 . S
C1303 C1302 1.334 . S
C1303 C1304 1.287 . S
C1304 C1303 1.287 . S
C1304 C1305 1.524 . S
C1304 H1323 0.913 1_556 S
C1305 H1281 0.950 1_556 S
C1305 C1304 1.524 . S
C1305 C1306 1.415 . S
C1306 H1282 0.950 . S
C1306 C1301 1.363 . S
C1306 C1305 1.415 . S
C1307 H1283 0.951 . S
C1307 C1308 1.366 . S
C1307 C1309 1.388 . S
C1308 C1307 1.366 . S
C1308 C1312 1.385 . S
C1309 H1284 0.951 . S
C1309 C1307 1.388 . S
C1309 C1310 1.366 . S
C1310 C1309 1.366 . S
C1310 C1311 1.414 . S
C1310 C1313 1.499 . S
C1311 H1285 0.950 . S
C1311 C1310 1.414 . S
C1311 C1312 1.374 . S
C1312 H1286 0.950 . S
C1312 C1308 1.385 . S
C1312 C1311 1.374 . S
C1313 C1310 1.499 . S
C1313 C1314 1.373 . S
C1313 C1315 1.389 . S
C1314 H1287 0.950 . S
C1314 C1300 1.377 . S
C1314 C1313 1.373 . S
C1315 C1299 1.377 . S
C1315 C1313 1.389 . S
C1315 C1316 1.524 . S
C1316 C1315 1.524 . S
C1316 C1317 1.397 . S
C1316 C1321 1.363 . S
C1317 H1288 0.950 . S
C1317 C1316 1.397 . S
C1317 C1318 1.356 . S
C1318 H1289 0.912 1_545 S
C1318 C1317 1.356 . S
C1318 C1319 1.305 . S
C1319 C1318 1.305 . S
C1319 C1320 1.524 . S
C1319 H1322 0.999 . S
C1320 H1290 0.950 . S
C1320 C1319 1.524 . S
C1320 C1321 1.415 . S
C1321 H1291 0.950 . S
C1321 C1316 1.363 . S
C1321 C1320 1.415 . S
H1322 C1319 0.999 . S
H1323 C1304 0.913 1_554 S
H1324 C1342 0.951 . S
H1325 C1344 0.951 . S
H1326 C1346 0.950 . S
H1327 C1347 0.950 . S
H1328 C1349 0.950 . S
H1329 C1352 0.950 . S
H1330 C1353 0.950 . S
H1331 C1355 0.950 . S
H1332 C1356 0.950 . S
H1333 C1357 0.951 . S
H1334 C1359 0.951 . S
H1335 C1361 0.950 . S
H1336 C1362 0.950 . S
H1337 C1364 0.950 . S
H1338 C1367 0.950 . S
H1339 C1368 0.950 . S
H1340 C1370 0.950 . S
H1341 C1371 0.950 . S
C1342 H1324 0.951 . S
C1342 C1343 1.366 . S
C1342 C1344 1.388 . S
C1343 C1342 1.366 . S
C1343 C1347 1.385 . S
C1344 H1325 0.951 . S
C1344 C1342 1.388 . S
C1344 C1345 1.366 . S
C1345 C1344 1.366 . S
C1345 C1346 1.414 . S
C1345 C1348 1.499 . S
C1346 H1326 0.950 . S
C1346 C1345 1.414 . S
C1346 C1347 1.374 . S
C1347 H1327 0.950 . S
C1347 C1343 1.385 . S
C1347 C1346 1.374 . S
C1348 C1345 1.499 . S
C1348 C1349 1.373 . S
C1348 C1350 1.389 . S
C1349 H1328 0.950 . S
C1349 C1348 1.373 . S
C1349 C1365 1.377 . S
C1350 C1348 1.389 . S
C1350 C1351 1.524 . S
C1350 C1364 1.377 . S
C1351 C1350 1.524 . S
C1351 C1352 1.397 . S
C1351 C1356 1.363 . S
C1352 H1329 0.950 . S
C1352 C1351 1.397 . S
C1352 C1353 1.334 . S
C1353 H1330 0.950 . S
C1353 C1352 1.334 . S
C1353 C1354 1.287 . S
C1354 C1353 1.287 . S
C1354 C1355 1.524 . S
C1354 H1373 0.913 . S
C1355 H1331 0.950 . S
C1355 C1354 1.524 . S
C1355 C1356 1.415 . S
C1356 H1332 0.950 . S
C1356 C1351 1.363 . S
C1356 C1355 1.415 . S
C1357 H1333 0.951 . S
C1357 C1358 1.366 . S
C1357 C1359 1.388 . S
C1358 C1357 1.366 . S
C1358 C1362 1.385 . S
C1359 H1334 0.951 . S
C1359 C1357 1.388 . S
C1359 C1360 1.366 . S
C1360 C1359 1.366 . S
C1360 C1361 1.414 . S
C1360 C1363 1.499 . S
C1361 H1335 0.950 . S
C1361 C1360 1.414 . S
C1361 C1362 1.374 . S
C1362 H1336 0.950 . S
C1362 C1358 1.385 . S
C1362 C1361 1.374 . S
C1363 C1360 1.499 . S
C1363 C1364 1.373 . S
C1363 C1365 1.389 . S
C1364 H1337 0.950 . S
C1364 C1350 1.377 . S
C1364 C1363 1.373 . S
C1365 C1349 1.377 . S
C1365 C1363 1.389 . S
C1365 C1366 1.524 . S
C1366 C1365 1.524 . S
C1366 C1367 1.397 . S
C1366 C1371 1.363 . S
C1367 H1338 0.950 . S
C1367 C1366 1.397 . S
C1367 C1368 1.334 . S
C1368 H1339 0.950 . S
C1368 C1367 1.334 . S
C1368 C1369 1.287 . S
C1369 C1368 1.287 . S
C1369 C1370 1.524 . S
C1369 H1372 0.999 . S
C1370 H1340 0.950 . S
C1370 C1369 1.524 . S
C1370 C1371 1.415 . S
C1371 H1341 0.950 . S
C1371 C1366 1.363 . S
C1371 C1370 1.415 . S
H1372 C1369 0.999 . S
H1373 C1354 0.913 . S
H1374 C1392 0.951 . S
H1375 C1394 0.951 . S
H1376 C1396 0.950 . S
H1377 C1397 0.950 . S
H1378 C1399 0.950 . S
H1379 C1402 0.950 . S
H1380 C1403 0.950 . S
H1381 C1405 0.950 1_554 S
H1382 C1406 0.950 . S
H1383 C1407 0.951 . S
H1384 C1409 0.951 . S
H1385 C1411 0.950 . S
H1386 C1412 0.950 . S
H1387 C1414 0.950 . S
H1388 C1417 0.950 . S
H1389 C1418 0.950 . S
H1390 C1420 0.950 . S
H1391 C1421 0.950 . S
C1392 H1374 0.951 . S
C1392 C1393 1.366 . S
C1392 C1394 1.388 . S
C1393 C1392 1.366 . S
C1393 C1397 1.385 . S
C1394 H1375 0.951 . S
C1394 C1392 1.388 . S
C1394 C1395 1.366 . S
C1395 C1394 1.366 . S
C1395 C1396 1.414 . S
C1395 C1398 1.499 . S
C1396 H1376 0.950 . S
C1396 C1395 1.414 . S
C1396 C1397 1.374 . S
C1397 H1377 0.950 . S
C1397 C1393 1.385 . S
C1397 C1396 1.374 . S
C1398 C1395 1.499 . S
C1398 C1399 1.373 . S
C1398 C1400 1.389 . S
C1399 H1378 0.950 . S
C1399 C1398 1.373 . S
C1399 C1415 1.377 . S
C1400 C1398 1.389 . S
C1400 C1401 1.524 . S
C1400 C1414 1.377 . S
C1401 C1400 1.524 . S
C1401 C1402 1.397 . S
C1401 C1406 1.363 . S
C1402 H1379 0.950 . S
C1402 C1401 1.397 . S
C1402 C1403 1.334 . S
C1403 H1380 0.950 . S
C1403 C1402 1.334 . S
C1403 C1404 1.287 . S
C1404 C1403 1.287 . S
C1404 C1405 1.524 . S
C1404 H1423 0.913 1_556 S
C1405 H1381 0.950 1_556 S
C1405 C1404 1.524 . S
C1405 C1406 1.415 . S
C1406 H1382 0.950 . S
C1406 C1401 1.363 . S
C1406 C1405 1.415 . S
C1407 H1383 0.951 . S
C1407 C1408 1.366 . S
C1407 C1409 1.388 . S
C1408 C1407 1.366 . S
C1408 C1412 1.385 . S
C1409 H1384 0.951 . S
C1409 C1407 1.388 . S
C1409 C1410 1.366 . S
C1410 C1409 1.366 . S
C1410 C1411 1.414 . S
C1410 C1413 1.499 . S
C1411 H1385 0.950 . S
C1411 C1410 1.414 . S
C1411 C1412 1.374 . S
C1412 H1386 0.950 . S
C1412 C1408 1.385 . S
C1412 C1411 1.374 . S
C1413 C1410 1.499 . S
C1413 C1414 1.373 . S
C1413 C1415 1.389 . S
C1414 H1387 0.950 . S
C1414 C1400 1.377 . S
C1414 C1413 1.373 . S
C1415 C1399 1.377 . S
C1415 C1413 1.389 . S
C1415 C1416 1.524 . S
C1416 C1415 1.524 . S
C1416 C1417 1.397 . S
C1416 C1421 1.363 . S
C1417 H1388 0.950 . S
C1417 C1416 1.397 . S
C1417 C1418 1.334 . S
C1418 H1389 0.950 . S
C1418 C1417 1.334 . S
C1418 C1419 1.287 . S
C1419 C1418 1.287 . S
C1419 C1420 1.524 . S
C1419 H1422 0.999 . S
C1420 H1390 0.950 . S
C1420 C1419 1.524 . S
C1420 C1421 1.415 . S
C1421 H1391 0.950 . S
C1421 C1416 1.363 . S
C1421 C1420 1.415 . S
H1422 C1419 0.999 . S
H1423 C1404 0.913 1_554 S
H1424 C1442 0.951 . S
H1425 C1444 0.951 . S
H1426 C1446 0.950 . S
H1427 C1447 0.950 . S
H1428 C1449 0.950 . S
H1429 C1452 0.950 . S
H1430 C1453 0.950 . S
H1431 C1455 0.950 . S
H1432 C1456 0.950 . S
H1433 C1457 0.951 1_455 S
H1434 C1459 0.916 1_455 S
H1435 C1461 0.950 . S
H1436 C1462 0.950 . S
H1437 C1464 0.950 . S
H1438 C1467 0.950 . S
H1439 C1468 0.950 . S
H1440 C1470 0.950 1_455 S
H1441 C1471 0.950 . S
C1442 H1424 0.951 . S
C1442 C1443 1.366 . S
C1442 C1444 1.388 . S
C1443 C1442 1.366 . S
C1443 C1447 1.385 . S
C1444 H1425 0.951 . S
C1444 C1442 1.388 . S
C1444 C1445 1.366 . S
C1445 C1444 1.366 . S
C1445 C1446 1.414 . S
C1445 C1448 1.499 . S
C1446 H1426 0.950 . S
C1446 C1445 1.414 . S
C1446 C1447 1.374 . S
C1447 H1427 0.950 . S
C1447 C1443 1.385 . S
C1447 C1446 1.374 . S
C1448 C1445 1.499 . S
C1448 C1449 1.373 . S
C1448 C1450 1.389 . S
C1449 H1428 0.950 . S
C1449 C1448 1.373 . S
C1449 C1465 1.377 . S
C1450 C1448 1.389 . S
C1450 C1451 1.524 . S
C1450 C1464 1.377 . S
C1451 C1450 1.524 . S
C1451 C1452 1.397 . S
C1451 C1456 1.363 . S
C1452 H1429 0.950 . S
C1452 C1451 1.397 . S
C1452 C1453 1.334 . S
C1453 H1430 0.950 . S
C1453 C1452 1.334 . S
C1453 C1454 1.287 . S
C1454 C1453 1.287 . S
C1454 C1455 1.524 . S
C1454 H1473 0.913 . S
C1455 H1431 0.950 . S
C1455 C1454 1.524 . S
C1455 C1456 1.415 . S
C1456 H1432 0.950 . S
C1456 C1451 1.363 . S
C1456 C1455 1.415 . S
C1457 H1433 0.951 1_655 S
C1457 C1458 1.366 . S
C1457 C1459 1.388 . S
C1458 C1457 1.366 . S
C1458 C1462 1.385 . S
C1459 H1434 0.916 1_655 S
C1459 C1457 1.388 . S
C1459 C1460 1.366 . S
C1460 C1459 1.366 . S
C1460 C1461 1.414 . S
C1460 C1463 1.499 . S
C1461 H1435 0.950 . S
C1461 C1460 1.414 . S
C1461 C1462 1.374 . S
C1462 H1436 0.950 . S
C1462 C1458 1.385 . S
C1462 C1461 1.374 . S
C1463 C1460 1.499 . S
C1463 C1464 1.373 . S
C1463 C1465 1.389 . S
C1464 H1437 0.950 . S
C1464 C1450 1.377 . S
C1464 C1463 1.373 . S
C1465 C1449 1.377 . S
C1465 C1463 1.389 . S
C1465 C1466 1.524 . S
C1466 C1465 1.524 . S
C1466 C1467 1.397 . S
C1466 C1471 1.363 . S
C1467 H1438 0.950 . S
C1467 C1466 1.397 . S
C1467 C1468 1.334 . S
C1468 H1439 0.950 . S
C1468 C1467 1.334 . S
C1468 C1469 1.287 . S
C1469 C1468 1.287 . S
C1469 C1470 1.524 . S
C1469 H1472 0.999 . S
C1470 H1440 0.950 1_655 S
C1470 C1469 1.524 . S
C1470 C1471 1.415 . S
C1471 H1441 0.950 . S
C1471 C1466 1.363 . S
C1471 C1470 1.415 . S
H1472 C1469 0.999 . S
H1473 C1454 0.913 . S
H1474 C1492 0.951 . S
H1475 C1494 0.951 . S
H1476 C1496 0.950 . S
H1477 C1497 0.950 . S
H1478 C1499 0.950 . S
H1479 C1502 0.950 . S
H1480 C1503 0.950 . S
H1481 C1505 0.950 . S
H1482 C1506 0.950 . S
H1483 C1507 0.951 . S
H1484 C1509 0.951 1_545 S
H1485 C1511 0.950 . S
H1486 C1512 0.950 . S
H1487 C1514 0.950 . S
H1488 C1517 0.950 . S
H1489 C1518 0.950 . S
H1490 C1520 0.950 . S
H1491 C1521 0.950 1_545 S
C1492 H1474 0.951 . S
C1492 C1493 1.366 . S
C1492 C1494 1.388 . S
C1493 C1492 1.366 . S
C1493 C1497 1.385 . S
C1494 H1475 0.951 . S
C1494 C1492 1.388 . S
C1494 C1495 1.366 . S
C1495 C1494 1.366 . S
C1495 C1496 1.414 . S
C1495 C1498 1.499 . S
C1496 H1476 0.950 . S
C1496 C1495 1.414 . S
C1496 C1497 1.374 . S
C1497 H1477 0.950 . S
C1497 C1493 1.385 . S
C1497 C1496 1.374 . S
C1498 C1495 1.499 . S
C1498 C1499 1.373 . S
C1498 C1500 1.389 . S
C1499 H1478 0.950 . S
C1499 C1498 1.373 . S
C1499 C1515 1.377 . S
C1500 C1498 1.389 . S
C1500 C1501 1.524 . S
C1500 C1514 1.377 . S
C1501 C1500 1.524 . S
C1501 C1502 1.397 . S
C1501 C1506 1.363 . S
C1502 H1479 0.950 . S
C1502 C1501 1.397 . S
C1502 C1503 1.334 . S
C1503 H1480 0.950 . S
C1503 C1502 1.334 . S
C1503 C1504 1.287 . S
C1504 C1503 1.287 . S
C1504 C1505 1.524 . S
C1504 H1523 0.913 . S
C1505 H1481 0.950 . S
C1505 C1504 1.524 . S
C1505 C1506 1.415 . S
C1506 H1482 0.950 . S
C1506 C1501 1.363 . S
C1506 C1505 1.415 . S
C1507 H1483 0.951 . S
C1507 C1508 1.366 1_545 S
C1507 C1509 1.388 1_545 S
C1508 C1507 1.366 1_565 S
C1508 C1512 1.385 . S
C1509 H1484 0.951 1_565 S
C1509 C1507 1.388 1_565 S
C1509 C1510 1.366 . S
C1510 C1509 1.366 . S
C1510 C1511 1.414 . S
C1510 C1513 1.499 . S
C1511 H1485 0.950 . S
C1511 C1510 1.414 . S
C1511 C1512 1.374 . S
C1512 H1486 0.950 . S
C1512 C1508 1.385 . S
C1512 C1511 1.374 . S
C1513 C1510 1.499 . S
C1513 C1514 1.373 . S
C1513 C1515 1.389 . S
C1514 H1487 0.950 . S
C1514 C1500 1.377 . S
C1514 C1513 1.373 . S
C1515 C1499 1.377 . S
C1515 C1513 1.389 . S
C1515 C1516 1.524 . S
C1516 C1515 1.524 . S
C1516 C1517 1.397 . S
C1516 C1521 1.363 . S
C1517 H1488 0.950 . S
C1517 C1516 1.397 . S
C1517 C1518 1.334 . S
C1518 H1489 0.950 . S
C1518 C1517 1.334 . S
C1518 C1519 1.287 . S
C1519 C1518 1.287 . S
C1519 C1520 1.524 1_565 S
C1519 H1522 0.999 . S
C1520 H1490 0.950 . S
C1520 C1519 1.524 1_545 S
C1520 C1521 1.415 1_545 S
C1521 H1491 0.950 1_565 S
C1521 C1516 1.363 . S
C1521 C1520 1.415 1_565 S
H1522 C1519 0.999 . S
H1523 C1504 0.913 . S
H1524 C1542 0.951 . S
H1525 C1544 0.951 . S
H1526 C1546 0.950 . S
H1527 C1547 0.950 . S
H1528 C1549 0.950 . S
H1529 C1552 0.950 . S
H1530 C1553 0.950 . S
H1531 C1555 0.950 . S
H1532 C1556 0.950 . S
H1533 C1557 0.951 . S
H1534 C1559 0.951 . S
H1535 C1561 0.950 . S
H1536 C1562 0.950 . S
H1537 C1564 0.950 . S
H1538 C1567 0.950 . S
H1539 C1568 0.950 . S
H1540 C1570 0.950 . S
H1541 C1571 0.950 . S
C1542 H1524 0.951 . S
C1542 C1543 1.366 . S
C1542 C1544 1.388 . S
C1543 C1542 1.366 . S
C1543 C1547 1.385 . S
C1544 H1525 0.951 . S
C1544 C1542 1.388 . S
C1544 C1545 1.366 . S
C1545 C1544 1.366 . S
C1545 C1546 1.414 . S
C1545 C1548 1.499 . S
C1546 H1526 0.950 . S
C1546 C1545 1.414 . S
C1546 C1547 1.374 . S
C1547 H1527 0.950 . S
C1547 C1543 1.385 . S
C1547 C1546 1.374 . S
C1548 C1545 1.499 . S
C1548 C1549 1.373 . S
C1548 C1550 1.389 . S
C1549 H1528 0.950 . S
C1549 C1548 1.373 . S
C1549 C1565 1.377 . S
C1550 C1548 1.389 . S
C1550 C1551 1.524 . S
C1550 C1564 1.377 . S
C1551 C1550 1.524 . S
C1551 C1552 1.397 . S
C1551 C1556 1.363 . S
C1552 H1529 0.950 . S
C1552 C1551 1.397 . S
C1552 C1553 1.334 . S
C1553 H1530 0.950 . S
C1553 C1552 1.334 . S
C1553 C1554 1.287 . S
C1554 C1553 1.287 . S
C1554 C1555 1.524 . S
C1554 H1573 0.913 . S
C1555 H1531 0.950 . S
C1555 C1554 1.524 . S
C1555 C1556 1.415 . S
C1556 H1532 0.950 . S
C1556 C1551 1.363 . S
C1556 C1555 1.415 . S
C1557 H1533 0.951 . S
C1557 C1558 1.366 . S
C1557 C1559 1.388 . S
C1558 C1557 1.366 . S
C1558 C1562 1.385 . S
C1559 H1534 0.951 . S
C1559 C1557 1.388 . S
C1559 C1560 1.366 . S
C1560 C1559 1.366 . S
C1560 C1561 1.414 . S
C1560 C1563 1.499 . S
C1561 H1535 0.950 . S
C1561 C1560 1.414 . S
C1561 C1562 1.374 . S
C1562 H1536 0.950 . S
C1562 C1558 1.385 . S
C1562 C1561 1.374 . S
C1563 C1560 1.499 . S
C1563 C1564 1.373 . S
C1563 C1565 1.389 . S
C1564 H1537 0.950 . S
C1564 C1550 1.377 . S
C1564 C1563 1.373 . S
C1565 C1549 1.377 . S
C1565 C1563 1.389 . S
C1565 C1566 1.524 . S
C1566 C1565 1.524 . S
C1566 C1567 1.397 . S
C1566 C1571 1.363 . S
C1567 H1538 0.950 . S
C1567 C1566 1.397 . S
C1567 C1568 1.334 . S
C1568 H1539 0.950 . S
C1568 C1567 1.334 . S
C1568 C1569 1.287 . S
C1569 C1568 1.287 . S
C1569 C1570 1.524 . S
C1569 H1572 0.999 . S
C1570 H1540 0.950 . S
C1570 C1569 1.524 . S
C1570 C1571 1.415 . S
C1571 H1541 0.950 . S
C1571 C1566 1.363 . S
C1571 C1570 1.415 . S
H1572 C1569 0.999 . S
H1573 C1554 0.913 . S
H1574 C1592 0.951 . S
H1575 C1594 0.951 . S
H1576 C1596 0.950 . S
H1577 C1597 0.950 . S
H1578 C1599 0.950 . S
H1579 C1602 0.950 . S
H1580 C1603 0.950 . S
H1581 C1605 0.950 . S
H1582 C1606 0.950 . S
H1583 C1607 0.951 . S
H1584 C1609 0.951 . S
H1585 C1611 0.950 . S
H1586 C1612 0.950 . S
H1587 C1614 0.950 . S
H1588 C1617 0.950 . S
H1589 C1618 0.950 . S
H1590 C1620 0.950 . S
H1591 C1621 0.950 . S
C1592 H1574 0.951 . S
C1592 C1593 1.366 . S
C1592 C1594 1.388 . S
C1593 C1592 1.366 . S
C1593 C1597 1.385 . S
C1594 H1575 0.951 . S
C1594 C1592 1.388 . S
C1594 C1595 1.366 . S
C1595 C1594 1.366 . S
C1595 C1596 1.414 . S
C1595 C1598 1.499 . S
C1596 H1576 0.950 . S
C1596 C1595 1.414 . S
C1596 C1597 1.374 . S
C1597 H1577 0.950 . S
C1597 C1593 1.385 . S
C1597 C1596 1.374 . S
C1598 C1595 1.499 . S
C1598 C1599 1.373 . S
C1598 C1600 1.389 . S
C1599 H1578 0.950 . S
C1599 C1598 1.373 . S
C1599 C1615 1.377 . S
C1600 C1598 1.389 . S
C1600 C1601 1.524 . S
C1600 C1614 1.377 . S
C1601 C1600 1.524 . S
C1601 C1602 1.397 . S
C1601 C1606 1.363 . S
C1602 H1579 0.950 . S
C1602 C1601 1.397 . S
C1602 C1603 1.334 . S
C1603 H1580 0.950 . S
C1603 C1602 1.334 . S
C1603 C1604 1.287 . S
C1604 C1603 1.287 . S
C1604 C1605 1.524 . S
C1604 H1623 0.913 . S
C1605 H1581 0.950 . S
C1605 C1604 1.524 . S
C1605 C1606 1.415 . S
C1606 H1582 0.950 . S
C1606 C1601 1.363 . S
C1606 C1605 1.415 . S
C1607 H1583 0.951 . S
C1607 C1608 1.366 . S
C1607 C1609 1.388 . S
C1608 C1607 1.366 . S
C1608 C1612 1.385 . S
C1609 H1584 0.951 . S
C1609 C1607 1.388 . S
C1609 C1610 1.366 . S
C1610 C1609 1.366 . S
C1610 C1611 1.414 . S
C1610 C1613 1.499 . S
C1611 H1585 0.950 . S
C1611 C1610 1.414 . S
C1611 C1612 1.374 . S
C1612 H1586 0.950 . S
C1612 C1608 1.385 . S
C1612 C1611 1.374 . S
C1613 C1610 1.499 . S
C1613 C1614 1.373 . S
C1613 C1615 1.389 . S
C1614 H1587 0.950 . S
C1614 C1600 1.377 . S
C1614 C1613 1.373 . S
C1615 C1599 1.377 . S
C1615 C1613 1.389 . S
C1615 C1616 1.524 . S
C1616 C1615 1.524 . S
C1616 C1617 1.397 . S
C1616 C1621 1.363 . S
C1617 H1588 0.950 . S
C1617 C1616 1.397 . S
C1617 C1618 1.334 . S
C1618 H1589 0.950 . S
C1618 C1617 1.334 . S
C1618 C1619 1.287 . S
C1619 C1618 1.287 . S
C1619 C1620 1.524 . S
C1619 H1622 0.999 . S
C1620 H1590 0.950 . S
C1620 C1619 1.524 . S
C1620 C1621 1.415 . S
C1621 H1591 0.950 . S
C1621 C1616 1.363 . S
C1621 C1620 1.415 . S
H1622 C1619 0.999 . S
H1623 C1604 0.913 . S
C443 C74 1.791 . S
C458 C162 1.789 . S
C508 C246 1.828 . S
C493 C85 1.830 . S
C558 C312 1.841 . S
C543 C52 1.956 . S
C608 C396 1.807 . S
C593 C63 1.921 . S
C658 C151 1.789 1_565 S
C643 C30 1.742 . S
C693 C41 1.777 . S
C708 C235 1.829 . S
C743 C8 1.896 . S
C758 C323 1.840 . S
C793 C19 1.868 . S
C808 C407 1.809 . S
C858 C158 0.605 . S
C843 C62 0.549 . S
C908 C242 0.571 . S
C893 C73 0.505 . S
C958 C314 0.550 . S
C943 C84 0.438 . S
C993 C51 0.485 . S
C1008 C398 0.572 . S
C1043 C18 0.615 . S
C1058 C146 0.595 . S
C1108 C230 0.568 . S
C1093 C29 0.586 . S
C1158 C326 0.553 . S
C1143 C40 0.552 . S
C1193 C7 0.578 . S
C1208 C410 0.572 . S
C1243 C60 1.813 . S
C1258 C155 2.006 . S
C1293 C71 1.763 . S
C1308 C239 1.964 . S
C1358 C319 1.943 . S
C1343 C82 1.670 . S
C1408 C403 1.980 . S
C1393 C49 1.711 . S
C1443 C16 1.582 . S
C1458 C144 2.006 . S
C1508 C228 1.955 1_565 S
C1493 C27 1.553 . S
C1558 C330 1.943 . S
C1543 C38 1.443 . S
C1593 C5 1.468 . S
C1608 C414 1.980 . S
