# Generated by pormake.
# Topology cml, (3,6)-cn, num edge types: 1
# Building blocks:
#     Node 0, Type 0, BuildingBlock: WUSLED_clean_sbu_0, # of connection points: 3
#     Node 1, Type 0, BuildingBlock: WUSLED_clean_sbu_0, # of connection points: 3
#     Node 2, Type 0, BuildingBlock: WUSLED_clean_sbu_0, # of connection points: 3
#     Node 3, Type 0, BuildingBlock: WUSLED_clean_sbu_0, # of connection points: 3
#     Node 4, Type 0, BuildingBlock: WUSLED_clean_sbu_0, # of connection points: 3
#     Node 5, Type 0, BuildingBlock: WUSLED_clean_sbu_0, # of connection points: 3
#     Node 6, Type 0, BuildingBlock: WUSLED_clean_sbu_0, # of connection points: 3
#     Node 7, Type 0, BuildingBlock: WUSLED_clean_sbu_0, # of connection points: 3
#     Node 8, Type 1, BuildingBlock: OJICUG_clean_sbu_0, # of connection points: 6
#     Node 9, Type 1, BuildingBlock: OJICUG_clean_sbu_0, # of connection points: 6
#     Node 10, Type 1, BuildingBlock: OJICUG_clean_sbu_0, # of connection points: 6
#     Node 11, Type 1, BuildingBlock: OJICUG_clean_sbu_0, # of connection points: 6
#     Edge 12, Type (0, 1), None
#     Edge 13, Type (0, 1), None
#     Edge 14, Type (0, 1), None
#     Edge 15, Type (0, 1), None
#     Edge 16, Type (0, 1), None
#     Edge 17, Type (0, 1), None
#     Edge 18, Type (0, 1), None
#     Edge 19, Type (0, 1), None
#     Edge 20, Type (0, 1), None
#     Edge 21, Type (0, 1), None
#     Edge 22, Type (0, 1), None
#     Edge 23, Type (0, 1), None
#     Edge 24, Type (0, 1), None
#     Edge 25, Type (0, 1), None
#     Edge 26, Type (0, 1), None
#     Edge 27, Type (0, 1), None
#     Edge 28, Type (0, 1), None
#     Edge 29, Type (0, 1), None
#     Edge 30, Type (0, 1), None
#     Edge 31, Type (0, 1), None
#     Edge 32, Type (0, 1), None
#     Edge 33, Type (0, 1), None
#     Edge 34, Type (0, 1), None
#     Edge 35, Type (0, 1), None
# Relax obj value: 0.068
# Max RMSD: 0.083
# Mean RMSD: 0.078
data_MOF--net-cml--node1-WUSLED_clean_sbu_0--node2-OJICUG_clean_sbu_0--edge1-none
_symmetry_space_group_name_H-M    P1
_symmetry_Int_Tables_number       1
_symmetry_cell_setting            triclinic
loop_
_symmetry_equiv_pos_as_xyz
'x, y, z'
_cell_length_a     30.142894
_cell_length_b     29.991276
_cell_length_c     27.355324
_cell_angle_alpha  90.125585
_cell_angle_beta   90.259286
_cell_angle_gamma 89.852072
loop_
_atom_site_label
_atom_site_type_symbol
_atom_site_fract_x
_atom_site_fract_y
_atom_site_fract_z
_atom_type_partial_charge
C0 C 0.31591 0.50461 0.96156 0.0
C1 C 0.34436 0.52508 0.99556 0.0
C2 C 0.3861 0.55863 0.92863 0.0
C3 C 0.37906 0.55244 0.9791 0.0
C4 C 0.35635 0.53934 0.89524 0.0
C5 C 0.32152 0.51296 0.91161 0.0
U6 U 0.24915 0.40682 0.02745 0.0
O7 O 0.17695 0.39548 0.01944 0.0
O8 O 0.22508 0.35171 0.98068 0.0
C9 C 0.18354 0.36195 0.98913 0.0
C10 C 0.28189 0.47169 0.97455 0.0
C11 C 0.14659 0.33594 0.96844 0.0
C12 C 0.10115 0.31564 0.89764 0.0
C13 C 0.13071 0.34506 0.92111 0.0
C14 C 0.10305 0.26818 0.96908 0.0
C15 C 0.08745 0.27628 0.92111 0.0
C16 C 0.13216 0.29758 0.99238 0.0
C17 C 0.31934 0.37274 0.1462 0.0
C18 C 0.3535 0.3272 0.20968 0.0
C19 C 0.38442 0.39933 0.18934 0.0
C20 C 0.35151 0.40565 0.15368 0.0
C21 C 0.38598 0.35978 0.21731 0.0
C22 C 0.32032 0.33385 0.17465 0.0
C23 C 0.28557 0.37546 0.10754 0.0
O24 O 0.29295 0.42966 0.96916 0.0
O25 O 0.25436 0.47912 1.01095 0.0
O26 O 0.29716 0.36256 0.06354 0.0
O27 O 0.25614 0.40799 0.10804 0.0
H28 H 0.34052 0.51905 0.03433 0.0
H29 H 0.40137 0.56728 1.00564 0.0
H30 H 0.36027 0.54421 0.85626 0.0
H31 H 0.29964 0.49772 0.88484 0.0
H32 H 0.0896 0.3234 0.8611 0.0
H33 H 0.14223 0.37427 0.90176 0.0
H34 H 0.09317 0.23864 0.98891 0.0
H35 H 0.14456 0.28949 0.02854 0.0
H36 H 0.35353 0.29679 0.23097 0.0
H37 H 0.40919 0.42506 0.19441 0.0
H38 H 0.35146 0.43572 0.1318 0.0
H39 H 0.29563 0.3081 0.16914 0.0
C40 C 0.65967 0.64829 0.64337 0.0
C41 C 0.62823 0.61389 0.64566 0.0
C42 C 0.59158 0.65144 0.71404 0.0
C43 C 0.59462 0.61528 0.6811 0.0
C44 C 0.62339 0.68543 0.71156 0.0
C45 C 0.65715 0.68367 0.67679 0.0
U46 U 0.7218 0.61367 0.5237 0.0
O47 O 0.74776 0.65955 0.46859 0.0
O48 O 0.79387 0.61485 0.50826 0.0
C49 C 0.78833 0.64404 0.4729 0.0
C50 C 0.6947 0.64995 0.60594 0.0
C51 C 0.82497 0.67246 0.45736 0.0
C52 C 0.87047 0.73846 0.46456 0.0
C53 C 0.83817 0.71013 0.48379 0.0
C54 C 0.87626 0.69161 0.3925 0.0
C55 C 0.88957 0.72973 0.41845 0.0
C56 C 0.84436 0.66319 0.41197 0.0
C57 C 0.65175 0.51218 0.46519 0.0
C58 C 0.62105 0.46994 0.39769 0.0
C59 C 0.59399 0.45821 0.48011 0.0
C60 C 0.62375 0.49012 0.49773 0.0
C61 C 0.59172 0.44874 0.42981 0.0
C62 C 0.65102 0.50134 0.41539 0.0
C63 C 0.68036 0.54844 0.48109 0.0
O64 O 0.7232 0.61665 0.60427 0.0
O65 O 0.68242 0.6642 0.56255 0.0
O66 O 0.71158 0.54155 0.51398 0.0
O67 O 0.66857 0.59019 0.47454 0.0
H68 H 0.62945 0.58635 0.61999 0.0
H69 H 0.57048 0.5886 0.68205 0.0
H70 H 0.6223 0.71339 0.73666 0.0
H71 H 0.68116 0.71048 0.67559 0.0
H72 H 0.88003 0.76755 0.48561 0.0
H73 H 0.82313 0.71794 0.51867 0.0
H74 H 0.8905 0.68363 0.35725 0.0
H75 H 0.83409 0.63427 0.39098 0.0
H76 H 0.62014 0.46296 0.3588 0.0
H77 H 0.57142 0.44249 0.50544 0.0
H78 H 0.62404 0.49843 0.53628 0.0
H79 H 0.67278 0.51816 0.38996 0.0
C80 C 0.6629 0.49394 0.95153 0.0
C81 C 0.63051 0.50703 0.98543 0.0
C82 C 0.59619 0.55438 0.92361 0.0
C83 C 0.59746 0.53761 0.97159 0.0
C84 C 0.62942 0.54192 0.89053 0.0
C85 C 0.66261 0.51224 0.90454 0.0
U86 U 0.72047 0.39335 0.01826 0.0
O87 O 0.74821 0.33569 0.97962 0.0
O88 O 0.79281 0.38029 0.02187 0.0
C89 C 0.78851 0.3438 0.99555 0.0
C90 C 0.6961 0.45941 0.96161 0.0
C91 C 0.82621 0.32409 0.96973 0.0
C92 C 0.86842 0.30653 0.89636 0.0
C93 C 0.83543 0.33183 0.92014 0.0
C94 C 0.88257 0.26684 0.97194 0.0
C95 C 0.89175 0.27302 0.922 0.0
C96 C 0.85046 0.29208 0.99534 0.0
C97 C 0.64543 0.36562 0.13557 0.0
C98 C 0.61325 0.32127 0.20051 0.0
C99 C 0.58749 0.39682 0.18605 0.0
C100 C 0.61748 0.40123 0.14751 0.0
C101 C 0.58496 0.35669 0.21278 0.0
C102 C 0.64334 0.32585 0.16229 0.0
C103 C 0.67788 0.36817 0.09619 0.0
O104 O 0.72251 0.46481 0.9996 0.0
O105 O 0.6831 0.41805 0.95494 0.0
O106 O 0.70871 0.39913 0.0974 0.0
O107 O 0.66718 0.35403 0.05222 0.0
H108 H 0.63021 0.49295 0.02185 0.0
H109 H 0.5719 0.54662 0.99754 0.0
H110 H 0.62934 0.55461 0.85346 0.0
H111 H 0.68746 0.50248 0.87803 0.0
H112 H 0.87494 0.3125 0.85803 0.0
H113 H 0.81656 0.35639 0.89978 0.0
H114 H 0.89972 0.24179 0.99339 0.0
H115 H 0.84347 0.28536 0.03346 0.0
H116 H 0.61227 0.29015 0.22049 0.0
H117 H 0.56581 0.42465 0.1944 0.0
H118 H 0.61878 0.43214 0.12715 0.0
H119 H 0.66509 0.29816 0.1535 0.0
C120 C 0.31713 0.63362 0.64786 0.0
C121 C 0.34567 0.59794 0.65815 0.0
C122 C 0.38589 0.64457 0.71697 0.0
C123 C 0.37965 0.60331 0.69278 0.0
C124 C 0.35668 0.67978 0.70687 0.0
C125 C 0.32252 0.67419 0.67281 0.0
U126 U 0.24756 0.59886 0.52969 0.0
O127 O 0.22315 0.65268 0.48174 0.0
O128 O 0.17528 0.60923 0.5211 0.0
C129 C 0.18175 0.64251 0.49064 0.0
C130 C 0.28246 0.63157 0.61011 0.0
C131 C 0.14486 0.66658 0.46776 0.0
C132 C 0.09757 0.73153 0.46943 0.0
C133 C 0.12637 0.70239 0.49306 0.0
C134 C 0.10356 0.68846 0.39469 0.0
C135 C 0.08602 0.72553 0.41975 0.0
C136 C 0.13326 0.65939 0.41854 0.0
C137 C 0.31502 0.50038 0.46534 0.0
C138 C 0.35244 0.46117 0.39974 0.0
C139 C 0.38044 0.45559 0.48274 0.0
C140 C 0.34602 0.48354 0.49901 0.0
C141 C 0.38454 0.44533 0.43268 0.0
C142 C 0.31789 0.4881 0.41604 0.0
C143 C 0.28137 0.53384 0.4777 0.0
O144 O 0.29362 0.64474 0.56617 0.0
O145 O 0.25379 0.5985 0.61031 0.0
O146 O 0.29284 0.57573 0.47269 0.0
O147 O 0.25322 0.52663 0.51348 0.0
H148 H 0.34207 0.56642 0.63914 0.0
H149 H 0.40161 0.57539 0.69986 0.0
H150 H 0.36014 0.71158 0.72531 0.0
H151 H 0.30054 0.70203 0.6653 0.0
H152 H 0.08469 0.75922 0.49056 0.0
H153 H 0.13563 0.70895 0.53073 0.0
H154 H 0.09508 0.68245 0.35674 0.0
H155 H 0.14807 0.6321 0.39831 0.0
H156 H 0.35436 0.45321 0.36114 0.0
H157 H 0.40481 0.44359 0.50881 0.0
H158 H 0.34433 0.49289 0.53722 0.0
H159 H 0.2941 0.50074 0.3896 0.0
C160 C 0.81547 0.00498 0.96131 0.0
C161 C 0.84422 0.02543 0.99502 0.0
C162 C 0.88518 0.05918 0.92761 0.0
C163 C 0.8787 0.05288 0.97818 0.0
C164 C 0.85515 0.03986 0.89456 0.0
C165 C 0.82057 0.01338 0.91131 0.0
U166 U 0.74888 0.90714 0.02737 0.0
O167 O 0.67671 0.89576 0.01947 0.0
O168 O 0.72488 0.85202 0.98063 0.0
C169 C 0.68336 0.86182 0.98972 0.0
C170 C 0.78168 0.97196 0.97458 0.0
C171 C 0.64643 0.8363 0.96846 0.0
C172 C 0.60109 0.81573 0.89772 0.0
C173 C 0.63066 0.8453 0.92102 0.0
C174 C 0.60317 0.76846 0.96934 0.0
C175 C 0.58752 0.77639 0.9214 0.0
C176 C 0.63208 0.79801 0.99246 0.0
C177 C 0.81878 0.87261 0.14595 0.0
C178 C 0.85306 0.8267 0.20896 0.0
C179 C 0.88412 0.89883 0.18874 0.0
C180 C 0.85106 0.9054 0.15334 0.0
C181 C 0.88567 0.85915 0.21646 0.0
C182 C 0.81973 0.83361 0.1742 0.0
C183 C 0.78503 0.87549 0.10739 0.0
O184 O 0.79283 0.92995 0.96922 0.0
O185 O 0.75412 0.97943 1.01094 0.0
O186 O 0.79667 0.86268 0.06339 0.0
O187 O 0.75577 0.90817 0.10795 0.0
H188 H 0.84078 0.01932 0.03381 0.0
H189 H 0.90125 0.0677 1.00447 0.0
H190 H 0.85867 0.04476 0.85554 0.0
H191 H 0.79847 0.99811 0.88478 0.0
H192 H 0.58945 0.8233 0.86116 0.0
H193 H 0.64216 0.87448 0.90157 0.0
H194 H 0.59344 0.73896 0.98933 0.0
H195 H 0.64451 0.79005 0.02865 0.0
H196 H 0.85312 0.79622 0.23014 0.0
H197 H 0.909 0.92446 0.19378 0.0
H198 H 0.85102 0.93553 0.13157 0.0
H199 H 0.79493 0.80795 0.16872 0.0
C200 C 0.15955 0.14839 0.64306 0.0
C201 C 0.12797 0.11409 0.6451 0.0
C202 C 0.09108 0.15165 0.71333 0.0
C203 C 0.09419 0.11553 0.68034 0.0
C204 C 0.12313 0.18544 0.71124 0.0
C205 C 0.15707 0.18363 0.67667 0.0
U206 U 0.22097 0.11375 0.5231 0.0
O207 O 0.24663 0.15932 0.46745 0.0
O208 O 0.2929 0.1148 0.50698 0.0
C209 C 0.28727 0.14398 0.47164 0.0
C210 C 0.19452 0.1502 0.60554 0.0
C211 C 0.32376 0.17303 0.45687 0.0
C212 C 0.36953 0.23878 0.46592 0.0
C213 C 0.33703 0.21012 0.4843 0.0
C214 C 0.37536 0.19342 0.39275 0.0
C215 C 0.38879 0.23094 0.4197 0.0
C216 C 0.34328 0.16472 0.41133 0.0
C217 C 0.15097 0.01167 0.46502 0.0
C218 C 0.1209 0.96971 0.39688 0.0
C219 C 0.09351 0.95712 0.47899 0.0
C220 C 0.12296 0.98907 0.4971 0.0
C221 C 0.09151 0.94806 0.42861 0.0
C222 C 0.1506 0.00122 0.41509 0.0
C223 C 0.17863 0.0484 0.48184 0.0
O224 O 0.22303 0.11692 0.60367 0.0
O225 O 0.18205 0.16447 0.56222 0.0
O226 O 0.21046 0.04164 0.51403 0.0
O227 O 0.16701 0.09012 0.47479 0.0
H228 H 0.12917 0.08664 0.61931 0.0
H229 H 0.06992 0.08895 0.68104 0.0
H230 H 0.12205 0.21334 0.73642 0.0
H231 H 0.18119 0.21035 0.67569 0.0
H232 H 0.37917 0.26737 0.48773 0.0
H233 H 0.32195 0.21721 0.51934 0.0
H234 H 0.38964 0.18609 0.35736 0.0
H235 H 0.33303 0.13627 0.38958 0.0
H236 H 0.1202 0.96303 0.35793 0.0
H237 H 0.07091 0.94108 0.50405 0.0
H238 H 0.1229 0.99712 0.53572 0.0
H239 H 0.17232 0.01847 0.38999 0.0
C240 C 0.16203 0.99404 0.95019 0.0
C241 C 0.12955 0.00719 0.98395 0.0
C242 C 0.09479 0.05377 0.92163 0.0
C243 C 0.09626 0.03742 0.9698 0.0
C244 C 0.12807 0.04125 0.88866 0.0
C245 C 0.16154 0.01195 0.903 0.0
U246 U 0.22043 0.89401 0.01748 0.0
O247 O 0.24825 0.83635 0.9789 0.0
O248 O 0.29287 0.88119 0.02083 0.0
C249 C 0.28856 0.84461 0.99465 0.0
C250 C 0.19548 0.95974 0.9606 0.0
C251 C 0.32628 0.82441 0.96925 0.0
C252 C 0.36876 0.80625 0.89623 0.0
C253 C 0.33579 0.83183 0.91967 0.0
C254 C 0.38232 0.76682 0.9721 0.0
C255 C 0.39182 0.77274 0.92219 0.0
C256 C 0.35021 0.79235 0.99517 0.0
C257 C 0.1457 0.86609 0.13499 0.0
C258 C 0.11348 0.82144 0.19963 0.0
C259 C 0.08747 0.89694 0.18535 0.0
C260 C 0.1176 0.90158 0.14697 0.0
C261 C 0.08496 0.85668 0.21186 0.0
C262 C 0.14369 0.82625 0.16158 0.0
C263 C 0.1781 0.86877 0.09558 0.0
O264 O 0.22188 0.96546 0.99854 0.0
O265 O 0.18277 0.91827 0.95416 0.0
O266 O 0.20877 0.8999 0.09666 0.0
O267 O 0.16742 0.85448 0.05166 0.0
H268 H 0.12938 0.99345 0.02053 0.0
H269 H 0.07074 0.04656 0.99574 0.0
H270 H 0.12791 0.0537 0.8515 0.0
H271 H 0.18647 0.00218 0.87659 0.0
H272 H 0.37553 0.81203 0.85793 0.0
H273 H 0.31718 0.85641 0.89905 0.0
H274 H 0.39924 0.74176 0.99376 0.0
H275 H 0.34297 0.78585 0.03328 0.0
H276 H 0.11255 0.79024 0.21948 0.0
H277 H 0.06565 0.92465 0.19371 0.0
H278 H 0.11884 0.93254 0.12671 0.0
H279 H 0.16556 0.79866 0.15277 0.0
C280 C 0.81329 0.14087 0.64648 0.0
C281 C 0.84114 0.10419 0.65558 0.0
C282 C 0.88369 0.14824 0.71512 0.0
C283 C 0.87583 0.10777 0.68991 0.0
C284 C 0.85536 0.18449 0.70604 0.0
C285 C 0.82052 0.18071 0.67232 0.0
U286 U 0.74826 0.1008 0.52932 0.0
O287 O 0.67612 0.10523 0.51271 0.0
O288 O 0.72427 0.14522 0.47136 0.0
C289 C 0.6829 0.13262 0.47594 0.0
C290 C 0.7774 0.14027 0.60938 0.0
C291 C 0.64809 0.16382 0.45952 0.0
C292 C 0.60438 0.23145 0.4676 0.0
C293 C 0.63445 0.20049 0.48738 0.0
C294 C 0.6013 0.18932 0.39206 0.0
C295 C 0.58764 0.22653 0.41947 0.0
C296 C 0.63113 0.15837 0.41198 0.0
C297 C 0.81879 0.99782 0.47322 0.0
C298 C 0.85168 0.9593 0.40424 0.0
C299 C 0.88375 0.95138 0.48524 0.0
C300 C 0.85091 0.97944 0.50437 0.0
C301 C 0.88528 0.94255 0.43472 0.0
C302 C 0.81847 0.98644 0.4235 0.0
C303 C 0.78954 0.03401 0.48884 0.0
O304 O 0.78872 0.15239 0.56509 0.0
O305 O 0.74886 0.10709 0.6099 0.0
O306 O 0.801 0.07558 0.48134 0.0
O307 O 0.75842 0.02793 0.52175 0.0
H308 H 0.83636 0.07314 0.63597 0.0
H309 H 0.89701 0.07906 0.69605 0.0
H310 H 0.85999 0.21582 0.72513 0.0
H311 H 0.79933 0.20936 0.66591 0.0
H312 H 0.59444 0.25945 0.49013 0.0
H313 H 0.64744 0.20555 0.52394 0.0
H314 H 0.58901 0.18404 0.35525 0.0
H315 H 0.64168 0.13037 0.38973 0.0
H316 H 0.85166 0.95226 0.36536 0.0
H317 H 0.90925 0.93852 0.50946 0.0
H318 H 0.85173 0.98827 0.54277 0.0
H319 H 0.79379 1.0005 0.399 0.0
Sc320 Sc 0.98775 0.78674 0.31092 0.0
Sc321 Sc 0.9873 0.90456 0.32258 0.0
Sc322 Sc 0.99092 0.83812 0.42714 0.0
O323 O 0.98873 0.84292 0.3533 0.0
C324 C 0.92417 0.75961 0.39879 0.0
C325 C 0.92081 0.85294 0.25359 0.0
C326 C 0.92251 0.91733 0.41362 0.0
C327 C 0.05184 0.85162 0.25108 0.0
C328 C 0.05428 0.75762 0.39711 0.0
C329 C 0.05636 0.91928 0.40883 0.0
O330 O 0.93645 0.75564 0.35443 0.0
O331 O 0.93565 0.88801 0.27332 0.0
O332 O 0.9393 0.88598 0.43854 0.0
O333 O 0.0392 0.81265 0.26345 0.0
O334 O 0.04146 0.78907 0.42462 0.0
O335 O 0.04027 0.92898 0.36733 0.0
O336 O 0.0386 0.75167 0.35412 0.0
O337 O 0.03586 0.8871 0.26928 0.0
O338 O 0.04159 0.88793 0.43516 0.0
O339 O 0.93585 0.81403 0.26321 0.0
O340 O 0.94112 0.78765 0.42813 0.0
O341 O 0.93662 0.92827 0.37163 0.0
Sc342 Sc 0.98824 0.21725 0.81077 0.0
Sc343 Sc 0.98888 0.09917 0.81772 0.0
Sc344 Sc 0.99237 0.16307 0.92504 0.0
O345 O 0.98983 0.15999 0.85101 0.0
C346 C 0.05548 0.24418 0.89836 0.0
C347 C 0.05458 0.15428 0.74953 0.0
C348 C 0.05757 0.08161 0.90438 0.0
C349 C 0.92095 0.15219 0.75085 0.0
C350 C 0.92575 0.24386 0.89894 0.0
C351 C 0.92342 0.08467 0.9087 0.0
O352 O 0.03803 0.2517 0.85642 0.0
O353 O 0.03765 0.11796 0.76431 0.0
O354 O 0.04178 0.1113 0.93254 0.0
O355 O 0.93687 0.19054 0.76157 0.0
O356 O 0.94434 0.21544 0.92668 0.0
O357 O 0.93886 0.07415 0.86697 0.0
O358 O 0.93564 0.24781 0.85391 0.0
O359 O 0.93586 0.1164 0.76923 0.0
O360 O 0.93905 0.11629 0.93436 0.0
O361 O 0.04146 0.19255 0.76424 0.0
O362 O 0.04456 0.21101 0.92437 0.0
O363 O 0.04267 0.07441 0.86164 0.0
Sc364 Sc 0.48767 0.28795 0.3129 0.0
Sc365 Sc 0.48795 0.40538 0.32353 0.0
Sc366 Sc 0.49037 0.33947 0.42928 0.0
O367 O 0.48877 0.34405 0.35508 0.0
C368 C 0.42357 0.26105 0.40072 0.0
C369 C 0.42109 0.35371 0.25464 0.0
C370 C 0.42266 0.41968 0.41386 0.0
C371 C 0.55208 0.35199 0.2523 0.0
C372 C 0.55452 0.25899 0.39967 0.0
C373 C 0.55639 0.42009 0.41037 0.0
O374 O 0.43652 0.25695 0.35661 0.0
O375 O 0.43643 0.38886 0.2738 0.0
O376 O 0.43867 0.38831 0.43955 0.0
O377 O 0.53896 0.31323 0.26476 0.0
O378 O 0.54123 0.28943 0.42844 0.0
O379 O 0.54064 0.4295 0.36863 0.0
O380 O 0.53884 0.25417 0.35645 0.0
O381 O 0.53666 0.38762 0.27064 0.0
O382 O 0.5413 0.38908 0.43702 0.0
O383 O 0.4356 0.31476 0.26504 0.0
O384 O 0.44005 0.28929 0.43021 0.0
O385 O 0.4374 0.42972 0.37189 0.0
Sc386 Sc 0.48865 0.7165 0.81164 0.0
Sc387 Sc 0.49068 0.59849 0.81968 0.0
Sc388 Sc 0.49282 0.66301 0.92632 0.0
O389 O 0.49073 0.65953 0.85235 0.0
C390 C 0.55565 0.74411 0.89897 0.0
C391 C 0.5554 0.6539 0.75062 0.0
C392 C 0.55891 0.58199 0.90631 0.0
C393 C 0.42248 0.65008 0.75279 0.0
C394 C 0.42594 0.74345 0.89948 0.0
C395 C 0.42456 0.58409 0.91016 0.0
O396 O 0.53811 0.75145 0.85706 0.0
O397 O 0.53903 0.6175 0.76589 0.0
O398 O 0.54237 0.61129 0.93447 0.0
O399 O 0.43771 0.68885 0.76274 0.0
O400 O 0.44467 0.71537 0.92753 0.0
O401 O 0.44083 0.5731 0.86896 0.0
O402 O 0.43579 0.747 0.85441 0.0
O403 O 0.4378 0.61481 0.77168 0.0
O404 O 0.43944 0.61627 0.93553 0.0
O405 O 0.54198 0.69211 0.76515 0.0
O406 O 0.54492 0.71101 0.92521 0.0
O407 O 0.5446 0.57479 0.86341 0.0
loop_
_geom_bond_atom_site_label_1
_geom_bond_atom_site_label_2
_geom_bond_distance
_geom_bond_site_symmetry_2
_ccdc_geom_bond_type
C0 C1 1.264 . S
C0 C5 1.479 . S
C0 C10 1.465 . S
C1 C0 1.264 . S
C1 C3 1.339 . S
C1 H28 0.931 . S
C2 C3 1.395 . S
C2 C4 1.320 . S
C3 C1 1.339 . S
C3 C2 1.395 . S
C3 H29 0.929 . S
C4 C2 1.320 . S
C4 C5 1.405 . S
C4 H30 0.930 . S
C5 C0 1.479 . S
C5 C4 1.405 . S
C5 H31 0.931 . S
U6 O7 2.454 1_554 S
U6 O8 2.458 . S
U6 C9 2.984 1_554 S
U6 C10 2.847 1_554 S
U6 C23 2.882 . S
U6 O24 2.441 1_554 S
U6 O25 2.420 . S
U6 O26 2.455 . S
U6 O27 2.449 . S
O7 U6 2.454 1_556 S
O7 C9 1.353 . S
O8 U6 2.458 . S
O8 C9 1.286 1_554 S
C9 U6 2.984 1_556 S
C9 O7 1.353 . S
C9 O8 1.286 1_556 S
C9 C11 1.363 . S
C10 C0 1.465 . S
C10 U6 2.847 1_556 S
C10 O24 1.249 . S
C10 O25 1.202 1_556 S
C11 C9 1.363 . S
C11 C13 1.408 . S
C11 C16 1.342 . S
C12 C13 1.310 . S
C12 C15 1.461 . S
C12 H32 0.932 . S
C13 C11 1.408 . S
C13 C12 1.310 . S
C13 H33 0.930 . S
C14 C15 1.474 . S
C14 C16 1.285 . S
C14 H34 0.929 . S
C15 C12 1.461 . S
C15 C14 1.474 . S
C16 C11 1.342 . S
C16 C14 1.285 . S
C16 H35 0.930 1_556 S
C17 C20 1.424 . S
C17 C22 1.245 . S
C17 C23 1.428 . S
C18 C21 1.260 . S
C18 C22 1.477 . S
C18 H36 0.932 . S
C19 C20 1.384 . S
C19 C21 1.479 . S
C19 H37 0.929 . S
C20 C17 1.424 . S
C20 C19 1.384 . S
C20 H38 0.928 . S
C21 C18 1.260 . S
C21 C19 1.479 . S
C22 C17 1.245 . S
C22 C18 1.477 . S
C22 H39 0.932 . S
C23 U6 2.882 . S
C23 C17 1.428 . S
C23 O26 1.301 . S
C23 O27 1.282 . S
O24 U6 2.441 1_556 S
O24 C10 1.249 . S
O25 U6 2.420 . S
O25 C10 1.202 1_554 S
O26 U6 2.455 . S
O26 C23 1.301 . S
O27 U6 2.449 . S
O27 C23 1.282 . S
H28 C1 0.931 . S
H29 C3 0.929 . S
H30 C4 0.930 . S
H31 C5 0.931 . S
H32 C12 0.932 . S
H33 C13 0.930 . S
H34 C14 0.929 . S
H35 C16 0.930 1_554 S
H36 C18 0.932 . S
H37 C19 0.929 . S
H38 C20 0.928 . S
H39 C22 0.932 . S
C40 C41 1.264 . S
C40 C45 1.479 . S
C40 C50 1.465 . S
C41 C40 1.264 . S
C41 C43 1.339 . S
C41 H68 0.931 . S
C42 C43 1.395 . S
C42 C44 1.320 . S
C43 C41 1.339 . S
C43 C42 1.395 . S
C43 H69 0.929 . S
C44 C42 1.320 . S
C44 C45 1.405 . S
C44 H70 0.930 . S
C45 C40 1.479 . S
C45 C44 1.405 . S
C45 H71 0.931 . S
U46 O47 2.454 . S
U46 O48 2.458 . S
U46 C49 2.984 . S
U46 C50 2.847 . S
U46 C63 2.882 . S
U46 O64 2.441 . S
U46 O65 2.420 . S
U46 O66 2.455 . S
U46 O67 2.449 . S
O47 U46 2.454 . S
O47 C49 1.353 . S
O48 U46 2.458 . S
O48 C49 1.286 . S
C49 U46 2.984 . S
C49 O47 1.353 . S
C49 O48 1.286 . S
C49 C51 1.363 . S
C50 C40 1.465 . S
C50 U46 2.847 . S
C50 O64 1.249 . S
C50 O65 1.202 . S
C51 C49 1.363 . S
C51 C53 1.408 . S
C51 C56 1.342 . S
C52 C53 1.310 . S
C52 C55 1.461 . S
C52 H72 0.932 . S
C53 C51 1.408 . S
C53 C52 1.310 . S
C53 H73 0.930 . S
C54 C55 1.474 . S
C54 C56 1.285 . S
C54 H74 0.929 . S
C55 C52 1.461 . S
C55 C54 1.474 . S
C56 C51 1.342 . S
C56 C54 1.285 . S
C56 H75 0.930 . S
C57 C60 1.424 . S
C57 C62 1.245 . S
C57 C63 1.428 . S
C58 C61 1.260 . S
C58 C62 1.477 . S
C58 H76 0.932 . S
C59 C60 1.384 . S
C59 C61 1.479 . S
C59 H77 0.929 . S
C60 C57 1.424 . S
C60 C59 1.384 . S
C60 H78 0.928 . S
C61 C58 1.260 . S
C61 C59 1.479 . S
C62 C57 1.245 . S
C62 C58 1.477 . S
C62 H79 0.932 . S
C63 U46 2.882 . S
C63 C57 1.428 . S
C63 O66 1.301 . S
C63 O67 1.282 . S
O64 U46 2.441 . S
O64 C50 1.249 . S
O65 U46 2.420 . S
O65 C50 1.202 . S
O66 U46 2.455 . S
O66 C63 1.301 . S
O67 U46 2.449 . S
O67 C63 1.282 . S
H68 C41 0.931 . S
H69 C43 0.929 . S
H70 C44 0.930 . S
H71 C45 0.931 . S
H72 C52 0.932 . S
H73 C53 0.930 . S
H74 C54 0.929 . S
H75 C56 0.930 . S
H76 C58 0.932 . S
H77 C59 0.929 . S
H78 C60 0.928 . S
H79 C62 0.932 . S
C80 C81 1.264 . S
C80 C85 1.479 . S
C80 C90 1.465 . S
C81 C80 1.264 . S
C81 C83 1.339 . S
C81 H108 0.931 . S
C82 C83 1.395 . S
C82 C84 1.320 . S
C83 C81 1.339 . S
C83 C82 1.395 . S
C83 H109 0.929 . S
C84 C82 1.320 . S
C84 C85 1.405 . S
C84 H110 0.930 . S
C85 C80 1.479 . S
C85 C84 1.405 . S
C85 H111 0.931 . S
U86 O87 2.454 . S
U86 O88 2.458 1_556 S
U86 C89 2.984 . S
U86 C90 2.847 . S
U86 C103 2.882 1_556 S
U86 O104 2.441 . S
U86 O105 2.420 . S
U86 O106 2.455 1_556 S
U86 O107 2.449 1_556 S
O87 U86 2.454 . S
O87 C89 1.353 . S
O88 U86 2.458 1_554 S
O88 C89 1.286 1_554 S
C89 U86 2.984 . S
C89 O87 1.353 . S
C89 O88 1.286 1_556 S
C89 C91 1.363 . S
C90 C80 1.465 . S
C90 U86 2.847 . S
C90 O104 1.249 . S
C90 O105 1.202 . S
C91 C89 1.363 . S
C91 C93 1.408 . S
C91 C96 1.342 . S
C92 C93 1.310 . S
C92 C95 1.461 . S
C92 H112 0.932 . S
C93 C91 1.408 . S
C93 C92 1.310 . S
C93 H113 0.930 . S
C94 C95 1.474 . S
C94 C96 1.285 . S
C94 H114 0.929 . S
C95 C92 1.461 . S
C95 C94 1.474 . S
C96 C91 1.342 . S
C96 C94 1.285 . S
C96 H115 0.930 1_556 S
C97 C100 1.424 . S
C97 C102 1.245 . S
C97 C103 1.428 . S
C98 C101 1.260 . S
C98 C102 1.477 . S
C98 H116 0.932 . S
C99 C100 1.384 . S
C99 C101 1.479 . S
C99 H117 0.929 . S
C100 C97 1.424 . S
C100 C99 1.384 . S
C100 H118 0.928 . S
C101 C98 1.260 . S
C101 C99 1.479 . S
C102 C97 1.245 . S
C102 C98 1.477 . S
C102 H119 0.932 . S
C103 U86 2.882 1_554 S
C103 C97 1.428 . S
C103 O106 1.301 . S
C103 O107 1.282 . S
O104 U86 2.441 . S
O104 C90 1.249 . S
O105 U86 2.420 . S
O105 C90 1.202 . S
O106 U86 2.455 1_554 S
O106 C103 1.301 . S
O107 U86 2.449 1_554 S
O107 C103 1.282 . S
H108 C81 0.931 . S
H109 C83 0.929 . S
H110 C84 0.930 . S
H111 C85 0.931 . S
H112 C92 0.932 . S
H113 C93 0.930 . S
H114 C94 0.929 . S
H115 C96 0.930 1_554 S
H116 C98 0.932 . S
H117 C99 0.929 . S
H118 C100 0.928 . S
H119 C102 0.932 . S
C120 C121 1.264 . S
C120 C125 1.479 . S
C120 C130 1.465 . S
C121 C120 1.264 . S
C121 C123 1.339 . S
C121 H148 0.931 . S
C122 C123 1.395 . S
C122 C124 1.320 . S
C123 C121 1.339 . S
C123 C122 1.395 . S
C123 H149 0.929 . S
C124 C122 1.320 . S
C124 C125 1.405 . S
C124 H150 0.930 . S
C125 C120 1.479 . S
C125 C124 1.405 . S
C125 H151 0.931 . S
U126 O127 2.454 . S
U126 O128 2.458 . S
U126 C129 2.984 . S
U126 C130 2.847 . S
U126 C143 2.882 . S
U126 O144 2.441 . S
U126 O145 2.420 . S
U126 O146 2.455 . S
U126 O147 2.449 . S
O127 U126 2.454 . S
O127 C129 1.353 . S
O128 U126 2.458 . S
O128 C129 1.286 . S
C129 U126 2.984 . S
C129 O127 1.353 . S
C129 O128 1.286 . S
C129 C131 1.363 . S
C130 C120 1.465 . S
C130 U126 2.847 . S
C130 O144 1.249 . S
C130 O145 1.202 . S
C131 C129 1.363 . S
C131 C133 1.408 . S
C131 C136 1.342 . S
C132 C133 1.310 . S
C132 C135 1.461 . S
C132 H152 0.932 . S
C133 C131 1.408 . S
C133 C132 1.310 . S
C133 H153 0.930 . S
C134 C135 1.474 . S
C134 C136 1.285 . S
C134 H154 0.929 . S
C135 C132 1.461 . S
C135 C134 1.474 . S
C136 C131 1.342 . S
C136 C134 1.285 . S
C136 H155 0.930 . S
C137 C140 1.424 . S
C137 C142 1.245 . S
C137 C143 1.428 . S
C138 C141 1.260 . S
C138 C142 1.477 . S
C138 H156 0.932 . S
C139 C140 1.384 . S
C139 C141 1.479 . S
C139 H157 0.929 . S
C140 C137 1.424 . S
C140 C139 1.384 . S
C140 H158 0.928 . S
C141 C138 1.260 . S
C141 C139 1.479 . S
C142 C137 1.245 . S
C142 C138 1.477 . S
C142 H159 0.932 . S
C143 U126 2.882 . S
C143 C137 1.428 . S
C143 O146 1.301 . S
C143 O147 1.282 . S
O144 U126 2.441 . S
O144 C130 1.249 . S
O145 U126 2.420 . S
O145 C130 1.202 . S
O146 U126 2.455 . S
O146 C143 1.301 . S
O147 U126 2.449 . S
O147 C143 1.282 . S
H148 C121 0.931 . S
H149 C123 0.929 . S
H150 C124 0.930 . S
H151 C125 0.931 . S
H152 C132 0.932 . S
H153 C133 0.930 . S
H154 C134 0.929 . S
H155 C136 0.930 . S
H156 C138 0.932 . S
H157 C139 0.929 . S
H158 C140 0.928 . S
H159 C142 0.932 . S
C160 C161 1.264 . S
C160 C165 1.479 . S
C160 C170 1.465 1_545 S
C161 C160 1.264 . S
C161 C163 1.339 . S
C161 H188 0.931 . S
C162 C163 1.395 . S
C162 C164 1.320 . S
C163 C161 1.339 . S
C163 C162 1.395 . S
C163 H189 0.929 . S
C164 C162 1.320 . S
C164 C165 1.405 . S
C164 H190 0.930 . S
C165 C160 1.479 . S
C165 C164 1.405 . S
C165 H191 0.931 . S
U166 O167 2.454 1_554 S
U166 O168 2.458 . S
U166 C169 2.984 1_554 S
U166 C170 2.847 1_554 S
U166 C183 2.882 . S
U166 O184 2.441 1_554 S
U166 O185 2.420 . S
U166 O186 2.455 . S
U166 O187 2.449 . S
O167 U166 2.454 1_556 S
O167 C169 1.353 . S
O168 U166 2.458 . S
O168 C169 1.286 1_554 S
C169 U166 2.984 1_556 S
C169 O167 1.353 . S
C169 O168 1.286 1_556 S
C169 C171 1.363 . S
C170 C160 1.465 1_565 S
C170 U166 2.847 1_556 S
C170 O184 1.249 . S
C170 O185 1.202 1_556 S
C171 C169 1.363 . S
C171 C173 1.408 . S
C171 C176 1.342 . S
C172 C173 1.310 . S
C172 C175 1.461 . S
C172 H192 0.932 . S
C173 C171 1.408 . S
C173 C172 1.310 . S
C173 H193 0.930 . S
C174 C175 1.474 . S
C174 C176 1.285 . S
C174 H194 0.929 . S
C175 C172 1.461 . S
C175 C174 1.474 . S
C176 C171 1.342 . S
C176 C174 1.285 . S
C176 H195 0.930 1_556 S
C177 C180 1.424 . S
C177 C182 1.245 . S
C177 C183 1.428 . S
C178 C181 1.260 . S
C178 C182 1.477 . S
C178 H196 0.932 . S
C179 C180 1.384 . S
C179 C181 1.479 . S
C179 H197 0.929 . S
C180 C177 1.424 . S
C180 C179 1.384 . S
C180 H198 0.928 . S
C181 C178 1.260 . S
C181 C179 1.479 . S
C182 C177 1.245 . S
C182 C178 1.477 . S
C182 H199 0.932 . S
C183 U166 2.882 . S
C183 C177 1.428 . S
C183 O186 1.301 . S
C183 O187 1.282 . S
O184 U166 2.441 1_556 S
O184 C170 1.249 . S
O185 U166 2.420 . S
O185 C170 1.202 1_554 S
O186 U166 2.455 . S
O186 C183 1.301 . S
O187 U166 2.449 . S
O187 C183 1.282 . S
H188 C161 0.931 . S
H189 C163 0.929 . S
H190 C164 0.930 . S
H191 C165 0.931 . S
H192 C172 0.932 . S
H193 C173 0.930 . S
H194 C174 0.929 . S
H195 C176 0.930 1_554 S
H196 C178 0.932 . S
H197 C179 0.929 . S
H198 C180 0.928 . S
H199 C182 0.932 . S
C200 C201 1.264 . S
C200 C205 1.479 . S
C200 C210 1.465 . S
C201 C200 1.264 . S
C201 C203 1.339 . S
C201 H228 0.931 . S
C202 C203 1.395 . S
C202 C204 1.320 . S
C203 C201 1.339 . S
C203 C202 1.395 . S
C203 H229 0.929 . S
C204 C202 1.320 . S
C204 C205 1.405 . S
C204 H230 0.930 . S
C205 C200 1.479 . S
C205 C204 1.405 . S
C205 H231 0.931 . S
U206 O207 2.454 . S
U206 O208 2.458 . S
U206 C209 2.984 . S
U206 C210 2.847 . S
U206 C223 2.882 . S
U206 O224 2.441 . S
U206 O225 2.420 . S
U206 O226 2.455 . S
U206 O227 2.449 . S
O207 U206 2.454 . S
O207 C209 1.353 . S
O208 U206 2.458 . S
O208 C209 1.286 . S
C209 U206 2.984 . S
C209 O207 1.353 . S
C209 O208 1.286 . S
C209 C211 1.363 . S
C210 C200 1.465 . S
C210 U206 2.847 . S
C210 O224 1.249 . S
C210 O225 1.202 . S
C211 C209 1.363 . S
C211 C213 1.408 . S
C211 C216 1.342 . S
C212 C213 1.310 . S
C212 C215 1.461 . S
C212 H232 0.932 . S
C213 C211 1.408 . S
C213 C212 1.310 . S
C213 H233 0.930 . S
C214 C215 1.474 . S
C214 C216 1.285 . S
C214 H234 0.929 . S
C215 C212 1.461 . S
C215 C214 1.474 . S
C216 C211 1.342 . S
C216 C214 1.285 . S
C216 H235 0.930 . S
C217 C220 1.424 1_545 S
C217 C222 1.245 1_545 S
C217 C223 1.428 . S
C218 C221 1.260 . S
C218 C222 1.477 . S
C218 H236 0.932 . S
C219 C220 1.384 . S
C219 C221 1.479 . S
C219 H237 0.929 . S
C220 C217 1.424 1_565 S
C220 C219 1.384 . S
C220 H238 0.928 . S
C221 C218 1.260 . S
C221 C219 1.479 . S
C222 C217 1.245 1_565 S
C222 C218 1.477 . S
C222 H239 0.932 1_565 S
C223 U206 2.882 . S
C223 C217 1.428 . S
C223 O226 1.301 . S
C223 O227 1.282 . S
O224 U206 2.441 . S
O224 C210 1.249 . S
O225 U206 2.420 . S
O225 C210 1.202 . S
O226 U206 2.455 . S
O226 C223 1.301 . S
O227 U206 2.449 . S
O227 C223 1.282 . S
H228 C201 0.931 . S
H229 C203 0.929 . S
H230 C204 0.930 . S
H231 C205 0.931 . S
H232 C212 0.932 . S
H233 C213 0.930 . S
H234 C214 0.929 . S
H235 C216 0.930 . S
H236 C218 0.932 . S
H237 C219 0.929 . S
H238 C220 0.928 . S
H239 C222 0.932 1_545 S
C240 C241 1.264 . S
C240 C245 1.479 . S
C240 C250 1.465 1_545 S
C241 C240 1.264 . S
C241 C243 1.339 . S
C241 H268 0.931 . S
C242 C243 1.395 . S
C242 C244 1.320 . S
C243 C241 1.339 . S
C243 C242 1.395 . S
C243 H269 0.929 . S
C244 C242 1.320 . S
C244 C245 1.405 . S
C244 H270 0.930 . S
C245 C240 1.479 . S
C245 C244 1.405 . S
C245 H271 0.931 . S
U246 O247 2.454 . S
U246 O248 2.458 1_556 S
U246 C249 2.984 . S
U246 C250 2.847 . S
U246 C263 2.882 1_556 S
U246 O264 2.441 . S
U246 O265 2.420 . S
U246 O266 2.455 1_556 S
U246 O267 2.449 1_556 S
O247 U246 2.454 . S
O247 C249 1.353 . S
O248 U246 2.458 1_554 S
O248 C249 1.286 1_554 S
C249 U246 2.984 . S
C249 O247 1.353 . S
C249 O248 1.286 1_556 S
C249 C251 1.363 . S
C250 C240 1.465 1_565 S
C250 U246 2.847 . S
C250 O264 1.249 . S
C250 O265 1.202 . S
C251 C249 1.363 . S
C251 C253 1.408 . S
C251 C256 1.342 . S
C252 C253 1.310 . S
C252 C255 1.461 . S
C252 H272 0.932 . S
C253 C251 1.408 . S
C253 C252 1.310 . S
C253 H273 0.930 . S
C254 C255 1.474 . S
C254 C256 1.285 . S
C254 H274 0.929 . S
C255 C252 1.461 . S
C255 C254 1.474 . S
C256 C251 1.342 . S
C256 C254 1.285 . S
C256 H275 0.930 1_556 S
C257 C260 1.424 . S
C257 C262 1.245 . S
C257 C263 1.428 . S
C258 C261 1.260 . S
C258 C262 1.477 . S
C258 H276 0.932 . S
C259 C260 1.384 . S
C259 C261 1.479 . S
C259 H277 0.929 . S
C260 C257 1.424 . S
C260 C259 1.384 . S
C260 H278 0.928 . S
C261 C258 1.260 . S
C261 C259 1.479 . S
C262 C257 1.245 . S
C262 C258 1.477 . S
C262 H279 0.932 . S
C263 U246 2.882 1_554 S
C263 C257 1.428 . S
C263 O266 1.301 . S
C263 O267 1.282 . S
O264 U246 2.441 . S
O264 C250 1.249 . S
O265 U246 2.420 . S
O265 C250 1.202 . S
O266 U246 2.455 1_554 S
O266 C263 1.301 . S
O267 U246 2.449 1_554 S
O267 C263 1.282 . S
H268 C241 0.931 . S
H269 C243 0.929 . S
H270 C244 0.930 . S
H271 C245 0.931 . S
H272 C252 0.932 . S
H273 C253 0.930 . S
H274 C254 0.929 . S
H275 C256 0.930 1_554 S
H276 C258 0.932 . S
H277 C259 0.929 . S
H278 C260 0.928 . S
H279 C262 0.932 . S
C280 C281 1.264 . S
C280 C285 1.479 . S
C280 C290 1.465 . S
C281 C280 1.264 . S
C281 C283 1.339 . S
C281 H308 0.931 . S
C282 C283 1.395 . S
C282 C284 1.320 . S
C283 C281 1.339 . S
C283 C282 1.395 . S
C283 H309 0.929 . S
C284 C282 1.320 . S
C284 C285 1.405 . S
C284 H310 0.930 . S
C285 C280 1.479 . S
C285 C284 1.405 . S
C285 H311 0.931 . S
U286 O287 2.454 . S
U286 O288 2.458 . S
U286 C289 2.984 . S
U286 C290 2.847 . S
U286 C303 2.882 . S
U286 O304 2.441 . S
U286 O305 2.420 . S
U286 O306 2.455 . S
U286 O307 2.449 . S
O287 U286 2.454 . S
O287 C289 1.353 . S
O288 U286 2.458 . S
O288 C289 1.286 . S
C289 U286 2.984 . S
C289 O287 1.353 . S
C289 O288 1.286 . S
C289 C291 1.363 . S
C290 C280 1.465 . S
C290 U286 2.847 . S
C290 O304 1.249 . S
C290 O305 1.202 . S
C291 C289 1.363 . S
C291 C293 1.408 . S
C291 C296 1.342 . S
C292 C293 1.310 . S
C292 C295 1.461 . S
C292 H312 0.932 . S
C293 C291 1.408 . S
C293 C292 1.310 . S
C293 H313 0.930 . S
C294 C295 1.474 . S
C294 C296 1.285 . S
C294 H314 0.929 . S
C295 C292 1.461 . S
C295 C294 1.474 . S
C296 C291 1.342 . S
C296 C294 1.285 . S
C296 H315 0.930 . S
C297 C300 1.424 . S
C297 C302 1.245 . S
C297 C303 1.428 1_565 S
C298 C301 1.260 . S
C298 C302 1.477 . S
C298 H316 0.932 . S
C299 C300 1.384 . S
C299 C301 1.479 . S
C299 H317 0.929 . S
C300 C297 1.424 . S
C300 C299 1.384 . S
C300 H318 0.928 . S
C301 C298 1.260 . S
C301 C299 1.479 . S
C302 C297 1.245 . S
C302 C298 1.477 . S
C302 H319 0.932 . S
C303 U286 2.882 . S
C303 C297 1.428 1_545 S
C303 O306 1.301 . S
C303 O307 1.282 . S
O304 U286 2.441 . S
O304 C290 1.249 . S
O305 U286 2.420 . S
O305 C290 1.202 . S
O306 U286 2.455 . S
O306 C303 1.301 . S
O307 U286 2.449 . S
O307 C303 1.282 . S
H308 C281 0.931 . S
H309 C283 0.929 . S
H310 C284 0.930 . S
H311 C285 0.931 . S
H312 C292 0.932 . S
H313 C293 0.930 . S
H314 C294 0.929 . S
H315 C296 0.930 . S
H316 C298 0.932 . S
H317 C299 0.929 . S
H318 C300 0.928 . S
H319 C302 0.932 . S
Sc320 O323 2.025 . S
Sc320 O330 2.105 1_455 S
Sc320 O333 2.105 . S
Sc320 O336 2.105 . S
Sc320 O339 2.105 1_455 S
Sc321 O323 2.025 . S
Sc321 O331 2.105 1_455 S
Sc321 O335 2.105 . S
Sc321 O337 2.105 . S
Sc321 O341 2.105 1_455 S
Sc322 O323 2.025 . S
Sc322 O332 2.105 1_455 S
Sc322 O334 2.105 . S
Sc322 O338 2.105 . S
Sc322 O340 2.105 1_455 S
O323 Sc320 2.025 . S
O323 Sc321 2.025 . S
O323 Sc322 2.025 . S
C324 O330 1.268 . S
C324 O340 1.268 . S
C325 O331 1.268 . S
C325 O339 1.268 . S
C326 O332 1.268 . S
C326 O341 1.268 . S
C327 O333 1.268 . S
C327 O337 1.268 . S
C328 O334 1.268 . S
C328 O336 1.268 . S
C329 O335 1.268 . S
C329 O338 1.268 . S
O330 Sc320 2.105 1_655 S
O330 C324 1.268 . S
O331 Sc321 2.105 1_655 S
O331 C325 1.268 . S
O332 Sc322 2.105 1_655 S
O332 C326 1.268 . S
O333 Sc320 2.105 . S
O333 C327 1.268 . S
O334 Sc322 2.105 . S
O334 C328 1.268 . S
O335 Sc321 2.105 . S
O335 C329 1.268 . S
O336 Sc320 2.105 . S
O336 C328 1.268 . S
O337 Sc321 2.105 . S
O337 C327 1.268 . S
O338 Sc322 2.105 . S
O338 C329 1.268 . S
O339 Sc320 2.105 1_655 S
O339 C325 1.268 . S
O340 Sc322 2.105 1_655 S
O340 C324 1.268 . S
O341 Sc321 2.105 1_655 S
O341 C326 1.268 . S
Sc342 O345 2.025 . S
Sc342 O352 2.105 . S
Sc342 O355 2.105 1_455 S
Sc342 O358 2.105 1_455 S
Sc342 O361 2.105 . S
Sc343 O345 2.025 . S
Sc343 O353 2.105 . S
Sc343 O357 2.105 1_455 S
Sc343 O359 2.105 1_455 S
Sc343 O363 2.105 . S
Sc344 O345 2.025 . S
Sc344 O354 2.105 . S
Sc344 O356 2.105 1_455 S
Sc344 O360 2.105 1_455 S
Sc344 O362 2.105 . S
O345 Sc342 2.025 . S
O345 Sc343 2.025 . S
O345 Sc344 2.025 . S
C346 O352 1.268 . S
C346 O362 1.268 . S
C347 O353 1.268 . S
C347 O361 1.268 . S
C348 O354 1.268 . S
C348 O363 1.268 . S
C349 O355 1.268 . S
C349 O359 1.268 . S
C350 O356 1.268 . S
C350 O358 1.268 . S
C351 O357 1.268 . S
C351 O360 1.268 . S
O352 Sc342 2.105 . S
O352 C346 1.268 . S
O353 Sc343 2.105 . S
O353 C347 1.268 . S
O354 Sc344 2.105 . S
O354 C348 1.268 . S
O355 Sc342 2.105 1_655 S
O355 C349 1.268 . S
O356 Sc344 2.105 1_655 S
O356 C350 1.268 . S
O357 Sc343 2.105 1_655 S
O357 C351 1.268 . S
O358 Sc342 2.105 1_655 S
O358 C350 1.268 . S
O359 Sc343 2.105 1_655 S
O359 C349 1.268 . S
O360 Sc344 2.105 1_655 S
O360 C351 1.268 . S
O361 Sc342 2.105 . S
O361 C347 1.268 . S
O362 Sc344 2.105 . S
O362 C346 1.268 . S
O363 Sc343 2.105 . S
O363 C348 1.268 . S
Sc364 O367 2.025 . S
Sc364 O374 2.105 . S
Sc364 O377 2.105 . S
Sc364 O380 2.105 . S
Sc364 O383 2.105 . S
Sc365 O367 2.025 . S
Sc365 O375 2.105 . S
Sc365 O379 2.105 . S
Sc365 O381 2.105 . S
Sc365 O385 2.105 . S
Sc366 O367 2.025 . S
Sc366 O376 2.105 . S
Sc366 O378 2.105 . S
Sc366 O382 2.105 . S
Sc366 O384 2.105 . S
O367 Sc364 2.025 . S
O367 Sc365 2.025 . S
O367 Sc366 2.025 . S
C368 O374 1.268 . S
C368 O384 1.268 . S
C369 O375 1.268 . S
C369 O383 1.268 . S
C370 O376 1.268 . S
C370 O385 1.268 . S
C371 O377 1.268 . S
C371 O381 1.268 . S
C372 O378 1.268 . S
C372 O380 1.268 . S
C373 O379 1.268 . S
C373 O382 1.268 . S
O374 Sc364 2.105 . S
O374 C368 1.268 . S
O375 Sc365 2.105 . S
O375 C369 1.268 . S
O376 Sc366 2.105 . S
O376 C370 1.268 . S
O377 Sc364 2.105 . S
O377 C371 1.268 . S
O378 Sc366 2.105 . S
O378 C372 1.268 . S
O379 Sc365 2.105 . S
O379 C373 1.268 . S
O380 Sc364 2.105 . S
O380 C372 1.268 . S
O381 Sc365 2.105 . S
O381 C371 1.268 . S
O382 Sc366 2.105 . S
O382 C373 1.268 . S
O383 Sc364 2.105 . S
O383 C369 1.268 . S
O384 Sc366 2.105 . S
O384 C368 1.268 . S
O385 Sc365 2.105 . S
O385 C370 1.268 . S
Sc386 O389 2.025 . S
Sc386 O396 2.105 . S
Sc386 O399 2.105 . S
Sc386 O402 2.105 . S
Sc386 O405 2.105 . S
Sc387 O389 2.025 . S
Sc387 O397 2.105 . S
Sc387 O401 2.105 . S
Sc387 O403 2.105 . S
Sc387 O407 2.105 . S
Sc388 O389 2.025 . S
Sc388 O398 2.105 . S
Sc388 O400 2.105 . S
Sc388 O404 2.105 . S
Sc388 O406 2.105 . S
O389 Sc386 2.025 . S
O389 Sc387 2.025 . S
O389 Sc388 2.025 . S
C390 O396 1.268 . S
C390 O406 1.268 . S
C391 O397 1.268 . S
C391 O405 1.268 . S
C392 O398 1.268 . S
C392 O407 1.268 . S
C393 O399 1.268 . S
C393 O403 1.268 . S
C394 O400 1.268 . S
C394 O402 1.268 . S
C395 O401 1.268 . S
C395 O404 1.268 . S
O396 Sc386 2.105 . S
O396 C390 1.268 . S
O397 Sc387 2.105 . S
O397 C391 1.268 . S
O398 Sc388 2.105 . S
O398 C392 1.268 . S
O399 Sc386 2.105 . S
O399 C393 1.268 . S
O400 Sc388 2.105 . S
O400 C394 1.268 . S
O401 Sc387 2.105 . S
O401 C395 1.268 . S
O402 Sc386 2.105 . S
O402 C394 1.268 . S
O403 Sc387 2.105 . S
O403 C393 1.268 . S
O404 Sc388 2.105 . S
O404 C395 1.268 . S
O405 Sc386 2.105 . S
O405 C391 1.268 . S
O406 Sc388 2.105 . S
O406 C390 1.268 . S
O407 Sc387 2.105 . S
O407 C392 1.268 . S
C15 C346 1.820 . S
C324 C55 1.839 . S
C350 C95 1.801 . S
C328 C135 1.857 . S
C390 C175 1.820 . S
C368 C215 1.838 . S
C255 C394 1.801 . S
C372 C295 1.857 . S
C2 C395 2.348 . S
C373 C61 2.192 . S
C82 C392 2.157 . S
C141 C370 2.397 . S
C351 C162 2.351 . S
C221 C329 2.190 . S
C348 C242 2.155 . S
C326 C301 2.399 . S
C369 C21 2.408 . S
C391 C42 2.168 . S
C101 C371 2.146 . S
C393 C122 2.404 . S
C325 C181 2.411 . S
C202 C347 2.166 . S
C261 C327 2.144 . S
C282 C349 2.407 . S
