# Generated by pormake.
# Topology anh, (6,3)-cn, num edge types: 1
# Building blocks:
#     Node 0, Type 0, BuildingBlock: NUHQIS_clean_sbu_0, # of connection points: 6
#     Node 1, Type 0, BuildingBlock: NUHQIS_clean_sbu_0, # of connection points: 6
#     Node 2, Type 0, BuildingBlock: NUHQIS_clean_sbu_0, # of connection points: 6
#     Node 3, Type 1, BuildingBlock: OLANEW_clean_sbu_2, # of connection points: 3
#     Node 4, Type 1, BuildingBlock: OLANEW_clean_sbu_2, # of connection points: 3
#     Node 5, Type 1, BuildingBlock: OLANEW_clean_sbu_2, # of connection points: 3
#     Node 6, Type 1, BuildingBlock: OLANEW_clean_sbu_2, # of connection points: 3
#     Node 7, Type 1, BuildingBlock: OLANEW_clean_sbu_2, # of connection points: 3
#     Node 8, Type 1, BuildingBlock: OLANEW_clean_sbu_2, # of connection points: 3
#     Edge 9, Type (0, 1), BuildingBlock: KIFKEQ_clean_linker_1, # of connection points: 2
#     Edge 10, Type (0, 1), BuildingBlock: KIFKEQ_clean_linker_1, # of connection points: 2
#     Edge 11, Type (0, 1), BuildingBlock: KIFKEQ_clean_linker_1, # of connection points: 2
#     Edge 12, Type (0, 1), BuildingBlock: KIFKEQ_clean_linker_1, # of connection points: 2
#     Edge 13, Type (0, 1), BuildingBlock: KIFKEQ_clean_linker_1, # of connection points: 2
#     Edge 14, Type (0, 1), BuildingBlock: KIFKEQ_clean_linker_1, # of connection points: 2
#     Edge 15, Type (0, 1), BuildingBlock: KIFKEQ_clean_linker_1, # of connection points: 2
#     Edge 16, Type (0, 1), BuildingBlock: KIFKEQ_clean_linker_1, # of connection points: 2
#     Edge 17, Type (0, 1), BuildingBlock: KIFKEQ_clean_linker_1, # of connection points: 2
#     Edge 18, Type (0, 1), BuildingBlock: KIFKEQ_clean_linker_1, # of connection points: 2
#     Edge 19, Type (0, 1), BuildingBlock: KIFKEQ_clean_linker_1, # of connection points: 2
#     Edge 20, Type (0, 1), BuildingBlock: KIFKEQ_clean_linker_1, # of connection points: 2
#     Edge 21, Type (0, 1), BuildingBlock: KIFKEQ_clean_linker_1, # of connection points: 2
#     Edge 22, Type (0, 1), BuildingBlock: KIFKEQ_clean_linker_1, # of connection points: 2
#     Edge 23, Type (0, 1), BuildingBlock: KIFKEQ_clean_linker_1, # of connection points: 2
#     Edge 24, Type (0, 1), BuildingBlock: KIFKEQ_clean_linker_1, # of connection points: 2
#     Edge 25, Type (0, 1), BuildingBlock: KIFKEQ_clean_linker_1, # of connection points: 2
#     Edge 26, Type (0, 1), BuildingBlock: KIFKEQ_clean_linker_1, # of connection points: 2
# Relax obj value: 0.218
# Max RMSD: 0.130
# Mean RMSD: 0.111
data_MOF--net-anh--node1-NUHQIS_clean_sbu_0--node2-OLANEW_clean_sbu_2--edge1-KIFKEQ_clean_linker_1
_symmetry_space_group_name_H-M    P1
_symmetry_Int_Tables_number       1
_symmetry_cell_setting            triclinic
loop_
_symmetry_equiv_pos_as_xyz
'x, y, z'
_cell_length_a     37.131669
_cell_length_b     36.902366
_cell_length_c     51.314268
_cell_angle_alpha  89.613036
_cell_angle_beta   93.390056
_cell_angle_gamma 120.03074
loop_
_atom_site_label
_atom_site_type_symbol
_atom_site_fract_x
_atom_site_fract_y
_atom_site_fract_z
_atom_type_partial_charge
Tb0 Tb 0.07938 0.53834 0.16576 0.0
Eu1 Eu 0.0341 0.59458 0.15868 0.0
C2 C 0.05193 0.56731 0.21414 0.0
C3 C 0.9795 0.49287 0.16417 0.0
C4 C 0.15486 0.50342 0.18582 0.0
C5 C 0.19103 0.47783 0.21461 0.0
C6 C 0.15394 0.47381 0.20343 0.0
C7 C 0.19324 0.53839 0.18061 0.0
C8 C 0.23029 0.54216 0.19149 0.0
C9 C 0.22973 0.5113 0.20805 0.0
C10 C 0.11572 0.49654 0.17248 0.0
O11 O 0.05604 0.53081 0.12485 0.0
O12 O 0.06021 0.5942 0.1203 0.0
O13 O 0.10081 0.64047 0.1725 0.0
O14 O 0.13199 0.60226 0.16305 0.0
C15 C 0.05873 0.56109 0.10997 0.0
O16 O 0.99069 0.60951 0.13744 0.0
O17 O 1.02798 0.64726 0.17139 0.0
O18 O 1.02371 0.56981 0.19902 0.0
O19 O 0.08251 0.5649 0.20426 0.0
O20 O 1.01403 0.49171 0.16934 0.0
O21 O 0.97988 0.52762 0.15751 0.0
C22 C 0.13445 0.63783 0.16991 0.0
O23 O 0.08775 0.49444 0.18754 0.0
O24 O 0.1187 0.51845 0.15179 0.0
C25 C 0.95827 0.63107 0.1664 0.0
C26 C 0.88042 0.60874 0.18527 0.0
C27 C 0.89354 0.63216 0.16247 0.0
C28 C 0.93221 0.64324 0.15312 0.0
C29 C 0.94597 0.60896 0.18962 0.0
C30 C 0.90749 0.59811 0.19906 0.0
C31 C 0.99623 0.63776 0.15487 0.0
H32 H 0.1894 0.45389 0.22762 0.0
H33 H 0.12454 0.4469 0.20799 0.0
H34 H 0.19483 0.56206 0.16736 0.0
H35 H 0.25936 0.56808 0.18561 0.0
H36 H 0.87314 0.64022 0.15111 0.0
H37 H 0.94108 0.65991 0.13504 0.0
H38 H 0.96557 0.59895 0.20006 0.0
H39 H 0.89851 0.58046 0.21679 0.0
Tb40 Tb 0.57663 0.04855 0.49761 0.0
Eu41 Eu 0.47606 0.99703 0.48756 0.0
C42 C 0.51921 1.01643 0.54408 0.0
C43 C 0.52919 0.94915 0.49711 0.0
C44 C 0.68153 0.13708 0.51209 0.0
C45 C 0.73999 0.20492 0.50294 0.0
C46 C 0.71826 0.16148 0.49944 0.0
C47 C 0.66787 0.15644 0.52938 0.0
C48 C 0.68997 0.19993 0.53316 0.0
C49 C 0.72544 0.22445 0.51934 0.0
C50 C 0.65472 0.09295 0.50403 0.0
O51 O 0.56079 0.0254 0.45685 0.0
O52 O 0.50317 0.03147 0.45123 0.0
O53 O 0.49098 0.06221 0.49983 0.0
O54 O 0.5609 0.09815 0.49285 0.0
C55 C 0.53449 0.03085 0.4414 0.0
O56 O 0.42138 0.95405 0.46276 0.0
O57 O 0.41394 0.97962 0.49878 0.0
O58 O 0.49112 0.98628 0.52864 0.0
O59 O 0.55057 0.04959 0.53457 0.0
O60 O 0.56172 0.98456 0.50586 0.0
O61 O 0.49622 0.94823 0.48528 0.0
C62 C 0.52627 0.09763 0.49796 0.0
O63 O 0.63139 0.06769 0.52155 0.0
O64 O 0.63398 0.08714 0.48161 0.0
C65 C 0.36496 0.90934 0.48717 0.0
C66 C 0.30894 0.82604 0.49945 0.0
C67 C 0.30404 0.84221 0.47546 0.0
C68 C 0.3318 0.88358 0.46941 0.0
C69 C 0.36995 0.89334 0.51121 0.0
C70 C 0.34189 0.85205 0.5174 0.0
C71 C 0.39553 0.95182 0.47974 0.0
H72 H 0.76734 0.22344 0.4921 0.0
H73 H 0.72894 0.14712 0.48581 0.0
H74 H 0.6391 0.13823 0.53896 0.0
H75 H 0.67807 0.21454 0.54566 0.0
H76 H 0.27855 0.82288 0.46143 0.0
H77 H 0.32768 0.89534 0.45072 0.0
H78 H 0.3958 0.91255 0.52507 0.0
H79 H 0.34641 0.8402 0.53594 0.0
Tb80 Tb 0.60574 0.60808 0.83142 0.0
Eu81 Eu 0.55517 0.50588 0.82734 0.0
C82 C 0.57882 0.55405 0.88142 0.0
C83 C 0.65623 0.55921 0.83578 0.0
C84 C 0.62457 0.71572 0.8294 0.0
C85 C 0.59718 0.75761 0.84675 0.0
C86 C 0.61846 0.73556 0.85057 0.0
C87 C 0.61127 0.72061 0.80408 0.0
C88 C 0.59038 0.74308 0.80022 0.0
C89 C 0.58197 0.76079 0.82159 0.0
C90 C 0.64074 0.6868 0.83447 0.0
O91 O 0.57942 0.59021 0.7911 0.0
O92 O 0.58347 0.531 0.78926 0.0
O93 O 0.50414 0.52276 0.82436 0.0
O94 O 0.54163 0.59226 0.8375 0.0
C95 C 0.58097 0.56119 0.77737 0.0
O96 O 0.51162 0.44878 0.80517 0.0
O97 O 0.5404 0.44498 0.84238 0.0
O98 O 0.54819 0.5234 0.86751 0.0
O99 O 0.60993 0.5851 0.87017 0.0
O100 O 0.65538 0.59285 0.82768 0.0
O101 O 0.62171 0.52423 0.84013 0.0
C102 C 0.50586 0.55772 0.83186 0.0
O103 O 0.62541 0.66247 0.85416 0.0
O104 O 0.6428 0.66638 0.81446 0.0
C105 C 0.5287 0.39575 0.80941 0.0
C106 C 0.54877 0.33997 0.78596 0.0
C107 C 0.57967 0.38191 0.79121 0.0
C108 C 0.56966 0.40966 0.80276 0.0
C109 C 0.49783 0.35406 0.80423 0.0
C110 C 0.50775 0.32635 0.79259 0.0
C111 C 0.51786 0.4247 0.82133 0.0
H112 H 0.59105 0.7705 0.8637 0.0
H113 H 0.62851 0.7324 0.87029 0.0
H114 H 0.61573 0.70598 0.7873 0.0
H115 H 0.58002 0.74578 0.7805 0.0
H116 H 0.61143 0.39335 0.78613 0.0
H117 H 0.59381 0.44197 0.80648 0.0
H118 H 0.46608 0.34292 0.80924 0.0
H119 H 0.48341 0.29407 0.78914 0.0
O120 O 0.60587 0.10886 0.24269 0.0
Cd121 Cd 0.63938 0.13955 0.20073 0.0
O122 O 0.55112 0.04802 0.22939 0.0
Cd123 Cd 0.49069 0.98641 0.22967 0.0
O124 O 0.42769 0.92967 0.21915 0.0
C125 C 0.4195 0.89189 0.22185 0.0
O126 O 0.44908 0.88527 0.23177 0.0
C127 C 0.57355 0.07415 0.2479 0.0
C128 C 0.71234 0.22043 0.19841 0.0
O129 O 0.6757 0.21541 0.19424 0.0
O130 O 0.71474 0.18802 0.20485 0.0
O131 O 0.54685 0.49219 0.57467 0.0
Cd132 Cd 0.52799 0.44883 0.53329 0.0
O133 O 0.53959 0.54642 0.56336 0.0
Cd134 Cd 0.54091 0.60817 0.5641 0.0
O135 O 0.54519 0.66958 0.55334 0.0
C136 C 0.51328 0.67403 0.54976 0.0
O137 O 0.4763 0.6416 0.55307 0.0
C138 C 0.54841 0.52661 0.58082 0.0
C139 C 0.53222 0.37359 0.53113 0.0
O140 O 0.56295 0.40898 0.52518 0.0
O141 O 0.50022 0.37371 0.53917 0.0
O142 O 0.12716 0.558 0.91017 0.0
Cd143 Cd 0.16443 0.56691 0.8689 0.0
O144 O 0.07012 0.55996 0.89701 0.0
Cd145 Cd 1.00786 0.5577 0.89565 0.0
O146 O 0.94491 0.55166 0.88506 0.0
C147 C 0.93795 0.58218 0.88651 0.0
O148 O 0.96869 0.61885 0.89499 0.0
C149 C 0.09329 0.55699 0.91549 0.0
C150 C 0.23849 0.56121 0.86624 0.0
O151 O 0.24014 0.59493 0.87418 0.0
O152 O 0.20213 0.52957 0.86082 0.0
O153 O 1.00037 0.51636 0.41813 0.0
Cd154 Cd 0.98636 0.49847 0.46403 0.0
O155 O 1.00072 0.57635 0.41791 0.0
Cd156 Cd 0.97676 0.56688 0.45648 0.0
O157 O 0.93721 0.52977 0.48702 0.0
C158 C 0.89959 0.52144 0.48617 0.0
O159 O 0.88699 0.53922 0.46843 0.0
C160 C 1.00589 0.54907 0.40631 0.0
C161 C 0.05812 0.55327 0.49422 0.0
O162 O 1.02716 0.55942 0.49125 0.0
O163 O 0.05445 0.51994 0.48395 0.0
O164 O 0.38023 0.94477 0.72441 0.0
Cd165 Cd 0.35162 0.92052 0.76687 0.0
O166 O 0.44032 0.96183 0.74491 0.0
Cd167 Cd 0.50831 0.99747 0.74681 0.0
O168 O 0.55204 0.06431 0.75083 0.0
C169 C 0.55328 0.08675 0.73164 0.0
O170 O 0.5329 0.06809 0.70948 0.0
C171 C 0.41935 0.95982 0.72393 0.0
C172 C 0.39549 0.88438 0.78961 0.0
O173 O 0.36089 0.86213 0.77624 0.0
O174 O 0.40826 0.92337 0.79334 0.0
O175 O 0.53696 0.50231 0.086 0.0
Cd176 Cd 0.51411 0.48014 0.13023 0.0
O177 O 0.57801 0.57085 0.09098 0.0
Cd178 Cd 0.56284 0.57236 0.13094 0.0
O179 O 0.52102 0.5621 0.16154 0.0
C180 C 0.48321 0.53791 0.15384 0.0
O181 O 0.4745 0.52376 0.12951 0.0
C182 C 0.56157 0.53777 0.07663 0.0
C183 C 0.58135 0.49299 0.16356 0.0
O184 O 0.56845 0.5193 0.16283 0.0
O185 O 0.56141 0.45966 0.14917 0.0
H186 H 0.24098 0.44347 0.21079 0.0
H187 H 0.3079 0.57836 0.22046 0.0
H188 H 0.3064 0.44439 0.20857 0.0
H189 H 0.37324 0.57936 0.21628 0.0
H190 H 0.40234 0.47777 0.14533 0.0
H191 H 0.34405 0.46649 0.16971 0.0
H192 H 0.42815 0.56249 0.2262 0.0
H193 H 0.48714 0.57437 0.20119 0.0
C194 C 0.2696 0.47328 0.21332 0.0
C195 C 0.26904 0.51104 0.21488 0.0
C196 C 0.30719 0.47378 0.21176 0.0
C197 C 0.34481 0.512 0.21124 0.0
C198 C 0.34477 0.54935 0.21634 0.0
C199 C 0.30718 0.54882 0.21833 0.0
C200 C 0.40858 0.49608 0.16316 0.0
C201 C 0.44916 0.52749 0.17107 0.0
C202 C 0.37513 0.4892 0.17741 0.0
C203 C 0.38141 0.51362 0.19996 0.0
C204 C 0.42235 0.54339 0.20882 0.0
C205 C 0.45604 0.55015 0.19452 0.0
H206 H 0.7618 0.27923 0.56113 0.0
H207 H 0.7321 0.27238 0.47811 0.0
H208 H 0.79858 0.35624 0.56002 0.0
H209 H 0.76794 0.34852 0.47694 0.0
H210 H 0.81466 0.48235 0.47991 0.0
H211 H 0.7657 0.41212 0.49383 0.0
H212 H 0.86594 0.40717 0.53768 0.0
H213 H 0.91503 0.47739 0.52388 0.0
C214 C 0.76269 0.29431 0.5428 0.0
C215 C 0.74477 0.27035 0.51964 0.0
C216 C 0.78355 0.3381 0.54216 0.0
C217 C 0.78575 0.35821 0.51844 0.0
C218 C 0.76614 0.33389 0.49557 0.0
C219 C 0.74608 0.29041 0.49614 0.0
C220 C 0.8261 0.46688 0.49318 0.0
C221 C 0.86888 0.48495 0.50025 0.0
C222 C 0.79805 0.42665 0.5011 0.0
C223 C 0.81225 0.40406 0.51641 0.0
C224 C 0.85417 0.42392 0.52588 0.0
C225 C 0.88231 0.46406 0.51782 0.0
H226 H 0.58976 0.82989 0.84711 0.0
H227 H 0.51316 0.73514 0.78798 0.0
H228 H 0.54323 0.85852 0.84276 0.0
H229 H 0.46853 0.76546 0.78234 0.0
H230 H 0.37214 0.80177 0.79313 0.0
H231 H 0.41696 0.77216 0.80297 0.0
H232 H 0.52332 0.89698 0.81414 0.0
H233 H 0.4781 0.92637 0.80541 0.0
C234 C 0.56313 0.81525 0.8331 0.0
C235 C 0.55532 0.78019 0.81788 0.0
C236 C 0.53668 0.83197 0.8304 0.0
C237 C 0.50194 0.81424 0.81227 0.0
C238 C 0.49449 0.77951 0.79685 0.0
C239 C 0.52065 0.76257 0.79973 0.0
C240 C 0.405 0.82281 0.79806 0.0
C241 C 0.42163 0.86636 0.79844 0.0
C242 C 0.4308 0.80589 0.80346 0.0
C243 C 0.47394 0.83216 0.80898 0.0
C244 C 0.49025 0.87574 0.81024 0.0
C245 C 0.46432 0.89264 0.80516 0.0
H246 H 0.82768 0.53075 0.20298 0.0
H247 H 0.83517 0.64876 0.18477 0.0
H248 H 0.75345 0.49959 0.20851 0.0
H249 H 0.76062 0.61704 0.18881 0.0
H250 H 0.62766 0.55827 0.1981 0.0
H251 H 0.70003 0.58474 0.21362 0.0
H252 H 0.69747 0.47893 0.17597 0.0
H253 H 0.62504 0.45193 0.16128 0.0
C254 C 0.81372 0.55036 0.20075 0.0
C255 C 0.8372 0.59211 0.19303 0.0
C256 C 0.77105 0.53233 0.20366 0.0
C257 C 0.75094 0.55557 0.19871 0.0
C258 C 0.77505 0.59821 0.19295 0.0
C259 C 0.81775 0.6163 0.19022 0.0
C260 C 0.64227 0.5401 0.19379 0.0
C261 C 0.62102 0.5035 0.17801 0.0
C262 C 0.68377 0.55536 0.20258 0.0
C263 C 0.70481 0.53446 0.19557 0.0
C264 C 0.68225 0.49579 0.18187 0.0
C265 C 0.64069 0.48037 0.17327 0.0
H266 H 0.28341 0.75692 0.46856 0.0
H267 H 0.26787 0.79642 0.54403 0.0
H268 H 0.22768 0.68599 0.47572 0.0
H269 H 0.21209 0.72494 0.55145 0.0
H270 H 0.07347 0.62359 0.52097 0.0
H271 H 0.14091 0.68643 0.52936 0.0
H272 H 0.20195 0.62176 0.50187 0.0
H273 H 0.13421 0.55872 0.4932 0.0
C274 C 0.26844 0.75014 0.48688 0.0
C275 C 0.27937 0.78213 0.50557 0.0
C276 C 0.23692 0.70943 0.49116 0.0
C277 C 0.21549 0.69993 0.51416 0.0
C278 C 0.22801 0.73147 0.53351 0.0
C279 C 0.25991 0.77224 0.52931 0.0
C280 C 0.10132 0.62235 0.51744 0.0
C281 C 0.09853 0.58656 0.50588 0.0
C282 C 0.14003 0.65832 0.52242 0.0
C283 C 0.17663 0.65917 0.51584 0.0
C284 C 0.17412 0.62208 0.50675 0.0
C285 C 0.13535 0.58597 0.50189 0.0
H286 H 0.50451 0.28189 0.74701 0.0
H287 H 0.61636 0.33049 0.79808 0.0
H288 H 0.51688 0.22751 0.73088 0.0
H289 H 0.62957 0.27667 0.78129 0.0
H290 H 0.58749 0.13308 0.77699 0.0
H291 H 0.59552 0.20115 0.78689 0.0
H292 H 0.5611 0.21088 0.70633 0.0
H293 H 0.55216 0.14221 0.69647 0.0
C294 C 0.53204 0.28122 0.75455 0.0
C295 C 0.55914 0.31008 0.77405 0.0
C296 C 0.53949 0.25042 0.74503 0.0
C297 C 0.57424 0.24773 0.75482 0.0
C298 C 0.60238 0.27775 0.77351 0.0
C299 C 0.59496 0.30871 0.78299 0.0
C300 C 0.5826 0.15012 0.76122 0.0
C301 C 0.56828 0.1318 0.73607 0.0
C302 C 0.58743 0.18934 0.76688 0.0
C303 C 0.57817 0.21106 0.74749 0.0
C304 C 0.56758 0.19444 0.72181 0.0
C305 C 0.5627 0.1552 0.71614 0.0
H306 H 0.58899 0.93794 0.52406 0.0
H307 H 0.46778 0.86855 0.48315 0.0
H308 H 0.58594 0.87261 0.53616 0.0
H309 H 0.46523 0.80308 0.49458 0.0
H310 H 0.4513 0.69367 0.5437 0.0
H311 H 0.45614 0.75911 0.53014 0.0
H312 H 0.58833 0.8126 0.52255 0.0
H313 H 0.58355 0.74708 0.53692 0.0
C314 C 0.56184 0.90877 0.5173 0.0
C315 C 0.52861 0.90887 0.50258 0.0
C316 C 0.56018 0.87106 0.52418 0.0
C317 C 0.52525 0.83206 0.51655 0.0
C318 C 0.4924 0.83222 0.50132 0.0
C319 C 0.49401 0.86997 0.49451 0.0
C320 C 0.4815 0.71932 0.53918 0.0
C321 C 0.51704 0.7148 0.5415 0.0
C322 C 0.48423 0.757 0.53113 0.0
C323 C 0.52259 0.79158 0.52498 0.0
C324 C 0.55824 0.78708 0.52735 0.0
C325 C 0.55551 0.74931 0.53551 0.0
H326 H 0.67116 0.49763 0.85479 0.0
H327 H 0.73519 0.62545 0.82957 0.0
H328 H 0.73796 0.5022 0.8664 0.0
H329 H 0.802 0.6297 0.8405 0.0
H330 H 0.91393 0.64105 0.88942 0.0
H331 H 0.84691 0.63459 0.8765 0.0
H332 H 0.79954 0.50616 0.85168 0.0
H333 H 0.86679 0.51245 0.86533 0.0
C334 C 0.69945 0.52666 0.85144 0.0
C335 C 0.6974 0.56123 0.84128 0.0
C336 C 0.738 0.52921 0.85801 0.0
C337 C 0.77591 0.56642 0.85464 0.0
C338 C 0.77377 0.60069 0.84395 0.0
C339 C 0.73523 0.59817 0.83743 0.0
C340 C 0.88932 0.61132 0.88122 0.0
C341 C 0.89614 0.57729 0.87848 0.0
C342 C 0.8507 0.60769 0.87356 0.0
C343 C 0.81734 0.56991 0.86276 0.0
C344 C 0.82407 0.53571 0.86011 0.0
C345 C 0.86285 0.53934 0.86785 0.0
H346 H 0.21223 0.64629 0.16707 0.0
H347 H 0.15226 0.71606 0.18672 0.0
H348 H 0.28016 0.70756 0.17837 0.0
H349 H 0.22002 0.7769 0.19871 0.0
H350 H 0.35106 0.89217 0.1977 0.0
H351 H 0.28329 0.83203 0.18387 0.0
H352 H 0.32455 0.74852 0.21428 0.0
H353 H 0.39227 0.80835 0.22738 0.0
C354 C 0.21341 0.67466 0.17377 0.0
C355 C 0.1764 0.6759 0.17589 0.0
C356 C 0.25256 0.70991 0.18051 0.0
C357 C 0.25608 0.74761 0.18967 0.0
C358 C 0.21901 0.74891 0.19145 0.0
C359 C 0.17989 0.71371 0.18467 0.0
C360 C 0.34568 0.86097 0.20142 0.0
C361 C 0.37745 0.8554 0.21368 0.0
C362 C 0.30659 0.8263 0.19358 0.0
C363 C 0.29799 0.78494 0.19779 0.0
C364 C 0.32984 0.77957 0.21016 0.0
C365 C 0.36884 0.81413 0.21792 0.0
H366 H 0.59501 0.17605 0.50605 0.0
H367 H 0.46053 0.1118 0.5006 0.0
H368 H 0.59731 0.24184 0.51525 0.0
H369 H 0.46265 0.17782 0.50872 0.0
H370 H 0.476 0.2949 0.54699 0.0
H371 H 0.47533 0.22937 0.53968 0.0
H372 H 0.58808 0.29571 0.4986 0.0
H373 H 0.5895 0.36134 0.50695 0.0
C374 C 0.56583 0.17597 0.50649 0.0
C375 C 0.52755 0.13834 0.5025 0.0
C376 C 0.56713 0.21397 0.51168 0.0
C377 C 0.53018 0.21577 0.51282 0.0
C378 C 0.4919 0.17805 0.50857 0.0
C379 C 0.49062 0.13998 0.50365 0.0
C380 C 0.50084 0.29556 0.53656 0.0
C381 C 0.53284 0.33364 0.52764 0.0
C382 C 0.50028 0.25773 0.53211 0.0
C383 C 0.53149 0.25659 0.51831 0.0
C384 C 0.56373 0.2949 0.50962 0.0
C385 C 0.56448 0.33278 0.51431 0.0
H386 H 0.49436 0.62538 0.8368 0.0
H387 H 0.42706 0.49032 0.83606 0.0
H388 H 0.43058 0.62579 0.84474 0.0
H389 H 0.36358 0.49051 0.84528 0.0
H390 H 0.24585 0.50069 0.84014 0.0
H391 H 0.30906 0.50003 0.83084 0.0
H392 H 0.38282 0.61683 0.87451 0.0
H393 H 0.31951 0.61825 0.8826 0.0
C394 C 0.46595 0.59566 0.83843 0.0
C395 C 0.46612 0.55781 0.83565 0.0
C396 C 0.42914 0.59585 0.84328 0.0
C397 C 0.39122 0.55818 0.84594 0.0
C398 C 0.39153 0.52031 0.843 0.0
C399 C 0.42823 0.52014 0.83778 0.0
C400 C 0.27555 0.52617 0.84786 0.0
C401 C 0.27732 0.55951 0.86216 0.0
C402 C 0.31211 0.52574 0.84262 0.0
C403 C 0.35182 0.55842 0.85177 0.0
C404 C 0.35334 0.59142 0.86651 0.0
C405 C 0.31679 0.59208 0.87145 0.0
H406 H 0.90226 0.4837 0.17146 0.0
H407 H 0.96471 0.41245 0.1649 0.0
H408 H 0.83803 0.41965 0.18074 0.0
H409 H 0.90059 0.34849 0.17295 0.0
H410 H 0.7937 0.24416 0.21273 0.0
H411 H 0.85642 0.30986 0.20469 0.0
H412 H 0.78104 0.35567 0.16592 0.0
H413 H 0.71821 0.29044 0.17514 0.0
C414 C 0.90216 0.4543 0.17157 0.0
C415 C 0.93892 0.4535 0.16748 0.0
C416 C 0.86514 0.41733 0.17686 0.0
C417 C 0.86362 0.37831 0.17796 0.0
C418 C 0.90027 0.37765 0.17309 0.0
C419 C 0.93724 0.41454 0.16815 0.0
C420 C 0.79044 0.26835 0.20266 0.0
C421 C 0.75069 0.26176 0.19462 0.0
C422 C 0.82663 0.30615 0.19775 0.0
C423 C 0.82445 0.33854 0.18425 0.0
C424 C 0.78448 0.33207 0.17659 0.0
C425 C 0.74822 0.29439 0.1818 0.0
H426 H 0.05695 0.49766 0.08116 0.0
H427 H 0.06271 0.61702 0.07312 0.0
H428 H 0.06029 0.49325 0.03403 0.0
H429 H 0.06686 0.61297 0.02611 0.0
H430 H 0.04187 0.57937 0.93906 0.0
H431 H 1.02936 0.57716 0.98544 0.0
H432 H 0.11035 0.52605 1.00159 0.0
H433 H 0.12171 0.52705 0.95539 0.0
C434 C 0.05892 0.52299 0.06939 0.0
C435 C 0.05975 0.55778 0.08109 0.0
C436 C 0.06102 0.52054 0.0423 0.0
C437 C 0.06398 0.55281 0.02612 0.0
C438 C 0.06407 0.58725 0.0378 0.0
C439 C 0.06202 0.58972 0.06488 0.0
C440 C 0.05618 0.56673 0.95238 0.0
C441 C 0.08247 0.55301 0.94331 0.0
C442 C 0.0495 0.56602 0.97911 0.0
C443 C 0.06886 0.55145 0.99742 0.0
C444 C 0.09441 0.53694 0.98817 0.0
C445 C 0.10117 0.53781 0.96158 0.0
H446 H 0.50273 0.06656 0.40768 0.0
H447 H 0.57632 1.00561 0.41033 0.0
H448 H 0.50959 0.07478 0.36066 0.0
H449 H 0.5823 1.01307 0.36287 0.0
H450 H 0.53882 0.9984 0.27224 0.0
H451 H 0.52877 0.98613 0.31912 0.0
H452 H 0.57565 0.11791 0.33285 0.0
H453 H 0.58658 0.13033 0.28641 0.0
C454 C 0.52019 0.05468 0.39821 0.0
C455 C 0.53909 0.03553 0.41279 0.0
C456 C 0.52412 0.05945 0.37127 0.0
C457 C 0.54631 0.04442 0.3581 0.0
C458 C 0.56473 0.02465 0.37253 0.0
C459 C 0.56157 1.02067 0.39968 0.0
C460 C 0.54644 0.02459 0.28525 0.0
C461 C 0.56323 0.06529 0.27561 0.0
C462 C 0.54111 1.01764 0.31208 0.0
C463 C 0.55153 0.05111 0.32961 0.0
C464 C 0.56723 0.09153 0.3198 0.0
C465 C 0.57347 0.0986 0.29321 0.0
H466 H 0.57532 0.50089 0.74437 0.0
H467 H 0.58049 0.62047 0.74423 0.0
H468 H 0.57053 0.49852 0.69717 0.0
H469 H 0.57678 0.61861 0.69628 0.0
H470 H 0.52131 0.57033 0.60964 0.0
H471 H 0.53138 0.58304 0.65714 0.0
H472 H 0.61202 0.52984 0.66161 0.0
H473 H 0.60074 0.51599 0.6148 0.0
C474 C 0.57587 0.52702 0.73428 0.0
C475 C 0.57858 0.56102 0.74826 0.0
C476 C 0.5734 0.52579 0.70702 0.0
C477 C 0.57392 0.55869 0.69268 0.0
C478 C 0.57619 0.59266 0.7066 0.0
C479 C 0.57852 0.59382 0.7341 0.0
C480 C 0.54179 0.56216 0.62079 0.0
C481 C 0.55988 0.54176 0.60849 0.0
C482 C 0.54756 0.56938 0.64804 0.0
C483 C 0.57178 0.5566 0.66343 0.0
C484 C 0.59207 0.53891 0.65065 0.0
C485 C 0.5859 0.53126 0.62369 0.0
H486 H 0.5352 0.07903 0.57918 0.0
H487 H 0.4886 0.9461 0.57205 0.0
H488 H 0.51578 0.07052 0.62482 0.0
H489 H 0.47051 0.93793 0.61753 0.0
H490 H 0.48096 0.94884 0.70691 0.0
H491 H 0.51245 0.96816 0.66482 0.0
H492 H 0.43605 0.02266 0.64335 0.0
H493 H 0.40394 1.00273 0.68547 0.0
C494 C 0.52172 0.04828 0.58757 0.0
C495 C 0.51331 1.01318 0.57226 0.0
C496 C 0.51043 0.04341 0.61349 0.0
C497 C 0.49174 1.0036 0.6245 0.0
C498 C 0.48512 0.96894 0.60947 0.0
C499 C 0.49537 0.97361 0.58351 0.0
C500 C 0.47151 0.9657 0.69341 0.0
C501 C 0.44027 0.97458 0.6994 0.0
C502 C 0.4894 0.97658 0.66938 0.0
C503 C 0.47679 0.9971 0.65108 0.0
C504 C 0.44657 1.0073 0.65736 0.0
C505 C 0.42804 0.99564 0.68126 0.0
H506 H 0.64121 0.60554 0.9174 0.0
H507 H 0.51627 0.49884 0.91058 0.0
H508 H 0.64088 0.60151 0.96493 0.0
H509 H 0.51558 0.49554 0.9578 0.0
H510 H 0.60162 0.60856 0.0481 0.0
H511 H 0.60813 0.61286 1.00106 0.0
H512 H 0.54625 0.47788 0.99462 0.0
H513 H 0.53867 0.47349 0.04148 0.0
C514 C 0.61365 0.58137 0.92602 0.0
C515 C 0.57884 0.55243 0.91021 0.0
C516 C 0.61341 0.57915 0.95324 0.0
C517 C 0.57831 0.54803 0.96516 0.0
C518 C 0.54347 0.51934 0.94928 0.0
C519 C 0.54377 0.52144 0.92216 0.0
C520 C 0.58972 0.57981 0.03668 0.0
C521 C 0.56924 0.54066 0.04852 0.0
C522 C 0.59363 0.5823 0.00971 0.0
C523 C 0.57734 0.5457 0.99404 0.0
C524 C 0.55835 0.50665 0.00606 0.0
C525 C 0.55422 0.50414 0.03296 0.0
H526 H 0.99876 0.58173 0.24072 0.0
H527 H 0.09823 0.55335 0.25232 0.0
H528 H 0.99162 0.57985 0.28751 0.0
H529 H 0.09119 0.55187 0.29949 0.0
H530 H 1.02336 0.49932 0.37642 0.0
H531 H 0.03826 0.50653 0.33042 0.0
H532 H 1.02994 0.61913 0.32807 0.0
H533 H 1.01457 0.6118 0.37396 0.0
C534 C 1.01932 0.57533 0.25326 0.0
C535 C 0.04903 0.5676 0.24275 0.0
C536 C 1.01539 0.57456 0.28013 0.0
C537 C 0.04092 0.56586 0.29719 0.0
C538 C 0.07089 0.5584 0.28678 0.0
C539 C 0.07504 0.55944 0.2598 0.0
C540 C 1.02492 0.52576 0.36615 0.0
C541 C 1.0174 0.55479 0.37883 0.0
C542 C 0.03377 0.53003 0.33984 0.0
C543 C 0.03508 0.56328 0.32562 0.0
C544 C 1.0286 0.59288 0.33845 0.0
C545 C 1.01995 0.58874 0.36478 0.0
loop_
_geom_bond_atom_site_label_1
_geom_bond_atom_site_label_2
_geom_bond_distance
_geom_bond_site_symmetry_2
_ccdc_geom_bond_type
Tb0 C10 2.825 . S
Tb0 O11 2.347 . S
Tb0 O14 2.366 . S
Tb0 O19 2.418 . S
Tb0 O20 2.384 1_455 S
Tb0 O23 2.479 . S
Tb0 O24 2.471 . S
Eu1 O12 2.418 . S
Eu1 O13 2.384 1_655 S
Eu1 O16 2.479 . S
Eu1 O17 2.471 . S
Eu1 O18 2.347 1_655 S
Eu1 O21 2.366 . S
Eu1 C31 2.825 . S
C2 O18 1.259 . S
C2 O19 1.265 . S
C3 O20 1.255 . S
C3 O21 1.265 . S
C4 C6 1.380 . S
C4 C7 1.374 . S
C4 C10 1.507 . S
C5 C6 1.384 . S
C5 C9 1.387 . S
C5 H32 0.930 . S
C6 C4 1.380 . S
C6 C5 1.384 . S
C6 H33 0.931 . S
C7 C4 1.374 . S
C7 C8 1.390 . S
C7 H34 0.930 . S
C8 C7 1.390 . S
C8 C9 1.391 . S
C8 H35 0.930 . S
C9 C5 1.387 . S
C9 C8 1.391 . S
C10 Tb0 2.825 . S
C10 C4 1.507 . S
C10 O23 1.238 . S
C10 O24 1.247 . S
O11 Tb0 2.347 . S
O11 C15 1.259 . S
O12 Eu1 2.418 . S
O12 C15 1.265 1_655 S
O13 Eu1 2.384 1_455 S
O13 C22 1.255 . S
O14 Tb0 2.366 . S
O14 C22 1.265 . S
C15 O11 1.259 . S
C15 O12 1.265 1_455 S
O16 Eu1 2.479 . S
O16 C31 1.238 . S
O17 Eu1 2.471 . S
O17 C31 1.247 . S
O18 Eu1 2.347 1_455 S
O18 C2 1.259 . S
O19 Tb0 2.418 . S
O19 C2 1.265 . S
O20 Tb0 2.384 1_655 S
O20 C3 1.255 . S
O21 Eu1 2.366 . S
O21 C3 1.265 . S
C22 O13 1.255 . S
C22 O14 1.265 . S
O23 Tb0 2.479 . S
O23 C10 1.238 . S
O24 Tb0 2.471 . S
O24 C10 1.247 . S
C25 C28 1.380 . S
C25 C29 1.374 . S
C25 C31 1.507 . S
C26 C27 1.387 . S
C26 C30 1.391 . S
C27 C26 1.387 . S
C27 C28 1.384 . S
C27 H36 0.930 . S
C28 C25 1.380 . S
C28 C27 1.384 . S
C28 H37 0.931 . S
C29 C25 1.374 . S
C29 C30 1.390 . S
C29 H38 0.930 . S
C30 C26 1.391 . S
C30 C29 1.390 . S
C30 H39 0.930 . S
C31 Eu1 2.825 . S
C31 O16 1.238 . S
C31 O17 1.247 . S
C31 C25 1.507 . S
H32 C5 0.930 . S
H33 C6 0.931 . S
H34 C7 0.930 . S
H35 C8 0.930 . S
H36 C27 0.930 . S
H37 C28 0.931 . S
H38 C29 0.930 . S
H39 C30 0.930 . S
Tb40 C50 2.825 . S
Tb40 O51 2.347 . S
Tb40 O54 2.366 . S
Tb40 O59 2.418 . S
Tb40 O60 2.384 1_545 S
Tb40 O63 2.479 . S
Tb40 O64 2.471 . S
Eu41 O52 2.418 . S
Eu41 O53 2.384 . S
Eu41 O56 2.479 1_545 S
Eu41 O57 2.471 1_545 S
Eu41 O58 2.347 . S
Eu41 O61 2.366 1_545 S
Eu41 C71 2.825 1_545 S
C42 O58 1.259 . S
C42 O59 1.265 . S
C43 O60 1.255 . S
C43 O61 1.265 . S
C44 C46 1.380 . S
C44 C47 1.374 . S
C44 C50 1.507 . S
C45 C46 1.384 . S
C45 C49 1.387 . S
C45 H72 0.930 . S
C46 C44 1.380 . S
C46 C45 1.384 . S
C46 H73 0.931 . S
C47 C44 1.374 . S
C47 C48 1.390 . S
C47 H74 0.930 . S
C48 C47 1.390 . S
C48 C49 1.391 . S
C48 H75 0.930 . S
C49 C45 1.387 . S
C49 C48 1.391 . S
C50 Tb40 2.825 . S
C50 C44 1.507 . S
C50 O63 1.238 . S
C50 O64 1.247 . S
O51 Tb40 2.347 . S
O51 C55 1.259 . S
O52 Eu41 2.418 . S
O52 C55 1.265 . S
O53 Eu41 2.384 . S
O53 C62 1.255 . S
O54 Tb40 2.366 . S
O54 C62 1.265 . S
C55 O51 1.259 . S
C55 O52 1.265 . S
O56 Eu41 2.479 1_565 S
O56 C71 1.238 . S
O57 Eu41 2.471 1_565 S
O57 C71 1.247 . S
O58 Eu41 2.347 . S
O58 C42 1.259 . S
O59 Tb40 2.418 . S
O59 C42 1.265 . S
O60 Tb40 2.384 1_565 S
O60 C43 1.255 . S
O61 Eu41 2.366 1_565 S
O61 C43 1.265 . S
C62 O53 1.255 . S
C62 O54 1.265 . S
O63 Tb40 2.479 . S
O63 C50 1.238 . S
O64 Tb40 2.471 . S
O64 C50 1.247 . S
C65 C68 1.380 . S
C65 C69 1.374 . S
C65 C71 1.507 . S
C66 C67 1.387 . S
C66 C70 1.391 . S
C67 C66 1.387 . S
C67 C68 1.384 . S
C67 H76 0.930 . S
C68 C65 1.380 . S
C68 C67 1.384 . S
C68 H77 0.931 . S
C69 C65 1.374 . S
C69 C70 1.390 . S
C69 H78 0.930 . S
C70 C66 1.391 . S
C70 C69 1.390 . S
C70 H79 0.930 . S
C71 Eu41 2.825 1_565 S
C71 O56 1.238 . S
C71 O57 1.247 . S
C71 C65 1.507 . S
H72 C45 0.930 . S
H73 C46 0.931 . S
H74 C47 0.930 . S
H75 C48 0.930 . S
H76 C67 0.930 . S
H77 C68 0.931 . S
H78 C69 0.930 . S
H79 C70 0.930 . S
Tb80 C90 2.825 . S
Tb80 O91 2.347 . S
Tb80 O94 2.366 . S
Tb80 O99 2.418 . S
Tb80 O100 2.384 . S
Tb80 O103 2.479 . S
Tb80 O104 2.471 . S
Eu81 O92 2.418 . S
Eu81 O93 2.384 . S
Eu81 O96 2.479 . S
Eu81 O97 2.471 . S
Eu81 O98 2.347 . S
Eu81 O101 2.366 . S
Eu81 C111 2.825 . S
C82 O98 1.259 . S
C82 O99 1.265 . S
C83 O100 1.255 . S
C83 O101 1.265 . S
C84 C86 1.380 . S
C84 C87 1.374 . S
C84 C90 1.507 . S
C85 C86 1.384 . S
C85 C89 1.387 . S
C85 H112 0.930 . S
C86 C84 1.380 . S
C86 C85 1.384 . S
C86 H113 0.931 . S
C87 C84 1.374 . S
C87 C88 1.390 . S
C87 H114 0.930 . S
C88 C87 1.390 . S
C88 C89 1.391 . S
C88 H115 0.930 . S
C89 C85 1.387 . S
C89 C88 1.391 . S
C90 Tb80 2.825 . S
C90 C84 1.507 . S
C90 O103 1.238 . S
C90 O104 1.247 . S
O91 Tb80 2.347 . S
O91 C95 1.259 . S
O92 Eu81 2.418 . S
O92 C95 1.265 . S
O93 Eu81 2.384 . S
O93 C102 1.255 . S
O94 Tb80 2.366 . S
O94 C102 1.265 . S
C95 O91 1.259 . S
C95 O92 1.265 . S
O96 Eu81 2.479 . S
O96 C111 1.238 . S
O97 Eu81 2.471 . S
O97 C111 1.247 . S
O98 Eu81 2.347 . S
O98 C82 1.259 . S
O99 Tb80 2.418 . S
O99 C82 1.265 . S
O100 Tb80 2.384 . S
O100 C83 1.255 . S
O101 Eu81 2.366 . S
O101 C83 1.265 . S
C102 O93 1.255 . S
C102 O94 1.265 . S
O103 Tb80 2.479 . S
O103 C90 1.238 . S
O104 Tb80 2.471 . S
O104 C90 1.247 . S
C105 C108 1.380 . S
C105 C109 1.374 . S
C105 C111 1.507 . S
C106 C107 1.387 . S
C106 C110 1.391 . S
C107 C106 1.387 . S
C107 C108 1.384 . S
C107 H116 0.930 . S
C108 C105 1.380 . S
C108 C107 1.384 . S
C108 H117 0.931 . S
C109 C105 1.374 . S
C109 C110 1.390 . S
C109 H118 0.930 . S
C110 C106 1.391 . S
C110 C109 1.390 . S
C110 H119 0.930 . S
C111 Eu81 2.825 . S
C111 O96 1.238 . S
C111 O97 1.247 . S
C111 C105 1.507 . S
H112 C85 0.930 . S
H113 C86 0.931 . S
H114 C87 0.930 . S
H115 C88 0.930 . S
H116 C107 0.930 . S
H117 C108 0.931 . S
H118 C109 0.930 . S
H119 C110 0.930 . S
O120 Cd121 2.300 . S
O120 C127 1.275 . S
Cd121 O120 2.300 . S
Cd121 O129 2.381 . S
Cd121 O130 2.378 . S
O122 Cd123 2.385 . S
O122 C127 1.255 1_565 S
Cd123 O122 2.385 . S
Cd123 O124 2.317 . S
O124 Cd123 2.317 . S
O124 C125 1.232 . S
C125 O124 1.232 . S
C125 O126 1.218 . S
O126 C125 1.218 . S
C127 O120 1.275 . S
C127 O122 1.255 1_545 S
C128 O129 1.258 . S
C128 O130 1.256 . S
O129 Cd121 2.381 . S
O129 C128 1.258 . S
O130 Cd121 2.378 . S
O130 C128 1.256 . S
O131 Cd132 2.300 . S
O131 C138 1.275 . S
Cd132 O131 2.300 . S
Cd132 O140 2.381 . S
Cd132 O141 2.378 . S
O133 Cd134 2.385 . S
O133 C138 1.255 . S
Cd134 O133 2.385 . S
Cd134 O135 2.317 . S
O135 Cd134 2.317 . S
O135 C136 1.232 . S
C136 O135 1.232 . S
C136 O137 1.218 . S
O137 C136 1.218 . S
C138 O131 1.275 . S
C138 O133 1.255 . S
C139 O140 1.258 . S
C139 O141 1.256 . S
O140 Cd132 2.381 . S
O140 C139 1.258 . S
O141 Cd132 2.378 . S
O141 C139 1.256 . S
O142 Cd143 2.300 . S
O142 C149 1.275 . S
Cd143 O142 2.300 . S
Cd143 O151 2.381 . S
Cd143 O152 2.378 . S
O144 Cd145 2.385 . S
O144 C149 1.255 1_655 S
Cd145 O144 2.385 . S
Cd145 O146 2.317 . S
O146 Cd145 2.317 . S
O146 C147 1.232 . S
C147 O146 1.232 . S
C147 O148 1.218 . S
O148 C147 1.218 . S
C149 O142 1.275 . S
C149 O144 1.255 1_455 S
C150 O151 1.258 . S
C150 O152 1.256 . S
O151 Cd143 2.381 . S
O151 C150 1.258 . S
O152 Cd143 2.378 . S
O152 C150 1.256 . S
O153 Cd154 2.300 . S
O153 C160 1.275 . S
Cd154 O153 2.300 . S
Cd154 O162 2.381 . S
Cd154 O163 2.378 . S
O155 Cd156 2.385 . S
O155 C160 1.255 1_655 S
Cd156 O155 2.385 . S
Cd156 O157 2.317 . S
O157 Cd156 2.317 . S
O157 C158 1.232 . S
C158 O157 1.232 . S
C158 O159 1.218 . S
O159 C158 1.218 . S
C160 O153 1.275 . S
C160 O155 1.255 1_455 S
C161 O162 1.258 . S
C161 O163 1.256 . S
O162 Cd154 2.381 . S
O162 C161 1.258 . S
O163 Cd154 2.378 . S
O163 C161 1.256 . S
O164 Cd165 2.300 . S
O164 C171 1.275 1_565 S
Cd165 O164 2.300 . S
Cd165 O173 2.381 . S
Cd165 O174 2.378 . S
O166 Cd167 2.385 . S
O166 C171 1.255 . S
Cd167 O166 2.385 . S
Cd167 O168 2.317 . S
O168 Cd167 2.317 . S
O168 C169 1.232 . S
C169 O168 1.232 . S
C169 O170 1.218 . S
O170 C169 1.218 . S
C171 O164 1.275 1_545 S
C171 O166 1.255 . S
C172 O173 1.258 . S
C172 O174 1.256 . S
O173 Cd165 2.381 . S
O173 C172 1.258 . S
O174 Cd165 2.378 . S
O174 C172 1.256 . S
O175 Cd176 2.300 . S
O175 C182 1.275 . S
Cd176 O175 2.300 . S
Cd176 O184 2.381 . S
Cd176 O185 2.378 . S
O177 Cd178 2.385 . S
O177 C182 1.255 . S
Cd178 O177 2.385 . S
Cd178 O179 2.317 . S
O179 Cd178 2.317 . S
O179 C180 1.232 . S
C180 O179 1.232 . S
C180 O181 1.218 . S
O181 C180 1.218 . S
C182 O175 1.275 . S
C182 O177 1.255 . S
C183 O184 1.258 . S
C183 O185 1.256 . S
O184 Cd176 2.381 . S
O184 C183 1.258 . S
O185 Cd176 2.378 . S
O185 C183 1.256 . S
H186 C194 0.950 . S
H187 C199 0.950 . S
H188 C196 0.950 . S
H189 C198 0.950 . S
H190 C200 0.950 . S
H191 C202 0.950 . S
H192 C204 0.950 . S
H193 C205 0.950 . S
C194 H186 0.950 . S
C194 C195 1.386 . S
C194 C196 1.391 . S
C195 C194 1.386 . S
C195 C199 1.393 . S
C196 H188 0.950 . S
C196 C194 1.391 . S
C196 C197 1.400 . S
C197 C196 1.400 . S
C197 C198 1.398 . S
C197 C203 1.491 . S
C198 H189 0.950 . S
C198 C197 1.398 . S
C198 C199 1.391 . S
C199 H187 0.950 . S
C199 C195 1.393 . S
C199 C198 1.391 . S
C200 H190 0.950 . S
C200 C201 1.386 . S
C200 C202 1.391 . S
C201 C200 1.386 . S
C201 C205 1.393 . S
C202 H191 0.950 . S
C202 C200 1.391 . S
C202 C203 1.400 . S
C203 C197 1.491 . S
C203 C202 1.400 . S
C203 C204 1.398 . S
C204 H192 0.950 . S
C204 C203 1.398 . S
C204 C205 1.391 . S
C205 H193 0.950 . S
C205 C201 1.393 . S
C205 C204 1.391 . S
H206 C214 0.950 . S
H207 C219 0.950 . S
H208 C216 0.950 . S
H209 C218 0.950 . S
H210 C220 0.950 . S
H211 C222 0.950 . S
H212 C224 0.950 . S
H213 C225 0.950 . S
C214 H206 0.950 . S
C214 C215 1.386 . S
C214 C216 1.391 . S
C215 C214 1.386 . S
C215 C219 1.393 . S
C216 H208 0.950 . S
C216 C214 1.391 . S
C216 C217 1.400 . S
C217 C216 1.400 . S
C217 C218 1.398 . S
C217 C223 1.491 . S
C218 H209 0.950 . S
C218 C217 1.398 . S
C218 C219 1.391 . S
C219 H207 0.950 . S
C219 C215 1.393 . S
C219 C218 1.391 . S
C220 H210 0.950 . S
C220 C221 1.386 . S
C220 C222 1.391 . S
C221 C220 1.386 . S
C221 C225 1.393 . S
C222 H211 0.950 . S
C222 C220 1.391 . S
C222 C223 1.400 . S
C223 C217 1.491 . S
C223 C222 1.400 . S
C223 C224 1.398 . S
C224 H212 0.950 . S
C224 C223 1.398 . S
C224 C225 1.391 . S
C225 H213 0.950 . S
C225 C221 1.393 . S
C225 C224 1.391 . S
H226 C234 0.950 . S
H227 C239 0.950 . S
H228 C236 0.950 . S
H229 C238 0.950 . S
H230 C240 0.950 . S
H231 C242 0.950 . S
H232 C244 0.950 . S
H233 C245 0.950 . S
C234 H226 0.950 . S
C234 C235 1.386 . S
C234 C236 1.391 . S
C235 C234 1.386 . S
C235 C239 1.393 . S
C236 H228 0.950 . S
C236 C234 1.391 . S
C236 C237 1.400 . S
C237 C236 1.400 . S
C237 C238 1.398 . S
C237 C243 1.491 . S
C238 H229 0.950 . S
C238 C237 1.398 . S
C238 C239 1.391 . S
C239 H227 0.950 . S
C239 C235 1.393 . S
C239 C238 1.391 . S
C240 H230 0.950 . S
C240 C241 1.386 . S
C240 C242 1.391 . S
C241 C240 1.386 . S
C241 C245 1.393 . S
C242 H231 0.950 . S
C242 C240 1.391 . S
C242 C243 1.400 . S
C243 C237 1.491 . S
C243 C242 1.400 . S
C243 C244 1.398 . S
C244 H232 0.950 . S
C244 C243 1.398 . S
C244 C245 1.391 . S
C245 H233 0.950 . S
C245 C241 1.393 . S
C245 C244 1.391 . S
H246 C254 0.950 . S
H247 C259 0.950 . S
H248 C256 0.950 . S
H249 C258 0.950 . S
H250 C260 0.950 . S
H251 C262 0.950 . S
H252 C264 0.950 . S
H253 C265 0.950 . S
C254 H246 0.950 . S
C254 C255 1.386 . S
C254 C256 1.391 . S
C255 C254 1.386 . S
C255 C259 1.393 . S
C256 H248 0.950 . S
C256 C254 1.391 . S
C256 C257 1.400 . S
C257 C256 1.400 . S
C257 C258 1.398 . S
C257 C263 1.491 . S
C258 H249 0.950 . S
C258 C257 1.398 . S
C258 C259 1.391 . S
C259 H247 0.950 . S
C259 C255 1.393 . S
C259 C258 1.391 . S
C260 H250 0.950 . S
C260 C261 1.386 . S
C260 C262 1.391 . S
C261 C260 1.386 . S
C261 C265 1.393 . S
C262 H251 0.950 . S
C262 C260 1.391 . S
C262 C263 1.400 . S
C263 C257 1.491 . S
C263 C262 1.400 . S
C263 C264 1.398 . S
C264 H252 0.950 . S
C264 C263 1.398 . S
C264 C265 1.391 . S
C265 H253 0.950 . S
C265 C261 1.393 . S
C265 C264 1.391 . S
H266 C274 0.950 . S
H267 C279 0.950 . S
H268 C276 0.950 . S
H269 C278 0.950 . S
H270 C280 0.950 . S
H271 C282 0.950 . S
H272 C284 0.950 . S
H273 C285 0.950 . S
C274 H266 0.950 . S
C274 C275 1.386 . S
C274 C276 1.391 . S
C275 C274 1.386 . S
C275 C279 1.393 . S
C276 H268 0.950 . S
C276 C274 1.391 . S
C276 C277 1.400 . S
C277 C276 1.400 . S
C277 C278 1.398 . S
C277 C283 1.491 . S
C278 H269 0.950 . S
C278 C277 1.398 . S
C278 C279 1.391 . S
C279 H267 0.950 . S
C279 C275 1.393 . S
C279 C278 1.391 . S
C280 H270 0.950 . S
C280 C281 1.386 . S
C280 C282 1.391 . S
C281 C280 1.386 . S
C281 C285 1.393 . S
C282 H271 0.950 . S
C282 C280 1.391 . S
C282 C283 1.400 . S
C283 C277 1.491 . S
C283 C282 1.400 . S
C283 C284 1.398 . S
C284 H272 0.950 . S
C284 C283 1.398 . S
C284 C285 1.391 . S
C285 H273 0.950 . S
C285 C281 1.393 . S
C285 C284 1.391 . S
H286 C294 0.950 . S
H287 C299 0.950 . S
H288 C296 0.950 . S
H289 C298 0.950 . S
H290 C300 0.950 . S
H291 C302 0.950 . S
H292 C304 0.950 . S
H293 C305 0.950 . S
C294 H286 0.950 . S
C294 C295 1.386 . S
C294 C296 1.391 . S
C295 C294 1.386 . S
C295 C299 1.393 . S
C296 H288 0.950 . S
C296 C294 1.391 . S
C296 C297 1.400 . S
C297 C296 1.400 . S
C297 C298 1.398 . S
C297 C303 1.491 . S
C298 H289 0.950 . S
C298 C297 1.398 . S
C298 C299 1.391 . S
C299 H287 0.950 . S
C299 C295 1.393 . S
C299 C298 1.391 . S
C300 H290 0.950 . S
C300 C301 1.386 . S
C300 C302 1.391 . S
C301 C300 1.386 . S
C301 C305 1.393 . S
C302 H291 0.950 . S
C302 C300 1.391 . S
C302 C303 1.400 . S
C303 C297 1.491 . S
C303 C302 1.400 . S
C303 C304 1.398 . S
C304 H292 0.950 . S
C304 C303 1.398 . S
C304 C305 1.391 . S
C305 H293 0.950 . S
C305 C301 1.393 . S
C305 C304 1.391 . S
H306 C314 0.950 . S
H307 C319 0.950 . S
H308 C316 0.950 . S
H309 C318 0.950 . S
H310 C320 0.950 . S
H311 C322 0.950 . S
H312 C324 0.950 . S
H313 C325 0.950 . S
C314 H306 0.950 . S
C314 C315 1.386 . S
C314 C316 1.391 . S
C315 C314 1.386 . S
C315 C319 1.393 . S
C316 H308 0.950 . S
C316 C314 1.391 . S
C316 C317 1.400 . S
C317 C316 1.400 . S
C317 C318 1.398 . S
C317 C323 1.491 . S
C318 H309 0.950 . S
C318 C317 1.398 . S
C318 C319 1.391 . S
C319 H307 0.950 . S
C319 C315 1.393 . S
C319 C318 1.391 . S
C320 H310 0.950 . S
C320 C321 1.386 . S
C320 C322 1.391 . S
C321 C320 1.386 . S
C321 C325 1.393 . S
C322 H311 0.950 . S
C322 C320 1.391 . S
C322 C323 1.400 . S
C323 C317 1.491 . S
C323 C322 1.400 . S
C323 C324 1.398 . S
C324 H312 0.950 . S
C324 C323 1.398 . S
C324 C325 1.391 . S
C325 H313 0.950 . S
C325 C321 1.393 . S
C325 C324 1.391 . S
H326 C334 0.950 . S
H327 C339 0.950 . S
H328 C336 0.950 . S
H329 C338 0.950 . S
H330 C340 0.950 . S
H331 C342 0.950 . S
H332 C344 0.950 . S
H333 C345 0.950 . S
C334 H326 0.950 . S
C334 C335 1.386 . S
C334 C336 1.391 . S
C335 C334 1.386 . S
C335 C339 1.393 . S
C336 H328 0.950 . S
C336 C334 1.391 . S
C336 C337 1.400 . S
C337 C336 1.400 . S
C337 C338 1.398 . S
C337 C343 1.491 . S
C338 H329 0.950 . S
C338 C337 1.398 . S
C338 C339 1.391 . S
C339 H327 0.950 . S
C339 C335 1.393 . S
C339 C338 1.391 . S
C340 H330 0.950 . S
C340 C341 1.386 . S
C340 C342 1.391 . S
C341 C340 1.386 . S
C341 C345 1.393 . S
C342 H331 0.950 . S
C342 C340 1.391 . S
C342 C343 1.400 . S
C343 C337 1.491 . S
C343 C342 1.400 . S
C343 C344 1.398 . S
C344 H332 0.950 . S
C344 C343 1.398 . S
C344 C345 1.391 . S
C345 H333 0.950 . S
C345 C341 1.393 . S
C345 C344 1.391 . S
H346 C354 0.950 . S
H347 C359 0.950 . S
H348 C356 0.950 . S
H349 C358 0.950 . S
H350 C360 0.950 . S
H351 C362 0.950 . S
H352 C364 0.950 . S
H353 C365 0.950 . S
C354 H346 0.950 . S
C354 C355 1.386 . S
C354 C356 1.391 . S
C355 C354 1.386 . S
C355 C359 1.393 . S
C356 H348 0.950 . S
C356 C354 1.391 . S
C356 C357 1.400 . S
C357 C356 1.400 . S
C357 C358 1.398 . S
C357 C363 1.491 . S
C358 H349 0.950 . S
C358 C357 1.398 . S
C358 C359 1.391 . S
C359 H347 0.950 . S
C359 C355 1.393 . S
C359 C358 1.391 . S
C360 H350 0.950 . S
C360 C361 1.386 . S
C360 C362 1.391 . S
C361 C360 1.386 . S
C361 C365 1.393 . S
C362 H351 0.950 . S
C362 C360 1.391 . S
C362 C363 1.400 . S
C363 C357 1.491 . S
C363 C362 1.400 . S
C363 C364 1.398 . S
C364 H352 0.950 . S
C364 C363 1.398 . S
C364 C365 1.391 . S
C365 H353 0.950 . S
C365 C361 1.393 . S
C365 C364 1.391 . S
H366 C374 0.950 . S
H367 C379 0.950 . S
H368 C376 0.950 . S
H369 C378 0.950 . S
H370 C380 0.950 . S
H371 C382 0.950 . S
H372 C384 0.950 . S
H373 C385 0.950 . S
C374 H366 0.950 . S
C374 C375 1.386 . S
C374 C376 1.391 . S
C375 C374 1.386 . S
C375 C379 1.393 . S
C376 H368 0.950 . S
C376 C374 1.391 . S
C376 C377 1.400 . S
C377 C376 1.400 . S
C377 C378 1.398 . S
C377 C383 1.491 . S
C378 H369 0.950 . S
C378 C377 1.398 . S
C378 C379 1.391 . S
C379 H367 0.950 . S
C379 C375 1.393 . S
C379 C378 1.391 . S
C380 H370 0.950 . S
C380 C381 1.386 . S
C380 C382 1.391 . S
C381 C380 1.386 . S
C381 C385 1.393 . S
C382 H371 0.950 . S
C382 C380 1.391 . S
C382 C383 1.400 . S
C383 C377 1.491 . S
C383 C382 1.400 . S
C383 C384 1.398 . S
C384 H372 0.950 . S
C384 C383 1.398 . S
C384 C385 1.391 . S
C385 H373 0.950 . S
C385 C381 1.393 . S
C385 C384 1.391 . S
H386 C394 0.950 . S
H387 C399 0.950 . S
H388 C396 0.950 . S
H389 C398 0.950 . S
H390 C400 0.950 . S
H391 C402 0.950 . S
H392 C404 0.950 . S
H393 C405 0.950 . S
C394 H386 0.950 . S
C394 C395 1.386 . S
C394 C396 1.391 . S
C395 C394 1.386 . S
C395 C399 1.393 . S
C396 H388 0.950 . S
C396 C394 1.391 . S
C396 C397 1.400 . S
C397 C396 1.400 . S
C397 C398 1.398 . S
C397 C403 1.491 . S
C398 H389 0.950 . S
C398 C397 1.398 . S
C398 C399 1.391 . S
C399 H387 0.950 . S
C399 C395 1.393 . S
C399 C398 1.391 . S
C400 H390 0.950 . S
C400 C401 1.386 . S
C400 C402 1.391 . S
C401 C400 1.386 . S
C401 C405 1.393 . S
C402 H391 0.950 . S
C402 C400 1.391 . S
C402 C403 1.400 . S
C403 C397 1.491 . S
C403 C402 1.400 . S
C403 C404 1.398 . S
C404 H392 0.950 . S
C404 C403 1.398 . S
C404 C405 1.391 . S
C405 H393 0.950 . S
C405 C401 1.393 . S
C405 C404 1.391 . S
H406 C414 0.950 . S
H407 C419 0.950 . S
H408 C416 0.950 . S
H409 C418 0.950 . S
H410 C420 0.950 . S
H411 C422 0.950 . S
H412 C424 0.950 . S
H413 C425 0.950 . S
C414 H406 0.950 . S
C414 C415 1.386 . S
C414 C416 1.391 . S
C415 C414 1.386 . S
C415 C419 1.393 . S
C416 H408 0.950 . S
C416 C414 1.391 . S
C416 C417 1.400 . S
C417 C416 1.400 . S
C417 C418 1.398 . S
C417 C423 1.491 . S
C418 H409 0.950 . S
C418 C417 1.398 . S
C418 C419 1.391 . S
C419 H407 0.950 . S
C419 C415 1.393 . S
C419 C418 1.391 . S
C420 H410 0.950 . S
C420 C421 1.386 . S
C420 C422 1.391 . S
C421 C420 1.386 . S
C421 C425 1.393 . S
C422 H411 0.950 . S
C422 C420 1.391 . S
C422 C423 1.400 . S
C423 C417 1.491 . S
C423 C422 1.400 . S
C423 C424 1.398 . S
C424 H412 0.950 . S
C424 C423 1.398 . S
C424 C425 1.391 . S
C425 H413 0.950 . S
C425 C421 1.393 . S
C425 C424 1.391 . S
H426 C434 0.950 . S
H427 C439 0.950 . S
H428 C436 0.950 . S
H429 C438 0.950 . S
H430 C440 0.950 . S
H431 C442 0.960 . S
H432 C444 0.950 . S
H433 C445 0.950 . S
C434 H426 0.950 . S
C434 C435 1.386 . S
C434 C436 1.391 . S
C435 C434 1.386 . S
C435 C439 1.393 1_455 S
C436 H428 0.950 . S
C436 C434 1.391 . S
C436 C437 1.400 . S
C437 C436 1.400 . S
C437 C438 1.398 1_455 S
C437 C443 1.491 . S
C438 H429 0.950 . S
C438 C437 1.398 1_655 S
C438 C439 1.391 . S
C439 H427 0.950 . S
C439 C435 1.393 1_655 S
C439 C438 1.391 . S
C440 H430 0.950 . S
C440 C441 1.386 1_655 S
C440 C442 1.391 . S
C441 C440 1.386 1_455 S
C441 C445 1.393 . S
C442 H431 0.960 . S
C442 C440 1.391 . S
C442 C443 1.400 1_656 S
C443 C437 1.491 . S
C443 C442 1.400 1_454 S
C443 C444 1.398 1_554 S
C444 H432 0.950 . S
C444 C443 1.398 1_556 S
C444 C445 1.391 . S
C445 H433 0.950 . S
C445 C441 1.393 . S
C445 C444 1.391 . S
H446 C454 0.950 . S
H447 C459 0.955 . S
H448 C456 0.950 . S
H449 C458 0.950 1_565 S
H450 C460 0.950 . S
H451 C462 0.950 1_565 S
H452 C464 0.950 . S
H453 C465 0.950 . S
C454 H446 0.950 . S
C454 C455 1.386 . S
C454 C456 1.391 . S
C455 C454 1.386 . S
C455 C459 1.393 . S
C456 H448 0.950 . S
C456 C454 1.391 . S
C456 C457 1.400 . S
C457 C456 1.400 . S
C457 C458 1.398 . S
C457 C463 1.491 . S
C458 H449 0.950 1_545 S
C458 C457 1.398 . S
C458 C459 1.391 . S
C459 H447 0.955 . S
C459 C455 1.393 . S
C459 C458 1.391 . S
C460 H450 0.950 . S
C460 C461 1.386 1_565 S
C460 C462 1.391 1_565 S
C461 C460 1.386 1_545 S
C461 C465 1.393 . S
C462 H451 0.950 1_545 S
C462 C460 1.391 1_545 S
C462 C463 1.400 . S
C463 C457 1.491 . S
C463 C462 1.400 . S
C463 C464 1.398 . S
C464 H452 0.950 . S
C464 C463 1.398 . S
C464 C465 1.391 . S
C465 H453 0.950 . S
C465 C461 1.393 . S
C465 C464 1.391 . S
H466 C474 0.950 . S
H467 C479 0.950 . S
H468 C476 0.950 . S
H469 C478 0.950 . S
H470 C480 0.950 . S
H471 C482 0.950 . S
H472 C484 0.950 . S
H473 C485 0.950 . S
C474 H466 0.950 . S
C474 C475 1.386 . S
C474 C476 1.391 . S
C475 C474 1.386 . S
C475 C479 1.393 . S
C476 H468 0.950 . S
C476 C474 1.391 . S
C476 C477 1.400 . S
C477 C476 1.400 . S
C477 C478 1.398 . S
C477 C483 1.491 . S
C478 H469 0.950 . S
C478 C477 1.398 . S
C478 C479 1.391 . S
C479 H467 0.950 . S
C479 C475 1.393 . S
C479 C478 1.391 . S
C480 H470 0.950 . S
C480 C481 1.386 . S
C480 C482 1.391 . S
C481 C480 1.386 . S
C481 C485 1.393 . S
C482 H471 0.950 . S
C482 C480 1.391 . S
C482 C483 1.400 . S
C483 C477 1.491 . S
C483 C482 1.400 . S
C483 C484 1.398 . S
C484 H472 0.950 . S
C484 C483 1.398 . S
C484 C485 1.391 . S
C485 H473 0.950 . S
C485 C481 1.393 . S
C485 C484 1.391 . S
H486 C494 0.950 . S
H487 C499 0.950 . S
H488 C496 0.950 . S
H489 C498 0.950 1_565 S
H490 C500 0.950 1_565 S
H491 C502 0.950 1_565 S
H492 C504 0.950 . S
H493 C505 0.950 . S
C494 H486 0.950 . S
C494 C495 1.386 . S
C494 C496 1.391 . S
C495 C494 1.386 . S
C495 C499 1.393 . S
C496 H488 0.950 . S
C496 C494 1.391 . S
C496 C497 1.400 . S
C497 C496 1.400 . S
C497 C498 1.398 . S
C497 C503 1.491 . S
C498 H489 0.950 1_545 S
C498 C497 1.398 . S
C498 C499 1.391 . S
C499 H487 0.950 . S
C499 C495 1.393 . S
C499 C498 1.391 . S
C500 H490 0.950 1_545 S
C500 C501 1.386 . S
C500 C502 1.391 . S
C501 C500 1.386 . S
C501 C505 1.393 . S
C502 H491 0.950 1_545 S
C502 C500 1.391 . S
C502 C503 1.400 . S
C503 C497 1.491 . S
C503 C502 1.400 . S
C503 C504 1.398 . S
C504 H492 0.950 . S
C504 C503 1.398 . S
C504 C505 1.391 . S
C505 H493 0.950 . S
C505 C501 1.393 . S
C505 C504 1.391 . S
H506 C514 0.950 . S
H507 C519 0.950 . S
H508 C516 0.950 . S
H509 C518 0.950 . S
H510 C520 0.950 . S
H511 C522 0.950 1_556 S
H512 C524 0.950 1_556 S
H513 C525 0.950 . S
C514 H506 0.950 . S
C514 C515 1.386 . S
C514 C516 1.391 . S
C515 C514 1.386 . S
C515 C519 1.393 . S
C516 H508 0.950 . S
C516 C514 1.391 . S
C516 C517 1.400 . S
C517 C516 1.400 . S
C517 C518 1.398 . S
C517 C523 1.491 . S
C518 H509 0.950 . S
C518 C517 1.398 . S
C518 C519 1.391 . S
C519 H507 0.950 . S
C519 C515 1.393 . S
C519 C518 1.391 . S
C520 H510 0.950 . S
C520 C521 1.386 . S
C520 C522 1.391 . S
C521 C520 1.386 . S
C521 C525 1.393 . S
C522 H511 0.950 1_554 S
C522 C520 1.391 . S
C522 C523 1.400 1_554 S
C523 C517 1.491 . S
C523 C522 1.400 1_556 S
C523 C524 1.398 1_556 S
C524 H512 0.950 1_554 S
C524 C523 1.398 1_554 S
C524 C525 1.391 . S
C525 H513 0.950 . S
C525 C521 1.393 . S
C525 C524 1.391 . S
H526 C534 0.950 1_655 S
H527 C539 0.950 . S
H528 C536 0.949 . S
H529 C538 0.950 . S
H530 C540 0.950 . S
H531 C542 0.950 . S
H532 C544 0.950 . S
H533 C545 0.950 . S
C534 H526 0.950 1_455 S
C534 C535 1.386 . S
C534 C536 1.391 1_455 S
C535 C534 1.386 . S
C535 C539 1.393 . S
C536 H528 0.949 . S
C536 C534 1.391 1_655 S
C536 C537 1.401 1_655 S
C537 C536 1.401 1_455 S
C537 C538 1.398 . S
C537 C543 1.491 . S
C538 H529 0.950 . S
C538 C537 1.398 . S
C538 C539 1.391 . S
C539 H527 0.950 . S
C539 C535 1.393 . S
C539 C538 1.391 . S
C540 H530 0.950 . S
C540 C541 1.386 . S
C540 C542 1.391 . S
C541 C540 1.386 . S
C541 C545 1.393 1_455 S
C542 H531 0.950 . S
C542 C540 1.391 . S
C542 C543 1.400 . S
C543 C537 1.491 . S
C543 C542 1.400 . S
C543 C544 1.398 1_455 S
C544 H532 0.950 . S
C544 C543 1.398 1_655 S
C544 C545 1.391 . S
C545 H533 0.950 . S
C545 C541 1.393 1_655 S
C545 C544 1.391 . S
C195 C9 0.522 . S
C201 C180 0.701 . S
C215 C49 0.396 . S
C221 C158 0.603 . S
C235 C89 0.173 . S
C241 C172 0.293 . S
C255 C26 0.342 . S
C261 C183 0.258 . S
C281 C161 0.201 . S
C275 C66 0.349 . S
C301 C169 0.747 . S
C295 C106 0.542 . S
C315 C43 3.148 . S
C321 C136 2.798 . S
C335 C83 3.244 . S
C341 C147 2.883 . S
C355 C22 3.292 . S
C361 C125 2.927 . S
C381 C139 2.916 . S
C375 C62 2.996 . S
C401 C150 2.810 . S
C395 C102 2.886 . S
C415 C3 2.843 . S
C421 C128 2.779 . S
C441 C149 1.675 . S
C435 C15 1.686 . S
C455 C55 1.699 . S
C461 C127 1.679 . S
C475 C95 1.712 . S
C481 C138 1.682 . S
C501 C171 1.171 . S
C495 C42 1.214 . S
C521 C182 1.193 . S
C515 C82 1.216 . S
C535 C2 1.225 . S
C541 C160 1.175 . S
