# Generated by pormake.
# Topology rtl, (3,6)-cn, num edge types: 1
# Building blocks:
#     Node 0, Type 0, BuildingBlock: WUSLED_clean_sbu_0, # of connection points: 3
#     Node 1, Type 0, BuildingBlock: WUSLED_clean_sbu_0, # of connection points: 3
#     Node 2, Type 0, BuildingBlock: WUSLED_clean_sbu_0, # of connection points: 3
#     Node 3, Type 0, BuildingBlock: WUSLED_clean_sbu_0, # of connection points: 3
#     Node 4, Type 1, BuildingBlock: KUMBUR_clean_sbu_1, # of connection points: 6
#     Node 5, Type 1, BuildingBlock: KUMBUR_clean_sbu_1, # of connection points: 6
#     Edge 6, Type (0, 1), BuildingBlock: MIFKUJ_clean_linker_0, # of connection points: 2
#     Edge 7, Type (0, 1), BuildingBlock: MIFKUJ_clean_linker_0, # of connection points: 2
#     Edge 8, Type (0, 1), BuildingBlock: MIFKUJ_clean_linker_0, # of connection points: 2
#     Edge 9, Type (0, 1), BuildingBlock: MIFKUJ_clean_linker_0, # of connection points: 2
#     Edge 10, Type (0, 1), BuildingBlock: MIFKUJ_clean_linker_0, # of connection points: 2
#     Edge 11, Type (0, 1), BuildingBlock: MIFKUJ_clean_linker_0, # of connection points: 2
#     Edge 12, Type (0, 1), BuildingBlock: MIFKUJ_clean_linker_0, # of connection points: 2
#     Edge 13, Type (0, 1), BuildingBlock: MIFKUJ_clean_linker_0, # of connection points: 2
#     Edge 14, Type (0, 1), BuildingBlock: MIFKUJ_clean_linker_0, # of connection points: 2
#     Edge 15, Type (0, 1), BuildingBlock: MIFKUJ_clean_linker_0, # of connection points: 2
#     Edge 16, Type (0, 1), BuildingBlock: MIFKUJ_clean_linker_0, # of connection points: 2
#     Edge 17, Type (0, 1), BuildingBlock: MIFKUJ_clean_linker_0, # of connection points: 2
# Relax obj value: 0.016
# Max RMSD: 0.092
# Mean RMSD: 0.053
data_MOF--net-rtl--node1-WUSLED_clean_sbu_0--node2-KUMBUR_clean_sbu_1--edge1-MIFKUJ_clean_linker_0
_symmetry_space_group_name_H-M    P1
_symmetry_Int_Tables_number       1
_symmetry_cell_setting            triclinic
loop_
_symmetry_equiv_pos_as_xyz
'x, y, z'
_cell_length_a     52.128978
_cell_length_b     52.561492
_cell_length_c     44.173435
_cell_angle_alpha  82.806636
_cell_angle_beta   99.272666
_cell_angle_gamma 90.453826
loop_
_atom_site_label
_atom_site_type_symbol
_atom_site_fract_x
_atom_site_fract_y
_atom_site_fract_z
_atom_type_partial_charge
C0 C 0.18854 0.83098 0.10635 0.0
C1 C 0.19621 0.85498 0.11549 0.0
C2 C 0.16642 0.85118 0.15317 0.0
C3 C 0.18526 0.86495 0.13855 0.0
C4 C 0.1588 0.82717 0.14402 0.0
C5 C 0.16979 0.81717 0.12103 0.0
U6 U 0.19646 0.82656 0.02201 0.0
O7 O 0.23146 0.82153 1.00134 0.0
O8 O 0.20066 0.7928 0.99807 0.0
C9 C 0.22395 0.79935 0.99233 0.0
C10 C 0.20057 0.81973 0.08259 0.0
C11 C 0.2438 0.77869 0.99773 0.0
C12 C 0.28101 0.75513 0.0288 0.0
C13 C 0.2614 0.77392 0.02549 0.0
C14 C 0.26527 0.74546 0.97693 0.0
C15 C 0.28339 0.74088 1.00436 0.0
C16 C 0.24575 0.76414 0.97368 0.0
C17 C 0.15504 0.87162 0.95755 0.0
C18 C 0.15654 0.87157 0.90281 0.0
C19 C 0.12787 0.90128 0.91921 0.0
C20 C 0.13641 0.89142 0.95007 0.0
C21 C 0.13783 0.89152 0.89515 0.0
C22 C 0.16509 0.86171 0.93375 0.0
C23 C 0.16361 0.86158 0.99024 0.0
O24 O 0.18527 0.80599 0.06444 0.0
O25 O 0.21616 0.83453 0.06773 0.0
O26 O 0.18771 0.86658 1.00171 0.0
O27 O 0.15696 0.83789 0.99857 0.0
H28 H 0.21083 0.86605 0.10503 0.0
H29 H 0.19195 0.88329 0.14528 0.0
H30 H 0.14414 0.81613 0.15444 0.0
H31 H 0.16362 0.79854 0.11477 0.0
H32 H 0.2947 0.75221 0.05018 0.0
H33 H 0.26024 0.78496 0.04437 0.0
H34 H 0.26614 0.73456 0.95786 0.0
H35 H 0.23232 0.76747 0.95211 0.0
H36 H 0.16483 0.86378 0.88492 0.0
H37 H 0.11319 0.91635 0.9142 0.0
H38 H 0.12836 0.89922 0.96815 0.0
H39 H 0.17955 0.84643 0.93913 0.0
C40 C 0.68492 0.67475 0.68647 0.0
C41 C 0.66058 0.6637 0.67809 0.0
C42 C 0.65783 0.64992 0.73246 0.0
C43 C 0.64714 0.65149 0.70085 0.0
C44 C 0.6823 0.66092 0.74061 0.0
C45 C 0.69564 0.6732 0.71787 0.0
U46 U 0.69923 0.6887 0.60329 0.0
O47 O 0.70784 0.7251 0.57656 0.0
O48 O 0.7366 0.69364 0.58595 0.0
C49 C 0.73109 0.71738 0.57341 0.0
C50 C 0.69936 0.68805 0.66301 0.0
C51 C 0.75234 0.73613 0.57648 0.0
C52 C 0.77555 0.77074 0.6006 0.0
C53 C 0.75606 0.75206 0.60005 0.0
C54 C 0.78782 0.75754 0.5543 0.0
C55 C 0.79162 0.77384 0.57757 0.0
C56 C 0.76849 0.73895 0.55385 0.0
C57 C 0.65994 0.65388 0.53965 0.0
C58 C 0.67099 0.65226 0.4884 0.0
C59 C 0.62925 0.63691 0.49985 0.0
C60 C 0.63579 0.64311 0.52999 0.0
C61 C 0.64676 0.64133 0.47865 0.0
C62 C 0.67748 0.65856 0.51862 0.0
C63 C 0.66644 0.65959 0.57185 0.0
O64 O 0.71485 0.67355 0.65154 0.0
O65 O 0.686 0.70483 0.64186 0.0
O66 O 0.66053 0.68283 0.57671 0.0
O67 O 0.68937 0.65152 0.58676 0.0
H68 H 0.65198 0.66454 0.65396 0.0
H69 H 0.62851 0.643 0.69366 0.0
H70 H 0.69102 0.66043 0.76465 0.0
H71 H 0.71436 0.68162 0.72487 0.0
H72 H 0.77803 0.78272 0.61907 0.0
H73 H 0.74377 0.75024 0.61776 0.0
H74 H 0.79931 0.75955 0.53581 0.0
H75 H 0.76581 0.72702 0.53529 0.0
H76 H 0.68483 0.65613 0.47261 0.0
H77 H 0.61062 0.62818 0.49335 0.0
H78 H 0.62203 0.63927 0.5459 0.0
H79 H 0.69621 0.66698 0.5256 0.0
C80 C 0.84615 0.17691 0.12547 0.0
C81 C 0.85285 0.15078 0.12821 0.0
C82 C 0.87302 0.15177 0.18195 0.0
C83 C 0.86609 0.13831 0.15624 0.0
C84 C 0.86655 0.17801 0.17884 0.0
C85 C 0.85324 0.19039 0.15093 0.0
U86 U 0.82617 0.19175 0.03658 0.0
O87 O 0.78717 0.20041 1.00984 0.0
O88 O 0.81751 0.22948 1.00895 0.0
C89 C 0.7928 0.22435 1.00108 0.0
C90 C 0.83101 0.19047 0.09694 0.0
C91 C 0.77426 0.24386 1.0061 0.0
C92 C 0.75002 0.26385 0.03975 0.0
C93 C 0.76786 0.2453 0.03553 0.0
C94 C 0.74497 0.27986 0.98526 0.0
C95 C 0.73832 0.28138 0.01465 0.0
C96 C 0.76273 0.26128 0.98106 0.0
C97 C 0.85907 0.15497 0.98166 0.0
C98 C 0.87196 0.16719 0.93121 0.0
C99 C 0.86547 0.12246 0.94867 0.0
C100 C 0.85896 0.12922 0.97618 0.0
C101 C 0.87243 0.14131 0.92599 0.0
C102 C 0.86531 0.17396 0.9587 0.0
C103 C 0.85459 0.16109 0.0123 0.0
O104 O 0.84407 0.20622 0.07973 0.0
O105 O 0.81384 0.17695 0.08073 0.0
O106 O 0.83206 0.15446 0.02044 0.0
O107 O 0.86249 0.18355 0.02012 0.0
H108 H 0.84769 0.13999 0.10882 0.0
H109 H 0.87103 0.11817 0.15775 0.0
H110 H 0.87125 0.18889 0.19822 0.0
H111 H 0.84815 0.21051 0.14937 0.0
H112 H 0.74561 0.26464 0.06275 0.0
H113 H 0.77667 0.23209 0.0552 0.0
H114 H 0.73613 0.29278 0.96534 0.0
H115 H 0.76739 0.26045 0.95817 0.0
H116 H 0.87687 0.18224 0.91408 0.0
H117 H 0.86589 0.10235 0.94566 0.0
H118 H 0.85444 0.1142 0.99359 0.0
H119 H 0.86552 0.194 0.96217 0.0
C120 C 0.34501 0.3389 0.36541 0.0
C121 C 0.33246 0.35898 0.34427 0.0
C122 C 0.36987 0.36372 0.31712 0.0
C123 C 0.34475 0.37129 0.32056 0.0
C124 C 0.38243 0.34367 0.3383 0.0
C125 C 0.37017 0.3314 0.36206 0.0
U126 U 0.32974 0.32534 0.44869 0.0
O127 O 0.29269 0.31669 0.46548 0.0
O128 O 0.32488 0.28864 0.47733 0.0
C129 C 0.30057 0.29377 0.47915 0.0
C130 C 0.33121 0.32493 0.38946 0.0
C131 C 0.28187 0.2724 0.47677 0.0
C132 C 0.23998 0.25485 0.45656 0.0
C133 C 0.25876 0.27412 0.45515 0.0
C134 C 0.26737 0.23164 0.50061 0.0
C135 C 0.24383 0.23363 0.47977 0.0
C136 C 0.28608 0.25077 0.49913 0.0
C137 C 0.36459 0.3645 0.51081 0.0
C138 C 0.36591 0.35351 0.56622 0.0
C139 C 0.38254 0.39431 0.54637 0.0
C140 C 0.37607 0.38806 0.51621 0.0
C141 C 0.37773 0.37704 0.57181 0.0
C142 C 0.35934 0.34732 0.53599 0.0
C143 C 0.35891 0.35804 0.47888 0.0
O144 O 0.34535 0.30945 0.41148 0.0
O145 O 0.31382 0.33808 0.39982 0.0
O146 O 0.33532 0.36365 0.46402 0.0
O147 O 0.36726 0.33544 0.47462 0.0
H148 H 0.31293 0.36498 0.34578 0.0
H149 H 0.33429 0.38637 0.30445 0.0
H150 H 0.40186 0.33747 0.33664 0.0
H151 H 0.3804 0.31586 0.37764 0.0
H152 H 0.22204 0.25707 0.44021 0.0
H153 H 0.25486 0.29065 0.43774 0.0
H154 H 0.27123 0.21538 0.51843 0.0
H155 H 0.30364 0.24901 0.51618 0.0
H156 H 0.36161 0.33991 0.58522 0.0
H157 H 0.39188 0.41244 0.54978 0.0
H158 H 0.38032 0.40155 0.49708 0.0
H159 H 0.35035 0.32907 0.53229 0.0
Tb160 Tb 0.03524 0.98074 0.50925 0.0
C161 C 0.97939 0.08119 0.50142 0.0
N162 N 0.9998 0.07258 0.52342 0.0
C163 C 0.02101 0.11295 0.51464 0.0
C164 C 0.97969 0.10543 0.48378 0.0
C165 C 0.01955 0.08886 0.53174 0.0
C166 C 1.00127 0.12105 0.49005 0.0
C167 C 0.93525 0.07479 0.47658 0.0
C168 C 0.95744 0.06626 0.49798 0.0
C169 C 0.93593 0.09828 0.45767 0.0
C170 C 0.95812 0.11359 0.46127 0.0
Tb171 Tb 0.99619 0.03167 0.54744 0.0
N172 N 0.95781 0.04334 0.51603 0.0
C173 C 0.91301 0.05958 0.4752 0.0
C174 C 0.9357 0.02923 0.51633 0.0
C175 C 0.91311 0.03691 0.49554 0.0
H176 H 0.03416 0.08344 0.55175 0.0
H177 H 0.89582 0.02534 0.49515 0.0
H178 H 0.01398 0.92522 0.53744 0.0
H179 H 0.13363 0.01399 0.507 0.0
H180 H 0.93581 0.01169 0.53196 0.0
H181 H 0.89554 0.06543 0.45903 0.0
H182 H 0.08673 0.01284 0.48834 0.0
H183 H 0.03717 0.12539 0.52072 0.0
H184 H 0.91923 0.10503 0.44069 0.0
H185 H 0.95814 0.13199 0.44714 0.0
H186 H 0.03125 0.88739 0.57398 0.0
H187 H 1.00231 0.13981 0.47701 0.0
H188 H 0.15401 0.98192 0.54987 0.0
N189 N 0.04954 0.94538 0.54295 0.0
C190 C 0.07516 0.94438 0.55504 0.0
C191 C 0.04377 0.90339 0.56907 0.0
C192 C 0.086 0.92318 0.5757 0.0
C193 C 0.03399 0.92483 0.54851 0.0
C194 C 0.06982 0.90272 0.58311 0.0
N195 N 0.07952 0.98291 0.52316 0.0
C196 C 0.0949 0.99986 0.50841 0.0
C197 C 0.11769 0.96314 0.55554 0.0
C198 C 0.09065 0.96409 0.54514 0.0
C199 C 0.13314 0.98202 0.54256 0.0
C200 C 0.12173 1.00017 0.51845 0.0
H201 H 0.0774 0.88606 0.59891 0.0
H202 H 0.12144 0.90649 0.60303 0.0
H203 H 0.1493 0.94156 0.5853 0.0
O204 O 0.05542 0.96579 0.47738 0.0
O205 O 0.03227 0.97518 0.55886 0.0
O206 O 0.03331 0.01568 0.57302 0.0
O207 O 0.01503 0.95825 0.47739 0.0
O208 O 0.0458 0.02167 0.50234 0.0
O209 O 0.0379 0.03872 0.54591 0.0
O210 O 0.98052 0.02036 0.58816 0.0
O211 O 0.98274 0.01965 0.50148 0.0
O212 O 0.019 0.01519 0.47975 0.0
O213 O 0.98607 0.05993 0.57344 0.0
O214 O 0.98279 0.99183 0.55364 0.0
O215 O 0.99468 0.97099 0.51403 0.0
C216 C 0.03943 0.99116 0.57916 0.0
C217 C 0.02953 0.96237 0.42897 0.0
C218 C 0.04045 0.95724 0.37812 0.0
C219 C 0.01917 0.97325 0.36428 0.0
C220 C 0.00854 0.97843 0.41449 0.0
C221 C 1.00333 0.98361 0.38237 0.0
C222 C 0.04541 0.95174 0.41066 0.0
C223 C 0.0507 0.03839 0.52244 0.0
C224 C 0.03464 0.95619 0.463 0.0
C225 C 0.11272 0.92267 0.58724 0.0
C226 C 0.12855 0.94264 0.57718 0.0
C227 C 0.99529 0.02398 0.47796 0.0
C228 C 0.99132 0.04741 0.627 0.0
C229 C 0.98762 0.05977 0.67782 0.0
C230 C 0.01462 0.05589 0.68666 0.0
C231 C 0.01822 0.04434 0.63623 0.0
C232 C 0.97598 0.05508 0.64789 0.0
C233 C 0.02974 0.04822 0.66599 0.0
C234 C 0.9803 0.97321 0.53577 0.0
C235 C 0.97954 0.04355 0.59526 0.0
H236 H 0.01449 0.97744 0.33936 0.0
H237 H 0.99594 0.98675 0.42794 0.0
H238 H 0.98676 0.99552 0.37146 0.0
H239 H 0.06167 0.93939 0.42175 0.0
H240 H 0.02409 0.05882 0.70963 0.0
H241 H 0.0303 0.03922 0.62021 0.0
H242 H 0.95525 0.05805 0.64057 0.0
H243 H 0.05052 0.04554 0.67297 0.0
Tb244 Tb 0.48789 0.49163 0.99656 0.0
C245 C 0.577 0.56513 0.02571 0.0
N246 N 0.57558 0.54026 0.03795 0.0
C247 C 0.61891 0.53237 0.02937 0.0
C248 C 0.59902 0.57436 0.01328 0.0
C249 C 0.59648 0.52408 0.04118 0.0
C250 C 0.62003 0.55752 0.01491 0.0
C251 C 0.55743 0.60752 0.01502 0.0
C252 C 0.55645 0.58133 0.0265 0.0
C253 C 0.5787 0.61667 1.00107 0.0
C254 C 0.59948 0.60011 1.00024 0.0
Tb255 Tb 0.53821 0.52831 0.05608 0.0
N256 N 0.5365 0.57178 0.04067 0.0
C257 C 0.53759 0.62389 0.01913 0.0
C258 C 0.5187 0.58823 0.04757 0.0
C259 C 0.51846 0.61429 0.0361 0.0
H260 H 0.59564 0.50469 0.05241 0.0
H261 H 0.50381 0.62703 0.04087 0.0
H262 H 0.43471 0.52979 0.98575 0.0
H263 H 0.49905 0.39054 0.03586 0.0
H264 H 0.50481 0.58151 0.06234 0.0
H265 H 0.53758 0.64415 1.01065 0.0
H266 H 0.51136 0.43257 1.01075 0.0
H267 H 0.63525 0.51937 0.03134 0.0
H268 H 0.57965 0.63667 0.99177 0.0
H269 H 0.61607 0.60755 0.99017 0.0
H270 H 0.39386 0.53026 1.00675 0.0
H271 H 0.63736 0.56386 1.00567 0.0
H272 H 0.45853 0.38658 0.0585 0.0
N273 N 0.4474 0.49348 1.0106 0.0
C274 C 0.43968 0.47166 0.02645 0.0
C275 C 0.40672 0.51375 0.01279 0.0
C276 C 0.41566 0.47043 0.03735 0.0
C277 C 0.43041 0.51373 1.00176 0.0
C278 C 0.39949 0.49216 0.03111 0.0
N279 N 0.4785 0.45221 0.01992 0.0
C280 C 0.4938 0.43105 0.02084 0.0
C281 C 0.4477 0.4266 0.04523 0.0
C282 C 0.45543 0.45009 0.03055 0.0
C283 C 0.46381 0.40503 0.04747 0.0
C284 C 0.48678 0.40721 0.03486 0.0
H285 H 0.38095 0.49211 0.03925 0.0
H286 H 0.39005 0.44616 0.06214 0.0
H287 H 0.41808 0.4077 0.06888 0.0
O288 O 0.49685 0.47386 0.95908 0.0
O289 O 0.49881 0.47717 0.04612 0.0
O290 O 0.50244 0.51285 0.07085 0.0
O291 O 0.45876 0.4889 0.95815 0.0
O292 O 0.52868 0.47871 1.00345 0.0
O293 O 0.54817 0.48808 0.05237 0.0
O294 O 0.55281 0.54924 0.09277 0.0
O295 O 0.54598 0.5254 1.009 0.0
O296 O 0.50582 0.52718 0.97856 0.0
O297 O 0.55821 0.50859 0.09751 0.0
O298 O 0.49676 0.53961 0.04771 0.0
O299 O 0.4811 0.53297 0.99726 0.0
C300 C 0.49451 0.48926 0.06908 0.0
C301 C 0.46168 0.45342 0.93092 0.0
C302 C 0.44944 0.42932 0.88683 0.0
C303 C 0.43908 0.41016 0.90643 0.0
C304 C 0.45051 0.43431 0.9496 0.0
C305 C 0.43957 0.41273 0.93752 0.0
C306 C 0.46085 0.45099 0.89933 0.0
C307 C 0.54668 0.47476 0.0285 0.0
C308 C 0.47333 0.4763 0.94383 0.0
C309 C 0.4083 0.44739 0.05331 0.0
C310 C 0.42422 0.42547 0.05707 0.0
C311 C 0.53081 0.53219 0.98247 0.0
C312 C 0.55164 0.52692 0.14205 0.0
C313 C 0.55404 0.54037 0.19356 0.0
C314 C 0.53201 0.52554 0.19778 0.0
C315 C 0.52994 0.51204 0.14718 0.0
C316 C 0.56387 0.54092 0.1655 0.0
C317 C 0.5201 0.51155 0.17473 0.0
C318 C 0.481 0.54557 0.02128 0.0
C319 C 0.56059 0.52892 0.11174 0.0
H320 H 0.42989 0.39348 0.89748 0.0
H321 H 0.44976 0.43613 0.97339 0.0
H322 H 0.43107 0.3981 0.95223 0.0
H323 H 0.46898 0.46589 0.88455 0.0
H324 H 0.5241 0.52457 0.21911 0.0
H325 H 0.52048 0.5009 0.12981 0.0
H326 H 0.58054 0.55261 0.16166 0.0
H327 H 0.50304 0.50043 0.17812 0.0
H328 H 0.21247 0.21131 0.43424 0.0
H329 H 0.17937 0.17856 0.44064 0.0
H330 H 0.19506 0.17928 0.53944 0.0
H331 H 0.2282 0.2117 0.53321 0.0
H332 H 0.19158 0.13204 0.52802 0.0
H333 H 0.13931 0.20764 0.49254 0.0
H334 H 0.1234 0.24662 0.45769 0.0
H335 H 0.09994 0.20137 0.38373 0.0
H336 H 0.11605 0.16214 0.41804 0.0
H337 H 0.08076 0.06299 0.56626 0.0
H338 H 0.11314 0.09613 0.55833 0.0
H339 H 0.09871 0.0912 0.46031 0.0
H340 H 0.06582 0.05855 0.46808 0.0
H341 H 0.10146 0.14023 0.4707 0.0
H342 H 0.15611 0.06481 0.50686 0.0
H343 H 0.17281 0.0265 0.5426 0.0
H344 H 0.19019 0.07243 0.61691 0.0
H345 H 0.17408 0.11111 0.58149 0.0
C346 C 0.20871 0.20463 0.4573 0.0
C347 C 0.22314 0.21409 0.4832 0.0
C348 C 0.18973 0.1859 0.46095 0.0
C349 C 0.18446 0.17647 0.49055 0.0
C350 C 0.19876 0.18604 0.51637 0.0
C351 C 0.21781 0.20459 0.51276 0.0
C352 C 0.16456 0.15625 0.49488 0.0
C353 C 0.1718 0.13406 0.51571 0.0
C354 C 0.13878 0.15843 0.47848 0.0
C355 C 0.12916 0.18199 0.45777 0.0
C356 C 0.13097 0.20603 0.46877 0.0
C357 C 0.12187 0.22816 0.44913 0.0
C358 C 0.11074 0.22648 0.41849 0.0
C359 C 0.10861 0.20265 0.40745 0.0
C360 C 0.11771 0.18046 0.42699 0.0
C361 C 0.08447 0.06902 0.54302 0.0
C362 C 0.07077 0.0581 0.51781 0.0
C363 C 0.10315 0.08783 0.53852 0.0
C364 C 0.10871 0.09601 0.50873 0.0
C365 C 0.0949 0.0852 0.48352 0.0
C366 C 0.07621 0.06641 0.48801 0.0
C367 C 0.12855 0.11612 0.50379 0.0
C368 C 0.12128 0.13826 0.48289 0.0
C369 C 0.15425 0.11402 0.52027 0.0
C370 C 0.16369 0.09077 0.54162 0.0
C371 C 0.16335 0.06669 0.53087 0.0
C372 C 0.17274 0.04493 0.55104 0.0
C373 C 0.18228 0.04697 0.58205 0.0
C374 C 0.18272 0.07085 0.5929 0.0
C375 C 0.1736 0.09272 0.57276 0.0
H376 H 0.18947 0.03008 0.59762 0.0
H377 H 0.10369 0.24364 0.40333 0.0
H378 H 0.30272 0.70573 0.05424 0.0
H379 H 0.33691 0.67335 0.05743 0.0
H380 H 0.34667 0.69999 0.96363 0.0
H381 H 0.31265 0.73233 0.96031 0.0
H382 H 0.34508 0.64934 0.97177 0.0
H383 H 0.39115 0.71352 0.02629 0.0
H384 H 0.39934 0.74311 0.06582 0.0
H385 H 0.40354 0.6795 0.13771 0.0
H386 H 0.39501 0.64954 0.09858 0.0
H387 H 0.46128 0.57948 0.97103 0.0
H388 H 0.42851 0.61324 0.96811 0.0
H389 H 0.4224 0.59059 0.06404 0.0
H390 H 0.45594 0.55762 0.06724 0.0
H391 H 0.42214 0.63963 0.0545 0.0
H392 H 0.37386 0.57564 0.99936 0.0
H393 H 0.36479 0.5465 0.95922 0.0
H394 H 0.36503 0.61021 0.88829 0.0
H395 H 0.37403 0.6397 0.92792 0.0
C396 C 0.31235 0.70489 0.03441 0.0
C397 C 0.3048 0.72162 1.00698 0.0
C398 C 0.33191 0.68633 0.03625 0.0
C399 C 0.34455 0.68426 1.01082 0.0
C400 C 0.33717 0.70106 0.98352 0.0
C401 C 0.31761 0.71953 0.98164 0.0
C402 C 0.36504 0.66427 0.01226 0.0
C403 C 0.36208 0.64743 0.98967 0.0
C404 C 0.38702 0.66134 0.03592 0.0
C405 C 0.39217 0.67931 0.05949 0.0
C406 C 0.3936 0.70586 0.05052 0.0
C407 C 0.39835 0.72269 0.07286 0.0
C408 C 0.40189 0.7132 0.10426 0.0
C409 C 0.40076 0.68683 0.11338 0.0
C410 C 0.39599 0.66992 0.09114 0.0
C411 C 0.45287 0.58176 0.99143 0.0
C412 C 0.46112 0.56597 0.01934 0.0
C413 C 0.43399 0.60094 0.98973 0.0
C414 C 0.42248 0.60429 0.01571 0.0
C415 C 0.43088 0.58849 0.04363 0.0
C416 C 0.45005 0.56964 0.04546 0.0
C417 C 0.40211 0.6245 0.01411 0.0
C418 C 0.4051 0.64145 0.03664 0.0
C419 C 0.38014 0.62754 0.99038 0.0
C420 C 0.37488 0.6098 0.96659 0.0
C421 C 0.37216 0.58337 0.9752 0.0
C422 C 0.367 0.56682 0.95257 0.0
C423 C 0.36452 0.57648 0.92128 0.0
C424 C 0.36702 0.60274 0.91254 0.0
C425 C 0.37207 0.61939 0.93506 0.0
H426 H 0.36055 0.56362 0.90382 0.0
H427 H 0.40556 0.72626 0.12152 0.0
H428 H 0.78902 0.82304 0.59252 0.0
H429 H 0.8209 0.85708 0.58814 0.0
H430 H 0.87124 0.80572 0.55527 0.0
H431 H 0.84018 0.77125 0.56122 0.0
H432 H 0.89996 0.83341 0.59096 0.0
H433 H 0.83126 0.85215 0.50571 0.0
H434 H 0.7862 0.86016 0.47909 0.0
H435 H 0.78082 0.92589 0.52659 0.0
H436 H 0.82576 0.91805 0.55385 0.0
H437 H 0.97062 0.92937 0.50788 0.0
H438 H 0.93861 0.89634 0.51752 0.0
H439 H 0.91057 0.94 0.582 0.0
H440 H 0.94329 0.97268 0.57373 0.0
H441 H 0.87089 0.91742 0.53138 0.0
H442 H 0.94271 0.89687 0.61552 0.0
H443 H 0.98924 0.88902 0.6358 0.0
H444 H 0.98959 0.82569 0.58318 0.0
H445 H 0.94314 0.83351 0.56208 0.0
C446 C 0.80706 0.81879 0.5849 0.0
C447 C 0.81178 0.79432 0.57695 0.0
C448 C 0.8252 0.83844 0.582 0.0
C449 C 0.84836 0.83426 0.57072 0.0
C450 C 0.85351 0.80962 0.56381 0.0
C451 C 0.83552 0.78993 0.56693 0.0
C452 C 0.86699 0.85556 0.56548 0.0
C453 C 0.8935 0.85167 0.57774 0.0
C454 C 0.85883 0.8796 0.54832 0.0
C455 C 0.83176 0.88433 0.5321 0.0
C456 C 0.82039 0.86818 0.51069 0.0
C457 C 0.79488 0.87271 0.49545 0.0
C458 C 0.78062 0.89348 0.50122 0.0
C459 C 0.79187 0.90978 0.5222 0.0
C460 C 0.81736 0.90531 0.53754 0.0
C461 C 0.95783 0.93199 0.52429 0.0
C462 C 0.9599 0.95367 0.5403 0.0
C463 C 0.93943 0.91309 0.52963 0.0
C464 C 0.92228 0.91571 0.55051 0.0
C465 C 0.92364 0.93764 0.56578 0.0
C466 C 0.94243 0.95628 0.56102 0.0
C467 C 0.90348 0.89514 0.55702 0.0
C468 C 0.87709 0.89918 0.54484 0.0
C469 C 0.91179 0.87111 0.57368 0.0
C470 C 0.93951 0.86593 0.587 0.0
C471 C 0.95276 0.8814 0.60808 0.0
C472 C 0.97911 0.87694 0.61975 0.0
C473 C 0.99238 0.8569 0.61075 0.0
C474 C 0.97929 0.84122 0.59012 0.0
C475 C 0.95294 0.84565 0.57831 0.0
H476 H 0.01279 0.8535 0.61978 0.0
H477 H 0.76089 0.89697 0.48938 0.0
H478 H 0.73381 0.33179 0.98898 0.0
H479 H 0.70168 0.36368 0.99478 0.0
H480 H 0.66762 0.30791 0.05625 0.0
H481 H 0.6993 0.27565 0.04988 0.0
H482 H 0.6305 0.33356 0.01593 0.0
H483 H 0.70529 0.3557 0.08428 0.0
H484 H 0.75119 0.36649 0.10025 0.0
H485 H 0.74247 0.43371 0.03319 0.0
H486 H 0.69658 0.42313 0.0165 0.0
H487 H 0.5848 0.45669 0.07688 0.0
H488 H 0.6174 0.42317 0.07807 0.0
H489 H 0.5869 0.41372 0.98349 0.0
H490 H 0.55418 0.44688 0.98214 0.0
H491 H 0.65624 0.41907 0.04626 0.0
H492 H 0.59091 0.35309 0.97186 0.0
H493 H 0.54474 0.34103 0.96168 0.0
H494 H 0.53474 0.35822 0.05161 0.0
H495 H 0.58075 0.37046 0.06223 0.0
C496 C 0.71941 0.32622 1.0036 0.0
C497 C 0.71919 0.30109 0.01895 0.0
C498 C 0.70117 0.34458 1.00713 0.0
C499 C 0.68232 0.33832 0.02619 0.0
C500 C 0.68199 0.31325 0.04148 0.0
C501 C 0.70027 0.29487 0.03802 0.0
C502 C 0.66271 0.35781 0.02967 0.0
C503 C 0.63618 0.35223 0.02259 0.0
C504 C 0.66997 0.38204 0.03901 0.0
C505 C 0.69756 0.38849 0.04895 0.0
C506 C 0.71322 0.37267 0.07276 0.0
C507 C 0.73922 0.37877 0.08197 0.0
C508 C 0.74976 0.40074 0.06769 0.0
C509 C 0.73429 0.41668 0.0442 0.0
C510 C 0.70827 0.41066 0.03488 0.0
C511 C 0.58498 0.44748 0.05631 0.0
C512 C 0.56669 0.45449 0.02947 0.0
C513 C 0.60371 0.42834 0.05702 0.0
C514 C 0.60447 0.41566 0.031 0.0
C515 C 0.58645 0.42285 1.00407 0.0
C516 C 0.56775 0.44193 1.00333 0.0
C517 C 0.62411 0.39501 0.0318 0.0
C518 C 0.65061 0.40038 0.03965 0.0
C519 C 0.61684 0.37038 0.02387 0.0
C520 C 0.5892 0.36285 0.01772 0.0
C521 C 0.57884 0.35424 0.98946 0.0
C522 C 0.55268 0.34747 0.98357 0.0
C523 C 0.53676 0.34901 1.00591 0.0
C524 C 0.547 0.35726 0.03421 0.0
C525 C 0.57309 0.36418 0.04013 0.0
H526 H 0.51652 0.34374 1.00133 0.0
H527 H 0.7699 0.40543 0.07486 0.0
H528 H 0.15405 0.82525 0.20682 0.0
H529 H 0.13462 0.84248 0.24688 0.0
H530 H 0.13356 0.91825 0.19632 0.0
H531 H 0.15266 0.90114 0.1559 0.0
H532 H 0.15052 0.91939 0.25737 0.0
H533 H 0.07834 0.88355 0.19551 0.0
H534 H 0.05414 0.84984 0.16928 0.0
H535 H 0.05648 0.80276 0.25647 0.0
H536 H 0.08103 0.83606 0.28318 0.0
H537 H 0.05935 0.98145 0.32796 0.0
H538 H 0.08312 0.96249 0.29275 0.0
H539 H 0.08253 0.88882 0.34795 0.0
H540 H 0.0583 0.90766 0.38309 0.0
H541 H 0.06778 0.88521 0.28675 0.0
H542 H 0.13818 0.92234 0.34894 0.0
H543 H 0.16193 0.95645 0.37484 0.0
H544 H 0.16261 1.0015 0.2869 0.0
H545 H 0.13852 0.96781 0.26048 0.0
C546 C 0.14945 0.84554 0.20399 0.0
C547 C 0.15485 0.86174 0.17793 0.0
C548 C 0.13841 0.85539 0.22703 0.0
C549 C 0.13239 0.88165 0.22454 0.0
C550 C 0.13808 0.89794 0.19883 0.0
C551 C 0.1491 0.88811 0.17575 0.0
C552 C 0.12001 0.89213 0.24862 0.0
C553 C 0.13228 0.9121 0.26354 0.0
C554 C 0.09653 0.88223 0.2573 0.0
C555 C 0.08177 0.86218 0.2413 0.0
C556 C 0.07389 0.86591 0.20906 0.0
C557 C 0.06007 0.8469 0.19411 0.0
C558 C 0.05384 0.82414 0.21118 0.0
C559 C 0.06136 0.82038 0.24326 0.0
C560 C 0.07521 0.83932 0.25832 0.0
C561 C 0.06434 0.96122 0.33267 0.0
C562 C 0.05686 0.94605 0.3583 0.0
C563 C 0.07811 0.95044 0.31264 0.0
C564 C 0.08478 0.92424 0.31775 0.0
C565 C 0.07765 0.90909 0.34355 0.0
C566 C 0.06399 0.91991 0.36375 0.0
C567 C 0.09821 0.91256 0.29541 0.0
C568 C 0.08611 0.89238 0.28075 0.0
C569 C 0.12181 0.92232 0.28694 0.0
C570 C 0.13632 0.94263 0.30274 0.0
C571 C 0.1432 0.93961 0.33513 0.0
C572 C 0.15676 0.95886 0.34991 0.0
C573 C 0.16372 0.98115 0.33253 0.0
C574 C 0.15718 0.98423 0.30033 0.0
C575 C 0.14359 0.96505 0.28544 0.0
H576 H 0.17423 0.99603 0.34402 0.0
H577 H 0.04313 0.80945 0.19957 0.0
H578 H 0.60554 0.65216 0.73525 0.0
H579 H 0.58261 0.63177 0.77592 0.0
H580 H 0.65484 0.59854 0.82611 0.0
H581 H 0.67777 0.61831 0.78521 0.0
H582 H 0.61652 0.56398 0.82665 0.0
H583 H 0.62768 0.65141 0.84742 0.0
H584 H 0.62398 0.69844 0.83513 0.0
H585 H 0.54082 0.69325 0.81618 0.0
H586 H 0.54405 0.64613 0.82797 0.0
H587 H 0.58124 0.52869 0.97366 0.0
H588 H 0.60121 0.54903 0.93065 0.0
H589 H 0.52686 0.58156 0.88626 0.0
H590 H 0.50698 0.5621 0.93025 0.0
H591 H 0.56431 0.61627 0.88106 0.0
H592 H 0.55286 0.52899 0.86208 0.0
H593 H 0.55643 0.48202 0.87514 0.0
H594 H 0.63969 0.48675 0.89057 0.0
H595 H 0.63662 0.53382 0.87804 0.0
C596 C 0.61653 0.64031 0.75477 0.0
C597 C 0.64359 0.63703 0.75692 0.0
C598 C 0.60341 0.62883 0.7782 0.0
C599 C 0.61699 0.61382 0.80438 0.0
C600 C 0.64389 0.61009 0.80627 0.0
C601 C 0.65703 0.62161 0.78293 0.0
C602 C 0.60331 0.6021 0.8299 0.0
C603 C 0.60534 0.57548 0.83874 0.0
C604 C 0.58811 0.61691 0.84528 0.0
C605 C 0.58613 0.64523 0.83825 0.0
C606 C 0.60862 0.66028 0.84039 0.0
C607 C 0.6066 0.68696 0.83356 0.0
C608 C 0.58218 0.69882 0.82479 0.0
C609 C 0.55972 0.68403 0.82292 0.0
C610 C 0.56163 0.65734 0.8297 0.0
C611 C 0.5692 0.54052 0.95504 0.0
C612 C 0.54259 0.54404 0.95566 0.0
C613 C 0.58059 0.55188 0.93016 0.0
C614 C 0.56554 0.56664 0.90487 0.0
C615 C 0.53892 0.57025 0.90542 0.0
C616 C 0.52753 0.55897 0.93048 0.0
C617 C 0.57767 0.57817 0.87795 0.0
C618 C 0.57536 0.60475 0.86885 0.0
C619 C 0.59256 0.56331 0.86227 0.0
C620 C 0.5945 0.53496 0.86935 0.0
C621 C 0.57193 0.52003 0.86843 0.0
C622 C 0.57387 0.49339 0.87573 0.0
C623 C 0.59827 0.48141 0.88375 0.0
C624 C 0.6208 0.49606 0.88438 0.0
C625 C 0.61897 0.52272 0.87715 0.0
H626 H 0.59973 0.46078 0.88941 0.0
H627 H 0.58067 0.71948 0.81952 0.0
H628 H 0.86303 0.1043 0.21093 0.0
H629 H 0.88404 0.08348 0.26144 0.0
H630 H 0.93393 0.14867 0.27213 0.0
H631 H 0.9134 0.16937 0.2214 0.0
H632 H 0.96078 0.10349 0.28942 0.0
H633 H 0.88205 0.14079 0.30953 0.0
H634 H 0.8347 0.14848 0.30183 0.0
H635 H 0.82237 0.06806 0.32545 0.0
H636 H 0.86964 0.05984 0.33288 0.0
H637 H 0.01252 0.06659 0.44671 0.0
H638 H 0.99154 0.09031 0.39794 0.0
H639 H 0.92943 0.03528 0.39327 0.0
H640 H 0.94929 0.0132 0.44369 0.0
H641 H 0.90885 0.07705 0.37254 0.0
H642 H 0.98568 0.03826 0.34768 0.0
H643 H 0.03278 0.02879 0.35403 0.0
H644 H 0.04819 0.10924 0.33724 0.0
H645 H 1.00127 0.11908 0.33115 0.0
C646 C 0.87867 0.11409 0.22387 0.0
C647 C 0.88645 0.13857 0.21213 0.0
C648 C 0.8905 0.10227 0.25288 0.0
C649 C 0.91035 0.11465 0.27079 0.0
C650 C 0.91857 0.1388 0.25883 0.0
C651 C 0.90669 0.15068 0.2299 0.0
C652 C 0.92256 0.10248 0.30199 0.0
C653 C 0.94948 0.09792 0.30773 0.0
C654 C 0.90778 0.09472 0.32569 0.0
C655 C 0.87937 0.09968 0.32149 0.0
C656 C 0.86923 0.12473 0.31286 0.0
C657 C 0.84241 0.12918 0.30858 0.0
C658 C 0.82554 0.10876 0.31308 0.0
C659 C 0.83546 0.08385 0.32195 0.0
C660 C 0.86227 0.07929 0.32623 0.0
C661 C 0.99436 0.0597 0.43513 0.0
C662 C 0.98254 0.03804 0.44856 0.0
C663 C 0.98246 0.07308 0.40707 0.0
C664 C 0.95924 0.06421 0.39101 0.0
C665 C 0.94736 0.04259 0.40486 0.0
C666 C 0.95873 0.02986 0.43358 0.0
C667 C 0.9472 0.0774 0.36 0.0
C668 C 0.92026 0.08238 0.35429 0.0
C669 C 0.96193 0.0852 0.33612 0.0
C670 C 0.99008 0.07934 0.33936 0.0
C671 C 0.9992 0.05385 0.3456 0.0
C672 C 0.02581 0.04844 0.3491 0.0
C673 C 0.04345 0.0684 0.34617 0.0
C674 C 0.03451 0.0938 0.33957 0.0
C675 C 1.00791 0.09929 0.33604 0.0
H676 H 0.06405 0.06418 0.34892 0.0
H677 H 0.80478 0.11225 0.30974 0.0
H678 H 0.3727 0.42318 0.59352 0.0
H679 H 0.38648 0.43377 0.64601 0.0
H680 H 0.41419 0.3561 0.67546 0.0
H681 H 0.4004 0.34536 0.62305 0.0
H682 H 0.38819 0.37177 0.71662 0.0
H683 H 0.45605 0.40677 0.66241 0.0
H684 H 0.47403 0.43335 0.62092 0.0
H685 H 0.44238 0.50114 0.64675 0.0
H686 H 0.4239 0.47491 0.68815 0.0
H687 H 0.46069 0.3872 0.86078 0.0
H688 H 0.45041 0.38041 0.80645 0.0
H689 H 0.42174 0.45829 0.7827 0.0
H690 H 0.43232 0.46527 0.83723 0.0
H691 H 0.44738 0.44399 0.73841 0.0
H692 H 0.37991 0.40935 0.79268 0.0
H693 H 0.36184 0.38303 0.83429 0.0
H694 H 0.39223 0.31481 0.80801 0.0
H695 H 0.41084 0.34078 0.76652 0.0
C696 C 0.3819 0.40838 0.61111 0.0
C697 C 0.3855 0.38341 0.60399 0.0
C698 C 0.38979 0.41448 0.64115 0.0
C699 C 0.40173 0.39584 0.6647 0.0
C700 C 0.40503 0.37083 0.65774 0.0
C701 C 0.39704 0.36469 0.62775 0.0
C702 C 0.41048 0.40223 0.69668 0.0
C703 C 0.40141 0.38735 0.72136 0.0
C704 C 0.42716 0.42303 0.70294 0.0
C705 C 0.43838 0.43884 0.67818 0.0
C706 C 0.45276 0.42732 0.6591 0.0
C707 C 0.46307 0.44233 0.63562 0.0
C708 C 0.45929 0.46891 0.63115 0.0
C709 C 0.44526 0.48055 0.65021 0.0
C710 C 0.43489 0.46562 0.6737 0.0
C711 C 0.45247 0.40298 0.84393 0.0
C712 C 0.44704 0.42669 0.85333 0.0
C713 C 0.44653 0.39906 0.81288 0.0
C714 C 0.43471 0.41864 0.79054 0.0
C715 C 0.4307 0.44284 0.79953 0.0
C716 C 0.43683 0.44684 0.83068 0.0
C717 C 0.42533 0.4133 0.75828 0.0
C718 C 0.43417 0.42841 0.7336 0.0
C719 C 0.40837 0.39274 0.75194 0.0
C720 C 0.39697 0.37704 0.77667 0.0
C721 C 0.38289 0.38875 0.79591 0.0
C722 C 0.37254 0.37389 0.81946 0.0
C723 C 0.37594 0.34727 0.82384 0.0
C724 C 0.38964 0.33544 0.80461 0.0
C725 C 0.40008 0.35022 0.78106 0.0
H726 H 0.36791 0.3358 0.84208 0.0
H727 H 0.46728 0.48049 0.61295 0.0
H728 H 0.59994 0.64818 0.44018 0.0
H729 H 0.58724 0.63337 0.38972 0.0
H730 H 0.66472 0.60352 0.39399 0.0
H731 H 0.67761 0.61826 0.44471 0.0
H732 H 0.6449 0.6263 0.33549 0.0
H733 H 0.61731 0.56353 0.41154 0.0
H734 H 0.59553 0.54807 0.45583 0.0
H735 H 0.52213 0.57597 0.40415 0.0
H736 H 0.54354 0.59195 0.35969 0.0
H737 H 0.60569 0.54266 0.21849 0.0
H738 H 0.62441 0.56239 0.26451 0.0
H739 H 0.54842 0.59092 0.27129 0.0
H740 H 0.52974 0.57103 0.2258 0.0
H741 H 0.57013 0.56731 0.32493 0.0
H742 H 0.59794 0.63066 0.24881 0.0
H743 H 0.61992 0.64614 0.20469 0.0
H744 H 0.69291 0.61682 0.25606 0.0
H745 H 0.67129 0.60085 0.30036 0.0
C746 C 0.61431 0.63843 0.43046 0.0
C747 C 0.63972 0.63413 0.44675 0.0
C748 C 0.60704 0.63004 0.40152 0.0
C749 C 0.6249 0.61694 0.38823 0.0
C750 C 0.65059 0.61353 0.40378 0.0
C751 C 0.65793 0.62201 0.43277 0.0
C752 C 0.6163 0.60585 0.35887 0.0
C753 C 0.62877 0.61314 0.33325 0.0
C754 C 0.59505 0.58891 0.35578 0.0
C755 C 0.58207 0.57913 0.38239 0.0
C756 C 0.59655 0.56653 0.4097 0.0
C757 C 0.58427 0.55765 0.43483 0.0
C758 C 0.55747 0.56109 0.43283 0.0
C759 C 0.54289 0.57335 0.40568 0.0
C760 C 0.55509 0.5823 0.38049 0.0
C761 C 0.59313 0.55357 0.22951 0.0
C762 C 0.56622 0.55512 0.21869 0.0
C763 C 0.60382 0.56484 0.25582 0.0
C764 C 0.58784 0.57816 0.27151 0.0
C765 C 0.56115 0.58058 0.25985 0.0
C766 C 0.55048 0.56921 0.2338 0.0
C767 C 0.59829 0.58818 0.30115 0.0
C768 C 0.58626 0.5805 0.32702 0.0
C769 C 0.61992 0.60469 0.30436 0.0
C770 C 0.63294 0.61432 0.27778 0.0
C771 C 0.61864 0.62732 0.25061 0.0
C772 C 0.63104 0.63623 0.22558 0.0
C773 C 0.65778 0.6324 0.22754 0.0
C774 C 0.67219 0.61973 0.25456 0.0
C775 C 0.65988 0.61077 0.27964 0.0
H776 H 0.66735 0.63931 0.20814 0.0
H777 H 0.54799 0.55421 0.45231 0.0
H778 H 0.91312 0.16052 0.89829 0.0
H779 H 0.92859 0.14716 0.85333 0.0
H780 H 0.86731 0.09164 0.84462 0.0
H781 H 0.85182 0.10484 0.88983 0.0
H782 H 0.9114 0.07051 0.83794 0.0
H783 H 0.86573 0.14818 0.79382 0.0
H784 H 0.85374 0.19394 0.78939 0.0
H785 H 0.93196 0.21502 0.77938 0.0
H786 H 0.94452 0.16937 0.78417 0.0
H787 H 0.94028 0.04292 0.6919 0.0
H788 H 0.9167 0.05711 0.73081 0.0
H789 H 0.97673 0.11191 0.75263 0.0
H790 H 1.00004 0.09816 0.71366 0.0
H791 H 0.92901 0.13274 0.74982 0.0
H792 H 0.97499 0.05496 0.79772 0.0
H793 H 0.98692 0.00922 0.80216 0.0
H794 H 0.90744 0.98838 0.80472 0.0
H795 H 0.89492 0.03409 0.79976 0.0
C796 C 0.90267 0.14573 0.88656 0.0
C797 C 0.88112 0.13387 0.89766 0.0
C798 C 0.91156 0.13807 0.8608 0.0
C799 C 0.89895 0.11858 0.84519 0.0
C800 C 0.87741 0.10671 0.85619 0.0
C801 C 0.86858 0.11426 0.88209 0.0
C802 C 0.90874 0.11016 0.818 0.0
C803 C 0.91477 0.08409 0.81841 0.0
C804 C 0.9136 0.12783 0.79263 0.0
C805 C 0.9061 0.15533 0.7896 0.0
C806 C 0.88042 0.16256 0.79089 0.0
C807 C 0.87352 0.18849 0.78828 0.0
C808 C 0.89209 0.20737 0.78417 0.0
C809 C 0.9176 0.20037 0.78258 0.0
C810 C 0.92461 0.17447 0.78521 0.0
C811 C 0.94826 0.05819 0.70476 0.0
C812 C 0.97216 0.06924 0.69986 0.0
C813 C 0.93487 0.06617 0.72714 0.0
C814 C 0.94508 0.08541 0.74495 0.0
C815 C 0.96848 0.097 0.73932 0.0
C816 C 0.98189 0.08897 0.71716 0.0
C817 C 0.93193 0.09321 0.77 0.0
C818 C 0.92531 0.11916 0.76919 0.0
C819 C 0.92647 0.07543 0.79494 0.0
C820 C 0.93397 0.04795 0.79799 0.0
C821 C 0.96001 0.04064 0.79895 0.0
C822 C 0.96689 0.01471 0.80162 0.0
C823 C 0.94796 0.9959 0.80365 0.0
C824 C 0.92209 1.00298 0.80309 0.0
C825 C 0.91508 0.02889 0.80035 0.0
H826 H 0.95335 0.97583 0.80574 0.0
H827 H 0.88671 0.22743 0.78216 0.0
H828 H 0.36973 0.41492 0.29452 0.0
H829 H 0.39038 0.43543 0.25199 0.0
H830 H 0.41985 0.36194 0.23855 0.0
H831 H 0.39924 0.34129 0.28106 0.0
H832 H 0.45667 0.39687 0.23559 0.0
H833 H 0.36729 0.39215 0.1892 0.0
H834 H 0.31995 0.39877 0.18432 0.0
H835 H 0.33051 0.48025 0.17806 0.0
H836 H 0.37797 0.4741 0.18334 0.0
H837 H 0.49664 0.43824 0.09117 0.0
H838 H 0.47474 0.41627 0.13188 0.0
H839 H 0.44267 0.48859 0.14565 0.0
H840 H 0.46359 0.51036 0.10385 0.0
H841 H 0.40681 0.45326 0.14765 0.0
H842 H 0.49548 0.45816 0.19802 0.0
H843 H 0.54299 0.45263 0.20239 0.0
H844 H 0.53355 0.37142 0.20175 0.0
H845 H 0.48596 0.3767 0.19677 0.0
C846 C 0.3804 0.40305 0.28237 0.0
C847 C 0.3827 0.37638 0.29128 0.0
C848 C 0.39224 0.41484 0.25799 0.0
C849 C 0.40646 0.40025 0.24166 0.0
C850 C 0.40903 0.37367 0.25072 0.0
C851 C 0.39727 0.36188 0.27516 0.0
C852 C 0.41887 0.41269 0.21541 0.0
C853 C 0.44564 0.4089 0.21617 0.0
C854 C 0.40474 0.42888 0.19025 0.0
C855 C 0.37621 0.43264 0.18696 0.0
C856 C 0.35954 0.41147 0.18702 0.0
C857 C 0.33268 0.41514 0.18414 0.0
C858 C 0.32224 0.43991 0.18096 0.0
C859 C 0.33863 0.46107 0.18057 0.0
C860 C 0.36551 0.45751 0.18347 0.0
C861 C 0.48466 0.44937 0.10266 0.0
C862 C 0.4816 0.47595 0.09411 0.0
C863 C 0.47239 0.43685 0.12622 0.0
C864 C 0.45725 0.45075 0.14229 0.0
C865 C 0.45419 0.47737 0.13369 0.0
C866 C 0.46627 0.48984 0.10992 0.0
C867 C 0.44461 0.43762 0.168 0.0
C868 C 0.4178 0.44121 0.16708 0.0
C869 C 0.45868 0.42131 0.19307 0.0
C870 C 0.48724 0.41791 0.1966 0.0
C871 C 0.5036 0.43922 0.19849 0.0
C872 C 0.53051 0.43611 0.20114 0.0
C873 C 0.54129 0.41169 0.20224 0.0
C874 C 0.52517 0.39033 0.20083 0.0
C875 C 0.49824 0.39338 0.1981 0.0
H876 H 0.56212 0.40929 0.20429 0.0
H877 H 0.30144 0.44272 0.17874 0.0
H878 H 0.12811 0.94183 0.87101 0.0
H879 H 0.11252 0.95915 0.81728 0.0
H880 H 0.11125 0.8828 0.79096 0.0
H881 H 0.12678 0.86531 0.84471 0.0
H882 H 0.13262 0.91528 0.75127 0.0
H883 H 0.0546 0.9149 0.79651 0.0
H884 H 0.02689 0.92498 0.83384 0.0
H885 H 0.03671 0.00553 0.80785 0.0
H886 H 0.0646 0.99592 0.77051 0.0
H887 H 0.03893 0.94223 0.60868 0.0
H888 H 0.05955 0.926 0.66124 0.0
H889 H 0.08845 1.00148 0.67467 0.0
H890 H 0.06973 0.01737 0.62115 0.0
H891 H 0.05396 0.97088 0.72034 0.0
H892 H 0.1323 0.97169 0.67633 0.0
H893 H 0.16293 0.96222 0.64204 0.0
H894 H 0.1535 0.88146 0.66682 0.0
H895 H 0.12247 0.89046 0.70094 0.0
C896 C 0.12427 0.92866 0.85386 0.0
C897 C 0.12863 0.90213 0.86227 0.0
C898 C 0.11534 0.93862 0.82311 0.0
C899 C 0.11036 0.92227 0.80006 0.0
C900 C 0.11494 0.89581 0.80831 0.0
C901 C 0.12393 0.88584 0.83906 0.0
C902 C 0.10093 0.93277 0.76726 0.0
C903 C 0.11519 0.92712 0.74449 0.0
C904 C 0.07861 0.94888 0.75843 0.0
C905 C 0.0619 0.95468 0.78095 0.0
C906 C 0.051 0.93476 0.79893 0.0
C907 C 0.0352 0.94039 0.82003 0.0
C908 C 0.03006 0.96588 0.82325 0.0
C909 C 0.04068 0.98579 0.80533 0.0
C910 C 0.05645 0.98027 0.78416 0.0
C911 C 0.05032 0.95521 0.62242 0.0
C912 C 0.05262 0.98111 0.61067 0.0
C913 C 0.06192 0.94595 0.65257 0.0
C914 C 0.07554 0.96254 0.67176 0.0
C915 C 0.07802 0.98837 0.66015 0.0
C916 C 0.06705 0.99747 0.6297 0.0
C917 C 0.0856 0.95319 0.70456 0.0
C918 C 0.07136 0.95899 0.72723 0.0
C919 C 0.10792 0.93725 0.71332 0.0
C920 C 0.12478 0.93176 0.69086 0.0
C921 C 0.13634 0.95191 0.674 0.0
C922 C 0.15397 0.94663 0.65483 0.0
C923 C 0.16028 0.92125 0.65243 0.0
C924 C 0.14869 0.9011 0.66884 0.0
C925 C 0.13104 0.90629 0.68805 0.0
H926 H 0.17404 0.9172 0.63768 0.0
H927 H 0.01781 0.9702 0.83958 0.0
loop_
_geom_bond_atom_site_label_1
_geom_bond_atom_site_label_2
_geom_bond_distance
_geom_bond_site_symmetry_2
_ccdc_geom_bond_type
C0 C1 1.264 . S
C0 C5 1.479 . S
C0 C10 1.465 . S
C1 C0 1.264 . S
C1 C3 1.339 . S
C1 H28 0.931 . S
C2 C3 1.395 . S
C2 C4 1.320 . S
C3 C1 1.339 . S
C3 C2 1.395 . S
C3 H29 0.929 . S
C4 C2 1.320 . S
C4 C5 1.405 . S
C4 H30 0.930 . S
C5 C0 1.479 . S
C5 C4 1.405 . S
C5 H31 0.931 . S
U6 O7 2.454 . S
U6 O8 2.458 . S
U6 C9 2.984 . S
U6 C10 2.847 . S
U6 C23 2.882 1_554 S
U6 O24 2.441 . S
U6 O25 2.420 . S
U6 O26 2.455 1_554 S
U6 O27 2.449 1_554 S
O7 U6 2.454 . S
O7 C9 1.353 . S
O8 U6 2.458 . S
O8 C9 1.286 . S
C9 U6 2.984 . S
C9 O7 1.353 . S
C9 O8 1.286 . S
C9 C11 1.363 . S
C10 C0 1.465 . S
C10 U6 2.847 . S
C10 O24 1.249 . S
C10 O25 1.202 . S
C11 C9 1.363 . S
C11 C13 1.408 . S
C11 C16 1.342 . S
C12 C13 1.310 . S
C12 C15 1.461 . S
C12 H32 0.932 . S
C13 C11 1.408 . S
C13 C12 1.310 . S
C13 H33 0.930 . S
C14 C15 1.474 . S
C14 C16 1.285 . S
C14 H34 0.929 1_554 S
C15 C12 1.461 . S
C15 C14 1.474 . S
C16 C11 1.342 . S
C16 C14 1.285 . S
C16 H35 0.930 1_554 S
C17 C20 1.424 . S
C17 C22 1.245 . S
C17 C23 1.428 . S
C18 C21 1.260 . S
C18 C22 1.477 . S
C18 H36 0.932 . S
C19 C20 1.384 . S
C19 C21 1.479 . S
C19 H37 0.929 . S
C20 C17 1.424 . S
C20 C19 1.384 . S
C20 H38 0.928 . S
C21 C18 1.260 . S
C21 C19 1.479 . S
C22 C17 1.245 . S
C22 C18 1.477 . S
C22 H39 0.932 . S
C23 U6 2.882 1_556 S
C23 C17 1.428 . S
C23 O26 1.301 . S
C23 O27 1.282 . S
O24 U6 2.441 . S
O24 C10 1.249 . S
O25 U6 2.420 . S
O25 C10 1.202 . S
O26 U6 2.455 1_556 S
O26 C23 1.301 . S
O27 U6 2.449 1_556 S
O27 C23 1.282 . S
H28 C1 0.931 . S
H29 C3 0.929 . S
H30 C4 0.930 . S
H31 C5 0.931 . S
H32 C12 0.932 . S
H33 C13 0.930 . S
H34 C14 0.929 1_556 S
H35 C16 0.930 1_556 S
H36 C18 0.932 . S
H37 C19 0.929 . S
H38 C20 0.928 . S
H39 C22 0.932 . S
C40 C41 1.264 . S
C40 C45 1.479 . S
C40 C50 1.465 . S
C41 C40 1.264 . S
C41 C43 1.339 . S
C41 H68 0.931 . S
C42 C43 1.395 . S
C42 C44 1.320 . S
C43 C41 1.339 . S
C43 C42 1.395 . S
C43 H69 0.929 . S
C44 C42 1.320 . S
C44 C45 1.405 . S
C44 H70 0.930 . S
C45 C40 1.479 . S
C45 C44 1.405 . S
C45 H71 0.931 . S
U46 O47 2.454 . S
U46 O48 2.458 . S
U46 C49 2.984 . S
U46 C50 2.847 . S
U46 C63 2.882 . S
U46 O64 2.441 . S
U46 O65 2.420 . S
U46 O66 2.455 . S
U46 O67 2.449 . S
O47 U46 2.454 . S
O47 C49 1.353 . S
O48 U46 2.458 . S
O48 C49 1.286 . S
C49 U46 2.984 . S
C49 O47 1.353 . S
C49 O48 1.286 . S
C49 C51 1.363 . S
C50 C40 1.465 . S
C50 U46 2.847 . S
C50 O64 1.249 . S
C50 O65 1.202 . S
C51 C49 1.363 . S
C51 C53 1.408 . S
C51 C56 1.342 . S
C52 C53 1.310 . S
C52 C55 1.461 . S
C52 H72 0.932 . S
C53 C51 1.408 . S
C53 C52 1.310 . S
C53 H73 0.930 . S
C54 C55 1.474 . S
C54 C56 1.285 . S
C54 H74 0.929 . S
C55 C52 1.461 . S
C55 C54 1.474 . S
C56 C51 1.342 . S
C56 C54 1.285 . S
C56 H75 0.930 . S
C57 C60 1.424 . S
C57 C62 1.245 . S
C57 C63 1.428 . S
C58 C61 1.260 . S
C58 C62 1.477 . S
C58 H76 0.932 . S
C59 C60 1.384 . S
C59 C61 1.479 . S
C59 H77 0.929 . S
C60 C57 1.424 . S
C60 C59 1.384 . S
C60 H78 0.928 . S
C61 C58 1.260 . S
C61 C59 1.479 . S
C62 C57 1.245 . S
C62 C58 1.477 . S
C62 H79 0.932 . S
C63 U46 2.882 . S
C63 C57 1.428 . S
C63 O66 1.301 . S
C63 O67 1.282 . S
O64 U46 2.441 . S
O64 C50 1.249 . S
O65 U46 2.420 . S
O65 C50 1.202 . S
O66 U46 2.455 . S
O66 C63 1.301 . S
O67 U46 2.449 . S
O67 C63 1.282 . S
H68 C41 0.931 . S
H69 C43 0.929 . S
H70 C44 0.930 . S
H71 C45 0.931 . S
H72 C52 0.932 . S
H73 C53 0.930 . S
H74 C54 0.929 . S
H75 C56 0.930 . S
H76 C58 0.932 . S
H77 C59 0.929 . S
H78 C60 0.928 . S
H79 C62 0.932 . S
C80 C81 1.264 . S
C80 C85 1.479 . S
C80 C90 1.465 . S
C81 C80 1.264 . S
C81 C83 1.339 . S
C81 H108 0.931 . S
C82 C83 1.395 . S
C82 C84 1.320 . S
C83 C81 1.339 . S
C83 C82 1.395 . S
C83 H109 0.929 . S
C84 C82 1.320 . S
C84 C85 1.405 . S
C84 H110 0.930 . S
C85 C80 1.479 . S
C85 C84 1.405 . S
C85 H111 0.931 . S
U86 O87 2.454 . S
U86 O88 2.458 1_554 S
U86 C89 2.984 . S
U86 C90 2.847 . S
U86 C103 2.882 1_554 S
U86 O104 2.441 . S
U86 O105 2.420 . S
U86 O106 2.455 1_554 S
U86 O107 2.449 1_554 S
O87 U86 2.454 . S
O87 C89 1.353 . S
O88 U86 2.458 1_556 S
O88 C89 1.286 1_556 S
C89 U86 2.984 . S
C89 O87 1.353 . S
C89 O88 1.286 1_554 S
C89 C91 1.363 . S
C90 C80 1.465 . S
C90 U86 2.847 . S
C90 O104 1.249 . S
C90 O105 1.202 . S
C91 C89 1.363 . S
C91 C93 1.408 . S
C91 C96 1.342 1_554 S
C92 C93 1.310 . S
C92 C95 1.461 1_554 S
C92 H112 0.932 . S
C93 C91 1.408 . S
C93 C92 1.310 . S
C93 H113 0.930 . S
C94 C95 1.474 . S
C94 C96 1.285 . S
C94 H114 0.929 . S
C95 C92 1.461 1_556 S
C95 C94 1.474 . S
C96 C91 1.342 1_556 S
C96 C94 1.285 . S
C96 H115 0.930 . S
C97 C100 1.424 . S
C97 C102 1.245 . S
C97 C103 1.428 . S
C98 C101 1.260 . S
C98 C102 1.477 . S
C98 H116 0.932 . S
C99 C100 1.384 . S
C99 C101 1.479 . S
C99 H117 0.929 . S
C100 C97 1.424 . S
C100 C99 1.384 . S
C100 H118 0.928 . S
C101 C98 1.260 . S
C101 C99 1.479 . S
C102 C97 1.245 . S
C102 C98 1.477 . S
C102 H119 0.932 . S
C103 U86 2.882 1_556 S
C103 C97 1.428 . S
C103 O106 1.301 . S
C103 O107 1.282 . S
O104 U86 2.441 . S
O104 C90 1.249 . S
O105 U86 2.420 . S
O105 C90 1.202 . S
O106 U86 2.455 1_556 S
O106 C103 1.301 . S
O107 U86 2.449 1_556 S
O107 C103 1.282 . S
H108 C81 0.931 . S
H109 C83 0.929 . S
H110 C84 0.930 . S
H111 C85 0.931 . S
H112 C92 0.932 . S
H113 C93 0.930 . S
H114 C94 0.929 . S
H115 C96 0.930 . S
H116 C98 0.932 . S
H117 C99 0.929 . S
H118 C100 0.928 . S
H119 C102 0.932 . S
C120 C121 1.264 . S
C120 C125 1.479 . S
C120 C130 1.465 . S
C121 C120 1.264 . S
C121 C123 1.339 . S
C121 H148 0.931 . S
C122 C123 1.395 . S
C122 C124 1.320 . S
C123 C121 1.339 . S
C123 C122 1.395 . S
C123 H149 0.929 . S
C124 C122 1.320 . S
C124 C125 1.405 . S
C124 H150 0.930 . S
C125 C120 1.479 . S
C125 C124 1.405 . S
C125 H151 0.931 . S
U126 O127 2.454 . S
U126 O128 2.458 . S
U126 C129 2.984 . S
U126 C130 2.847 . S
U126 C143 2.882 . S
U126 O144 2.441 . S
U126 O145 2.420 . S
U126 O146 2.455 . S
U126 O147 2.449 . S
O127 U126 2.454 . S
O127 C129 1.353 . S
O128 U126 2.458 . S
O128 C129 1.286 . S
C129 U126 2.984 . S
C129 O127 1.353 . S
C129 O128 1.286 . S
C129 C131 1.363 . S
C130 C120 1.465 . S
C130 U126 2.847 . S
C130 O144 1.249 . S
C130 O145 1.202 . S
C131 C129 1.363 . S
C131 C133 1.408 . S
C131 C136 1.342 . S
C132 C133 1.310 . S
C132 C135 1.461 . S
C132 H152 0.932 . S
C133 C131 1.408 . S
C133 C132 1.310 . S
C133 H153 0.930 . S
C134 C135 1.474 . S
C134 C136 1.285 . S
C134 H154 0.929 . S
C135 C132 1.461 . S
C135 C134 1.474 . S
C136 C131 1.342 . S
C136 C134 1.285 . S
C136 H155 0.930 . S
C137 C140 1.424 . S
C137 C142 1.245 . S
C137 C143 1.428 . S
C138 C141 1.260 . S
C138 C142 1.477 . S
C138 H156 0.932 . S
C139 C140 1.384 . S
C139 C141 1.479 . S
C139 H157 0.929 . S
C140 C137 1.424 . S
C140 C139 1.384 . S
C140 H158 0.928 . S
C141 C138 1.260 . S
C141 C139 1.479 . S
C142 C137 1.245 . S
C142 C138 1.477 . S
C142 H159 0.932 . S
C143 U126 2.882 . S
C143 C137 1.428 . S
C143 O146 1.301 . S
C143 O147 1.282 . S
O144 U126 2.441 . S
O144 C130 1.249 . S
O145 U126 2.420 . S
O145 C130 1.202 . S
O146 U126 2.455 . S
O146 C143 1.301 . S
O147 U126 2.449 . S
O147 C143 1.282 . S
H148 C121 0.931 . S
H149 C123 0.929 . S
H150 C124 0.930 . S
H151 C125 0.931 . S
H152 C132 0.932 . S
H153 C133 0.930 . S
H154 C134 0.929 . S
H155 C136 0.930 . S
H156 C138 0.932 . S
H157 C139 0.929 . S
H158 C140 0.928 . S
H159 C142 0.932 . S
Tb160 N189 2.617 . S
Tb160 N195 2.572 . S
Tb160 O204 2.465 . S
Tb160 O205 2.387 . S
Tb160 O207 2.428 . S
Tb160 O208 2.308 1_565 S
Tb160 O212 2.347 1_455 S
Tb160 O215 2.393 1_455 S
Tb160 C224 2.802 . S
C161 N162 1.379 . S
C161 C164 1.416 . S
C161 C168 1.424 . S
N162 C161 1.379 . S
N162 C165 1.334 1_655 S
N162 Tb171 2.617 . S
C163 C165 1.390 . S
C163 C166 1.339 1_455 S
C163 H183 0.930 . S
C164 C161 1.416 . S
C164 C166 1.416 . S
C164 C170 1.448 . S
C165 N162 1.334 1_455 S
C165 C163 1.390 . S
C165 H176 0.930 . S
C166 C163 1.339 1_655 S
C166 C164 1.416 . S
C166 H187 0.930 . S
C167 C168 1.413 . S
C167 C169 1.427 . S
C167 C173 1.416 . S
C168 C161 1.424 . S
C168 C167 1.413 . S
C168 N172 1.361 . S
C169 C167 1.427 . S
C169 C170 1.328 . S
C169 H184 0.929 . S
C170 C164 1.448 . S
C170 C169 1.328 . S
C170 H185 0.930 . S
Tb171 N162 2.617 . S
Tb171 N172 2.572 . S
Tb171 O206 2.349 1_655 S
Tb171 O209 2.393 1_655 S
Tb171 O210 2.465 . S
Tb171 O211 2.387 . S
Tb171 O213 2.428 . S
Tb171 O214 2.308 1_545 S
Tb171 C235 2.802 . S
N172 C168 1.361 . S
N172 Tb171 2.572 . S
N172 C174 1.340 . S
C173 C167 1.416 . S
C173 C175 1.332 . S
C173 H181 0.931 . S
C174 N172 1.340 . S
C174 C175 1.407 . S
C174 H180 0.930 . S
C175 C173 1.332 . S
C175 C174 1.407 . S
C175 H177 0.929 . S
H176 C165 0.930 . S
H177 C175 0.929 . S
H178 C193 0.930 1_655 S
H179 C200 0.929 . S
H180 C174 0.930 . S
H181 C173 0.931 . S
H182 C196 0.930 . S
H183 C163 0.930 . S
H184 C169 0.929 . S
H185 C170 0.930 . S
H186 C191 0.930 1_655 S
H187 C166 0.930 . S
H188 C199 0.931 . S
N189 Tb160 2.617 . S
N189 C190 1.379 . S
N189 C193 1.334 . S
C190 N189 1.379 . S
C190 C192 1.416 . S
C190 C198 1.424 . S
C191 H186 0.930 1_455 S
C191 C193 1.390 . S
C191 C194 1.339 . S
C192 C190 1.416 . S
C192 C194 1.416 . S
C192 C225 1.448 . S
C193 H178 0.930 1_455 S
C193 N189 1.334 . S
C193 C191 1.390 . S
C194 C191 1.339 . S
C194 C192 1.416 . S
C194 H201 0.930 . S
N195 Tb160 2.572 . S
N195 C196 1.340 . S
N195 C198 1.361 . S
C196 H182 0.930 . S
C196 N195 1.340 . S
C196 C200 1.407 . S
C197 C198 1.413 . S
C197 C199 1.416 . S
C197 C226 1.427 . S
C198 C190 1.424 . S
C198 N195 1.361 . S
C198 C197 1.413 . S
C199 H188 0.931 . S
C199 C197 1.416 . S
C199 C200 1.332 . S
C200 H179 0.929 . S
C200 C196 1.407 . S
C200 C199 1.332 . S
H201 C194 0.930 . S
H202 C225 0.930 . S
H203 C226 0.929 . S
O204 Tb160 2.465 . S
O204 C224 1.264 . S
O205 Tb160 2.387 . S
O205 C216 1.264 . S
O206 Tb171 2.349 1_455 S
O206 C216 1.243 1_545 S
O207 Tb160 2.428 . S
O207 C224 1.256 . S
O208 Tb160 2.308 1_545 S
O208 C223 1.266 . S
O209 Tb171 2.393 1_455 S
O209 C223 1.248 . S
O210 Tb171 2.465 . S
O210 C235 1.264 . S
O211 Tb171 2.387 . S
O211 C227 1.264 . S
O212 Tb160 2.347 1_655 S
O212 C227 1.246 1_565 S
O213 Tb171 2.428 . S
O213 C235 1.256 . S
O214 Tb171 2.308 1_565 S
O214 C234 1.266 . S
O215 Tb160 2.393 1_655 S
O215 C234 1.248 . S
C216 O205 1.264 . S
C216 O206 1.243 1_565 S
C217 C220 1.399 . S
C217 C222 1.383 . S
C217 C224 1.496 . S
C218 C219 1.399 . S
C218 C222 1.389 . S
C219 C218 1.399 . S
C219 C221 1.380 . S
C219 H236 0.929 . S
C220 C217 1.399 . S
C220 C221 1.392 . S
C220 H237 0.929 . S
C221 C219 1.380 . S
C221 C220 1.392 . S
C221 H238 0.929 . S
C222 C217 1.383 . S
C222 C218 1.389 . S
C222 H239 0.931 . S
C223 O208 1.266 . S
C223 O209 1.248 . S
C224 Tb160 2.802 . S
C224 O204 1.264 . S
C224 O207 1.256 . S
C224 C217 1.496 . S
C225 C192 1.448 . S
C225 H202 0.930 . S
C225 C226 1.328 . S
C226 C197 1.427 . S
C226 H203 0.929 . S
C226 C225 1.328 . S
C227 O211 1.264 . S
C227 O212 1.246 1_545 S
C228 C231 1.399 . S
C228 C232 1.383 . S
C228 C235 1.496 . S
C229 C230 1.399 . S
C229 C232 1.389 . S
C230 C229 1.399 . S
C230 C233 1.380 . S
C230 H240 0.929 . S
C231 C228 1.399 . S
C231 C233 1.392 . S
C231 H241 0.929 . S
C232 C228 1.383 . S
C232 C229 1.389 . S
C232 H242 0.931 . S
C233 C230 1.380 . S
C233 C231 1.392 . S
C233 H243 0.929 . S
C234 O214 1.266 . S
C234 O215 1.248 . S
C235 Tb171 2.802 . S
C235 O210 1.264 . S
C235 O213 1.256 . S
C235 C228 1.496 . S
H236 C219 0.929 . S
H237 C220 0.929 . S
H238 C221 0.929 . S
H239 C222 0.931 . S
H240 C230 0.929 . S
H241 C231 0.929 . S
H242 C232 0.931 . S
H243 C233 0.929 . S
Tb244 N273 2.617 . S
Tb244 N279 2.572 . S
Tb244 O288 2.465 . S
Tb244 O289 2.387 1_556 S
Tb244 O291 2.428 . S
Tb244 O292 2.308 1_556 S
Tb244 O296 2.349 . S
Tb244 O299 2.393 . S
Tb244 C308 2.802 . S
C245 N246 1.379 . S
C245 C248 1.416 . S
C245 C252 1.424 . S
N246 C245 1.379 . S
N246 C249 1.334 . S
N246 Tb255 2.617 . S
C247 C249 1.390 . S
C247 C250 1.339 . S
C247 H267 0.930 . S
C248 C245 1.416 . S
C248 C250 1.416 . S
C248 C254 1.448 . S
C249 N246 1.334 . S
C249 C247 1.390 . S
C249 H260 0.930 . S
C250 C247 1.339 . S
C250 C248 1.416 . S
C250 H271 0.930 . S
C251 C252 1.413 . S
C251 C253 1.427 . S
C251 C257 1.416 . S
C252 C245 1.424 . S
C252 C251 1.413 . S
C252 N256 1.361 . S
C253 C251 1.427 . S
C253 C254 1.328 . S
C253 H268 0.931 . S
C254 C248 1.448 . S
C254 C253 1.328 . S
C254 H269 0.930 . S
Tb255 N246 2.617 . S
Tb255 N256 2.572 . S
Tb255 O290 2.349 . S
Tb255 O293 2.393 . S
Tb255 O294 2.465 . S
Tb255 O295 2.387 1_554 S
Tb255 O297 2.428 . S
Tb255 O298 2.308 . S
Tb255 C319 2.802 . S
N256 C252 1.361 . S
N256 Tb255 2.572 . S
N256 C258 1.340 . S
C257 C251 1.416 . S
C257 C259 1.332 . S
C257 H265 0.930 1_554 S
C258 N256 1.340 . S
C258 C259 1.407 . S
C258 H264 0.930 . S
C259 C257 1.332 . S
C259 C258 1.407 . S
C259 H261 0.929 . S
H260 C249 0.930 . S
H261 C259 0.929 . S
H262 C277 0.930 . S
H263 C284 0.929 . S
H264 C258 0.930 . S
H265 C257 0.930 1_556 S
H266 C280 0.930 . S
H267 C247 0.930 . S
H268 C253 0.931 . S
H269 C254 0.930 . S
H270 C275 0.930 . S
H271 C250 0.930 . S
H272 C283 0.931 . S
N273 Tb244 2.617 . S
N273 C274 1.379 1_556 S
N273 C277 1.334 . S
C274 N273 1.379 1_554 S
C274 C276 1.416 . S
C274 C282 1.424 . S
C275 H270 0.930 . S
C275 C277 1.390 . S
C275 C278 1.339 1_556 S
C276 C274 1.416 . S
C276 C278 1.416 . S
C276 C309 1.448 . S
C277 H262 0.930 . S
C277 N273 1.334 . S
C277 C275 1.390 . S
C278 C275 1.339 1_554 S
C278 C276 1.416 . S
C278 H285 0.930 . S
N279 Tb244 2.572 . S
N279 C280 1.340 1_556 S
N279 C282 1.361 1_556 S
C280 H266 0.930 . S
C280 N279 1.340 1_554 S
C280 C284 1.407 . S
C281 C282 1.413 . S
C281 C283 1.416 . S
C281 C310 1.427 . S
C282 C274 1.424 . S
C282 N279 1.361 1_554 S
C282 C281 1.413 . S
C283 H272 0.931 . S
C283 C281 1.416 . S
C283 C284 1.332 . S
C284 H263 0.929 . S
C284 C280 1.407 . S
C284 C283 1.332 . S
H285 C278 0.930 . S
H286 C309 0.930 . S
H287 C310 0.929 . S
O288 Tb244 2.465 . S
O288 C308 1.264 . S
O289 Tb244 2.387 1_554 S
O289 C300 1.264 . S
O290 Tb255 2.349 . S
O290 C300 1.243 . S
O291 Tb244 2.428 . S
O291 C308 1.256 . S
O292 Tb244 2.308 1_554 S
O292 C307 1.266 . S
O293 Tb255 2.393 . S
O293 C307 1.248 . S
O294 Tb255 2.465 . S
O294 C319 1.264 . S
O295 Tb255 2.387 1_556 S
O295 C311 1.264 . S
O296 Tb244 2.349 . S
O296 C311 1.243 . S
O297 Tb255 2.428 . S
O297 C319 1.256 . S
O298 Tb255 2.308 . S
O298 C318 1.266 . S
O299 Tb244 2.393 . S
O299 C318 1.248 1_556 S
C300 O289 1.264 . S
C300 O290 1.243 . S
C301 C304 1.399 . S
C301 C306 1.383 . S
C301 C308 1.496 . S
C302 C303 1.399 . S
C302 C306 1.389 . S
C303 C302 1.399 . S
C303 C305 1.380 . S
C303 H320 0.929 . S
C304 C301 1.399 . S
C304 C305 1.392 . S
C304 H321 0.929 . S
C305 C303 1.380 . S
C305 C304 1.392 . S
C305 H322 0.929 . S
C306 C301 1.383 . S
C306 C302 1.389 . S
C306 H323 0.931 . S
C307 O292 1.266 . S
C307 O293 1.248 . S
C308 Tb244 2.802 . S
C308 O288 1.264 . S
C308 O291 1.256 . S
C308 C301 1.496 . S
C309 C276 1.448 . S
C309 H286 0.930 . S
C309 C310 1.328 . S
C310 C281 1.427 . S
C310 H287 0.929 . S
C310 C309 1.328 . S
C311 O295 1.264 . S
C311 O296 1.243 . S
C312 C315 1.399 . S
C312 C316 1.383 . S
C312 C319 1.496 . S
C313 C314 1.399 . S
C313 C316 1.389 . S
C314 C313 1.399 . S
C314 C317 1.380 . S
C314 H324 0.929 . S
C315 C312 1.399 . S
C315 C317 1.392 . S
C315 H325 0.929 . S
C316 C312 1.383 . S
C316 C313 1.389 . S
C316 H326 0.931 . S
C317 C314 1.380 . S
C317 C315 1.392 . S
C317 H327 0.929 . S
C318 O298 1.266 . S
C318 O299 1.248 1_554 S
C319 Tb255 2.802 . S
C319 O294 1.264 . S
C319 O297 1.256 . S
C319 C312 1.496 . S
H320 C303 0.929 . S
H321 C304 0.929 . S
H322 C305 0.929 . S
H323 C306 0.931 . S
H324 C314 0.929 . S
H325 C315 0.929 . S
H326 C316 0.931 . S
H327 C317 0.929 . S
H328 C346 0.951 . S
H329 C348 0.951 . S
H330 C350 0.950 . S
H331 C351 0.950 . S
H332 C353 0.950 . S
H333 C356 0.950 . S
H334 C357 0.950 . S
H335 C359 0.950 . S
H336 C360 0.950 . S
H337 C361 0.951 . S
H338 C363 0.951 . S
H339 C365 0.950 . S
H340 C366 0.950 . S
H341 C368 0.950 . S
H342 C371 0.950 . S
H343 C372 0.950 . S
H344 C374 0.950 . S
H345 C375 0.950 . S
C346 H328 0.951 . S
C346 C347 1.366 . S
C346 C348 1.388 . S
C347 C346 1.366 . S
C347 C351 1.385 . S
C348 H329 0.951 . S
C348 C346 1.388 . S
C348 C349 1.366 . S
C349 C348 1.366 . S
C349 C350 1.414 . S
C349 C352 1.499 . S
C350 H330 0.950 . S
C350 C349 1.414 . S
C350 C351 1.374 . S
C351 H331 0.950 . S
C351 C347 1.385 . S
C351 C350 1.374 . S
C352 C349 1.499 . S
C352 C353 1.373 . S
C352 C354 1.389 . S
C353 H332 0.950 . S
C353 C352 1.373 . S
C353 C369 1.377 . S
C354 C352 1.389 . S
C354 C355 1.524 . S
C354 C368 1.377 . S
C355 C354 1.524 . S
C355 C356 1.397 . S
C355 C360 1.363 . S
C356 H333 0.950 . S
C356 C355 1.397 . S
C356 C357 1.334 . S
C357 H334 0.950 . S
C357 C356 1.334 . S
C357 C358 1.287 . S
C358 C357 1.287 . S
C358 C359 1.524 . S
C358 H377 0.913 . S
C359 H335 0.950 . S
C359 C358 1.524 . S
C359 C360 1.415 . S
C360 H336 0.950 . S
C360 C355 1.363 . S
C360 C359 1.415 . S
C361 H337 0.951 . S
C361 C362 1.366 . S
C361 C363 1.388 . S
C362 C361 1.366 . S
C362 C366 1.385 . S
C363 H338 0.951 . S
C363 C361 1.388 . S
C363 C364 1.366 . S
C364 C363 1.366 . S
C364 C365 1.414 . S
C364 C367 1.499 . S
C365 H339 0.950 . S
C365 C364 1.414 . S
C365 C366 1.374 . S
C366 H340 0.950 . S
C366 C362 1.385 . S
C366 C365 1.374 . S
C367 C364 1.499 . S
C367 C368 1.373 . S
C367 C369 1.389 . S
C368 H341 0.950 . S
C368 C354 1.377 . S
C368 C367 1.373 . S
C369 C353 1.377 . S
C369 C367 1.389 . S
C369 C370 1.524 . S
C370 C369 1.524 . S
C370 C371 1.397 . S
C370 C375 1.363 . S
C371 H342 0.950 . S
C371 C370 1.397 . S
C371 C372 1.334 . S
C372 H343 0.950 . S
C372 C371 1.334 . S
C372 C373 1.287 . S
C373 C372 1.287 . S
C373 C374 1.524 . S
C373 H376 0.999 . S
C374 H344 0.950 . S
C374 C373 1.524 . S
C374 C375 1.415 . S
C375 H345 0.950 . S
C375 C370 1.363 . S
C375 C374 1.415 . S
H376 C373 0.999 . S
H377 C358 0.913 . S
H378 C396 0.951 . S
H379 C398 0.951 . S
H380 C400 0.950 1_556 S
H381 C401 0.950 1_556 S
H382 C403 0.950 1_556 S
H383 C406 0.950 . S
H384 C407 0.950 . S
H385 C409 0.950 . S
H386 C410 0.950 . S
H387 C411 0.953 . S
H388 C413 0.951 1_556 S
H389 C415 0.950 . S
H390 C416 0.950 . S
H391 C418 0.950 . S
H392 C421 0.950 . S
H393 C422 0.950 . S
H394 C424 0.950 . S
H395 C425 0.950 . S
C396 H378 0.951 . S
C396 C397 1.366 . S
C396 C398 1.388 . S
C397 C396 1.366 . S
C397 C401 1.385 . S
C398 H379 0.951 . S
C398 C396 1.388 . S
C398 C399 1.366 . S
C399 C398 1.366 . S
C399 C400 1.414 . S
C399 C402 1.499 . S
C400 H380 0.950 1_554 S
C400 C399 1.414 . S
C400 C401 1.374 . S
C401 H381 0.950 1_554 S
C401 C397 1.385 . S
C401 C400 1.374 . S
C402 C399 1.499 . S
C402 C403 1.373 . S
C402 C404 1.389 . S
C403 H382 0.950 1_554 S
C403 C402 1.373 . S
C403 C419 1.373 1_554 S
C404 C402 1.389 . S
C404 C405 1.524 . S
C404 C418 1.377 . S
C405 C404 1.524 . S
C405 C406 1.397 . S
C405 C410 1.363 . S
C406 H383 0.950 . S
C406 C405 1.397 . S
C406 C407 1.334 . S
C407 H384 0.950 . S
C407 C406 1.334 . S
C407 C408 1.287 . S
C408 C407 1.287 . S
C408 C409 1.524 . S
C408 H427 0.913 . S
C409 H385 0.950 . S
C409 C408 1.524 . S
C409 C410 1.415 . S
C410 H386 0.950 . S
C410 C405 1.363 . S
C410 C409 1.415 . S
C411 H387 0.953 . S
C411 C412 1.365 1_556 S
C411 C413 1.387 1_556 S
C412 C411 1.365 1_554 S
C412 C416 1.385 . S
C413 H388 0.951 1_554 S
C413 C411 1.387 1_554 S
C413 C414 1.366 . S
C414 C413 1.366 . S
C414 C415 1.414 . S
C414 C417 1.499 . S
C415 H389 0.950 . S
C415 C414 1.414 . S
C415 C416 1.374 . S
C416 H390 0.950 . S
C416 C412 1.385 . S
C416 C415 1.374 . S
C417 C414 1.499 . S
C417 C418 1.373 . S
C417 C419 1.381 1_554 S
C418 H391 0.950 . S
C418 C404 1.377 . S
C418 C417 1.373 . S
C419 C403 1.373 1_556 S
C419 C417 1.381 1_556 S
C419 C420 1.536 . S
C420 C419 1.536 . S
C420 C421 1.397 . S
C420 C425 1.363 . S
C421 H392 0.950 . S
C421 C420 1.397 . S
C421 C422 1.334 . S
C422 H393 0.950 . S
C422 C421 1.334 . S
C422 C423 1.287 . S
C423 C422 1.287 . S
C423 C424 1.524 . S
C423 H426 0.999 . S
C424 H394 0.950 . S
C424 C423 1.524 . S
C424 C425 1.415 . S
C425 H395 0.950 . S
C425 C420 1.363 . S
C425 C424 1.415 . S
H426 C423 0.999 . S
H427 C408 0.913 . S
H428 C446 0.951 . S
H429 C448 0.951 . S
H430 C450 0.950 . S
H431 C451 0.950 . S
H432 C453 0.950 . S
H433 C456 0.950 . S
H434 C457 0.950 . S
H435 C459 0.950 . S
H436 C460 0.950 . S
H437 C461 0.951 . S
H438 C463 0.951 . S
H439 C465 0.950 . S
H440 C466 0.950 . S
H441 C468 0.950 . S
H442 C471 0.950 . S
H443 C472 0.950 . S
H444 C474 0.950 . S
H445 C475 0.950 . S
C446 H428 0.951 . S
C446 C447 1.366 . S
C446 C448 1.388 . S
C447 C446 1.366 . S
C447 C451 1.385 . S
C448 H429 0.951 . S
C448 C446 1.388 . S
C448 C449 1.366 . S
C449 C448 1.366 . S
C449 C450 1.414 . S
C449 C452 1.499 . S
C450 H430 0.950 . S
C450 C449 1.414 . S
C450 C451 1.374 . S
C451 H431 0.950 . S
C451 C447 1.385 . S
C451 C450 1.374 . S
C452 C449 1.499 . S
C452 C453 1.373 . S
C452 C454 1.389 . S
C453 H432 0.950 . S
C453 C452 1.373 . S
C453 C469 1.377 . S
C454 C452 1.389 . S
C454 C455 1.524 . S
C454 C468 1.377 . S
C455 C454 1.524 . S
C455 C456 1.397 . S
C455 C460 1.363 . S
C456 H433 0.950 . S
C456 C455 1.397 . S
C456 C457 1.334 . S
C457 H434 0.950 . S
C457 C456 1.334 . S
C457 C458 1.287 . S
C458 C457 1.287 . S
C458 C459 1.524 . S
C458 H477 0.913 . S
C459 H435 0.950 . S
C459 C458 1.524 . S
C459 C460 1.415 . S
C460 H436 0.950 . S
C460 C455 1.363 . S
C460 C459 1.415 . S
C461 H437 0.951 . S
C461 C462 1.366 . S
C461 C463 1.388 . S
C462 C461 1.366 . S
C462 C466 1.385 . S
C463 H438 0.951 . S
C463 C461 1.388 . S
C463 C464 1.366 . S
C464 C463 1.366 . S
C464 C465 1.414 . S
C464 C467 1.499 . S
C465 H439 0.950 . S
C465 C464 1.414 . S
C465 C466 1.374 . S
C466 H440 0.950 . S
C466 C462 1.385 . S
C466 C465 1.374 . S
C467 C464 1.499 . S
C467 C468 1.373 . S
C467 C469 1.389 . S
C468 H441 0.950 . S
C468 C454 1.377 . S
C468 C467 1.373 . S
C469 C453 1.377 . S
C469 C467 1.389 . S
C469 C470 1.524 . S
C470 C469 1.524 . S
C470 C471 1.397 . S
C470 C475 1.363 . S
C471 H442 0.950 . S
C471 C470 1.397 . S
C471 C472 1.334 . S
C472 H443 0.950 . S
C472 C471 1.334 . S
C472 C473 1.287 . S
C473 C472 1.287 . S
C473 C474 1.524 . S
C473 H476 0.999 . S
C474 H444 0.950 . S
C474 C473 1.524 . S
C474 C475 1.415 . S
C475 H445 0.950 . S
C475 C470 1.363 . S
C475 C474 1.415 . S
H476 C473 0.999 . S
H477 C458 0.913 . S
H478 C496 0.951 . S
H479 C498 0.951 . S
H480 C500 0.950 . S
H481 C501 0.950 . S
H482 C503 0.950 . S
H483 C506 0.950 . S
H484 C507 0.950 . S
H485 C509 0.950 . S
H486 C510 0.950 . S
H487 C511 0.951 . S
H488 C513 0.951 . S
H489 C515 0.950 1_556 S
H490 C516 0.950 . S
H491 C518 0.950 . S
H492 C521 0.950 . S
H493 C522 0.950 . S
H494 C524 0.950 . S
H495 C525 0.950 . S
C496 H478 0.951 . S
C496 C497 1.366 . S
C496 C498 1.388 . S
C497 C496 1.366 . S
C497 C501 1.385 1_556 S
C498 H479 0.951 . S
C498 C496 1.388 . S
C498 C499 1.366 1_556 S
C499 C498 1.366 1_554 S
C499 C500 1.414 . S
C499 C502 1.499 . S
C500 H480 0.950 . S
C500 C499 1.414 . S
C500 C501 1.374 . S
C501 H481 0.950 . S
C501 C497 1.385 1_554 S
C501 C500 1.374 . S
C502 C499 1.499 . S
C502 C503 1.373 1_554 S
C502 C504 1.389 . S
C503 H482 0.950 . S
C503 C502 1.373 1_556 S
C503 C519 1.377 . S
C504 C502 1.389 . S
C504 C505 1.524 . S
C504 C518 1.377 . S
C505 C504 1.524 . S
C505 C506 1.397 . S
C505 C510 1.363 . S
C506 H483 0.950 . S
C506 C505 1.397 . S
C506 C507 1.334 . S
C507 H484 0.950 . S
C507 C506 1.334 . S
C507 C508 1.287 . S
C508 C507 1.287 . S
C508 C509 1.524 . S
C508 H527 0.913 . S
C509 H485 0.950 . S
C509 C508 1.524 . S
C509 C510 1.415 . S
C510 H486 0.950 . S
C510 C505 1.363 . S
C510 C509 1.415 . S
C511 H487 0.951 . S
C511 C512 1.366 . S
C511 C513 1.388 . S
C512 C511 1.366 . S
C512 C516 1.385 . S
C513 H488 0.951 . S
C513 C511 1.388 . S
C513 C514 1.366 . S
C514 C513 1.366 . S
C514 C515 1.414 . S
C514 C517 1.499 . S
C515 H489 0.950 1_554 S
C515 C514 1.414 . S
C515 C516 1.374 . S
C516 H490 0.950 . S
C516 C512 1.385 . S
C516 C515 1.374 . S
C517 C514 1.499 . S
C517 C518 1.373 . S
C517 C519 1.389 1_554 S
C518 H491 0.950 . S
C518 C504 1.377 . S
C518 C517 1.373 . S
C519 C503 1.377 . S
C519 C517 1.389 1_556 S
C519 C520 1.524 . S
C520 C519 1.524 . S
C520 C521 1.397 . S
C520 C525 1.363 . S
C521 H492 0.950 . S
C521 C520 1.397 . S
C521 C522 1.334 . S
C522 H493 0.950 . S
C522 C521 1.334 . S
C522 C523 1.287 . S
C523 C522 1.287 . S
C523 C524 1.524 . S
C523 H526 0.999 . S
C524 H494 0.950 . S
C524 C523 1.524 . S
C524 C525 1.415 . S
C525 H495 0.950 . S
C525 C520 1.363 . S
C525 C524 1.415 . S
H526 C523 0.999 . S
H527 C508 0.913 . S
H528 C546 0.951 . S
H529 C548 0.951 . S
H530 C550 0.950 . S
H531 C551 0.950 . S
H532 C553 0.950 . S
H533 C556 0.950 . S
H534 C557 0.950 . S
H535 C559 0.950 . S
H536 C560 0.950 . S
H537 C561 0.951 . S
H538 C563 0.951 . S
H539 C565 0.950 . S
H540 C566 0.950 . S
H541 C568 0.950 . S
H542 C571 0.932 1_565 S
H543 C572 0.950 . S
H544 C574 0.950 . S
H545 C575 0.950 1_565 S
C546 H528 0.951 . S
C546 C547 1.366 . S
C546 C548 1.388 . S
C547 C546 1.366 . S
C547 C551 1.385 . S
C548 H529 0.951 . S
C548 C546 1.388 . S
C548 C549 1.366 . S
C549 C548 1.366 . S
C549 C550 1.414 . S
C549 C552 1.499 . S
C550 H530 0.950 . S
C550 C549 1.414 . S
C550 C551 1.374 . S
C551 H531 0.950 . S
C551 C547 1.385 . S
C551 C550 1.374 . S
C552 C549 1.499 . S
C552 C553 1.373 . S
C552 C554 1.389 . S
C553 H532 0.950 . S
C553 C552 1.373 . S
C553 C569 1.377 . S
C554 C552 1.389 . S
C554 C555 1.524 . S
C554 C568 1.377 . S
C555 C554 1.524 . S
C555 C556 1.397 . S
C555 C560 1.363 . S
C556 H533 0.950 . S
C556 C555 1.397 . S
C556 C557 1.334 . S
C557 H534 0.950 . S
C557 C556 1.334 . S
C557 C558 1.287 . S
C558 C557 1.287 . S
C558 C559 1.524 . S
C558 H577 0.913 . S
C559 H535 0.950 . S
C559 C558 1.524 . S
C559 C560 1.415 . S
C560 H536 0.950 . S
C560 C555 1.363 . S
C560 C559 1.415 . S
C561 H537 0.951 . S
C561 C562 1.366 . S
C561 C563 1.388 . S
C562 C561 1.366 . S
C562 C566 1.385 . S
C563 H538 0.951 . S
C563 C561 1.388 . S
C563 C564 1.366 . S
C564 C563 1.366 . S
C564 C565 1.414 . S
C564 C567 1.499 . S
C565 H539 0.950 . S
C565 C564 1.414 . S
C565 C566 1.374 . S
C566 H540 0.950 . S
C566 C562 1.385 . S
C566 C565 1.374 . S
C567 C564 1.499 . S
C567 C568 1.373 . S
C567 C569 1.389 . S
C568 H541 0.950 . S
C568 C554 1.377 . S
C568 C567 1.373 . S
C569 C553 1.377 . S
C569 C567 1.389 . S
C569 C570 1.524 . S
C570 C569 1.524 . S
C570 C571 1.397 1_565 S
C570 C575 1.363 1_565 S
C571 H542 0.932 1_545 S
C571 C570 1.397 1_545 S
C571 C572 1.334 . S
C572 H543 0.950 . S
C572 C571 1.334 . S
C572 C573 1.287 . S
C573 C572 1.287 . S
C573 C574 1.524 . S
C573 H576 0.999 . S
C574 H544 0.950 . S
C574 C573 1.524 . S
C574 C575 1.415 . S
C575 H545 0.950 1_545 S
C575 C570 1.363 1_545 S
C575 C574 1.415 . S
H576 C573 0.999 . S
H577 C558 0.913 . S
H578 C596 0.951 . S
H579 C598 0.951 . S
H580 C600 0.950 . S
H581 C601 0.950 . S
H582 C603 0.950 . S
H583 C606 0.950 . S
H584 C607 0.950 . S
H585 C609 0.950 . S
H586 C610 0.950 . S
H587 C611 0.951 . S
H588 C613 0.951 . S
H589 C615 0.950 . S
H590 C616 0.950 . S
H591 C618 0.950 . S
H592 C621 0.950 . S
H593 C622 0.950 . S
H594 C624 0.950 . S
H595 C625 0.950 . S
C596 H578 0.951 . S
C596 C597 1.366 . S
C596 C598 1.388 . S
C597 C596 1.366 . S
C597 C601 1.385 . S
C598 H579 0.951 . S
C598 C596 1.388 . S
C598 C599 1.366 . S
C599 C598 1.366 . S
C599 C600 1.414 . S
C599 C602 1.499 . S
C600 H580 0.950 . S
C600 C599 1.414 . S
C600 C601 1.374 . S
C601 H581 0.950 . S
C601 C597 1.385 . S
C601 C600 1.374 . S
C602 C599 1.499 . S
C602 C603 1.373 . S
C602 C604 1.389 . S
C603 H582 0.950 . S
C603 C602 1.373 . S
C603 C619 1.377 . S
C604 C602 1.389 . S
C604 C605 1.524 . S
C604 C618 1.377 . S
C605 C604 1.524 . S
C605 C606 1.397 . S
C605 C610 1.363 . S
C606 H583 0.950 . S
C606 C605 1.397 . S
C606 C607 1.334 . S
C607 H584 0.950 . S
C607 C606 1.334 . S
C607 C608 1.287 . S
C608 C607 1.287 . S
C608 C609 1.524 . S
C608 H627 0.913 . S
C609 H585 0.950 . S
C609 C608 1.524 . S
C609 C610 1.415 . S
C610 H586 0.950 . S
C610 C605 1.363 . S
C610 C609 1.415 . S
C611 H587 0.951 . S
C611 C612 1.366 . S
C611 C613 1.388 . S
C612 C611 1.366 . S
C612 C616 1.385 . S
C613 H588 0.951 . S
C613 C611 1.388 . S
C613 C614 1.366 . S
C614 C613 1.366 . S
C614 C615 1.414 . S
C614 C617 1.499 . S
C615 H589 0.950 . S
C615 C614 1.414 . S
C615 C616 1.374 . S
C616 H590 0.950 . S
C616 C612 1.385 . S
C616 C615 1.374 . S
C617 C614 1.499 . S
C617 C618 1.373 . S
C617 C619 1.389 . S
C618 H591 0.950 . S
C618 C604 1.377 . S
C618 C617 1.373 . S
C619 C603 1.377 . S
C619 C617 1.389 . S
C619 C620 1.524 . S
C620 C619 1.524 . S
C620 C621 1.397 . S
C620 C625 1.363 . S
C621 H592 0.950 . S
C621 C620 1.397 . S
C621 C622 1.334 . S
C622 H593 0.950 . S
C622 C621 1.334 . S
C622 C623 1.287 . S
C623 C622 1.287 . S
C623 C624 1.524 . S
C623 H626 0.999 . S
C624 H594 0.950 . S
C624 C623 1.524 . S
C624 C625 1.415 . S
C625 H595 0.950 . S
C625 C620 1.363 . S
C625 C624 1.415 . S
H626 C623 0.999 . S
H627 C608 0.913 . S
H628 C646 0.951 . S
H629 C648 0.951 . S
H630 C650 0.950 . S
H631 C651 0.950 . S
H632 C653 0.950 . S
H633 C656 0.950 . S
H634 C657 0.950 . S
H635 C659 0.950 . S
H636 C660 0.950 . S
H637 C661 0.951 . S
H638 C663 0.951 . S
H639 C665 0.950 . S
H640 C666 0.950 1_565 S
H641 C668 0.950 . S
H642 C671 0.950 . S
H643 C672 0.950 . S
H644 C674 0.950 . S
H645 C675 0.950 . S
C646 H628 0.951 . S
C646 C647 1.366 . S
C646 C648 1.388 . S
C647 C646 1.366 . S
C647 C651 1.385 . S
C648 H629 0.951 . S
C648 C646 1.388 . S
C648 C649 1.366 . S
C649 C648 1.366 . S
C649 C650 1.414 . S
C649 C652 1.499 . S
C650 H630 0.950 . S
C650 C649 1.414 . S
C650 C651 1.374 . S
C651 H631 0.950 . S
C651 C647 1.385 . S
C651 C650 1.374 . S
C652 C649 1.499 . S
C652 C653 1.373 . S
C652 C654 1.389 . S
C653 H632 0.950 . S
C653 C652 1.373 . S
C653 C669 1.377 . S
C654 C652 1.389 . S
C654 C655 1.524 . S
C654 C668 1.377 . S
C655 C654 1.524 . S
C655 C656 1.397 . S
C655 C660 1.363 1_545 S
C656 H633 0.950 . S
C656 C655 1.397 . S
C656 C657 1.334 1_545 S
C657 H634 0.950 . S
C657 C656 1.334 1_565 S
C657 C658 1.287 . S
C658 C657 1.287 . S
C658 C659 1.524 . S
C658 H677 0.913 . S
C659 H635 0.950 . S
C659 C658 1.524 . S
C659 C660 1.415 . S
C660 H636 0.950 . S
C660 C655 1.363 1_565 S
C660 C659 1.415 . S
C661 H637 0.951 . S
C661 C662 1.366 . S
C661 C663 1.388 . S
C662 C661 1.366 . S
C662 C666 1.385 . S
C663 H638 0.951 . S
C663 C661 1.388 . S
C663 C664 1.366 . S
C664 C663 1.366 . S
C664 C665 1.414 . S
C664 C667 1.499 . S
C665 H639 0.950 . S
C665 C664 1.414 . S
C665 C666 1.374 . S
C666 H640 0.950 1_545 S
C666 C662 1.385 . S
C666 C665 1.374 . S
C667 C664 1.499 . S
C667 C668 1.373 . S
C667 C669 1.389 . S
C668 H641 0.950 . S
C668 C654 1.377 . S
C668 C667 1.373 . S
C669 C653 1.377 . S
C669 C667 1.389 . S
C669 C670 1.524 . S
C670 C669 1.524 . S
C670 C671 1.397 . S
C670 C675 1.363 . S
C671 H642 0.950 . S
C671 C670 1.397 . S
C671 C672 1.334 . S
C672 H643 0.950 . S
C672 C671 1.334 . S
C672 C673 1.287 . S
C673 C672 1.287 . S
C673 C674 1.524 . S
C673 H676 0.999 . S
C674 H644 0.950 . S
C674 C673 1.524 . S
C674 C675 1.415 . S
C675 H645 0.950 . S
C675 C670 1.363 . S
C675 C674 1.415 . S
H676 C673 0.999 . S
H677 C658 0.913 . S
H678 C696 0.951 . S
H679 C698 0.951 . S
H680 C700 0.950 . S
H681 C701 0.950 . S
H682 C703 0.950 . S
H683 C706 0.950 . S
H684 C707 0.950 . S
H685 C709 0.950 . S
H686 C710 0.950 . S
H687 C711 0.951 . S
H688 C713 0.951 . S
H689 C715 0.950 . S
H690 C716 0.950 . S
H691 C718 0.950 . S
H692 C721 0.950 . S
H693 C722 0.950 . S
H694 C724 0.950 . S
H695 C725 0.950 . S
C696 H678 0.951 . S
C696 C697 1.366 . S
C696 C698 1.388 . S
C697 C696 1.366 . S
C697 C701 1.385 . S
C698 H679 0.951 . S
C698 C696 1.388 . S
C698 C699 1.366 . S
C699 C698 1.366 . S
C699 C700 1.414 . S
C699 C702 1.499 . S
C700 H680 0.950 . S
C700 C699 1.414 . S
C700 C701 1.374 . S
C701 H681 0.950 . S
C701 C697 1.385 . S
C701 C700 1.374 . S
C702 C699 1.499 . S
C702 C703 1.373 . S
C702 C704 1.389 . S
C703 H682 0.950 . S
C703 C702 1.373 . S
C703 C719 1.377 . S
C704 C702 1.389 . S
C704 C705 1.524 . S
C704 C718 1.377 . S
C705 C704 1.524 . S
C705 C706 1.397 . S
C705 C710 1.363 . S
C706 H683 0.950 . S
C706 C705 1.397 . S
C706 C707 1.334 . S
C707 H684 0.950 . S
C707 C706 1.334 . S
C707 C708 1.287 . S
C708 C707 1.287 . S
C708 C709 1.524 . S
C708 H727 0.913 . S
C709 H685 0.950 . S
C709 C708 1.524 . S
C709 C710 1.415 . S
C710 H686 0.950 . S
C710 C705 1.363 . S
C710 C709 1.415 . S
C711 H687 0.951 . S
C711 C712 1.366 . S
C711 C713 1.388 . S
C712 C711 1.366 . S
C712 C716 1.385 . S
C713 H688 0.951 . S
C713 C711 1.388 . S
C713 C714 1.366 . S
C714 C713 1.366 . S
C714 C715 1.414 . S
C714 C717 1.499 . S
C715 H689 0.950 . S
C715 C714 1.414 . S
C715 C716 1.374 . S
C716 H690 0.950 . S
C716 C712 1.385 . S
C716 C715 1.374 . S
C717 C714 1.499 . S
C717 C718 1.373 . S
C717 C719 1.389 . S
C718 H691 0.950 . S
C718 C704 1.377 . S
C718 C717 1.373 . S
C719 C703 1.377 . S
C719 C717 1.389 . S
C719 C720 1.524 . S
C720 C719 1.524 . S
C720 C721 1.397 . S
C720 C725 1.363 . S
C721 H692 0.950 . S
C721 C720 1.397 . S
C721 C722 1.334 . S
C722 H693 0.950 . S
C722 C721 1.334 . S
C722 C723 1.287 . S
C723 C722 1.287 . S
C723 C724 1.524 . S
C723 H726 0.999 . S
C724 H694 0.950 . S
C724 C723 1.524 . S
C724 C725 1.415 . S
C725 H695 0.950 . S
C725 C720 1.363 . S
C725 C724 1.415 . S
H726 C723 0.999 . S
H727 C708 0.913 . S
H728 C746 0.951 . S
H729 C748 0.951 . S
H730 C750 0.950 . S
H731 C751 0.950 . S
H732 C753 0.950 . S
H733 C756 0.950 . S
H734 C757 0.950 . S
H735 C759 0.950 . S
H736 C760 0.950 . S
H737 C761 0.951 . S
H738 C763 0.951 . S
H739 C765 0.950 . S
H740 C766 0.950 . S
H741 C768 0.950 . S
H742 C771 0.950 . S
H743 C772 0.950 . S
H744 C774 0.950 . S
H745 C775 0.950 . S
C746 H728 0.951 . S
C746 C747 1.366 . S
C746 C748 1.388 . S
C747 C746 1.366 . S
C747 C751 1.385 . S
C748 H729 0.951 . S
C748 C746 1.388 . S
C748 C749 1.366 . S
C749 C748 1.366 . S
C749 C750 1.414 . S
C749 C752 1.499 . S
C750 H730 0.950 . S
C750 C749 1.414 . S
C750 C751 1.374 . S
C751 H731 0.950 . S
C751 C747 1.385 . S
C751 C750 1.374 . S
C752 C749 1.499 . S
C752 C753 1.373 . S
C752 C754 1.389 . S
C753 H732 0.950 . S
C753 C752 1.373 . S
C753 C769 1.377 . S
C754 C752 1.389 . S
C754 C755 1.524 . S
C754 C768 1.377 . S
C755 C754 1.524 . S
C755 C756 1.397 . S
C755 C760 1.363 . S
C756 H733 0.950 . S
C756 C755 1.397 . S
C756 C757 1.334 . S
C757 H734 0.950 . S
C757 C756 1.334 . S
C757 C758 1.287 . S
C758 C757 1.287 . S
C758 C759 1.524 . S
C758 H777 0.913 . S
C759 H735 0.950 . S
C759 C758 1.524 . S
C759 C760 1.415 . S
C760 H736 0.950 . S
C760 C755 1.363 . S
C760 C759 1.415 . S
C761 H737 0.951 . S
C761 C762 1.366 . S
C761 C763 1.388 . S
C762 C761 1.366 . S
C762 C766 1.385 . S
C763 H738 0.951 . S
C763 C761 1.388 . S
C763 C764 1.366 . S
C764 C763 1.366 . S
C764 C765 1.414 . S
C764 C767 1.499 . S
C765 H739 0.950 . S
C765 C764 1.414 . S
C765 C766 1.374 . S
C766 H740 0.950 . S
C766 C762 1.385 . S
C766 C765 1.374 . S
C767 C764 1.499 . S
C767 C768 1.373 . S
C767 C769 1.389 . S
C768 H741 0.950 . S
C768 C754 1.377 . S
C768 C767 1.373 . S
C769 C753 1.377 . S
C769 C767 1.389 . S
C769 C770 1.524 . S
C770 C769 1.524 . S
C770 C771 1.397 . S
C770 C775 1.363 . S
C771 H742 0.950 . S
C771 C770 1.397 . S
C771 C772 1.334 . S
C772 H743 0.950 . S
C772 C771 1.334 . S
C772 C773 1.287 . S
C773 C772 1.287 . S
C773 C774 1.524 . S
C773 H776 0.999 . S
C774 H744 0.950 . S
C774 C773 1.524 . S
C774 C775 1.415 . S
C775 H745 0.950 . S
C775 C770 1.363 . S
C775 C774 1.415 . S
H776 C773 0.999 . S
H777 C758 0.913 . S
H778 C796 0.951 . S
H779 C798 0.951 . S
H780 C800 0.950 . S
H781 C801 0.950 . S
H782 C803 0.950 . S
H783 C806 0.950 . S
H784 C807 0.950 . S
H785 C809 0.950 . S
H786 C810 0.950 . S
H787 C811 0.951 . S
H788 C813 0.951 . S
H789 C815 0.950 . S
H790 C816 0.950 . S
H791 C818 0.950 . S
H792 C821 0.950 . S
H793 C822 0.950 . S
H794 C824 0.950 . S
H795 C825 0.958 . S
C796 H778 0.951 . S
C796 C797 1.366 . S
C796 C798 1.388 . S
C797 C796 1.366 . S
C797 C801 1.385 . S
C798 H779 0.951 . S
C798 C796 1.388 . S
C798 C799 1.366 . S
C799 C798 1.366 . S
C799 C800 1.414 . S
C799 C802 1.499 . S
C800 H780 0.950 . S
C800 C799 1.414 . S
C800 C801 1.374 . S
C801 H781 0.950 . S
C801 C797 1.385 . S
C801 C800 1.374 . S
C802 C799 1.499 . S
C802 C803 1.373 . S
C802 C804 1.389 . S
C803 H782 0.950 . S
C803 C802 1.373 . S
C803 C819 1.377 . S
C804 C802 1.389 . S
C804 C805 1.524 . S
C804 C818 1.377 . S
C805 C804 1.524 . S
C805 C806 1.397 . S
C805 C810 1.363 . S
C806 H783 0.950 . S
C806 C805 1.397 . S
C806 C807 1.334 . S
C807 H784 0.950 . S
C807 C806 1.334 . S
C807 C808 1.287 . S
C808 C807 1.287 . S
C808 C809 1.524 . S
C808 H827 0.913 . S
C809 H785 0.950 . S
C809 C808 1.524 . S
C809 C810 1.415 . S
C810 H786 0.950 . S
C810 C805 1.363 . S
C810 C809 1.415 . S
C811 H787 0.951 . S
C811 C812 1.366 . S
C811 C813 1.388 . S
C812 C811 1.366 . S
C812 C816 1.385 . S
C813 H788 0.951 . S
C813 C811 1.388 . S
C813 C814 1.366 . S
C814 C813 1.366 . S
C814 C815 1.414 . S
C814 C817 1.499 . S
C815 H789 0.950 . S
C815 C814 1.414 . S
C815 C816 1.374 . S
C816 H790 0.950 . S
C816 C812 1.385 . S
C816 C815 1.374 . S
C817 C814 1.499 . S
C817 C818 1.373 . S
C817 C819 1.389 . S
C818 H791 0.950 . S
C818 C804 1.377 . S
C818 C817 1.373 . S
C819 C803 1.377 . S
C819 C817 1.389 . S
C819 C820 1.524 . S
C820 C819 1.524 . S
C820 C821 1.397 . S
C820 C825 1.363 . S
C821 H792 0.950 . S
C821 C820 1.397 . S
C821 C822 1.334 . S
C822 H793 0.950 . S
C822 C821 1.334 . S
C822 C823 1.287 . S
C823 C822 1.287 . S
C823 C824 1.524 1_545 S
C823 H826 0.999 1_545 S
C824 H794 0.950 . S
C824 C823 1.524 1_565 S
C824 C825 1.415 1_565 S
C825 H795 0.958 . S
C825 C820 1.363 . S
C825 C824 1.415 1_545 S
H826 C823 0.999 1_565 S
H827 C808 0.913 . S
H828 C846 0.951 . S
H829 C848 0.951 . S
H830 C850 0.950 . S
H831 C851 0.950 . S
H832 C853 0.950 . S
H833 C856 0.950 . S
H834 C857 0.950 . S
H835 C859 0.950 . S
H836 C860 0.950 . S
H837 C861 0.951 . S
H838 C863 0.951 . S
H839 C865 0.950 . S
H840 C866 0.950 . S
H841 C868 0.950 . S
H842 C871 0.950 . S
H843 C872 0.950 . S
H844 C874 0.950 . S
H845 C875 0.950 . S
C846 H828 0.951 . S
C846 C847 1.366 . S
C846 C848 1.388 . S
C847 C846 1.366 . S
C847 C851 1.385 . S
C848 H829 0.951 . S
C848 C846 1.388 . S
C848 C849 1.366 . S
C849 C848 1.366 . S
C849 C850 1.414 . S
C849 C852 1.499 . S
C850 H830 0.950 . S
C850 C849 1.414 . S
C850 C851 1.374 . S
C851 H831 0.950 . S
C851 C847 1.385 . S
C851 C850 1.374 . S
C852 C849 1.499 . S
C852 C853 1.373 . S
C852 C854 1.389 . S
C853 H832 0.950 . S
C853 C852 1.373 . S
C853 C869 1.377 . S
C854 C852 1.389 . S
C854 C855 1.524 . S
C854 C868 1.377 . S
C855 C854 1.524 . S
C855 C856 1.397 . S
C855 C860 1.363 . S
C856 H833 0.950 . S
C856 C855 1.397 . S
C856 C857 1.334 . S
C857 H834 0.950 . S
C857 C856 1.334 . S
C857 C858 1.287 . S
C858 C857 1.287 . S
C858 C859 1.524 . S
C858 H877 0.913 . S
C859 H835 0.950 . S
C859 C858 1.524 . S
C859 C860 1.415 . S
C860 H836 0.950 . S
C860 C855 1.363 . S
C860 C859 1.415 . S
C861 H837 0.951 . S
C861 C862 1.366 . S
C861 C863 1.388 . S
C862 C861 1.366 . S
C862 C866 1.385 . S
C863 H838 0.951 . S
C863 C861 1.388 . S
C863 C864 1.366 . S
C864 C863 1.366 . S
C864 C865 1.414 . S
C864 C867 1.499 . S
C865 H839 0.950 . S
C865 C864 1.414 . S
C865 C866 1.374 . S
C866 H840 0.950 . S
C866 C862 1.385 . S
C866 C865 1.374 . S
C867 C864 1.499 . S
C867 C868 1.373 . S
C867 C869 1.389 . S
C868 H841 0.950 . S
C868 C854 1.377 . S
C868 C867 1.373 . S
C869 C853 1.377 . S
C869 C867 1.389 . S
C869 C870 1.524 . S
C870 C869 1.524 . S
C870 C871 1.397 . S
C870 C875 1.363 . S
C871 H842 0.950 . S
C871 C870 1.397 . S
C871 C872 1.334 . S
C872 H843 0.950 . S
C872 C871 1.334 . S
C872 C873 1.287 . S
C873 C872 1.287 . S
C873 C874 1.524 . S
C873 H876 0.999 . S
C874 H844 0.950 . S
C874 C873 1.524 . S
C874 C875 1.415 . S
C875 H845 0.950 . S
C875 C870 1.363 . S
C875 C874 1.415 . S
H876 C873 0.999 . S
H877 C858 0.913 . S
H878 C896 0.951 . S
H879 C898 0.951 . S
H880 C900 0.950 . S
H881 C901 0.950 . S
H882 C903 0.950 . S
H883 C906 0.950 . S
H884 C907 0.950 . S
H885 C909 0.950 1_545 S
H886 C910 0.950 1_545 S
H887 C911 0.951 . S
H888 C913 0.951 . S
H889 C915 0.950 1_545 S
H890 C916 0.950 1_545 S
H891 C918 0.950 . S
H892 C921 0.950 . S
H893 C922 0.950 . S
H894 C924 0.950 . S
H895 C925 0.950 . S
C896 H878 0.951 . S
C896 C897 1.366 . S
C896 C898 1.388 . S
C897 C896 1.366 . S
C897 C901 1.385 . S
C898 H879 0.951 . S
C898 C896 1.388 . S
C898 C899 1.366 . S
C899 C898 1.366 . S
C899 C900 1.414 . S
C899 C902 1.499 . S
C900 H880 0.950 . S
C900 C899 1.414 . S
C900 C901 1.374 . S
C901 H881 0.950 . S
C901 C897 1.385 . S
C901 C900 1.374 . S
C902 C899 1.499 . S
C902 C903 1.373 . S
C902 C904 1.389 . S
C903 H882 0.950 . S
C903 C902 1.373 . S
C903 C919 1.377 . S
C904 C902 1.389 . S
C904 C905 1.524 . S
C904 C918 1.377 . S
C905 C904 1.524 . S
C905 C906 1.397 . S
C905 C910 1.363 . S
C906 H883 0.950 . S
C906 C905 1.397 . S
C906 C907 1.334 . S
C907 H884 0.950 . S
C907 C906 1.334 . S
C907 C908 1.287 . S
C908 C907 1.287 . S
C908 C909 1.524 . S
C908 H927 0.913 . S
C909 H885 0.950 1_565 S
C909 C908 1.524 . S
C909 C910 1.415 . S
C910 H886 0.950 1_565 S
C910 C905 1.363 . S
C910 C909 1.415 . S
C911 H887 0.951 . S
C911 C912 1.366 . S
C911 C913 1.388 . S
C912 C911 1.366 . S
C912 C916 1.385 . S
C913 H888 0.951 . S
C913 C911 1.388 . S
C913 C914 1.366 . S
C914 C913 1.366 . S
C914 C915 1.414 . S
C914 C917 1.499 . S
C915 H889 0.950 1_565 S
C915 C914 1.414 . S
C915 C916 1.374 . S
C916 H890 0.950 1_565 S
C916 C912 1.385 . S
C916 C915 1.374 . S
C917 C914 1.499 . S
C917 C918 1.373 . S
C917 C919 1.389 . S
C918 H891 0.950 . S
C918 C904 1.377 . S
C918 C917 1.373 . S
C919 C903 1.377 . S
C919 C917 1.389 . S
C919 C920 1.524 . S
C920 C919 1.524 . S
C920 C921 1.397 . S
C920 C925 1.363 . S
C921 H892 0.950 . S
C921 C920 1.397 . S
C921 C922 1.334 . S
C922 H893 0.950 . S
C922 C921 1.334 . S
C922 C923 1.287 . S
C923 C922 1.287 . S
C923 C924 1.524 . S
C923 H926 0.999 . S
C924 H894 0.950 . S
C924 C923 1.524 . S
C924 C925 1.415 . S
C925 H895 0.950 . S
C925 C920 1.363 . S
C925 C924 1.415 . S
H926 C923 0.999 . S
H927 C908 0.913 . S
C362 C223 1.648 . S
C347 C135 1.650 . S
C397 C15 1.638 . S
C412 C318 1.632 . S
C447 C55 1.647 . S
C462 C234 1.639 . S
C497 C95 1.648 . S
C512 C307 1.645 . S
C562 C218 1.417 . S
C547 C2 1.562 . S
C612 C311 1.611 . S
C597 C42 1.612 . S
C647 C82 1.598 . S
C662 C227 1.606 . S
C697 C141 1.521 . S
C712 C302 1.407 . S
C762 C313 1.426 . S
C747 C61 1.567 . S
C812 C229 1.447 . S
C797 C101 1.592 . S
C862 C300 1.642 . S
C847 C122 1.608 . S
C897 C21 1.640 . S
C912 C216 1.640 . S
