# Generated by pormake.
# Topology the, (3,8)-cn, num edge types: 1
# Building blocks:
#     Node 0, Type 0, BuildingBlock: OLANEW_clean_sbu_2, # of connection points: 3
#     Node 1, Type 0, BuildingBlock: OLANEW_clean_sbu_2, # of connection points: 3
#     Node 2, Type 0, BuildingBlock: OLANEW_clean_sbu_2, # of connection points: 3
#     Node 3, Type 0, BuildingBlock: OLANEW_clean_sbu_2, # of connection points: 3
#     Node 4, Type 0, BuildingBlock: OLANEW_clean_sbu_2, # of connection points: 3
#     Node 5, Type 0, BuildingBlock: OLANEW_clean_sbu_2, # of connection points: 3
#     Node 6, Type 0, BuildingBlock: OLANEW_clean_sbu_2, # of connection points: 3
#     Node 7, Type 0, BuildingBlock: OLANEW_clean_sbu_2, # of connection points: 3
#     Node 8, Type 1, BuildingBlock: GIZVER_clean_sbu_0, # of connection points: 8
#     Node 9, Type 1, BuildingBlock: GIZVER_clean_sbu_0, # of connection points: 8
#     Node 10, Type 1, BuildingBlock: GIZVER_clean_sbu_0, # of connection points: 8
#     Edge 11, Type (0, 1), BuildingBlock: AJUNOK_clean_linker_0, # of connection points: 2
#     Edge 12, Type (0, 1), BuildingBlock: AJUNOK_clean_linker_0, # of connection points: 2
#     Edge 13, Type (0, 1), BuildingBlock: AJUNOK_clean_linker_0, # of connection points: 2
#     Edge 14, Type (0, 1), BuildingBlock: AJUNOK_clean_linker_0, # of connection points: 2
#     Edge 15, Type (0, 1), BuildingBlock: AJUNOK_clean_linker_0, # of connection points: 2
#     Edge 16, Type (0, 1), BuildingBlock: AJUNOK_clean_linker_0, # of connection points: 2
#     Edge 17, Type (0, 1), BuildingBlock: AJUNOK_clean_linker_0, # of connection points: 2
#     Edge 18, Type (0, 1), BuildingBlock: AJUNOK_clean_linker_0, # of connection points: 2
#     Edge 19, Type (0, 1), BuildingBlock: AJUNOK_clean_linker_0, # of connection points: 2
#     Edge 20, Type (0, 1), BuildingBlock: AJUNOK_clean_linker_0, # of connection points: 2
#     Edge 21, Type (0, 1), BuildingBlock: AJUNOK_clean_linker_0, # of connection points: 2
#     Edge 22, Type (0, 1), BuildingBlock: AJUNOK_clean_linker_0, # of connection points: 2
#     Edge 23, Type (0, 1), BuildingBlock: AJUNOK_clean_linker_0, # of connection points: 2
#     Edge 24, Type (0, 1), BuildingBlock: AJUNOK_clean_linker_0, # of connection points: 2
#     Edge 25, Type (0, 1), BuildingBlock: AJUNOK_clean_linker_0, # of connection points: 2
#     Edge 26, Type (0, 1), BuildingBlock: AJUNOK_clean_linker_0, # of connection points: 2
#     Edge 27, Type (0, 1), BuildingBlock: AJUNOK_clean_linker_0, # of connection points: 2
#     Edge 28, Type (0, 1), BuildingBlock: AJUNOK_clean_linker_0, # of connection points: 2
#     Edge 29, Type (0, 1), BuildingBlock: AJUNOK_clean_linker_0, # of connection points: 2
#     Edge 30, Type (0, 1), BuildingBlock: AJUNOK_clean_linker_0, # of connection points: 2
#     Edge 31, Type (0, 1), BuildingBlock: AJUNOK_clean_linker_0, # of connection points: 2
#     Edge 32, Type (0, 1), BuildingBlock: AJUNOK_clean_linker_0, # of connection points: 2
#     Edge 33, Type (0, 1), BuildingBlock: AJUNOK_clean_linker_0, # of connection points: 2
#     Edge 34, Type (0, 1), BuildingBlock: AJUNOK_clean_linker_0, # of connection points: 2
# Relax obj value: 0.083
# Max RMSD: 0.225
# Mean RMSD: 0.131
data_MOF--net-the--node1-OLANEW_clean_sbu_2--node2-GIZVER_clean_sbu_0--edge1-AJUNOK_clean_linker_0
_symmetry_space_group_name_H-M    P1
_symmetry_Int_Tables_number       1
_symmetry_cell_setting            triclinic
loop_
_symmetry_equiv_pos_as_xyz
'x, y, z'
_cell_length_a     33.82442
_cell_length_b     32.457715
_cell_length_c     28.709658
_cell_angle_alpha  90.233585
_cell_angle_beta   95.136312
_cell_angle_gamma 110.88816
loop_
_atom_site_label
_atom_site_type_symbol
_atom_site_fract_x
_atom_site_fract_y
_atom_site_fract_z
_atom_type_partial_charge
O0 O 0.3614 0.36698 0.32717 0.0
Cd1 Cd 0.33925 0.33452 0.40235 0.0
O2 O 0.34343 0.42411 0.34233 0.0
Cd3 Cd 0.30682 0.39421 0.40012 0.0
O4 O 0.24687 0.38445 0.42905 0.0
C5 C 0.24606 0.41513 0.45605 0.0
O6 O 0.28192 0.44791 0.46834 0.0
C7 C 0.36031 0.40461 0.31636 0.0
C8 C 0.36508 0.26425 0.4292 0.0
O9 O 0.32919 0.25764 0.40565 0.0
O10 O 0.3894 0.30433 0.43923 0.0
O11 O 0.75978 0.39549 0.29862 0.0
Cd12 Cd 0.69802 0.34877 0.24606 0.0
O13 O 0.7707 0.34011 0.33488 0.0
Cd14 Cd 0.70969 0.28901 0.30964 0.0
O15 O 0.65258 0.23393 0.32557 0.0
C16 C 0.65816 0.20128 0.34565 0.0
O17 O 0.69711 0.20145 0.35304 0.0
C18 C 0.78228 0.38118 0.32757 0.0
C19 C 0.65018 0.39166 0.19425 0.0
O20 O 0.64082 0.37651 0.23462 0.0
O21 O 0.68303 0.3877 0.17861 0.0
O22 O 0.71339 0.72394 0.25859 0.0
Cd23 Cd 0.76034 0.77976 0.31644 0.0
O24 O 0.69153 0.76887 0.21537 0.0
Cd25 Cd 0.7172 0.82331 0.26784 0.0
O26 O 0.70073 0.86205 0.32042 0.0
C27 C 0.67368 0.83911 0.34697 0.0
O28 O 0.66105 0.79593 0.34239 0.0
C29 C 0.69208 0.73041 0.22245 0.0
C30 C 0.80933 0.74043 0.36991 0.0
O31 O 0.77267 0.73807 0.38072 0.0
O32 O 0.82386 0.76309 0.33468 0.0
O33 O 0.38869 0.84484 0.27927 0.0
Cd34 Cd 0.35968 0.80368 0.2045 0.0
O35 O 0.33948 0.79579 0.31467 0.0
Cd36 Cd 0.29765 0.76204 0.36726 0.0
O37 O 0.24067 0.70896 0.38598 0.0
C38 C 0.2046 0.71326 0.38219 0.0
O39 O 0.20205 0.751 0.36892 0.0
C40 C 0.37172 0.83139 0.31674 0.0
C41 C 0.38717 0.73362 0.18885 0.0
O42 O 0.41059 0.77362 0.18245 0.0
O43 O 0.35067 0.72641 0.20347 0.0
O44 O 0.40746 0.80822 0.75578 0.0
Cd45 Cd 0.37093 0.7383 0.79495 0.0
O46 O 0.35069 0.81307 0.71503 0.0
Cd47 Cd 0.30071 0.75373 0.7348 0.0
O48 O 0.2414 0.70174 0.70758 0.0
C49 C 0.2106 0.71144 0.68831 0.0
O50 O 0.21389 0.753 0.6881 0.0
C51 C 0.39057 0.82829 0.72664 0.0
C52 C 0.42155 0.69878 0.8485 0.0
O53 O 0.41628 0.69496 0.8037 0.0
O54 O 0.40402 0.72232 0.86843 0.0
O55 O 0.35582 0.34094 0.77827 0.0
Cd56 Cd 0.30636 0.29092 0.71689 0.0
O57 O 0.31422 0.37042 0.80953 0.0
Cd58 Cd 0.2611 0.34546 0.75437 0.0
O59 O 0.22114 0.36579 0.70149 0.0
C60 C 0.18096 0.34834 0.69255 0.0
O61 O 0.15997 0.31313 0.71475 0.0
C62 C 0.35013 0.36614 0.80906 0.0
C63 C 0.34596 0.24064 0.67245 0.0
O64 O 0.34923 0.27932 0.65935 0.0
O65 O 0.32338 0.22517 0.70629 0.0
O66 O 0.71902 0.38809 0.78119 0.0
Cd67 Cd 0.75227 0.34236 0.74382 0.0
O68 O 0.70497 0.34715 0.8427 0.0
Cd69 Cd 0.71171 0.29384 0.80167 0.0
O70 O 0.68444 0.24895 0.74058 0.0
C71 C 0.65269 0.21416 0.74557 0.0
O72 O 0.63945 0.20574 0.78736 0.0
C73 C 0.70608 0.38192 0.82177 0.0
C74 C 0.82039 0.39443 0.69704 0.0
O75 O 0.78345 0.37538 0.67517 0.0
O76 O 0.82523 0.38829 0.74092 0.0
O77 O 0.79295 0.74874 0.55253 0.0
Cd78 Cd 0.74356 0.76892 0.59688 0.0
O79 O 0.76604 0.69674 0.60043 0.0
Cd80 Cd 0.76031 0.64087 0.64442 0.0
O81 O 0.72823 0.60773 0.70319 0.0
C82 C 0.74429 0.62162 0.7445 0.0
O83 O 0.78243 0.65224 0.75059 0.0
C84 C 0.79262 0.7131 0.57084 0.0
C85 C 0.70269 0.82499 0.56417 0.0
O86 O 0.74109 0.84016 0.58327 0.0
O87 O 0.68447 0.78305 0.55788 0.0
Co88 Co 0.07097 0.49253 0.55125 0.0
Co89 Co 0.0421 0.47777 0.46182 0.0
Co90 Co 0.99939 0.53948 0.5102 0.0
O91 O 0.01799 0.48728 0.51605 0.0
H92 H 0.99498 0.4608 0.52281 0.0
O93 O 0.98161 0.5917 0.50396 0.0
Co94 Co 0.92645 0.58728 0.47651 0.0
Co95 Co 0.96561 0.60231 0.56217 0.0
H96 H 1.00398 0.61777 0.49512 0.0
O97 O 0.05501 0.4264 0.44898 0.0
O98 O 0.09464 0.48565 0.49341 0.0
O99 O 0.05584 0.52516 0.41877 0.0
O100 O 0.04426 0.57189 0.46802 0.0
O101 O 0.95815 0.50803 0.45545 0.0
O102 O 0.87737 0.58846 0.45119 0.0
O103 O 0.93916 0.64566 0.46586 0.0
O104 O 0.90625 0.52545 0.48129 0.0
O105 O 0.9548 0.50778 0.5532 0.0
O106 O 0.96083 0.55817 0.60855 0.0
O107 O 0.91054 0.59544 0.53971 0.0
O108 O 0.95902 0.65529 0.57791 0.0
C109 C 0.09569 0.4499 0.58485 0.0
C110 C 0.07901 0.5778 0.56858 0.0
C111 C 0.06081 0.56413 0.43228 0.0
C112 C 0.09064 0.4486 0.47311 0.0
C113 C 0.89894 0.63044 0.45006 0.0
C114 C 0.91874 0.50283 0.45373 0.0
C115 C 0.94856 0.51817 0.59418 0.0
C116 C 0.92042 0.63426 0.55969 0.0
O117 O 0.11746 0.49191 0.58421 0.0
O118 O 0.05733 0.43429 0.56323 0.0
O119 O 0.03954 0.57156 0.56527 0.0
O120 O 0.09246 0.55372 0.54452 0.0
Co121 Co 0.54674 0.949 0.49014 0.0
Co122 Co 0.57279 0.98288 0.57502 0.0
Co123 Co 0.50836 0.02491 0.53062 0.0
O124 O 0.55609 0.00453 0.52102 0.0
H125 H 0.58072 0.02792 0.51176 0.0
O126 O 0.46129 0.04761 0.53869 0.0
Co127 Co 0.47264 0.10684 0.5645 0.0
Co128 Co 0.44816 0.06897 0.48094 0.0
H129 H 0.43654 0.02549 0.54956 0.0
O130 O 0.62628 0.98008 0.58476 0.0
O131 O 0.5669 0.92835 0.54958 0.0
O132 O 0.53729 0.97472 0.62468 0.0
O133 O 0.48231 0.97897 0.57874 0.0
O134 O 0.54447 0.0653 0.58216 0.0
O135 O 0.47814 0.15908 0.58919 0.0
O136 O 0.41892 0.09829 0.57835 0.0
O137 O 0.53136 0.12327 0.55609 0.0
O138 O 0.53563 0.07029 0.48369 0.0
O139 O 0.48426 0.0726 0.43137 0.0
O140 O 0.45968 0.12682 0.50107 0.0
O141 O 0.39801 0.07867 0.46649 0.0
C142 C 0.58208 0.92249 0.45373 0.0
C143 C 0.46491 0.94188 0.479 0.0
C144 C 0.49782 0.96717 0.61677 0.0
C145 C 0.60707 0.9411 0.56497 0.0
C146 C 0.43768 0.13958 0.59268 0.0
C147 C 0.55246 0.10662 0.58402 0.0
C148 C 0.52317 0.07968 0.44316 0.0
C149 C 0.42145 0.11871 0.48065 0.0
O150 O 0.54289 0.89954 0.46048 0.0
O151 O 0.59912 0.96329 0.47 0.0
O152 O 0.47175 0.9832 0.4794 0.0
O153 O 0.48954 0.92768 0.50484 0.0
Co154 Co 0.48574 0.56533 0.10825 0.0
Co155 Co 0.46107 0.48405 0.08901 0.0
Co156 Co 0.52966 0.53767 0.01847 0.0
O157 O 0.47837 0.53135 0.05163 0.0
H158 H 0.45488 0.53221 0.03037 0.0
O159 O 0.58159 0.54384 0.98725 0.0
Co160 Co 0.57911 0.51096 0.93185 0.0
Co161 Co 0.60226 0.59407 0.9539 0.0
H162 H 0.60436 0.54318 0.00973 0.0
O163 O 0.40634 0.45762 0.1029 0.0
O164 O 0.46004 0.51171 0.14514 0.0
O165 O 0.49872 0.45271 0.09969 0.0
O166 O 0.55053 0.4979 0.0614 0.0
O167 O 0.49299 0.48548 0.97646 0.0
O168 O 0.58165 0.47997 0.88216 0.0
O169 O 0.63081 0.50612 0.94377 0.0
O170 O 0.52437 0.5107 0.91297 0.0
O171 O 0.50955 0.57809 0.97537 0.0
O172 O 0.56414 0.62487 0.94123 0.0
O173 O 0.60316 0.56586 0.89849 0.0
O174 O 0.65878 0.61699 0.93944 0.0
C175 C 0.45318 0.59954 0.13662 0.0
C176 C 0.56994 0.58861 0.10354 0.0
C177 C 0.53659 0.46592 0.08887 0.0
C178 C 0.42286 0.47986 0.14209 0.0
C179 C 0.61824 0.4838 0.90389 0.0
C180 C 0.4928 0.48489 0.93191 0.0
C181 C 0.52552 0.61137 0.94985 0.0
C182 C 0.64267 0.59195 0.902 0.0
O183 O 0.489 0.59976 0.15755 0.0
O184 O 0.43599 0.57405 0.09938 0.0
O185 O 0.56596 0.59004 0.0592 0.0
O186 O 0.53999 0.56211 0.12414 0.0
C187 C 0.20539 0.45648 0.49034 0.0
C188 C 0.20504 0.41845 0.46642 0.0
C189 C 0.16795 0.46471 0.49393 0.0
C190 C 0.12834 0.43525 0.4739 0.0
H191 H 0.23507 0.48124 0.50481 0.0
H192 H 0.17056 0.49547 0.51111 0.0
S193 S 0.10889 0.32714 0.41444 0.0
N194 N 0.16095 0.34825 0.42727 0.0
N195 N 0.09035 0.36384 0.43425 0.0
C196 C 0.12699 0.39554 0.4528 0.0
C197 C 0.16534 0.38708 0.44908 0.0
C198 C 0.58215 0.17055 0.36464 0.0
C199 C 0.6223 0.16641 0.36536 0.0
C200 C 0.54937 0.14094 0.38785 0.0
C201 C 0.55556 0.10622 0.41293 0.0
H202 H 0.57634 0.19776 0.34743 0.0
H203 H 0.51968 0.14659 0.38797 0.0
S204 S 0.65207 0.07656 0.42001 0.0
N205 N 0.66444 0.12148 0.38919 0.0
N206 N 0.60294 0.06637 0.43276 0.0
C207 C 0.59456 0.10019 0.41176 0.0
C208 C 0.62786 0.13009 0.38797 0.0
C209 C 0.87684 0.72673 0.39329 0.0
C210 C 0.83265 0.71482 0.39489 0.0
C211 C 0.89862 0.70024 0.41282 0.0
C212 C 0.8767 0.6603 0.43334 0.0
H213 H 0.89465 0.75642 0.37627 0.0
H214 H 0.93249 0.71028 0.41026 0.0
S215 S 0.76133 0.6154 0.44872 0.0
N216 N 0.76835 0.66174 0.42143 0.0
N217 N 0.80867 0.61126 0.45618 0.0
C218 C 0.83273 0.64866 0.43621 0.0
C219 C 0.81087 0.67611 0.41753 0.0
C220 C 0.4038 0.90423 0.35967 0.0
C221 C 0.38961 0.85794 0.36082 0.0
C222 C 0.42605 0.93101 0.3989 0.0
C223 C 0.43601 0.91258 0.4406 0.0
H224 H 0.39845 0.91997 0.32773 0.0
H225 H 0.43721 0.96648 0.39565 0.0
S226 S 0.40452 0.79294 0.46227 0.0
N227 N 0.38535 0.79463 0.40761 0.0
N228 N 0.42799 0.84486 0.48131 0.0
C229 C 0.42081 0.86622 0.4427 0.0
C230 C 0.39739 0.83892 0.40285 0.0
C231 C 0.17785 0.63623 0.65023 0.0
C232 C 0.17436 0.677 0.66109 0.0
C233 C 0.14655 0.60449 0.6208 0.0
C234 C 0.10989 0.61161 0.60158 0.0
H235 H 0.20566 0.62908 0.66336 0.0
H236 H 0.15146 0.57417 0.61282 0.0
S237 S 0.08393 0.71174 0.62041 0.0
N238 N 0.13042 0.72233 0.65111 0.0
N239 N 0.07101 0.66177 0.59641 0.0
C240 C 0.10505 0.65149 0.61323 0.0
C241 C 0.13741 0.68438 0.64276 0.0
C242 C 0.35551 0.16898 0.65436 0.0
C243 C 0.36847 0.21507 0.65003 0.0
C244 C 0.37722 0.14445 0.63465 0.0
C245 C 0.41335 0.16524 0.61093 0.0
H246 H 0.32834 0.15166 0.67312 0.0
H247 H 0.36627 0.10915 0.6391 0.0
S248 S 0.45967 0.28482 0.58848 0.0
N249 N 0.41895 0.28011 0.61845 0.0
N250 N 0.46034 0.23447 0.58295 0.0
C251 C 0.42637 0.21119 0.60596 0.0
C252 C 0.40379 0.23596 0.62508 0.0
C253 C 0.85484 0.41905 0.62351 0.0
C254 C 0.8559 0.42377 0.67239 0.0
C255 C 0.88634 0.44838 0.59875 0.0
C256 C 0.9196 0.4841 0.62186 0.0
H257 H 0.82913 0.39284 0.60405 0.0
H258 H 0.88348 0.44412 0.56099 0.0
S259 S 0.93832 0.50972 0.74975 0.0
N260 N 0.8944 0.46554 0.7433 0.0
N261 N 0.95304 0.52124 0.69658 0.0
C262 C 0.92178 0.48846 0.67085 0.0
C263 C 0.8901 0.45813 0.69617 0.0
C264 C 0.6338 0.83765 0.55575 0.0
C265 C 0.67837 0.85461 0.55576 0.0
C266 C 0.61068 0.86583 0.55727 0.0
C267 C 0.63132 0.91188 0.55876 0.0
H268 H 0.6168 0.80244 0.55701 0.0
H269 H 0.57665 0.85144 0.55911 0.0
S270 S 0.74622 0.97255 0.54989 0.0
N271 N 0.7414 0.92012 0.5508 0.0
N272 N 0.69792 0.97303 0.55328 0.0
C273 C 0.67539 0.92914 0.55528 0.0
C274 C 0.69891 0.9005 0.55378 0.0
C275 C 0.42065 0.23444 0.46132 0.0
C276 C 0.37819 0.22678 0.44419 0.0
C277 C 0.43415 0.19948 0.47405 0.0
C278 C 0.4057 0.15541 0.47051 0.0
H279 H 0.44396 0.26767 0.46415 0.0
H280 H 0.46738 0.2071 0.48589 0.0
S281 S 0.29009 0.11782 0.43207 0.0
N282 N 0.30714 0.17185 0.42722 0.0
N283 N 0.33229 0.10641 0.45155 0.0
C284 C 0.36282 0.14742 0.45494 0.0
C285 C 0.34914 0.18298 0.44171 0.0
C286 C 0.82085 0.45522 0.36696 0.0
C287 C 0.8199 0.41263 0.35607 0.0
C288 C 0.85333 0.4841 0.39797 0.0
C289 C 0.88687 0.47217 0.41859 0.0
H290 H 0.79543 0.46587 0.35284 0.0
H291 H 0.85184 0.51601 0.406 0.0
S292 S 0.90116 0.36565 0.39915 0.0
N293 N 0.85649 0.36043 0.36698 0.0
N294 N 0.91831 0.41561 0.42422 0.0
C295 C 0.88743 0.43043 0.40655 0.0
C296 C 0.85374 0.40045 0.37566 0.0
C297 C 0.66422 0.90646 0.38047 0.0
C298 C 0.65296 0.86021 0.37828 0.0
C299 C 0.64202 0.92663 0.40605 0.0
C300 C 0.60731 0.90127 0.42974 0.0
H301 H 0.68977 0.92728 0.36145 0.0
H302 H 0.65125 0.96221 0.40596 0.0
S303 S 0.56813 0.77959 0.44008 0.0
N304 N 0.60726 0.79016 0.40627 0.0
N305 N 0.56506 0.82788 0.45287 0.0
C306 C 0.59683 0.85524 0.42945 0.0
C307 C 0.61979 0.83479 0.40416 0.0
C308 C 0.16548 0.63221 0.38763 0.0
C309 C 0.16588 0.67561 0.39134 0.0
C310 C 0.13004 0.59598 0.39777 0.0
C311 C 0.09381 0.60176 0.41279 0.0
H312 H 0.19301 0.62611 0.37731 0.0
H313 H 0.13197 0.56341 0.39602 0.0
S314 S 0.07771 0.70832 0.42588 0.0
N315 N 0.12595 0.7221 0.4088 0.0
N316 N 0.05964 0.65404 0.42861 0.0
C317 C 0.09324 0.64484 0.41526 0.0
C318 C 0.12915 0.68173 0.40432 0.0
C319 C 0.40093 0.87965 0.65988 0.0
C320 C 0.41728 0.86768 0.70257 0.0
C321 C 0.42638 0.9136 0.63358 0.0
C322 C 0.46927 0.93726 0.64891 0.0
H323 H 0.36858 0.86145 0.64549 0.0
H324 H 0.41277 0.91987 0.59996 0.0
S325 S 0.52569 0.92376 0.76188 0.0
N326 N 0.47783 0.88549 0.76127 0.0
N327 N 0.52553 0.94966 0.71255 0.0
C328 C 0.48523 0.92755 0.69306 0.0
C329 C 0.45936 0.89269 0.71962 0.0
C330 C 0.18099 0.41283 0.64517 0.0
C331 C 0.15815 0.37093 0.6613 0.0
C332 C 0.16042 0.43727 0.61968 0.0
C333 C 0.11602 0.42092 0.60869 0.0
H334 H 0.21512 0.42768 0.6533 0.0
H335 H 0.17969 0.46967 0.60903 0.0
S336 S 0.04154 0.31132 0.63856 0.0
N337 N 0.08859 0.31281 0.66158 0.0
N338 N 0.05 0.35888 0.61319 0.0
C339 C 0.09282 0.37827 0.62259 0.0
C340 C 0.11383 0.35331 0.64902 0.0
C341 C 0.62987 0.203 0.65947 0.0
C342 C 0.62873 0.18555 0.70442 0.0
C343 C 0.60503 0.17737 0.62053 0.0
C344 C 0.57909 0.13311 0.62499 0.0
H345 H 0.64923 0.23706 0.65448 0.0
H346 H 0.60628 0.19221 0.5867 0.0
S347 S 0.56496 0.07149 0.7347 0.0
N348 N 0.59929 0.12116 0.7509 0.0
N349 N 0.55354 0.07286 0.67776 0.0
C350 C 0.57817 0.11505 0.66955 0.0
C351 C 0.60275 0.14131 0.70925 0.0
C352 C 0.8146 0.64772 0.5663 0.0
C353 C 0.82464 0.69341 0.56225 0.0
C354 C 0.84573 0.62879 0.56473 0.0
C355 C 0.8881 0.65497 0.55949 0.0
H356 H 0.7824 0.62631 0.57075 0.0
H357 H 0.8367 0.59351 0.56856 0.0
S358 S 0.92991 0.77528 0.54117 0.0
N359 N 0.87918 0.76375 0.54817 0.0
N360 N 0.9379 0.72808 0.54567 0.0
C361 C 0.89829 0.70036 0.55326 0.0
C362 C 0.86643 0.71958 0.55423 0.0
C363 C 0.37456 0.39777 0.23328 0.0
C364 C 0.37638 0.42484 0.27236 0.0
C365 C 0.38787 0.41597 0.19063 0.0
C366 C 0.4044 0.46197 0.18574 0.0
H367 H 0.36231 0.36218 0.23545 0.0
H368 H 0.38639 0.39378 0.16168 0.0
S369 S 0.41598 0.5474 0.27724 0.0
N370 N 0.39535 0.50016 0.30313 0.0
N371 N 0.42168 0.53418 0.2233 0.0
C372 C 0.4065 0.48944 0.22446 0.0
C373 C 0.3921 0.47093 0.26765 0.0
C374 C 0.47984 0.66794 0.85519 0.0
C375 C 0.44738 0.67669 0.87592 0.0
C376 C 0.50481 0.64709 0.87963 0.0
C377 C 0.49779 0.63299 0.92553 0.0
H378 H 0.48645 0.67778 0.81985 0.0
H379 H 0.52959 0.64146 0.86208 0.0
S380 S 0.41614 0.64679 0.99562 0.0
N381 N 0.40945 0.66937 0.94542 0.0
N382 N 0.45562 0.62883 0.9907 0.0
C383 C 0.46503 0.64081 0.94657 0.0
C384 C 0.44013 0.66308 0.92201 0.0
C385 C 0.38135 0.40618 0.88687 0.0
C386 C 0.3868 0.3942 0.8413 0.0
C387 C 0.41581 0.43469 0.91656 0.0
C388 C 0.45667 0.45333 0.90121 0.0
H389 H 0.35025 0.39335 0.89969 0.0
H390 H 0.41018 0.44295 0.95134 0.0
S391 S 0.48709 0.43348 0.78402 0.0
N392 N 0.43608 0.40322 0.78228 0.0
N393 N 0.49996 0.45777 0.8366 0.0
C394 C 0.4622 0.44171 0.85543 0.0
C395 C 0.42754 0.41191 0.8259 0.0
C396 C 0.68988 0.41813 0.89121 0.0
C397 C 0.68814 0.41247 0.84232 0.0
C398 C 0.6691 0.44342 0.91114 0.0
C399 C 0.64485 0.46268 0.88279 0.0
H400 H 0.70684 0.40231 0.91422 0.0
H401 H 0.67038 0.44614 0.9489 0.0
S402 S 0.63127 0.45889 0.75296 0.0
N403 N 0.66194 0.43003 0.76616 0.0
N404 N 0.62153 0.47574 0.80353 0.0
C405 C 0.64371 0.45809 0.83393 0.0
C406 C 0.66573 0.43347 0.8137 0.0
C407 C 0.73717 0.62011 0.83046 0.0
C408 C 0.71796 0.60896 0.78433 0.0
C409 C 0.71265 0.61358 0.86849 0.0
C410 C 0.66801 0.59567 0.86181 0.0
H411 H 0.77143 0.63491 0.83724 0.0
H412 H 0.72881 0.62325 0.9033 0.0
S413 S 0.60189 0.56119 0.74806 0.0
N414 N 0.65136 0.57862 0.73427 0.0
N415 N 0.60545 0.5668 0.80557 0.0
C416 C 0.64836 0.58339 0.81601 0.0
C417 C 0.67329 0.58987 0.77731 0.0
C418 C 0.6504 0.70061 0.14519 0.0
C419 C 0.66515 0.69276 0.19053 0.0
C420 C 0.62125 0.66626 0.11617 0.0
C421 C 0.60509 0.62295 0.13178 0.0
H422 H 0.66076 0.73373 0.13231 0.0
H423 H 0.60987 0.67412 0.08211 0.0
S424 S 0.63562 0.58385 0.24572 0.0
N425 N 0.66331 0.63737 0.24819 0.0
N426 N 0.60787 0.57329 0.19394 0.0
C427 C 0.62063 0.61424 0.17621 0.0
C428 C 0.65086 0.649 0.20548 0.0
C429 C 0.44587 0.70476 0.18504 0.0
C430 C 0.40213 0.69714 0.17892 0.0
C431 C 0.46162 0.67209 0.17309 0.0
C432 C 0.43436 0.63089 0.15339 0.0
H433 H 0.46824 0.73641 0.19886 0.0
H434 H 0.49569 0.67989 0.17771 0.0
S435 S 0.31701 0.59366 0.13181 0.0
N436 N 0.33143 0.64455 0.15394 0.0
N437 N 0.36138 0.58353 0.12989 0.0
C438 C 0.39046 0.62243 0.1478 0.0
C439 C 0.37425 0.65544 0.16107 0.0
C440 C 0.58272 0.40699 0.1807 0.0
C441 C 0.62262 0.41143 0.16619 0.0
C442 C 0.55519 0.42391 0.15491 0.0
C443 C 0.5663 0.44658 0.11347 0.0
H444 H 0.5723 0.38995 0.21227 0.0
H445 H 0.52506 0.41965 0.16824 0.0
S446 S 0.66723 0.46748 0.05986 0.0
N447 N 0.67193 0.44017 0.1072 0.0
N448 N 0.62026 0.47245 0.05898 0.0
C449 C 0.60619 0.45149 0.09846 0.0
C450 C 0.63424 0.4338 0.12465 0.0
loop_
_geom_bond_atom_site_label_1
_geom_bond_atom_site_label_2
_geom_bond_distance
_geom_bond_site_symmetry_2
_ccdc_geom_bond_type
O0 Cd1 2.300 . S
O0 C7 1.275 . S
Cd1 O0 2.300 . S
Cd1 O9 2.381 . S
Cd1 O10 2.378 . S
O2 Cd3 2.385 . S
O2 C7 1.255 . S
Cd3 O2 2.385 . S
Cd3 O4 2.317 . S
O4 Cd3 2.317 . S
O4 C5 1.232 . S
C5 O4 1.232 . S
C5 O6 1.218 . S
O6 C5 1.218 . S
C7 O0 1.275 . S
C7 O2 1.255 . S
C8 O9 1.258 . S
C8 O10 1.256 . S
O9 Cd1 2.381 . S
O9 C8 1.258 . S
O10 Cd1 2.378 . S
O10 C8 1.256 . S
O11 Cd12 2.300 . S
O11 C18 1.275 . S
Cd12 O11 2.300 . S
Cd12 O20 2.381 . S
Cd12 O21 2.378 . S
O13 Cd14 2.385 . S
O13 C18 1.255 . S
Cd14 O13 2.385 . S
Cd14 O15 2.317 . S
O15 Cd14 2.317 . S
O15 C16 1.232 . S
C16 O15 1.232 . S
C16 O17 1.218 . S
O17 C16 1.218 . S
C18 O11 1.275 . S
C18 O13 1.255 . S
C19 O20 1.258 . S
C19 O21 1.256 . S
O20 Cd12 2.381 . S
O20 C19 1.258 . S
O21 Cd12 2.378 . S
O21 C19 1.256 . S
O22 Cd23 2.300 . S
O22 C29 1.275 . S
Cd23 O22 2.300 . S
Cd23 O31 2.381 . S
Cd23 O32 2.378 . S
O24 Cd25 2.385 . S
O24 C29 1.255 . S
Cd25 O24 2.385 . S
Cd25 O26 2.317 . S
O26 Cd25 2.317 . S
O26 C27 1.232 . S
C27 O26 1.232 . S
C27 O28 1.218 . S
O28 C27 1.218 . S
C29 O22 1.275 . S
C29 O24 1.255 . S
C30 O31 1.258 . S
C30 O32 1.256 . S
O31 Cd23 2.381 . S
O31 C30 1.258 . S
O32 Cd23 2.378 . S
O32 C30 1.256 . S
O33 Cd34 2.300 . S
O33 C40 1.275 . S
Cd34 O33 2.300 . S
Cd34 O42 2.381 . S
Cd34 O43 2.378 . S
O35 Cd36 2.385 . S
O35 C40 1.255 . S
Cd36 O35 2.385 . S
Cd36 O37 2.317 . S
O37 Cd36 2.317 . S
O37 C38 1.232 . S
C38 O37 1.232 . S
C38 O39 1.218 . S
O39 C38 1.218 . S
C40 O33 1.275 . S
C40 O35 1.255 . S
C41 O42 1.258 . S
C41 O43 1.256 . S
O42 Cd34 2.381 . S
O42 C41 1.258 . S
O43 Cd34 2.378 . S
O43 C41 1.256 . S
O44 Cd45 2.300 . S
O44 C51 1.275 . S
Cd45 O44 2.300 . S
Cd45 O53 2.381 . S
Cd45 O54 2.378 . S
O46 Cd47 2.385 . S
O46 C51 1.255 . S
Cd47 O46 2.385 . S
Cd47 O48 2.317 . S
O48 Cd47 2.317 . S
O48 C49 1.232 . S
C49 O48 1.232 . S
C49 O50 1.218 . S
O50 C49 1.218 . S
C51 O44 1.275 . S
C51 O46 1.255 . S
C52 O53 1.258 . S
C52 O54 1.256 . S
O53 Cd45 2.381 . S
O53 C52 1.258 . S
O54 Cd45 2.378 . S
O54 C52 1.256 . S
O55 Cd56 2.300 . S
O55 C62 1.275 . S
Cd56 O55 2.300 . S
Cd56 O64 2.381 . S
Cd56 O65 2.378 . S
O57 Cd58 2.385 . S
O57 C62 1.255 . S
Cd58 O57 2.385 . S
Cd58 O59 2.317 . S
O59 Cd58 2.317 . S
O59 C60 1.232 . S
C60 O59 1.232 . S
C60 O61 1.218 . S
O61 C60 1.218 . S
C62 O55 1.275 . S
C62 O57 1.255 . S
C63 O64 1.258 . S
C63 O65 1.256 . S
O64 Cd56 2.381 . S
O64 C63 1.258 . S
O65 Cd56 2.378 . S
O65 C63 1.256 . S
O66 Cd67 2.300 . S
O66 C73 1.275 . S
Cd67 O66 2.300 . S
Cd67 O75 2.381 . S
Cd67 O76 2.378 . S
O68 Cd69 2.385 . S
O68 C73 1.255 . S
Cd69 O68 2.385 . S
Cd69 O70 2.317 . S
O70 Cd69 2.317 . S
O70 C71 1.232 . S
C71 O70 1.232 . S
C71 O72 1.218 . S
O72 C71 1.218 . S
C73 O66 1.275 . S
C73 O68 1.255 . S
C74 O75 1.258 . S
C74 O76 1.256 . S
O75 Cd67 2.381 . S
O75 C74 1.258 . S
O76 Cd67 2.378 . S
O76 C74 1.256 . S
O77 Cd78 2.300 . S
O77 C84 1.275 . S
Cd78 O77 2.300 . S
Cd78 O86 2.381 . S
Cd78 O87 2.378 . S
O79 Cd80 2.385 . S
O79 C84 1.255 . S
Cd80 O79 2.385 . S
Cd80 O81 2.317 . S
O81 Cd80 2.317 . S
O81 C82 1.232 . S
C82 O81 1.232 . S
C82 O83 1.218 . S
O83 C82 1.218 . S
C84 O77 1.275 . S
C84 O79 1.255 . S
C85 O86 1.258 . S
C85 O87 1.256 . S
O86 Cd78 2.381 . S
O86 C85 1.258 . S
O87 Cd78 2.378 . S
O87 C85 1.256 . S
Co88 O91 2.042 . S
Co88 O98 2.264 . S
Co88 O117 2.286 . S
Co88 O118 2.069 . S
Co88 O120 2.015 . S
Co89 O91 2.122 . S
Co89 O97 2.073 . S
Co89 O98 2.327 . S
Co89 O99 1.976 . S
Co90 O91 2.087 . S
Co90 O93 2.087 1_455 S
Co90 O100 2.111 . S
Co90 O101 2.143 1_455 S
Co90 O105 2.111 1_455 S
Co90 O119 2.143 . S
O91 Co88 2.042 . S
O91 Co89 2.122 . S
O91 Co90 2.087 . S
O91 H92 0.980 . S
H92 O91 0.980 . S
O93 Co90 2.087 1_655 S
O93 Co94 2.042 . S
O93 Co95 2.122 . S
O93 H96 0.980 1_655 S
Co94 O93 2.042 . S
Co94 O102 2.286 . S
Co94 O103 2.069 . S
Co94 O104 2.015 . S
Co94 O107 2.264 . S
Co95 O93 2.122 . S
Co95 O106 1.976 . S
Co95 O107 2.327 . S
Co95 O108 2.073 . S
H96 O93 0.980 1_455 S
O97 Co89 2.073 . S
O97 C112 1.245 . S
O98 Co88 2.264 . S
O98 Co89 2.327 . S
O98 C112 1.257 . S
O99 Co89 1.976 . S
O99 C111 1.251 . S
O100 Co90 2.111 . S
O100 C111 1.274 . S
O101 Co90 2.143 1_655 S
O101 C114 1.246 . S
O102 Co94 2.286 . S
O102 C113 1.259 . S
O103 Co94 2.069 . S
O103 C113 1.289 . S
O104 Co94 2.015 . S
O104 C114 1.257 . S
O105 Co90 2.111 1_655 S
O105 C115 1.274 . S
O106 Co95 1.976 . S
O106 C115 1.251 . S
O107 Co94 2.264 . S
O107 Co95 2.327 . S
O107 C116 1.257 . S
O108 Co95 2.073 . S
O108 C116 1.245 . S
C109 O117 1.259 . S
C109 O118 1.289 . S
C110 O119 1.246 . S
C110 O120 1.257 . S
C111 O99 1.251 . S
C111 O100 1.274 . S
C112 O97 1.245 . S
C112 O98 1.257 . S
C113 O102 1.259 . S
C113 O103 1.289 . S
C114 O101 1.246 . S
C114 O104 1.257 . S
C115 O105 1.274 . S
C115 O106 1.251 . S
C116 O107 1.257 . S
C116 O108 1.245 . S
O117 Co88 2.286 . S
O117 C109 1.259 . S
O118 Co88 2.069 . S
O118 C109 1.289 . S
O119 Co90 2.143 . S
O119 C110 1.246 . S
O120 Co88 2.015 . S
O120 C110 1.257 . S
Co121 O124 2.042 . S
Co121 O131 2.264 . S
Co121 O150 2.286 . S
Co121 O151 2.069 . S
Co121 O153 2.015 . S
Co122 O124 2.122 . S
Co122 O130 2.073 . S
Co122 O131 2.327 . S
Co122 O132 1.976 . S
Co123 O124 2.087 1_545 S
Co123 O126 2.087 . S
Co123 O133 2.111 1_545 S
Co123 O134 2.143 . S
Co123 O138 2.111 . S
Co123 O152 2.143 1_545 S
O124 Co121 2.042 . S
O124 Co122 2.122 . S
O124 Co123 2.087 1_565 S
O124 H125 0.980 1_565 S
H125 O124 0.980 1_545 S
O126 Co123 2.087 . S
O126 Co127 2.042 . S
O126 Co128 2.122 . S
O126 H129 0.980 . S
Co127 O126 2.042 . S
Co127 O135 2.286 . S
Co127 O136 2.069 . S
Co127 O137 2.015 . S
Co127 O140 2.264 . S
Co128 O126 2.122 . S
Co128 O139 1.976 . S
Co128 O140 2.327 . S
Co128 O141 2.073 . S
H129 O126 0.980 . S
O130 Co122 2.073 . S
O130 C145 1.245 . S
O131 Co121 2.264 . S
O131 Co122 2.327 . S
O131 C145 1.257 . S
O132 Co122 1.976 . S
O132 C144 1.251 . S
O133 Co123 2.111 1_565 S
O133 C144 1.274 . S
O134 Co123 2.143 . S
O134 C147 1.246 . S
O135 Co127 2.286 . S
O135 C146 1.259 . S
O136 Co127 2.069 . S
O136 C146 1.289 . S
O137 Co127 2.015 . S
O137 C147 1.257 . S
O138 Co123 2.111 . S
O138 C148 1.274 . S
O139 Co128 1.976 . S
O139 C148 1.251 . S
O140 Co127 2.264 . S
O140 Co128 2.327 . S
O140 C149 1.257 . S
O141 Co128 2.073 . S
O141 C149 1.245 . S
C142 O150 1.259 . S
C142 O151 1.289 . S
C143 O152 1.246 . S
C143 O153 1.257 . S
C144 O132 1.251 . S
C144 O133 1.274 . S
C145 O130 1.245 . S
C145 O131 1.257 . S
C146 O135 1.259 . S
C146 O136 1.289 . S
C147 O134 1.246 . S
C147 O137 1.257 . S
C148 O138 1.274 . S
C148 O139 1.251 . S
C149 O140 1.257 . S
C149 O141 1.245 . S
O150 Co121 2.286 . S
O150 C142 1.259 . S
O151 Co121 2.069 . S
O151 C142 1.289 . S
O152 Co123 2.143 1_565 S
O152 C143 1.246 . S
O153 Co121 2.015 . S
O153 C143 1.257 . S
Co154 O157 2.042 . S
Co154 O164 2.264 . S
Co154 O183 2.286 . S
Co154 O184 2.069 . S
Co154 O186 2.015 . S
Co155 O157 2.122 . S
Co155 O163 2.073 . S
Co155 O164 2.327 . S
Co155 O165 1.976 . S
Co156 O157 2.087 . S
Co156 O159 2.087 1_554 S
Co156 O166 2.111 . S
Co156 O167 2.143 1_554 S
Co156 O171 2.111 1_554 S
Co156 O185 2.143 . S
O157 Co154 2.042 . S
O157 Co155 2.122 . S
O157 Co156 2.087 . S
O157 H158 0.980 . S
H158 O157 0.980 . S
O159 Co156 2.087 1_556 S
O159 Co160 2.042 . S
O159 Co161 2.122 . S
O159 H162 0.980 . S
Co160 O159 2.042 . S
Co160 O168 2.286 . S
Co160 O169 2.069 . S
Co160 O170 2.015 . S
Co160 O173 2.264 . S
Co161 O159 2.122 . S
Co161 O172 1.976 . S
Co161 O173 2.327 . S
Co161 O174 2.073 . S
H162 O159 0.980 . S
O163 Co155 2.073 . S
O163 C178 1.245 . S
O164 Co154 2.264 . S
O164 Co155 2.327 . S
O164 C178 1.257 . S
O165 Co155 1.976 . S
O165 C177 1.251 . S
O166 Co156 2.111 . S
O166 C177 1.274 . S
O167 Co156 2.143 1_556 S
O167 C180 1.246 . S
O168 Co160 2.286 . S
O168 C179 1.259 . S
O169 Co160 2.069 . S
O169 C179 1.289 . S
O170 Co160 2.015 . S
O170 C180 1.257 . S
O171 Co156 2.111 1_556 S
O171 C181 1.274 . S
O172 Co161 1.976 . S
O172 C181 1.251 . S
O173 Co160 2.264 . S
O173 Co161 2.327 . S
O173 C182 1.257 . S
O174 Co161 2.073 . S
O174 C182 1.245 . S
C175 O183 1.259 . S
C175 O184 1.289 . S
C176 O185 1.246 . S
C176 O186 1.257 . S
C177 O165 1.251 . S
C177 O166 1.274 . S
C178 O163 1.245 . S
C178 O164 1.257 . S
C179 O168 1.259 . S
C179 O169 1.289 . S
C180 O167 1.246 . S
C180 O170 1.257 . S
C181 O171 1.274 . S
C181 O172 1.251 . S
C182 O173 1.257 . S
C182 O174 1.245 . S
O183 Co154 2.286 . S
O183 C175 1.259 . S
O184 Co154 2.069 . S
O184 C175 1.289 . S
O185 Co156 2.143 . S
O185 C176 1.246 . S
O186 Co154 2.015 . S
O186 C176 1.257 . S
C187 C188 1.369 . S
C187 C189 1.419 . S
C187 H191 0.930 . S
C188 C187 1.369 . S
C188 C197 1.429 . S
C189 C187 1.419 . S
C189 C190 1.363 . S
C189 H192 0.929 . S
C190 C189 1.363 . S
C190 C196 1.428 . S
H191 C187 0.930 . S
H192 C189 0.929 . S
S193 N194 1.613 . S
S193 N195 1.610 . S
N194 S193 1.613 . S
N194 C197 1.350 . S
N195 S193 1.610 . S
N195 C196 1.351 . S
C196 C190 1.428 . S
C196 N195 1.351 . S
C196 C197 1.434 . S
C197 C188 1.429 . S
C197 N194 1.350 . S
C197 C196 1.434 . S
C198 C199 1.369 . S
C198 C200 1.419 . S
C198 H202 0.930 . S
C199 C198 1.369 . S
C199 C208 1.429 . S
C200 C198 1.419 . S
C200 C201 1.363 . S
C200 H203 0.929 . S
C201 C200 1.363 . S
C201 C207 1.428 . S
H202 C198 0.930 . S
H203 C200 0.929 . S
S204 N205 1.613 . S
S204 N206 1.610 . S
N205 S204 1.613 . S
N205 C208 1.350 . S
N206 S204 1.610 . S
N206 C207 1.351 . S
C207 C201 1.428 . S
C207 N206 1.351 . S
C207 C208 1.434 . S
C208 C199 1.429 . S
C208 N205 1.350 . S
C208 C207 1.434 . S
C209 C210 1.369 . S
C209 C211 1.419 . S
C209 H213 0.930 . S
C210 C209 1.369 . S
C210 C219 1.429 . S
C211 C209 1.419 . S
C211 C212 1.363 . S
C211 H214 0.929 . S
C212 C211 1.363 . S
C212 C218 1.428 . S
H213 C209 0.930 . S
H214 C211 0.929 . S
S215 N216 1.613 . S
S215 N217 1.610 . S
N216 S215 1.613 . S
N216 C219 1.350 . S
N217 S215 1.610 . S
N217 C218 1.351 . S
C218 C212 1.428 . S
C218 N217 1.351 . S
C218 C219 1.434 . S
C219 C210 1.429 . S
C219 N216 1.350 . S
C219 C218 1.434 . S
C220 C221 1.369 . S
C220 C222 1.419 . S
C220 H224 0.930 . S
C221 C220 1.369 . S
C221 C230 1.429 . S
C222 C220 1.419 . S
C222 C223 1.363 . S
C222 H225 0.929 . S
C223 C222 1.363 . S
C223 C229 1.428 . S
H224 C220 0.930 . S
H225 C222 0.929 . S
S226 N227 1.613 . S
S226 N228 1.610 . S
N227 S226 1.613 . S
N227 C230 1.350 . S
N228 S226 1.610 . S
N228 C229 1.351 . S
C229 C223 1.428 . S
C229 N228 1.351 . S
C229 C230 1.434 . S
C230 C221 1.429 . S
C230 N227 1.350 . S
C230 C229 1.434 . S
C231 C232 1.369 . S
C231 C233 1.419 . S
C231 H235 0.930 . S
C232 C231 1.369 . S
C232 C241 1.429 . S
C233 C231 1.419 . S
C233 C234 1.363 . S
C233 H236 0.929 . S
C234 C233 1.363 . S
C234 C240 1.428 . S
H235 C231 0.930 . S
H236 C233 0.929 . S
S237 N238 1.613 . S
S237 N239 1.610 . S
N238 S237 1.613 . S
N238 C241 1.350 . S
N239 S237 1.610 . S
N239 C240 1.351 . S
C240 C234 1.428 . S
C240 N239 1.351 . S
C240 C241 1.434 . S
C241 C232 1.429 . S
C241 N238 1.350 . S
C241 C240 1.434 . S
C242 C243 1.369 . S
C242 C244 1.419 . S
C242 H246 0.930 . S
C243 C242 1.369 . S
C243 C252 1.429 . S
C244 C242 1.419 . S
C244 C245 1.363 . S
C244 H247 0.929 . S
C245 C244 1.363 . S
C245 C251 1.428 . S
H246 C242 0.930 . S
H247 C244 0.929 . S
S248 N249 1.613 . S
S248 N250 1.610 . S
N249 S248 1.613 . S
N249 C252 1.350 . S
N250 S248 1.610 . S
N250 C251 1.351 . S
C251 C245 1.428 . S
C251 N250 1.351 . S
C251 C252 1.434 . S
C252 C243 1.429 . S
C252 N249 1.350 . S
C252 C251 1.434 . S
C253 C254 1.369 . S
C253 C255 1.419 . S
C253 H257 0.930 . S
C254 C253 1.369 . S
C254 C263 1.429 . S
C255 C253 1.419 . S
C255 C256 1.363 . S
C255 H258 0.929 . S
C256 C255 1.363 . S
C256 C262 1.428 . S
H257 C253 0.930 . S
H258 C255 0.929 . S
S259 N260 1.613 . S
S259 N261 1.610 . S
N260 S259 1.613 . S
N260 C263 1.350 . S
N261 S259 1.610 . S
N261 C262 1.351 . S
C262 C256 1.428 . S
C262 N261 1.351 . S
C262 C263 1.434 . S
C263 C254 1.429 . S
C263 N260 1.350 . S
C263 C262 1.434 . S
C264 C265 1.369 . S
C264 C266 1.419 . S
C264 H268 0.930 . S
C265 C264 1.369 . S
C265 C274 1.429 . S
C266 C264 1.419 . S
C266 C267 1.363 . S
C266 H269 0.929 . S
C267 C266 1.363 . S
C267 C273 1.428 . S
H268 C264 0.930 . S
H269 C266 0.929 . S
S270 N271 1.613 . S
S270 N272 1.610 . S
N271 S270 1.613 . S
N271 C274 1.350 . S
N272 S270 1.610 . S
N272 C273 1.351 . S
C273 C267 1.428 . S
C273 N272 1.351 . S
C273 C274 1.434 . S
C274 C265 1.429 . S
C274 N271 1.350 . S
C274 C273 1.434 . S
C275 C276 1.369 . S
C275 C277 1.419 . S
C275 H279 0.930 . S
C276 C275 1.369 . S
C276 C285 1.429 . S
C277 C275 1.419 . S
C277 C278 1.363 . S
C277 H280 0.929 . S
C278 C277 1.363 . S
C278 C284 1.428 . S
H279 C275 0.930 . S
H280 C277 0.929 . S
S281 N282 1.613 . S
S281 N283 1.610 . S
N282 S281 1.613 . S
N282 C285 1.350 . S
N283 S281 1.610 . S
N283 C284 1.351 . S
C284 C278 1.428 . S
C284 N283 1.351 . S
C284 C285 1.434 . S
C285 C276 1.429 . S
C285 N282 1.350 . S
C285 C284 1.434 . S
C286 C287 1.369 . S
C286 C288 1.419 . S
C286 H290 0.930 . S
C287 C286 1.369 . S
C287 C296 1.429 . S
C288 C286 1.419 . S
C288 C289 1.363 . S
C288 H291 0.929 . S
C289 C288 1.363 . S
C289 C295 1.428 . S
H290 C286 0.930 . S
H291 C288 0.929 . S
S292 N293 1.613 . S
S292 N294 1.610 . S
N293 S292 1.613 . S
N293 C296 1.350 . S
N294 S292 1.610 . S
N294 C295 1.351 . S
C295 C289 1.428 . S
C295 N294 1.351 . S
C295 C296 1.434 . S
C296 C287 1.429 . S
C296 N293 1.350 . S
C296 C295 1.434 . S
C297 C298 1.369 . S
C297 C299 1.419 . S
C297 H301 0.930 . S
C298 C297 1.369 . S
C298 C307 1.429 . S
C299 C297 1.419 . S
C299 C300 1.363 . S
C299 H302 0.929 . S
C300 C299 1.363 . S
C300 C306 1.428 . S
H301 C297 0.930 . S
H302 C299 0.929 . S
S303 N304 1.613 . S
S303 N305 1.610 . S
N304 S303 1.613 . S
N304 C307 1.350 . S
N305 S303 1.610 . S
N305 C306 1.351 . S
C306 C300 1.428 . S
C306 N305 1.351 . S
C306 C307 1.434 . S
C307 C298 1.429 . S
C307 N304 1.350 . S
C307 C306 1.434 . S
C308 C309 1.369 . S
C308 C310 1.419 . S
C308 H312 0.930 . S
C309 C308 1.369 . S
C309 C318 1.429 . S
C310 C308 1.419 . S
C310 C311 1.363 . S
C310 H313 0.929 . S
C311 C310 1.363 . S
C311 C317 1.428 . S
H312 C308 0.930 . S
H313 C310 0.929 . S
S314 N315 1.613 . S
S314 N316 1.610 . S
N315 S314 1.613 . S
N315 C318 1.350 . S
N316 S314 1.610 . S
N316 C317 1.351 . S
C317 C311 1.428 . S
C317 N316 1.351 . S
C317 C318 1.434 . S
C318 C309 1.429 . S
C318 N315 1.350 . S
C318 C317 1.434 . S
C319 C320 1.369 . S
C319 C321 1.419 . S
C319 H323 0.930 . S
C320 C319 1.369 . S
C320 C329 1.429 . S
C321 C319 1.419 . S
C321 C322 1.363 . S
C321 H324 0.929 . S
C322 C321 1.363 . S
C322 C328 1.428 . S
H323 C319 0.930 . S
H324 C321 0.929 . S
S325 N326 1.613 . S
S325 N327 1.610 . S
N326 S325 1.613 . S
N326 C329 1.350 . S
N327 S325 1.610 . S
N327 C328 1.351 . S
C328 C322 1.428 . S
C328 N327 1.351 . S
C328 C329 1.434 . S
C329 C320 1.429 . S
C329 N326 1.350 . S
C329 C328 1.434 . S
C330 C331 1.369 . S
C330 C332 1.419 . S
C330 H334 0.930 . S
C331 C330 1.369 . S
C331 C340 1.429 . S
C332 C330 1.419 . S
C332 C333 1.363 . S
C332 H335 0.929 . S
C333 C332 1.363 . S
C333 C339 1.428 . S
H334 C330 0.930 . S
H335 C332 0.929 . S
S336 N337 1.613 . S
S336 N338 1.610 . S
N337 S336 1.613 . S
N337 C340 1.350 . S
N338 S336 1.610 . S
N338 C339 1.351 . S
C339 C333 1.428 . S
C339 N338 1.351 . S
C339 C340 1.434 . S
C340 C331 1.429 . S
C340 N337 1.350 . S
C340 C339 1.434 . S
C341 C342 1.369 . S
C341 C343 1.419 . S
C341 H345 0.930 . S
C342 C341 1.369 . S
C342 C351 1.429 . S
C343 C341 1.419 . S
C343 C344 1.363 . S
C343 H346 0.929 . S
C344 C343 1.363 . S
C344 C350 1.428 . S
H345 C341 0.930 . S
H346 C343 0.929 . S
S347 N348 1.613 . S
S347 N349 1.610 . S
N348 S347 1.613 . S
N348 C351 1.350 . S
N349 S347 1.610 . S
N349 C350 1.351 . S
C350 C344 1.428 . S
C350 N349 1.351 . S
C350 C351 1.434 . S
C351 C342 1.429 . S
C351 N348 1.350 . S
C351 C350 1.434 . S
C352 C353 1.369 . S
C352 C354 1.419 . S
C352 H356 0.930 . S
C353 C352 1.369 . S
C353 C362 1.429 . S
C354 C352 1.419 . S
C354 C355 1.363 . S
C354 H357 0.929 . S
C355 C354 1.363 . S
C355 C361 1.428 . S
H356 C352 0.930 . S
H357 C354 0.929 . S
S358 N359 1.613 . S
S358 N360 1.610 . S
N359 S358 1.613 . S
N359 C362 1.350 . S
N360 S358 1.610 . S
N360 C361 1.351 . S
C361 C355 1.428 . S
C361 N360 1.351 . S
C361 C362 1.434 . S
C362 C353 1.429 . S
C362 N359 1.350 . S
C362 C361 1.434 . S
C363 C364 1.369 . S
C363 C365 1.419 . S
C363 H367 0.930 . S
C364 C363 1.369 . S
C364 C373 1.429 . S
C365 C363 1.419 . S
C365 C366 1.363 . S
C365 H368 0.929 . S
C366 C365 1.363 . S
C366 C372 1.428 . S
H367 C363 0.930 . S
H368 C365 0.929 . S
S369 N370 1.613 . S
S369 N371 1.610 . S
N370 S369 1.613 . S
N370 C373 1.350 . S
N371 S369 1.610 . S
N371 C372 1.351 . S
C372 C366 1.428 . S
C372 N371 1.351 . S
C372 C373 1.434 . S
C373 C364 1.429 . S
C373 N370 1.350 . S
C373 C372 1.434 . S
C374 C375 1.369 . S
C374 C376 1.419 . S
C374 H378 0.930 . S
C375 C374 1.369 . S
C375 C384 1.429 . S
C376 C374 1.419 . S
C376 C377 1.363 . S
C376 H379 0.929 . S
C377 C376 1.363 . S
C377 C383 1.428 . S
H378 C374 0.930 . S
H379 C376 0.929 . S
S380 N381 1.613 . S
S380 N382 1.610 . S
N381 S380 1.613 . S
N381 C384 1.350 . S
N382 S380 1.610 . S
N382 C383 1.351 . S
C383 C377 1.428 . S
C383 N382 1.351 . S
C383 C384 1.434 . S
C384 C375 1.429 . S
C384 N381 1.350 . S
C384 C383 1.434 . S
C385 C386 1.369 . S
C385 C387 1.419 . S
C385 H389 0.930 . S
C386 C385 1.369 . S
C386 C395 1.429 . S
C387 C385 1.419 . S
C387 C388 1.363 . S
C387 H390 0.929 . S
C388 C387 1.363 . S
C388 C394 1.428 . S
H389 C385 0.930 . S
H390 C387 0.929 . S
S391 N392 1.613 . S
S391 N393 1.610 . S
N392 S391 1.613 . S
N392 C395 1.350 . S
N393 S391 1.610 . S
N393 C394 1.351 . S
C394 C388 1.428 . S
C394 N393 1.351 . S
C394 C395 1.434 . S
C395 C386 1.429 . S
C395 N392 1.350 . S
C395 C394 1.434 . S
C396 C397 1.369 . S
C396 C398 1.419 . S
C396 H400 0.930 . S
C397 C396 1.369 . S
C397 C406 1.429 . S
C398 C396 1.419 . S
C398 C399 1.363 . S
C398 H401 0.929 . S
C399 C398 1.363 . S
C399 C405 1.428 . S
H400 C396 0.930 . S
H401 C398 0.929 . S
S402 N403 1.613 . S
S402 N404 1.610 . S
N403 S402 1.613 . S
N403 C406 1.350 . S
N404 S402 1.610 . S
N404 C405 1.351 . S
C405 C399 1.428 . S
C405 N404 1.351 . S
C405 C406 1.434 . S
C406 C397 1.429 . S
C406 N403 1.350 . S
C406 C405 1.434 . S
C407 C408 1.369 . S
C407 C409 1.419 . S
C407 H411 0.930 . S
C408 C407 1.369 . S
C408 C417 1.429 . S
C409 C407 1.419 . S
C409 C410 1.363 . S
C409 H412 0.929 . S
C410 C409 1.363 . S
C410 C416 1.428 . S
H411 C407 0.930 . S
H412 C409 0.929 . S
S413 N414 1.613 . S
S413 N415 1.610 . S
N414 S413 1.613 . S
N414 C417 1.350 . S
N415 S413 1.610 . S
N415 C416 1.351 . S
C416 C410 1.428 . S
C416 N415 1.351 . S
C416 C417 1.434 . S
C417 C408 1.429 . S
C417 N414 1.350 . S
C417 C416 1.434 . S
C418 C419 1.369 . S
C418 C420 1.419 . S
C418 H422 0.930 . S
C419 C418 1.369 . S
C419 C428 1.429 . S
C420 C418 1.419 . S
C420 C421 1.363 . S
C420 H423 0.929 . S
C421 C420 1.363 . S
C421 C427 1.428 . S
H422 C418 0.930 . S
H423 C420 0.929 . S
S424 N425 1.613 . S
S424 N426 1.610 . S
N425 S424 1.613 . S
N425 C428 1.350 . S
N426 S424 1.610 . S
N426 C427 1.351 . S
C427 C421 1.428 . S
C427 N426 1.351 . S
C427 C428 1.434 . S
C428 C419 1.429 . S
C428 N425 1.350 . S
C428 C427 1.434 . S
C429 C430 1.369 . S
C429 C431 1.419 . S
C429 H433 0.930 . S
C430 C429 1.369 . S
C430 C439 1.429 . S
C431 C429 1.419 . S
C431 C432 1.363 . S
C431 H434 0.929 . S
C432 C431 1.363 . S
C432 C438 1.428 . S
H433 C429 0.930 . S
H434 C431 0.929 . S
S435 N436 1.613 . S
S435 N437 1.610 . S
N436 S435 1.613 . S
N436 C439 1.350 . S
N437 S435 1.610 . S
N437 C438 1.351 . S
C438 C432 1.428 . S
C438 N437 1.351 . S
C438 C439 1.434 . S
C439 C430 1.429 . S
C439 N436 1.350 . S
C439 C438 1.434 . S
C440 C441 1.369 . S
C440 C442 1.419 . S
C440 H444 0.930 . S
C441 C440 1.369 . S
C441 C450 1.429 . S
C442 C440 1.419 . S
C442 C443 1.363 . S
C442 H445 0.929 . S
C443 C442 1.363 . S
C443 C449 1.428 . S
H444 C440 0.930 . S
H445 C442 0.929 . S
S446 N447 1.613 . S
S446 N448 1.610 . S
N447 S446 1.613 . S
N447 C450 1.350 . S
N448 S446 1.610 . S
N448 C449 1.351 . S
C449 C443 1.428 . S
C449 N448 1.351 . S
C449 C450 1.434 . S
C450 C441 1.429 . S
C450 N447 1.350 . S
C450 C449 1.434 . S
C190 C112 1.546 . S
C188 C5 1.389 . S
C201 C148 1.827 . S
C199 C16 1.796 . S
C212 C113 1.214 . S
C210 C30 1.242 . S
C223 C143 1.257 . S
C221 C40 1.174 . S
C234 C110 1.239 . S
C232 C49 1.219 . S
C243 C63 1.481 . S
C245 C146 1.481 . S
C254 C74 0.849 . S
C256 C115 0.790 . S
C267 C145 1.739 . S
C265 C85 1.654 . S
C278 C149 1.500 . S
C276 C8 1.528 . S
C289 C114 1.813 . S
C287 C18 1.851 . S
C300 C142 1.641 . S
C298 C27 1.602 . S
C311 C111 0.858 . S
C309 C38 0.842 . S
C322 C144 1.776 . S
C320 C51 1.936 . S
C331 C60 1.505 . S
C333 C109 1.572 . S
C342 C71 1.242 . S
C344 C147 1.231 . S
C355 C116 1.518 . S
C353 C84 1.548 . S
C366 C178 2.008 . S
C364 C7 2.023 . S
C375 C52 1.988 . S
C377 C181 1.766 . S
C388 C180 1.873 . S
C386 C62 1.859 . S
C397 C73 1.921 . S
C399 C179 1.943 . S
C410 C182 1.674 . S
C408 C82 1.463 . S
C419 C29 1.836 . S
C421 C176 1.806 . S
C432 C175 1.498 . S
C430 C41 1.478 . S
C441 C19 1.965 . S
C443 C177 1.850 . S
