# Generated by pormake.
# Topology ocu, (6,8)-cn, num edge types: 1
# Building blocks:
#     Node 0, Type 0, BuildingBlock: KUMBOL_clean_sbu_1, # of connection points: 6
#     Node 1, Type 0, BuildingBlock: KUMBOL_clean_sbu_1, # of connection points: 6
#     Node 2, Type 0, BuildingBlock: KUMBOL_clean_sbu_1, # of connection points: 6
#     Node 3, Type 0, BuildingBlock: KUMBOL_clean_sbu_1, # of connection points: 6
#     Node 4, Type 0, BuildingBlock: KUMBOL_clean_sbu_1, # of connection points: 6
#     Node 5, Type 0, BuildingBlock: KUMBOL_clean_sbu_1, # of connection points: 6
#     Node 6, Type 0, BuildingBlock: KUMBOL_clean_sbu_1, # of connection points: 6
#     Node 7, Type 0, BuildingBlock: KUMBOL_clean_sbu_1, # of connection points: 6
#     Node 8, Type 1, BuildingBlock: TAGTUT_clean_sbu_1, # of connection points: 8
#     Node 9, Type 1, BuildingBlock: TAGTUT_clean_sbu_1, # of connection points: 8
#     Node 10, Type 1, BuildingBlock: TAGTUT_clean_sbu_1, # of connection points: 8
#     Node 11, Type 1, BuildingBlock: TAGTUT_clean_sbu_1, # of connection points: 8
#     Node 12, Type 1, BuildingBlock: TAGTUT_clean_sbu_1, # of connection points: 8
#     Node 13, Type 1, BuildingBlock: TAGTUT_clean_sbu_1, # of connection points: 8
#     Edge 14, Type (0, 1), BuildingBlock: CIFDUS_clean_linker_0, # of connection points: 2
#     Edge 15, Type (0, 1), BuildingBlock: CIFDUS_clean_linker_0, # of connection points: 2
#     Edge 16, Type (0, 1), BuildingBlock: CIFDUS_clean_linker_0, # of connection points: 2
#     Edge 17, Type (0, 1), BuildingBlock: CIFDUS_clean_linker_0, # of connection points: 2
#     Edge 18, Type (0, 1), BuildingBlock: CIFDUS_clean_linker_0, # of connection points: 2
#     Edge 19, Type (0, 1), BuildingBlock: CIFDUS_clean_linker_0, # of connection points: 2
#     Edge 20, Type (0, 1), BuildingBlock: CIFDUS_clean_linker_0, # of connection points: 2
#     Edge 21, Type (0, 1), BuildingBlock: CIFDUS_clean_linker_0, # of connection points: 2
#     Edge 22, Type (0, 1), BuildingBlock: CIFDUS_clean_linker_0, # of connection points: 2
#     Edge 23, Type (0, 1), BuildingBlock: CIFDUS_clean_linker_0, # of connection points: 2
#     Edge 24, Type (0, 1), BuildingBlock: CIFDUS_clean_linker_0, # of connection points: 2
#     Edge 25, Type (0, 1), BuildingBlock: CIFDUS_clean_linker_0, # of connection points: 2
#     Edge 26, Type (0, 1), BuildingBlock: CIFDUS_clean_linker_0, # of connection points: 2
#     Edge 27, Type (0, 1), BuildingBlock: CIFDUS_clean_linker_0, # of connection points: 2
#     Edge 28, Type (0, 1), BuildingBlock: CIFDUS_clean_linker_0, # of connection points: 2
#     Edge 29, Type (0, 1), BuildingBlock: CIFDUS_clean_linker_0, # of connection points: 2
#     Edge 30, Type (0, 1), BuildingBlock: CIFDUS_clean_linker_0, # of connection points: 2
#     Edge 31, Type (0, 1), BuildingBlock: CIFDUS_clean_linker_0, # of connection points: 2
#     Edge 32, Type (0, 1), BuildingBlock: CIFDUS_clean_linker_0, # of connection points: 2
#     Edge 33, Type (0, 1), BuildingBlock: CIFDUS_clean_linker_0, # of connection points: 2
#     Edge 34, Type (0, 1), BuildingBlock: CIFDUS_clean_linker_0, # of connection points: 2
#     Edge 35, Type (0, 1), BuildingBlock: CIFDUS_clean_linker_0, # of connection points: 2
#     Edge 36, Type (0, 1), BuildingBlock: CIFDUS_clean_linker_0, # of connection points: 2
#     Edge 37, Type (0, 1), BuildingBlock: CIFDUS_clean_linker_0, # of connection points: 2
#     Edge 38, Type (0, 1), BuildingBlock: CIFDUS_clean_linker_0, # of connection points: 2
#     Edge 39, Type (0, 1), BuildingBlock: CIFDUS_clean_linker_0, # of connection points: 2
#     Edge 40, Type (0, 1), BuildingBlock: CIFDUS_clean_linker_0, # of connection points: 2
#     Edge 41, Type (0, 1), BuildingBlock: CIFDUS_clean_linker_0, # of connection points: 2
#     Edge 42, Type (0, 1), BuildingBlock: CIFDUS_clean_linker_0, # of connection points: 2
#     Edge 43, Type (0, 1), BuildingBlock: CIFDUS_clean_linker_0, # of connection points: 2
#     Edge 44, Type (0, 1), BuildingBlock: CIFDUS_clean_linker_0, # of connection points: 2
#     Edge 45, Type (0, 1), BuildingBlock: CIFDUS_clean_linker_0, # of connection points: 2
#     Edge 46, Type (0, 1), BuildingBlock: CIFDUS_clean_linker_0, # of connection points: 2
#     Edge 47, Type (0, 1), BuildingBlock: CIFDUS_clean_linker_0, # of connection points: 2
#     Edge 48, Type (0, 1), BuildingBlock: CIFDUS_clean_linker_0, # of connection points: 2
#     Edge 49, Type (0, 1), BuildingBlock: CIFDUS_clean_linker_0, # of connection points: 2
#     Edge 50, Type (0, 1), BuildingBlock: CIFDUS_clean_linker_0, # of connection points: 2
#     Edge 51, Type (0, 1), BuildingBlock: CIFDUS_clean_linker_0, # of connection points: 2
#     Edge 52, Type (0, 1), BuildingBlock: CIFDUS_clean_linker_0, # of connection points: 2
#     Edge 53, Type (0, 1), BuildingBlock: CIFDUS_clean_linker_0, # of connection points: 2
#     Edge 54, Type (0, 1), BuildingBlock: CIFDUS_clean_linker_0, # of connection points: 2
#     Edge 55, Type (0, 1), BuildingBlock: CIFDUS_clean_linker_0, # of connection points: 2
#     Edge 56, Type (0, 1), BuildingBlock: CIFDUS_clean_linker_0, # of connection points: 2
#     Edge 57, Type (0, 1), BuildingBlock: CIFDUS_clean_linker_0, # of connection points: 2
#     Edge 58, Type (0, 1), BuildingBlock: CIFDUS_clean_linker_0, # of connection points: 2
#     Edge 59, Type (0, 1), BuildingBlock: CIFDUS_clean_linker_0, # of connection points: 2
#     Edge 60, Type (0, 1), BuildingBlock: CIFDUS_clean_linker_0, # of connection points: 2
#     Edge 61, Type (0, 1), BuildingBlock: CIFDUS_clean_linker_0, # of connection points: 2
# Relax obj value: 0.079
# Max RMSD: 0.177
# Mean RMSD: 0.096
data_MOF--net-ocu--node1-KUMBOL_clean_sbu_1--node2-TAGTUT_clean_sbu_1--edge1-CIFDUS_clean_linker_0
_symmetry_space_group_name_H-M    P1
_symmetry_Int_Tables_number       1
_symmetry_cell_setting            triclinic
loop_
_symmetry_equiv_pos_as_xyz
'x, y, z'
_cell_length_a     35.983665
_cell_length_b     34.891026
_cell_length_c     38.1298
_cell_angle_alpha  101.24366
_cell_angle_beta   80.494446
_cell_angle_gamma 115.47468
loop_
_atom_site_label
_atom_site_type_symbol
_atom_site_fract_x
_atom_site_fract_y
_atom_site_fract_z
_atom_type_partial_charge
C0 C 0.34869 0.37942 0.34944 0.0
C1 C 0.30187 0.36537 0.40377 0.0
C2 C 0.31804 0.3504 0.37035 0.0
C3 C 0.31658 0.4096 0.41569 0.0
C4 C 0.36356 0.42386 0.36144 0.0
C5 C 0.34734 0.43874 0.39462 0.0
N6 N 0.36302 0.36427 0.31691 0.0
C7 C 0.39312 0.39161 0.29566 0.0
C8 C 0.394 0.45211 0.33952 0.0
C9 C 0.40893 0.43588 0.30656 0.0
Gd10 Gd 0.24446 0.24078 0.23624 0.0
Gd11 Gd 0.33456 0.28957 0.30153 0.0
N12 N 0.30353 0.30771 0.35774 0.0
C13 C 0.27139 0.3354 0.42427 0.0
C14 C 0.27569 0.27842 0.37863 0.0
C15 C 0.25863 0.29172 0.41183 0.0
H16 H 0.26737 0.24488 0.37043 0.0
H17 H 0.23607 0.26823 0.42803 0.0
H18 H 0.31086 0.2601 0.16215 0.0
H19 H 0.40561 0.37945 0.27055 0.0
H20 H 0.32549 0.21968 0.1048 0.0
H21 H 0.25814 0.3456 0.45004 0.0
H22 H 0.30436 0.42162 0.44121 0.0
H23 H 0.15294 0.17585 0.27229 0.0
H24 H 0.40622 0.48645 0.34781 0.0
H25 H 0.43276 0.45746 0.28961 0.0
H26 H 0.2196 0.07694 0.10772 0.0
H27 H 0.35829 0.47277 0.40418 0.0
H28 H 0.11587 0.05257 0.2077 0.0
H29 H 0.10353 0.09976 0.26152 0.0
N30 N 0.19392 0.17052 0.22666 0.0
C31 C 0.20053 0.14566 0.19628 0.0
C32 C 0.15915 0.15493 0.24951 0.0
C33 C 0.13794 0.08564 0.21269 0.0
C34 C 0.13089 0.11214 0.24314 0.0
C35 C 0.17278 0.10244 0.18851 0.0
H36 H 0.15948 0.04433 0.15037 0.0
N37 N 0.26032 0.20587 0.18048 0.0
C38 C 0.23439 0.16401 0.17221 0.0
C39 C 0.275 0.15991 0.11557 0.0
C40 C 0.24141 0.13969 0.13976 0.0
C41 C 0.29168 0.2264 0.15616 0.0
C42 C 0.29992 0.20359 0.12362 0.0
O43 O 0.29358 0.32416 0.29899 0.0
O44 O 0.23032 0.26942 0.29235 0.0
O45 O 0.24046 0.2923 0.21506 0.0
O46 O 0.18769 0.23123 0.21591 0.0
O47 O 0.28722 0.22073 0.30402 0.0
O48 O 0.22583 0.21798 0.2911 0.0
O49 O 0.28815 0.20683 0.22522 0.0
O50 O 0.34976 0.25336 0.24927 0.0
O51 O 0.35401 0.25987 0.33592 0.0
O52 O 0.39863 0.31592 0.31311 0.0
O53 O 0.30039 0.30244 0.22434 0.0
O54 O 0.35889 0.30719 0.24605 0.0
C55 C 0.25311 0.30888 0.30552 0.0
C56 C 0.24646 0.20378 0.30693 0.0
C57 C 0.17434 0.29289 0.22112 0.0
C58 C 0.1411 0.33593 0.20816 0.0
C59 C 0.12788 0.31296 0.26687 0.0
C60 C 0.15416 0.29194 0.25594 0.0
C61 C 0.12117 0.3347 0.24307 0.0
C62 C 0.16789 0.31516 0.19733 0.0
C63 C 0.20172 0.27043 0.20911 0.0
C64 C 0.21451 0.09627 0.13237 0.0
C65 C 0.1803 0.07769 0.15669 0.0
H66 H 0.28155 0.1423 0.0904 0.0
C67 C 0.32808 0.2197 0.22719 0.0
C68 C 0.34094 0.31644 0.2235 0.0
C69 C 0.42125 0.26334 0.31878 0.0
C70 C 0.4586 0.22488 0.33289 0.0
C71 C 0.46031 0.23487 0.27125 0.0
C72 C 0.43529 0.25723 0.2824 0.0
C73 C 0.4718 0.21856 0.29628 0.0
C74 C 0.43324 0.24738 0.34398 0.0
C75 C 0.39301 0.28494 0.33043 0.0
H76 H 0.11241 0.31211 0.29378 0.0
H77 H 0.15849 0.27464 0.27446 0.0
H78 H 0.10035 0.35044 0.25181 0.0
H79 H 0.18322 0.31585 0.17032 0.0
H80 H 0.47082 0.23016 0.2431 0.0
H81 H 0.42686 0.26972 0.26264 0.0
H82 H 0.49142 0.20151 0.28712 0.0
H83 H 0.42223 0.25178 0.37207 0.0
C84 C 0.88465 0.25528 0.18284 0.0
C85 C 0.94297 0.31358 0.2105 0.0
C86 C 0.90292 0.28049 0.21352 0.0
C87 C 0.96344 0.322 0.17634 0.0
C88 C 0.90575 0.26247 0.14856 0.0
C89 C 0.94493 0.29638 0.14548 0.0
N90 N 0.84567 0.22438 0.18648 0.0
C91 C 0.82689 0.19767 0.15741 0.0
C92 C 0.88638 0.23588 0.11838 0.0
C93 C 0.84688 0.20313 0.12286 0.0
Gd94 Gd 0.73424 0.27677 0.2763 0.0
Gd95 Gd 0.81417 0.21778 0.24482 0.0
N96 N 0.88192 0.27208 0.24623 0.0
C97 C 0.96152 0.3368 0.2419 0.0
C98 C 0.90121 0.29245 0.27682 0.0
C99 C 0.94084 0.32562 0.27517 0.0
H100 H 0.88691 0.28276 0.30259 0.0
H101 H 0.95563 0.34215 0.29957 0.0
H102 H 0.65047 0.20244 0.23958 0.0
H103 H 0.79648 0.1722 0.16091 0.0
H104 H 0.57877 0.15447 0.25928 0.0
H105 H 0.99229 0.36241 0.2407 0.0
H106 H 0.99378 0.34798 0.1736 0.0
H107 H 0.76977 0.34906 0.34925 0.0
H108 H 0.9016 0.2404 0.09157 0.0
H109 H 0.83178 0.18222 0.09974 0.0
H110 H 0.57178 0.1854 0.38794 0.0
H111 H 0.96096 0.30301 0.11929 0.0
H112 H 0.6867 0.30328 0.44074 0.0
H113 H 0.75199 0.35625 0.41477 0.0
N114 N 0.71846 0.28943 0.33871 0.0
C115 C 0.68102 0.26195 0.35207 0.0
C116 C 0.74268 0.32431 0.36047 0.0
C117 C 0.69514 0.29921 0.41207 0.0
C118 C 0.73207 0.32909 0.39754 0.0
C119 C 0.66846 0.26586 0.38917 0.0
H120 H 0.61928 0.23936 0.43045 0.0
N121 N 0.66693 0.2289 0.29274 0.0
C122 C 0.654 0.23161 0.32829 0.0
C123 C 0.58652 0.1764 0.3156 0.0
C124 C 0.61369 0.20473 0.34077 0.0
C125 C 0.64021 0.20272 0.26789 0.0
C126 C 0.59972 0.17574 0.27897 0.0
O127 O 0.81344 0.26558 0.21286 0.0
O128 O 0.80044 0.31578 0.25536 0.0
O129 O 0.70875 0.29427 0.2372 0.0
O130 O 0.71496 0.32946 0.29051 0.0
O131 O 0.81367 0.25223 0.30164 0.0
O132 O 0.79582 0.30833 0.30043 0.0
O133 O 0.71385 0.20697 0.2845 0.0
O134 O 0.77336 0.20492 0.29599 0.0
O135 O 0.85669 0.19207 0.25408 0.0
O136 O 0.79956 0.14975 0.23106 0.0
O137 O 0.73395 0.24218 0.22027 0.0
O138 O 0.75291 0.186 0.21932 0.0
C139 C 0.81908 0.30545 0.22464 0.0
C140 C 0.81226 0.28933 0.31576 0.0
C141 C 0.72015 0.36669 0.24311 0.0
C142 C 0.70706 0.41567 0.21369 0.0
C143 C 0.77732 0.43003 0.2241 0.0
C144 C 0.76251 0.39305 0.24031 0.0
C145 C 0.75001 0.44117 0.21071 0.0
C146 C 0.69245 0.37811 0.23001 0.0
C147 C 0.70485 0.32651 0.25857 0.0
C148 C 0.60194 0.20694 0.37781 0.0
C149 C 0.62923 0.23738 0.402 0.0
H150 H 0.55525 0.15529 0.32414 0.0
C151 C 0.73329 0.19283 0.30164 0.0
C152 C 0.73497 0.20516 0.20562 0.0
C153 C 0.82257 0.12333 0.2724 0.0
C154 C 0.84592 0.08794 0.30831 0.0
C155 C 0.77369 0.07695 0.31439 0.0
C156 C 0.78222 0.10386 0.2888 0.0
C157 C 0.80511 0.0689 0.32399 0.0
C158 C 0.85461 0.11563 0.28261 0.0
C159 C 0.8312 0.15246 0.24556 0.0
H160 H 0.81019 0.44996 0.22159 0.0
H161 H 0.78404 0.3848 0.25049 0.0
H162 H 0.76283 0.46948 0.1974 0.0
H163 H 0.65967 0.35779 0.23272 0.0
H164 H 0.74254 0.06235 0.32696 0.0
H165 H 0.75714 0.1096 0.28206 0.0
H166 H 0.79753 0.04808 0.34419 0.0
H167 H 0.8859 0.1307 0.27039 0.0
C168 C 0.88671 0.86954 0.19687 0.0
C169 C 0.89737 0.83128 0.13839 0.0
C170 C 0.87232 0.83446 0.17043 0.0
C171 C 0.93775 0.86301 0.13397 0.0
C172 C 0.92672 0.90219 0.19201 0.0
C173 C 0.9524 0.89835 0.16072 0.0
N174 N 0.861 0.87267 0.22659 0.0
C175 C 0.87249 0.90837 0.25172 0.0
C176 C 0.93938 0.93816 0.2184 0.0
C177 C 0.91198 0.94144 0.24821 0.0
Gd178 Gd 0.75949 0.71417 0.2898 0.0
Gd179 Gd 0.79647 0.81462 0.23061 0.0
N180 N 0.83327 0.80409 0.17556 0.0
C181 C 0.88071 0.79679 0.11144 0.0
C182 C 0.81583 0.77208 0.14847 0.0
C183 C 0.83958 0.76741 0.11631 0.0
H184 H 0.78405 0.74937 0.15237 0.0
H185 H 0.82616 0.74122 0.09533 0.0
H186 H 0.77757 0.77745 0.36885 0.0
H187 H 0.85113 0.91136 0.27453 0.0
H188 H 0.73796 0.78894 0.42652 0.0
H189 H 0.89901 0.79315 0.08647 0.0
H190 H 0.95761 0.86094 0.10967 0.0
H191 H 0.69767 0.61978 0.24589 0.0
H192 H 0.96989 0.96394 0.21566 0.0
H193 H 0.92119 0.96952 0.26839 0.0
H194 H 0.60053 0.68018 0.41254 0.0
H195 H 0.98334 0.92296 0.15663 0.0
H196 H 0.57883 0.57765 0.30569 0.0
H197 H 0.62497 0.56745 0.25242 0.0
N198 N 0.69199 0.66061 0.29393 0.0
C199 C 0.66771 0.66585 0.32418 0.0
C200 C 0.67753 0.62516 0.26883 0.0
C201 C 0.61055 0.60106 0.30274 0.0
C202 C 0.63648 0.5952 0.27261 0.0
C203 C 0.6262 0.63632 0.32928 0.0
H204 H 0.56992 0.62012 0.36523 0.0
N205 N 0.72527 0.72721 0.34563 0.0
C206 C 0.68492 0.69976 0.35096 0.0
C207 C 0.68039 0.73801 0.41049 0.0
C208 C 0.66118 0.70492 0.38337 0.0
C209 C 0.74497 0.75749 0.37285 0.0
C210 C 0.72262 0.76397 0.4054 0.0
O211 O 0.82902 0.76861 0.21517 0.0
O212 O 0.78854 0.70137 0.23364 0.0
O213 O 0.80345 0.71617 0.32357 0.0
O214 O 0.76009 0.65509 0.29977 0.0
O215 O 0.73485 0.75875 0.23685 0.0
O216 O 0.73529 0.69442 0.23514 0.0
O217 O 0.72937 0.76276 0.30728 0.0
O218 O 0.77038 0.82887 0.28703 0.0
O219 O 0.75496 0.80912 0.19304 0.0
O220 O 0.78728 0.87056 0.22386 0.0
O221 O 0.8216 0.76945 0.28421 0.0
O222 O 0.82301 0.83457 0.2845 0.0
C223 C 0.8198 0.72719 0.21396 0.0
C224 C 0.72666 0.72004 0.22021 0.0
C225 C 0.82746 0.66186 0.30532 0.0
C226 C 0.88614 0.65118 0.31918 0.0
C227 C 0.86963 0.63818 0.25739 0.0
C228 C 0.83622 0.64928 0.26877 0.0
C229 C 0.89439 0.63898 0.28235 0.0
C230 C 0.85273 0.66311 0.33043 0.0
C231 C 0.79297 0.67504 0.31725 0.0
C232 C 0.6194 0.67649 0.38795 0.0
C233 C 0.60196 0.64229 0.36099 0.0
H234 H 0.66316 0.7431 0.43574 0.0
C235 C 0.74049 0.8046 0.30854 0.0
C236 C 0.83056 0.80859 0.30005 0.0
C237 C 0.71852 0.8521 0.21218 0.0
C238 C 0.66389 0.86765 0.19656 0.0
C239 C 0.65358 0.83479 0.24991 0.0
C240 C 0.69312 0.83541 0.24256 0.0
C241 C 0.63879 0.85046 0.22685 0.0
C242 C 0.70394 0.86867 0.18941 0.0
C243 C 0.75825 0.84824 0.20243 0.0
H244 H 0.87623 0.62869 0.22911 0.0
H245 H 0.81718 0.64797 0.24904 0.0
H246 H 0.92004 0.63004 0.27286 0.0
H247 H 0.84582 0.67246 0.35872 0.0
H248 H 0.63415 0.82158 0.27327 0.0
H249 H 0.70337 0.82175 0.26001 0.0
H250 H 0.60792 0.84947 0.23274 0.0
H251 H 0.72314 0.88112 0.16564 0.0
C252 C 0.27817 0.66177 0.32022 0.0
C253 C 0.26309 0.59465 0.28059 0.0
C254 C 0.27877 0.63979 0.28591 0.0
C255 C 0.24447 0.57206 0.31008 0.0
C256 C 0.262 0.63948 0.35018 0.0
C257 C 0.24393 0.59445 0.34483 0.0
N258 N 0.29592 0.70519 0.32445 0.0
C259 C 0.30372 0.72828 0.35772 0.0
C260 C 0.26593 0.6632 0.38458 0.0
C261 C 0.28779 0.70779 0.38837 0.0
Gd262 Gd 0.24191 0.78518 0.24758 0.0
Gd263 Gd 0.31701 0.73735 0.27187 0.0
N264 N 0.29756 0.66271 0.25817 0.0
C265 C 0.26804 0.57373 0.24604 0.0
C266 C 0.30544 0.64266 0.2251 0.0
C267 C 0.29006 0.59792 0.21835 0.0
H268 H 0.32324 0.66104 0.20365 0.0
H269 H 0.29545 0.58215 0.19185 0.0
H270 H 0.28824 0.88468 0.28934 0.0
H271 H 0.32134 0.76255 0.36029 0.0
H272 H 0.32863 0.95794 0.2736 0.0
H273 H 0.25642 0.53909 0.2408 0.0
H274 H 0.23168 0.53735 0.30644 0.0
H275 H 0.20543 0.72282 0.17071 0.0
H276 H 0.25377 0.64732 0.40832 0.0
H277 H 0.29257 0.72631 0.41481 0.0
H278 H 0.33448 0.93875 0.14486 0.0
H279 H 0.23068 0.57668 0.36745 0.0
H280 H 0.2617 0.7973 0.08447 0.0
H281 H 0.21588 0.7282 0.10602 0.0
N282 N 0.24832 0.78683 0.18538 0.0
C283 C 0.27091 0.8259 0.17441 0.0
C284 C 0.22723 0.75248 0.16152 0.0
C285 C 0.25798 0.79485 0.11284 0.0
C286 C 0.23232 0.75571 0.12488 0.0
C287 C 0.2769 0.83084 0.13777 0.0
H288 H 0.30571 0.87595 0.09927 0.0
N289 N 0.28083 0.85551 0.2351 0.0
C290 C 0.28697 0.86141 0.20006 0.0
C291 C 0.32507 0.93757 0.21666 0.0
C292 C 0.30971 0.90258 0.18983 0.0
C293 C 0.29461 0.88956 0.26149 0.0
C294 C 0.31727 0.93104 0.25265 0.0
O295 O 0.25938 0.73153 0.30874 0.0
O296 O 0.21238 0.72245 0.27071 0.0
O297 O 0.20409 0.81618 0.27882 0.0
O298 O 0.18302 0.77374 0.22985 0.0
O299 O 0.29119 0.71119 0.2169 0.0
O300 O 0.22803 0.71565 0.22605 0.0
O301 O 0.3119 0.81544 0.2353 0.0
O302 O 0.32932 0.75872 0.21753 0.0
O303 O 0.3694 0.72282 0.27403 0.0
O304 O 0.37676 0.78855 0.28352 0.0
O305 O 0.25976 0.80697 0.30502 0.0
O306 O 0.32376 0.80456 0.29633 0.0
C307 C 0.22169 0.71388 0.29924 0.0
C308 C 0.25279 0.69779 0.20913 0.0
C309 C 0.13458 0.7669 0.28026 0.0
C310 C 0.10241 0.74308 0.33791 0.0
C311 C 0.06 0.73387 0.29059 0.0
C312 C 0.09566 0.7542 0.26841 0.0
C313 C 0.0632 0.72949 0.32558 0.0
C314 C 0.13727 0.7566 0.31318 0.0
C315 C 0.17269 0.79307 0.25997 0.0
C316 C 0.31668 0.90744 0.1533 0.0
C317 C 0.30046 0.87163 0.12732 0.0
H318 H 0.3428 0.9697 0.20989 0.0
C319 C 0.33325 0.79669 0.2134 0.0
C320 C 0.29638 0.81746 0.31568 0.0
C321 C 0.42845 0.7734 0.24719 0.0
C322 C 0.44808 0.76374 0.18302 0.0
C323 C 0.49909 0.81258 0.22405 0.0
C324 C 0.46898 0.8026 0.25318 0.0
C325 C 0.48885 0.79302 0.18916 0.0
C326 C 0.41814 0.7552 0.21222 0.0
C327 C 0.39543 0.76294 0.27635 0.0
H328 H 0.02985 0.72429 0.28161 0.0
H329 H 0.09289 0.76068 0.24254 0.0
H330 H 0.03516 0.71858 0.34345 0.0
H331 H 0.16738 0.76426 0.32136 0.0
H332 H 0.53055 0.83494 0.22853 0.0
H333 H 0.47719 0.81761 0.28011 0.0
H334 H 0.51305 0.79969 0.16739 0.0
H335 H 0.38651 0.73345 0.20782 0.0
C336 C 0.35052 0.68204 0.68193 0.0
C337 C 0.42166 0.73414 0.67532 0.0
C338 C 0.38182 0.72078 0.6938 0.0
C339 C 0.42869 0.70932 0.64335 0.0
C340 C 0.35799 0.65612 0.65071 0.0
C341 C 0.39679 0.67066 0.63085 0.0
N342 N 0.31433 0.66766 0.70299 0.0
C343 C 0.28607 0.62625 0.69629 0.0
C344 C 0.32716 0.61519 0.64169 0.0
C345 C 0.29133 0.5999 0.66496 0.0
Gd346 Gd 0.22694 0.7704 0.75913 0.0
Gd347 Gd 0.30787 0.71423 0.75479 0.0
N348 N 0.37433 0.74342 0.72523 0.0
C349 C 0.45366 0.77078 0.69058 0.0
C350 C 0.40592 0.7776 0.74129 0.0
C351 C 0.4458 0.79241 0.72382 0.0
H352 H 0.39997 0.79359 0.7675 0.0
H353 H 0.47061 0.81998 0.7363 0.0
H354 H 0.17092 0.70908 0.68967 0.0
H355 H 0.25933 0.61358 0.71516 0.0
H356 H 0.10738 0.64328 0.6799 0.0
H357 H 0.48489 0.78164 0.67783 0.0
H358 H 0.45905 0.71873 0.6288 0.0
H359 H 0.21896 0.81058 0.84546 0.0
H360 H 0.33165 0.59437 0.61787 0.0
H361 H 0.26818 0.56755 0.65919 0.0
H362 H 0.04557 0.61553 0.79905 0.0
H363 H 0.40308 0.65123 0.60678 0.0
H364 H 0.11038 0.72029 0.89731 0.0
H365 H 0.17285 0.78862 0.90071 0.0
N366 N 0.18265 0.75503 0.81189 0.0
C367 C 0.14707 0.71892 0.809 0.0
C368 C 0.19119 0.78115 0.84391 0.0
C369 C 0.12994 0.73014 0.87303 0.0
C370 C 0.16532 0.76871 0.87509 0.0
C371 C 0.11991 0.70518 0.83959 0.0
H372 H 0.06341 0.65495 0.85897 0.0
N373 N 0.16468 0.71042 0.74633 0.0
C374 C 0.13804 0.69569 0.77526 0.0
C375 C 0.09032 0.63897 0.73636 0.0
C376 C 0.10056 0.65898 0.7711 0.0
C377 C 0.15265 0.69379 0.71249 0.0
C378 C 0.11602 0.65712 0.7069 0.0
O379 O 0.33367 0.77881 0.73474 0.0
O380 O 0.27987 0.78713 0.71525 0.0
O381 O 0.18273 0.78865 0.7419 0.0
O382 O 0.23498 0.83697 0.76796 0.0
O383 O 0.31699 0.77257 0.79667 0.0
O384 O 0.28046 0.81326 0.79196 0.0
O385 O 0.23253 0.73696 0.80249 0.0
O386 O 0.24073 0.67814 0.77232 0.0
O387 O 0.31048 0.70349 0.80857 0.0
O388 O 0.34213 0.67909 0.76298 0.0
O389 O 0.24112 0.73465 0.70609 0.0
O390 O 0.24961 0.68153 0.72604 0.0
C391 C 0.31932 0.79519 0.71469 0.0
C392 C 0.3078 0.80632 0.80608 0.0
C393 C 0.21116 0.85645 0.72287 0.0
C394 C 0.19105 0.89966 0.69287 0.0
C395 C 0.25468 0.89026 0.6721 0.0
C396 C 0.24645 0.86434 0.69843 0.0
C397 C 0.22738 0.90803 0.66943 0.0
C398 C 0.18293 0.87356 0.71965 0.0
C399 C 0.20352 0.82941 0.75088 0.0
C400 C 0.07406 0.6442 0.80162 0.0
C401 C 0.08394 0.66702 0.83579 0.0
H402 H 0.06181 0.61071 0.732 0.0
C403 C 0.22331 0.69581 0.79937 0.0
C404 C 0.24251 0.69684 0.7003 0.0
C405 C 0.3211 0.64165 0.81238 0.0
C406 C 0.34378 0.5927 0.83136 0.0
C407 C 0.27033 0.57627 0.83386 0.0
C408 C 0.27975 0.61408 0.82025 0.0
C409 C 0.30198 0.56563 0.8395 0.0
C410 C 0.35286 0.63073 0.81769 0.0
C411 C 0.33244 0.68127 0.79734 0.0
H412 H 0.28216 0.89632 0.65351 0.0
H413 H 0.26747 0.85015 0.69961 0.0
H414 H 0.23419 0.92765 0.64843 0.0
H415 H 0.1551 0.86688 0.73792 0.0
H416 H 0.23837 0.55517 0.84019 0.0
H417 H 0.25487 0.62163 0.81573 0.0
H418 H 0.29363 0.53653 0.85081 0.0
H419 H 0.38469 0.65179 0.81067 0.0
C420 C 0.38968 0.3476 0.68012 0.0
C421 C 0.38623 0.29932 0.62416 0.0
C422 C 0.36715 0.3116 0.65706 0.0
C423 C 0.42847 0.32313 0.61509 0.0
C424 C 0.43184 0.3722 0.67061 0.0
C425 C 0.45119 0.35946 0.63823 0.0
N426 N 0.37019 0.3592 0.71131 0.0
C427 C 0.39039 0.3962 0.7332 0.0
C428 C 0.45318 0.40924 0.6937 0.0
C429 C 0.43224 0.4215 0.72493 0.0
Gd430 Gd 0.26118 0.2209 0.78871 0.0
Gd431 Gd 0.30063 0.31315 0.72288 0.0
N432 N 0.32653 0.28845 0.6669 0.0
C433 C 0.36217 0.26361 0.60125 0.0
C434 C 0.30242 0.25519 0.64387 0.0
C435 C 0.31997 0.24178 0.61097 0.0
H436 H 0.26991 0.23865 0.65118 0.0
H437 H 0.30095 0.21466 0.59315 0.0
H438 H 0.28628 0.29101 0.86351 0.0
H439 H 0.37417 0.40664 0.75684 0.0
H440 H 0.25224 0.30843 0.92247 0.0
H441 H 0.37572 0.25306 0.57579 0.0
H442 H 0.44375 0.31398 0.59006 0.0
H443 H 0.19327 0.12632 0.75103 0.0
H444 H 0.48558 0.42901 0.68732 0.0
H445 H 0.44825 0.45061 0.74252 0.0
H446 H 0.11242 0.20176 0.92029 0.0
H447 H 0.48362 0.37782 0.63063 0.0
H448 H 0.07934 0.09201 0.81835 0.0
H449 H 0.12028 0.07685 0.76292 0.0
N450 N 0.19295 0.17027 0.79831 0.0
C451 C 0.17144 0.17845 0.82946 0.0
C452 C 0.17541 0.13383 0.7749 0.0
C453 C 0.11119 0.11414 0.81305 0.0
C454 C 0.13419 0.10549 0.78171 0.0
C455 C 0.12989 0.15067 0.83764 0.0
H456 H 0.07661 0.13897 0.87691 0.0
N457 N 0.23168 0.23967 0.84534 0.0
C458 C 0.19152 0.21386 0.85391 0.0
C459 C 0.19278 0.25727 0.91182 0.0
C460 C 0.17076 0.22236 0.8872 0.0
C461 C 0.25399 0.2721 0.87003 0.0
C462 C 0.23474 0.28191 0.90336 0.0
O463 O 0.32987 0.26416 0.71275 0.0
O464 O 0.28164 0.20069 0.73203 0.0
O465 O 0.30944 0.22118 0.8162 0.0
O466 O 0.25719 0.16169 0.80314 0.0
O467 O 0.23547 0.26324 0.73103 0.0
O468 O 0.23348 0.19871 0.7349 0.0
O469 O 0.2337 0.27112 0.80331 0.0
O470 O 0.27585 0.33379 0.77831 0.0
O471 O 0.25614 0.31472 0.69157 0.0
O472 O 0.30861 0.37319 0.70768 0.0
O473 O 0.32555 0.2755 0.78674 0.0
O474 O 0.32644 0.33812 0.77653 0.0
C475 C 0.31479 0.22208 0.71187 0.0
C476 C 0.2233 0.22252 0.71893 0.0
C477 C 0.32229 0.1591 0.80226 0.0
C478 C 0.37654 0.13927 0.81357 0.0
C479 C 0.35365 0.12334 0.75362 0.0
C480 C 0.32532 0.14153 0.76612 0.0
C481 C 0.37898 0.12205 0.77708 0.0
C482 C 0.3481 0.15815 0.82582 0.0
C483 C 0.29346 0.17984 0.81539 0.0
C484 C 0.12902 0.19552 0.895 0.0
C485 C 0.10863 0.15978 0.87027 0.0
H486 H 0.1779 0.26497 0.93763 0.0
C487 C 0.24587 0.31241 0.80144 0.0
C488 C 0.33537 0.31676 0.7962 0.0
C489 C 0.24464 0.37769 0.70864 0.0
C490 C 0.1884 0.39594 0.70004 0.0
C491 C 0.21949 0.41975 0.75689 0.0
C492 C 0.24637 0.39996 0.74366 0.0
C493 C 0.19095 0.41811 0.73526 0.0
C494 C 0.21519 0.37516 0.68722 0.0
C495 C 0.27287 0.35643 0.69452 0.0
H496 H 0.35571 0.10979 0.72567 0.0
H497 H 0.30576 0.14185 0.74759 0.0
H498 H 0.39978 0.10661 0.76673 0.0
H499 H 0.34611 0.17238 0.85361 0.0
H500 H 0.22124 0.43704 0.78386 0.0
H501 H 0.26865 0.40228 0.76075 0.0
H502 H 0.17172 0.43527 0.74593 0.0
H503 H 0.21338 0.35702 0.66056 0.0
C504 C 0.81858 0.16032 0.76109 0.0
C505 C 0.83329 0.13478 0.699 0.0
C506 C 0.82581 0.1657 0.72542 0.0
C507 C 0.8322 0.09771 0.70923 0.0
C508 C 0.81863 0.1239 0.77181 0.0
C509 C 0.82486 0.09226 0.74561 0.0
N510 N 0.81346 0.19184 0.78552 0.0
C511 C 0.81018 0.1902 0.8214 0.0
C512 C 0.81338 0.12098 0.80856 0.0
C513 C 0.80951 0.15451 0.83349 0.0
Gd514 Gd 0.72664 0.29703 0.77787 0.0
Gd515 Gd 0.81212 0.24962 0.76384 0.0
N516 N 0.82726 0.20219 0.71676 0.0
C517 C 0.8423 0.14246 0.66323 0.0
C518 C 0.83786 0.21075 0.68214 0.0
C519 C 0.84474 0.18073 0.65482 0.0
H520 H 0.84033 0.24041 0.67534 0.0
H521 H 0.852 0.18718 0.62731 0.0
H522 H 0.77664 0.40233 0.78922 0.0
H523 H 0.80789 0.21645 0.84069 0.0
H524 H 0.77436 0.46573 0.77118 0.0
H525 H 0.84807 0.11946 0.64206 0.0
H526 H 0.83766 0.07345 0.68933 0.0
H527 H 0.63982 0.21364 0.75514 0.0
H528 H 0.81315 0.09349 0.81795 0.0
H529 H 0.80623 0.153 0.86198 0.0
H530 H 0.65412 0.40608 0.70516 0.0
H531 H 0.82479 0.0639 0.75324 0.0
H532 H 0.57258 0.25408 0.69857 0.0
H533 H 0.57954 0.19664 0.72255 0.0
N534 N 0.66713 0.27972 0.7491 0.0
C535 C 0.66334 0.31152 0.73675 0.0
C536 C 0.63719 0.2389 0.74473 0.0
C537 C 0.59916 0.26162 0.71272 0.0
C538 C 0.60297 0.22915 0.72626 0.0
C539 C 0.62942 0.30361 0.71821 0.0
H540 H 0.6009 0.33258 0.69193 0.0
N541 N 0.72382 0.35791 0.76296 0.0
C542 C 0.69289 0.35229 0.744 0.0
C543 C 0.72001 0.42848 0.74279 0.0
C544 C 0.68999 0.38722 0.73322 0.0
C545 C 0.75251 0.39807 0.77336 0.0
C546 C 0.75126 0.43395 0.76323 0.0
O547 O 0.75738 0.22456 0.80361 0.0
O548 O 0.70517 0.22468 0.77743 0.0
O549 O 0.70926 0.33345 0.82641 0.0
O550 O 0.6956 0.26727 0.82545 0.0
O551 O 0.76688 0.21794 0.72028 0.0
O552 O 0.72364 0.25412 0.72443 0.0
O553 O 0.79031 0.33568 0.75175 0.0
O554 O 0.81417 0.28617 0.72022 0.0
O555 O 0.87308 0.26487 0.77856 0.0
O556 O 0.85889 0.31542 0.76812 0.0
O557 O 0.78894 0.33318 0.79914 0.0
O558 O 0.78909 0.27614 0.81714 0.0
C559 C 0.71889 0.20586 0.7958 0.0
C560 C 0.73816 0.22532 0.70839 0.0
C561 C 0.7193 0.31198 0.87894 0.0
C562 C 0.75912 0.36276 0.92737 0.0
C563 C 0.74088 0.28655 0.92373 0.0
C564 C 0.71946 0.27831 0.89389 0.0
C565 C 0.76086 0.3285 0.94028 0.0
C566 C 0.73914 0.3541 0.89589 0.0
C567 C 0.69886 0.30268 0.84556 0.0
C568 C 0.65689 0.37975 0.7139 0.0
C569 C 0.6266 0.33793 0.70638 0.0
H570 H 0.71898 0.45626 0.73505 0.0
C571 C 0.81095 0.32285 0.72354 0.0
C572 C 0.79836 0.3172 0.8228 0.0
C573 C 0.924 0.31803 0.74615 0.0
C574 C 0.95991 0.29731 0.69137 0.0
C575 C 0.97561 0.37241 0.71176 0.0
C576 C 0.94651 0.36132 0.74154 0.0
C577 C 0.98181 0.34038 0.68627 0.0
C578 C 0.93173 0.2866 0.72142 0.0
C579 C 0.88785 0.30455 0.77252 0.0
H580 H 0.74126 0.26024 0.93451 0.0
H581 H 0.70292 0.24552 0.88249 0.0
H582 H 0.77594 0.33396 0.96425 0.0
H583 H 0.73672 0.37968 0.88561 0.0
H584 H 0.99232 0.40571 0.7078 0.0
H585 H 0.94041 0.38619 0.76007 0.0
H586 H 1.00298 0.34899 0.66251 0.0
H587 H 0.91364 0.25301 0.7241 0.0
C588 C 0.85354 0.86931 0.84415 0.0
C589 C 0.8072 0.8656 0.8987 0.0
C590 C 0.8187 0.84607 0.86531 0.0
C591 C 0.83038 0.9093 0.9099 0.0
C592 C 0.87778 0.91278 0.85593 0.0
C593 C 0.86557 0.93284 0.88856 0.0
N594 N 0.86486 0.84889 0.81296 0.0
C595 C 0.90141 0.86918 0.79351 0.0
C596 C 0.91412 0.9345 0.83498 0.0
C597 C 0.92624 0.91242 0.80388 0.0
Gd598 Gd 0.74032 0.73387 0.71888 0.0
Gd599 Gd 0.81974 0.7772 0.79696 0.0
N600 N 0.79639 0.80404 0.85343 0.0
C601 C 0.77301 0.84045 0.92 0.0
C602 C 0.76485 0.7787 0.87511 0.0
C603 C 0.75212 0.79667 0.90836 0.0
H604 H 0.74907 0.7449 0.8663 0.0
H605 H 0.72633 0.77675 0.92504 0.0
H606 H 0.80443 0.79274 0.65555 0.0
H607 H 0.91172 0.85186 0.77024 0.0
H608 H 0.84232 0.78136 0.59745 0.0
H609 H 0.76308 0.85431 0.94576 0.0
H610 H 0.82176 0.92501 0.93529 0.0
H611 H 0.6823 0.63601 0.74318 0.0
H612 H 0.93359 0.96791 0.84309 0.0
H613 H 0.95492 0.92856 0.78809 0.0
H614 H 0.79607 0.62867 0.57199 0.0
H615 H 0.88361 0.96632 0.89789 0.0
H616 H 0.69968 0.54333 0.65843 0.0
H617 H 0.66702 0.56071 0.71809 0.0
N618 N 0.72452 0.66125 0.69882 0.0
C619 C 0.74202 0.65243 0.6655 0.0
C620 C 0.69747 0.629 0.71749 0.0
C621 C 0.70671 0.57653 0.66937 0.0
C622 C 0.68837 0.58622 0.70316 0.0
C623 C 0.73384 0.60974 0.65006 0.0
H624 H 0.7476 0.56895 0.60404 0.0
N625 N 0.77747 0.72736 0.66307 0.0
C626 C 0.76955 0.68637 0.64736 0.0
C627 C 0.8165 0.71279 0.59575 0.0
C628 C 0.78924 0.67808 0.61337 0.0
C629 C 0.80189 0.761 0.64495 0.0
C630 C 0.82248 0.7544 0.61144 0.0
O631 O 0.76879 0.80116 0.80974 0.0
O632 O 0.72301 0.77567 0.76537 0.0
O633 O 0.71754 0.75826 0.68194 0.0
O634 O 0.67639 0.70092 0.7066 0.0
O635 O 0.76591 0.7117 0.79272 0.0
O636 O 0.70952 0.71138 0.77236 0.0
O637 O 0.78526 0.70433 0.72304 0.0
O638 O 0.84485 0.75965 0.74114 0.0
O639 O 0.82354 0.72316 0.81425 0.0
O640 O 0.87218 0.78658 0.82395 0.0
O641 O 0.7872 0.80378 0.72153 0.0
O642 O 0.84419 0.80806 0.74582 0.0
C643 C 0.73617 0.79841 0.79623 0.0
C644 C 0.7261 0.7023 0.79614 0.0
C645 C 0.64589 0.72255 0.66607 0.0
C646 C 0.6086 0.75257 0.6391 0.0
C647 C 0.583 0.6753 0.63805 0.0
C648 C 0.61584 0.68122 0.65646 0.0
C649 C 0.57945 0.71047 0.62925 0.0
C650 C 0.64219 0.75821 0.65739 0.0
C651 C 0.68059 0.72775 0.6853 0.0
C652 C 0.78107 0.63558 0.59799 0.0
C653 C 0.75338 0.60154 0.61622 0.0
H654 H 0.83234 0.70775 0.56969 0.0
C655 C 0.82591 0.72403 0.71998 0.0
C656 C 0.82723 0.82171 0.72552 0.0
C657 C 0.89102 0.72834 0.81584 0.0
C658 C 0.92809 0.69023 0.83112 0.0
C659 C 0.94831 0.72155 0.77562 0.0
C660 C 0.91694 0.73623 0.78383 0.0
C661 C 0.9542 0.69906 0.79928 0.0
C662 C 0.89629 0.70475 0.83915 0.0
C663 C 0.8597 0.74611 0.82611 0.0
H664 H 0.5603 0.64322 0.6303 0.0
H665 H 0.61804 0.65335 0.6628 0.0
H666 H 0.55407 0.70439 0.61411 0.0
H667 H 0.66496 0.79015 0.66554 0.0
H668 H 0.96837 0.72793 0.75099 0.0
H669 H 0.91326 0.75421 0.76547 0.0
H670 H 0.97885 0.68816 0.79258 0.0
H671 H 0.87637 0.69862 0.86394 0.0
C672 C 0.94717 0.11443 0.5363 0.0
C673 C 0.99009 0.07517 0.43386 0.0
C674 C 0.9478 0.92419 0.47591 0.0
Mg675 Mg 0.02906 0.10533 0.50569 0.0
O676 O 0.9962 0.0526 0.52307 0.0
Mg677 Mg 0.94162 0.01661 0.50276 0.0
Mg678 Mg 1.02129 0.01049 0.51223 0.0
O679 O 0.04679 0.96865 0.50051 0.0
Mg680 Mg 1.01394 0.91609 0.51765 0.0
Mg681 Mg 0.1014 1.00478 0.52073 0.0
C682 C 0.095 0.09731 0.54854 0.0
C683 C 0.10019 0.04718 0.4511 0.0
O684 O 0.92498 0.07396 0.52925 0.0
O685 O 0.98652 0.1317 0.52986 0.0
O686 O 0.96133 0.04586 0.45018 0.0
O687 O 1.02285 0.10127 0.44883 0.0
O688 O 0.08374 0.12151 0.53513 0.0
O689 O 0.07549 0.0563 0.54379 0.0
C690 C 0.94136 0.9748 0.57269 0.0
O691 O 0.97903 0.97977 0.56288 0.0
O692 O 0.92248 0.98704 0.55462 0.0
O693 O 0.11803 0.94627 0.49635 0.0
O694 O 0.05657 0.88868 0.49601 0.0
O695 O 0.08078 0.97504 0.57327 0.0
C696 C 0.09608 0.90545 0.49061 0.0
O697 O 1.01804 0.92152 0.57467 0.0
O698 O 0.95929 0.89986 0.48883 0.0
C699 C 0.05109 0.9464 0.58963 0.0
O700 O 0.96749 0.96511 0.48041 0.0
O701 O 0.06251 0.04082 0.46225 0.0
O702 O 0.12097 0.03556 0.46787 0.0
C703 C 0.42767 0.08448 0.07651 0.0
C704 C 0.46674 0.08128 0.96425 0.0
C705 C 0.44883 0.91895 0.96311 0.0
Mg706 Mg 0.51252 0.09595 0.03086 0.0
O707 O 0.49009 0.03633 0.03069 0.0
Mg708 Mg 0.43339 1.0008 0.01483 0.0
Mg709 Mg 0.52093 1.00149 1.00413 0.0
O710 O 0.55194 0.96644 0.97809 0.0
Mg711 Mg 0.52918 0.90689 0.97862 0.0
Mg712 Mg 0.60601 1.00023 0.99974 0.0
C713 C 0.59091 0.08198 0.04897 0.0
C714 C 0.59509 0.05829 0.94849 0.0
O715 O 0.41041 0.04647 0.05905 0.0
O716 O 0.46645 0.10793 0.07071 0.0
O717 O 0.44233 0.04523 0.97444 0.0
O718 O 0.49958 0.10608 0.97971 0.0
O719 O 0.57338 0.10723 0.04794 0.0
O720 O 0.5749 0.04202 0.03631 0.0
C721 C 0.45252 0.94672 0.06436 0.0
O722 O 0.48914 0.95725 0.0485 0.0
O723 O 0.42688 0.95923 0.05623 0.0
O724 O 0.63156 0.95515 0.95887 0.0
O725 O 0.57715 0.8945 0.94157 0.0
O726 O 0.59091 0.95598 0.04173 0.0
C727 C 0.61622 0.91807 0.93967 0.0
O728 O 0.53514 0.89534 0.03096 0.0
O729 O 0.46833 0.89547 0.96351 0.0
C730 C 0.5647 0.91975 0.05025 0.0
O731 O 0.46422 0.95968 0.97364 0.0
O732 O 0.55663 0.04766 0.96009 0.0
O733 O 0.61738 0.04344 0.95939 0.0
C734 C 0.93812 0.59475 0.08361 0.0
C735 C 0.99208 0.59447 0.97408 0.0
C736 C 0.95189 0.42358 0.97492 0.0
Mg737 Mg 1.02492 0.60079 0.04624 0.0
O738 O 0.99813 0.54064 0.04216 0.0
Mg739 Mg 0.94314 0.51058 0.02203 0.0
Mg740 Mg 1.02613 0.50313 0.0153 0.0
O741 O 0.05487 0.46604 0.98943 0.0
Mg742 Mg 0.02839 0.40773 0.99305 0.0
Mg743 Mg 0.11085 0.49708 1.00859 0.0
C744 C 0.09852 0.57892 0.06388 0.0
C745 C 0.09943 0.55564 0.95686 0.0
O746 O 0.92144 0.55798 0.06429 0.0
O747 O 0.97752 0.61636 0.08205 0.0
O748 O 0.9627 0.55864 0.98088 0.0
O749 O 1.022 0.61482 0.99401 0.0
O750 O 0.08211 0.60588 0.06619 0.0
O751 O 0.08203 0.54051 0.04751 0.0
C752 C 0.95161 0.44989 0.0724 0.0
O753 O 0.98887 0.45832 0.05838 0.0
O754 O 0.92893 0.46554 0.06315 0.0
O755 O 0.13092 0.44768 0.96589 0.0
O756 O 0.07161 0.38919 0.95612 0.0
O757 O 0.09634 0.45229 0.05178 0.0
C758 C 0.11087 0.40933 0.95004 0.0
O759 O 0.03499 0.39742 0.04505 0.0
O760 O 0.96903 0.39877 0.97783 0.0
C761 C 0.06736 0.41801 0.06185 0.0
O762 O 0.96977 0.4647 0.98323 0.0
O763 O 0.06216 0.5464 0.97108 0.0
O764 O 0.12302 0.54141 0.96666 0.0
C765 C 0.44063 0.5916 0.0294 0.0
C766 C 0.50118 0.56823 0.93071 0.0
C767 C 0.46505 0.41403 0.96805 0.0
Mg768 Mg 0.52926 0.59571 1.00637 0.0
O769 O 0.50094 0.53946 0.01738 0.0
Mg770 Mg 0.45047 0.50039 0.99261 0.0
Mg771 Mg 0.53299 0.50387 1.00723 0.0
O772 O 0.56658 0.46879 0.99867 0.0
Mg773 Mg 0.53011 0.41123 0.0135 0.0
Mg774 Mg 0.62135 0.51481 0.02387 0.0
C775 C 0.59399 0.59244 0.05279 0.0
C776 C 0.61714 0.55549 0.95446 0.0
O777 O 0.42364 0.55084 0.01933 0.0
O778 O 0.47982 0.61348 0.02715 0.0
O779 O 0.47292 0.53543 0.94339 0.0
O780 O 0.53057 0.59538 0.94922 0.0
O781 O 0.58045 0.61542 0.04042 0.0
O782 O 0.57976 0.5515 0.04394 0.0
C783 C 0.44979 0.4569 0.06134 0.0
O784 O 0.48888 0.46698 0.05429 0.0
O785 O 0.4301 0.46668 0.04204 0.0
O786 O 0.59292 0.45128 0.98793 0.0
O787 O 0.57119 0.38241 0.98662 0.0
O788 O 0.59984 0.47672 0.07232 0.0
C789 C 0.60168 0.41869 0.98552 0.0
O790 O 0.53983 0.41779 0.06994 0.0
O791 O 0.47567 0.39269 0.98527 0.0
C792 C 0.57167 0.44444 0.08617 0.0
O793 O 0.48395 0.45505 0.9701 0.0
O794 O 0.57745 0.54166 0.96021 0.0
O795 O 0.63816 0.54916 0.97499 0.0
C796 C 0.93789 0.59874 0.57311 0.0
C797 C 0.98204 0.58717 0.45927 0.0
C798 C 0.95303 0.42652 0.47062 0.0
Mg799 Mg 1.0222 0.60631 0.52983 0.0
O800 O 0.99895 0.54716 0.53374 0.0
Mg801 Mg 0.94287 0.51228 0.51572 0.0
Mg802 Mg 0.0274 0.50968 0.50745 0.0
O803 O 0.05577 0.47254 0.4803 0.0
Mg804 Mg 0.03253 0.41455 0.48669 0.0
Mg805 Mg 0.114 0.50772 0.49252 0.0
C806 C 0.10343 0.59332 0.54239 0.0
C807 C 0.09269 0.56116 0.44388 0.0
O808 O 0.9211 0.56062 0.55594 0.0
O809 O 0.97688 0.62204 0.56837 0.0
O810 O 0.95615 0.55202 0.4701 0.0
O811 O 1.01218 0.61362 0.47716 0.0
O812 O 0.0845 0.61747 0.54221 0.0
O813 O 0.08662 0.55234 0.53353 0.0
C814 C 0.95763 0.45982 0.56993 0.0
O815 O 0.99454 0.46753 0.55468 0.0
O816 O 0.93419 0.47368 0.55952 0.0
O817 O 0.13311 0.45708 0.4499 0.0
O818 O 0.07486 0.39627 0.4472 0.0
O819 O 0.1076 0.46762 0.53555 0.0
C820 C 0.11324 0.41719 0.43729 0.0
O821 O 0.04779 0.40994 0.53838 0.0
O822 O 0.97049 0.40171 0.47298 0.0
C823 C 0.08292 0.43457 0.55 0.0
O824 O 0.97051 0.46731 0.47955 0.0
O825 O 0.05734 0.55213 0.462 0.0
O826 O 0.11837 0.54717 0.44965 0.0
C827 C 0.44919 0.11324 0.57514 0.0
C828 C 0.49489 0.09545 0.46411 0.0
C829 C 0.44228 0.93151 0.46825 0.0
Mg830 Mg 0.52862 0.10425 0.53534 0.0
O831 O 0.49658 0.04631 0.53957 0.0
Mg832 Mg 0.4414 0.02065 0.51955 0.0
Mg833 Mg 0.51938 1.00369 0.51442 0.0
O834 O 0.54241 0.96201 0.48801 0.0
Mg835 Mg 0.51101 0.90276 0.48507 0.0
Mg836 Mg 0.59881 0.98802 0.50573 0.0
C837 C 0.59836 0.07862 0.55522 0.0
C838 C 0.59417 0.05097 0.45501 0.0
O839 O 0.42715 0.07568 0.5592 0.0
O840 O 0.48882 0.12967 0.57065 0.0
O841 O 0.46335 0.06298 0.47408 0.0
O842 O 0.526 0.11539 0.48249 0.0
O843 O 0.58476 0.10633 0.55203 0.0
O844 O 0.57768 0.0379 0.54597 0.0
C845 C 0.44323 0.95983 0.57432 0.0
O846 O 0.47897 0.96238 0.55949 0.0
O847 O 0.42427 0.97896 0.564 0.0
O848 O 0.61433 0.93635 0.46246 0.0
O849 O 0.55391 0.88195 0.44807 0.0
O850 O 0.578 0.93947 0.54644 0.0
C851 C 0.59363 0.89965 0.4445 0.0
O852 O 0.51488 0.88821 0.53653 0.0
O853 O 0.45458 0.9015 0.46695 0.0
C854 C 0.54678 0.90539 0.55429 0.0
O855 O 0.46264 0.96999 0.48311 0.0
O856 O 0.55754 0.04463 0.46948 0.0
O857 O 0.61535 0.03382 0.46465 0.0
H858 H 0.16248 0.1642 0.3268 0.0
H859 H 0.27981 0.16873 0.34445 0.0
H860 H 0.24557 0.12046 0.38933 0.0
H861 H 0.18267 0.07943 0.42621 0.0
H862 H 0.06462 0.06801 0.40359 0.0
H863 H 0.09853 0.11568 0.35805 0.0
C864 C 0.1806 0.15397 0.33967 0.0
C865 C 0.22396 0.17056 0.33179 0.0
C866 C 0.16051 0.1251 0.36515 0.0
C867 C 0.24653 0.15694 0.34967 0.0
C868 C 0.22693 0.12921 0.37555 0.0
C869 C 0.1642 0.08693 0.41113 0.0
C870 C 0.12096 0.07128 0.41967 0.0
C871 C 0.18396 0.11344 0.3839 0.0
C872 C 0.0979 0.08104 0.39908 0.0
C873 C 0.11735 0.10803 0.3726 0.0
H874 H 0.92109 0.14453 0.33227 0.0
H875 H 0.84304 0.00957 0.31119 0.0
H876 H 0.88654 0.99282 0.34294 0.0
H877 H 0.93892 0.0172 0.38546 0.0
H878 H 1.01682 0.1519 0.4083 0.0
H879 H 0.98237 0.16792 0.3664 0.0
C880 C 0.9144 0.11144 0.33376 0.0
C881 C 0.87836 0.0784 0.31995 0.0
C882 C 0.93938 0.10198 0.35272 0.0
C883 C 0.87012 0.03564 0.32212 0.0
C884 C 0.89499 0.02601 0.34032 0.0
C885 C 0.94927 0.04997 0.38045 0.0
C886 C 0.98008 0.08333 0.40042 0.0
C887 C 0.92856 0.05901 0.35708 0.0
C888 C 0.9933 0.12554 0.39332 0.0
C889 C 0.97316 0.13479 0.36965 0.0
H890 H 0.83661 0.87848 0.34931 0.0
H891 H 0.87643 0.7751 0.3232 0.0
H892 H 0.90996 0.79778 0.37861 0.0
H893 H 0.93132 0.8489 0.43272 0.0
H894 H 0.8983 0.95691 0.45661 0.0
H895 H 0.85854 0.93045 0.40413 0.0
C896 C 0.85272 0.86106 0.35578 0.0
C897 C 0.85313 0.82454 0.33258 0.0
C898 C 0.87295 0.87497 0.38743 0.0
C899 C 0.87442 0.80245 0.34113 0.0
C900 C 0.89389 0.81557 0.37274 0.0
C901 C 0.9146 0.86614 0.42701 0.0
C902 C 0.91738 0.90456 0.44881 0.0
C903 C 0.89339 0.85176 0.39605 0.0
C904 C 0.89642 0.92709 0.44041 0.0
C905 C 0.87393 0.91213 0.41025 0.0
H906 H 0.16727 0.81016 0.36924 0.0
H907 H 0.05083 0.70612 0.396 0.0
H908 H 0.04518 0.74699 0.45484 0.0
H909 H 0.06232 0.81921 0.48809 0.0
H910 H 0.17345 0.92506 0.4551 0.0
H911 H 0.19325 0.87557 0.40991 0.0
C912 C 0.14123 0.79497 0.38801 0.0
C913 C 0.10804 0.75591 0.37703 0.0
C914 C 0.13703 0.81964 0.42063 0.0
C915 C 0.07568 0.73708 0.4029 0.0
C916 C 0.07244 0.76052 0.43656 0.0
C917 C 0.0914 0.83138 0.47154 0.0
C918 C 0.11541 0.87595 0.4735 0.0
C919 C 0.10103 0.80323 0.4441 0.0
C920 C 0.15388 0.89106 0.45332 0.0
C921 C 0.16502 0.86276 0.42734 0.0
H922 H 0.10959 0.8566 0.6804 0.0
H923 H 0.20822 0.98318 0.69238 0.0
H924 H 0.16771 0.01159 0.66858 0.0
H925 H 0.11103 0.9976 0.63357 0.0
H926 H 1.01387 0.87032 0.61762 0.0
H927 H 0.04589 0.84549 0.65488 0.0
C928 C 0.1215 0.8906 0.67888 0.0
C929 C 0.16201 0.91772 0.68771 0.0
C930 C 0.09839 0.90653 0.66408 0.0
C931 C 0.17727 0.96169 0.68542 0.0
C932 C 0.15417 0.97791 0.6717 0.0
C933 C 0.09609 0.9647 0.63913 0.0
C934 C 0.06058 0.9357 0.62207 0.0
C935 C 0.11563 0.95023 0.65929 0.0
C936 C 0.04134 0.89338 0.63012 0.0
C937 C 0.05999 0.87897 0.6511 0.0
H938 H 0.2086 0.14623 0.67498 0.0
H939 H 0.17939 0.25669 0.69374 0.0
H940 H 0.1419 0.23034 0.64035 0.0
H941 H 0.11574 0.17544 0.58904 0.0
H942 H 0.14081 0.06255 0.57134 0.0
H943 H 0.18176 0.09043 0.62306 0.0
C944 C 0.19371 0.16429 0.66752 0.0
C945 C 0.19726 0.20366 0.68825 0.0
C946 C 0.17181 0.14876 0.63662 0.0
C947 C 0.17786 0.2267 0.67806 0.0
C948 C 0.15631 0.21163 0.64747 0.0
C949 C 0.13085 0.15726 0.59596 0.0
C950 C 0.12549 0.11711 0.57593 0.0
C951 C 0.15323 0.17285 0.62643 0.0
C952 C 0.14457 0.09365 0.58602 0.0
C953 C 0.16781 0.10948 0.61581 0.0
H954 H 0.94508 0.28205 0.62161 0.0
H955 H 0.9753 0.23178 0.70239 0.0
H956 H 0.96076 0.16373 0.66331 0.0
H957 H 0.94213 0.11992 0.60596 0.0
H958 H 0.92205 0.17238 0.52131 0.0
H959 H 0.92716 0.23759 0.56274 0.0
C960 C 0.94961 0.25658 0.63007 0.0
C961 C 0.96172 0.26178 0.66442 0.0
C962 C 0.94121 0.21759 0.60744 0.0
C963 C 0.96655 0.22834 0.6757 0.0
C964 C 0.95761 0.18936 0.6537 0.0
C965 C 0.93715 0.14502 0.59715 0.0
C966 C 0.93055 0.14138 0.56134 0.0
C967 C 0.94455 0.18356 0.61975 0.0
C968 C 0.92574 0.17434 0.54933 0.0
C969 C 0.92993 0.21194 0.57265 0.0
H970 H 0.80823 0.87089 0.68959 0.0
H971 H 0.91034 0.84537 0.70723 0.0
H972 H 0.95557 0.89303 0.66443 0.0
H973 H 0.96541 0.93874 0.61859 0.0
H974 H 0.86174 0.96017 0.59857 0.0
H975 H 0.8187 0.91821 0.64543 0.0
C976 C 0.84048 0.87605 0.68437 0.0
C977 C 0.85557 0.85443 0.70199 0.0
C978 C 0.86631 0.90272 0.65877 0.0
C979 C 0.89762 0.86177 0.69469 0.0
C980 C 0.92362 0.88884 0.6698 0.0
C981 C 0.93347 0.9341 0.62425 0.0
C982 C 0.91713 0.95221 0.60415 0.0
C983 C 0.90818 0.90895 0.65112 0.0
C984 C 0.87558 0.94654 0.613 0.0
C985 C 0.85064 0.92236 0.63994 0.0
H986 H 0.29944 0.1379 0.18885 0.0
H987 H 0.40946 0.2552 0.20328 0.0
H988 H 0.44933 0.22364 0.15967 0.0
H989 H 0.45366 0.16375 0.11652 0.0
H990 H 0.34431 0.04653 0.09893 0.0
H991 H 0.30372 0.07725 0.14379 0.0
C992 C 0.33212 0.15653 0.18241 0.0
C993 C 0.3514 0.19876 0.20023 0.0
C994 C 0.35512 0.13829 0.15635 0.0
C995 C 0.39383 0.22228 0.19121 0.0
C996 C 0.41672 0.20439 0.16579 0.0
C997 C 0.42096 0.14462 0.1224 0.0
C998 C 0.40237 0.10261 0.10414 0.0
C999 C 0.39779 0.16247 0.14819 0.0
C1000 C 0.35975 0.07883 0.1124 0.0
C1001 C 0.33644 0.09643 0.13816 0.0
H1002 H 0.84187 0.29296 0.15352 0.0
H1003 H 0.85547 0.3929 0.2435 0.0
H1004 H 0.89902 0.44697 0.20451 0.0
H1005 H 0.93263 0.46555 0.14405 0.0
H1006 H 0.92532 0.36424 0.05671 0.0
H1007 H 0.88144 0.31053 0.09582 0.0
C1008 C 0.85525 0.32643 0.16497 0.0
C1009 C 0.84553 0.33873 0.20149 0.0
C1010 C 0.88194 0.35695 0.14291 0.0
C1011 C 0.86197 0.3825 0.2154 0.0
C1012 C 0.88725 0.4134 0.1932 0.0
C1013 C 0.92213 0.43163 0.13402 0.0
C1014 C 0.93228 0.41852 0.09783 0.0
C1015 C 0.89748 0.40097 0.15688 0.0
C1016 C 0.91828 0.37473 0.08469 0.0
C1017 C 0.89296 0.34415 0.10694 0.0
H1018 H 0.59852 0.82309 0.15691 0.0
H1019 H 0.69411 0.94927 0.18239 0.0
H1020 H 0.66826 0.97761 0.1425 0.0
H1021 H 0.62091 0.96573 0.09856 0.0
H1022 H 0.52858 0.83841 0.06866 0.0
H1023 H 0.55144 0.81101 0.11138 0.0
C1024 C 0.61345 0.85677 0.15366 0.0
C1025 C 0.64806 0.88425 0.17235 0.0
C1026 C 0.59902 0.87252 0.13003 0.0
C1027 C 0.66754 0.92772 0.16801 0.0
C1028 C 0.65268 0.94386 0.14538 0.0
C1029 C 0.60507 0.93208 0.10185 0.0
C1030 C 0.57288 0.90423 0.08045 0.0
C1031 C 0.61865 0.91648 0.12609 0.0
C1032 C 0.55301 0.86073 0.08507 0.0
C1033 C 0.56609 0.84501 0.10953 0.0
H1034 H 0.18128 0.62793 0.20642 0.0
H1035 H 0.289 0.69919 0.14022 0.0
H1036 H 0.25158 0.66497 0.08642 0.0
H1037 H 0.18318 0.62539 0.06057 0.0
H1038 H 0.0773 0.55197 0.12773 0.0
H1039 H 0.11871 0.57619 0.17874 0.0
C1040 C 0.19699 0.63459 0.18 0.0
C1041 C 0.23748 0.6663 0.17715 0.0
C1042 C 0.17512 0.61524 0.14949 0.0
C1043 C 0.25785 0.67464 0.14294 0.0
C1044 C 0.23618 0.65556 0.11224 0.0
C1045 C 0.16972 0.61394 0.08615 0.0
C1046 C 0.12725 0.58744 0.09074 0.0
C1047 C 0.19404 0.62758 0.11547 0.0
C1048 C 0.10994 0.57254 0.12384 0.0
C1049 C 0.13355 0.58642 0.153 0.0
H1050 H 0.31309 0.78604 0.86844 0.0
H1051 H 0.3474 0.8941 0.81262 0.0
H1052 H 0.38933 0.94189 0.86132 0.0
H1053 H 0.42395 0.94992 0.91532 0.0
H1054 H 0.38894 0.83999 0.96933 0.0
H1055 H 0.33822 0.79604 0.92656 0.0
C1056 C 0.32924 0.82018 0.86727 0.0
C1057 C 0.328 0.83662 0.83694 0.0
C1058 C 0.35288 0.84702 0.89517 0.0
C1059 C 0.34833 0.8809 0.83576 0.0
C1060 C 0.37228 0.90808 0.86353 0.0
C1061 C 0.40407 0.91678 0.91842 0.0
C1062 C 0.41026 0.898 0.94521 0.0
C1063 C 0.37583 0.89122 0.89285 0.0
C1064 C 0.38473 0.85495 0.9488 0.0
C1065 C 0.35603 0.82973 0.92417 0.0
H1066 H 0.17092 0.28182 0.84013 0.0
H1067 H 0.27797 0.39905 0.82408 0.0
H1068 H 0.24678 0.43973 0.8688 0.0
H1069 H 0.18835 0.44208 0.91295 0.0
H1070 H 0.08237 0.32349 0.92864 0.0
H1071 H 0.11435 0.28365 0.88475 0.0
C1072 C 0.18769 0.31618 0.84667 0.0
C1073 C 0.22674 0.33714 0.82865 0.0
C1074 C 0.1698 0.33936 0.87276 0.0
C1075 C 0.24761 0.38194 0.83715 0.0
C1076 C 0.2299 0.40529 0.86298 0.0
C1077 C 0.1724 0.40754 0.90689 0.0
C1078 C 0.13277 0.38612 0.92413 0.0
C1079 C 0.1909 0.38438 0.88104 0.0
C1080 C 0.11263 0.34119 0.91571 0.0
C1081 C 0.1309 0.31815 0.89052 0.0
H1082 H 0.73255 0.1902 0.85764 0.0
H1083 H 0.63661 0.1519 0.78739 0.0
H1084 H 0.58722 0.10389 0.82939 0.0
H1085 H 0.57248 0.07183 0.88681 0.0
H1086 H 0.66986 0.1204 0.95762 0.0
H1087 H 0.71698 0.16656 0.9152 0.0
C1088 C 0.70102 0.17115 0.851 0.0
C1089 C 0.68859 0.17441 0.81913 0.0
C1090 C 0.6727 0.14602 0.87595 0.0
C1091 C 0.64712 0.15 0.81176 0.0
C1092 C 0.61882 0.12278 0.8359 0.0
C1093 C 0.6037 0.09325 0.8931 0.0
C1094 C 0.61785 0.09201 0.92507 0.0
C1095 C 0.63123 0.12061 0.86836 0.0
C1096 C 0.65839 0.12012 0.93296 0.0
C1097 C 0.68556 0.14643 0.90864 0.0
H1098 H 0.99617 0.71302 0.86569 0.0
H1099 H 0.87378 0.61403 0.85239 0.0
H1100 H 0.88408 0.57365 0.89304 0.0
H1101 H 0.92723 0.56769 0.93356 0.0
H1102 H 0.04801 0.66951 0.9502 0.0
H1103 H 0.03835 0.70812 0.90795 0.0
C1104 C 0.97188 0.68255 0.87174 0.0
C1105 C 0.93436 0.66628 0.85607 0.0
C1106 C 0.97765 0.66015 0.89583 0.0
C1107 C 0.90286 0.62707 0.86427 0.0
C1108 C 0.90882 0.604 0.88739 0.0
C1109 C 0.9519 0.59793 0.92751 0.0
C1110 C 0.9885 0.61532 0.94497 0.0
C1111 C 0.94609 0.62028 0.90338 0.0
C1112 C 1.01964 0.65503 0.9371 0.0
C1113 C 1.01415 0.67726 0.91297 0.0
H1114 H 0.07655 0.30419 0.16795 0.0
H1115 H 0.18739 0.4168 0.19219 0.0
H1116 H 0.17324 0.45374 0.15077 0.0
H1117 H 0.12974 0.45305 0.1066 0.0
H1118 H 1.02053 0.33848 0.08067 0.0
H1119 H 0.03379 0.30321 0.12338 0.0
C1120 C 0.0975 0.33681 0.16401 0.0
C1121 C 0.13291 0.35791 0.18282 0.0
C1122 C 0.08935 0.3575 0.13995 0.0
C1123 C 0.16001 0.40009 0.17775 0.0
C1124 C 0.15185 0.42114 0.15418 0.0
C1125 C 0.10848 0.42059 0.11065 0.0
C1126 C 0.07369 0.3988 0.09076 0.0
C1127 C 0.11658 0.40012 0.13506 0.0
C1128 C 0.04696 0.35647 0.0961 0.0
C1129 C 0.05471 0.33605 0.12032 0.0
H1130 H 0.14988 0.62781 0.80839 0.0
H1131 H 0.25684 0.71609 0.86258 0.0
H1132 H 0.22842 0.6805 0.91629 0.0
H1133 H 0.17299 0.62338 0.94768 0.0
H1134 H 0.06092 0.54284 0.8973 0.0
H1135 H 0.09043 0.57695 0.84275 0.0
C1136 C 0.16671 0.63919 0.83209 0.0
C1137 C 0.20567 0.67392 0.8315 0.0
C1138 C 0.14888 0.62029 0.86366 0.0
C1139 C 0.22708 0.689 0.86239 0.0
C1140 C 0.21071 0.66881 0.89313 0.0
C1141 C 0.15496 0.61373 0.92485 0.0
C1142 C 0.11505 0.5805 0.92626 0.0
C1143 C 0.17162 0.63439 0.89408 0.0
C1144 C 0.09168 0.56849 0.89677 0.0
C1145 C 0.10867 0.58773 0.86552 0.0
H1146 H 0.35367 0.12243 0.8825 0.0
H1147 H 0.45715 0.14701 0.8016 0.0
H1148 H 0.49617 0.13415 0.8414 0.0
H1149 H 0.4993 0.11152 0.89882 0.0
H1150 H 0.39447 0.08736 0.97826 0.0
H1151 H 0.35841 0.10561 0.94003 0.0
C1152 C 0.38507 0.12595 0.8737 0.0
C1153 C 0.40212 0.1355 0.8389 0.0
C1154 C 0.40734 0.11855 0.89667 0.0
C1155 C 0.44275 0.139 0.828 0.0
C1156 C 0.46527 0.13186 0.85085 0.0
C1157 C 0.46889 0.11099 0.90778 0.0
C1158 C 0.44945 0.09795 0.94121 0.0
C1159 C 0.44768 0.12094 0.88517 0.0
C1160 C 0.40989 0.09703 0.95248 0.0
C1161 C 0.38917 0.1074 0.93064 0.0
H1162 H 0.81698 0.29234 0.87769 0.0
H1163 H 0.84007 0.40498 0.83187 0.0
H1164 H 0.88613 0.45017 0.87844 0.0
H1165 H 0.92429 0.45629 0.92969 0.0
H1166 H 0.89419 0.3429 0.9776 0.0
H1167 H 0.84513 0.29975 0.9336 0.0
C1168 C 0.83193 0.3268 0.8779 0.0
C1169 C 0.82552 0.34516 0.85113 0.0
C1170 C 0.85683 0.35256 0.90544 0.0
C1171 C 0.84472 0.38997 0.8521 0.0
C1172 C 0.87089 0.41585 0.87883 0.0
C1173 C 0.90594 0.42246 0.9312 0.0
C1174 C 0.9135 0.40271 0.95647 0.0
C1175 C 0.87756 0.39743 0.90551 0.0
C1176 C 0.88942 0.35878 0.95808 0.0
C1177 C 0.86167 0.33391 0.93268 0.0
H1178 H 0.75803 0.8692 0.84791 0.0
H1179 H 0.65301 0.77108 0.79614 0.0
H1180 H 0.60707 0.79915 0.83546 0.0
H1181 H 0.596 0.85035 0.8856 0.0
H1182 H 0.70072 0.94913 0.93751 0.0
H1183 H 0.74707 0.92161 0.89774 0.0
C1184 C 0.72509 0.85374 0.84551 0.0
C1185 C 0.70916 0.81779 0.81923 0.0
C1186 C 0.69859 0.87008 0.86841 0.0
C1187 C 0.66636 0.79893 0.81587 0.0
C1188 C 0.63991 0.81482 0.83855 0.0
C1189 C 0.62895 0.86596 0.88829 0.0
C1190 C 0.64461 0.9018 0.91476 0.0
C1191 C 0.6556 0.85021 0.86507 0.0
C1192 C 0.68759 0.92162 0.91744 0.0
C1193 C 0.71422 0.90585 0.89468 0.0
H1194 H 0.80037 0.6434 0.184 0.0
H1195 H 0.90007 0.76958 0.18787 0.0
H1196 H 0.94524 0.74015 0.14874 0.0
H1197 H 0.95717 0.67837 0.11378 0.0
H1198 H 0.85705 0.55236 0.10854 0.0
H1199 H 0.81192 0.58173 0.14801 0.0
C1200 C 0.83203 0.66447 0.17639 0.0
C1201 C 0.84666 0.70877 0.18913 0.0
C1202 C 0.85804 0.64725 0.15369 0.0
C1203 C 0.8877 0.73549 0.17846 0.0
C1204 C 0.91373 0.7186 0.15616 0.0
C1205 C 0.92553 0.65722 0.12133 0.0
C1206 C 0.91081 0.61302 0.10812 0.0
C1207 C 0.89936 0.67449 0.1437 0.0
C1208 C 0.86943 0.58643 0.11808 0.0
C1209 C 0.84349 0.60324 0.14074 0.0
H1210 H 0.37577 0.88193 0.21238 0.0
H1211 H 0.35569 0.75971 0.14831 0.0
H1212 H 0.39564 0.79555 0.09659 0.0
H1213 H 0.42975 0.86203 0.06778 0.0
H1214 H 0.44687 0.9834 0.13229 0.0
H1215 H 0.41518 0.94793 0.18562 0.0
C1216 C 0.38024 0.86322 0.18707 0.0
C1217 C 0.3617 0.81833 0.18372 0.0
C1218 C 0.40286 0.88404 0.15752 0.0
C1219 C 0.36893 0.79437 0.15126 0.0
C1220 C 0.39175 0.81486 0.12168 0.0
C1221 C 0.4273 0.88054 0.09376 0.0
C1222 C 0.44073 0.92513 0.09646 0.0
C1223 C 0.40792 0.85969 0.12419 0.0
C1224 C 0.43697 0.94902 0.12993 0.0
C1225 C 0.41868 0.92876 0.16031 0.0
H1226 H 0.70313 0.12129 0.17273 0.0
H1227 H 0.72942 0.25058 0.15846 0.0
H1228 H 0.69198 0.22411 0.10536 0.0
H1229 H 0.64386 0.16447 0.06778 0.0
H1230 H 0.6164 0.03472 0.08082 0.0
H1231 H 0.66271 0.06098 0.12846 0.0
C1232 C 0.70121 0.14355 0.15758 0.0
C1233 C 0.71796 0.18769 0.17027 0.0
C1234 C 0.6792 0.12808 0.12674 0.0
C1235 C 0.71572 0.21626 0.15003 0.0
C1236 C 0.69444 0.20125 0.11944 0.0
C1237 C 0.64868 0.14194 0.0805 0.0
C1238 C 0.62627 0.09778 0.071 0.0
C1239 C 0.67475 0.15722 0.10833 0.0
C1240 C 0.63329 0.06898 0.08749 0.0
C1241 C 0.65952 0.08397 0.11509 0.0
H1242 H 0.74796 0.66299 0.83904 0.0
H1243 H 0.64196 0.67582 0.81322 0.0
H1244 H 0.59797 0.62999 0.85835 0.0
H1245 H 0.59022 0.58731 0.90668 0.0
H1246 H 0.6986 0.5785 0.93231 0.0
H1247 H 0.7404 0.621 0.88569 0.0
C1248 C 0.71523 0.65582 0.84305 0.0
C1249 C 0.69854 0.67309 0.82258 0.0
C1250 C 0.69028 0.62996 0.86927 0.0
C1251 C 0.65586 0.66303 0.82841 0.0
C1252 C 0.63063 0.63683 0.85435 0.0
C1253 C 0.62291 0.59484 0.90225 0.0
C1254 C 0.64086 0.5799 0.92382 0.0
C1255 C 0.64755 0.62028 0.87523 0.0
C1256 C 0.68348 0.58961 0.9168 0.0
C1257 C 0.70772 0.61407 0.88995 0.0
H1258 H 0.41882 0.64753 0.85594 0.0
H1259 H 0.34557 0.51349 0.82182 0.0
H1260 H 0.39569 0.49455 0.84163 0.0
H1261 H 0.45304 0.51509 0.87843 0.0
H1262 H 0.52525 0.64875 0.91369 0.0
H1263 H 0.48447 0.66883 0.88154 0.0
C1264 C 0.41422 0.61422 0.8519 0.0
C1265 C 0.37763 0.58194 0.83831 0.0
C1266 C 0.44323 0.60343 0.86346 0.0
C1267 C 0.37253 0.53897 0.8334 0.0
C1268 C 0.40142 0.52808 0.84447 0.0
C1269 C 0.46081 0.54868 0.87801 0.0
C1270 C 0.49138 0.58027 0.89929 0.0
C1271 C 0.43589 0.55989 0.86097 0.0
C1272 C 0.50171 0.62368 0.89784 0.0
C1273 C 0.47783 0.63518 0.87996 0.0
H1274 H 0.36506 0.28686 0.84173 0.0
H1275 H 0.35887 0.40177 0.82248 0.0
H1276 H 0.39585 0.44161 0.87512 0.0
H1277 H 0.43207 0.44463 0.92575 0.0
H1278 H 0.43174 0.32752 0.94761 0.0
H1279 H 0.39386 0.28783 0.89569 0.0
C1280 C 0.37131 0.32043 0.84902 0.0
C1281 C 0.35921 0.34098 0.82772 0.0
C1282 C 0.3912 0.34298 0.88017 0.0
C1283 C 0.36822 0.38492 0.83784 0.0
C1284 C 0.38918 0.40785 0.86818 0.0
C1285 C 0.42317 0.41034 0.91954 0.0
C1286 C 0.43528 0.38944 0.94057 0.0
C1287 C 0.401 0.38728 0.88951 0.0
C1288 C 0.42309 0.34478 0.93205 0.0
C1289 C 0.40162 0.32191 0.90208 0.0
H1290 H 0.743 0.37486 0.99987 0.0
H1291 H 0.79319 0.44654 0.91082 0.0
H1292 H 0.74785 0.48376 0.93091 0.0
H1293 H 0.67558 0.46908 0.95572 0.0
H1294 H 0.61778 0.38288 0.03492 0.0
H1295 H 0.6826 0.37709 0.03682 0.0
C1296 C 0.74544 0.40002 0.98564 0.0
C1297 C 0.76687 0.40403 0.95132 0.0
C1298 C 0.71544 0.41649 0.99471 0.0
C1299 C 0.77378 0.44024 0.93581 0.0
C1300 C 0.74701 0.46073 0.94677 0.0
C1301 C 0.67786 0.45022 0.97413 0.0
C1302 C 0.64215 0.4247 0.9938 0.0
C1303 C 0.71438 0.4448 0.97322 0.0
C1304 C 0.64492 0.40117 0.01841 0.0
C1305 C 0.68197 0.39819 0.01969 0.0
H1306 H 0.63602 0.36291 0.18088 0.0
H1307 H 0.71276 0.49655 0.2129 0.0
H1308 H 0.67343 0.51751 0.18024 0.0
H1309 H 0.62316 0.49803 0.13642 0.0
H1310 H 0.54451 0.36485 0.10611 0.0
H1311 H 0.57735 0.3439 0.14567 0.0
C1312 C 0.64364 0.39664 0.18158 0.0
C1313 C 0.67841 0.42794 0.19858 0.0
C1314 C 0.62037 0.40871 0.16309 0.0
C1315 C 0.68736 0.47153 0.19898 0.0
C1316 C 0.66458 0.48368 0.18055 0.0
C1317 C 0.61239 0.46446 0.1392 0.0
C1318 C 0.58176 0.43308 0.11789 0.0
C1319 C 0.63192 0.45255 0.16152 0.0
C1320 C 0.56794 0.38977 0.12215 0.0
C1321 C 0.58712 0.37769 0.14448 0.0
H1322 H 0.7165 0.64786 0.17309 0.0
H1323 H 0.6792 0.75292 0.19792 0.0
H1324 H 0.63903 0.72552 0.14599 0.0
H1325 H 0.61167 0.66971 0.09494 0.0
H1326 H 0.64436 0.56151 0.07393 0.0
H1327 H 0.68866 0.59185 0.12249 0.0
C1328 C 0.69959 0.66476 0.16711 0.0
C1329 C 0.70166 0.70293 0.18897 0.0
C1330 C 0.67556 0.64816 0.13769 0.0
C1331 C 0.6793 0.72424 0.18097 0.0
C1332 C 0.65594 0.70834 0.15139 0.0
C1333 C 0.62899 0.65305 0.10053 0.0
C1334 C 0.62472 0.61334 0.08006 0.0
C1335 C 0.65371 0.67021 0.12958 0.0
C1336 C 0.6469 0.59203 0.08851 0.0
C1337 C 0.67232 0.60939 0.11666 0.0
H1338 H 0.3959 0.67984 0.16894 0.0
H1339 H 0.47468 0.79058 0.11672 0.0
H1340 H 0.4676 0.74487 0.05853 0.0
H1341 H 0.45211 0.67226 0.02641 0.0
H1342 H 0.37659 0.56251 0.08046 0.0
H1343 H 0.36561 0.60954 0.1337 0.0
C1344 C 0.41026 0.69458 0.14485 0.0
C1345 C 0.43712 0.73846 0.14728 0.0
C1346 C 0.40589 0.66821 0.11179 0.0
C1347 C 0.45554 0.75658 0.11562 0.0
C1348 C 0.45097 0.73056 0.08238 0.0
C1349 C 0.43167 0.6587 0.04934 0.0
C1350 C 0.41629 0.61435 0.05026 0.0
C1351 C 0.42816 0.68604 0.08056 0.0
C1352 C 0.38909 0.59664 0.07942 0.0
C1353 C 0.38359 0.62362 0.11011 0.0
H1354 H 0.31778 0.35122 0.17738 0.0
H1355 H 0.42477 0.34299 0.20646 0.0
H1356 H 0.46834 0.38633 0.15996 0.0
H1357 H 0.476 0.42622 0.10999 0.0
H1358 H 0.36758 0.43243 0.08148 0.0
H1359 H 0.32535 0.39088 0.12865 0.0
C1360 C 0.35063 0.3589 0.17372 0.0
C1361 C 0.36774 0.34381 0.19569 0.0
C1362 C 0.37557 0.38371 0.14679 0.0
C1363 C 0.41054 0.35429 0.19025 0.0
C1364 C 0.43559 0.37907 0.16351 0.0
C1365 C 0.44319 0.41842 0.11401 0.0
C1366 C 0.42537 0.43248 0.09167 0.0
C1367 C 0.41846 0.39392 0.14145 0.0
C1368 C 0.3826 0.4222 0.09785 0.0
C1369 C 0.35813 0.39826 0.12496 0.0
H1370 H 0.80667 0.64057 0.68889 0.0
H1371 H 0.9037 0.76805 0.69066 0.0
H1372 H 0.94676 0.74108 0.64597 0.0
H1373 H 0.95702 0.6814 0.60569 0.0
H1374 H 0.85882 0.5542 0.60156 0.0
H1375 H 0.81604 0.581 0.64692 0.0
C1376 C 0.83689 0.66253 0.67898 0.0
C1377 C 0.8515 0.70644 0.69278 0.0
C1378 C 0.86142 0.64684 0.65264 0.0
C1379 C 0.89148 0.73414 0.68053 0.0
C1380 C 0.91616 0.71875 0.65481 0.0
C1381 C 0.92624 0.65947 0.61461 0.0
C1382 C 0.91142 0.61572 0.60006 0.0
C1383 C 0.90147 0.67517 0.64056 0.0
C1384 C 0.87122 0.58802 0.61202 0.0
C1385 C 0.84666 0.60331 0.63812 0.0
H1386 H 0.3359 0.87758 0.71066 0.0
H1387 H 0.36778 0.77322 0.65929 0.0
H1388 H 0.41309 0.81627 0.61322 0.0
H1389 H 0.43974 0.88262 0.5847 0.0
H1390 H 0.40064 0.98332 0.63312 0.0
H1391 H 0.36173 0.94297 0.68244 0.0
C1392 C 0.35256 0.86429 0.68917 0.0
C1393 C 0.34876 0.82243 0.68841 0.0
C1394 C 0.37721 0.88875 0.662 0.0
C1395 C 0.37122 0.80581 0.661 0.0
C1396 C 0.39676 0.83033 0.63437 0.0
C1397 C 0.42316 0.89583 0.60635 0.0
C1398 C 0.42313 0.93591 0.60529 0.0
C1399 C 0.39962 0.87174 0.63426 0.0
C1400 C 0.40099 0.95245 0.63325 0.0
C1401 C 0.37873 0.92942 0.6615 0.0
H1402 H 0.20148 0.39843 0.628 0.0
H1403 H 0.11093 0.39662 0.71815 0.0
H1404 H 0.06874 0.40674 0.67988 0.0
H1405 H 0.05842 0.4185 0.62027 0.0
H1406 H 0.14975 0.41852 0.5314 0.0
H1407 H 0.18914 0.40401 0.56916 0.0
C1408 C 0.17191 0.39875 0.6393 0.0
C1409 C 0.15984 0.39691 0.67614 0.0
C1410 C 0.14727 0.40352 0.61704 0.0
C1411 C 0.1217 0.39873 0.69006 0.0
C1412 C 0.09712 0.40397 0.66805 0.0
C1413 C 0.08654 0.41453 0.60927 0.0
C1414 C 0.10137 0.41966 0.57324 0.0
C1415 C 0.10972 0.40683 0.63146 0.0
C1416 C 0.13797 0.41483 0.55918 0.0
C1417 C 0.16058 0.40665 0.58073 0.0
H1418 H 0.70651 0.13848 0.68542 0.0
H1419 H 0.73439 0.2605 0.65324 0.0
H1420 H 0.70131 0.22446 0.59799 0.0
H1421 H 0.65673 0.15947 0.5632 0.0
H1422 H 0.61993 0.0366 0.59756 0.0
H1423 H 0.66538 0.07121 0.64647 0.0
C1424 C 0.70588 0.15693 0.66587 0.0
C1425 C 0.72262 0.20209 0.67336 0.0
C1426 C 0.68519 0.13576 0.63453 0.0
C1427 C 0.7214 0.22578 0.64811 0.0
C1428 C 0.70255 0.20518 0.61651 0.0
C1429 C 0.6592 0.13996 0.58089 0.0
C1430 C 0.63446 0.0955 0.57688 0.0
C1431 C 0.68322 0.16031 0.61002 0.0
C1432 C 0.63863 0.07082 0.59983 0.0
C1433 C 0.66419 0.09076 0.62819 0.0
H1434 H 0.84401 0.37429 0.34385 0.0
H1435 H 0.82057 0.2486 0.36552 0.0
H1436 H 0.85573 0.27997 0.41994 0.0
H1437 H 0.90052 0.34309 0.45703 0.0
H1438 H 0.9252 0.46925 0.43577 0.0
H1439 H 0.88043 0.43773 0.38687 0.0
C1440 C 0.84573 0.3538 0.36099 0.0
C1441 C 0.82992 0.30922 0.3505 0.0
C1442 C 0.86603 0.3721 0.39251 0.0
C1443 C 0.83284 0.28306 0.37274 0.0
C1444 C 0.85281 0.30093 0.40401 0.0
C1445 C 0.89529 0.36371 0.44229 0.0
C1446 C 0.91675 0.40837 0.44962 0.0
C1447 C 0.87056 0.34543 0.41357 0.0
C1448 C 0.90915 0.4347 0.43067 0.0
C1449 C 0.88393 0.41669 0.40233 0.0
H1450 H 0.66024 0.77218 0.33939 0.0
H1451 H 0.77241 0.88804 0.33902 0.0
H1452 H 0.73797 0.92731 0.38114 0.0
H1453 H 0.67534 0.92987 0.41728 0.0
H1454 H 0.56212 0.81491 0.41568 0.0
H1455 H 0.59737 0.77478 0.37571 0.0
C1456 C 0.67722 0.80589 0.34885 0.0
C1457 C 0.71901 0.8269 0.33604 0.0
C1458 C 0.65686 0.82881 0.37274 0.0
C1459 C 0.74025 0.87086 0.34826 0.0
C1460 C 0.72054 0.8935 0.37243 0.0
C1461 C 0.65833 0.89605 0.40825 0.0
C1462 C 0.61593 0.87577 0.41965 0.0
C1463 C 0.67872 0.87299 0.38467 0.0
C1464 C 0.59462 0.83177 0.40734 0.0
C1465 C 0.61482 0.80858 0.38445 0.0
H1466 H 0.1821 0.72336 0.36479 0.0
H1467 H 0.19271 0.62867 0.27739 0.0
H1468 H 0.15088 0.57136 0.31393 0.0
H1469 H 0.1176 0.54948 0.37319 0.0
H1470 H 0.10095 0.64326 0.45856 0.0
H1471 H 0.13791 0.6998 0.42032 0.0
C1472 C 0.17428 0.69003 0.35364 0.0
C1473 C 0.1905 0.67985 0.31883 0.0
C1474 C 0.14928 0.65733 0.37446 0.0
C1475 C 0.18036 0.63685 0.30427 0.0
C1476 C 0.15662 0.60422 0.32516 0.0
C1477 C 0.12126 0.58215 0.38296 0.0
C1478 C 0.1068 0.59248 0.41845 0.0
C1479 C 0.14185 0.6142 0.36062 0.0
C1480 C 0.11157 0.63475 0.43111 0.0
C1481 C 0.13299 0.66706 0.40939 0.0
H1482 H 0.45359 0.14424 0.32931 0.0
H1483 H 0.49136 0.26726 0.39595 0.0
H1484 H 0.50983 0.23878 0.44094 0.0
H1485 H 0.51194 0.17801 0.46266 0.0
H1486 H 0.46959 0.05366 0.39834 0.0
H1487 H 0.45695 0.08354 0.35065 0.0
C1488 C 0.46618 0.16481 0.35358 0.0
C1489 C 0.47095 0.20771 0.35946 0.0
C1490 C 0.47596 0.14797 0.3796 0.0
C1491 C 0.48696 0.23401 0.3911 0.0
C1492 C 0.49762 0.21778 0.41674 0.0
C1493 C 0.50056 0.1577 0.43791 0.0
C1494 C 0.49222 0.11395 0.43358 0.0
C1495 C 0.49175 0.17471 0.41148 0.0
C1496 C 0.47656 0.08756 0.40191 0.0
C1497 C 0.46915 0.10459 0.37483 0.0
H1498 H 0.53711 0.76133 0.63611 0.0
H1499 H 0.66987 0.82819 0.61948 0.0
H1500 H 0.6621 0.88537 0.59779 0.0
H1501 H 0.61783 0.91202 0.57655 0.0
H1502 H 0.48539 0.84095 0.58723 0.0
H1503 H 0.49291 0.78955 0.61692 0.0
C1504 C 0.56448 0.78821 0.6276 0.0
C1505 C 0.60406 0.78978 0.62919 0.0
C1506 C 0.55982 0.8203 0.61382 0.0
C1507 C 0.63898 0.82587 0.61901 0.0
C1508 C 0.63457 0.85858 0.60626 0.0
C1509 C 0.59049 0.886 0.58642 0.0
C1510 C 0.55096 0.88051 0.57971 0.0
C1511 C 0.59515 0.85563 0.60275 0.0
C1512 C 0.51608 0.84617 0.5922 0.0
C1513 C 0.52043 0.81657 0.60921 0.0
H1514 H 0.64962 0.14724 0.31803 0.0
H1515 H 0.76917 0.17726 0.35122 0.0
H1516 H 0.73684 0.13714 0.40109 0.0
H1517 H 0.67526 0.09436 0.43631 0.0
H1518 H 0.55459 0.06744 0.40771 0.0
H1519 H 0.58642 0.10738 0.35647 0.0
C1520 C 0.66841 0.14637 0.33696 0.0
C1521 C 0.71177 0.16692 0.33139 0.0
C1522 C 0.64942 0.12403 0.36672 0.0
C1523 C 0.73575 0.16275 0.35492 0.0
C1524 C 0.7173 0.13973 0.38367 0.0
C1525 C 0.65585 0.09733 0.41897 0.0
C1526 C 0.61268 0.07782 0.42571 0.0
C1527 C 0.67427 0.12051 0.38997 0.0
C1528 C 0.58797 0.08241 0.40321 0.0
C1529 C 0.60618 0.105 0.37376 0.0
H1530 H 0.90844 0.58689 0.32159 0.0
H1531 H 0.91975 0.7112 0.37653 0.0
H1532 H 0.95704 0.70546 0.42222 0.0
H1533 H 0.98018 0.66155 0.44969 0.0
H1534 H 0.96344 0.53513 0.39634 0.0
H1535 H 0.93562 0.54557 0.34643 0.0
C1536 C 0.91964 0.61304 0.34324 0.0
C1537 C 0.91113 0.6493 0.34576 0.0
C1538 C 0.94021 0.6091 0.36969 0.0
C1539 C 0.9254 0.68268 0.37427 0.0
C1540 C 0.94687 0.67948 0.4003 0.0
C1541 C 0.97143 0.63688 0.42663 0.0
C1542 C 0.97405 0.59775 0.42643 0.0
C1543 C 0.95366 0.6424 0.39873 0.0
C1544 C 0.96184 0.56556 0.39686 0.0
C1545 C 0.94567 0.57141 0.36849 0.0
H1546 H 0.35612 0.89707 0.32968 0.0
H1547 H 0.26337 0.792 0.38095 0.0
H1548 H 0.29887 0.81992 0.43609 0.0
H1549 H 0.36378 0.8676 0.4651 0.0
H1550 H 0.45145 0.97736 0.41598 0.0
H1551 H 0.41022 0.95502 0.36495 0.0
C1552 C 0.3428 0.88138 0.35349 0.0
C1553 C 0.30769 0.84226 0.35128 0.0
C1554 C 0.3629 0.89818 0.38526 0.0
C1555 C 0.29044 0.82221 0.38218 0.0
C1556 C 0.31103 0.83792 0.41355 0.0
C1557 C 0.37297 0.8873 0.44378 0.0
C1558 C 0.41079 0.92383 0.44407 0.0
C1559 C 0.34842 0.87483 0.41479 0.0
C1560 C 0.42238 0.94923 0.4164 0.0
C1561 C 0.39898 0.93628 0.38703 0.0
H1562 H 0.17436 0.28285 0.33791 0.0
H1563 H 0.28644 0.39644 0.32515 0.0
H1564 H 0.2545 0.44021 0.36503 0.0
H1565 H 0.19373 0.44636 0.40401 0.0
H1566 H 0.08098 0.33171 0.41261 0.0
H1567 H 0.11371 0.2892 0.37358 0.0
C1568 C 0.19179 0.31725 0.34349 0.0
C1569 C 0.23308 0.33601 0.32872 0.0
C1570 C 0.17283 0.34244 0.36576 0.0
C1571 C 0.25494 0.38075 0.33659 0.0
C1572 C 0.23651 0.40596 0.35928 0.0
C1573 C 0.17627 0.41214 0.39729 0.0
C1574 C 0.13468 0.39274 0.41173 0.0
C1575 C 0.19535 0.3872 0.37418 0.0
C1576 C 0.11286 0.34811 0.40228 0.0
C1577 C 0.13161 0.32342 0.37984 0.0
H1578 H 0.394 0.24884 0.67964 0.0
H1579 H 0.27781 0.1378 0.68397 0.0
H1580 H 0.30817 0.09456 0.64185 0.0
H1581 H 0.36833 0.08744 0.60431 0.0
H1582 H 0.48469 0.19858 0.60065 0.0
H1583 H 0.45362 0.24216 0.64117 0.0
C1584 C 0.37526 0.21529 0.67113 0.0
C1585 C 0.33371 0.19673 0.68517 0.0
C1586 C 0.39299 0.19033 0.64683 0.0
C1587 C 0.31 0.15301 0.67394 0.0
C1588 C 0.32731 0.12815 0.6497 0.0
C1589 C 0.38687 0.1212 0.61226 0.0
C1590 C 0.42894 0.13936 0.59936 0.0
C1591 C 0.36889 0.14633 0.63608 0.0
C1592 C 0.45235 0.18333 0.6102 0.0
C1593 C 0.4346 0.20849 0.63344 0.0
H1594 H 0.87991 0.32363 0.67932 0.0
H1595 H 0.80023 0.39064 0.70965 0.0
H1596 H 0.84116 0.44081 0.66747 0.0
H1597 H 0.89696 0.46372 0.62024 0.0
H1598 H 0.97705 0.39754 0.58758 0.0
H1599 H 0.93885 0.34931 0.63269 0.0
C1600 C 0.87146 0.34918 0.67666 0.0
C1601 C 0.83679 0.35328 0.6978 0.0
C1602 C 0.89532 0.37813 0.65205 0.0
C1603 C 0.82677 0.38691 0.6942 0.0
C1604 C 0.85015 0.41557 0.66991 0.0
C1605 C 0.90641 0.4389 0.623 0.0
C1606 C 0.93964 0.43402 0.60018 0.0
C1607 C 0.88417 0.41125 0.64854 0.0
C1608 C 0.95173 0.40214 0.60474 0.0
C1609 C 0.92967 0.37437 0.63042 0.0
H1610 H 0.2447 0.71942 0.63599 0.0
H1611 H 0.19873 0.6097 0.69235 0.0
H1612 H 0.15833 0.56472 0.64268 0.0
H1613 H 0.12635 0.55992 0.58886 0.0
H1614 H 0.16561 0.67206 0.53685 0.0
H1615 H 0.21863 0.71257 0.57861 0.0
C1616 C 0.2265 0.68543 0.63698 0.0
C1617 C 0.22479 0.66792 0.66773 0.0
C1618 C 0.20173 0.66029 0.60915 0.0
C1619 C 0.2012 0.62386 0.66874 0.0
C1620 C 0.17762 0.5982 0.6405 0.0
C1621 C 0.14753 0.59277 0.58593 0.0
C1622 C 0.1422 0.61311 0.55994 0.0
C1623 C 0.17635 0.61647 0.61127 0.0
C1624 C 0.16926 0.65588 0.55673 0.0
C1625 C 0.19931 0.67909 0.58076 0.0
loop_
_geom_bond_atom_site_label_1
_geom_bond_atom_site_label_2
_geom_bond_distance
_geom_bond_site_symmetry_2
_ccdc_geom_bond_type
C0 C2 1.422 . S
C0 C4 1.415 . S
C0 N6 1.369 . S
C1 C2 1.421 . S
C1 C3 1.417 . S
C1 C13 1.422 . S
C2 C0 1.422 . S
C2 C1 1.421 . S
C2 N12 1.359 . S
C3 C1 1.417 . S
C3 C5 1.329 . S
C3 H22 0.930 . S
C4 C0 1.415 . S
C4 C5 1.437 . S
C4 C8 1.413 . S
C5 C3 1.329 . S
C5 C4 1.437 . S
C5 H27 0.929 . S
N6 C0 1.369 . S
N6 C7 1.338 . S
N6 Gd11 2.622 . S
C7 N6 1.338 . S
C7 C9 1.378 . S
C7 H19 0.929 . S
C8 C4 1.413 . S
C8 C9 1.348 . S
C8 H24 0.931 . S
C9 C7 1.378 . S
C9 C8 1.348 . S
C9 H25 0.930 . S
Gd10 N30 2.622 . S
Gd10 N37 2.570 . S
Gd10 O44 2.353 . S
Gd10 O45 2.468 . S
Gd10 O46 2.427 . S
Gd10 O48 2.388 . S
Gd10 O49 2.386 . S
Gd10 O53 2.307 . S
Gd10 C63 2.805 . S
Gd11 N6 2.622 . S
Gd11 N12 2.570 . S
Gd11 O43 2.386 . S
Gd11 O47 2.307 . S
Gd11 O50 2.353 . S
Gd11 O51 2.468 . S
Gd11 O52 2.427 . S
Gd11 O54 2.388 . S
Gd11 C75 2.805 . S
N12 C2 1.359 . S
N12 Gd11 2.570 . S
N12 C14 1.343 . S
C13 C1 1.422 . S
C13 C15 1.321 . S
C13 H21 0.931 . S
C14 N12 1.343 . S
C14 C15 1.390 . S
C14 H16 0.931 . S
C15 C13 1.321 . S
C15 C14 1.390 . S
C15 H17 0.930 . S
H16 C14 0.931 . S
H17 C15 0.930 . S
H18 C41 0.931 . S
H19 C7 0.929 . S
H20 C42 0.930 . S
H21 C13 0.931 . S
H22 C3 0.930 . S
H23 C32 0.929 . S
H24 C8 0.931 . S
H25 C9 0.930 . S
H26 C64 0.930 . S
H27 C5 0.929 . S
H28 C33 0.931 . S
H29 C34 0.930 . S
N30 Gd10 2.622 . S
N30 C31 1.369 . S
N30 C32 1.338 . S
C31 N30 1.369 . S
C31 C35 1.415 . S
C31 C38 1.422 . S
C32 H23 0.929 . S
C32 N30 1.338 . S
C32 C34 1.378 . S
C33 H28 0.931 . S
C33 C34 1.348 . S
C33 C35 1.413 . S
C34 H29 0.930 . S
C34 C32 1.378 . S
C34 C33 1.348 . S
C35 C31 1.415 . S
C35 C33 1.413 . S
C35 C65 1.437 . S
H36 C65 0.929 . S
N37 Gd10 2.570 . S
N37 C38 1.359 . S
N37 C41 1.343 . S
C38 C31 1.422 . S
C38 N37 1.359 . S
C38 C40 1.421 . S
C39 C40 1.422 . S
C39 C42 1.321 . S
C39 H66 0.931 . S
C40 C38 1.421 . S
C40 C39 1.422 . S
C40 C64 1.417 . S
C41 H18 0.931 . S
C41 N37 1.343 . S
C41 C42 1.390 . S
C42 H20 0.930 . S
C42 C39 1.321 . S
C42 C41 1.390 . S
O43 Gd11 2.386 . S
O43 C55 1.265 . S
O44 Gd10 2.353 . S
O44 C55 1.242 . S
O45 Gd10 2.468 . S
O45 C63 1.263 . S
O46 Gd10 2.427 . S
O46 C63 1.252 . S
O47 Gd11 2.307 . S
O47 C56 1.261 . S
O48 Gd10 2.388 . S
O48 C56 1.252 . S
O49 Gd10 2.386 . S
O49 C67 1.265 . S
O50 Gd11 2.353 . S
O50 C67 1.242 . S
O51 Gd11 2.468 . S
O51 C75 1.263 . S
O52 Gd11 2.427 . S
O52 C75 1.252 . S
O53 Gd10 2.307 . S
O53 C68 1.261 . S
O54 Gd11 2.388 . S
O54 C68 1.252 . S
C55 O43 1.265 . S
C55 O44 1.242 . S
C56 O47 1.261 . S
C56 O48 1.252 . S
C57 C60 1.394 . S
C57 C62 1.370 . S
C57 C63 1.500 . S
C58 C61 1.383 . S
C58 C62 1.395 . S
C59 C60 1.396 . S
C59 C61 1.365 . S
C59 H76 0.929 . S
C60 C57 1.394 . S
C60 C59 1.396 . S
C60 H77 0.930 . S
C61 C58 1.383 . S
C61 C59 1.365 . S
C61 H78 0.931 . S
C62 C57 1.370 . S
C62 C58 1.395 . S
C62 H79 0.930 . S
C63 Gd10 2.805 . S
C63 O45 1.263 . S
C63 O46 1.252 . S
C63 C57 1.500 . S
C64 H26 0.930 . S
C64 C40 1.417 . S
C64 C65 1.329 . S
C65 C35 1.437 . S
C65 H36 0.929 . S
C65 C64 1.329 . S
H66 C39 0.931 . S
C67 O49 1.265 . S
C67 O50 1.242 . S
C68 O53 1.261 . S
C68 O54 1.252 . S
C69 C72 1.394 . S
C69 C74 1.370 . S
C69 C75 1.500 . S
C70 C73 1.383 . S
C70 C74 1.395 . S
C71 C72 1.396 . S
C71 C73 1.365 . S
C71 H80 0.929 . S
C72 C69 1.394 . S
C72 C71 1.396 . S
C72 H81 0.930 . S
C73 C70 1.383 . S
C73 C71 1.365 . S
C73 H82 0.931 . S
C74 C69 1.370 . S
C74 C70 1.395 . S
C74 H83 0.930 . S
C75 Gd11 2.805 . S
C75 O51 1.263 . S
C75 O52 1.252 . S
C75 C69 1.500 . S
H76 C59 0.929 . S
H77 C60 0.930 . S
H78 C61 0.931 . S
H79 C62 0.930 . S
H80 C71 0.929 . S
H81 C72 0.930 . S
H82 C73 0.931 . S
H83 C74 0.930 . S
C84 C86 1.422 . S
C84 C88 1.415 . S
C84 N90 1.369 . S
C85 C86 1.421 . S
C85 C87 1.417 . S
C85 C97 1.422 . S
C86 C84 1.422 . S
C86 C85 1.421 . S
C86 N96 1.359 . S
C87 C85 1.417 . S
C87 C89 1.329 . S
C87 H106 0.930 . S
C88 C84 1.415 . S
C88 C89 1.437 . S
C88 C92 1.413 . S
C89 C87 1.329 . S
C89 C88 1.437 . S
C89 H111 0.929 . S
N90 C84 1.369 . S
N90 C91 1.338 . S
N90 Gd95 2.622 . S
C91 N90 1.338 . S
C91 C93 1.378 . S
C91 H103 0.929 . S
C92 C88 1.413 . S
C92 C93 1.348 . S
C92 H108 0.931 . S
C93 C91 1.378 . S
C93 C92 1.348 . S
C93 H109 0.930 . S
Gd94 N114 2.622 . S
Gd94 N121 2.570 . S
Gd94 O128 2.353 . S
Gd94 O129 2.468 . S
Gd94 O130 2.427 . S
Gd94 O132 2.388 . S
Gd94 O133 2.386 . S
Gd94 O137 2.307 . S
Gd94 C147 2.805 . S
Gd95 N90 2.622 . S
Gd95 N96 2.570 . S
Gd95 O127 2.386 . S
Gd95 O131 2.307 . S
Gd95 O134 2.353 . S
Gd95 O135 2.468 . S
Gd95 O136 2.427 . S
Gd95 O138 2.388 . S
Gd95 C159 2.805 . S
N96 C86 1.359 . S
N96 Gd95 2.570 . S
N96 C98 1.343 . S
C97 C85 1.422 . S
C97 C99 1.321 . S
C97 H105 0.931 . S
C98 N96 1.343 . S
C98 C99 1.390 . S
C98 H100 0.931 . S
C99 C97 1.321 . S
C99 C98 1.390 . S
C99 H101 0.930 . S
H100 C98 0.931 . S
H101 C99 0.930 . S
H102 C125 0.931 . S
H103 C91 0.929 . S
H104 C126 0.930 . S
H105 C97 0.931 . S
H106 C87 0.930 . S
H107 C116 0.929 . S
H108 C92 0.931 . S
H109 C93 0.930 . S
H110 C148 0.930 . S
H111 C89 0.929 . S
H112 C117 0.931 . S
H113 C118 0.930 . S
N114 Gd94 2.622 . S
N114 C115 1.369 . S
N114 C116 1.338 . S
C115 N114 1.369 . S
C115 C119 1.415 . S
C115 C122 1.422 . S
C116 H107 0.929 . S
C116 N114 1.338 . S
C116 C118 1.378 . S
C117 H112 0.931 . S
C117 C118 1.348 . S
C117 C119 1.413 . S
C118 H113 0.930 . S
C118 C116 1.378 . S
C118 C117 1.348 . S
C119 C115 1.415 . S
C119 C117 1.413 . S
C119 C149 1.437 . S
H120 C149 0.929 . S
N121 Gd94 2.570 . S
N121 C122 1.359 . S
N121 C125 1.343 . S
C122 C115 1.422 . S
C122 N121 1.359 . S
C122 C124 1.421 . S
C123 C124 1.422 . S
C123 C126 1.321 . S
C123 H150 0.931 . S
C124 C122 1.421 . S
C124 C123 1.422 . S
C124 C148 1.417 . S
C125 H102 0.931 . S
C125 N121 1.343 . S
C125 C126 1.390 . S
C126 H104 0.930 . S
C126 C123 1.321 . S
C126 C125 1.390 . S
O127 Gd95 2.386 . S
O127 C139 1.265 . S
O128 Gd94 2.353 . S
O128 C139 1.242 . S
O129 Gd94 2.468 . S
O129 C147 1.263 . S
O130 Gd94 2.427 . S
O130 C147 1.252 . S
O131 Gd95 2.307 . S
O131 C140 1.261 . S
O132 Gd94 2.388 . S
O132 C140 1.252 . S
O133 Gd94 2.386 . S
O133 C151 1.265 . S
O134 Gd95 2.353 . S
O134 C151 1.242 . S
O135 Gd95 2.468 . S
O135 C159 1.263 . S
O136 Gd95 2.427 . S
O136 C159 1.252 . S
O137 Gd94 2.307 . S
O137 C152 1.261 . S
O138 Gd95 2.388 . S
O138 C152 1.252 . S
C139 O127 1.265 . S
C139 O128 1.242 . S
C140 O131 1.261 . S
C140 O132 1.252 . S
C141 C144 1.394 . S
C141 C146 1.370 . S
C141 C147 1.500 . S
C142 C145 1.383 . S
C142 C146 1.395 . S
C143 C144 1.396 . S
C143 C145 1.365 . S
C143 H160 0.929 . S
C144 C141 1.394 . S
C144 C143 1.396 . S
C144 H161 0.930 . S
C145 C142 1.383 . S
C145 C143 1.365 . S
C145 H162 0.931 . S
C146 C141 1.370 . S
C146 C142 1.395 . S
C146 H163 0.930 . S
C147 Gd94 2.805 . S
C147 O129 1.263 . S
C147 O130 1.252 . S
C147 C141 1.500 . S
C148 H110 0.930 . S
C148 C124 1.417 . S
C148 C149 1.329 . S
C149 C119 1.437 . S
C149 H120 0.929 . S
C149 C148 1.329 . S
H150 C123 0.931 . S
C151 O133 1.265 . S
C151 O134 1.242 . S
C152 O137 1.261 . S
C152 O138 1.252 . S
C153 C156 1.394 . S
C153 C158 1.370 . S
C153 C159 1.500 . S
C154 C157 1.383 . S
C154 C158 1.395 . S
C155 C156 1.396 . S
C155 C157 1.365 . S
C155 H164 0.929 . S
C156 C153 1.394 . S
C156 C155 1.396 . S
C156 H165 0.930 . S
C157 C154 1.383 . S
C157 C155 1.365 . S
C157 H166 0.931 . S
C158 C153 1.370 . S
C158 C154 1.395 . S
C158 H167 0.930 . S
C159 Gd95 2.805 . S
C159 O135 1.263 . S
C159 O136 1.252 . S
C159 C153 1.500 . S
H160 C143 0.929 . S
H161 C144 0.930 . S
H162 C145 0.931 . S
H163 C146 0.930 . S
H164 C155 0.929 . S
H165 C156 0.930 . S
H166 C157 0.931 . S
H167 C158 0.930 . S
C168 C170 1.422 . S
C168 C172 1.415 . S
C168 N174 1.369 . S
C169 C170 1.421 . S
C169 C171 1.417 . S
C169 C181 1.422 . S
C170 C168 1.422 . S
C170 C169 1.421 . S
C170 N180 1.359 . S
C171 C169 1.417 . S
C171 C173 1.329 . S
C171 H190 0.930 . S
C172 C168 1.415 . S
C172 C173 1.437 . S
C172 C176 1.413 . S
C173 C171 1.329 . S
C173 C172 1.437 . S
C173 H195 0.929 . S
N174 C168 1.369 . S
N174 C175 1.338 . S
N174 Gd179 2.622 . S
C175 N174 1.338 . S
C175 C177 1.378 . S
C175 H187 0.929 . S
C176 C172 1.413 . S
C176 C177 1.348 . S
C176 H192 0.931 . S
C177 C175 1.378 . S
C177 C176 1.348 . S
C177 H193 0.930 . S
Gd178 N198 2.622 . S
Gd178 N205 2.570 . S
Gd178 O212 2.353 . S
Gd178 O213 2.468 . S
Gd178 O214 2.427 . S
Gd178 O216 2.388 . S
Gd178 O217 2.386 . S
Gd178 O221 2.307 . S
Gd178 C231 2.805 . S
Gd179 N174 2.622 . S
Gd179 N180 2.570 . S
Gd179 O211 2.386 . S
Gd179 O215 2.307 . S
Gd179 O218 2.353 . S
Gd179 O219 2.468 . S
Gd179 O220 2.427 . S
Gd179 O222 2.388 . S
Gd179 C243 2.805 . S
N180 C170 1.359 . S
N180 Gd179 2.570 . S
N180 C182 1.343 . S
C181 C169 1.422 . S
C181 C183 1.321 . S
C181 H189 0.931 . S
C182 N180 1.343 . S
C182 C183 1.390 . S
C182 H184 0.931 . S
C183 C181 1.321 . S
C183 C182 1.390 . S
C183 H185 0.930 . S
H184 C182 0.931 . S
H185 C183 0.930 . S
H186 C209 0.931 . S
H187 C175 0.929 . S
H188 C210 0.930 . S
H189 C181 0.931 . S
H190 C171 0.930 . S
H191 C200 0.929 . S
H192 C176 0.931 . S
H193 C177 0.930 . S
H194 C232 0.930 . S
H195 C173 0.929 . S
H196 C201 0.931 . S
H197 C202 0.930 . S
N198 Gd178 2.622 . S
N198 C199 1.369 . S
N198 C200 1.338 . S
C199 N198 1.369 . S
C199 C203 1.415 . S
C199 C206 1.422 . S
C200 H191 0.929 . S
C200 N198 1.338 . S
C200 C202 1.378 . S
C201 H196 0.931 . S
C201 C202 1.348 . S
C201 C203 1.413 . S
C202 H197 0.930 . S
C202 C200 1.378 . S
C202 C201 1.348 . S
C203 C199 1.415 . S
C203 C201 1.413 . S
C203 C233 1.437 . S
H204 C233 0.929 . S
N205 Gd178 2.570 . S
N205 C206 1.359 . S
N205 C209 1.343 . S
C206 C199 1.422 . S
C206 N205 1.359 . S
C206 C208 1.421 . S
C207 C208 1.422 . S
C207 C210 1.321 . S
C207 H234 0.931 . S
C208 C206 1.421 . S
C208 C207 1.422 . S
C208 C232 1.417 . S
C209 H186 0.931 . S
C209 N205 1.343 . S
C209 C210 1.390 . S
C210 H188 0.930 . S
C210 C207 1.321 . S
C210 C209 1.390 . S
O211 Gd179 2.386 . S
O211 C223 1.265 . S
O212 Gd178 2.353 . S
O212 C223 1.242 . S
O213 Gd178 2.468 . S
O213 C231 1.263 . S
O214 Gd178 2.427 . S
O214 C231 1.252 . S
O215 Gd179 2.307 . S
O215 C224 1.261 . S
O216 Gd178 2.388 . S
O216 C224 1.252 . S
O217 Gd178 2.386 . S
O217 C235 1.265 . S
O218 Gd179 2.353 . S
O218 C235 1.242 . S
O219 Gd179 2.468 . S
O219 C243 1.263 . S
O220 Gd179 2.427 . S
O220 C243 1.252 . S
O221 Gd178 2.307 . S
O221 C236 1.261 . S
O222 Gd179 2.388 . S
O222 C236 1.252 . S
C223 O211 1.265 . S
C223 O212 1.242 . S
C224 O215 1.261 . S
C224 O216 1.252 . S
C225 C228 1.394 . S
C225 C230 1.370 . S
C225 C231 1.500 . S
C226 C229 1.383 . S
C226 C230 1.395 . S
C227 C228 1.396 . S
C227 C229 1.365 . S
C227 H244 0.929 . S
C228 C225 1.394 . S
C228 C227 1.396 . S
C228 H245 0.930 . S
C229 C226 1.383 . S
C229 C227 1.365 . S
C229 H246 0.931 . S
C230 C225 1.370 . S
C230 C226 1.395 . S
C230 H247 0.930 . S
C231 Gd178 2.805 . S
C231 O213 1.263 . S
C231 O214 1.252 . S
C231 C225 1.500 . S
C232 H194 0.930 . S
C232 C208 1.417 . S
C232 C233 1.329 . S
C233 C203 1.437 . S
C233 H204 0.929 . S
C233 C232 1.329 . S
H234 C207 0.931 . S
C235 O217 1.265 . S
C235 O218 1.242 . S
C236 O221 1.261 . S
C236 O222 1.252 . S
C237 C240 1.394 . S
C237 C242 1.370 . S
C237 C243 1.500 . S
C238 C241 1.383 . S
C238 C242 1.395 . S
C239 C240 1.396 . S
C239 C241 1.365 . S
C239 H248 0.929 . S
C240 C237 1.394 . S
C240 C239 1.396 . S
C240 H249 0.930 . S
C241 C238 1.383 . S
C241 C239 1.365 . S
C241 H250 0.931 . S
C242 C237 1.370 . S
C242 C238 1.395 . S
C242 H251 0.930 . S
C243 Gd179 2.805 . S
C243 O219 1.263 . S
C243 O220 1.252 . S
C243 C237 1.500 . S
H244 C227 0.929 . S
H245 C228 0.930 . S
H246 C229 0.931 . S
H247 C230 0.930 . S
H248 C239 0.929 . S
H249 C240 0.930 . S
H250 C241 0.931 . S
H251 C242 0.930 . S
C252 C254 1.422 . S
C252 C256 1.415 . S
C252 N258 1.369 . S
C253 C254 1.421 . S
C253 C255 1.417 . S
C253 C265 1.422 . S
C254 C252 1.422 . S
C254 C253 1.421 . S
C254 N264 1.359 . S
C255 C253 1.417 . S
C255 C257 1.329 . S
C255 H274 0.930 . S
C256 C252 1.415 . S
C256 C257 1.437 . S
C256 C260 1.413 . S
C257 C255 1.329 . S
C257 C256 1.437 . S
C257 H279 0.929 . S
N258 C252 1.369 . S
N258 C259 1.338 . S
N258 Gd263 2.622 . S
C259 N258 1.338 . S
C259 C261 1.378 . S
C259 H271 0.929 . S
C260 C256 1.413 . S
C260 C261 1.348 . S
C260 H276 0.931 . S
C261 C259 1.378 . S
C261 C260 1.348 . S
C261 H277 0.930 . S
Gd262 N282 2.622 . S
Gd262 N289 2.570 . S
Gd262 O296 2.353 . S
Gd262 O297 2.468 . S
Gd262 O298 2.427 . S
Gd262 O300 2.388 . S
Gd262 O301 2.386 . S
Gd262 O305 2.307 . S
Gd262 C315 2.805 . S
Gd263 N258 2.622 . S
Gd263 N264 2.570 . S
Gd263 O295 2.386 . S
Gd263 O299 2.307 . S
Gd263 O302 2.353 . S
Gd263 O303 2.468 . S
Gd263 O304 2.427 . S
Gd263 O306 2.388 . S
Gd263 C327 2.805 . S
N264 C254 1.359 . S
N264 Gd263 2.570 . S
N264 C266 1.343 . S
C265 C253 1.422 . S
C265 C267 1.321 . S
C265 H273 0.931 . S
C266 N264 1.343 . S
C266 C267 1.390 . S
C266 H268 0.931 . S
C267 C265 1.321 . S
C267 C266 1.390 . S
C267 H269 0.930 . S
H268 C266 0.931 . S
H269 C267 0.930 . S
H270 C293 0.931 . S
H271 C259 0.929 . S
H272 C294 0.930 . S
H273 C265 0.931 . S
H274 C255 0.930 . S
H275 C284 0.929 . S
H276 C260 0.931 . S
H277 C261 0.930 . S
H278 C316 0.930 . S
H279 C257 0.929 . S
H280 C285 0.931 . S
H281 C286 0.930 . S
N282 Gd262 2.622 . S
N282 C283 1.369 . S
N282 C284 1.338 . S
C283 N282 1.369 . S
C283 C287 1.415 . S
C283 C290 1.422 . S
C284 H275 0.929 . S
C284 N282 1.338 . S
C284 C286 1.378 . S
C285 H280 0.931 . S
C285 C286 1.348 . S
C285 C287 1.413 . S
C286 H281 0.930 . S
C286 C284 1.378 . S
C286 C285 1.348 . S
C287 C283 1.415 . S
C287 C285 1.413 . S
C287 C317 1.437 . S
H288 C317 0.929 . S
N289 Gd262 2.570 . S
N289 C290 1.359 . S
N289 C293 1.343 . S
C290 C283 1.422 . S
C290 N289 1.359 . S
C290 C292 1.421 . S
C291 C292 1.422 . S
C291 C294 1.321 . S
C291 H318 0.931 . S
C292 C290 1.421 . S
C292 C291 1.422 . S
C292 C316 1.417 . S
C293 H270 0.931 . S
C293 N289 1.343 . S
C293 C294 1.390 . S
C294 H272 0.930 . S
C294 C291 1.321 . S
C294 C293 1.390 . S
O295 Gd263 2.386 . S
O295 C307 1.265 . S
O296 Gd262 2.353 . S
O296 C307 1.242 . S
O297 Gd262 2.468 . S
O297 C315 1.263 . S
O298 Gd262 2.427 . S
O298 C315 1.252 . S
O299 Gd263 2.307 . S
O299 C308 1.261 . S
O300 Gd262 2.388 . S
O300 C308 1.252 . S
O301 Gd262 2.386 . S
O301 C319 1.265 . S
O302 Gd263 2.353 . S
O302 C319 1.242 . S
O303 Gd263 2.468 . S
O303 C327 1.263 . S
O304 Gd263 2.427 . S
O304 C327 1.252 . S
O305 Gd262 2.307 . S
O305 C320 1.261 . S
O306 Gd263 2.388 . S
O306 C320 1.252 . S
C307 O295 1.265 . S
C307 O296 1.242 . S
C308 O299 1.261 . S
C308 O300 1.252 . S
C309 C312 1.394 . S
C309 C314 1.370 . S
C309 C315 1.500 . S
C310 C313 1.383 . S
C310 C314 1.395 . S
C311 C312 1.396 . S
C311 C313 1.365 . S
C311 H328 0.929 . S
C312 C309 1.394 . S
C312 C311 1.396 . S
C312 H329 0.930 . S
C313 C310 1.383 . S
C313 C311 1.365 . S
C313 H330 0.931 . S
C314 C309 1.370 . S
C314 C310 1.395 . S
C314 H331 0.930 . S
C315 Gd262 2.805 . S
C315 O297 1.263 . S
C315 O298 1.252 . S
C315 C309 1.500 . S
C316 H278 0.930 . S
C316 C292 1.417 . S
C316 C317 1.329 . S
C317 C287 1.437 . S
C317 H288 0.929 . S
C317 C316 1.329 . S
H318 C291 0.931 . S
C319 O301 1.265 . S
C319 O302 1.242 . S
C320 O305 1.261 . S
C320 O306 1.252 . S
C321 C324 1.394 . S
C321 C326 1.370 . S
C321 C327 1.500 . S
C322 C325 1.383 . S
C322 C326 1.395 . S
C323 C324 1.396 . S
C323 C325 1.365 . S
C323 H332 0.929 . S
C324 C321 1.394 . S
C324 C323 1.396 . S
C324 H333 0.930 . S
C325 C322 1.383 . S
C325 C323 1.365 . S
C325 H334 0.931 . S
C326 C321 1.370 . S
C326 C322 1.395 . S
C326 H335 0.930 . S
C327 Gd263 2.805 . S
C327 O303 1.263 . S
C327 O304 1.252 . S
C327 C321 1.500 . S
H328 C311 0.929 . S
H329 C312 0.930 . S
H330 C313 0.931 . S
H331 C314 0.930 . S
H332 C323 0.929 . S
H333 C324 0.930 . S
H334 C325 0.931 . S
H335 C326 0.930 . S
C336 C338 1.422 . S
C336 C340 1.415 . S
C336 N342 1.369 . S
C337 C338 1.421 . S
C337 C339 1.417 . S
C337 C349 1.422 . S
C338 C336 1.422 . S
C338 C337 1.421 . S
C338 N348 1.359 . S
C339 C337 1.417 . S
C339 C341 1.329 . S
C339 H358 0.930 . S
C340 C336 1.415 . S
C340 C341 1.437 . S
C340 C344 1.413 . S
C341 C339 1.329 . S
C341 C340 1.437 . S
C341 H363 0.929 . S
N342 C336 1.369 . S
N342 C343 1.338 . S
N342 Gd347 2.622 . S
C343 N342 1.338 . S
C343 C345 1.378 . S
C343 H355 0.929 . S
C344 C340 1.413 . S
C344 C345 1.348 . S
C344 H360 0.931 . S
C345 C343 1.378 . S
C345 C344 1.348 . S
C345 H361 0.930 . S
Gd346 N366 2.622 . S
Gd346 N373 2.570 . S
Gd346 O380 2.353 . S
Gd346 O381 2.468 . S
Gd346 O382 2.427 . S
Gd346 O384 2.388 . S
Gd346 O385 2.386 . S
Gd346 O389 2.307 . S
Gd346 C399 2.805 . S
Gd347 N342 2.622 . S
Gd347 N348 2.570 . S
Gd347 O379 2.386 . S
Gd347 O383 2.307 . S
Gd347 O386 2.353 . S
Gd347 O387 2.468 . S
Gd347 O388 2.427 . S
Gd347 O390 2.388 . S
Gd347 C411 2.805 . S
N348 C338 1.359 . S
N348 Gd347 2.570 . S
N348 C350 1.343 . S
C349 C337 1.422 . S
C349 C351 1.321 . S
C349 H357 0.931 . S
C350 N348 1.343 . S
C350 C351 1.390 . S
C350 H352 0.931 . S
C351 C349 1.321 . S
C351 C350 1.390 . S
C351 H353 0.930 . S
H352 C350 0.931 . S
H353 C351 0.930 . S
H354 C377 0.931 . S
H355 C343 0.929 . S
H356 C378 0.930 . S
H357 C349 0.931 . S
H358 C339 0.930 . S
H359 C368 0.929 . S
H360 C344 0.931 . S
H361 C345 0.930 . S
H362 C400 0.930 . S
H363 C341 0.929 . S
H364 C369 0.931 . S
H365 C370 0.930 . S
N366 Gd346 2.622 . S
N366 C367 1.369 . S
N366 C368 1.338 . S
C367 N366 1.369 . S
C367 C371 1.415 . S
C367 C374 1.422 . S
C368 H359 0.929 . S
C368 N366 1.338 . S
C368 C370 1.378 . S
C369 H364 0.931 . S
C369 C370 1.348 . S
C369 C371 1.413 . S
C370 H365 0.930 . S
C370 C368 1.378 . S
C370 C369 1.348 . S
C371 C367 1.415 . S
C371 C369 1.413 . S
C371 C401 1.437 . S
H372 C401 0.929 . S
N373 Gd346 2.570 . S
N373 C374 1.359 . S
N373 C377 1.343 . S
C374 C367 1.422 . S
C374 N373 1.359 . S
C374 C376 1.421 . S
C375 C376 1.422 . S
C375 C378 1.321 . S
C375 H402 0.931 . S
C376 C374 1.421 . S
C376 C375 1.422 . S
C376 C400 1.417 . S
C377 H354 0.931 . S
C377 N373 1.343 . S
C377 C378 1.390 . S
C378 H356 0.930 . S
C378 C375 1.321 . S
C378 C377 1.390 . S
O379 Gd347 2.386 . S
O379 C391 1.265 . S
O380 Gd346 2.353 . S
O380 C391 1.242 . S
O381 Gd346 2.468 . S
O381 C399 1.263 . S
O382 Gd346 2.427 . S
O382 C399 1.252 . S
O383 Gd347 2.307 . S
O383 C392 1.261 . S
O384 Gd346 2.388 . S
O384 C392 1.252 . S
O385 Gd346 2.386 . S
O385 C403 1.265 . S
O386 Gd347 2.353 . S
O386 C403 1.242 . S
O387 Gd347 2.468 . S
O387 C411 1.263 . S
O388 Gd347 2.427 . S
O388 C411 1.252 . S
O389 Gd346 2.307 . S
O389 C404 1.261 . S
O390 Gd347 2.388 . S
O390 C404 1.252 . S
C391 O379 1.265 . S
C391 O380 1.242 . S
C392 O383 1.261 . S
C392 O384 1.252 . S
C393 C396 1.394 . S
C393 C398 1.370 . S
C393 C399 1.500 . S
C394 C397 1.383 . S
C394 C398 1.395 . S
C395 C396 1.396 . S
C395 C397 1.365 . S
C395 H412 0.929 . S
C396 C393 1.394 . S
C396 C395 1.396 . S
C396 H413 0.930 . S
C397 C394 1.383 . S
C397 C395 1.365 . S
C397 H414 0.931 . S
C398 C393 1.370 . S
C398 C394 1.395 . S
C398 H415 0.930 . S
C399 Gd346 2.805 . S
C399 O381 1.263 . S
C399 O382 1.252 . S
C399 C393 1.500 . S
C400 H362 0.930 . S
C400 C376 1.417 . S
C400 C401 1.329 . S
C401 C371 1.437 . S
C401 H372 0.929 . S
C401 C400 1.329 . S
H402 C375 0.931 . S
C403 O385 1.265 . S
C403 O386 1.242 . S
C404 O389 1.261 . S
C404 O390 1.252 . S
C405 C408 1.394 . S
C405 C410 1.370 . S
C405 C411 1.500 . S
C406 C409 1.383 . S
C406 C410 1.395 . S
C407 C408 1.396 . S
C407 C409 1.365 . S
C407 H416 0.929 . S
C408 C405 1.394 . S
C408 C407 1.396 . S
C408 H417 0.930 . S
C409 C406 1.383 . S
C409 C407 1.365 . S
C409 H418 0.931 . S
C410 C405 1.370 . S
C410 C406 1.395 . S
C410 H419 0.930 . S
C411 Gd347 2.805 . S
C411 O387 1.263 . S
C411 O388 1.252 . S
C411 C405 1.500 . S
H412 C395 0.929 . S
H413 C396 0.930 . S
H414 C397 0.931 . S
H415 C398 0.930 . S
H416 C407 0.929 . S
H417 C408 0.930 . S
H418 C409 0.931 . S
H419 C410 0.930 . S
C420 C422 1.422 . S
C420 C424 1.415 . S
C420 N426 1.369 . S
C421 C422 1.421 . S
C421 C423 1.417 . S
C421 C433 1.422 . S
C422 C420 1.422 . S
C422 C421 1.421 . S
C422 N432 1.359 . S
C423 C421 1.417 . S
C423 C425 1.329 . S
C423 H442 0.930 . S
C424 C420 1.415 . S
C424 C425 1.437 . S
C424 C428 1.413 . S
C425 C423 1.329 . S
C425 C424 1.437 . S
C425 H447 0.929 . S
N426 C420 1.369 . S
N426 C427 1.338 . S
N426 Gd431 2.622 . S
C427 N426 1.338 . S
C427 C429 1.378 . S
C427 H439 0.929 . S
C428 C424 1.413 . S
C428 C429 1.348 . S
C428 H444 0.931 . S
C429 C427 1.378 . S
C429 C428 1.348 . S
C429 H445 0.930 . S
Gd430 N450 2.622 . S
Gd430 N457 2.570 . S
Gd430 O464 2.353 . S
Gd430 O465 2.468 . S
Gd430 O466 2.427 . S
Gd430 O468 2.388 . S
Gd430 O469 2.386 . S
Gd430 O473 2.307 . S
Gd430 C483 2.805 . S
Gd431 N426 2.622 . S
Gd431 N432 2.570 . S
Gd431 O463 2.386 . S
Gd431 O467 2.307 . S
Gd431 O470 2.353 . S
Gd431 O471 2.468 . S
Gd431 O472 2.427 . S
Gd431 O474 2.388 . S
Gd431 C495 2.805 . S
N432 C422 1.359 . S
N432 Gd431 2.570 . S
N432 C434 1.343 . S
C433 C421 1.422 . S
C433 C435 1.321 . S
C433 H441 0.931 . S
C434 N432 1.343 . S
C434 C435 1.390 . S
C434 H436 0.931 . S
C435 C433 1.321 . S
C435 C434 1.390 . S
C435 H437 0.930 . S
H436 C434 0.931 . S
H437 C435 0.930 . S
H438 C461 0.931 . S
H439 C427 0.929 . S
H440 C462 0.930 . S
H441 C433 0.931 . S
H442 C423 0.930 . S
H443 C452 0.929 . S
H444 C428 0.931 . S
H445 C429 0.930 . S
H446 C484 0.930 . S
H447 C425 0.929 . S
H448 C453 0.931 . S
H449 C454 0.930 . S
N450 Gd430 2.622 . S
N450 C451 1.369 . S
N450 C452 1.338 . S
C451 N450 1.369 . S
C451 C455 1.415 . S
C451 C458 1.422 . S
C452 H443 0.929 . S
C452 N450 1.338 . S
C452 C454 1.378 . S
C453 H448 0.931 . S
C453 C454 1.348 . S
C453 C455 1.413 . S
C454 H449 0.930 . S
C454 C452 1.378 . S
C454 C453 1.348 . S
C455 C451 1.415 . S
C455 C453 1.413 . S
C455 C485 1.437 . S
H456 C485 0.929 . S
N457 Gd430 2.570 . S
N457 C458 1.359 . S
N457 C461 1.343 . S
C458 C451 1.422 . S
C458 N457 1.359 . S
C458 C460 1.421 . S
C459 C460 1.422 . S
C459 C462 1.321 . S
C459 H486 0.931 . S
C460 C458 1.421 . S
C460 C459 1.422 . S
C460 C484 1.417 . S
C461 H438 0.931 . S
C461 N457 1.343 . S
C461 C462 1.390 . S
C462 H440 0.930 . S
C462 C459 1.321 . S
C462 C461 1.390 . S
O463 Gd431 2.386 . S
O463 C475 1.265 . S
O464 Gd430 2.353 . S
O464 C475 1.242 . S
O465 Gd430 2.468 . S
O465 C483 1.263 . S
O466 Gd430 2.427 . S
O466 C483 1.252 . S
O467 Gd431 2.307 . S
O467 C476 1.261 . S
O468 Gd430 2.388 . S
O468 C476 1.252 . S
O469 Gd430 2.386 . S
O469 C487 1.265 . S
O470 Gd431 2.353 . S
O470 C487 1.242 . S
O471 Gd431 2.468 . S
O471 C495 1.263 . S
O472 Gd431 2.427 . S
O472 C495 1.252 . S
O473 Gd430 2.307 . S
O473 C488 1.261 . S
O474 Gd431 2.388 . S
O474 C488 1.252 . S
C475 O463 1.265 . S
C475 O464 1.242 . S
C476 O467 1.261 . S
C476 O468 1.252 . S
C477 C480 1.394 . S
C477 C482 1.370 . S
C477 C483 1.500 . S
C478 C481 1.383 . S
C478 C482 1.395 . S
C479 C480 1.396 . S
C479 C481 1.365 . S
C479 H496 0.929 . S
C480 C477 1.394 . S
C480 C479 1.396 . S
C480 H497 0.930 . S
C481 C478 1.383 . S
C481 C479 1.365 . S
C481 H498 0.931 . S
C482 C477 1.370 . S
C482 C478 1.395 . S
C482 H499 0.930 . S
C483 Gd430 2.805 . S
C483 O465 1.263 . S
C483 O466 1.252 . S
C483 C477 1.500 . S
C484 H446 0.930 . S
C484 C460 1.417 . S
C484 C485 1.329 . S
C485 C455 1.437 . S
C485 H456 0.929 . S
C485 C484 1.329 . S
H486 C459 0.931 . S
C487 O469 1.265 . S
C487 O470 1.242 . S
C488 O473 1.261 . S
C488 O474 1.252 . S
C489 C492 1.394 . S
C489 C494 1.370 . S
C489 C495 1.500 . S
C490 C493 1.383 . S
C490 C494 1.395 . S
C491 C492 1.396 . S
C491 C493 1.365 . S
C491 H500 0.929 . S
C492 C489 1.394 . S
C492 C491 1.396 . S
C492 H501 0.930 . S
C493 C490 1.383 . S
C493 C491 1.365 . S
C493 H502 0.931 . S
C494 C489 1.370 . S
C494 C490 1.395 . S
C494 H503 0.930 . S
C495 Gd431 2.805 . S
C495 O471 1.263 . S
C495 O472 1.252 . S
C495 C489 1.500 . S
H496 C479 0.929 . S
H497 C480 0.930 . S
H498 C481 0.931 . S
H499 C482 0.930 . S
H500 C491 0.929 . S
H501 C492 0.930 . S
H502 C493 0.931 . S
H503 C494 0.930 . S
C504 C506 1.422 . S
C504 C508 1.415 . S
C504 N510 1.369 . S
C505 C506 1.421 . S
C505 C507 1.417 . S
C505 C517 1.422 . S
C506 C504 1.422 . S
C506 C505 1.421 . S
C506 N516 1.359 . S
C507 C505 1.417 . S
C507 C509 1.329 . S
C507 H526 0.930 . S
C508 C504 1.415 . S
C508 C509 1.437 . S
C508 C512 1.413 . S
C509 C507 1.329 . S
C509 C508 1.437 . S
C509 H531 0.929 . S
N510 C504 1.369 . S
N510 C511 1.338 . S
N510 Gd515 2.622 . S
C511 N510 1.338 . S
C511 C513 1.378 . S
C511 H523 0.929 . S
C512 C508 1.413 . S
C512 C513 1.348 . S
C512 H528 0.931 . S
C513 C511 1.378 . S
C513 C512 1.348 . S
C513 H529 0.930 . S
Gd514 N534 2.622 . S
Gd514 N541 2.570 . S
Gd514 O548 2.353 . S
Gd514 O549 2.468 . S
Gd514 O550 2.427 . S
Gd514 O552 2.388 . S
Gd514 O553 2.386 . S
Gd514 O557 2.307 . S
Gd514 C567 2.805 . S
Gd515 N510 2.622 . S
Gd515 N516 2.570 . S
Gd515 O547 2.386 . S
Gd515 O551 2.307 . S
Gd515 O554 2.353 . S
Gd515 O555 2.468 . S
Gd515 O556 2.427 . S
Gd515 O558 2.388 . S
Gd515 C579 2.805 . S
N516 C506 1.359 . S
N516 Gd515 2.570 . S
N516 C518 1.343 . S
C517 C505 1.422 . S
C517 C519 1.321 . S
C517 H525 0.931 . S
C518 N516 1.343 . S
C518 C519 1.390 . S
C518 H520 0.931 . S
C519 C517 1.321 . S
C519 C518 1.390 . S
C519 H521 0.930 . S
H520 C518 0.931 . S
H521 C519 0.930 . S
H522 C545 0.931 . S
H523 C511 0.929 . S
H524 C546 0.930 . S
H525 C517 0.931 . S
H526 C507 0.930 . S
H527 C536 0.929 . S
H528 C512 0.931 . S
H529 C513 0.930 . S
H530 C568 0.930 . S
H531 C509 0.929 . S
H532 C537 0.931 . S
H533 C538 0.930 . S
N534 Gd514 2.622 . S
N534 C535 1.369 . S
N534 C536 1.338 . S
C535 N534 1.369 . S
C535 C539 1.415 . S
C535 C542 1.422 . S
C536 H527 0.929 . S
C536 N534 1.338 . S
C536 C538 1.378 . S
C537 H532 0.931 . S
C537 C538 1.348 . S
C537 C539 1.413 . S
C538 H533 0.930 . S
C538 C536 1.378 . S
C538 C537 1.348 . S
C539 C535 1.415 . S
C539 C537 1.413 . S
C539 C569 1.437 . S
H540 C569 0.929 . S
N541 Gd514 2.570 . S
N541 C542 1.359 . S
N541 C545 1.343 . S
C542 C535 1.422 . S
C542 N541 1.359 . S
C542 C544 1.421 . S
C543 C544 1.422 . S
C543 C546 1.321 . S
C543 H570 0.931 . S
C544 C542 1.421 . S
C544 C543 1.422 . S
C544 C568 1.417 . S
C545 H522 0.931 . S
C545 N541 1.343 . S
C545 C546 1.390 . S
C546 H524 0.930 . S
C546 C543 1.321 . S
C546 C545 1.390 . S
O547 Gd515 2.386 . S
O547 C559 1.265 . S
O548 Gd514 2.353 . S
O548 C559 1.242 . S
O549 Gd514 2.468 . S
O549 C567 1.263 . S
O550 Gd514 2.427 . S
O550 C567 1.252 . S
O551 Gd515 2.307 . S
O551 C560 1.261 . S
O552 Gd514 2.388 . S
O552 C560 1.252 . S
O553 Gd514 2.386 . S
O553 C571 1.265 . S
O554 Gd515 2.353 . S
O554 C571 1.242 . S
O555 Gd515 2.468 . S
O555 C579 1.263 . S
O556 Gd515 2.427 . S
O556 C579 1.252 . S
O557 Gd514 2.307 . S
O557 C572 1.261 . S
O558 Gd515 2.388 . S
O558 C572 1.252 . S
C559 O547 1.265 . S
C559 O548 1.242 . S
C560 O551 1.261 . S
C560 O552 1.252 . S
C561 C564 1.394 . S
C561 C566 1.370 . S
C561 C567 1.500 . S
C562 C565 1.383 . S
C562 C566 1.395 . S
C563 C564 1.396 . S
C563 C565 1.365 . S
C563 H580 0.929 . S
C564 C561 1.394 . S
C564 C563 1.396 . S
C564 H581 0.930 . S
C565 C562 1.383 . S
C565 C563 1.365 . S
C565 H582 0.931 . S
C566 C561 1.370 . S
C566 C562 1.395 . S
C566 H583 0.930 . S
C567 Gd514 2.805 . S
C567 O549 1.263 . S
C567 O550 1.252 . S
C567 C561 1.500 . S
C568 H530 0.930 . S
C568 C544 1.417 . S
C568 C569 1.329 . S
C569 C539 1.437 . S
C569 H540 0.929 . S
C569 C568 1.329 . S
H570 C543 0.931 . S
C571 O553 1.265 . S
C571 O554 1.242 . S
C572 O557 1.261 . S
C572 O558 1.252 . S
C573 C576 1.394 . S
C573 C578 1.370 . S
C573 C579 1.500 . S
C574 C577 1.383 . S
C574 C578 1.395 . S
C575 C576 1.396 . S
C575 C577 1.365 . S
C575 H584 0.929 . S
C576 C573 1.394 . S
C576 C575 1.396 . S
C576 H585 0.930 . S
C577 C574 1.383 . S
C577 C575 1.365 . S
C577 H586 0.931 . S
C578 C573 1.370 . S
C578 C574 1.395 . S
C578 H587 0.930 . S
C579 Gd515 2.805 . S
C579 O555 1.263 . S
C579 O556 1.252 . S
C579 C573 1.500 . S
H580 C563 0.929 . S
H581 C564 0.930 . S
H582 C565 0.931 . S
H583 C566 0.930 . S
H584 C575 0.929 . S
H585 C576 0.930 . S
H586 C577 0.931 . S
H587 C578 0.930 . S
C588 C590 1.422 . S
C588 C592 1.415 . S
C588 N594 1.369 . S
C589 C590 1.421 . S
C589 C591 1.417 . S
C589 C601 1.422 . S
C590 C588 1.422 . S
C590 C589 1.421 . S
C590 N600 1.359 . S
C591 C589 1.417 . S
C591 C593 1.329 . S
C591 H610 0.930 . S
C592 C588 1.415 . S
C592 C593 1.437 . S
C592 C596 1.413 . S
C593 C591 1.329 . S
C593 C592 1.437 . S
C593 H615 0.929 . S
N594 C588 1.369 . S
N594 C595 1.338 . S
N594 Gd599 2.622 . S
C595 N594 1.338 . S
C595 C597 1.378 . S
C595 H607 0.929 . S
C596 C592 1.413 . S
C596 C597 1.348 . S
C596 H612 0.931 . S
C597 C595 1.378 . S
C597 C596 1.348 . S
C597 H613 0.930 . S
Gd598 N618 2.622 . S
Gd598 N625 2.570 . S
Gd598 O632 2.353 . S
Gd598 O633 2.468 . S
Gd598 O634 2.427 . S
Gd598 O636 2.388 . S
Gd598 O637 2.386 . S
Gd598 O641 2.307 . S
Gd598 C651 2.805 . S
Gd599 N594 2.622 . S
Gd599 N600 2.570 . S
Gd599 O631 2.386 . S
Gd599 O635 2.307 . S
Gd599 O638 2.353 . S
Gd599 O639 2.468 . S
Gd599 O640 2.427 . S
Gd599 O642 2.388 . S
Gd599 C663 2.805 . S
N600 C590 1.359 . S
N600 Gd599 2.570 . S
N600 C602 1.343 . S
C601 C589 1.422 . S
C601 C603 1.321 . S
C601 H609 0.931 . S
C602 N600 1.343 . S
C602 C603 1.390 . S
C602 H604 0.931 . S
C603 C601 1.321 . S
C603 C602 1.390 . S
C603 H605 0.930 . S
H604 C602 0.931 . S
H605 C603 0.930 . S
H606 C629 0.931 . S
H607 C595 0.929 . S
H608 C630 0.930 . S
H609 C601 0.931 . S
H610 C591 0.930 . S
H611 C620 0.929 . S
H612 C596 0.931 . S
H613 C597 0.930 . S
H614 C652 0.930 . S
H615 C593 0.929 . S
H616 C621 0.931 . S
H617 C622 0.930 . S
N618 Gd598 2.622 . S
N618 C619 1.369 . S
N618 C620 1.338 . S
C619 N618 1.369 . S
C619 C623 1.415 . S
C619 C626 1.422 . S
C620 H611 0.929 . S
C620 N618 1.338 . S
C620 C622 1.378 . S
C621 H616 0.931 . S
C621 C622 1.348 . S
C621 C623 1.413 . S
C622 H617 0.930 . S
C622 C620 1.378 . S
C622 C621 1.348 . S
C623 C619 1.415 . S
C623 C621 1.413 . S
C623 C653 1.437 . S
H624 C653 0.929 . S
N625 Gd598 2.570 . S
N625 C626 1.359 . S
N625 C629 1.343 . S
C626 C619 1.422 . S
C626 N625 1.359 . S
C626 C628 1.421 . S
C627 C628 1.422 . S
C627 C630 1.321 . S
C627 H654 0.931 . S
C628 C626 1.421 . S
C628 C627 1.422 . S
C628 C652 1.417 . S
C629 H606 0.931 . S
C629 N625 1.343 . S
C629 C630 1.390 . S
C630 H608 0.930 . S
C630 C627 1.321 . S
C630 C629 1.390 . S
O631 Gd599 2.386 . S
O631 C643 1.265 . S
O632 Gd598 2.353 . S
O632 C643 1.242 . S
O633 Gd598 2.468 . S
O633 C651 1.263 . S
O634 Gd598 2.427 . S
O634 C651 1.252 . S
O635 Gd599 2.307 . S
O635 C644 1.261 . S
O636 Gd598 2.388 . S
O636 C644 1.252 . S
O637 Gd598 2.386 . S
O637 C655 1.265 . S
O638 Gd599 2.353 . S
O638 C655 1.242 . S
O639 Gd599 2.468 . S
O639 C663 1.263 . S
O640 Gd599 2.427 . S
O640 C663 1.252 . S
O641 Gd598 2.307 . S
O641 C656 1.261 . S
O642 Gd599 2.388 . S
O642 C656 1.252 . S
C643 O631 1.265 . S
C643 O632 1.242 . S
C644 O635 1.261 . S
C644 O636 1.252 . S
C645 C648 1.394 . S
C645 C650 1.370 . S
C645 C651 1.500 . S
C646 C649 1.383 . S
C646 C650 1.395 . S
C647 C648 1.396 . S
C647 C649 1.365 . S
C647 H664 0.929 . S
C648 C645 1.394 . S
C648 C647 1.396 . S
C648 H665 0.930 . S
C649 C646 1.383 . S
C649 C647 1.365 . S
C649 H666 0.931 . S
C650 C645 1.370 . S
C650 C646 1.395 . S
C650 H667 0.930 . S
C651 Gd598 2.805 . S
C651 O633 1.263 . S
C651 O634 1.252 . S
C651 C645 1.500 . S
C652 H614 0.930 . S
C652 C628 1.417 . S
C652 C653 1.329 . S
C653 C623 1.437 . S
C653 H624 0.929 . S
C653 C652 1.329 . S
H654 C627 0.931 . S
C655 O637 1.265 . S
C655 O638 1.242 . S
C656 O641 1.261 . S
C656 O642 1.252 . S
C657 C660 1.394 . S
C657 C662 1.370 . S
C657 C663 1.500 . S
C658 C661 1.383 . S
C658 C662 1.395 . S
C659 C660 1.396 . S
C659 C661 1.365 . S
C659 H668 0.929 . S
C660 C657 1.394 . S
C660 C659 1.396 . S
C660 H669 0.930 . S
C661 C658 1.383 . S
C661 C659 1.365 . S
C661 H670 0.931 . S
C662 C657 1.370 . S
C662 C658 1.395 . S
C662 H671 0.930 . S
C663 Gd599 2.805 . S
C663 O639 1.263 . S
C663 O640 1.252 . S
C663 C657 1.500 . S
H664 C647 0.929 . S
H665 C648 0.930 . S
H666 C649 0.931 . S
H667 C650 0.930 . S
H668 C659 0.929 . S
H669 C660 0.930 . S
H670 C661 0.931 . S
H671 C662 0.930 . S
C672 O684 1.241 . S
C672 O685 1.280 . S
C673 O686 1.277 . S
C673 O687 1.245 . S
C674 O698 1.247 . S
C674 O700 1.289 . S
Mg675 O676 1.926 . S
Mg675 O685 1.984 . S
Mg675 O687 1.988 . S
Mg675 O688 2.061 1_655 S
O676 Mg675 1.926 . S
O676 Mg677 1.986 1_545 S
O676 Mg678 1.904 1_655 S
Mg677 O676 1.986 1_565 S
Mg677 O684 2.042 1_565 S
Mg677 O686 2.041 1_565 S
Mg677 O692 2.038 . S
Mg677 O700 2.238 . S
Mg678 O676 1.904 1_455 S
Mg678 O679 1.930 1_545 S
Mg678 O689 2.118 . S
Mg678 O691 2.077 1_445 S
Mg678 O700 2.095 1_445 S
Mg678 O701 2.081 . S
O679 Mg678 1.930 1_565 S
O679 Mg680 1.926 . S
O679 Mg681 1.986 1_565 S
Mg680 O679 1.926 . S
Mg680 O694 1.984 . S
Mg680 O697 1.988 . S
Mg680 O698 2.061 1_455 S
Mg681 O679 1.986 1_545 S
Mg681 O689 2.238 . S
Mg681 O693 2.042 1_545 S
Mg681 O695 2.041 1_545 S
Mg681 O702 2.038 . S
C682 O688 1.247 . S
C682 O689 1.289 . S
C683 O701 1.245 . S
C683 O702 1.274 . S
O684 C672 1.241 . S
O684 Mg677 2.042 1_545 S
O685 C672 1.280 . S
O685 Mg675 1.984 . S
O686 C673 1.277 . S
O686 Mg677 2.041 1_545 S
O687 C673 1.245 . S
O687 Mg675 1.988 . S
O688 Mg675 2.061 1_455 S
O688 C682 1.247 . S
O689 Mg678 2.118 . S
O689 Mg681 2.238 . S
O689 C682 1.289 . S
C690 O691 1.245 . S
C690 O692 1.274 . S
O691 Mg678 2.077 1_665 S
O691 C690 1.245 . S
O692 Mg677 2.038 . S
O692 C690 1.274 . S
O693 Mg681 2.042 1_565 S
O693 C696 1.241 . S
O694 Mg680 1.984 . S
O694 C696 1.280 . S
O695 Mg681 2.041 1_565 S
O695 C699 1.277 . S
C696 O693 1.241 . S
C696 O694 1.280 . S
O697 Mg680 1.988 . S
O697 C699 1.245 . S
O698 C674 1.247 . S
O698 Mg680 2.061 1_655 S
C699 O695 1.277 . S
C699 O697 1.245 . S
O700 C674 1.289 . S
O700 Mg677 2.238 . S
O700 Mg678 2.095 1_665 S
O701 Mg678 2.081 . S
O701 C683 1.245 . S
O702 Mg681 2.038 . S
O702 C683 1.274 . S
C703 O715 1.241 . S
C703 O716 1.280 . S
C704 O717 1.277 . S
C704 O718 1.245 . S
C705 O729 1.247 . S
C705 O731 1.289 . S
Mg706 O707 1.926 . S
Mg706 O716 1.984 . S
Mg706 O718 1.988 1_554 S
Mg706 O719 2.061 . S
O707 Mg706 1.926 . S
O707 Mg708 1.986 1_545 S
O707 Mg709 1.920 . S
Mg708 O707 1.986 1_565 S
Mg708 O715 2.042 1_565 S
Mg708 O717 2.041 1_564 S
Mg708 O723 2.038 . S
Mg708 O731 2.238 1_554 S
Mg709 O707 1.920 . S
Mg709 O710 1.914 1_544 S
Mg709 O720 2.112 . S
Mg709 O722 2.086 1_545 S
Mg709 O731 2.101 1_544 S
Mg709 O732 2.072 1_554 S
O710 Mg709 1.914 1_566 S
O710 Mg711 1.926 . S
O710 Mg712 1.986 1_565 S
Mg711 O710 1.926 . S
Mg711 O725 1.984 . S
Mg711 O728 1.988 1_556 S
Mg711 O729 2.061 . S
Mg712 O710 1.986 1_545 S
Mg712 O720 2.238 1_556 S
Mg712 O724 2.042 1_545 S
Mg712 O726 2.041 1_546 S
Mg712 O733 2.038 . S
C713 O719 1.247 . S
C713 O720 1.289 . S
C714 O732 1.245 . S
C714 O733 1.274 . S
O715 C703 1.241 . S
O715 Mg708 2.042 1_545 S
O716 C703 1.280 . S
O716 Mg706 1.984 . S
O717 C704 1.277 . S
O717 Mg708 2.041 1_546 S
O718 C704 1.245 . S
O718 Mg706 1.988 1_556 S
O719 Mg706 2.061 . S
O719 C713 1.247 . S
O720 Mg709 2.112 . S
O720 Mg712 2.238 1_554 S
O720 C713 1.289 . S
C721 O722 1.245 . S
C721 O723 1.274 . S
O722 Mg709 2.086 1_565 S
O722 C721 1.245 . S
O723 Mg708 2.038 . S
O723 C721 1.274 . S
O724 Mg712 2.042 1_565 S
O724 C727 1.241 . S
O725 Mg711 1.984 . S
O725 C727 1.280 . S
O726 Mg712 2.041 1_564 S
O726 C730 1.277 . S
C727 O724 1.241 . S
C727 O725 1.280 . S
O728 Mg711 1.988 1_554 S
O728 C730 1.245 . S
O729 C705 1.247 . S
O729 Mg711 2.061 . S
C730 O726 1.277 . S
C730 O728 1.245 . S
O731 C705 1.289 . S
O731 Mg708 2.238 1_556 S
O731 Mg709 2.101 1_566 S
O732 Mg709 2.072 1_556 S
O732 C714 1.245 . S
O733 Mg712 2.038 . S
O733 C714 1.274 . S
C734 O746 1.241 . S
C734 O747 1.280 . S
C735 O748 1.277 . S
C735 O749 1.245 . S
C736 O760 1.247 . S
C736 O762 1.289 . S
Mg737 O738 1.926 . S
Mg737 O747 1.984 . S
Mg737 O749 1.988 1_554 S
Mg737 O750 2.061 1_655 S
O738 Mg737 1.926 . S
O738 Mg739 1.986 . S
O738 Mg740 1.905 1_655 S
Mg739 O738 1.986 . S
Mg739 O746 2.042 . S
Mg739 O748 2.041 1_554 S
Mg739 O754 2.038 . S
Mg739 O762 2.238 1_554 S
Mg740 O738 1.905 1_455 S
Mg740 O741 1.929 1_554 S
Mg740 O751 2.124 . S
Mg740 O753 2.085 1_455 S
Mg740 O762 2.089 1_454 S
Mg740 O763 2.073 1_554 S
O741 Mg740 1.929 1_556 S
O741 Mg742 1.926 . S
O741 Mg743 1.986 . S
Mg742 O741 1.926 . S
Mg742 O756 1.984 . S
Mg742 O759 1.988 1_556 S
Mg742 O760 2.061 1_455 S
Mg743 O741 1.986 . S
Mg743 O751 2.238 1_556 S
Mg743 O755 2.042 . S
Mg743 O757 2.041 1_556 S
Mg743 O764 2.038 . S
C744 O750 1.247 . S
C744 O751 1.289 . S
C745 O763 1.245 . S
C745 O764 1.274 . S
O746 C734 1.241 . S
O746 Mg739 2.042 . S
O747 C734 1.280 . S
O747 Mg737 1.984 . S
O748 C735 1.277 . S
O748 Mg739 2.041 1_556 S
O749 C735 1.245 . S
O749 Mg737 1.988 1_556 S
O750 Mg737 2.061 1_455 S
O750 C744 1.247 . S
O751 Mg740 2.124 . S
O751 Mg743 2.238 1_554 S
O751 C744 1.289 . S
C752 O753 1.245 . S
C752 O754 1.274 . S
O753 Mg740 2.085 1_655 S
O753 C752 1.245 . S
O754 Mg739 2.038 . S
O754 C752 1.274 . S
O755 Mg743 2.042 . S
O755 C758 1.241 . S
O756 Mg742 1.984 . S
O756 C758 1.280 . S
O757 Mg743 2.041 1_554 S
O757 C761 1.277 . S
C758 O755 1.241 . S
C758 O756 1.280 . S
O759 Mg742 1.988 1_554 S
O759 C761 1.245 . S
O760 C736 1.247 . S
O760 Mg742 2.061 1_655 S
C761 O757 1.277 . S
C761 O759 1.245 . S
O762 C736 1.289 . S
O762 Mg739 2.238 1_556 S
O762 Mg740 2.089 1_656 S
O763 Mg740 2.073 1_556 S
O763 C745 1.245 . S
O764 Mg743 2.038 . S
O764 C745 1.274 . S
C765 O777 1.241 . S
C765 O778 1.280 . S
C766 O779 1.277 . S
C766 O780 1.245 . S
C767 O791 1.247 . S
C767 O793 1.289 . S
Mg768 O769 1.926 . S
Mg768 O778 1.984 . S
Mg768 O780 1.988 1_554 S
Mg768 O781 2.061 . S
O769 Mg768 1.926 . S
O769 Mg770 1.986 . S
O769 Mg771 1.919 . S
Mg770 O769 1.986 . S
Mg770 O777 2.042 . S
Mg770 O779 2.041 1_554 S
Mg770 O785 2.038 . S
Mg770 O793 2.238 1_554 S
Mg771 O769 1.919 . S
Mg771 O772 1.915 1_554 S
Mg771 O782 2.111 . S
Mg771 O784 2.086 . S
Mg771 O793 2.101 1_554 S
Mg771 O794 2.071 1_554 S
O772 Mg771 1.915 1_556 S
O772 Mg773 1.926 . S
O772 Mg774 1.986 . S
Mg773 O772 1.926 . S
Mg773 O787 1.984 . S
Mg773 O790 1.988 1_556 S
Mg773 O791 2.061 . S
Mg774 O772 1.986 . S
Mg774 O782 2.238 1_556 S
Mg774 O786 2.042 . S
Mg774 O788 2.041 1_556 S
Mg774 O795 2.038 . S
C775 O781 1.247 . S
C775 O782 1.289 . S
C776 O794 1.245 . S
C776 O795 1.274 . S
O777 C765 1.241 . S
O777 Mg770 2.042 . S
O778 C765 1.280 . S
O778 Mg768 1.984 . S
O779 C766 1.277 . S
O779 Mg770 2.041 1_556 S
O780 C766 1.245 . S
O780 Mg768 1.988 1_556 S
O781 Mg768 2.061 . S
O781 C775 1.247 . S
O782 Mg771 2.111 . S
O782 Mg774 2.238 1_554 S
O782 C775 1.289 . S
C783 O784 1.245 . S
C783 O785 1.274 . S
O784 Mg771 2.086 . S
O784 C783 1.245 . S
O785 Mg770 2.038 . S
O785 C783 1.274 . S
O786 Mg774 2.042 . S
O786 C789 1.241 . S
O787 Mg773 1.984 . S
O787 C789 1.280 . S
O788 Mg774 2.041 1_554 S
O788 C792 1.277 . S
C789 O786 1.241 . S
C789 O787 1.280 . S
O790 Mg773 1.988 1_554 S
O790 C792 1.245 . S
O791 C767 1.247 . S
O791 Mg773 2.061 . S
C792 O788 1.277 . S
C792 O790 1.245 . S
O793 C767 1.289 . S
O793 Mg770 2.238 1_556 S
O793 Mg771 2.101 1_556 S
O794 Mg771 2.071 1_556 S
O794 C776 1.245 . S
O795 Mg774 2.038 . S
O795 C776 1.274 . S
C796 O808 1.241 . S
C796 O809 1.280 . S
C797 O810 1.277 . S
C797 O811 1.245 . S
C798 O822 1.247 . S
C798 O824 1.289 . S
Mg799 O800 1.926 . S
Mg799 O809 1.984 . S
Mg799 O811 1.988 . S
Mg799 O812 2.061 1_655 S
O800 Mg799 1.926 . S
O800 Mg801 1.986 . S
O800 Mg802 1.904 1_655 S
Mg801 O800 1.986 . S
Mg801 O808 2.042 . S
Mg801 O810 2.041 . S
Mg801 O816 2.038 . S
Mg801 O824 2.238 . S
Mg802 O800 1.904 1_455 S
Mg802 O803 1.930 . S
Mg802 O813 2.118 . S
Mg802 O815 2.077 1_455 S
Mg802 O824 2.095 1_455 S
Mg802 O825 2.081 . S
O803 Mg802 1.930 . S
O803 Mg804 1.926 . S
O803 Mg805 1.986 . S
Mg804 O803 1.926 . S
Mg804 O818 1.984 . S
Mg804 O821 1.988 . S
Mg804 O822 2.061 1_455 S
Mg805 O803 1.986 . S
Mg805 O813 2.238 . S
Mg805 O817 2.042 . S
Mg805 O819 2.041 . S
Mg805 O826 2.038 . S
C806 O812 1.247 . S
C806 O813 1.289 . S
C807 O825 1.245 . S
C807 O826 1.274 . S
O808 C796 1.241 . S
O808 Mg801 2.042 . S
O809 C796 1.280 . S
O809 Mg799 1.984 . S
O810 C797 1.277 . S
O810 Mg801 2.041 . S
O811 C797 1.245 . S
O811 Mg799 1.988 . S
O812 Mg799 2.061 1_455 S
O812 C806 1.247 . S
O813 Mg802 2.118 . S
O813 Mg805 2.238 . S
O813 C806 1.289 . S
C814 O815 1.245 . S
C814 O816 1.274 . S
O815 Mg802 2.077 1_655 S
O815 C814 1.245 . S
O816 Mg801 2.038 . S
O816 C814 1.274 . S
O817 Mg805 2.042 . S
O817 C820 1.241 . S
O818 Mg804 1.984 . S
O818 C820 1.280 . S
O819 Mg805 2.041 . S
O819 C823 1.277 . S
C820 O817 1.241 . S
C820 O818 1.280 . S
O821 Mg804 1.988 . S
O821 C823 1.245 . S
O822 C798 1.247 . S
O822 Mg804 2.061 1_655 S
C823 O819 1.277 . S
C823 O821 1.245 . S
O824 C798 1.289 . S
O824 Mg801 2.238 . S
O824 Mg802 2.095 1_655 S
O825 Mg802 2.081 . S
O825 C807 1.245 . S
O826 Mg805 2.038 . S
O826 C807 1.274 . S
C827 O839 1.241 . S
C827 O840 1.280 . S
C828 O841 1.277 . S
C828 O842 1.245 . S
C829 O853 1.247 . S
C829 O855 1.289 . S
Mg830 O831 1.926 . S
Mg830 O840 1.984 . S
Mg830 O842 1.988 . S
Mg830 O843 2.061 . S
O831 Mg830 1.926 . S
O831 Mg832 1.986 1_545 S
O831 Mg833 1.918 . S
Mg832 O831 1.986 1_565 S
Mg832 O839 2.042 1_565 S
Mg832 O841 2.041 1_565 S
Mg832 O847 2.038 . S
Mg832 O855 2.238 . S
Mg833 O831 1.918 . S
Mg833 O834 1.916 1_545 S
Mg833 O844 2.106 . S
Mg833 O846 2.078 1_545 S
Mg833 O855 2.106 1_545 S
Mg833 O856 2.079 . S
O834 Mg833 1.916 1_565 S
O834 Mg835 1.926 . S
O834 Mg836 1.986 1_565 S
Mg835 O834 1.926 . S
Mg835 O849 1.984 . S
Mg835 O852 1.988 . S
Mg835 O853 2.061 . S
Mg836 O834 1.986 1_545 S
Mg836 O844 2.238 . S
Mg836 O848 2.042 1_545 S
Mg836 O850 2.041 1_545 S
Mg836 O857 2.038 . S
C837 O843 1.247 . S
C837 O844 1.289 . S
C838 O856 1.245 . S
C838 O857 1.274 . S
O839 C827 1.241 . S
O839 Mg832 2.042 1_545 S
O840 C827 1.280 . S
O840 Mg830 1.984 . S
O841 C828 1.277 . S
O841 Mg832 2.041 1_545 S
O842 C828 1.245 . S
O842 Mg830 1.988 . S
O843 Mg830 2.061 . S
O843 C837 1.247 . S
O844 Mg833 2.106 . S
O844 Mg836 2.238 . S
O844 C837 1.289 . S
C845 O846 1.245 . S
C845 O847 1.274 . S
O846 Mg833 2.078 1_565 S
O846 C845 1.245 . S
O847 Mg832 2.038 . S
O847 C845 1.274 . S
O848 Mg836 2.042 1_565 S
O848 C851 1.241 . S
O849 Mg835 1.984 . S
O849 C851 1.280 . S
O850 Mg836 2.041 1_565 S
O850 C854 1.277 . S
C851 O848 1.241 . S
C851 O849 1.280 . S
O852 Mg835 1.988 . S
O852 C854 1.245 . S
O853 C829 1.247 . S
O853 Mg835 2.061 . S
C854 O850 1.277 . S
C854 O852 1.245 . S
O855 C829 1.289 . S
O855 Mg832 2.238 . S
O855 Mg833 2.106 1_565 S
O856 Mg833 2.079 . S
O856 C838 1.245 . S
O857 Mg836 2.038 . S
O857 C838 1.274 . S
H858 C864 0.930 . S
H859 C867 0.930 . S
H860 C868 0.930 . S
H861 C869 0.930 . S
H862 C872 0.930 . S
H863 C873 0.930 . S
C864 H858 0.930 . S
C864 C865 1.355 . S
C864 C866 1.415 . S
C865 C864 1.355 . S
C865 C867 1.419 . S
C866 C864 1.415 . S
C866 C871 1.425 . S
C866 C873 1.409 . S
C867 H859 0.930 . S
C867 C865 1.419 . S
C867 C868 1.362 . S
C868 H860 0.930 . S
C868 C867 1.362 . S
C868 C871 1.409 . S
C869 H861 0.930 . S
C869 C870 1.355 . S
C869 C871 1.415 . S
C870 C869 1.355 . S
C870 C872 1.419 . S
C871 C866 1.425 . S
C871 C868 1.409 . S
C871 C869 1.415 . S
C872 H862 0.930 . S
C872 C870 1.419 . S
C872 C873 1.362 . S
C873 H863 0.930 . S
C873 C866 1.409 . S
C873 C872 1.362 . S
H874 C880 0.930 . S
H875 C883 0.930 . S
H876 C884 0.930 . S
H877 C885 0.930 . S
H878 C888 0.930 . S
H879 C889 0.930 . S
C880 H874 0.930 . S
C880 C881 1.355 . S
C880 C882 1.415 . S
C881 C880 1.355 . S
C881 C883 1.419 . S
C882 C880 1.415 . S
C882 C887 1.425 . S
C882 C889 1.409 . S
C883 H875 0.930 . S
C883 C881 1.419 . S
C883 C884 1.362 . S
C884 H876 0.930 . S
C884 C883 1.362 . S
C884 C887 1.409 . S
C885 H877 0.930 . S
C885 C886 1.355 . S
C885 C887 1.415 . S
C886 C885 1.355 . S
C886 C888 1.419 . S
C887 C882 1.425 . S
C887 C884 1.409 . S
C887 C885 1.415 . S
C888 H878 0.930 . S
C888 C886 1.419 . S
C888 C889 1.362 . S
C889 H879 0.930 . S
C889 C882 1.409 . S
C889 C888 1.362 . S
H890 C896 0.930 . S
H891 C899 0.930 . S
H892 C900 0.930 . S
H893 C901 0.930 . S
H894 C904 0.930 . S
H895 C905 0.930 . S
C896 H890 0.930 . S
C896 C897 1.355 . S
C896 C898 1.415 . S
C897 C896 1.355 . S
C897 C899 1.419 . S
C898 C896 1.415 . S
C898 C903 1.425 . S
C898 C905 1.409 . S
C899 H891 0.930 . S
C899 C897 1.419 . S
C899 C900 1.362 . S
C900 H892 0.930 . S
C900 C899 1.362 . S
C900 C903 1.409 . S
C901 H893 0.930 . S
C901 C902 1.355 . S
C901 C903 1.415 . S
C902 C901 1.355 . S
C902 C904 1.419 . S
C903 C898 1.425 . S
C903 C900 1.409 . S
C903 C901 1.415 . S
C904 H894 0.930 . S
C904 C902 1.419 . S
C904 C905 1.362 . S
C905 H895 0.930 . S
C905 C898 1.409 . S
C905 C904 1.362 . S
H906 C912 0.930 . S
H907 C915 0.930 . S
H908 C916 0.930 . S
H909 C917 0.930 . S
H910 C920 0.930 . S
H911 C921 0.930 . S
C912 H906 0.930 . S
C912 C913 1.355 . S
C912 C914 1.415 . S
C913 C912 1.355 . S
C913 C915 1.419 . S
C914 C912 1.415 . S
C914 C919 1.425 . S
C914 C921 1.409 . S
C915 H907 0.930 . S
C915 C913 1.419 . S
C915 C916 1.362 . S
C916 H908 0.930 . S
C916 C915 1.362 . S
C916 C919 1.409 . S
C917 H909 0.930 . S
C917 C918 1.355 . S
C917 C919 1.415 . S
C918 C917 1.355 . S
C918 C920 1.419 . S
C919 C914 1.425 . S
C919 C916 1.409 . S
C919 C917 1.415 . S
C920 H910 0.930 . S
C920 C918 1.419 . S
C920 C921 1.362 . S
C921 H911 0.930 . S
C921 C914 1.409 . S
C921 C920 1.362 . S
H922 C928 0.930 . S
H923 C931 0.930 . S
H924 C932 0.930 . S
H925 C933 0.930 . S
H926 C936 0.930 . S
H927 C937 0.930 . S
C928 H922 0.930 . S
C928 C929 1.355 . S
C928 C930 1.415 . S
C929 C928 1.355 . S
C929 C931 1.419 . S
C930 C928 1.415 . S
C930 C935 1.425 . S
C930 C937 1.409 . S
C931 H923 0.930 . S
C931 C929 1.419 . S
C931 C932 1.362 . S
C932 H924 0.930 . S
C932 C931 1.362 . S
C932 C935 1.409 . S
C933 H925 0.930 . S
C933 C934 1.355 . S
C933 C935 1.415 . S
C934 C933 1.355 . S
C934 C936 1.419 . S
C935 C930 1.425 . S
C935 C932 1.409 . S
C935 C933 1.415 . S
C936 H926 0.930 . S
C936 C934 1.419 . S
C936 C937 1.362 . S
C937 H927 0.930 . S
C937 C930 1.409 . S
C937 C936 1.362 . S
H938 C944 0.930 . S
H939 C947 0.930 . S
H940 C948 0.930 . S
H941 C949 0.930 . S
H942 C952 0.930 . S
H943 C953 0.930 . S
C944 H938 0.930 . S
C944 C945 1.355 . S
C944 C946 1.415 . S
C945 C944 1.355 . S
C945 C947 1.419 . S
C946 C944 1.415 . S
C946 C951 1.425 . S
C946 C953 1.409 . S
C947 H939 0.930 . S
C947 C945 1.419 . S
C947 C948 1.362 . S
C948 H940 0.930 . S
C948 C947 1.362 . S
C948 C951 1.409 . S
C949 H941 0.930 . S
C949 C950 1.355 . S
C949 C951 1.415 . S
C950 C949 1.355 . S
C950 C952 1.419 . S
C951 C946 1.425 . S
C951 C948 1.409 . S
C951 C949 1.415 . S
C952 H942 0.930 . S
C952 C950 1.419 . S
C952 C953 1.362 . S
C953 H943 0.930 . S
C953 C946 1.409 . S
C953 C952 1.362 . S
H954 C960 0.930 . S
H955 C963 0.930 . S
H956 C964 0.930 . S
H957 C965 0.930 . S
H958 C968 0.930 . S
H959 C969 0.930 . S
C960 H954 0.930 . S
C960 C961 1.355 . S
C960 C962 1.415 . S
C961 C960 1.355 . S
C961 C963 1.419 . S
C962 C960 1.415 . S
C962 C967 1.425 . S
C962 C969 1.409 . S
C963 H955 0.930 . S
C963 C961 1.419 . S
C963 C964 1.362 . S
C964 H956 0.930 . S
C964 C963 1.362 . S
C964 C967 1.409 . S
C965 H957 0.930 . S
C965 C966 1.355 . S
C965 C967 1.415 . S
C966 C965 1.355 . S
C966 C968 1.419 . S
C967 C962 1.425 . S
C967 C964 1.409 . S
C967 C965 1.415 . S
C968 H958 0.930 . S
C968 C966 1.419 . S
C968 C969 1.362 . S
C969 H959 0.930 . S
C969 C962 1.409 . S
C969 C968 1.362 . S
H970 C976 0.930 . S
H971 C979 0.930 . S
H972 C980 0.930 . S
H973 C981 0.930 . S
H974 C984 0.930 . S
H975 C985 0.930 . S
C976 H970 0.930 . S
C976 C977 1.355 . S
C976 C978 1.415 . S
C977 C976 1.355 . S
C977 C979 1.419 . S
C978 C976 1.415 . S
C978 C983 1.425 . S
C978 C985 1.409 . S
C979 H971 0.930 . S
C979 C977 1.419 . S
C979 C980 1.362 . S
C980 H972 0.930 . S
C980 C979 1.362 . S
C980 C983 1.409 . S
C981 H973 0.930 . S
C981 C982 1.355 . S
C981 C983 1.415 . S
C982 C981 1.355 . S
C982 C984 1.419 . S
C983 C978 1.425 . S
C983 C980 1.409 . S
C983 C981 1.415 . S
C984 H974 0.930 . S
C984 C982 1.419 . S
C984 C985 1.362 . S
C985 H975 0.930 . S
C985 C978 1.409 . S
C985 C984 1.362 . S
H986 C992 0.930 . S
H987 C995 0.930 . S
H988 C996 0.930 . S
H989 C997 0.930 . S
H990 C1000 0.930 . S
H991 C1001 0.930 . S
C992 H986 0.930 . S
C992 C993 1.355 . S
C992 C994 1.415 . S
C993 C992 1.355 . S
C993 C995 1.419 . S
C994 C992 1.415 . S
C994 C999 1.425 . S
C994 C1001 1.409 . S
C995 H987 0.930 . S
C995 C993 1.419 . S
C995 C996 1.362 . S
C996 H988 0.930 . S
C996 C995 1.362 . S
C996 C999 1.409 . S
C997 H989 0.930 . S
C997 C998 1.355 . S
C997 C999 1.415 . S
C998 C997 1.355 . S
C998 C1000 1.419 . S
C999 C994 1.425 . S
C999 C996 1.409 . S
C999 C997 1.415 . S
C1000 H990 0.930 . S
C1000 C998 1.419 . S
C1000 C1001 1.362 . S
C1001 H991 0.930 . S
C1001 C994 1.409 . S
C1001 C1000 1.362 . S
H1002 C1008 0.930 . S
H1003 C1011 0.930 . S
H1004 C1012 0.930 . S
H1005 C1013 0.930 . S
H1006 C1016 0.930 . S
H1007 C1017 0.930 . S
C1008 H1002 0.930 . S
C1008 C1009 1.355 . S
C1008 C1010 1.415 . S
C1009 C1008 1.355 . S
C1009 C1011 1.419 . S
C1010 C1008 1.415 . S
C1010 C1015 1.425 . S
C1010 C1017 1.409 . S
C1011 H1003 0.930 . S
C1011 C1009 1.419 . S
C1011 C1012 1.362 . S
C1012 H1004 0.930 . S
C1012 C1011 1.362 . S
C1012 C1015 1.409 . S
C1013 H1005 0.930 . S
C1013 C1014 1.355 . S
C1013 C1015 1.415 . S
C1014 C1013 1.355 . S
C1014 C1016 1.419 . S
C1015 C1010 1.425 . S
C1015 C1012 1.409 . S
C1015 C1013 1.415 . S
C1016 H1006 0.930 . S
C1016 C1014 1.419 . S
C1016 C1017 1.362 . S
C1017 H1007 0.930 . S
C1017 C1010 1.409 . S
C1017 C1016 1.362 . S
H1018 C1024 0.930 . S
H1019 C1027 0.930 . S
H1020 C1028 0.930 . S
H1021 C1029 0.930 . S
H1022 C1032 0.930 . S
H1023 C1033 0.930 . S
C1024 H1018 0.930 . S
C1024 C1025 1.355 . S
C1024 C1026 1.415 . S
C1025 C1024 1.355 . S
C1025 C1027 1.419 . S
C1026 C1024 1.415 . S
C1026 C1031 1.425 . S
C1026 C1033 1.409 . S
C1027 H1019 0.930 . S
C1027 C1025 1.419 . S
C1027 C1028 1.362 . S
C1028 H1020 0.930 . S
C1028 C1027 1.362 . S
C1028 C1031 1.409 . S
C1029 H1021 0.930 . S
C1029 C1030 1.355 . S
C1029 C1031 1.415 . S
C1030 C1029 1.355 . S
C1030 C1032 1.419 . S
C1031 C1026 1.425 . S
C1031 C1028 1.409 . S
C1031 C1029 1.415 . S
C1032 H1022 0.930 . S
C1032 C1030 1.419 . S
C1032 C1033 1.362 . S
C1033 H1023 0.930 . S
C1033 C1026 1.409 . S
C1033 C1032 1.362 . S
H1034 C1040 0.930 . S
H1035 C1043 0.930 . S
H1036 C1044 0.930 . S
H1037 C1045 0.930 . S
H1038 C1048 0.930 . S
H1039 C1049 0.930 . S
C1040 H1034 0.930 . S
C1040 C1041 1.355 . S
C1040 C1042 1.415 . S
C1041 C1040 1.355 . S
C1041 C1043 1.419 . S
C1042 C1040 1.415 . S
C1042 C1047 1.425 . S
C1042 C1049 1.409 . S
C1043 H1035 0.930 . S
C1043 C1041 1.419 . S
C1043 C1044 1.362 . S
C1044 H1036 0.930 . S
C1044 C1043 1.362 . S
C1044 C1047 1.409 . S
C1045 H1037 0.930 . S
C1045 C1046 1.355 . S
C1045 C1047 1.415 . S
C1046 C1045 1.355 . S
C1046 C1048 1.419 . S
C1047 C1042 1.425 . S
C1047 C1044 1.409 . S
C1047 C1045 1.415 . S
C1048 H1038 0.930 . S
C1048 C1046 1.419 . S
C1048 C1049 1.362 . S
C1049 H1039 0.930 . S
C1049 C1042 1.409 . S
C1049 C1048 1.362 . S
H1050 C1056 0.930 . S
H1051 C1059 0.930 . S
H1052 C1060 0.930 . S
H1053 C1061 0.930 . S
H1054 C1064 0.930 . S
H1055 C1065 0.930 . S
C1056 H1050 0.930 . S
C1056 C1057 1.355 . S
C1056 C1058 1.415 . S
C1057 C1056 1.355 . S
C1057 C1059 1.419 . S
C1058 C1056 1.415 . S
C1058 C1063 1.425 . S
C1058 C1065 1.409 . S
C1059 H1051 0.930 . S
C1059 C1057 1.419 . S
C1059 C1060 1.362 . S
C1060 H1052 0.930 . S
C1060 C1059 1.362 . S
C1060 C1063 1.409 . S
C1061 H1053 0.930 . S
C1061 C1062 1.355 . S
C1061 C1063 1.415 . S
C1062 C1061 1.355 . S
C1062 C1064 1.419 . S
C1063 C1058 1.425 . S
C1063 C1060 1.409 . S
C1063 C1061 1.415 . S
C1064 H1054 0.930 . S
C1064 C1062 1.419 . S
C1064 C1065 1.362 . S
C1065 H1055 0.930 . S
C1065 C1058 1.409 . S
C1065 C1064 1.362 . S
H1066 C1072 0.930 . S
H1067 C1075 0.930 . S
H1068 C1076 0.930 . S
H1069 C1077 0.930 . S
H1070 C1080 0.930 . S
H1071 C1081 0.930 . S
C1072 H1066 0.930 . S
C1072 C1073 1.355 . S
C1072 C1074 1.415 . S
C1073 C1072 1.355 . S
C1073 C1075 1.419 . S
C1074 C1072 1.415 . S
C1074 C1079 1.425 . S
C1074 C1081 1.409 . S
C1075 H1067 0.930 . S
C1075 C1073 1.419 . S
C1075 C1076 1.362 . S
C1076 H1068 0.930 . S
C1076 C1075 1.362 . S
C1076 C1079 1.409 . S
C1077 H1069 0.930 . S
C1077 C1078 1.355 . S
C1077 C1079 1.415 . S
C1078 C1077 1.355 . S
C1078 C1080 1.419 . S
C1079 C1074 1.425 . S
C1079 C1076 1.409 . S
C1079 C1077 1.415 . S
C1080 H1070 0.930 . S
C1080 C1078 1.419 . S
C1080 C1081 1.362 . S
C1081 H1071 0.930 . S
C1081 C1074 1.409 . S
C1081 C1080 1.362 . S
H1082 C1088 0.930 . S
H1083 C1091 0.930 . S
H1084 C1092 0.930 . S
H1085 C1093 0.930 . S
H1086 C1096 0.930 . S
H1087 C1097 0.930 . S
C1088 H1082 0.930 . S
C1088 C1089 1.355 . S
C1088 C1090 1.415 . S
C1089 C1088 1.355 . S
C1089 C1091 1.419 . S
C1090 C1088 1.415 . S
C1090 C1095 1.425 . S
C1090 C1097 1.409 . S
C1091 H1083 0.930 . S
C1091 C1089 1.419 . S
C1091 C1092 1.362 . S
C1092 H1084 0.930 . S
C1092 C1091 1.362 . S
C1092 C1095 1.409 . S
C1093 H1085 0.930 . S
C1093 C1094 1.355 . S
C1093 C1095 1.415 . S
C1094 C1093 1.355 . S
C1094 C1096 1.419 . S
C1095 C1090 1.425 . S
C1095 C1092 1.409 . S
C1095 C1093 1.415 . S
C1096 H1086 0.930 . S
C1096 C1094 1.419 . S
C1096 C1097 1.362 . S
C1097 H1087 0.930 . S
C1097 C1090 1.409 . S
C1097 C1096 1.362 . S
H1098 C1104 0.930 . S
H1099 C1107 0.930 . S
H1100 C1108 0.930 . S
H1101 C1109 0.930 . S
H1102 C1112 0.930 . S
H1103 C1113 0.930 . S
C1104 H1098 0.930 . S
C1104 C1105 1.355 . S
C1104 C1106 1.415 . S
C1105 C1104 1.355 . S
C1105 C1107 1.419 . S
C1106 C1104 1.415 . S
C1106 C1111 1.425 . S
C1106 C1113 1.409 . S
C1107 H1099 0.930 . S
C1107 C1105 1.419 . S
C1107 C1108 1.362 . S
C1108 H1100 0.930 . S
C1108 C1107 1.362 . S
C1108 C1111 1.409 . S
C1109 H1101 0.930 . S
C1109 C1110 1.355 . S
C1109 C1111 1.415 . S
C1110 C1109 1.355 . S
C1110 C1112 1.419 . S
C1111 C1106 1.425 . S
C1111 C1108 1.409 . S
C1111 C1109 1.415 . S
C1112 H1102 0.930 . S
C1112 C1110 1.419 . S
C1112 C1113 1.362 . S
C1113 H1103 0.930 . S
C1113 C1106 1.409 . S
C1113 C1112 1.362 . S
H1114 C1120 0.930 . S
H1115 C1123 0.930 . S
H1116 C1124 0.930 . S
H1117 C1125 0.930 . S
H1118 C1128 0.930 . S
H1119 C1129 0.930 . S
C1120 H1114 0.930 . S
C1120 C1121 1.355 . S
C1120 C1122 1.415 . S
C1121 C1120 1.355 . S
C1121 C1123 1.419 . S
C1122 C1120 1.415 . S
C1122 C1127 1.425 . S
C1122 C1129 1.409 . S
C1123 H1115 0.930 . S
C1123 C1121 1.419 . S
C1123 C1124 1.362 . S
C1124 H1116 0.930 . S
C1124 C1123 1.362 . S
C1124 C1127 1.409 . S
C1125 H1117 0.930 . S
C1125 C1126 1.355 . S
C1125 C1127 1.415 . S
C1126 C1125 1.355 . S
C1126 C1128 1.419 . S
C1127 C1122 1.425 . S
C1127 C1124 1.409 . S
C1127 C1125 1.415 . S
C1128 H1118 0.930 . S
C1128 C1126 1.419 . S
C1128 C1129 1.362 . S
C1129 H1119 0.930 . S
C1129 C1122 1.409 . S
C1129 C1128 1.362 . S
H1130 C1136 0.930 . S
H1131 C1139 0.930 . S
H1132 C1140 0.930 . S
H1133 C1141 0.930 . S
H1134 C1144 0.930 . S
H1135 C1145 0.930 . S
C1136 H1130 0.930 . S
C1136 C1137 1.355 . S
C1136 C1138 1.415 . S
C1137 C1136 1.355 . S
C1137 C1139 1.419 . S
C1138 C1136 1.415 . S
C1138 C1143 1.425 . S
C1138 C1145 1.409 . S
C1139 H1131 0.930 . S
C1139 C1137 1.419 . S
C1139 C1140 1.362 . S
C1140 H1132 0.930 . S
C1140 C1139 1.362 . S
C1140 C1143 1.409 . S
C1141 H1133 0.930 . S
C1141 C1142 1.355 . S
C1141 C1143 1.415 . S
C1142 C1141 1.355 . S
C1142 C1144 1.419 . S
C1143 C1138 1.425 . S
C1143 C1140 1.409 . S
C1143 C1141 1.415 . S
C1144 H1134 0.930 . S
C1144 C1142 1.419 . S
C1144 C1145 1.362 . S
C1145 H1135 0.930 . S
C1145 C1138 1.409 . S
C1145 C1144 1.362 . S
H1146 C1152 0.930 . S
H1147 C1155 0.930 . S
H1148 C1156 0.930 . S
H1149 C1157 0.930 . S
H1150 C1160 0.930 . S
H1151 C1161 0.930 . S
C1152 H1146 0.930 . S
C1152 C1153 1.355 . S
C1152 C1154 1.415 . S
C1153 C1152 1.355 . S
C1153 C1155 1.419 . S
C1154 C1152 1.415 . S
C1154 C1159 1.425 . S
C1154 C1161 1.409 . S
C1155 H1147 0.930 . S
C1155 C1153 1.419 . S
C1155 C1156 1.362 . S
C1156 H1148 0.930 . S
C1156 C1155 1.362 . S
C1156 C1159 1.409 . S
C1157 H1149 0.930 . S
C1157 C1158 1.355 . S
C1157 C1159 1.415 . S
C1158 C1157 1.355 . S
C1158 C1160 1.419 . S
C1159 C1154 1.425 . S
C1159 C1156 1.409 . S
C1159 C1157 1.415 . S
C1160 H1150 0.930 . S
C1160 C1158 1.419 . S
C1160 C1161 1.362 . S
C1161 H1151 0.930 . S
C1161 C1154 1.409 . S
C1161 C1160 1.362 . S
H1162 C1168 0.930 . S
H1163 C1171 0.930 . S
H1164 C1172 0.930 . S
H1165 C1173 0.930 . S
H1166 C1176 0.930 . S
H1167 C1177 0.930 . S
C1168 H1162 0.930 . S
C1168 C1169 1.355 . S
C1168 C1170 1.415 . S
C1169 C1168 1.355 . S
C1169 C1171 1.419 . S
C1170 C1168 1.415 . S
C1170 C1175 1.425 . S
C1170 C1177 1.409 . S
C1171 H1163 0.930 . S
C1171 C1169 1.419 . S
C1171 C1172 1.362 . S
C1172 H1164 0.930 . S
C1172 C1171 1.362 . S
C1172 C1175 1.409 . S
C1173 H1165 0.930 . S
C1173 C1174 1.355 . S
C1173 C1175 1.415 . S
C1174 C1173 1.355 . S
C1174 C1176 1.419 . S
C1175 C1170 1.425 . S
C1175 C1172 1.409 . S
C1175 C1173 1.415 . S
C1176 H1166 0.930 . S
C1176 C1174 1.419 . S
C1176 C1177 1.362 . S
C1177 H1167 0.930 . S
C1177 C1170 1.409 . S
C1177 C1176 1.362 . S
H1178 C1184 0.930 . S
H1179 C1187 0.930 . S
H1180 C1188 0.930 . S
H1181 C1189 0.930 . S
H1182 C1192 0.930 . S
H1183 C1193 0.930 . S
C1184 H1178 0.930 . S
C1184 C1185 1.355 . S
C1184 C1186 1.415 . S
C1185 C1184 1.355 . S
C1185 C1187 1.419 . S
C1186 C1184 1.415 . S
C1186 C1191 1.425 . S
C1186 C1193 1.409 . S
C1187 H1179 0.930 . S
C1187 C1185 1.419 . S
C1187 C1188 1.362 . S
C1188 H1180 0.930 . S
C1188 C1187 1.362 . S
C1188 C1191 1.409 . S
C1189 H1181 0.930 . S
C1189 C1190 1.355 . S
C1189 C1191 1.415 . S
C1190 C1189 1.355 . S
C1190 C1192 1.419 . S
C1191 C1186 1.425 . S
C1191 C1188 1.409 . S
C1191 C1189 1.415 . S
C1192 H1182 0.930 . S
C1192 C1190 1.419 . S
C1192 C1193 1.362 . S
C1193 H1183 0.930 . S
C1193 C1186 1.409 . S
C1193 C1192 1.362 . S
H1194 C1200 0.930 . S
H1195 C1203 0.930 . S
H1196 C1204 0.930 . S
H1197 C1205 0.930 . S
H1198 C1208 0.930 . S
H1199 C1209 0.930 . S
C1200 H1194 0.930 . S
C1200 C1201 1.355 . S
C1200 C1202 1.415 . S
C1201 C1200 1.355 . S
C1201 C1203 1.419 . S
C1202 C1200 1.415 . S
C1202 C1207 1.425 . S
C1202 C1209 1.409 . S
C1203 H1195 0.930 . S
C1203 C1201 1.419 . S
C1203 C1204 1.362 . S
C1204 H1196 0.930 . S
C1204 C1203 1.362 . S
C1204 C1207 1.409 . S
C1205 H1197 0.930 . S
C1205 C1206 1.355 . S
C1205 C1207 1.415 . S
C1206 C1205 1.355 . S
C1206 C1208 1.419 . S
C1207 C1202 1.425 . S
C1207 C1204 1.409 . S
C1207 C1205 1.415 . S
C1208 H1198 0.930 . S
C1208 C1206 1.419 . S
C1208 C1209 1.362 . S
C1209 H1199 0.930 . S
C1209 C1202 1.409 . S
C1209 C1208 1.362 . S
H1210 C1216 0.930 . S
H1211 C1219 0.930 . S
H1212 C1220 0.930 . S
H1213 C1221 0.930 . S
H1214 C1224 0.930 . S
H1215 C1225 0.930 . S
C1216 H1210 0.930 . S
C1216 C1217 1.355 . S
C1216 C1218 1.415 . S
C1217 C1216 1.355 . S
C1217 C1219 1.419 . S
C1218 C1216 1.415 . S
C1218 C1223 1.425 . S
C1218 C1225 1.409 . S
C1219 H1211 0.930 . S
C1219 C1217 1.419 . S
C1219 C1220 1.362 . S
C1220 H1212 0.930 . S
C1220 C1219 1.362 . S
C1220 C1223 1.409 . S
C1221 H1213 0.930 . S
C1221 C1222 1.355 . S
C1221 C1223 1.415 . S
C1222 C1221 1.355 . S
C1222 C1224 1.419 . S
C1223 C1218 1.425 . S
C1223 C1220 1.409 . S
C1223 C1221 1.415 . S
C1224 H1214 0.930 . S
C1224 C1222 1.419 . S
C1224 C1225 1.362 . S
C1225 H1215 0.930 . S
C1225 C1218 1.409 . S
C1225 C1224 1.362 . S
H1226 C1232 0.930 . S
H1227 C1235 0.930 . S
H1228 C1236 0.930 . S
H1229 C1237 0.930 . S
H1230 C1240 0.930 . S
H1231 C1241 0.930 . S
C1232 H1226 0.930 . S
C1232 C1233 1.355 . S
C1232 C1234 1.415 . S
C1233 C1232 1.355 . S
C1233 C1235 1.419 . S
C1234 C1232 1.415 . S
C1234 C1239 1.425 . S
C1234 C1241 1.409 . S
C1235 H1227 0.930 . S
C1235 C1233 1.419 . S
C1235 C1236 1.362 . S
C1236 H1228 0.930 . S
C1236 C1235 1.362 . S
C1236 C1239 1.409 . S
C1237 H1229 0.930 . S
C1237 C1238 1.355 . S
C1237 C1239 1.415 . S
C1238 C1237 1.355 . S
C1238 C1240 1.419 . S
C1239 C1234 1.425 . S
C1239 C1236 1.409 . S
C1239 C1237 1.415 . S
C1240 H1230 0.930 . S
C1240 C1238 1.419 . S
C1240 C1241 1.362 . S
C1241 H1231 0.930 . S
C1241 C1234 1.409 . S
C1241 C1240 1.362 . S
H1242 C1248 0.930 . S
H1243 C1251 0.930 . S
H1244 C1252 0.930 . S
H1245 C1253 0.930 . S
H1246 C1256 0.930 . S
H1247 C1257 0.930 . S
C1248 H1242 0.930 . S
C1248 C1249 1.355 . S
C1248 C1250 1.415 . S
C1249 C1248 1.355 . S
C1249 C1251 1.419 . S
C1250 C1248 1.415 . S
C1250 C1255 1.425 . S
C1250 C1257 1.409 . S
C1251 H1243 0.930 . S
C1251 C1249 1.419 . S
C1251 C1252 1.362 . S
C1252 H1244 0.930 . S
C1252 C1251 1.362 . S
C1252 C1255 1.409 . S
C1253 H1245 0.930 . S
C1253 C1254 1.355 . S
C1253 C1255 1.415 . S
C1254 C1253 1.355 . S
C1254 C1256 1.419 . S
C1255 C1250 1.425 . S
C1255 C1252 1.409 . S
C1255 C1253 1.415 . S
C1256 H1246 0.930 . S
C1256 C1254 1.419 . S
C1256 C1257 1.362 . S
C1257 H1247 0.930 . S
C1257 C1250 1.409 . S
C1257 C1256 1.362 . S
H1258 C1264 0.930 . S
H1259 C1267 0.930 . S
H1260 C1268 0.930 . S
H1261 C1269 0.930 . S
H1262 C1272 0.930 . S
H1263 C1273 0.930 . S
C1264 H1258 0.930 . S
C1264 C1265 1.355 . S
C1264 C1266 1.415 . S
C1265 C1264 1.355 . S
C1265 C1267 1.419 . S
C1266 C1264 1.415 . S
C1266 C1271 1.425 . S
C1266 C1273 1.409 . S
C1267 H1259 0.930 . S
C1267 C1265 1.419 . S
C1267 C1268 1.362 . S
C1268 H1260 0.930 . S
C1268 C1267 1.362 . S
C1268 C1271 1.409 . S
C1269 H1261 0.930 . S
C1269 C1270 1.355 . S
C1269 C1271 1.415 . S
C1270 C1269 1.355 . S
C1270 C1272 1.419 . S
C1271 C1266 1.425 . S
C1271 C1268 1.409 . S
C1271 C1269 1.415 . S
C1272 H1262 0.930 . S
C1272 C1270 1.419 . S
C1272 C1273 1.362 . S
C1273 H1263 0.930 . S
C1273 C1266 1.409 . S
C1273 C1272 1.362 . S
H1274 C1280 0.930 . S
H1275 C1283 0.930 . S
H1276 C1284 0.930 . S
H1277 C1285 0.930 . S
H1278 C1288 0.930 . S
H1279 C1289 0.930 . S
C1280 H1274 0.930 . S
C1280 C1281 1.355 . S
C1280 C1282 1.415 . S
C1281 C1280 1.355 . S
C1281 C1283 1.419 . S
C1282 C1280 1.415 . S
C1282 C1287 1.425 . S
C1282 C1289 1.409 . S
C1283 H1275 0.930 . S
C1283 C1281 1.419 . S
C1283 C1284 1.362 . S
C1284 H1276 0.930 . S
C1284 C1283 1.362 . S
C1284 C1287 1.409 . S
C1285 H1277 0.930 . S
C1285 C1286 1.355 . S
C1285 C1287 1.415 . S
C1286 C1285 1.355 . S
C1286 C1288 1.419 . S
C1287 C1282 1.425 . S
C1287 C1284 1.409 . S
C1287 C1285 1.415 . S
C1288 H1278 0.930 . S
C1288 C1286 1.419 . S
C1288 C1289 1.362 . S
C1289 H1279 0.930 . S
C1289 C1282 1.409 . S
C1289 C1288 1.362 . S
H1290 C1296 0.930 . S
H1291 C1299 0.930 . S
H1292 C1300 0.930 . S
H1293 C1301 0.930 . S
H1294 C1304 0.930 . S
H1295 C1305 0.930 . S
C1296 H1290 0.930 . S
C1296 C1297 1.355 . S
C1296 C1298 1.415 . S
C1297 C1296 1.355 . S
C1297 C1299 1.419 . S
C1298 C1296 1.415 . S
C1298 C1303 1.425 . S
C1298 C1305 1.409 . S
C1299 H1291 0.930 . S
C1299 C1297 1.419 . S
C1299 C1300 1.362 . S
C1300 H1292 0.930 . S
C1300 C1299 1.362 . S
C1300 C1303 1.409 . S
C1301 H1293 0.930 . S
C1301 C1302 1.355 . S
C1301 C1303 1.415 . S
C1302 C1301 1.355 . S
C1302 C1304 1.419 . S
C1303 C1298 1.425 . S
C1303 C1300 1.409 . S
C1303 C1301 1.415 . S
C1304 H1294 0.930 . S
C1304 C1302 1.419 . S
C1304 C1305 1.362 . S
C1305 H1295 0.930 . S
C1305 C1298 1.409 . S
C1305 C1304 1.362 . S
H1306 C1312 0.930 . S
H1307 C1315 0.930 . S
H1308 C1316 0.930 . S
H1309 C1317 0.930 . S
H1310 C1320 0.930 . S
H1311 C1321 0.930 . S
C1312 H1306 0.930 . S
C1312 C1313 1.355 . S
C1312 C1314 1.415 . S
C1313 C1312 1.355 . S
C1313 C1315 1.419 . S
C1314 C1312 1.415 . S
C1314 C1319 1.425 . S
C1314 C1321 1.409 . S
C1315 H1307 0.930 . S
C1315 C1313 1.419 . S
C1315 C1316 1.362 . S
C1316 H1308 0.930 . S
C1316 C1315 1.362 . S
C1316 C1319 1.409 . S
C1317 H1309 0.930 . S
C1317 C1318 1.355 . S
C1317 C1319 1.415 . S
C1318 C1317 1.355 . S
C1318 C1320 1.419 . S
C1319 C1314 1.425 . S
C1319 C1316 1.409 . S
C1319 C1317 1.415 . S
C1320 H1310 0.930 . S
C1320 C1318 1.419 . S
C1320 C1321 1.362 . S
C1321 H1311 0.930 . S
C1321 C1314 1.409 . S
C1321 C1320 1.362 . S
H1322 C1328 0.930 . S
H1323 C1331 0.930 . S
H1324 C1332 0.930 . S
H1325 C1333 0.930 . S
H1326 C1336 0.930 . S
H1327 C1337 0.930 . S
C1328 H1322 0.930 . S
C1328 C1329 1.355 . S
C1328 C1330 1.415 . S
C1329 C1328 1.355 . S
C1329 C1331 1.419 . S
C1330 C1328 1.415 . S
C1330 C1335 1.425 . S
C1330 C1337 1.409 . S
C1331 H1323 0.930 . S
C1331 C1329 1.419 . S
C1331 C1332 1.362 . S
C1332 H1324 0.930 . S
C1332 C1331 1.362 . S
C1332 C1335 1.409 . S
C1333 H1325 0.930 . S
C1333 C1334 1.355 . S
C1333 C1335 1.415 . S
C1334 C1333 1.355 . S
C1334 C1336 1.419 . S
C1335 C1330 1.425 . S
C1335 C1332 1.409 . S
C1335 C1333 1.415 . S
C1336 H1326 0.930 . S
C1336 C1334 1.419 . S
C1336 C1337 1.362 . S
C1337 H1327 0.930 . S
C1337 C1330 1.409 . S
C1337 C1336 1.362 . S
H1338 C1344 0.930 . S
H1339 C1347 0.930 . S
H1340 C1348 0.930 . S
H1341 C1349 0.930 . S
H1342 C1352 0.930 . S
H1343 C1353 0.930 . S
C1344 H1338 0.930 . S
C1344 C1345 1.355 . S
C1344 C1346 1.415 . S
C1345 C1344 1.355 . S
C1345 C1347 1.419 . S
C1346 C1344 1.415 . S
C1346 C1351 1.425 . S
C1346 C1353 1.409 . S
C1347 H1339 0.930 . S
C1347 C1345 1.419 . S
C1347 C1348 1.362 . S
C1348 H1340 0.930 . S
C1348 C1347 1.362 . S
C1348 C1351 1.409 . S
C1349 H1341 0.930 . S
C1349 C1350 1.355 . S
C1349 C1351 1.415 . S
C1350 C1349 1.355 . S
C1350 C1352 1.419 . S
C1351 C1346 1.425 . S
C1351 C1348 1.409 . S
C1351 C1349 1.415 . S
C1352 H1342 0.930 . S
C1352 C1350 1.419 . S
C1352 C1353 1.362 . S
C1353 H1343 0.930 . S
C1353 C1346 1.409 . S
C1353 C1352 1.362 . S
H1354 C1360 0.930 . S
H1355 C1363 0.930 . S
H1356 C1364 0.930 . S
H1357 C1365 0.930 . S
H1358 C1368 0.930 . S
H1359 C1369 0.930 . S
C1360 H1354 0.930 . S
C1360 C1361 1.355 . S
C1360 C1362 1.415 . S
C1361 C1360 1.355 . S
C1361 C1363 1.419 . S
C1362 C1360 1.415 . S
C1362 C1367 1.425 . S
C1362 C1369 1.409 . S
C1363 H1355 0.930 . S
C1363 C1361 1.419 . S
C1363 C1364 1.362 . S
C1364 H1356 0.930 . S
C1364 C1363 1.362 . S
C1364 C1367 1.409 . S
C1365 H1357 0.930 . S
C1365 C1366 1.355 . S
C1365 C1367 1.415 . S
C1366 C1365 1.355 . S
C1366 C1368 1.419 . S
C1367 C1362 1.425 . S
C1367 C1364 1.409 . S
C1367 C1365 1.415 . S
C1368 H1358 0.930 . S
C1368 C1366 1.419 . S
C1368 C1369 1.362 . S
C1369 H1359 0.930 . S
C1369 C1362 1.409 . S
C1369 C1368 1.362 . S
H1370 C1376 0.930 . S
H1371 C1379 0.930 . S
H1372 C1380 0.930 . S
H1373 C1381 0.930 . S
H1374 C1384 0.930 . S
H1375 C1385 0.930 . S
C1376 H1370 0.930 . S
C1376 C1377 1.355 . S
C1376 C1378 1.415 . S
C1377 C1376 1.355 . S
C1377 C1379 1.419 . S
C1378 C1376 1.415 . S
C1378 C1383 1.425 . S
C1378 C1385 1.409 . S
C1379 H1371 0.930 . S
C1379 C1377 1.419 . S
C1379 C1380 1.362 . S
C1380 H1372 0.930 . S
C1380 C1379 1.362 . S
C1380 C1383 1.409 . S
C1381 H1373 0.930 . S
C1381 C1382 1.355 . S
C1381 C1383 1.415 . S
C1382 C1381 1.355 . S
C1382 C1384 1.419 . S
C1383 C1378 1.425 . S
C1383 C1380 1.409 . S
C1383 C1381 1.415 . S
C1384 H1374 0.930 . S
C1384 C1382 1.419 . S
C1384 C1385 1.362 . S
C1385 H1375 0.930 . S
C1385 C1378 1.409 . S
C1385 C1384 1.362 . S
H1386 C1392 0.930 . S
H1387 C1395 0.930 . S
H1388 C1396 0.930 . S
H1389 C1397 0.930 . S
H1390 C1400 0.930 . S
H1391 C1401 0.930 . S
C1392 H1386 0.930 . S
C1392 C1393 1.355 . S
C1392 C1394 1.415 . S
C1393 C1392 1.355 . S
C1393 C1395 1.419 . S
C1394 C1392 1.415 . S
C1394 C1399 1.425 . S
C1394 C1401 1.409 . S
C1395 H1387 0.930 . S
C1395 C1393 1.419 . S
C1395 C1396 1.362 . S
C1396 H1388 0.930 . S
C1396 C1395 1.362 . S
C1396 C1399 1.409 . S
C1397 H1389 0.930 . S
C1397 C1398 1.355 . S
C1397 C1399 1.415 . S
C1398 C1397 1.355 . S
C1398 C1400 1.419 . S
C1399 C1394 1.425 . S
C1399 C1396 1.409 . S
C1399 C1397 1.415 . S
C1400 H1390 0.930 . S
C1400 C1398 1.419 . S
C1400 C1401 1.362 . S
C1401 H1391 0.930 . S
C1401 C1394 1.409 . S
C1401 C1400 1.362 . S
H1402 C1408 0.930 . S
H1403 C1411 0.930 . S
H1404 C1412 0.930 . S
H1405 C1413 0.930 . S
H1406 C1416 0.930 . S
H1407 C1417 0.930 . S
C1408 H1402 0.930 . S
C1408 C1409 1.355 . S
C1408 C1410 1.415 . S
C1409 C1408 1.355 . S
C1409 C1411 1.419 . S
C1410 C1408 1.415 . S
C1410 C1415 1.425 . S
C1410 C1417 1.409 . S
C1411 H1403 0.930 . S
C1411 C1409 1.419 . S
C1411 C1412 1.362 . S
C1412 H1404 0.930 . S
C1412 C1411 1.362 . S
C1412 C1415 1.409 . S
C1413 H1405 0.930 . S
C1413 C1414 1.355 . S
C1413 C1415 1.415 . S
C1414 C1413 1.355 . S
C1414 C1416 1.419 . S
C1415 C1410 1.425 . S
C1415 C1412 1.409 . S
C1415 C1413 1.415 . S
C1416 H1406 0.930 . S
C1416 C1414 1.419 . S
C1416 C1417 1.362 . S
C1417 H1407 0.930 . S
C1417 C1410 1.409 . S
C1417 C1416 1.362 . S
H1418 C1424 0.930 . S
H1419 C1427 0.930 . S
H1420 C1428 0.930 . S
H1421 C1429 0.930 . S
H1422 C1432 0.930 . S
H1423 C1433 0.930 . S
C1424 H1418 0.930 . S
C1424 C1425 1.355 . S
C1424 C1426 1.415 . S
C1425 C1424 1.355 . S
C1425 C1427 1.419 . S
C1426 C1424 1.415 . S
C1426 C1431 1.425 . S
C1426 C1433 1.409 . S
C1427 H1419 0.930 . S
C1427 C1425 1.419 . S
C1427 C1428 1.362 . S
C1428 H1420 0.930 . S
C1428 C1427 1.362 . S
C1428 C1431 1.409 . S
C1429 H1421 0.930 . S
C1429 C1430 1.355 . S
C1429 C1431 1.415 . S
C1430 C1429 1.355 . S
C1430 C1432 1.419 . S
C1431 C1426 1.425 . S
C1431 C1428 1.409 . S
C1431 C1429 1.415 . S
C1432 H1422 0.930 . S
C1432 C1430 1.419 . S
C1432 C1433 1.362 . S
C1433 H1423 0.930 . S
C1433 C1426 1.409 . S
C1433 C1432 1.362 . S
H1434 C1440 0.930 . S
H1435 C1443 0.930 . S
H1436 C1444 0.930 . S
H1437 C1445 0.930 . S
H1438 C1448 0.930 . S
H1439 C1449 0.930 . S
C1440 H1434 0.930 . S
C1440 C1441 1.355 . S
C1440 C1442 1.415 . S
C1441 C1440 1.355 . S
C1441 C1443 1.419 . S
C1442 C1440 1.415 . S
C1442 C1447 1.425 . S
C1442 C1449 1.409 . S
C1443 H1435 0.930 . S
C1443 C1441 1.419 . S
C1443 C1444 1.362 . S
C1444 H1436 0.930 . S
C1444 C1443 1.362 . S
C1444 C1447 1.409 . S
C1445 H1437 0.930 . S
C1445 C1446 1.355 . S
C1445 C1447 1.415 . S
C1446 C1445 1.355 . S
C1446 C1448 1.419 . S
C1447 C1442 1.425 . S
C1447 C1444 1.409 . S
C1447 C1445 1.415 . S
C1448 H1438 0.930 . S
C1448 C1446 1.419 . S
C1448 C1449 1.362 . S
C1449 H1439 0.930 . S
C1449 C1442 1.409 . S
C1449 C1448 1.362 . S
H1450 C1456 0.930 . S
H1451 C1459 0.930 . S
H1452 C1460 0.930 . S
H1453 C1461 0.930 . S
H1454 C1464 0.930 . S
H1455 C1465 0.930 . S
C1456 H1450 0.930 . S
C1456 C1457 1.355 . S
C1456 C1458 1.415 . S
C1457 C1456 1.355 . S
C1457 C1459 1.419 . S
C1458 C1456 1.415 . S
C1458 C1463 1.425 . S
C1458 C1465 1.409 . S
C1459 H1451 0.930 . S
C1459 C1457 1.419 . S
C1459 C1460 1.362 . S
C1460 H1452 0.930 . S
C1460 C1459 1.362 . S
C1460 C1463 1.409 . S
C1461 H1453 0.930 . S
C1461 C1462 1.355 . S
C1461 C1463 1.415 . S
C1462 C1461 1.355 . S
C1462 C1464 1.419 . S
C1463 C1458 1.425 . S
C1463 C1460 1.409 . S
C1463 C1461 1.415 . S
C1464 H1454 0.930 . S
C1464 C1462 1.419 . S
C1464 C1465 1.362 . S
C1465 H1455 0.930 . S
C1465 C1458 1.409 . S
C1465 C1464 1.362 . S
H1466 C1472 0.930 . S
H1467 C1475 0.930 . S
H1468 C1476 0.930 . S
H1469 C1477 0.930 . S
H1470 C1480 0.930 . S
H1471 C1481 0.930 . S
C1472 H1466 0.930 . S
C1472 C1473 1.355 . S
C1472 C1474 1.415 . S
C1473 C1472 1.355 . S
C1473 C1475 1.419 . S
C1474 C1472 1.415 . S
C1474 C1479 1.425 . S
C1474 C1481 1.409 . S
C1475 H1467 0.930 . S
C1475 C1473 1.419 . S
C1475 C1476 1.362 . S
C1476 H1468 0.930 . S
C1476 C1475 1.362 . S
C1476 C1479 1.409 . S
C1477 H1469 0.930 . S
C1477 C1478 1.355 . S
C1477 C1479 1.415 . S
C1478 C1477 1.355 . S
C1478 C1480 1.419 . S
C1479 C1474 1.425 . S
C1479 C1476 1.409 . S
C1479 C1477 1.415 . S
C1480 H1470 0.930 . S
C1480 C1478 1.419 . S
C1480 C1481 1.362 . S
C1481 H1471 0.930 . S
C1481 C1474 1.409 . S
C1481 C1480 1.362 . S
H1482 C1488 0.930 . S
H1483 C1491 0.930 . S
H1484 C1492 0.930 . S
H1485 C1493 0.930 . S
H1486 C1496 0.930 . S
H1487 C1497 0.930 . S
C1488 H1482 0.930 . S
C1488 C1489 1.355 . S
C1488 C1490 1.415 . S
C1489 C1488 1.355 . S
C1489 C1491 1.419 . S
C1490 C1488 1.415 . S
C1490 C1495 1.425 . S
C1490 C1497 1.409 . S
C1491 H1483 0.930 . S
C1491 C1489 1.419 . S
C1491 C1492 1.362 . S
C1492 H1484 0.930 . S
C1492 C1491 1.362 . S
C1492 C1495 1.409 . S
C1493 H1485 0.930 . S
C1493 C1494 1.355 . S
C1493 C1495 1.415 . S
C1494 C1493 1.355 . S
C1494 C1496 1.419 . S
C1495 C1490 1.425 . S
C1495 C1492 1.409 . S
C1495 C1493 1.415 . S
C1496 H1486 0.930 . S
C1496 C1494 1.419 . S
C1496 C1497 1.362 . S
C1497 H1487 0.930 . S
C1497 C1490 1.409 . S
C1497 C1496 1.362 . S
H1498 C1504 0.930 . S
H1499 C1507 0.930 . S
H1500 C1508 0.930 . S
H1501 C1509 0.930 . S
H1502 C1512 0.930 . S
H1503 C1513 0.930 . S
C1504 H1498 0.930 . S
C1504 C1505 1.355 . S
C1504 C1506 1.415 . S
C1505 C1504 1.355 . S
C1505 C1507 1.419 . S
C1506 C1504 1.415 . S
C1506 C1511 1.425 . S
C1506 C1513 1.409 . S
C1507 H1499 0.930 . S
C1507 C1505 1.419 . S
C1507 C1508 1.362 . S
C1508 H1500 0.930 . S
C1508 C1507 1.362 . S
C1508 C1511 1.409 . S
C1509 H1501 0.930 . S
C1509 C1510 1.355 . S
C1509 C1511 1.415 . S
C1510 C1509 1.355 . S
C1510 C1512 1.419 . S
C1511 C1506 1.425 . S
C1511 C1508 1.409 . S
C1511 C1509 1.415 . S
C1512 H1502 0.930 . S
C1512 C1510 1.419 . S
C1512 C1513 1.362 . S
C1513 H1503 0.930 . S
C1513 C1506 1.409 . S
C1513 C1512 1.362 . S
H1514 C1520 0.930 . S
H1515 C1523 0.930 . S
H1516 C1524 0.930 . S
H1517 C1525 0.930 . S
H1518 C1528 0.930 . S
H1519 C1529 0.930 . S
C1520 H1514 0.930 . S
C1520 C1521 1.355 . S
C1520 C1522 1.415 . S
C1521 C1520 1.355 . S
C1521 C1523 1.419 . S
C1522 C1520 1.415 . S
C1522 C1527 1.425 . S
C1522 C1529 1.409 . S
C1523 H1515 0.930 . S
C1523 C1521 1.419 . S
C1523 C1524 1.362 . S
C1524 H1516 0.930 . S
C1524 C1523 1.362 . S
C1524 C1527 1.409 . S
C1525 H1517 0.930 . S
C1525 C1526 1.355 . S
C1525 C1527 1.415 . S
C1526 C1525 1.355 . S
C1526 C1528 1.419 . S
C1527 C1522 1.425 . S
C1527 C1524 1.409 . S
C1527 C1525 1.415 . S
C1528 H1518 0.930 . S
C1528 C1526 1.419 . S
C1528 C1529 1.362 . S
C1529 H1519 0.930 . S
C1529 C1522 1.409 . S
C1529 C1528 1.362 . S
H1530 C1536 0.930 . S
H1531 C1539 0.930 . S
H1532 C1540 0.930 . S
H1533 C1541 0.930 . S
H1534 C1544 0.930 . S
H1535 C1545 0.930 . S
C1536 H1530 0.930 . S
C1536 C1537 1.355 . S
C1536 C1538 1.415 . S
C1537 C1536 1.355 . S
C1537 C1539 1.419 . S
C1538 C1536 1.415 . S
C1538 C1543 1.425 . S
C1538 C1545 1.409 . S
C1539 H1531 0.930 . S
C1539 C1537 1.419 . S
C1539 C1540 1.362 . S
C1540 H1532 0.930 . S
C1540 C1539 1.362 . S
C1540 C1543 1.409 . S
C1541 H1533 0.930 . S
C1541 C1542 1.355 . S
C1541 C1543 1.415 . S
C1542 C1541 1.355 . S
C1542 C1544 1.419 . S
C1543 C1538 1.425 . S
C1543 C1540 1.409 . S
C1543 C1541 1.415 . S
C1544 H1534 0.930 . S
C1544 C1542 1.419 . S
C1544 C1545 1.362 . S
C1545 H1535 0.930 . S
C1545 C1538 1.409 . S
C1545 C1544 1.362 . S
H1546 C1552 0.930 . S
H1547 C1555 0.930 . S
H1548 C1556 0.930 . S
H1549 C1557 0.930 . S
H1550 C1560 0.930 . S
H1551 C1561 0.930 . S
C1552 H1546 0.930 . S
C1552 C1553 1.355 . S
C1552 C1554 1.415 . S
C1553 C1552 1.355 . S
C1553 C1555 1.419 . S
C1554 C1552 1.415 . S
C1554 C1559 1.425 . S
C1554 C1561 1.409 . S
C1555 H1547 0.930 . S
C1555 C1553 1.419 . S
C1555 C1556 1.362 . S
C1556 H1548 0.930 . S
C1556 C1555 1.362 . S
C1556 C1559 1.409 . S
C1557 H1549 0.930 . S
C1557 C1558 1.355 . S
C1557 C1559 1.415 . S
C1558 C1557 1.355 . S
C1558 C1560 1.419 . S
C1559 C1554 1.425 . S
C1559 C1556 1.409 . S
C1559 C1557 1.415 . S
C1560 H1550 0.930 . S
C1560 C1558 1.419 . S
C1560 C1561 1.362 . S
C1561 H1551 0.930 . S
C1561 C1554 1.409 . S
C1561 C1560 1.362 . S
H1562 C1568 0.930 . S
H1563 C1571 0.930 . S
H1564 C1572 0.930 . S
H1565 C1573 0.930 . S
H1566 C1576 0.930 . S
H1567 C1577 0.930 . S
C1568 H1562 0.930 . S
C1568 C1569 1.355 . S
C1568 C1570 1.415 . S
C1569 C1568 1.355 . S
C1569 C1571 1.419 . S
C1570 C1568 1.415 . S
C1570 C1575 1.425 . S
C1570 C1577 1.409 . S
C1571 H1563 0.930 . S
C1571 C1569 1.419 . S
C1571 C1572 1.362 . S
C1572 H1564 0.930 . S
C1572 C1571 1.362 . S
C1572 C1575 1.409 . S
C1573 H1565 0.930 . S
C1573 C1574 1.355 . S
C1573 C1575 1.415 . S
C1574 C1573 1.355 . S
C1574 C1576 1.419 . S
C1575 C1570 1.425 . S
C1575 C1572 1.409 . S
C1575 C1573 1.415 . S
C1576 H1566 0.930 . S
C1576 C1574 1.419 . S
C1576 C1577 1.362 . S
C1577 H1567 0.930 . S
C1577 C1570 1.409 . S
C1577 C1576 1.362 . S
H1578 C1584 0.930 . S
H1579 C1587 0.930 . S
H1580 C1588 0.930 . S
H1581 C1589 0.930 . S
H1582 C1592 0.930 . S
H1583 C1593 0.930 . S
C1584 H1578 0.930 . S
C1584 C1585 1.355 . S
C1584 C1586 1.415 . S
C1585 C1584 1.355 . S
C1585 C1587 1.419 . S
C1586 C1584 1.415 . S
C1586 C1591 1.425 . S
C1586 C1593 1.409 . S
C1587 H1579 0.930 . S
C1587 C1585 1.419 . S
C1587 C1588 1.362 . S
C1588 H1580 0.930 . S
C1588 C1587 1.362 . S
C1588 C1591 1.409 . S
C1589 H1581 0.930 . S
C1589 C1590 1.355 . S
C1589 C1591 1.415 . S
C1590 C1589 1.355 . S
C1590 C1592 1.419 . S
C1591 C1586 1.425 . S
C1591 C1588 1.409 . S
C1591 C1589 1.415 . S
C1592 H1582 0.930 . S
C1592 C1590 1.419 . S
C1592 C1593 1.362 . S
C1593 H1583 0.930 . S
C1593 C1586 1.409 . S
C1593 C1592 1.362 . S
H1594 C1600 0.930 . S
H1595 C1603 0.930 . S
H1596 C1604 0.930 . S
H1597 C1605 0.930 . S
H1598 C1608 0.930 . S
H1599 C1609 0.930 . S
C1600 H1594 0.930 . S
C1600 C1601 1.355 . S
C1600 C1602 1.415 . S
C1601 C1600 1.355 . S
C1601 C1603 1.419 . S
C1602 C1600 1.415 . S
C1602 C1607 1.425 . S
C1602 C1609 1.409 . S
C1603 H1595 0.930 . S
C1603 C1601 1.419 . S
C1603 C1604 1.362 . S
C1604 H1596 0.930 . S
C1604 C1603 1.362 . S
C1604 C1607 1.409 . S
C1605 H1597 0.930 . S
C1605 C1606 1.355 . S
C1605 C1607 1.415 . S
C1606 C1605 1.355 . S
C1606 C1608 1.419 . S
C1607 C1602 1.425 . S
C1607 C1604 1.409 . S
C1607 C1605 1.415 . S
C1608 H1598 0.930 . S
C1608 C1606 1.419 . S
C1608 C1609 1.362 . S
C1609 H1599 0.930 . S
C1609 C1602 1.409 . S
C1609 C1608 1.362 . S
H1610 C1616 0.930 . S
H1611 C1619 0.930 . S
H1612 C1620 0.930 . S
H1613 C1621 0.930 . S
H1614 C1624 0.930 . S
H1615 C1625 0.930 . S
C1616 H1610 0.930 . S
C1616 C1617 1.355 . S
C1616 C1618 1.415 . S
C1617 C1616 1.355 . S
C1617 C1619 1.419 . S
C1618 C1616 1.415 . S
C1618 C1623 1.425 . S
C1618 C1625 1.409 . S
C1619 H1611 0.930 . S
C1619 C1617 1.419 . S
C1619 C1620 1.362 . S
C1620 H1612 0.930 . S
C1620 C1619 1.362 . S
C1620 C1623 1.409 . S
C1621 H1613 0.930 . S
C1621 C1622 1.355 . S
C1621 C1623 1.415 . S
C1622 C1621 1.355 . S
C1622 C1624 1.419 . S
C1623 C1618 1.425 . S
C1623 C1620 1.409 . S
C1623 C1621 1.415 . S
C1624 H1614 0.930 . S
C1624 C1622 1.419 . S
C1624 C1625 1.362 . S
C1625 H1615 0.930 . S
C1625 C1618 1.409 . S
C1625 C1624 1.362 . S
C870 C683 1.703 . S
C865 C56 1.668 . S
C886 C673 1.344 . S
C881 C154 1.329 . S
C902 C674 1.318 . S
C897 C236 1.335 . S
C913 C310 0.917 . S
C918 C696 0.675 . S
C929 C394 1.227 . S
C934 C699 1.335 . S
C950 C682 1.315 . S
C945 C476 1.333 . S
C961 C574 0.882 . S
C966 C672 0.625 . S
C977 C656 1.646 . S
C982 C690 1.672 . S
C998 C703 2.430 . S
C993 C67 2.519 . S
C1009 C139 1.641 . S
C1014 C752 1.599 . S
C1030 C730 1.418 . S
C1025 C238 1.349 . S
C1046 C744 1.289 . S
C1041 C308 1.327 . S
C1057 C392 1.296 . S
C1062 C705 1.281 . S
C1078 C758 2.408 . S
C1073 C487 2.530 . S
C1089 C559 1.655 . S
C1094 C714 1.590 . S
C1105 C658 1.317 . S
C1110 C735 1.325 . S
C1121 C58 1.349 . S
C1126 C761 1.365 . S
C1137 C403 1.633 . S
C1142 C745 1.615 . S
C1158 C704 1.342 . S
C1153 C478 1.370 . S
C1174 C736 1.281 . S
C1169 C572 1.319 . S
C1185 C643 2.522 . S
C1190 C727 2.455 . S
C1201 C223 2.543 . S
C1206 C734 2.449 . S
C1222 C721 1.615 . S
C1217 C319 1.646 . S
C1233 C152 1.306 . S
C1238 C713 1.293 . S
C1249 C644 1.646 . S
C1254 C776 1.670 . S
C1265 C406 1.321 . S
C1270 C766 1.336 . S
C1286 C767 1.321 . S
C1281 C488 1.289 . S
C1302 C789 0.624 . S
C1297 C562 0.719 . S
C1313 C142 1.237 . S
C1318 C792 1.311 . S
C1334 C775 1.337 . S
C1329 C224 1.347 . S
C1345 C322 0.779 . S
C1350 C765 0.717 . S
C1361 C68 1.652 . S
C1366 C783 1.663 . S
C1377 C655 2.520 . S
C1382 C796 2.447 . S
C1398 C845 1.586 . S
C1393 C391 1.640 . S
C1409 C490 1.341 . S
C1414 C823 1.346 . S
C1425 C560 1.309 . S
C1430 C837 1.328 . S
C1446 C798 1.320 . S
C1441 C140 1.324 . S
C1457 C235 2.531 . S
C1462 C851 2.407 . S
C1478 C807 1.594 . S
C1473 C307 1.651 . S
C1494 C828 1.387 . S
C1489 C70 1.320 . S
C1510 C854 1.382 . S
C1505 C646 1.340 . S
C1521 C151 1.631 . S
C1526 C838 1.626 . S
C1537 C226 1.405 . S
C1542 C797 1.386 . S
C1558 C829 1.298 . S
C1553 C320 1.329 . S
C1569 C55 2.526 . S
C1574 C820 2.421 . S
C1585 C475 2.530 . S
C1590 C827 2.408 . S
C1606 C814 1.608 . S
C1601 C571 1.644 . S
C1622 C806 1.261 . S
C1617 C404 1.283 . S
