# Generated by pormake.
# Topology ssa, (4,4)-cn, num edge types: 1
# Building blocks:
#     Node 0, Type 0, BuildingBlock: KOZSID_clean_sbu_0, # of connection points: 4
#     Node 1, Type 0, BuildingBlock: KOZSID_clean_sbu_0, # of connection points: 4
#     Node 2, Type 0, BuildingBlock: KOZSID_clean_sbu_0, # of connection points: 4
#     Node 3, Type 0, BuildingBlock: KOZSID_clean_sbu_0, # of connection points: 4
#     Node 4, Type 0, BuildingBlock: KOZSID_clean_sbu_0, # of connection points: 4
#     Node 5, Type 0, BuildingBlock: KOZSID_clean_sbu_0, # of connection points: 4
#     Node 6, Type 1, BuildingBlock: MUDLON_clean_sbu_0, # of connection points: 4
#     Node 7, Type 1, BuildingBlock: MUDLON_clean_sbu_0, # of connection points: 4
#     Node 8, Type 1, BuildingBlock: MUDLON_clean_sbu_0, # of connection points: 4
#     Node 9, Type 1, BuildingBlock: MUDLON_clean_sbu_0, # of connection points: 4
#     Node 10, Type 1, BuildingBlock: MUDLON_clean_sbu_0, # of connection points: 4
#     Node 11, Type 1, BuildingBlock: MUDLON_clean_sbu_0, # of connection points: 4
#     Edge 12, Type (0, 1), BuildingBlock: ZUJKAS_clean_linker_0, # of connection points: 2
#     Edge 13, Type (0, 1), BuildingBlock: ZUJKAS_clean_linker_0, # of connection points: 2
#     Edge 14, Type (0, 1), BuildingBlock: ZUJKAS_clean_linker_0, # of connection points: 2
#     Edge 15, Type (0, 1), BuildingBlock: ZUJKAS_clean_linker_0, # of connection points: 2
#     Edge 16, Type (0, 1), BuildingBlock: ZUJKAS_clean_linker_0, # of connection points: 2
#     Edge 17, Type (0, 1), BuildingBlock: ZUJKAS_clean_linker_0, # of connection points: 2
#     Edge 18, Type (0, 1), BuildingBlock: ZUJKAS_clean_linker_0, # of connection points: 2
#     Edge 19, Type (0, 1), BuildingBlock: ZUJKAS_clean_linker_0, # of connection points: 2
#     Edge 20, Type (0, 1), BuildingBlock: ZUJKAS_clean_linker_0, # of connection points: 2
#     Edge 21, Type (0, 1), BuildingBlock: ZUJKAS_clean_linker_0, # of connection points: 2
#     Edge 22, Type (0, 1), BuildingBlock: ZUJKAS_clean_linker_0, # of connection points: 2
#     Edge 23, Type (0, 1), BuildingBlock: ZUJKAS_clean_linker_0, # of connection points: 2
#     Edge 24, Type (0, 1), BuildingBlock: ZUJKAS_clean_linker_0, # of connection points: 2
#     Edge 25, Type (0, 1), BuildingBlock: ZUJKAS_clean_linker_0, # of connection points: 2
#     Edge 26, Type (0, 1), BuildingBlock: ZUJKAS_clean_linker_0, # of connection points: 2
#     Edge 27, Type (0, 1), BuildingBlock: ZUJKAS_clean_linker_0, # of connection points: 2
#     Edge 28, Type (0, 1), BuildingBlock: ZUJKAS_clean_linker_0, # of connection points: 2
#     Edge 29, Type (0, 1), BuildingBlock: ZUJKAS_clean_linker_0, # of connection points: 2
#     Edge 30, Type (0, 1), BuildingBlock: ZUJKAS_clean_linker_0, # of connection points: 2
#     Edge 31, Type (0, 1), BuildingBlock: ZUJKAS_clean_linker_0, # of connection points: 2
#     Edge 32, Type (0, 1), BuildingBlock: ZUJKAS_clean_linker_0, # of connection points: 2
#     Edge 33, Type (0, 1), BuildingBlock: ZUJKAS_clean_linker_0, # of connection points: 2
#     Edge 34, Type (0, 1), BuildingBlock: ZUJKAS_clean_linker_0, # of connection points: 2
#     Edge 35, Type (0, 1), BuildingBlock: ZUJKAS_clean_linker_0, # of connection points: 2
# Relax obj value: 0.014
# Max RMSD: 0.033
# Mean RMSD: 0.021
data_MOF--net-ssa--node1-KOZSID_clean_sbu_0--node2-MUDLON_clean_sbu_0--edge1-ZUJKAS_clean_linker_0
_symmetry_space_group_name_H-M    P1
_symmetry_Int_Tables_number       1
_symmetry_cell_setting            triclinic
loop_
_symmetry_equiv_pos_as_xyz
'x, y, z'
_cell_length_a     60.259909
_cell_length_b     61.63839
_cell_length_c     57.347427
_cell_angle_alpha  87.958315
_cell_angle_beta   90.02574
_cell_angle_gamma 122.27343
loop_
_atom_site_label
_atom_site_type_symbol
_atom_site_fract_x
_atom_site_fract_y
_atom_site_fract_z
_atom_type_partial_charge
C0 C 0.97336 0.52209 1.00135 0.0
C1 C 0.94936 0.51651 0.01026 0.0
C2 C 0.94413 0.50131 0.02996 0.0
C3 C 0.96512 0.49848 0.03196 0.0
N4 N 0.98358 0.51113 0.01481 0.0
Co5 Co 0.01705 0.51184 0.0108 0.0
N6 N 0.0092 0.48926 0.03963 0.0
C7 C 0.98713 0.47796 0.05316 0.0
C8 C 0.98833 0.4652 0.07272 0.0
C9 C 0.01286 0.46914 0.07197 0.0
C10 C 0.02523 0.48406 0.05185 0.0
N11 N 0.05072 0.51291 0.00712 0.0
C12 C 0.06276 0.50558 0.02257 0.0
C13 C 0.08692 0.51129 0.01408 0.0
C14 C 0.0907 0.52344 0.99274 0.0
C15 C 0.06868 0.52438 0.98946 0.0
N16 N 0.02499 0.53435 0.98193 0.0
C17 C 0.04616 0.54384 0.96741 0.0
C18 C 0.04591 0.55817 0.9487 0.0
C19 C 0.02308 0.55757 0.95125 0.0
C20 C 0.01067 0.54282 0.97144 0.0
N21 N 0.03559 0.54255 0.03011 0.0
C22 C 0.06382 0.58434 0.05943 0.0
C23 C 0.07402 0.58415 0.03757 0.0
C24 C 0.05967 0.5633 0.02328 0.0
C25 C 0.03887 0.56351 0.06599 0.0
C26 C 0.02521 0.54306 0.05119 0.0
N27 N 0.99827 0.48089 0.99133 0.0
C28 C 0.99519 0.45916 0.95584 0.0
C29 C 0.96938 0.43936 0.96146 0.0
C30 C 0.95871 0.44037 0.98274 0.0
C31 C 0.97337 0.46092 0.99728 0.0
C32 C 0.00912 0.47945 0.97085 0.0
H33 H 0.96381 0.46036 0.01303 0.0
H34 H 0.02851 0.49388 0.96528 0.0
H35 H 0.06859 0.56417 0.00692 0.0
H36 H 0.00648 0.52759 0.05738 0.0
C37 C 0.96752 0.48318 0.04908 0.0
C38 C 0.98495 0.53678 0.97947 0.0
C39 C 0.05288 0.49488 0.04605 0.0
C40 C 0.06574 0.53862 0.9716 0.0
H41 H 0.9367 0.5224 0.00302 0.0
H42 H 0.92682 0.49289 0.04121 0.0
H43 H 0.97377 0.45566 0.08667 0.0
H44 H 0.02107 0.46278 0.08531 0.0
H45 H 0.1008 0.50794 0.02287 0.0
H46 H 0.10806 0.53187 0.98156 0.0
H47 H 0.06043 0.56764 0.93472 0.0
H48 H 0.01615 0.56668 0.93943 0.0
H49 H 0.09305 0.60002 0.03145 0.0
H50 H 0.03013 0.56254 0.0828 0.0
H51 H 0.00474 0.45912 0.93986 0.0
H52 H 0.93877 0.42575 0.98803 0.0
C53 C 0.54459 0.00596 0.55837 0.0
C54 C 0.5439 0.99227 0.57837 0.0
C55 C 0.52034 0.96941 0.57869 0.0
C56 C 0.50807 0.97041 0.55889 0.0
N57 N 0.52263 0.99231 0.54567 0.0
Co58 Co 0.51174 0.0026 0.51633 0.0
N59 N 0.47538 0.97111 0.51895 0.0
C60 C 0.46574 0.95246 0.53608 0.0
C61 C 0.44037 0.93281 0.53273 0.0
C62 C 0.43352 0.93906 0.51205 0.0
C63 C 0.45524 0.96221 0.50391 0.0
N64 N 0.50097 0.0129 0.48691 0.0
C65 C 0.47838 0.99997 0.47491 0.0
C66 C 0.4795 0.01342 0.45454 0.0
C67 C 0.50376 0.03546 0.45346 0.0
C68 C 0.51606 0.03421 0.47309 0.0
N69 N 0.54806 0.03426 0.51395 0.0
C70 C 0.5578 0.05288 0.49679 0.0
C71 C 0.58267 0.07314 0.50072 0.0
C72 C 0.58902 0.06746 0.52193 0.0
C73 C 0.56759 0.0439 0.5297 0.0
N74 N 0.52283 0.98342 0.49729 0.0
C75 C 0.52827 0.95289 0.46503 0.0
C76 C 0.53975 0.97925 0.46057 0.0
C77 C 0.537 0.99406 0.47687 0.0
C78 C 0.51601 0.94259 0.48682 0.0
C79 C 0.51379 0.95813 0.50263 0.0
N80 N 0.50028 0.0215 0.5351 0.0
C81 C 0.49923 0.05954 0.54132 0.0
C82 C 0.48561 0.04912 0.56258 0.0
C83 C 0.47912 0.02443 0.56964 0.0
C84 C 0.48652 0.01107 0.55574 0.0
C85 C 0.50632 0.04555 0.52801 0.0
H86 H 0.48118 0.99246 0.56221 0.0
H87 H 0.51686 0.05468 0.51211 0.0
H88 H 0.54578 0.01387 0.47218 0.0
H89 H 0.50376 0.94896 0.51869 0.0
C90 C 0.48176 0.95282 0.55392 0.0
C91 C 0.56585 0.03239 0.55288 0.0
C92 C 0.4562 0.97426 0.48126 0.0
C93 C 0.54218 0.05199 0.47838 0.0
H94 H 0.55854 0.9986 0.59175 0.0
H95 H 0.51251 0.95444 0.59235 0.0
H96 H 0.4286 0.91554 0.5436 0.0
H97 H 0.41492 0.92756 0.50355 0.0
H98 H 0.46462 0.00757 0.44146 0.0
H99 H 0.51178 0.05025 0.43963 0.0
H100 H 0.59429 0.09055 0.48999 0.0
H101 H 0.607 0.07978 0.531 0.0
H102 H 0.5504 0.98843 0.44435 0.0
H103 H 0.50704 0.92236 0.49135 0.0
H104 H 0.50438 0.07844 0.53487 0.0
H105 H 0.46886 0.01559 0.58609 0.0
C106 C 0.53583 0.52196 0.97389 0.0
C107 C 0.54083 0.5382 0.95454 0.0
C108 C 0.52043 0.54189 0.95339 0.0
C109 C 0.50425 0.52781 0.97207 0.0
N110 N 0.5135 0.51595 0.98547 0.0
Co111 Co 0.49546 0.49173 0.01311 0.0
N112 N 0.4627 0.49219 0.00833 0.0
C113 C 0.45858 0.50538 0.99131 0.0
C114 C 0.43455 0.5027 0.99304 0.0
C115 C 0.42274 0.4872 0.0125 0.0
C116 C 0.44033 0.48127 0.02155 0.0
N117 N 0.47757 0.46763 0.04085 0.0
C118 C 0.45391 0.45928 0.05107 0.0
C119 C 0.44935 0.44347 0.07069 0.0
C120 C 0.47118 0.44227 0.07329 0.0
C121 C 0.48771 0.45728 0.05515 0.0
N122 N 0.52811 0.49099 0.01753 0.0
C123 C 0.53265 0.47844 0.03485 0.0
C124 C 0.55576 0.47943 0.03203 0.0
C125 C 0.56627 0.49274 0.01132 0.0
C126 C 0.54896 0.49926 1.00272 0.0
N127 N 0.50866 0.52118 0.03408 0.0
C128 C 0.51646 0.55677 0.0678 0.0
C129 C 0.52315 0.53856 0.0723 0.0
C130 C 0.5192 0.52113 0.05528 0.0
C131 C 0.50792 0.55823 0.04552 0.0
C132 C 0.50458 0.54068 0.02898 0.0
N133 N 0.48197 0.46233 0.99241 0.0
C134 C 0.47497 0.42103 0.98368 0.0
C135 C 0.46622 0.42238 0.96143 0.0
C136 C 0.46477 0.44369 0.95523 0.0
C137 C 0.47252 0.46318 0.97089 0.0
C138 C 0.48276 0.4411 0.99877 0.0
H139 H 0.47104 0.47894 0.96505 0.0
H140 H 0.48979 0.43928 0.01532 0.0
H141 H 0.52397 0.50728 0.06002 0.0
H142 H 0.49784 0.54282 0.01248 0.0
C143 C 0.47854 0.52188 0.97522 0.0
C144 C 0.55169 0.51115 0.97953 0.0
C145 C 0.43576 0.46684 0.04363 0.0
C146 C 0.51326 0.46301 0.05169 0.0
H147 H 0.55693 0.54558 0.94199 0.0
H148 H 0.51693 0.55218 0.93969 0.0
H149 H 0.42693 0.51176 0.98199 0.0
H150 H 0.4037 0.48161 0.01964 0.0
H151 H 0.43226 0.4343 0.08225 0.0
H152 H 0.47485 0.43222 0.0871 0.0
H153 H 0.56323 0.47016 0.04296 0.0
H154 H 0.58402 0.49609 0.00306 0.0
H155 H 0.53026 0.53695 0.08922 0.0
H156 H 0.50336 0.57262 0.04095 0.0
H157 H 0.47654 0.40492 0.9892 0.0
H158 H 0.4577 0.44538 0.93831 0.0
C159 C 0.9469 0.44375 0.51598 0.0
C160 C 0.92226 0.42697 0.50726 0.0
C161 C 0.92082 0.438 0.4867 0.0
C162 C 0.9446 0.46076 0.48413 0.0
N163 N 0.96143 0.46452 0.50141 0.0
Co164 Co 0.99685 0.496 0.5063 0.0
N165 N 0.99306 0.51452 0.47861 0.0
C166 C 0.97213 0.50554 0.46456 0.0
C167 C 0.97615 0.52178 0.44584 0.0
C168 C 1.00138 0.54201 0.44764 0.0
C169 C 0.01132 0.53697 0.46753 0.0
N170 N 0.03223 0.52754 0.51125 0.0
C171 C 0.04661 0.54874 0.49705 0.0
C172 C 0.071 0.56566 0.50618 0.0
C173 C 0.07244 0.55434 0.52655 0.0
C174 C 0.04889 0.5313 0.5287 0.0
N175 N 1.00072 0.47745 0.53389 0.0
C176 C 0.02176 0.48619 0.54775 0.0
C177 C 0.01764 0.46988 0.56645 0.0
C178 C 0.9922 0.44994 0.56485 0.0
C179 C 0.98229 0.45526 0.54513 0.0
N180 N 0.01353 0.48319 0.48554 0.0
C181 C 0.03893 0.46785 0.45487 0.0
C182 C 0.04945 0.47768 0.47652 0.0
C183 C 0.03654 0.48509 0.49144 0.0
C184 C 0.01517 0.46538 0.44907 0.0
C185 C 0.00292 0.47306 0.46451 0.0
N186 N 0.97988 0.50837 0.52727 0.0
C187 C 0.97387 0.51807 0.56645 0.0
C188 C 0.94882 0.51284 0.5613 0.0
C189 C 0.94071 0.50768 0.53821 0.0
C190 C 0.95653 0.50583 0.52156 0.0
C191 C 0.98905 0.51601 0.54925 0.0
H192 H 0.94897 0.50126 0.50443 0.0
H193 H 0.00761 0.51953 0.55447 0.0
H194 H 0.04582 0.4927 0.5075 0.0
H195 H 0.98504 0.47086 0.45889 0.0
C196 C 0.95034 0.48048 0.46769 0.0
C197 C 0.95463 0.44062 0.53925 0.0
C198 C 0.03883 0.55263 0.47399 0.0
C199 C 0.04334 0.51141 0.5449 0.0
H200 H 0.90655 0.40931 0.51558 0.0
H201 H 0.90387 0.43107 0.47577 0.0
H202 H 0.96287 0.51857 0.43177 0.0
H203 H 0.0116 0.55798 0.43509 0.0
H204 H 0.08655 0.58375 0.49835 0.0
H205 H 0.08923 0.56138 0.53771 0.0
H206 H 0.0309 0.47299 0.58051 0.0
H207 H 0.98176 0.43408 0.57748 0.0
H208 H 0.06797 0.48031 0.48179 0.0
H209 H 0.00594 0.4575 0.43267 0.0
H210 H 0.98132 0.52252 0.58396 0.0
H211 H 0.92191 0.50446 0.53307 0.0
C212 C 0.48797 0.01012 0.06727 0.0
C213 C 0.4863 0.02048 0.08777 0.0
C214 C 0.50765 0.04502 0.08773 0.0
C215 C 0.52105 0.0482 0.06728 0.0
N216 N 0.50909 0.02743 0.0539 0.0
Co217 Co 0.52302 0.02237 0.02422 0.0
N218 N 0.55655 0.05678 0.02594 0.0
C219 C 0.56337 0.07403 0.04272 0.0
C220 C 0.58634 0.09701 0.03776 0.0
C221 C 0.5942 0.09462 0.01619 0.0
C222 C 0.57553 0.07019 0.0093 0.0
N223 N 0.53712 0.01704 0.99485 0.0
C224 C 0.55835 0.03419 0.98161 0.0
C225 C 0.5606 0.02349 0.96159 0.0
C226 C 0.53944 0.99882 0.96182 0.0
C227 C 0.52562 0.99593 0.98193 0.0
N228 N 0.48928 0.98821 0.02224 0.0
C229 C 0.48214 0.97144 0.00498 0.0
C230 C 0.45859 0.94886 0.00931 0.0
C231 C 0.45056 0.95104 0.03088 0.0
C232 C 0.46976 0.97495 0.03847 0.0
N233 N 0.50823 0.03925 0.00532 0.0
C234 C 0.5023 0.07101 0.97271 0.0
C235 C 0.49497 0.04611 0.96732 0.0
C236 C 0.49789 0.03058 0.98385 0.0
C237 C 0.50968 0.07847 0.99558 0.0
C238 C 0.51208 0.06225 0.01158 0.0
N239 N 0.53822 0.00578 0.04294 0.0
C240 C 0.54175 0.96909 0.05199 0.0
C241 C 0.55607 0.98041 0.07195 0.0
C242 C 0.56201 0.00503 0.07665 0.0
C243 C 0.55298 0.01722 0.06208 0.0
C244 C 0.53323 0.98204 0.0378 0.0
H245 H 0.55788 0.03575 0.06692 0.0
H246 H 0.52218 0.97222 0.02303 0.0
H247 H 0.49303 0.01221 0.97842 0.0
H248 H 0.51836 0.06929 0.02855 0.0
C249 C 0.54619 0.06919 0.06141 0.0
C250 C 0.47024 0.98319 0.06209 0.0
C251 C 0.57488 0.06142 0.98594 0.0
C252 C 0.4999 0.97563 0.98703 0.0
H253 H 0.47174 0.01087 0.10171 0.0
H254 H 0.51347 0.05843 0.10156 0.0
H255 H 0.5954 0.11403 0.04795 0.0
H256 H 0.61101 0.10957 0.00618 0.0
H257 H 0.57519 0.03306 0.94766 0.0
H258 H 0.53381 0.98527 0.94814 0.0
H259 H 0.44928 0.93209 0.99879 0.0
H260 H 0.43328 0.93614 0.04041 0.0
H261 H 0.48861 0.03916 0.94999 0.0
H262 H 0.5144 0.09712 1.00095 0.0
H263 H 0.53642 0.94996 0.0476 0.0
H264 H 0.57355 0.01494 0.09158 0.0
C265 C 0.54631 0.58658 0.50503 0.0
C266 C 0.54058 0.60473 0.51094 0.0
C267 C 0.52349 0.59443 0.5296 0.0
C268 C 0.51976 0.57068 0.53398 0.0
N269 N 0.53389 0.56539 0.51955 0.0
Co270 Co 0.53246 0.53219 0.5183 0.0
N271 N 0.50688 0.51672 0.5454 0.0
C272 C 0.49671 0.52799 0.55751 0.0
C273 C 0.48189 0.51362 0.57671 0.0
C274 C 0.48332 0.49223 0.57731 0.0
C275 C 0.49896 0.49484 0.55835 0.0
N276 N 0.5302 0.49864 0.51647 0.0
C277 C 0.51888 0.47793 0.53157 0.0
C278 C 0.52267 0.45888 0.52432 0.0
C279 C 0.53743 0.46815 0.50418 0.0
C280 C 0.5418 0.49222 0.5003 0.0
N281 N 0.55906 0.54795 0.49201 0.0
C282 C 0.56981 0.53682 0.48057 0.0
C283 C 0.58739 0.55233 0.46321 0.0
C284 C 0.58766 0.5746 0.4634 0.0
C285 C 0.57009 0.57132 0.4809 0.0
N286 N 0.56135 0.54419 0.54083 0.0
C287 C 0.59916 0.5572 0.57555 0.0
C288 C 0.59834 0.5435 0.55628 0.0
C289 C 0.57955 0.53741 0.53917 0.0
C290 C 0.58138 0.56514 0.57654 0.0
C291 C 0.56281 0.55845 0.55922 0.0
N292 N 0.50347 0.5204 0.49562 0.0
C293 C 0.48774 0.50939 0.45626 0.0
C294 C 0.46659 0.5121 0.46099 0.0
C295 C 0.4634 0.51748 0.48376 0.0
C296 C 0.48176 0.52133 0.50066 0.0
C297 C 0.50567 0.51342 0.47371 0.0
H298 H 0.47818 0.5256 0.51752 0.0
H299 H 0.52152 0.51143 0.46882 0.0
H300 H 0.57973 0.52671 0.52502 0.0
H301 H 0.54953 0.56467 0.56132 0.0
C302 C 0.50308 0.55286 0.55137 0.0
C303 C 0.56279 0.58994 0.48492 0.0
C304 C 0.50691 0.47676 0.55403 0.0
C305 C 0.56056 0.51082 0.48456 0.0
H306 H 0.54768 0.62328 0.50234 0.0
H307 H 0.5145 0.60305 0.53864 0.0
H308 H 0.47214 0.51861 0.58933 0.0
H309 H 0.47459 0.47683 0.59058 0.0
H310 H 0.51659 0.44074 0.53328 0.0
H311 H 0.54561 0.45916 0.49449 0.0
H312 H 0.59783 0.54758 0.45114 0.0
H313 H 0.59875 0.591 0.45141 0.0
H314 H 0.6116 0.5368 0.55467 0.0
H315 H 0.58159 0.57636 0.59075 0.0
H316 H 0.49104 0.50505 0.43895 0.0
H317 H 0.44687 0.51893 0.48857 0.0
Mg318 Mg 0.24116 0.46775 0.25327 0.0
C319 C 0.20497 0.47998 0.22983 0.0
O320 O 0.18916 0.45904 0.24252 0.0
C321 C 0.28751 0.47622 0.27847 0.0
O322 O 0.27751 0.4536 0.26952 0.0
C323 C 0.21241 0.44875 0.30013 0.0
O324 O 0.2366 0.46287 0.30734 0.0
O325 O 0.20859 0.4452 0.27839 0.0
O326 O 0.22967 0.49005 0.23146 0.0
O327 O 0.24997 0.44668 0.22892 0.0
C328 C 0.24549 0.44683 0.20725 0.0
O329 O 0.23157 0.45634 0.20004 0.0
O330 O 0.27674 0.48888 0.27388 0.0
Mg331 Mg 0.75927 0.24221 0.75962 0.0
C332 C 0.74745 0.21168 0.71583 0.0
O333 O 0.76193 0.23513 0.70668 0.0
C334 C 0.78909 0.24962 0.80495 0.0
O335 O 0.76513 0.23499 0.81365 0.0
C336 C 0.70418 0.21378 0.78054 0.0
O337 O 0.69944 0.20085 0.76152 0.0
O338 O 0.72693 0.2336 0.78309 0.0
O339 O 0.74485 0.20855 0.73798 0.0
O340 O 0.7724 0.27557 0.73583 0.0
C341 C 0.79715 0.29 0.73263 0.0
O342 O 0.81238 0.28467 0.74457 0.0
O343 O 0.79239 0.25323 0.78289 0.0
Mg344 Mg 0.56527 0.77812 0.26696 0.0
C345 C 0.59239 0.81509 0.22547 0.0
O346 O 0.58696 0.7938 0.21585 0.0
C347 C 0.5911 0.75153 0.28914 0.0
O348 O 0.58498 0.73984 0.26929 0.0
C349 C 0.53451 0.80049 0.28427 0.0
O350 O 0.54165 0.81215 0.26352 0.0
O351 O 0.53909 0.78298 0.2893 0.0
O352 O 0.58794 0.81453 0.24723 0.0
O353 O 0.5477 0.74819 0.24143 0.0
C354 C 0.53242 0.72414 0.2455 0.0
O355 O 0.52386 0.71537 0.26694 0.0
O356 O 0.58724 0.76968 0.29177 0.0
Mg357 Mg 0.78029 0.53976 0.78401 0.0
C358 C 0.75996 0.57295 0.76523 0.0
O359 O 0.7509 0.56987 0.78672 0.0
C360 C 0.81347 0.56326 0.82646 0.0
O361 O 0.79083 0.55812 0.83493 0.0
C362 C 0.72307 0.51233 0.80351 0.0
O363 O 0.71705 0.5121 0.78145 0.0
O364 O 0.74675 0.52048 0.80868 0.0
O365 O 0.77462 0.56464 0.76034 0.0
O366 O 0.78795 0.51657 0.76121 0.0
C367 C 0.7822 0.51535 0.73972 0.0
O368 O 0.76781 0.52439 0.73265 0.0
O369 O 0.8152 0.55946 0.80507 0.0
Mg370 Mg 0.2606 0.77725 0.27162 0.0
C371 C 0.23225 0.75355 0.23022 0.0
O372 O 0.25014 0.74771 0.23292 0.0
C373 C 0.27876 0.80457 0.31526 0.0
O374 O 0.27825 0.78319 0.31917 0.0
C375 C 0.2212 0.73901 0.30327 0.0
O376 O 0.21513 0.75614 0.29808 0.0
O377 O 0.24181 0.74197 0.29376 0.0
O378 O 0.23114 0.76797 0.24496 0.0
O379 O 0.29621 0.78967 0.25066 0.0
C380 C 0.31709 0.81132 0.25391 0.0
O381 O 0.31858 0.82357 0.27269 0.0
O382 O 0.27093 0.80808 0.29564 0.0
Mg383 Mg 0.47472 0.24677 0.75622 0.0
C384 C 0.47561 0.21742 0.71856 0.0
O385 O 0.49941 0.23797 0.71942 0.0
C386 C 0.44056 0.26323 0.77868 0.0
O387 O 0.44593 0.2767 0.75893 0.0
C388 C 0.50255 0.24527 0.79961 0.0
O389 O 0.49286 0.25843 0.8073 0.0
O390 O 0.50058 0.24038 0.77805 0.0
O391 O 0.45826 0.21489 0.73299 0.0
O392 O 0.49202 0.28201 0.73396 0.0
C393 C 0.47849 0.28007 0.71615 0.0
O394 O 0.45694 0.25778 0.7127 0.0
O395 O 0.44765 0.24721 0.78101 0.0
H396 H 0.05689 0.45639 0.06636 0.0
H397 H 0.0871 0.46002 0.09697 0.0
H398 H 0.12165 0.54201 0.09619 0.0
H399 H 0.09093 0.5382 0.066 0.0
H400 H 0.14112 0.487 0.09732 0.0
H401 H 0.10269 0.52171 0.16496 0.0
H402 H 0.08562 0.50836 0.13832 0.0
H403 H 0.11346 0.5408 0.13816 0.0
C404 C 0.07084 0.4751 0.07293 0.0
C405 C 0.0714 0.49696 0.06428 0.0
C406 C 0.08815 0.47721 0.09027 0.0
C407 C 0.10637 0.50124 0.09918 0.0
C408 C 0.1074 0.52321 0.08999 0.0
H409 H 0.22989 0.51426 0.1924 0.0
H410 H 0.20895 0.52374 0.16023 0.0
C411 C 0.09 0.52107 0.07271 0.0
C412 C 0.1241 0.50308 0.11813 0.0
H413 H 0.1389 0.51866 0.17505 0.0
C414 C 0.1408 0.4941 0.11427 0.0
C415 C 0.12353 0.51222 0.14029 0.0
C416 C 0.10523 0.52113 0.14585 0.0
C417 C 0.15651 0.49346 0.13209 0.0
C418 C 0.15587 0.5025 0.15428 0.0
C419 C 0.1396 0.51202 0.15797 0.0
C420 C 0.16947 0.49944 0.1746 0.0
C421 C 0.17271 0.482 0.12731 0.0
C422 C 0.15445 0.48365 0.19382 0.0
C423 C 0.16633 0.47844 0.21219 0.0
C424 C 0.19358 0.48894 0.21186 0.0
C425 C 0.20887 0.50584 0.19317 0.0
C426 C 0.19689 0.51107 0.17468 0.0
H427 H 0.16707 0.47142 0.11088 0.0
H428 H 0.19373 0.4976 0.12565 0.0
H429 H 0.17056 0.46863 0.1419 0.0
H430 H 0.13331 0.47455 0.19424 0.0
H431 H 0.15394 0.46548 0.22637 0.0
H432 H 0.55592 0.05219 0.59018 0.0
H433 H 0.58691 0.07995 0.61956 0.0
H434 H 0.64855 0.07568 0.58621 0.0
H435 H 0.61738 0.0476 0.55702 0.0
H436 H 0.64836 0.07121 0.63548 0.0
H437 H 0.64414 0.15555 0.60549 0.0
H438 H 0.61278 0.12731 0.61311 0.0
H439 H 0.63135 0.12724 0.58862 0.0
C440 C 0.57608 0.05712 0.58929 0.0
C441 C 0.58446 0.0481 0.5713 0.0
C442 C 0.59378 0.07305 0.60596 0.0
C443 C 0.6202 0.08028 0.60489 0.0
C444 C 0.62832 0.07049 0.58734 0.0
H445 H 0.75066 0.21216 0.66833 0.0
H446 H 0.72064 0.17897 0.64226 0.0
C447 C 0.6106 0.05455 0.57066 0.0
C448 C 0.6395 0.0986 0.62164 0.0
H449 H 0.66801 0.16002 0.63964 0.0
C450 C 0.65268 0.09063 0.63642 0.0
C451 C 0.64539 0.12406 0.62266 0.0
C452 C 0.63289 0.13421 0.6065 0.0
C453 C 0.67134 0.10734 0.65233 0.0
C454 C 0.6768 0.13263 0.65368 0.0
C455 C 0.66375 0.14061 0.63875 0.0
C456 C 0.69644 0.15152 0.6699 0.0
C457 C 0.68546 0.09797 0.6672 0.0
C458 C 0.69319 0.14708 0.69425 0.0
C459 C 0.7105 0.1661 0.70931 0.0
C460 C 0.73127 0.19002 0.70031 0.0
C461 C 0.7349 0.19402 0.67593 0.0
C462 C 0.71768 0.17505 0.66095 0.0
H463 H 0.68394 0.08069 0.6601 0.0
H464 H 0.70655 0.1132 0.66858 0.0
H465 H 0.67655 0.09277 0.68504 0.0
H466 H 0.67671 0.12929 0.70163 0.0
H467 H 0.70695 0.16242 0.72797 0.0
H468 H 0.55564 0.5844 0.09874 0.0
H469 H 0.55631 0.61172 0.12913 0.0
H470 H 0.47906 0.59307 0.10964 0.0
H471 H 0.47866 0.56641 0.07889 0.0
H472 H 0.50928 0.64245 0.11571 0.0
H473 H 0.52003 0.59112 0.1917 0.0
H474 H 0.54601 0.60185 0.17044 0.0
H475 H 0.51277 0.57821 0.163 0.0
C476 C 0.53878 0.58605 0.10106 0.0
C477 C 0.51714 0.57332 0.0864 0.0
C478 C 0.53908 0.60154 0.11853 0.0
C479 C 0.51752 0.60413 0.12203 0.0
C480 C 0.49592 0.5914 0.10736 0.0
H481 H 0.49842 0.67177 0.24637 0.0
H482 H 0.49273 0.64226 0.21605 0.0
C483 C 0.49575 0.57622 0.08973 0.0
C484 C 0.51768 0.62073 0.1404 0.0
H485 H 0.52681 0.63221 0.19857 0.0
C486 C 0.51295 0.64007 0.13386 0.0
C487 C 0.52194 0.61739 0.1642 0.0
C488 C 0.52519 0.59584 0.17282 0.0
C489 C 0.51291 0.65645 0.15026 0.0
C490 C 0.5186 0.65403 0.17383 0.0
C491 C 0.52273 0.63431 0.18049 0.0
C492 C 0.52093 0.67204 0.19174 0.0
C493 C 0.50631 0.67589 0.14216 0.0
C494 C 0.53864 0.69861 0.18825 0.0
C495 C 0.54163 0.7155 0.20538 0.0
C496 C 0.52737 0.70621 0.22665 0.0
C497 C 0.50963 0.67959 0.23016 0.0
C498 C 0.50643 0.66269 0.21287 0.0
H499 H 0.49407 0.66964 0.12636 0.0
H500 H 0.49566 0.67917 0.15599 0.0
H501 H 0.52474 0.6944 0.13752 0.0
H502 H 0.55064 0.70631 0.17246 0.0
H503 H 0.55573 0.73583 0.20215 0.0
H504 H 0.96109 0.54446 0.59814 0.0
H505 H 0.93177 0.54124 0.62946 0.0
H506 H 0.8666 0.47563 0.59797 0.0
H507 H 0.89591 0.47816 0.56706 0.0
H508 H 0.88882 0.54505 0.62643 0.0
H509 H 0.85926 0.44933 0.66521 0.0
H510 H 0.88698 0.46715 0.64523 0.0
H511 H 0.85415 0.44952 0.6344 0.0
C512 C 0.94058 0.52916 0.598 0.0
C513 C 0.93091 0.5116 0.58002 0.0
C514 C 0.9238 0.52741 0.61588 0.0
C515 C 0.89702 0.50794 0.61633 0.0
C516 C 0.88726 0.49049 0.59832 0.0
H517 H 0.7749 0.51202 0.69263 0.0
H518 H 0.80174 0.50834 0.66305 0.0
C519 C 0.90401 0.49224 0.58042 0.0
C520 C 0.87918 0.50665 0.63506 0.0
H521 H 0.83576 0.4677 0.67861 0.0
C522 C 0.87729 0.52815 0.63786 0.0
C523 C 0.8643 0.48469 0.65018 0.0
C524 C 0.8664 0.46144 0.64881 0.0
C525 C 0.8607 0.52818 0.65505 0.0
C526 C 0.8452 0.50596 0.66967 0.0
C527 C 0.84741 0.4846 0.66721 0.0
C528 C 0.82691 0.50489 0.68777 0.0
C529 C 0.86019 0.5522 0.65762 0.0
C530 C 0.83128 0.50288 0.71159 0.0
C531 C 0.81582 0.50484 0.72864 0.0
C532 C 0.79564 0.50877 0.72217 0.0
C533 C 0.79037 0.50921 0.69829 0.0
C534 C 0.8058 0.50725 0.68131 0.0
H535 H 0.87763 0.56932 0.64912 0.0
H536 H 0.8424 0.54969 0.64925 0.0
H537 H 0.85945 0.55595 0.67631 0.0
H538 H 0.84736 0.50089 0.71698 0.0
H539 H 0.82043 0.50438 0.74684 0.0
H540 H 0.48932 0.9664 0.09632 0.0
H541 H 0.46476 0.93498 0.12853 0.0
H542 H 0.39275 0.92548 0.1032 0.0
H543 H 0.41748 0.9573 0.07128 0.0
H544 H 0.39767 0.93187 0.15018 0.0
H545 H 0.41734 0.85714 0.12643 0.0
H546 H 0.44646 0.88837 0.12918 0.0
H547 H 0.42371 0.88331 0.10654 0.0
C548 C 0.46822 0.95745 0.09768 0.0
C549 C 0.45513 0.96394 0.08135 0.0
C550 C 0.45419 0.93938 0.11591 0.0
C551 C 0.42682 0.92745 0.11804 0.0
C552 C 0.41381 0.93424 0.1018 0.0
H553 H 0.31414 0.79776 0.20831 0.0
H554 H 0.34208 0.82522 0.17533 0.0
C555 C 0.42786 0.95233 0.0836 0.0
C556 C 0.41185 0.90879 0.13776 0.0
H557 H 0.3971 0.8516 0.16371 0.0
C558 C 0.39751 0.9143 0.15309 0.0
C559 C 0.41139 0.8857 0.14142 0.0
C560 C 0.42534 0.87808 0.12491 0.0
C561 C 0.38308 0.89761 0.17213 0.0
C562 C 0.3833 0.87494 0.17625 0.0
C563 C 0.39724 0.86915 0.16071 0.0
C564 C 0.3687 0.85695 0.19643 0.0
C565 C 0.36733 0.90422 0.18747 0.0
C566 C 0.37511 0.86519 0.21933 0.0
C567 C 0.35923 0.84958 0.23819 0.0
C568 C 0.33665 0.8253 0.23457 0.0
C569 C 0.33135 0.81634 0.21175 0.0
C570 C 0.34726 0.83204 0.19285 0.0
H571 H 0.36406 0.91865 0.17877 0.0
H572 H 0.34796 0.88682 0.19237 0.0
H573 H 0.37816 0.91242 0.20373 0.0
H574 H 0.39189 0.88413 0.22254 0.0
H575 H 0.36405 0.85703 0.25552 0.0
H576 H 0.47013 0.42557 0.55912 0.0
H577 H 0.46774 0.39504 0.58929 0.0
H578 H 0.53636 0.4566 0.62139 0.0
H579 H 0.53889 0.48706 0.59092 0.0
H580 H 0.5389 0.41329 0.61616 0.0
H581 H 0.4439 0.38625 0.65731 0.0
H582 H 0.44195 0.38258 0.62633 0.0
H583 H 0.46211 0.41405 0.63771 0.0
C584 C 0.4845 0.43248 0.57277 0.0
C585 C 0.50462 0.45849 0.5729 0.0
C586 C 0.48309 0.41514 0.59003 0.0
C587 C 0.50165 0.42359 0.60782 0.0
C588 C 0.52176 0.44968 0.60793 0.0
H589 H 0.5178 0.33097 0.72029 0.0
H590 H 0.52575 0.36778 0.69522 0.0
C591 C 0.52316 0.46703 0.59065 0.0
C592 C 0.50049 0.40495 0.62576 0.0
H593 H 0.45971 0.35875 0.66651 0.0
C594 C 0.52175 0.40158 0.62741 0.0
C595 C 0.47816 0.3898 0.64053 0.0
C596 C 0.45534 0.39349 0.64059 0.0
C597 C 0.52072 0.3826 0.6426 0.0
C598 C 0.49797 0.36682 0.65671 0.0
C599 C 0.4771 0.37079 0.6556 0.0
C600 C 0.49449 0.34487 0.67151 0.0
C601 C 0.54348 0.37883 0.64276 0.0
C602 C 0.47431 0.31987 0.66656 0.0
C603 C 0.46972 0.29897 0.68077 0.0
C604 C 0.48513 0.30251 0.70043 0.0
C605 C 0.50567 0.32756 0.70523 0.0
C606 C 0.51028 0.3486 0.69089 0.0
H607 H 0.55752 0.38951 0.62797 0.0
H608 H 0.5542 0.3858 0.65927 0.0
H609 H 0.53634 0.35813 0.6419 0.0
H610 H 0.4619 0.31654 0.6517 0.0
H611 H 0.45377 0.27999 0.67646 0.0
H612 H 0.52164 0.95604 0.41806 0.0
H613 H 0.51981 0.92795 0.38812 0.0
H614 H 0.53155 0.88319 0.44034 0.0
H615 H 0.53389 0.91148 0.47046 0.0
H616 H 0.55874 0.91733 0.37614 0.0
H617 H 0.46535 0.829 0.4061 0.0
H618 H 0.47518 0.8605 0.41556 0.0
H619 H 0.48984 0.84403 0.42798 0.0
C620 C 0.52417 0.94043 0.42321 0.0
C621 C 0.52799 0.93612 0.44674 0.0
C622 C 0.52289 0.92425 0.40606 0.0
C623 C 0.52514 0.90325 0.41204 0.0
C624 C 0.5292 0.89897 0.43542 0.0
H625 H 0.52959 0.78889 0.33138 0.0
H626 H 0.52556 0.81298 0.36234 0.0
C627 C 0.53057 0.9152 0.45261 0.0
C628 C 0.52401 0.88637 0.39362 0.0
H629 H 0.48866 0.8249 0.37506 0.0
C630 C 0.54337 0.89715 0.37584 0.0
C631 C 0.50399 0.86002 0.39334 0.0
C632 C 0.48225 0.84765 0.41163 0.0
C633 C 0.54351 0.88223 0.35796 0.0
C634 C 0.52333 0.85592 0.3575 0.0
C635 C 0.50401 0.84509 0.37536 0.0
C636 C 0.52239 0.83936 0.33879 0.0
C637 C 0.56569 0.8947 0.34005 0.0
C638 C 0.5207 0.84541 0.31528 0.0
C639 C 0.52308 0.83175 0.29754 0.0
C640 C 0.52694 0.81156 0.30294 0.0
C641 C 0.52672 0.80436 0.32656 0.0
C642 C 0.52447 0.81815 0.34431 0.0
H643 H 0.58291 0.91269 0.34632 0.0
H644 H 0.57212 0.88148 0.33554 0.0
H645 H 0.55889 0.89966 0.32392 0.0
H646 H 0.51839 0.86128 0.31063 0.0
H647 H 0.52291 0.83767 0.27956 0.0
H648 H 0.6054 0.53714 0.97713 0.0
H649 H 0.63296 0.53469 0.94699 0.0
H650 H 0.56358 0.48152 0.90996 0.0
H651 H 0.53598 0.48357 0.94033 0.0
H652 H 0.62539 0.48306 0.93054 0.0
H653 H 0.61672 0.54477 0.8625 0.0
H654 H 0.61274 0.54762 0.89326 0.0
H655 H 0.58746 0.52066 0.87833 0.0
C656 C 0.59612 0.52484 0.9626 0.0
C657 C 0.56864 0.51029 0.96111 0.0
C658 C 0.61181 0.52349 0.94542 0.0
C659 C 0.60029 0.50793 0.92627 0.0
C660 C 0.57284 0.49369 0.92457 0.0
H661 H 0.67045 0.49316 0.79927 0.0
H662 H 0.63971 0.4896 0.82933 0.0
C663 C 0.55714 0.49486 0.94186 0.0
C664 C 0.617 0.50643 0.90816 0.0
H665 H 0.64126 0.52682 0.8525 0.0
C666 C 0.62889 0.49259 0.91345 0.0
C667 C 0.62127 0.51866 0.88585 0.0
C668 C 0.60904 0.53391 0.87949 0.0
C669 C 0.6449 0.49055 0.89694 0.0
C670 C 0.6498 0.50336 0.87474 0.0
C671 C 0.6376 0.51699 0.86945 0.0
C672 C 0.668 0.50352 0.85696 0.0
C673 C 0.6559 0.4742 0.90334 0.0
C674 C 0.69416 0.51233 0.8624 0.0
C675 C 0.71169 0.51405 0.84531 0.0
C676 C 0.70362 0.50743 0.82222 0.0
C677 C 0.67733 0.49831 0.81686 0.0
C678 C 0.65974 0.49637 0.83404 0.0
H679 H 0.64363 0.4593 0.91709 0.0
H680 H 0.6573 0.46454 0.88795 0.0
H681 H 0.67586 0.48656 0.91036 0.0
H682 H 0.70132 0.51866 0.87972 0.0
H683 H 0.73184 0.52147 0.85005 0.0
H684 H 0.04806 0.59859 0.45651 0.0
H685 H 0.08089 0.62738 0.42661 0.0
H686 H 0.10872 0.57602 0.4228 0.0
H687 H 0.07568 0.5471 0.45263 0.0
H688 H 0.14941 0.63099 0.42498 0.0
H689 H 0.07648 0.60994 0.35622 0.0
H690 H 0.06926 0.61844 0.38359 0.0
H691 H 0.06911 0.58931 0.382 0.0
C692 C 0.06117 0.59351 0.44918 0.0
C693 C 0.05922 0.57058 0.45648 0.0
C694 C 0.07985 0.60987 0.43215 0.0
C695 C 0.09698 0.60363 0.42226 0.0
C696 C 0.09559 0.58109 0.43011 0.0
H697 H 0.22513 0.69787 0.31774 0.0
H698 H 0.19612 0.6628 0.34596 0.0
C699 C 0.07678 0.56464 0.44706 0.0
C700 C 0.1161 0.62062 0.40358 0.0
H701 H 0.11981 0.64569 0.34864 0.0
C702 C 0.14305 0.63404 0.40816 0.0
C703 C 0.1077 0.62436 0.38162 0.0
C704 C 0.07908 0.60961 0.37539 0.0
C705 C 0.16176 0.65219 0.39178 0.0
C706 C 0.15325 0.6566 0.37011 0.0
C707 C 0.12635 0.64236 0.36525 0.0
C708 C 0.17139 0.67755 0.35313 0.0
C709 C 0.1903 0.66736 0.39823 0.0
C710 C 0.1669 0.69718 0.34749 0.0
C711 C 0.18315 0.71691 0.33136 0.0
C712 C 0.2044 0.71761 0.32036 0.0
C713 C 0.209 0.69794 0.32597 0.0
C714 C 0.19253 0.67799 0.34218 0.0
H715 H 0.19297 0.66516 0.41715 0.0
H716 H 0.20108 0.66052 0.38835 0.0
H717 H 0.19928 0.68809 0.39359 0.0
H718 H 0.15076 0.6973 0.35568 0.0
H719 H 0.17896 0.7317 0.32758 0.0
H720 H 0.54099 0.12161 0.96603 0.0
H721 H 0.54407 0.15243 0.93612 0.0
H722 H 0.47154 0.0932 0.90707 0.0
H723 H 0.4679 0.06238 0.93742 0.0
H724 H 0.54659 0.15257 0.88782 0.0
H725 H 0.45759 0.15006 0.91763 0.0
H726 H 0.47264 0.13661 0.93509 0.0
H727 H 0.45185 0.11914 0.91142 0.0
C728 C 0.52544 0.11521 0.95352 0.0
C729 C 0.50392 0.08961 0.95441 0.0
C730 C 0.5274 0.1328 0.93627 0.0
C731 C 0.50784 0.12526 0.91957 0.0
C732 C 0.48662 0.09959 0.92005 0.0
H733 H 0.51252 0.20762 0.79121 0.0
H734 H 0.5167 0.18 0.82019 0.0
C735 C 0.48465 0.08194 0.93731 0.0
C736 C 0.50959 0.14435 0.90184 0.0
H737 H 0.47752 0.17304 0.88199 0.0
C738 C 0.53152 0.1571 0.88654 0.0
C739 C 0.49013 0.15055 0.90042 0.0
C740 C 0.46684 0.13858 0.91714 0.0
C741 C 0.53428 0.17557 0.86964 0.0
C742 C 0.51443 0.1812 0.86781 0.0
C743 C 0.4927 0.16866 0.88331 0.0
C744 C 0.51551 0.19995 0.85 0.0
C745 C 0.55863 0.18917 0.85419 0.0
C746 C 0.5137 0.22056 0.85702 0.0
C747 C 0.51113 0.23629 0.8405 0.0
C748 C 0.5102 0.23171 0.81655 0.0
C749 C 0.51334 0.21184 0.80947 0.0
C750 C 0.51581 0.19603 0.82605 0.0
H751 H 0.57492 0.18807 0.86196 0.0
H752 H 0.55416 0.1799 0.83714 0.0
H753 H 0.56538 0.20968 0.85096 0.0
H754 H 0.51343 0.22398 0.87539 0.0
H755 H 0.50879 0.2514 0.8466 0.0
H756 H 0.44539 0.54151 0.45364 0.0
H757 H 0.41528 0.53783 0.42314 0.0
H758 H 0.41732 0.47503 0.39486 0.0
H759 H 0.44674 0.47801 0.42571 0.0
H760 H 0.42203 0.54219 0.37464 0.0
H761 H 0.33873 0.44546 0.4029 0.0
H762 H 0.36634 0.4646 0.42125 0.0
H763 H 0.36888 0.44673 0.39841 0.0
C764 C 0.43914 0.52665 0.44114 0.0
C765 C 0.44832 0.50988 0.44231 0.0
C766 C 0.42211 0.52473 0.42359 0.0
C767 C 0.41374 0.50593 0.40691 0.0
C768 C 0.42313 0.4894 0.40779 0.0
H769 H 0.3173 0.45591 0.28674 0.0
H770 H 0.34862 0.46574 0.31769 0.0
C771 C 0.44018 0.4913 0.42533 0.0
C772 C 0.39536 0.50369 0.38845 0.0
H773 H 0.33574 0.46157 0.36547 0.0
C774 C 0.40306 0.52465 0.37273 0.0
C775 C 0.37052 0.48087 0.3861 0.0
C776 C 0.36046 0.45821 0.40319 0.0
C777 C 0.38702 0.52302 0.35414 0.0
C778 C 0.36254 0.49993 0.35143 0.0
C779 C 0.35459 0.47923 0.3675 0.0
C780 C 0.3453 0.49614 0.33141 0.0
C781 C 0.39675 0.54565 0.3371 0.0
C782 C 0.33327 0.51029 0.32854 0.0
C783 C 0.31524 0.50473 0.31068 0.0
C784 C 0.30886 0.4848 0.29556 0.0
C785 C 0.32162 0.4713 0.29812 0.0
C786 C 0.33956 0.47687 0.31584 0.0
H787 H 0.418 0.5601 0.33902 0.0
H788 H 0.39331 0.53924 0.31887 0.0
H789 H 0.38575 0.55512 0.34019 0.0
H790 H 0.33714 0.52501 0.34057 0.0
H791 H 0.30561 0.51534 0.30928 0.0
H792 H 0.93263 0.38835 0.97221 0.0
H793 H 0.90459 0.35474 0.94551 0.0
H794 H 0.94195 0.40836 0.8869 0.0
H795 H 0.96956 0.44238 0.91342 0.0
H796 H 0.86967 0.35796 0.91209 0.0
H797 H 0.94353 0.34366 0.86952 0.0
H798 H 0.94884 0.3583 0.8974 0.0
H799 H 0.95198 0.37632 0.87098 0.0
C800 C 0.9349 0.39314 0.95366 0.0
C801 C 0.95345 0.41827 0.9451 0.0
C802 C 0.91894 0.37379 0.9384 0.0
C803 C 0.92135 0.37895 0.91419 0.0
C804 C 0.94007 0.40381 0.90549 0.0
H805 H 0.8373 0.29259 0.7935 0.0
H806 H 0.86985 0.32297 0.82028 0.0
C807 C 0.95592 0.42325 0.92074 0.0
C808 C 0.90322 0.35874 0.89818 0.0
H809 H 0.90084 0.32177 0.854 0.0
C810 C 0.87643 0.34991 0.89948 0.0
C811 C 0.91214 0.34848 0.88159 0.0
C812 C 0.94066 0.35696 0.87977 0.0
C813 C 0.85836 0.33145 0.88438 0.0
C814 C 0.86715 0.32083 0.86794 0.0
C815 C 0.89402 0.32971 0.86665 0.0
C816 C 0.84877 0.30095 0.85168 0.0
C817 C 0.83016 0.32419 0.88571 0.0
C818 C 0.8266 0.27785 0.86029 0.0
C819 C 0.80784 0.26054 0.84502 0.0
C820 C 0.81105 0.26569 0.82074 0.0
C821 C 0.83416 0.28797 0.81208 0.0
C822 C 0.8528 0.30543 0.8274 0.0
H823 H 0.82829 0.33914 0.8941 0.0
H824 H 0.82159 0.32121 0.86809 0.0
H825 H 0.81843 0.30605 0.89637 0.0
H826 H 0.82342 0.27351 0.8789 0.0
H827 H 0.79042 0.24346 0.85229 0.0
H828 H 0.97867 0.5773 0.98173 0.0
H829 H 0.95144 0.5868 0.95662 0.0
H830 H 0.92909 0.51977 0.91757 0.0
H831 H 0.95619 0.51031 0.9427 0.0
H832 H 0.95334 0.59453 0.90631 0.0
H833 H 0.8586 0.51025 0.93942 0.0
H834 H 0.88898 0.52218 0.95465 0.0
H835 H 0.88202 0.50273 0.92979 0.0
C836 C 0.96792 0.56474 0.96772 0.0
C837 C 0.96922 0.54306 0.96405 0.0
C838 C 0.95248 0.57015 0.95342 0.0
C839 C 0.93804 0.55381 0.93544 0.0
C840 C 0.93979 0.5324 0.93156 0.0
H841 H 0.86064 0.56887 0.81574 0.0
H842 H 0.89251 0.57037 0.84305 0.0
C843 C 0.95526 0.52705 0.94579 0.0
C844 C 0.92085 0.55886 0.92084 0.0
H845 H 0.85702 0.53262 0.90549 0.0
C846 C 0.93225 0.58113 0.90621 0.0
C847 C 0.89333 0.54153 0.92103 0.0
C848 C 0.8799 0.51793 0.9372 0.0
C849 C 0.91688 0.58608 0.89116 0.0
C850 C 0.88948 0.56814 0.89063 0.0
C851 C 0.87804 0.54631 0.90582 0.0
C852 C 0.87224 0.57096 0.87394 0.0
C853 C 0.93007 0.61046 0.87604 0.0
C854 C 0.85033 0.57099 0.88217 0.0
C855 C 0.83197 0.56999 0.8666 0.0
C856 C 0.83506 0.56873 0.84247 0.0
C857 C 0.85768 0.56991 0.83419 0.0
C858 C 0.87602 0.57089 0.8498 0.0
H859 H 0.94916 0.62532 0.88325 0.0
H860 H 0.93395 0.60622 0.85839 0.0
H861 H 0.91737 0.6184 0.8742 0.0
H862 H 0.847 0.57097 0.90074 0.0
H863 H 0.81482 0.56915 0.87359 0.0
H864 H 0.4519 0.9362 0.45551 0.0
H865 H 0.41904 0.91161 0.42612 0.0
H866 H 0.38243 0.95431 0.4383 0.0
H867 H 0.41525 0.97873 0.46794 0.0
H868 H 0.34653 0.90174 0.43669 0.0
H869 H 0.41482 0.93678 0.36028 0.0
H870 H 0.42487 0.92405 0.38374 0.0
H871 H 0.42385 0.95232 0.38784 0.0
C872 C 0.43681 0.94026 0.45181 0.0
C873 C 0.436 0.95931 0.46373 0.0
C874 C 0.41821 0.92641 0.43495 0.0
C875 C 0.39857 0.93146 0.42967 0.0
C876 C 0.39753 0.95026 0.44193 0.0
H877 H 0.29966 0.85655 0.30861 0.0
H878 H 0.32622 0.8901 0.33629 0.0
C879 C 0.41619 0.96415 0.4588 0.0
C880 C 0.37871 0.91651 0.41188 0.0
H881 H 0.37242 0.89873 0.35533 0.0
C882 C 0.35214 0.90135 0.41881 0.0
C883 C 0.38592 0.91637 0.38842 0.0
C884 C 0.41389 0.93346 0.37953 0.0
C885 C 0.33282 0.88497 0.40327 0.0
C886 C 0.34032 0.88347 0.38028 0.0
C887 C 0.36667 0.89971 0.37299 0.0
C888 C 0.32176 0.8635 0.36433 0.0
C889 C 0.3046 0.86914 0.41174 0.0
C890 C 0.31026 0.83749 0.37094 0.0
C891 C 0.29522 0.81844 0.35526 0.0
C892 C 0.29136 0.82492 0.3325 0.0
C893 C 0.30207 0.85095 0.32608 0.0
C894 C 0.31735 0.87011 0.34183 0.0
H895 H 0.30089 0.87847 0.42615 0.0
H896 H 0.29093 0.86603 0.39741 0.0
H897 H 0.30019 0.85013 0.41857 0.0
H898 H 0.31381 0.83188 0.38797 0.0
H899 H 0.28729 0.79859 0.36078 0.0
H900 H 0.4368 0.3701 0.96918 0.0
H901 H 0.42635 0.33706 0.94088 0.0
H902 H 0.46981 0.39611 0.8873 0.0
H903 H 0.48045 0.42916 0.91536 0.0
H904 H 0.40151 0.33301 0.89183 0.0
H905 H 0.50078 0.34717 0.8928 0.0
H906 H 0.48783 0.3557 0.91679 0.0
H907 H 0.49956 0.37572 0.89059 0.0
C908 C 0.44417 0.376 0.95138 0.0
C909 C 0.45942 0.4022 0.94446 0.0
C910 C 0.43805 0.35714 0.93525 0.0
C911 C 0.44737 0.36424 0.9121 0.0
C912 C 0.46247 0.39032 0.90513 0.0
H913 H 0.42486 0.29737 0.78039 0.0
H914 H 0.42164 0.3176 0.81499 0.0
C915 C 0.46841 0.40914 0.92114 0.0
C916 C 0.44194 0.34456 0.89515 0.0
H917 H 0.47216 0.32146 0.86336 0.0
C918 C 0.41681 0.33021 0.88574 0.0
C919 C 0.46193 0.3409 0.88746 0.0
C920 C 0.48905 0.35551 0.89748 0.0
C921 C 0.41145 0.31288 0.8681 0.0
C922 C 0.43177 0.31002 0.85972 0.0
C923 C 0.4566 0.32369 0.86982 0.0
C924 C 0.42851 0.29438 0.83947 0.0
C925 C 0.38421 0.29797 0.85838 0.0
C926 C 0.43285 0.2742 0.84179 0.0
C927 C 0.43466 0.26254 0.82203 0.0
C928 C 0.43258 0.27116 0.79956 0.0
C929 C 0.42659 0.29029 0.79742 0.0
C930 C 0.42462 0.30181 0.8172 0.0
H931 H 0.36941 0.29707 0.87059 0.0
H932 H 0.38385 0.30757 0.84178 0.0
H933 H 0.37852 0.2781 0.85463 0.0
H934 H 0.43601 0.26826 0.85883 0.0
H935 H 0.43929 0.24788 0.82434 0.0
H936 H 0.04416 0.47605 0.40734 0.0
H937 H 0.06869 0.46627 0.38031 0.0
H938 H 0.09129 0.4355 0.4377 0.0
H939 H 0.06597 0.44429 0.46476 0.0
H940 H 0.12123 0.48616 0.38039 0.0
H941 H 0.06775 0.38002 0.39048 0.0
H942 H 0.05435 0.39817 0.40073 0.0
H943 H 0.07816 0.39578 0.41765 0.0
C944 C 0.05384 0.46667 0.41419 0.0
C945 C 0.05299 0.4609 0.43827 0.0
C946 C 0.06801 0.46124 0.39871 0.0
C947 C 0.08153 0.44981 0.4069 0.0
C948 C 0.08057 0.44382 0.43087 0.0
H949 H 0.21416 0.45352 0.34732 0.0
H950 H 0.18022 0.45071 0.37292 0.0
C951 C 0.06636 0.4492 0.44638 0.0
C952 C 0.09819 0.44594 0.39061 0.0
H953 H 0.1096 0.40099 0.37066 0.0
C954 C 0.1185 0.46749 0.37813 0.0
C955 C 0.09457 0.42153 0.38757 0.0
C956 C 0.07237 0.3975 0.39964 0.0
C957 C 0.13566 0.46542 0.3632 0.0
C958 C 0.13254 0.44123 0.36073 0.0
C959 C 0.11196 0.41953 0.37275 0.0
C960 C 0.15119 0.43867 0.34612 0.0
C961 C 0.15731 0.48916 0.35028 0.0
C962 C 0.1457 0.43199 0.32275 0.0
C963 C 0.16509 0.43359 0.30799 0.0
C964 C 0.19028 0.442 0.3164 0.0
C965 C 0.19505 0.44711 0.34022 0.0
C966 C 0.17569 0.4455 0.35492 0.0
H967 H 0.15564 0.50609 0.35241 0.0
H968 H 0.17661 0.49375 0.35689 0.0
H969 H 0.15695 0.48564 0.33138 0.0
H970 H 0.12687 0.42675 0.31568 0.0
H971 H 0.16076 0.42956 0.28975 0.0
H972 H 0.55003 0.0743 0.95432 0.0
H973 H 0.56896 0.10286 0.91936 0.0
H974 H 0.64565 0.11878 0.93748 0.0
H975 H 0.62654 0.09001 0.97242 0.0
H976 H 0.60987 0.15563 0.91312 0.0
H977 H 0.6339 0.09045 0.87151 0.0
H978 H 0.61213 0.08057 0.89667 0.0
H979 H 0.6471 0.09976 0.90009 0.0
C980 C 0.57093 0.08413 0.95085 0.0
C981 C 0.58693 0.08014 0.96586 0.0
C982 C 0.58172 0.10042 0.93097 0.0
C983 C 0.60864 0.11268 0.9257 0.0
C984 C 0.62476 0.10922 0.9411 0.0
H985 H 0.71066 0.23166 0.82471 0.0
H986 H 0.68409 0.20807 0.85952 0.0
C987 C 0.61395 0.09296 0.96102 0.0
C988 C 0.61965 0.12817 0.90361 0.0
H989 H 0.65069 0.13132 0.8527 0.0
C990 C 0.61875 0.15033 0.89984 0.0
C991 C 0.63068 0.12088 0.88614 0.0
C992 C 0.63084 0.09649 0.88862 0.0
C993 C 0.6294 0.16586 0.87931 0.0
C994 C 0.64139 0.15909 0.86229 0.0
C995 C 0.6416 0.13655 0.86583 0.0
C996 C 0.65467 0.17532 0.84094 0.0
C997 C 0.62759 0.18923 0.87589 0.0
C998 C 0.6467 0.16497 0.81888 0.0
C999 C 0.66188 0.17836 0.79893 0.0
C1000 C 0.68549 0.20228 0.80072 0.0
C1001 C 0.69258 0.2133 0.82268 0.0
C1002 C 0.67734 0.19989 0.84263 0.0
H1003 H 0.61218 0.18814 0.88742 0.0
H1004 H 0.64668 0.20658 0.88015 0.0
H1005 H 0.62327 0.19157 0.85746 0.0
H1006 H 0.62929 0.14601 0.81721 0.0
H1007 H 0.65578 0.16932 0.78231 0.0
H1008 H 0.60856 0.63627 0.47779 0.0
H1009 H 0.61888 0.66888 0.44645 0.0
H1010 H 0.54111 0.62058 0.41952 0.0
H1011 H 0.5308 0.58832 0.451 0.0
H1012 H 0.61916 0.66422 0.39872 0.0
H1013 H 0.54706 0.68922 0.42391 0.0
H1014 H 0.55589 0.67144 0.44332 0.0
H1015 H 0.53227 0.65536 0.42093 0.0
C1016 C 0.59372 0.63292 0.46524 0.0
C1017 C 0.5689 0.61011 0.46668 0.0
C1018 C 0.59959 0.6514 0.44738 0.0
C1019 C 0.58063 0.64733 0.43086 0.0
C1020 C 0.55583 0.6244 0.43237 0.0
H1021 H 0.59176 0.70749 0.29182 0.0
H1022 H 0.59358 0.68518 0.32705 0.0
C1023 C 0.54997 0.60597 0.45021 0.0
C1024 C 0.58693 0.66655 0.41155 0.0
H1025 H 0.56527 0.70216 0.38512 0.0
C1026 C 0.6076 0.67278 0.39588 0.0
C1027 C 0.57213 0.67804 0.40808 0.0
C1028 C 0.55078 0.6734 0.42509 0.0
C1029 C 0.61312 0.68933 0.37625 0.0
C1030 C 0.59726 0.69956 0.37201 0.0
C1031 C 0.57732 0.69417 0.38824 0.0
C1032 C 0.59992 0.71478 0.35034 0.0
C1033 C 0.63585 0.69566 0.36025 0.0
C1034 C 0.60301 0.73895 0.35161 0.0
C1035 C 0.60172 0.75169 0.33147 0.0
C1036 C 0.59719 0.74042 0.30966 0.0
C1037 C 0.59541 0.7168 0.30829 0.0
C1038 C 0.59658 0.70404 0.32845 0.0
H1039 H 0.6508 0.69358 0.36961 0.0
H1040 H 0.62854 0.68214 0.3458 0.0
H1041 H 0.64543 0.71553 0.35259 0.0
H1042 H 0.60555 0.74758 0.36832 0.0
H1043 H 0.6032 0.76986 0.33317 0.0
H1044 H 0.44044 0.03187 0.58858 0.0
H1045 H 0.43028 0.05674 0.61397 0.0
H1046 H 0.50522 0.12502 0.59579 0.0
H1047 H 0.51574 0.10037 0.57079 0.0
H1048 H 0.45909 0.08518 0.65257 0.0
H1049 H 0.45298 0.14773 0.58459 0.0
H1050 H 0.45111 0.11836 0.578 0.0
H1051 H 0.48245 0.14733 0.58208 0.0
C1052 C 0.45479 0.05217 0.59003 0.0
C1053 C 0.47887 0.06415 0.57752 0.0
C1054 C 0.44887 0.06636 0.60443 0.0
C1055 C 0.46679 0.09279 0.60641 0.0
C1056 C 0.49082 0.10476 0.59404 0.0
H1057 H 0.50793 0.22077 0.68375 0.0
H1058 H 0.50049 0.18804 0.65679 0.0
C1059 C 0.4968 0.09063 0.57972 0.0
C1060 C 0.4612 0.10786 0.62224 0.0
H1061 H 0.45988 0.16245 0.62375 0.0
C1062 C 0.4587 0.10179 0.64631 0.0
C1063 C 0.46053 0.12937 0.61395 0.0
C1064 C 0.46164 0.13597 0.58821 0.0
C1065 C 0.45741 0.11775 0.66243 0.0
C1066 C 0.45827 0.14009 0.65416 0.0
C1067 C 0.4593 0.14534 0.63003 0.0
C1068 C 0.46148 0.15987 0.67016 0.0
C1069 C 0.45675 0.11148 0.68819 0.0
C1070 C 0.44179 0.15501 0.68646 0.0
C1071 C 0.44599 0.17383 0.70205 0.0
C1072 C 0.46996 0.1977 0.70151 0.0
C1073 C 0.4893 0.20257 0.68477 0.0
C1074 C 0.48507 0.18389 0.66926 0.0
H1075 H 0.45979 0.09541 0.69169 0.0
H1076 H 0.47208 0.12858 0.69725 0.0
H1077 H 0.4374 0.1059 0.69582 0.0
H1078 H 0.42329 0.13667 0.68722 0.0
H1079 H 0.43069 0.16955 0.7147 0.0
H1080 H 0.44063 0.49273 0.08245 0.0
H1081 H 0.40579 0.48524 0.11001 0.0
H1082 H 0.3483 0.42361 0.06871 0.0
H1083 H 0.38331 0.43098 0.04129 0.0
H1084 H 0.36186 0.4878 0.10093 0.0
H1085 H 0.33291 0.39047 0.13502 0.0
H1086 H 0.3632 0.4114 0.11882 0.0
H1087 H 0.33274 0.39391 0.10378 0.0
C1088 C 0.42052 0.47757 0.0794 0.0
C1089 C 0.41444 0.46241 0.0599 0.0
C1090 C 0.40068 0.47329 0.09507 0.0
C1091 C 0.37449 0.45364 0.09159 0.0
C1092 C 0.36842 0.43854 0.07198 0.0
H1093 H 0.24125 0.44627 0.15976 0.0
H1094 H 0.27076 0.44535 0.13115 0.0
C1095 C 0.38829 0.44285 0.05627 0.0
C1096 C 0.35353 0.44962 0.10813 0.0
H1097 H 0.30655 0.40614 0.1472 0.0
C1098 C 0.34974 0.46993 0.11102 0.0
C1099 C 0.33795 0.42639 0.12147 0.0
C1100 C 0.34197 0.40433 0.11985 0.0
C1101 C 0.33071 0.46764 0.12677 0.0
C1102 C 0.31469 0.44422 0.13974 0.0
C1103 C 0.31861 0.42394 0.13702 0.0
C1104 C 0.29453 0.44098 0.15685 0.0
C1105 C 0.32836 0.49057 0.12982 0.0
C1106 C 0.29721 0.43737 0.18074 0.0
C1107 C 0.28021 0.43767 0.19719 0.0
C1108 C 0.26022 0.44157 0.18999 0.0
C1109 C 0.25656 0.44346 0.16594 0.0
C1110 C 0.27351 0.44309 0.14954 0.0
H1111 H 0.34597 0.50866 0.12282 0.0
H1112 H 0.31106 0.48776 0.12025 0.0
H1113 H 0.32554 0.4928 0.14852 0.0
H1114 H 0.3132 0.43553 0.18675 0.0
H1115 H 0.28358 0.43609 0.21556 0.0
H1116 H 0.93965 0.39459 0.56097 0.0
H1117 H 0.90679 0.37215 0.59259 0.0
H1118 H 0.8906 0.43249 0.5903 0.0
H1119 H 0.92391 0.45511 0.55895 0.0
H1120 H 0.89699 0.4202 0.63457 0.0
H1121 H 0.82747 0.3315 0.58997 0.0
H1122 H 0.86021 0.33796 0.58856 0.0
H1123 H 0.85305 0.36005 0.57441 0.0
C1124 C 0.92894 0.4029 0.56724 0.0
C1125 C 0.93423 0.42651 0.55782 0.0
C1126 C 0.91004 0.39002 0.58509 0.0
C1127 C 0.89588 0.40041 0.59352 0.0
C1128 C 0.90112 0.42402 0.58394 0.0
H1129 H 0.77228 0.30017 0.69761 0.0
H1130 H 0.79321 0.33057 0.664 0.0
C1131 C 0.92008 0.43691 0.56612 0.0
C1132 C 0.87676 0.38723 0.61322 0.0
H1133 H 0.82515 0.32855 0.63213 0.0
C1134 C 0.88099 0.40029 0.63393 0.0
C1135 C 0.85546 0.36147 0.61223 0.0
C1136 C 0.84859 0.34704 0.59 0.0
C1137 C 0.86571 0.38767 0.65416 0.0
C1138 C 0.84596 0.36124 0.65373 0.0
C1139 C 0.84049 0.34873 0.63257 0.0
C1140 C 0.83291 0.34551 0.6754 0.0
C1141 C 0.87126 0.40263 0.67594 0.0
C1142 C 0.84823 0.34398 0.693 0.0
C1143 C 0.8364 0.32681 0.71211 0.0
C1144 C 0.80894 0.31049 0.71397 0.0
C1145 C 0.79348 0.31258 0.69674 0.0
C1146 C 0.8054 0.32988 0.67752 0.0
H1147 H 0.88029 0.42344 0.67165 0.0
H1148 H 0.85306 0.3955 0.68656 0.0
H1149 H 0.88539 0.40054 0.68667 0.0
H1150 H 0.86945 0.35526 0.69148 0.0
H1151 H 0.84892 0.3257 0.72503 0.0
H1152 H 0.57327 0.94866 0.06088 0.0
H1153 H 0.58391 0.92389 0.08773 0.0
H1154 H 0.56889 0.95657 0.1463 0.0
H1155 H 0.55697 0.98036 0.11974 0.0
H1156 H 0.62149 0.93864 0.1215 0.0
H1157 H 0.52147 0.88029 0.16146 0.0
H1158 H 0.5285 0.90004 0.13517 0.0
H1159 H 0.53586 0.91424 0.16323 0.0
C1160 C 0.57195 0.95038 0.07948 0.0
C1161 C 0.56404 0.96639 0.0881 0.0
C1162 C 0.57828 0.93639 0.09479 0.0
C1163 C 0.57678 0.93806 0.11902 0.0
C1164 C 0.56969 0.95459 0.12768 0.0
H1165 H 0.59421 0.85829 0.23859 0.0
H1166 H 0.59436 0.89091 0.21293 0.0
C1167 C 0.5632 0.96846 0.11242 0.0
C1168 C 0.58218 0.92218 0.13525 0.0
H1169 H 0.55449 0.87597 0.17917 0.0
C1170 C 0.60685 0.92491 0.1341 0.0
C1171 C 0.563 0.9042 0.15162 0.0
C1172 C 0.53564 0.89928 0.15285 0.0
C1173 C 0.61294 0.91034 0.14909 0.0
C1174 C 0.59381 0.89251 0.16551 0.0
C1175 C 0.56922 0.88987 0.16671 0.0
C1176 C 0.59821 0.87544 0.181 0.0
C1177 C 0.63984 0.91428 0.14746 0.0
C1178 C 0.60096 0.85629 0.17155 0.0
C1179 C 0.60081 0.83755 0.18616 0.0
C1180 C 0.59781 0.83758 0.21049 0.0
C1181 C 0.59659 0.85769 0.21995 0.0
C1182 C 0.5966 0.87633 0.20532 0.0
H1183 H 0.65418 0.93275 0.13814 0.0
H1184 H 0.64728 0.91393 0.16511 0.0
H1185 H 0.63863 0.89847 0.1377 0.0
H1186 H 0.60183 0.85503 0.15282 0.0
H1187 H 0.60176 0.82235 0.17829 0.0
H1188 H 0.65035 0.56976 0.57264 0.0
H1189 H 0.67978 0.5764 0.60483 0.0
H1190 H 0.61993 0.5644 0.65423 0.0
H1191 H 0.59001 0.55644 0.62244 0.0
H1192 H 0.69957 0.61185 0.6393 0.0
H1193 H 0.63773 0.51317 0.67838 0.0
H1194 H 0.63214 0.522 0.64966 0.0
H1195 H 0.62042 0.52936 0.6752 0.0
C1196 C 0.64333 0.56823 0.59037 0.0
C1197 C 0.6177 0.56241 0.59489 0.0
C1198 C 0.66027 0.57227 0.60873 0.0
C1199 C 0.65191 0.5705 0.63195 0.0
C1200 C 0.62664 0.56537 0.63649 0.0
H1201 H 0.71877 0.57981 0.76773 0.0
H1202 H 0.69441 0.58302 0.73508 0.0
C1203 C 0.60965 0.56117 0.6182 0.0
C1204 C 0.66942 0.5737 0.65151 0.0
H1205 H 0.6732 0.54342 0.70098 0.0
C1206 C 0.69388 0.59687 0.65274 0.0
C1207 C 0.66201 0.55407 0.66898 0.0
C1208 C 0.63677 0.52816 0.66792 0.0
C1209 C 0.71087 0.60108 0.67126 0.0
C1210 C 0.7032 0.5816 0.68886 0.0
C1211 C 0.67885 0.55844 0.68757 0.0
C1212 C 0.72042 0.58419 0.7084 0.0
C1213 C 0.73671 0.62641 0.67208 0.0
C1214 C 0.74347 0.58442 0.70419 0.0
C1215 C 0.75741 0.58249 0.7228 0.0
C1216 C 0.74848 0.58025 0.74597 0.0
C1217 C 0.72625 0.58158 0.75014 0.0
C1218 C 0.71224 0.58334 0.7315 0.0
H1219 H 0.73729 0.64128 0.66011 0.0
H1220 H 0.74054 0.63346 0.69009 0.0
H1221 H 0.75279 0.62374 0.66678 0.0
H1222 H 0.74992 0.58471 0.68648 0.0
H1223 H 0.77443 0.5815 0.71896 0.0
H1224 H 0.04629 0.6071 0.0883 0.0
H1225 H 0.07178 0.64074 0.11595 0.0
H1226 H 0.1418 0.64319 0.09496 0.0
H1227 H 0.11654 0.60948 0.06755 0.0
H1228 H 0.10035 0.63941 0.15344 0.0
H1229 H 0.16561 0.7189 0.09068 0.0
H1230 H 0.13599 0.69015 0.08194 0.0
H1231 H 0.16567 0.69029 0.08609 0.0
C1232 C 0.06713 0.61479 0.08956 0.0
C1233 C 0.07936 0.60562 0.07556 0.0
C1234 C 0.08168 0.63412 0.10529 0.0
C1235 C 0.10879 0.64483 0.10724 0.0
C1236 C 0.12104 0.63573 0.09332 0.0
H1237 H 0.23758 0.73192 0.19209 0.0
H1238 H 0.2054 0.70843 0.16248 0.0
C1239 C 0.10654 0.61642 0.07763 0.0
C1240 C 0.12417 0.66453 0.12464 0.0
H1241 H 0.17983 0.72364 0.13039 0.0
C1242 C 0.11744 0.65804 0.14843 0.0
C1243 C 0.14636 0.6889 0.11806 0.0
C1244 C 0.15371 0.69761 0.09279 0.0
C1245 C 0.1333 0.67458 0.16583 0.0
C1246 C 0.15626 0.69839 0.15923 0.0
C1247 C 0.16223 0.70539 0.13543 0.0
C1248 C 0.17605 0.71465 0.17658 0.0
C1249 C 0.12623 0.66584 0.19113 0.0
C1250 C 0.17053 0.72658 0.19413 0.0
C1251 C 0.1891 0.74024 0.21125 0.0
C1252 C 0.21336 0.74199 0.21105 0.0
C1253 C 0.21903 0.73079 0.19292 0.0
C1254 C 0.20066 0.71738 0.17588 0.0
H1255 H 0.10989 0.64541 0.1932 0.0
H1256 H 0.14351 0.66828 0.20049 0.0
H1257 H 0.1201 0.6778 0.19959 0.0
H1258 H 0.15176 0.725 0.1948 0.0
H1259 H 0.18417 0.74866 0.22499 0.0
loop_
_geom_bond_atom_site_label_1
_geom_bond_atom_site_label_2
_geom_bond_distance
_geom_bond_site_symmetry_2
_ccdc_geom_bond_type
C0 C1 1.443 . S
C0 N4 1.376 1_556 S
C0 C38 1.389 . S
C1 C0 1.443 . S
C1 C2 1.340 1_556 S
C1 H41 0.951 . S
C2 C1 1.340 1_554 S
C2 C3 1.439 . S
C2 H42 0.950 . S
C3 C2 1.439 . S
C3 N4 1.374 . S
C3 C37 1.395 . S
N4 C0 1.376 1_554 S
N4 C3 1.374 . S
N4 Co5 2.008 1_655 S
Co5 N4 2.008 1_455 S
Co5 N6 1.995 . S
Co5 N11 2.008 . S
Co5 N16 1.995 1_554 S
Co5 N21 2.282 . S
Co5 N27 2.282 1_454 S
N6 Co5 1.995 . S
N6 C7 1.376 1_455 S
N6 C10 1.383 . S
C7 N6 1.376 1_655 S
C7 C8 1.446 . S
C7 C37 1.391 . S
C8 C7 1.446 . S
C8 C9 1.339 1_655 S
C8 H43 0.949 . S
C9 C8 1.339 1_455 S
C9 C10 1.439 . S
C9 H44 0.950 . S
C10 N6 1.383 . S
C10 C9 1.439 . S
C10 C39 1.392 . S
N11 Co5 2.008 . S
N11 C12 1.376 . S
N11 C15 1.374 1_554 S
C12 N11 1.376 . S
C12 C13 1.443 . S
C12 C39 1.389 . S
C13 C12 1.443 . S
C13 C14 1.340 . S
C13 H45 0.951 . S
C14 C13 1.340 . S
C14 C15 1.439 1_554 S
C14 H46 0.931 1_554 S
C15 N11 1.374 1_556 S
C15 C14 1.439 1_556 S
C15 C40 1.395 . S
N16 Co5 1.995 1_556 S
N16 C17 1.376 . S
N16 C20 1.383 . S
C17 N16 1.376 . S
C17 C18 1.446 . S
C17 C40 1.391 . S
C18 C17 1.446 . S
C18 C19 1.339 . S
C18 H47 0.949 . S
C19 C18 1.339 . S
C19 C20 1.439 . S
C19 H48 0.950 . S
C20 N16 1.383 . S
C20 C19 1.439 . S
C20 C38 1.392 1_455 S
N21 Co5 2.282 . S
N21 C24 1.332 . S
N21 C26 1.332 . S
C22 C23 1.386 . S
C22 C25 1.388 . S
C23 C22 1.386 . S
C23 C24 1.382 . S
C23 H49 0.950 . S
C24 N21 1.332 . S
C24 C23 1.382 . S
C24 H35 0.952 . S
C25 C22 1.388 . S
C25 C26 1.382 . S
C25 H50 0.950 . S
C26 N21 1.332 . S
C26 C25 1.382 . S
C26 H36 0.948 . S
N27 Co5 2.282 1_656 S
N27 C31 1.332 . S
N27 C32 1.332 1_655 S
C28 C29 1.388 . S
C28 C32 1.382 1_655 S
C28 H51 0.949 . S
C29 C28 1.388 . S
C29 C30 1.386 . S
C30 C29 1.386 . S
C30 C31 1.382 . S
C30 H52 0.950 . S
C31 N27 1.332 . S
C31 C30 1.382 . S
C31 H33 0.952 1_556 S
C32 N27 1.332 1_455 S
C32 C28 1.382 1_455 S
C32 H34 0.948 . S
H33 C31 0.952 1_554 S
H34 C32 0.948 . S
H35 C24 0.952 . S
H36 C26 0.948 . S
C37 C3 1.395 . S
C37 C7 1.391 . S
C38 C0 1.389 . S
C38 C20 1.392 1_655 S
C39 C10 1.392 . S
C39 C12 1.389 . S
C40 C15 1.395 . S
C40 C17 1.391 . S
H41 C1 0.951 . S
H42 C2 0.950 . S
H43 C8 0.949 . S
H44 C9 0.950 . S
H45 C13 0.951 . S
H46 C14 0.931 1_556 S
H47 C18 0.949 . S
H48 C19 0.950 . S
H49 C23 0.950 . S
H50 C25 0.950 . S
H51 C28 0.949 . S
H52 C30 0.950 . S
C53 C54 1.443 . S
C53 N57 1.376 . S
C53 C91 1.389 . S
C54 C53 1.443 . S
C54 C55 1.340 1_545 S
C54 H94 0.951 . S
C55 C54 1.340 1_565 S
C55 C56 1.439 . S
C55 H95 0.950 . S
C56 C55 1.439 . S
C56 N57 1.374 1_565 S
C56 C90 1.395 . S
N57 C53 1.376 . S
N57 C56 1.374 1_545 S
N57 Co58 2.008 . S
Co58 N57 2.008 . S
Co58 N59 1.995 1_545 S
Co58 N64 2.008 . S
Co58 N69 1.995 . S
Co58 N74 2.282 1_545 S
Co58 N80 2.282 . S
N59 Co58 1.995 1_565 S
N59 C60 1.376 . S
N59 C63 1.383 . S
C60 N59 1.376 . S
C60 C61 1.446 . S
C60 C90 1.391 . S
C61 C60 1.446 . S
C61 C62 1.339 . S
C61 H96 0.949 . S
C62 C61 1.339 . S
C62 C63 1.439 . S
C62 H97 0.950 . S
C63 N59 1.383 . S
C63 C62 1.439 . S
C63 C92 1.392 . S
N64 Co58 2.008 . S
N64 C65 1.376 . S
N64 C68 1.374 . S
C65 N64 1.376 . S
C65 C66 1.443 . S
C65 C92 1.389 1_545 S
C66 C65 1.443 . S
C66 C67 1.340 . S
C66 H98 0.951 . S
C67 C66 1.340 . S
C67 C68 1.439 . S
C67 H99 0.950 . S
C68 N64 1.374 . S
C68 C67 1.439 . S
C68 C93 1.395 . S
N69 Co58 1.995 . S
N69 C70 1.376 . S
N69 C73 1.383 . S
C70 N69 1.376 . S
C70 C71 1.446 . S
C70 C93 1.391 . S
C71 C70 1.446 . S
C71 C72 1.339 . S
C71 H100 0.949 . S
C72 C71 1.339 . S
C72 C73 1.439 . S
C72 H101 0.950 . S
C73 N69 1.383 . S
C73 C72 1.439 . S
C73 C91 1.392 . S
N74 Co58 2.282 1_565 S
N74 C77 1.332 1_565 S
N74 C79 1.332 . S
C75 C76 1.386 . S
C75 C78 1.388 . S
C76 C75 1.386 . S
C76 C77 1.382 1_565 S
C76 H102 0.950 1_565 S
C77 N74 1.332 1_545 S
C77 C76 1.382 1_545 S
C77 H88 0.952 . S
C78 C75 1.388 . S
C78 C79 1.382 . S
C78 H103 0.950 . S
C79 N74 1.332 . S
C79 C78 1.382 . S
C79 H89 0.948 . S
N80 Co58 2.282 . S
N80 C84 1.332 . S
N80 C85 1.332 . S
C81 C82 1.388 . S
C81 C85 1.382 . S
C81 H104 0.950 . S
C82 C81 1.388 . S
C82 C83 1.386 . S
C83 C82 1.386 . S
C83 C84 1.382 . S
C83 H105 0.950 . S
C84 N80 1.332 . S
C84 C83 1.382 . S
C84 H86 0.952 . S
C85 N80 1.332 . S
C85 C81 1.382 . S
C85 H87 0.948 . S
H86 C84 0.952 . S
H87 C85 0.948 . S
H88 C77 0.952 . S
H89 C79 0.948 . S
C90 C56 1.395 . S
C90 C60 1.391 . S
C91 C53 1.389 . S
C91 C73 1.392 . S
C92 C63 1.392 . S
C92 C65 1.389 1_565 S
C93 C68 1.395 . S
C93 C70 1.391 . S
H94 C54 0.951 . S
H95 C55 0.950 . S
H96 C61 0.949 . S
H97 C62 0.950 . S
H98 C66 0.951 . S
H99 C67 0.950 . S
H100 C71 0.949 . S
H101 C72 0.950 . S
H102 C76 0.950 1_545 S
H103 C78 0.950 . S
H104 C81 0.950 . S
H105 C83 0.950 . S
C106 C107 1.443 . S
C106 N110 1.376 . S
C106 C144 1.389 . S
C107 C106 1.443 . S
C107 C108 1.340 . S
C107 H147 0.951 . S
C108 C107 1.340 . S
C108 C109 1.439 . S
C108 H148 0.950 . S
C109 C108 1.439 . S
C109 N110 1.374 . S
C109 C143 1.395 . S
N110 C106 1.376 . S
N110 C109 1.374 . S
N110 Co111 2.008 1_556 S
Co111 N110 2.008 1_554 S
Co111 N112 1.995 . S
Co111 N117 2.008 . S
Co111 N122 1.995 . S
Co111 N127 2.282 . S
Co111 N133 2.282 1_554 S
N112 Co111 1.995 . S
N112 C113 1.376 1_554 S
N112 C116 1.383 . S
C113 N112 1.376 1_556 S
C113 C114 1.457 . S
C113 C143 1.391 . S
C114 C113 1.457 . S
C114 C115 1.306 1_556 S
C114 H149 0.969 . S
C115 C114 1.306 1_554 S
C115 C116 1.439 . S
C115 H150 0.950 . S
C116 N112 1.383 . S
C116 C115 1.439 . S
C116 C145 1.392 . S
N117 Co111 2.008 . S
N117 C118 1.376 . S
N117 C121 1.374 . S
C118 N117 1.376 . S
C118 C119 1.443 . S
C118 C145 1.389 . S
C119 C118 1.443 . S
C119 C120 1.340 . S
C119 H151 0.951 . S
C120 C119 1.340 . S
C120 C121 1.439 . S
C120 H152 0.950 . S
C121 N117 1.374 . S
C121 C120 1.439 . S
C121 C146 1.395 . S
N122 Co111 1.995 . S
N122 C123 1.376 . S
N122 C126 1.383 1_554 S
C123 N122 1.376 . S
C123 C124 1.446 . S
C123 C146 1.391 . S
C124 C123 1.446 . S
C124 C125 1.365 . S
C124 H153 0.949 . S
C125 C124 1.365 . S
C125 C126 1.432 1_554 S
C125 H154 0.934 1_554 S
C126 N122 1.383 1_556 S
C126 C125 1.432 1_556 S
C126 C144 1.392 . S
N127 Co111 2.282 . S
N127 C130 1.332 . S
N127 C132 1.332 . S
C128 C129 1.386 . S
C128 C131 1.388 . S
C129 C128 1.386 . S
C129 C130 1.382 . S
C129 H155 0.950 . S
C130 N127 1.332 . S
C130 C129 1.382 . S
C130 H141 0.952 . S
C131 C128 1.388 . S
C131 C132 1.382 . S
C131 H156 0.950 . S
C132 N127 1.332 . S
C132 C131 1.382 . S
C132 H142 0.948 . S
N133 Co111 2.282 1_556 S
N133 C137 1.332 . S
N133 C138 1.332 . S
C134 C135 1.388 . S
C134 C138 1.382 . S
C134 H157 0.950 . S
C135 C134 1.388 . S
C135 C136 1.386 . S
C136 C135 1.386 . S
C136 C137 1.382 . S
C136 H158 0.950 . S
C137 N133 1.332 . S
C137 C136 1.382 . S
C137 H139 0.952 . S
C138 N133 1.332 . S
C138 C134 1.382 . S
C138 H140 0.930 1_556 S
H139 C137 0.952 . S
H140 C138 0.930 1_554 S
H141 C130 0.952 . S
H142 C132 0.948 . S
C143 C109 1.395 . S
C143 C113 1.391 . S
C144 C106 1.389 . S
C144 C126 1.392 . S
C145 C116 1.392 . S
C145 C118 1.389 . S
C146 C121 1.395 . S
C146 C123 1.391 . S
H147 C107 0.951 . S
H148 C108 0.950 . S
H149 C114 0.969 . S
H150 C115 0.950 . S
H151 C119 0.951 . S
H152 C120 0.950 . S
H153 C124 0.949 . S
H154 C125 0.934 1_556 S
H155 C129 0.950 . S
H156 C131 0.950 . S
H157 C134 0.950 . S
H158 C136 0.950 . S
C159 C160 1.443 . S
C159 N163 1.376 . S
C159 C197 1.389 . S
C160 C159 1.443 . S
C160 C161 1.340 . S
C160 H200 0.951 . S
C161 C160 1.340 . S
C161 C162 1.439 . S
C161 H201 0.950 . S
C162 C161 1.439 . S
C162 N163 1.374 . S
C162 C196 1.395 . S
N163 C159 1.376 . S
N163 C162 1.374 . S
N163 Co164 2.008 1_655 S
Co164 N163 2.008 1_455 S
Co164 N165 1.995 1_455 S
Co164 N170 2.008 . S
Co164 N175 1.995 . S
Co164 N180 2.282 . S
Co164 N186 2.282 1_455 S
N165 Co164 1.995 1_655 S
N165 C166 1.376 . S
N165 C169 1.383 1_655 S
C166 N165 1.376 . S
C166 C167 1.446 . S
C166 C196 1.391 . S
C167 C166 1.446 . S
C167 C168 1.339 . S
C167 H202 0.949 . S
C168 C167 1.339 . S
C168 C169 1.439 1_655 S
C168 H203 0.950 1_655 S
C169 N165 1.383 1_455 S
C169 C168 1.439 1_455 S
C169 C198 1.392 . S
N170 Co164 2.008 . S
N170 C171 1.376 . S
N170 C174 1.374 . S
C171 N170 1.376 . S
C171 C172 1.443 . S
C171 C198 1.389 . S
C172 C171 1.443 . S
C172 C173 1.340 . S
C172 H204 0.951 . S
C173 C172 1.340 . S
C173 C174 1.439 . S
C173 H205 0.950 . S
C174 N170 1.374 . S
C174 C173 1.439 . S
C174 C199 1.395 . S
N175 Co164 1.995 . S
N175 C176 1.376 . S
N175 C179 1.383 1_455 S
C176 N175 1.376 . S
C176 C177 1.446 . S
C176 C199 1.391 . S
C177 C176 1.446 . S
C177 C178 1.339 . S
C177 H206 0.949 . S
C178 C177 1.339 . S
C178 C179 1.439 1_455 S
C178 H207 0.950 . S
C179 N175 1.383 1_655 S
C179 C178 1.439 1_655 S
C179 C197 1.392 . S
N180 Co164 2.282 . S
N180 C183 1.332 . S
N180 C185 1.332 . S
C181 C182 1.386 . S
C181 C184 1.388 . S
C182 C181 1.386 . S
C182 C183 1.382 . S
C182 H208 0.950 . S
C183 N180 1.332 . S
C183 C182 1.382 . S
C183 H194 0.952 . S
C184 C181 1.388 . S
C184 C185 1.382 . S
C184 H209 0.950 . S
C185 N180 1.332 . S
C185 C184 1.382 . S
C185 H195 0.948 1_455 S
N186 Co164 2.282 1_655 S
N186 C190 1.332 . S
N186 C191 1.332 . S
C187 C188 1.388 . S
C187 C191 1.382 . S
C187 H210 0.950 . S
C188 C187 1.388 . S
C188 C189 1.386 . S
C189 C188 1.386 . S
C189 C190 1.382 . S
C189 H211 0.950 . S
C190 N186 1.332 . S
C190 C189 1.382 . S
C190 H192 0.952 . S
C191 N186 1.332 . S
C191 C187 1.382 . S
C191 H193 0.948 1_655 S
H192 C190 0.952 . S
H193 C191 0.948 1_455 S
H194 C183 0.952 . S
H195 C185 0.948 1_655 S
C196 C162 1.395 . S
C196 C166 1.391 . S
C197 C159 1.389 . S
C197 C179 1.392 . S
C198 C169 1.392 . S
C198 C171 1.389 . S
C199 C174 1.395 . S
C199 C176 1.391 . S
H200 C160 0.951 . S
H201 C161 0.950 . S
H202 C167 0.949 . S
H203 C168 0.950 1_455 S
H204 C172 0.951 . S
H205 C173 0.950 . S
H206 C177 0.949 . S
H207 C178 0.950 . S
H208 C182 0.950 . S
H209 C184 0.950 . S
H210 C187 0.950 . S
H211 C189 0.950 . S
C212 C213 1.443 1_565 S
C212 N216 1.376 1_565 S
C212 C250 1.389 . S
C213 C212 1.443 1_545 S
C213 C214 1.340 . S
C213 H253 0.951 1_545 S
C214 C213 1.340 . S
C214 C215 1.439 . S
C214 H254 0.950 . S
C215 C214 1.439 . S
C215 N216 1.374 . S
C215 C249 1.395 . S
N216 C212 1.376 1_545 S
N216 C215 1.374 . S
N216 Co217 2.008 . S
Co217 N216 2.008 . S
Co217 N218 1.995 . S
Co217 N223 2.008 1_544 S
Co217 N228 1.995 1_545 S
Co217 N233 2.282 1_554 S
Co217 N239 2.282 1_545 S
N218 Co217 1.995 . S
N218 C219 1.376 . S
N218 C222 1.383 1_554 S
C219 N218 1.376 . S
C219 C220 1.446 . S
C219 C249 1.391 . S
C220 C219 1.446 . S
C220 C221 1.339 1_554 S
C220 H255 0.949 . S
C221 C220 1.339 1_556 S
C221 C222 1.439 . S
C221 H256 0.950 . S
C222 N218 1.383 1_556 S
C222 C221 1.439 . S
C222 C251 1.392 . S
N223 Co217 2.008 1_566 S
N223 C224 1.376 1_565 S
N223 C227 1.374 . S
C224 N223 1.376 1_545 S
C224 C225 1.443 1_545 S
C224 C251 1.389 . S
C225 C224 1.443 1_565 S
C225 C226 1.340 . S
C225 H257 0.951 1_565 S
C226 C225 1.340 . S
C226 C227 1.439 . S
C226 H258 0.950 . S
C227 N223 1.374 . S
C227 C226 1.439 . S
C227 C252 1.395 . S
N228 Co217 1.995 1_565 S
N228 C229 1.376 1_554 S
N228 C232 1.383 . S
C229 N228 1.376 1_556 S
C229 C230 1.446 1_556 S
C229 C252 1.391 . S
C230 C229 1.446 1_554 S
C230 C231 1.339 . S
C230 H259 0.949 1_554 S
C231 C230 1.339 . S
C231 C232 1.439 . S
C231 H260 0.950 . S
C232 N228 1.383 . S
C232 C231 1.439 . S
C232 C250 1.392 . S
N233 Co217 2.282 1_556 S
N233 C236 1.332 . S
N233 C238 1.332 . S
C234 C235 1.386 . S
C234 C237 1.388 . S
C235 C234 1.386 . S
C235 C236 1.382 . S
C235 H261 0.950 . S
C236 N233 1.332 . S
C236 C235 1.382 . S
C236 H247 0.952 1_545 S
C237 C234 1.388 . S
C237 C238 1.382 . S
C237 H262 0.950 . S
C238 N233 1.332 . S
C238 C237 1.382 . S
C238 H248 0.948 . S
N239 Co217 2.282 1_565 S
N239 C243 1.332 . S
N239 C244 1.332 . S
C240 C241 1.388 . S
C240 C244 1.382 . S
C240 H263 0.950 . S
C241 C240 1.388 . S
C241 C242 1.386 . S
C242 C241 1.386 . S
C242 C243 1.382 . S
C242 H264 0.950 . S
C243 N239 1.332 . S
C243 C242 1.382 . S
C243 H245 0.952 1_565 S
C244 N239 1.332 . S
C244 C240 1.382 . S
C244 H246 0.948 . S
H245 C243 0.952 1_545 S
H246 C244 0.948 . S
H247 C236 0.952 1_565 S
H248 C238 0.948 . S
C249 C215 1.395 . S
C249 C219 1.391 . S
C250 C212 1.389 . S
C250 C232 1.392 . S
C251 C222 1.392 . S
C251 C224 1.389 . S
C252 C227 1.395 . S
C252 C229 1.391 . S
H253 C213 0.951 1_565 S
H254 C214 0.950 . S
H255 C220 0.949 . S
H256 C221 0.950 . S
H257 C225 0.951 1_545 S
H258 C226 0.950 . S
H259 C230 0.949 1_556 S
H260 C231 0.950 . S
H261 C235 0.950 . S
H262 C237 0.950 . S
H263 C240 0.950 . S
H264 C242 0.950 . S
C265 C266 1.443 . S
C265 N269 1.376 . S
C265 C303 1.389 . S
C266 C265 1.443 . S
C266 C267 1.340 . S
C266 H306 0.951 . S
C267 C266 1.340 . S
C267 C268 1.439 . S
C267 H307 0.950 . S
C268 C267 1.439 . S
C268 N269 1.374 . S
C268 C302 1.395 . S
N269 C265 1.376 . S
N269 C268 1.374 . S
N269 Co270 2.008 . S
Co270 N269 2.008 . S
Co270 N271 1.995 . S
Co270 N276 2.008 . S
Co270 N281 1.995 . S
Co270 N286 2.282 . S
Co270 N292 2.282 . S
N271 Co270 1.995 . S
N271 C272 1.376 . S
N271 C275 1.383 . S
C272 N271 1.376 . S
C272 C273 1.446 . S
C272 C302 1.391 . S
C273 C272 1.446 . S
C273 C274 1.339 . S
C273 H308 0.949 . S
C274 C273 1.339 . S
C274 C275 1.439 . S
C274 H309 0.950 . S
C275 N271 1.383 . S
C275 C274 1.439 . S
C275 C304 1.392 . S
N276 Co270 2.008 . S
N276 C277 1.376 . S
N276 C280 1.374 . S
C277 N276 1.376 . S
C277 C278 1.443 . S
C277 C304 1.389 . S
C278 C277 1.443 . S
C278 C279 1.340 . S
C278 H310 0.951 . S
C279 C278 1.340 . S
C279 C280 1.439 . S
C279 H311 0.950 . S
C280 N276 1.374 . S
C280 C279 1.439 . S
C280 C305 1.395 . S
N281 Co270 1.995 . S
N281 C282 1.376 . S
N281 C285 1.383 . S
C282 N281 1.376 . S
C282 C283 1.446 . S
C282 C305 1.391 . S
C283 C282 1.446 . S
C283 C284 1.339 . S
C283 H312 0.949 . S
C284 C283 1.339 . S
C284 C285 1.439 . S
C284 H313 0.950 . S
C285 N281 1.383 . S
C285 C284 1.439 . S
C285 C303 1.392 . S
N286 Co270 2.282 . S
N286 C289 1.332 . S
N286 C291 1.332 . S
C287 C288 1.386 . S
C287 C290 1.388 . S
C288 C287 1.386 . S
C288 C289 1.382 . S
C288 H314 0.950 . S
C289 N286 1.332 . S
C289 C288 1.382 . S
C289 H300 0.952 . S
C290 C287 1.388 . S
C290 C291 1.382 . S
C290 H315 0.950 . S
C291 N286 1.332 . S
C291 C290 1.382 . S
C291 H301 0.948 . S
N292 Co270 2.282 . S
N292 C296 1.332 . S
N292 C297 1.332 . S
C293 C294 1.388 . S
C293 C297 1.382 . S
C293 H316 0.950 . S
C294 C293 1.388 . S
C294 C295 1.386 . S
C295 C294 1.386 . S
C295 C296 1.382 . S
C295 H317 0.950 . S
C296 N292 1.332 . S
C296 C295 1.382 . S
C296 H298 0.952 . S
C297 N292 1.332 . S
C297 C293 1.382 . S
C297 H299 0.948 . S
H298 C296 0.952 . S
H299 C297 0.948 . S
H300 C289 0.952 . S
H301 C291 0.948 . S
C302 C268 1.395 . S
C302 C272 1.391 . S
C303 C265 1.389 . S
C303 C285 1.392 . S
C304 C275 1.392 . S
C304 C277 1.389 . S
C305 C280 1.395 . S
C305 C282 1.391 . S
H306 C266 0.951 . S
H307 C267 0.950 . S
H308 C273 0.949 . S
H309 C274 0.950 . S
H310 C278 0.951 . S
H311 C279 0.950 . S
H312 C283 0.949 . S
H313 C284 0.950 . S
H314 C288 0.950 . S
H315 C290 0.950 . S
H316 C293 0.950 . S
H317 C295 0.950 . S
Mg318 O325 2.141 . S
Mg318 O326 2.048 . S
Mg318 O327 2.048 . S
Mg318 O330 2.141 . S
C319 O320 1.313 . S
C319 O326 1.195 . S
O320 C319 1.313 . S
C321 O322 1.245 . S
C321 O330 1.289 . S
O322 C321 1.245 . S
C323 O324 1.245 . S
C323 O325 1.289 . S
O324 C323 1.245 . S
O325 Mg318 2.141 . S
O325 C323 1.289 . S
O326 Mg318 2.048 . S
O326 C319 1.195 . S
O327 Mg318 2.048 . S
O327 C328 1.195 . S
C328 O327 1.195 . S
C328 O329 1.313 . S
O329 C328 1.313 . S
O330 Mg318 2.141 . S
O330 C321 1.289 . S
Mg331 O338 2.141 . S
Mg331 O339 2.048 . S
Mg331 O340 2.048 . S
Mg331 O343 2.141 . S
C332 O333 1.313 . S
C332 O339 1.195 . S
O333 C332 1.313 . S
C334 O335 1.245 . S
C334 O343 1.289 . S
O335 C334 1.245 . S
C336 O337 1.245 . S
C336 O338 1.289 . S
O337 C336 1.245 . S
O338 Mg331 2.141 . S
O338 C336 1.289 . S
O339 Mg331 2.048 . S
O339 C332 1.195 . S
O340 Mg331 2.048 . S
O340 C341 1.195 . S
C341 O340 1.195 . S
C341 O342 1.313 . S
O342 C341 1.313 . S
O343 Mg331 2.141 . S
O343 C334 1.289 . S
Mg344 O351 2.141 . S
Mg344 O352 2.048 . S
Mg344 O353 2.048 . S
Mg344 O356 2.141 . S
C345 O346 1.313 . S
C345 O352 1.195 . S
O346 C345 1.313 . S
C347 O348 1.245 . S
C347 O356 1.289 . S
O348 C347 1.245 . S
C349 O350 1.245 . S
C349 O351 1.289 . S
O350 C349 1.245 . S
O351 Mg344 2.141 . S
O351 C349 1.289 . S
O352 Mg344 2.048 . S
O352 C345 1.195 . S
O353 Mg344 2.048 . S
O353 C354 1.195 . S
C354 O353 1.195 . S
C354 O355 1.313 . S
O355 C354 1.313 . S
O356 Mg344 2.141 . S
O356 C347 1.289 . S
Mg357 O364 2.141 . S
Mg357 O365 2.048 . S
Mg357 O366 2.048 . S
Mg357 O369 2.141 . S
C358 O359 1.313 . S
C358 O365 1.195 . S
O359 C358 1.313 . S
C360 O361 1.245 . S
C360 O369 1.289 . S
O361 C360 1.245 . S
C362 O363 1.245 . S
C362 O364 1.289 . S
O363 C362 1.245 . S
O364 Mg357 2.141 . S
O364 C362 1.289 . S
O365 Mg357 2.048 . S
O365 C358 1.195 . S
O366 Mg357 2.048 . S
O366 C367 1.195 . S
C367 O366 1.195 . S
C367 O368 1.313 . S
O368 C367 1.313 . S
O369 Mg357 2.141 . S
O369 C360 1.289 . S
Mg370 O377 2.141 . S
Mg370 O378 2.048 . S
Mg370 O379 2.048 . S
Mg370 O382 2.141 . S
C371 O372 1.313 . S
C371 O378 1.195 . S
O372 C371 1.313 . S
C373 O374 1.245 . S
C373 O382 1.289 . S
O374 C373 1.245 . S
C375 O376 1.245 . S
C375 O377 1.289 . S
O376 C375 1.245 . S
O377 Mg370 2.141 . S
O377 C375 1.289 . S
O378 Mg370 2.048 . S
O378 C371 1.195 . S
O379 Mg370 2.048 . S
O379 C380 1.195 . S
C380 O379 1.195 . S
C380 O381 1.313 . S
O381 C380 1.313 . S
O382 Mg370 2.141 . S
O382 C373 1.289 . S
Mg383 O390 2.141 . S
Mg383 O391 2.048 . S
Mg383 O392 2.048 . S
Mg383 O395 2.141 . S
C384 O385 1.313 . S
C384 O391 1.195 . S
O385 C384 1.313 . S
C386 O387 1.245 . S
C386 O395 1.289 . S
O387 C386 1.245 . S
C388 O389 1.245 . S
C388 O390 1.289 . S
O389 C388 1.245 . S
O390 Mg383 2.141 . S
O390 C388 1.289 . S
O391 Mg383 2.048 . S
O391 C384 1.195 . S
O392 Mg383 2.048 . S
O392 C393 1.195 . S
C393 O392 1.195 . S
C393 O394 1.313 . S
O394 C393 1.313 . S
O395 Mg383 2.141 . S
O395 C386 1.289 . S
H396 C404 0.929 . S
H397 C406 0.930 . S
H398 C408 0.930 . S
H399 C411 0.929 . S
H400 C414 0.930 . S
H401 C416 0.960 . S
H402 C416 0.960 . S
H403 C416 0.960 . S
C404 H396 0.929 . S
C404 C405 1.377 . S
C404 C406 1.384 . S
C405 C404 1.377 . S
C405 C411 1.390 . S
C406 H397 0.930 . S
C406 C404 1.384 . S
C406 C407 1.372 . S
C407 C406 1.372 . S
C407 C408 1.400 . S
C407 C412 1.490 . S
C408 H398 0.930 . S
C408 C407 1.400 . S
C408 C411 1.386 . S
H409 C425 0.930 . S
H410 C426 0.931 . S
C411 H399 0.929 . S
C411 C405 1.390 . S
C411 C408 1.386 . S
C412 C407 1.490 . S
C412 C414 1.395 . S
C412 C415 1.403 . S
H413 C419 0.930 . S
C414 H400 0.930 . S
C414 C412 1.395 . S
C414 C417 1.403 . S
C415 C412 1.403 . S
C415 C416 1.524 . S
C415 C419 1.400 . S
C416 H401 0.960 . S
C416 H402 0.960 . S
C416 H403 0.960 . S
C416 C415 1.524 . S
C417 C414 1.403 . S
C417 C418 1.392 . S
C417 C421 1.495 . S
C418 C417 1.392 . S
C418 C419 1.385 . S
C418 C420 1.478 . S
C419 H413 0.930 . S
C419 C415 1.400 . S
C419 C418 1.385 . S
C420 C418 1.478 . S
C420 C422 1.381 . S
C420 C426 1.383 . S
C421 C417 1.495 . S
C421 H427 0.959 . S
C421 H428 0.961 . S
C421 H429 0.960 . S
C422 C420 1.381 . S
C422 C423 1.394 . S
C422 H430 0.930 . S
C423 C422 1.394 . S
C423 C424 1.383 . S
C423 H431 0.929 . S
C424 C423 1.383 . S
C424 C425 1.377 . S
C425 H409 0.930 . S
C425 C424 1.377 . S
C425 C426 1.379 . S
C426 H410 0.931 . S
C426 C420 1.383 . S
C426 C425 1.379 . S
H427 C421 0.959 . S
H428 C421 0.961 . S
H429 C421 0.960 . S
H430 C422 0.930 . S
H431 C423 0.929 . S
H432 C440 0.929 . S
H433 C442 0.930 . S
H434 C444 0.930 . S
H435 C447 0.929 . S
H436 C450 0.930 . S
H437 C452 0.960 . S
H438 C452 0.960 . S
H439 C452 0.960 . S
C440 H432 0.929 . S
C440 C441 1.377 . S
C440 C442 1.384 . S
C441 C440 1.377 . S
C441 C447 1.390 . S
C442 H433 0.930 . S
C442 C440 1.384 . S
C442 C443 1.372 . S
C443 C442 1.372 . S
C443 C444 1.400 . S
C443 C448 1.490 . S
C444 H434 0.930 . S
C444 C443 1.400 . S
C444 C447 1.386 . S
H445 C461 0.930 . S
H446 C462 0.931 . S
C447 H435 0.929 . S
C447 C441 1.390 . S
C447 C444 1.386 . S
C448 C443 1.490 . S
C448 C450 1.395 . S
C448 C451 1.403 . S
H449 C455 0.930 . S
C450 H436 0.930 . S
C450 C448 1.395 . S
C450 C453 1.403 . S
C451 C448 1.403 . S
C451 C452 1.524 . S
C451 C455 1.400 . S
C452 H437 0.960 . S
C452 H438 0.960 . S
C452 H439 0.960 . S
C452 C451 1.524 . S
C453 C450 1.403 . S
C453 C454 1.392 . S
C453 C457 1.495 . S
C454 C453 1.392 . S
C454 C455 1.385 . S
C454 C456 1.478 . S
C455 H449 0.930 . S
C455 C451 1.400 . S
C455 C454 1.385 . S
C456 C454 1.478 . S
C456 C458 1.381 . S
C456 C462 1.383 . S
C457 C453 1.495 . S
C457 H463 0.959 . S
C457 H464 0.961 . S
C457 H465 0.960 . S
C458 C456 1.381 . S
C458 C459 1.394 . S
C458 H466 0.930 . S
C459 C458 1.394 . S
C459 C460 1.383 . S
C459 H467 0.929 . S
C460 C459 1.383 . S
C460 C461 1.377 . S
C461 H445 0.930 . S
C461 C460 1.377 . S
C461 C462 1.379 . S
C462 H446 0.931 . S
C462 C456 1.383 . S
C462 C461 1.379 . S
H463 C457 0.959 . S
H464 C457 0.961 . S
H465 C457 0.960 . S
H466 C458 0.930 . S
H467 C459 0.929 . S
H468 C476 0.929 . S
H469 C478 0.930 . S
H470 C480 0.930 . S
H471 C483 0.929 . S
H472 C486 0.930 . S
H473 C488 0.960 . S
H474 C488 0.960 . S
H475 C488 0.960 . S
C476 H468 0.929 . S
C476 C477 1.377 . S
C476 C478 1.384 . S
C477 C476 1.377 . S
C477 C483 1.390 . S
C478 H469 0.930 . S
C478 C476 1.384 . S
C478 C479 1.372 . S
C479 C478 1.372 . S
C479 C480 1.400 . S
C479 C484 1.490 . S
C480 H470 0.930 . S
C480 C479 1.400 . S
C480 C483 1.386 . S
H481 C497 0.930 . S
H482 C498 0.931 . S
C483 H471 0.929 . S
C483 C477 1.390 . S
C483 C480 1.386 . S
C484 C479 1.490 . S
C484 C486 1.395 . S
C484 C487 1.403 . S
H485 C491 0.930 . S
C486 H472 0.930 . S
C486 C484 1.395 . S
C486 C489 1.403 . S
C487 C484 1.403 . S
C487 C488 1.524 . S
C487 C491 1.400 . S
C488 H473 0.960 . S
C488 H474 0.960 . S
C488 H475 0.960 . S
C488 C487 1.524 . S
C489 C486 1.403 . S
C489 C490 1.392 . S
C489 C493 1.495 . S
C490 C489 1.392 . S
C490 C491 1.385 . S
C490 C492 1.478 . S
C491 H485 0.930 . S
C491 C487 1.400 . S
C491 C490 1.385 . S
C492 C490 1.478 . S
C492 C494 1.381 . S
C492 C498 1.383 . S
C493 C489 1.495 . S
C493 H499 0.959 . S
C493 H500 0.961 . S
C493 H501 0.960 . S
C494 C492 1.381 . S
C494 C495 1.394 . S
C494 H502 0.930 . S
C495 C494 1.394 . S
C495 C496 1.383 . S
C495 H503 0.929 . S
C496 C495 1.383 . S
C496 C497 1.377 . S
C497 H481 0.930 . S
C497 C496 1.377 . S
C497 C498 1.379 . S
C498 H482 0.931 . S
C498 C492 1.383 . S
C498 C497 1.379 . S
H499 C493 0.959 . S
H500 C493 0.961 . S
H501 C493 0.960 . S
H502 C494 0.930 . S
H503 C495 0.929 . S
H504 C512 0.929 . S
H505 C514 0.930 . S
H506 C516 0.930 . S
H507 C519 0.929 . S
H508 C522 0.930 . S
H509 C524 0.960 . S
H510 C524 0.960 . S
H511 C524 0.960 . S
C512 H504 0.929 . S
C512 C513 1.377 . S
C512 C514 1.384 . S
C513 C512 1.377 . S
C513 C519 1.390 . S
C514 H505 0.930 . S
C514 C512 1.384 . S
C514 C515 1.372 . S
C515 C514 1.372 . S
C515 C516 1.400 . S
C515 C520 1.490 . S
C516 H506 0.930 . S
C516 C515 1.400 . S
C516 C519 1.386 . S
H517 C533 0.930 . S
H518 C534 0.931 . S
C519 H507 0.929 . S
C519 C513 1.390 . S
C519 C516 1.386 . S
C520 C515 1.490 . S
C520 C522 1.395 . S
C520 C523 1.403 . S
H521 C527 0.930 . S
C522 H508 0.930 . S
C522 C520 1.395 . S
C522 C525 1.403 . S
C523 C520 1.403 . S
C523 C524 1.524 . S
C523 C527 1.400 . S
C524 H509 0.960 . S
C524 H510 0.960 . S
C524 H511 0.960 . S
C524 C523 1.524 . S
C525 C522 1.403 . S
C525 C526 1.392 . S
C525 C529 1.495 . S
C526 C525 1.392 . S
C526 C527 1.385 . S
C526 C528 1.478 . S
C527 H521 0.930 . S
C527 C523 1.400 . S
C527 C526 1.385 . S
C528 C526 1.478 . S
C528 C530 1.381 . S
C528 C534 1.383 . S
C529 C525 1.495 . S
C529 H535 0.959 . S
C529 H536 0.961 . S
C529 H537 0.960 . S
C530 C528 1.381 . S
C530 C531 1.394 . S
C530 H538 0.930 . S
C531 C530 1.394 . S
C531 C532 1.383 . S
C531 H539 0.929 . S
C532 C531 1.383 . S
C532 C533 1.377 . S
C533 H517 0.930 . S
C533 C532 1.377 . S
C533 C534 1.379 . S
C534 H518 0.931 . S
C534 C528 1.383 . S
C534 C533 1.379 . S
H535 C529 0.959 . S
H536 C529 0.961 . S
H537 C529 0.960 . S
H538 C530 0.930 . S
H539 C531 0.929 . S
H540 C548 0.929 . S
H541 C550 0.930 . S
H542 C552 0.930 . S
H543 C555 0.929 . S
H544 C558 0.930 . S
H545 C560 0.960 . S
H546 C560 0.960 . S
H547 C560 0.960 . S
C548 H540 0.929 . S
C548 C549 1.377 . S
C548 C550 1.384 . S
C549 C548 1.377 . S
C549 C555 1.390 . S
C550 H541 0.930 . S
C550 C548 1.384 . S
C550 C551 1.372 . S
C551 C550 1.372 . S
C551 C552 1.400 . S
C551 C556 1.490 . S
C552 H542 0.930 . S
C552 C551 1.400 . S
C552 C555 1.386 . S
H553 C569 0.930 . S
H554 C570 0.931 . S
C555 H543 0.929 . S
C555 C549 1.390 . S
C555 C552 1.386 . S
C556 C551 1.490 . S
C556 C558 1.395 . S
C556 C559 1.403 . S
H557 C563 0.930 . S
C558 H544 0.930 . S
C558 C556 1.395 . S
C558 C561 1.403 . S
C559 C556 1.403 . S
C559 C560 1.524 . S
C559 C563 1.400 . S
C560 H545 0.960 . S
C560 H546 0.960 . S
C560 H547 0.960 . S
C560 C559 1.524 . S
C561 C558 1.403 . S
C561 C562 1.392 . S
C561 C565 1.495 . S
C562 C561 1.392 . S
C562 C563 1.385 . S
C562 C564 1.478 . S
C563 H557 0.930 . S
C563 C559 1.400 . S
C563 C562 1.385 . S
C564 C562 1.478 . S
C564 C566 1.381 . S
C564 C570 1.383 . S
C565 C561 1.495 . S
C565 H571 0.959 . S
C565 H572 0.961 . S
C565 H573 0.960 . S
C566 C564 1.381 . S
C566 C567 1.394 . S
C566 H574 0.930 . S
C567 C566 1.394 . S
C567 C568 1.383 . S
C567 H575 0.929 . S
C568 C567 1.383 . S
C568 C569 1.377 . S
C569 H553 0.930 . S
C569 C568 1.377 . S
C569 C570 1.379 . S
C570 H554 0.931 . S
C570 C564 1.383 . S
C570 C569 1.379 . S
H571 C565 0.959 . S
H572 C565 0.961 . S
H573 C565 0.960 . S
H574 C566 0.930 . S
H575 C567 0.929 . S
H576 C584 0.929 . S
H577 C586 0.930 . S
H578 C588 0.930 . S
H579 C591 0.929 . S
H580 C594 0.930 . S
H581 C596 0.960 . S
H582 C596 0.960 . S
H583 C596 0.960 . S
C584 H576 0.929 . S
C584 C585 1.377 . S
C584 C586 1.384 . S
C585 C584 1.377 . S
C585 C591 1.390 . S
C586 H577 0.930 . S
C586 C584 1.384 . S
C586 C587 1.372 . S
C587 C586 1.372 . S
C587 C588 1.400 . S
C587 C592 1.490 . S
C588 H578 0.930 . S
C588 C587 1.400 . S
C588 C591 1.386 . S
H589 C605 0.930 . S
H590 C606 0.931 . S
C591 H579 0.929 . S
C591 C585 1.390 . S
C591 C588 1.386 . S
C592 C587 1.490 . S
C592 C594 1.395 . S
C592 C595 1.403 . S
H593 C599 0.930 . S
C594 H580 0.930 . S
C594 C592 1.395 . S
C594 C597 1.403 . S
C595 C592 1.403 . S
C595 C596 1.524 . S
C595 C599 1.400 . S
C596 H581 0.960 . S
C596 H582 0.960 . S
C596 H583 0.960 . S
C596 C595 1.524 . S
C597 C594 1.403 . S
C597 C598 1.392 . S
C597 C601 1.495 . S
C598 C597 1.392 . S
C598 C599 1.385 . S
C598 C600 1.478 . S
C599 H593 0.930 . S
C599 C595 1.400 . S
C599 C598 1.385 . S
C600 C598 1.478 . S
C600 C602 1.381 . S
C600 C606 1.383 . S
C601 C597 1.495 . S
C601 H607 0.959 . S
C601 H608 0.961 . S
C601 H609 0.960 . S
C602 C600 1.381 . S
C602 C603 1.394 . S
C602 H610 0.930 . S
C603 C602 1.394 . S
C603 C604 1.383 . S
C603 H611 0.929 . S
C604 C603 1.383 . S
C604 C605 1.377 . S
C605 H589 0.930 . S
C605 C604 1.377 . S
C605 C606 1.379 . S
C606 H590 0.931 . S
C606 C600 1.383 . S
C606 C605 1.379 . S
H607 C601 0.959 . S
H608 C601 0.961 . S
H609 C601 0.960 . S
H610 C602 0.930 . S
H611 C603 0.929 . S
H612 C620 0.929 . S
H613 C622 0.930 . S
H614 C624 0.930 . S
H615 C627 0.929 . S
H616 C630 0.930 . S
H617 C632 0.960 . S
H618 C632 0.960 . S
H619 C632 0.960 . S
C620 H612 0.929 . S
C620 C621 1.377 . S
C620 C622 1.384 . S
C621 C620 1.377 . S
C621 C627 1.390 . S
C622 H613 0.930 . S
C622 C620 1.384 . S
C622 C623 1.372 . S
C623 C622 1.372 . S
C623 C624 1.400 . S
C623 C628 1.490 . S
C624 H614 0.930 . S
C624 C623 1.400 . S
C624 C627 1.386 . S
H625 C641 0.930 . S
H626 C642 0.931 . S
C627 H615 0.929 . S
C627 C621 1.390 . S
C627 C624 1.386 . S
C628 C623 1.490 . S
C628 C630 1.395 . S
C628 C631 1.403 . S
H629 C635 0.930 . S
C630 H616 0.930 . S
C630 C628 1.395 . S
C630 C633 1.403 . S
C631 C628 1.403 . S
C631 C632 1.524 . S
C631 C635 1.400 . S
C632 H617 0.960 . S
C632 H618 0.960 . S
C632 H619 0.960 . S
C632 C631 1.524 . S
C633 C630 1.403 . S
C633 C634 1.392 . S
C633 C637 1.495 . S
C634 C633 1.392 . S
C634 C635 1.385 . S
C634 C636 1.478 . S
C635 H629 0.930 . S
C635 C631 1.400 . S
C635 C634 1.385 . S
C636 C634 1.478 . S
C636 C638 1.381 . S
C636 C642 1.383 . S
C637 C633 1.495 . S
C637 H643 0.959 . S
C637 H644 0.961 . S
C637 H645 0.960 . S
C638 C636 1.381 . S
C638 C639 1.394 . S
C638 H646 0.930 . S
C639 C638 1.394 . S
C639 C640 1.383 . S
C639 H647 0.929 . S
C640 C639 1.383 . S
C640 C641 1.377 . S
C641 H625 0.930 . S
C641 C640 1.377 . S
C641 C642 1.379 . S
C642 H626 0.931 . S
C642 C636 1.383 . S
C642 C641 1.379 . S
H643 C637 0.959 . S
H644 C637 0.961 . S
H645 C637 0.960 . S
H646 C638 0.930 . S
H647 C639 0.929 . S
H648 C656 0.929 . S
H649 C658 0.930 . S
H650 C660 0.930 . S
H651 C663 0.929 . S
H652 C666 0.930 . S
H653 C668 0.960 . S
H654 C668 0.960 . S
H655 C668 0.960 . S
C656 H648 0.929 . S
C656 C657 1.377 . S
C656 C658 1.384 . S
C657 C656 1.377 . S
C657 C663 1.390 . S
C658 H649 0.930 . S
C658 C656 1.384 . S
C658 C659 1.372 . S
C659 C658 1.372 . S
C659 C660 1.400 . S
C659 C664 1.490 . S
C660 H650 0.930 . S
C660 C659 1.400 . S
C660 C663 1.386 . S
H661 C677 0.930 . S
H662 C678 0.931 . S
C663 H651 0.929 . S
C663 C657 1.390 . S
C663 C660 1.386 . S
C664 C659 1.490 . S
C664 C666 1.395 . S
C664 C667 1.403 . S
H665 C671 0.930 . S
C666 H652 0.930 . S
C666 C664 1.395 . S
C666 C669 1.403 . S
C667 C664 1.403 . S
C667 C668 1.524 . S
C667 C671 1.400 . S
C668 H653 0.960 . S
C668 H654 0.960 . S
C668 H655 0.960 . S
C668 C667 1.524 . S
C669 C666 1.403 . S
C669 C670 1.392 . S
C669 C673 1.495 . S
C670 C669 1.392 . S
C670 C671 1.385 . S
C670 C672 1.478 . S
C671 H665 0.930 . S
C671 C667 1.400 . S
C671 C670 1.385 . S
C672 C670 1.478 . S
C672 C674 1.381 . S
C672 C678 1.383 . S
C673 C669 1.495 . S
C673 H679 0.959 . S
C673 H680 0.961 . S
C673 H681 0.960 . S
C674 C672 1.381 . S
C674 C675 1.394 . S
C674 H682 0.930 . S
C675 C674 1.394 . S
C675 C676 1.383 . S
C675 H683 0.929 . S
C676 C675 1.383 . S
C676 C677 1.377 . S
C677 H661 0.930 . S
C677 C676 1.377 . S
C677 C678 1.379 . S
C678 H662 0.931 . S
C678 C672 1.383 . S
C678 C677 1.379 . S
H679 C673 0.959 . S
H680 C673 0.961 . S
H681 C673 0.960 . S
H682 C674 0.930 . S
H683 C675 0.929 . S
H684 C692 0.929 . S
H685 C694 0.930 . S
H686 C696 0.930 . S
H687 C699 0.929 . S
H688 C702 0.930 . S
H689 C704 0.960 . S
H690 C704 0.960 . S
H691 C704 0.960 . S
C692 H684 0.929 . S
C692 C693 1.377 . S
C692 C694 1.384 . S
C693 C692 1.377 . S
C693 C699 1.390 . S
C694 H685 0.930 . S
C694 C692 1.384 . S
C694 C695 1.372 . S
C695 C694 1.372 . S
C695 C696 1.400 . S
C695 C700 1.490 . S
C696 H686 0.930 . S
C696 C695 1.400 . S
C696 C699 1.386 . S
H697 C713 0.930 . S
H698 C714 0.931 . S
C699 H687 0.929 . S
C699 C693 1.390 . S
C699 C696 1.386 . S
C700 C695 1.490 . S
C700 C702 1.395 . S
C700 C703 1.403 . S
H701 C707 0.930 . S
C702 H688 0.930 . S
C702 C700 1.395 . S
C702 C705 1.403 . S
C703 C700 1.403 . S
C703 C704 1.524 . S
C703 C707 1.400 . S
C704 H689 0.960 . S
C704 H690 0.960 . S
C704 H691 0.960 . S
C704 C703 1.524 . S
C705 C702 1.403 . S
C705 C706 1.392 . S
C705 C709 1.495 . S
C706 C705 1.392 . S
C706 C707 1.385 . S
C706 C708 1.478 . S
C707 H701 0.930 . S
C707 C703 1.400 . S
C707 C706 1.385 . S
C708 C706 1.478 . S
C708 C710 1.381 . S
C708 C714 1.383 . S
C709 C705 1.495 . S
C709 H715 0.959 . S
C709 H716 0.961 . S
C709 H717 0.960 . S
C710 C708 1.381 . S
C710 C711 1.394 . S
C710 H718 0.930 . S
C711 C710 1.394 . S
C711 C712 1.383 . S
C711 H719 0.929 . S
C712 C711 1.383 . S
C712 C713 1.377 . S
C713 H697 0.930 . S
C713 C712 1.377 . S
C713 C714 1.379 . S
C714 H698 0.931 . S
C714 C708 1.383 . S
C714 C713 1.379 . S
H715 C709 0.959 . S
H716 C709 0.961 . S
H717 C709 0.960 . S
H718 C710 0.930 . S
H719 C711 0.929 . S
H720 C728 0.929 . S
H721 C730 0.930 . S
H722 C732 0.930 . S
H723 C735 0.929 . S
H724 C738 0.930 . S
H725 C740 0.960 . S
H726 C740 0.960 . S
H727 C740 0.960 . S
C728 H720 0.929 . S
C728 C729 1.377 . S
C728 C730 1.384 . S
C729 C728 1.377 . S
C729 C735 1.390 . S
C730 H721 0.930 . S
C730 C728 1.384 . S
C730 C731 1.372 . S
C731 C730 1.372 . S
C731 C732 1.400 . S
C731 C736 1.490 . S
C732 H722 0.930 . S
C732 C731 1.400 . S
C732 C735 1.386 . S
H733 C749 0.930 . S
H734 C750 0.931 . S
C735 H723 0.929 . S
C735 C729 1.390 . S
C735 C732 1.386 . S
C736 C731 1.490 . S
C736 C738 1.395 . S
C736 C739 1.403 . S
H737 C743 0.930 . S
C738 H724 0.930 . S
C738 C736 1.395 . S
C738 C741 1.403 . S
C739 C736 1.403 . S
C739 C740 1.524 . S
C739 C743 1.400 . S
C740 H725 0.960 . S
C740 H726 0.960 . S
C740 H727 0.960 . S
C740 C739 1.524 . S
C741 C738 1.403 . S
C741 C742 1.392 . S
C741 C745 1.495 . S
C742 C741 1.392 . S
C742 C743 1.385 . S
C742 C744 1.478 . S
C743 H737 0.930 . S
C743 C739 1.400 . S
C743 C742 1.385 . S
C744 C742 1.478 . S
C744 C746 1.381 . S
C744 C750 1.383 . S
C745 C741 1.495 . S
C745 H751 0.959 . S
C745 H752 0.961 . S
C745 H753 0.960 . S
C746 C744 1.381 . S
C746 C747 1.394 . S
C746 H754 0.930 . S
C747 C746 1.394 . S
C747 C748 1.383 . S
C747 H755 0.929 . S
C748 C747 1.383 . S
C748 C749 1.377 . S
C749 H733 0.930 . S
C749 C748 1.377 . S
C749 C750 1.379 . S
C750 H734 0.931 . S
C750 C744 1.383 . S
C750 C749 1.379 . S
H751 C745 0.959 . S
H752 C745 0.961 . S
H753 C745 0.960 . S
H754 C746 0.930 . S
H755 C747 0.929 . S
H756 C764 0.929 . S
H757 C766 0.930 . S
H758 C768 0.930 . S
H759 C771 0.929 . S
H760 C774 0.930 . S
H761 C776 0.960 . S
H762 C776 0.960 . S
H763 C776 0.960 . S
C764 H756 0.929 . S
C764 C765 1.377 . S
C764 C766 1.384 . S
C765 C764 1.377 . S
C765 C771 1.390 . S
C766 H757 0.930 . S
C766 C764 1.384 . S
C766 C767 1.372 . S
C767 C766 1.372 . S
C767 C768 1.400 . S
C767 C772 1.490 . S
C768 H758 0.930 . S
C768 C767 1.400 . S
C768 C771 1.386 . S
H769 C785 0.930 . S
H770 C786 0.931 . S
C771 H759 0.929 . S
C771 C765 1.390 . S
C771 C768 1.386 . S
C772 C767 1.490 . S
C772 C774 1.395 . S
C772 C775 1.403 . S
H773 C779 0.930 . S
C774 H760 0.930 . S
C774 C772 1.395 . S
C774 C777 1.403 . S
C775 C772 1.403 . S
C775 C776 1.524 . S
C775 C779 1.400 . S
C776 H761 0.960 . S
C776 H762 0.960 . S
C776 H763 0.960 . S
C776 C775 1.524 . S
C777 C774 1.403 . S
C777 C778 1.392 . S
C777 C781 1.495 . S
C778 C777 1.392 . S
C778 C779 1.385 . S
C778 C780 1.478 . S
C779 H773 0.930 . S
C779 C775 1.400 . S
C779 C778 1.385 . S
C780 C778 1.478 . S
C780 C782 1.381 . S
C780 C786 1.383 . S
C781 C777 1.495 . S
C781 H787 0.959 . S
C781 H788 0.961 . S
C781 H789 0.960 . S
C782 C780 1.381 . S
C782 C783 1.394 . S
C782 H790 0.930 . S
C783 C782 1.394 . S
C783 C784 1.383 . S
C783 H791 0.929 . S
C784 C783 1.383 . S
C784 C785 1.377 . S
C785 H769 0.930 . S
C785 C784 1.377 . S
C785 C786 1.379 . S
C786 H770 0.931 . S
C786 C780 1.383 . S
C786 C785 1.379 . S
H787 C781 0.959 . S
H788 C781 0.961 . S
H789 C781 0.960 . S
H790 C782 0.930 . S
H791 C783 0.929 . S
H792 C800 0.929 . S
H793 C802 0.930 . S
H794 C804 0.930 . S
H795 C807 0.929 . S
H796 C810 0.930 . S
H797 C812 0.960 . S
H798 C812 0.960 . S
H799 C812 0.960 . S
C800 H792 0.929 . S
C800 C801 1.377 . S
C800 C802 1.384 . S
C801 C800 1.377 . S
C801 C807 1.390 . S
C802 H793 0.930 . S
C802 C800 1.384 . S
C802 C803 1.372 . S
C803 C802 1.372 . S
C803 C804 1.400 . S
C803 C808 1.490 . S
C804 H794 0.930 . S
C804 C803 1.400 . S
C804 C807 1.386 . S
H805 C821 0.930 . S
H806 C822 0.931 . S
C807 H795 0.929 . S
C807 C801 1.390 . S
C807 C804 1.386 . S
C808 C803 1.490 . S
C808 C810 1.395 . S
C808 C811 1.403 . S
H809 C815 0.930 . S
C810 H796 0.930 . S
C810 C808 1.395 . S
C810 C813 1.403 . S
C811 C808 1.403 . S
C811 C812 1.524 . S
C811 C815 1.400 . S
C812 H797 0.960 . S
C812 H798 0.960 . S
C812 H799 0.960 . S
C812 C811 1.524 . S
C813 C810 1.403 . S
C813 C814 1.392 . S
C813 C817 1.495 . S
C814 C813 1.392 . S
C814 C815 1.385 . S
C814 C816 1.478 . S
C815 H809 0.930 . S
C815 C811 1.400 . S
C815 C814 1.385 . S
C816 C814 1.478 . S
C816 C818 1.381 . S
C816 C822 1.383 . S
C817 C813 1.495 . S
C817 H823 0.959 . S
C817 H824 0.961 . S
C817 H825 0.960 . S
C818 C816 1.381 . S
C818 C819 1.394 . S
C818 H826 0.930 . S
C819 C818 1.394 . S
C819 C820 1.383 . S
C819 H827 0.929 . S
C820 C819 1.383 . S
C820 C821 1.377 . S
C821 H805 0.930 . S
C821 C820 1.377 . S
C821 C822 1.379 . S
C822 H806 0.931 . S
C822 C816 1.383 . S
C822 C821 1.379 . S
H823 C817 0.959 . S
H824 C817 0.961 . S
H825 C817 0.960 . S
H826 C818 0.930 . S
H827 C819 0.929 . S
H828 C836 0.929 . S
H829 C838 0.930 . S
H830 C840 0.930 . S
H831 C843 0.929 . S
H832 C846 0.930 . S
H833 C848 0.960 . S
H834 C848 0.960 . S
H835 C848 0.960 . S
C836 H828 0.929 . S
C836 C837 1.377 . S
C836 C838 1.384 . S
C837 C836 1.377 . S
C837 C843 1.390 . S
C838 H829 0.930 . S
C838 C836 1.384 . S
C838 C839 1.372 . S
C839 C838 1.372 . S
C839 C840 1.400 . S
C839 C844 1.490 . S
C840 H830 0.930 . S
C840 C839 1.400 . S
C840 C843 1.386 . S
H841 C857 0.930 . S
H842 C858 0.931 . S
C843 H831 0.929 . S
C843 C837 1.390 . S
C843 C840 1.386 . S
C844 C839 1.490 . S
C844 C846 1.395 . S
C844 C847 1.403 . S
H845 C851 0.930 . S
C846 H832 0.930 . S
C846 C844 1.395 . S
C846 C849 1.403 . S
C847 C844 1.403 . S
C847 C848 1.524 . S
C847 C851 1.400 . S
C848 H833 0.960 . S
C848 H834 0.960 . S
C848 H835 0.960 . S
C848 C847 1.524 . S
C849 C846 1.403 . S
C849 C850 1.392 . S
C849 C853 1.495 . S
C850 C849 1.392 . S
C850 C851 1.385 . S
C850 C852 1.478 . S
C851 H845 0.930 . S
C851 C847 1.400 . S
C851 C850 1.385 . S
C852 C850 1.478 . S
C852 C854 1.381 . S
C852 C858 1.383 . S
C853 C849 1.495 . S
C853 H859 0.959 . S
C853 H860 0.961 . S
C853 H861 0.960 . S
C854 C852 1.381 . S
C854 C855 1.394 . S
C854 H862 0.930 . S
C855 C854 1.394 . S
C855 C856 1.383 . S
C855 H863 0.929 . S
C856 C855 1.383 . S
C856 C857 1.377 . S
C857 H841 0.930 . S
C857 C856 1.377 . S
C857 C858 1.379 . S
C858 H842 0.931 . S
C858 C852 1.383 . S
C858 C857 1.379 . S
H859 C853 0.959 . S
H860 C853 0.961 . S
H861 C853 0.960 . S
H862 C854 0.930 . S
H863 C855 0.929 . S
H864 C872 0.929 . S
H865 C874 0.930 . S
H866 C876 0.930 . S
H867 C879 0.929 . S
H868 C882 0.930 . S
H869 C884 0.960 . S
H870 C884 0.960 . S
H871 C884 0.960 . S
C872 H864 0.929 . S
C872 C873 1.377 . S
C872 C874 1.384 . S
C873 C872 1.377 . S
C873 C879 1.390 . S
C874 H865 0.930 . S
C874 C872 1.384 . S
C874 C875 1.372 . S
C875 C874 1.372 . S
C875 C876 1.400 . S
C875 C880 1.490 . S
C876 H866 0.930 . S
C876 C875 1.400 . S
C876 C879 1.386 . S
H877 C893 0.930 . S
H878 C894 0.931 . S
C879 H867 0.929 . S
C879 C873 1.390 . S
C879 C876 1.386 . S
C880 C875 1.490 . S
C880 C882 1.395 . S
C880 C883 1.403 . S
H881 C887 0.930 . S
C882 H868 0.930 . S
C882 C880 1.395 . S
C882 C885 1.403 . S
C883 C880 1.403 . S
C883 C884 1.524 . S
C883 C887 1.400 . S
C884 H869 0.960 . S
C884 H870 0.960 . S
C884 H871 0.960 . S
C884 C883 1.524 . S
C885 C882 1.403 . S
C885 C886 1.392 . S
C885 C889 1.495 . S
C886 C885 1.392 . S
C886 C887 1.385 . S
C886 C888 1.478 . S
C887 H881 0.930 . S
C887 C883 1.400 . S
C887 C886 1.385 . S
C888 C886 1.478 . S
C888 C890 1.381 . S
C888 C894 1.383 . S
C889 C885 1.495 . S
C889 H895 0.959 . S
C889 H896 0.961 . S
C889 H897 0.960 . S
C890 C888 1.381 . S
C890 C891 1.394 . S
C890 H898 0.930 . S
C891 C890 1.394 . S
C891 C892 1.383 . S
C891 H899 0.929 . S
C892 C891 1.383 . S
C892 C893 1.377 . S
C893 H877 0.930 . S
C893 C892 1.377 . S
C893 C894 1.379 . S
C894 H878 0.931 . S
C894 C888 1.383 . S
C894 C893 1.379 . S
H895 C889 0.959 . S
H896 C889 0.961 . S
H897 C889 0.960 . S
H898 C890 0.930 . S
H899 C891 0.929 . S
H900 C908 0.929 . S
H901 C910 0.930 . S
H902 C912 0.930 . S
H903 C915 0.929 . S
H904 C918 0.930 . S
H905 C920 0.960 . S
H906 C920 0.960 . S
H907 C920 0.960 . S
C908 H900 0.929 . S
C908 C909 1.377 . S
C908 C910 1.384 . S
C909 C908 1.377 . S
C909 C915 1.390 . S
C910 H901 0.930 . S
C910 C908 1.384 . S
C910 C911 1.372 . S
C911 C910 1.372 . S
C911 C912 1.400 . S
C911 C916 1.490 . S
C912 H902 0.930 . S
C912 C911 1.400 . S
C912 C915 1.386 . S
H913 C929 0.930 . S
H914 C930 0.931 . S
C915 H903 0.929 . S
C915 C909 1.390 . S
C915 C912 1.386 . S
C916 C911 1.490 . S
C916 C918 1.395 . S
C916 C919 1.403 . S
H917 C923 0.930 . S
C918 H904 0.930 . S
C918 C916 1.395 . S
C918 C921 1.403 . S
C919 C916 1.403 . S
C919 C920 1.524 . S
C919 C923 1.400 . S
C920 H905 0.960 . S
C920 H906 0.960 . S
C920 H907 0.960 . S
C920 C919 1.524 . S
C921 C918 1.403 . S
C921 C922 1.392 . S
C921 C925 1.495 . S
C922 C921 1.392 . S
C922 C923 1.385 . S
C922 C924 1.478 . S
C923 H917 0.930 . S
C923 C919 1.400 . S
C923 C922 1.385 . S
C924 C922 1.478 . S
C924 C926 1.381 . S
C924 C930 1.383 . S
C925 C921 1.495 . S
C925 H931 0.959 . S
C925 H932 0.961 . S
C925 H933 0.960 . S
C926 C924 1.381 . S
C926 C927 1.394 . S
C926 H934 0.930 . S
C927 C926 1.394 . S
C927 C928 1.383 . S
C927 H935 0.929 . S
C928 C927 1.383 . S
C928 C929 1.377 . S
C929 H913 0.930 . S
C929 C928 1.377 . S
C929 C930 1.379 . S
C930 H914 0.931 . S
C930 C924 1.383 . S
C930 C929 1.379 . S
H931 C925 0.959 . S
H932 C925 0.961 . S
H933 C925 0.960 . S
H934 C926 0.930 . S
H935 C927 0.929 . S
H936 C944 0.929 . S
H937 C946 0.930 . S
H938 C948 0.930 . S
H939 C951 0.929 . S
H940 C954 0.930 . S
H941 C956 0.960 . S
H942 C956 0.960 . S
H943 C956 0.960 . S
C944 H936 0.929 . S
C944 C945 1.377 . S
C944 C946 1.384 . S
C945 C944 1.377 . S
C945 C951 1.390 . S
C946 H937 0.930 . S
C946 C944 1.384 . S
C946 C947 1.372 . S
C947 C946 1.372 . S
C947 C948 1.400 . S
C947 C952 1.490 . S
C948 H938 0.930 . S
C948 C947 1.400 . S
C948 C951 1.386 . S
H949 C965 0.930 . S
H950 C966 0.931 . S
C951 H939 0.929 . S
C951 C945 1.390 . S
C951 C948 1.386 . S
C952 C947 1.490 . S
C952 C954 1.395 . S
C952 C955 1.403 . S
H953 C959 0.930 . S
C954 H940 0.930 . S
C954 C952 1.395 . S
C954 C957 1.403 . S
C955 C952 1.403 . S
C955 C956 1.524 . S
C955 C959 1.400 . S
C956 H941 0.960 . S
C956 H942 0.960 . S
C956 H943 0.960 . S
C956 C955 1.524 . S
C957 C954 1.403 . S
C957 C958 1.392 . S
C957 C961 1.495 . S
C958 C957 1.392 . S
C958 C959 1.385 . S
C958 C960 1.478 . S
C959 H953 0.930 . S
C959 C955 1.400 . S
C959 C958 1.385 . S
C960 C958 1.478 . S
C960 C962 1.381 . S
C960 C966 1.383 . S
C961 C957 1.495 . S
C961 H967 0.959 . S
C961 H968 0.961 . S
C961 H969 0.960 . S
C962 C960 1.381 . S
C962 C963 1.394 . S
C962 H970 0.930 . S
C963 C962 1.394 . S
C963 C964 1.383 . S
C963 H971 0.929 . S
C964 C963 1.383 . S
C964 C965 1.377 . S
C965 H949 0.930 . S
C965 C964 1.377 . S
C965 C966 1.379 . S
C966 H950 0.931 . S
C966 C960 1.383 . S
C966 C965 1.379 . S
H967 C961 0.959 . S
H968 C961 0.961 . S
H969 C961 0.960 . S
H970 C962 0.930 . S
H971 C963 0.929 . S
H972 C980 0.929 . S
H973 C982 0.930 . S
H974 C984 0.930 . S
H975 C987 0.929 . S
H976 C990 0.930 . S
H977 C992 0.960 . S
H978 C992 0.960 . S
H979 C992 0.960 . S
C980 H972 0.929 . S
C980 C981 1.377 . S
C980 C982 1.384 . S
C981 C980 1.377 . S
C981 C987 1.390 . S
C982 H973 0.930 . S
C982 C980 1.384 . S
C982 C983 1.372 . S
C983 C982 1.372 . S
C983 C984 1.400 . S
C983 C988 1.490 . S
C984 H974 0.930 . S
C984 C983 1.400 . S
C984 C987 1.386 . S
H985 C1001 0.930 . S
H986 C1002 0.931 . S
C987 H975 0.929 . S
C987 C981 1.390 . S
C987 C984 1.386 . S
C988 C983 1.490 . S
C988 C990 1.395 . S
C988 C991 1.403 . S
H989 C995 0.930 . S
C990 H976 0.930 . S
C990 C988 1.395 . S
C990 C993 1.403 . S
C991 C988 1.403 . S
C991 C992 1.524 . S
C991 C995 1.400 . S
C992 H977 0.960 . S
C992 H978 0.960 . S
C992 H979 0.960 . S
C992 C991 1.524 . S
C993 C990 1.403 . S
C993 C994 1.392 . S
C993 C997 1.495 . S
C994 C993 1.392 . S
C994 C995 1.385 . S
C994 C996 1.478 . S
C995 H989 0.930 . S
C995 C991 1.400 . S
C995 C994 1.385 . S
C996 C994 1.478 . S
C996 C998 1.381 . S
C996 C1002 1.383 . S
C997 C993 1.495 . S
C997 H1003 0.959 . S
C997 H1004 0.961 . S
C997 H1005 0.960 . S
C998 C996 1.381 . S
C998 C999 1.394 . S
C998 H1006 0.930 . S
C999 C998 1.394 . S
C999 C1000 1.383 . S
C999 H1007 0.929 . S
C1000 C999 1.383 . S
C1000 C1001 1.377 . S
C1001 H985 0.930 . S
C1001 C1000 1.377 . S
C1001 C1002 1.379 . S
C1002 H986 0.931 . S
C1002 C996 1.383 . S
C1002 C1001 1.379 . S
H1003 C997 0.959 . S
H1004 C997 0.961 . S
H1005 C997 0.960 . S
H1006 C998 0.930 . S
H1007 C999 0.929 . S
H1008 C1016 0.929 . S
H1009 C1018 0.930 . S
H1010 C1020 0.930 . S
H1011 C1023 0.929 . S
H1012 C1026 0.930 . S
H1013 C1028 0.960 . S
H1014 C1028 0.960 . S
H1015 C1028 0.960 . S
C1016 H1008 0.929 . S
C1016 C1017 1.377 . S
C1016 C1018 1.384 . S
C1017 C1016 1.377 . S
C1017 C1023 1.390 . S
C1018 H1009 0.930 . S
C1018 C1016 1.384 . S
C1018 C1019 1.372 . S
C1019 C1018 1.372 . S
C1019 C1020 1.400 . S
C1019 C1024 1.490 . S
C1020 H1010 0.930 . S
C1020 C1019 1.400 . S
C1020 C1023 1.386 . S
H1021 C1037 0.930 . S
H1022 C1038 0.931 . S
C1023 H1011 0.929 . S
C1023 C1017 1.390 . S
C1023 C1020 1.386 . S
C1024 C1019 1.490 . S
C1024 C1026 1.395 . S
C1024 C1027 1.403 . S
H1025 C1031 0.930 . S
C1026 H1012 0.930 . S
C1026 C1024 1.395 . S
C1026 C1029 1.403 . S
C1027 C1024 1.403 . S
C1027 C1028 1.524 . S
C1027 C1031 1.400 . S
C1028 H1013 0.960 . S
C1028 H1014 0.960 . S
C1028 H1015 0.960 . S
C1028 C1027 1.524 . S
C1029 C1026 1.403 . S
C1029 C1030 1.392 . S
C1029 C1033 1.495 . S
C1030 C1029 1.392 . S
C1030 C1031 1.385 . S
C1030 C1032 1.478 . S
C1031 H1025 0.930 . S
C1031 C1027 1.400 . S
C1031 C1030 1.385 . S
C1032 C1030 1.478 . S
C1032 C1034 1.381 . S
C1032 C1038 1.383 . S
C1033 C1029 1.495 . S
C1033 H1039 0.959 . S
C1033 H1040 0.961 . S
C1033 H1041 0.960 . S
C1034 C1032 1.381 . S
C1034 C1035 1.394 . S
C1034 H1042 0.930 . S
C1035 C1034 1.394 . S
C1035 C1036 1.383 . S
C1035 H1043 0.929 . S
C1036 C1035 1.383 . S
C1036 C1037 1.377 . S
C1037 H1021 0.930 . S
C1037 C1036 1.377 . S
C1037 C1038 1.379 . S
C1038 H1022 0.931 . S
C1038 C1032 1.383 . S
C1038 C1037 1.379 . S
H1039 C1033 0.959 . S
H1040 C1033 0.961 . S
H1041 C1033 0.960 . S
H1042 C1034 0.930 . S
H1043 C1035 0.929 . S
H1044 C1052 0.929 . S
H1045 C1054 0.930 . S
H1046 C1056 0.930 . S
H1047 C1059 0.929 . S
H1048 C1062 0.930 . S
H1049 C1064 0.960 . S
H1050 C1064 0.960 . S
H1051 C1064 0.960 . S
C1052 H1044 0.929 . S
C1052 C1053 1.377 . S
C1052 C1054 1.384 . S
C1053 C1052 1.377 . S
C1053 C1059 1.390 . S
C1054 H1045 0.930 . S
C1054 C1052 1.384 . S
C1054 C1055 1.372 . S
C1055 C1054 1.372 . S
C1055 C1056 1.400 . S
C1055 C1060 1.490 . S
C1056 H1046 0.930 . S
C1056 C1055 1.400 . S
C1056 C1059 1.386 . S
H1057 C1073 0.930 . S
H1058 C1074 0.931 . S
C1059 H1047 0.929 . S
C1059 C1053 1.390 . S
C1059 C1056 1.386 . S
C1060 C1055 1.490 . S
C1060 C1062 1.395 . S
C1060 C1063 1.403 . S
H1061 C1067 0.930 . S
C1062 H1048 0.930 . S
C1062 C1060 1.395 . S
C1062 C1065 1.403 . S
C1063 C1060 1.403 . S
C1063 C1064 1.524 . S
C1063 C1067 1.400 . S
C1064 H1049 0.960 . S
C1064 H1050 0.960 . S
C1064 H1051 0.960 . S
C1064 C1063 1.524 . S
C1065 C1062 1.403 . S
C1065 C1066 1.392 . S
C1065 C1069 1.495 . S
C1066 C1065 1.392 . S
C1066 C1067 1.385 . S
C1066 C1068 1.478 . S
C1067 H1061 0.930 . S
C1067 C1063 1.400 . S
C1067 C1066 1.385 . S
C1068 C1066 1.478 . S
C1068 C1070 1.381 . S
C1068 C1074 1.383 . S
C1069 C1065 1.495 . S
C1069 H1075 0.959 . S
C1069 H1076 0.961 . S
C1069 H1077 0.960 . S
C1070 C1068 1.381 . S
C1070 C1071 1.394 . S
C1070 H1078 0.930 . S
C1071 C1070 1.394 . S
C1071 C1072 1.383 . S
C1071 H1079 0.929 . S
C1072 C1071 1.383 . S
C1072 C1073 1.377 . S
C1073 H1057 0.930 . S
C1073 C1072 1.377 . S
C1073 C1074 1.379 . S
C1074 H1058 0.931 . S
C1074 C1068 1.383 . S
C1074 C1073 1.379 . S
H1075 C1069 0.959 . S
H1076 C1069 0.961 . S
H1077 C1069 0.960 . S
H1078 C1070 0.930 . S
H1079 C1071 0.929 . S
H1080 C1088 0.929 . S
H1081 C1090 0.930 . S
H1082 C1092 0.930 . S
H1083 C1095 0.929 . S
H1084 C1098 0.930 . S
H1085 C1100 0.960 . S
H1086 C1100 0.960 . S
H1087 C1100 0.960 . S
C1088 H1080 0.929 . S
C1088 C1089 1.377 . S
C1088 C1090 1.384 . S
C1089 C1088 1.377 . S
C1089 C1095 1.390 . S
C1090 H1081 0.930 . S
C1090 C1088 1.384 . S
C1090 C1091 1.372 . S
C1091 C1090 1.372 . S
C1091 C1092 1.400 . S
C1091 C1096 1.490 . S
C1092 H1082 0.930 . S
C1092 C1091 1.400 . S
C1092 C1095 1.386 . S
H1093 C1109 0.930 . S
H1094 C1110 0.931 . S
C1095 H1083 0.929 . S
C1095 C1089 1.390 . S
C1095 C1092 1.386 . S
C1096 C1091 1.490 . S
C1096 C1098 1.395 . S
C1096 C1099 1.403 . S
H1097 C1103 0.930 . S
C1098 H1084 0.930 . S
C1098 C1096 1.395 . S
C1098 C1101 1.403 . S
C1099 C1096 1.403 . S
C1099 C1100 1.524 . S
C1099 C1103 1.400 . S
C1100 H1085 0.960 . S
C1100 H1086 0.960 . S
C1100 H1087 0.960 . S
C1100 C1099 1.524 . S
C1101 C1098 1.403 . S
C1101 C1102 1.392 . S
C1101 C1105 1.495 . S
C1102 C1101 1.392 . S
C1102 C1103 1.385 . S
C1102 C1104 1.478 . S
C1103 H1097 0.930 . S
C1103 C1099 1.400 . S
C1103 C1102 1.385 . S
C1104 C1102 1.478 . S
C1104 C1106 1.381 . S
C1104 C1110 1.383 . S
C1105 C1101 1.495 . S
C1105 H1111 0.959 . S
C1105 H1112 0.961 . S
C1105 H1113 0.960 . S
C1106 C1104 1.381 . S
C1106 C1107 1.394 . S
C1106 H1114 0.930 . S
C1107 C1106 1.394 . S
C1107 C1108 1.383 . S
C1107 H1115 0.929 . S
C1108 C1107 1.383 . S
C1108 C1109 1.377 . S
C1109 H1093 0.930 . S
C1109 C1108 1.377 . S
C1109 C1110 1.379 . S
C1110 H1094 0.931 . S
C1110 C1104 1.383 . S
C1110 C1109 1.379 . S
H1111 C1105 0.959 . S
H1112 C1105 0.961 . S
H1113 C1105 0.960 . S
H1114 C1106 0.930 . S
H1115 C1107 0.929 . S
H1116 C1124 0.929 . S
H1117 C1126 0.930 . S
H1118 C1128 0.930 . S
H1119 C1131 0.929 . S
H1120 C1134 0.930 . S
H1121 C1136 0.960 . S
H1122 C1136 0.960 . S
H1123 C1136 0.960 . S
C1124 H1116 0.929 . S
C1124 C1125 1.377 . S
C1124 C1126 1.384 . S
C1125 C1124 1.377 . S
C1125 C1131 1.390 . S
C1126 H1117 0.930 . S
C1126 C1124 1.384 . S
C1126 C1127 1.372 . S
C1127 C1126 1.372 . S
C1127 C1128 1.400 . S
C1127 C1132 1.490 . S
C1128 H1118 0.930 . S
C1128 C1127 1.400 . S
C1128 C1131 1.386 . S
H1129 C1145 0.930 . S
H1130 C1146 0.931 . S
C1131 H1119 0.929 . S
C1131 C1125 1.390 . S
C1131 C1128 1.386 . S
C1132 C1127 1.490 . S
C1132 C1134 1.395 . S
C1132 C1135 1.403 . S
H1133 C1139 0.930 . S
C1134 H1120 0.930 . S
C1134 C1132 1.395 . S
C1134 C1137 1.403 . S
C1135 C1132 1.403 . S
C1135 C1136 1.524 . S
C1135 C1139 1.400 . S
C1136 H1121 0.960 . S
C1136 H1122 0.960 . S
C1136 H1123 0.960 . S
C1136 C1135 1.524 . S
C1137 C1134 1.403 . S
C1137 C1138 1.392 . S
C1137 C1141 1.495 . S
C1138 C1137 1.392 . S
C1138 C1139 1.385 . S
C1138 C1140 1.478 . S
C1139 H1133 0.930 . S
C1139 C1135 1.400 . S
C1139 C1138 1.385 . S
C1140 C1138 1.478 . S
C1140 C1142 1.381 . S
C1140 C1146 1.383 . S
C1141 C1137 1.495 . S
C1141 H1147 0.959 . S
C1141 H1148 0.961 . S
C1141 H1149 0.960 . S
C1142 C1140 1.381 . S
C1142 C1143 1.394 . S
C1142 H1150 0.930 . S
C1143 C1142 1.394 . S
C1143 C1144 1.383 . S
C1143 H1151 0.929 . S
C1144 C1143 1.383 . S
C1144 C1145 1.377 . S
C1145 H1129 0.930 . S
C1145 C1144 1.377 . S
C1145 C1146 1.379 . S
C1146 H1130 0.931 . S
C1146 C1140 1.383 . S
C1146 C1145 1.379 . S
H1147 C1141 0.959 . S
H1148 C1141 0.961 . S
H1149 C1141 0.960 . S
H1150 C1142 0.930 . S
H1151 C1143 0.929 . S
H1152 C1160 0.929 . S
H1153 C1162 0.930 . S
H1154 C1164 0.930 . S
H1155 C1167 0.929 . S
H1156 C1170 0.930 . S
H1157 C1172 0.960 . S
H1158 C1172 0.960 . S
H1159 C1172 0.960 . S
C1160 H1152 0.929 . S
C1160 C1161 1.377 . S
C1160 C1162 1.384 . S
C1161 C1160 1.377 . S
C1161 C1167 1.390 . S
C1162 H1153 0.930 . S
C1162 C1160 1.384 . S
C1162 C1163 1.372 . S
C1163 C1162 1.372 . S
C1163 C1164 1.400 . S
C1163 C1168 1.490 . S
C1164 H1154 0.930 . S
C1164 C1163 1.400 . S
C1164 C1167 1.386 . S
H1165 C1181 0.930 . S
H1166 C1182 0.931 . S
C1167 H1155 0.929 . S
C1167 C1161 1.390 . S
C1167 C1164 1.386 . S
C1168 C1163 1.490 . S
C1168 C1170 1.395 . S
C1168 C1171 1.403 . S
H1169 C1175 0.930 . S
C1170 H1156 0.930 . S
C1170 C1168 1.395 . S
C1170 C1173 1.403 . S
C1171 C1168 1.403 . S
C1171 C1172 1.524 . S
C1171 C1175 1.400 . S
C1172 H1157 0.960 . S
C1172 H1158 0.960 . S
C1172 H1159 0.960 . S
C1172 C1171 1.524 . S
C1173 C1170 1.403 . S
C1173 C1174 1.392 . S
C1173 C1177 1.495 . S
C1174 C1173 1.392 . S
C1174 C1175 1.385 . S
C1174 C1176 1.478 . S
C1175 H1169 0.930 . S
C1175 C1171 1.400 . S
C1175 C1174 1.385 . S
C1176 C1174 1.478 . S
C1176 C1178 1.381 . S
C1176 C1182 1.383 . S
C1177 C1173 1.495 . S
C1177 H1183 0.959 . S
C1177 H1184 0.961 . S
C1177 H1185 0.960 . S
C1178 C1176 1.381 . S
C1178 C1179 1.394 . S
C1178 H1186 0.930 . S
C1179 C1178 1.394 . S
C1179 C1180 1.383 . S
C1179 H1187 0.929 . S
C1180 C1179 1.383 . S
C1180 C1181 1.377 . S
C1181 H1165 0.930 . S
C1181 C1180 1.377 . S
C1181 C1182 1.379 . S
C1182 H1166 0.931 . S
C1182 C1176 1.383 . S
C1182 C1181 1.379 . S
H1183 C1177 0.959 . S
H1184 C1177 0.961 . S
H1185 C1177 0.960 . S
H1186 C1178 0.930 . S
H1187 C1179 0.929 . S
H1188 C1196 0.929 . S
H1189 C1198 0.930 . S
H1190 C1200 0.930 . S
H1191 C1203 0.929 . S
H1192 C1206 0.930 . S
H1193 C1208 0.960 . S
H1194 C1208 0.960 . S
H1195 C1208 0.960 . S
C1196 H1188 0.929 . S
C1196 C1197 1.377 . S
C1196 C1198 1.384 . S
C1197 C1196 1.377 . S
C1197 C1203 1.390 . S
C1198 H1189 0.930 . S
C1198 C1196 1.384 . S
C1198 C1199 1.372 . S
C1199 C1198 1.372 . S
C1199 C1200 1.400 . S
C1199 C1204 1.490 . S
C1200 H1190 0.930 . S
C1200 C1199 1.400 . S
C1200 C1203 1.386 . S
H1201 C1217 0.930 . S
H1202 C1218 0.931 . S
C1203 H1191 0.929 . S
C1203 C1197 1.390 . S
C1203 C1200 1.386 . S
C1204 C1199 1.490 . S
C1204 C1206 1.395 . S
C1204 C1207 1.403 . S
H1205 C1211 0.930 . S
C1206 H1192 0.930 . S
C1206 C1204 1.395 . S
C1206 C1209 1.403 . S
C1207 C1204 1.403 . S
C1207 C1208 1.524 . S
C1207 C1211 1.400 . S
C1208 H1193 0.960 . S
C1208 H1194 0.960 . S
C1208 H1195 0.960 . S
C1208 C1207 1.524 . S
C1209 C1206 1.403 . S
C1209 C1210 1.392 . S
C1209 C1213 1.495 . S
C1210 C1209 1.392 . S
C1210 C1211 1.385 . S
C1210 C1212 1.478 . S
C1211 H1205 0.930 . S
C1211 C1207 1.400 . S
C1211 C1210 1.385 . S
C1212 C1210 1.478 . S
C1212 C1214 1.381 . S
C1212 C1218 1.383 . S
C1213 C1209 1.495 . S
C1213 H1219 0.959 . S
C1213 H1220 0.961 . S
C1213 H1221 0.960 . S
C1214 C1212 1.381 . S
C1214 C1215 1.394 . S
C1214 H1222 0.930 . S
C1215 C1214 1.394 . S
C1215 C1216 1.383 . S
C1215 H1223 0.929 . S
C1216 C1215 1.383 . S
C1216 C1217 1.377 . S
C1217 H1201 0.930 . S
C1217 C1216 1.377 . S
C1217 C1218 1.379 . S
C1218 H1202 0.931 . S
C1218 C1212 1.383 . S
C1218 C1217 1.379 . S
H1219 C1213 0.959 . S
H1220 C1213 0.961 . S
H1221 C1213 0.960 . S
H1222 C1214 0.930 . S
H1223 C1215 0.929 . S
H1224 C1232 0.929 . S
H1225 C1234 0.930 . S
H1226 C1236 0.930 . S
H1227 C1239 0.929 . S
H1228 C1242 0.930 . S
H1229 C1244 0.960 . S
H1230 C1244 0.960 . S
H1231 C1244 0.960 . S
C1232 H1224 0.929 . S
C1232 C1233 1.377 . S
C1232 C1234 1.384 . S
C1233 C1232 1.377 . S
C1233 C1239 1.390 . S
C1234 H1225 0.930 . S
C1234 C1232 1.384 . S
C1234 C1235 1.372 . S
C1235 C1234 1.372 . S
C1235 C1236 1.400 . S
C1235 C1240 1.490 . S
C1236 H1226 0.930 . S
C1236 C1235 1.400 . S
C1236 C1239 1.386 . S
H1237 C1253 0.930 . S
H1238 C1254 0.931 . S
C1239 H1227 0.929 . S
C1239 C1233 1.390 . S
C1239 C1236 1.386 . S
C1240 C1235 1.490 . S
C1240 C1242 1.395 . S
C1240 C1243 1.403 . S
H1241 C1247 0.930 . S
C1242 H1228 0.930 . S
C1242 C1240 1.395 . S
C1242 C1245 1.403 . S
C1243 C1240 1.403 . S
C1243 C1244 1.524 . S
C1243 C1247 1.400 . S
C1244 H1229 0.960 . S
C1244 H1230 0.960 . S
C1244 H1231 0.960 . S
C1244 C1243 1.524 . S
C1245 C1242 1.403 . S
C1245 C1246 1.392 . S
C1245 C1249 1.495 . S
C1246 C1245 1.392 . S
C1246 C1247 1.385 . S
C1246 C1248 1.478 . S
C1247 H1241 0.930 . S
C1247 C1243 1.400 . S
C1247 C1246 1.385 . S
C1248 C1246 1.478 . S
C1248 C1250 1.381 . S
C1248 C1254 1.383 . S
C1249 C1245 1.495 . S
C1249 H1255 0.959 . S
C1249 H1256 0.961 . S
C1249 H1257 0.960 . S
C1250 C1248 1.381 . S
C1250 C1251 1.394 . S
C1250 H1258 0.930 . S
C1251 C1250 1.394 . S
C1251 C1252 1.383 . S
C1251 H1259 0.929 . S
C1252 C1251 1.383 . S
C1252 C1253 1.377 . S
C1253 H1237 0.930 . S
C1253 C1252 1.377 . S
C1253 C1254 1.379 . S
C1254 H1238 0.931 . S
C1254 C1248 1.383 . S
C1254 C1253 1.379 . S
H1255 C1249 0.959 . S
H1256 C1249 0.961 . S
H1257 C1249 0.960 . S
H1258 C1250 0.930 . S
H1259 C1251 0.929 . S
C405 C39 1.731 . S
C424 C319 1.723 . S
C441 C91 1.755 . S
C460 C332 1.754 . S
C496 C354 1.539 . S
C477 C128 1.591 . S
C532 C367 1.532 . S
C513 C188 1.561 . S
C568 C380 1.637 . S
C549 C250 1.689 . S
C604 C393 1.611 . S
C585 C304 1.696 . S
C621 C75 1.591 . S
C640 C349 1.537 . S
C657 C144 1.716 . S
C676 C362 1.659 . S
C712 C375 1.594 . S
C693 C198 1.681 . S
C748 C388 1.437 . S
C729 C234 1.523 . S
C765 C294 1.549 . S
C784 C321 1.546 . S
C820 C334 1.577 . S
C801 C29 1.581 . S
C856 C360 1.676 . S
C837 C38 1.725 . S
C873 C92 1.753 . S
C892 C373 1.679 . S
C928 C386 1.549 . S
C909 C135 1.589 . S
C945 C181 1.558 . S
C964 C323 1.551 . S
C981 C251 1.683 . S
C1000 C336 1.678 . S
C1017 C303 1.688 . S
C1036 C347 1.640 . S
C1053 C82 1.594 . S
C1072 C384 1.544 . S
C1108 C328 1.711 . S
C1089 C145 1.723 . S
C1125 C197 1.688 . S
C1144 C341 1.684 . S
C1161 C241 1.530 . S
C1180 C345 1.501 . S
C1197 C287 1.552 . S
C1216 C358 1.522 . S
C1233 C22 1.582 . S
C1252 C371 1.538 . S
