# Generated by pormake.
# Topology zzz, (3,6)-cn, num edge types: 1
# Building blocks:
#     Node 0, Type 0, BuildingBlock: OLANEW_clean_sbu_2, # of connection points: 3
#     Node 1, Type 0, BuildingBlock: OLANEW_clean_sbu_2, # of connection points: 3
#     Node 2, Type 0, BuildingBlock: OLANEW_clean_sbu_2, # of connection points: 3
#     Node 3, Type 0, BuildingBlock: OLANEW_clean_sbu_2, # of connection points: 3
#     Node 4, Type 0, BuildingBlock: OLANEW_clean_sbu_2, # of connection points: 3
#     Node 5, Type 0, BuildingBlock: OLANEW_clean_sbu_2, # of connection points: 3
#     Node 6, Type 0, BuildingBlock: OLANEW_clean_sbu_2, # of connection points: 3
#     Node 7, Type 0, BuildingBlock: OLANEW_clean_sbu_2, # of connection points: 3
#     Node 8, Type 1, BuildingBlock: INOVEN_clean_sbu_0, # of connection points: 6
#     Node 9, Type 1, BuildingBlock: INOVEN_clean_sbu_0, # of connection points: 6
#     Node 10, Type 1, BuildingBlock: INOVEN_clean_sbu_0, # of connection points: 6
#     Node 11, Type 1, BuildingBlock: INOVEN_clean_sbu_0, # of connection points: 6
#     Edge 12, Type (0, 1), BuildingBlock: AJUNOK_clean_linker_0, # of connection points: 2
#     Edge 13, Type (0, 1), BuildingBlock: AJUNOK_clean_linker_0, # of connection points: 2
#     Edge 14, Type (0, 1), BuildingBlock: AJUNOK_clean_linker_0, # of connection points: 2
#     Edge 15, Type (0, 1), BuildingBlock: AJUNOK_clean_linker_0, # of connection points: 2
#     Edge 16, Type (0, 1), BuildingBlock: AJUNOK_clean_linker_0, # of connection points: 2
#     Edge 17, Type (0, 1), BuildingBlock: AJUNOK_clean_linker_0, # of connection points: 2
#     Edge 18, Type (0, 1), BuildingBlock: AJUNOK_clean_linker_0, # of connection points: 2
#     Edge 19, Type (0, 1), BuildingBlock: AJUNOK_clean_linker_0, # of connection points: 2
#     Edge 20, Type (0, 1), BuildingBlock: AJUNOK_clean_linker_0, # of connection points: 2
#     Edge 21, Type (0, 1), BuildingBlock: AJUNOK_clean_linker_0, # of connection points: 2
#     Edge 22, Type (0, 1), BuildingBlock: AJUNOK_clean_linker_0, # of connection points: 2
#     Edge 23, Type (0, 1), BuildingBlock: AJUNOK_clean_linker_0, # of connection points: 2
#     Edge 24, Type (0, 1), BuildingBlock: AJUNOK_clean_linker_0, # of connection points: 2
#     Edge 25, Type (0, 1), BuildingBlock: AJUNOK_clean_linker_0, # of connection points: 2
#     Edge 26, Type (0, 1), BuildingBlock: AJUNOK_clean_linker_0, # of connection points: 2
#     Edge 27, Type (0, 1), BuildingBlock: AJUNOK_clean_linker_0, # of connection points: 2
#     Edge 28, Type (0, 1), BuildingBlock: AJUNOK_clean_linker_0, # of connection points: 2
#     Edge 29, Type (0, 1), BuildingBlock: AJUNOK_clean_linker_0, # of connection points: 2
#     Edge 30, Type (0, 1), BuildingBlock: AJUNOK_clean_linker_0, # of connection points: 2
#     Edge 31, Type (0, 1), BuildingBlock: AJUNOK_clean_linker_0, # of connection points: 2
#     Edge 32, Type (0, 1), BuildingBlock: AJUNOK_clean_linker_0, # of connection points: 2
#     Edge 33, Type (0, 1), BuildingBlock: AJUNOK_clean_linker_0, # of connection points: 2
#     Edge 34, Type (0, 1), BuildingBlock: AJUNOK_clean_linker_0, # of connection points: 2
#     Edge 35, Type (0, 1), BuildingBlock: AJUNOK_clean_linker_0, # of connection points: 2
# Relax obj value: 0.291
# Max RMSD: 0.204
# Mean RMSD: 0.172
data_MOF--net-zzz--node1-OLANEW_clean_sbu_2--node2-INOVEN_clean_sbu_0--edge1-AJUNOK_clean_linker_0
_symmetry_space_group_name_H-M    P1
_symmetry_Int_Tables_number       1
_symmetry_cell_setting            triclinic
loop_
_symmetry_equiv_pos_as_xyz
'x, y, z'
_cell_length_a     42.895568
_cell_length_b     42.839097
_cell_length_c     11.646557
_cell_angle_alpha  89.989223
_cell_angle_beta   89.987129
_cell_angle_gamma 89.985785
loop_
_atom_site_label
_atom_site_type_symbol
_atom_site_fract_x
_atom_site_fract_y
_atom_site_fract_z
_atom_type_partial_charge
O0 O 0.7249 0.6104 0.11403 0.0
Cd1 Cd 0.67314 0.63351 0.12508 0.0
O2 O 0.71784 0.58873 0.28324 0.0
Cd3 Cd 0.73889 0.5614 0.42092 0.0
O4 O 0.7805 0.53957 0.49197 0.0
C5 C 0.80633 0.5529 0.47049 0.0
O6 O 0.80615 0.57957 0.41493 0.0
C7 C 0.73451 0.59278 0.19423 0.0
C8 C 0.63334 0.59764 0.98979 0.0
O9 O 0.64696 0.62181 0.94864 0.0
O10 O 0.63791 0.59107 0.09579 0.0
O11 O 0.93958 0.73206 0.20627 0.0
Cd12 Cd 0.92325 0.68034 0.27081 0.0
O13 O 0.97717 0.72786 0.33279 0.0
Cd14 Cd 0.01279 0.75196 0.4313 0.0
O15 O 0.02142 0.79925 0.48911 0.0
C16 C 0.00024 0.81095 0.55195 0.0
O17 O 0.97636 0.79352 0.58157 0.0
C18 C 0.96342 0.74351 0.25504 0.0
C19 C 0.9433 0.63389 0.12041 0.0
O20 O 0.91666 0.64705 0.10863 0.0
O21 O 0.96052 0.64268 0.20433 0.0
O22 O 0.79682 0.93618 0.28727 0.0
Cd23 Cd 0.8488 0.9148 0.31794 0.0
O24 O 0.77533 0.90415 0.41197 0.0
Cd25 Cd 0.73182 0.88898 0.49063 0.0
O26 O 0.68408 0.89994 0.53841 0.0
C27 C 0.67898 0.90915 0.64019 0.0
O28 O 0.70212 0.90876 0.71413 0.0
C29 C 0.77294 0.92642 0.34044 0.0
C30 C 0.88728 0.93963 0.14864 0.0
O31 O 0.87244 0.91405 0.13272 0.0
O32 O 0.88472 0.95295 0.24675 0.0
O33 O 0.59395 0.77069 0.30295 0.0
Cd34 Cd 0.6069 0.82316 0.37024 0.0
O35 O 0.54457 0.7815 0.3344 0.0
Cd36 Cd 0.4982 0.76107 0.35035 0.0
O37 O 0.48477 0.71454 0.40726 0.0
C38 C 0.5014 0.70452 0.4897 0.0
O39 O 0.52275 0.7231 0.53294 0.0
C40 C 0.56546 0.7627 0.29956 0.0
C41 C 0.57514 0.86642 0.23549 0.0
O42 O 0.60178 0.85565 0.2052 0.0
O43 O 0.56373 0.85727 0.33144 0.0
O44 O 0.25917 0.40969 0.36696 0.0
Cd45 Cd 0.31139 0.38853 0.3375 0.0
O46 O 0.23852 0.37983 0.23352 0.0
Cd47 Cd 0.19831 0.37004 0.12412 0.0
O48 O 0.15292 0.38418 0.05793 0.0
C49 C 0.1506 0.41311 0.03559 0.0
O50 O 0.17497 0.43112 0.05214 0.0
C51 C 0.23555 0.40084 0.30992 0.0
C52 C 0.35421 0.42504 0.45786 0.0
O53 O 0.34683 0.43153 0.35397 0.0
O54 O 0.34179 0.40085 0.50374 0.0
O55 O 0.96627 0.27318 0.09562 0.0
Cd56 Cd 0.97122 0.3282 0.04525 0.0
O57 O 0.01685 0.27235 0.1255 0.0
Cd58 Cd 0.05745 0.24267 0.15333 0.0
O59 O 0.06259 0.19524 0.08933 0.0
C60 C 0.04983 0.19141 0.99186 0.0
O61 O 0.03804 0.21595 0.94 0.0
C62 C 0.99063 0.25848 0.12568 0.0
C63 C 0.97179 0.36305 0.24719 0.0
O64 O 0.94622 0.35666 0.19539 0.0
O65 O 0.99727 0.35348 0.20172 0.0
O66 O 0.23758 0.04457 0.20591 0.0
Cd67 Cd 0.1868 0.06558 0.15479 0.0
O68 O 0.25474 0.09257 0.22727 0.0
Cd69 Cd 0.29632 0.12086 0.25285 0.0
O70 O 0.34325 0.10703 0.20393 0.0
C71 C 0.345 0.09322 0.10757 0.0
O72 O 0.31975 0.09138 0.04404 0.0
C73 C 0.25924 0.06328 0.23331 0.0
C74 C 0.1468 0.04942 0.33295 0.0
O75 O 0.14934 0.03223 0.24336 0.0
O76 O 0.16237 0.07492 0.33601 0.0
O77 O 0.43838 0.22963 0.35566 0.0
Cd78 Cd 0.42496 0.17497 0.32263 0.0
O79 O 0.43922 0.23578 0.16894 0.0
Cd80 Cd 0.44885 0.26433 0.01845 0.0
O81 O 0.45937 0.30646 0.92241 0.0
C82 C 0.48109 0.3238 0.96008 0.0
O83 O 0.49696 0.31463 0.05052 0.0
C84 C 0.44221 0.24722 0.26909 0.0
C85 C 0.45294 0.13605 0.48407 0.0
O86 O 0.46647 0.14207 0.38846 0.0
O87 O 0.4262 0.14839 0.50275 0.0
Gd88 Gd 0.027 0.9925 0.87065 0.0
Gd89 Gd 0.00315 0.01418 0.632 0.0
C90 C 0.00677 0.94179 0.67685 0.0
C91 C 0.03267 0.96295 0.0623 0.0
C92 C 0.02444 0.9307 0.09543 0.0
C93 C 0.03295 0.90534 0.02552 0.0
C94 C 0.00614 0.92522 0.19337 0.0
C95 C 0.00532 0.86952 0.1515 0.0
C96 C 0.9965 0.89489 0.22085 0.0
C97 C 0.0236 0.8751 0.05358 0.0
C98 C 0.07074 0.00539 0.71217 0.0
C99 C 0.02515 0.06529 0.82906 0.0
C100 C 0.99534 0.03874 0.43069 0.0
C101 C 0.9906 0.06987 0.38064 0.0
C102 C 0.99894 0.07538 0.26598 0.0
C103 C 0.97857 0.0944 0.44691 0.0
C104 C 0.98534 0.13022 0.28662 0.0
C105 C 0.97597 0.12434 0.4002 0.0
C106 C 0.99617 0.10532 0.21912 0.0
C107 C 0.959 -2e-05 0.78804 0.0
O108 O 0.0079 0.94894 0.78713 0.0
O109 O 0.01006 0.96327 0.59628 0.0
O110 O 0.05563 0.96613 0.98893 0.0
O111 O 0.00908 0.98137 0.03999 0.0
O112 O 0.07435 0.01138 0.8208 0.0
O113 O 0.04538 0.99153 0.69498 0.0
O114 O 0.01845 0.05924 0.71973 0.0
O115 O 0.02641 0.04328 0.90841 0.0
O116 O 0.97249 0.02774 0.49321 0.0
O117 O 0.0228 0.03358 0.47592 0.0
O118 O 0.95595 0.99489 0.67881 0.0
O119 O 0.98413 0.01421 0.80716 0.0
H120 H 0.04642 0.90886 0.9479 0.0
H121 H 0.99896 0.94446 0.24769 0.0
H122 H 0.98228 0.89122 0.29652 0.0
H123 H 0.03005 0.85611 0.99692 0.0
H124 H 0.00809 0.05664 0.21329 0.0
H125 H 0.9716 0.09047 0.5351 0.0
H126 H 0.96691 0.14304 0.45303 0.0
H127 H 0.00334 0.1092 0.13137 0.0
Gd128 Gd 0.52703 0.0111 0.97367 0.0
Gd129 Gd 0.49275 0.98755 0.75659 0.0
C130 C 0.565 0.97399 0.77224 0.0
C131 C 0.56205 0.01722 0.15223 0.0
C132 C 0.59168 0.00315 0.18857 0.0
C133 C 0.61305 0.02105 0.25114 0.0
C134 C 0.59983 0.97281 0.15431 0.0
C135 C 0.65064 0.97849 0.24508 0.0
C136 C 0.62905 0.96058 0.1824 0.0
C137 C 0.64234 0.00892 0.27869 0.0
C138 C 0.51361 0.05509 0.8161 0.0
C139 C 0.45485 0.0239 0.96057 0.0
C140 C 0.45952 0.98022 0.57364 0.0
C141 C 0.43104 0.99303 0.52161 0.0
C142 C 0.41135 0.97308 0.45989 0.0
C143 C 0.42294 0.02457 0.53404 0.0
C144 C 0.37601 0.01623 0.41968 0.0
C145 C 0.39568 0.03606 0.48345 0.0
C146 C 0.38397 0.98446 0.41033 0.0
C147 C 0.50558 0.94388 0.91713 0.0
O148 O 0.56295 0.98199 0.88162 0.0
O149 O 0.54166 0.97822 0.69997 0.0
O150 O 0.5639 0.03561 0.06275 0.0
O151 O 0.53778 0.99865 0.14932 0.0
O152 O 0.51398 0.06022 0.92586 0.0
O153 O 0.52268 0.02767 0.79493 0.0
O154 O 0.45664 0.01666 0.85002 0.0
O155 O 0.47826 0.01894 0.03195 0.0
O156 O 0.45558 0.96358 0.66685 0.0
O157 O 0.48379 0.99876 0.57863 0.0
O158 O 0.50572 0.93841 0.80759 0.0
O159 O 0.49672 0.97143 0.93534 0.0
H160 H 0.60733 0.04471 0.27651 0.0
H161 H 0.58378 0.95871 0.10473 0.0
H162 H 0.63469 0.93704 0.15549 0.0
H163 H 0.65876 0.0237 0.3237 0.0
H164 H 0.41703 0.94855 0.45092 0.0
H165 H 0.43766 0.04035 0.5825 0.0
H166 H 0.39028 0.06061 0.49306 0.0
H167 H 0.36879 0.96815 0.36669 0.0
Gd168 Gd 0.48993 0.52235 0.83998 0.0
Gd169 Gd 0.50087 0.50281 0.58664 0.0
C170 C 0.49425 0.57464 0.6347 0.0
C171 C 0.49244 0.5497 0.03752 0.0
C172 C 0.50367 0.58026 0.0806 0.0
C173 C 0.48222 0.60383 0.10858 0.0
C174 C 0.5357 0.58637 0.09331 0.0
C175 C 0.52464 0.63962 0.15314 0.0
C176 C 0.54609 0.61576 0.12871 0.0
C177 C 0.49258 0.63317 0.14444 0.0
C178 C 0.43933 0.50095 0.72781 0.0
C179 C 0.49624 0.45057 0.792 0.0
C180 C 0.49953 0.47369 0.39268 0.0
C181 C 0.49069 0.44143 0.35989 0.0
C182 C 0.51396 0.41922 0.33643 0.0
C183 C 0.45928 0.43194 0.35805 0.0
C184 C 0.47487 0.37829 0.32109 0.0
C185 C 0.45146 0.4007 0.33863 0.0
C186 C 0.50614 0.38796 0.31758 0.0
C187 C 0.55133 0.5238 0.7009 0.0
O188 O 0.49864 0.56743 0.74414 0.0
O189 O 0.4899 0.55304 0.55519 0.0
O190 O 0.46765 0.55024 0.97182 0.0
O191 O 0.51361 0.52993 0.00151 0.0
O192 O 0.4441 0.49648 0.83671 0.0
O193 O 0.46035 0.51813 0.68656 0.0
O194 O 0.49213 0.4576 0.68231 0.0
O195 O 0.50065 0.47223 0.87094 0.0
O196 O 0.52483 0.47641 0.45483 0.0
O197 O 0.47706 0.49218 0.42738 0.0
O198 O 0.54661 0.52907 0.59242 0.0
O199 O 0.53018 0.50653 0.74023 0.0
H200 H 0.45738 0.59966 0.10186 0.0
H201 H 0.55278 0.56855 0.07513 0.0
H202 H 0.57093 0.61997 0.13492 0.0
H203 H 0.47544 0.65083 0.16548 0.0
H204 H 0.53832 0.42588 0.33548 0.0
H205 H 0.44075 0.44845 0.37429 0.0
H206 H 0.42715 0.39388 0.3413 0.0
H207 H 0.52458 0.37125 0.30137 0.0
Gd208 Gd 0.95857 0.47011 0.85247 0.0
Gd209 Gd 0.99746 0.49379 0.64653 0.0
C210 C 0.92184 0.49881 0.63643 0.0
C211 C 0.93074 0.46988 0.04823 0.0
C212 C 0.90371 0.48884 0.08205 0.0
C213 C 0.88681 0.48279 0.18263 0.0
C214 C 0.89403 0.51294 0.00893 0.0
C215 C 0.85042 0.52464 0.13415 0.0
C216 C 0.86752 0.53032 0.0337 0.0
C217 C 0.86026 0.5006 0.20859 0.0
C218 C 0.96684 0.42838 0.68402 0.0
C219 C 0.03455 0.46256 0.85554 0.0
C220 C 0.02696 0.50069 0.45578 0.0
C221 C 0.05855 0.4907 0.4219 0.0
C222 C 0.08423 0.49629 0.4942 0.0
C223 C 0.06268 0.47251 0.32288 0.0
C224 C 0.11704 0.46392 0.3732 0.0
C225 C 0.0917 0.45913 0.299 0.0
C226 C 0.11327 0.48319 0.4695 0.0
C227 C 0.98583 0.53567 0.81448 0.0
O228 O 0.92094 0.49216 0.74709 0.0
O229 O 0.94826 0.49862 0.57747 0.0
O230 O 0.92515 0.44895 0.96861 0.0
O231 O 0.95621 0.48597 0.02856 0.0
O232 O 0.9423 0.42863 0.7497 0.0
O233 O 0.9867 0.44782 0.71894 0.0
O234 O 0.0357 0.47165 0.74736 0.0
O235 O 0.00806 0.46095 0.9141 0.0
O236 O 0.02523 0.5227 0.53365 0.0
O237 O 0.00704 0.478 0.47322 0.0
O238 O 0.01186 0.53502 0.75762 0.0
O239 O 0.96744 0.51569 0.77514 0.0
H240 H 0.89394 0.46425 0.24019 0.0
H241 H 0.9068 0.51809 0.9314 0.0
H242 H 0.85998 0.54775 0.97246 0.0
H243 H 0.84743 0.4956 0.28654 0.0
H244 H 0.08171 0.50992 0.57195 0.0
H245 H 0.04318 0.46766 0.2665 0.0
H246 H 0.0942 0.44445 0.22416 0.0
H247 H 0.13247 0.48706 0.52824 0.0
C248 C 0.10721 0.01358 0.41847 0.0
C249 C 0.12724 0.03936 0.43116 0.0
C250 C 0.08924 0.00269 0.5104 0.0
C251 C 0.09082 0.01695 0.61884 0.0
H252 H 0.10528 0.00164 0.33679 0.0
H253 H 0.07404 0.98285 0.49639 0.0
S254 S 0.13882 0.08557 0.69784 0.0
N255 N 0.14708 0.07924 0.5613 0.0
N256 N 0.11332 0.05845 0.73413 0.0
C257 C 0.1106 0.04273 0.63327 0.0
C258 C 0.12875 0.05407 0.53931 0.0
C259 C 0.49112 0.09409 0.53587 0.0
C260 C 0.46776 0.11529 0.56991 0.0
C261 C 0.50562 0.07432 0.61574 0.0
C262 C 0.49786 0.07567 0.73274 0.0
H263 H 0.4981 0.09253 0.44667 0.0
H264 H 0.52335 0.05821 0.58597 0.0
S265 S 0.43775 0.12636 0.86622 0.0
N266 N 0.43687 0.13556 0.7286 0.0
N267 N 0.46492 0.09931 0.87881 0.0
C268 C 0.47455 0.09666 0.76801 0.0
C269 C 0.45927 0.11623 0.68652 0.0
C270 C 0.38545 0.43576 0.6349 0.0
C271 C 0.37594 0.44507 0.52432 0.0
C272 C 0.40549 0.4543 0.70087 0.0
C273 C 0.41702 0.48275 0.65854 0.0
H274 H 0.37748 0.41386 0.67103 0.0
H275 H 0.41247 0.44594 0.78483 0.0
S276 S 0.39868 0.51858 0.37692 0.0
N277 N 0.37918 0.48535 0.37698 0.0
N278 N 0.41692 0.52004 0.50162 0.0
C279 C 0.40761 0.49258 0.54899 0.0
C280 C 0.38705 0.47379 0.48173 0.0
C281 C 0.9429 0.38635 0.41263 0.0
C282 C 0.97155 0.38007 0.35817 0.0
C283 C 0.94169 0.40149 0.51907 0.0
C284 C 0.96904 0.41124 0.57462 0.0
H285 H 0.92111 0.37938 0.37328 0.0
H286 H 0.91909 0.40599 0.55721 0.0
S287 S 0.05001 0.40008 0.47153 0.0
N288 N 0.02811 0.38458 0.36982 0.0
N289 N 0.02559 0.41315 0.56995 0.0
C290 C 0.99785 0.40515 0.52196 0.0
C291 C -0.00083 0.38956 0.41369 0.0
C292 C 0.9243 0.9806 0.07845 0.0
C293 C 0.90584 0.95414 0.05534 0.0
C294 C 0.9411 0.99555 0.9911 0.0
C295 C 0.94008 0.98463 0.87749 0.0
H296 H 0.92579 0.98995 0.16467 0.0
H297 H 0.95497 0.01585 0.01273 0.0
S298 S 0.89526 0.91653 0.77044 0.0
N299 N 0.88756 0.91779 0.90922 0.0
N300 N 0.91911 0.94599 0.74564 0.0
C301 C 0.92166 0.95837 0.85271 0.0
C302 C 0.90466 0.94301 0.94159 0.0
C303 C 0.56431 0.88729 0.03995 0.0
C304 C 0.55747 0.88735 0.1581 0.0
C305 C 0.54699 0.9053 0.9627 0.0
C306 C 0.52264 0.92461 0.00091 0.0
H307 H 0.58283 0.87274 0.00618 0.0
H308 H 0.55304 0.90435 0.87243 0.0
S309 S 0.49601 0.93438 0.30145 0.0
N310 N 0.52475 0.90879 0.30975 0.0
N311 N 0.49281 0.94341 0.16405 0.0
C312 C 0.51586 0.92547 0.11874 0.0
C313 C 0.53311 0.90663 0.1975 0.0
C314 C 0.60352 0.58879 0.80798 0.0
C315 C 0.61315 0.57787 0.91641 0.0
C316 C 0.58415 0.57078 0.73728 0.0
C317 C 0.5735 0.54133 0.77285 0.0
H318 H 0.61063 0.61163 0.77783 0.0
H319 H 0.57681 0.58038 0.65554 0.0
S320 S 0.5933 0.50097 0.04466 0.0
N321 N 0.61173 0.53474 0.05274 0.0
N322 N 0.57493 0.50126 0.92012 0.0
C323 C 0.58334 0.5298 0.8796 0.0
C324 C 0.6033 0.54796 0.95126 0.0
C325 C 0.98397 0.59613 0.05149 0.0
C326 C 0.95399 0.60933 0.03949 0.0
C327 C 0.99461 0.57279 0.97642 0.0
C328 C 0.97548 0.56161 0.88797 0.0
H329 H -0.00064 0.60377 0.1196 0.0
H330 H 0.01761 0.56294 0.98932 0.0
S331 S 0.89632 0.58972 0.81247 0.0
N332 N 0.90611 0.61027 0.92681 0.0
N333 N 0.92622 0.56651 0.78685 0.0
C334 C 0.94582 0.57488 0.87328 0.0
C335 C 0.93502 0.59872 0.94882 0.0
C336 C 0.00236 0.2169 0.26784 0.0
C337 C 0.98864 0.22566 0.1632 0.0
C338 C 0.00086 0.18605 0.30708 0.0
C339 C 0.98592 0.16271 0.24239 0.0
H340 H 0.01416 0.23412 0.32028 0.0
H341 H 0.01186 0.18034 0.38816 0.0
S342 S 0.94706 0.17357 0.96075 0.0
N343 N 0.95984 0.20876 0.99486 0.0
N344 N 0.95749 0.15041 0.06753 0.0
C345 C 0.97236 0.17111 0.13684 0.0
C346 C 0.97345 0.20272 0.09779 0.0
C347 C 0.30021 0.06133 0.38349 0.0
C348 C 0.2892 0.05121 0.27633 0.0
C349 C 0.32825 0.04997 0.42867 0.0
C350 C 0.34669 0.02844 0.36739 0.0
H351 H 0.28672 0.07777 0.43381 0.0
H352 H 0.33518 0.05776 0.51334 0.0
S353 S 0.32915 0.99719 0.07672 0.0
N354 N 0.29888 0.01948 0.10772 0.0
N355 N 0.3527 0.99945 0.18858 0.0
C356 C 0.33618 0.01882 0.25813 0.0
C357 C 0.30714 0.02982 0.2137 0.0
C358 C 0.43614 0.30361 0.21751 0.0
C359 C 0.45056 0.28046 0.28474 0.0
C360 C 0.44395 0.33524 0.23014 0.0
C361 C 0.46671 0.34477 0.30964 0.0
H362 H 0.41845 0.2973 0.15537 0.0
H363 H 0.43245 0.3523 0.17605 0.0
S364 S 0.50976 0.29351 0.5116 0.0
N365 N 0.48746 0.26936 0.43759 0.0
N366 N 0.50241 0.32872 0.46063 0.0
C367 C 0.48089 0.32189 0.37876 0.0
C368 C 0.47265 0.28978 0.36685 0.0
C369 C 0.20367 0.44908 0.33508 0.0
C370 C 0.2052 0.41635 0.3277 0.0
C371 C 0.175 0.46441 0.34848 0.0
C372 C 0.14696 0.4475 0.35443 0.0
H373 H 0.22473 0.46293 0.32899 0.0
H374 H 0.17471 0.48966 0.3535 0.0
S375 S 0.13882 0.36137 0.35349 0.0
N376 N 0.17664 0.36746 0.33902 0.0
N377 N 0.12267 0.39632 0.35963 0.0
C378 C 0.14827 0.41477 0.3494 0.0
C379 C 0.17744 0.39917 0.33746 0.0
C380 C 0.95308 0.80029 0.22152 0.0
C381 C 0.97428 0.77528 0.22618 0.0
C382 C 0.96334 0.83085 0.19935 0.0
C383 C 0.99506 0.8373 0.17945 0.0
H384 H 0.9285 0.79627 0.23686 0.0
H385 H 0.94628 0.84948 0.19612 0.0
S386 S 0.05962 0.77968 0.17854 0.0
N387 N 0.02813 0.75871 0.20505 0.0
N388 N 0.04751 0.81611 0.16601 0.0
C389 C 0.01638 0.81239 0.18294 0.0
C390 C 0.00595 0.78139 0.20552 0.0
C391 C 0.72892 0.93801 0.20807 0.0
C392 C 0.7423 0.9405 0.31757 0.0
C393 C 0.6992 0.95022 0.18571 0.0
C394 C 0.68204 0.9657 0.27181 0.0
H395 H 0.74133 0.92616 0.13975 0.0
H396 H 0.68974 0.9478 0.09993 0.0
S397 S 0.70835 0.9802 0.57086 0.0
N398 N 0.73735 0.96065 0.51135 0.0
N399 N 0.68138 0.98354 0.47038 0.0
C400 C 0.69562 0.9688 0.38133 0.0
C401 C 0.72578 0.95619 0.40398 0.0
C402 C 0.56947 0.70441 0.30488 0.0
C403 C 0.55635 0.73154 0.2575 0.0
C404 C 0.55918 0.6747 0.27057 0.0
C405 C 0.5357 0.67122 0.18686 0.0
H406 H 0.58709 0.70617 0.37117 0.0
H407 H 0.56923 0.65434 0.3115 0.0
S408 S 0.49695 0.73535 0.02702 0.0
N409 N 0.5206 0.7533 0.11724 0.0
N410 N 0.50171 0.69765 0.05082 0.0
C411 C 0.52331 0.69832 0.13614 0.0
C412 C 0.5336 0.72843 0.17173 0.0
C413 C 0.76603 0.54401 0.20256 0.0
C414 C 0.76455 0.57636 0.18292 0.0
C415 C 0.79407 0.52757 0.18968 0.0
C416 C 0.82165 0.54294 0.15696 0.0
H417 H 0.7452 0.53121 0.22599 0.0
H418 H 0.79393 0.50253 0.2026 0.0
S419 S 0.83044 0.62808 0.1056 0.0
N420 N 0.793 0.62347 0.13427 0.0
N421 N 0.84605 0.59291 0.11339 0.0
C422 C 0.82054 0.57551 0.13986 0.0
C423 C 0.79188 0.59212 0.15161 0.0
C424 C 0.05596 0.13337 0.00411 0.0
C425 C 0.0452 0.15967 0.94366 0.0
C426 C 0.04966 0.10307 0.96534 0.0
C427 C 0.03229 0.09776 0.86463 0.0
H428 H 0.06884 0.1361 0.08347 0.0
H429 H 0.05825 0.08364 0.01583 0.0
S430 S -1e-05 0.15861 0.67172 0.0
N431 N 0.01735 0.17837 0.77499 0.0
N432 N 0.00537 0.12143 0.70301 0.0
C433 C 0.02214 0.12381 0.80153 0.0
C434 C 0.02858 0.15472 0.8409 0.0
C435 C 0.37454 0.0611 0.96523 0.0
C436 C 0.37369 0.07643 0.07212 0.0
C437 C 0.40055 0.04368 0.93107 0.0
C438 C 0.42683 0.04073 0.0025 0.0
H439 H 0.35487 0.06238 0.90712 0.0
H440 H 0.4 0.03256 0.84757 0.0
S441 S 0.43697 0.07713 0.2892 0.0
N442 N 0.40181 0.08806 0.24833 0.0
N443 N 0.45066 0.05526 0.18439 0.0
C444 C 0.42636 0.05599 0.1096 0.0
C445 C 0.39988 0.0739 0.14418 0.0
C446 C 0.50309 0.37759 0.97429 0.0
C447 C 0.48636 0.35522 0.91081 0.0
C448 C 0.50655 0.40822 0.93437 0.0
C449 C 0.49378 0.41759 0.82864 0.0
H450 H 0.51298 0.37169 0.05707 0.0
H451 H 0.51917 0.42471 0.98738 0.0
S452 S 0.44827 0.36786 0.62826 0.0
N453 N 0.45721 0.34446 0.73592 0.0
N454 N 0.464 0.40191 0.66021 0.0
C455 C 0.47757 0.39529 0.76286 0.0
C456 C 0.47376 0.36416 0.80416 0.0
C457 C 0.09237 0.41214 0.01781 0.0
C458 C 0.12109 0.42643 0.99182 0.0
C459 C 0.06414 0.42476 0.97805 0.0
C460 C 0.06383 0.4515 0.90808 0.0
H461 H 0.09166 0.39131 0.0705 0.0
H462 H 0.04255 0.41296 0.99915 0.0
S463 S 0.13252 0.49751 0.81447 0.0
N464 N 0.14729 0.46902 0.89293 0.0
N465 N 0.09444 0.49205 0.8155 0.0
C466 C 0.09233 0.46598 0.88165 0.0
C467 C 0.12092 0.4536 0.92411 0.0
C468 C 0.01635 0.86593 0.51363 0.0
C469 C 0.00144 0.84414 0.58542 0.0
C470 C 0.01713 0.89771 0.54202 0.0
C471 C 0.00366 0.90864 0.64448 0.0
H472 H 0.02717 0.85845 0.43417 0.0
H473 H 0.02897 0.91366 0.48449 0.0
S474 S 0.96146 0.86107 0.86103 0.0
N475 N 0.97233 0.83574 0.76195 0.0
N476 N 0.97452 0.89528 0.817 0.0
C477 C 0.98863 0.88708 0.71691 0.0
C478 C 0.98732 0.85486 0.68689 0.0
C479 C 0.64457 0.93539 0.78339 0.0
C480 C 0.64898 0.92425 0.67104 0.0
C481 C 0.61759 0.95167 0.81413 0.0
C482 C 0.59371 0.95761 0.73397 0.0
H483 H 0.66222 0.93179 0.84859 0.0
H484 H 0.61559 0.95959 0.90209 0.0
S485 S 0.59347 0.93299 0.42836 0.0
N486 N 0.62697 0.91998 0.47892 0.0
N487 N 0.57615 0.95062 0.53692 0.0
C488 C 0.59765 0.94643 0.62122 0.0
C489 C 0.62524 0.92973 0.58979 0.0
C490 C 0.48409 0.64921 0.46159 0.0
C491 C 0.49864 0.67188 0.53065 0.0
C492 C 0.48289 0.6178 0.49537 0.0
C493 C 0.49569 0.60796 0.60059 0.0
H494 H 0.47399 0.65566 0.37981 0.0
H495 H 0.47169 0.60117 0.43872 0.0
S496 S 0.53592 0.65829 0.81428 0.0
N497 N 0.52587 0.68234 0.70993 0.0
N498 N 0.52331 0.6236 0.77414 0.0
C499 C 0.50996 0.63051 0.67129 0.0
C500 C 0.5115 0.66238 0.63618 0.0
C501 C 0.83612 0.51541 0.59235 0.0
C502 C 0.83611 0.53841 0.50628 0.0
C503 C 0.86397 0.50203 0.63088 0.0
C504 C 0.89287 0.51062 0.58328 0.0
H505 H 0.81452 0.5082 0.63256 0.0
H506 H 0.86283 0.48508 0.69982 0.0
S507 S 0.90552 0.56829 0.35004 0.0
N508 N 0.86748 0.56851 0.37158 0.0
N509 N 0.91974 0.54256 0.4417 0.0
C510 C 0.89318 0.53273 0.49411 0.0
C511 C 0.86483 0.5469 0.45649 0.0
loop_
_geom_bond_atom_site_label_1
_geom_bond_atom_site_label_2
_geom_bond_distance
_geom_bond_site_symmetry_2
_ccdc_geom_bond_type
O0 Cd1 2.300 . S
O0 C7 1.275 . S
Cd1 O0 2.300 . S
Cd1 O9 2.381 . S
Cd1 O10 2.378 . S
O2 Cd3 2.385 . S
O2 C7 1.255 . S
Cd3 O2 2.385 . S
Cd3 O4 2.317 . S
O4 Cd3 2.317 . S
O4 C5 1.232 . S
C5 O4 1.232 . S
C5 O6 1.218 . S
O6 C5 1.218 . S
C7 O0 1.275 . S
C7 O2 1.255 . S
C8 O9 1.258 . S
C8 O10 1.256 . S
O9 Cd1 2.381 . S
O9 C8 1.258 . S
O10 Cd1 2.378 . S
O10 C8 1.256 . S
O11 Cd12 2.300 1_655 S
O11 C18 1.275 1_655 S
Cd12 O11 2.300 1_455 S
Cd12 O20 2.381 1_455 S
Cd12 O21 2.378 . S
O13 Cd14 2.385 . S
O13 C18 1.255 . S
Cd14 O13 2.385 . S
Cd14 O15 2.317 . S
O15 Cd14 2.317 . S
O15 C16 1.232 . S
C16 O15 1.232 . S
C16 O17 1.218 . S
O17 C16 1.218 . S
C18 O11 1.275 1_455 S
C18 O13 1.255 . S
C19 O20 1.258 1_455 S
C19 O21 1.256 . S
O20 Cd12 2.381 1_655 S
O20 C19 1.258 1_655 S
O21 Cd12 2.378 . S
O21 C19 1.256 . S
O22 Cd23 2.300 1_565 S
O22 C29 1.275 1_565 S
Cd23 O22 2.300 1_545 S
Cd23 O31 2.381 1_545 S
Cd23 O32 2.378 . S
O24 Cd25 2.385 . S
O24 C29 1.255 . S
Cd25 O24 2.385 . S
Cd25 O26 2.317 . S
O26 Cd25 2.317 . S
O26 C27 1.232 . S
C27 O26 1.232 . S
C27 O28 1.218 . S
O28 C27 1.218 . S
C29 O22 1.275 1_545 S
C29 O24 1.255 . S
C30 O31 1.258 1_545 S
C30 O32 1.256 . S
O31 Cd23 2.381 1_565 S
O31 C30 1.258 1_565 S
O32 Cd23 2.378 . S
O32 C30 1.256 . S
O33 Cd34 2.300 . S
O33 C40 1.275 . S
Cd34 O33 2.300 . S
Cd34 O42 2.381 . S
Cd34 O43 2.378 . S
O35 Cd36 2.385 . S
O35 C40 1.255 . S
Cd36 O35 2.385 . S
Cd36 O37 2.317 . S
O37 Cd36 2.317 . S
O37 C38 1.232 . S
C38 O37 1.232 . S
C38 O39 1.218 . S
O39 C38 1.218 . S
C40 O33 1.275 . S
C40 O35 1.255 . S
C41 O42 1.258 . S
C41 O43 1.256 . S
O42 Cd34 2.381 . S
O42 C41 1.258 . S
O43 Cd34 2.378 . S
O43 C41 1.256 . S
O44 Cd45 2.300 . S
O44 C51 1.275 . S
Cd45 O44 2.300 . S
Cd45 O53 2.381 . S
Cd45 O54 2.378 . S
O46 Cd47 2.385 1_554 S
O46 C51 1.255 . S
Cd47 O46 2.385 1_556 S
Cd47 O48 2.317 . S
O48 Cd47 2.317 . S
O48 C49 1.232 . S
C49 O48 1.232 . S
C49 O50 1.218 . S
O50 C49 1.218 . S
C51 O44 1.275 . S
C51 O46 1.255 . S
C52 O53 1.258 . S
C52 O54 1.256 . S
O53 Cd45 2.381 . S
O53 C52 1.258 . S
O54 Cd45 2.378 . S
O54 C52 1.256 . S
O55 Cd56 2.300 1_655 S
O55 C62 1.275 1_655 S
Cd56 O55 2.300 1_455 S
Cd56 O64 2.381 1_455 S
Cd56 O65 2.378 . S
O57 Cd58 2.385 1_554 S
O57 C62 1.255 . S
Cd58 O57 2.385 1_556 S
Cd58 O59 2.317 . S
O59 Cd58 2.317 . S
O59 C60 1.232 . S
C60 O59 1.232 . S
C60 O61 1.218 . S
O61 C60 1.218 . S
C62 O55 1.275 1_455 S
C62 O57 1.255 . S
C63 O64 1.258 1_455 S
C63 O65 1.256 . S
O64 Cd56 2.381 1_655 S
O64 C63 1.258 1_655 S
O65 Cd56 2.378 . S
O65 C63 1.256 . S
O66 Cd67 2.300 1_565 S
O66 C73 1.275 1_565 S
Cd67 O66 2.300 1_545 S
Cd67 O75 2.381 1_545 S
Cd67 O76 2.378 . S
O68 Cd69 2.385 1_554 S
O68 C73 1.255 . S
Cd69 O68 2.385 1_556 S
Cd69 O70 2.317 . S
O70 Cd69 2.317 . S
O70 C71 1.232 . S
C71 O70 1.232 . S
C71 O72 1.218 . S
O72 C71 1.218 . S
C73 O66 1.275 1_545 S
C73 O68 1.255 . S
C74 O75 1.258 1_545 S
C74 O76 1.256 . S
O75 Cd67 2.381 1_565 S
O75 C74 1.258 1_565 S
O76 Cd67 2.378 . S
O76 C74 1.256 . S
O77 Cd78 2.300 . S
O77 C84 1.275 . S
Cd78 O77 2.300 . S
Cd78 O86 2.381 . S
Cd78 O87 2.378 . S
O79 Cd80 2.385 1_554 S
O79 C84 1.255 . S
Cd80 O79 2.385 1_556 S
Cd80 O81 2.317 . S
O81 Cd80 2.317 . S
O81 C82 1.232 . S
C82 O81 1.232 . S
C82 O83 1.218 . S
O83 C82 1.218 . S
C84 O77 1.275 . S
C84 O79 1.255 . S
C85 O86 1.258 . S
C85 O87 1.256 . S
O86 Cd78 2.381 . S
O86 C85 1.258 . S
O87 Cd78 2.378 . S
O87 C85 1.256 . S
Gd88 C91 2.818 1_556 S
Gd88 O108 2.377 . S
Gd88 O110 2.448 . S
Gd88 O111 2.506 1_556 S
Gd88 O112 2.435 . S
Gd88 O113 2.717 1_565 S
Gd88 O115 2.395 1_565 S
Gd88 O119 2.327 1_455 S
Gd89 C100 2.818 . S
Gd89 O109 2.395 1_545 S
Gd89 O113 2.327 1_655 S
Gd89 O114 2.377 . S
Gd89 O116 2.448 . S
Gd89 O117 2.506 . S
Gd89 O118 2.435 . S
Gd89 O119 2.717 1_545 S
C90 O108 1.240 1_655 S
C90 O109 1.240 . S
C91 Gd88 2.818 1_554 S
C91 C92 1.510 . S
C91 O110 1.249 1_554 S
C91 O111 1.252 . S
C92 C91 1.510 . S
C92 C93 1.404 . S
C92 C94 1.352 . S
C93 C92 1.404 . S
C93 C97 1.389 . S
C93 H120 0.930 . S
C94 C92 1.352 . S
C94 C96 1.374 . S
C94 H121 0.931 1_455 S
C95 C96 1.359 . S
C95 C97 1.364 . S
C96 C94 1.374 . S
C96 C95 1.359 . S
C96 H122 0.931 1_455 S
C97 C93 1.389 . S
C97 C95 1.364 . S
C97 H123 0.931 . S
C98 O112 1.256 . S
C98 O113 1.257 1_565 S
C99 O114 1.240 1_455 S
C99 O115 1.240 . S
C100 Gd89 2.818 . S
C100 C101 1.510 . S
C100 O116 1.249 . S
C100 O117 1.252 . S
C101 C100 1.510 . S
C101 C102 1.404 . S
C101 C103 1.352 . S
C102 C101 1.404 . S
C102 C106 1.389 . S
C102 H124 0.930 . S
C103 C101 1.352 . S
C103 C105 1.374 . S
C103 H125 0.931 1_655 S
C104 C105 1.359 . S
C104 C106 1.364 . S
C105 C103 1.374 . S
C105 C104 1.359 . S
C105 H126 0.931 1_655 S
C106 C102 1.389 . S
C106 C104 1.364 . S
C106 H127 0.931 . S
C107 O118 1.256 . S
C107 O119 1.257 1_545 S
O108 Gd88 2.377 . S
O108 C90 1.240 1_455 S
O109 Gd89 2.395 1_565 S
O109 C90 1.240 . S
O110 Gd88 2.448 . S
O110 C91 1.249 1_556 S
O111 Gd88 2.506 1_554 S
O111 C91 1.252 . S
O112 Gd88 2.435 . S
O112 C98 1.256 . S
O113 Gd88 2.717 1_545 S
O113 Gd89 2.327 1_455 S
O113 C98 1.257 1_545 S
O114 Gd89 2.377 . S
O114 C99 1.240 1_655 S
O115 Gd88 2.395 1_545 S
O115 C99 1.240 . S
O116 Gd89 2.448 . S
O116 C100 1.249 . S
O117 Gd89 2.506 . S
O117 C100 1.252 . S
O118 Gd89 2.435 . S
O118 C107 1.256 . S
O119 Gd88 2.327 1_655 S
O119 Gd89 2.717 1_565 S
O119 C107 1.257 1_565 S
H120 C93 0.930 . S
H121 C94 0.931 1_655 S
H122 C96 0.931 1_655 S
H123 C97 0.931 . S
H124 C102 0.930 . S
H125 C103 0.931 1_455 S
H126 C105 0.931 1_455 S
H127 C106 0.931 . S
Gd128 C131 2.818 1_556 S
Gd128 O148 2.377 . S
Gd128 O150 2.448 . S
Gd128 O151 2.506 1_556 S
Gd128 O152 2.435 . S
Gd128 O153 2.717 . S
Gd128 O155 2.395 . S
Gd128 O159 2.327 1_545 S
Gd129 C140 2.818 . S
Gd129 O149 2.395 . S
Gd129 O153 2.327 1_565 S
Gd129 O154 2.377 . S
Gd129 O156 2.448 . S
Gd129 O157 2.506 . S
Gd129 O158 2.435 . S
Gd129 O159 2.717 . S
C130 O148 1.240 1_565 S
C130 O149 1.240 . S
C131 Gd128 2.818 1_554 S
C131 C132 1.510 . S
C131 O150 1.249 1_554 S
C131 O151 1.252 . S
C132 C131 1.510 . S
C132 C133 1.404 . S
C132 C134 1.352 . S
C133 C132 1.404 . S
C133 C137 1.389 . S
C133 H160 0.930 . S
C134 C132 1.352 . S
C134 C136 1.374 . S
C134 H161 0.931 1_545 S
C135 C136 1.359 . S
C135 C137 1.364 . S
C136 C134 1.374 . S
C136 C135 1.359 . S
C136 H162 0.931 1_545 S
C137 C133 1.389 . S
C137 C135 1.364 . S
C137 H163 0.931 . S
C138 O152 1.256 . S
C138 O153 1.257 . S
C139 O154 1.240 1_545 S
C139 O155 1.240 . S
C140 Gd129 2.818 . S
C140 C141 1.510 . S
C140 O156 1.249 . S
C140 O157 1.252 . S
C141 C140 1.510 . S
C141 C142 1.404 . S
C141 C143 1.352 . S
C142 C141 1.404 . S
C142 C146 1.389 . S
C142 H164 0.930 . S
C143 C141 1.352 . S
C143 C145 1.374 . S
C143 H165 0.931 1_565 S
C144 C145 1.359 . S
C144 C146 1.364 . S
C145 C143 1.374 . S
C145 C144 1.359 . S
C145 H166 0.931 1_565 S
C146 C142 1.389 . S
C146 C144 1.364 . S
C146 H167 0.931 . S
C147 O158 1.256 . S
C147 O159 1.257 . S
O148 Gd128 2.377 . S
O148 C130 1.240 1_545 S
O149 Gd129 2.395 . S
O149 C130 1.240 . S
O150 Gd128 2.448 . S
O150 C131 1.249 1_556 S
O151 Gd128 2.506 1_554 S
O151 C131 1.252 . S
O152 Gd128 2.435 . S
O152 C138 1.256 . S
O153 Gd128 2.717 . S
O153 Gd129 2.327 1_545 S
O153 C138 1.257 . S
O154 Gd129 2.377 . S
O154 C139 1.240 1_565 S
O155 Gd128 2.395 . S
O155 C139 1.240 . S
O156 Gd129 2.448 . S
O156 C140 1.249 . S
O157 Gd129 2.506 . S
O157 C140 1.252 . S
O158 Gd129 2.435 . S
O158 C147 1.256 . S
O159 Gd128 2.327 1_565 S
O159 Gd129 2.717 . S
O159 C147 1.257 . S
H160 C133 0.930 . S
H161 C134 0.931 1_565 S
H162 C136 0.931 1_565 S
H163 C137 0.931 . S
H164 C142 0.930 . S
H165 C143 0.931 1_545 S
H166 C145 0.931 1_545 S
H167 C146 0.931 . S
Gd168 C171 2.818 1_556 S
Gd168 O188 2.377 . S
Gd168 O190 2.448 . S
Gd168 O191 2.506 1_556 S
Gd168 O192 2.435 . S
Gd168 O193 2.717 . S
Gd168 O195 2.395 . S
Gd168 O199 2.327 . S
Gd169 C180 2.818 . S
Gd169 O189 2.395 . S
Gd169 O193 2.327 . S
Gd169 O194 2.377 . S
Gd169 O196 2.448 . S
Gd169 O197 2.506 . S
Gd169 O198 2.435 . S
Gd169 O199 2.717 . S
C170 O188 1.240 . S
C170 O189 1.240 . S
C171 Gd168 2.818 1_554 S
C171 C172 1.510 . S
C171 O190 1.249 1_554 S
C171 O191 1.252 . S
C172 C171 1.510 . S
C172 C173 1.404 . S
C172 C174 1.352 . S
C173 C172 1.404 . S
C173 C177 1.389 . S
C173 H200 0.930 . S
C174 C172 1.352 . S
C174 C176 1.374 . S
C174 H201 0.931 . S
C175 C176 1.359 . S
C175 C177 1.364 . S
C176 C174 1.374 . S
C176 C175 1.359 . S
C176 H202 0.931 . S
C177 C173 1.389 . S
C177 C175 1.364 . S
C177 H203 0.931 . S
C178 O192 1.256 . S
C178 O193 1.257 . S
C179 O194 1.240 . S
C179 O195 1.240 . S
C180 Gd169 2.818 . S
C180 C181 1.510 . S
C180 O196 1.249 . S
C180 O197 1.252 . S
C181 C180 1.510 . S
C181 C182 1.404 . S
C181 C183 1.352 . S
C182 C181 1.404 . S
C182 C186 1.389 . S
C182 H204 0.930 . S
C183 C181 1.352 . S
C183 C185 1.374 . S
C183 H205 0.931 . S
C184 C185 1.359 . S
C184 C186 1.364 . S
C185 C183 1.374 . S
C185 C184 1.359 . S
C185 H206 0.931 . S
C186 C182 1.389 . S
C186 C184 1.364 . S
C186 H207 0.931 . S
C187 O198 1.256 . S
C187 O199 1.257 . S
O188 Gd168 2.377 . S
O188 C170 1.240 . S
O189 Gd169 2.395 . S
O189 C170 1.240 . S
O190 Gd168 2.448 . S
O190 C171 1.249 1_556 S
O191 Gd168 2.506 1_554 S
O191 C171 1.252 . S
O192 Gd168 2.435 . S
O192 C178 1.256 . S
O193 Gd168 2.717 . S
O193 Gd169 2.327 . S
O193 C178 1.257 . S
O194 Gd169 2.377 . S
O194 C179 1.240 . S
O195 Gd168 2.395 . S
O195 C179 1.240 . S
O196 Gd169 2.448 . S
O196 C180 1.249 . S
O197 Gd169 2.506 . S
O197 C180 1.252 . S
O198 Gd169 2.435 . S
O198 C187 1.256 . S
O199 Gd168 2.327 . S
O199 Gd169 2.717 . S
O199 C187 1.257 . S
H200 C173 0.930 . S
H201 C174 0.931 . S
H202 C176 0.931 . S
H203 C177 0.931 . S
H204 C182 0.930 . S
H205 C183 0.931 . S
H206 C185 0.931 . S
H207 C186 0.931 . S
Gd208 C211 2.818 1_556 S
Gd208 O228 2.377 . S
Gd208 O230 2.448 . S
Gd208 O231 2.506 1_556 S
Gd208 O232 2.435 . S
Gd208 O233 2.717 1_655 S
Gd208 O235 2.395 1_655 S
Gd208 O239 2.327 . S
Gd209 C220 2.818 . S
Gd209 O229 2.395 1_455 S
Gd209 O233 2.327 . S
Gd209 O234 2.377 . S
Gd209 O236 2.448 . S
Gd209 O237 2.506 . S
Gd209 O238 2.435 . S
Gd209 O239 2.717 1_455 S
C210 O228 1.240 . S
C210 O229 1.240 . S
C211 Gd208 2.818 1_554 S
C211 C212 1.510 . S
C211 O230 1.249 1_554 S
C211 O231 1.252 . S
C212 C211 1.510 . S
C212 C213 1.404 . S
C212 C214 1.352 . S
C213 C212 1.404 . S
C213 C217 1.389 . S
C213 H240 0.930 . S
C214 C212 1.352 . S
C214 C216 1.374 . S
C214 H241 0.931 . S
C215 C216 1.359 . S
C215 C217 1.364 . S
C216 C214 1.374 . S
C216 C215 1.359 . S
C216 H242 0.931 . S
C217 C213 1.389 . S
C217 C215 1.364 . S
C217 H243 0.931 . S
C218 O232 1.256 . S
C218 O233 1.257 1_655 S
C219 O234 1.240 . S
C219 O235 1.240 . S
C220 Gd209 2.818 . S
C220 C221 1.510 . S
C220 O236 1.249 . S
C220 O237 1.252 . S
C221 C220 1.510 . S
C221 C222 1.404 . S
C221 C223 1.352 . S
C222 C221 1.404 . S
C222 C226 1.389 . S
C222 H244 0.930 . S
C223 C221 1.352 . S
C223 C225 1.374 . S
C223 H245 0.931 . S
C224 C225 1.359 . S
C224 C226 1.364 . S
C225 C223 1.374 . S
C225 C224 1.359 . S
C225 H246 0.931 . S
C226 C222 1.389 . S
C226 C224 1.364 . S
C226 H247 0.931 . S
C227 O238 1.256 . S
C227 O239 1.257 1_455 S
O228 Gd208 2.377 . S
O228 C210 1.240 . S
O229 Gd209 2.395 1_655 S
O229 C210 1.240 . S
O230 Gd208 2.448 . S
O230 C211 1.249 1_556 S
O231 Gd208 2.506 1_554 S
O231 C211 1.252 . S
O232 Gd208 2.435 . S
O232 C218 1.256 . S
O233 Gd208 2.717 1_455 S
O233 Gd209 2.327 . S
O233 C218 1.257 1_455 S
O234 Gd209 2.377 . S
O234 C219 1.240 . S
O235 Gd208 2.395 1_455 S
O235 C219 1.240 . S
O236 Gd209 2.448 . S
O236 C220 1.249 . S
O237 Gd209 2.506 . S
O237 C220 1.252 . S
O238 Gd209 2.435 . S
O238 C227 1.256 . S
O239 Gd208 2.327 . S
O239 Gd209 2.717 1_655 S
O239 C227 1.257 1_655 S
H240 C213 0.930 . S
H241 C214 0.931 . S
H242 C216 0.931 . S
H243 C217 0.931 . S
H244 C222 0.930 . S
H245 C223 0.931 . S
H246 C225 0.931 . S
H247 C226 0.931 . S
C248 C249 1.369 1_565 S
C248 C250 1.419 . S
C248 H252 0.930 . S
C249 C248 1.369 1_545 S
C249 C258 1.429 . S
C250 C248 1.419 . S
C250 C251 1.363 1_565 S
C250 H253 0.929 . S
C251 C250 1.363 1_545 S
C251 C257 1.428 . S
H252 C248 0.930 . S
H253 C250 0.929 . S
S254 N255 1.613 . S
S254 N256 1.610 . S
N255 S254 1.613 . S
N255 C258 1.350 . S
N256 S254 1.610 . S
N256 C257 1.351 . S
C257 C251 1.428 . S
C257 N256 1.351 . S
C257 C258 1.434 . S
C258 C249 1.429 . S
C258 N255 1.350 . S
C258 C257 1.434 . S
C259 C260 1.369 . S
C259 C261 1.419 . S
C259 H263 0.930 . S
C260 C259 1.369 . S
C260 C269 1.429 . S
C261 C259 1.419 . S
C261 C262 1.363 . S
C261 H264 0.929 . S
C262 C261 1.363 . S
C262 C268 1.428 . S
H263 C259 0.930 . S
H264 C261 0.929 . S
S265 N266 1.613 . S
S265 N267 1.610 . S
N266 S265 1.613 . S
N266 C269 1.350 . S
N267 S265 1.610 . S
N267 C268 1.351 . S
C268 C262 1.428 . S
C268 N267 1.351 . S
C268 C269 1.434 . S
C269 C260 1.429 . S
C269 N266 1.350 . S
C269 C268 1.434 . S
C270 C271 1.369 . S
C270 C272 1.419 . S
C270 H274 0.930 . S
C271 C270 1.369 . S
C271 C280 1.429 . S
C272 C270 1.419 . S
C272 C273 1.363 . S
C272 H275 0.929 . S
C273 C272 1.363 . S
C273 C279 1.428 . S
H274 C270 0.930 . S
H275 C272 0.929 . S
S276 N277 1.613 . S
S276 N278 1.610 . S
N277 S276 1.613 . S
N277 C280 1.350 . S
N278 S276 1.610 . S
N278 C279 1.351 . S
C279 C273 1.428 . S
C279 N278 1.351 . S
C279 C280 1.434 . S
C280 C271 1.429 . S
C280 N277 1.350 . S
C280 C279 1.434 . S
C281 C282 1.369 1_655 S
C281 C283 1.419 . S
C281 H285 0.930 . S
C282 C281 1.369 1_455 S
C282 C291 1.429 . S
C283 C281 1.419 . S
C283 C284 1.363 1_655 S
C283 H286 0.929 . S
C284 C283 1.363 1_455 S
C284 C290 1.428 . S
H285 C281 0.930 . S
H286 C283 0.929 . S
S287 N288 1.613 . S
S287 N289 1.610 . S
N288 S287 1.613 . S
N288 C291 1.350 . S
N289 S287 1.610 . S
N289 C290 1.351 . S
C290 C284 1.428 . S
C290 N289 1.351 . S
C290 C291 1.434 . S
C291 C282 1.429 . S
C291 N288 1.350 . S
C291 C290 1.434 . S
C292 C293 1.345 1_545 S
C292 C294 1.419 . S
C292 H296 0.930 . S
C293 C292 1.345 1_565 S
C293 C302 1.455 . S
C294 C292 1.419 . S
C294 C295 1.363 1_545 S
C294 H297 0.929 . S
C295 C294 1.363 1_565 S
C295 C301 1.428 . S
H296 C292 0.930 . S
H297 C294 0.929 . S
S298 N299 1.613 . S
S298 N300 1.610 1_554 S
N299 S298 1.613 . S
N299 C302 1.350 . S
N300 S298 1.610 1_556 S
N300 C301 1.351 1_556 S
C301 C295 1.428 . S
C301 N300 1.351 1_554 S
C301 C302 1.434 . S
C302 C293 1.455 . S
C302 N299 1.350 . S
C302 C301 1.434 . S
C303 C304 1.369 . S
C303 C305 1.419 . S
C303 H307 0.930 . S
C304 C303 1.369 . S
C304 C313 1.429 . S
C305 C303 1.419 . S
C305 C306 1.363 . S
C305 H308 0.929 . S
C306 C305 1.363 . S
C306 C312 1.428 . S
H307 C303 0.930 . S
H308 C305 0.929 . S
S309 N310 1.613 . S
S309 N311 1.610 1_554 S
N310 S309 1.613 . S
N310 C313 1.350 . S
N311 S309 1.610 1_556 S
N311 C312 1.351 1_556 S
C312 C306 1.428 . S
C312 N311 1.351 1_554 S
C312 C313 1.434 . S
C313 C304 1.429 . S
C313 N310 1.350 . S
C313 C312 1.434 . S
C314 C315 1.369 . S
C314 C316 1.419 . S
C314 H318 0.930 . S
C315 C314 1.369 . S
C315 C324 1.429 . S
C316 C314 1.419 . S
C316 C317 1.363 . S
C316 H319 0.929 . S
C317 C316 1.363 . S
C317 C323 1.428 . S
H318 C314 0.930 . S
H319 C316 0.929 . S
S320 N321 1.613 . S
S320 N322 1.610 . S
N321 S320 1.613 . S
N321 C324 1.350 . S
N322 S320 1.610 . S
N322 C323 1.351 . S
C323 C317 1.428 . S
C323 N322 1.351 . S
C323 C324 1.434 . S
C324 C315 1.429 . S
C324 N321 1.350 . S
C324 C323 1.434 . S
C325 C326 1.352 1_455 S
C325 C327 1.419 . S
C325 H329 0.930 . S
C326 C325 1.352 1_655 S
C326 C335 1.447 . S
C327 C325 1.419 . S
C327 C328 1.363 1_455 S
C327 H330 0.929 1_554 S
C328 C327 1.363 1_655 S
C328 C334 1.428 . S
H329 C325 0.930 . S
H330 C327 0.929 1_556 S
S331 N332 1.613 . S
S331 N333 1.610 . S
N332 S331 1.613 . S
N332 C335 1.350 . S
N333 S331 1.610 . S
N333 C334 1.351 . S
C334 C328 1.428 . S
C334 N333 1.351 . S
C334 C335 1.434 . S
C335 C326 1.447 . S
C335 N332 1.350 . S
C335 C334 1.434 . S
C336 C337 1.369 1_455 S
C336 C338 1.419 1_455 S
C336 H340 0.930 . S
C337 C336 1.369 1_655 S
C337 C346 1.429 . S
C338 C336 1.419 1_655 S
C338 C339 1.363 . S
C338 H341 0.929 . S
C339 C338 1.363 . S
C339 C345 1.428 . S
H340 C336 0.930 . S
H341 C338 0.929 . S
S342 N343 1.613 . S
S342 N344 1.610 . S
N343 S342 1.613 . S
N343 C346 1.350 . S
N344 S342 1.610 . S
N344 C345 1.351 . S
C345 C339 1.428 . S
C345 N344 1.351 . S
C345 C346 1.434 . S
C346 C337 1.429 . S
C346 N343 1.350 . S
C346 C345 1.434 . S
C347 C348 1.369 1_545 S
C347 C349 1.419 1_545 S
C347 H351 0.930 . S
C348 C347 1.369 1_565 S
C348 C357 1.429 . S
C349 C347 1.419 1_565 S
C349 C350 1.363 . S
C349 H352 0.929 . S
C350 C349 1.363 . S
C350 C356 1.428 . S
H351 C347 0.930 . S
H352 C349 0.929 . S
S353 N354 1.613 . S
S353 N355 1.610 . S
N354 S353 1.613 . S
N354 C357 1.350 . S
N355 S353 1.610 . S
N355 C356 1.351 . S
C356 C350 1.428 . S
C356 N355 1.351 . S
C356 C357 1.434 . S
C357 C348 1.429 . S
C357 N354 1.350 . S
C357 C356 1.434 . S
C358 C359 1.369 . S
C358 C360 1.419 . S
C358 H362 0.930 . S
C359 C358 1.369 . S
C359 C368 1.429 . S
C360 C358 1.419 . S
C360 C361 1.363 . S
C360 H363 0.929 . S
C361 C360 1.363 . S
C361 C367 1.428 . S
H362 C358 0.930 . S
H363 C360 0.929 . S
S364 N365 1.613 . S
S364 N366 1.610 . S
N365 S364 1.613 . S
N365 C368 1.350 . S
N366 S364 1.610 . S
N366 C367 1.351 . S
C367 C361 1.428 . S
C367 N366 1.351 . S
C367 C368 1.434 . S
C368 C359 1.429 . S
C368 N365 1.350 . S
C368 C367 1.434 . S
C369 C370 1.369 . S
C369 C371 1.419 . S
C369 H373 0.930 . S
C370 C369 1.369 . S
C370 C379 1.429 . S
C371 C369 1.419 . S
C371 C372 1.363 . S
C371 H374 0.929 . S
C372 C371 1.363 . S
C372 C378 1.428 . S
H373 C369 0.930 . S
H374 C371 0.929 . S
S375 N376 1.613 . S
S375 N377 1.610 . S
N376 S375 1.613 . S
N376 C379 1.350 . S
N377 S375 1.610 . S
N377 C378 1.351 . S
C378 C372 1.428 . S
C378 N377 1.351 . S
C378 C379 1.434 . S
C379 C370 1.429 . S
C379 N376 1.350 . S
C379 C378 1.434 . S
C380 C381 1.369 . S
C380 C382 1.419 . S
C380 H384 0.930 1_455 S
C381 C380 1.369 . S
C381 C390 1.429 . S
C382 C380 1.419 . S
C382 C383 1.363 . S
C382 H385 0.929 . S
C383 C382 1.363 . S
C383 C389 1.428 . S
H384 C380 0.930 1_655 S
H385 C382 0.929 . S
S386 N387 1.613 . S
S386 N388 1.610 . S
N387 S386 1.613 . S
N387 C390 1.350 . S
N388 S386 1.610 . S
N388 C389 1.351 . S
C389 C383 1.428 . S
C389 N388 1.351 . S
C389 C390 1.434 . S
C390 C381 1.429 . S
C390 N387 1.350 . S
C390 C389 1.434 . S
C391 C392 1.369 1_565 S
C391 C393 1.419 1_565 S
C391 H395 0.930 . S
C392 C391 1.369 1_545 S
C392 C401 1.429 . S
C393 C391 1.419 1_545 S
C393 C394 1.363 . S
C393 H396 0.929 . S
C394 C393 1.363 . S
C394 C400 1.428 . S
H395 C391 0.930 . S
H396 C393 0.929 . S
S397 N398 1.613 . S
S397 N399 1.610 . S
N398 S397 1.613 . S
N398 C401 1.350 . S
N399 S397 1.610 . S
N399 C400 1.351 . S
C400 C394 1.428 . S
C400 N399 1.351 . S
C400 C401 1.434 . S
C401 C392 1.429 . S
C401 N398 1.350 . S
C401 C400 1.434 . S
C402 C403 1.369 . S
C402 C404 1.419 . S
C402 H406 0.930 . S
C403 C402 1.369 . S
C403 C412 1.429 . S
C404 C402 1.419 . S
C404 C405 1.363 . S
C404 H407 0.929 . S
C405 C404 1.363 . S
C405 C411 1.428 . S
H406 C402 0.930 . S
H407 C404 0.929 . S
S408 N409 1.613 . S
S408 N410 1.610 . S
N409 S408 1.613 . S
N409 C412 1.350 . S
N410 S408 1.610 . S
N410 C411 1.351 . S
C411 C405 1.428 . S
C411 N410 1.351 . S
C411 C412 1.434 . S
C412 C403 1.429 . S
C412 N409 1.350 . S
C412 C411 1.434 . S
C413 C414 1.369 . S
C413 C415 1.419 . S
C413 H417 0.930 . S
C414 C413 1.369 . S
C414 C423 1.429 . S
C415 C413 1.419 . S
C415 C416 1.363 . S
C415 H418 0.929 . S
C416 C415 1.363 . S
C416 C422 1.428 . S
H417 C413 0.930 . S
H418 C415 0.929 . S
S419 N420 1.613 . S
S419 N421 1.610 . S
N420 S419 1.613 . S
N420 C423 1.350 . S
N421 S419 1.610 . S
N421 C422 1.351 . S
C422 C416 1.428 . S
C422 N421 1.351 . S
C422 C423 1.434 . S
C423 C414 1.429 . S
C423 N420 1.350 . S
C423 C422 1.434 . S
C424 C425 1.369 . S
C424 C426 1.419 . S
C424 H428 0.930 . S
C425 C424 1.369 . S
C425 C434 1.429 1_455 S
C426 C424 1.419 . S
C426 C427 1.363 . S
C426 H429 0.929 . S
C427 C426 1.363 . S
C427 C433 1.428 1_455 S
H428 C424 0.930 . S
H429 C426 0.929 . S
S430 N431 1.613 . S
S430 N432 1.610 . S
N431 S430 1.613 . S
N431 C434 1.350 . S
N432 S430 1.610 . S
N432 C433 1.351 . S
C433 C427 1.428 1_655 S
C433 N432 1.351 . S
C433 C434 1.434 . S
C434 C425 1.429 1_655 S
C434 N431 1.350 . S
C434 C433 1.434 . S
C435 C436 1.369 1_565 S
C435 C437 1.419 . S
C435 H439 0.930 . S
C436 C435 1.369 1_545 S
C436 C445 1.429 . S
C437 C435 1.419 . S
C437 C438 1.363 1_565 S
C437 H440 0.929 . S
C438 C437 1.363 1_545 S
C438 C444 1.428 . S
H439 C435 0.930 . S
H440 C437 0.929 . S
S441 N442 1.613 . S
S441 N443 1.610 . S
N442 S441 1.613 . S
N442 C445 1.350 . S
N443 S441 1.610 . S
N443 C444 1.351 . S
C444 C438 1.428 . S
C444 N443 1.351 . S
C444 C445 1.434 . S
C445 C436 1.429 . S
C445 N442 1.350 . S
C445 C444 1.434 . S
C446 C447 1.369 . S
C446 C448 1.419 . S
C446 H450 0.930 . S
C447 C446 1.369 . S
C447 C456 1.429 . S
C448 C446 1.419 . S
C448 C449 1.363 . S
C448 H451 0.929 . S
C449 C448 1.363 . S
C449 C455 1.428 . S
H450 C446 0.930 . S
H451 C448 0.929 . S
S452 N453 1.613 . S
S452 N454 1.610 . S
N453 S452 1.613 . S
N453 C456 1.350 . S
N454 S452 1.610 . S
N454 C455 1.351 . S
C455 C449 1.428 . S
C455 N454 1.351 . S
C455 C456 1.434 . S
C456 C447 1.429 . S
C456 N453 1.350 . S
C456 C455 1.434 . S
C457 C458 1.369 . S
C457 C459 1.419 . S
C457 H461 0.930 . S
C458 C457 1.369 . S
C458 C467 1.429 . S
C459 C457 1.419 . S
C459 C460 1.363 . S
C459 H462 0.929 . S
C460 C459 1.363 . S
C460 C466 1.428 . S
H461 C457 0.930 . S
H462 C459 0.929 . S
S463 N464 1.613 . S
S463 N465 1.610 . S
N464 S463 1.613 . S
N464 C467 1.350 . S
N465 S463 1.610 . S
N465 C466 1.351 . S
C466 C460 1.428 . S
C466 N465 1.351 . S
C466 C467 1.434 . S
C467 C458 1.429 . S
C467 N464 1.350 . S
C467 C466 1.434 . S
C468 C469 1.369 . S
C468 C470 1.419 . S
C468 H472 0.930 . S
C469 C468 1.369 . S
C469 C478 1.429 . S
C470 C468 1.419 . S
C470 C471 1.363 . S
C470 H473 0.929 . S
C471 C470 1.363 . S
C471 C477 1.428 . S
H472 C468 0.930 . S
H473 C470 0.929 . S
S474 N475 1.613 1_554 S
S474 N476 1.610 1_554 S
N475 S474 1.613 1_556 S
N475 C478 1.350 . S
N476 S474 1.610 1_556 S
N476 C477 1.351 . S
C477 C471 1.428 . S
C477 N476 1.351 . S
C477 C478 1.434 . S
C478 C469 1.429 . S
C478 N475 1.350 . S
C478 C477 1.434 . S
C479 C480 1.369 1_545 S
C479 C481 1.419 . S
C479 H483 0.930 . S
C480 C479 1.369 1_565 S
C480 C489 1.429 . S
C481 C479 1.419 . S
C481 C482 1.363 1_545 S
C481 H484 0.929 . S
C482 C481 1.363 1_565 S
C482 C488 1.428 . S
H483 C479 0.930 . S
H484 C481 0.929 . S
S485 N486 1.613 . S
S485 N487 1.610 . S
N486 S485 1.613 . S
N486 C489 1.350 . S
N487 S485 1.610 . S
N487 C488 1.351 . S
C488 C482 1.428 . S
C488 N487 1.351 . S
C488 C489 1.434 . S
C489 C480 1.429 . S
C489 N486 1.350 . S
C489 C488 1.434 . S
C490 C491 1.369 . S
C490 C492 1.419 . S
C490 H494 0.930 . S
C491 C490 1.369 . S
C491 C500 1.429 . S
C492 C490 1.419 . S
C492 C493 1.363 . S
C492 H495 0.929 . S
C493 C492 1.363 . S
C493 C499 1.428 . S
H494 C490 0.930 . S
H495 C492 0.929 . S
S496 N497 1.613 1_554 S
S496 N498 1.610 1_554 S
N497 S496 1.613 1_556 S
N497 C500 1.350 . S
N498 S496 1.610 1_556 S
N498 C499 1.351 . S
C499 C493 1.428 . S
C499 N498 1.351 . S
C499 C500 1.434 . S
C500 C491 1.429 . S
C500 N497 1.350 . S
C500 C499 1.434 . S
C501 C502 1.369 . S
C501 C503 1.419 . S
C501 H505 0.930 . S
C502 C501 1.369 . S
C502 C511 1.429 . S
C503 C501 1.419 . S
C503 C504 1.363 . S
C503 H506 0.929 . S
C504 C503 1.363 . S
C504 C510 1.428 . S
H505 C501 0.930 . S
H506 C503 0.929 . S
S507 N508 1.613 . S
S507 N509 1.610 . S
N508 S507 1.613 . S
N508 C511 1.350 . S
N509 S507 1.610 . S
N509 C510 1.351 . S
C510 C504 1.428 . S
C510 N509 1.351 . S
C510 C511 1.434 . S
C511 C502 1.429 . S
C511 N508 1.350 . S
C511 C510 1.434 . S
C249 C74 1.934 . S
C251 C98 2.128 1_545 S
C262 C138 2.132 . S
C260 C85 1.930 . S
C273 C178 2.133 . S
C271 C52 1.943 . S
C284 C218 2.131 1_455 S
C282 C63 1.938 . S
C295 C107 2.131 1_564 S
C293 C30 1.940 1_565 S
C304 C41 1.939 . S
C306 C147 2.134 1_554 S
C315 C8 1.945 . S
C317 C187 2.131 1_554 S
C326 C19 1.945 1_655 S
C328 C227 2.130 1_654 S
C339 C104 0.877 . S
C337 C62 0.905 1_655 S
C350 C144 0.879 . S
C348 C73 0.909 1_565 S
C361 C184 0.872 . S
C359 C84 0.908 . S
C370 C51 0.916 . S
C372 C224 0.856 . S
C381 C18 0.859 . S
C383 C95 0.872 . S
C394 C135 0.875 . S
C392 C29 0.850 . S
C405 C175 0.877 . S
C403 C40 0.842 . S
C414 C7 0.867 . S
C416 C215 0.862 . S
C425 C60 1.894 . S
C427 C99 2.536 . S
C436 C71 1.886 . S
C438 C139 2.536 . S
C449 C179 2.534 . S
C447 C82 1.881 . S
C460 C219 2.539 . S
C458 C49 1.882 . S
C469 C16 2.024 1_655 S
C471 C90 2.544 . S
C482 C130 2.537 . S
C480 C27 2.009 1_565 S
C493 C170 2.533 . S
C491 C38 2.023 . S
C502 C5 2.020 . S
C504 C210 2.544 . S
