# Generated by pormake.
# Topology zzz, (3,6)-cn, num edge types: 1
# Building blocks:
#     Node 0, Type 0, BuildingBlock: OLANEW_clean_sbu_2, # of connection points: 3
#     Node 1, Type 0, BuildingBlock: OLANEW_clean_sbu_2, # of connection points: 3
#     Node 2, Type 0, BuildingBlock: OLANEW_clean_sbu_2, # of connection points: 3
#     Node 3, Type 0, BuildingBlock: OLANEW_clean_sbu_2, # of connection points: 3
#     Node 4, Type 0, BuildingBlock: OLANEW_clean_sbu_2, # of connection points: 3
#     Node 5, Type 0, BuildingBlock: OLANEW_clean_sbu_2, # of connection points: 3
#     Node 6, Type 0, BuildingBlock: OLANEW_clean_sbu_2, # of connection points: 3
#     Node 7, Type 0, BuildingBlock: OLANEW_clean_sbu_2, # of connection points: 3
#     Node 8, Type 1, BuildingBlock: CUKXOW_clean_sbu_0, # of connection points: 6
#     Node 9, Type 1, BuildingBlock: CUKXOW_clean_sbu_0, # of connection points: 6
#     Node 10, Type 1, BuildingBlock: CUKXOW_clean_sbu_0, # of connection points: 6
#     Node 11, Type 1, BuildingBlock: CUKXOW_clean_sbu_0, # of connection points: 6
#     Edge 12, Type (0, 1), BuildingBlock: AJUNOK_clean_linker_0, # of connection points: 2
#     Edge 13, Type (0, 1), BuildingBlock: AJUNOK_clean_linker_0, # of connection points: 2
#     Edge 14, Type (0, 1), BuildingBlock: AJUNOK_clean_linker_0, # of connection points: 2
#     Edge 15, Type (0, 1), BuildingBlock: AJUNOK_clean_linker_0, # of connection points: 2
#     Edge 16, Type (0, 1), BuildingBlock: AJUNOK_clean_linker_0, # of connection points: 2
#     Edge 17, Type (0, 1), BuildingBlock: AJUNOK_clean_linker_0, # of connection points: 2
#     Edge 18, Type (0, 1), BuildingBlock: AJUNOK_clean_linker_0, # of connection points: 2
#     Edge 19, Type (0, 1), BuildingBlock: AJUNOK_clean_linker_0, # of connection points: 2
#     Edge 20, Type (0, 1), BuildingBlock: AJUNOK_clean_linker_0, # of connection points: 2
#     Edge 21, Type (0, 1), BuildingBlock: AJUNOK_clean_linker_0, # of connection points: 2
#     Edge 22, Type (0, 1), BuildingBlock: AJUNOK_clean_linker_0, # of connection points: 2
#     Edge 23, Type (0, 1), BuildingBlock: AJUNOK_clean_linker_0, # of connection points: 2
#     Edge 24, Type (0, 1), BuildingBlock: AJUNOK_clean_linker_0, # of connection points: 2
#     Edge 25, Type (0, 1), BuildingBlock: AJUNOK_clean_linker_0, # of connection points: 2
#     Edge 26, Type (0, 1), BuildingBlock: AJUNOK_clean_linker_0, # of connection points: 2
#     Edge 27, Type (0, 1), BuildingBlock: AJUNOK_clean_linker_0, # of connection points: 2
#     Edge 28, Type (0, 1), BuildingBlock: AJUNOK_clean_linker_0, # of connection points: 2
#     Edge 29, Type (0, 1), BuildingBlock: AJUNOK_clean_linker_0, # of connection points: 2
#     Edge 30, Type (0, 1), BuildingBlock: AJUNOK_clean_linker_0, # of connection points: 2
#     Edge 31, Type (0, 1), BuildingBlock: AJUNOK_clean_linker_0, # of connection points: 2
#     Edge 32, Type (0, 1), BuildingBlock: AJUNOK_clean_linker_0, # of connection points: 2
#     Edge 33, Type (0, 1), BuildingBlock: AJUNOK_clean_linker_0, # of connection points: 2
#     Edge 34, Type (0, 1), BuildingBlock: AJUNOK_clean_linker_0, # of connection points: 2
#     Edge 35, Type (0, 1), BuildingBlock: AJUNOK_clean_linker_0, # of connection points: 2
# Relax obj value: 0.071
# Max RMSD: 0.135
# Mean RMSD: 0.092
data_MOF--net-zzz--node1-OLANEW_clean_sbu_2--node2-CUKXOW_clean_sbu_0--edge1-AJUNOK_clean_linker_0
_symmetry_space_group_name_H-M    P1
_symmetry_Int_Tables_number       1
_symmetry_cell_setting            triclinic
loop_
_symmetry_equiv_pos_as_xyz
'x, y, z'
_cell_length_a     40.391737
_cell_length_b     41.158876
_cell_length_c     13.730219
_cell_angle_alpha  93.222104
_cell_angle_beta   87.07194
_cell_angle_gamma 95.392016
loop_
_atom_site_label
_atom_site_type_symbol
_atom_site_fract_x
_atom_site_fract_y
_atom_site_fract_z
_atom_type_partial_charge
O0 O 0.80424 0.53805 0.0007 0.0
Cd1 Cd 0.75307 0.53919 0.10413 0.0
O2 O 0.80546 0.48482 1e-05 0.0
Cd3 Cd 0.7718 0.48268 0.12935 0.0
O4 O 0.79779 0.48656 0.26617 0.0
C5 C 0.82373 0.50661 0.26305 0.0
O6 O 0.82957 0.52427 0.18631 0.0
C7 C 0.81758 0.51234 0.97039 0.0
C8 C 0.69391 0.52783 0.00581 0.0
O9 O 0.7097 0.55633 0.01185 0.0
O10 O 0.70652 0.50445 0.04437 0.0
O11 O 0.95636 0.8183 0.7058 0.0
Cd12 Cd 0.92622 0.7644 0.69357 0.0
O13 O 0.96407 0.81105 0.85932 0.0
Cd14 Cd 0.97367 0.83004 0.00668 0.0
O15 O 0.97829 0.85925 0.14224 0.0
C16 C 0.96899 0.88793 0.14539 0.0
O17 O 0.95681 0.89838 0.06718 0.0
C18 C 0.96653 0.82962 0.78797 0.0
C19 C 0.96246 0.71145 0.71659 0.0
O20 O 0.95958 0.72254 0.6323 0.0
O21 O 0.94911 0.72629 0.79098 0.0
O22 O 0.69241 0.97059 0.81787 0.0
Cd23 Cd 0.74106 0.94082 0.83223 0.0
O24 O 0.68845 0.97421 0.97753 0.0
Cd25 Cd 0.66602 0.99265 0.11435 0.0
O26 O 0.63386 1.00749 0.23681 0.0
C27 C 0.63548 0.99423 0.31738 0.0
O28 O 0.65724 0.97274 0.32422 0.0
C29 C 0.67738 0.98022 0.89609 0.0
C30 C 0.80063 0.981 0.82252 0.0
O31 O 0.78705 0.96829 0.7453 0.0
O32 O 0.7858 0.97494 0.90518 0.0
O33 O 0.59334 0.71085 0.7735 0.0
Cd34 Cd 0.62699 0.76239 0.75129 0.0
O35 O 0.60687 0.71471 0.92607 0.0
Cd36 Cd 0.60977 0.6959 0.06947 0.0
O37 O 0.59892 0.67044 0.20252 0.0
C38 C 0.59601 0.63942 0.19686 0.0
O39 O 0.60099 0.62417 0.11146 0.0
C40 C 0.59102 0.69928 0.85757 0.0
C41 C 0.58945 0.81472 0.80025 0.0
O42 O 0.589 0.80028 0.71512 0.0
O43 O 0.60813 0.80468 0.8628 0.0
O44 O 0.20203 0.54081 0.5298 0.0
Cd45 Cd 0.25756 0.54793 0.44931 0.0
O46 O 0.19673 0.4905 0.46752 0.0
Cd47 Cd 0.23074 0.5021 0.34317 0.0
O48 O 0.20125 0.51251 0.22075 0.0
C49 C 0.17251 0.49696 0.2252 0.0
O50 O 0.16606 0.47533 0.29192 0.0
C51 C 0.1856 0.51288 0.52396 0.0
C52 C 0.31095 0.54993 0.57174 0.0
O53 O 0.3015 0.57629 0.54137 0.0
O54 O 0.29483 0.52276 0.54598 0.0
O55 O 0.05382 0.21291 0.61638 0.0
Cd56 Cd 0.05926 0.26028 0.51617 0.0
O57 O 0.10424 0.20124 0.5705 0.0
Cd58 Cd 0.10201 0.22722 0.4381 0.0
O59 O 0.08112 0.20109 0.30899 0.0
C60 C 0.06313 0.17472 0.32564 0.0
O61 O 0.0576 0.16655 0.41654 0.0
C62 C 0.07788 0.19549 0.62361 0.0
C63 C 0.03884 0.31679 0.61201 0.0
O64 O 0.01826 0.2966 0.56619 0.0
O65 O 0.06909 0.30985 0.6137 0.0
O66 O 0.31603 0.03541 0.58286 0.0
Cd67 Cd 0.26751 0.04678 0.49683 0.0
O68 O 0.34355 0.08161 0.54142 0.0
Cd69 Cd 0.31361 0.08657 0.41725 0.0
O70 O 0.34566 0.0781 0.28695 0.0
C71 C 0.36577 0.05637 0.29377 0.0
O72 O 0.36321 0.03912 0.37179 0.0
C73 C 0.34152 0.05587 0.58905 0.0
C74 C 0.2079 0.02721 0.59779 0.0
O75 O 0.22315 0.05554 0.61488 0.0
O76 O 0.22111 1.00801 0.53348 0.0
O77 O 0.44199 0.33576 0.54957 0.0
Cd78 Cd 0.42804 0.28572 0.45089 0.0
O79 O 0.39162 0.35113 0.54508 0.0
Cd80 Cd 0.38391 0.3226 0.40829 0.0
O81 O 0.39995 0.35031 0.27988 0.0
C82 C 0.39661 0.38067 0.29389 0.0
O83 O 0.38176 0.39067 0.3759 0.0
C84 C 0.42057 0.35532 0.57845 0.0
C85 C 0.44873 0.23307 0.5427 0.0
O86 O 0.46831 0.24945 0.48329 0.0
O87 O 0.41895 0.24122 0.55716 0.0
Tb88 Tb 0.00264 1.00445 0.66319 0.0
C89 C 0.0722 1.00676 0.75282 0.0
Tb90 Tb 0.01109 0.03308 0.87529 0.0
O91 O 0.03713 0.04375 0.60742 0.0
O92 O 0.00797 0.05126 0.73531 0.0
O93 O 0.051 0.98959 0.69497 0.0
C94 C 0.0221 0.0792 0.01685 0.0
O95 O 0.06229 0.02795 0.82223 0.0
C96 C 0.00284 0.96905 0.85186 0.0
C97 C 0.9391 0.02659 0.78836 0.0
O98 O 0.0057 0.05075 0.02896 0.0
O99 O 0.03205 0.08121 0.92606 0.0
O100 O 0.019 0.98396 0.92394 0.0
O101 O 0.99077 0.99001 0.80536 0.0
O102 O 0.95754 0.03672 0.86417 0.0
O103 O 0.95152 0.01345 0.70516 0.0
C104 C 0.98727 0.96847 0.50253 0.0
O105 O 0.98342 0.99941 0.51676 0.0
O106 O -0.00043 0.95785 0.5791 0.0
C107 C 0.03138 0.06369 0.68154 0.0
Tb108 Tb 0.50819 0.06652 0.79526 0.0
C109 C 0.5468 0.0205 0.65368 0.0
Tb110 Tb 0.50805 0.99422 0.84358 0.0
O111 O 0.56019 0.07797 0.83075 0.0
O112 O 0.53173 0.03954 0.89384 0.0
O113 O 0.52818 0.04545 0.65837 0.0
C114 C 0.52316 0.9332 0.8627 0.0
O115 O 0.54604 1.00005 0.72513 0.0
C116 C 0.45632 0.01025 0.75635 0.0
C117 C 0.46939 0.03994 -0.01112 0.0
O118 O 0.50342 0.94237 0.80025 0.0
O119 O 0.53396 0.95852 0.91693 0.0
O120 O 0.4547 0.98718 0.81763 0.0
O121 O 0.48615 0.02116 0.74168 0.0
O122 O 0.48335 0.01181 0.97814 0.0
O123 O 0.47477 0.06351 0.92572 0.0
C124 C 0.49045 0.12296 0.73701 0.0
O125 O 0.47008 0.09897 0.76723 0.0
O126 O 0.52072 0.11542 0.74222 0.0
C127 C 0.5611 0.0524 0.88132 0.0
Tb128 Tb 0.5138 0.54006 0.68817 0.0
C129 C 0.43768 0.54207 0.74442 0.0
Tb130 Tb 0.48685 0.51309 0.8853 0.0
O131 O 0.48454 0.50108 0.60946 0.0
O132 O 0.50224 0.49345 0.74625 0.0
O133 O 0.4636 0.55539 0.69232 0.0
C134 C 0.45675 0.47279 0.01489 0.0
O135 O 0.44105 0.52279 0.81725 0.0
C136 C 0.51445 0.57346 0.89475 0.0
C137 C 0.56353 0.51691 0.83931 0.0
O138 O 0.47087 0.46392 0.93196 0.0
O139 O 0.45954 0.50452 0.02497 0.0
O140 O 0.51174 0.55495 0.96912 0.0
O141 O 0.49838 0.55916 0.82616 0.0
O142 O 0.53822 0.50213 0.89019 0.0
O143 O 0.55941 0.53472 0.76368 0.0
C144 C 0.54348 0.57058 0.53665 0.0
O145 O 0.54545 0.54019 0.55405 0.0
O146 O 0.525 0.58388 0.60501 0.0
C147 C 0.48383 0.48126 0.67967 0.0
Tb148 Tb 0.98025 0.50807 0.65147 0.0
C149 C 0.00586 0.44711 0.73337 0.0
Tb150 Tb 0.02223 0.51895 0.83263 0.0
O151 O 0.02274 0.49181 0.56333 0.0
O152 O 0.02972 0.52576 0.68178 0.0
O153 O 0.98218 0.45759 0.68317 0.0
C154 C 0.06891 0.51836 0.96346 0.0
O155 O 0.02618 0.46716 0.78755 0.0
C156 C 0.95774 0.51801 0.86323 0.0
C157 C 0.99894 0.58035 0.74324 0.0
O158 O 0.03755 0.50893 0.97735 0.0
O159 O 0.07401 0.52859 0.87568 0.0
O160 O 0.97891 0.53522 0.91788 0.0
O161 O 0.97313 0.50062 0.80162 0.0
O162 O 0.02064 0.56999 0.8013 0.0
O163 O 0.9794 0.5604 0.68684 0.0
C164 C 0.9299 0.50617 0.53237 0.0
O165 O 0.961 0.51401 0.50809 0.0
O166 O 0.92724 0.49916 0.62344 0.0
C167 C 0.04438 0.50811 0.61877 0.0
C168 C 0.16303 0.03819 0.72438 0.0
C169 C 0.17507 0.01794 0.64716 0.0
C170 C 0.13046 0.0327 0.76387 0.0
C171 C 0.10839 1.00694 0.72695 0.0
H172 H 0.17843 0.0593 0.75227 0.0
H173 H 0.12203 0.05012 0.8196 0.0
S174 S 0.12923 0.94381 0.53535 0.0
N175 N 0.16359 0.96873 0.54307 0.0
N176 N 0.1023 0.95853 0.61677 0.0
C177 C 0.12088 0.98504 0.65473 0.0
C178 C 0.1542 0.99053 0.6149 0.0
C179 C 0.43672 0.18346 0.64062 0.0
C180 C 0.46012 0.20561 0.59362 0.0
C181 C 0.44678 0.15706 0.68831 0.0
C182 C 0.48063 0.15207 0.69177 0.0
H183 H 0.41033 0.1862 0.63946 0.0
H184 H 0.42786 0.14026 0.72182 0.0
S185 S 0.55197 0.20338 0.58297 0.0
N186 N 0.51884 0.22096 0.55522 0.0
N187 N 0.53765 0.17156 0.64566 0.0
C188 C 0.50434 0.17421 0.64645 0.0
C189 C 0.49412 0.20092 0.59711 0.0
C190 C 0.36893 0.57256 0.60499 0.0
C191 C 0.34131 0.5505 0.6278 0.0
C192 C 0.39962 0.5706 0.64654 0.0
C193 C 0.40372 0.54691 0.71411 0.0
H194 H 0.36734 0.59043 0.55079 0.0
H195 H 0.42053 0.58721 0.62305 0.0
S196 S 0.33723 0.48653 0.8087 0.0
N197 N 0.31884 0.50622 0.72824 0.0
N198 N 0.37605 0.50318 0.80965 0.0
C199 C 0.37546 0.52626 0.7429 0.0
C200 C 0.34442 0.5278 0.69863 0.0
C201 C 0.0529 0.37197 0.69312 0.0
C202 C 0.02867 0.34829 0.65599 0.0
C203 C 0.04485 0.40341 0.72392 0.0
C204 C 0.01231 0.41241 0.71826 0.0
H205 H 0.07863 0.3667 0.69493 0.0
H206 H 0.06471 0.42125 0.74726 0.0
S207 S 0.93864 0.35829 0.64053 0.0
N208 N 0.9699 0.3351 0.62563 0.0
N209 N 0.95494 0.39424 0.68311 0.0
C210 C 0.98742 0.38846 0.68703 0.0
C211 C 0.99555 0.35639 0.65601 0.0
C212 C 0.85327 1.00416 0.89958 0.0
C213 C 0.83389 0.99964 0.81659 0.0
C214 C 0.88697 0.01611 0.89193 0.0
C215 C 0.90239 0.02397 0.80103 0.0
H216 H 0.84301 0.9965 0.96993 0.0
H217 H 0.90154 0.01677 0.95623 0.0
S218 S 0.86095 0.02322 0.56581 0.0
N219 N 0.83139 1.00888 0.64369 0.0
N220 N 0.89456 0.03132 0.62958 0.0
C221 C 0.8825 0.02253 0.71952 0.0
C222 C 0.84829 0.01034 0.72718 0.0
C223 C 0.58015 0.86702 0.89576 0.0
C224 C 0.56979 0.84292 0.82404 0.0
C225 C 0.56388 0.89566 0.91174 0.0
C226 C 0.53649 0.90092 0.85733 0.0
H227 H 0.60185 0.86442 0.93688 0.0
H228 H 0.57364 0.91431 0.96422 0.0
S229 S 0.49673 0.84324 0.67097 0.0
N230 N 0.52849 0.82482 0.7051 0.0
N231 N 0.49769 0.87826 0.73597 0.0
C232 C 0.52466 0.87611 0.78978 0.0
C233 C 0.54139 0.84721 0.77283 0.0
C234 C 0.65316 0.54524 0.89267 0.0
C235 C 0.66155 0.5226 0.9582 0.0
C236 C 0.62195 0.54227 0.85133 0.0
C237 C 0.59761 0.51679 0.87491 0.0
H238 H 0.6707 0.56574 0.8739 0.0
H239 H 0.61653 0.56088 0.80324 0.0
S240 S 0.60744 0.45044 0.04059 0.0
N241 N 0.64335 0.47317 0.04254 0.0
N242 N 0.58452 0.46778 0.96581 0.0
C243 C 0.60591 0.49354 0.9388 0.0
C244 C 0.63791 0.49637 0.98006 0.0
C245 C 0.98224 0.6599 0.64137 0.0
C246 C 0.97749 0.68033 0.72561 0.0
C247 C 0.99084 0.62803 0.64793 0.0
C248 C 0.99573 0.61554 0.73866 0.0
H249 H 0.97759 0.66788 0.56987 0.0
H250 H 0.99265 0.61266 0.58148 0.0
S251 S 0.99013 0.65986 0.98035 0.0
N252 N 0.98095 0.68648 0.90245 0.0
N253 N 0.9978 0.62645 0.91391 0.0
C254 C 0.99333 0.63621 0.82298 0.0
C255 C 0.98401 0.66865 0.81666 0.0
C256 C 0.04042 0.15542 0.71758 0.0
C257 C 0.07153 0.16356 0.66938 0.0
C258 C 0.0284 0.12271 0.72927 0.0
C259 C 0.04702 0.09729 0.69217 0.0
H260 H 0.02404 0.1742 0.73916 0.0
H261 H 0.00339 0.11733 0.7601 0.0
S262 S 0.13312 0.10524 0.5844 0.0
N263 N 0.12345 0.14322 0.60406 0.0
N264 N 0.10007 0.08194 0.62264 0.0
C265 C 0.07952 0.10502 0.65464 0.0
C266 C 0.0921 0.1382 0.64466 0.0
C267 C 0.36735 0.02575 0.71428 0.0
C268 C 0.37104 0.04717 0.63744 0.0
C269 C 0.39516 0.01417 0.75317 0.0
C270 C 0.42752 0.02318 0.71534 0.0
H271 H 0.34277 0.01761 0.74386 0.0
H272 H 0.39125 0.9978 0.81261 0.0
S273 S 0.45055 0.07706 0.51008 0.0
N274 N 0.40969 0.07658 0.52397 0.0
N275 N 0.4616 0.05355 0.59397 0.0
C276 C 0.43155 0.04438 0.63811 0.0
C277 C 0.40339 0.05677 0.60006 0.0
C278 C 0.46262 0.39008 0.67588 0.0
C279 C 0.43167 0.38655 0.63131 0.0
C280 C 0.47839 0.42114 0.70049 0.0
C281 C 0.46405 0.44945 0.67861 0.0
H282 H 0.47571 0.36882 0.68613 0.0
H283 H 0.50303 0.42296 0.72913 0.0
S284 S 0.38124 0.45391 0.57863 0.0
N285 N 0.38502 0.41445 0.58246 0.0
N286 N 0.41596 0.47243 0.62118 0.0
C287 C 0.43214 0.44632 0.64167 0.0
C288 C 0.41552 0.4149 0.62029 0.0
C289 C 0.13672 0.53473 0.61725 0.0
C290 C 0.15083 0.50842 0.5657 0.0
C291 C 0.10229 0.5339 0.63825 0.0
C292 C 0.08073 0.50696 0.60719 0.0
H293 H 0.1521 0.55682 0.63757 0.0
H294 H 0.09234 0.55517 0.67469 0.0
S295 S 0.10501 0.42953 0.48578 0.0
N296 N 0.14045 0.45261 0.49696 0.0
N297 N 0.07583 0.45183 0.53378 0.0
C298 C 0.09452 0.47966 0.5618 0.0
C299 C 0.12957 0.48016 0.542 0.0
C300 C 0.00266 0.87672 0.86335 0.0
C301 C 0.97655 0.865 0.80274 0.0
C302 C 0.01123 0.91049 0.87968 0.0
C303 C 0.9939 0.93349 0.836 0.0
H304 H 0.01672 0.85973 0.89761 0.0
H305 H 0.03157 0.9186 0.92628 0.0
S306 S 0.92206 0.91519 0.67657 0.0
N307 N 0.93287 0.87903 0.70181 0.0
N308 N 0.94823 0.94197 0.73381 0.0
C309 C 0.9675 0.92192 0.77633 0.0
C310 C 0.95908 0.8878 0.75911 0.0
C311 C 0.62058 0.99363 0.95841 0.0
C312 C 0.64807 0.999 0.89213 0.0
C313 C 0.59272 0.01149 0.95596 0.0
C314 C 0.59134 0.03513 0.88682 0.0
H315 H 0.62026 0.97505 0.01129 0.0
H316 H 0.5721 1.00671 0.00832 0.0
S317 S 0.65625 0.05739 0.69446 0.0
N318 N 0.6718 0.02899 0.75394 0.0
N319 N 0.61955 0.06244 0.74879 0.0
C320 C 0.61859 0.04057 0.81973 0.0
C321 C 0.64682 0.02233 0.82204 0.0
C322 C 0.57356 0.64245 0.79803 0.0
C323 C 0.5719 0.6673 0.872 0.0
C324 C 0.55524 0.61211 0.80693 0.0
C325 C 0.53442 0.60535 0.88967 0.0
H326 H 0.58934 0.64639 0.73274 0.0
H327 H 0.55801 0.59375 0.74899 0.0
S328 S 0.51912 0.66276 0.10105 0.0
N329 N 0.54595 0.68387 0.02851 0.0
N330 N 0.51248 0.62609 0.04641 0.0
C331 C 0.53258 0.62982 0.96465 0.0
C332 C 0.55099 0.66102 0.95533 0.0
C333 C 0.87275 0.5437 0.94285 0.0
C334 C 0.85145 0.51522 0.92295 0.0
C335 C 0.90705 0.5446 0.92084 0.0
C336 C 0.92123 0.51735 0.87626 0.0
H337 H 0.86328 0.56482 0.98151 0.0
H338 H 0.92269 0.56653 0.94119 0.0
S339 S 0.87613 0.43825 0.79838 0.0
N340 N 0.84681 0.46003 0.84868 0.0
N341 N 0.91132 0.46199 0.80575 0.0
C342 C 0.90009 0.4895 0.84992 0.0
C343 C 0.86516 0.48838 0.87359 0.0
C344 C 0.03335 0.12167 0.26674 0.0
C345 C 0.05067 0.15199 0.24495 0.0
C346 C 0.02335 0.09852 0.19262 0.0
C347 C 0.03033 0.10477 0.09393 0.0
H348 H 0.02799 0.11536 0.3418 0.0
H349 H 0.01076 0.0753 0.21295 0.0
S350 S 0.07262 0.18107 -0.0034 0.0
N351 N 0.0726 0.18752 0.11636 0.0
N352 N 0.05387 0.14405 0.97745 0.0
C353 C 0.04662 0.13531 0.07073 0.0
C354 C 0.05677 0.15891 0.1461 0.0
C355 C 0.39395 0.06886 0.13188 0.0
C356 C 0.39278 0.05181 0.21809 0.0
C357 C 0.4193 0.06537 0.05968 0.0
C358 C 0.44452 0.0446 0.07036 0.0
H359 H 0.375 0.08493 0.11945 0.0
H360 H 0.4186 0.07859 -0.00613 0.0
S361 S 0.4545 0.99624 0.2852 0.0
N362 N 0.42029 0.01454 0.3122 0.0
N363 N 0.46775 1.00793 0.17579 0.0
C364 C 0.44407 0.02778 0.15672 0.0
C365 C 0.41828 0.03141 0.23071 0.0
C366 C 0.42223 0.39404 0.12888 0.0
C367 C 0.41095 0.40471 0.22289 0.0
C368 C 0.43677 0.4163 0.06188 0.0
C369 C 0.44066 0.45006 0.08639 0.0
H370 H 0.41987 0.36828 0.10673 0.0
H371 H 0.44511 0.40694 -0.00962 0.0
S372 S 0.41655 0.49074 0.32385 0.0
N373 N 0.40548 0.45157 0.33739 0.0
N374 N 0.43273 0.49313 0.21136 0.0
C375 C 0.42958 0.46113 0.17986 0.0
C376 C 0.41474 0.43853 0.24812 0.0
C377 C 0.15389 0.51696 0.06912 0.0
C378 C 0.14596 0.50386 0.16079 0.0
C379 C 0.12877 0.52223 0.00615 0.0
C380 C 0.09492 0.5149 0.03321 0.0
H381 H 0.17965 0.52246 0.0449 0.0
H382 H 0.13596 0.53158 0.93521 0.0
S383 S 0.06094 0.48342 0.26964 0.0
N384 N 0.10171 0.48592 0.27817 0.0
N385 N 0.05478 0.49594 0.16044 0.0
C386 C 0.08668 0.50289 0.12601 0.0
C387 C 0.11214 0.49733 0.18964 0.0
C388 C 0.98036 0.89562 0.32256 0.0
C389 C 0.97216 0.9091 0.2359 0.0
C390 C 0.98454 0.915 0.40879 0.0
C391 C 0.98074 0.9486 0.41177 0.0
H392 H 0.98377 0.86987 0.32403 0.0
H393 H 0.99111 0.90355 0.47341 0.0
S394 S 0.95925 0.99611 0.2058 0.0
N395 N 0.96018 0.95835 0.15893 0.0
N396 N 0.96804 0.99472 0.32156 0.0
C397 C 0.97211 0.96245 0.3264 0.0
C398 C 0.96783 0.94271 0.23829 0.0
C399 C 0.61713 0.98936 0.49267 0.0
C400 C 0.61273 1.0021 0.40176 0.0
C401 C 0.59567 0.99552 0.57334 0.0
C402 C 0.569 0.01481 0.56668 0.0
H403 H 0.63731 0.97441 0.50198 0.0
H404 H 0.60027 0.98522 0.64176 0.0
S405 S 0.54588 0.05336 0.34485 0.0
N406 N 0.57917 0.03462 0.30942 0.0
N407 N 0.53892 0.04627 0.46157 0.0
C408 C 0.56428 0.02787 0.47648 0.0
C409 C 0.58611 0.0215 0.39393 0.0
C410 C 0.57219 0.63804 0.36805 0.0
C411 C 0.58447 0.6211 0.28388 0.0
C412 C 0.55933 0.62142 0.44975 0.0
C413 C 0.55858 0.58729 0.45092 0.0
H414 H 0.57185 0.66436 0.3705 0.0
H415 H 0.54974 0.63547 0.51231 0.0
S416 S 0.5885 0.53134 0.25097 0.0
N417 N 0.59561 0.5681 0.20774 0.0
N418 N 0.57171 0.53695 0.36218 0.0
C419 C 0.57136 0.56999 0.36839 0.0
C420 C 0.58421 0.58688 0.28458 0.0
C421 C 0.8823 0.5197 0.31066 0.0
C422 C 0.84954 0.50716 0.3361 0.0
C423 C 0.90805 0.5191 0.37464 0.0
C424 C 0.90203 0.50632 0.46713 0.0
H425 H 0.88842 0.52954 0.23975 0.0
H426 H 0.93288 0.52876 0.35122 0.0
S427 S 0.8206 0.47179 0.57167 0.0
N428 N 0.81238 0.48221 0.46157 0.0
N429 N 0.86086 0.48165 0.58287 0.0
C430 C 0.86936 0.49423 0.49469 0.0
C431 C 0.84309 0.49448 0.42888 0.0
loop_
_geom_bond_atom_site_label_1
_geom_bond_atom_site_label_2
_geom_bond_distance
_geom_bond_site_symmetry_2
_ccdc_geom_bond_type
O0 Cd1 2.300 1_556 S
O0 C7 1.275 . S
Cd1 O0 2.300 1_554 S
Cd1 O9 2.381 1_554 S
Cd1 O10 2.378 . S
O2 Cd3 2.385 . S
O2 C7 1.255 1_554 S
Cd3 O2 2.385 . S
Cd3 O4 2.317 . S
O4 Cd3 2.317 . S
O4 C5 1.232 . S
C5 O4 1.232 . S
C5 O6 1.218 . S
O6 C5 1.218 . S
C7 O0 1.275 . S
C7 O2 1.255 1_556 S
C8 O9 1.258 . S
C8 O10 1.256 1_556 S
O9 Cd1 2.381 1_556 S
O9 C8 1.258 . S
O10 Cd1 2.378 . S
O10 C8 1.256 1_554 S
O11 Cd12 2.300 . S
O11 C18 1.275 . S
Cd12 O11 2.300 . S
Cd12 O20 2.381 . S
Cd12 O21 2.378 1_556 S
O13 Cd14 2.385 1_656 S
O13 C18 1.255 . S
Cd14 O13 2.385 1_454 S
Cd14 O15 2.317 1_455 S
O15 Cd14 2.317 1_655 S
O15 C16 1.232 . S
C16 O15 1.232 . S
C16 O17 1.218 . S
O17 C16 1.218 . S
C18 O11 1.275 . S
C18 O13 1.255 . S
C19 O20 1.258 . S
C19 O21 1.254 1_556 S
O20 Cd12 2.381 . S
O20 C19 1.258 . S
O21 Cd12 2.378 1_554 S
O21 C19 1.254 1_554 S
O22 Cd23 2.300 1_556 S
O22 C29 1.275 . S
Cd23 O22 2.300 1_554 S
Cd23 O31 2.381 1_554 S
Cd23 O32 2.378 . S
O24 Cd25 2.385 1_565 S
O24 C29 1.255 1_554 S
Cd25 O24 2.385 1_545 S
Cd25 O26 2.317 1_545 S
O26 Cd25 2.317 1_565 S
O26 C27 1.232 . S
C27 O26 1.232 . S
C27 O28 1.218 . S
O28 C27 1.218 . S
C29 O22 1.275 . S
C29 O24 1.255 1_556 S
C30 O31 1.253 1_554 S
C30 O32 1.262 . S
O31 Cd23 2.381 1_556 S
O31 C30 1.253 1_556 S
O32 Cd23 2.378 . S
O32 C30 1.262 . S
O33 Cd34 2.300 1_556 S
O33 C40 1.275 . S
Cd34 O33 2.300 1_554 S
Cd34 O42 2.381 1_554 S
Cd34 O43 2.378 . S
O35 Cd36 2.385 . S
O35 C40 1.255 1_554 S
Cd36 O35 2.385 . S
Cd36 O37 2.317 . S
O37 Cd36 2.317 . S
O37 C38 1.232 . S
C38 O37 1.232 . S
C38 O39 1.218 . S
O39 C38 1.218 . S
C40 O33 1.275 . S
C40 O35 1.255 1_556 S
C41 O42 1.258 1_554 S
C41 O43 1.256 . S
O42 Cd34 2.381 1_556 S
O42 C41 1.258 1_556 S
O43 Cd34 2.378 . S
O43 C41 1.256 . S
O44 Cd45 2.300 . S
O44 C51 1.275 . S
Cd45 O44 2.300 . S
Cd45 O53 2.381 . S
Cd45 O54 2.378 . S
O46 Cd47 2.385 . S
O46 C51 1.255 . S
Cd47 O46 2.385 . S
Cd47 O48 2.317 . S
O48 Cd47 2.317 . S
O48 C49 1.232 . S
C49 O48 1.232 . S
C49 O50 1.218 . S
O50 C49 1.218 . S
C51 O44 1.275 . S
C51 O46 1.255 . S
C52 O53 1.258 . S
C52 O54 1.256 . S
O53 Cd45 2.381 . S
O53 C52 1.258 . S
O54 Cd45 2.378 . S
O54 C52 1.256 . S
O55 Cd56 2.300 . S
O55 C62 1.275 . S
Cd56 O55 2.300 . S
Cd56 O64 2.381 . S
Cd56 O65 2.378 . S
O57 Cd58 2.385 . S
O57 C62 1.255 . S
Cd58 O57 2.385 . S
Cd58 O59 2.317 . S
O59 Cd58 2.317 . S
O59 C60 1.232 . S
C60 O59 1.232 . S
C60 O61 1.218 . S
O61 C60 1.218 . S
C62 O55 1.275 . S
C62 O57 1.255 . S
C63 O64 1.258 . S
C63 O65 1.256 . S
O64 Cd56 2.381 . S
O64 C63 1.258 . S
O65 Cd56 2.378 . S
O65 C63 1.256 . S
O66 Cd67 2.300 . S
O66 C73 1.275 . S
Cd67 O66 2.300 . S
Cd67 O75 2.381 . S
Cd67 O76 2.378 . S
O68 Cd69 2.385 . S
O68 C73 1.255 . S
Cd69 O68 2.385 . S
Cd69 O70 2.317 . S
O70 Cd69 2.317 . S
O70 C71 1.232 . S
C71 O70 1.232 . S
C71 O72 1.218 . S
O72 C71 1.218 . S
C73 O66 1.275 . S
C73 O68 1.255 . S
C74 O75 1.258 . S
C74 O76 1.256 . S
O75 Cd67 2.381 . S
O75 C74 1.258 . S
O76 Cd67 2.378 . S
O76 C74 1.256 . S
O77 Cd78 2.300 . S
O77 C84 1.275 . S
Cd78 O77 2.300 . S
Cd78 O86 2.381 . S
Cd78 O87 2.378 . S
O79 Cd80 2.385 . S
O79 C84 1.255 . S
Cd80 O79 2.385 . S
Cd80 O81 2.317 . S
O81 Cd80 2.317 . S
O81 C82 1.232 . S
C82 O81 1.232 . S
C82 O83 1.218 . S
O83 C82 1.218 . S
C84 O77 1.275 . S
C84 O79 1.255 . S
C85 O86 1.258 . S
C85 O87 1.256 . S
O86 Cd78 2.381 . S
O86 C85 1.258 . S
O87 Cd78 2.378 . S
O87 C85 1.256 . S
Tb88 O91 2.478 . S
Tb88 O92 2.612 1_655 S
Tb88 O93 2.373 1_655 S
Tb88 O101 2.329 1_645 S
Tb88 O103 2.358 . S
Tb88 O105 2.408 1_545 S
Tb88 O106 2.491 1_645 S
C89 O93 1.251 . S
C89 O95 1.263 . S
Tb90 O92 2.343 . S
Tb90 O95 2.353 . S
Tb90 O98 2.427 . S
Tb90 O99 2.513 . S
Tb90 O100 2.453 1_545 S
Tb90 O101 2.597 1_545 S
Tb90 O102 2.374 1_455 S
O91 Tb88 2.478 . S
O91 C107 1.245 1_655 S
O92 Tb88 2.612 1_455 S
O92 Tb90 2.343 . S
O92 C107 1.259 . S
O93 Tb88 2.373 1_455 S
O93 C89 1.251 . S
C94 O98 1.275 . S
C94 O99 1.246 . S
O95 C89 1.263 . S
O95 Tb90 2.353 . S
C96 O100 1.253 . S
C96 O101 1.258 . S
C97 O102 1.250 . S
C97 O103 1.263 . S
O98 Tb90 2.427 . S
O98 C94 1.275 . S
O99 Tb90 2.513 . S
O99 C94 1.246 . S
O100 Tb90 2.453 1_565 S
O100 C96 1.253 . S
O101 Tb88 2.329 1_465 S
O101 Tb90 2.597 1_565 S
O101 C96 1.258 . S
O102 Tb90 2.374 1_655 S
O102 C97 1.250 . S
O103 Tb88 2.358 . S
O103 C97 1.263 . S
C104 O105 1.275 . S
C104 O106 1.246 1_655 S
O105 Tb88 2.408 1_565 S
O105 C104 1.275 . S
O106 Tb88 2.491 1_465 S
O106 C104 1.246 1_455 S
C107 O91 1.245 1_455 S
C107 O92 1.259 . S
Tb108 O111 2.453 . S
Tb108 O112 2.596 1_545 S
Tb108 O113 2.374 . S
Tb108 O121 2.343 . S
Tb108 O123 2.353 . S
Tb108 O125 2.427 . S
Tb108 O126 2.513 . S
C109 O113 1.252 . S
C109 O115 1.261 1_545 S
Tb110 O112 2.343 . S
Tb110 O115 2.353 . S
Tb110 O118 2.427 . S
Tb110 O119 2.513 . S
Tb110 O120 2.453 . S
Tb110 O121 2.596 1_565 S
Tb110 O122 2.374 . S
O111 Tb108 2.453 . S
O111 C127 1.245 . S
O112 Tb108 2.596 1_565 S
O112 Tb110 2.343 . S
O112 C127 1.259 1_565 S
O113 Tb108 2.374 . S
O113 C109 1.252 . S
C114 O118 1.275 . S
C114 O119 1.246 . S
O115 C109 1.261 1_565 S
O115 Tb110 2.353 . S
C116 O120 1.245 1_545 S
C116 O121 1.259 . S
C117 O122 1.250 1_545 S
C117 O123 1.263 . S
O118 Tb110 2.427 . S
O118 C114 1.275 . S
O119 Tb110 2.513 . S
O119 C114 1.246 . S
O120 Tb110 2.453 . S
O120 C116 1.245 1_565 S
O121 Tb108 2.343 . S
O121 Tb110 2.596 1_545 S
O121 C116 1.259 . S
O122 Tb110 2.374 . S
O122 C117 1.250 1_565 S
O123 Tb108 2.353 . S
O123 C117 1.263 . S
C124 O125 1.275 . S
C124 O126 1.246 . S
O125 Tb108 2.427 . S
O125 C124 1.275 . S
O126 Tb108 2.513 . S
O126 C124 1.246 . S
C127 O111 1.245 . S
C127 O112 1.259 1_545 S
Tb128 O131 2.453 . S
Tb128 O132 2.596 . S
Tb128 O133 2.374 . S
Tb128 O141 2.343 . S
Tb128 O143 2.353 . S
Tb128 O145 2.427 . S
Tb128 O146 2.513 . S
C129 O133 1.251 . S
C129 O135 1.263 . S
Tb130 O132 2.343 . S
Tb130 O135 2.353 . S
Tb130 O138 2.427 . S
Tb130 O139 2.513 . S
Tb130 O140 2.453 . S
Tb130 O141 2.596 . S
Tb130 O142 2.374 . S
O131 Tb128 2.453 . S
O131 C147 1.245 . S
O132 Tb128 2.596 . S
O132 Tb130 2.343 . S
O132 C147 1.259 . S
O133 Tb128 2.374 . S
O133 C129 1.251 . S
C134 O138 1.275 . S
C134 O139 1.246 . S
O135 C129 1.263 . S
O135 Tb130 2.353 . S
C136 O140 1.245 . S
C136 O141 1.259 . S
C137 O142 1.250 . S
C137 O143 1.263 . S
O138 Tb130 2.427 . S
O138 C134 1.275 . S
O139 Tb130 2.513 . S
O139 C134 1.246 . S
O140 Tb130 2.453 . S
O140 C136 1.245 . S
O141 Tb128 2.343 . S
O141 Tb130 2.596 . S
O141 C136 1.259 . S
O142 Tb130 2.374 . S
O142 C137 1.250 . S
O143 Tb128 2.353 . S
O143 C137 1.263 . S
C144 O145 1.275 . S
C144 O146 1.246 . S
O145 Tb128 2.427 . S
O145 C144 1.275 . S
O146 Tb128 2.513 . S
O146 C144 1.246 . S
C147 O131 1.245 . S
C147 O132 1.259 . S
Tb148 O151 2.453 1_655 S
Tb148 O152 2.596 1_655 S
Tb148 O153 2.374 1_655 S
Tb148 O161 2.343 . S
Tb148 O163 2.353 1_655 S
Tb148 O165 2.427 . S
Tb148 O166 2.513 . S
C149 O153 1.251 . S
C149 O155 1.263 . S
Tb150 O152 2.343 . S
Tb150 O155 2.353 . S
Tb150 O158 2.427 . S
Tb150 O159 2.513 . S
Tb150 O160 2.453 1_455 S
Tb150 O161 2.596 1_455 S
Tb150 O162 2.374 . S
O151 Tb148 2.453 1_455 S
O151 C167 1.245 . S
O152 Tb148 2.596 1_455 S
O152 Tb150 2.343 . S
O152 C167 1.259 . S
O153 Tb148 2.374 1_455 S
O153 C149 1.251 . S
C154 O158 1.275 . S
C154 O159 1.246 . S
O155 C149 1.263 . S
O155 Tb150 2.353 . S
C156 O160 1.245 . S
C156 O161 1.259 . S
C157 O162 1.256 . S
C157 O163 1.263 . S
O158 Tb150 2.427 . S
O158 C154 1.275 . S
O159 Tb150 2.513 . S
O159 C154 1.246 . S
O160 Tb150 2.453 1_655 S
O160 C156 1.245 . S
O161 Tb148 2.343 . S
O161 Tb150 2.596 1_655 S
O161 C156 1.259 . S
O162 Tb150 2.374 . S
O162 C157 1.256 . S
O163 Tb148 2.353 1_455 S
O163 C157 1.263 . S
C164 O165 1.275 . S
C164 O166 1.246 . S
O165 Tb148 2.427 . S
O165 C164 1.275 . S
O166 Tb148 2.513 . S
O166 C164 1.246 . S
C167 O151 1.245 . S
C167 O152 1.259 . S
C168 C169 1.369 . S
C168 C170 1.419 . S
C168 H172 0.930 . S
C169 C168 1.369 . S
C169 C178 1.429 . S
C170 C168 1.419 . S
C170 C171 1.363 . S
C170 H173 0.929 . S
C171 C170 1.363 . S
C171 C177 1.428 . S
H172 C168 0.930 . S
H173 C170 0.929 . S
S174 N175 1.613 . S
S174 N176 1.610 . S
N175 S174 1.613 . S
N175 C178 1.350 . S
N176 S174 1.610 . S
N176 C177 1.351 . S
C177 C171 1.428 . S
C177 N176 1.351 . S
C177 C178 1.434 . S
C178 C169 1.429 . S
C178 N175 1.350 . S
C178 C177 1.434 . S
C179 C180 1.369 . S
C179 C181 1.419 . S
C179 H183 0.930 . S
C180 C179 1.369 . S
C180 C189 1.429 . S
C181 C179 1.419 . S
C181 C182 1.363 . S
C181 H184 0.929 . S
C182 C181 1.363 . S
C182 C188 1.428 . S
H183 C179 0.930 . S
H184 C181 0.929 . S
S185 N186 1.613 . S
S185 N187 1.610 . S
N186 S185 1.613 . S
N186 C189 1.350 . S
N187 S185 1.610 . S
N187 C188 1.351 . S
C188 C182 1.428 . S
C188 N187 1.351 . S
C188 C189 1.434 . S
C189 C180 1.429 . S
C189 N186 1.350 . S
C189 C188 1.434 . S
C190 C191 1.369 . S
C190 C192 1.419 . S
C190 H194 0.930 . S
C191 C190 1.369 . S
C191 C200 1.429 . S
C192 C190 1.419 . S
C192 C193 1.363 . S
C192 H195 0.929 . S
C193 C192 1.363 . S
C193 C199 1.428 . S
H194 C190 0.930 . S
H195 C192 0.929 . S
S196 N197 1.613 . S
S196 N198 1.610 . S
N197 S196 1.613 . S
N197 C200 1.350 . S
N198 S196 1.610 . S
N198 C199 1.351 . S
C199 C193 1.428 . S
C199 N198 1.351 . S
C199 C200 1.434 . S
C200 C191 1.429 . S
C200 N197 1.350 . S
C200 C199 1.434 . S
C201 C202 1.369 . S
C201 C203 1.419 . S
C201 H205 0.930 . S
C202 C201 1.369 . S
C202 C211 1.429 . S
C203 C201 1.419 . S
C203 C204 1.363 . S
C203 H206 0.929 . S
C204 C203 1.363 . S
C204 C210 1.428 . S
H205 C201 0.930 . S
H206 C203 0.929 . S
S207 N208 1.613 1_655 S
S207 N209 1.610 . S
N208 S207 1.613 1_455 S
N208 C211 1.350 . S
N209 S207 1.610 . S
N209 C210 1.351 1_655 S
C210 C204 1.428 . S
C210 N209 1.351 1_455 S
C210 C211 1.434 . S
C211 C202 1.429 . S
C211 N208 1.350 . S
C211 C210 1.434 . S
C212 C213 1.369 . S
C212 C214 1.419 . S
C212 H216 0.930 1_556 S
C213 C212 1.369 . S
C213 C222 1.429 . S
C214 C212 1.419 . S
C214 C215 1.363 . S
C214 H217 0.929 . S
C215 C214 1.363 . S
C215 C221 1.428 1_565 S
H216 C212 0.930 1_554 S
H217 C214 0.929 . S
S218 N219 1.613 . S
S218 N220 1.610 . S
N219 S218 1.613 . S
N219 C222 1.350 1_545 S
N220 S218 1.610 . S
N220 C221 1.351 . S
C221 C215 1.428 1_545 S
C221 N220 1.351 . S
C221 C222 1.434 1_545 S
C222 C213 1.429 . S
C222 N219 1.350 1_565 S
C222 C221 1.434 1_565 S
C223 C224 1.369 1_554 S
C223 C225 1.419 1_554 S
C223 H227 0.930 . S
C224 C223 1.369 1_556 S
C224 C233 1.429 . S
C225 C223 1.419 1_556 S
C225 C226 1.363 . S
C225 H228 0.929 1_556 S
C226 C225 1.363 . S
C226 C232 1.428 . S
H227 C223 0.930 . S
H228 C225 0.929 1_554 S
S229 N230 1.613 . S
S229 N231 1.610 . S
N230 S229 1.613 . S
N230 C233 1.350 . S
N231 S229 1.610 . S
N231 C232 1.351 . S
C232 C226 1.428 . S
C232 N231 1.351 . S
C232 C233 1.434 . S
C233 C224 1.429 . S
C233 N230 1.350 . S
C233 C232 1.434 . S
C234 C235 1.369 . S
C234 C236 1.419 . S
C234 H238 0.930 . S
C235 C234 1.369 . S
C235 C244 1.429 1_556 S
C236 C234 1.419 . S
C236 C237 1.363 . S
C236 H239 0.929 . S
C237 C236 1.363 . S
C237 C243 1.428 . S
H238 C234 0.930 . S
H239 C236 0.929 . S
S240 N241 1.613 . S
S240 N242 1.610 . S
N241 S240 1.613 . S
N241 C244 1.350 . S
N242 S240 1.610 . S
N242 C243 1.351 1_554 S
C243 C237 1.428 . S
C243 N242 1.351 1_556 S
C243 C244 1.434 1_556 S
C244 C235 1.429 1_554 S
C244 N241 1.350 . S
C244 C243 1.434 1_554 S
C245 C246 1.369 . S
C245 C247 1.419 . S
C245 H249 0.930 . S
C246 C245 1.369 . S
C246 C255 1.429 . S
C247 C245 1.419 . S
C247 C248 1.363 . S
C247 H250 0.929 . S
C248 C247 1.363 . S
C248 C254 1.428 . S
H249 C245 0.930 . S
H250 C247 0.929 . S
S251 N252 1.613 1_455 S
S251 N253 1.610 . S
N252 S251 1.613 1_655 S
N252 C255 1.350 1_554 S
N253 S251 1.610 . S
N253 C254 1.351 1_454 S
C254 C248 1.428 . S
C254 N253 1.351 1_656 S
C254 C255 1.434 . S
C255 C246 1.429 . S
C255 N252 1.350 1_556 S
C255 C254 1.434 . S
C256 C257 1.369 . S
C256 C258 1.419 . S
C256 H260 0.930 . S
C257 C256 1.369 . S
C257 C266 1.429 . S
C258 C256 1.419 . S
C258 C259 1.363 . S
C258 H261 0.929 1_455 S
C259 C258 1.363 . S
C259 C265 1.428 . S
H260 C256 0.930 . S
H261 C258 0.929 1_655 S
S262 N263 1.613 . S
S262 N264 1.610 . S
N263 S262 1.613 . S
N263 C266 1.350 . S
N264 S262 1.610 . S
N264 C265 1.351 . S
C265 C259 1.428 . S
C265 N264 1.351 . S
C265 C266 1.434 . S
C266 C257 1.429 . S
C266 N263 1.350 . S
C266 C265 1.434 . S
C267 C268 1.369 . S
C267 C269 1.419 . S
C267 H271 0.930 . S
C268 C267 1.369 . S
C268 C277 1.429 . S
C269 C267 1.419 . S
C269 C270 1.363 . S
C269 H272 0.929 1_545 S
C270 C269 1.363 . S
C270 C276 1.428 . S
H271 C267 0.930 . S
H272 C269 0.929 1_565 S
S273 N274 1.613 . S
S273 N275 1.610 . S
N274 S273 1.613 . S
N274 C277 1.350 . S
N275 S273 1.610 . S
N275 C276 1.351 . S
C276 C270 1.428 . S
C276 N275 1.351 . S
C276 C277 1.434 . S
C277 C268 1.429 . S
C277 N274 1.350 . S
C277 C276 1.434 . S
C278 C279 1.369 . S
C278 C280 1.419 . S
C278 H282 0.930 . S
C279 C278 1.369 . S
C279 C288 1.429 . S
C280 C278 1.419 . S
C280 C281 1.363 . S
C280 H283 0.929 . S
C281 C280 1.363 . S
C281 C287 1.428 . S
H282 C278 0.930 . S
H283 C280 0.929 . S
S284 N285 1.613 . S
S284 N286 1.610 . S
N285 S284 1.613 . S
N285 C288 1.350 . S
N286 S284 1.610 . S
N286 C287 1.351 . S
C287 C281 1.428 . S
C287 N286 1.351 . S
C287 C288 1.434 . S
C288 C279 1.429 . S
C288 N285 1.350 . S
C288 C287 1.434 . S
C289 C290 1.369 . S
C289 C291 1.419 . S
C289 H293 0.930 . S
C290 C289 1.369 . S
C290 C299 1.429 . S
C291 C289 1.419 . S
C291 C292 1.363 . S
C291 H294 0.929 . S
C292 C291 1.363 . S
C292 C298 1.428 . S
H293 C289 0.930 . S
H294 C291 0.929 . S
S295 N296 1.613 . S
S295 N297 1.610 . S
N296 S295 1.613 . S
N296 C299 1.350 . S
N297 S295 1.610 . S
N297 C298 1.351 . S
C298 C292 1.428 . S
C298 N297 1.351 . S
C298 C299 1.434 . S
C299 C290 1.429 . S
C299 N296 1.350 . S
C299 C298 1.434 . S
C300 C301 1.369 . S
C300 C302 1.419 . S
C300 H304 0.930 1_556 S
C301 C300 1.369 . S
C301 C310 1.429 . S
C302 C300 1.419 . S
C302 C303 1.363 . S
C302 H305 0.929 1_655 S
C303 C302 1.363 . S
C303 C309 1.428 . S
H304 C300 0.930 1_554 S
H305 C302 0.929 1_455 S
S306 N307 1.613 . S
S306 N308 1.610 . S
N307 S306 1.613 . S
N307 C310 1.350 . S
N308 S306 1.610 . S
N308 C309 1.351 . S
C309 C303 1.428 . S
C309 N308 1.351 . S
C309 C310 1.434 . S
C310 C301 1.429 . S
C310 N307 1.350 . S
C310 C309 1.434 . S
C311 C312 1.369 . S
C311 C313 1.419 . S
C311 H315 0.930 1_556 S
C312 C311 1.369 . S
C312 C321 1.439 . S
C313 C311 1.419 . S
C313 C314 1.363 . S
C313 H316 0.929 . S
C314 C313 1.363 . S
C314 C320 1.428 1_565 S
H315 C311 0.930 1_554 S
H316 C313 0.929 . S
S317 N318 1.613 . S
S317 N319 1.610 . S
N318 S317 1.613 . S
N318 C321 1.343 1_545 S
N319 S317 1.610 . S
N319 C320 1.351 . S
C320 C314 1.428 1_545 S
C320 N319 1.351 . S
C320 C321 1.429 1_545 S
C321 C312 1.439 . S
C321 N318 1.343 1_565 S
C321 C320 1.429 1_565 S
C322 C323 1.369 . S
C322 C324 1.419 . S
C322 H326 0.930 . S
C323 C322 1.369 . S
C323 C332 1.429 . S
C324 C322 1.419 . S
C324 C325 1.363 . S
C324 H327 0.929 . S
C325 C324 1.363 . S
C325 C331 1.428 . S
H326 C322 0.930 . S
H327 C324 0.929 . S
S328 N329 1.613 . S
S328 N330 1.610 1_554 S
N329 S328 1.613 . S
N329 C332 1.350 1_554 S
N330 S328 1.610 1_556 S
N330 C331 1.351 . S
C331 C325 1.428 . S
C331 N330 1.351 . S
C331 C332 1.434 . S
C332 C323 1.429 . S
C332 N329 1.350 1_556 S
C332 C331 1.434 . S
C333 C334 1.369 . S
C333 C335 1.419 . S
C333 H337 0.930 . S
C334 C333 1.369 . S
C334 C343 1.429 . S
C335 C333 1.419 . S
C335 C336 1.363 . S
C335 H338 0.929 . S
C336 C335 1.363 . S
C336 C342 1.428 . S
H337 C333 0.930 . S
H338 C335 0.929 . S
S339 N340 1.613 . S
S339 N341 1.610 . S
N340 S339 1.613 . S
N340 C343 1.350 . S
N341 S339 1.610 . S
N341 C342 1.351 . S
C342 C336 1.428 . S
C342 N341 1.351 . S
C342 C343 1.434 . S
C343 C334 1.429 . S
C343 N340 1.350 . S
C343 C342 1.434 . S
C344 C345 1.369 . S
C344 C346 1.419 . S
C344 H348 0.930 . S
C345 C344 1.369 . S
C345 C354 1.429 . S
C346 C344 1.419 . S
C346 C347 1.363 . S
C346 H349 0.929 . S
C347 C346 1.363 . S
C347 C353 1.428 . S
H348 C344 0.930 . S
H349 C346 0.929 . S
S350 N351 1.613 1_556 S
S350 N352 1.610 . S
N351 S350 1.613 1_554 S
N351 C354 1.350 . S
N352 S350 1.610 . S
N352 C353 1.351 1_556 S
C353 C347 1.428 . S
C353 N352 1.351 1_554 S
C353 C354 1.434 . S
C354 C345 1.429 . S
C354 N351 1.350 . S
C354 C353 1.434 . S
C355 C356 1.369 . S
C355 C357 1.419 . S
C355 H359 0.930 . S
C356 C355 1.369 . S
C356 C365 1.429 . S
C357 C355 1.419 . S
C357 C358 1.363 . S
C357 H360 0.929 1_554 S
C358 C357 1.363 . S
C358 C364 1.428 . S
H359 C355 0.930 . S
H360 C357 0.929 1_556 S
S361 N362 1.613 . S
S361 N363 1.610 . S
N362 S361 1.613 . S
N362 C365 1.350 1_565 S
N363 S361 1.610 . S
N363 C364 1.351 1_565 S
C364 C358 1.428 . S
C364 N363 1.351 1_545 S
C364 C365 1.434 . S
C365 C356 1.429 . S
C365 N362 1.350 1_545 S
C365 C364 1.434 . S
C366 C367 1.369 . S
C366 C368 1.419 1_554 S
C366 H370 0.930 . S
C367 C366 1.369 . S
C367 C376 1.429 . S
C368 C366 1.419 1_556 S
C368 C369 1.363 1_556 S
C368 H371 0.929 . S
C369 C368 1.363 1_554 S
C369 C375 1.428 . S
H370 C366 0.930 . S
H371 C368 0.929 . S
S372 N373 1.613 . S
S372 N374 1.610 . S
N373 S372 1.613 . S
N373 C376 1.350 . S
N374 S372 1.610 . S
N374 C375 1.351 . S
C375 C369 1.428 . S
C375 N374 1.351 . S
C375 C376 1.434 . S
C376 C367 1.429 . S
C376 N373 1.350 . S
C376 C375 1.434 . S
C377 C378 1.369 . S
C377 C379 1.419 . S
C377 H381 0.930 . S
C378 C377 1.369 . S
C378 C387 1.429 . S
C379 C377 1.419 . S
C379 C380 1.363 . S
C379 H382 0.929 1_554 S
C380 C379 1.363 . S
C380 C386 1.428 . S
H381 C377 0.930 . S
H382 C379 0.929 1_556 S
S383 N384 1.613 . S
S383 N385 1.610 . S
N384 S383 1.613 . S
N384 C387 1.350 . S
N385 S383 1.610 . S
N385 C386 1.351 . S
C386 C380 1.428 . S
C386 N385 1.351 . S
C386 C387 1.434 . S
C387 C378 1.429 . S
C387 N384 1.350 . S
C387 C386 1.434 . S
C388 C389 1.369 . S
C388 C390 1.419 . S
C388 H392 0.930 . S
C389 C388 1.369 . S
C389 C398 1.429 . S
C390 C388 1.419 . S
C390 C391 1.363 . S
C390 H393 0.929 . S
C391 C390 1.363 . S
C391 C397 1.428 . S
H392 C388 0.930 . S
H393 C390 0.929 . S
S394 N395 1.613 . S
S394 N396 1.610 . S
N395 S394 1.613 . S
N395 C398 1.350 . S
N396 S394 1.610 . S
N396 C397 1.351 . S
C397 C391 1.428 . S
C397 N396 1.351 . S
C397 C398 1.434 . S
C398 C389 1.429 . S
C398 N395 1.350 . S
C398 C397 1.434 . S
C399 C400 1.369 . S
C399 C401 1.419 . S
C399 H403 0.930 . S
C400 C399 1.369 . S
C400 C409 1.429 . S
C401 C399 1.419 . S
C401 C402 1.363 . S
C401 H404 0.929 . S
C402 C401 1.363 . S
C402 C408 1.428 1_565 S
H403 C399 0.930 . S
H404 C401 0.929 . S
S405 N406 1.613 . S
S405 N407 1.610 . S
N406 S405 1.613 . S
N406 C409 1.350 1_545 S
N407 S405 1.610 . S
N407 C408 1.351 . S
C408 C402 1.428 1_545 S
C408 N407 1.351 . S
C408 C409 1.434 1_545 S
C409 C400 1.429 . S
C409 N406 1.350 1_565 S
C409 C408 1.434 1_565 S
C410 C411 1.369 . S
C410 C412 1.419 . S
C410 H414 0.930 . S
C411 C410 1.369 . S
C411 C420 1.429 . S
C412 C410 1.419 . S
C412 C413 1.363 . S
C412 H415 0.929 . S
C413 C412 1.363 . S
C413 C419 1.428 . S
H414 C410 0.930 . S
H415 C412 0.929 . S
S416 N417 1.613 . S
S416 N418 1.610 . S
N417 S416 1.613 . S
N417 C420 1.350 . S
N418 S416 1.610 . S
N418 C419 1.351 . S
C419 C413 1.428 . S
C419 N418 1.351 . S
C419 C420 1.434 . S
C420 C411 1.429 . S
C420 N417 1.350 . S
C420 C419 1.434 . S
C421 C422 1.369 . S
C421 C423 1.419 . S
C421 H425 0.930 . S
C422 C421 1.369 . S
C422 C431 1.429 . S
C423 C421 1.419 . S
C423 C424 1.363 . S
C423 H426 0.929 . S
C424 C423 1.363 . S
C424 C430 1.428 . S
H425 C421 0.930 . S
H426 C423 0.929 . S
S427 N428 1.613 . S
S427 N429 1.610 . S
N428 S427 1.613 . S
N428 C431 1.350 . S
N429 S427 1.610 . S
N429 C430 1.351 . S
C430 C424 1.428 . S
C430 N429 1.351 . S
C430 C431 1.434 . S
C431 C422 1.429 . S
C431 N428 1.350 . S
C431 C430 1.434 . S
C169 C74 1.588 . S
C171 C89 1.591 . S
C182 C124 1.669 . S
C180 C85 1.639 . S
C193 C129 1.328 . S
C191 C52 1.325 . S
C204 C149 1.585 . S
C202 C63 1.574 . S
C215 C97 1.592 1_565 S
C213 C30 1.530 1_556 S
C224 C41 1.542 1_556 S
C226 C114 1.669 . S
C235 C8 1.304 . S
C237 C137 1.326 . S
C246 C19 1.499 . S
C248 C157 1.578 1_655 S
C259 C107 1.526 . S
C257 C62 1.560 . S
C270 C116 1.250 . S
C268 C73 1.266 . S
C281 C147 1.585 . S
C279 C84 1.611 . S
C290 C51 1.192 . S
C292 C167 1.161 . S
C301 C18 1.452 . S
C303 C96 1.523 1_655 S
C314 C127 1.246 1_565 S
C312 C29 1.194 . S
C325 C136 1.586 . S
C323 C40 1.434 . S
C334 C7 1.163 . S
C336 C156 1.161 . S
C345 C60 1.398 . S
C347 C94 1.509 1_554 S
C356 C71 1.391 . S
C358 C117 1.569 1_554 S
C369 C134 1.626 1_554 S
C367 C82 1.502 . S
C380 C154 1.566 1_554 S
C378 C49 1.348 . S
C389 C16 1.176 . S
C391 C104 1.504 . S
C402 C109 1.569 1_565 S
C400 C27 1.176 . S
C413 C144 1.625 . S
C411 C38 1.177 . S
C422 C5 1.316 . S
C424 C164 1.571 . S
