# Generated by pormake.
# Topology gar, (4,6)-cn, num edge types: 1
# Building blocks:
#     Node 0, Type 0, BuildingBlock: AZAVOO_clean_sbu_0, # of connection points: 4
#     Node 1, Type 0, BuildingBlock: AZAVOO_clean_sbu_0, # of connection points: 4
#     Node 2, Type 0, BuildingBlock: AZAVOO_clean_sbu_0, # of connection points: 4
#     Node 3, Type 0, BuildingBlock: AZAVOO_clean_sbu_0, # of connection points: 4
#     Node 4, Type 0, BuildingBlock: AZAVOO_clean_sbu_0, # of connection points: 4
#     Node 5, Type 0, BuildingBlock: AZAVOO_clean_sbu_0, # of connection points: 4
#     Node 6, Type 0, BuildingBlock: AZAVOO_clean_sbu_0, # of connection points: 4
#     Node 7, Type 0, BuildingBlock: AZAVOO_clean_sbu_0, # of connection points: 4
#     Node 8, Type 0, BuildingBlock: AZAVOO_clean_sbu_0, # of connection points: 4
#     Node 9, Type 0, BuildingBlock: AZAVOO_clean_sbu_0, # of connection points: 4
#     Node 10, Type 0, BuildingBlock: AZAVOO_clean_sbu_0, # of connection points: 4
#     Node 11, Type 0, BuildingBlock: AZAVOO_clean_sbu_0, # of connection points: 4
#     Node 12, Type 0, BuildingBlock: AZAVOO_clean_sbu_0, # of connection points: 4
#     Node 13, Type 0, BuildingBlock: AZAVOO_clean_sbu_0, # of connection points: 4
#     Node 14, Type 0, BuildingBlock: AZAVOO_clean_sbu_0, # of connection points: 4
#     Node 15, Type 0, BuildingBlock: AZAVOO_clean_sbu_0, # of connection points: 4
#     Node 16, Type 0, BuildingBlock: AZAVOO_clean_sbu_0, # of connection points: 4
#     Node 17, Type 0, BuildingBlock: AZAVOO_clean_sbu_0, # of connection points: 4
#     Node 18, Type 0, BuildingBlock: AZAVOO_clean_sbu_0, # of connection points: 4
#     Node 19, Type 0, BuildingBlock: AZAVOO_clean_sbu_0, # of connection points: 4
#     Node 20, Type 0, BuildingBlock: AZAVOO_clean_sbu_0, # of connection points: 4
#     Node 21, Type 0, BuildingBlock: AZAVOO_clean_sbu_0, # of connection points: 4
#     Node 22, Type 0, BuildingBlock: AZAVOO_clean_sbu_0, # of connection points: 4
#     Node 23, Type 0, BuildingBlock: AZAVOO_clean_sbu_0, # of connection points: 4
#     Node 24, Type 1, BuildingBlock: CUWYAW_clean_sbu_0, # of connection points: 6
#     Node 25, Type 1, BuildingBlock: CUWYAW_clean_sbu_0, # of connection points: 6
#     Node 26, Type 1, BuildingBlock: CUWYAW_clean_sbu_0, # of connection points: 6
#     Node 27, Type 1, BuildingBlock: CUWYAW_clean_sbu_0, # of connection points: 6
#     Node 28, Type 1, BuildingBlock: CUWYAW_clean_sbu_0, # of connection points: 6
#     Node 29, Type 1, BuildingBlock: CUWYAW_clean_sbu_0, # of connection points: 6
#     Node 30, Type 1, BuildingBlock: CUWYAW_clean_sbu_0, # of connection points: 6
#     Node 31, Type 1, BuildingBlock: CUWYAW_clean_sbu_0, # of connection points: 6
#     Node 32, Type 1, BuildingBlock: CUWYAW_clean_sbu_0, # of connection points: 6
#     Node 33, Type 1, BuildingBlock: CUWYAW_clean_sbu_0, # of connection points: 6
#     Node 34, Type 1, BuildingBlock: CUWYAW_clean_sbu_0, # of connection points: 6
#     Node 35, Type 1, BuildingBlock: CUWYAW_clean_sbu_0, # of connection points: 6
#     Node 36, Type 1, BuildingBlock: CUWYAW_clean_sbu_0, # of connection points: 6
#     Node 37, Type 1, BuildingBlock: CUWYAW_clean_sbu_0, # of connection points: 6
#     Node 38, Type 1, BuildingBlock: CUWYAW_clean_sbu_0, # of connection points: 6
#     Node 39, Type 1, BuildingBlock: CUWYAW_clean_sbu_0, # of connection points: 6
#     Edge 40, Type (0, 1), BuildingBlock: XUDNAN_clean_linker_2, # of connection points: 2
#     Edge 41, Type (0, 1), BuildingBlock: XUDNAN_clean_linker_2, # of connection points: 2
#     Edge 42, Type (0, 1), BuildingBlock: XUDNAN_clean_linker_2, # of connection points: 2
#     Edge 43, Type (0, 1), BuildingBlock: XUDNAN_clean_linker_2, # of connection points: 2
#     Edge 44, Type (0, 1), BuildingBlock: XUDNAN_clean_linker_2, # of connection points: 2
#     Edge 45, Type (0, 1), BuildingBlock: XUDNAN_clean_linker_2, # of connection points: 2
#     Edge 46, Type (0, 1), BuildingBlock: XUDNAN_clean_linker_2, # of connection points: 2
#     Edge 47, Type (0, 1), BuildingBlock: XUDNAN_clean_linker_2, # of connection points: 2
#     Edge 48, Type (0, 1), BuildingBlock: XUDNAN_clean_linker_2, # of connection points: 2
#     Edge 49, Type (0, 1), BuildingBlock: XUDNAN_clean_linker_2, # of connection points: 2
#     Edge 50, Type (0, 1), BuildingBlock: XUDNAN_clean_linker_2, # of connection points: 2
#     Edge 51, Type (0, 1), BuildingBlock: XUDNAN_clean_linker_2, # of connection points: 2
#     Edge 52, Type (0, 1), BuildingBlock: XUDNAN_clean_linker_2, # of connection points: 2
#     Edge 53, Type (0, 1), BuildingBlock: XUDNAN_clean_linker_2, # of connection points: 2
#     Edge 54, Type (0, 1), BuildingBlock: XUDNAN_clean_linker_2, # of connection points: 2
#     Edge 55, Type (0, 1), BuildingBlock: XUDNAN_clean_linker_2, # of connection points: 2
#     Edge 56, Type (0, 1), BuildingBlock: XUDNAN_clean_linker_2, # of connection points: 2
#     Edge 57, Type (0, 1), BuildingBlock: XUDNAN_clean_linker_2, # of connection points: 2
#     Edge 58, Type (0, 1), BuildingBlock: XUDNAN_clean_linker_2, # of connection points: 2
#     Edge 59, Type (0, 1), BuildingBlock: XUDNAN_clean_linker_2, # of connection points: 2
#     Edge 60, Type (0, 1), BuildingBlock: XUDNAN_clean_linker_2, # of connection points: 2
#     Edge 61, Type (0, 1), BuildingBlock: XUDNAN_clean_linker_2, # of connection points: 2
#     Edge 62, Type (0, 1), BuildingBlock: XUDNAN_clean_linker_2, # of connection points: 2
#     Edge 63, Type (0, 1), BuildingBlock: XUDNAN_clean_linker_2, # of connection points: 2
#     Edge 64, Type (0, 1), BuildingBlock: XUDNAN_clean_linker_2, # of connection points: 2
#     Edge 65, Type (0, 1), BuildingBlock: XUDNAN_clean_linker_2, # of connection points: 2
#     Edge 66, Type (0, 1), BuildingBlock: XUDNAN_clean_linker_2, # of connection points: 2
#     Edge 67, Type (0, 1), BuildingBlock: XUDNAN_clean_linker_2, # of connection points: 2
#     Edge 68, Type (0, 1), BuildingBlock: XUDNAN_clean_linker_2, # of connection points: 2
#     Edge 69, Type (0, 1), BuildingBlock: XUDNAN_clean_linker_2, # of connection points: 2
#     Edge 70, Type (0, 1), BuildingBlock: XUDNAN_clean_linker_2, # of connection points: 2
#     Edge 71, Type (0, 1), BuildingBlock: XUDNAN_clean_linker_2, # of connection points: 2
#     Edge 72, Type (0, 1), BuildingBlock: XUDNAN_clean_linker_2, # of connection points: 2
#     Edge 73, Type (0, 1), BuildingBlock: XUDNAN_clean_linker_2, # of connection points: 2
#     Edge 74, Type (0, 1), BuildingBlock: XUDNAN_clean_linker_2, # of connection points: 2
#     Edge 75, Type (0, 1), BuildingBlock: XUDNAN_clean_linker_2, # of connection points: 2
#     Edge 76, Type (0, 1), BuildingBlock: XUDNAN_clean_linker_2, # of connection points: 2
#     Edge 77, Type (0, 1), BuildingBlock: XUDNAN_clean_linker_2, # of connection points: 2
#     Edge 78, Type (0, 1), BuildingBlock: XUDNAN_clean_linker_2, # of connection points: 2
#     Edge 79, Type (0, 1), BuildingBlock: XUDNAN_clean_linker_2, # of connection points: 2
#     Edge 80, Type (0, 1), BuildingBlock: XUDNAN_clean_linker_2, # of connection points: 2
#     Edge 81, Type (0, 1), BuildingBlock: XUDNAN_clean_linker_2, # of connection points: 2
#     Edge 82, Type (0, 1), BuildingBlock: XUDNAN_clean_linker_2, # of connection points: 2
#     Edge 83, Type (0, 1), BuildingBlock: XUDNAN_clean_linker_2, # of connection points: 2
#     Edge 84, Type (0, 1), BuildingBlock: XUDNAN_clean_linker_2, # of connection points: 2
#     Edge 85, Type (0, 1), BuildingBlock: XUDNAN_clean_linker_2, # of connection points: 2
#     Edge 86, Type (0, 1), BuildingBlock: XUDNAN_clean_linker_2, # of connection points: 2
#     Edge 87, Type (0, 1), BuildingBlock: XUDNAN_clean_linker_2, # of connection points: 2
#     Edge 88, Type (0, 1), BuildingBlock: XUDNAN_clean_linker_2, # of connection points: 2
#     Edge 89, Type (0, 1), BuildingBlock: XUDNAN_clean_linker_2, # of connection points: 2
#     Edge 90, Type (0, 1), BuildingBlock: XUDNAN_clean_linker_2, # of connection points: 2
#     Edge 91, Type (0, 1), BuildingBlock: XUDNAN_clean_linker_2, # of connection points: 2
#     Edge 92, Type (0, 1), BuildingBlock: XUDNAN_clean_linker_2, # of connection points: 2
#     Edge 93, Type (0, 1), BuildingBlock: XUDNAN_clean_linker_2, # of connection points: 2
#     Edge 94, Type (0, 1), BuildingBlock: XUDNAN_clean_linker_2, # of connection points: 2
#     Edge 95, Type (0, 1), BuildingBlock: XUDNAN_clean_linker_2, # of connection points: 2
#     Edge 96, Type (0, 1), BuildingBlock: XUDNAN_clean_linker_2, # of connection points: 2
#     Edge 97, Type (0, 1), BuildingBlock: XUDNAN_clean_linker_2, # of connection points: 2
#     Edge 98, Type (0, 1), BuildingBlock: XUDNAN_clean_linker_2, # of connection points: 2
#     Edge 99, Type (0, 1), BuildingBlock: XUDNAN_clean_linker_2, # of connection points: 2
#     Edge 100, Type (0, 1), BuildingBlock: XUDNAN_clean_linker_2, # of connection points: 2
#     Edge 101, Type (0, 1), BuildingBlock: XUDNAN_clean_linker_2, # of connection points: 2
#     Edge 102, Type (0, 1), BuildingBlock: XUDNAN_clean_linker_2, # of connection points: 2
#     Edge 103, Type (0, 1), BuildingBlock: XUDNAN_clean_linker_2, # of connection points: 2
#     Edge 104, Type (0, 1), BuildingBlock: XUDNAN_clean_linker_2, # of connection points: 2
#     Edge 105, Type (0, 1), BuildingBlock: XUDNAN_clean_linker_2, # of connection points: 2
#     Edge 106, Type (0, 1), BuildingBlock: XUDNAN_clean_linker_2, # of connection points: 2
#     Edge 107, Type (0, 1), BuildingBlock: XUDNAN_clean_linker_2, # of connection points: 2
#     Edge 108, Type (0, 1), BuildingBlock: XUDNAN_clean_linker_2, # of connection points: 2
#     Edge 109, Type (0, 1), BuildingBlock: XUDNAN_clean_linker_2, # of connection points: 2
#     Edge 110, Type (0, 1), BuildingBlock: XUDNAN_clean_linker_2, # of connection points: 2
#     Edge 111, Type (0, 1), BuildingBlock: XUDNAN_clean_linker_2, # of connection points: 2
#     Edge 112, Type (0, 1), BuildingBlock: XUDNAN_clean_linker_2, # of connection points: 2
#     Edge 113, Type (0, 1), BuildingBlock: XUDNAN_clean_linker_2, # of connection points: 2
#     Edge 114, Type (0, 1), BuildingBlock: XUDNAN_clean_linker_2, # of connection points: 2
#     Edge 115, Type (0, 1), BuildingBlock: XUDNAN_clean_linker_2, # of connection points: 2
#     Edge 116, Type (0, 1), BuildingBlock: XUDNAN_clean_linker_2, # of connection points: 2
#     Edge 117, Type (0, 1), BuildingBlock: XUDNAN_clean_linker_2, # of connection points: 2
#     Edge 118, Type (0, 1), BuildingBlock: XUDNAN_clean_linker_2, # of connection points: 2
#     Edge 119, Type (0, 1), BuildingBlock: XUDNAN_clean_linker_2, # of connection points: 2
#     Edge 120, Type (0, 1), BuildingBlock: XUDNAN_clean_linker_2, # of connection points: 2
#     Edge 121, Type (0, 1), BuildingBlock: XUDNAN_clean_linker_2, # of connection points: 2
#     Edge 122, Type (0, 1), BuildingBlock: XUDNAN_clean_linker_2, # of connection points: 2
#     Edge 123, Type (0, 1), BuildingBlock: XUDNAN_clean_linker_2, # of connection points: 2
#     Edge 124, Type (0, 1), BuildingBlock: XUDNAN_clean_linker_2, # of connection points: 2
#     Edge 125, Type (0, 1), BuildingBlock: XUDNAN_clean_linker_2, # of connection points: 2
#     Edge 126, Type (0, 1), BuildingBlock: XUDNAN_clean_linker_2, # of connection points: 2
#     Edge 127, Type (0, 1), BuildingBlock: XUDNAN_clean_linker_2, # of connection points: 2
#     Edge 128, Type (0, 1), BuildingBlock: XUDNAN_clean_linker_2, # of connection points: 2
#     Edge 129, Type (0, 1), BuildingBlock: XUDNAN_clean_linker_2, # of connection points: 2
#     Edge 130, Type (0, 1), BuildingBlock: XUDNAN_clean_linker_2, # of connection points: 2
#     Edge 131, Type (0, 1), BuildingBlock: XUDNAN_clean_linker_2, # of connection points: 2
#     Edge 132, Type (0, 1), BuildingBlock: XUDNAN_clean_linker_2, # of connection points: 2
#     Edge 133, Type (0, 1), BuildingBlock: XUDNAN_clean_linker_2, # of connection points: 2
#     Edge 134, Type (0, 1), BuildingBlock: XUDNAN_clean_linker_2, # of connection points: 2
#     Edge 135, Type (0, 1), BuildingBlock: XUDNAN_clean_linker_2, # of connection points: 2
# Relax obj value: 0.235
# Max RMSD: 0.308
# Mean RMSD: 0.182
data_MOF--net-gar--node1-AZAVOO_clean_sbu_0--node2-CUWYAW_clean_sbu_0--edge1-XUDNAN_clean_linker_2
_symmetry_space_group_name_H-M    P1
_symmetry_Int_Tables_number       1
_symmetry_cell_setting            triclinic
loop_
_symmetry_equiv_pos_as_xyz
'x, y, z'
_cell_length_a     65.189851
_cell_length_b     54.162019
_cell_length_c     55.3007
_cell_angle_alpha  100.71895
_cell_angle_beta   96.201999
_cell_angle_gamma 99.796889
loop_
_atom_site_label
_atom_site_type_symbol
_atom_site_fract_x
_atom_site_fract_y
_atom_site_fract_z
_atom_type_partial_charge
Mg0 Mg 0.07967 0.30272 0.46075 0.0
O1 O 0.09303 0.344 0.48456 0.0
O2 O 0.06981 0.3672 0.47533 0.0
Mg3 Mg 0.04044 0.34343 0.48488 0.0
C4 C 0.08844 0.36581 0.4837 0.0
C5 C 0.11786 0.32767 0.44162 0.0
O6 O 0.10555 0.34444 0.44193 0.0
O7 O 0.08601 0.32502 0.50093 0.0
O8 O 0.05759 0.33064 0.51729 0.0
O9 O 0.06454 0.31657 0.42865 0.0
O10 O 0.04661 0.30973 0.45852 0.0
C11 C 0.07402 0.32091 0.51706 0.0
C12 C 0.04702 0.31457 0.43692 0.0
O13 O 0.1124 0.30748 0.45 0.0
Mg14 Mg 0.02376 0.74572 0.64338 0.0
O15 O 0.9893 0.7226 0.62738 0.0
O16 O 0.95972 0.69773 0.60971 0.0
Mg17 Mg 0.95373 0.73526 0.6327 0.0
C18 C 0.97946 0.70066 0.61478 0.0
C19 C 0.043 0.69847 0.65432 0.0
O20 O 0.04241 0.67459 0.65635 0.0
O21 O 0.99145 0.74889 0.62683 0.0
O22 O 0.96692 0.76406 0.60885 0.0
O23 O 1.01567 0.75205 0.68282 0.0
O24 O 0.98885 0.7415 0.65444 0.0
C25 C 0.98639 0.76511 0.61453 0.0
C26 C 0.9959 0.74616 0.67757 0.0
O27 O 0.02597 0.70551 0.64784 0.0
Mg28 Mg 0.58812 0.82339 0.93943 0.0
O29 O 0.5969 0.8577 0.97262 0.0
O30 O 0.57229 0.85014 0.99728 0.0
Mg31 Mg 0.54224 0.82522 0.97303 0.0
C32 C 0.59049 0.86121 0.99396 0.0
C33 C 0.62349 0.871 0.94134 0.0
O34 O 0.63327 0.89501 0.94557 0.0
O35 O 0.59449 0.80534 0.97342 0.0
O36 O 0.56051 0.79502 0.96242 0.0
O37 O 0.56951 0.83916 0.90903 0.0
O38 O 0.55883 0.83596 0.9437 0.0
C39 C 0.57645 0.79585 0.97792 0.0
C40 C 0.55447 0.83928 0.922 0.0
O41 O 0.60812 0.86453 0.95279 0.0
Mg42 Mg 0.49904 0.25708 0.15039 0.0
O43 O 0.49599 0.21327 0.14501 0.0
O44 O 0.47645 0.20128 0.10762 0.0
Mg45 Mg 0.45333 0.22975 0.10714 0.0
C46 C 0.49038 0.19762 0.12406 0.0
C47 C 0.54149 0.24545 0.17196 0.0
O48 O 0.52885 0.22968 0.18168 0.0
O49 O 0.50145 0.24317 0.1099 0.0
O50 O 0.47658 0.25899 0.09296 0.0
O51 O 0.48163 0.22503 0.16481 0.0
O52 O 0.46449 0.24986 0.14735 0.0
C53 C 0.49555 0.25616 0.09489 0.0
C54 C 0.46592 0.23638 0.16405 0.0
O55 O 0.53394 0.25954 0.15886 0.0
Mg56 Mg 0.07708 0.81372 0.18522 0.0
O57 O 0.07187 0.77927 0.15306 0.0
O58 O 0.04031 0.77555 0.13078 0.0
Mg59 Mg 0.02424 0.8065 0.14971 0.0
C60 C 0.05773 0.76825 0.1347 0.0
C61 C 0.11939 0.80627 0.21242 0.0
O62 O 0.10625 0.80304 0.2285 0.0
O63 O 0.08198 0.84208 0.1588 0.0
O64 O 0.04882 0.83699 0.14023 0.0
O65 O 0.06071 0.78821 0.20831 0.0
O66 O 0.04434 0.80997 0.18527 0.0
C67 C 0.06819 0.84769 0.14349 0.0
C68 C 0.04328 0.79405 0.19981 0.0
O69 O 0.11251 0.81146 0.19187 0.0
Mg70 Mg 0.50132 0.75456 0.41589 0.0
O71 O 0.50564 0.78887 0.4489 0.0
O72 O 0.47971 0.77917 0.47096 0.0
Mg73 Mg 0.45898 0.74047 0.45267 0.0
C74 C 0.49587 0.79433 0.46744 0.0
C75 C 0.55012 0.7841 0.41212 0.0
O76 O 0.54734 0.80647 0.42378 0.0
O77 O 0.51267 0.7293 0.44094 0.0
O78 O 0.48609 0.71989 0.46216 0.0
O79 O 0.47933 0.77254 0.39283 0.0
O80 O 0.46931 0.74625 0.41713 0.0
C81 C 0.50437 0.7179 0.45674 0.0
C82 C 0.46423 0.76024 0.40197 0.0
O83 O 0.53514 0.76473 0.40772 0.0
Mg84 Mg 0.57716 0.31182 0.6811 0.0
O85 O 0.57233 0.2756 0.65077 0.0
O86 O 0.54351 0.27301 0.62378 0.0
Mg87 Mg 0.52804 0.30648 0.63807 0.0
C88 C 0.55966 0.26456 0.63107 0.0
C89 C 0.62322 0.31797 0.71221 0.0
O90 O 0.61643 0.33557 0.72726 0.0
O91 O 0.58644 0.33823 0.65376 0.0
O92 O 0.55528 0.3345 0.63034 0.0
O93 O 0.55545 0.29114 0.70419 0.0
O94 O 0.54492 0.31161 0.67596 0.0
C95 C 0.57482 0.34421 0.63631 0.0
C96 C 0.54018 0.29845 0.69221 0.0
O97 O 0.61125 0.30586 0.69227 0.0
Mg98 Mg 1.00293 0.25172 0.9176 0.0
O99 O 1.00839 0.28711 0.94754 0.0
O100 O 0.98277 0.28863 0.97077 0.0
Mg101 Mg 0.95987 0.2504 0.95375 0.0
C102 C 1.0003 0.29858 0.96515 0.0
C103 C 0.04523 0.25735 0.89405 0.0
O104 O 0.03255 0.24381 0.87418 0.0
O105 O 1.01032 0.22717 0.94455 0.0
O106 O 0.9832 0.22487 0.96596 0.0
O107 O 0.9877 0.27212 0.89313 0.0
O108 O 0.96933 0.24866 0.91521 0.0
C109 C 1.00066 0.21881 0.96105 0.0
C110 C 0.9697 0.26395 0.89967 0.0
O111 O 0.03788 0.26278 0.9143 0.0
Mg112 Mg 0.43242 0.06016 0.29802 0.0
O113 O 0.40867 0.01936 0.29285 0.0
O114 O 0.3909 0.02482 0.32527 0.0
Mg115 Mg 0.40203 0.06475 0.35127 0.0
C116 C 0.39475 1.01065 0.3057 0.0
C117 C 0.45559 0.04246 0.24654 0.0
O118 O 0.46578 0.03011 0.26059 0.0
O119 O 0.40652 0.08611 0.28974 0.0
O120 O 0.39116 0.08992 0.32403 0.0
O121 O 0.45766 0.04679 0.32322 0.0
O122 O 0.43292 0.06442 0.33819 0.0
C123 C 0.39376 0.09612 0.30318 0.0
C124 C 0.44896 0.05411 0.34251 0.0
O125 O 0.4415 0.05405 0.25563 0.0
Mg126 Mg 0.26704 0.15899 0.52158 0.0
O127 O 0.27223 0.18775 0.55967 0.0
O128 O 0.3054 0.20955 0.56488 0.0
Mg129 Mg 0.32227 0.19348 0.53295 0.0
C130 C 0.28749 0.20503 0.57224 0.0
C131 C 0.22221 0.13841 0.53584 0.0
O132 O 0.23473 0.13117 0.55226 0.0
O133 O 0.26728 0.19092 0.4983 0.0
O134 O 0.3016 0.20871 0.50498 0.0
O135 O 0.27808 0.12913 0.54032 0.0
O136 O 0.29946 0.15718 0.52612 0.0
C137 C 0.28288 0.20677 0.49421 0.0
C138 C 0.2971 0.13847 0.53751 0.0
O139 O 0.23046 0.15118 0.52089 0.0
Mg140 Mg 0.15904 1.01026 0.8171 0.0
O141 O 0.17989 0.05378 0.81667 0.0
O142 O 0.21076 0.05471 0.83715 0.0
Mg143 Mg 0.1844 0.02915 0.84866 0.0
C144 C 0.19925 0.06528 0.82389 0.0
C145 C 0.13596 0.99802 0.75479 0.0
O146 O 0.13479 0.97329 0.75304 0.0
O147 O 0.18406 0.98113 0.80671 0.0
O148 O 0.20064 0.99453 0.84454 0.0
O149 O 0.1342 0.02616 0.83909 0.0
O150 O 0.15595 1.00853 0.8599 0.0
C151 C 0.19776 0.9782 0.8241 0.0
C152 C 0.13906 0.01792 0.85895 0.0
O153 O 0.14466 1.01339 0.7754 0.0
Mg154 Mg 0.2573 0.84829 0.04985 0.0
O155 O 0.24777 0.8344 1.00854 0.0
O156 O 0.27191 0.81211 0.99495 0.0
Mg157 Mg 0.29399 0.80643 0.0266 0.0
C158 C 0.25545 0.8216 0.99138 0.0
C159 C 0.22164 0.87453 0.0364 0.0
O160 O 0.23446 0.88025 0.02062 0.0
O161 O 0.24183 0.80826 0.05351 0.0
O162 O 0.26231 0.78633 0.03526 0.0
O163 O 0.27943 0.88193 0.04373 0.0
O164 O 0.28915 0.84505 0.04527 0.0
C165 C 0.25721 0.79698 0.05553 0.0
C166 C 0.29362 0.86797 0.04137 0.0
O167 O 0.22674 0.86124 0.05185 0.0
Mg168 Mg 0.3277 0.40932 0.08031 0.0
O169 O 0.32102 0.37805 0.04402 0.0
O170 O 0.3439 0.35238 0.04905 0.0
Mg171 Mg 0.36609 0.36784 0.08572 0.0
C172 C 0.32878 0.3584 0.03616 0.0
C173 C 0.27701 0.41148 0.0677 0.0
O174 O 0.27191 0.38776 0.07049 0.0
O175 O 0.31408 0.38187 0.10459 0.0
O176 O 0.33951 0.35942 0.10936 0.0
O177 O 0.35053 0.43416 0.06324 0.0
O178 O 0.35984 0.40655 0.08483 0.0
C179 C 0.32195 0.36516 0.11417 0.0
C180 C 0.36521 0.4234 0.0718 0.0
O181 O 0.29635 0.42226 0.0706 0.0
Mg182 Mg 0.83766 0.21686 0.06416 0.0
O183 O 0.84087 0.21348 0.1037 0.0
O184 O 0.86643 0.24736 0.11837 0.0
Mg185 Mg 0.89073 0.24105 0.09087 0.0
C186 C 0.84938 0.2328 0.12057 0.0
C187 C 0.79377 0.19588 0.07099 0.0
O188 O 0.80601 0.18177 0.07984 0.0
O189 O 0.84683 0.25957 0.079 0.0
O190 O 0.8768 0.26514 0.06499 0.0
O191 O 0.83942 0.17688 0.05377 0.0
O192 O 0.86751 0.20805 0.06629 0.0
C193 C 0.85774 0.26808 0.06376 0.0
C194 C 0.85944 0.18384 0.06141 0.0
O195 O 0.80202 0.21465 0.06212 0.0
Mg196 Mg 0.15721 0.51109 0.31072 0.0
O197 O 0.18205 0.54928 0.31416 0.0
O198 O 0.20361 0.55754 0.34983 0.0
Mg199 Mg 0.19238 0.52402 0.36993 0.0
C200 C 0.19759 0.5636 0.32935 0.0
C201 C 0.12818 0.50479 0.25436 0.0
O202 O 0.1143 0.48988 0.26346 0.0
O203 O 0.18265 0.48287 0.30411 0.0
O204 O 0.20143 0.49062 0.342 0.0
O205 O 0.13473 0.53098 0.3346 0.0
O206 O 0.15862 0.51363 0.35145 0.0
C207 C 0.19695 0.47765 0.31957 0.0
C208 C 0.14313 0.52526 0.35455 0.0
O209 O 0.14627 0.51427 0.26774 0.0
Mg210 Mg 0.82924 0.91118 0.58502 0.0
O211 O 0.81906 0.88396 0.54682 0.0
O212 O 0.84145 0.85701 0.54223 0.0
Mg213 Mg 0.8675 0.86855 0.57595 0.0
C214 C 0.82534 0.86517 0.53411 0.0
C215 C 0.77915 0.91373 0.57307 0.0
O216 O 0.77596 0.88934 0.56245 0.0
O217 O 0.81833 0.88007 0.607 0.0
O218 O 0.84558 0.86007 0.60439 0.0
O219 O 0.85017 0.93904 0.56825 0.0
O220 O 0.8607 0.90727 0.58247 0.0
C221 C 0.82903 0.8641 0.61366 0.0
C222 C 0.86487 0.92625 0.57177 0.0
O223 O 0.79762 0.92538 0.58322 0.0
Mg224 Mg 0.9293 0.05402 0.29273 0.0
O225 O 0.90385 0.014 0.28796 0.0
O226 O 0.88917 0.01811 0.32282 0.0
Mg227 Mg 0.90212 0.05861 0.34807 0.0
C228 C 0.8914 1.00448 0.30208 0.0
C229 C 0.9481 0.06135 0.23807 0.0
O230 O 0.94985 0.08593 0.24712 0.0
O231 O 0.90423 0.08183 0.28631 0.0
O232 O 0.89068 0.0851 0.32193 0.0
O233 O 0.95305 0.03654 0.31469 0.0
O234 O 0.93272 0.05916 0.33373 0.0
C235 C 0.8924 0.09201 0.30115 0.0
C236 C 0.9471 0.04566 0.33547 0.0
O237 O 0.93945 0.0453 0.25046 0.0
Mg238 Mg 0.34303 0.71599 0.57174 0.0
O239 O 0.35295 0.7219 0.61249 0.0
O240 O 0.37555 0.75831 0.6145 0.0
Mg241 Mg 0.3937 0.7519 0.58052 0.0
C242 C 0.36186 0.74447 0.6239 0.0
C243 C 0.29978 0.69635 0.58822 0.0
O244 O 0.31192 0.68868 0.60468 0.0
O245 O 0.34404 0.7585 0.57977 0.0
O246 O 0.36853 0.76642 0.55669 0.0
O247 O 0.35009 0.67747 0.56406 0.0
O248 O 0.37397 0.71306 0.56935 0.0
C249 C 0.35073 0.76934 0.56311 0.0
C250 C 0.36946 0.68839 0.56454 0.0
O251 O 0.30807 0.70878 0.57328 0.0
Mg252 Mg 0.42924 0.55385 0.79027 0.0
O253 O 0.40522 0.51322 0.78726 0.0
O254 O 0.39209 0.5167 0.82318 0.0
Mg255 Mg 0.40441 0.5571 0.84825 0.0
C256 C 0.39375 0.50335 0.80208 0.0
C257 C 0.4506 0.55891 0.73669 0.0
O258 O 0.45811 0.58235 0.74935 0.0
O259 O 0.40198 0.58063 0.78485 0.0
O260 O 0.39089 0.58071 0.82157 0.0
O261 O 0.45537 0.53937 0.81396 0.0
O262 O 0.43349 0.56019 0.83139 0.0
C263 C 0.3903 0.58863 0.80113 0.0
C264 C 0.4489 0.54864 0.83431 0.0
O265 O 0.43799 0.54397 0.74683 0.0
Mg266 Mg 0.65677 1.00699 0.80876 0.0
O267 O 0.67847 0.04794 0.81224 0.0
O268 O 0.70368 0.05515 0.84475 0.0
Mg269 Mg 0.6947 0.02313 0.86734 0.0
C270 C 0.69514 0.062 0.82577 0.0
C271 C 0.63115 0.01814 0.75692 0.0
O272 O 0.62397 0.03355 0.7738 0.0
O273 O 0.68332 0.97991 0.80341 0.0
O274 O 0.70373 0.98933 0.84037 0.0
O275 O 0.63196 0.02113 0.83364 0.0
O276 O 0.6607 1.0122 0.84975 0.0
C277 C 0.69861 0.9758 0.81828 0.0
C278 C 0.6431 0.01891 0.85354 0.0
O279 O 0.64443 1.0051 0.76461 0.0
Mg280 Mg 0.76602 0.65579 0.01884 0.0
O281 O 0.76829 0.68305 0.05639 0.0
O282 O 0.79987 0.70874 0.06552 0.0
Mg283 Mg 0.81871 0.69674 0.03383 0.0
C284 C 0.78164 0.7011 0.07096 0.0
C285 C 0.7218 0.63178 0.03214 0.0
O286 O 0.73488 0.62433 0.04778 0.0
O287 O 0.76463 0.68724 0.99606 0.0
O288 O 0.79771 0.70948 1.00352 0.0
O289 O 0.7787 0.62751 0.03788 0.0
O290 O 0.79918 0.6574 0.02467 0.0
C291 C 0.77894 0.70469 0.99191 0.0
C292 C 0.79752 0.63842 0.03583 0.0
O293 O 0.72943 0.64543 0.01751 0.0
Mg294 Mg 0.93374 0.5599 0.80062 0.0
O295 O 0.9096 0.51989 0.79558 0.0
O296 O 0.89287 0.52274 0.82883 0.0
Mg297 Mg 0.90574 0.56221 0.85545 0.0
C298 C 0.89612 0.50995 0.80821 0.0
C299 C 0.95177 0.56363 0.74503 0.0
O300 O 0.95408 0.58851 0.7528 0.0
O301 O 0.90707 0.58644 0.79257 0.0
O302 O 0.89423 0.58636 0.82822 0.0
O303 O 0.95843 0.54426 0.82477 0.0
O304 O 0.9365 0.56559 0.84163 0.0
C305 C 0.8947 0.59441 0.80791 0.0
C306 C 0.95153 0.55341 0.84488 0.0
O307 O 0.94328 0.54887 0.75859 0.0
Mg308 Mg 0.75859 0.34736 0.54023 0.0
O309 O 0.74307 0.34313 0.50082 0.0
O310 O 0.75999 0.31497 0.48113 0.0
Mg311 Mg 0.79179 0.31469 0.50159 0.0
C312 C 0.74436 0.32627 0.48216 0.0
C313 C 0.72374 0.37617 0.54266 0.0
O314 O 0.73561 0.38537 0.52741 0.0
O315 O 0.74637 0.30472 0.53585 0.0
O316 O 0.77519 0.29087 0.5259 0.0
O317 O 0.77873 0.38493 0.54119 0.0
O318 O 0.78864 0.34817 0.52936 0.0
C319 C 0.75879 0.28898 0.53667 0.0
C320 C 0.79292 0.37277 0.53322 0.0
O321 O 0.7289 0.35847 0.55281 0.0
Mg322 Mg 0.65944 0.51362 0.31756 0.0
O323 O 0.68292 0.55304 0.31678 0.0
O324 O 0.70664 0.56295 0.35066 0.0
Mg325 Mg 0.69807 0.53038 0.37328 0.0
C326 C 0.69903 0.56828 0.33039 0.0
C327 C 0.63375 0.52394 0.26523 0.0
O328 O 0.62877 0.5426 0.28091 0.0
O329 O 0.68387 0.48397 0.31083 0.0
O330 O 0.70547 0.49418 0.34689 0.0
O331 O 0.63712 0.53269 0.34324 0.0
O332 O 0.66313 0.5181 0.35885 0.0
C333 C 0.69922 0.47958 0.32534 0.0
C334 C 0.64686 0.52797 0.36294 0.0
O335 O 0.6457 0.51 0.27396 0.0
C336 C 0.09797 0.05647 0.08584 0.0
Eu337 Eu 0.05988 0.04346 0.06203 0.0
C338 C 0.1153 0.04308 0.08104 0.0
C339 C 0.12705 0.03664 0.10086 0.0
C340 C 0.13883 0.01748 0.09622 0.0
C341 C 0.13897 1.00463 0.07172 0.0
C342 C 0.12868 1.01264 0.05184 0.0
C343 C 0.11683 0.03164 0.05647 0.0
C344 C 0.0259 0.04564 0.08886 0.0
C345 C 0.04874 0.98214 0.05379 0.0
C346 C 0.98646 1.00732 1.00842 0.0
Eu347 Eu 0.0247 0.01898 0.03169 0.0
C348 C 0.97031 0.02236 0.0139 0.0
C349 C 0.9533 0.02192 0.99593 0.0
C350 C 0.9394 0.03862 1.00113 0.0
C351 C 0.94294 0.05622 0.024 0.0
C352 C 0.96001 0.05666 0.04176 0.0
C353 C 0.97344 0.03966 0.03688 0.0
C354 C 0.05792 0.01576 1.00447 0.0
C355 C 0.03669 0.07965 0.03819 0.0
O356 O 0.09122 0.06759 0.06841 0.0
O357 O 0.08258 0.04312 0.09387 0.0
O358 O 0.04088 0.06476 0.08896 0.0
O359 O 0.02917 0.0264 0.07368 0.0
O360 O 0.06425 1.00174 0.05559 0.0
O361 O 0.02953 0.98502 0.04738 0.0
O362 O 0.99285 0.99638 0.02618 0.0
O363 O 1.00211 0.01933 0.99968 0.0
O364 O 0.04254 0.99726 1.00479 0.0
O365 O 0.05558 0.03547 0.01983 0.0
O366 O 0.02112 0.06056 0.03737 0.0
O367 O 0.05584 0.0769 0.04482 0.0
H368 H 0.12584 0.04501 0.11991 0.0
H369 H 0.14689 1.01176 0.11182 0.0
H370 H 0.12843 1.00289 0.03279 0.0
H371 H 0.10756 0.03588 0.04086 0.0
H372 H 0.95089 1.00892 0.97799 0.0
H373 H 0.92607 0.03799 0.98736 0.0
H374 H 0.96269 0.06978 0.05968 0.0
H375 H 0.98646 0.04026 0.05103 0.0
C376 C 0.29398 0.8011 0.37407 0.0
Eu377 Eu 0.2918 0.79211 0.3264 0.0
C378 C 0.28287 0.78736 0.39086 0.0
C379 C 0.26305 0.79131 0.3967 0.0
C380 C 0.25357 0.7788 0.41382 0.0
C381 C 0.26387 0.76233 0.42541 0.0
C382 C 0.28288 0.75701 0.41774 0.0
C383 C 0.29231 0.76955 0.40102 0.0
C384 C 0.25774 0.79236 0.29306 0.0
C385 C 0.27417 0.73089 0.30131 0.0
C386 C 0.30677 0.76355 0.22825 0.0
Eu387 Eu 0.30094 0.77113 0.27419 0.0
C388 C 0.31691 0.78174 0.21448 0.0
C389 C 0.33696 0.78011 0.20803 0.0
C390 C 0.34736 0.79828 0.19638 0.0
C391 C 0.33773 0.81817 0.19063 0.0
C392 C 0.31792 0.82019 0.19796 0.0
C393 C 0.30765 0.80222 0.20973 0.0
C394 C 0.328 0.76497 0.31193 0.0
C395 C 0.31845 0.83287 0.29941 0.0
O396 O 0.30667 0.78874 0.36203 0.0
O397 O 0.28314 0.813 0.36026 0.0
O398 O 0.25895 0.80004 0.31688 0.0
O399 O 0.27448 0.78509 0.28847 0.0
O400 O 0.27957 0.74878 0.32209 0.0
O401 O 0.27853 0.73603 0.27962 0.0
O402 O 0.2887 0.76717 0.23521 0.0
O403 O 0.31942 0.75825 0.24572 0.0
O404 O 0.32066 0.74729 0.29217 0.0
O405 O 0.32075 0.78498 0.31088 0.0
O406 O 0.31552 0.81426 0.27917 0.0
O407 O 0.31126 0.82865 0.32009 0.0
H408 H 0.2552 0.80464 0.38872 0.0
H409 H 0.23884 0.78315 0.41905 0.0
H410 H 0.29172 0.74484 0.42611 0.0
H411 H 0.3075 0.76587 0.39678 0.0
H412 H 0.34454 0.76465 0.21186 0.0
H413 H 0.36247 0.79606 0.19076 0.0
H414 H 0.30958 0.83469 0.19322 0.0
H415 H 0.29232 0.80426 0.21475 0.0
C416 C 0.48234 0.03897 0.56663 0.0
Eu417 Eu 0.52047 0.03391 0.55932 0.0
C418 C 0.46607 0.05508 0.56719 0.0
C419 C 0.4542 0.05594 0.58693 0.0
C420 C 0.43657 0.06742 0.58667 0.0
C421 C 0.43045 0.07853 0.56673 0.0
C422 C 0.44312 0.0793 0.54772 0.0
C423 C 0.46081 0.06754 0.54788 0.0
C424 C 0.55222 0.02721 0.594 0.0
C425 C 0.55444 0.08537 0.55919 0.0
C426 C 0.6006 0.02367 0.52553 0.0
Eu427 Eu 0.56301 0.02971 0.53427 0.0
C428 C 0.6174 1.00937 0.53079 0.0
C429 C 0.62972 1.00247 0.51223 0.0
C430 C 0.64711 0.99125 0.51741 0.0
C431 C 0.65246 0.98682 0.54129 0.0
C432 C 0.63966 0.99279 0.55957 0.0
C433 C 0.62222 1.00388 0.55434 0.0
C434 C 0.53123 0.03725 0.50005 0.0
C435 C 0.53022 0.97805 0.53779 0.0
O436 O 0.48697 0.0282 0.54515 0.0
O437 O 0.4986 0.04611 0.58413 0.0
O438 O 0.53346 0.02987 0.59831 0.0
O439 O 0.55294 0.02823 0.57126 0.0
O440 O 0.53507 0.07506 0.56164 0.0
O441 O 0.56839 0.07209 0.55069 0.0
O442 O 0.59707 0.04099 0.5438 0.0
O443 O 0.58332 1.01067 0.51131 0.0
O444 O 0.55021 0.03581 0.4958 0.0
O445 O 0.53069 0.03529 0.52252 0.0
O446 O 0.54936 0.98863 0.53472 0.0
O447 O 0.51592 0.99132 0.54519 0.0
H448 H 0.45794 0.04651 0.60204 0.0
H449 H 0.427 0.06641 0.60144 0.0
H450 H 0.43859 0.08751 0.53201 0.0
H451 H 0.46976 0.06724 0.53246 0.0
H452 H 0.62634 1.00662 0.49395 0.0
H453 H 0.65696 0.98718 0.50317 0.0
H454 H 0.64361 0.9897 0.57816 0.0
H455 H 0.613 1.00902 0.56895 0.0
C456 C 0.35527 0.26177 0.80134 0.0
Eu457 Eu 0.31699 0.26932 0.80303 0.0
C458 C 0.37278 0.26575 0.78682 0.0
C459 C 0.38323 0.24551 0.77979 0.0
C460 C 0.39974 0.24843 0.76574 0.0
C461 C 0.40616 0.27173 0.75846 0.0
C462 C 0.39568 0.29205 0.76568 0.0
C463 C 0.3791 0.28907 0.77963 0.0
C464 C 0.28305 0.23299 0.80813 0.0
C465 C 0.28954 0.27027 0.75013 0.0
C466 C 0.23752 0.30157 0.80543 0.0
Eu467 Eu 0.27564 0.29396 0.80265 0.0
C468 C 0.22101 0.29935 0.82167 0.0
C469 C 0.21367 0.32144 0.83176 0.0
C470 C 0.19716 0.31987 0.84591 0.0
C471 C 0.18749 0.2961 0.84999 0.0
C472 C 0.19524 0.27408 0.84054 0.0
C473 C 0.21191 0.27569 0.82658 0.0
C474 C 0.30964 0.33027 0.7977 0.0
C475 C 0.30312 0.29339 0.85556 0.0
O476 O 0.35073 0.28196 0.81531 0.0
O477 O 0.33855 0.24502 0.78986 0.0
O478 O 0.30223 0.22957 0.80842 0.0
O479 O 0.28315 0.256 0.80587 0.0
O480 O 0.30762 0.26791 0.76203 0.0
O481 O 0.27424 0.27812 0.76152 0.0
O482 O 0.2417 0.2805 0.79264 0.0
O483 O 0.25437 0.31913 0.81452 0.0
O484 O 0.29053 0.3339 0.79776 0.0
O485 O 0.3095 0.30723 0.79983 0.0
O486 O 0.2853 0.2966 0.84378 0.0
O487 O 0.31809 0.2848 0.84404 0.0
H488 H 0.37851 0.22731 0.78505 0.0
H489 H 0.40723 0.2323 0.76025 0.0
H490 H 0.40041 0.31041 0.76074 0.0
H491 H 0.37125 0.30496 0.78477 0.0
H492 H 0.22042 0.3399 0.8282 0.0
H493 H 0.19138 0.33709 0.85277 0.0
H494 H 0.18814 0.25555 0.84362 0.0
H495 H 0.21736 0.25837 0.81926 0.0
C496 C 0.05176 0.95424 0.52599 0.0
Eu497 Eu 0.04965 1.00216 0.53649 0.0
C498 C 0.05696 0.93738 0.54256 0.0
C499 C 0.07116 0.92122 0.5367 0.0
C500 C 0.07642 0.90543 0.55272 0.0
C501 C 0.06749 0.90565 0.57476 0.0
C502 C 0.05418 0.92299 0.58115 0.0
C503 C 0.04904 0.93877 0.56526 0.0
C504 C 0.08069 0.04277 0.53483 0.0
C505 C 0.06286 0.02874 0.59653 0.0
C506 C 0.03582 0.10409 0.56513 0.0
Eu507 Eu 0.03747 0.05659 0.558 0.0
C508 C 0.02248 0.117 0.55064 0.0
C509 C 1.00625 0.12734 0.56089 0.0
C510 C 0.99718 0.14476 0.54981 0.0
C511 C 1.00587 0.15343 0.53001 0.0
C512 C 0.01772 0.13817 0.51622 0.0
C513 C 0.02644 0.12031 0.52683 0.0
C514 C 1.00535 0.01787 0.55947 0.0
C515 C 0.02193 0.0287 0.49845 0.0
O516 O 0.03394 0.96215 0.52762 0.0
O517 O 0.06733 0.9725 0.52496 0.0
O518 O 0.08195 0.01913 0.52693 0.0
O519 O 0.06324 0.04265 0.54235 0.0
O520 O 0.05945 1.00751 0.57876 0.0
O521 O 0.05748 0.0504 0.59221 0.0
O522 O 0.05051 0.09484 0.554 0.0
O523 O 0.02616 0.08892 0.578 0.0
O524 O 1.00536 0.04196 0.56719 0.0
O525 O 0.02274 0.01577 0.55183 0.0
O526 O 0.02373 0.04938 0.5165 0.0
O527 O 0.03007 1.00844 0.50206 0.0
H528 H 0.07793 0.92057 0.51959 0.0
H529 H 0.08681 0.89236 0.54745 0.0
H530 H 0.0467 0.92338 0.59774 0.0
H531 H 0.03851 0.95166 0.57053 0.0
H532 H 1.002 0.12388 0.57854 0.0
H533 H 0.98693 0.15533 0.55986 0.0
H534 H 0.02366 0.14329 0.49989 0.0
H535 H 0.03782 0.11116 0.51753 0.0
C536 C 0.23868 0.73423 0.76433 0.0
Eu537 Eu 0.27224 0.76421 0.78916 0.0
C538 C 0.21939 0.74091 0.75331 0.0
C539 C 0.20106 0.73721 0.76449 0.0
C540 C 0.18305 0.74494 0.75505 0.0
C541 C 0.18318 0.75623 0.73423 0.0
C542 C 0.20154 0.76052 0.72341 0.0
C543 C 0.21958 0.75305 0.73295 0.0
C544 C 0.2825 0.77203 0.83798 0.0
C545 C 0.27007 0.82429 0.80649 0.0
C546 C 0.34497 0.83061 0.83417 0.0
Eu547 Eu 0.31283 0.79816 0.80831 0.0
C548 C 0.36554 0.82826 0.84602 0.0
C549 C 0.38358 0.83848 0.83682 0.0
C550 C 0.40321 0.83518 0.84657 0.0
C551 C 0.40517 0.82185 0.8659 0.0
C552 C 0.38716 0.81147 0.87511 0.0
C553 C 0.36741 0.81468 0.86524 0.0
C554 C 0.30181 0.79141 0.75922 0.0
C555 C 0.31514 0.73775 0.79344 0.0
O556 O 0.25569 0.74021 0.75426 0.0
O557 O 0.2421 0.73976 0.78865 0.0
O558 O 0.26376 0.77174 0.82736 0.0
O559 O 0.29501 0.76782 0.82285 0.0
O560 O 0.26002 0.80237 0.79167 0.0
O561 O 0.28971 0.82568 0.81702 0.0
O562 O 0.32849 0.82174 0.84384 0.0
O563 O 0.34208 0.82473 0.80986 0.0
O564 O 0.32074 0.792 0.7695 0.0
O565 O 0.28969 0.79518 0.77492 0.0
O566 O 0.32542 0.76059 0.80616 0.0
O567 O 0.29498 0.7351 0.78384 0.0
H568 H 0.20062 0.72816 0.78039 0.0
H569 H 0.16875 0.74092 0.76315 0.0
H570 H 0.20163 0.76872 0.70698 0.0
H571 H 0.23355 0.75656 0.72416 0.0
H572 H 0.38244 0.84872 0.8218 0.0
H573 H 0.4169 0.84292 0.83887 0.0
H574 H 0.38839 0.80119 0.89007 0.0
H575 H 0.35368 0.80638 0.87253 0.0
C576 C 0.60181 0.04835 0.09462 0.0
Eu577 Eu 0.56558 0.03195 0.06683 0.0
C578 C 0.62031 0.06645 0.09123 0.0
C579 C 0.64042 0.06073 0.09499 0.0
C580 C 0.65781 0.07682 0.08974 0.0
C581 C 0.65535 0.09898 0.08072 0.0
C582 C 0.63513 0.10463 0.07709 0.0
C583 C 0.61779 0.08845 0.08211 0.0
C584 C 0.54257 0.98369 0.05403 0.0
C585 C 0.56851 0.02457 1.00562 0.0
C586 C 0.48781 1.00298 1.00028 0.0
Eu587 Eu 0.52331 0.02412 0.02857 0.0
C588 C 0.46703 0.98932 1.00389 0.0
C589 C 0.44867 0.99572 0.99322 0.0
C590 C 0.42885 0.98241 0.99553 0.0
C591 C 0.4269 0.96228 1.00852 0.0
C592 C 0.44534 0.95648 0.01995 0.0
C593 C 0.4652 0.96985 0.01767 0.0
C594 C 0.54447 0.07271 0.04277 0.0
C595 C 0.52162 0.03674 0.09001 0.0
O596 O 0.58514 0.05793 0.09909 0.0
O597 O 0.59729 0.02658 0.07838 0.0
O598 O 0.56259 0.98922 0.06208 0.0
O599 O 0.53583 1.00405 0.05562 0.0
O600 O 0.57804 0.03178 0.02917 0.0
O601 O 0.54748 0.01923 1.00057 0.0
O602 O 0.50368 0.99123 1.0027 0.0
O603 O 0.49279 0.02751 0.01032 0.0
O604 O 0.52446 0.06662 0.03437 0.0
O605 O 0.5525 0.05304 0.04058 0.0
O606 O 0.51117 0.02923 0.06684 0.0
O607 O 0.54252 0.04039 0.09453 0.0
H608 H 0.64263 0.04357 0.10154 0.0
H609 H 0.6731 0.07163 0.09235 0.0
H610 H 0.63267 0.12166 0.07051 0.0
H611 H 0.60238 0.09305 0.07855 0.0
H612 H 0.44966 1.01086 0.98281 0.0
H613 H 0.415 0.98776 0.98693 0.0
H614 H 0.44445 0.94105 0.02999 0.0
H615 H 0.47911 0.96469 0.02636 0.0
C616 C 0.35421 0.33122 0.32447 0.0
Eu617 Eu 0.31579 0.30598 0.31613 0.0
C618 C 0.3727 0.32148 0.31684 0.0
C619 C 0.39199 0.3279 0.33265 0.0
C620 C 0.40892 0.31666 0.32588 0.0
C621 C 0.40655 0.29859 0.30344 0.0
C622 C 0.38711 0.2921 0.28787 0.0
C623 C 0.37044 0.30348 0.29444 0.0
C624 C 0.29437 0.29011 0.35152 0.0
C625 C 0.31969 0.24448 0.29745 0.0
C626 C 0.24018 0.24328 0.28674 0.0
Eu627 Eu 0.27847 0.2681 0.294 0.0
C628 C 0.22302 0.25467 0.29634 0.0
C629 C 0.20668 0.25899 0.27983 0.0
C630 C 0.1935 0.27549 0.28845 0.0
C631 C 0.19693 0.28814 0.31347 0.0
C632 C 0.21262 0.28301 0.33009 0.0
C633 C 0.22546 0.26634 0.32169 0.0
C634 C 0.29879 0.28902 0.25974 0.0
C635 C 0.27387 0.32946 0.31099 0.0
O636 O 0.34041 0.33328 0.30629 0.0
O637 O 0.34547 0.32048 0.34107 0.0
O638 O 0.30303 0.31369 0.35214 0.0
O639 O 0.29734 0.2756 0.33186 0.0
O640 O 0.32896 0.2691 0.30218 0.0
O641 O 0.29904 0.23831 0.29486 0.0
O642 O 0.25448 0.23981 0.30359 0.0
O643 O 0.24845 0.25371 0.26968 0.0
O644 O 0.29061 0.26473 0.25625 0.0
O645 O 0.2956 0.30024 0.28058 0.0
O646 O 0.2646 0.30478 0.30557 0.0
O647 O 0.2947 0.33572 0.31482 0.0
H648 H 0.3939 0.34148 0.35018 0.0
H649 H 0.42385 0.32217 0.33803 0.0
H650 H 0.38495 0.27884 0.27009 0.0
H651 H 0.35572 0.29809 0.28189 0.0
H652 H 0.20473 0.25048 0.26018 0.0
H653 H 0.18098 0.2788 0.27562 0.0
H654 H 0.21493 0.29194 0.34969 0.0
H655 H 0.23795 0.2637 0.33499 0.0
C656 C 0.54158 0.4528 0.02071 0.0
Eu657 Eu 0.5453 0.50177 0.03345 0.0
C658 C 0.54975 0.43465 0.03418 0.0
C659 C 0.57073 0.4313 0.03454 0.0
C660 C 0.57834 0.41477 0.04836 0.0
C661 C 0.56515 0.40164 0.06219 0.0
C662 C 0.54432 0.40538 0.06207 0.0
C663 C 0.53669 0.42155 0.04814 0.0
C664 C 0.57926 0.54025 0.03632 0.0
C665 C 0.56223 0.52278 0.09434 0.0
C666 C 0.53949 0.60568 0.07812 0.0
Eu667 Eu 0.53771 0.55749 0.06215 0.0
C668 C 0.52758 0.62326 0.06866 0.0
C669 C 0.52458 0.64511 0.08474 0.0
C670 C 0.51764 0.66468 0.07494 0.0
C671 C 0.51418 0.66253 0.04907 0.0
C672 C 0.5139 0.63897 0.03326 0.0
C673 C 0.52069 0.61943 0.04305 0.0
C674 C 0.50365 0.51903 0.05854 0.0
C675 C 0.52215 0.53694 1.00075 0.0
O676 O 0.5271 0.46372 0.03059 0.0
O677 O 0.55541 0.46878 0.01272 0.0
O678 O 0.57863 0.51658 0.0257 0.0
O679 O 0.56206 0.54142 0.04436 0.0
O680 O 0.55803 0.50353 0.07439 0.0
O681 O 0.55702 0.54547 0.09373 0.0
O682 O 0.55242 0.59681 0.0636 0.0
O683 O 0.5287 0.58817 0.08769 0.0
O684 O 0.50373 0.54286 0.06782 0.0
O685 O 0.52131 0.51797 0.05179 0.0
O686 O 0.52648 0.5561 0.02081 0.0
O687 O 0.52659 0.51386 1.00137 0.0
H688 H 0.58123 0.44128 0.02406 0.0
H689 H 0.59433 0.41184 0.04787 0.0
H690 H 0.53352 0.39487 0.07187 0.0
H691 H 0.52046 0.42366 0.04821 0.0
H692 H 0.52926 0.64797 0.10461 0.0
H693 H 0.51786 0.68272 0.08743 0.0
H694 H 0.51125 0.63696 0.01324 0.0
H695 H 0.52237 0.60238 0.03039 0.0
C696 C 0.74199 0.22837 0.27474 0.0
Eu697 Eu 0.77399 0.26362 0.29713 0.0
C698 C 0.72245 0.22905 0.25924 0.0
C699 C 0.70308 0.22013 0.26651 0.0
C700 C 0.68445 0.22362 0.25384 0.0
C701 C 0.68494 0.23588 0.23355 0.0
C702 C 0.70432 0.24402 0.22586 0.0
C703 C 0.72289 0.24082 0.23869 0.0
C704 C 0.78483 0.27628 0.3462 0.0
C705 C 0.76862 0.32409 0.30882 0.0
C706 C 0.84623 0.33739 0.33748 0.0
Eu707 Eu 0.81388 0.30353 0.3138 0.0
C708 C 0.86813 0.33542 0.34505 0.0
C709 C 0.88112 0.32858 0.3272 0.0
C710 C 0.90096 0.32386 0.33456 0.0
C711 C 0.90816 0.32602 0.35983 0.0
C712 C 0.89545 0.33347 0.37771 0.0
C713 C 0.87558 0.33815 0.37036 0.0
C714 C 0.80251 0.291 0.2646 0.0
C715 C 0.81933 0.24317 0.30103 0.0
O716 O 0.7595 0.2331 0.2654 0.0
O717 O 0.74366 0.23999 0.29798 0.0
O718 O 0.76562 0.26999 0.33524 0.0
O719 O 0.7977 0.27403 0.33099 0.0
O720 O 0.75955 0.30003 0.29772 0.0
O721 O 0.78901 0.3296 0.31797 0.0
O722 O 0.83222 0.32545 0.34875 0.0
O723 O 0.84009 0.33419 0.3136 0.0
O724 O 0.82191 0.29592 0.27523 0.0
O725 O 0.78986 0.29376 0.28007 0.0
O726 O 0.82888 0.26733 0.31086 0.0
O727 O 0.79874 0.23763 0.29321 0.0
H728 H 0.70243 0.21128 0.28252 0.0
H729 H 0.66977 0.21746 0.26046 0.0
H730 H 0.7052 0.25314 0.21005 0.0
H731 H 0.73753 0.24816 0.23277 0.0
H732 H 0.87584 0.32628 0.30752 0.0
H733 H 0.91065 0.31843 0.32051 0.0
H734 H 0.90068 0.33506 0.39731 0.0
H735 H 0.86579 0.34321 0.38441 0.0
C736 C 0.10161 0.5528 0.59192 0.0
Eu737 Eu 0.06562 0.53733 0.56375 0.0
C738 C 0.12108 0.56833 0.58792 0.0
C739 C 0.14057 0.56338 0.59681 0.0
C740 C 0.1591 0.57791 0.59242 0.0
C741 C 0.15833 0.59769 0.57921 0.0
C742 C 0.13867 0.60205 0.56982 0.0
C743 C 0.12022 0.58736 0.57396 0.0
C744 C 0.04433 0.48925 0.54913 0.0
C745 C 0.06495 0.53064 0.50317 0.0
C746 C 0.98767 0.51175 0.50189 0.0
Eu747 Eu 0.02272 0.53102 0.53153 0.0
C748 C 0.96691 0.49761 0.50482 0.0
C749 C 0.95187 0.51079 0.51468 0.0
C750 C 0.93313 0.4973 0.51964 0.0
C751 C 0.92895 0.4704 0.51462 0.0
C752 C 0.94346 0.45717 0.50368 0.0
C753 C 0.96229 0.47067 0.49882 0.0
C754 C 0.04417 0.57997 0.54569 0.0
C755 C 0.02286 0.5376 0.59209 0.0
O756 O 0.08581 0.56468 0.59437 0.0
O757 O 0.09622 0.53013 0.5772 0.0
O758 O 0.06465 0.49556 0.55162 0.0
O759 O 0.03609 0.50819 0.55561 0.0
O760 O 0.07657 0.54001 0.52543 0.0
O761 O 0.04424 0.52315 0.50155 0.0
O762 O 1.00338 0.49964 0.50364 0.0
O763 O 0.99283 0.53589 0.51333 0.0
O764 O 0.0238 0.57357 0.54103 0.0
O765 O 0.05195 0.56036 0.54039 0.0
O766 O 1.01117 0.53212 0.56975 0.0
O767 O 0.04374 0.54034 0.59422 0.0
H768 H 0.14143 0.5483 0.60707 0.0
H769 H 0.174 0.57367 0.59938 0.0
H770 H 0.13749 0.61722 0.55976 0.0
H771 H 0.10525 0.59104 0.56641 0.0
H772 H 0.95475 0.53153 0.51917 0.0
H773 H 0.922 0.50791 0.52774 0.0
H774 H 0.9406 0.43643 0.49973 0.0
H775 H 0.97349 0.45998 0.49099 0.0
C776 C 0.85688 0.77169 0.30269 0.0
Eu777 Eu 0.81693 0.77264 0.30335 0.0
C778 C 0.87287 0.76706 0.28614 0.0
C779 C 0.88778 0.75278 0.2928 0.0
C780 C 0.90428 0.74971 0.27907 0.0
C781 C 0.90635 0.76077 0.25812 0.0
C782 C 0.89105 0.77463 0.25106 0.0
C783 C 0.87447 0.77776 0.26494 0.0
C784 C 0.78424 0.73384 0.30821 0.0
C785 C 0.78684 0.76465 0.24992 0.0
C786 C 0.7341 0.79853 0.30325 0.0
Eu787 Eu 0.77265 0.79247 0.30066 0.0
C788 C 0.71764 0.79486 0.31917 0.0
C789 C 0.70228 0.81008 0.31928 0.0
C790 C 0.68632 0.80707 0.33405 0.0
C791 C 0.68541 0.7887 0.34903 0.0
C792 C 0.70126 0.77396 0.34944 0.0
C793 C 0.7173 0.77707 0.33467 0.0
C794 C 0.80558 0.83075 0.29564 0.0
C795 C 0.80045 0.79707 0.35409 0.0
O796 O 0.84898 0.79239 0.30304 0.0
O797 O 0.84294 0.75191 0.30445 0.0
O798 O 0.80374 0.73168 0.30768 0.0
O799 O 0.78341 0.7567 0.30591 0.0
O800 O 0.80592 0.76548 0.26167 0.0
O801 O 0.77127 0.77197 0.26113 0.0
O802 O 0.73887 0.778 0.29016 0.0
O803 O 0.75062 0.81628 0.31319 0.0
O804 O 0.78597 0.83262 0.29391 0.0
O805 O 0.80602 0.8082 0.29878 0.0
O806 O 0.78161 0.79453 0.34135 0.0
O807 O 0.81705 0.79181 0.34369 0.0
H808 H 0.88698 0.7445 0.30916 0.0
H809 H 0.91587 0.73936 0.28554 0.0
H810 H 0.89193 0.7832 0.23491 0.0
H811 H 0.86314 0.78885 0.25932 0.0
H812 H 0.70247 0.82413 0.30763 0.0
H813 H 0.67428 0.81851 0.33303 0.0
H814 H 0.70116 0.75987 0.36101 0.0
H815 H 0.72928 0.76548 0.33519 0.0
C816 C 0.78687 0.30838 0.87679 0.0
Eu817 Eu 0.79022 0.29718 0.83012 0.0
C818 C 0.78185 0.29094 0.89354 0.0
C819 C 0.76404 0.2917 0.90557 0.0
C820 C 0.75823 0.27385 0.92006 0.0
C821 C 0.77033 0.25516 0.92294 0.0
C822 C 0.78776 0.25403 0.91003 0.0
C823 C 0.7934 0.27162 0.89547 0.0
C824 C 0.76111 0.29995 0.79254 0.0
C825 C 0.77198 0.23406 0.81093 0.0
C826 C 0.79519 0.26315 0.73317 0.0
Eu827 Eu 0.79708 0.27084 0.78048 0.0
C828 C 0.80949 0.27632 0.71871 0.0
C829 C 0.82869 0.26906 0.71438 0.0
C830 C 0.84094 0.28058 0.69875 0.0
C831 C 0.83366 0.29869 0.68649 0.0
C832 C 0.81651 0.30899 0.69469 0.0
C833 C 0.80432 0.2975 0.71007 0.0
C834 C 0.83249 0.27149 0.81103 0.0
C835 C 0.81778 0.33279 0.80046 0.0
O836 O 0.80506 0.30881 0.86868 0.0
O837 O 0.77153 0.30766 0.85928 0.0
O838 O 0.76934 0.31912 0.81077 0.0
O839 O 0.76864 0.28043 0.79515 0.0
O840 O 0.77583 0.25468 0.8294 0.0
O841 O 0.7779 0.23544 0.78904 0.0
O842 O 0.78396 0.27768 0.74539 0.0
O843 O 0.80263 0.24768 0.74599 0.0
O844 O 0.82841 0.26014 0.78784 0.0
O845 O 0.81703 0.28086 0.81798 0.0
O846 O 0.81314 0.31246 0.78191 0.0
O847 O 0.81147 0.33165 0.82218 0.0
H848 H 0.75468 0.30617 0.90381 0.0
H849 H 0.74484 0.27534 0.92986 0.0
H850 H 0.79795 0.24053 0.91225 0.0
H851 H 0.80699 0.27019 0.88599 0.0
H852 H 0.83375 0.2537 0.72201 0.0
H853 H 0.85479 0.27324 0.69415 0.0
H854 H 0.81055 0.32373 0.68694 0.0
H855 H 0.79015 0.30446 0.71406 0.0
C856 C 0.85616 0.82769 0.82207 0.0
Eu857 Eu 0.81738 0.8039 0.81469 0.0
C858 C 0.87458 0.81796 0.81369 0.0
C859 C 0.88356 0.80079 0.82573 0.0
C860 C 0.89775 0.78729 0.81477 0.0
C861 C 0.90326 0.79078 0.79166 0.0
C862 C 0.89542 0.80919 0.78044 0.0
C863 C 0.88127 0.82271 0.79139 0.0
C864 C 0.79383 0.78522 0.84745 0.0
C865 C 0.81782 0.74079 0.79531 0.0
C866 C 0.73765 0.7393 0.78575 0.0
Eu867 Eu 0.77549 0.76525 0.79007 0.0
C868 C 0.72149 0.74633 0.80057 0.0
C869 C 0.70016 0.73951 0.79041 0.0
C870 C 0.68515 0.74946 0.80343 0.0
C871 C 0.69151 0.76653 0.82645 0.0
C872 C 0.71278 0.7733 0.83662 0.0
C873 C 0.72769 0.76328 0.82375 0.0
C874 C 0.79413 0.78541 0.75443 0.0
C875 C 0.77501 0.82727 0.80967 0.0
O876 O 0.84222 0.83052 0.80438 0.0
O877 O 0.84743 0.81713 0.83887 0.0
O878 O 0.80521 0.80826 0.85212 0.0
O879 O 0.79624 0.77341 0.82632 0.0
O880 O 0.82858 0.76482 0.80402 0.0
O881 O 0.797 0.73598 0.78894 0.0
O882 O 0.75385 0.73319 0.79774 0.0
O883 O 0.74315 0.75523 0.77149 0.0
O884 O 0.77728 0.76775 0.74941 0.0
O885 O 0.80034 0.78964 0.77737 0.0
O886 O 0.7653 0.80294 0.80674 0.0
O887 O 0.79581 0.83299 0.81079 0.0
H888 H 0.87887 0.79678 0.84303 0.0
H889 H 0.90371 0.77334 0.82387 0.0
H890 H 0.89992 0.81279 0.76293 0.0
H891 H 0.87479 0.83599 0.78179 0.0
H892 H 0.69522 0.72696 0.77227 0.0
H893 H 0.66867 0.74402 0.79556 0.0
H894 H 0.71782 0.78633 0.8545 0.0
H895 H 0.74413 0.76931 0.83162 0.0
C896 C 0.60322 0.56457 0.57931 0.0
Eu897 Eu 0.56376 0.54908 0.5629 0.0
C898 C 0.61861 0.54782 0.57546 0.0
C899 C 0.63309 0.5463 0.59554 0.0
C900 C 0.64346 0.52559 0.59402 0.0
C901 C 0.63937 0.50604 0.57244 0.0
C902 C 0.62565 0.50833 0.55195 0.0
C903 C 0.61539 0.52899 0.55344 0.0
C904 C 0.52992 0.54653 0.58965 0.0
C905 C 0.55399 0.48711 0.56099 0.0
C906 C 0.48508 0.49603 0.51159 0.0
Eu907 Eu 0.52458 0.51324 0.52821 0.0
C908 C 0.46788 0.5105 0.51391 0.0
C909 C 0.45984 0.51965 0.49337 0.0
C910 C 0.44871 0.53959 0.49678 0.0
C911 C 0.44501 0.55011 0.52065 0.0
C912 C 0.4512 0.53939 0.54078 0.0
C913 C 0.46264 0.5198 0.53749 0.0
C914 C 0.5579 0.51514 0.50094 0.0
C915 C 0.53553 0.57569 0.53001 0.0
O916 O 0.59439 0.57064 0.55932 0.0
O917 O 0.58955 0.55725 0.59347 0.0
O918 O 0.54815 0.56149 0.59744 0.0
O919 O 0.53032 0.53565 0.56716 0.0
O920 O 0.56746 0.50914 0.56597 0.0
O921 O 0.53549 0.48341 0.54718 0.0
O922 O 0.49419 0.49137 0.53215 0.0
O923 O 0.49872 0.50399 0.49767 0.0
O924 O 0.53963 0.5001 0.49394 0.0
O925 O 0.55818 0.52663 0.52351 0.0
O926 O 0.52191 0.5536 0.52358 0.0
O927 O 0.55349 0.57903 0.54465 0.0
H928 H 0.63544 0.56029 0.61286 0.0
H929 H 0.65422 0.52451 0.60996 0.0
H930 H 0.62194 0.49347 0.53518 0.0
H931 H 0.60386 0.52924 0.53788 0.0
H932 H 0.46358 0.51278 0.47499 0.0
H933 H 0.44383 0.54756 0.48102 0.0
H934 H 0.44846 0.54738 0.55936 0.0
H935 H 0.4686 0.51329 0.55376 0.0
C936 C 0.98384 0.54164 0.07126 0.0
Eu937 Eu 0.02106 0.53529 0.06089 0.0
C938 C 0.96779 0.55803 0.07125 0.0
C939 C 0.95465 0.55822 0.08975 0.0
C940 C 0.93696 0.56961 0.08822 0.0
C941 C 0.93211 0.58129 0.06826 0.0
C942 C 0.94602 0.5827 0.05058 0.0
C943 C 0.96375 0.5711 0.05203 0.0
C944 C 0.05256 0.52749 0.09448 0.0
C945 C 0.05149 0.59011 0.06043 0.0
C946 C 0.10432 0.53278 0.04398 0.0
Eu947 Eu 0.06491 0.53704 0.04264 0.0
C948 C 0.11861 0.51448 0.0382 0.0
C949 C 0.13145 0.51717 0.01967 0.0
C950 C 0.1481 0.504 0.01752 0.0
C951 C 0.15244 0.48799 0.03399 0.0
C952 C 0.13859 0.48372 0.05124 0.0
C953 C 0.12189 0.49688 0.05338 0.0
C954 C 0.03515 0.53817 1.00286 0.0
C955 C 0.03262 0.48275 0.03462 0.0
O956 O 0.98715 0.52915 0.04982 0.0
O957 O 1.001 0.54974 0.08737 0.0
O958 O 0.03314 0.51543 0.09099 0.0
O959 O 0.05428 0.54343 0.0802 0.0
O960 O 0.03242 0.57738 0.0612 0.0
O961 O 0.06752 0.57904 0.05581 0.0
O962 O 0.09341 0.5302 0.06217 0.0
O963 O 0.09396 0.53993 0.02569 0.0
O964 O 0.05517 0.53954 1.00203 0.0
O965 O 0.03232 0.53665 0.02497 0.0
O966 O 0.05222 0.49506 0.03709 0.0
O967 O 1.01691 0.49419 0.04039 0.0
H968 H 0.95739 0.54826 0.1047 0.0
H969 H 0.92635 0.56797 0.10188 0.0
H970 H 0.94243 0.59125 0.0348 0.0
H971 H 0.97367 0.57125 0.03753 0.0
H972 H 0.12936 0.53055 1.00771 0.0
H973 H 0.15827 0.50738 1.00374 0.0
H974 H 0.1415 0.47162 0.06427 0.0
H975 H 0.11233 0.49431 0.0679 0.0
H976 H 1.01209 0.21283 0.00944 0.0
H977 H 1.00435 0.17534 0.93163 0.0
H978 H 1.01438 0.13696 0.94342 0.0
H979 H 0.05878 0.18472 0.02702 0.0
H980 H 0.05176 0.18174 0.05713 0.0
H981 H 0.04466 0.20708 0.04295 0.0
H982 H 1.00559 0.19181 0.04725 0.0
H983 H 1.01258 0.16643 0.06136 0.0
H984 H 0.99296 0.15902 0.03411 0.0
H985 H 0.02206 0.10187 0.96254 0.0
H986 H 0.02964 0.07152 0.98886 0.0
H987 H 0.03522 0.13088 0.05504 0.0
C988 C 1.0126 0.19648 0.99505 0.0
C989 C 1.0073 0.19681 0.96962 0.0
C990 C 1.00836 0.17534 0.95117 0.0
C991 C 1.01406 0.15349 0.95766 0.0
C992 C 0.01911 0.15355 0.98274 0.0
C993 C 0.01884 0.1745 1.00124 0.0
C994 C 0.02538 0.16912 0.02673 0.0
C995 C 0.04639 0.18672 0.0392 0.0
C996 C 1.00809 0.17174 0.04333 0.0
C997 C 0.02804 0.14145 0.01957 0.0
C998 C 0.02455 0.13314 0.994 0.0
C999 C 0.02514 0.10818 0.98256 0.0
C1000 C 0.02938 0.09109 0.9976 0.0
C1001 C 0.03308 0.09904 0.02375 0.0
C1002 C 0.03261 0.12456 0.03501 0.0
H1003 H 0.13804 0.79814 0.25605 0.0
H1004 H 0.15132 0.80863 0.18304 0.0
H1005 H 0.18822 0.80412 0.19443 0.0
H1006 H 0.18633 0.83407 0.29003 0.0
H1007 H 0.18776 0.81319 0.31177 0.0
H1008 H 0.16256 0.81612 0.29701 0.0
H1009 H 0.15316 0.76686 0.28071 0.0
H1010 H 0.17842 0.76383 0.29531 0.0
H1011 H 0.17043 0.75125 0.26247 0.0
H1012 H 0.22457 0.7983 0.21513 0.0
H1013 H 0.25592 0.79488 0.24339 0.0
H1014 H 0.21772 0.7899 0.30234 0.0
C1015 C 0.1486 0.79941 0.2423 0.0
C1016 C 0.14168 0.80369 0.21859 0.0
C1017 C 0.1562 0.80534 0.20133 0.0
C1018 C 0.17719 0.80272 0.20763 0.0
C1019 C 0.18343 0.79847 0.23126 0.0
C1020 C 0.16945 0.79697 0.24829 0.0
C1021 C 0.17986 0.79313 0.27273 0.0
C1022 C 0.17908 0.81546 0.29414 0.0
C1023 C 0.16987 0.76723 0.27811 0.0
C1024 C 0.20204 0.79317 0.26716 0.0
C1025 C 0.2039 0.79584 0.24306 0.0
C1026 C 0.22316 0.7962 0.23399 0.0
C1027 C 0.24087 0.79413 0.25008 0.0
C1028 C 0.23919 0.79218 0.275 0.0
C1029 C 0.21948 0.7915 0.28341 0.0
H1030 H 0.52428 0.83622 0.46199 0.0
H1031 H 0.48106 0.8105 0.51084 0.0
H1032 H 0.48724 0.85432 0.53587 0.0
H1033 H 0.56138 0.88475 0.51122 0.0
H1034 H 0.5658 0.90682 0.49076 0.0
H1035 H 0.55994 0.87279 0.47828 0.0
H1036 H 0.52872 0.87853 0.44805 0.0
H1037 H 0.53429 0.91247 0.46061 0.0
H1038 H 0.50851 0.89392 0.46037 0.0
H1039 H 0.49394 0.90139 0.55204 0.0
H1040 H 0.50373 0.94866 0.56084 0.0
H1041 H 0.54384 0.94405 0.5031 0.0
C1042 C 0.51653 0.83965 0.47831 0.0
C1043 C 0.50213 0.81985 0.48435 0.0
C1044 C 0.49211 0.82529 0.50571 0.0
C1045 C 0.49553 0.85015 0.52012 0.0
C1046 C 0.5092 0.86937 0.51316 0.0
C1047 C 0.51983 0.86441 0.49302 0.0
C1048 C 0.53276 0.88887 0.4888 0.0
C1049 C 0.55637 0.88827 0.4925 0.0
C1050 C 0.52563 0.89372 0.46293 0.0
C1051 C 0.52725 0.90834 0.50928 0.0
C1052 C 0.51361 0.89666 0.52309 0.0
C1053 C 0.50495 0.91076 0.54172 0.0
C1054 C 0.51047 0.93755 0.54647 0.0
C1055 C 0.52466 0.94987 0.53282 0.0
C1056 C 0.53326 0.93504 0.51414 0.0
H1057 H 0.52222 0.26862 0.72343 0.0
H1058 H 0.50786 0.31719 0.67213 0.0
H1059 H 0.47157 0.31172 0.68053 0.0
H1060 H 0.46899 0.22519 0.70927 0.0
H1061 H 0.46869 0.22224 0.74116 0.0
H1062 H 0.49331 0.22694 0.72899 0.0
H1063 H 0.50762 0.26685 0.76433 0.0
H1064 H 0.4831 0.26226 0.77657 0.0
H1065 H 0.49307 0.29246 0.76871 0.0
H1066 H 0.43786 0.30471 0.69638 0.0
H1067 H 0.40831 0.29671 0.71986 0.0
H1068 H 0.44344 0.25381 0.76248 0.0
C1069 C 0.51129 0.27763 0.71363 0.0
C1070 C 0.51796 0.2929 0.69669 0.0
C1071 C 0.50322 0.30482 0.68465 0.0
C1072 C 0.48245 0.30194 0.68936 0.0
C1073 C 0.47641 0.28703 0.7062 0.0
C1074 C 0.49025 0.27495 0.71815 0.0
C1075 C 0.47968 0.26138 0.73657 0.0
C1076 C 0.47755 0.23221 0.72852 0.0
C1077 C 0.49158 0.27135 0.76312 0.0
C1078 C 0.45829 0.26902 0.73396 0.0
C1079 C 0.45668 0.28334 0.71591 0.0
C1080 C 0.43884 0.2934 0.71052 0.0
C1081 C 0.42221 0.28897 0.72415 0.0
C1082 C 0.42356 0.27487 0.74323 0.0
C1083 C 0.44179 0.26445 0.74787 0.0
H1084 H 1.00884 0.77197 0.57623 0.0
H1085 H 1.00072 0.80582 0.65106 0.0
H1086 H 0.03074 0.84095 0.6529 0.0
H1087 H 0.06906 0.79508 0.58608 0.0
H1088 H 0.06864 0.80107 0.55508 0.0
H1089 H 0.04992 0.7751 0.5611 0.0
H1090 H 0.01886 0.79341 0.54261 0.0
H1091 H 0.03757 0.81842 0.53563 0.0
H1092 H 0.01755 0.82646 0.55412 0.0
H1093 H 0.0571 0.87477 0.64518 0.0
H1094 H 0.07193 0.90932 0.62523 0.0
H1095 H 0.06317 0.85509 0.55493 0.0
C1096 C 1.01355 0.7869 0.59288 0.0
C1097 C 1.00242 0.78691 0.61333 0.0
C1098 C 1.00897 0.80615 0.63508 0.0
C1099 C 0.02625 0.82573 0.63649 0.0
C1100 C 0.03704 0.82548 0.61609 0.0
C1101 C 0.03087 0.80673 0.59454 0.0
C1102 C 0.04316 0.81321 0.57409 0.0
C1103 C 0.05861 0.79503 0.56878 0.0
C1104 C 0.0284 0.8129 0.55024 0.0
C1105 C 0.05499 0.83995 0.58654 0.0
C1106 C 0.05239 0.84584 0.61131 0.0
C1107 C 0.05958 0.87033 0.62594 0.0
C1108 C 0.06794 0.88987 0.61446 0.0
C1109 C 0.06829 0.88485 0.5885 0.0
C1110 C 0.06337 0.85932 0.57488 0.0
H1111 H 0.52783 0.8706 0.90957 0.0
H1112 H 0.53177 0.79195 0.91165 0.0
H1113 H 0.49327 0.77879 0.89994 0.0
H1114 H 0.47934 0.87023 0.93485 0.0
H1115 H 0.46922 0.88976 0.91518 0.0
H1116 H 0.4972 0.89324 0.92354 0.0
H1117 H 0.50178 0.88454 0.87682 0.0
H1118 H 0.47384 0.88136 0.8684 0.0
H1119 H 0.48678 0.85582 0.85627 0.0
H1120 H 0.45451 0.77428 0.88877 0.0
H1121 H 0.41802 0.77842 0.87495 0.0
H1122 H 0.43948 0.85985 0.88036 0.0
C1123 C 0.52053 0.85058 0.90687 0.0
C1124 C 0.53251 0.83206 0.91071 0.0
C1125 C 0.52262 0.80614 0.90801 0.0
C1126 C 0.50084 0.79857 0.90169 0.0
C1127 C 0.48928 0.81724 0.89824 0.0
C1128 C 0.49873 0.84266 0.90046 0.0
C1129 C 0.4826 0.85874 0.89547 0.0
C1130 C 0.48207 0.8792 0.91865 0.0
C1131 C 0.48648 0.87082 0.87289 0.0
C1132 C 0.46281 0.83837 0.8898 0.0
C1133 C 0.46691 0.81461 0.89181 0.0
C1134 C 0.45105 0.79279 0.8871 0.0
C1135 C 0.43044 0.79531 0.87944 0.0
C1136 C 0.42618 0.8194 0.87649 0.0
C1137 C 0.44248 0.84118 0.88225 0.0
H1138 H 0.50112 0.1859 0.07806 0.0
H1139 H 0.51414 0.17474 0.15339 0.0
H1140 H 0.54269 0.1525 0.1414 0.0
H1141 H 0.50394 0.12882 0.04738 0.0
H1142 H 0.51679 0.13907 0.02262 0.0
H1143 H 0.50169 0.15912 0.03931 0.0
H1144 H 0.5346 0.19597 0.04942 0.0
H1145 H 0.54997 0.17512 0.03355 0.0
H1146 H 0.55877 0.19133 0.06546 0.0
H1147 H 0.56105 0.1227 0.11995 0.0
H1148 H 0.5619 0.08379 0.09066 0.0
H1149 H 0.54354 0.11694 0.02905 0.0
C1150 C 0.50999 0.17868 0.09197 0.0
C1151 C 0.5052 0.18131 0.11641 0.0
C1152 C 0.51741 0.17236 0.13439 0.0
C1153 C 0.53395 0.16033 0.12788 0.0
C1154 C 0.53842 0.15812 0.10354 0.0
C1155 C 0.52677 0.16711 0.08587 0.0
C1156 C 0.53235 0.15884 0.06023 0.0
C1157 C 0.51253 0.14565 0.04133 0.0
C1158 C 0.54466 0.18168 0.05167 0.0
C1159 C 0.54647 0.14048 0.0656 0.0
C1160 C 0.55088 0.14163 0.091 0.0
C1161 C 0.55885 0.12242 0.10021 0.0
C1162 C 0.55991 0.10027 0.08336 0.0
C1163 C 0.55389 0.09796 0.05776 0.0
C1164 C 0.54901 0.11907 0.04866 0.0
H1165 H 0.11588 0.29075 0.40171 0.0
H1166 H 0.15001 0.36618 0.43952 0.0
H1167 H 0.16978 0.36885 0.4038 0.0
H1168 H 0.1559 0.26722 0.37542 0.0
H1169 H 0.13956 0.25049 0.34667 0.0
H1170 H 0.12804 0.25654 0.37465 0.0
H1171 H 0.10185 0.27923 0.35244 0.0
H1172 H 0.11392 0.27395 0.32457 0.0
H1173 H 0.11182 0.30594 0.33903 0.0
H1174 H 0.18866 0.35997 0.36702 0.0
H1175 H 0.20689 0.33901 0.33444 0.0
H1176 H 0.15698 0.27204 0.31835 0.0
C1177 C 0.12785 0.30757 0.40258 0.0
C1178 C 0.13228 0.32779 0.42344 0.0
C1179 C 0.14714 0.35017 0.42377 0.0
C1180 C 0.15801 0.35203 0.40346 0.0
C1181 C 0.15299 0.33179 0.38279 0.0
C1182 C 0.13816 0.31009 0.38224 0.0
C1183 C 0.13621 0.29045 0.35855 0.0
C1184 C 0.1402 0.26469 0.36416 0.0
C1185 C 0.11467 0.28722 0.34271 0.0
C1186 C 0.15358 0.30346 0.34665 0.0
C1187 C 0.16273 0.32765 0.36055 0.0
C1188 C 0.18125 0.34152 0.35547 0.0
C1189 C 0.19141 0.32961 0.33687 0.0
C1190 C 0.18286 0.30429 0.32377 0.0
C1191 C 0.16315 0.29181 0.32753 0.0
H1192 H 0.95861 0.08878 0.20146 0.0
H1193 H 0.96174 0.01599 0.22216 0.0
H1194 H 0.98151 1.00475 0.18715 0.0
H1195 H 0.95146 0.06347 0.13356 0.0
H1196 H 0.96683 0.09188 0.12721 0.0
H1197 H 0.95273 0.09418 0.1536 0.0
H1198 H 0.98733 0.11647 0.18265 0.0
H1199 H 1.00152 0.11415 0.15636 0.0
H1200 H 1.00969 0.10093 0.18259 0.0
H1201 H 1.00323 1.00251 0.15083 0.0
H1202 H 0.02185 1.00774 0.11545 0.0
H1203 H 1.00383 0.08058 0.11503 0.0
C1204 C 0.96323 0.0703 0.19854 0.0
C1205 C 0.95828 0.05324 0.21495 0.0
C1206 C 0.96488 0.02937 0.21008 0.0
C1207 C 0.97632 0.02288 0.19017 0.0
C1208 C 0.98101 0.04018 0.17462 0.0
C1209 C 0.9744 0.0633 0.17835 0.0
C1210 C 0.98124 0.07825 0.15857 0.0
C1211 C 0.96192 0.08219 0.14227 0.0
C1212 C 0.99581 0.10398 0.17078 0.0
C1213 C 0.99314 0.06026 0.1434 0.0
C1214 C 0.99274 0.03843 0.15311 0.0
C1215 C 1.00301 0.01929 0.14287 0.0
C1216 C 1.01347 0.02217 0.12221 0.0
C1217 C 1.01394 0.04378 0.11111 0.0
C1218 C 1.00371 0.06341 0.12241 0.0
H1219 H 0.33496 0.73529 0.52102 0.0
H1220 H 0.32764 0.80681 0.56601 0.0
H1221 H 0.2936 0.80422 0.53988 0.0
H1222 H 0.31631 0.74526 0.46423 0.0
H1223 H 0.30312 0.7125 0.4518 0.0
H1224 H 0.32514 0.71943 0.47599 0.0
H1225 H 0.30222 0.69545 0.50355 0.0
H1226 H 0.28045 0.68841 0.47864 0.0
H1227 H 0.27748 0.70438 0.50924 0.0
H1228 H 0.26453 0.79734 0.50556 0.0
H1229 H 0.24867 0.79224 0.46252 0.0
H1230 H 0.26835 0.71949 0.44357 0.0
C1231 C 0.32629 0.75061 0.52495 0.0
C1232 C 0.33406 0.77181 0.54461 0.0
C1233 C 0.32211 0.791 0.55023 0.0
C1234 C 0.30258 0.78925 0.536 0.0
C1235 C 0.29499 0.7676 0.51708 0.0
C1236 C 0.30654 0.74866 0.51154 0.0
C1237 C 0.29604 0.72871 0.4888 0.0
C1238 C 0.31101 0.72638 0.46903 0.0
C1239 C 0.28863 0.70269 0.49549 0.0
C1240 C 0.27751 0.74046 0.4811 0.0
C1241 C 0.27686 0.76254 0.49812 0.0
C1242 C 0.26452 0.77986 0.49237 0.0
C1243 C 0.25519 0.77656 0.4677 0.0
C1244 C 0.2586 0.75621 0.44939 0.0
C1245 C 0.26636 0.73575 0.45721 0.0
H1246 H 0.60188 0.04309 0.73696 0.0
H1247 H 0.64192 0.98948 0.71405 0.0
H1248 H 0.62813 0.98735 0.6698 0.0
H1249 H 0.5572 0.01396 0.69144 0.0
H1250 H 0.55035 0.04393 0.68732 0.0
H1251 H 0.56418 0.04172 0.71657 0.0
H1252 H 0.5935 0.07932 0.71351 0.0
H1253 H 0.57977 0.08152 0.68414 0.0
H1254 H 0.60668 0.07724 0.68638 0.0
H1255 H 0.60829 0.99139 0.62601 0.0
H1256 H 0.58427 0.99887 0.59097 0.0
H1257 H 0.5573 0.04891 0.64357 0.0
C1258 C 0.60793 0.03088 0.72276 0.0
C1259 C 0.62322 0.01647 0.72951 0.0
C1260 C 0.63035 1.0008 0.70983 0.0
C1261 C 0.62255 0.99952 0.68446 0.0
C1262 C 0.60747 0.01401 0.6786 0.0
C1263 C 0.60027 0.02935 0.69744 0.0
C1264 C 0.58372 0.04269 0.68675 0.0
C1265 C 0.56261 0.03511 0.69607 0.0
C1266 C 0.59138 0.07193 0.69308 0.0
C1267 C 0.58223 0.0322 0.65895 0.0
C1268 C 0.59625 0.01597 0.65434 0.0
C1269 C 0.59743 1.00421 0.62974 0.0
C1270 C 0.58388 1.0088 0.60974 0.0
C1271 C 0.56906 0.02488 0.61418 0.0
C1272 C 0.56851 0.03668 0.63929 0.0
H1273 H 0.3124 0.37421 0.99469 0.0
H1274 H 0.32988 0.30821 0.01953 0.0
H1275 H 0.32331 0.28395 0.97619 0.0
H1276 H 0.27102 0.33845 0.94266 0.0
H1277 H 0.27835 0.36021 0.92264 0.0
H1278 H 0.28223 0.37166 0.95588 0.0
H1279 H 0.32161 0.38883 0.95479 0.0
H1280 H 0.31792 0.37716 0.92163 0.0
H1281 H 0.33749 0.36724 0.94129 0.0
H1282 H 0.3193 0.26855 0.9304 0.0
H1283 H 0.31467 0.26145 0.88448 0.0
H1284 H 0.29828 0.33622 0.88829 0.0
C1285 C 0.31423 0.35441 0.99104 0.0
C1286 C 0.32153 0.34303 0.01056 0.0
C1287 C 0.32429 0.31731 1.00493 0.0
C1288 C 0.3206 0.30336 0.98035 0.0
C1289 C 0.31414 0.31534 0.96147 0.0
C1290 C 0.31072 0.34017 0.96644 0.0
C1291 C 0.30499 0.3489 0.94243 0.0
C1292 C 0.28282 0.35516 0.94081 0.0
C1293 C 0.32148 0.37189 0.9399 0.0
C1294 C 0.30575 0.3251 0.9233 0.0
C1295 C 0.31128 0.3061 0.93477 0.0
C1296 C 0.3146 0.28308 0.92118 0.0
C1297 C 0.31208 0.27927 0.89517 0.0
C1298 C 0.30595 0.29816 0.88299 0.0
C1299 C 0.30262 0.32131 0.89723 0.0
H1300 H 0.96253 0.07741 0.3827 0.0
H1301 H 0.95237 0.99871 0.34225 0.0
H1302 H 0.96909 0.98643 0.37927 0.0
H1303 H 1.01428 0.0771 0.41453 0.0
H1304 H 1.01149 0.09739 0.44327 0.0
H1305 H 0.99741 0.10022 0.41434 0.0
H1306 H 0.96235 0.09269 0.43215 0.0
H1307 H 0.9764 0.08993 0.46113 0.0
H1308 H 0.95521 0.06448 0.44467 0.0
H1309 H 0.98798 0.98228 0.41986 0.0
H1310 H 1.00785 0.9863 0.4612 0.0
H1311 H 1.0078 0.06789 0.47747 0.0
C1312 C 0.96346 0.05751 0.38186 0.0
C1313 C 0.95566 0.03888 0.3594 0.0
C1314 C 0.95793 1.01327 0.35904 0.0
C1315 C 0.96748 1.00611 0.38008 0.0
C1316 C 0.97524 0.02479 0.40168 0.0
C1317 C 0.97348 0.05004 0.40282 0.0
C1318 C 0.98437 0.06635 0.42816 0.0
C1319 C 1.00299 0.08646 0.42487 0.0
C1320 C 0.96864 0.07911 0.44237 0.0
C1321 C 0.9921 0.04622 0.4411 0.0
C1322 C 0.98665 0.02244 0.42526 0.0
C1323 C 0.99229 1.00083 0.43238 0.0
C1324 C 1.00375 1.00338 0.45609 0.0
C1325 C 1.00969 0.02738 0.47307 0.0
C1326 C 1.00358 0.04915 0.46525 0.0
H1327 H 0.33146 0.72192 0.64725 0.0
H1328 H 0.36613 0.79613 0.64193 0.0
H1329 H 0.34263 0.81724 0.66711 0.0
H1330 H 0.27803 0.74193 0.64796 0.0
H1331 H 0.2711 0.72171 0.66949 0.0
H1332 H 0.28767 0.71256 0.64667 0.0
H1333 H 0.31649 0.70876 0.68131 0.0
H1334 H 0.29955 0.71683 0.70362 0.0
H1335 H 0.32578 0.73556 0.70712 0.0
H1336 H 0.32061 0.83014 0.69773 0.0
H1337 H 0.30939 0.83294 0.73901 0.0
H1338 H 0.28619 0.75131 0.72275 0.0
C1339 C 0.33396 0.74262 0.65111 0.0
C1340 C 0.35055 0.75733 0.64253 0.0
C1341 C 0.35359 0.7844 0.64842 0.0
C1342 C 0.33996 0.79655 0.66213 0.0
C1343 C 0.32322 0.78139 0.66944 0.0
C1344 C 0.32037 0.75498 0.66442 0.0
C1345 C 0.30355 0.74313 0.67779 0.0
C1346 C 0.28389 0.72902 0.65938 0.0
C1347 C 0.31187 0.72508 0.6934 0.0
C1348 C 0.29931 0.7671 0.69363 0.0
C1349 C 0.30978 0.78906 0.68732 0.0
C1350 C 0.31182 0.81328 0.7024 0.0
C1351 C 0.3053 0.81479 0.72575 0.0
C1352 C 0.29696 0.79222 0.73334 0.0
C1353 C 0.292 0.76865 0.71649 0.0
H1354 H 0.60175 0.01449 0.865 0.0
H1355 H 0.66663 0.02984 0.90014 0.0
H1356 H 0.65463 0.03309 0.94137 0.0
H1357 H 0.58123 0.05579 0.91278 0.0
H1358 H 0.55676 0.03368 0.91068 0.0
H1359 H 0.5703 0.03356 0.88393 0.0
H1360 H 0.57052 0.98538 0.88049 0.0
H1361 H 0.55705 0.98536 0.90729 0.0
H1362 H 0.5817 0.97456 0.90694 0.0
H1363 H 0.63549 0.03454 0.9796 0.0
H1364 H 0.61161 0.03341 0.01098 0.0
H1365 H 0.55789 0.0154 0.95264 0.0
C1366 C 0.61349 0.01887 0.88139 0.0
C1367 C 0.6354 0.02227 0.87891 0.0
C1368 C 0.64992 0.02732 0.9011 0.0
C1369 C 0.64317 0.02918 0.92478 0.0
C1370 C 0.62161 0.02554 0.92652 0.0
C1371 C 0.60692 0.02033 0.90537 0.0
C1372 C 0.58464 0.01621 0.91254 0.0
C1373 C 0.57251 0.03599 0.9045 0.0
C1374 C 0.57277 0.98875 0.90113 0.0
C1375 C 0.58902 0.02042 0.94102 0.0
C1376 C 0.61054 0.02574 0.94853 0.0
C1377 C 0.61866 0.03035 0.97373 0.0
C1378 C 0.60475 0.02964 0.99162 0.0
C1379 C 0.58248 0.02431 0.9849 0.0
C1380 C 0.57466 0.01953 0.95888 0.0
H1381 H 0.30866 0.31609 0.12205 0.0
H1382 H 0.31858 0.39671 0.15649 0.0
H1383 H 0.31345 0.38549 0.19694 0.0
H1384 H 0.26644 0.29741 0.16201 0.0
H1385 H 0.27397 0.267 0.16264 0.0
H1386 H 0.2767 0.28121 0.13585 0.0
H1387 H 0.31607 0.2782 0.14019 0.0
H1388 H 0.3136 0.2645 0.16725 0.0
H1389 H 0.33295 0.29311 0.16909 0.0
H1390 H 0.31283 0.36639 0.23414 0.0
H1391 H 0.3097 0.34036 0.26589 0.0
H1392 H 0.29622 0.27091 0.20833 0.0
C1393 C 0.30905 0.33125 0.13801 0.0
C1394 C 0.31382 0.35731 0.13616 0.0
C1395 C 0.31454 0.37669 0.15743 0.0
C1396 C 0.31183 0.37049 0.18053 0.0
C1397 C 0.30773 0.34474 0.18196 0.0
C1398 C 0.30551 0.32533 0.16119 0.0
C1399 C 0.30053 0.29924 0.16819 0.0
C1400 C 0.27808 0.28539 0.15648 0.0
C1401 C 0.31677 0.2828 0.16074 0.0
C1402 C 0.30205 0.30711 0.19635 0.0
C1403 C 0.3061 0.33351 0.20368 0.0
C1404 C 0.30918 0.34571 0.2286 0.0
C1405 C 0.30751 0.33065 0.24655 0.0
C1406 C 0.3026 0.30352 0.23973 0.0
C1407 C 0.29998 0.29157 0.21418 0.0
H1408 H 0.21158 0.91282 0.01448 0.0
H1409 H 0.19045 0.86342 0.06404 0.0
H1410 H 0.16364 0.88902 0.07449 0.0
H1411 H 0.21046 0.9683 0.05214 0.0
H1412 H 0.20105 0.98475 0.02899 0.0
H1413 H 0.21518 0.95949 0.02044 0.0
H1414 H 0.18425 0.93495 0.98649 0.0
H1415 H 0.17008 0.96047 0.99441 0.0
H1416 H 0.15815 0.92796 0.99462 0.0
H1417 H 0.14564 0.92451 0.08674 0.0
H1418 H 0.13237 0.96483 0.09522 0.0
H1419 H 0.1647 0.99132 0.03749 0.0
C1420 C 0.20079 0.90684 0.02681 0.0
C1421 C 0.20312 0.88635 0.03863 0.0
C1422 C 0.18897 0.87922 0.05494 0.0
C1423 C 0.17365 0.89356 0.0609 0.0
C1424 C 0.17262 0.91466 0.05013 0.0
C1425 C 0.18545 0.92099 0.03299 0.0
C1426 C 0.1827 0.94618 0.02628 0.0
C1427 C 0.20358 0.96582 0.03234 0.0
C1428 C 0.17322 0.94214 0.99882 0.0
C1429 C 0.16721 0.95368 0.0434 0.0
C1430 C 0.16151 0.93511 0.05682 0.0
C1431 C 0.1493 0.93885 0.07578 0.0
C1432 C 0.14219 0.96193 0.08075 0.0
C1433 C 0.14752 0.98101 0.06694 0.0
C1434 C 0.16013 0.97678 0.04799 0.0
H1435 H 0.70167 0.59778 0.05704 0.0
H1436 H 0.68923 0.64672 1.0056 0.0
H1437 H 0.65089 0.63205 1.0045 0.0
H1438 H 0.66156 0.54521 0.02858 0.0
H1439 H 0.65535 0.53676 0.05735 0.0
H1440 H 0.68144 0.55302 0.05561 0.0
H1441 H 0.67874 0.58876 0.0928 0.0
H1442 H 0.6525 0.57267 0.09446 0.0
H1443 H 0.65718 0.60554 0.09109 0.0
H1444 H 0.61319 0.61056 1.00859 0.0
H1445 H 0.58091 0.58127 0.01371 0.0
H1446 H 0.61873 0.5451 0.06035 0.0
C1447 C 0.69095 0.6057 0.0457 0.0
C1448 C 0.6986 0.62361 0.03152 0.0
C1449 C 0.68386 0.6331 0.01672 0.0
C1450 C 0.66202 0.62494 0.01608 0.0
C1451 C 0.65506 0.60722 0.03031 0.0
C1452 C 0.66919 0.59762 0.0447 0.0
C1453 C 0.65792 0.57759 0.0571 0.0
C1454 C 0.66445 0.55161 0.04917 0.0
C1455 C 0.66182 0.58669 0.08555 0.0
C1456 C 0.63523 0.57669 0.04684 0.0
C1457 C 0.63376 0.59439 0.03195 0.0
C1458 C 0.61425 0.59679 0.02033 0.0
C1459 C 0.59597 0.58025 0.02348 0.0
C1460 C 0.59738 0.5613 0.03773 0.0
C1461 C 0.61724 0.55976 0.04971 0.0
H1462 H 0.73394 0.463 0.30353 0.0
H1463 H 0.6808 0.43686 0.33925 0.0
H1464 H 0.6923 0.39561 0.33868 0.0
H1465 H 0.73249 0.39814 0.26337 0.0
H1466 H 0.76068 0.40271 0.2651 0.0
H1467 H 0.74791 0.42991 0.2671 0.0
H1468 H 0.77138 0.45125 0.30895 0.0
H1469 H 0.78411 0.42407 0.30715 0.0
H1470 H 0.77189 0.43424 0.33405 0.0
H1471 H 0.70984 0.35618 0.33487 0.0
H1472 H 0.7318 0.32311 0.32846 0.0
H1473 H 0.77504 0.37316 0.29621 0.0
C1474 C 0.72448 0.4484 0.31076 0.0
C1475 C 0.70593 0.45345 0.32099 0.0
C1476 C 0.69461 0.43367 0.33077 0.0
C1477 C 0.70116 0.41002 0.33066 0.0
C1478 C 0.71932 0.40562 0.32056 0.0
C1479 C 0.73078 0.42418 0.31056 0.0
C1480 C 0.74973 0.41416 0.30084 0.0
C1481 C 0.74759 0.41106 0.27242 0.0
C1482 C 0.77051 0.432 0.31352 0.0
C1483 C 0.74772 0.3878 0.30805 0.0
C1484 C 0.72972 0.38312 0.31892 0.0
C1485 C 0.72393 0.35983 0.32635 0.0
C1486 C 0.73657 0.34095 0.32257 0.0
C1487 C 0.75538 0.34506 0.31189 0.0
C1488 C 0.76096 0.36916 0.30467 0.0
H1489 H 0.8197 0.37055 0.49742 0.0
H1490 H 0.81435 0.40689 0.57269 0.0
H1491 H 0.84975 0.4332 0.5769 0.0
H1492 H 0.87708 0.37131 0.50772 0.0
H1493 H 0.88129 0.37929 0.47818 0.0
H1494 H 0.85638 0.36087 0.48153 0.0
H1495 H 0.83722 0.39419 0.46568 0.0
H1496 H 0.86205 0.41275 0.4624 0.0
H1497 H 0.84467 0.42743 0.48119 0.0
H1498 H 0.88365 0.45779 0.57254 0.0
H1499 H 0.91555 0.47995 0.55957 0.0
H1500 H 0.89987 0.42933 0.48672 0.0
C1501 C 0.82625 0.38381 0.51481 0.0
C1502 C 0.81446 0.38691 0.53478 0.0
C1503 C 0.8232 0.40456 0.55719 0.0
C1504 C 0.8433 0.41944 0.55981 0.0
C1505 C 0.85442 0.41656 0.53974 0.0
C1506 C 0.84635 0.39928 0.51763 0.0
C1507 C 0.86124 0.40169 0.4985 0.0
C1508 C 0.86949 0.3768 0.49105 0.0
C1509 C 0.85066 0.40948 0.47559 0.0
C1510 C 0.87862 0.42317 0.51333 0.0
C1511 C 0.87432 0.43125 0.53711 0.0
C1512 C 0.88735 0.45157 0.55405 0.0
C1513 C 0.90531 0.46414 0.54647 0.0
C1514 C 0.91006 0.45636 0.52218 0.0
C1515 C 0.89665 0.43544 0.50548 0.0
H1516 H 0.36216 0.11776 0.32449 0.0
H1517 H 0.40179 0.12471 0.26704 0.0
H1518 H 0.38768 0.16276 0.25946 0.0
H1519 H 0.31657 0.13638 0.29331 0.0
H1520 H 0.31015 0.15364 0.32175 0.0
H1521 H 0.32323 0.12697 0.32233 0.0
H1522 H 0.35303 0.15601 0.35522 0.0
H1523 H 0.34009 0.1828 0.3546 0.0
H1524 H 0.36693 0.18519 0.34864 0.0
H1525 H 0.37057 0.20342 0.26066 0.0
H1526 H 0.35012 0.23824 0.26709 0.0
H1527 H 0.31914 0.20303 0.32109 0.0
C1528 C 0.36774 0.12697 0.31002 0.0
C1529 C 0.38326 0.11764 0.29632 0.0
C1530 C 0.38994 0.13086 0.27775 0.0
C1531 C 0.38202 0.15278 0.27341 0.0
C1532 C 0.36705 0.16158 0.2875 0.0
C1533 C 0.35976 0.14874 0.3052 0.0
C1534 C 0.34354 0.16193 0.3178 0.0
C1535 C 0.3221 0.14364 0.31354 0.0
C1536 C 0.35136 0.17208 0.34572 0.0
C1537 C 0.34259 0.18407 0.30436 0.0
C1538 C 0.35662 0.18387 0.28729 0.0
C1539 C 0.35945 0.2034 0.2738 0.0
C1540 C 0.34772 0.22326 0.27761 0.0
C1541 C 0.33266 0.2235 0.29433 0.0
C1542 C 0.33018 0.20338 0.30781 0.0
H1543 H 0.33954 0.16074 0.55038 0.0
H1544 H 0.29515 0.08911 0.54154 0.0
H1545 H 0.32449 0.06711 0.5496 0.0
H1546 H 0.37977 0.1379 0.52216 0.0
H1547 H 0.40143 0.15738 0.54437 0.0
H1548 H 0.37701 0.16836 0.53991 0.0
H1549 H 0.37457 0.17331 0.58688 0.0
H1550 H 0.39912 0.16254 0.59153 0.0
H1551 H 0.37599 0.14641 0.60145 0.0
H1552 H 0.3579 0.05193 0.55503 0.0
H1553 H 0.39423 0.04449 0.56015 0.0
H1554 H 0.41829 0.12553 0.56656 0.0
C1555 C 0.33603 0.14051 0.55043 0.0
C1556 C 0.315 0.1266 0.54523 0.0
C1557 C 0.31106 0.10019 0.54567 0.0
C1558 C 0.32764 0.0875 0.55016 0.0
C1559 C 0.34815 0.10155 0.55478 0.0
C1560 C 0.35249 0.12756 0.55548 0.0
C1561 C 0.37613 0.13789 0.56109 0.0
C1562 C 0.38404 0.15115 0.54064 0.0
C1563 C 0.38179 0.15612 0.58676 0.0
C1564 C 0.38435 0.11325 0.56141 0.0
C1565 C 0.36779 0.0927 0.5583 0.0
C1566 C 0.37101 0.06787 0.55775 0.0
C1567 C 0.39168 0.06382 0.56061 0.0
C1568 C 0.40898 0.08436 0.56372 0.0
C1569 C 0.4053 0.10947 0.56409 0.0
H1570 H 0.7159 0.61815 0.35852 0.0
H1571 H 0.70643 0.57336 0.28327 0.0
H1572 H 0.72477 0.61096 0.26924 0.0
H1573 H 0.70689 0.67815 0.33814 0.0
H1574 H 0.72549 0.69885 0.3632 0.0
H1575 H 0.71146 0.66862 0.36748 0.0
H1576 H 0.74673 0.65545 0.3802 0.0
H1577 H 0.76083 0.68565 0.37612 0.0
H1578 H 0.76639 0.6561 0.35962 0.0
H1579 H 0.74647 0.65389 0.26357 0.0
H1580 H 0.76824 0.69687 0.26684 0.0
H1581 H 0.76269 0.71593 0.34507 0.0
C1582 C 0.71764 0.61623 0.33906 0.0
C1583 C 0.70961 0.59222 0.32209 0.0
C1584 C 0.71216 0.59114 0.29676 0.0
C1585 C 0.72268 0.61259 0.28858 0.0
C1586 C 0.73033 0.63582 0.30567 0.0
C1587 C 0.72763 0.63789 0.33037 0.0
C1588 C 0.73679 0.66539 0.34473 0.0
C1589 C 0.71912 0.67853 0.35395 0.0
C1590 C 0.7537 0.66565 0.36645 0.0
C1591 C 0.74628 0.67801 0.32476 0.0
C1592 C 0.742 0.66067 0.30221 0.0
C1593 C 0.74948 0.66758 0.28111 0.0
C1594 C 0.76176 0.69233 0.28307 0.0
C1595 C 0.76669 0.71062 0.30589 0.0
C1596 C 0.75865 0.70307 0.32704 0.0
H1597 H 0.85984 0.48567 0.82271 0.0
H1598 H 0.90796 0.47035 0.77681 0.0
H1599 H 0.89262 0.42393 0.76844 0.0
H1600 H 0.85707 0.43344 0.85135 0.0
H1601 H 0.82886 0.42679 0.84998 0.0
H1602 H 0.84243 0.45877 0.85051 0.0
H1603 H 0.81905 0.45928 0.80972 0.0
H1604 H 0.80529 0.4273 0.80915 0.0
H1605 H 0.81747 0.43415 0.78279 0.0
H1606 H 0.87225 0.37774 0.7667 0.0
H1607 H 0.84969 0.33795 0.77203 0.0
H1608 H 0.81549 0.38326 0.82006 0.0
C1609 C 0.86704 0.47265 0.81059 0.0
C1610 C 0.88524 0.48206 0.8004 0.0
C1611 C 0.89397 0.46401 0.78467 0.0
C1612 C 0.88536 0.43744 0.77988 0.0
C1613 C 0.86768 0.42886 0.79059 0.0
C1614 C 0.85847 0.44608 0.80536 0.0
C1615 C 0.83964 0.43204 0.8148 0.0
C1616 C 0.84217 0.43812 0.84336 0.0
C1617 C 0.81915 0.43859 0.80345 0.0
C1618 C 0.84053 0.40417 0.80463 0.0
C1619 C 0.85641 0.40269 0.79004 0.0
C1620 C 0.85983 0.3789 0.77813 0.0
C1621 C 0.84688 0.35629 0.78126 0.0
C1622 C 0.83086 0.35724 0.79671 0.0
C1623 C 0.82774 0.3817 0.80844 0.0
H1624 H 0.08032 0.85818 0.09905 0.0
H1625 H 0.06264 0.89144 0.1695 0.0
H1626 H 0.05576 0.92873 0.15292 0.0
H1627 H 0.10723 0.92254 0.08876 0.0
H1628 H 0.0995 0.91428 0.05549 0.0
H1629 H 0.10441 0.88987 0.07234 0.0
H1630 H 0.0673 0.86327 0.05505 0.0
H1631 H 0.0619 0.88718 0.03786 0.0
H1632 H 0.04465 0.87775 0.0593 0.0
H1633 H 0.041 0.9539 0.12597 0.0
H1634 H 0.03325 0.97914 0.09485 0.0
H1635 H 0.06887 0.93956 0.04483 0.0
C1636 C 0.07607 0.874 0.11125 0.0
C1637 C 0.07229 0.87228 0.13571 0.0
C1638 C 0.06605 0.8928 0.15098 0.0
C1639 C 0.06181 0.91384 0.14161 0.0
C1640 C 0.06465 0.91449 0.11718 0.0
C1641 C 0.07268 0.89601 0.1025 0.0
C1642 C 0.0747 0.90257 0.07706 0.0
C1643 C 0.09785 0.9076 0.07313 0.0
C1644 C 0.06134 0.88142 0.05608 0.0
C1645 C 0.06586 0.92708 0.07974 0.0
C1646 C 0.05941 0.93263 0.10281 0.0
C1647 C 0.04737 0.95106 0.1086 0.0
C1648 C 0.04308 0.96546 0.09104 0.0
C1649 C 0.05166 0.96276 0.06868 0.0
C1650 C 0.06295 0.94287 0.06246 0.0
H1651 H 0.92844 0.26119 0.91198 0.0
H1652 H 0.96719 0.2776 0.85543 0.0
H1653 H 0.93688 0.28496 0.83003 0.0
H1654 H 0.88196 0.22812 0.87158 0.0
H1655 H 0.86354 0.24222 0.8891 0.0
H1656 H 0.88856 0.2397 0.90475 0.0
H1657 H 0.89648 0.2885 0.92276 0.0
H1658 H 0.87147 0.29113 0.907 0.0
H1659 H 0.89541 0.31037 0.90196 0.0
H1660 H 0.90376 0.28795 0.80894 0.0
H1661 H 0.86708 0.28524 0.79167 0.0
H1662 H 0.84677 0.2684 0.8601 0.0
C1663 C 0.93046 0.26658 0.89437 0.0
C1664 C 0.95042 0.26901 0.88593 0.0
C1665 C 0.95235 0.27598 0.86269 0.0
C1666 C 0.93514 0.28023 0.84796 0.0
C1667 C 0.91588 0.27791 0.85666 0.0
C1668 C 0.9132 0.27142 0.87927 0.0
C1669 C 0.8902 0.26993 0.88327 0.0
C1670 C 0.8805 0.2434 0.8874 0.0
C1671 C 0.88828 0.29124 0.90505 0.0
C1672 C 0.88044 0.27481 0.8586 0.0
C1673 C 0.89592 0.27996 0.84404 0.0
C1674 C 0.89146 0.28422 0.8202 0.0
C1675 C 0.87054 0.28261 0.81054 0.0
C1676 C 0.85413 0.27677 0.82454 0.0
C1677 C 0.85909 0.27334 0.84919 0.0
H1678 H 0.55163 0.21897 0.64456 0.0
H1679 H 0.5742 0.25539 0.58653 0.0
H1680 H 0.57874 0.21333 0.56302 0.0
H1681 H 0.58466 0.17058 0.64125 0.0
H1682 H 0.56394 0.1462 0.64617 0.0
H1683 H 0.56466 0.17942 0.65938 0.0
H1684 H 0.52672 0.17563 0.63735 0.0
H1685 H 0.52585 0.14242 0.62425 0.0
H1686 H 0.52078 0.16401 0.60414 0.0
H1687 H 0.58009 0.16677 0.54581 0.0
H1688 H 0.57409 0.11926 0.53397 0.0
H1689 H 0.54807 0.11396 0.60208 0.0
C1690 C 0.55781 0.218 0.62706 0.0
C1691 C 0.5629 0.24009 0.61731 0.0
C1692 C 0.57046 0.23843 0.59419 0.0
C1693 C 0.57315 0.21474 0.58086 0.0
C1694 C 0.56796 0.1931 0.59094 0.0
C1695 C 0.5602 0.19453 0.6134 0.0
C1696 C 0.55405 0.16835 0.61923 0.0
C1697 C 0.56764 0.16601 0.64291 0.0
C1698 C 0.53045 0.16225 0.62135 0.0
C1699 C 0.55918 0.15186 0.59636 0.0
C1700 C 0.56765 0.16643 0.5805 0.0
C1701 C 0.57349 0.15518 0.5581 0.0
C1702 C 0.57013 0.12831 0.55156 0.0
C1703 C 0.56059 0.11328 0.56714 0.0
C1704 C 0.55533 0.12521 0.58988 0.0
H1705 H 0.58512 0.82101 0.41119 0.0
H1706 H 0.56216 0.73873 0.39655 0.0
H1707 H 0.59579 0.73152 0.38337 0.0
H1708 H 0.61152 0.8216 0.35914 0.0
H1709 H 0.63372 0.84619 0.37455 0.0
H1710 H 0.60867 0.84526 0.38555 0.0
H1711 H 0.62608 0.84366 0.42947 0.0
H1712 H 0.6512 0.84449 0.41851 0.0
H1713 H 0.64078 0.81892 0.43313 0.0
H1714 H 0.63048 0.73255 0.36918 0.0
H1715 H 0.66357 0.742 0.3521 0.0
H1716 H 0.66498 0.82349 0.37515 0.0
C1717 C 0.58729 0.80151 0.40551 0.0
C1718 C 0.5709 0.78047 0.40495 0.0
C1719 C 0.57435 0.75522 0.39712 0.0
C1720 C 0.5935 0.75087 0.38973 0.0
C1721 C 0.60922 0.7719 0.39027 0.0
C1722 C 0.60641 0.79675 0.39789 0.0
C1723 C 0.62552 0.81582 0.39504 0.0
C1724 C 0.61949 0.83323 0.37752 0.0
C1725 C 0.63655 0.83166 0.42056 0.0
C1726 C 0.63895 0.79773 0.38357 0.0
C1727 C 0.62941 0.7725 0.38161 0.0
C1728 C 0.63826 0.75222 0.37086 0.0
C1729 C 0.65716 0.7578 0.36133 0.0
C1730 C 0.66697 0.78346 0.36233 0.0
C1731 C 0.65786 0.80367 0.37404 0.0
H1732 H 0.05674 0.27693 0.48497 0.0
H1733 H 0.08179 0.30948 0.56228 0.0
H1734 H 0.06605 0.26907 0.57367 0.0
H1735 H 1.00848 0.24993 0.49603 0.0
H1736 H 1.00422 0.22149 0.47184 0.0
H1737 H 0.02096 0.25037 0.46853 0.0
H1738 H 0.05187 0.22661 0.4624 0.0
H1739 H 0.03502 0.19736 0.4647 0.0
H1740 H 0.05979 0.20861 0.48492 0.0
H1741 H 0.04339 0.22964 0.57727 0.0
H1742 H 0.02063 0.18807 0.57303 0.0
H1743 H 1.0086 0.18104 0.49285 0.0
C1744 C 0.05977 0.27499 0.50406 0.0
C1745 C 0.07081 0.29569 0.52282 0.0
C1746 C 0.07375 0.29331 0.54781 0.0
C1747 C 0.06472 0.27065 0.55437 0.0
C1748 C 0.05271 0.25112 0.53561 0.0
C1749 C 0.05054 0.25276 0.51089 0.0
C1750 C 0.03515 0.23007 0.49477 0.0
C1751 C 1.01609 0.23849 0.48205 0.0
C1752 C 0.04612 0.21474 0.47558 0.0
C1753 C 0.0289 0.21546 0.51443 0.0
C1754 C 0.03907 0.22821 0.53778 0.0
C1755 C 0.03544 0.21928 0.55911 0.0
C1756 C 0.02201 0.19579 0.55644 0.0
C1757 C 1.01255 0.18128 0.53252 0.0
C1758 C 1.01542 0.19179 0.51133 0.0
H1759 H 0.56227 0.21019 0.18715 0.0
H1760 H 0.57206 0.2848 0.16734 0.0
H1761 H 0.61042 0.28921 0.17833 0.0
H1762 H 0.60029 0.2251 0.23921 0.0
H1763 H 0.60906 0.19498 0.23392 0.0
H1764 H 0.58254 0.19638 0.2222 0.0
H1765 H 0.58804 0.17645 0.1775 0.0
H1766 H 0.61452 0.1746 0.18919 0.0
H1767 H 0.60988 0.19112 0.16429 0.0
H1768 H 0.64682 0.28776 0.19616 0.0
H1769 H 0.67952 0.27912 0.2167 0.0
H1770 H 0.64617 0.20427 0.22236 0.0
C1771 C 0.57252 0.22734 0.18492 0.0
C1772 C 0.56432 0.24728 0.1767 0.0
C1773 C 0.57812 0.26933 0.17369 0.0
C1774 C 0.59988 0.272 0.17984 0.0
C1775 C 0.60746 0.25222 0.18846 0.0
C1776 C 0.59425 0.23014 0.1906 0.0
C1777 C 0.60634 0.21213 0.20108 0.0
C1778 C 0.59913 0.20685 0.22555 0.0
C1779 C 0.60459 0.1871 0.18187 0.0
C1780 C 0.62831 0.22804 0.20548 0.0
C1781 C 0.62864 0.25101 0.19793 0.0
C1782 C 0.6469 0.26958 0.2016 0.0
C1783 C 0.66539 0.26444 0.21319 0.0
C1784 C 0.66543 0.24087 0.22084 0.0
C1785 C 0.64663 0.22246 0.21676 0.0
H1786 H 0.58845 0.87118 0.04421 0.0
H1787 H 0.61859 0.90396 0.98888 0.0
H1788 H 0.60059 0.94016 0.99637 0.0
H1789 H 0.54421 0.87504 0.03107 0.0
H1790 H 0.53456 0.88704 0.05942 0.0
H1791 H 0.55642 0.87091 0.06057 0.0
H1792 H 0.58114 0.90961 0.09043 0.0
H1793 H 0.55863 0.92477 0.0921 0.0
H1794 H 0.58248 0.94118 0.08387 0.0
H1795 H 0.56626 0.95462 0.99223 0.0
H1796 H 0.536 0.97399 1.00214 0.0
H1797 H 0.52971 0.93569 0.06312 0.0
C1798 C 0.59272 0.88722 0.03542 0.0
C1799 C 0.60157 0.88352 0.01318 0.0
C1800 C 0.60921 0.90533 1.00384 0.0
C1801 C 0.59893 0.92594 1.00781 0.0
C1802 C 0.58422 0.92526 0.02421 0.0
C1803 C 0.58265 0.90804 0.03993 0.0
C1804 C 0.56418 0.91005 0.05419 0.0
C1805 C 0.54897 0.88421 0.05109 0.0
C1806 C 0.57207 0.92214 0.08178 0.0
C1807 C 0.55415 0.92817 0.04137 0.0
C1808 C 0.56581 0.93626 0.02386 0.0
C1809 C 0.55829 0.95053 1.00764 0.0
C1810 C 0.5406 0.96075 0.01294 0.0
C1811 C 0.53377 0.95991 0.0362 0.0
C1812 C 0.53674 0.93888 0.0468 0.0
H1813 H 0.95313 0.74309 0.6747 0.0
H1814 H 1.00933 0.74565 0.72547 0.0
H1815 H 0.98873 0.74727 0.76014 0.0
H1816 H 0.93406 0.7869 0.70853 0.0
H1817 H 0.90649 0.77238 0.70184 0.0
H1818 H 0.92379 0.76386 0.67997 0.0
H1819 H 0.9128 0.71597 0.68134 0.0
H1820 H 0.89508 0.72422 0.70308 0.0
H1821 H 0.91478 0.70619 0.71079 0.0
H1822 H 0.96499 0.75867 0.78974 0.0
H1823 H 0.93961 0.77926 0.81213 0.0
H1824 H 0.89802 0.76786 0.7426 0.0
C1825 C 0.96091 0.74293 0.69283 0.0
C1826 C 0.98276 0.7443 0.69734 0.0
C1827 C 0.99255 0.7448 0.72161 0.0
C1828 C 0.98094 0.74535 0.7414 0.0
C1829 C 0.9595 0.74495 0.73654 0.0
C1830 C 0.94946 0.74335 0.71277 0.0
C1831 C 0.92702 0.74704 0.71309 0.0
C1832 C 0.92262 0.76885 0.70012 0.0
C1833 C 0.9115 0.72185 0.70138 0.0
C1834 C 0.92689 0.75395 0.74085 0.0
C1835 C 0.94545 0.75153 0.75403 0.0
C1836 C 0.95009 0.75986 0.77976 0.0
C1837 C 0.93564 0.77162 0.79232 0.0
C1838 C 0.91698 0.77518 0.77901 0.0
C1839 C 0.91226 0.76539 0.75314 0.0
H1840 H 0.14745 0.03232 0.91159 0.0
H1841 H 0.09663 1.00085 0.85059 0.0
H1842 H 0.07137 0.99738 0.88062 0.0
H1843 H 0.12843 0.9961 0.95639 0.0
H1844 H 0.13552 0.02246 0.98288 0.0
H1845 H 0.15009 0.02191 0.95695 0.0
H1846 H 0.14258 0.06633 0.9525 0.0
H1847 H 0.128 0.06702 0.97846 0.0
H1848 H 0.11578 0.07099 0.94898 0.0
H1849 H 0.05137 0.99521 0.91734 0.0
H1850 H 0.03767 0.99767 0.95732 0.0
H1851 H 0.09978 0.03442 0.99647 0.0
C1852 C 0.13101 0.0246 0.90458 0.0
C1853 C 0.12421 0.01655 0.87835 0.0
C1854 C 0.10242 1.00709 0.87028 0.0
C1855 C 0.08787 1.005 0.88734 0.0
C1856 C 0.09497 1.01307 0.91286 0.0
C1857 C 0.11598 0.02311 0.92155 0.0
C1858 C 0.11901 0.03158 0.95004 0.0
C1859 C 0.13417 0.01715 0.96228 0.0
C1860 C 0.12682 0.06071 0.95796 0.0
C1861 C 0.09663 0.02396 0.95601 0.0
C1862 C 0.08311 1.01323 0.93412 0.0
C1863 C 0.06185 1.00387 0.93448 0.0
C1864 C 0.05416 1.00535 0.9575 0.0
C1865 C 0.06736 0.01646 0.98047 0.0
C1866 C 0.08902 0.02612 0.9795 0.0
H1867 H 0.76487 0.32016 0.58082 0.0
H1868 H 0.76512 0.24218 0.54433 0.0
H1869 H 0.79279 0.23969 0.57767 0.0
H1870 H 0.81867 0.33719 0.58997 0.0
H1871 H 0.82085 0.35979 0.61895 0.0
H1872 H 0.79748 0.35371 0.59646 0.0
H1873 H 0.7736 0.34064 0.62844 0.0
H1874 H 0.79667 0.34884 0.65147 0.0
H1875 H 0.78014 0.31749 0.64607 0.0
H1876 H 0.82314 0.24799 0.61172 0.0
H1877 H 0.84493 0.26086 0.65225 0.0
H1878 H 0.83104 0.33722 0.66001 0.0
C1879 C 0.76973 0.30196 0.58069 0.0
C1880 C 0.76285 0.28123 0.56024 0.0
C1881 C 0.77004 0.25803 0.56017 0.0
C1882 C 0.78617 0.25679 0.57856 0.0
C1883 C 0.79492 0.27907 0.59624 0.0
C1884 C 0.78663 0.30103 0.59781 0.0
C1885 C 0.7999 0.32308 0.61703 0.0
C1886 C 0.8098 0.3447 0.60487 0.0
C1887 C 0.78681 0.33307 0.63695 0.0
C1888 C 0.81644 0.30968 0.62708 0.0
C1889 C 0.81348 0.28448 0.61444 0.0
C1890 C 0.82537 0.26755 0.62196 0.0
C1891 C 0.83814 0.27537 0.64505 0.0
C1892 C 0.83772 0.29931 0.66056 0.0
C1893 C 0.8303 0.31812 0.64929 0.0
H1894 H 0.48962 0.06713 0.36773 0.0
H1895 H 0.4264 0.03262 0.3755 0.0
H1896 H 0.43958 0.0256 0.4171 0.0
H1897 H 0.51856 0.02878 0.39754 0.0
H1898 H 0.53943 0.05487 0.41358 0.0
H1899 H 0.52478 0.05703 0.3848 0.0
H1900 H 0.51551 0.09952 0.40644 0.0
H1901 H 0.53007 0.09741 0.43536 0.0
H1902 H 0.50288 0.10036 0.43392 0.0
H1903 H 0.46106 0.02161 0.45915 0.0
H1904 H 0.48765 0.02098 0.49481 0.0
H1905 H 0.53637 0.05935 0.4598 0.0
C1906 C 0.47854 0.05804 0.37817 0.0
C1907 C 0.45689 0.05025 0.36804 0.0
C1908 C 0.44298 0.03884 0.38268 0.0
C1909 C 0.4504 0.03476 0.40643 0.0
C1910 C 0.47183 0.04277 0.41594 0.0
C1911 C 0.48562 0.05449 0.40224 0.0
C1912 C 0.50774 0.06226 0.41684 0.0
C1913 C 0.52355 0.04998 0.40232 0.0
C1914 C 0.51445 0.09162 0.42352 0.0
C1915 C 0.50468 0.05161 0.44015 0.0
C1916 C 0.48379 0.04092 0.43969 0.0
C1917 C 0.47739 0.03014 0.45955 0.0
C1918 C 0.49262 0.03002 0.47997 0.0
C1919 C 0.51421 0.04029 0.4805 0.0
C1920 C 0.52004 0.05136 0.4602 0.0
H1921 H 0.80444 0.74168 0.10714 0.0
H1922 H 0.74807 0.68225 0.09237 0.0
H1923 H 0.74251 0.69389 0.13598 0.0
H1924 H 0.82392 0.73377 0.16478 0.0
H1925 H 0.83262 0.76722 0.17912 0.0
H1926 H 0.83093 0.75692 0.14599 0.0
H1927 H 0.80634 0.78853 0.13887 0.0
H1928 H 0.80819 0.79924 0.17206 0.0
H1929 H 0.7828 0.7875 0.1533 0.0
H1930 H 0.74448 0.70911 0.18171 0.0
H1931 H 0.7535 0.72806 0.22667 0.0
H1932 H 0.80906 0.77683 0.21274 0.0
C1933 C 0.79068 0.73148 0.11293 0.0
C1934 C 0.77672 0.71101 0.09618 0.0
C1935 C 0.75895 0.6981 0.10465 0.0
C1936 C 0.75564 0.70455 0.12947 0.0
C1937 C 0.77003 0.72423 0.14562 0.0
C1938 C 0.78701 0.73782 0.13768 0.0
C1939 C 0.80047 0.75754 0.15918 0.0
C1940 C 0.82334 0.75359 0.16245 0.0
C1941 C 0.79939 0.78482 0.15564 0.0
C1942 C 0.7893 0.75151 0.18068 0.0
C1943 C 0.77141 0.73275 0.17228 0.0
C1944 C 0.75835 0.72396 0.18848 0.0
C1945 C 0.7636 0.73476 0.21394 0.0
C1946 C 0.78199 0.75368 0.22302 0.0
C1947 C 0.79504 0.76213 0.2062 0.0
H1948 H 0.12033 0.97151 0.70608 0.0
H1949 H 0.12768 0.04635 0.75431 0.0
H1950 H 0.10949 0.06169 0.72004 0.0
H1951 H 0.12914 0.99465 0.64953 0.0
H1952 H 0.11004 0.96896 0.62953 0.0
H1953 H 0.12348 0.96382 0.65786 0.0
H1954 H 0.08757 0.94888 0.67133 0.0
H1955 H 0.0738 0.95491 0.64361 0.0
H1956 H 0.06894 0.97 0.67376 0.0
H1957 H 0.08969 0.06898 0.67989 0.0
H1958 H 0.07197 0.06813 0.63793 0.0
H1959 H 0.07777 0.98887 0.61459 0.0
C1960 C 0.11822 0.99119 0.70949 0.0
C1961 C 0.12569 1.00766 0.73328 0.0
C1962 C 0.1224 0.03325 0.73653 0.0
C1963 C 0.11194 0.04215 0.71706 0.0
C1964 C 0.1048 0.02545 0.694 0.0
C1965 C 0.10793 1.0005 0.69008 0.0
C1966 C 0.09897 0.98657 0.66337 0.0
C1967 C 0.11645 0.97799 0.64924 0.0
C1968 C 0.08128 0.96372 0.66302 0.0
C1969 C 0.0903 1.00749 0.65284 0.0
C1970 C 0.09374 0.02973 0.6709 0.0
C1971 C 0.08708 0.05162 0.66569 0.0
C1972 C 0.07693 0.05093 0.64158 0.0
C1973 C 0.07335 0.02852 0.62242 0.0
C1974 C 0.08016 1.00645 0.62848 0.0
H1975 H 0.72366 0.282 0.45227 0.0
H1976 H 0.73489 0.36362 0.45823 0.0
H1977 H 0.74998 0.35887 0.41927 0.0
H1978 H 0.76947 0.27709 0.44805 0.0
H1979 H 0.76682 0.24718 0.42632 0.0
H1980 H 0.74597 0.25276 0.44402 0.0
H1981 H 0.71892 0.24477 0.40381 0.0
H1982 H 0.73959 0.237 0.38638 0.0
H1983 H 0.72535 0.26107 0.37918 0.0
H1984 H 0.77605 0.34778 0.39173 0.0
H1985 H 0.79812 0.3276 0.36398 0.0
H1986 H 0.77792 0.25516 0.38468 0.0
C1987 C 0.72753 0.29846 0.44391 0.0
C1988 C 0.73047 0.3232 0.4588 0.0
C1989 C 0.73406 0.34449 0.44748 0.0
C1990 C 0.74317 0.34199 0.42561 0.0
C1991 C 0.74664 0.31781 0.41524 0.0
C1992 C 0.7381 0.29597 0.42327 0.0
C1993 C 0.74809 0.27351 0.41346 0.0
C1994 C 0.75815 0.26203 0.43424 0.0
C1995 C 0.73204 0.25289 0.39458 0.0
C1996 C 0.76472 0.28676 0.40086 0.0
C1997 C 0.76331 0.31201 0.40151 0.0
C1998 C 0.77689 0.32782 0.39056 0.0
C1999 C 0.79016 0.31644 0.37565 0.0
C2000 C 0.78921 0.28971 0.37185 0.0
C2001 C 0.77877 0.27568 0.38734 0.0
H2002 H 0.48161 0.01514 0.22015 0.0
H2003 H 0.44464 0.07382 0.2148 0.0
H2004 H 0.457 0.07837 0.1747 0.0
H2005 H 0.52619 0.04245 0.19545 0.0
H2006 H 0.53032 1.01252 0.17804 0.0
H2007 H 0.51788 1.01303 0.20562 0.0
H2008 H 0.48584 0.97992 0.18044 0.0
H2009 H 0.49825 0.97922 0.15279 0.0
H2010 H 0.4723 0.9865 0.15287 0.0
H2011 H 0.47399 0.07656 0.13413 0.0
H2012 H 0.49398 0.06915 0.09859 0.0
H2013 H 0.5212 1.01293 0.13068 0.0
C2014 C 0.47594 0.02889 0.21054 0.0
C2015 C 0.46192 0.0441 0.22105 0.0
C2016 C 0.45511 0.06175 0.20745 0.0
C2017 C 0.46216 0.06451 0.18454 0.0
C2018 C 0.47605 0.0494 0.17492 0.0
C2019 C 0.48276 0.03179 0.18751 0.0
C2020 C 0.49769 0.01782 0.17317 0.0
C2021 C 0.5193 0.0217 0.18902 0.0
C2022 C 0.48795 0.98917 0.1643 0.0
C2023 C 0.49909 0.031 0.15109 0.0
C2024 C 0.48611 0.0488 0.15216 0.0
C2025 C 0.48418 0.06269 0.13332 0.0
C2026 C 0.4956 0.05833 0.11307 0.0
C2027 C 0.50935 0.04062 0.1117 0.0
C2028 C 0.51107 0.02686 0.13119 0.0
H2029 H 0.79565 0.75291 0.98405 0.0
H2030 H 0.75451 0.6806 0.94834 0.0
H2031 H 0.75285 0.69437 0.90831 0.0
H2032 H 0.76798 0.79172 0.94601 0.0
H2033 H 0.79206 0.81331 0.94515 0.0
H2034 H 0.78915 0.79857 0.97157 0.0
H2035 H 0.82307 0.78075 0.96549 0.0
H2036 H 0.82594 0.79517 0.93892 0.0
H2037 H 0.82494 0.76125 0.9359 0.0
H2038 H 0.75995 0.71259 0.8714 0.0
H2039 H 0.7705 0.73734 0.84033 0.0
H2040 H 0.80325 0.80085 0.89896 0.0
C2041 C 0.78585 0.74031 0.96791 0.0
C2042 C 0.77504 0.71569 0.96946 0.0
C2043 C 0.7626 0.69966 0.94783 0.0
C2044 C 0.76169 0.70724 0.9249 0.0
C2045 C 0.77281 0.73129 0.92387 0.0
C2046 C 0.78417 0.74796 0.94485 0.0
C2047 C 0.79447 0.77285 0.93829 0.0
C2048 C 0.78537 0.79545 0.95102 0.0
C2049 C 0.81853 0.77778 0.94505 0.0
C2050 C 0.78785 0.76699 0.91023 0.0
C2051 C 0.77547 0.74279 0.90244 0.0
C2052 C 0.76894 0.73194 0.87734 0.0
C2053 C 0.77489 0.74626 0.85973 0.0
C2054 C 0.78684 0.77148 0.86701 0.0
C2055 C 0.79343 0.78198 0.89275 0.0
H2056 H 0.90204 0.1857 0.0624 0.0
H2057 H 0.84356 0.13748 0.06968 0.0
H2058 H 0.86025 0.10003 0.06471 0.0
H2059 H 0.91661 0.14858 0.01721 0.0
H2060 H 0.94434 0.1521 0.02767 0.0
H2061 H 0.93067 0.17708 0.03891 0.0
H2062 H 0.9419 0.17481 0.0846 0.0
H2063 H 0.95669 0.15077 0.07363 0.0
H2064 H 0.93738 0.14433 0.09379 0.0
H2065 H 0.87843 0.06745 0.04647 0.0
H2066 H 0.90223 0.04063 0.02823 0.0
H2067 H 0.95052 0.10851 0.03572 0.0
C2068 C 0.89316 0.16743 0.06405 0.0
C2069 C 0.87146 0.16417 0.06561 0.0
C2070 C 0.86012 0.14014 0.06776 0.0
C2071 C 0.86946 0.11876 0.06515 0.0
C2072 C 0.8903 0.12196 0.06118 0.0
C2073 C 0.90246 0.14577 0.06189 0.0
C2074 C 0.92409 0.14316 0.05529 0.0
C2075 C 0.9292 0.15598 0.03346 0.0
C2076 C 0.94101 0.1539 0.07819 0.0
C2077 C 0.92109 0.11425 0.04807 0.0
C2078 C 0.90156 0.1025 0.05194 0.0
C2079 C 0.89414 0.0762 0.04429 0.0
C2080 C 0.90752 0.06121 0.03355 0.0
C2081 C 0.92799 0.07267 0.03082 0.0
C2082 C 0.93485 0.09949 0.03789 0.0
H2083 H 0.38205 0.46577 0.05516 0.0
H2084 H 0.39868 0.39946 0.08 0.0
H2085 H 0.43584 0.41449 0.07539 0.0
H2086 H 0.41924 0.47108 0.01043 0.0
H2087 H 0.42486 0.5056 0.01847 0.0
H2088 H 0.3994 0.48813 0.02124 0.0
H2089 H 0.40374 0.51105 0.06753 0.0
H2090 H 0.42913 0.52862 0.06488 0.0
H2091 H 0.42659 0.5097 0.08837 0.0
H2092 H 0.47198 0.43836 0.06949 0.0
H2093 H 0.50332 0.47032 0.06652 0.0
H2094 H 0.46271 0.52148 0.0477 0.0
C2095 C 0.3934 0.45409 0.05918 0.0
C2096 C 0.38733 0.43118 0.06758 0.0
C2097 C 0.40286 0.4169 0.07327 0.0
C2098 C 0.42402 0.4253 0.07066 0.0
C2099 C 0.42948 0.44812 0.0625 0.0
C2100 C 0.41456 0.46238 0.05702 0.0
C2101 C 0.42456 0.48721 0.05053 0.0
C2102 C 0.41654 0.48804 0.02356 0.0
C2103 C 0.42079 0.51051 0.06893 0.0
C2104 C 0.44749 0.48495 0.05352 0.0
C2105 C 0.45008 0.46209 0.05997 0.0
C2106 C 0.47005 0.45617 0.06417 0.0
C2107 C 0.48777 0.47426 0.06217 0.0
C2108 C 0.48535 0.49805 0.05635 0.0
C2109 C 0.46494 0.50325 0.05182 0.0
H2110 H 0.38957 0.62768 0.77109 0.0
H2111 H 0.35778 0.59561 0.82665 0.0
H2112 H 0.33666 0.62885 0.82998 0.0
H2113 H 0.39117 0.69434 0.79742 0.0
H2114 H 0.38482 0.70399 0.76846 0.0
H2115 H 0.3976 0.67705 0.76898 0.0
H2116 H 0.36778 0.64838 0.73599 0.0
H2117 H 0.35494 0.67529 0.73533 0.0
H2118 H 0.3409 0.64611 0.74172 0.0
H2119 H 0.31885 0.66637 0.82944 0.0
H2120 H 0.30507 0.70488 0.8235 0.0
H2121 H 0.34628 0.71591 0.76833 0.0
C2122 C 0.37791 0.62731 0.78361 0.0
C2123 C 0.37582 0.6082 0.79861 0.0
C2124 C 0.36027 0.6094 0.81486 0.0
C2125 C 0.34795 0.62849 0.81699 0.0
C2126 C 0.35063 0.64702 0.80259 0.0
C2127 C 0.365 0.64659 0.78592 0.0
C2128 C 0.36415 0.66923 0.77272 0.0
C2129 C 0.38573 0.68722 0.77717 0.0
C2130 C 0.35651 0.65916 0.74478 0.0
C2131 C 0.34776 0.68267 0.78524 0.0
C2132 C 0.34008 0.66908 0.80222 0.0
C2133 C 0.32474 0.67701 0.81606 0.0
C2134 C 0.3169 0.69907 0.81254 0.0
C2135 C 0.32428 0.71381 0.79546 0.0
C2136 C 0.34014 0.70533 0.78163 0.0
H2137 H 0.27623 0.67302 0.61873 0.0
H2138 H 0.27155 0.69816 0.54866 0.0
H2139 H 0.23421 0.67676 0.53897 0.0
H2140 H 0.24555 0.6137 0.60023 0.0
H2141 H 0.23221 0.6141 0.62716 0.0
H2142 H 0.25801 0.6334 0.62988 0.0
H2143 H 0.24429 0.67434 0.64747 0.0
H2144 H 0.21849 0.65506 0.64546 0.0
H2145 H 0.22187 0.68199 0.63043 0.0
H2146 H 0.19914 0.6474 0.53455 0.0
H2147 H 0.16711 0.61752 0.53833 0.0
H2148 H 0.19381 0.61591 0.61335 0.0
C2149 C 0.26723 0.67474 0.60171 0.0
C2150 C 0.27681 0.68716 0.58439 0.0
C2151 C 0.26453 0.68864 0.56214 0.0
C2152 C 0.24331 0.67658 0.55649 0.0
C2153 C 0.23452 0.66385 0.57368 0.0
C2154 C 0.2459 0.66355 0.59618 0.0
C2155 C 0.23279 0.64839 0.61136 0.0
C2156 C 0.24274 0.62608 0.61749 0.0
C2157 C 0.22914 0.66599 0.63508 0.0
C2158 C 0.2127 0.63889 0.59323 0.0
C2159 C 0.21394 0.64809 0.57165 0.0
C2160 C 0.19775 0.64062 0.55162 0.0
C2161 C 0.17964 0.62366 0.55396 0.0
C2162 C 0.17787 0.61453 0.57622 0.0
C2163 C 0.1947 0.62232 0.59601 0.0
H2164 H 0.73759 0.96474 0.80428 0.0
H2165 H 0.67852 0.92994 0.82399 0.0
H2166 H 0.69191 0.89014 0.82498 0.0
H2167 H 0.74461 0.90345 0.76325 0.0
H2168 H 0.77281 0.91044 0.77134 0.0
H2169 H 0.75858 0.93623 0.77136 0.0
H2170 H 0.77521 0.95581 0.81689 0.0
H2171 H 0.78928 0.92994 0.8171 0.0
H2172 H 0.77231 0.93664 0.84016 0.0
H2173 H 0.71207 0.8542 0.82621 0.0
H2174 H 0.73595 0.82356 0.82381 0.0
H2175 H 0.78287 0.87852 0.80144 0.0
C2176 C 0.72728 0.94849 0.80814 0.0
C2177 C 0.70652 0.95063 0.81345 0.0
C2178 C 0.69405 0.92889 0.81912 0.0
C2179 C 0.70168 0.90612 0.82 0.0
C2180 C 0.72203 0.90462 0.81484 0.0
C2181 C 0.73458 0.92499 0.80847 0.0
C2182 C 0.75568 0.91759 0.80309 0.0
C2183 C 0.75807 0.9169 0.77563 0.0
C2184 C 0.77422 0.9361 0.82035 0.0
C2185 C 0.75335 0.89047 0.80857 0.0
C2186 C 0.73365 0.8835 0.81515 0.0
C2187 C 0.72744 0.85953 0.82089 0.0
C2188 C 0.74128 0.84206 0.81944 0.0
C2189 C 0.76159 0.84806 0.81242 0.0
C2190 C 0.76767 0.87302 0.80712 0.0
H2191 H 0.7384 0.89696 0.54828 0.0
H2192 H 0.78049 0.96373 0.59487 0.0
H2193 H 0.75268 0.98898 0.59141 0.0
H2194 H 0.71416 0.93055 0.5067 0.0
H2195 H 0.68821 0.91125 0.50344 0.0
H2196 H 0.71105 0.89773 0.51015 0.0
H2197 H 0.69715 0.88536 0.54927 0.0
H2198 H 0.67416 0.8986 0.54249 0.0
H2199 H 0.6904 0.90964 0.57238 0.0
H2200 H 0.72087 1.00736 0.58304 0.0
H2201 H 0.68638 0.01776 0.57026 0.0
H2202 H 0.66451 0.94009 0.52794 0.0
C2203 C 0.74172 0.91683 0.55791 0.0
C2204 C 0.76174 0.92829 0.57189 0.0
C2205 C 0.76538 0.95442 0.58407 0.0
C2206 C 0.74965 0.96898 0.58221 0.0
C2207 C 0.73027 0.95724 0.5681 0.0
C2208 C 0.72615 0.93176 0.55618 0.0
C2209 C 0.70396 0.92408 0.5419 0.0
C2210 C 0.70438 0.91539 0.51389 0.0
C2211 C 0.69063 0.90318 0.55213 0.0
C2212 C 0.69635 0.94927 0.54761 0.0
C2213 C 0.71183 0.96805 0.56288 0.0
C2214 C 0.70862 0.99282 0.57114 0.0
C2215 C 0.68902 0.99856 0.56384 0.0
C2216 C 0.67292 0.97973 0.54828 0.0
C2217 C 0.67665 0.9548 0.53985 0.0
H2218 H 0.37863 0.47323 0.83428 0.0
H2219 H 0.38408 0.46889 0.75624 0.0
H2220 H 0.36609 0.4232 0.74707 0.0
H2221 H 0.38788 0.40822 0.83539 0.0
H2222 H 0.36998 0.40308 0.85743 0.0
H2223 H 0.38375 0.43501 0.85779 0.0
H2224 H 0.34834 0.45038 0.85309 0.0
H2225 H 0.33453 0.41862 0.85299 0.0
H2226 H 0.32809 0.43389 0.82761 0.0
H2227 H 0.34576 0.37678 0.74658 0.0
H2228 H 0.32452 0.33725 0.75448 0.0
H2229 H 0.33238 0.37187 0.83275 0.0
C2230 C 0.37607 0.4628 0.81517 0.0
C2231 C 0.38286 0.47522 0.79596 0.0
C2232 C 0.37922 0.46026 0.77138 0.0
C2233 C 0.36897 0.43411 0.76601 0.0
C2234 C 0.36257 0.42258 0.78541 0.0
C2235 C 0.36611 0.43659 0.80956 0.0
C2236 C 0.35773 0.41994 0.82717 0.0
C2237 C 0.37591 0.41636 0.84554 0.0
C2238 C 0.34118 0.43139 0.84102 0.0
C2239 C 0.34795 0.39467 0.80917 0.0
C2240 C 0.3513 0.39634 0.78518 0.0
C2241 C 0.3434 0.37541 0.76539 0.0
C2242 C 0.3315 0.35275 0.77008 0.0
C2243 C 0.32732 0.35077 0.79437 0.0
C2244 C 0.33588 0.3722 0.8141 0.0
H2245 H 0.20923 0.6149 0.3553 0.0
H2246 H 0.21382 0.56453 0.28619 0.0
H2247 H 0.23443 0.60094 0.27271 0.0
H2248 H 0.20215 0.66903 0.32581 0.0
H2249 H 0.21642 0.69316 0.35188 0.0
H2250 H 0.20277 0.66307 0.35685 0.0
H2251 H 0.23733 0.65594 0.37971 0.0
H2252 H 0.25106 0.68595 0.37469 0.0
H2253 H 0.26036 0.65682 0.36428 0.0
H2254 H 0.25458 0.64282 0.2662 0.0
H2255 H 0.2713 0.68714 0.26615 0.0
H2256 H 0.25338 0.71268 0.33861 0.0
C2257 C 0.21471 0.61156 0.33739 0.0
C2258 C 0.20995 0.58653 0.32186 0.0
C2259 C 0.21713 0.58329 0.29841 0.0
C2260 C 0.22895 0.60395 0.29061 0.0
C2261 C 0.23328 0.62827 0.30615 0.0
C2262 C 0.22617 0.63234 0.32896 0.0
C2263 C 0.23208 0.66088 0.34126 0.0
C2264 C 0.21217 0.6722 0.34413 0.0
C2265 C 0.24605 0.66514 0.36648 0.0
C2266 C 0.24422 0.67198 0.32224 0.0
C2267 C 0.24453 0.65272 0.30209 0.0
C2268 C 0.2543 0.65801 0.28187 0.0
C2269 C 0.26377 0.68346 0.28198 0.0
C2270 C 0.26373 0.70386 0.30222 0.0
C2271 C 0.25385 0.69776 0.32277 0.0
H2272 H 0.50987 0.7085 0.50415 0.0
H2273 H 0.52052 0.68212 0.4284 0.0
H2274 H 0.5312 0.64383 0.43987 0.0
H2275 H 0.55638 0.68359 0.53243 0.0
H2276 H 0.54293 0.676 0.55771 0.0
H2277 H 0.53814 0.70272 0.54424 0.0
H2278 H 0.49824 0.6834 0.53604 0.0
H2279 H 0.5029 0.65641 0.549 0.0
H2280 H 0.48914 0.6513 0.51787 0.0
H2281 H 0.53418 0.60555 0.45699 0.0
H2282 H 0.53646 0.572 0.48134 0.0
H2283 H 0.52838 0.62418 0.54768 0.0
C2284 C 0.51502 0.69493 0.49025 0.0
C2285 C 0.5144 0.69811 0.46539 0.0
C2286 C 0.52113 0.68008 0.44757 0.0
C2287 C 0.52712 0.65824 0.45388 0.0
C2288 C 0.52696 0.65519 0.4783 0.0
C2289 C 0.52186 0.6734 0.49649 0.0
C2290 C 0.52314 0.66515 0.52134 0.0
C2291 C 0.54122 0.68292 0.54004 0.0
C2292 C 0.50209 0.664 0.53166 0.0
C2293 C 0.52805 0.63862 0.51368 0.0
C2294 C 0.53023 0.63342 0.48874 0.0
C2295 C 0.53305 0.60956 0.47666 0.0
C2296 C 0.53407 0.59058 0.49051 0.0
C2297 C 0.53253 0.59568 0.51616 0.0
C2298 C 0.52965 0.62002 0.52803 0.0
H2299 H 0.65371 0.34321 0.75136 0.0
H2300 H 0.64042 0.27838 0.68887 0.0
H2301 H 0.67459 0.26705 0.7018 0.0
H2302 H 0.70964 0.36057 0.74921 0.0
H2303 H 0.71623 0.36947 0.78258 0.0
H2304 H 0.69099 0.37248 0.76788 0.0
H2305 H 0.67251 0.34409 0.79522 0.0
H2306 H 0.69769 0.34087 0.80983 0.0
H2307 H 0.67836 0.31269 0.79495 0.0
H2308 H 0.7097 0.26129 0.72377 0.0
H2309 H 0.7431 0.26347 0.75085 0.0
H2310 H 0.73404 0.33353 0.79721 0.0
C2311 C 0.65797 0.32669 0.74025 0.0
C2312 C 0.64424 0.31167 0.71908 0.0
C2313 C 0.65059 0.29024 0.70513 0.0
C2314 C 0.66999 0.28362 0.71237 0.0
C2315 C 0.68303 0.29873 0.73351 0.0
C2316 C 0.67732 0.31997 0.74707 0.0
C2317 C 0.694 0.33304 0.76911 0.0
C2318 C 0.70326 0.36052 0.76706 0.0
C2319 C 0.68511 0.33264 0.79373 0.0
C2320 C 0.71004 0.3159 0.76591 0.0
C2321 C 0.70338 0.29603 0.74542 0.0
C2322 C 0.71515 0.27703 0.7396 0.0
C2323 C 0.73415 0.27844 0.75505 0.0
C2324 C 0.74142 0.29895 0.77582 0.0
C2325 C 0.72915 0.3179 0.78117 0.0
H2326 H 0.99402 0.33008 1.00858 0.0
H2327 H 0.02821 0.3288 0.94513 0.0
H2328 H 0.04008 0.37512 0.95721 0.0
H2329 H 0.9758 0.38572 1.00873 0.0
H2330 H 0.98111 0.39896 0.04171 0.0
H2331 H 0.97683 0.36483 0.03054 0.0
H2332 H 1.01274 0.36323 0.05461 0.0
H2333 H 1.01694 0.39734 0.06638 0.0
H2334 H 0.0362 0.38376 0.05005 0.0
H2335 H 0.04432 0.42076 0.97138 0.0
H2336 H 0.04601 0.46543 0.99209 0.0
H2337 H 1.01113 0.43985 0.04838 0.0
C2338 C 1.00437 0.33956 0.99762 0.0
C2339 C 1.00997 0.32572 0.97577 0.0
C2340 C 0.02365 0.33878 0.96195 0.0
C2341 C 0.03049 0.36521 0.96859 0.0
C2342 C 0.02406 0.37838 0.98951 0.0
C2343 C 1.01194 0.36616 1.00441 0.0
C2344 C 1.00763 0.38554 0.02603 0.0
C2345 C 0.98392 0.38364 0.02676 0.0
C2346 C 0.01905 0.38227 0.05073 0.0
C2347 C 0.01754 0.41045 0.0194 0.0
C2348 C 0.02722 0.40556 0.99846 0.0
C2349 C 0.03717 0.42495 0.98806 0.0
C2350 C 0.03792 0.45019 0.99983 0.0
C2351 C 0.02867 0.45587 0.02166 0.0
C2352 C 0.01807 0.43584 0.0315 0.0
H2353 H 1.00884 0.81609 0.20292 0.0
H2354 H 0.03142 0.74688 0.21109 0.0
H2355 H 0.99691 0.72875 0.22201 0.0
H2356 H 0.98253 0.81983 0.25544 0.0
H2357 H 0.96117 0.83247 0.242 0.0
H2358 H 0.98651 0.83835 0.23182 0.0
H2359 H 0.96923 0.81874 0.18634 0.0
H2360 H 0.94382 0.81257 0.19642 0.0
H2361 H 0.95363 0.78676 0.17876 0.0
H2362 H 0.96021 0.71887 0.23316 0.0
H2363 H 0.92636 0.71979 0.24891 0.0
H2364 H 0.92908 0.79732 0.2372 0.0
C2365 C 1.00638 0.79694 0.20662 0.0
C2366 C 0.02267 0.7827 0.2059 0.0
C2367 C 0.0191 0.75802 0.21148 0.0
C2368 C 0.99952 0.74754 0.21752 0.0
C2369 C 0.9838 0.76217 0.21823 0.0
C2370 C 0.98714 0.78648 0.21323 0.0
C2371 C 0.96851 0.79926 0.21767 0.0
C2372 C 0.97507 0.82393 0.23794 0.0
C2373 C 0.95819 0.80465 0.19335 0.0
C2374 C 0.95428 0.77855 0.22645 0.0
C2375 C 0.96319 0.75709 0.22605 0.0
C2376 C 0.95319 0.73566 0.23372 0.0
C2377 C 0.93399 0.73648 0.24285 0.0
C2378 C 0.92505 0.7588 0.24481 0.0
C2379 C 0.93522 0.77984 0.23582 0.0
H2380 H 0.50918 0.30419 0.12098 0.0
H2381 H 0.51995 0.2494 0.05837 0.0
H2382 H 0.55069 0.28049 0.05255 0.0
H2383 H 0.51692 0.35673 0.0982 0.0
H2384 H 0.53061 0.37838 0.12633 0.0
H2385 H 0.51325 0.3497 0.12825 0.0
H2386 H 0.54387 0.33712 0.15438 0.0
H2387 H 0.5615 0.36566 0.15161 0.0
H2388 H 0.56805 0.33465 0.14196 0.0
H2389 H 0.574 0.31918 0.04796 0.0
H2390 H 0.58224 0.36253 0.03997 0.0
H2391 H 0.55972 0.39279 0.10793 0.0
C2392 C 0.51813 0.29897 0.10607 0.0
C2393 C 0.51202 0.27517 0.08943 0.0
C2394 C 0.5242 0.26812 0.07066 0.0
C2395 C 0.54193 0.28535 0.0677 0.0
C2396 C 0.54757 0.30901 0.08432 0.0
C2397 C 0.53603 0.31575 0.10323 0.0
C2398 C 0.54343 0.34341 0.11636 0.0
C2399 C 0.52497 0.35789 0.11727 0.0
C2400 C 0.5549 0.34531 0.14263 0.0
C2401 C 0.55874 0.35219 0.09951 0.0
C2402 C 0.56196 0.33169 0.08214 0.0
C2403 C 0.57214 0.33532 0.06178 0.0
C2404 C 0.57694 0.36013 0.05744 0.0
C2405 C 0.57121 0.38069 0.07323 0.0
C2406 C 0.56425 0.37712 0.09581 0.0
H2407 H 0.02121 0.34979 0.44097 0.0
H2408 H 0.02927 0.27766 0.39758 0.0
H2409 H 0.99455 0.27285 0.37243 0.0
H2410 H 0.96742 0.33392 0.44383 0.0
H2411 H 0.96107 0.36401 0.4393 0.0
H2412 H 0.98711 0.36295 0.45313 0.0
H2413 H 1.00326 0.38411 0.4194 0.0
H2414 H 0.97726 0.3856 0.40563 0.0
H2415 H 0.99424 0.36994 0.38701 0.0
H2416 H 0.95848 0.27438 0.35403 0.0
H2417 H 0.92354 0.28374 0.34134 0.0
H2418 H 0.9392 0.35554 0.39563 0.0
C2419 C 1.01566 0.33325 0.42592 0.0
C2420 C 0.02762 0.31405 0.4209 0.0
C2421 C 0.02017 0.29258 0.40127 0.0
C2422 C 1.00054 0.28967 0.38702 0.0
C2423 C 0.98887 0.30872 0.39247 0.0
C2424 C 0.99624 0.33034 0.41111 0.0
C2425 C 0.98049 0.34794 0.41288 0.0
C2426 C 0.97362 0.35244 0.43883 0.0
C2427 C 0.98935 0.3734 0.40581 0.0
C2428 C 0.96278 0.33215 0.39328 0.0
C2429 C 0.96805 0.30976 0.38153 0.0
C2430 C 0.95422 0.29199 0.36285 0.0
C2431 C 0.9345 0.29745 0.35576 0.0
C2432 C 0.92888 0.32036 0.3675 0.0
C2433 C 0.94316 0.33782 0.38652 0.0
H2434 H 1.00298 0.69758 0.5774 0.0
H2435 H 0.9818 0.65965 0.6352 0.0
H2436 H 1.00867 0.63262 0.62969 0.0
H2437 H 1.00835 0.63893 0.53843 0.0
H2438 H 0.02987 0.65464 0.52537 0.0
H2439 H 1.01068 0.6722 0.53676 0.0
H2440 H 0.04171 0.70563 0.56484 0.0
H2441 H 0.06059 0.68658 0.5548 0.0
H2442 H 0.05868 0.69549 0.58744 0.0
H2443 H 0.03979 0.61409 0.62197 0.0
H2444 H 0.05513 0.5839 0.59506 0.0
H2445 H 0.05251 0.62805 0.53801 0.0
C2446 C 1.00406 0.68343 0.58874 0.0
C2447 C 0.99088 0.68066 0.60693 0.0
C2448 C 0.99196 0.66174 0.62115 0.0
C2449 C 1.00744 0.6469 0.61862 0.0
C2450 C 0.02159 0.65165 0.60208 0.0
C2451 C 0.01908 0.66807 0.58614 0.0
C2452 C 0.03303 0.66509 0.56613 0.0
C2453 C 0.01969 0.65721 0.54015 0.0
C2454 C 0.04948 0.68967 0.56846 0.0
C2455 C 0.04326 0.64375 0.5729 0.0
C2456 C 0.03779 0.63811 0.59504 0.0
C2457 C 0.04395 0.61809 0.60446 0.0
C2458 C 0.05304 0.60104 0.58905 0.0
C2459 C 0.05392 0.60304 0.56413 0.0
C2460 C 0.05179 0.62621 0.55708 0.0
H2461 H 0.63901 0.87483 0.89774 0.0
H2462 H 0.62523 0.82331 0.94775 0.0
H2463 H 0.63562 0.78873 0.91917 0.0
H2464 H 0.62468 0.82591 0.83828 0.0
H2465 H 0.64649 0.84048 0.82493 0.0
H2466 H 0.63433 0.86002 0.84698 0.0
H2467 H 0.67052 0.87767 0.87421 0.0
H2468 H 0.68282 0.85799 0.85259 0.0
H2469 H 0.68555 0.8557 0.88483 0.0
H2470 H 0.64976 0.76114 0.88815 0.0
H2471 H 0.67115 0.74276 0.85785 0.0
H2472 H 0.67883 0.8123 0.8289 0.0
C2473 C 0.63793 0.8561 0.90233 0.0
C2474 C 0.63043 0.85117 0.92424 0.0
C2475 C 0.62983 0.82687 0.93029 0.0
C2476 C 0.63579 0.80719 0.91427 0.0
C2477 C 0.64271 0.81234 0.89251 0.0
C2478 C 0.64414 0.83624 0.88659 0.0
C2479 C 0.65458 0.83735 0.86355 0.0
C2480 C 0.63909 0.84116 0.84217 0.0
C2481 C 0.67456 0.85841 0.86915 0.0
C2482 C 0.65967 0.81074 0.85829 0.0
C2483 C 0.65203 0.79647 0.87483 0.0
C2484 C 0.65554 0.77183 0.87476 0.0
C2485 C 0.66759 0.76154 0.85757 0.0
C2486 C 0.67605 0.77605 0.84104 0.0
C2487 C 0.67193 0.80079 0.84111 0.0
H2488 H 0.47058 0.58954 0.70759 0.0
H2489 H 0.4493 0.50956 0.70861 0.0
H2490 H 0.46488 0.49726 0.67004 0.0
H2491 H 0.46113 0.58107 0.63887 0.0
H2492 H 0.48355 0.6055 0.63849 0.0
H2493 H 0.46965 0.60757 0.66505 0.0
H2494 H 0.50432 0.61026 0.69387 0.0
H2495 H 0.5183 0.60829 0.66746 0.0
H2496 H 0.51957 0.58559 0.68739 0.0
H2497 H 0.48464 0.49416 0.62958 0.0
H2498 H 0.50665 0.50083 0.59638 0.0
H2499 H 0.51609 0.58277 0.62321 0.0
C2500 C 0.46892 0.56934 0.69969 0.0
C2501 C 0.45833 0.55061 0.71163 0.0
C2502 C 0.45689 0.52449 0.70014 0.0
C2503 C 0.46586 0.51731 0.67806 0.0
C2504 C 0.47626 0.53632 0.66697 0.0
C2505 C 0.47766 0.56188 0.67756 0.0
C2506 C 0.48976 0.57887 0.66249 0.0
C2507 C 0.47516 0.59417 0.65053 0.0
C2508 C 0.50914 0.5968 0.67878 0.0
C2509 C 0.49607 0.55915 0.64253 0.0
C2510 C 0.48765 0.53461 0.64483 0.0
C2511 C 0.4911 0.51343 0.62787 0.0
C2512 C 0.50356 0.51737 0.60873 0.0
C2513 C 0.51308 0.54234 0.60655 0.0
C2514 C 0.50901 0.56338 0.6239 0.0
H2515 H 0.82632 0.29146 0.05027 0.0
H2516 H 0.86053 0.2325 0.02312 0.0
H2517 H 0.83106 0.21282 0.98943 0.0
H2518 H 0.77346 0.25098 0.03446 0.0
H2519 H 0.76156 0.27596 0.02487 0.0
H2520 H 0.78414 0.28404 0.04879 0.0
H2521 H 0.80523 0.31341 0.02391 0.0
H2522 H 0.782 0.30702 1.0015 0.0
H2523 H 0.80649 0.30094 0.99162 0.0
H2524 H 0.79833 0.19937 0.95939 0.0
H2525 H 0.77524 0.20575 0.92392 0.0
H2526 H 0.76283 0.27423 0.96937 0.0
C2527 C 0.82781 0.27485 0.03672 0.0
C2528 C 0.84564 0.26359 0.03905 0.0
C2529 C 0.84711 0.24171 0.02128 0.0
C2530 C 0.83014 0.22988 1.00269 0.0
C2531 C 0.81202 0.2403 1.00214 0.0
C2532 C 0.81117 0.26298 0.01793 0.0
C2533 C 0.79135 0.27248 0.01104 0.0
C2534 C 0.77677 0.27075 0.03098 0.0
C2535 C 0.79659 0.30005 1.00672 0.0
C2536 C 0.7822 0.25295 0.98734 0.0
C2537 C 0.79345 0.23336 0.98375 0.0
C2538 C 0.78953 0.21466 0.96191 0.0
C2539 C 0.7762 0.21831 0.94189 0.0
C2540 C 0.76866 0.2415 0.94367 0.0
C2541 C 0.76893 0.25671 0.9674 0.0
H2542 H 0.09408 0.48061 0.21837 0.0
H2543 H 0.14698 0.54441 0.23346 0.0
H2544 H 0.13439 0.55675 0.19421 0.0
H2545 H 0.09378 0.46528 0.15062 0.0
H2546 H 0.06552 0.45623 0.14411 0.0
H2547 H 0.07922 0.4522 0.17278 0.0
H2548 H 0.05648 0.47942 0.1977 0.0
H2549 H 0.04278 0.48357 0.16914 0.0
H2550 H 0.05558 0.51121 0.19271 0.0
H2551 H 0.11437 0.56282 0.15231 0.0
H2552 H 0.09008 0.56153 0.11405 0.0
H2553 H 0.05044 0.49366 0.1265 0.0
C2554 C 0.10321 0.49711 0.21343 0.0
C2555 C 0.12174 0.51143 0.2294 0.0
C2556 C 0.13295 0.53286 0.22179 0.0
C2557 C 0.1258 0.54008 0.19941 0.0
C2558 C 0.1074 0.52563 0.1843 0.0
C2559 C 0.0964 0.50441 0.19103 0.0
C2560 C 0.07711 0.49194 0.17172 0.0
C2561 C 0.07902 0.4648 0.15906 0.0
C2562 C 0.05679 0.49152 0.18353 0.0
C2563 C 0.07844 0.50982 0.15341 0.0
C2564 C 0.09615 0.52903 0.16075 0.0
C2565 C 0.10056 0.54772 0.14656 0.0
C2566 C 0.08664 0.54682 0.12468 0.0
C2567 C 0.0682 0.52751 0.11693 0.0
C2568 C 0.06431 0.50875 0.13168 0.0
H2569 H 0.82919 0.82074 0.50254 0.0
H2570 H 0.80092 0.88813 0.50549 0.0
H2571 H 0.79119 0.87695 0.46004 0.0
H2572 H 0.85178 0.82257 0.44951 0.0
H2573 H 0.84544 0.78871 0.43614 0.0
H2574 H 0.84804 0.79968 0.4693 0.0
H2575 H 0.81053 0.77478 0.46977 0.0
H2576 H 0.80798 0.7632 0.43663 0.0
H2577 H 0.78871 0.77985 0.4496 0.0
H2578 H 0.78808 0.86187 0.4147 0.0
H2579 H 0.78786 0.84063 0.37125 0.0
H2580 H 0.81771 0.78225 0.39617 0.0
C2581 C 0.8205 0.83279 0.49367 0.0
C2582 C 0.81588 0.85539 0.50767 0.0
C2583 C 0.80452 0.87065 0.49533 0.0
C2584 C 0.799 0.86453 0.46944 0.0
C2585 C 0.80454 0.84278 0.45615 0.0
C2586 C 0.81453 0.82671 0.46777 0.0
C2587 C 0.81886 0.80469 0.4488 0.0
C2588 C 0.84244 0.8039 0.45108 0.0
C2589 C 0.80575 0.77911 0.45135 0.0
C2590 C 0.8111 0.81198 0.4247 0.0
C2591 C 0.80257 0.8338 0.42956 0.0
C2592 C 0.79444 0.8446 0.41064 0.0
C2593 C 0.79448 0.83247 0.38605 0.0
C2594 C 0.80282 0.80993 0.38046 0.0
C2595 C 0.81148 0.79964 0.40001 0.0
H2596 H 0.45321 0.51012 0.86189 0.0
H2597 H 0.47179 0.59148 0.86502 0.0
H2598 H 0.49226 0.59683 0.9066 0.0
H2599 H 0.4475 0.51825 0.92875 0.0
H2600 H 0.45673 0.48946 0.93246 0.0
H2601 H 0.4436 0.49157 0.90271 0.0
H2602 H 0.47557 0.48056 0.88208 0.0
H2603 H 0.48878 0.47846 0.91176 0.0
H2604 H 0.50137 0.49974 0.89393 0.0
H2605 H 0.51105 0.59389 0.9482 0.0
H2606 H 0.52628 0.58312 0.98671 0.0
H2607 H 0.49603 0.5035 0.95911 0.0
C2608 C 0.46167 0.52901 0.87134 0.0
C2609 C 0.46094 0.55044 0.85983 0.0
C2610 C 0.47203 0.57481 0.87319 0.0
C2611 C 0.48377 0.57803 0.89693 0.0
C2612 C 0.48421 0.55675 0.90777 0.0
C2613 C 0.4733 0.53269 0.89557 0.0
C2614 C 0.47599 0.51332 0.91215 0.0
C2615 C 0.45469 0.5025 0.91944 0.0
C2616 C 0.48603 0.49174 0.8992 0.0
C2617 C 0.49078 0.53001 0.93496 0.0
C2618 C 0.495 0.55508 0.93204 0.0
C2619 C 0.50777 0.5743 0.9506 0.0
C2620 C 0.51636 0.56794 0.97263 0.0
C2621 C 0.51257 0.54243 0.97642 0.0
C2622 C 0.49955 0.52318 0.957 0.0
H2623 H 0.85401 0.28042 0.15054 0.0
H2624 H 0.81437 0.20456 0.13147 0.0
H2625 H 0.78928 0.21962 0.15766 0.0
H2626 H 0.85243 0.29094 0.21088 0.0
H2627 H 0.85136 0.32455 0.21561 0.0
H2628 H 0.86242 0.31003 0.18966 0.0
H2629 H 0.83601 0.32627 0.16064 0.0
H2630 H 0.82422 0.33965 0.18686 0.0
H2631 H 0.80815 0.31702 0.16089 0.0
H2632 H 0.7728 0.23822 0.19069 0.0
H2633 H 0.77264 0.25437 0.23489 0.0
H2634 H 0.8215 0.31877 0.23515 0.0
C2635 C 0.83991 0.26715 0.15175 0.0
C2636 C 0.83604 0.24146 0.13883 0.0
C2637 C 0.81757 0.22448 0.141 0.0
C2638 C 0.80296 0.23299 0.15544 0.0
C2639 C 0.80696 0.25855 0.16766 0.0
C2640 C 0.82518 0.27533 0.16635 0.0
C2641 C 0.82789 0.30002 0.18534 0.0
C2642 C 0.84979 0.30671 0.20132 0.0
C2643 C 0.82382 0.32203 0.17267 0.0
C2644 C 0.81032 0.29269 0.19997 0.0
C2645 C 0.79731 0.26964 0.18811 0.0
C2646 C 0.78236 0.25663 0.19983 0.0
C2647 C 0.78218 0.26593 0.22501 0.0
C2648 C 0.79688 0.28763 0.23793 0.0
C2649 C 0.80996 0.30224 0.22508 0.0
H2650 H 0.13953 0.56218 0.3972 0.0
H2651 H 0.11818 0.4824 0.36079 0.0
H2652 H 0.09592 0.47602 0.3934 0.0
H2653 H 0.14287 0.55226 0.46081 0.0
H2654 H 0.13319 0.58057 0.47326 0.0
H2655 H 0.14676 0.5797 0.44648 0.0
H2656 H 0.11493 0.59103 0.42179 0.0
H2657 H 0.10125 0.59185 0.4485 0.0
H2658 H 0.08923 0.57133 0.41912 0.0
H2659 H 0.07247 0.47927 0.42744 0.0
H2660 H 0.05551 0.4891 0.46489 0.0
H2661 H 0.09595 0.56414 0.48572 0.0
C2662 C 0.13022 0.54336 0.39618 0.0
C2663 C 0.13067 0.52273 0.37601 0.0
C2664 C 0.1182 0.4985 0.37572 0.0
C2665 C 0.10536 0.49471 0.39423 0.0
C2666 C 0.1051 0.51524 0.41363 0.0
C2667 C 0.1175 0.53903 0.41511 0.0
C2668 C 0.11458 0.55745 0.43869 0.0
C2669 C 0.13561 0.56812 0.45583 0.0
C2670 C 0.10441 0.57922 0.43161 0.0
C2671 C 0.09936 0.54005 0.45062 0.0
C2672 C 0.09342 0.51612 0.43507 0.0
C2673 C 0.07765 0.49765 0.44012 0.0
C2674 C 0.06809 0.50339 0.46166 0.0
C2675 C 0.07503 0.52675 0.47939 0.0
C2676 C 0.09084 0.54555 0.47339 0.0
H2677 H 0.79281 0.83818 0.62783 0.0
H2678 H 0.85911 0.8702 0.65228 0.0
H2679 H 0.85697 0.85525 0.69142 0.0
H2680 H 0.77575 0.85108 0.68976 0.0
H2681 H 0.75717 0.82119 0.68413 0.0
H2682 H 0.76312 0.83621 0.65858 0.0
H2683 H 0.77331 0.79469 0.63601 0.0
H2684 H 0.76748 0.7796 0.66153 0.0
H2685 H 0.79306 0.78123 0.65167 0.0
H2686 H 0.84868 0.83591 0.72717 0.0
H2687 H 0.83425 0.81183 0.75741 0.0
H2688 H 0.77374 0.79037 0.7103 0.0
C2689 C 0.80673 0.84219 0.6416 0.0
C2690 C 0.82617 0.85526 0.63704 0.0
C2691 C 0.84413 0.85999 0.65534 0.0
C2692 C 0.84307 0.85171 0.6777 0.0
C2693 C 0.82394 0.83845 0.68156 0.0
C2694 C 0.80605 0.83357 0.66411 0.0
C2695 C 0.78784 0.81759 0.67271 0.0
C2696 C 0.76991 0.83241 0.67652 0.0
C2697 C 0.77997 0.79174 0.65439 0.0
C2698 C 0.79849 0.81408 0.69738 0.0
C2699 C 0.81923 0.8266 0.70221 0.0
C2700 C 0.83239 0.82614 0.72372 0.0
C2701 C 0.8241 0.81255 0.74086 0.0
C2702 C 0.80296 0.79946 0.73627 0.0
C2703 C 0.79004 0.80017 0.7142 0.0
H2704 H 0.70281 0.40288 0.51523 0.0
H2705 H 0.70555 0.37749 0.58519 0.0
H2706 H 0.68051 0.40496 0.59895 0.0
H2707 H 0.70471 0.46527 0.53815 0.0
H2708 H 0.68659 0.47089 0.51367 0.0
H2709 H 0.70106 0.44559 0.5073 0.0
H2710 H 0.66638 0.41253 0.4913 0.0
H2711 H 0.65166 0.43781 0.49723 0.0
H2712 H 0.64598 0.41005 0.51078 0.0
H2713 H 0.66015 0.44032 0.60743 0.0
H2714 H 0.64406 0.47864 0.60905 0.0
H2715 H 0.65556 0.48092 0.53357 0.0
C2716 C 0.69766 0.40256 0.53318 0.0
C2717 C 0.70604 0.38823 0.54925 0.0
C2718 C 0.69909 0.38825 0.57259 0.0
C2719 C 0.68493 0.40379 0.58052 0.0
C2720 C 0.67767 0.41864 0.56462 0.0
C2721 C 0.6835 0.41774 0.54122 0.0
C2722 C 0.67506 0.43708 0.5285 0.0
C2723 C 0.69292 0.45581 0.52153 0.0
C2724 C 0.6588 0.42356 0.5056 0.0
C2725 C 0.66472 0.45022 0.54904 0.0
C2726 C 0.666 0.43903 0.56953 0.0
C2727 C 0.65876 0.449 0.59136 0.0
C2728 C 0.64993 0.47096 0.59222 0.0
C2729 C 0.64865 0.48281 0.57146 0.0
C2730 C 0.65602 0.47208 0.54959 0.0
H2731 H 0.20065 0.11086 0.5653 0.0
H2732 H 0.1908 0.14652 0.50208 0.0
H2733 H 0.15243 0.13018 0.49802 0.0
H2734 H 0.16411 0.05418 0.54178 0.0
H2735 H 0.15549 0.05117 0.57118 0.0
H2736 H 0.1816 0.06801 0.57045 0.0
H2737 H 0.17427 0.10796 0.59953 0.0
H2738 H 0.14799 0.09124 0.6001 0.0
H2739 H 0.15196 0.1216 0.59064 0.0
H2740 H 0.11476 0.10707 0.49946 0.0
H2741 H 0.08275 0.07721 0.50435 0.0
H2742 H 0.11784 0.05609 0.56569 0.0
C2743 C 0.19046 0.11562 0.55079 0.0
C2744 C 0.19888 0.1302 0.53409 0.0
C2745 C 0.18484 0.13562 0.51524 0.0
C2746 C 0.16296 0.12644 0.51283 0.0
C2747 C 0.15524 0.11195 0.52951 0.0
C2748 C 0.16866 0.10661 0.54813 0.0
C2749 C 0.15675 0.08934 0.56276 0.0
C2750 C 0.16497 0.06419 0.56144 0.0
C2751 C 0.15781 0.10338 0.58986 0.0
C2752 C 0.13464 0.08481 0.54886 0.0
C2753 C 0.13391 0.09851 0.53011 0.0
C2754 C 0.11519 0.09657 0.51429 0.0
C2755 C 0.09703 0.07973 0.51728 0.0
C2756 C 0.09779 0.06486 0.53572 0.0
C2757 C 0.11676 0.06776 0.55185 0.0
H2758 H 0.19396 0.93011 0.78832 0.0
H2759 H 0.23124 0.97611 0.85678 0.0
H2760 H 0.25163 0.94261 0.85918 0.0
H2761 H 0.19281 0.86795 0.80573 0.0
H2762 H 0.19604 0.85073 0.77563 0.0
H2763 H 0.1838 0.87837 0.77802 0.0
H2764 H 0.21099 0.89936 0.75357 0.0
H2765 H 0.22324 0.87171 0.75102 0.0
H2766 H 0.23866 0.90317 0.76438 0.0
H2767 H 0.26893 0.90471 0.85561 0.0
H2768 H 0.28227 0.86487 0.84555 0.0
H2769 H 0.23535 0.8392 0.77961 0.0
C2770 C 0.20654 0.93327 0.80368 0.0
C2771 C 0.2106 0.95658 0.82238 0.0
C2772 C 0.22731 0.95908 0.84209 0.0
C2773 C 0.23921 0.93989 0.84373 0.0
C2774 C 0.23476 0.91743 0.8255 0.0
C2775 C 0.21893 0.91385 0.80568 0.0
C2776 C 0.21798 0.8874 0.78878 0.0
C2777 C 0.19636 0.87008 0.78693 0.0
C2778 C 0.22301 0.8906 0.76289 0.0
C2779 C 0.23543 0.87684 0.80246 0.0
C2780 C 0.24486 0.89487 0.82352 0.0
C2781 C 0.26159 0.89049 0.83914 0.0
C2782 C 0.26914 0.86751 0.83319 0.0
C2783 C 0.26009 0.84818 0.81182 0.0
C2784 C 0.2427 0.85311 0.79628 0.0
H2785 H 0.33357 0.88608 0.06639 0.0
H2786 H 0.29605 0.87212 0.99386 0.0
H2787 H 0.32656 0.89339 0.9773 0.0
H2788 H 0.36005 0.94832 0.06514 0.0
H2789 H 0.38503 0.94566 0.08085 0.0
H2790 H 0.36108 0.92707 0.08657 0.0
H2791 H 0.37518 0.8853 0.07412 0.0
H2792 H 0.39931 0.90381 0.06868 0.0
H2793 H 0.38424 0.87821 0.0444 0.0
H2794 H 0.3599 0.91879 0.96945 0.0
H2795 H 0.39478 0.94499 0.96984 0.0
H2796 H 0.41121 0.94375 0.04777 0.0
C2797 C 0.33208 0.88698 0.04689 0.0
C2798 C 0.31272 0.87716 0.03115 0.0
C2799 C 0.31093 0.87927 1.00596 0.0
C2800 C 0.32813 0.89137 0.99648 0.0
C2801 C 0.34694 0.90142 0.01252 0.0
C2802 C 0.34912 0.89924 0.03715 0.0
C2803 C 0.37079 0.91293 0.05063 0.0
C2804 C 0.36913 0.93479 0.07206 0.0
C2805 C 0.38311 0.89392 0.06001 0.0
C2806 C 0.38035 0.92326 0.02977 0.0
C2807 C 0.36626 0.91637 1.008 0.0
C2808 C 0.37112 0.92419 0.98635 0.0
C2809 C 0.39094 0.93929 0.98683 0.0
C2810 C 0.4058 0.94656 1.00882 0.0
C2811 C 0.40033 0.93832 0.03057 0.0
H2812 H 0.8952 0.63331 0.77742 0.0
H2813 H 0.86096 0.60075 0.83104 0.0
H2814 H 0.83977 0.63371 0.83306 0.0
H2815 H 0.89593 0.70004 0.8023 0.0
H2816 H 0.88996 0.70935 0.77309 0.0
H2817 H 0.9029 0.68264 0.77426 0.0
H2818 H 0.87365 0.65346 0.74091 0.0
H2819 H 0.86073 0.6802 0.73958 0.0
H2820 H 0.84658 0.65104 0.7459 0.0
H2821 H 0.82227 0.67041 0.83185 0.0
H2822 H 0.80806 0.70826 0.82522 0.0
H2823 H 0.85105 0.72096 0.77211 0.0
C2824 C 0.88302 0.63284 0.78925 0.0
C2825 C 0.88033 0.61375 0.80426 0.0
C2826 C 0.86401 0.61462 0.81943 0.0
C2827 C 0.85163 0.63354 0.82079 0.0
C2828 C 0.85496 0.65213 0.80659 0.0
C2829 C 0.86995 0.65195 0.79071 0.0
C2830 C 0.86931 0.6745 0.77727 0.0
C2831 C 0.89081 0.69271 0.78203 0.0
C2832 C 0.86215 0.66419 0.74925 0.0
C2833 C 0.85253 0.68777 0.78916 0.0
C2834 C 0.84438 0.67394 0.80572 0.0
C2835 C 0.8285 0.6813 0.81883 0.0
C2836 C 0.82045 0.70301 0.81493 0.0
C2837 C 0.8282 0.71804 0.79826 0.0
C2838 C 0.84473 0.71024 0.78522 0.0
H2839 H 0.83954 0.662 0.0525 0.0
H2840 H 0.79681 0.58824 0.03393 0.0
H2841 H 0.82654 0.56668 0.04078 0.0
H2842 H 0.88292 0.64451 0.02584 0.0
H2843 H 0.90301 0.66247 0.05087 0.0
H2844 H 0.87841 0.67289 0.04573 0.0
H2845 H 0.8727 0.67185 0.09111 0.0
H2846 H 0.89742 0.66164 0.09647 0.0
H2847 H 0.87363 0.64292 0.10249 0.0
H2848 H 0.86013 0.55242 0.04644 0.0
H2849 H 0.8966 0.54605 0.05427 0.0
H2850 H 0.91915 0.6283 0.07126 0.0
C2851 C 0.83653 0.64135 0.05013 0.0
C2852 C 0.81581 0.62677 0.04259 0.0
C2853 C 0.81244 0.59982 0.03988 0.0
C2854 C 0.82926 0.58736 0.04363 0.0
C2855 C 0.84944 0.60208 0.05073 0.0
C2856 C 0.85323 0.6285 0.05454 0.0
C2857 C 0.87662 0.63942 0.06291 0.0
C2858 C 0.88577 0.65578 0.04526 0.0
C2859 C 0.88031 0.65488 0.08984 0.0
C2860 C 0.88539 0.61488 0.0614 0.0
C2861 C 0.86923 0.59369 0.05472 0.0
C2862 C 0.87293 0.56883 0.05193 0.0
C2863 C 0.89367 0.56538 0.05635 0.0
C2864 C 0.91059 0.58659 0.06332 0.0
C2865 C 0.90645 0.61176 0.06582 0.0
H2866 H 0.23652 0.09962 0.84511 0.0
H2867 H 0.18177 0.09059 0.78997 0.0
H2868 H 0.19557 0.13323 0.78143 0.0
H2869 H 0.24013 0.16839 0.86839 0.0
H2870 H 0.26846 0.17508 0.87402 0.0
H2871 H 0.25405 0.14416 0.87594 0.0
H2872 H 0.27451 0.12197 0.8435 0.0
H2873 H 0.2891 0.15276 0.84171 0.0
H2874 H 0.2748 0.13126 0.81385 0.0
H2875 H 0.21642 0.17909 0.77927 0.0
H2876 H 0.2425 0.21916 0.78162 0.0
H2877 H 0.28365 0.19736 0.83732 0.0
C2878 C 0.22738 0.10647 0.83113 0.0
C2879 C 0.2079 0.09123 0.81819 0.0
C2880 C 0.19662 0.10151 0.80026 0.0
C2881 C 0.20439 0.12593 0.7953 0.0
C2882 C 0.22353 0.14046 0.80854 0.0
C2883 C 0.23484 0.13093 0.82611 0.0
C2884 C 0.25496 0.15014 0.83791 0.0
C2885 C 0.25437 0.16002 0.86571 0.0
C2886 C 0.27449 0.13832 0.83399 0.0
C2887 C 0.25381 0.17147 0.82355 0.0
C2888 C 0.23533 0.16598 0.80708 0.0
C2889 C 0.23086 0.18337 0.79221 0.0
C2890 C 0.24571 0.20635 0.79382 0.0
C2891 C 0.26514 0.21184 0.80986 0.0
C2892 C 0.26892 0.19402 0.82499 0.0
H2893 H 0.36573 0.97236 0.26932 0.0
H2894 H 0.40722 0.9847 0.33909 0.0
H2895 H 0.39358 0.94072 0.3431 0.0
H2896 H 0.32179 0.93467 0.28623 0.0
H2897 H 0.31404 0.91182 0.2571 0.0
H2898 H 0.32811 0.94364 0.2577 0.0
H2899 H 0.35658 0.9246 0.23559 0.0
H2900 H 0.34256 0.89269 0.23492 0.0
H2901 H 0.36973 0.90248 0.24886 0.0
H2902 H 0.37335 0.89794 0.34302 0.0
H2903 H 0.34933 0.85638 0.33697 0.0
H2904 H 0.32083 0.86703 0.26597 0.0
C2905 C 0.37232 0.96548 0.28502 0.0
C2906 C 0.38787 0.98222 0.30385 0.0
C2907 C 0.39556 0.97244 0.32436 0.0
C2908 C 0.38784 0.94738 0.32685 0.0
C2909 C 0.37232 0.93162 0.30857 0.0
C2910 C 0.36479 0.93991 0.28775 0.0
C2911 C 0.3476 0.91855 0.2714 0.0
C2912 C 0.32664 0.92773 0.2679 0.0
C2913 C 0.35454 0.90903 0.24619 0.0
C2914 C 0.34619 0.89767 0.28685 0.0
C2915 C 0.36077 0.90589 0.30816 0.0
C2916 C 0.36208 0.89116 0.32623 0.0
C2917 C 0.34822 0.8675 0.32266 0.0
C2918 C 0.33311 0.8581 0.30102 0.0
C2919 C 0.33231 0.8734 0.28262 0.0
H2920 H 0.5691 0.35055 0.58828 0.0
H2921 H 0.59339 0.39064 0.66401 0.0
H2922 H 0.59145 0.43184 0.65191 0.0
H2923 H 0.59696 0.40454 0.55892 0.0
H2924 H 0.57534 0.39791 0.53393 0.0
H2925 H 0.58248 0.37223 0.54757 0.0
H2926 H 0.54412 0.3604 0.55606 0.0
H2927 H 0.53706 0.38657 0.54341 0.0
H2928 H 0.5328 0.38417 0.57464 0.0
H2929 H 0.58075 0.46692 0.63412 0.0
H2930 H 0.56843 0.49635 0.60951 0.0
H2931 H 0.55178 0.43473 0.54411 0.0
C2932 C 0.57515 0.36816 0.60189 0.0
C2933 C 0.58185 0.36753 0.62697 0.0
C2934 C 0.58893 0.39078 0.64459 0.0
C2935 C 0.58757 0.41425 0.63794 0.0
C2936 C 0.57973 0.41412 0.61343 0.0
C2937 C 0.57442 0.39185 0.59538 0.0
C2938 C 0.56576 0.39719 0.57059 0.0
C2939 C 0.58104 0.3927 0.55162 0.0
C2940 C 0.54362 0.38113 0.56062 0.0
C2941 C 0.56534 0.4255 0.57812 0.0
C2942 C 0.57381 0.43481 0.60286 0.0
C2943 C 0.57467 0.46005 0.61458 0.0
C2944 C 0.56755 0.47657 0.60046 0.0
C2945 C 0.55943 0.46785 0.57492 0.0
C2946 C 0.55794 0.44184 0.56362 0.0
H2947 H 0.4453 0.79756 0.38518 0.0
H2948 H 0.43251 0.72031 0.39858 0.0
H2949 H 0.39556 0.71519 0.38052 0.0
H2950 H 0.39226 0.81107 0.39981 0.0
H2951 H 0.39044 0.83055 0.37685 0.0
H2952 H 0.41581 0.82928 0.39266 0.0
H2953 H 0.42829 0.81549 0.35022 0.0
H2954 H 0.40299 0.81664 0.33436 0.0
H2955 H 0.41336 0.78764 0.32835 0.0
H2956 H 0.36201 0.71557 0.35633 0.0
H2957 H 0.33175 0.7229 0.3297 0.0
H2958 H 0.36343 0.80121 0.33454 0.0
C2959 C 0.43456 0.77979 0.38464 0.0
C2960 C 0.44177 0.75931 0.39331 0.0
C2961 C 0.42732 0.73633 0.39232 0.0
C2962 C 0.40627 0.7332 0.38205 0.0
C2963 C 0.39964 0.75349 0.37345 0.0
C2964 C 0.41311 0.77658 0.37507 0.0
C2965 C 0.40155 0.79506 0.36413 0.0
C2966 C 0.39992 0.81784 0.38458 0.0
C2967 C 0.41218 0.80422 0.343 0.0
C2968 C 0.38003 0.77797 0.3545 0.0
C2969 C 0.37936 0.7542 0.36047 0.0
C2970 C 0.36205 0.73428 0.35208 0.0
C2971 C 0.34497 0.73858 0.33694 0.0
C2972 C 0.34514 0.76266 0.33057 0.0
C2973 C 0.36273 0.78283 0.33981 0.0
H2974 H 0.06345 0.72528 0.15008 0.0
H2975 H 0.0569 0.75771 0.08441 0.0
H2976 H 0.05839 0.71583 0.05797 0.0
H2977 H 0.09701 0.67941 0.12926 0.0
H2978 H 0.08312 0.65503 0.14295 0.0
H2979 H 0.0851 0.68838 0.1567 0.0
H2980 H 0.04447 0.68148 0.15335 0.0
H2981 H 0.04235 0.6482 0.13949 0.0
H2982 H 0.0286 0.66803 0.12351 0.0
H2983 H 0.05834 0.66977 0.03883 0.0
H2984 H 0.05392 0.62237 0.02817 0.0
H2985 H 0.05731 0.61995 0.10629 0.0
C2986 C 0.06295 0.72362 0.13018 0.0
C2987 C 0.06055 0.74452 0.11909 0.0
C2988 C 0.05904 0.74175 0.09303 0.0
C2989 C 0.05994 0.71817 0.07799 0.0
C2990 C 0.06194 0.69764 0.08943 0.0
C2991 C 0.06322 0.70011 0.11494 0.0
C2992 C 0.06263 0.67458 0.12243 0.0
C2993 C 0.08319 0.67434 0.1388 0.0
C2994 C 0.04337 0.66768 0.13545 0.0
C2995 C 0.06059 0.65728 0.09716 0.0
C2996 C 0.06061 0.67095 0.07837 0.0
C2997 C 0.05838 0.65889 0.05337 0.0
C2998 C 0.05584 0.63211 0.04747 0.0
C2999 C 0.05523 0.618 0.06651 0.0
C3000 C 0.05777 0.63063 0.09156 0.0
H3001 H 0.06772 0.2413 0.85722 0.0
H3002 H 0.07358 0.29476 0.9277 0.0
H3003 H 0.11092 0.31083 0.92468 0.0
H3004 H 0.11865 0.22531 0.86726 0.0
H3005 H 0.12266 0.22289 0.83523 0.0
H3006 H 0.09641 0.21616 0.84288 0.0
H3007 H 0.08572 0.2502 0.81917 0.0
H3008 H 0.11192 0.25694 0.81138 0.0
H3009 H 0.10076 0.28249 0.82733 0.0
H3010 H 0.14784 0.32187 0.91271 0.0
H3011 H 0.18088 0.32504 0.89394 0.0
H3012 H 0.15044 0.26287 0.83269 0.0
C3013 C 0.07682 0.25639 0.87205 0.0
C3014 C 0.06772 0.26676 0.89268 0.0
C3015 C 0.08025 0.28642 0.91174 0.0
C3016 C 0.10146 0.29573 0.91016 0.0
C3017 C 0.10994 0.28501 0.88952 0.0
C3018 C 0.09799 0.26565 0.87091 0.0
C3019 C 0.11075 0.25698 0.85084 0.0
C3020 C 0.1122 0.22865 0.84895 0.0
C3021 C 0.10175 0.26196 0.8257 0.0
C3022 C 0.13179 0.27437 0.86098 0.0
C3023 C 0.13107 0.29064 0.88319 0.0
C3024 C 0.14858 0.30903 0.89545 0.0
C3025 C 0.16724 0.31073 0.88468 0.0
C3026 C 0.16823 0.29391 0.86209 0.0
C3027 C 0.15025 0.27556 0.85025 0.0
H3028 H 0.59085 0.75729 0.99338 0.0
H3029 H 0.55181 0.81322 0.01167 0.0
H3030 H 0.53175 0.78528 0.0345 0.0
H3031 H 0.55329 0.7084 0.97648 0.0
H3032 H 0.56492 0.68461 0.98884 0.0
H3033 H 0.5815 0.71156 0.98172 0.0
H3034 H 0.60126 0.7254 0.02683 0.0
H3035 H 0.58595 0.69723 0.03371 0.0
H3036 H 0.58641 0.72835 0.05253 0.0
H3037 H 0.5108 0.74728 0.0466 0.0
H3038 H 0.49528 0.7047 0.05436 0.0
H3039 H 0.54658 0.67349 0.02473 0.0
C3040 C 0.57913 0.76435 1.00378 0.0
C3041 C 0.57293 0.78726 1.00087 0.0
C3042 C 0.55691 0.7957 0.01376 0.0
C3043 C 0.54527 0.77985 0.02671 0.0
C3044 C 0.55012 0.75588 0.02674 0.0
C3045 C 0.56717 0.74851 0.01639 0.0
C3046 C 0.56732 0.72062 0.01577 0.0
C3047 C 0.56671 0.70544 0.98912 0.0
C3048 C 0.58636 0.71773 0.03326 0.0
C3049 C 0.54706 0.71317 0.02574 0.0
C3050 C 0.5375 0.73374 0.03247 0.0
C3051 C 0.51835 0.73108 0.04183 0.0
C3052 C 0.50947 0.70692 0.04578 0.0
C3053 C 0.51957 0.68598 0.03964 0.0
C3054 C 0.53824 0.6891 0.02894 0.0
H3055 H 0.08095 0.68882 0.6449 0.0
H3056 H 0.05084 0.74819 0.68037 0.0
H3057 H 0.0852 0.77435 0.69969 0.0
H3058 H 0.11526 0.69005 0.69395 0.0
H3059 H 0.13738 0.68464 0.67818 0.0
H3060 H 0.11116 0.67357 0.66181 0.0
H3061 H 0.12013 0.69941 0.62794 0.0
H3062 H 0.14665 0.71017 0.64402 0.0
H3063 H 0.13117 0.73321 0.63702 0.0
H3064 H 0.12139 0.78799 0.72387 0.0
H3065 H 0.15723 0.79037 0.74597 0.0
H3066 H 0.16408 0.72382 0.69286 0.0
C3067 C 0.0817 0.70781 0.6559 0.0
C3068 C 0.06322 0.71663 0.66099 0.0
C3069 C 0.06469 0.7413 0.67576 0.0
C3070 C 0.08426 0.75629 0.68694 0.0
C3071 C 0.1022 0.74645 0.68265 0.0
C3072 C 0.10113 0.72303 0.66689 0.0
C3073 C 0.12228 0.7152 0.66774 0.0
C3074 C 0.12145 0.68936 0.67591 0.0
C3075 C 0.13054 0.71447 0.64268 0.0
C3076 C 0.13506 0.73706 0.68742 0.0
C3077 C 0.12335 0.75505 0.69583 0.0
C3078 C 0.13103 0.7747 0.71673 0.0
C3079 C 0.15122 0.77589 0.72922 0.0
C3080 C 0.16324 0.75769 0.72039 0.0
C3081 C 0.15525 0.73844 0.69914 0.0
H3082 H 0.10106 0.4141 0.47724 0.0
H3083 H 0.10247 0.36929 0.53365 0.0
H3084 H 0.08024 0.39481 0.55679 0.0
H3085 H 0.09437 0.47407 0.52185 0.0
H3086 H 0.0759 0.48322 0.50093 0.0
H3087 H 0.09733 0.4698 0.48938 0.0
H3088 H 0.07528 0.43298 0.45793 0.0
H3089 H 0.0515 0.44395 0.46397 0.0
H3090 H 0.05396 0.41193 0.46648 0.0
H3091 H 0.05041 0.41874 0.56717 0.0
H3092 H 0.02767 0.45103 0.57236 0.0
H3093 H 0.0382 0.468 0.50124 0.0
C3094 C 0.09806 0.41112 0.49548 0.0
C3095 C 0.10027 0.38797 0.50217 0.0
C3096 C 0.09843 0.38565 0.52698 0.0
C3097 C 0.08545 0.3997 0.54004 0.0
C3098 C 0.07727 0.41755 0.52874 0.0
C3099 C 0.08433 0.42428 0.50763 0.0
C3100 C 0.07178 0.44183 0.49753 0.0
C3101 C 0.08567 0.46876 0.50259 0.0
C3102 C 0.06262 0.43207 0.46985 0.0
C3103 C 0.05473 0.44098 0.51382 0.0
C3104 C 0.05882 0.42817 0.5327 0.0
C3105 C 0.04734 0.42904 0.5526 0.0
C3106 C 0.03381 0.44666 0.55495 0.0
C3107 C 0.03332 0.46334 0.53814 0.0
C3108 C 0.0394 0.45597 0.51478 0.0
H3109 H 0.44037 0.21396 0.19316 0.0
H3110 H 0.48356 0.28329 0.19038 0.0
H3111 H 0.48046 0.30163 0.23373 0.0
H3112 H 0.40536 0.24392 0.22204 0.0
H3113 H 0.39837 0.22117 0.24118 0.0
H3114 H 0.40809 0.21105 0.21263 0.0
H3115 H 0.4374 0.19449 0.23677 0.0
H3116 H 0.42782 0.20502 0.26559 0.0
H3117 H 0.4549 0.21598 0.26238 0.0
H3118 H 0.46929 0.31506 0.27353 0.0
H3119 H 0.44507 0.32668 0.30278 0.0
H3120 H 0.40797 0.2496 0.28113 0.0
C3121 C 0.44919 0.2329 0.20195 0.0
C3122 C 0.46189 0.24751 0.1887 0.0
C3123 C 0.47339 0.27216 0.20037 0.0
C3124 C 0.47212 0.28245 0.22509 0.0
C3125 C 0.45934 0.26775 0.23786 0.0
C3126 C 0.44779 0.24366 0.22662 0.0
C3127 C 0.43235 0.23399 0.24286 0.0
C3128 C 0.40972 0.22718 0.22884 0.0
C3129 C 0.4385 0.21101 0.25248 0.0
C3130 C 0.43567 0.25741 0.26379 0.0
C3131 C 0.45219 0.27603 0.26121 0.0
C3132 C 0.45662 0.30054 0.27619 0.0
C3133 C 0.44283 0.30696 0.2929 0.0
C3134 C 0.42468 0.28903 0.29404 0.0
C3135 C 0.4219 0.2635 0.28063 0.0
H3136 H 0.63347 0.56275 0.4013 0.0
H3137 H 0.63283 0.48216 0.37429 0.0
H3138 H 0.61228 0.47137 0.40712 0.0
H3139 H 0.6391 0.55841 0.46838 0.0
H3140 H 0.62296 0.58155 0.47712 0.0
H3141 H 0.63769 0.58368 0.45153 0.0
H3142 H 0.60352 0.5826 0.42263 0.0
H3143 H 0.58872 0.58055 0.44813 0.0
H3144 H 0.58146 0.55661 0.4197 0.0
H3145 H 0.5904 0.46831 0.44196 0.0
H3146 H 0.5692 0.47314 0.47614 0.0
H3147 H 0.58384 0.55565 0.48464 0.0
C3148 C 0.62914 0.54285 0.40242 0.0
C3149 C 0.63517 0.52329 0.38483 0.0
C3150 C 0.62889 0.49759 0.38734 0.0
C3151 C 0.61706 0.49123 0.40606 0.0
C3152 C 0.61157 0.51069 0.42309 0.0
C3153 C 0.61753 0.53608 0.42172 0.0
C3154 C 0.6097 0.55304 0.44305 0.0
C3155 C 0.62848 0.57021 0.46109 0.0
C3156 C 0.59497 0.56916 0.43276 0.0
C3157 C 0.59779 0.53323 0.4559 0.0
C3158 C 0.59936 0.50895 0.44398 0.0
C3159 C 0.58943 0.48731 0.45157 0.0
C3160 C 0.57743 0.49029 0.47134 0.0
C3161 C 0.57515 0.51471 0.48419 0.0
C3162 C 0.58575 0.53663 0.47621 0.0
H3163 H 0.29364 0.78096 0.06539 0.0
H3164 H 0.25983 0.84057 0.09172 0.0
H3165 H 0.29115 0.86391 0.12066 0.0
H3166 H 0.30993 0.77548 0.12226 0.0
H3167 H 0.33468 0.76684 0.11601 0.0
H3168 H 0.3134 0.76098 0.09125 0.0
H3169 H 0.33788 0.78732 0.06722 0.0
H3170 H 0.35898 0.79437 0.09291 0.0
H3171 H 0.35007 0.8201 0.08096 0.0
H3172 H 0.32253 0.87773 0.15036 0.0
H3173 H 0.33849 0.86891 0.18912 0.0
H3174 H 0.35203 0.7988 0.14849 0.0
C3175 C 0.29318 0.7994 0.07673 0.0
C3176 C 0.27493 0.80992 0.07497 0.0
C3177 C 0.27412 0.83291 0.09155 0.0
C3178 C 0.292 0.84655 0.10781 0.0
C3179 C 0.31026 0.83635 0.10825 0.0
C3180 C 0.31055 0.81259 0.09392 0.0
C3181 C 0.32886 0.80166 0.10341 0.0
C3182 C 0.32125 0.77472 0.10859 0.0
C3183 C 0.3449 0.80084 0.08503 0.0
C3184 C 0.33752 0.82173 0.12695 0.0
C3185 C 0.32784 0.84277 0.128 0.0
C3186 C 0.33025 0.86149 0.1497 0.0
C3187 C 0.33957 0.85646 0.17174 0.0
C3188 C 0.34494 0.83227 0.17165 0.0
C3189 C 0.34735 0.81707 0.14889 0.0
H3190 H 0.95463 0.51524 0.87323 0.0
H3191 H 0.97601 0.59579 0.87461 0.0
H3192 H 0.99761 0.60074 0.91542 0.0
H3193 H 0.95184 0.52515 0.94147 0.0
H3194 H 0.96011 0.49567 0.94461 0.0
H3195 H 0.94588 0.49812 0.9156 0.0
H3196 H 0.97583 0.4846 0.89239 0.0
H3197 H 0.99011 0.48204 0.92128 0.0
H3198 H 1.00238 0.50234 0.90237 0.0
H3199 H 0.01872 0.59694 0.95536 0.0
H3200 H 0.03712 0.58483 0.99152 0.0
H3201 H 1.00189 0.50707 0.96739 0.0
C3202 C 0.96378 0.53393 0.88224 0.0
C3203 C 0.96351 0.55524 0.87044 0.0
C3204 C 0.97573 0.57927 0.8831 0.0
C3205 C 0.98814 0.58225 0.90639 0.0
C3206 C 0.9881 0.5611 0.91755 0.0
C3207 C 0.97606 0.5374 0.90608 0.0
C3208 C 0.97882 0.51802 0.92263 0.0
C3209 C 0.95792 0.50868 0.9316 0.0
C3210 C 0.9873 0.49541 0.90884 0.0
C3211 C 0.99499 0.5342 0.9445 0.0
C3212 C 0.99985 0.5591 0.94118 0.0
C3213 C 1.01473 0.57758 0.95825 0.0
C3214 C 0.02507 0.57056 0.97896 0.0
C3215 C 0.02066 0.54526 0.98305 0.0
C3216 C 1.00523 0.52682 0.96543 0.0
H3217 H 0.27362 0.18633 0.61166 0.0
H3218 H 0.2974 0.25665 0.58856 0.0
H3219 H 0.29747 0.28137 0.63098 0.0
H3220 H 0.24113 0.21254 0.6573 0.0
H3221 H 0.24847 0.19344 0.67903 0.0
H3222 H 0.24748 0.18169 0.64613 0.0
H3223 H 0.28609 0.1758 0.65357 0.0
H3224 H 0.28724 0.18762 0.68643 0.0
H3225 H 0.30622 0.20271 0.66963 0.0
H3226 H 0.29682 0.29823 0.67633 0.0
H3227 H 0.29757 0.30572 0.72204 0.0
H3228 H 0.27681 0.22436 0.71687 0.0
C3229 C 0.27823 0.20701 0.61545 0.0
C3230 C 0.28502 0.21975 0.59676 0.0
C3231 C 0.29182 0.24667 0.60256 0.0
C3232 C 0.2919 0.26083 0.62659 0.0
C3233 C 0.28547 0.24773 0.64477 0.0
C3234 C 0.27889 0.2214 0.63957 0.0
C3235 C 0.27482 0.2118 0.66307 0.0
C3236 C 0.25159 0.19912 0.66127 0.0
C3237 C 0.28947 0.1934 0.66849 0.0
C3238 C 0.28028 0.23679 0.68228 0.0
C3239 C 0.28608 0.25732 0.67123 0.0
C3240 C 0.2922 0.28232 0.68515 0.0
C3241 C 0.29258 0.28643 0.71104 0.0
C3242 C 0.28713 0.26566 0.72275 0.0
C3243 C 0.28083 0.24055 0.7082 0.0
H3244 H 0.61021 0.55299 0.24126 0.0
H3245 H 0.63654 0.48427 0.22656 0.0
H3246 H 0.62099 0.47639 0.18221 0.0
H3247 H 0.56129 0.52832 0.19929 0.0
H3248 H 0.56031 0.55817 0.18968 0.0
H3249 H 0.57332 0.55824 0.22015 0.0
H3250 H 0.60738 0.58481 0.21095 0.0
H3251 H 0.59446 0.58486 0.18047 0.0
H3252 H 0.61867 0.57312 0.18374 0.0
H3253 H 0.60147 0.4756 0.13866 0.0
H3254 H 0.58195 0.48283 0.10066 0.0
H3255 H 0.56896 0.553 0.14285 0.0
C3256 C 0.6128 0.53624 0.22879 0.0
C3257 C 0.6248 0.51925 0.23785 0.0
C3258 C 0.6276 0.49768 0.22048 0.0
C3259 C 0.61871 0.49301 0.19511 0.0
C3260 C 0.60699 0.51009 0.18694 0.0
C3261 C 0.60413 0.53138 0.20332 0.0
C3262 C 0.59104 0.54696 0.1898 0.0
C3263 C 0.57026 0.54798 0.20036 0.0
C3264 C 0.60364 0.57404 0.19133 0.0
C3265 C 0.58708 0.53131 0.16317 0.0
C3266 C 0.59625 0.50996 0.162 0.0
C3267 C 0.59439 0.49236 0.13953 0.0
C3268 C 0.58313 0.49666 0.11787 0.0
C3269 C 0.57378 0.51859 0.11824 0.0
C3270 C 0.5759 0.5361 0.14151 0.0
H3271 H 0.25604 0.84955 0.95575 0.0
H3272 H 0.23109 0.77596 0.97144 0.0
H3273 H 0.24165 0.75416 0.93313 0.0
H3274 H 0.24204 0.82278 0.8817 0.0
H3275 H 0.26443 0.8457 0.87824 0.0
H3276 H 0.24866 0.85392 0.90219 0.0
H3277 H 0.28321 0.86576 0.93341 0.0
H3278 H 0.29866 0.85463 0.91016 0.0
H3279 H 0.29806 0.84128 0.93768 0.0
H3280 H 0.26563 0.74193 0.90356 0.0
H3281 H 0.28299 0.73653 0.86594 0.0
H3282 H 0.29072 0.81791 0.86813 0.0
C3283 C 0.25105 0.82897 0.94982 0.0
C3284 C 0.24392 0.8141 0.96658 0.0
C3285 C 0.23707 0.78735 0.95863 0.0
C3286 C 0.24352 0.77481 0.93729 0.0
C3287 C 0.25466 0.7899 0.92351 0.0
C3288 C 0.25664 0.81628 0.92799 0.0
C3289 C 0.26948 0.82778 0.91023 0.0
C3290 C 0.25531 0.83814 0.89201 0.0
C3291 C 0.28848 0.84857 0.92372 0.0
C3292 C 0.27631 0.80413 0.89729 0.0
C3293 C 0.26776 0.78258 0.90547 0.0
C3294 C 0.2718 0.75844 0.89627 0.0
C3295 C 0.28222 0.75566 0.87551 0.0
C3296 C 0.28767 0.77682 0.86447 0.0
C3297 C 0.2868 0.80164 0.87675 0.0
H3298 H 0.96223 0.58848 0.70699 0.0
H3299 H 0.96298 0.51638 0.73004 0.0
H3300 H 0.98106 0.50209 0.69419 0.0
H3301 H 0.95255 0.56222 0.63972 0.0
H3302 H 0.9691 0.58948 0.63277 0.0
H3303 H 0.95587 0.59334 0.65981 0.0
H3304 H 0.99162 0.61344 0.68696 0.0
H3305 H 1.00544 0.60863 0.66051 0.0
H3306 H 1.01248 0.59544 0.68705 0.0
H3307 H 1.00161 0.49681 0.65597 0.0
H3308 H 0.01895 0.49953 0.61849 0.0
H3309 H 1.00321 0.57402 0.61855 0.0
C3310 C 0.96593 0.56951 0.70442 0.0
C3311 C 0.9609 0.5536 0.7217 0.0
C3312 C 0.9663 0.52899 0.71728 0.0
C3313 C 0.97675 0.52074 0.69689 0.0
C3314 C 0.98163 0.53704 0.68047 0.0
C3315 C 0.97606 0.56081 0.68387 0.0
C3316 C 0.98305 0.57477 0.66364 0.0
C3317 C 0.96401 0.58028 0.64806 0.0
C3318 C 0.99908 0.59955 0.67523 0.0
C3319 C 0.99335 0.55526 0.64812 0.0
C3320 C 0.99263 0.5337 0.65834 0.0
C3321 C 1.0019 0.51352 0.64782 0.0
C3322 C 1.01179 0.51523 0.62643 0.0
C3323 C 1.01229 0.53676 0.61513 0.0
C3324 C 1.0029 0.55708 0.62636 0.0
H3325 H 0.27055 0.1923 0.44346 0.0
H3326 H 0.29131 0.25847 0.5039 0.0
H3327 H 0.29377 0.28677 0.47365 0.0
H3328 H 0.30549 0.21283 0.40417 0.0
H3329 H 0.28782 0.20083 0.37537 0.0
H3330 H 0.28441 0.18572 0.40142 0.0
H3331 H 0.24599 0.19267 0.39955 0.0
H3332 H 0.24921 0.20757 0.37327 0.0
H3333 H 0.24074 0.22443 0.40051 0.0
H3334 H 0.29632 0.30764 0.43753 0.0
H3335 H 0.3 0.32027 0.39761 0.0
H3336 H 0.27981 0.24083 0.35893 0.0
C3337 C 0.27479 0.21284 0.45023 0.0
C3338 C 0.28003 0.22337 0.47609 0.0
C3339 C 0.28663 0.25018 0.48426 0.0
C3340 C 0.28816 0.26636 0.46719 0.0
C3341 C 0.28329 0.25546 0.44185 0.0
C3342 C 0.27672 0.22934 0.43327 0.0
C3343 C 0.27424 0.22261 0.40493 0.0
C3344 C 0.28887 0.20442 0.39596 0.0
C3345 C 0.25117 0.21113 0.39392 0.0
C3346 C 0.28096 0.24891 0.39905 0.0
C3347 C 0.28573 0.26753 0.42071 0.0
C3348 C 0.29249 0.29325 0.42045 0.0
C3349 C 0.29453 0.30022 0.39755 0.0
C3350 C 0.2902 0.2816 0.37498 0.0
C3351 C 0.28318 0.25554 0.3758 0.0
H3352 H 0.36607 0.63847 0.56717 0.0
H3353 H 0.40864 0.7029 0.55223 0.0
H3354 H 0.43323 0.67429 0.53963 0.0
H3355 H 0.40671 0.60645 0.5914 0.0
H3356 H 0.39134 0.57509 0.57748 0.0
H3357 H 0.37838 0.60133 0.58719 0.0
H3358 H 0.35779 0.59281 0.54274 0.0
H3359 H 0.37104 0.567 0.53261 0.0
H3360 H 0.37205 0.59319 0.51659 0.0
H3361 H 0.45088 0.63758 0.52435 0.0
H3362 H 0.46291 0.59648 0.51284 0.0
H3363 H 0.40902 0.55698 0.53933 0.0
C3364 C 0.38072 0.64668 0.56161 0.0
C3365 C 0.38551 0.67275 0.56045 0.0
C3366 C 0.40481 0.68289 0.55324 0.0
C3367 C 0.41877 0.6668 0.54598 0.0
C3368 C 0.41317 0.64089 0.54645 0.0
C3369 C 0.39481 0.63103 0.55459 0.0
C3370 C 0.3921 0.60248 0.55286 0.0
C3371 C 0.39215 0.59597 0.57878 0.0
C3372 C 0.37206 0.58803 0.53514 0.0
C3373 C 0.41167 0.59764 0.54205 0.0
C3374 C 0.42356 0.61997 0.53831 0.0
C3375 C 0.44188 0.62003 0.52747 0.0
C3376 C 0.44845 0.59668 0.5208 0.0
C3377 C 0.43675 0.57386 0.52523 0.0
C3378 C 0.41815 0.57432 0.53587 0.0
H3379 H 0.88848 0.97402 0.58406 0.0
H3380 H 0.88943 0.89652 0.54705 0.0
H3381 H 0.9261 0.91061 0.53942 0.0
H3382 H 0.91957 1.00854 0.54734 0.0
H3383 H 0.93327 0.03277 0.57367 0.0
H3384 H 0.90702 0.01635 0.5745 0.0
H3385 H 0.92012 1.00295 0.61518 0.0
H3386 H 0.94647 0.01915 0.61436 0.0
H3387 H 0.94145 0.98572 0.61577 0.0
H3388 H 0.96342 0.93481 0.53556 0.0
H3389 H 0.99684 0.96569 0.53742 0.0
H3390 H 0.97095 0.02534 0.5803 0.0
C3391 C 0.89633 0.96013 0.57399 0.0
C3392 C 0.88614 0.93436 0.56567 0.0
C3393 C 0.89704 0.91645 0.55333 0.0
C3394 C 0.91783 0.92429 0.54897 0.0
C3395 C 0.9276 0.94995 0.5577 0.0
C3396 C 0.91717 0.96745 0.57023 0.0
C3397 C 0.93129 0.99346 0.57922 0.0
C3398 C 0.92225 0.01398 0.56799 0.0
C3399 C 0.93505 1.00074 0.60782 0.0
C3400 C 0.9511 0.98827 0.56904 0.0
C3401 C 0.94889 0.96314 0.5567 0.0
C3402 C 0.96531 0.95447 0.54541 0.0
C3403 C 0.9843 0.97205 0.54663 0.0
C3404 C 0.98663 0.99785 0.55914 0.0
C3405 C 0.96979 1.00573 0.57062 0.0
H3406 H 0.86727 0.1195 0.32979 0.0
H3407 H 0.89342 0.11607 0.26069 0.0
H3408 H 0.87831 0.15358 0.25357 0.0
H3409 H 0.8183 0.13827 0.30848 0.0
H3410 H 0.81775 0.1593 0.33769 0.0
H3411 H 0.83035 0.13209 0.3371 0.0
H3412 H 0.86469 0.16201 0.36057 0.0
H3413 H 0.85223 0.18932 0.36112 0.0
H3414 H 0.8763 0.18861 0.34797 0.0
H3415 H 0.86061 0.1938 0.25467 0.0
H3416 H 0.84141 0.22963 0.26278 0.0
H3417 H 0.82574 0.20717 0.33069 0.0
C3418 C 0.86973 0.12636 0.31296 0.0
C3419 C 0.88171 0.11409 0.29573 0.0
C3420 C 0.88439 0.12445 0.27422 0.0
C3421 C 0.87584 0.14604 0.27005 0.0
C3422 C 0.86437 0.15768 0.28747 0.0
C3423 C 0.86122 0.14799 0.30848 0.0
C3424 C 0.84835 0.16403 0.32443 0.0
C3425 C 0.82745 0.14743 0.32708 0.0
C3426 C 0.86116 0.17674 0.35004 0.0
C3427 C 0.8446 0.1842 0.30918 0.0
C3428 C 0.85414 0.1803 0.28798 0.0
C3429 C 0.85313 0.19674 0.27123 0.0
C3430 C 0.84217 0.21728 0.27604 0.0
C3431 C 0.83198 0.22172 0.29742 0.0
C3432 C 0.83332 0.20466 0.31417 0.0
H3433 H 0.77459 0.17084 0.1026 0.0
H3434 H 0.76164 0.20263 0.03747 0.0
H3435 H 0.72385 0.18246 0.03334 0.0
H3436 H 0.74224 0.11138 0.07987 0.0
H3437 H 0.73392 0.10768 0.10924 0.0
H3438 H 0.75912 0.12698 0.10857 0.0
H3439 H 0.74928 0.16602 0.13658 0.0
H3440 H 0.72423 0.14661 0.13784 0.0
H3441 H 0.72528 0.1764 0.12748 0.0
H3442 H 0.68813 0.15444 0.03437 0.0
H3443 H 0.65757 0.12461 0.04214 0.0
H3444 H 0.69499 0.11263 0.10725 0.0
C3445 C 0.76374 0.17401 0.08772 0.0
C3446 C 0.7709 0.18827 0.07037 0.0
C3447 C 0.75632 0.192 0.05114 0.0
C3448 C 0.73492 0.18047 0.04858 0.0
C3449 C 0.72853 0.16564 0.0656 0.0
C3450 C 0.74255 0.16279 0.085 0.0
C3451 C 0.73227 0.1451 0.10022 0.0
C3452 C 0.7425 0.12139 0.09941 0.0
C3453 C 0.73279 0.15939 0.12712 0.0
C3454 C 0.71021 0.13805 0.08626 0.0
C3455 C 0.70827 0.14998 0.06632 0.0
C3456 C 0.68943 0.14539 0.0502 0.0
C3457 C 0.67214 0.12847 0.05482 0.0
C3458 C 0.67379 0.11638 0.07544 0.0
C3459 C 0.69317 0.12133 0.09123 0.0
H3460 H 0.22818 0.46125 0.34826 0.0
H3461 H 0.18975 0.44037 0.27575 0.0
H3462 H 0.20472 0.40112 0.26634 0.0
H3463 H 0.27469 0.43879 0.32927 0.0
H3464 H 0.28064 0.42694 0.35708 0.0
H3465 H 0.26697 0.45328 0.35808 0.0
H3466 H 0.23679 0.42821 0.3759 0.0
H3467 H 0.25036 0.40178 0.37485 0.0
H3468 H 0.22379 0.3966 0.35924 0.0
H3469 H 0.22252 0.36148 0.26598 0.0
H3470 H 0.24379 0.32894 0.27257 0.0
H3471 H 0.27319 0.37623 0.34397 0.0
C3472 C 0.22298 0.44865 0.33021 0.0
C3473 C 0.20756 0.45454 0.31273 0.0
C3474 C 0.20142 0.43692 0.28955 0.0
C3475 C 0.20986 0.41431 0.28407 0.0
C3476 C 0.2247 0.40905 0.30181 0.0
C3477 C 0.23139 0.42597 0.32436 0.0
C3478 C 0.24758 0.41586 0.34022 0.0
C3479 C 0.26873 0.43485 0.34653 0.0
C3480 C 0.23913 0.4103 0.36397 0.0
C3481 C 0.2494 0.39093 0.32296 0.0
C3482 C 0.23563 0.38709 0.30111 0.0
C3483 C 0.23347 0.36469 0.28293 0.0
C3484 C 0.24565 0.3461 0.2869 0.0
C3485 C 0.26051 0.34974 0.30864 0.0
C3486 C 0.26231 0.37274 0.32692 0.0
H3487 H 0.23349 0.39574 0.06018 0.0
H3488 H 0.28315 0.46045 0.06032 0.0
H3489 H 0.25662 0.48532 0.04952 0.0
H3490 H 0.198 0.40576 1.00817 0.0
H3491 H 0.1745 0.39668 0.02144 0.0
H3492 H 0.19728 0.38301 0.02822 0.0
H3493 H 0.19724 0.3986 0.0754 0.0
H3494 H 0.17442 0.41215 0.06874 0.0
H3495 H 0.19779 0.43202 0.08762 0.0
H3496 H 0.22549 0.50376 0.03944 0.0
H3497 H 0.19099 0.51593 0.03304 0.0
H3498 H 0.16034 0.44027 0.03972 0.0
C3499 C 0.23877 0.4151 0.05782 0.0
C3500 C 0.26053 0.42603 0.06105 0.0
C3501 C 0.26669 0.4515 0.05791 0.0
C3502 C 0.25171 0.46584 0.05169 0.0
C3503 C 0.23051 0.45455 0.0486 0.0
C3504 C 0.22393 0.42983 0.05161 0.0
C3505 C 0.20001 0.42277 0.04779 0.0
C3506 C 0.19197 0.40075 0.02505 0.0
C3507 C 0.19189 0.416 0.0713 0.0
C3508 C 0.19431 0.44769 0.04292 0.0
C3509 C 0.21223 0.4655 0.04304 0.0
C3510 C 0.21131 0.48995 0.03913 0.0
C3511 C 0.19157 0.49662 0.03531 0.0
C3512 C 0.17287 0.47904 0.0356 0.0
C3513 C 0.17432 0.45413 0.03935 0.0
H3514 H 0.87684 0.97347 0.33401 0.0
H3515 H 0.88033 0.97093 0.25581 0.0
H3516 H 0.86147 0.92556 0.24598 0.0
H3517 H 0.88515 0.90727 0.33211 0.0
H3518 H 0.86807 0.90186 0.35492 0.0
H3519 H 0.88219 0.93373 0.35571 0.0
H3520 H 0.84721 0.95024 0.35369 0.0
H3521 H 0.83305 0.91851 0.3531 0.0
H3522 H 0.82611 0.93493 0.3288 0.0
H3523 H 0.84002 0.87952 0.24474 0.0
H3524 H 0.81859 0.83987 0.25211 0.0
H3525 H 0.82967 0.87167 0.33118 0.0
C3526 C 0.87364 0.96349 0.31473 0.0
C3527 C 0.8801 0.9764 0.29567 0.0
C3528 C 0.87571 0.96197 0.27085 0.0
C3529 C 0.86495 0.93599 0.2651 0.0
C3530 C 0.85882 0.92399 0.28434 0.0
C3531 C 0.86323 0.93736 0.30873 0.0
C3532 C 0.85521 0.92011 0.3261 0.0
C3533 C 0.87376 0.91548 0.34323 0.0
C3534 C 0.83945 0.93164 0.34131 0.0
C3535 C 0.84455 0.89533 0.30772 0.0
C3536 C 0.84716 0.89776 0.2837 0.0
C3537 C 0.83828 0.87754 0.26357 0.0
C3538 C 0.82622 0.85479 0.26794 0.0
C3539 C 0.82294 0.85186 0.29229 0.0
C3540 C 0.83243 0.87264 0.31239 0.0
H3541 H 0.73685 0.0888 0.83194 0.0
H3542 H 0.67259 0.09516 0.80891 0.0
H3543 H 0.68511 0.13943 0.80402 0.0
H3544 H 0.75662 0.15327 0.86548 0.0
H3545 H 0.78166 0.15657 0.85419 0.0
H3546 H 0.76791 0.1254 0.85625 0.0
H3547 H 0.76912 0.10846 0.80958 0.0
H3548 H 0.78304 0.13955 0.80745 0.0
H3549 H 0.75891 0.12493 0.7869 0.0
H3550 H 0.70452 0.18452 0.80378 0.0
H3551 H 0.72938 0.22443 0.80335 0.0
H3552 H 0.7818 0.189 0.82305 0.0
C3553 C 0.72542 0.09947 0.82574 0.0
C3554 C 0.70356 0.08821 0.82093 0.0
C3555 C 0.68932 0.103 0.81261 0.0
C3556 C 0.69632 0.12835 0.80991 0.0
C3557 C 0.71783 0.13891 0.81498 0.0
C3558 C 0.73226 0.12474 0.82219 0.0
C3559 C 0.75462 0.14036 0.82517 0.0
C3560 C 0.76586 0.14411 0.85187 0.0
C3561 C 0.76717 0.12756 0.80615 0.0
C3562 C 0.75048 0.16575 0.81941 0.0
C3563 C 0.72909 0.16446 0.81367 0.0
C3564 C 0.72127 0.18555 0.80808 0.0
C3565 C 0.73554 0.20826 0.80799 0.0
C3566 C 0.75755 0.21006 0.81329 0.0
C3567 C 0.76507 0.18837 0.81907 0.0
loop_
_geom_bond_atom_site_label_1
_geom_bond_atom_site_label_2
_geom_bond_distance
_geom_bond_site_symmetry_2
_ccdc_geom_bond_type
Mg0 O1 2.028 . S
Mg0 O7 1.986 . S
Mg0 O9 2.114 . S
Mg0 O10 2.251 . S
Mg0 O13 2.010 . S
O1 Mg0 2.028 . S
O1 C4 1.250 . S
O2 Mg3 2.028 . S
O2 C4 1.248 . S
Mg3 O2 2.028 . S
Mg3 O8 2.032 . S
Mg3 O10 2.079 . S
C4 O1 1.250 . S
C4 O2 1.248 . S
C5 O6 1.264 . S
C5 O13 1.249 . S
O6 C5 1.264 . S
O7 Mg0 1.986 . S
O7 C11 1.246 . S
O8 Mg3 2.032 . S
O8 C11 1.259 . S
O9 Mg0 2.114 . S
O9 C12 1.252 . S
O10 Mg0 2.251 . S
O10 Mg3 2.079 . S
O10 C12 1.273 . S
C11 O7 1.246 . S
C11 O8 1.259 . S
C12 O9 1.252 . S
C12 O10 1.273 . S
O13 Mg0 2.010 . S
O13 C5 1.249 . S
Mg14 O15 2.028 . S
Mg14 O21 1.986 . S
Mg14 O23 2.114 1_455 S
Mg14 O24 2.251 1_455 S
Mg14 O27 2.010 . S
O15 Mg14 2.028 . S
O15 C18 1.256 . S
O16 Mg17 2.028 . S
O16 C18 1.236 1_655 S
Mg17 O16 2.028 . S
Mg17 O22 2.032 . S
Mg17 O24 2.079 . S
C18 O15 1.256 . S
C18 O16 1.236 1_455 S
C19 O20 1.264 . S
C19 O27 1.249 . S
O20 C19 1.264 . S
O21 Mg14 1.986 . S
O21 C25 1.246 . S
O22 Mg17 2.032 . S
O22 C25 1.259 1_655 S
O23 Mg14 2.114 1_655 S
O23 C26 1.252 . S
O24 Mg14 2.251 1_655 S
O24 Mg17 2.079 . S
O24 C26 1.273 . S
C25 O21 1.246 . S
C25 O22 1.259 1_455 S
C26 O23 1.252 . S
C26 O24 1.273 . S
O27 Mg14 2.010 . S
O27 C19 1.249 . S
Mg28 O29 2.028 . S
Mg28 O35 1.986 . S
Mg28 O37 2.114 . S
Mg28 O38 2.251 . S
Mg28 O41 2.010 . S
O29 Mg28 2.028 . S
O29 C32 1.250 . S
O30 Mg31 2.028 . S
O30 C32 1.248 . S
Mg31 O30 2.028 . S
Mg31 O36 2.032 . S
Mg31 O38 2.079 . S
C32 O29 1.250 . S
C32 O30 1.248 . S
C33 O34 1.264 . S
C33 O41 1.249 . S
O34 C33 1.264 . S
O35 Mg28 1.986 . S
O35 C39 1.246 . S
O36 Mg31 2.032 . S
O36 C39 1.259 . S
O37 Mg28 2.114 . S
O37 C40 1.252 . S
O38 Mg28 2.251 . S
O38 Mg31 2.079 . S
O38 C40 1.273 . S
C39 O35 1.246 . S
C39 O36 1.259 . S
C40 O37 1.252 . S
C40 O38 1.273 . S
O41 Mg28 2.010 . S
O41 C33 1.249 . S
Mg42 O43 2.028 . S
Mg42 O49 1.986 . S
Mg42 O51 2.114 . S
Mg42 O52 2.251 . S
Mg42 O55 2.010 . S
O43 Mg42 2.028 . S
O43 C46 1.250 . S
O44 Mg45 2.028 . S
O44 C46 1.248 . S
Mg45 O44 2.028 . S
Mg45 O50 2.032 . S
Mg45 O52 2.079 . S
C46 O43 1.250 . S
C46 O44 1.248 . S
C47 O48 1.264 . S
C47 O55 1.249 . S
O48 C47 1.264 . S
O49 Mg42 1.986 . S
O49 C53 1.246 . S
O50 Mg45 2.032 . S
O50 C53 1.259 . S
O51 Mg42 2.114 . S
O51 C54 1.252 . S
O52 Mg42 2.251 . S
O52 Mg45 2.079 . S
O52 C54 1.273 . S
C53 O49 1.246 . S
C53 O50 1.259 . S
C54 O51 1.252 . S
C54 O52 1.273 . S
O55 Mg42 2.010 . S
O55 C47 1.249 . S
Mg56 O57 2.028 . S
Mg56 O63 1.986 . S
Mg56 O65 2.114 . S
Mg56 O66 2.251 . S
Mg56 O69 2.010 . S
O57 Mg56 2.028 . S
O57 C60 1.250 . S
O58 Mg59 2.028 . S
O58 C60 1.248 . S
Mg59 O58 2.028 . S
Mg59 O64 2.032 . S
Mg59 O66 2.079 . S
C60 O57 1.250 . S
C60 O58 1.248 . S
C61 O62 1.264 . S
C61 O69 1.249 . S
O62 C61 1.264 . S
O63 Mg56 1.986 . S
O63 C67 1.246 . S
O64 Mg59 2.032 . S
O64 C67 1.259 . S
O65 Mg56 2.114 . S
O65 C68 1.252 . S
O66 Mg56 2.251 . S
O66 Mg59 2.079 . S
O66 C68 1.273 . S
C67 O63 1.246 . S
C67 O64 1.259 . S
C68 O65 1.252 . S
C68 O66 1.273 . S
O69 Mg56 2.010 . S
O69 C61 1.249 . S
Mg70 O71 2.028 . S
Mg70 O77 1.986 . S
Mg70 O79 2.114 . S
Mg70 O80 2.251 . S
Mg70 O83 2.010 . S
O71 Mg70 2.028 . S
O71 C74 1.250 . S
O72 Mg73 2.028 . S
O72 C74 1.248 . S
Mg73 O72 2.028 . S
Mg73 O78 2.032 . S
Mg73 O80 2.079 . S
C74 O71 1.250 . S
C74 O72 1.248 . S
C75 O76 1.264 . S
C75 O83 1.249 . S
O76 C75 1.264 . S
O77 Mg70 1.986 . S
O77 C81 1.246 . S
O78 Mg73 2.032 . S
O78 C81 1.259 . S
O79 Mg70 2.114 . S
O79 C82 1.252 . S
O80 Mg70 2.251 . S
O80 Mg73 2.079 . S
O80 C82 1.273 . S
C81 O77 1.246 . S
C81 O78 1.259 . S
C82 O79 1.252 . S
C82 O80 1.273 . S
O83 Mg70 2.010 . S
O83 C75 1.249 . S
Mg84 O85 2.028 . S
Mg84 O91 1.986 . S
Mg84 O93 2.114 . S
Mg84 O94 2.251 . S
Mg84 O97 2.010 . S
O85 Mg84 2.028 . S
O85 C88 1.250 . S
O86 Mg87 2.028 . S
O86 C88 1.248 . S
Mg87 O86 2.028 . S
Mg87 O92 2.032 . S
Mg87 O94 2.079 . S
C88 O85 1.250 . S
C88 O86 1.248 . S
C89 O90 1.264 . S
C89 O97 1.249 . S
O90 C89 1.264 . S
O91 Mg84 1.986 . S
O91 C95 1.246 . S
O92 Mg87 2.032 . S
O92 C95 1.259 . S
O93 Mg84 2.114 . S
O93 C96 1.252 . S
O94 Mg84 2.251 . S
O94 Mg87 2.079 . S
O94 C96 1.273 . S
C95 O91 1.246 . S
C95 O92 1.259 . S
C96 O93 1.252 . S
C96 O94 1.273 . S
O97 Mg84 2.010 . S
O97 C89 1.249 . S
Mg98 O99 2.025 1_655 S
Mg98 O105 1.976 1_655 S
Mg98 O107 2.140 . S
Mg98 O108 2.298 . S
Mg98 O111 1.968 1_655 S
O99 Mg98 2.025 1_455 S
O99 C102 1.287 . S
O100 Mg101 2.028 . S
O100 C102 1.197 1_655 S
Mg101 O100 2.028 . S
Mg101 O106 2.032 . S
Mg101 O108 2.079 . S
C102 O99 1.287 . S
C102 O100 1.197 1_455 S
C103 O104 1.264 . S
C103 O111 1.249 . S
O104 C103 1.264 . S
O105 Mg98 1.976 1_455 S
O105 C109 1.246 1_455 S
O106 Mg101 2.032 . S
O106 C109 1.259 . S
O107 Mg98 2.140 . S
O107 C110 1.252 . S
O108 Mg98 2.298 . S
O108 Mg101 2.079 . S
O108 C110 1.273 . S
C109 O105 1.246 1_655 S
C109 O106 1.259 . S
C110 O107 1.252 . S
C110 O108 1.273 . S
O111 Mg98 1.968 1_455 S
O111 C103 1.249 . S
Mg112 O113 2.028 . S
Mg112 O119 1.986 . S
Mg112 O121 2.114 . S
Mg112 O122 2.251 . S
Mg112 O125 2.010 . S
O113 Mg112 2.028 . S
O113 C116 1.250 1_545 S
O114 Mg115 2.028 1_565 S
O114 C116 1.248 . S
Mg115 O114 2.028 1_545 S
Mg115 O120 2.032 . S
Mg115 O122 2.079 . S
C116 O113 1.250 1_565 S
C116 O114 1.248 . S
C117 O118 1.264 . S
C117 O125 1.249 . S
O118 C117 1.264 . S
O119 Mg112 1.986 . S
O119 C123 1.246 . S
O120 Mg115 2.032 . S
O120 C123 1.259 . S
O121 Mg112 2.114 . S
O121 C124 1.252 . S
O122 Mg112 2.251 . S
O122 Mg115 2.079 . S
O122 C124 1.273 . S
C123 O119 1.246 . S
C123 O120 1.259 . S
C124 O121 1.252 . S
C124 O122 1.273 . S
O125 Mg112 2.010 . S
O125 C117 1.249 . S
Mg126 O127 2.028 . S
Mg126 O133 1.986 . S
Mg126 O135 2.114 . S
Mg126 O136 2.251 . S
Mg126 O139 2.010 . S
O127 Mg126 2.028 . S
O127 C130 1.250 . S
O128 Mg129 2.028 . S
O128 C130 1.248 . S
Mg129 O128 2.028 . S
Mg129 O134 2.032 . S
Mg129 O136 2.079 . S
C130 O127 1.250 . S
C130 O128 1.248 . S
C131 O132 1.264 . S
C131 O139 1.249 . S
O132 C131 1.264 . S
O133 Mg126 1.986 . S
O133 C137 1.246 . S
O134 Mg129 2.032 . S
O134 C137 1.259 . S
O135 Mg126 2.114 . S
O135 C138 1.252 . S
O136 Mg126 2.251 . S
O136 Mg129 2.079 . S
O136 C138 1.273 . S
C137 O133 1.246 . S
C137 O134 1.259 . S
C138 O135 1.252 . S
C138 O136 1.273 . S
O139 Mg126 2.010 . S
O139 C131 1.249 . S
Mg140 O141 2.028 1_565 S
Mg140 O147 1.986 . S
Mg140 O149 2.114 1_565 S
Mg140 O150 2.251 . S
Mg140 O153 2.010 . S
O141 Mg140 2.028 1_545 S
O141 C144 1.250 . S
O142 Mg143 2.028 . S
O142 C144 1.248 . S
Mg143 O142 2.028 . S
Mg143 O148 2.032 1_545 S
Mg143 O150 2.079 1_545 S
C144 O141 1.250 . S
C144 O142 1.248 . S
C145 O146 1.264 . S
C145 O153 1.249 . S
O146 C145 1.264 . S
O147 Mg140 1.986 . S
O147 C151 1.246 . S
O148 Mg143 2.032 1_565 S
O148 C151 1.259 . S
O149 Mg140 2.114 1_545 S
O149 C152 1.252 . S
O150 Mg140 2.251 . S
O150 Mg143 2.079 1_565 S
O150 C152 1.273 1_565 S
C151 O147 1.246 . S
C151 O148 1.259 . S
C152 O149 1.252 . S
C152 O150 1.273 1_545 S
O153 Mg140 2.010 . S
O153 C145 1.249 . S
Mg154 O155 2.028 1_554 S
Mg154 O161 1.986 . S
Mg154 O163 2.114 1_554 S
Mg154 O164 2.251 . S
Mg154 O167 2.010 . S
O155 Mg154 2.028 1_556 S
O155 C158 1.250 . S
O156 Mg157 2.028 1_556 S
O156 C158 1.248 . S
Mg157 O156 2.028 1_554 S
Mg157 O162 2.032 . S
Mg157 O164 2.079 . S
C158 O155 1.250 . S
C158 O156 1.248 . S
C159 O160 1.264 . S
C159 O167 1.249 . S
O160 C159 1.264 . S
O161 Mg154 1.986 . S
O161 C165 1.246 . S
O162 Mg157 2.032 . S
O162 C165 1.259 . S
O163 Mg154 2.114 1_556 S
O163 C166 1.252 1_556 S
O164 Mg154 2.251 . S
O164 Mg157 2.079 . S
O164 C166 1.273 . S
C165 O161 1.246 . S
C165 O162 1.259 . S
C166 O163 1.252 1_554 S
C166 O164 1.273 . S
O167 Mg154 2.010 . S
O167 C159 1.249 . S
Mg168 O169 2.028 . S
Mg168 O175 1.986 . S
Mg168 O177 2.114 . S
Mg168 O178 2.251 . S
Mg168 O181 2.010 . S
O169 Mg168 2.028 . S
O169 C172 1.250 . S
O170 Mg171 2.028 . S
O170 C172 1.248 . S
Mg171 O170 2.028 . S
Mg171 O176 2.032 . S
Mg171 O178 2.079 . S
C172 O169 1.250 . S
C172 O170 1.248 . S
C173 O174 1.264 . S
C173 O181 1.249 . S
O174 C173 1.264 . S
O175 Mg168 1.986 . S
O175 C179 1.246 . S
O176 Mg171 2.032 . S
O176 C179 1.259 . S
O177 Mg168 2.114 . S
O177 C180 1.252 . S
O178 Mg168 2.251 . S
O178 Mg171 2.079 . S
O178 C180 1.273 . S
C179 O175 1.246 . S
C179 O176 1.259 . S
C180 O177 1.252 . S
C180 O178 1.273 . S
O181 Mg168 2.010 . S
O181 C173 1.249 . S
Mg182 O183 2.028 . S
Mg182 O189 1.986 . S
Mg182 O191 2.114 . S
Mg182 O192 2.251 . S
Mg182 O195 2.010 . S
O183 Mg182 2.028 . S
O183 C186 1.250 . S
O184 Mg185 2.028 . S
O184 C186 1.248 . S
Mg185 O184 2.028 . S
Mg185 O190 2.032 . S
Mg185 O192 2.079 . S
C186 O183 1.250 . S
C186 O184 1.248 . S
C187 O188 1.264 . S
C187 O195 1.249 . S
O188 C187 1.264 . S
O189 Mg182 1.986 . S
O189 C193 1.246 . S
O190 Mg185 2.032 . S
O190 C193 1.259 . S
O191 Mg182 2.114 . S
O191 C194 1.252 . S
O192 Mg182 2.251 . S
O192 Mg185 2.079 . S
O192 C194 1.273 . S
C193 O189 1.246 . S
C193 O190 1.259 . S
C194 O191 1.252 . S
C194 O192 1.273 . S
O195 Mg182 2.010 . S
O195 C187 1.249 . S
Mg196 O197 2.028 . S
Mg196 O203 1.986 . S
Mg196 O205 2.114 . S
Mg196 O206 2.251 . S
Mg196 O209 2.010 . S
O197 Mg196 2.028 . S
O197 C200 1.250 . S
O198 Mg199 2.028 . S
O198 C200 1.248 . S
Mg199 O198 2.028 . S
Mg199 O204 2.032 . S
Mg199 O206 2.079 . S
C200 O197 1.250 . S
C200 O198 1.248 . S
C201 O202 1.264 . S
C201 O209 1.249 . S
O202 C201 1.264 . S
O203 Mg196 1.986 . S
O203 C207 1.246 . S
O204 Mg199 2.032 . S
O204 C207 1.259 . S
O205 Mg196 2.114 . S
O205 C208 1.252 . S
O206 Mg196 2.251 . S
O206 Mg199 2.079 . S
O206 C208 1.273 . S
C207 O203 1.246 . S
C207 O204 1.259 . S
C208 O205 1.252 . S
C208 O206 1.273 . S
O209 Mg196 2.010 . S
O209 C201 1.249 . S
Mg210 O211 2.028 . S
Mg210 O217 1.986 . S
Mg210 O219 2.114 . S
Mg210 O220 2.251 . S
Mg210 O223 2.010 . S
O211 Mg210 2.028 . S
O211 C214 1.250 . S
O212 Mg213 2.028 . S
O212 C214 1.248 . S
Mg213 O212 2.028 . S
Mg213 O218 2.032 . S
Mg213 O220 2.079 . S
C214 O211 1.250 . S
C214 O212 1.248 . S
C215 O216 1.264 . S
C215 O223 1.249 . S
O216 C215 1.264 . S
O217 Mg210 1.986 . S
O217 C221 1.246 . S
O218 Mg213 2.032 . S
O218 C221 1.259 . S
O219 Mg210 2.114 . S
O219 C222 1.252 . S
O220 Mg210 2.251 . S
O220 Mg213 2.079 . S
O220 C222 1.273 . S
C221 O217 1.246 . S
C221 O218 1.259 . S
C222 O219 1.252 . S
C222 O220 1.273 . S
O223 Mg210 2.010 . S
O223 C215 1.249 . S
Mg224 O225 2.028 . S
Mg224 O231 1.986 . S
Mg224 O233 2.114 . S
Mg224 O234 2.251 . S
Mg224 O237 2.010 . S
O225 Mg224 2.028 . S
O225 C228 1.251 1_545 S
O226 Mg227 2.028 . S
O226 C228 1.248 1_545 S
Mg227 O226 2.028 . S
Mg227 O232 2.032 . S
Mg227 O234 2.079 . S
C228 O225 1.251 1_565 S
C228 O226 1.248 1_565 S
C229 O230 1.264 . S
C229 O237 1.249 . S
O230 C229 1.264 . S
O231 Mg224 1.986 . S
O231 C235 1.246 . S
O232 Mg227 2.032 . S
O232 C235 1.259 . S
O233 Mg224 2.114 . S
O233 C236 1.252 . S
O234 Mg224 2.251 . S
O234 Mg227 2.079 . S
O234 C236 1.273 . S
C235 O231 1.246 . S
C235 O232 1.259 . S
C236 O233 1.252 . S
C236 O234 1.273 . S
O237 Mg224 2.010 . S
O237 C229 1.249 . S
Mg238 O239 2.028 . S
Mg238 O245 1.986 . S
Mg238 O247 2.114 . S
Mg238 O248 2.251 . S
Mg238 O251 2.010 . S
O239 Mg238 2.028 . S
O239 C242 1.250 . S
O240 Mg241 2.028 . S
O240 C242 1.248 . S
Mg241 O240 2.028 . S
Mg241 O246 2.032 . S
Mg241 O248 2.079 . S
C242 O239 1.250 . S
C242 O240 1.248 . S
C243 O244 1.264 . S
C243 O251 1.249 . S
O244 C243 1.264 . S
O245 Mg238 1.986 . S
O245 C249 1.246 . S
O246 Mg241 2.032 . S
O246 C249 1.259 . S
O247 Mg238 2.114 . S
O247 C250 1.252 . S
O248 Mg238 2.251 . S
O248 Mg241 2.079 . S
O248 C250 1.273 . S
C249 O245 1.246 . S
C249 O246 1.259 . S
C250 O247 1.252 . S
C250 O248 1.273 . S
O251 Mg238 2.010 . S
O251 C243 1.249 . S
Mg252 O253 2.028 . S
Mg252 O259 1.986 . S
Mg252 O261 2.114 . S
Mg252 O262 2.251 . S
Mg252 O265 2.010 . S
O253 Mg252 2.028 . S
O253 C256 1.250 . S
O254 Mg255 2.028 . S
O254 C256 1.248 . S
Mg255 O254 2.028 . S
Mg255 O260 2.032 . S
Mg255 O262 2.079 . S
C256 O253 1.250 . S
C256 O254 1.248 . S
C257 O258 1.264 . S
C257 O265 1.249 . S
O258 C257 1.264 . S
O259 Mg252 1.986 . S
O259 C263 1.246 . S
O260 Mg255 2.032 . S
O260 C263 1.259 . S
O261 Mg252 2.114 . S
O261 C264 1.252 . S
O262 Mg252 2.251 . S
O262 Mg255 2.079 . S
O262 C264 1.273 . S
C263 O259 1.246 . S
C263 O260 1.259 . S
C264 O261 1.252 . S
C264 O262 1.273 . S
O265 Mg252 2.010 . S
O265 C257 1.249 . S
Mg266 O267 2.028 . S
Mg266 O273 1.986 1_545 S
Mg266 O275 2.114 . S
Mg266 O276 2.251 . S
Mg266 O279 2.010 1_545 S
O267 Mg266 2.028 . S
O267 C270 1.250 . S
O268 Mg269 2.028 . S
O268 C270 1.248 . S
Mg269 O268 2.028 . S
Mg269 O274 2.032 1_545 S
Mg269 O276 2.079 . S
C270 O267 1.250 . S
C270 O268 1.248 . S
C271 O272 1.264 . S
C271 O279 1.249 . S
O272 C271 1.264 . S
O273 Mg266 1.986 1_565 S
O273 C277 1.246 . S
O274 Mg269 2.032 1_565 S
O274 C277 1.259 . S
O275 Mg266 2.114 . S
O275 C278 1.252 . S
O276 Mg266 2.251 . S
O276 Mg269 2.079 . S
O276 C278 1.273 . S
C277 O273 1.246 . S
C277 O274 1.259 . S
C278 O275 1.252 . S
C278 O276 1.273 . S
O279 Mg266 2.010 1_565 S
O279 C271 1.249 . S
Mg280 O281 2.028 . S
Mg280 O287 1.986 . S
Mg280 O289 2.114 . S
Mg280 O290 2.251 . S
Mg280 O293 2.010 . S
O281 Mg280 2.028 . S
O281 C284 1.250 . S
O282 Mg283 2.028 . S
O282 C284 1.248 . S
Mg283 O282 2.028 . S
Mg283 O288 2.032 . S
Mg283 O290 2.079 . S
C284 O281 1.250 . S
C284 O282 1.248 . S
C285 O286 1.271 . S
C285 O293 1.249 . S
O286 C285 1.271 . S
O287 Mg280 1.986 . S
O287 C291 1.246 1_554 S
O288 Mg283 2.032 . S
O288 C291 1.259 1_554 S
O289 Mg280 2.114 . S
O289 C292 1.252 . S
O290 Mg280 2.251 . S
O290 Mg283 2.079 . S
O290 C292 1.273 . S
C291 O287 1.246 1_556 S
C291 O288 1.259 1_556 S
C292 O289 1.252 . S
C292 O290 1.273 . S
O293 Mg280 2.010 . S
O293 C285 1.249 . S
Mg294 O295 2.028 . S
Mg294 O301 1.986 . S
Mg294 O303 2.114 . S
Mg294 O304 2.251 . S
Mg294 O307 2.010 . S
O295 Mg294 2.028 . S
O295 C298 1.250 . S
O296 Mg297 2.028 . S
O296 C298 1.248 . S
Mg297 O296 2.028 . S
Mg297 O302 2.032 . S
Mg297 O304 2.079 . S
C298 O295 1.250 . S
C298 O296 1.248 . S
C299 O300 1.264 . S
C299 O307 1.249 . S
O300 C299 1.264 . S
O301 Mg294 1.986 . S
O301 C305 1.246 . S
O302 Mg297 2.032 . S
O302 C305 1.259 . S
O303 Mg294 2.114 . S
O303 C306 1.252 . S
O304 Mg294 2.251 . S
O304 Mg297 2.079 . S
O304 C306 1.273 . S
C305 O301 1.246 . S
C305 O302 1.259 . S
C306 O303 1.252 . S
C306 O304 1.273 . S
O307 Mg294 2.010 . S
O307 C299 1.249 . S
Mg308 O309 2.028 . S
Mg308 O315 1.986 . S
Mg308 O317 2.114 . S
Mg308 O318 2.251 . S
Mg308 O321 2.010 . S
O309 Mg308 2.028 . S
O309 C312 1.250 . S
O310 Mg311 2.028 . S
O310 C312 1.248 . S
Mg311 O310 2.028 . S
Mg311 O316 2.032 . S
Mg311 O318 2.079 . S
C312 O309 1.250 . S
C312 O310 1.248 . S
C313 O314 1.264 . S
C313 O321 1.249 . S
O314 C313 1.264 . S
O315 Mg308 1.986 . S
O315 C319 1.246 . S
O316 Mg311 2.032 . S
O316 C319 1.259 . S
O317 Mg308 2.114 . S
O317 C320 1.252 . S
O318 Mg308 2.251 . S
O318 Mg311 2.079 . S
O318 C320 1.273 . S
C319 O315 1.246 . S
C319 O316 1.259 . S
C320 O317 1.252 . S
C320 O318 1.273 . S
O321 Mg308 2.010 . S
O321 C313 1.249 . S
Mg322 O323 2.028 . S
Mg322 O329 1.986 . S
Mg322 O331 2.114 . S
Mg322 O332 2.251 . S
Mg322 O335 2.010 . S
O323 Mg322 2.028 . S
O323 C326 1.250 . S
O324 Mg325 2.028 . S
O324 C326 1.248 . S
Mg325 O324 2.028 . S
Mg325 O330 2.032 . S
Mg325 O332 2.079 . S
C326 O323 1.250 . S
C326 O324 1.248 . S
C327 O328 1.264 . S
C327 O335 1.249 . S
O328 C327 1.264 . S
O329 Mg322 1.986 . S
O329 C333 1.246 . S
O330 Mg325 2.032 . S
O330 C333 1.259 . S
O331 Mg322 2.114 . S
O331 C334 1.252 . S
O332 Mg322 2.251 . S
O332 Mg325 2.079 . S
O332 C334 1.273 . S
C333 O329 1.246 . S
C333 O330 1.259 . S
C334 O331 1.252 . S
C334 O332 1.273 . S
O335 Mg322 2.010 . S
O335 C327 1.249 . S
C336 Eu337 2.801 1_565 S
C336 C338 1.534 . S
C336 O356 1.249 . S
C336 O357 1.237 1_565 S
Eu337 C336 2.801 1_545 S
Eu337 O356 2.473 1_545 S
Eu337 O357 2.480 . S
Eu337 O358 2.430 . S
Eu337 O359 2.670 . S
Eu337 O360 2.394 1_545 S
Eu337 O365 2.355 . S
Eu337 O367 2.374 . S
C338 C336 1.534 . S
C338 C339 1.377 . S
C338 C343 1.377 . S
C339 C338 1.377 . S
C339 C340 1.395 . S
C339 H368 0.931 . S
C340 C339 1.395 . S
C340 C341 1.383 . S
C340 H369 0.931 . S
C341 C340 1.383 . S
C341 C342 1.394 . S
C342 C341 1.394 . S
C342 C343 1.378 . S
C342 H370 0.931 . S
C343 C338 1.377 . S
C343 C342 1.378 . S
C343 H371 0.931 . S
C344 O358 1.259 . S
C344 O359 1.270 . S
C345 O360 1.251 . S
C345 O361 1.251 . S
C346 Eu347 2.835 . S
C346 C348 1.500 . S
C346 O362 1.257 . S
C346 O363 1.260 1_554 S
Eu347 C346 2.835 . S
Eu347 O359 2.355 1_655 S
Eu347 O361 2.374 1_645 S
Eu347 O362 2.473 . S
Eu347 O363 2.480 1_554 S
Eu347 O364 2.430 1_644 S
Eu347 O365 2.670 1_655 S
Eu347 O366 2.394 1_655 S
C348 C346 1.500 . S
C348 C349 1.377 1_554 S
C348 C353 1.377 . S
C349 C348 1.377 1_556 S
C349 C350 1.395 . S
C349 H372 0.931 . S
C350 C349 1.395 . S
C350 C351 1.383 1_556 S
C350 H373 0.931 . S
C351 C350 1.383 1_554 S
C351 C352 1.394 . S
C352 C351 1.394 . S
C352 C353 1.378 . S
C352 H374 0.931 . S
C353 C348 1.377 . S
C353 C352 1.378 . S
C353 H375 0.931 . S
C354 O364 1.259 1_545 S
C354 O365 1.270 1_556 S
C355 O366 1.251 . S
C355 O367 1.251 . S
O356 C336 1.249 . S
O356 Eu337 2.473 1_565 S
O357 C336 1.237 1_545 S
O357 Eu337 2.480 . S
O358 Eu337 2.430 . S
O358 C344 1.259 . S
O359 Eu337 2.670 . S
O359 C344 1.270 . S
O359 Eu347 2.355 1_455 S
O360 Eu337 2.394 1_565 S
O360 C345 1.251 . S
O361 C345 1.251 . S
O361 Eu347 2.374 1_465 S
O362 C346 1.257 . S
O362 Eu347 2.473 . S
O363 C346 1.260 1_556 S
O363 Eu347 2.480 1_556 S
O364 Eu347 2.430 1_466 S
O364 C354 1.259 1_565 S
O365 Eu337 2.355 . S
O365 Eu347 2.670 1_455 S
O365 C354 1.270 1_554 S
O366 Eu347 2.394 1_455 S
O366 C355 1.251 . S
O367 Eu337 2.374 . S
O367 C355 1.251 . S
H368 C339 0.931 . S
H369 C340 0.931 . S
H370 C342 0.931 . S
H371 C343 0.931 . S
H372 C349 0.931 . S
H373 C350 0.931 . S
H374 C352 0.931 . S
H375 C353 0.931 . S
C376 Eu377 2.835 . S
C376 C378 1.500 . S
C376 O396 1.257 . S
C376 O397 1.260 . S
Eu377 C376 2.835 . S
Eu377 O396 2.473 . S
Eu377 O397 2.480 . S
Eu377 O398 2.430 . S
Eu377 O399 2.670 . S
Eu377 O400 2.394 . S
Eu377 O405 2.355 . S
Eu377 O407 2.374 . S
C378 C376 1.500 . S
C378 C379 1.377 . S
C378 C383 1.377 . S
C379 C378 1.377 . S
C379 C380 1.395 . S
C379 H408 0.931 . S
C380 C379 1.395 . S
C380 C381 1.383 . S
C380 H409 0.931 . S
C381 C380 1.383 . S
C381 C382 1.394 . S
C382 C381 1.394 . S
C382 C383 1.378 . S
C382 H410 0.931 . S
C383 C378 1.377 . S
C383 C382 1.378 . S
C383 H411 0.931 . S
C384 O398 1.259 . S
C384 O399 1.270 . S
C385 O400 1.251 . S
C385 O401 1.251 . S
C386 Eu387 2.835 . S
C386 C388 1.500 . S
C386 O402 1.257 . S
C386 O403 1.260 . S
Eu387 C386 2.835 . S
Eu387 O399 2.355 . S
Eu387 O401 2.374 . S
Eu387 O402 2.473 . S
Eu387 O403 2.480 . S
Eu387 O404 2.430 . S
Eu387 O405 2.670 . S
Eu387 O406 2.394 . S
C388 C386 1.500 . S
C388 C389 1.377 . S
C388 C393 1.377 . S
C389 C388 1.377 . S
C389 C390 1.395 . S
C389 H412 0.931 . S
C390 C389 1.395 . S
C390 C391 1.383 . S
C390 H413 0.931 . S
C391 C390 1.383 . S
C391 C392 1.394 . S
C392 C391 1.394 . S
C392 C393 1.378 . S
C392 H414 0.931 . S
C393 C388 1.377 . S
C393 C392 1.378 . S
C393 H415 0.931 . S
C394 O404 1.259 . S
C394 O405 1.270 . S
C395 O406 1.251 . S
C395 O407 1.251 . S
O396 C376 1.257 . S
O396 Eu377 2.473 . S
O397 C376 1.260 . S
O397 Eu377 2.480 . S
O398 Eu377 2.430 . S
O398 C384 1.259 . S
O399 Eu377 2.670 . S
O399 C384 1.270 . S
O399 Eu387 2.355 . S
O400 Eu377 2.394 . S
O400 C385 1.251 . S
O401 C385 1.251 . S
O401 Eu387 2.374 . S
O402 C386 1.257 . S
O402 Eu387 2.473 . S
O403 C386 1.260 . S
O403 Eu387 2.480 . S
O404 Eu387 2.430 . S
O404 C394 1.259 . S
O405 Eu377 2.355 . S
O405 Eu387 2.670 . S
O405 C394 1.270 . S
O406 Eu387 2.394 . S
O406 C395 1.251 . S
O407 Eu377 2.374 . S
O407 C395 1.251 . S
H408 C379 0.931 . S
H409 C380 0.931 . S
H410 C382 0.931 . S
H411 C383 0.931 . S
H412 C389 0.931 . S
H413 C390 0.931 . S
H414 C392 0.931 . S
H415 C393 0.931 . S
C416 Eu417 2.835 . S
C416 C418 1.500 . S
C416 O436 1.257 . S
C416 O437 1.260 . S
Eu417 C416 2.835 . S
Eu417 O436 2.473 . S
Eu417 O437 2.480 . S
Eu417 O438 2.430 . S
Eu417 O439 2.670 . S
Eu417 O440 2.394 . S
Eu417 O445 2.355 . S
Eu417 O447 2.374 1_545 S
C418 C416 1.500 . S
C418 C419 1.377 . S
C418 C423 1.377 . S
C419 C418 1.377 . S
C419 C420 1.395 . S
C419 H448 0.931 . S
C420 C419 1.395 . S
C420 C421 1.383 . S
C420 H449 0.931 . S
C421 C420 1.383 . S
C421 C422 1.394 . S
C422 C421 1.394 . S
C422 C423 1.378 . S
C422 H450 0.931 . S
C423 C418 1.377 . S
C423 C422 1.378 . S
C423 H451 0.931 . S
C424 O438 1.259 . S
C424 O439 1.270 . S
C425 O440 1.251 . S
C425 O441 1.251 . S
C426 Eu427 2.835 1_565 S
C426 C428 1.500 . S
C426 O442 1.257 . S
C426 O443 1.260 1_565 S
Eu427 C426 2.835 1_545 S
Eu427 O439 2.355 . S
Eu427 O441 2.374 . S
Eu427 O442 2.473 1_545 S
Eu427 O443 2.480 . S
Eu427 O444 2.430 . S
Eu427 O445 2.670 . S
Eu427 O446 2.394 1_545 S
C428 C426 1.500 . S
C428 C429 1.377 . S
C428 C433 1.377 . S
C429 C428 1.377 . S
C429 C430 1.395 . S
C429 H452 0.931 . S
C430 C429 1.395 . S
C430 C431 1.383 . S
C430 H453 0.931 . S
C431 C430 1.383 . S
C431 C432 1.394 . S
C432 C431 1.394 . S
C432 C433 1.378 . S
C432 H454 0.931 . S
C433 C428 1.377 . S
C433 C432 1.378 . S
C433 H455 0.931 . S
C434 O444 1.259 . S
C434 O445 1.270 . S
C435 O446 1.251 . S
C435 O447 1.251 . S
O436 C416 1.257 . S
O436 Eu417 2.473 . S
O437 C416 1.260 . S
O437 Eu417 2.480 . S
O438 Eu417 2.430 . S
O438 C424 1.259 . S
O439 Eu417 2.670 . S
O439 C424 1.270 . S
O439 Eu427 2.355 . S
O440 Eu417 2.394 . S
O440 C425 1.251 . S
O441 C425 1.251 . S
O441 Eu427 2.374 . S
O442 C426 1.257 . S
O442 Eu427 2.473 1_565 S
O443 C426 1.260 1_545 S
O443 Eu427 2.480 . S
O444 Eu427 2.430 . S
O444 C434 1.259 . S
O445 Eu417 2.355 . S
O445 Eu427 2.670 . S
O445 C434 1.270 . S
O446 Eu427 2.394 1_565 S
O446 C435 1.251 . S
O447 Eu417 2.374 1_565 S
O447 C435 1.251 . S
H448 C419 0.931 . S
H449 C420 0.931 . S
H450 C422 0.931 . S
H451 C423 0.931 . S
H452 C429 0.931 . S
H453 C430 0.931 . S
H454 C432 0.931 . S
H455 C433 0.931 . S
C456 Eu457 2.835 . S
C456 C458 1.500 . S
C456 O476 1.257 . S
C456 O477 1.260 . S
Eu457 C456 2.835 . S
Eu457 O476 2.473 . S
Eu457 O477 2.480 . S
Eu457 O478 2.430 . S
Eu457 O479 2.670 . S
Eu457 O480 2.394 . S
Eu457 O485 2.355 . S
Eu457 O487 2.374 . S
C458 C456 1.500 . S
C458 C459 1.377 . S
C458 C463 1.377 . S
C459 C458 1.377 . S
C459 C460 1.395 . S
C459 H488 0.931 . S
C460 C459 1.395 . S
C460 C461 1.383 . S
C460 H489 0.931 . S
C461 C460 1.383 . S
C461 C462 1.394 . S
C462 C461 1.394 . S
C462 C463 1.378 . S
C462 H490 0.931 . S
C463 C458 1.377 . S
C463 C462 1.378 . S
C463 H491 0.931 . S
C464 O478 1.259 . S
C464 O479 1.270 . S
C465 O480 1.251 . S
C465 O481 1.251 . S
C466 Eu467 2.835 . S
C466 C468 1.500 . S
C466 O482 1.257 . S
C466 O483 1.260 . S
Eu467 C466 2.835 . S
Eu467 O479 2.355 . S
Eu467 O481 2.374 . S
Eu467 O482 2.473 . S
Eu467 O483 2.480 . S
Eu467 O484 2.430 . S
Eu467 O485 2.670 . S
Eu467 O486 2.394 . S
C468 C466 1.500 . S
C468 C469 1.377 . S
C468 C473 1.377 . S
C469 C468 1.377 . S
C469 C470 1.395 . S
C469 H492 0.931 . S
C470 C469 1.395 . S
C470 C471 1.383 . S
C470 H493 0.931 . S
C471 C470 1.383 . S
C471 C472 1.394 . S
C472 C471 1.394 . S
C472 C473 1.378 . S
C472 H494 0.931 . S
C473 C468 1.377 . S
C473 C472 1.378 . S
C473 H495 0.931 . S
C474 O484 1.259 . S
C474 O485 1.270 . S
C475 O486 1.251 . S
C475 O487 1.251 . S
O476 C456 1.257 . S
O476 Eu457 2.473 . S
O477 C456 1.260 . S
O477 Eu457 2.480 . S
O478 Eu457 2.430 . S
O478 C464 1.259 . S
O479 Eu457 2.670 . S
O479 C464 1.270 . S
O479 Eu467 2.355 . S
O480 Eu457 2.394 . S
O480 C465 1.251 . S
O481 C465 1.251 . S
O481 Eu467 2.374 . S
O482 C466 1.257 . S
O482 Eu467 2.473 . S
O483 C466 1.260 . S
O483 Eu467 2.480 . S
O484 Eu467 2.430 . S
O484 C474 1.259 . S
O485 Eu457 2.355 . S
O485 Eu467 2.670 . S
O485 C474 1.270 . S
O486 Eu467 2.394 . S
O486 C475 1.251 . S
O487 Eu457 2.374 . S
O487 C475 1.251 . S
H488 C459 0.931 . S
H489 C460 0.931 . S
H490 C462 0.931 . S
H491 C463 0.931 . S
H492 C469 0.931 . S
H493 C470 0.931 . S
H494 C472 0.931 . S
H495 C473 0.931 . S
C496 Eu497 2.835 . S
C496 C498 1.500 . S
C496 O516 1.257 . S
C496 O517 1.260 . S
Eu497 C496 2.835 . S
Eu497 O516 2.473 . S
Eu497 O517 2.480 . S
Eu497 O518 2.430 1_565 S
Eu497 O519 2.670 1_565 S
Eu497 O520 2.394 1_565 S
Eu497 O525 2.355 1_565 S
Eu497 O527 2.374 1_565 S
C498 C496 1.500 . S
C498 C499 1.377 . S
C498 C503 1.377 . S
C499 C498 1.377 . S
C499 C500 1.395 . S
C499 H528 0.931 . S
C500 C499 1.395 . S
C500 C501 1.383 . S
C500 H529 0.931 . S
C501 C500 1.383 . S
C501 C502 1.394 . S
C502 C501 1.394 . S
C502 C503 1.378 . S
C502 H530 0.931 . S
C503 C498 1.377 . S
C503 C502 1.378 . S
C503 H531 0.931 . S
C504 O518 1.259 . S
C504 O519 1.270 . S
C505 O520 1.251 . S
C505 O521 1.251 . S
C506 Eu507 2.835 . S
C506 C508 1.500 . S
C506 O522 1.257 . S
C506 O523 1.260 1_455 S
Eu507 C506 2.835 . S
Eu507 O519 2.355 . S
Eu507 O521 2.374 . S
Eu507 O522 2.473 . S
Eu507 O523 2.480 1_455 S
Eu507 O524 2.430 1_455 S
Eu507 O525 2.670 . S
Eu507 O526 2.394 . S
C508 C506 1.500 . S
C508 C509 1.377 1_455 S
C508 C513 1.377 . S
C509 C508 1.377 1_655 S
C509 C510 1.395 . S
C509 H532 0.931 . S
C510 C509 1.395 . S
C510 C511 1.383 1_655 S
C510 H533 0.931 . S
C511 C510 1.383 1_455 S
C511 C512 1.394 . S
C512 C511 1.394 . S
C512 C513 1.378 . S
C512 H534 0.931 . S
C513 C508 1.377 . S
C513 C512 1.378 . S
C513 H535 0.931 . S
C514 O524 1.259 . S
C514 O525 1.270 1_655 S
C515 O526 1.251 . S
C515 O527 1.251 . S
O516 C496 1.257 . S
O516 Eu497 2.473 . S
O517 C496 1.260 . S
O517 Eu497 2.480 . S
O518 Eu497 2.430 1_545 S
O518 C504 1.259 . S
O519 Eu497 2.670 1_545 S
O519 C504 1.270 . S
O519 Eu507 2.355 . S
O520 Eu497 2.394 1_545 S
O520 C505 1.251 . S
O521 C505 1.251 . S
O521 Eu507 2.374 . S
O522 C506 1.257 . S
O522 Eu507 2.473 . S
O523 C506 1.260 1_655 S
O523 Eu507 2.480 1_655 S
O524 Eu507 2.430 1_655 S
O524 C514 1.259 . S
O525 Eu497 2.355 1_545 S
O525 Eu507 2.670 . S
O525 C514 1.270 1_455 S
O526 Eu507 2.394 . S
O526 C515 1.251 . S
O527 Eu497 2.374 1_545 S
O527 C515 1.251 . S
H528 C499 0.931 . S
H529 C500 0.931 . S
H530 C502 0.931 . S
H531 C503 0.931 . S
H532 C509 0.931 . S
H533 C510 0.931 . S
H534 C512 0.931 . S
H535 C513 0.931 . S
C536 Eu537 2.835 . S
C536 C538 1.500 . S
C536 O556 1.257 . S
C536 O557 1.260 . S
Eu537 C536 2.835 . S
Eu537 O556 2.473 . S
Eu537 O557 2.480 . S
Eu537 O558 2.430 . S
Eu537 O559 2.670 . S
Eu537 O560 2.394 . S
Eu537 O565 2.355 . S
Eu537 O567 2.374 . S
C538 C536 1.500 . S
C538 C539 1.377 . S
C538 C543 1.377 . S
C539 C538 1.377 . S
C539 C540 1.395 . S
C539 H568 0.931 . S
C540 C539 1.395 . S
C540 C541 1.383 . S
C540 H569 0.931 . S
C541 C540 1.383 . S
C541 C542 1.394 . S
C542 C541 1.394 . S
C542 C543 1.378 . S
C542 H570 0.931 . S
C543 C538 1.377 . S
C543 C542 1.378 . S
C543 H571 0.931 . S
C544 O558 1.259 . S
C544 O559 1.270 . S
C545 O560 1.251 . S
C545 O561 1.251 . S
C546 Eu547 2.835 . S
C546 C548 1.500 . S
C546 O562 1.257 . S
C546 O563 1.260 . S
Eu547 C546 2.835 . S
Eu547 O559 2.355 . S
Eu547 O561 2.374 . S
Eu547 O562 2.473 . S
Eu547 O563 2.480 . S
Eu547 O564 2.430 . S
Eu547 O565 2.670 . S
Eu547 O566 2.394 . S
C548 C546 1.500 . S
C548 C549 1.377 . S
C548 C553 1.377 . S
C549 C548 1.377 . S
C549 C550 1.395 . S
C549 H572 0.931 . S
C550 C549 1.395 . S
C550 C551 1.383 . S
C550 H573 0.931 . S
C551 C550 1.383 . S
C551 C552 1.394 . S
C552 C551 1.394 . S
C552 C553 1.378 . S
C552 H574 0.931 . S
C553 C548 1.377 . S
C553 C552 1.378 . S
C553 H575 0.931 . S
C554 O564 1.259 . S
C554 O565 1.270 . S
C555 O566 1.251 . S
C555 O567 1.251 . S
O556 C536 1.257 . S
O556 Eu537 2.473 . S
O557 C536 1.260 . S
O557 Eu537 2.480 . S
O558 Eu537 2.430 . S
O558 C544 1.259 . S
O559 Eu537 2.670 . S
O559 C544 1.270 . S
O559 Eu547 2.355 . S
O560 Eu537 2.394 . S
O560 C545 1.251 . S
O561 C545 1.251 . S
O561 Eu547 2.374 . S
O562 C546 1.257 . S
O562 Eu547 2.473 . S
O563 C546 1.260 . S
O563 Eu547 2.480 . S
O564 Eu547 2.430 . S
O564 C554 1.259 . S
O565 Eu537 2.355 . S
O565 Eu547 2.670 . S
O565 C554 1.270 . S
O566 Eu547 2.394 . S
O566 C555 1.251 . S
O567 Eu537 2.374 . S
O567 C555 1.251 . S
H568 C539 0.931 . S
H569 C540 0.931 . S
H570 C542 0.931 . S
H571 C543 0.931 . S
H572 C549 0.931 . S
H573 C550 0.931 . S
H574 C552 0.931 . S
H575 C553 0.931 . S
C576 Eu577 2.835 . S
C576 C578 1.500 . S
C576 O596 1.257 . S
C576 O597 1.260 . S
Eu577 C576 2.835 . S
Eu577 O596 2.473 . S
Eu577 O597 2.480 . S
Eu577 O598 2.430 1_545 S
Eu577 O599 2.670 1_545 S
Eu577 O600 2.394 . S
Eu577 O605 2.355 . S
Eu577 O607 2.374 . S
C578 C576 1.500 . S
C578 C579 1.377 . S
C578 C583 1.377 . S
C579 C578 1.377 . S
C579 C580 1.395 . S
C579 H608 0.931 . S
C580 C579 1.395 . S
C580 C581 1.383 . S
C580 H609 0.931 . S
C581 C580 1.383 . S
C581 C582 1.394 . S
C582 C581 1.394 . S
C582 C583 1.378 . S
C582 H610 0.931 . S
C583 C578 1.377 . S
C583 C582 1.378 . S
C583 H611 0.931 . S
C584 O598 1.259 . S
C584 O599 1.270 . S
C585 O600 1.251 . S
C585 O601 1.250 1_554 S
C586 Eu587 2.835 1_565 S
C586 C588 1.500 . S
C586 O602 1.257 . S
C586 O603 1.260 1_565 S
Eu587 C586 2.835 1_545 S
Eu587 O599 2.355 1_545 S
Eu587 O601 2.343 1_554 S
Eu587 O602 2.473 1_545 S
Eu587 O603 2.480 . S
Eu587 O604 2.430 . S
Eu587 O605 2.670 . S
Eu587 O606 2.394 . S
C588 C586 1.500 . S
C588 C589 1.377 . S
C588 C593 1.377 . S
C589 C588 1.377 . S
C589 C590 1.395 . S
C589 H612 0.931 1_565 S
C590 C589 1.395 . S
C590 C591 1.383 . S
C590 H613 0.931 . S
C591 C590 1.383 . S
C591 C592 1.394 . S
C592 C591 1.394 . S
C592 C593 1.378 . S
C592 H614 0.931 . S
C593 C588 1.377 . S
C593 C592 1.378 . S
C593 H615 0.931 . S
C594 O604 1.259 . S
C594 O605 1.270 . S
C595 O606 1.251 . S
C595 O607 1.251 . S
O596 C576 1.257 . S
O596 Eu577 2.473 . S
O597 C576 1.260 . S
O597 Eu577 2.480 . S
O598 Eu577 2.430 1_565 S
O598 C584 1.259 . S
O599 Eu577 2.670 1_565 S
O599 C584 1.270 . S
O599 Eu587 2.355 1_565 S
O600 Eu577 2.394 . S
O600 C585 1.251 . S
O601 C585 1.250 1_556 S
O601 Eu587 2.343 1_556 S
O602 C586 1.257 . S
O602 Eu587 2.473 1_565 S
O603 C586 1.260 1_545 S
O603 Eu587 2.480 . S
O604 Eu587 2.430 . S
O604 C594 1.259 . S
O605 Eu577 2.355 . S
O605 Eu587 2.670 . S
O605 C594 1.270 . S
O606 Eu587 2.394 . S
O606 C595 1.251 . S
O607 Eu577 2.374 . S
O607 C595 1.251 . S
H608 C579 0.931 . S
H609 C580 0.931 . S
H610 C582 0.931 . S
H611 C583 0.931 . S
H612 C589 0.931 1_545 S
H613 C590 0.931 . S
H614 C592 0.931 . S
H615 C593 0.931 . S
C616 Eu617 2.835 . S
C616 C618 1.500 . S
C616 O636 1.257 . S
C616 O637 1.260 . S
Eu617 C616 2.835 . S
Eu617 O636 2.473 . S
Eu617 O637 2.480 . S
Eu617 O638 2.430 . S
Eu617 O639 2.670 . S
Eu617 O640 2.394 . S
Eu617 O645 2.355 . S
Eu617 O647 2.374 . S
C618 C616 1.500 . S
C618 C619 1.377 . S
C618 C623 1.377 . S
C619 C618 1.377 . S
C619 C620 1.395 . S
C619 H648 0.931 . S
C620 C619 1.395 . S
C620 C621 1.383 . S
C620 H649 0.931 . S
C621 C620 1.383 . S
C621 C622 1.394 . S
C622 C621 1.394 . S
C622 C623 1.378 . S
C622 H650 0.931 . S
C623 C618 1.377 . S
C623 C622 1.378 . S
C623 H651 0.931 . S
C624 O638 1.259 . S
C624 O639 1.270 . S
C625 O640 1.251 . S
C625 O641 1.251 . S
C626 Eu627 2.835 . S
C626 C628 1.500 . S
C626 O642 1.257 . S
C626 O643 1.260 . S
Eu627 C626 2.835 . S
Eu627 O639 2.355 . S
Eu627 O641 2.374 . S
Eu627 O642 2.473 . S
Eu627 O643 2.480 . S
Eu627 O644 2.430 . S
Eu627 O645 2.670 . S
Eu627 O646 2.394 . S
C628 C626 1.500 . S
C628 C629 1.377 . S
C628 C633 1.377 . S
C629 C628 1.377 . S
C629 C630 1.395 . S
C629 H652 0.931 . S
C630 C629 1.395 . S
C630 C631 1.383 . S
C630 H653 0.931 . S
C631 C630 1.383 . S
C631 C632 1.394 . S
C632 C631 1.394 . S
C632 C633 1.378 . S
C632 H654 0.931 . S
C633 C628 1.377 . S
C633 C632 1.378 . S
C633 H655 0.931 . S
C634 O644 1.259 . S
C634 O645 1.270 . S
C635 O646 1.251 . S
C635 O647 1.251 . S
O636 C616 1.257 . S
O636 Eu617 2.473 . S
O637 C616 1.260 . S
O637 Eu617 2.480 . S
O638 Eu617 2.430 . S
O638 C624 1.259 . S
O639 Eu617 2.670 . S
O639 C624 1.270 . S
O639 Eu627 2.355 . S
O640 Eu617 2.394 . S
O640 C625 1.251 . S
O641 C625 1.251 . S
O641 Eu627 2.374 . S
O642 C626 1.257 . S
O642 Eu627 2.473 . S
O643 C626 1.260 . S
O643 Eu627 2.480 . S
O644 Eu627 2.430 . S
O644 C634 1.259 . S
O645 Eu617 2.355 . S
O645 Eu627 2.670 . S
O645 C634 1.270 . S
O646 Eu627 2.394 . S
O646 C635 1.251 . S
O647 Eu617 2.374 . S
O647 C635 1.251 . S
H648 C619 0.931 . S
H649 C620 0.931 . S
H650 C622 0.931 . S
H651 C623 0.931 . S
H652 C629 0.931 . S
H653 C630 0.931 . S
H654 C632 0.931 . S
H655 C633 0.931 . S
C656 Eu657 2.835 . S
C656 C658 1.500 . S
C656 O676 1.257 . S
C656 O677 1.260 . S
Eu657 C656 2.835 . S
Eu657 O676 2.473 . S
Eu657 O677 2.480 . S
Eu657 O678 2.430 . S
Eu657 O679 2.670 . S
Eu657 O680 2.394 . S
Eu657 O685 2.355 . S
Eu657 O687 2.374 1_554 S
C658 C656 1.500 . S
C658 C659 1.377 . S
C658 C663 1.377 . S
C659 C658 1.377 . S
C659 C660 1.395 . S
C659 H688 0.931 . S
C660 C659 1.395 . S
C660 C661 1.383 . S
C660 H689 0.931 . S
C661 C660 1.383 . S
C661 C662 1.394 . S
C662 C661 1.394 . S
C662 C663 1.378 . S
C662 H690 0.931 . S
C663 C658 1.377 . S
C663 C662 1.378 . S
C663 H691 0.931 . S
C664 O678 1.259 . S
C664 O679 1.270 . S
C665 O680 1.251 . S
C665 O681 1.251 . S
C666 Eu667 2.835 . S
C666 C668 1.500 . S
C666 O682 1.257 . S
C666 O683 1.260 . S
Eu667 C666 2.835 . S
Eu667 O679 2.355 . S
Eu667 O681 2.374 . S
Eu667 O682 2.473 . S
Eu667 O683 2.480 . S
Eu667 O684 2.430 . S
Eu667 O685 2.670 . S
Eu667 O686 2.394 . S
C668 C666 1.500 . S
C668 C669 1.377 . S
C668 C673 1.377 . S
C669 C668 1.377 . S
C669 C670 1.395 . S
C669 H692 0.931 . S
C670 C669 1.395 . S
C670 C671 1.383 . S
C670 H693 0.931 . S
C671 C670 1.383 . S
C671 C672 1.394 . S
C672 C671 1.394 . S
C672 C673 1.378 . S
C672 H694 0.931 1_554 S
C673 C668 1.377 . S
C673 C672 1.378 . S
C673 H695 0.931 . S
C674 O684 1.259 . S
C674 O685 1.270 . S
C675 O686 1.251 1_556 S
C675 O687 1.251 . S
O676 C656 1.257 . S
O676 Eu657 2.473 . S
O677 C656 1.260 . S
O677 Eu657 2.480 . S
O678 Eu657 2.430 . S
O678 C664 1.259 . S
O679 Eu657 2.670 . S
O679 C664 1.270 . S
O679 Eu667 2.355 . S
O680 Eu657 2.394 . S
O680 C665 1.251 . S
O681 C665 1.251 . S
O681 Eu667 2.374 . S
O682 C666 1.257 . S
O682 Eu667 2.473 . S
O683 C666 1.260 . S
O683 Eu667 2.480 . S
O684 Eu667 2.430 . S
O684 C674 1.259 . S
O685 Eu657 2.355 . S
O685 Eu667 2.670 . S
O685 C674 1.270 . S
O686 Eu667 2.394 . S
O686 C675 1.251 1_554 S
O687 Eu657 2.374 1_556 S
O687 C675 1.251 . S
H688 C659 0.931 . S
H689 C660 0.931 . S
H690 C662 0.931 . S
H691 C663 0.931 . S
H692 C669 0.931 . S
H693 C670 0.931 . S
H694 C672 0.931 1_556 S
H695 C673 0.931 . S
C696 Eu697 2.835 . S
C696 C698 1.500 . S
C696 O716 1.257 . S
C696 O717 1.260 . S
Eu697 C696 2.835 . S
Eu697 O716 2.473 . S
Eu697 O717 2.480 . S
Eu697 O718 2.430 . S
Eu697 O719 2.670 . S
Eu697 O720 2.394 . S
Eu697 O725 2.355 . S
Eu697 O727 2.374 . S
C698 C696 1.500 . S
C698 C699 1.377 . S
C698 C703 1.377 . S
C699 C698 1.377 . S
C699 C700 1.395 . S
C699 H728 0.931 . S
C700 C699 1.395 . S
C700 C701 1.383 . S
C700 H729 0.931 . S
C701 C700 1.383 . S
C701 C702 1.394 . S
C702 C701 1.394 . S
C702 C703 1.378 . S
C702 H730 0.931 . S
C703 C698 1.377 . S
C703 C702 1.378 . S
C703 H731 0.931 . S
C704 O718 1.259 . S
C704 O719 1.270 . S
C705 O720 1.251 . S
C705 O721 1.251 . S
C706 Eu707 2.835 . S
C706 C708 1.500 . S
C706 O722 1.257 . S
C706 O723 1.260 . S
Eu707 C706 2.835 . S
Eu707 O719 2.355 . S
Eu707 O721 2.374 . S
Eu707 O722 2.473 . S
Eu707 O723 2.480 . S
Eu707 O724 2.430 . S
Eu707 O725 2.670 . S
Eu707 O726 2.394 . S
C708 C706 1.500 . S
C708 C709 1.377 . S
C708 C713 1.377 . S
C709 C708 1.377 . S
C709 C710 1.395 . S
C709 H732 0.931 . S
C710 C709 1.395 . S
C710 C711 1.383 . S
C710 H733 0.931 . S
C711 C710 1.383 . S
C711 C712 1.394 . S
C712 C711 1.394 . S
C712 C713 1.378 . S
C712 H734 0.931 . S
C713 C708 1.377 . S
C713 C712 1.378 . S
C713 H735 0.931 . S
C714 O724 1.259 . S
C714 O725 1.270 . S
C715 O726 1.251 . S
C715 O727 1.251 . S
O716 C696 1.257 . S
O716 Eu697 2.473 . S
O717 C696 1.260 . S
O717 Eu697 2.480 . S
O718 Eu697 2.430 . S
O718 C704 1.259 . S
O719 Eu697 2.670 . S
O719 C704 1.270 . S
O719 Eu707 2.355 . S
O720 Eu697 2.394 . S
O720 C705 1.251 . S
O721 C705 1.251 . S
O721 Eu707 2.374 . S
O722 C706 1.257 . S
O722 Eu707 2.473 . S
O723 C706 1.260 . S
O723 Eu707 2.480 . S
O724 Eu707 2.430 . S
O724 C714 1.259 . S
O725 Eu697 2.355 . S
O725 Eu707 2.670 . S
O725 C714 1.270 . S
O726 Eu707 2.394 . S
O726 C715 1.251 . S
O727 Eu697 2.374 . S
O727 C715 1.251 . S
H728 C699 0.931 . S
H729 C700 0.931 . S
H730 C702 0.931 . S
H731 C703 0.931 . S
H732 C709 0.931 . S
H733 C710 0.931 . S
H734 C712 0.931 . S
H735 C713 0.931 . S
C736 Eu737 2.835 . S
C736 C738 1.500 . S
C736 O756 1.257 . S
C736 O757 1.260 . S
Eu737 C736 2.835 . S
Eu737 O756 2.473 . S
Eu737 O757 2.480 . S
Eu737 O758 2.430 . S
Eu737 O759 2.670 . S
Eu737 O760 2.394 . S
Eu737 O765 2.355 . S
Eu737 O767 2.374 . S
C738 C736 1.500 . S
C738 C739 1.377 . S
C738 C743 1.377 . S
C739 C738 1.377 . S
C739 C740 1.395 . S
C739 H768 0.931 . S
C740 C739 1.395 . S
C740 C741 1.383 . S
C740 H769 0.931 . S
C741 C740 1.383 . S
C741 C742 1.394 . S
C742 C741 1.394 . S
C742 C743 1.378 . S
C742 H770 0.931 . S
C743 C738 1.377 . S
C743 C742 1.378 . S
C743 H771 0.931 . S
C744 O758 1.259 . S
C744 O759 1.270 . S
C745 O760 1.251 . S
C745 O761 1.251 . S
C746 Eu747 2.869 . S
C746 C748 1.500 . S
C746 O762 1.257 . S
C746 O763 1.260 . S
Eu747 C746 2.869 . S
Eu747 O759 2.327 1_655 S
Eu747 O761 2.342 1_655 S
Eu747 O762 2.495 . S
Eu747 O763 2.519 . S
Eu747 O764 2.441 1_655 S
Eu747 O765 2.647 1_655 S
Eu747 O766 2.402 . S
C748 C746 1.500 . S
C748 C749 1.377 . S
C748 C753 1.377 . S
C749 C748 1.377 . S
C749 C750 1.395 . S
C749 H772 0.931 . S
C750 C749 1.395 . S
C750 C751 1.383 . S
C750 H773 0.931 . S
C751 C750 1.383 . S
C751 C752 1.394 . S
C752 C751 1.394 . S
C752 C753 1.378 . S
C752 H774 0.931 . S
C753 C748 1.377 . S
C753 C752 1.378 . S
C753 H775 0.931 . S
C754 O764 1.269 . S
C754 O765 1.270 . S
C755 O766 1.251 1_455 S
C755 O767 1.251 . S
O756 C736 1.257 . S
O756 Eu737 2.473 . S
O757 C736 1.260 . S
O757 Eu737 2.480 . S
O758 Eu737 2.430 . S
O758 C744 1.259 . S
O759 Eu737 2.670 . S
O759 C744 1.270 . S
O759 Eu747 2.327 1_455 S
O760 Eu737 2.394 . S
O760 C745 1.251 . S
O761 C745 1.251 . S
O761 Eu747 2.342 1_455 S
O762 C746 1.257 . S
O762 Eu747 2.495 . S
O763 C746 1.260 . S
O763 Eu747 2.519 . S
O764 Eu747 2.441 1_455 S
O764 C754 1.269 . S
O765 Eu737 2.355 . S
O765 Eu747 2.647 1_455 S
O765 C754 1.270 . S
O766 Eu747 2.402 . S
O766 C755 1.251 1_655 S
O767 Eu737 2.374 . S
O767 C755 1.251 . S
H768 C739 0.931 . S
H769 C740 0.931 . S
H770 C742 0.931 . S
H771 C743 0.931 . S
H772 C749 0.931 . S
H773 C750 0.931 . S
H774 C752 0.931 . S
H775 C753 0.931 . S
C776 Eu777 2.835 . S
C776 C778 1.500 . S
C776 O796 1.257 . S
C776 O797 1.260 . S
Eu777 C776 2.835 . S
Eu777 O796 2.473 . S
Eu777 O797 2.480 . S
Eu777 O798 2.430 . S
Eu777 O799 2.670 . S
Eu777 O800 2.394 . S
Eu777 O805 2.355 . S
Eu777 O807 2.374 . S
C778 C776 1.500 . S
C778 C779 1.377 . S
C778 C783 1.377 . S
C779 C778 1.377 . S
C779 C780 1.395 . S
C779 H808 0.931 . S
C780 C779 1.395 . S
C780 C781 1.383 . S
C780 H809 0.931 . S
C781 C780 1.383 . S
C781 C782 1.394 . S
C782 C781 1.394 . S
C782 C783 1.378 . S
C782 H810 0.931 . S
C783 C778 1.377 . S
C783 C782 1.378 . S
C783 H811 0.931 . S
C784 O798 1.259 . S
C784 O799 1.270 . S
C785 O800 1.251 . S
C785 O801 1.251 . S
C786 Eu787 2.835 . S
C786 C788 1.500 . S
C786 O802 1.257 . S
C786 O803 1.260 . S
Eu787 C786 2.835 . S
Eu787 O799 2.355 . S
Eu787 O801 2.374 . S
Eu787 O802 2.473 . S
Eu787 O803 2.480 . S
Eu787 O804 2.430 . S
Eu787 O805 2.670 . S
Eu787 O806 2.394 . S
C788 C786 1.500 . S
C788 C789 1.377 . S
C788 C793 1.377 . S
C789 C788 1.377 . S
C789 C790 1.395 . S
C789 H812 0.931 . S
C790 C789 1.395 . S
C790 C791 1.383 . S
C790 H813 0.931 . S
C791 C790 1.383 . S
C791 C792 1.394 . S
C792 C791 1.394 . S
C792 C793 1.378 . S
C792 H814 0.931 . S
C793 C788 1.377 . S
C793 C792 1.378 . S
C793 H815 0.931 . S
C794 O804 1.259 . S
C794 O805 1.270 . S
C795 O806 1.251 . S
C795 O807 1.251 . S
O796 C776 1.257 . S
O796 Eu777 2.473 . S
O797 C776 1.260 . S
O797 Eu777 2.480 . S
O798 Eu777 2.430 . S
O798 C784 1.259 . S
O799 Eu777 2.670 . S
O799 C784 1.270 . S
O799 Eu787 2.355 . S
O800 Eu777 2.394 . S
O800 C785 1.251 . S
O801 C785 1.251 . S
O801 Eu787 2.374 . S
O802 C786 1.257 . S
O802 Eu787 2.473 . S
O803 C786 1.260 . S
O803 Eu787 2.480 . S
O804 Eu787 2.430 . S
O804 C794 1.259 . S
O805 Eu777 2.355 . S
O805 Eu787 2.670 . S
O805 C794 1.270 . S
O806 Eu787 2.394 . S
O806 C795 1.251 . S
O807 Eu777 2.374 . S
O807 C795 1.251 . S
H808 C779 0.931 . S
H809 C780 0.931 . S
H810 C782 0.931 . S
H811 C783 0.931 . S
H812 C789 0.931 . S
H813 C790 0.931 . S
H814 C792 0.931 . S
H815 C793 0.931 . S
C816 Eu817 2.835 . S
C816 C818 1.500 . S
C816 O836 1.257 . S
C816 O837 1.260 . S
Eu817 C816 2.835 . S
Eu817 O836 2.473 . S
Eu817 O837 2.480 . S
Eu817 O838 2.430 . S
Eu817 O839 2.670 . S
Eu817 O840 2.394 . S
Eu817 O845 2.355 . S
Eu817 O847 2.374 . S
C818 C816 1.500 . S
C818 C819 1.377 . S
C818 C823 1.377 . S
C819 C818 1.377 . S
C819 C820 1.395 . S
C819 H848 0.931 . S
C820 C819 1.395 . S
C820 C821 1.383 . S
C820 H849 0.931 . S
C821 C820 1.383 . S
C821 C822 1.394 . S
C822 C821 1.394 . S
C822 C823 1.378 . S
C822 H850 0.931 . S
C823 C818 1.377 . S
C823 C822 1.378 . S
C823 H851 0.931 . S
C824 O838 1.259 . S
C824 O839 1.270 . S
C825 O840 1.251 . S
C825 O841 1.251 . S
C826 Eu827 2.835 . S
C826 C828 1.500 . S
C826 O842 1.257 . S
C826 O843 1.260 . S
Eu827 C826 2.835 . S
Eu827 O839 2.355 . S
Eu827 O841 2.374 . S
Eu827 O842 2.473 . S
Eu827 O843 2.480 . S
Eu827 O844 2.430 . S
Eu827 O845 2.670 . S
Eu827 O846 2.394 . S
C828 C826 1.500 . S
C828 C829 1.377 . S
C828 C833 1.377 . S
C829 C828 1.377 . S
C829 C830 1.395 . S
C829 H852 0.931 . S
C830 C829 1.395 . S
C830 C831 1.383 . S
C830 H853 0.931 . S
C831 C830 1.383 . S
C831 C832 1.394 . S
C832 C831 1.394 . S
C832 C833 1.378 . S
C832 H854 0.931 . S
C833 C828 1.377 . S
C833 C832 1.378 . S
C833 H855 0.931 . S
C834 O844 1.259 . S
C834 O845 1.270 . S
C835 O846 1.251 . S
C835 O847 1.251 . S
O836 C816 1.257 . S
O836 Eu817 2.473 . S
O837 C816 1.260 . S
O837 Eu817 2.480 . S
O838 Eu817 2.430 . S
O838 C824 1.259 . S
O839 Eu817 2.670 . S
O839 C824 1.270 . S
O839 Eu827 2.355 . S
O840 Eu817 2.394 . S
O840 C825 1.251 . S
O841 C825 1.251 . S
O841 Eu827 2.374 . S
O842 C826 1.257 . S
O842 Eu827 2.473 . S
O843 C826 1.260 . S
O843 Eu827 2.480 . S
O844 Eu827 2.430 . S
O844 C834 1.259 . S
O845 Eu817 2.355 . S
O845 Eu827 2.670 . S
O845 C834 1.270 . S
O846 Eu827 2.394 . S
O846 C835 1.251 . S
O847 Eu817 2.374 . S
O847 C835 1.251 . S
H848 C819 0.931 . S
H849 C820 0.931 . S
H850 C822 0.931 . S
H851 C823 0.931 . S
H852 C829 0.931 . S
H853 C830 0.931 . S
H854 C832 0.931 . S
H855 C833 0.931 . S
C856 Eu857 2.835 . S
C856 C858 1.500 . S
C856 O876 1.257 . S
C856 O877 1.260 . S
Eu857 C856 2.835 . S
Eu857 O876 2.473 . S
Eu857 O877 2.480 . S
Eu857 O878 2.430 . S
Eu857 O879 2.670 . S
Eu857 O880 2.394 . S
Eu857 O885 2.355 . S
Eu857 O887 2.374 . S
C858 C856 1.500 . S
C858 C859 1.377 . S
C858 C863 1.377 . S
C859 C858 1.377 . S
C859 C860 1.395 . S
C859 H888 0.931 . S
C860 C859 1.395 . S
C860 C861 1.383 . S
C860 H889 0.931 . S
C861 C860 1.383 . S
C861 C862 1.394 . S
C862 C861 1.394 . S
C862 C863 1.378 . S
C862 H890 0.931 . S
C863 C858 1.377 . S
C863 C862 1.378 . S
C863 H891 0.931 . S
C864 O878 1.259 . S
C864 O879 1.270 . S
C865 O880 1.251 . S
C865 O881 1.251 . S
C866 Eu867 2.835 . S
C866 C868 1.500 . S
C866 O882 1.257 . S
C866 O883 1.260 . S
Eu867 C866 2.835 . S
Eu867 O879 2.355 . S
Eu867 O881 2.374 . S
Eu867 O882 2.473 . S
Eu867 O883 2.480 . S
Eu867 O884 2.430 . S
Eu867 O885 2.670 . S
Eu867 O886 2.394 . S
C868 C866 1.500 . S
C868 C869 1.377 . S
C868 C873 1.377 . S
C869 C868 1.377 . S
C869 C870 1.395 . S
C869 H892 0.931 . S
C870 C869 1.395 . S
C870 C871 1.383 . S
C870 H893 0.931 . S
C871 C870 1.383 . S
C871 C872 1.394 . S
C872 C871 1.394 . S
C872 C873 1.378 . S
C872 H894 0.931 . S
C873 C868 1.377 . S
C873 C872 1.378 . S
C873 H895 0.931 . S
C874 O884 1.259 . S
C874 O885 1.270 . S
C875 O886 1.251 . S
C875 O887 1.251 . S
O876 C856 1.257 . S
O876 Eu857 2.473 . S
O877 C856 1.260 . S
O877 Eu857 2.480 . S
O878 Eu857 2.430 . S
O878 C864 1.259 . S
O879 Eu857 2.670 . S
O879 C864 1.270 . S
O879 Eu867 2.355 . S
O880 Eu857 2.394 . S
O880 C865 1.251 . S
O881 C865 1.251 . S
O881 Eu867 2.374 . S
O882 C866 1.257 . S
O882 Eu867 2.473 . S
O883 C866 1.260 . S
O883 Eu867 2.480 . S
O884 Eu867 2.430 . S
O884 C874 1.259 . S
O885 Eu857 2.355 . S
O885 Eu867 2.670 . S
O885 C874 1.270 . S
O886 Eu867 2.394 . S
O886 C875 1.251 . S
O887 Eu857 2.374 . S
O887 C875 1.251 . S
H888 C859 0.931 . S
H889 C860 0.931 . S
H890 C862 0.931 . S
H891 C863 0.931 . S
H892 C869 0.931 . S
H893 C870 0.931 . S
H894 C872 0.931 . S
H895 C873 0.931 . S
C896 Eu897 2.835 . S
C896 C898 1.500 . S
C896 O916 1.257 . S
C896 O917 1.260 . S
Eu897 C896 2.835 . S
Eu897 O916 2.473 . S
Eu897 O917 2.480 . S
Eu897 O918 2.430 . S
Eu897 O919 2.670 . S
Eu897 O920 2.394 . S
Eu897 O925 2.355 . S
Eu897 O927 2.374 . S
C898 C896 1.500 . S
C898 C899 1.377 . S
C898 C903 1.377 . S
C899 C898 1.377 . S
C899 C900 1.395 . S
C899 H928 0.931 . S
C900 C899 1.395 . S
C900 C901 1.383 . S
C900 H929 0.931 . S
C901 C900 1.383 . S
C901 C902 1.394 . S
C902 C901 1.394 . S
C902 C903 1.378 . S
C902 H930 0.931 . S
C903 C898 1.377 . S
C903 C902 1.378 . S
C903 H931 0.931 . S
C904 O918 1.259 . S
C904 O919 1.270 . S
C905 O920 1.251 . S
C905 O921 1.251 . S
C906 Eu907 2.835 . S
C906 C908 1.500 . S
C906 O922 1.257 . S
C906 O923 1.260 . S
Eu907 C906 2.835 . S
Eu907 O919 2.355 . S
Eu907 O921 2.374 . S
Eu907 O922 2.473 . S
Eu907 O923 2.480 . S
Eu907 O924 2.430 . S
Eu907 O925 2.670 . S
Eu907 O926 2.394 . S
C908 C906 1.500 . S
C908 C909 1.377 . S
C908 C913 1.377 . S
C909 C908 1.377 . S
C909 C910 1.395 . S
C909 H932 0.931 . S
C910 C909 1.395 . S
C910 C911 1.383 . S
C910 H933 0.931 . S
C911 C910 1.383 . S
C911 C912 1.394 . S
C912 C911 1.394 . S
C912 C913 1.378 . S
C912 H934 0.931 . S
C913 C908 1.377 . S
C913 C912 1.378 . S
C913 H935 0.931 . S
C914 O924 1.259 . S
C914 O925 1.270 . S
C915 O926 1.251 . S
C915 O927 1.251 . S
O916 C896 1.257 . S
O916 Eu897 2.473 . S
O917 C896 1.260 . S
O917 Eu897 2.480 . S
O918 Eu897 2.430 . S
O918 C904 1.259 . S
O919 Eu897 2.670 . S
O919 C904 1.270 . S
O919 Eu907 2.355 . S
O920 Eu897 2.394 . S
O920 C905 1.251 . S
O921 C905 1.251 . S
O921 Eu907 2.374 . S
O922 C906 1.257 . S
O922 Eu907 2.473 . S
O923 C906 1.260 . S
O923 Eu907 2.480 . S
O924 Eu907 2.430 . S
O924 C914 1.259 . S
O925 Eu897 2.355 . S
O925 Eu907 2.670 . S
O925 C914 1.270 . S
O926 Eu907 2.394 . S
O926 C915 1.251 . S
O927 Eu897 2.374 . S
O927 C915 1.251 . S
H928 C899 0.931 . S
H929 C900 0.931 . S
H930 C902 0.931 . S
H931 C903 0.931 . S
H932 C909 0.931 . S
H933 C910 0.931 . S
H934 C912 0.931 . S
H935 C913 0.931 . S
C936 Eu937 2.835 . S
C936 C938 1.500 . S
C936 O956 1.257 . S
C936 O957 1.260 . S
Eu937 C936 2.835 . S
Eu937 O956 2.473 . S
Eu937 O957 2.480 . S
Eu937 O958 2.430 1_655 S
Eu937 O959 2.670 1_655 S
Eu937 O960 2.394 1_655 S
Eu937 O965 2.355 1_655 S
Eu937 O967 2.374 1_655 S
C938 C936 1.500 . S
C938 C939 1.377 . S
C938 C943 1.377 . S
C939 C938 1.377 . S
C939 C940 1.395 . S
C939 H968 0.931 . S
C940 C939 1.395 . S
C940 C941 1.383 . S
C940 H969 0.931 . S
C941 C940 1.383 . S
C941 C942 1.394 . S
C942 C941 1.394 . S
C942 C943 1.378 . S
C942 H970 0.931 . S
C943 C938 1.377 . S
C943 C942 1.378 . S
C943 H971 0.931 . S
C944 O958 1.259 . S
C944 O959 1.270 . S
C945 O960 1.251 . S
C945 O961 1.251 . S
C946 Eu947 2.835 . S
C946 C948 1.500 . S
C946 O962 1.257 . S
C946 O963 1.260 . S
Eu947 C946 2.835 . S
Eu947 O959 2.355 . S
Eu947 O961 2.374 . S
Eu947 O962 2.473 . S
Eu947 O963 2.480 . S
Eu947 O964 2.430 1_554 S
Eu947 O965 2.670 . S
Eu947 O966 2.394 . S
C948 C946 1.500 . S
C948 C949 1.377 1_554 S
C948 C953 1.377 . S
C949 C948 1.377 1_556 S
C949 C950 1.395 . S
C949 H972 0.931 . S
C950 C949 1.395 . S
C950 C951 1.383 1_556 S
C950 H973 0.931 . S
C951 C950 1.383 1_554 S
C951 C952 1.394 . S
C952 C951 1.394 . S
C952 C953 1.378 . S
C952 H974 0.931 . S
C953 C948 1.377 . S
C953 C952 1.378 . S
C953 H975 0.931 . S
C954 O964 1.259 . S
C954 O965 1.270 1_556 S
C955 O966 1.251 . S
C955 O967 1.251 . S
O956 C936 1.257 . S
O956 Eu937 2.473 . S
O957 C936 1.260 . S
O957 Eu937 2.480 . S
O958 Eu937 2.430 1_455 S
O958 C944 1.259 . S
O959 Eu937 2.670 1_455 S
O959 C944 1.270 . S
O959 Eu947 2.355 . S
O960 Eu937 2.394 1_455 S
O960 C945 1.251 . S
O961 C945 1.251 . S
O961 Eu947 2.374 . S
O962 C946 1.257 . S
O962 Eu947 2.473 . S
O963 C946 1.260 . S
O963 Eu947 2.480 . S
O964 Eu947 2.430 1_556 S
O964 C954 1.259 . S
O965 Eu937 2.355 1_455 S
O965 Eu947 2.670 . S
O965 C954 1.270 1_554 S
O966 Eu947 2.394 . S
O966 C955 1.251 . S
O967 Eu937 2.374 1_455 S
O967 C955 1.251 . S
H968 C939 0.931 . S
H969 C940 0.931 . S
H970 C942 0.931 . S
H971 C943 0.931 . S
H972 C949 0.931 . S
H973 C950 0.931 . S
H974 C952 0.931 . S
H975 C953 0.931 . S
H976 C988 0.930 1_554 S
H977 C990 0.930 . S
H978 C991 0.930 . S
H979 C995 0.959 . S
H980 C995 0.959 . S
H981 C995 0.961 . S
H982 C996 0.960 . S
H983 C996 0.961 . S
H984 C996 0.959 1_655 S
H985 C999 0.928 . S
H986 C1000 0.931 . S
H987 C1002 0.930 . S
C988 H976 0.930 1_556 S
C988 C989 1.399 1_455 S
C988 C993 1.399 1_556 S
C989 C988 1.399 1_655 S
C989 C990 1.376 . S
C990 H977 0.930 . S
C990 C989 1.376 . S
C990 C991 1.388 . S
C991 H978 0.930 . S
C991 C990 1.388 . S
C991 C992 1.371 1_655 S
C992 C991 1.371 1_455 S
C992 C993 1.404 1_556 S
C992 C998 1.481 . S
C993 C988 1.399 1_554 S
C993 C992 1.404 1_554 S
C993 C994 1.516 . S
C994 C993 1.516 . S
C994 C995 1.502 . S
C994 C996 1.561 . S
C994 C997 1.526 . S
C995 H979 0.959 . S
C995 H980 0.959 . S
C995 H981 0.961 . S
C995 C994 1.502 . S
C996 H982 0.960 . S
C996 H983 0.961 . S
C996 H984 0.959 1_455 S
C996 C994 1.561 . S
C997 C994 1.526 . S
C997 C998 1.396 1_554 S
C997 C1002 1.390 . S
C998 C992 1.481 . S
C998 C997 1.396 1_556 S
C998 C999 1.399 1_455 S
C999 H985 0.928 . S
C999 C998 1.399 1_655 S
C999 C1000 1.386 1_655 S
C1000 H986 0.931 . S
C1000 C999 1.386 1_455 S
C1000 C1001 1.389 1_556 S
C1001 C1000 1.389 1_554 S
C1001 C1002 1.387 . S
C1002 H987 0.930 . S
C1002 C997 1.390 . S
C1002 C1001 1.387 . S
H1003 C1015 0.930 . S
H1004 C1017 0.930 . S
H1005 C1018 0.930 . S
H1006 C1022 0.959 . S
H1007 C1022 0.959 . S
H1008 C1022 0.961 . S
H1009 C1023 0.960 . S
H1010 C1023 0.961 . S
H1011 C1023 0.959 . S
H1012 C1026 0.929 . S
H1013 C1027 0.931 . S
H1014 C1029 0.930 . S
C1015 H1003 0.930 . S
C1015 C1016 1.399 . S
C1015 C1020 1.399 . S
C1016 C1015 1.399 . S
C1016 C1017 1.376 . S
C1017 H1004 0.930 . S
C1017 C1016 1.376 . S
C1017 C1018 1.388 . S
C1018 H1005 0.930 . S
C1018 C1017 1.388 . S
C1018 C1019 1.390 . S
C1019 C1018 1.390 . S
C1019 C1020 1.394 . S
C1019 C1025 1.465 . S
C1020 C1015 1.399 . S
C1020 C1019 1.394 . S
C1020 C1021 1.516 . S
C1021 C1020 1.516 . S
C1021 C1022 1.502 . S
C1021 C1023 1.561 . S
C1021 C1024 1.526 . S
C1022 H1006 0.959 . S
C1022 H1007 0.959 . S
C1022 H1008 0.961 . S
C1022 C1021 1.502 . S
C1023 H1009 0.960 . S
C1023 H1010 0.961 . S
C1023 H1011 0.959 . S
C1023 C1021 1.561 . S
C1024 C1021 1.526 . S
C1024 C1025 1.396 . S
C1024 C1029 1.390 . S
C1025 C1019 1.465 . S
C1025 C1024 1.396 . S
C1025 C1026 1.399 . S
C1026 H1012 0.929 . S
C1026 C1025 1.399 . S
C1026 C1027 1.385 . S
C1027 H1013 0.931 . S
C1027 C1026 1.385 . S
C1027 C1028 1.389 . S
C1028 C1027 1.389 . S
C1028 C1029 1.387 . S
C1029 H1014 0.930 . S
C1029 C1024 1.390 . S
C1029 C1028 1.387 . S
H1030 C1042 0.930 . S
H1031 C1044 0.930 . S
H1032 C1045 0.930 . S
H1033 C1049 0.959 . S
H1034 C1049 0.959 . S
H1035 C1049 0.961 . S
H1036 C1050 0.960 . S
H1037 C1050 0.961 . S
H1038 C1050 0.959 . S
H1039 C1053 0.929 . S
H1040 C1054 0.931 . S
H1041 C1056 0.930 . S
C1042 H1030 0.930 . S
C1042 C1043 1.399 . S
C1042 C1047 1.399 . S
C1043 C1042 1.399 . S
C1043 C1044 1.376 . S
C1044 H1031 0.930 . S
C1044 C1043 1.376 . S
C1044 C1045 1.388 . S
C1045 H1032 0.930 . S
C1045 C1044 1.388 . S
C1045 C1046 1.390 . S
C1046 C1045 1.390 . S
C1046 C1047 1.394 . S
C1046 C1052 1.465 . S
C1047 C1042 1.399 . S
C1047 C1046 1.394 . S
C1047 C1048 1.516 . S
C1048 C1047 1.516 . S
C1048 C1049 1.502 . S
C1048 C1050 1.561 . S
C1048 C1051 1.526 . S
C1049 H1033 0.959 . S
C1049 H1034 0.959 . S
C1049 H1035 0.961 . S
C1049 C1048 1.502 . S
C1050 H1036 0.960 . S
C1050 H1037 0.961 . S
C1050 H1038 0.959 . S
C1050 C1048 1.561 . S
C1051 C1048 1.526 . S
C1051 C1052 1.396 . S
C1051 C1056 1.390 . S
C1052 C1046 1.465 . S
C1052 C1051 1.396 . S
C1052 C1053 1.399 . S
C1053 H1039 0.929 . S
C1053 C1052 1.399 . S
C1053 C1054 1.385 . S
C1054 H1040 0.931 . S
C1054 C1053 1.385 . S
C1054 C1055 1.389 . S
C1055 C1054 1.389 . S
C1055 C1056 1.387 . S
C1056 H1041 0.930 . S
C1056 C1051 1.390 . S
C1056 C1055 1.387 . S
H1057 C1069 0.930 . S
H1058 C1071 0.930 . S
H1059 C1072 0.930 . S
H1060 C1076 0.959 . S
H1061 C1076 0.959 . S
H1062 C1076 0.961 . S
H1063 C1077 0.960 . S
H1064 C1077 0.961 . S
H1065 C1077 0.959 . S
H1066 C1080 0.929 . S
H1067 C1081 0.931 . S
H1068 C1083 0.930 . S
C1069 H1057 0.930 . S
C1069 C1070 1.399 . S
C1069 C1074 1.399 . S
C1070 C1069 1.399 . S
C1070 C1071 1.376 . S
C1071 H1058 0.930 . S
C1071 C1070 1.376 . S
C1071 C1072 1.388 . S
C1072 H1059 0.930 . S
C1072 C1071 1.388 . S
C1072 C1073 1.390 . S
C1073 C1072 1.390 . S
C1073 C1074 1.394 . S
C1073 C1079 1.465 . S
C1074 C1069 1.399 . S
C1074 C1073 1.394 . S
C1074 C1075 1.516 . S
C1075 C1074 1.516 . S
C1075 C1076 1.502 . S
C1075 C1077 1.561 . S
C1075 C1078 1.526 . S
C1076 H1060 0.959 . S
C1076 H1061 0.959 . S
C1076 H1062 0.961 . S
C1076 C1075 1.502 . S
C1077 H1063 0.960 . S
C1077 H1064 0.961 . S
C1077 H1065 0.959 . S
C1077 C1075 1.561 . S
C1078 C1075 1.526 . S
C1078 C1079 1.396 . S
C1078 C1083 1.390 . S
C1079 C1073 1.465 . S
C1079 C1078 1.396 . S
C1079 C1080 1.399 . S
C1080 H1066 0.929 . S
C1080 C1079 1.399 . S
C1080 C1081 1.385 . S
C1081 H1067 0.931 . S
C1081 C1080 1.385 . S
C1081 C1082 1.389 . S
C1082 C1081 1.389 . S
C1082 C1083 1.387 . S
C1083 H1068 0.930 . S
C1083 C1078 1.390 . S
C1083 C1082 1.387 . S
H1084 C1096 0.930 . S
H1085 C1098 0.930 1_655 S
H1086 C1099 0.930 . S
H1087 C1103 0.959 . S
H1088 C1103 0.959 . S
H1089 C1103 0.961 . S
H1090 C1104 0.960 . S
H1091 C1104 0.961 . S
H1092 C1104 0.959 1_655 S
H1093 C1107 0.929 . S
H1094 C1108 0.931 . S
H1095 C1110 0.930 . S
C1096 H1084 0.930 . S
C1096 C1097 1.399 . S
C1096 C1101 1.399 . S
C1097 C1096 1.399 . S
C1097 C1098 1.376 . S
C1098 H1085 0.930 1_455 S
C1098 C1097 1.376 . S
C1098 C1099 1.388 . S
C1099 H1086 0.930 . S
C1099 C1098 1.388 . S
C1099 C1100 1.390 . S
C1100 C1099 1.390 . S
C1100 C1101 1.394 . S
C1100 C1106 1.465 . S
C1101 C1096 1.399 . S
C1101 C1100 1.394 . S
C1101 C1102 1.516 . S
C1102 C1101 1.516 . S
C1102 C1103 1.502 . S
C1102 C1104 1.561 . S
C1102 C1105 1.526 . S
C1103 H1087 0.959 . S
C1103 H1088 0.959 . S
C1103 H1089 0.961 . S
C1103 C1102 1.502 . S
C1104 H1090 0.960 . S
C1104 H1091 0.961 . S
C1104 H1092 0.959 1_455 S
C1104 C1102 1.561 . S
C1105 C1102 1.526 . S
C1105 C1106 1.396 . S
C1105 C1110 1.390 . S
C1106 C1100 1.465 . S
C1106 C1105 1.396 . S
C1106 C1107 1.399 . S
C1107 H1093 0.929 . S
C1107 C1106 1.399 . S
C1107 C1108 1.385 . S
C1108 H1094 0.931 . S
C1108 C1107 1.385 . S
C1108 C1109 1.389 . S
C1109 C1108 1.389 . S
C1109 C1110 1.387 . S
C1110 H1095 0.930 . S
C1110 C1105 1.390 . S
C1110 C1109 1.387 . S
H1111 C1123 0.930 . S
H1112 C1125 0.930 . S
H1113 C1126 0.930 . S
H1114 C1130 0.959 . S
H1115 C1130 0.959 . S
H1116 C1130 0.961 . S
H1117 C1131 0.960 . S
H1118 C1131 0.961 . S
H1119 C1131 0.959 . S
H1120 C1134 0.929 . S
H1121 C1135 0.931 . S
H1122 C1137 0.930 . S
C1123 H1111 0.930 . S
C1123 C1124 1.399 . S
C1123 C1128 1.399 . S
C1124 C1123 1.399 . S
C1124 C1125 1.376 . S
C1125 H1112 0.930 . S
C1125 C1124 1.376 . S
C1125 C1126 1.388 . S
C1126 H1113 0.930 . S
C1126 C1125 1.388 . S
C1126 C1127 1.390 . S
C1127 C1126 1.390 . S
C1127 C1128 1.394 . S
C1127 C1133 1.465 . S
C1128 C1123 1.399 . S
C1128 C1127 1.394 . S
C1128 C1129 1.516 . S
C1129 C1128 1.516 . S
C1129 C1130 1.502 . S
C1129 C1131 1.561 . S
C1129 C1132 1.526 . S
C1130 H1114 0.959 . S
C1130 H1115 0.959 . S
C1130 H1116 0.961 . S
C1130 C1129 1.502 . S
C1131 H1117 0.960 . S
C1131 H1118 0.961 . S
C1131 H1119 0.959 . S
C1131 C1129 1.561 . S
C1132 C1129 1.526 . S
C1132 C1133 1.396 . S
C1132 C1137 1.390 . S
C1133 C1127 1.465 . S
C1133 C1132 1.396 . S
C1133 C1134 1.399 . S
C1134 H1120 0.929 . S
C1134 C1133 1.399 . S
C1134 C1135 1.385 . S
C1135 H1121 0.931 . S
C1135 C1134 1.385 . S
C1135 C1136 1.389 . S
C1136 C1135 1.389 . S
C1136 C1137 1.387 . S
C1137 H1122 0.930 . S
C1137 C1132 1.390 . S
C1137 C1136 1.387 . S
H1138 C1150 0.930 . S
H1139 C1152 0.930 . S
H1140 C1153 0.930 . S
H1141 C1157 0.959 . S
H1142 C1157 0.959 . S
H1143 C1157 0.961 . S
H1144 C1158 0.960 . S
H1145 C1158 0.961 . S
H1146 C1158 0.959 . S
H1147 C1161 0.929 . S
H1148 C1162 0.931 . S
H1149 C1164 0.930 . S
C1150 H1138 0.930 . S
C1150 C1151 1.399 . S
C1150 C1155 1.399 . S
C1151 C1150 1.399 . S
C1151 C1152 1.376 . S
C1152 H1139 0.930 . S
C1152 C1151 1.376 . S
C1152 C1153 1.388 . S
C1153 H1140 0.930 . S
C1153 C1152 1.388 . S
C1153 C1154 1.390 . S
C1154 C1153 1.390 . S
C1154 C1155 1.394 . S
C1154 C1160 1.465 . S
C1155 C1150 1.399 . S
C1155 C1154 1.394 . S
C1155 C1156 1.516 . S
C1156 C1155 1.516 . S
C1156 C1157 1.502 . S
C1156 C1158 1.561 . S
C1156 C1159 1.526 . S
C1157 H1141 0.959 . S
C1157 H1142 0.959 . S
C1157 H1143 0.961 . S
C1157 C1156 1.502 . S
C1158 H1144 0.960 . S
C1158 H1145 0.961 . S
C1158 H1146 0.959 . S
C1158 C1156 1.561 . S
C1159 C1156 1.526 . S
C1159 C1160 1.396 . S
C1159 C1164 1.390 . S
C1160 C1154 1.465 . S
C1160 C1159 1.396 . S
C1160 C1161 1.399 . S
C1161 H1147 0.929 . S
C1161 C1160 1.399 . S
C1161 C1162 1.385 . S
C1162 H1148 0.931 . S
C1162 C1161 1.385 . S
C1162 C1163 1.389 . S
C1163 C1162 1.389 . S
C1163 C1164 1.387 . S
C1164 H1149 0.930 . S
C1164 C1159 1.390 . S
C1164 C1163 1.387 . S
H1165 C1177 0.930 . S
H1166 C1179 0.930 . S
H1167 C1180 0.930 . S
H1168 C1184 0.959 . S
H1169 C1184 0.959 . S
H1170 C1184 0.961 . S
H1171 C1185 0.960 . S
H1172 C1185 0.961 . S
H1173 C1185 0.959 . S
H1174 C1188 0.929 . S
H1175 C1189 0.931 . S
H1176 C1191 0.930 . S
C1177 H1165 0.930 . S
C1177 C1178 1.399 . S
C1177 C1182 1.399 . S
C1178 C1177 1.399 . S
C1178 C1179 1.376 . S
C1179 H1166 0.930 . S
C1179 C1178 1.376 . S
C1179 C1180 1.388 . S
C1180 H1167 0.930 . S
C1180 C1179 1.388 . S
C1180 C1181 1.390 . S
C1181 C1180 1.390 . S
C1181 C1182 1.394 . S
C1181 C1187 1.465 . S
C1182 C1177 1.399 . S
C1182 C1181 1.394 . S
C1182 C1183 1.516 . S
C1183 C1182 1.516 . S
C1183 C1184 1.502 . S
C1183 C1185 1.561 . S
C1183 C1186 1.526 . S
C1184 H1168 0.959 . S
C1184 H1169 0.959 . S
C1184 H1170 0.961 . S
C1184 C1183 1.502 . S
C1185 H1171 0.960 . S
C1185 H1172 0.961 . S
C1185 H1173 0.959 . S
C1185 C1183 1.561 . S
C1186 C1183 1.526 . S
C1186 C1187 1.396 . S
C1186 C1191 1.390 . S
C1187 C1181 1.465 . S
C1187 C1186 1.396 . S
C1187 C1188 1.399 . S
C1188 H1174 0.929 . S
C1188 C1187 1.399 . S
C1188 C1189 1.385 . S
C1189 H1175 0.931 . S
C1189 C1188 1.385 . S
C1189 C1190 1.389 . S
C1190 C1189 1.389 . S
C1190 C1191 1.387 . S
C1191 H1176 0.930 . S
C1191 C1186 1.390 . S
C1191 C1190 1.387 . S
H1192 C1204 0.930 . S
H1193 C1206 0.930 1_565 S
H1194 C1207 0.930 1_565 S
H1195 C1211 0.959 . S
H1196 C1211 0.959 . S
H1197 C1211 0.961 . S
H1198 C1212 0.960 . S
H1199 C1212 0.961 . S
H1200 C1212 0.959 . S
H1201 C1215 0.927 1_465 S
H1202 C1216 0.931 1_565 S
H1203 C1218 0.930 . S
C1204 H1192 0.930 . S
C1204 C1205 1.399 . S
C1204 C1209 1.399 . S
C1205 C1204 1.399 . S
C1205 C1206 1.376 . S
C1206 H1193 0.930 1_545 S
C1206 C1205 1.376 . S
C1206 C1207 1.388 . S
C1207 H1194 0.930 1_545 S
C1207 C1206 1.388 . S
C1207 C1208 1.390 . S
C1208 C1207 1.390 . S
C1208 C1209 1.394 . S
C1208 C1214 1.465 . S
C1209 C1204 1.399 . S
C1209 C1208 1.394 . S
C1209 C1210 1.516 . S
C1210 C1209 1.516 . S
C1210 C1211 1.502 . S
C1210 C1212 1.561 . S
C1210 C1213 1.526 . S
C1211 H1195 0.959 . S
C1211 H1196 0.959 . S
C1211 H1197 0.961 . S
C1211 C1210 1.502 . S
C1212 H1198 0.960 . S
C1212 H1199 0.961 . S
C1212 H1200 0.959 . S
C1212 C1210 1.561 . S
C1213 C1210 1.526 . S
C1213 C1214 1.396 . S
C1213 C1218 1.390 . S
C1214 C1208 1.465 . S
C1214 C1213 1.396 . S
C1214 C1215 1.399 . S
C1215 H1201 0.927 1_645 S
C1215 C1214 1.399 . S
C1215 C1216 1.385 1_655 S
C1216 H1202 0.931 1_545 S
C1216 C1215 1.385 1_455 S
C1216 C1217 1.389 . S
C1217 C1216 1.389 . S
C1217 C1218 1.387 1_455 S
C1218 H1203 0.930 . S
C1218 C1213 1.390 . S
C1218 C1217 1.387 1_655 S
H1219 C1231 0.930 . S
H1220 C1233 0.930 . S
H1221 C1234 0.930 . S
H1222 C1238 0.959 . S
H1223 C1238 0.959 . S
H1224 C1238 0.961 . S
H1225 C1239 0.960 . S
H1226 C1239 0.961 . S
H1227 C1239 0.959 . S
H1228 C1242 0.929 . S
H1229 C1243 0.931 . S
H1230 C1245 0.930 . S
C1231 H1219 0.930 . S
C1231 C1232 1.399 . S
C1231 C1236 1.399 . S
C1232 C1231 1.399 . S
C1232 C1233 1.376 . S
C1233 H1220 0.930 . S
C1233 C1232 1.376 . S
C1233 C1234 1.388 . S
C1234 H1221 0.930 . S
C1234 C1233 1.388 . S
C1234 C1235 1.390 . S
C1235 C1234 1.390 . S
C1235 C1236 1.394 . S
C1235 C1241 1.465 . S
C1236 C1231 1.399 . S
C1236 C1235 1.394 . S
C1236 C1237 1.516 . S
C1237 C1236 1.516 . S
C1237 C1238 1.502 . S
C1237 C1239 1.561 . S
C1237 C1240 1.526 . S
C1238 H1222 0.959 . S
C1238 H1223 0.959 . S
C1238 H1224 0.961 . S
C1238 C1237 1.502 . S
C1239 H1225 0.960 . S
C1239 H1226 0.961 . S
C1239 H1227 0.959 . S
C1239 C1237 1.561 . S
C1240 C1237 1.526 . S
C1240 C1241 1.396 . S
C1240 C1245 1.390 . S
C1241 C1235 1.465 . S
C1241 C1240 1.396 . S
C1241 C1242 1.399 . S
C1242 H1228 0.929 . S
C1242 C1241 1.399 . S
C1242 C1243 1.385 . S
C1243 H1229 0.931 . S
C1243 C1242 1.385 . S
C1243 C1244 1.389 . S
C1244 C1243 1.389 . S
C1244 C1245 1.387 . S
C1245 H1230 0.930 . S
C1245 C1240 1.390 . S
C1245 C1244 1.387 . S
H1246 C1258 0.930 . S
H1247 C1260 0.930 . S
H1248 C1261 0.930 . S
H1249 C1265 0.959 . S
H1250 C1265 0.959 . S
H1251 C1265 0.961 . S
H1252 C1266 0.960 . S
H1253 C1266 0.961 . S
H1254 C1266 0.959 . S
H1255 C1269 0.929 . S
H1256 C1270 0.931 . S
H1257 C1272 0.930 . S
C1258 H1246 0.930 . S
C1258 C1259 1.399 . S
C1258 C1263 1.399 . S
C1259 C1258 1.399 . S
C1259 C1260 1.376 1_545 S
C1260 H1247 0.930 . S
C1260 C1259 1.376 1_565 S
C1260 C1261 1.388 . S
C1261 H1248 0.930 . S
C1261 C1260 1.388 . S
C1261 C1262 1.390 1_565 S
C1262 C1261 1.390 1_545 S
C1262 C1263 1.394 . S
C1262 C1268 1.465 . S
C1263 C1258 1.399 . S
C1263 C1262 1.394 . S
C1263 C1264 1.516 . S
C1264 C1263 1.516 . S
C1264 C1265 1.502 . S
C1264 C1266 1.561 . S
C1264 C1267 1.526 . S
C1265 H1249 0.959 . S
C1265 H1250 0.959 . S
C1265 H1251 0.961 . S
C1265 C1264 1.502 . S
C1266 H1252 0.960 . S
C1266 H1253 0.961 . S
C1266 H1254 0.959 . S
C1266 C1264 1.561 . S
C1267 C1264 1.526 . S
C1267 C1268 1.396 . S
C1267 C1272 1.390 . S
C1268 C1262 1.465 . S
C1268 C1267 1.396 . S
C1268 C1269 1.399 1_545 S
C1269 H1255 0.929 . S
C1269 C1268 1.399 1_565 S
C1269 C1270 1.385 . S
C1270 H1256 0.931 . S
C1270 C1269 1.385 . S
C1270 C1271 1.389 1_565 S
C1271 C1270 1.389 1_545 S
C1271 C1272 1.387 . S
C1272 H1257 0.930 . S
C1272 C1267 1.390 . S
C1272 C1271 1.387 . S
H1273 C1285 0.930 . S
H1274 C1287 0.943 . S
H1275 C1288 0.930 . S
H1276 C1292 0.959 . S
H1277 C1292 0.959 . S
H1278 C1292 0.961 . S
H1279 C1293 0.960 . S
H1280 C1293 0.961 . S
H1281 C1293 0.959 . S
H1282 C1296 0.929 . S
H1283 C1297 0.931 . S
H1284 C1299 0.930 . S
C1285 H1273 0.930 . S
C1285 C1286 1.399 . S
C1285 C1290 1.399 . S
C1286 C1285 1.399 . S
C1286 C1287 1.376 . S
C1287 H1274 0.943 . S
C1287 C1286 1.376 . S
C1287 C1288 1.388 . S
C1288 H1275 0.930 . S
C1288 C1287 1.388 . S
C1288 C1289 1.390 . S
C1289 C1288 1.390 . S
C1289 C1290 1.394 . S
C1289 C1295 1.465 . S
C1290 C1285 1.399 . S
C1290 C1289 1.394 . S
C1290 C1291 1.516 . S
C1291 C1290 1.516 . S
C1291 C1292 1.502 . S
C1291 C1293 1.561 . S
C1291 C1294 1.526 . S
C1292 H1276 0.959 . S
C1292 H1277 0.959 . S
C1292 H1278 0.961 . S
C1292 C1291 1.502 . S
C1293 H1279 0.960 . S
C1293 H1280 0.961 . S
C1293 H1281 0.959 . S
C1293 C1291 1.561 . S
C1294 C1291 1.526 . S
C1294 C1295 1.396 . S
C1294 C1299 1.390 . S
C1295 C1289 1.465 . S
C1295 C1294 1.396 . S
C1295 C1296 1.399 . S
C1296 H1282 0.929 . S
C1296 C1295 1.399 . S
C1296 C1297 1.385 . S
C1297 H1283 0.931 . S
C1297 C1296 1.385 . S
C1297 C1298 1.389 . S
C1298 C1297 1.389 . S
C1298 C1299 1.387 . S
C1299 H1284 0.930 . S
C1299 C1294 1.390 . S
C1299 C1298 1.387 . S
H1300 C1312 0.930 . S
H1301 C1314 0.930 . S
H1302 C1315 0.930 1_565 S
H1303 C1319 0.959 1_455 S
H1304 C1319 0.959 1_455 S
H1305 C1319 0.961 . S
H1306 C1320 0.960 . S
H1307 C1320 0.961 . S
H1308 C1320 0.959 . S
H1309 C1323 0.929 . S
H1310 C1324 0.891 1_565 S
H1311 C1326 0.932 . S
C1312 H1300 0.930 . S
C1312 C1313 1.399 . S
C1312 C1317 1.399 . S
C1313 C1312 1.399 . S
C1313 C1314 1.376 . S
C1314 H1301 0.930 . S
C1314 C1313 1.376 . S
C1314 C1315 1.388 . S
C1315 H1302 0.930 1_545 S
C1315 C1314 1.388 . S
C1315 C1316 1.390 . S
C1316 C1315 1.390 . S
C1316 C1317 1.394 . S
C1316 C1322 1.465 . S
C1317 C1312 1.399 . S
C1317 C1316 1.394 . S
C1317 C1318 1.516 . S
C1318 C1317 1.516 . S
C1318 C1319 1.502 . S
C1318 C1320 1.561 . S
C1318 C1321 1.526 . S
C1319 H1303 0.959 1_655 S
C1319 H1304 0.959 1_655 S
C1319 H1305 0.961 . S
C1319 C1318 1.502 . S
C1320 H1306 0.960 . S
C1320 H1307 0.961 . S
C1320 H1308 0.959 . S
C1320 C1318 1.561 . S
C1321 C1318 1.526 . S
C1321 C1322 1.396 . S
C1321 C1326 1.390 . S
C1322 C1316 1.465 . S
C1322 C1321 1.396 . S
C1322 C1323 1.399 1_545 S
C1323 H1309 0.929 . S
C1323 C1322 1.399 1_565 S
C1323 C1324 1.394 1_565 S
C1324 H1310 0.891 1_545 S
C1324 C1323 1.394 1_545 S
C1324 C1325 1.420 . S
C1325 C1324 1.420 . S
C1325 C1326 1.387 . S
C1326 H1311 0.932 . S
C1326 C1321 1.390 . S
C1326 C1325 1.387 . S
H1327 C1339 0.930 . S
H1328 C1341 0.930 . S
H1329 C1342 0.930 . S
H1330 C1346 0.959 . S
H1331 C1346 0.959 . S
H1332 C1346 0.961 . S
H1333 C1347 0.960 . S
H1334 C1347 0.961 . S
H1335 C1347 0.959 . S
H1336 C1350 0.929 . S
H1337 C1351 0.931 . S
H1338 C1353 0.930 . S
C1339 H1327 0.930 . S
C1339 C1340 1.399 . S
C1339 C1344 1.399 . S
C1340 C1339 1.399 . S
C1340 C1341 1.376 . S
C1341 H1328 0.930 . S
C1341 C1340 1.376 . S
C1341 C1342 1.388 . S
C1342 H1329 0.930 . S
C1342 C1341 1.388 . S
C1342 C1343 1.390 . S
C1343 C1342 1.390 . S
C1343 C1344 1.394 . S
C1343 C1349 1.465 . S
C1344 C1339 1.399 . S
C1344 C1343 1.394 . S
C1344 C1345 1.516 . S
C1345 C1344 1.516 . S
C1345 C1346 1.502 . S
C1345 C1347 1.561 . S
C1345 C1348 1.526 . S
C1346 H1330 0.959 . S
C1346 H1331 0.959 . S
C1346 H1332 0.961 . S
C1346 C1345 1.502 . S
C1347 H1333 0.960 . S
C1347 H1334 0.961 . S
C1347 H1335 0.959 . S
C1347 C1345 1.561 . S
C1348 C1345 1.526 . S
C1348 C1349 1.396 . S
C1348 C1353 1.390 . S
C1349 C1343 1.465 . S
C1349 C1348 1.396 . S
C1349 C1350 1.399 . S
C1350 H1336 0.929 . S
C1350 C1349 1.399 . S
C1350 C1351 1.385 . S
C1351 H1337 0.931 . S
C1351 C1350 1.385 . S
C1351 C1352 1.389 . S
C1352 C1351 1.389 . S
C1352 C1353 1.387 . S
C1353 H1338 0.930 . S
C1353 C1348 1.390 . S
C1353 C1352 1.387 . S
H1354 C1366 0.930 . S
H1355 C1368 0.930 . S
H1356 C1369 0.930 . S
H1357 C1373 0.959 . S
H1358 C1373 0.959 . S
H1359 C1373 0.961 . S
H1360 C1374 0.960 . S
H1361 C1374 0.961 . S
H1362 C1374 0.959 . S
H1363 C1377 0.929 . S
H1364 C1378 0.931 1_554 S
H1365 C1380 0.930 . S
C1366 H1354 0.930 . S
C1366 C1367 1.399 . S
C1366 C1371 1.399 . S
C1367 C1366 1.399 . S
C1367 C1368 1.376 . S
C1368 H1355 0.930 . S
C1368 C1367 1.376 . S
C1368 C1369 1.388 . S
C1369 H1356 0.930 . S
C1369 C1368 1.388 . S
C1369 C1370 1.390 . S
C1370 C1369 1.390 . S
C1370 C1371 1.394 . S
C1370 C1376 1.465 . S
C1371 C1366 1.399 . S
C1371 C1370 1.394 . S
C1371 C1372 1.516 . S
C1372 C1371 1.516 . S
C1372 C1373 1.502 . S
C1372 C1374 1.561 1_545 S
C1372 C1375 1.526 . S
C1373 H1357 0.959 . S
C1373 H1358 0.959 . S
C1373 H1359 0.961 . S
C1373 C1372 1.502 . S
C1374 H1360 0.960 . S
C1374 H1361 0.961 . S
C1374 H1362 0.959 . S
C1374 C1372 1.561 1_565 S
C1375 C1372 1.526 . S
C1375 C1376 1.396 . S
C1375 C1380 1.390 . S
C1376 C1370 1.465 . S
C1376 C1375 1.396 . S
C1376 C1377 1.399 . S
C1377 H1363 0.929 . S
C1377 C1376 1.399 . S
C1377 C1378 1.385 . S
C1378 H1364 0.931 1_556 S
C1378 C1377 1.385 . S
C1378 C1379 1.389 . S
C1379 C1378 1.389 . S
C1379 C1380 1.387 . S
C1380 H1365 0.930 . S
C1380 C1375 1.390 . S
C1380 C1379 1.387 . S
H1381 C1393 0.930 . S
H1382 C1395 0.930 . S
H1383 C1396 0.930 . S
H1384 C1400 0.959 . S
H1385 C1400 0.959 . S
H1386 C1400 0.961 . S
H1387 C1401 0.960 . S
H1388 C1401 0.961 . S
H1389 C1401 0.959 . S
H1390 C1404 0.929 . S
H1391 C1405 0.931 . S
H1392 C1407 0.930 . S
C1393 H1381 0.930 . S
C1393 C1394 1.399 . S
C1393 C1398 1.399 . S
C1394 C1393 1.399 . S
C1394 C1395 1.376 . S
C1395 H1382 0.930 . S
C1395 C1394 1.376 . S
C1395 C1396 1.388 . S
C1396 H1383 0.930 . S
C1396 C1395 1.388 . S
C1396 C1397 1.390 . S
C1397 C1396 1.390 . S
C1397 C1398 1.394 . S
C1397 C1403 1.465 . S
C1398 C1393 1.399 . S
C1398 C1397 1.394 . S
C1398 C1399 1.516 . S
C1399 C1398 1.516 . S
C1399 C1400 1.502 . S
C1399 C1401 1.561 . S
C1399 C1402 1.526 . S
C1400 H1384 0.959 . S
C1400 H1385 0.959 . S
C1400 H1386 0.961 . S
C1400 C1399 1.502 . S
C1401 H1387 0.960 . S
C1401 H1388 0.961 . S
C1401 H1389 0.959 . S
C1401 C1399 1.561 . S
C1402 C1399 1.526 . S
C1402 C1403 1.396 . S
C1402 C1407 1.390 . S
C1403 C1397 1.465 . S
C1403 C1402 1.396 . S
C1403 C1404 1.399 . S
C1404 H1390 0.929 . S
C1404 C1403 1.399 . S
C1404 C1405 1.385 . S
C1405 H1391 0.931 . S
C1405 C1404 1.385 . S
C1405 C1406 1.389 . S
C1406 C1405 1.389 . S
C1406 C1407 1.387 . S
C1407 H1392 0.930 . S
C1407 C1402 1.390 . S
C1407 C1406 1.387 . S
H1408 C1420 0.913 1_556 S
H1409 C1422 0.930 . S
H1410 C1423 0.930 . S
H1411 C1427 0.959 . S
H1412 C1427 0.959 . S
H1413 C1427 0.961 . S
H1414 C1428 0.960 . S
H1415 C1428 0.961 . S
H1416 C1428 0.959 . S
H1417 C1431 0.929 . S
H1418 C1432 0.931 . S
H1419 C1434 0.930 . S
C1420 H1408 0.913 1_554 S
C1420 C1421 1.405 . S
C1420 C1425 1.410 . S
C1421 C1420 1.405 . S
C1421 C1422 1.376 . S
C1422 H1409 0.930 . S
C1422 C1421 1.376 . S
C1422 C1423 1.388 . S
C1423 H1410 0.930 . S
C1423 C1422 1.388 . S
C1423 C1424 1.390 . S
C1424 C1423 1.390 . S
C1424 C1425 1.394 . S
C1424 C1430 1.465 . S
C1425 C1420 1.410 . S
C1425 C1424 1.394 . S
C1425 C1426 1.516 . S
C1426 C1425 1.516 . S
C1426 C1427 1.502 . S
C1426 C1428 1.561 1_554 S
C1426 C1429 1.526 . S
C1427 H1411 0.959 . S
C1427 H1412 0.959 . S
C1427 H1413 0.961 . S
C1427 C1426 1.502 . S
C1428 H1414 0.960 . S
C1428 H1415 0.961 . S
C1428 H1416 0.959 . S
C1428 C1426 1.561 1_556 S
C1429 C1426 1.526 . S
C1429 C1430 1.396 . S
C1429 C1434 1.390 . S
C1430 C1424 1.465 . S
C1430 C1429 1.396 . S
C1430 C1431 1.399 . S
C1431 H1417 0.929 . S
C1431 C1430 1.399 . S
C1431 C1432 1.385 . S
C1432 H1418 0.931 . S
C1432 C1431 1.385 . S
C1432 C1433 1.389 . S
C1433 C1432 1.389 . S
C1433 C1434 1.387 . S
C1434 H1419 0.930 . S
C1434 C1429 1.390 . S
C1434 C1433 1.387 . S
H1435 C1447 0.930 . S
H1436 C1449 0.930 . S
H1437 C1450 0.930 1_556 S
H1438 C1454 0.959 . S
H1439 C1454 0.959 . S
H1440 C1454 0.961 . S
H1441 C1455 0.960 . S
H1442 C1455 0.961 . S
H1443 C1455 0.959 . S
H1444 C1458 0.929 1_556 S
H1445 C1459 0.931 . S
H1446 C1461 0.930 . S
C1447 H1435 0.930 . S
C1447 C1448 1.399 . S
C1447 C1452 1.399 . S
C1448 C1447 1.399 . S
C1448 C1449 1.376 . S
C1449 H1436 0.930 . S
C1449 C1448 1.376 . S
C1449 C1450 1.388 . S
C1450 H1437 0.930 1_554 S
C1450 C1449 1.388 . S
C1450 C1451 1.390 . S
C1451 C1450 1.390 . S
C1451 C1452 1.394 . S
C1451 C1457 1.465 . S
C1452 C1447 1.399 . S
C1452 C1451 1.394 . S
C1452 C1453 1.516 . S
C1453 C1452 1.516 . S
C1453 C1454 1.502 . S
C1453 C1455 1.561 . S
C1453 C1456 1.526 . S
C1454 H1438 0.959 . S
C1454 H1439 0.959 . S
C1454 H1440 0.961 . S
C1454 C1453 1.502 . S
C1455 H1441 0.960 . S
C1455 H1442 0.961 . S
C1455 H1443 0.959 . S
C1455 C1453 1.561 . S
C1456 C1453 1.526 . S
C1456 C1457 1.396 . S
C1456 C1461 1.390 . S
C1457 C1451 1.465 . S
C1457 C1456 1.396 . S
C1457 C1458 1.399 . S
C1458 H1444 0.929 1_554 S
C1458 C1457 1.399 . S
C1458 C1459 1.385 . S
C1459 H1445 0.931 . S
C1459 C1458 1.385 . S
C1459 C1460 1.389 . S
C1460 C1459 1.389 . S
C1460 C1461 1.387 . S
C1461 H1446 0.930 . S
C1461 C1456 1.390 . S
C1461 C1460 1.387 . S
H1462 C1474 0.930 . S
H1463 C1476 0.930 . S
H1464 C1477 0.930 . S
H1465 C1481 0.959 . S
H1466 C1481 0.959 . S
H1467 C1481 0.961 . S
H1468 C1482 0.960 . S
H1469 C1482 0.961 . S
H1470 C1482 0.959 . S
H1471 C1485 0.929 . S
H1472 C1486 0.931 . S
H1473 C1488 0.930 . S
C1474 H1462 0.930 . S
C1474 C1475 1.399 . S
C1474 C1479 1.399 . S
C1475 C1474 1.399 . S
C1475 C1476 1.376 . S
C1476 H1463 0.930 . S
C1476 C1475 1.376 . S
C1476 C1477 1.388 . S
C1477 H1464 0.930 . S
C1477 C1476 1.388 . S
C1477 C1478 1.390 . S
C1478 C1477 1.390 . S
C1478 C1479 1.394 . S
C1478 C1484 1.465 . S
C1479 C1474 1.399 . S
C1479 C1478 1.394 . S
C1479 C1480 1.516 . S
C1480 C1479 1.516 . S
C1480 C1481 1.502 . S
C1480 C1482 1.561 . S
C1480 C1483 1.526 . S
C1481 H1465 0.959 . S
C1481 H1466 0.959 . S
C1481 H1467 0.961 . S
C1481 C1480 1.502 . S
C1482 H1468 0.960 . S
C1482 H1469 0.961 . S
C1482 H1470 0.959 . S
C1482 C1480 1.561 . S
C1483 C1480 1.526 . S
C1483 C1484 1.396 . S
C1483 C1488 1.390 . S
C1484 C1478 1.465 . S
C1484 C1483 1.396 . S
C1484 C1485 1.399 . S
C1485 H1471 0.929 . S
C1485 C1484 1.399 . S
C1485 C1486 1.385 . S
C1486 H1472 0.931 . S
C1486 C1485 1.385 . S
C1486 C1487 1.389 . S
C1487 C1486 1.389 . S
C1487 C1488 1.387 . S
C1488 H1473 0.930 . S
C1488 C1483 1.390 . S
C1488 C1487 1.387 . S
H1489 C1501 0.930 . S
H1490 C1503 0.930 . S
H1491 C1504 0.930 . S
H1492 C1508 0.959 . S
H1493 C1508 0.959 . S
H1494 C1508 0.961 . S
H1495 C1509 0.960 . S
H1496 C1509 0.961 . S
H1497 C1509 0.959 . S
H1498 C1512 0.929 . S
H1499 C1513 0.931 . S
H1500 C1515 0.930 . S
C1501 H1489 0.930 . S
C1501 C1502 1.399 . S
C1501 C1506 1.399 . S
C1502 C1501 1.399 . S
C1502 C1503 1.376 . S
C1503 H1490 0.930 . S
C1503 C1502 1.376 . S
C1503 C1504 1.388 . S
C1504 H1491 0.930 . S
C1504 C1503 1.388 . S
C1504 C1505 1.390 . S
C1505 C1504 1.390 . S
C1505 C1506 1.394 . S
C1505 C1511 1.465 . S
C1506 C1501 1.399 . S
C1506 C1505 1.394 . S
C1506 C1507 1.516 . S
C1507 C1506 1.516 . S
C1507 C1508 1.502 . S
C1507 C1509 1.561 . S
C1507 C1510 1.526 . S
C1508 H1492 0.959 . S
C1508 H1493 0.959 . S
C1508 H1494 0.961 . S
C1508 C1507 1.502 . S
C1509 H1495 0.960 . S
C1509 H1496 0.961 . S
C1509 H1497 0.959 . S
C1509 C1507 1.561 . S
C1510 C1507 1.526 . S
C1510 C1511 1.396 . S
C1510 C1515 1.390 . S
C1511 C1505 1.465 . S
C1511 C1510 1.396 . S
C1511 C1512 1.399 . S
C1512 H1498 0.929 . S
C1512 C1511 1.399 . S
C1512 C1513 1.385 . S
C1513 H1499 0.931 . S
C1513 C1512 1.385 . S
C1513 C1514 1.389 . S
C1514 C1513 1.389 . S
C1514 C1515 1.387 . S
C1515 H1500 0.930 . S
C1515 C1510 1.390 . S
C1515 C1514 1.387 . S
H1516 C1528 0.930 . S
H1517 C1530 0.930 . S
H1518 C1531 0.930 . S
H1519 C1535 0.959 . S
H1520 C1535 0.959 . S
H1521 C1535 0.961 . S
H1522 C1536 0.960 . S
H1523 C1536 0.961 . S
H1524 C1536 0.959 . S
H1525 C1539 0.929 . S
H1526 C1540 0.931 . S
H1527 C1542 0.930 . S
C1528 H1516 0.930 . S
C1528 C1529 1.399 . S
C1528 C1533 1.399 . S
C1529 C1528 1.399 . S
C1529 C1530 1.376 . S
C1530 H1517 0.930 . S
C1530 C1529 1.376 . S
C1530 C1531 1.388 . S
C1531 H1518 0.930 . S
C1531 C1530 1.388 . S
C1531 C1532 1.390 . S
C1532 C1531 1.390 . S
C1532 C1533 1.394 . S
C1532 C1538 1.465 . S
C1533 C1528 1.399 . S
C1533 C1532 1.394 . S
C1533 C1534 1.516 . S
C1534 C1533 1.516 . S
C1534 C1535 1.502 . S
C1534 C1536 1.561 . S
C1534 C1537 1.526 . S
C1535 H1519 0.959 . S
C1535 H1520 0.959 . S
C1535 H1521 0.961 . S
C1535 C1534 1.502 . S
C1536 H1522 0.960 . S
C1536 H1523 0.961 . S
C1536 H1524 0.959 . S
C1536 C1534 1.561 . S
C1537 C1534 1.526 . S
C1537 C1538 1.396 . S
C1537 C1542 1.390 . S
C1538 C1532 1.465 . S
C1538 C1537 1.396 . S
C1538 C1539 1.399 . S
C1539 H1525 0.929 . S
C1539 C1538 1.399 . S
C1539 C1540 1.385 . S
C1540 H1526 0.931 . S
C1540 C1539 1.385 . S
C1540 C1541 1.389 . S
C1541 C1540 1.389 . S
C1541 C1542 1.387 . S
C1542 H1527 0.930 . S
C1542 C1537 1.390 . S
C1542 C1541 1.387 . S
H1543 C1555 0.930 . S
H1544 C1557 0.930 . S
H1545 C1558 0.930 . S
H1546 C1562 0.959 . S
H1547 C1562 0.959 . S
H1548 C1562 0.961 . S
H1549 C1563 0.960 . S
H1550 C1563 0.961 . S
H1551 C1563 0.959 . S
H1552 C1566 0.929 . S
H1553 C1567 0.931 . S
H1554 C1569 0.930 . S
C1555 H1543 0.930 . S
C1555 C1556 1.399 . S
C1555 C1560 1.399 . S
C1556 C1555 1.399 . S
C1556 C1557 1.376 . S
C1557 H1544 0.930 . S
C1557 C1556 1.376 . S
C1557 C1558 1.388 . S
C1558 H1545 0.930 . S
C1558 C1557 1.388 . S
C1558 C1559 1.390 . S
C1559 C1558 1.390 . S
C1559 C1560 1.394 . S
C1559 C1565 1.465 . S
C1560 C1555 1.399 . S
C1560 C1559 1.394 . S
C1560 C1561 1.516 . S
C1561 C1560 1.516 . S
C1561 C1562 1.502 . S
C1561 C1563 1.561 . S
C1561 C1564 1.526 . S
C1562 H1546 0.959 . S
C1562 H1547 0.959 . S
C1562 H1548 0.961 . S
C1562 C1561 1.502 . S
C1563 H1549 0.960 . S
C1563 H1550 0.961 . S
C1563 H1551 0.959 . S
C1563 C1561 1.561 . S
C1564 C1561 1.526 . S
C1564 C1565 1.396 . S
C1564 C1569 1.390 . S
C1565 C1559 1.465 . S
C1565 C1564 1.396 . S
C1565 C1566 1.399 . S
C1566 H1552 0.929 . S
C1566 C1565 1.399 . S
C1566 C1567 1.385 . S
C1567 H1553 0.931 . S
C1567 C1566 1.385 . S
C1567 C1568 1.389 . S
C1568 C1567 1.389 . S
C1568 C1569 1.387 . S
C1569 H1554 0.930 . S
C1569 C1564 1.390 . S
C1569 C1568 1.387 . S
H1570 C1582 0.930 . S
H1571 C1584 0.930 . S
H1572 C1585 0.930 . S
H1573 C1589 0.959 . S
H1574 C1589 0.959 . S
H1575 C1589 0.961 . S
H1576 C1590 0.960 . S
H1577 C1590 0.961 . S
H1578 C1590 0.959 . S
H1579 C1593 0.929 . S
H1580 C1594 0.931 . S
H1581 C1596 0.930 . S
C1582 H1570 0.930 . S
C1582 C1583 1.399 . S
C1582 C1587 1.399 . S
C1583 C1582 1.399 . S
C1583 C1584 1.376 . S
C1584 H1571 0.930 . S
C1584 C1583 1.376 . S
C1584 C1585 1.388 . S
C1585 H1572 0.930 . S
C1585 C1584 1.388 . S
C1585 C1586 1.390 . S
C1586 C1585 1.390 . S
C1586 C1587 1.394 . S
C1586 C1592 1.465 . S
C1587 C1582 1.399 . S
C1587 C1586 1.394 . S
C1587 C1588 1.516 . S
C1588 C1587 1.516 . S
C1588 C1589 1.502 . S
C1588 C1590 1.561 . S
C1588 C1591 1.526 . S
C1589 H1573 0.959 . S
C1589 H1574 0.959 . S
C1589 H1575 0.961 . S
C1589 C1588 1.502 . S
C1590 H1576 0.960 . S
C1590 H1577 0.961 . S
C1590 H1578 0.959 . S
C1590 C1588 1.561 . S
C1591 C1588 1.526 . S
C1591 C1592 1.396 . S
C1591 C1596 1.390 . S
C1592 C1586 1.465 . S
C1592 C1591 1.396 . S
C1592 C1593 1.399 . S
C1593 H1579 0.929 . S
C1593 C1592 1.399 . S
C1593 C1594 1.385 . S
C1594 H1580 0.931 . S
C1594 C1593 1.385 . S
C1594 C1595 1.389 . S
C1595 C1594 1.389 . S
C1595 C1596 1.387 . S
C1596 H1581 0.930 . S
C1596 C1591 1.390 . S
C1596 C1595 1.387 . S
H1597 C1609 0.930 . S
H1598 C1611 0.930 . S
H1599 C1612 0.930 . S
H1600 C1616 0.959 . S
H1601 C1616 0.959 . S
H1602 C1616 0.961 . S
H1603 C1617 0.960 . S
H1604 C1617 0.961 . S
H1605 C1617 0.959 . S
H1606 C1620 0.929 . S
H1607 C1621 0.931 . S
H1608 C1623 0.930 . S
C1609 H1597 0.930 . S
C1609 C1610 1.399 . S
C1609 C1614 1.399 . S
C1610 C1609 1.399 . S
C1610 C1611 1.376 . S
C1611 H1598 0.930 . S
C1611 C1610 1.376 . S
C1611 C1612 1.388 . S
C1612 H1599 0.930 . S
C1612 C1611 1.388 . S
C1612 C1613 1.390 . S
C1613 C1612 1.390 . S
C1613 C1614 1.394 . S
C1613 C1619 1.465 . S
C1614 C1609 1.399 . S
C1614 C1613 1.394 . S
C1614 C1615 1.516 . S
C1615 C1614 1.516 . S
C1615 C1616 1.502 . S
C1615 C1617 1.561 . S
C1615 C1618 1.526 . S
C1616 H1600 0.959 . S
C1616 H1601 0.959 . S
C1616 H1602 0.961 . S
C1616 C1615 1.502 . S
C1617 H1603 0.960 . S
C1617 H1604 0.961 . S
C1617 H1605 0.959 . S
C1617 C1615 1.561 . S
C1618 C1615 1.526 . S
C1618 C1619 1.396 . S
C1618 C1623 1.390 . S
C1619 C1613 1.465 . S
C1619 C1618 1.396 . S
C1619 C1620 1.399 . S
C1620 H1606 0.929 . S
C1620 C1619 1.399 . S
C1620 C1621 1.385 . S
C1621 H1607 0.931 . S
C1621 C1620 1.385 . S
C1621 C1622 1.389 . S
C1622 C1621 1.389 . S
C1622 C1623 1.387 . S
C1623 H1608 0.930 . S
C1623 C1618 1.390 . S
C1623 C1622 1.387 . S
H1624 C1636 0.930 . S
H1625 C1638 0.930 . S
H1626 C1639 0.930 . S
H1627 C1643 0.959 . S
H1628 C1643 0.959 . S
H1629 C1643 0.961 . S
H1630 C1644 0.960 . S
H1631 C1644 0.961 . S
H1632 C1644 0.959 . S
H1633 C1647 0.929 . S
H1634 C1648 0.931 . S
H1635 C1650 0.930 . S
C1636 H1624 0.930 . S
C1636 C1637 1.399 . S
C1636 C1641 1.399 . S
C1637 C1636 1.399 . S
C1637 C1638 1.376 . S
C1638 H1625 0.930 . S
C1638 C1637 1.376 . S
C1638 C1639 1.388 . S
C1639 H1626 0.930 . S
C1639 C1638 1.388 . S
C1639 C1640 1.390 . S
C1640 C1639 1.390 . S
C1640 C1641 1.394 . S
C1640 C1646 1.465 . S
C1641 C1636 1.399 . S
C1641 C1640 1.394 . S
C1641 C1642 1.516 . S
C1642 C1641 1.516 . S
C1642 C1643 1.502 . S
C1642 C1644 1.561 . S
C1642 C1645 1.526 . S
C1643 H1627 0.959 . S
C1643 H1628 0.959 . S
C1643 H1629 0.961 . S
C1643 C1642 1.502 . S
C1644 H1630 0.960 . S
C1644 H1631 0.961 . S
C1644 H1632 0.959 . S
C1644 C1642 1.561 . S
C1645 C1642 1.526 . S
C1645 C1646 1.396 . S
C1645 C1650 1.390 . S
C1646 C1640 1.465 . S
C1646 C1645 1.396 . S
C1646 C1647 1.399 . S
C1647 H1633 0.929 . S
C1647 C1646 1.399 . S
C1647 C1648 1.385 . S
C1648 H1634 0.931 . S
C1648 C1647 1.385 . S
C1648 C1649 1.389 . S
C1649 C1648 1.389 . S
C1649 C1650 1.387 . S
C1650 H1635 0.930 . S
C1650 C1645 1.390 . S
C1650 C1649 1.387 . S
H1651 C1663 0.930 . S
H1652 C1665 0.930 . S
H1653 C1666 0.930 . S
H1654 C1670 0.959 . S
H1655 C1670 0.959 . S
H1656 C1670 0.961 . S
H1657 C1671 0.960 . S
H1658 C1671 0.961 . S
H1659 C1671 0.959 . S
H1660 C1674 0.929 . S
H1661 C1675 0.931 . S
H1662 C1677 0.930 . S
C1663 H1651 0.930 . S
C1663 C1664 1.399 . S
C1663 C1668 1.399 . S
C1664 C1663 1.399 . S
C1664 C1665 1.376 . S
C1665 H1652 0.930 . S
C1665 C1664 1.376 . S
C1665 C1666 1.388 . S
C1666 H1653 0.930 . S
C1666 C1665 1.388 . S
C1666 C1667 1.390 . S
C1667 C1666 1.390 . S
C1667 C1668 1.394 . S
C1667 C1673 1.465 . S
C1668 C1663 1.399 . S
C1668 C1667 1.394 . S
C1668 C1669 1.516 . S
C1669 C1668 1.516 . S
C1669 C1670 1.502 . S
C1669 C1671 1.561 . S
C1669 C1672 1.526 . S
C1670 H1654 0.959 . S
C1670 H1655 0.959 . S
C1670 H1656 0.961 . S
C1670 C1669 1.502 . S
C1671 H1657 0.960 . S
C1671 H1658 0.961 . S
C1671 H1659 0.959 . S
C1671 C1669 1.561 . S
C1672 C1669 1.526 . S
C1672 C1673 1.396 . S
C1672 C1677 1.390 . S
C1673 C1667 1.465 . S
C1673 C1672 1.396 . S
C1673 C1674 1.399 . S
C1674 H1660 0.929 . S
C1674 C1673 1.399 . S
C1674 C1675 1.385 . S
C1675 H1661 0.931 . S
C1675 C1674 1.385 . S
C1675 C1676 1.389 . S
C1676 C1675 1.389 . S
C1676 C1677 1.387 . S
C1677 H1662 0.930 . S
C1677 C1672 1.390 . S
C1677 C1676 1.387 . S
H1678 C1690 0.930 . S
H1679 C1692 0.930 . S
H1680 C1693 0.930 . S
H1681 C1697 0.959 . S
H1682 C1697 0.959 . S
H1683 C1697 0.961 . S
H1684 C1698 0.960 . S
H1685 C1698 0.961 . S
H1686 C1698 0.959 . S
H1687 C1701 0.929 . S
H1688 C1702 0.931 . S
H1689 C1704 0.930 . S
C1690 H1678 0.930 . S
C1690 C1691 1.399 . S
C1690 C1695 1.399 . S
C1691 C1690 1.399 . S
C1691 C1692 1.376 . S
C1692 H1679 0.930 . S
C1692 C1691 1.376 . S
C1692 C1693 1.388 . S
C1693 H1680 0.930 . S
C1693 C1692 1.388 . S
C1693 C1694 1.390 . S
C1694 C1693 1.390 . S
C1694 C1695 1.394 . S
C1694 C1700 1.465 . S
C1695 C1690 1.399 . S
C1695 C1694 1.394 . S
C1695 C1696 1.516 . S
C1696 C1695 1.516 . S
C1696 C1697 1.502 . S
C1696 C1698 1.561 . S
C1696 C1699 1.526 . S
C1697 H1681 0.959 . S
C1697 H1682 0.959 . S
C1697 H1683 0.961 . S
C1697 C1696 1.502 . S
C1698 H1684 0.960 . S
C1698 H1685 0.961 . S
C1698 H1686 0.959 . S
C1698 C1696 1.561 . S
C1699 C1696 1.526 . S
C1699 C1700 1.396 . S
C1699 C1704 1.390 . S
C1700 C1694 1.465 . S
C1700 C1699 1.396 . S
C1700 C1701 1.399 . S
C1701 H1687 0.929 . S
C1701 C1700 1.399 . S
C1701 C1702 1.385 . S
C1702 H1688 0.931 . S
C1702 C1701 1.385 . S
C1702 C1703 1.389 . S
C1703 C1702 1.389 . S
C1703 C1704 1.387 . S
C1704 H1689 0.930 . S
C1704 C1699 1.390 . S
C1704 C1703 1.387 . S
H1705 C1717 0.930 . S
H1706 C1719 0.930 . S
H1707 C1720 0.930 . S
H1708 C1724 0.959 . S
H1709 C1724 0.959 . S
H1710 C1724 0.961 . S
H1711 C1725 0.960 . S
H1712 C1725 0.961 . S
H1713 C1725 0.959 . S
H1714 C1728 0.929 . S
H1715 C1729 0.931 . S
H1716 C1731 0.930 . S
C1717 H1705 0.930 . S
C1717 C1718 1.399 . S
C1717 C1722 1.399 . S
C1718 C1717 1.399 . S
C1718 C1719 1.376 . S
C1719 H1706 0.930 . S
C1719 C1718 1.376 . S
C1719 C1720 1.388 . S
C1720 H1707 0.930 . S
C1720 C1719 1.388 . S
C1720 C1721 1.390 . S
C1721 C1720 1.390 . S
C1721 C1722 1.394 . S
C1721 C1727 1.465 . S
C1722 C1717 1.399 . S
C1722 C1721 1.394 . S
C1722 C1723 1.516 . S
C1723 C1722 1.516 . S
C1723 C1724 1.502 . S
C1723 C1725 1.561 . S
C1723 C1726 1.526 . S
C1724 H1708 0.959 . S
C1724 H1709 0.959 . S
C1724 H1710 0.961 . S
C1724 C1723 1.502 . S
C1725 H1711 0.960 . S
C1725 H1712 0.961 . S
C1725 H1713 0.959 . S
C1725 C1723 1.561 . S
C1726 C1723 1.526 . S
C1726 C1727 1.396 . S
C1726 C1731 1.390 . S
C1727 C1721 1.465 . S
C1727 C1726 1.396 . S
C1727 C1728 1.399 . S
C1728 H1714 0.929 . S
C1728 C1727 1.399 . S
C1728 C1729 1.385 . S
C1729 H1715 0.931 . S
C1729 C1728 1.385 . S
C1729 C1730 1.389 . S
C1730 C1729 1.389 . S
C1730 C1731 1.387 . S
C1731 H1716 0.930 . S
C1731 C1726 1.390 . S
C1731 C1730 1.387 . S
H1732 C1744 0.930 . S
H1733 C1746 0.930 . S
H1734 C1747 0.930 . S
H1735 C1751 0.959 . S
H1736 C1751 0.959 . S
H1737 C1751 0.961 . S
H1738 C1752 0.960 . S
H1739 C1752 0.961 . S
H1740 C1752 0.959 . S
H1741 C1755 0.929 . S
H1742 C1756 0.931 . S
H1743 C1758 0.930 1_655 S
C1744 H1732 0.930 . S
C1744 C1745 1.399 . S
C1744 C1749 1.399 . S
C1745 C1744 1.399 . S
C1745 C1746 1.376 . S
C1746 H1733 0.930 . S
C1746 C1745 1.376 . S
C1746 C1747 1.388 . S
C1747 H1734 0.930 . S
C1747 C1746 1.388 . S
C1747 C1748 1.390 . S
C1748 C1747 1.390 . S
C1748 C1749 1.394 . S
C1748 C1754 1.465 . S
C1749 C1744 1.399 . S
C1749 C1748 1.394 . S
C1749 C1750 1.516 . S
C1750 C1749 1.516 . S
C1750 C1751 1.502 1_455 S
C1750 C1752 1.561 . S
C1750 C1753 1.526 . S
C1751 H1735 0.959 . S
C1751 H1736 0.959 . S
C1751 H1737 0.961 . S
C1751 C1750 1.502 1_655 S
C1752 H1738 0.960 . S
C1752 H1739 0.961 . S
C1752 H1740 0.959 . S
C1752 C1750 1.561 . S
C1753 C1750 1.526 . S
C1753 C1754 1.396 . S
C1753 C1758 1.390 . S
C1754 C1748 1.465 . S
C1754 C1753 1.396 . S
C1754 C1755 1.399 . S
C1755 H1741 0.929 . S
C1755 C1754 1.399 . S
C1755 C1756 1.385 . S
C1756 H1742 0.931 . S
C1756 C1755 1.385 . S
C1756 C1757 1.389 . S
C1757 C1756 1.389 . S
C1757 C1758 1.387 . S
C1758 H1743 0.930 1_455 S
C1758 C1753 1.390 . S
C1758 C1757 1.387 . S
H1759 C1771 0.930 . S
H1760 C1773 0.930 . S
H1761 C1774 0.930 . S
H1762 C1778 0.959 . S
H1763 C1778 0.959 . S
H1764 C1778 0.961 . S
H1765 C1779 0.960 . S
H1766 C1779 0.961 . S
H1767 C1779 0.959 . S
H1768 C1782 0.929 . S
H1769 C1783 0.931 . S
H1770 C1785 0.930 . S
C1771 H1759 0.930 . S
C1771 C1772 1.399 . S
C1771 C1776 1.399 . S
C1772 C1771 1.399 . S
C1772 C1773 1.376 . S
C1773 H1760 0.930 . S
C1773 C1772 1.376 . S
C1773 C1774 1.388 . S
C1774 H1761 0.930 . S
C1774 C1773 1.388 . S
C1774 C1775 1.390 . S
C1775 C1774 1.390 . S
C1775 C1776 1.394 . S
C1775 C1781 1.465 . S
C1776 C1771 1.399 . S
C1776 C1775 1.394 . S
C1776 C1777 1.516 . S
C1777 C1776 1.516 . S
C1777 C1778 1.502 . S
C1777 C1779 1.561 . S
C1777 C1780 1.526 . S
C1778 H1762 0.959 . S
C1778 H1763 0.959 . S
C1778 H1764 0.961 . S
C1778 C1777 1.502 . S
C1779 H1765 0.960 . S
C1779 H1766 0.961 . S
C1779 H1767 0.959 . S
C1779 C1777 1.561 . S
C1780 C1777 1.526 . S
C1780 C1781 1.396 . S
C1780 C1785 1.390 . S
C1781 C1775 1.465 . S
C1781 C1780 1.396 . S
C1781 C1782 1.399 . S
C1782 H1768 0.929 . S
C1782 C1781 1.399 . S
C1782 C1783 1.385 . S
C1783 H1769 0.931 . S
C1783 C1782 1.385 . S
C1783 C1784 1.389 . S
C1784 C1783 1.389 . S
C1784 C1785 1.387 . S
C1785 H1770 0.930 . S
C1785 C1780 1.390 . S
C1785 C1784 1.387 . S
H1786 C1798 0.930 . S
H1787 C1800 0.930 . S
H1788 C1801 0.930 . S
H1789 C1805 0.959 . S
H1790 C1805 0.959 . S
H1791 C1805 0.961 . S
H1792 C1806 0.960 . S
H1793 C1806 0.961 . S
H1794 C1806 0.959 . S
H1795 C1809 0.929 . S
H1796 C1810 0.931 . S
H1797 C1812 0.930 . S
C1798 H1786 0.930 . S
C1798 C1799 1.399 1_554 S
C1798 C1803 1.399 . S
C1799 C1798 1.399 1_556 S
C1799 C1800 1.376 . S
C1800 H1787 0.930 . S
C1800 C1799 1.376 . S
C1800 C1801 1.388 . S
C1801 H1788 0.930 . S
C1801 C1800 1.388 . S
C1801 C1802 1.390 . S
C1802 C1801 1.390 . S
C1802 C1803 1.394 1_556 S
C1802 C1808 1.465 1_556 S
C1803 C1798 1.399 . S
C1803 C1802 1.394 1_554 S
C1803 C1804 1.516 . S
C1804 C1803 1.516 . S
C1804 C1805 1.502 . S
C1804 C1806 1.561 . S
C1804 C1807 1.526 . S
C1805 H1789 0.959 . S
C1805 H1790 0.959 . S
C1805 H1791 0.961 . S
C1805 C1804 1.502 . S
C1806 H1792 0.960 . S
C1806 H1793 0.961 . S
C1806 H1794 0.959 . S
C1806 C1804 1.561 . S
C1807 C1804 1.526 . S
C1807 C1808 1.396 . S
C1807 C1812 1.390 . S
C1808 C1802 1.465 1_554 S
C1808 C1807 1.396 . S
C1808 C1809 1.399 1_554 S
C1809 H1795 0.929 . S
C1809 C1808 1.399 1_556 S
C1809 C1810 1.385 1_556 S
C1810 H1796 0.931 . S
C1810 C1809 1.385 1_554 S
C1810 C1811 1.389 . S
C1811 C1810 1.389 . S
C1811 C1812 1.387 . S
C1812 H1797 0.930 . S
C1812 C1807 1.390 . S
C1812 C1811 1.387 . S
H1813 C1825 0.930 . S
H1814 C1827 0.930 . S
H1815 C1828 0.930 . S
H1816 C1832 0.959 . S
H1817 C1832 0.959 . S
H1818 C1832 0.961 . S
H1819 C1833 0.960 . S
H1820 C1833 0.961 . S
H1821 C1833 0.959 . S
H1822 C1836 0.929 . S
H1823 C1837 0.931 . S
H1824 C1839 0.930 . S
C1825 H1813 0.930 . S
C1825 C1826 1.399 . S
C1825 C1830 1.399 . S
C1826 C1825 1.399 . S
C1826 C1827 1.376 . S
C1827 H1814 0.930 . S
C1827 C1826 1.376 . S
C1827 C1828 1.388 . S
C1828 H1815 0.930 . S
C1828 C1827 1.388 . S
C1828 C1829 1.390 . S
C1829 C1828 1.390 . S
C1829 C1830 1.394 . S
C1829 C1835 1.465 . S
C1830 C1825 1.399 . S
C1830 C1829 1.394 . S
C1830 C1831 1.516 . S
C1831 C1830 1.516 . S
C1831 C1832 1.502 . S
C1831 C1833 1.561 . S
C1831 C1834 1.526 . S
C1832 H1816 0.959 . S
C1832 H1817 0.959 . S
C1832 H1818 0.961 . S
C1832 C1831 1.502 . S
C1833 H1819 0.960 . S
C1833 H1820 0.961 . S
C1833 H1821 0.959 . S
C1833 C1831 1.561 . S
C1834 C1831 1.526 . S
C1834 C1835 1.396 . S
C1834 C1839 1.390 . S
C1835 C1829 1.465 . S
C1835 C1834 1.396 . S
C1835 C1836 1.399 . S
C1836 H1822 0.929 . S
C1836 C1835 1.399 . S
C1836 C1837 1.385 . S
C1837 H1823 0.931 . S
C1837 C1836 1.385 . S
C1837 C1838 1.389 . S
C1838 C1837 1.389 . S
C1838 C1839 1.387 . S
C1839 H1824 0.930 . S
C1839 C1834 1.390 . S
C1839 C1838 1.387 . S
H1840 C1852 0.930 . S
H1841 C1854 0.930 . S
H1842 C1855 0.930 . S
H1843 C1859 0.959 1_565 S
H1844 C1859 0.959 . S
H1845 C1859 0.961 . S
H1846 C1860 0.960 . S
H1847 C1860 0.961 . S
H1848 C1860 0.959 . S
H1849 C1863 0.929 . S
H1850 C1864 0.931 . S
H1851 C1866 0.930 . S
C1852 H1840 0.930 . S
C1852 C1853 1.399 . S
C1852 C1857 1.399 . S
C1853 C1852 1.399 . S
C1853 C1854 1.376 1_545 S
C1854 H1841 0.930 . S
C1854 C1853 1.376 1_565 S
C1854 C1855 1.388 . S
C1855 H1842 0.930 . S
C1855 C1854 1.388 . S
C1855 C1856 1.390 1_565 S
C1856 C1855 1.390 1_545 S
C1856 C1857 1.394 . S
C1856 C1862 1.461 1_545 S
C1857 C1852 1.399 . S
C1857 C1856 1.394 . S
C1857 C1858 1.516 . S
C1858 C1857 1.516 . S
C1858 C1859 1.502 . S
C1858 C1860 1.561 . S
C1858 C1861 1.526 . S
C1859 H1843 0.959 1_545 S
C1859 H1844 0.959 . S
C1859 H1845 0.961 . S
C1859 C1858 1.502 . S
C1860 H1846 0.960 . S
C1860 H1847 0.961 . S
C1860 H1848 0.959 . S
C1860 C1858 1.561 . S
C1861 C1858 1.526 . S
C1861 C1862 1.388 1_545 S
C1861 C1866 1.390 . S
C1862 C1856 1.461 1_565 S
C1862 C1861 1.388 1_565 S
C1862 C1863 1.410 . S
C1863 H1849 0.929 . S
C1863 C1862 1.410 . S
C1863 C1864 1.385 . S
C1864 H1850 0.931 . S
C1864 C1863 1.385 . S
C1864 C1865 1.389 1_565 S
C1865 C1864 1.389 1_545 S
C1865 C1866 1.387 . S
C1866 H1851 0.930 . S
C1866 C1861 1.390 . S
C1866 C1865 1.387 . S
H1867 C1879 0.930 . S
H1868 C1881 0.930 . S
H1869 C1882 0.930 . S
H1870 C1886 0.959 . S
H1871 C1886 0.959 . S
H1872 C1886 0.961 . S
H1873 C1887 0.960 . S
H1874 C1887 0.961 . S
H1875 C1887 0.959 . S
H1876 C1890 0.929 . S
H1877 C1891 0.931 . S
H1878 C1893 0.930 . S
C1879 H1867 0.930 . S
C1879 C1880 1.399 . S
C1879 C1884 1.399 . S
C1880 C1879 1.399 . S
C1880 C1881 1.376 . S
C1881 H1868 0.930 . S
C1881 C1880 1.376 . S
C1881 C1882 1.388 . S
C1882 H1869 0.930 . S
C1882 C1881 1.388 . S
C1882 C1883 1.390 . S
C1883 C1882 1.390 . S
C1883 C1884 1.394 . S
C1883 C1889 1.465 . S
C1884 C1879 1.399 . S
C1884 C1883 1.394 . S
C1884 C1885 1.516 . S
C1885 C1884 1.516 . S
C1885 C1886 1.502 . S
C1885 C1887 1.561 . S
C1885 C1888 1.526 . S
C1886 H1870 0.959 . S
C1886 H1871 0.959 . S
C1886 H1872 0.961 . S
C1886 C1885 1.502 . S
C1887 H1873 0.960 . S
C1887 H1874 0.961 . S
C1887 H1875 0.959 . S
C1887 C1885 1.561 . S
C1888 C1885 1.526 . S
C1888 C1889 1.396 . S
C1888 C1893 1.390 . S
C1889 C1883 1.465 . S
C1889 C1888 1.396 . S
C1889 C1890 1.399 . S
C1890 H1876 0.929 . S
C1890 C1889 1.399 . S
C1890 C1891 1.385 . S
C1891 H1877 0.931 . S
C1891 C1890 1.385 . S
C1891 C1892 1.389 . S
C1892 C1891 1.389 . S
C1892 C1893 1.387 . S
C1893 H1878 0.930 . S
C1893 C1888 1.390 . S
C1893 C1892 1.387 . S
H1894 C1906 0.930 . S
H1895 C1908 0.930 . S
H1896 C1909 0.930 1_565 S
H1897 C1913 0.959 . S
H1898 C1913 0.959 . S
H1899 C1913 0.961 . S
H1900 C1914 0.960 . S
H1901 C1914 0.961 . S
H1902 C1914 0.959 . S
H1903 C1917 0.916 1_565 S
H1904 C1918 0.931 1_565 S
H1905 C1920 0.930 . S
C1906 H1894 0.930 . S
C1906 C1907 1.399 . S
C1906 C1911 1.399 . S
C1907 C1906 1.399 . S
C1907 C1908 1.376 . S
C1908 H1895 0.930 . S
C1908 C1907 1.376 . S
C1908 C1909 1.388 . S
C1909 H1896 0.930 1_545 S
C1909 C1908 1.388 . S
C1909 C1910 1.390 . S
C1910 C1909 1.390 . S
C1910 C1911 1.394 . S
C1910 C1916 1.465 . S
C1911 C1906 1.399 . S
C1911 C1910 1.394 . S
C1911 C1912 1.516 . S
C1912 C1911 1.516 . S
C1912 C1913 1.502 . S
C1912 C1914 1.561 . S
C1912 C1915 1.526 . S
C1913 H1897 0.959 . S
C1913 H1898 0.959 . S
C1913 H1899 0.961 . S
C1913 C1912 1.502 . S
C1914 H1900 0.960 . S
C1914 H1901 0.961 . S
C1914 H1902 0.959 . S
C1914 C1912 1.561 . S
C1915 C1912 1.526 . S
C1915 C1916 1.396 . S
C1915 C1920 1.390 . S
C1916 C1910 1.465 . S
C1916 C1915 1.396 . S
C1916 C1917 1.418 . S
C1917 H1903 0.916 1_545 S
C1917 C1916 1.418 . S
C1917 C1918 1.380 . S
C1918 H1904 0.931 1_545 S
C1918 C1917 1.380 . S
C1918 C1919 1.389 . S
C1919 C1918 1.389 . S
C1919 C1920 1.387 . S
C1920 H1905 0.930 . S
C1920 C1915 1.390 . S
C1920 C1919 1.387 . S
H1921 C1933 0.930 . S
H1922 C1935 0.930 . S
H1923 C1936 0.930 . S
H1924 C1940 0.959 . S
H1925 C1940 0.959 . S
H1926 C1940 0.961 . S
H1927 C1941 0.960 . S
H1928 C1941 0.961 . S
H1929 C1941 0.959 . S
H1930 C1944 0.929 . S
H1931 C1945 0.931 . S
H1932 C1947 0.930 . S
C1933 H1921 0.930 . S
C1933 C1934 1.399 . S
C1933 C1938 1.399 . S
C1934 C1933 1.399 . S
C1934 C1935 1.376 . S
C1935 H1922 0.930 . S
C1935 C1934 1.376 . S
C1935 C1936 1.388 . S
C1936 H1923 0.930 . S
C1936 C1935 1.388 . S
C1936 C1937 1.390 . S
C1937 C1936 1.390 . S
C1937 C1938 1.394 . S
C1937 C1943 1.465 . S
C1938 C1933 1.399 . S
C1938 C1937 1.394 . S
C1938 C1939 1.516 . S
C1939 C1938 1.516 . S
C1939 C1940 1.502 . S
C1939 C1941 1.561 . S
C1939 C1942 1.526 . S
C1940 H1924 0.959 . S
C1940 H1925 0.959 . S
C1940 H1926 0.961 . S
C1940 C1939 1.502 . S
C1941 H1927 0.960 . S
C1941 H1928 0.961 . S
C1941 H1929 0.959 . S
C1941 C1939 1.561 . S
C1942 C1939 1.526 . S
C1942 C1943 1.396 . S
C1942 C1947 1.390 . S
C1943 C1937 1.465 . S
C1943 C1942 1.396 . S
C1943 C1944 1.399 . S
C1944 H1930 0.929 . S
C1944 C1943 1.399 . S
C1944 C1945 1.385 . S
C1945 H1931 0.931 . S
C1945 C1944 1.385 . S
C1945 C1946 1.389 . S
C1946 C1945 1.389 . S
C1946 C1947 1.387 . S
C1947 H1932 0.930 . S
C1947 C1942 1.390 . S
C1947 C1946 1.387 . S
H1948 C1960 0.930 . S
H1949 C1962 0.930 . S
H1950 C1963 0.930 . S
H1951 C1967 0.959 . S
H1952 C1967 0.959 . S
H1953 C1967 0.961 . S
H1954 C1968 0.960 . S
H1955 C1968 0.961 . S
H1956 C1968 0.959 . S
H1957 C1971 0.929 . S
H1958 C1972 0.931 . S
H1959 C1974 0.930 . S
C1960 H1948 0.930 . S
C1960 C1961 1.399 . S
C1960 C1965 1.399 . S
C1961 C1960 1.399 . S
C1961 C1962 1.376 1_565 S
C1962 H1949 0.930 . S
C1962 C1961 1.376 1_545 S
C1962 C1963 1.388 . S
C1963 H1950 0.930 . S
C1963 C1962 1.388 . S
C1963 C1964 1.390 . S
C1964 C1963 1.390 . S
C1964 C1965 1.394 1_545 S
C1964 C1970 1.465 . S
C1965 C1960 1.399 . S
C1965 C1964 1.394 1_565 S
C1965 C1966 1.516 . S
C1966 C1965 1.516 . S
C1966 C1967 1.502 . S
C1966 C1968 1.561 . S
C1966 C1969 1.526 . S
C1967 H1951 0.959 . S
C1967 H1952 0.959 . S
C1967 H1953 0.961 . S
C1967 C1966 1.502 . S
C1968 H1954 0.960 . S
C1968 H1955 0.961 . S
C1968 H1956 0.959 . S
C1968 C1966 1.561 . S
C1969 C1966 1.526 . S
C1969 C1970 1.396 1_565 S
C1969 C1974 1.390 . S
C1970 C1964 1.465 . S
C1970 C1969 1.396 1_545 S
C1970 C1971 1.399 . S
C1971 H1957 0.929 . S
C1971 C1970 1.399 . S
C1971 C1972 1.385 . S
C1972 H1958 0.931 . S
C1972 C1971 1.385 . S
C1972 C1973 1.389 . S
C1973 C1972 1.389 . S
C1973 C1974 1.387 1_545 S
C1974 H1959 0.930 . S
C1974 C1969 1.390 . S
C1974 C1973 1.387 1_565 S
H1975 C1987 0.930 . S
H1976 C1989 0.930 . S
H1977 C1990 0.930 . S
H1978 C1994 0.959 . S
H1979 C1994 0.959 . S
H1980 C1994 0.961 . S
H1981 C1995 0.960 . S
H1982 C1995 0.961 . S
H1983 C1995 0.959 . S
H1984 C1998 0.929 . S
H1985 C1999 0.931 . S
H1986 C2001 0.930 . S
C1987 H1975 0.930 . S
C1987 C1988 1.399 . S
C1987 C1992 1.399 . S
C1988 C1987 1.399 . S
C1988 C1989 1.376 . S
C1989 H1976 0.930 . S
C1989 C1988 1.376 . S
C1989 C1990 1.388 . S
C1990 H1977 0.930 . S
C1990 C1989 1.388 . S
C1990 C1991 1.390 . S
C1991 C1990 1.390 . S
C1991 C1992 1.394 . S
C1991 C1997 1.465 . S
C1992 C1987 1.399 . S
C1992 C1991 1.394 . S
C1992 C1993 1.516 . S
C1993 C1992 1.516 . S
C1993 C1994 1.502 . S
C1993 C1995 1.561 . S
C1993 C1996 1.526 . S
C1994 H1978 0.959 . S
C1994 H1979 0.959 . S
C1994 H1980 0.961 . S
C1994 C1993 1.502 . S
C1995 H1981 0.960 . S
C1995 H1982 0.961 . S
C1995 H1983 0.959 . S
C1995 C1993 1.561 . S
C1996 C1993 1.526 . S
C1996 C1997 1.396 . S
C1996 C2001 1.390 . S
C1997 C1991 1.465 . S
C1997 C1996 1.396 . S
C1997 C1998 1.399 . S
C1998 H1984 0.929 . S
C1998 C1997 1.399 . S
C1998 C1999 1.385 . S
C1999 H1985 0.931 . S
C1999 C1998 1.385 . S
C1999 C2000 1.389 . S
C2000 C1999 1.389 . S
C2000 C2001 1.387 . S
C2001 H1986 0.930 . S
C2001 C1996 1.390 . S
C2001 C2000 1.387 . S
H2002 C2014 0.930 1_565 S
H2003 C2016 0.930 . S
H2004 C2017 0.930 . S
H2005 C2021 0.959 . S
H2006 C2021 0.959 . S
H2007 C2021 0.961 . S
H2008 C2022 0.960 . S
H2009 C2022 0.961 . S
H2010 C2022 0.959 . S
H2011 C2025 0.929 . S
H2012 C2026 0.931 . S
H2013 C2028 0.930 . S
C2014 H2002 0.930 1_545 S
C2014 C2015 1.399 . S
C2014 C2019 1.399 . S
C2015 C2014 1.399 . S
C2015 C2016 1.376 . S
C2016 H2003 0.930 . S
C2016 C2015 1.376 . S
C2016 C2017 1.388 . S
C2017 H2004 0.930 . S
C2017 C2016 1.388 . S
C2017 C2018 1.390 . S
C2018 C2017 1.390 . S
C2018 C2019 1.394 . S
C2018 C2024 1.465 . S
C2019 C2014 1.399 . S
C2019 C2018 1.394 . S
C2019 C2020 1.516 1_545 S
C2020 C2019 1.516 1_565 S
C2020 C2021 1.502 . S
C2020 C2022 1.561 . S
C2020 C2023 1.544 . S
C2021 H2005 0.959 . S
C2021 H2006 0.959 . S
C2021 H2007 0.961 . S
C2021 C2020 1.502 . S
C2022 H2008 0.960 . S
C2022 H2009 0.961 . S
C2022 H2010 0.959 . S
C2022 C2020 1.561 . S
C2023 C2020 1.544 . S
C2023 C2024 1.370 1_565 S
C2023 C2028 1.395 . S
C2024 C2018 1.465 . S
C2024 C2023 1.370 1_545 S
C2024 C2025 1.399 . S
C2025 H2011 0.929 . S
C2025 C2024 1.399 . S
C2025 C2026 1.385 . S
C2026 H2012 0.931 . S
C2026 C2025 1.385 . S
C2026 C2027 1.389 . S
C2027 C2026 1.389 . S
C2027 C2028 1.387 1_545 S
C2028 H2013 0.930 . S
C2028 C2023 1.395 . S
C2028 C2027 1.387 1_565 S
H2029 C2041 0.930 . S
H2030 C2043 0.930 . S
H2031 C2044 0.930 . S
H2032 C2048 0.959 . S
H2033 C2048 0.959 . S
H2034 C2048 0.961 . S
H2035 C2049 0.960 . S
H2036 C2049 0.961 . S
H2037 C2049 0.959 . S
H2038 C2052 0.929 . S
H2039 C2053 0.931 . S
H2040 C2055 0.930 . S
C2041 H2029 0.930 . S
C2041 C2042 1.399 . S
C2041 C2046 1.399 . S
C2042 C2041 1.399 . S
C2042 C2043 1.376 . S
C2043 H2030 0.930 . S
C2043 C2042 1.376 . S
C2043 C2044 1.388 . S
C2044 H2031 0.930 . S
C2044 C2043 1.388 . S
C2044 C2045 1.390 . S
C2045 C2044 1.390 . S
C2045 C2046 1.394 . S
C2045 C2051 1.465 . S
C2046 C2041 1.399 . S
C2046 C2045 1.394 . S
C2046 C2047 1.516 . S
C2047 C2046 1.516 . S
C2047 C2048 1.502 . S
C2047 C2049 1.561 . S
C2047 C2050 1.526 . S
C2048 H2032 0.959 . S
C2048 H2033 0.959 . S
C2048 H2034 0.961 . S
C2048 C2047 1.502 . S
C2049 H2035 0.960 . S
C2049 H2036 0.961 . S
C2049 H2037 0.959 . S
C2049 C2047 1.561 . S
C2050 C2047 1.526 . S
C2050 C2051 1.396 . S
C2050 C2055 1.390 . S
C2051 C2045 1.465 . S
C2051 C2050 1.396 . S
C2051 C2052 1.399 . S
C2052 H2038 0.929 . S
C2052 C2051 1.399 . S
C2052 C2053 1.385 . S
C2053 H2039 0.931 . S
C2053 C2052 1.385 . S
C2053 C2054 1.389 . S
C2054 C2053 1.389 . S
C2054 C2055 1.387 . S
C2055 H2040 0.930 . S
C2055 C2050 1.390 . S
C2055 C2054 1.387 . S
H2056 C2068 0.930 . S
H2057 C2070 0.930 . S
H2058 C2071 0.930 . S
H2059 C2075 0.959 . S
H2060 C2075 0.959 . S
H2061 C2075 0.961 . S
H2062 C2076 0.960 . S
H2063 C2076 0.961 . S
H2064 C2076 0.959 . S
H2065 C2079 0.929 . S
H2066 C2080 0.925 1_556 S
H2067 C2082 0.930 . S
C2068 H2056 0.930 . S
C2068 C2069 1.399 . S
C2068 C2073 1.399 . S
C2069 C2068 1.399 . S
C2069 C2070 1.376 . S
C2070 H2057 0.930 . S
C2070 C2069 1.376 . S
C2070 C2071 1.388 . S
C2071 H2058 0.930 . S
C2071 C2070 1.388 . S
C2071 C2072 1.390 . S
C2072 C2071 1.390 . S
C2072 C2073 1.394 . S
C2072 C2078 1.465 . S
C2073 C2068 1.399 . S
C2073 C2072 1.394 . S
C2073 C2074 1.516 . S
C2074 C2073 1.516 . S
C2074 C2075 1.502 . S
C2074 C2076 1.561 . S
C2074 C2077 1.526 . S
C2075 H2059 0.959 . S
C2075 H2060 0.959 . S
C2075 H2061 0.961 . S
C2075 C2074 1.502 . S
C2076 H2062 0.960 . S
C2076 H2063 0.961 . S
C2076 H2064 0.959 . S
C2076 C2074 1.561 . S
C2077 C2074 1.526 . S
C2077 C2078 1.396 . S
C2077 C2082 1.390 . S
C2078 C2072 1.465 . S
C2078 C2077 1.396 . S
C2078 C2079 1.399 . S
C2079 H2065 0.929 . S
C2079 C2078 1.399 . S
C2079 C2080 1.385 . S
C2080 H2066 0.925 1_554 S
C2080 C2079 1.385 . S
C2080 C2081 1.389 . S
C2081 C2080 1.389 . S
C2081 C2082 1.387 . S
C2082 H2067 0.930 . S
C2082 C2077 1.390 . S
C2082 C2081 1.387 . S
H2083 C2095 0.930 . S
H2084 C2097 0.930 . S
H2085 C2098 0.930 . S
H2086 C2102 0.959 . S
H2087 C2102 0.959 . S
H2088 C2102 0.961 . S
H2089 C2103 0.960 . S
H2090 C2103 0.961 . S
H2091 C2103 0.959 . S
H2092 C2106 0.929 . S
H2093 C2107 0.931 . S
H2094 C2109 0.930 . S
C2095 H2083 0.930 . S
C2095 C2096 1.399 . S
C2095 C2100 1.399 . S
C2096 C2095 1.399 . S
C2096 C2097 1.376 . S
C2097 H2084 0.930 . S
C2097 C2096 1.376 . S
C2097 C2098 1.388 . S
C2098 H2085 0.930 . S
C2098 C2097 1.388 . S
C2098 C2099 1.390 . S
C2099 C2098 1.390 . S
C2099 C2100 1.394 . S
C2099 C2105 1.465 . S
C2100 C2095 1.399 . S
C2100 C2099 1.394 . S
C2100 C2101 1.516 . S
C2101 C2100 1.516 . S
C2101 C2102 1.502 . S
C2101 C2103 1.561 . S
C2101 C2104 1.526 . S
C2102 H2086 0.959 . S
C2102 H2087 0.959 . S
C2102 H2088 0.961 . S
C2102 C2101 1.502 . S
C2103 H2089 0.960 . S
C2103 H2090 0.961 . S
C2103 H2091 0.959 . S
C2103 C2101 1.561 . S
C2104 C2101 1.526 . S
C2104 C2105 1.396 . S
C2104 C2109 1.390 . S
C2105 C2099 1.465 . S
C2105 C2104 1.396 . S
C2105 C2106 1.399 . S
C2106 H2092 0.929 . S
C2106 C2105 1.399 . S
C2106 C2107 1.385 . S
C2107 H2093 0.931 . S
C2107 C2106 1.385 . S
C2107 C2108 1.389 . S
C2108 C2107 1.389 . S
C2108 C2109 1.387 . S
C2109 H2094 0.930 . S
C2109 C2104 1.390 . S
C2109 C2108 1.387 . S
H2110 C2122 0.930 . S
H2111 C2124 0.930 . S
H2112 C2125 0.930 . S
H2113 C2129 0.959 . S
H2114 C2129 0.959 . S
H2115 C2129 0.961 . S
H2116 C2130 0.960 . S
H2117 C2130 0.961 . S
H2118 C2130 0.959 . S
H2119 C2133 0.929 . S
H2120 C2134 0.931 . S
H2121 C2136 0.930 . S
C2122 H2110 0.930 . S
C2122 C2123 1.399 . S
C2122 C2127 1.399 . S
C2123 C2122 1.399 . S
C2123 C2124 1.376 . S
C2124 H2111 0.930 . S
C2124 C2123 1.376 . S
C2124 C2125 1.388 . S
C2125 H2112 0.930 . S
C2125 C2124 1.388 . S
C2125 C2126 1.390 . S
C2126 C2125 1.390 . S
C2126 C2127 1.394 . S
C2126 C2132 1.465 . S
C2127 C2122 1.399 . S
C2127 C2126 1.394 . S
C2127 C2128 1.516 . S
C2128 C2127 1.516 . S
C2128 C2129 1.502 . S
C2128 C2130 1.561 . S
C2128 C2131 1.526 . S
C2129 H2113 0.959 . S
C2129 H2114 0.959 . S
C2129 H2115 0.961 . S
C2129 C2128 1.502 . S
C2130 H2116 0.960 . S
C2130 H2117 0.961 . S
C2130 H2118 0.959 . S
C2130 C2128 1.561 . S
C2131 C2128 1.526 . S
C2131 C2132 1.396 . S
C2131 C2136 1.390 . S
C2132 C2126 1.465 . S
C2132 C2131 1.396 . S
C2132 C2133 1.399 . S
C2133 H2119 0.929 . S
C2133 C2132 1.399 . S
C2133 C2134 1.385 . S
C2134 H2120 0.931 . S
C2134 C2133 1.385 . S
C2134 C2135 1.389 . S
C2135 C2134 1.389 . S
C2135 C2136 1.387 . S
C2136 H2121 0.930 . S
C2136 C2131 1.390 . S
C2136 C2135 1.387 . S
H2137 C2149 0.930 . S
H2138 C2151 0.930 . S
H2139 C2152 0.930 . S
H2140 C2156 0.959 . S
H2141 C2156 0.959 . S
H2142 C2156 0.961 . S
H2143 C2157 0.960 . S
H2144 C2157 0.961 . S
H2145 C2157 0.959 . S
H2146 C2160 0.929 . S
H2147 C2161 0.931 . S
H2148 C2163 0.930 . S
C2149 H2137 0.930 . S
C2149 C2150 1.399 . S
C2149 C2154 1.399 . S
C2150 C2149 1.399 . S
C2150 C2151 1.376 . S
C2151 H2138 0.930 . S
C2151 C2150 1.376 . S
C2151 C2152 1.388 . S
C2152 H2139 0.930 . S
C2152 C2151 1.388 . S
C2152 C2153 1.390 . S
C2153 C2152 1.390 . S
C2153 C2154 1.394 . S
C2153 C2159 1.465 . S
C2154 C2149 1.399 . S
C2154 C2153 1.394 . S
C2154 C2155 1.516 . S
C2155 C2154 1.516 . S
C2155 C2156 1.502 . S
C2155 C2157 1.561 . S
C2155 C2158 1.526 . S
C2156 H2140 0.959 . S
C2156 H2141 0.959 . S
C2156 H2142 0.961 . S
C2156 C2155 1.502 . S
C2157 H2143 0.960 . S
C2157 H2144 0.961 . S
C2157 H2145 0.959 . S
C2157 C2155 1.561 . S
C2158 C2155 1.526 . S
C2158 C2159 1.396 . S
C2158 C2163 1.390 . S
C2159 C2153 1.465 . S
C2159 C2158 1.396 . S
C2159 C2160 1.399 . S
C2160 H2146 0.929 . S
C2160 C2159 1.399 . S
C2160 C2161 1.385 . S
C2161 H2147 0.931 . S
C2161 C2160 1.385 . S
C2161 C2162 1.389 . S
C2162 C2161 1.389 . S
C2162 C2163 1.387 . S
C2163 H2148 0.930 . S
C2163 C2158 1.390 . S
C2163 C2162 1.387 . S
H2164 C2176 0.930 . S
H2165 C2178 0.930 . S
H2166 C2179 0.930 . S
H2167 C2183 0.959 . S
H2168 C2183 0.959 . S
H2169 C2183 0.961 . S
H2170 C2184 0.960 . S
H2171 C2184 0.961 . S
H2172 C2184 0.959 . S
H2173 C2187 0.929 . S
H2174 C2188 0.931 . S
H2175 C2190 0.930 . S
C2176 H2164 0.930 . S
C2176 C2177 1.399 . S
C2176 C2181 1.399 . S
C2177 C2176 1.399 . S
C2177 C2178 1.376 . S
C2178 H2165 0.930 . S
C2178 C2177 1.376 . S
C2178 C2179 1.388 . S
C2179 H2166 0.930 . S
C2179 C2178 1.388 . S
C2179 C2180 1.390 . S
C2180 C2179 1.390 . S
C2180 C2181 1.394 . S
C2180 C2186 1.465 . S
C2181 C2176 1.399 . S
C2181 C2180 1.394 . S
C2181 C2182 1.516 . S
C2182 C2181 1.516 . S
C2182 C2183 1.502 . S
C2182 C2184 1.561 . S
C2182 C2185 1.526 . S
C2183 H2167 0.959 . S
C2183 H2168 0.959 . S
C2183 H2169 0.961 . S
C2183 C2182 1.502 . S
C2184 H2170 0.960 . S
C2184 H2171 0.961 . S
C2184 H2172 0.959 . S
C2184 C2182 1.561 . S
C2185 C2182 1.526 . S
C2185 C2186 1.396 . S
C2185 C2190 1.390 . S
C2186 C2180 1.465 . S
C2186 C2185 1.396 . S
C2186 C2187 1.399 . S
C2187 H2173 0.929 . S
C2187 C2186 1.399 . S
C2187 C2188 1.385 . S
C2188 H2174 0.931 . S
C2188 C2187 1.385 . S
C2188 C2189 1.389 . S
C2189 C2188 1.389 . S
C2189 C2190 1.387 . S
C2190 H2175 0.930 . S
C2190 C2185 1.390 . S
C2190 C2189 1.387 . S
H2191 C2203 0.930 . S
H2192 C2205 0.930 . S
H2193 C2206 0.930 . S
H2194 C2210 0.959 . S
H2195 C2210 0.959 . S
H2196 C2210 0.961 . S
H2197 C2211 0.960 . S
H2198 C2211 0.961 . S
H2199 C2211 0.959 . S
H2200 C2214 0.929 . S
H2201 C2215 0.931 . S
H2202 C2217 0.930 . S
C2203 H2191 0.930 . S
C2203 C2204 1.399 . S
C2203 C2208 1.399 . S
C2204 C2203 1.399 . S
C2204 C2205 1.376 . S
C2205 H2192 0.930 . S
C2205 C2204 1.376 . S
C2205 C2206 1.388 . S
C2206 H2193 0.930 . S
C2206 C2205 1.388 . S
C2206 C2207 1.390 . S
C2207 C2206 1.390 . S
C2207 C2208 1.394 . S
C2207 C2213 1.465 . S
C2208 C2203 1.399 . S
C2208 C2207 1.394 . S
C2208 C2209 1.516 . S
C2209 C2208 1.516 . S
C2209 C2210 1.502 . S
C2209 C2211 1.561 . S
C2209 C2212 1.526 . S
C2210 H2194 0.959 . S
C2210 H2195 0.959 . S
C2210 H2196 0.961 . S
C2210 C2209 1.502 . S
C2211 H2197 0.960 . S
C2211 H2198 0.961 . S
C2211 H2199 0.959 . S
C2211 C2209 1.561 . S
C2212 C2209 1.526 . S
C2212 C2213 1.396 . S
C2212 C2217 1.390 . S
C2213 C2207 1.465 . S
C2213 C2212 1.396 . S
C2213 C2214 1.399 . S
C2214 H2200 0.929 . S
C2214 C2213 1.399 . S
C2214 C2215 1.385 . S
C2215 H2201 0.931 . S
C2215 C2214 1.385 . S
C2215 C2216 1.389 . S
C2216 C2215 1.389 . S
C2216 C2217 1.387 . S
C2217 H2202 0.930 . S
C2217 C2212 1.390 . S
C2217 C2216 1.387 . S
H2218 C2230 0.930 . S
H2219 C2232 0.930 . S
H2220 C2233 0.930 . S
H2221 C2237 0.959 . S
H2222 C2237 0.959 . S
H2223 C2237 0.961 . S
H2224 C2238 0.960 . S
H2225 C2238 0.961 . S
H2226 C2238 0.959 . S
H2227 C2241 0.929 . S
H2228 C2242 0.931 . S
H2229 C2244 0.930 . S
C2230 H2218 0.930 . S
C2230 C2231 1.399 . S
C2230 C2235 1.399 . S
C2231 C2230 1.399 . S
C2231 C2232 1.376 . S
C2232 H2219 0.930 . S
C2232 C2231 1.376 . S
C2232 C2233 1.388 . S
C2233 H2220 0.930 . S
C2233 C2232 1.388 . S
C2233 C2234 1.390 . S
C2234 C2233 1.390 . S
C2234 C2235 1.394 . S
C2234 C2240 1.465 . S
C2235 C2230 1.399 . S
C2235 C2234 1.394 . S
C2235 C2236 1.516 . S
C2236 C2235 1.516 . S
C2236 C2237 1.502 . S
C2236 C2238 1.561 . S
C2236 C2239 1.526 . S
C2237 H2221 0.959 . S
C2237 H2222 0.959 . S
C2237 H2223 0.961 . S
C2237 C2236 1.502 . S
C2238 H2224 0.960 . S
C2238 H2225 0.961 . S
C2238 H2226 0.959 . S
C2238 C2236 1.561 . S
C2239 C2236 1.526 . S
C2239 C2240 1.396 . S
C2239 C2244 1.390 . S
C2240 C2234 1.465 . S
C2240 C2239 1.396 . S
C2240 C2241 1.399 . S
C2241 H2227 0.929 . S
C2241 C2240 1.399 . S
C2241 C2242 1.385 . S
C2242 H2228 0.931 . S
C2242 C2241 1.385 . S
C2242 C2243 1.389 . S
C2243 C2242 1.389 . S
C2243 C2244 1.387 . S
C2244 H2229 0.930 . S
C2244 C2239 1.390 . S
C2244 C2243 1.387 . S
H2245 C2257 0.930 . S
H2246 C2259 0.930 . S
H2247 C2260 0.930 . S
H2248 C2264 0.959 . S
H2249 C2264 0.959 . S
H2250 C2264 0.961 . S
H2251 C2265 0.960 . S
H2252 C2265 0.961 . S
H2253 C2265 0.959 . S
H2254 C2268 0.929 . S
H2255 C2269 0.931 . S
H2256 C2271 0.930 . S
C2257 H2245 0.930 . S
C2257 C2258 1.399 . S
C2257 C2262 1.399 . S
C2258 C2257 1.399 . S
C2258 C2259 1.376 . S
C2259 H2246 0.930 . S
C2259 C2258 1.376 . S
C2259 C2260 1.388 . S
C2260 H2247 0.930 . S
C2260 C2259 1.388 . S
C2260 C2261 1.390 . S
C2261 C2260 1.390 . S
C2261 C2262 1.394 . S
C2261 C2267 1.465 . S
C2262 C2257 1.399 . S
C2262 C2261 1.394 . S
C2262 C2263 1.516 . S
C2263 C2262 1.516 . S
C2263 C2264 1.502 . S
C2263 C2265 1.561 . S
C2263 C2266 1.526 . S
C2264 H2248 0.959 . S
C2264 H2249 0.959 . S
C2264 H2250 0.961 . S
C2264 C2263 1.502 . S
C2265 H2251 0.960 . S
C2265 H2252 0.961 . S
C2265 H2253 0.959 . S
C2265 C2263 1.561 . S
C2266 C2263 1.526 . S
C2266 C2267 1.396 . S
C2266 C2271 1.390 . S
C2267 C2261 1.465 . S
C2267 C2266 1.396 . S
C2267 C2268 1.399 . S
C2268 H2254 0.929 . S
C2268 C2267 1.399 . S
C2268 C2269 1.385 . S
C2269 H2255 0.931 . S
C2269 C2268 1.385 . S
C2269 C2270 1.389 . S
C2270 C2269 1.389 . S
C2270 C2271 1.387 . S
C2271 H2256 0.930 . S
C2271 C2266 1.390 . S
C2271 C2270 1.387 . S
H2272 C2284 0.930 . S
H2273 C2286 0.930 . S
H2274 C2287 0.930 . S
H2275 C2291 0.959 . S
H2276 C2291 0.959 . S
H2277 C2291 0.961 . S
H2278 C2292 0.960 . S
H2279 C2292 0.961 . S
H2280 C2292 0.959 . S
H2281 C2295 0.929 . S
H2282 C2296 0.931 . S
H2283 C2298 0.930 . S
C2284 H2272 0.930 . S
C2284 C2285 1.399 . S
C2284 C2289 1.399 . S
C2285 C2284 1.399 . S
C2285 C2286 1.376 . S
C2286 H2273 0.930 . S
C2286 C2285 1.376 . S
C2286 C2287 1.388 . S
C2287 H2274 0.930 . S
C2287 C2286 1.388 . S
C2287 C2288 1.390 . S
C2288 C2287 1.390 . S
C2288 C2289 1.394 . S
C2288 C2294 1.465 . S
C2289 C2284 1.399 . S
C2289 C2288 1.394 . S
C2289 C2290 1.516 . S
C2290 C2289 1.516 . S
C2290 C2291 1.502 . S
C2290 C2292 1.561 . S
C2290 C2293 1.526 . S
C2291 H2275 0.959 . S
C2291 H2276 0.959 . S
C2291 H2277 0.961 . S
C2291 C2290 1.502 . S
C2292 H2278 0.960 . S
C2292 H2279 0.961 . S
C2292 H2280 0.959 . S
C2292 C2290 1.561 . S
C2293 C2290 1.526 . S
C2293 C2294 1.396 . S
C2293 C2298 1.390 . S
C2294 C2288 1.465 . S
C2294 C2293 1.396 . S
C2294 C2295 1.399 . S
C2295 H2281 0.929 . S
C2295 C2294 1.399 . S
C2295 C2296 1.385 . S
C2296 H2282 0.931 . S
C2296 C2295 1.385 . S
C2296 C2297 1.389 . S
C2297 C2296 1.389 . S
C2297 C2298 1.387 . S
C2298 H2283 0.930 . S
C2298 C2293 1.390 . S
C2298 C2297 1.387 . S
H2299 C2311 0.930 . S
H2300 C2313 0.930 . S
H2301 C2314 0.930 . S
H2302 C2318 0.959 . S
H2303 C2318 0.959 . S
H2304 C2318 0.961 . S
H2305 C2319 0.960 . S
H2306 C2319 0.961 . S
H2307 C2319 0.959 . S
H2308 C2322 0.929 . S
H2309 C2323 0.931 . S
H2310 C2325 0.930 . S
C2311 H2299 0.930 . S
C2311 C2312 1.399 . S
C2311 C2316 1.399 . S
C2312 C2311 1.399 . S
C2312 C2313 1.376 . S
C2313 H2300 0.930 . S
C2313 C2312 1.376 . S
C2313 C2314 1.388 . S
C2314 H2301 0.930 . S
C2314 C2313 1.388 . S
C2314 C2315 1.390 . S
C2315 C2314 1.390 . S
C2315 C2316 1.394 . S
C2315 C2321 1.465 . S
C2316 C2311 1.399 . S
C2316 C2315 1.394 . S
C2316 C2317 1.516 . S
C2317 C2316 1.516 . S
C2317 C2318 1.502 . S
C2317 C2319 1.561 . S
C2317 C2320 1.526 . S
C2318 H2302 0.959 . S
C2318 H2303 0.959 . S
C2318 H2304 0.961 . S
C2318 C2317 1.502 . S
C2319 H2305 0.960 . S
C2319 H2306 0.961 . S
C2319 H2307 0.959 . S
C2319 C2317 1.561 . S
C2320 C2317 1.526 . S
C2320 C2321 1.396 . S
C2320 C2325 1.390 . S
C2321 C2315 1.465 . S
C2321 C2320 1.396 . S
C2321 C2322 1.399 . S
C2322 H2308 0.929 . S
C2322 C2321 1.399 . S
C2322 C2323 1.385 . S
C2323 H2309 0.931 . S
C2323 C2322 1.385 . S
C2323 C2324 1.389 . S
C2324 C2323 1.389 . S
C2324 C2325 1.387 . S
C2325 H2310 0.930 . S
C2325 C2320 1.390 . S
C2325 C2324 1.387 . S
H2326 C2338 0.909 1_654 S
H2327 C2340 0.930 . S
H2328 C2341 0.930 . S
H2329 C2345 0.959 . S
H2330 C2345 0.959 . S
H2331 C2345 0.961 . S
H2332 C2346 0.960 . S
H2333 C2346 0.961 . S
H2334 C2346 0.959 . S
H2335 C2349 0.929 . S
H2336 C2350 0.931 . S
H2337 C2352 0.930 . S
C2338 H2326 0.909 1_456 S
C2338 C2339 1.399 . S
C2338 C2343 1.399 . S
C2339 C2338 1.399 . S
C2339 C2340 1.376 . S
C2340 H2327 0.930 . S
C2340 C2339 1.376 . S
C2340 C2341 1.388 . S
C2341 H2328 0.930 . S
C2341 C2340 1.388 . S
C2341 C2342 1.390 . S
C2342 C2341 1.390 . S
C2342 C2343 1.394 . S
C2342 C2348 1.465 . S
C2343 C2338 1.399 . S
C2343 C2342 1.394 . S
C2343 C2344 1.516 1_556 S
C2344 C2343 1.516 1_554 S
C2344 C2345 1.502 1_455 S
C2344 C2346 1.561 . S
C2344 C2347 1.526 . S
C2345 H2329 0.959 . S
C2345 H2330 0.959 . S
C2345 H2331 0.961 . S
C2345 C2344 1.502 1_655 S
C2346 H2332 0.960 . S
C2346 H2333 0.961 . S
C2346 H2334 0.959 . S
C2346 C2344 1.561 . S
C2347 C2344 1.526 . S
C2347 C2348 1.396 1_554 S
C2347 C2352 1.390 . S
C2348 C2342 1.465 . S
C2348 C2347 1.396 1_556 S
C2348 C2349 1.399 . S
C2349 H2335 0.929 . S
C2349 C2348 1.399 . S
C2349 C2350 1.385 . S
C2350 H2336 0.931 . S
C2350 C2349 1.385 . S
C2350 C2351 1.389 1_556 S
C2351 C2350 1.389 1_554 S
C2351 C2352 1.387 . S
C2352 H2337 0.930 . S
C2352 C2347 1.390 . S
C2352 C2351 1.387 . S
H2353 C2365 0.930 . S
H2354 C2367 0.930 1_455 S
H2355 C2368 0.930 . S
H2356 C2372 0.959 . S
H2357 C2372 0.959 . S
H2358 C2372 0.961 . S
H2359 C2373 0.960 . S
H2360 C2373 0.961 . S
H2361 C2373 0.959 . S
H2362 C2376 0.929 . S
H2363 C2377 0.931 . S
H2364 C2379 0.930 . S
C2365 H2353 0.930 . S
C2365 C2366 1.399 1_655 S
C2365 C2370 1.399 . S
C2366 C2365 1.399 1_455 S
C2366 C2367 1.376 1_455 S
C2367 H2354 0.930 1_655 S
C2367 C2366 1.376 1_655 S
C2367 C2368 1.388 . S
C2368 H2355 0.930 . S
C2368 C2367 1.388 . S
C2368 C2369 1.390 . S
C2369 C2368 1.390 . S
C2369 C2370 1.394 . S
C2369 C2375 1.465 . S
C2370 C2365 1.399 . S
C2370 C2369 1.394 . S
C2370 C2371 1.516 . S
C2371 C2370 1.516 . S
C2371 C2372 1.502 . S
C2371 C2373 1.561 . S
C2371 C2374 1.526 . S
C2372 H2356 0.959 . S
C2372 H2357 0.959 . S
C2372 H2358 0.961 . S
C2372 C2371 1.502 . S
C2373 H2359 0.960 . S
C2373 H2360 0.961 . S
C2373 H2361 0.959 . S
C2373 C2371 1.561 . S
C2374 C2371 1.526 . S
C2374 C2375 1.396 . S
C2374 C2379 1.390 . S
C2375 C2369 1.465 . S
C2375 C2374 1.396 . S
C2375 C2376 1.399 . S
C2376 H2362 0.929 . S
C2376 C2375 1.399 . S
C2376 C2377 1.385 . S
C2377 H2363 0.931 . S
C2377 C2376 1.385 . S
C2377 C2378 1.389 . S
C2378 C2377 1.389 . S
C2378 C2379 1.387 . S
C2379 H2364 0.930 . S
C2379 C2374 1.390 . S
C2379 C2378 1.387 . S
H2380 C2392 0.930 . S
H2381 C2394 0.930 . S
H2382 C2395 0.930 . S
H2383 C2399 0.959 . S
H2384 C2399 0.959 . S
H2385 C2399 0.961 . S
H2386 C2400 0.960 . S
H2387 C2400 0.961 . S
H2388 C2400 0.959 . S
H2389 C2403 0.929 . S
H2390 C2404 0.931 . S
H2391 C2406 0.930 . S
C2392 H2380 0.930 . S
C2392 C2393 1.399 . S
C2392 C2397 1.399 . S
C2393 C2392 1.399 . S
C2393 C2394 1.376 . S
C2394 H2381 0.930 . S
C2394 C2393 1.376 . S
C2394 C2395 1.388 . S
C2395 H2382 0.930 . S
C2395 C2394 1.388 . S
C2395 C2396 1.390 . S
C2396 C2395 1.390 . S
C2396 C2397 1.394 . S
C2396 C2402 1.465 . S
C2397 C2392 1.399 . S
C2397 C2396 1.394 . S
C2397 C2398 1.516 . S
C2398 C2397 1.516 . S
C2398 C2399 1.502 . S
C2398 C2400 1.561 . S
C2398 C2401 1.526 . S
C2399 H2383 0.959 . S
C2399 H2384 0.959 . S
C2399 H2385 0.961 . S
C2399 C2398 1.502 . S
C2400 H2386 0.960 . S
C2400 H2387 0.961 . S
C2400 H2388 0.959 . S
C2400 C2398 1.561 . S
C2401 C2398 1.526 . S
C2401 C2402 1.396 . S
C2401 C2406 1.390 . S
C2402 C2396 1.465 . S
C2402 C2401 1.396 . S
C2402 C2403 1.399 . S
C2403 H2389 0.929 . S
C2403 C2402 1.399 . S
C2403 C2404 1.385 . S
C2404 H2390 0.931 . S
C2404 C2403 1.385 . S
C2404 C2405 1.389 . S
C2405 C2404 1.389 . S
C2405 C2406 1.387 . S
C2406 H2391 0.930 . S
C2406 C2401 1.390 . S
C2406 C2405 1.387 . S
H2407 C2419 0.930 . S
H2408 C2421 0.930 . S
H2409 C2422 0.930 . S
H2410 C2426 0.959 . S
H2411 C2426 0.959 . S
H2412 C2426 0.961 . S
H2413 C2427 0.960 . S
H2414 C2427 0.961 . S
H2415 C2427 0.959 . S
H2416 C2430 0.929 . S
H2417 C2431 0.931 . S
H2418 C2433 0.930 . S
C2419 H2407 0.930 . S
C2419 C2420 1.399 1_655 S
C2419 C2424 1.399 . S
C2420 C2419 1.399 1_455 S
C2420 C2421 1.376 . S
C2421 H2408 0.930 . S
C2421 C2420 1.376 . S
C2421 C2422 1.388 1_455 S
C2422 H2409 0.930 . S
C2422 C2421 1.388 1_655 S
C2422 C2423 1.390 . S
C2423 C2422 1.390 . S
C2423 C2424 1.394 . S
C2423 C2429 1.465 . S
C2424 C2419 1.399 . S
C2424 C2423 1.394 . S
C2424 C2425 1.516 . S
C2425 C2424 1.516 . S
C2425 C2426 1.502 . S
C2425 C2427 1.561 . S
C2425 C2428 1.526 . S
C2426 H2410 0.959 . S
C2426 H2411 0.959 . S
C2426 H2412 0.961 . S
C2426 C2425 1.502 . S
C2427 H2413 0.960 . S
C2427 H2414 0.961 . S
C2427 H2415 0.959 . S
C2427 C2425 1.561 . S
C2428 C2425 1.526 . S
C2428 C2429 1.396 . S
C2428 C2433 1.390 . S
C2429 C2423 1.465 . S
C2429 C2428 1.396 . S
C2429 C2430 1.399 . S
C2430 H2416 0.929 . S
C2430 C2429 1.399 . S
C2430 C2431 1.385 . S
C2431 H2417 0.931 . S
C2431 C2430 1.385 . S
C2431 C2432 1.389 . S
C2432 C2431 1.389 . S
C2432 C2433 1.387 . S
C2433 H2418 0.930 . S
C2433 C2428 1.390 . S
C2433 C2432 1.387 . S
H2434 C2446 0.930 . S
H2435 C2448 0.920 1_655 S
H2436 C2449 0.930 . S
H2437 C2453 0.959 1_655 S
H2438 C2453 0.959 . S
H2439 C2453 0.961 . S
H2440 C2454 0.960 . S
H2441 C2454 0.961 . S
H2442 C2454 0.959 . S
H2443 C2457 0.929 . S
H2444 C2458 0.931 . S
H2445 C2460 0.930 . S
C2446 H2434 0.930 . S
C2446 C2447 1.406 . S
C2446 C2451 1.399 . S
C2447 C2446 1.406 . S
C2447 C2448 1.376 . S
C2448 H2435 0.920 1_455 S
C2448 C2447 1.376 . S
C2448 C2449 1.400 . S
C2449 H2436 0.930 . S
C2449 C2448 1.400 . S
C2449 C2450 1.390 . S
C2450 C2449 1.390 . S
C2450 C2451 1.394 . S
C2450 C2456 1.465 . S
C2451 C2446 1.399 . S
C2451 C2450 1.394 . S
C2451 C2452 1.516 . S
C2452 C2451 1.516 . S
C2452 C2453 1.502 . S
C2452 C2454 1.561 . S
C2452 C2455 1.526 . S
C2453 H2437 0.959 1_455 S
C2453 H2438 0.959 . S
C2453 H2439 0.961 . S
C2453 C2452 1.502 . S
C2454 H2440 0.960 . S
C2454 H2441 0.961 . S
C2454 H2442 0.959 . S
C2454 C2452 1.561 . S
C2455 C2452 1.526 . S
C2455 C2456 1.396 . S
C2455 C2460 1.390 . S
C2456 C2450 1.465 . S
C2456 C2455 1.396 . S
C2456 C2457 1.399 . S
C2457 H2443 0.929 . S
C2457 C2456 1.399 . S
C2457 C2458 1.385 . S
C2458 H2444 0.931 . S
C2458 C2457 1.385 . S
C2458 C2459 1.389 . S
C2459 C2458 1.389 . S
C2459 C2460 1.387 . S
C2460 H2445 0.930 . S
C2460 C2455 1.390 . S
C2460 C2459 1.387 . S
H2461 C2473 0.930 . S
H2462 C2475 0.930 . S
H2463 C2476 0.930 . S
H2464 C2480 0.959 . S
H2465 C2480 0.959 . S
H2466 C2480 0.961 . S
H2467 C2481 0.960 . S
H2468 C2481 0.961 . S
H2469 C2481 0.959 . S
H2470 C2484 0.929 . S
H2471 C2485 0.931 . S
H2472 C2487 0.930 . S
C2473 H2461 0.930 . S
C2473 C2474 1.399 . S
C2473 C2478 1.399 . S
C2474 C2473 1.399 . S
C2474 C2475 1.376 . S
C2475 H2462 0.930 . S
C2475 C2474 1.376 . S
C2475 C2476 1.388 . S
C2476 H2463 0.930 . S
C2476 C2475 1.388 . S
C2476 C2477 1.390 . S
C2477 C2476 1.390 . S
C2477 C2478 1.394 . S
C2477 C2483 1.465 . S
C2478 C2473 1.399 . S
C2478 C2477 1.394 . S
C2478 C2479 1.516 . S
C2479 C2478 1.516 . S
C2479 C2480 1.502 . S
C2479 C2481 1.561 . S
C2479 C2482 1.526 . S
C2480 H2464 0.959 . S
C2480 H2465 0.959 . S
C2480 H2466 0.961 . S
C2480 C2479 1.502 . S
C2481 H2467 0.960 . S
C2481 H2468 0.961 . S
C2481 H2469 0.959 . S
C2481 C2479 1.561 . S
C2482 C2479 1.526 . S
C2482 C2483 1.396 . S
C2482 C2487 1.390 . S
C2483 C2477 1.465 . S
C2483 C2482 1.396 . S
C2483 C2484 1.399 . S
C2484 H2470 0.929 . S
C2484 C2483 1.399 . S
C2484 C2485 1.385 . S
C2485 H2471 0.931 . S
C2485 C2484 1.385 . S
C2485 C2486 1.389 . S
C2486 C2485 1.389 . S
C2486 C2487 1.387 . S
C2487 H2472 0.930 . S
C2487 C2482 1.390 . S
C2487 C2486 1.387 . S
H2488 C2500 0.930 . S
H2489 C2502 0.930 . S
H2490 C2503 0.930 . S
H2491 C2507 0.959 . S
H2492 C2507 0.959 . S
H2493 C2507 0.961 . S
H2494 C2508 0.960 . S
H2495 C2508 0.961 . S
H2496 C2508 0.959 . S
H2497 C2511 0.929 . S
H2498 C2512 0.931 . S
H2499 C2514 0.930 . S
C2500 H2488 0.930 . S
C2500 C2501 1.399 . S
C2500 C2505 1.399 . S
C2501 C2500 1.399 . S
C2501 C2502 1.376 . S
C2502 H2489 0.930 . S
C2502 C2501 1.376 . S
C2502 C2503 1.388 . S
C2503 H2490 0.930 . S
C2503 C2502 1.388 . S
C2503 C2504 1.390 . S
C2504 C2503 1.390 . S
C2504 C2505 1.394 . S
C2504 C2510 1.465 . S
C2505 C2500 1.399 . S
C2505 C2504 1.394 . S
C2505 C2506 1.516 . S
C2506 C2505 1.516 . S
C2506 C2507 1.502 . S
C2506 C2508 1.561 . S
C2506 C2509 1.526 . S
C2507 H2491 0.959 . S
C2507 H2492 0.959 . S
C2507 H2493 0.961 . S
C2507 C2506 1.502 . S
C2508 H2494 0.960 . S
C2508 H2495 0.961 . S
C2508 H2496 0.959 . S
C2508 C2506 1.561 . S
C2509 C2506 1.526 . S
C2509 C2510 1.396 . S
C2509 C2514 1.390 . S
C2510 C2504 1.465 . S
C2510 C2509 1.396 . S
C2510 C2511 1.399 . S
C2511 H2497 0.929 . S
C2511 C2510 1.399 . S
C2511 C2512 1.385 . S
C2512 H2498 0.931 . S
C2512 C2511 1.385 . S
C2512 C2513 1.389 . S
C2513 C2512 1.389 . S
C2513 C2514 1.387 . S
C2514 H2499 0.930 . S
C2514 C2509 1.390 . S
C2514 C2513 1.387 . S
H2515 C2527 0.930 . S
H2516 C2529 0.930 . S
H2517 C2530 0.930 1_556 S
H2518 C2534 0.959 . S
H2519 C2534 0.959 . S
H2520 C2534 0.961 . S
H2521 C2535 0.960 . S
H2522 C2535 0.965 . S
H2523 C2535 0.953 1_556 S
H2524 C2538 0.929 . S
H2525 C2539 0.931 . S
H2526 C2541 0.930 . S
C2527 H2515 0.930 . S
C2527 C2528 1.399 . S
C2527 C2532 1.399 . S
C2528 C2527 1.399 . S
C2528 C2529 1.376 . S
C2529 H2516 0.930 . S
C2529 C2528 1.376 . S
C2529 C2530 1.388 . S
C2530 H2517 0.930 1_554 S
C2530 C2529 1.388 . S
C2530 C2531 1.390 . S
C2531 C2530 1.390 . S
C2531 C2532 1.394 . S
C2531 C2537 1.465 1_554 S
C2532 C2527 1.399 . S
C2532 C2531 1.394 . S
C2532 C2533 1.516 . S
C2533 C2532 1.516 . S
C2533 C2534 1.502 . S
C2533 C2535 1.561 . S
C2533 C2536 1.526 1_554 S
C2534 H2518 0.959 . S
C2534 H2519 0.959 . S
C2534 H2520 0.961 . S
C2534 C2533 1.502 . S
C2535 H2521 0.960 . S
C2535 H2522 0.965 . S
C2535 H2523 0.953 1_554 S
C2535 C2533 1.561 . S
C2536 C2533 1.526 1_556 S
C2536 C2537 1.396 . S
C2536 C2541 1.390 . S
C2537 C2531 1.465 1_556 S
C2537 C2536 1.396 . S
C2537 C2538 1.399 . S
C2538 H2524 0.929 . S
C2538 C2537 1.399 . S
C2538 C2539 1.385 . S
C2539 H2525 0.931 . S
C2539 C2538 1.385 . S
C2539 C2540 1.389 . S
C2540 C2539 1.389 . S
C2540 C2541 1.387 . S
C2541 H2526 0.930 . S
C2541 C2536 1.390 . S
C2541 C2540 1.387 . S
H2542 C2554 0.930 . S
H2543 C2556 0.930 . S
H2544 C2557 0.930 . S
H2545 C2561 0.959 . S
H2546 C2561 0.959 . S
H2547 C2561 0.961 . S
H2548 C2562 0.960 . S
H2549 C2562 0.961 . S
H2550 C2562 0.959 . S
H2551 C2565 0.929 . S
H2552 C2566 0.931 . S
H2553 C2568 0.930 . S
C2554 H2542 0.930 . S
C2554 C2555 1.399 . S
C2554 C2559 1.399 . S
C2555 C2554 1.399 . S
C2555 C2556 1.376 . S
C2556 H2543 0.930 . S
C2556 C2555 1.376 . S
C2556 C2557 1.388 . S
C2557 H2544 0.930 . S
C2557 C2556 1.388 . S
C2557 C2558 1.390 . S
C2558 C2557 1.390 . S
C2558 C2559 1.394 . S
C2558 C2564 1.465 . S
C2559 C2554 1.399 . S
C2559 C2558 1.394 . S
C2559 C2560 1.516 . S
C2560 C2559 1.516 . S
C2560 C2561 1.502 . S
C2560 C2562 1.561 . S
C2560 C2563 1.526 . S
C2561 H2545 0.959 . S
C2561 H2546 0.959 . S
C2561 H2547 0.961 . S
C2561 C2560 1.502 . S
C2562 H2548 0.960 . S
C2562 H2549 0.961 . S
C2562 H2550 0.959 . S
C2562 C2560 1.561 . S
C2563 C2560 1.526 . S
C2563 C2564 1.396 . S
C2563 C2568 1.390 . S
C2564 C2558 1.465 . S
C2564 C2563 1.396 . S
C2564 C2565 1.399 . S
C2565 H2551 0.929 . S
C2565 C2564 1.399 . S
C2565 C2566 1.385 . S
C2566 H2552 0.931 . S
C2566 C2565 1.385 . S
C2566 C2567 1.389 . S
C2567 C2566 1.389 . S
C2567 C2568 1.387 . S
C2568 H2553 0.930 . S
C2568 C2563 1.390 . S
C2568 C2567 1.387 . S
H2569 C2581 0.930 . S
H2570 C2583 0.930 . S
H2571 C2584 0.930 . S
H2572 C2588 0.959 . S
H2573 C2588 0.959 . S
H2574 C2588 0.961 . S
H2575 C2589 0.960 . S
H2576 C2589 0.961 . S
H2577 C2589 0.959 . S
H2578 C2592 0.929 . S
H2579 C2593 0.931 . S
H2580 C2595 0.930 . S
C2581 H2569 0.930 . S
C2581 C2582 1.399 . S
C2581 C2586 1.399 . S
C2582 C2581 1.399 . S
C2582 C2583 1.376 . S
C2583 H2570 0.930 . S
C2583 C2582 1.376 . S
C2583 C2584 1.388 . S
C2584 H2571 0.930 . S
C2584 C2583 1.388 . S
C2584 C2585 1.390 . S
C2585 C2584 1.390 . S
C2585 C2586 1.394 . S
C2585 C2591 1.465 . S
C2586 C2581 1.399 . S
C2586 C2585 1.394 . S
C2586 C2587 1.516 . S
C2587 C2586 1.516 . S
C2587 C2588 1.502 . S
C2587 C2589 1.561 . S
C2587 C2590 1.526 . S
C2588 H2572 0.959 . S
C2588 H2573 0.959 . S
C2588 H2574 0.961 . S
C2588 C2587 1.502 . S
C2589 H2575 0.960 . S
C2589 H2576 0.961 . S
C2589 H2577 0.959 . S
C2589 C2587 1.561 . S
C2590 C2587 1.526 . S
C2590 C2591 1.396 . S
C2590 C2595 1.390 . S
C2591 C2585 1.465 . S
C2591 C2590 1.396 . S
C2591 C2592 1.399 . S
C2592 H2578 0.929 . S
C2592 C2591 1.399 . S
C2592 C2593 1.385 . S
C2593 H2579 0.931 . S
C2593 C2592 1.385 . S
C2593 C2594 1.389 . S
C2594 C2593 1.389 . S
C2594 C2595 1.387 . S
C2595 H2580 0.930 . S
C2595 C2590 1.390 . S
C2595 C2594 1.387 . S
H2596 C2608 0.930 . S
H2597 C2610 0.930 . S
H2598 C2611 0.930 . S
H2599 C2615 0.959 . S
H2600 C2615 0.959 . S
H2601 C2615 0.961 . S
H2602 C2616 0.960 . S
H2603 C2616 0.961 . S
H2604 C2616 0.959 . S
H2605 C2619 0.929 . S
H2606 C2620 0.931 . S
H2607 C2622 0.930 . S
C2608 H2596 0.930 . S
C2608 C2609 1.399 . S
C2608 C2613 1.399 . S
C2609 C2608 1.399 . S
C2609 C2610 1.376 . S
C2610 H2597 0.930 . S
C2610 C2609 1.376 . S
C2610 C2611 1.388 . S
C2611 H2598 0.930 . S
C2611 C2610 1.388 . S
C2611 C2612 1.390 . S
C2612 C2611 1.390 . S
C2612 C2613 1.394 . S
C2612 C2618 1.465 . S
C2613 C2608 1.399 . S
C2613 C2612 1.394 . S
C2613 C2614 1.516 . S
C2614 C2613 1.516 . S
C2614 C2615 1.502 . S
C2614 C2616 1.561 . S
C2614 C2617 1.526 . S
C2615 H2599 0.959 . S
C2615 H2600 0.959 . S
C2615 H2601 0.961 . S
C2615 C2614 1.502 . S
C2616 H2602 0.960 . S
C2616 H2603 0.961 . S
C2616 H2604 0.959 . S
C2616 C2614 1.561 . S
C2617 C2614 1.526 . S
C2617 C2618 1.396 . S
C2617 C2622 1.390 . S
C2618 C2612 1.465 . S
C2618 C2617 1.396 . S
C2618 C2619 1.399 . S
C2619 H2605 0.929 . S
C2619 C2618 1.399 . S
C2619 C2620 1.385 . S
C2620 H2606 0.931 . S
C2620 C2619 1.385 . S
C2620 C2621 1.389 . S
C2621 C2620 1.389 . S
C2621 C2622 1.387 . S
C2622 H2607 0.930 . S
C2622 C2617 1.390 . S
C2622 C2621 1.387 . S
H2623 C2635 0.930 . S
H2624 C2637 0.930 . S
H2625 C2638 0.930 . S
H2626 C2642 0.959 . S
H2627 C2642 0.959 . S
H2628 C2642 0.961 . S
H2629 C2643 0.960 . S
H2630 C2643 0.961 . S
H2631 C2643 0.959 . S
H2632 C2646 0.929 . S
H2633 C2647 0.931 . S
H2634 C2649 0.930 . S
C2635 H2623 0.930 . S
C2635 C2636 1.399 . S
C2635 C2640 1.399 . S
C2636 C2635 1.399 . S
C2636 C2637 1.376 . S
C2637 H2624 0.930 . S
C2637 C2636 1.376 . S
C2637 C2638 1.388 . S
C2638 H2625 0.930 . S
C2638 C2637 1.388 . S
C2638 C2639 1.390 . S
C2639 C2638 1.390 . S
C2639 C2640 1.394 . S
C2639 C2645 1.465 . S
C2640 C2635 1.399 . S
C2640 C2639 1.394 . S
C2640 C2641 1.516 . S
C2641 C2640 1.516 . S
C2641 C2642 1.502 . S
C2641 C2643 1.561 . S
C2641 C2644 1.526 . S
C2642 H2626 0.959 . S
C2642 H2627 0.959 . S
C2642 H2628 0.961 . S
C2642 C2641 1.502 . S
C2643 H2629 0.960 . S
C2643 H2630 0.961 . S
C2643 H2631 0.959 . S
C2643 C2641 1.561 . S
C2644 C2641 1.526 . S
C2644 C2645 1.396 . S
C2644 C2649 1.390 . S
C2645 C2639 1.465 . S
C2645 C2644 1.396 . S
C2645 C2646 1.399 . S
C2646 H2632 0.929 . S
C2646 C2645 1.399 . S
C2646 C2647 1.385 . S
C2647 H2633 0.931 . S
C2647 C2646 1.385 . S
C2647 C2648 1.389 . S
C2648 C2647 1.389 . S
C2648 C2649 1.387 . S
C2649 H2634 0.930 . S
C2649 C2644 1.390 . S
C2649 C2648 1.387 . S
H2650 C2662 0.930 . S
H2651 C2664 0.930 . S
H2652 C2665 0.930 . S
H2653 C2669 0.959 . S
H2654 C2669 0.959 . S
H2655 C2669 0.961 . S
H2656 C2670 0.960 . S
H2657 C2670 0.961 . S
H2658 C2670 0.959 . S
H2659 C2673 0.929 . S
H2660 C2674 0.931 . S
H2661 C2676 0.930 . S
C2662 H2650 0.930 . S
C2662 C2663 1.399 . S
C2662 C2667 1.399 . S
C2663 C2662 1.399 . S
C2663 C2664 1.376 . S
C2664 H2651 0.930 . S
C2664 C2663 1.376 . S
C2664 C2665 1.388 . S
C2665 H2652 0.930 . S
C2665 C2664 1.388 . S
C2665 C2666 1.390 . S
C2666 C2665 1.390 . S
C2666 C2667 1.394 . S
C2666 C2672 1.465 . S
C2667 C2662 1.399 . S
C2667 C2666 1.394 . S
C2667 C2668 1.516 . S
C2668 C2667 1.516 . S
C2668 C2669 1.502 . S
C2668 C2670 1.561 . S
C2668 C2671 1.526 . S
C2669 H2653 0.959 . S
C2669 H2654 0.959 . S
C2669 H2655 0.961 . S
C2669 C2668 1.502 . S
C2670 H2656 0.960 . S
C2670 H2657 0.961 . S
C2670 H2658 0.959 . S
C2670 C2668 1.561 . S
C2671 C2668 1.526 . S
C2671 C2672 1.396 . S
C2671 C2676 1.390 . S
C2672 C2666 1.465 . S
C2672 C2671 1.396 . S
C2672 C2673 1.399 . S
C2673 H2659 0.929 . S
C2673 C2672 1.399 . S
C2673 C2674 1.385 . S
C2674 H2660 0.931 . S
C2674 C2673 1.385 . S
C2674 C2675 1.389 . S
C2675 C2674 1.389 . S
C2675 C2676 1.387 . S
C2676 H2661 0.930 . S
C2676 C2671 1.390 . S
C2676 C2675 1.387 . S
H2677 C2689 0.930 . S
H2678 C2691 0.930 . S
H2679 C2692 0.930 . S
H2680 C2696 0.959 . S
H2681 C2696 0.959 . S
H2682 C2696 0.961 . S
H2683 C2697 0.960 . S
H2684 C2697 0.961 . S
H2685 C2697 0.959 . S
H2686 C2700 0.929 . S
H2687 C2701 0.931 . S
H2688 C2703 0.930 . S
C2689 H2677 0.930 . S
C2689 C2690 1.399 . S
C2689 C2694 1.399 . S
C2690 C2689 1.399 . S
C2690 C2691 1.376 . S
C2691 H2678 0.930 . S
C2691 C2690 1.376 . S
C2691 C2692 1.388 . S
C2692 H2679 0.930 . S
C2692 C2691 1.388 . S
C2692 C2693 1.390 . S
C2693 C2692 1.390 . S
C2693 C2694 1.394 . S
C2693 C2699 1.465 . S
C2694 C2689 1.399 . S
C2694 C2693 1.394 . S
C2694 C2695 1.516 . S
C2695 C2694 1.516 . S
C2695 C2696 1.502 . S
C2695 C2697 1.561 . S
C2695 C2698 1.526 . S
C2696 H2680 0.959 . S
C2696 H2681 0.959 . S
C2696 H2682 0.961 . S
C2696 C2695 1.502 . S
C2697 H2683 0.960 . S
C2697 H2684 0.961 . S
C2697 H2685 0.959 . S
C2697 C2695 1.561 . S
C2698 C2695 1.526 . S
C2698 C2699 1.396 . S
C2698 C2703 1.390 . S
C2699 C2693 1.465 . S
C2699 C2698 1.396 . S
C2699 C2700 1.399 . S
C2700 H2686 0.929 . S
C2700 C2699 1.399 . S
C2700 C2701 1.385 . S
C2701 H2687 0.931 . S
C2701 C2700 1.385 . S
C2701 C2702 1.389 . S
C2702 C2701 1.389 . S
C2702 C2703 1.387 . S
C2703 H2688 0.930 . S
C2703 C2698 1.390 . S
C2703 C2702 1.387 . S
H2704 C2716 0.930 . S
H2705 C2718 0.930 . S
H2706 C2719 0.930 . S
H2707 C2723 0.959 . S
H2708 C2723 0.959 . S
H2709 C2723 0.961 . S
H2710 C2724 0.960 . S
H2711 C2724 0.961 . S
H2712 C2724 0.959 . S
H2713 C2727 0.929 . S
H2714 C2728 0.931 . S
H2715 C2730 0.930 . S
C2716 H2704 0.930 . S
C2716 C2717 1.399 . S
C2716 C2721 1.399 . S
C2717 C2716 1.399 . S
C2717 C2718 1.376 . S
C2718 H2705 0.930 . S
C2718 C2717 1.376 . S
C2718 C2719 1.388 . S
C2719 H2706 0.930 . S
C2719 C2718 1.388 . S
C2719 C2720 1.390 . S
C2720 C2719 1.390 . S
C2720 C2721 1.394 . S
C2720 C2726 1.465 . S
C2721 C2716 1.399 . S
C2721 C2720 1.394 . S
C2721 C2722 1.516 . S
C2722 C2721 1.516 . S
C2722 C2723 1.502 . S
C2722 C2724 1.561 . S
C2722 C2725 1.526 . S
C2723 H2707 0.959 . S
C2723 H2708 0.959 . S
C2723 H2709 0.961 . S
C2723 C2722 1.502 . S
C2724 H2710 0.960 . S
C2724 H2711 0.961 . S
C2724 H2712 0.959 . S
C2724 C2722 1.561 . S
C2725 C2722 1.526 . S
C2725 C2726 1.396 . S
C2725 C2730 1.390 . S
C2726 C2720 1.465 . S
C2726 C2725 1.396 . S
C2726 C2727 1.399 . S
C2727 H2713 0.929 . S
C2727 C2726 1.399 . S
C2727 C2728 1.385 . S
C2728 H2714 0.931 . S
C2728 C2727 1.385 . S
C2728 C2729 1.389 . S
C2729 C2728 1.389 . S
C2729 C2730 1.387 . S
C2730 H2715 0.930 . S
C2730 C2725 1.390 . S
C2730 C2729 1.387 . S
H2731 C2743 0.930 . S
H2732 C2745 0.930 . S
H2733 C2746 0.930 . S
H2734 C2750 0.959 . S
H2735 C2750 0.959 . S
H2736 C2750 0.961 . S
H2737 C2751 0.960 . S
H2738 C2751 0.961 . S
H2739 C2751 0.959 . S
H2740 C2754 0.929 . S
H2741 C2755 0.931 . S
H2742 C2757 0.930 . S
C2743 H2731 0.930 . S
C2743 C2744 1.399 . S
C2743 C2748 1.399 . S
C2744 C2743 1.399 . S
C2744 C2745 1.376 . S
C2745 H2732 0.930 . S
C2745 C2744 1.376 . S
C2745 C2746 1.388 . S
C2746 H2733 0.930 . S
C2746 C2745 1.388 . S
C2746 C2747 1.390 . S
C2747 C2746 1.390 . S
C2747 C2748 1.394 . S
C2747 C2753 1.465 . S
C2748 C2743 1.399 . S
C2748 C2747 1.394 . S
C2748 C2749 1.516 . S
C2749 C2748 1.516 . S
C2749 C2750 1.502 . S
C2749 C2751 1.561 . S
C2749 C2752 1.526 . S
C2750 H2734 0.959 . S
C2750 H2735 0.959 . S
C2750 H2736 0.961 . S
C2750 C2749 1.502 . S
C2751 H2737 0.960 . S
C2751 H2738 0.961 . S
C2751 H2739 0.959 . S
C2751 C2749 1.561 . S
C2752 C2749 1.526 . S
C2752 C2753 1.396 . S
C2752 C2757 1.390 . S
C2753 C2747 1.465 . S
C2753 C2752 1.396 . S
C2753 C2754 1.399 . S
C2754 H2740 0.929 . S
C2754 C2753 1.399 . S
C2754 C2755 1.385 . S
C2755 H2741 0.931 . S
C2755 C2754 1.385 . S
C2755 C2756 1.389 . S
C2756 C2755 1.389 . S
C2756 C2757 1.387 . S
C2757 H2742 0.930 . S
C2757 C2752 1.390 . S
C2757 C2756 1.387 . S
H2758 C2770 0.930 . S
H2759 C2772 0.930 . S
H2760 C2773 0.930 . S
H2761 C2777 0.959 . S
H2762 C2777 0.959 . S
H2763 C2777 0.961 . S
H2764 C2778 0.960 . S
H2765 C2778 0.961 . S
H2766 C2778 0.959 . S
H2767 C2781 0.929 . S
H2768 C2782 0.931 . S
H2769 C2784 0.930 . S
C2770 H2758 0.930 . S
C2770 C2771 1.399 . S
C2770 C2775 1.399 . S
C2771 C2770 1.399 . S
C2771 C2772 1.376 . S
C2772 H2759 0.930 . S
C2772 C2771 1.376 . S
C2772 C2773 1.388 . S
C2773 H2760 0.930 . S
C2773 C2772 1.388 . S
C2773 C2774 1.390 . S
C2774 C2773 1.390 . S
C2774 C2775 1.394 . S
C2774 C2780 1.465 . S
C2775 C2770 1.399 . S
C2775 C2774 1.394 . S
C2775 C2776 1.516 . S
C2776 C2775 1.516 . S
C2776 C2777 1.502 . S
C2776 C2778 1.561 . S
C2776 C2779 1.526 . S
C2777 H2761 0.959 . S
C2777 H2762 0.959 . S
C2777 H2763 0.961 . S
C2777 C2776 1.502 . S
C2778 H2764 0.960 . S
C2778 H2765 0.961 . S
C2778 H2766 0.959 . S
C2778 C2776 1.561 . S
C2779 C2776 1.526 . S
C2779 C2780 1.396 . S
C2779 C2784 1.390 . S
C2780 C2774 1.465 . S
C2780 C2779 1.396 . S
C2780 C2781 1.399 . S
C2781 H2767 0.929 . S
C2781 C2780 1.399 . S
C2781 C2782 1.385 . S
C2782 H2768 0.931 . S
C2782 C2781 1.385 . S
C2782 C2783 1.389 . S
C2783 C2782 1.389 . S
C2783 C2784 1.387 . S
C2784 H2769 0.930 . S
C2784 C2779 1.390 . S
C2784 C2783 1.387 . S
H2785 C2797 0.930 . S
H2786 C2799 0.930 . S
H2787 C2800 0.930 . S
H2788 C2804 0.959 . S
H2789 C2804 0.959 . S
H2790 C2804 0.961 . S
H2791 C2805 0.960 . S
H2792 C2805 0.961 . S
H2793 C2805 0.959 . S
H2794 C2808 0.929 . S
H2795 C2809 0.931 . S
H2796 C2811 0.930 . S
C2797 H2785 0.930 . S
C2797 C2798 1.399 . S
C2797 C2802 1.399 . S
C2798 C2797 1.399 . S
C2798 C2799 1.376 1_554 S
C2799 H2786 0.930 . S
C2799 C2798 1.376 1_556 S
C2799 C2800 1.388 . S
C2800 H2787 0.930 . S
C2800 C2799 1.388 . S
C2800 C2801 1.391 1_556 S
C2801 C2800 1.391 1_554 S
C2801 C2802 1.392 . S
C2801 C2807 1.465 . S
C2802 C2797 1.399 . S
C2802 C2801 1.392 . S
C2802 C2803 1.516 . S
C2803 C2802 1.516 . S
C2803 C2804 1.502 . S
C2803 C2805 1.561 . S
C2803 C2806 1.526 . S
C2804 H2788 0.959 . S
C2804 H2789 0.959 . S
C2804 H2790 0.961 . S
C2804 C2803 1.502 . S
C2805 H2791 0.960 . S
C2805 H2792 0.961 . S
C2805 H2793 0.959 . S
C2805 C2803 1.561 . S
C2806 C2803 1.526 . S
C2806 C2807 1.396 . S
C2806 C2811 1.390 . S
C2807 C2801 1.465 . S
C2807 C2806 1.396 . S
C2807 C2808 1.399 1_554 S
C2808 H2794 0.929 . S
C2808 C2807 1.399 1_556 S
C2808 C2809 1.385 . S
C2809 H2795 0.931 . S
C2809 C2808 1.385 . S
C2809 C2810 1.389 1_556 S
C2810 C2809 1.389 1_554 S
C2810 C2811 1.387 . S
C2811 H2796 0.930 . S
C2811 C2806 1.390 . S
C2811 C2810 1.387 . S
H2812 C2824 0.930 . S
H2813 C2826 0.930 . S
H2814 C2827 0.930 . S
H2815 C2831 0.959 . S
H2816 C2831 0.959 . S
H2817 C2831 0.961 . S
H2818 C2832 0.960 . S
H2819 C2832 0.961 . S
H2820 C2832 0.959 . S
H2821 C2835 0.929 . S
H2822 C2836 0.931 . S
H2823 C2838 0.930 . S
C2824 H2812 0.930 . S
C2824 C2825 1.399 . S
C2824 C2829 1.399 . S
C2825 C2824 1.399 . S
C2825 C2826 1.376 . S
C2826 H2813 0.930 . S
C2826 C2825 1.376 . S
C2826 C2827 1.388 . S
C2827 H2814 0.930 . S
C2827 C2826 1.388 . S
C2827 C2828 1.390 . S
C2828 C2827 1.390 . S
C2828 C2829 1.394 . S
C2828 C2834 1.465 . S
C2829 C2824 1.399 . S
C2829 C2828 1.394 . S
C2829 C2830 1.516 . S
C2830 C2829 1.516 . S
C2830 C2831 1.502 . S
C2830 C2832 1.561 . S
C2830 C2833 1.526 . S
C2831 H2815 0.959 . S
C2831 H2816 0.959 . S
C2831 H2817 0.961 . S
C2831 C2830 1.502 . S
C2832 H2818 0.960 . S
C2832 H2819 0.961 . S
C2832 H2820 0.959 . S
C2832 C2830 1.561 . S
C2833 C2830 1.526 . S
C2833 C2834 1.396 . S
C2833 C2838 1.390 . S
C2834 C2828 1.465 . S
C2834 C2833 1.396 . S
C2834 C2835 1.399 . S
C2835 H2821 0.929 . S
C2835 C2834 1.399 . S
C2835 C2836 1.385 . S
C2836 H2822 0.931 . S
C2836 C2835 1.385 . S
C2836 C2837 1.389 . S
C2837 C2836 1.389 . S
C2837 C2838 1.387 . S
C2838 H2823 0.930 . S
C2838 C2833 1.390 . S
C2838 C2837 1.387 . S
H2839 C2851 0.930 . S
H2840 C2853 0.930 . S
H2841 C2854 0.930 . S
H2842 C2858 0.959 . S
H2843 C2858 0.959 . S
H2844 C2858 0.961 . S
H2845 C2859 0.960 . S
H2846 C2859 0.961 . S
H2847 C2859 0.959 . S
H2848 C2862 0.929 . S
H2849 C2863 0.931 . S
H2850 C2865 0.930 . S
C2851 H2839 0.930 . S
C2851 C2852 1.399 . S
C2851 C2856 1.399 . S
C2852 C2851 1.399 . S
C2852 C2853 1.376 . S
C2853 H2840 0.930 . S
C2853 C2852 1.376 . S
C2853 C2854 1.388 . S
C2854 H2841 0.930 . S
C2854 C2853 1.388 . S
C2854 C2855 1.390 . S
C2855 C2854 1.390 . S
C2855 C2856 1.394 . S
C2855 C2861 1.465 . S
C2856 C2851 1.399 . S
C2856 C2855 1.394 . S
C2856 C2857 1.516 . S
C2857 C2856 1.516 . S
C2857 C2858 1.502 . S
C2857 C2859 1.561 . S
C2857 C2860 1.526 . S
C2858 H2842 0.959 . S
C2858 H2843 0.959 . S
C2858 H2844 0.961 . S
C2858 C2857 1.502 . S
C2859 H2845 0.960 . S
C2859 H2846 0.961 . S
C2859 H2847 0.959 . S
C2859 C2857 1.561 . S
C2860 C2857 1.526 . S
C2860 C2861 1.396 . S
C2860 C2865 1.390 . S
C2861 C2855 1.465 . S
C2861 C2860 1.396 . S
C2861 C2862 1.399 . S
C2862 H2848 0.929 . S
C2862 C2861 1.399 . S
C2862 C2863 1.385 . S
C2863 H2849 0.931 . S
C2863 C2862 1.385 . S
C2863 C2864 1.389 . S
C2864 C2863 1.389 . S
C2864 C2865 1.387 . S
C2865 H2850 0.930 . S
C2865 C2860 1.390 . S
C2865 C2864 1.387 . S
H2866 C2878 0.930 . S
H2867 C2880 0.930 . S
H2868 C2881 0.930 . S
H2869 C2885 0.959 . S
H2870 C2885 0.959 . S
H2871 C2885 0.961 . S
H2872 C2886 0.960 . S
H2873 C2886 0.961 . S
H2874 C2886 0.959 . S
H2875 C2889 0.929 . S
H2876 C2890 0.931 . S
H2877 C2892 0.930 . S
C2878 H2866 0.930 . S
C2878 C2879 1.399 . S
C2878 C2883 1.399 . S
C2879 C2878 1.399 . S
C2879 C2880 1.376 . S
C2880 H2867 0.930 . S
C2880 C2879 1.376 . S
C2880 C2881 1.388 . S
C2881 H2868 0.930 . S
C2881 C2880 1.388 . S
C2881 C2882 1.390 . S
C2882 C2881 1.390 . S
C2882 C2883 1.394 . S
C2882 C2888 1.465 . S
C2883 C2878 1.399 . S
C2883 C2882 1.394 . S
C2883 C2884 1.516 . S
C2884 C2883 1.516 . S
C2884 C2885 1.502 . S
C2884 C2886 1.561 . S
C2884 C2887 1.526 . S
C2885 H2869 0.959 . S
C2885 H2870 0.959 . S
C2885 H2871 0.961 . S
C2885 C2884 1.502 . S
C2886 H2872 0.960 . S
C2886 H2873 0.961 . S
C2886 H2874 0.959 . S
C2886 C2884 1.561 . S
C2887 C2884 1.526 . S
C2887 C2888 1.396 . S
C2887 C2892 1.390 . S
C2888 C2882 1.465 . S
C2888 C2887 1.396 . S
C2888 C2889 1.399 . S
C2889 H2875 0.929 . S
C2889 C2888 1.399 . S
C2889 C2890 1.385 . S
C2890 H2876 0.931 . S
C2890 C2889 1.385 . S
C2890 C2891 1.389 . S
C2891 C2890 1.389 . S
C2891 C2892 1.387 . S
C2892 H2877 0.930 . S
C2892 C2887 1.390 . S
C2892 C2891 1.387 . S
H2893 C2905 0.930 . S
H2894 C2907 0.930 . S
H2895 C2908 0.930 . S
H2896 C2912 0.959 . S
H2897 C2912 0.959 . S
H2898 C2912 0.961 . S
H2899 C2913 0.960 . S
H2900 C2913 0.961 . S
H2901 C2913 0.959 . S
H2902 C2916 0.929 . S
H2903 C2917 0.931 . S
H2904 C2919 0.930 . S
C2905 H2893 0.930 . S
C2905 C2906 1.399 . S
C2905 C2910 1.399 . S
C2906 C2905 1.399 . S
C2906 C2907 1.376 . S
C2907 H2894 0.930 . S
C2907 C2906 1.376 . S
C2907 C2908 1.388 . S
C2908 H2895 0.930 . S
C2908 C2907 1.388 . S
C2908 C2909 1.390 . S
C2909 C2908 1.390 . S
C2909 C2910 1.394 . S
C2909 C2915 1.465 . S
C2910 C2905 1.399 . S
C2910 C2909 1.394 . S
C2910 C2911 1.516 . S
C2911 C2910 1.516 . S
C2911 C2912 1.502 . S
C2911 C2913 1.561 . S
C2911 C2914 1.526 . S
C2912 H2896 0.959 . S
C2912 H2897 0.959 . S
C2912 H2898 0.961 . S
C2912 C2911 1.502 . S
C2913 H2899 0.960 . S
C2913 H2900 0.961 . S
C2913 H2901 0.959 . S
C2913 C2911 1.561 . S
C2914 C2911 1.526 . S
C2914 C2915 1.396 . S
C2914 C2919 1.390 . S
C2915 C2909 1.465 . S
C2915 C2914 1.396 . S
C2915 C2916 1.399 . S
C2916 H2902 0.929 . S
C2916 C2915 1.399 . S
C2916 C2917 1.385 . S
C2917 H2903 0.931 . S
C2917 C2916 1.385 . S
C2917 C2918 1.389 . S
C2918 C2917 1.389 . S
C2918 C2919 1.387 . S
C2919 H2904 0.930 . S
C2919 C2914 1.390 . S
C2919 C2918 1.387 . S
H2920 C2932 0.930 . S
H2921 C2934 0.930 . S
H2922 C2935 0.930 . S
H2923 C2939 0.959 . S
H2924 C2939 0.959 . S
H2925 C2939 0.961 . S
H2926 C2940 0.960 . S
H2927 C2940 0.961 . S
H2928 C2940 0.959 . S
H2929 C2943 0.929 . S
H2930 C2944 0.931 . S
H2931 C2946 0.930 . S
C2932 H2920 0.930 . S
C2932 C2933 1.399 . S
C2932 C2937 1.399 . S
C2933 C2932 1.399 . S
C2933 C2934 1.376 . S
C2934 H2921 0.930 . S
C2934 C2933 1.376 . S
C2934 C2935 1.388 . S
C2935 H2922 0.930 . S
C2935 C2934 1.388 . S
C2935 C2936 1.390 . S
C2936 C2935 1.390 . S
C2936 C2937 1.394 . S
C2936 C2942 1.465 . S
C2937 C2932 1.399 . S
C2937 C2936 1.394 . S
C2937 C2938 1.516 . S
C2938 C2937 1.516 . S
C2938 C2939 1.502 . S
C2938 C2940 1.561 . S
C2938 C2941 1.526 . S
C2939 H2923 0.959 . S
C2939 H2924 0.959 . S
C2939 H2925 0.961 . S
C2939 C2938 1.502 . S
C2940 H2926 0.960 . S
C2940 H2927 0.961 . S
C2940 H2928 0.959 . S
C2940 C2938 1.561 . S
C2941 C2938 1.526 . S
C2941 C2942 1.396 . S
C2941 C2946 1.390 . S
C2942 C2936 1.465 . S
C2942 C2941 1.396 . S
C2942 C2943 1.399 . S
C2943 H2929 0.929 . S
C2943 C2942 1.399 . S
C2943 C2944 1.385 . S
C2944 H2930 0.931 . S
C2944 C2943 1.385 . S
C2944 C2945 1.389 . S
C2945 C2944 1.389 . S
C2945 C2946 1.387 . S
C2946 H2931 0.930 . S
C2946 C2941 1.390 . S
C2946 C2945 1.387 . S
H2947 C2959 0.930 . S
H2948 C2961 0.930 . S
H2949 C2962 0.930 . S
H2950 C2966 0.959 . S
H2951 C2966 0.959 . S
H2952 C2966 0.961 . S
H2953 C2967 0.960 . S
H2954 C2967 0.961 . S
H2955 C2967 0.959 . S
H2956 C2970 0.929 . S
H2957 C2971 0.931 . S
H2958 C2973 0.930 . S
C2959 H2947 0.930 . S
C2959 C2960 1.399 . S
C2959 C2964 1.399 . S
C2960 C2959 1.399 . S
C2960 C2961 1.376 . S
C2961 H2948 0.930 . S
C2961 C2960 1.376 . S
C2961 C2962 1.388 . S
C2962 H2949 0.930 . S
C2962 C2961 1.388 . S
C2962 C2963 1.390 . S
C2963 C2962 1.390 . S
C2963 C2964 1.394 . S
C2963 C2969 1.465 . S
C2964 C2959 1.399 . S
C2964 C2963 1.394 . S
C2964 C2965 1.516 . S
C2965 C2964 1.516 . S
C2965 C2966 1.502 . S
C2965 C2967 1.561 . S
C2965 C2968 1.526 . S
C2966 H2950 0.959 . S
C2966 H2951 0.959 . S
C2966 H2952 0.961 . S
C2966 C2965 1.502 . S
C2967 H2953 0.960 . S
C2967 H2954 0.961 . S
C2967 H2955 0.959 . S
C2967 C2965 1.561 . S
C2968 C2965 1.526 . S
C2968 C2969 1.396 . S
C2968 C2973 1.390 . S
C2969 C2963 1.465 . S
C2969 C2968 1.396 . S
C2969 C2970 1.399 . S
C2970 H2956 0.929 . S
C2970 C2969 1.399 . S
C2970 C2971 1.385 . S
C2971 H2957 0.931 . S
C2971 C2970 1.385 . S
C2971 C2972 1.389 . S
C2972 C2971 1.389 . S
C2972 C2973 1.387 . S
C2973 H2958 0.930 . S
C2973 C2968 1.390 . S
C2973 C2972 1.387 . S
H2974 C2986 0.930 . S
H2975 C2988 0.930 . S
H2976 C2989 0.930 . S
H2977 C2993 0.959 . S
H2978 C2993 0.959 . S
H2979 C2993 0.961 . S
H2980 C2994 0.960 . S
H2981 C2994 0.961 . S
H2982 C2994 0.959 . S
H2983 C2997 0.929 . S
H2984 C2998 0.931 . S
H2985 C3000 0.930 . S
C2986 H2974 0.930 . S
C2986 C2987 1.399 . S
C2986 C2991 1.399 . S
C2987 C2986 1.399 . S
C2987 C2988 1.376 . S
C2988 H2975 0.930 . S
C2988 C2987 1.376 . S
C2988 C2989 1.388 . S
C2989 H2976 0.930 . S
C2989 C2988 1.388 . S
C2989 C2990 1.390 . S
C2990 C2989 1.390 . S
C2990 C2991 1.394 . S
C2990 C2996 1.465 . S
C2991 C2986 1.399 . S
C2991 C2990 1.394 . S
C2991 C2992 1.516 . S
C2992 C2991 1.516 . S
C2992 C2993 1.502 . S
C2992 C2994 1.561 . S
C2992 C2995 1.526 . S
C2993 H2977 0.959 . S
C2993 H2978 0.959 . S
C2993 H2979 0.961 . S
C2993 C2992 1.502 . S
C2994 H2980 0.960 . S
C2994 H2981 0.961 . S
C2994 H2982 0.959 . S
C2994 C2992 1.561 . S
C2995 C2992 1.526 . S
C2995 C2996 1.396 . S
C2995 C3000 1.390 . S
C2996 C2990 1.465 . S
C2996 C2995 1.396 . S
C2996 C2997 1.399 . S
C2997 H2983 0.929 . S
C2997 C2996 1.399 . S
C2997 C2998 1.385 . S
C2998 H2984 0.931 . S
C2998 C2997 1.385 . S
C2998 C2999 1.389 . S
C2999 C2998 1.389 . S
C2999 C3000 1.387 . S
C3000 H2985 0.930 . S
C3000 C2995 1.390 . S
C3000 C2999 1.387 . S
H3001 C3013 0.930 . S
H3002 C3015 0.930 . S
H3003 C3016 0.930 . S
H3004 C3020 0.959 . S
H3005 C3020 0.959 . S
H3006 C3020 0.961 . S
H3007 C3021 0.960 . S
H3008 C3021 0.961 . S
H3009 C3021 0.959 . S
H3010 C3024 0.929 . S
H3011 C3025 0.931 . S
H3012 C3027 0.930 . S
C3013 H3001 0.930 . S
C3013 C3014 1.399 . S
C3013 C3018 1.399 . S
C3014 C3013 1.399 . S
C3014 C3015 1.376 . S
C3015 H3002 0.930 . S
C3015 C3014 1.376 . S
C3015 C3016 1.388 . S
C3016 H3003 0.930 . S
C3016 C3015 1.388 . S
C3016 C3017 1.390 . S
C3017 C3016 1.390 . S
C3017 C3018 1.394 . S
C3017 C3023 1.465 . S
C3018 C3013 1.399 . S
C3018 C3017 1.394 . S
C3018 C3019 1.516 . S
C3019 C3018 1.516 . S
C3019 C3020 1.502 . S
C3019 C3021 1.561 . S
C3019 C3022 1.526 . S
C3020 H3004 0.959 . S
C3020 H3005 0.959 . S
C3020 H3006 0.961 . S
C3020 C3019 1.502 . S
C3021 H3007 0.960 . S
C3021 H3008 0.961 . S
C3021 H3009 0.959 . S
C3021 C3019 1.561 . S
C3022 C3019 1.526 . S
C3022 C3023 1.396 . S
C3022 C3027 1.390 . S
C3023 C3017 1.465 . S
C3023 C3022 1.396 . S
C3023 C3024 1.399 . S
C3024 H3010 0.929 . S
C3024 C3023 1.399 . S
C3024 C3025 1.385 . S
C3025 H3011 0.931 . S
C3025 C3024 1.385 . S
C3025 C3026 1.389 . S
C3026 C3025 1.389 . S
C3026 C3027 1.387 . S
C3027 H3012 0.930 . S
C3027 C3022 1.390 . S
C3027 C3026 1.387 . S
H3028 C3040 0.930 . S
H3029 C3042 0.930 . S
H3030 C3043 0.930 . S
H3031 C3047 0.959 . S
H3032 C3047 0.959 . S
H3033 C3047 0.961 . S
H3034 C3048 0.960 . S
H3035 C3048 0.961 . S
H3036 C3048 0.959 . S
H3037 C3051 0.929 . S
H3038 C3052 0.931 . S
H3039 C3054 0.920 1_556 S
C3040 H3028 0.930 . S
C3040 C3041 1.399 . S
C3040 C3045 1.399 . S
C3041 C3040 1.399 . S
C3041 C3042 1.376 1_556 S
C3042 H3029 0.930 . S
C3042 C3041 1.376 1_554 S
C3042 C3043 1.388 . S
C3043 H3030 0.930 . S
C3043 C3042 1.388 . S
C3043 C3044 1.390 . S
C3044 C3043 1.390 . S
C3044 C3045 1.394 1_554 S
C3044 C3050 1.465 . S
C3045 C3040 1.399 . S
C3045 C3044 1.394 1_556 S
C3045 C3046 1.516 . S
C3046 C3045 1.516 . S
C3046 C3047 1.502 . S
C3046 C3048 1.561 1_556 S
C3046 C3049 1.526 1_556 S
C3047 H3031 0.959 . S
C3047 H3032 0.959 . S
C3047 H3033 0.961 . S
C3047 C3046 1.502 . S
C3048 H3034 0.960 . S
C3048 H3035 0.961 . S
C3048 H3036 0.959 . S
C3048 C3046 1.561 1_554 S
C3049 C3046 1.526 1_554 S
C3049 C3050 1.396 . S
C3049 C3054 1.379 . S
C3050 C3044 1.465 . S
C3050 C3049 1.396 . S
C3050 C3051 1.399 . S
C3051 H3037 0.929 . S
C3051 C3050 1.399 . S
C3051 C3052 1.385 . S
C3052 H3038 0.931 . S
C3052 C3051 1.385 . S
C3052 C3053 1.389 . S
C3053 C3052 1.389 . S
C3053 C3054 1.410 . S
C3054 H3039 0.920 1_554 S
C3054 C3049 1.379 . S
C3054 C3053 1.410 . S
H3055 C3067 0.930 . S
H3056 C3069 0.930 . S
H3057 C3070 0.930 . S
H3058 C3074 0.959 . S
H3059 C3074 0.959 . S
H3060 C3074 0.961 . S
H3061 C3075 0.960 . S
H3062 C3075 0.961 . S
H3063 C3075 0.959 . S
H3064 C3078 0.929 . S
H3065 C3079 0.931 . S
H3066 C3081 0.930 . S
C3067 H3055 0.930 . S
C3067 C3068 1.399 . S
C3067 C3072 1.399 . S
C3068 C3067 1.399 . S
C3068 C3069 1.376 . S
C3069 H3056 0.930 . S
C3069 C3068 1.376 . S
C3069 C3070 1.388 . S
C3070 H3057 0.930 . S
C3070 C3069 1.388 . S
C3070 C3071 1.390 . S
C3071 C3070 1.390 . S
C3071 C3072 1.394 . S
C3071 C3077 1.465 . S
C3072 C3067 1.399 . S
C3072 C3071 1.394 . S
C3072 C3073 1.516 . S
C3073 C3072 1.516 . S
C3073 C3074 1.502 . S
C3073 C3075 1.561 . S
C3073 C3076 1.526 . S
C3074 H3058 0.959 . S
C3074 H3059 0.959 . S
C3074 H3060 0.961 . S
C3074 C3073 1.502 . S
C3075 H3061 0.960 . S
C3075 H3062 0.961 . S
C3075 H3063 0.959 . S
C3075 C3073 1.561 . S
C3076 C3073 1.526 . S
C3076 C3077 1.396 . S
C3076 C3081 1.390 . S
C3077 C3071 1.465 . S
C3077 C3076 1.396 . S
C3077 C3078 1.399 . S
C3078 H3064 0.929 . S
C3078 C3077 1.399 . S
C3078 C3079 1.385 . S
C3079 H3065 0.931 . S
C3079 C3078 1.385 . S
C3079 C3080 1.389 . S
C3080 C3079 1.389 . S
C3080 C3081 1.387 . S
C3081 H3066 0.930 . S
C3081 C3076 1.390 . S
C3081 C3080 1.387 . S
H3082 C3094 0.930 . S
H3083 C3096 0.930 . S
H3084 C3097 0.930 . S
H3085 C3101 0.959 . S
H3086 C3101 0.959 . S
H3087 C3101 0.961 . S
H3088 C3102 0.960 . S
H3089 C3102 0.961 . S
H3090 C3102 0.959 . S
H3091 C3105 0.929 . S
H3092 C3106 0.931 . S
H3093 C3108 0.930 . S
C3094 H3082 0.930 . S
C3094 C3095 1.399 . S
C3094 C3099 1.399 . S
C3095 C3094 1.399 . S
C3095 C3096 1.376 . S
C3096 H3083 0.930 . S
C3096 C3095 1.376 . S
C3096 C3097 1.388 . S
C3097 H3084 0.930 . S
C3097 C3096 1.388 . S
C3097 C3098 1.390 . S
C3098 C3097 1.390 . S
C3098 C3099 1.394 . S
C3098 C3104 1.465 . S
C3099 C3094 1.399 . S
C3099 C3098 1.394 . S
C3099 C3100 1.516 . S
C3100 C3099 1.516 . S
C3100 C3101 1.502 . S
C3100 C3102 1.561 . S
C3100 C3103 1.526 . S
C3101 H3085 0.959 . S
C3101 H3086 0.959 . S
C3101 H3087 0.961 . S
C3101 C3100 1.502 . S
C3102 H3088 0.960 . S
C3102 H3089 0.961 . S
C3102 H3090 0.959 . S
C3102 C3100 1.561 . S
C3103 C3100 1.526 . S
C3103 C3104 1.396 . S
C3103 C3108 1.390 . S
C3104 C3098 1.465 . S
C3104 C3103 1.396 . S
C3104 C3105 1.399 . S
C3105 H3091 0.929 . S
C3105 C3104 1.399 . S
C3105 C3106 1.385 . S
C3106 H3092 0.931 . S
C3106 C3105 1.385 . S
C3106 C3107 1.389 . S
C3107 C3106 1.389 . S
C3107 C3108 1.387 . S
C3108 H3093 0.930 . S
C3108 C3103 1.390 . S
C3108 C3107 1.387 . S
H3109 C3121 0.930 . S
H3110 C3123 0.930 . S
H3111 C3124 0.930 . S
H3112 C3128 0.959 . S
H3113 C3128 0.959 . S
H3114 C3128 0.961 . S
H3115 C3129 0.960 . S
H3116 C3129 0.961 . S
H3117 C3129 0.959 . S
H3118 C3132 0.929 . S
H3119 C3133 0.931 . S
H3120 C3135 0.930 . S
C3121 H3109 0.930 . S
C3121 C3122 1.399 . S
C3121 C3126 1.399 . S
C3122 C3121 1.399 . S
C3122 C3123 1.376 . S
C3123 H3110 0.930 . S
C3123 C3122 1.376 . S
C3123 C3124 1.388 . S
C3124 H3111 0.930 . S
C3124 C3123 1.388 . S
C3124 C3125 1.390 . S
C3125 C3124 1.390 . S
C3125 C3126 1.394 . S
C3125 C3131 1.465 . S
C3126 C3121 1.399 . S
C3126 C3125 1.394 . S
C3126 C3127 1.516 . S
C3127 C3126 1.516 . S
C3127 C3128 1.502 . S
C3127 C3129 1.561 . S
C3127 C3130 1.526 . S
C3128 H3112 0.959 . S
C3128 H3113 0.959 . S
C3128 H3114 0.961 . S
C3128 C3127 1.502 . S
C3129 H3115 0.960 . S
C3129 H3116 0.961 . S
C3129 H3117 0.959 . S
C3129 C3127 1.561 . S
C3130 C3127 1.526 . S
C3130 C3131 1.396 . S
C3130 C3135 1.390 . S
C3131 C3125 1.465 . S
C3131 C3130 1.396 . S
C3131 C3132 1.399 . S
C3132 H3118 0.929 . S
C3132 C3131 1.399 . S
C3132 C3133 1.385 . S
C3133 H3119 0.931 . S
C3133 C3132 1.385 . S
C3133 C3134 1.389 . S
C3134 C3133 1.389 . S
C3134 C3135 1.387 . S
C3135 H3120 0.930 . S
C3135 C3130 1.390 . S
C3135 C3134 1.387 . S
H3136 C3148 0.930 . S
H3137 C3150 0.930 . S
H3138 C3151 0.930 . S
H3139 C3155 0.959 . S
H3140 C3155 0.959 . S
H3141 C3155 0.961 . S
H3142 C3156 0.960 . S
H3143 C3156 0.961 . S
H3144 C3156 0.959 . S
H3145 C3159 0.929 . S
H3146 C3160 0.931 . S
H3147 C3162 0.930 . S
C3148 H3136 0.930 . S
C3148 C3149 1.399 . S
C3148 C3153 1.399 . S
C3149 C3148 1.399 . S
C3149 C3150 1.376 . S
C3150 H3137 0.930 . S
C3150 C3149 1.376 . S
C3150 C3151 1.388 . S
C3151 H3138 0.930 . S
C3151 C3150 1.388 . S
C3151 C3152 1.390 . S
C3152 C3151 1.390 . S
C3152 C3153 1.394 . S
C3152 C3158 1.465 . S
C3153 C3148 1.399 . S
C3153 C3152 1.394 . S
C3153 C3154 1.516 . S
C3154 C3153 1.516 . S
C3154 C3155 1.502 . S
C3154 C3156 1.561 . S
C3154 C3157 1.526 . S
C3155 H3139 0.959 . S
C3155 H3140 0.959 . S
C3155 H3141 0.961 . S
C3155 C3154 1.502 . S
C3156 H3142 0.960 . S
C3156 H3143 0.961 . S
C3156 H3144 0.959 . S
C3156 C3154 1.561 . S
C3157 C3154 1.526 . S
C3157 C3158 1.396 . S
C3157 C3162 1.390 . S
C3158 C3152 1.465 . S
C3158 C3157 1.396 . S
C3158 C3159 1.399 . S
C3159 H3145 0.929 . S
C3159 C3158 1.399 . S
C3159 C3160 1.385 . S
C3160 H3146 0.931 . S
C3160 C3159 1.385 . S
C3160 C3161 1.389 . S
C3161 C3160 1.389 . S
C3161 C3162 1.387 . S
C3162 H3147 0.930 . S
C3162 C3157 1.390 . S
C3162 C3161 1.387 . S
H3163 C3175 0.930 . S
H3164 C3177 0.930 . S
H3165 C3178 0.930 . S
H3166 C3182 0.959 . S
H3167 C3182 0.959 . S
H3168 C3182 0.961 . S
H3169 C3183 0.960 . S
H3170 C3183 0.961 . S
H3171 C3183 0.959 . S
H3172 C3186 0.929 . S
H3173 C3187 0.931 . S
H3174 C3189 0.930 . S
C3175 H3163 0.930 . S
C3175 C3176 1.399 . S
C3175 C3180 1.399 . S
C3176 C3175 1.399 . S
C3176 C3177 1.376 . S
C3177 H3164 0.930 . S
C3177 C3176 1.376 . S
C3177 C3178 1.388 . S
C3178 H3165 0.930 . S
C3178 C3177 1.388 . S
C3178 C3179 1.390 . S
C3179 C3178 1.390 . S
C3179 C3180 1.394 . S
C3179 C3185 1.465 . S
C3180 C3175 1.399 . S
C3180 C3179 1.394 . S
C3180 C3181 1.516 . S
C3181 C3180 1.516 . S
C3181 C3182 1.502 . S
C3181 C3183 1.561 . S
C3181 C3184 1.526 . S
C3182 H3166 0.959 . S
C3182 H3167 0.959 . S
C3182 H3168 0.961 . S
C3182 C3181 1.502 . S
C3183 H3169 0.960 . S
C3183 H3170 0.961 . S
C3183 H3171 0.959 . S
C3183 C3181 1.561 . S
C3184 C3181 1.526 . S
C3184 C3185 1.396 . S
C3184 C3189 1.390 . S
C3185 C3179 1.465 . S
C3185 C3184 1.396 . S
C3185 C3186 1.399 . S
C3186 H3172 0.929 . S
C3186 C3185 1.399 . S
C3186 C3187 1.385 . S
C3187 H3173 0.931 . S
C3187 C3186 1.385 . S
C3187 C3188 1.389 . S
C3188 C3187 1.389 . S
C3188 C3189 1.387 . S
C3189 H3174 0.930 . S
C3189 C3184 1.390 . S
C3189 C3188 1.387 . S
H3190 C3202 0.930 . S
H3191 C3204 0.930 . S
H3192 C3205 0.930 . S
H3193 C3209 0.959 . S
H3194 C3209 0.959 . S
H3195 C3209 0.961 . S
H3196 C3210 0.960 . S
H3197 C3210 0.961 . S
H3198 C3210 0.959 . S
H3199 C3213 0.929 . S
H3200 C3214 0.931 . S
H3201 C3216 0.930 . S
C3202 H3190 0.930 . S
C3202 C3203 1.399 . S
C3202 C3207 1.399 . S
C3203 C3202 1.399 . S
C3203 C3204 1.376 . S
C3204 H3191 0.930 . S
C3204 C3203 1.376 . S
C3204 C3205 1.388 . S
C3205 H3192 0.930 . S
C3205 C3204 1.388 . S
C3205 C3206 1.390 . S
C3206 C3205 1.390 . S
C3206 C3207 1.394 . S
C3206 C3212 1.465 . S
C3207 C3202 1.399 . S
C3207 C3206 1.394 . S
C3207 C3208 1.516 . S
C3208 C3207 1.516 . S
C3208 C3209 1.502 . S
C3208 C3210 1.561 . S
C3208 C3211 1.526 . S
C3209 H3193 0.959 . S
C3209 H3194 0.959 . S
C3209 H3195 0.961 . S
C3209 C3208 1.502 . S
C3210 H3196 0.960 . S
C3210 H3197 0.961 . S
C3210 H3198 0.959 . S
C3210 C3208 1.561 . S
C3211 C3208 1.526 . S
C3211 C3212 1.396 . S
C3211 C3216 1.390 . S
C3212 C3206 1.465 . S
C3212 C3211 1.396 . S
C3212 C3213 1.399 1_655 S
C3213 H3199 0.929 . S
C3213 C3212 1.399 1_455 S
C3213 C3214 1.385 . S
C3214 H3200 0.931 . S
C3214 C3213 1.385 . S
C3214 C3215 1.387 1_455 S
C3215 C3214 1.387 1_655 S
C3215 C3216 1.390 . S
C3216 H3201 0.930 . S
C3216 C3211 1.390 . S
C3216 C3215 1.390 . S
H3217 C3229 0.930 . S
H3218 C3231 0.930 . S
H3219 C3232 0.930 . S
H3220 C3236 0.959 . S
H3221 C3236 0.959 . S
H3222 C3236 0.961 . S
H3223 C3237 0.960 . S
H3224 C3237 0.961 . S
H3225 C3237 0.959 . S
H3226 C3240 0.929 . S
H3227 C3241 0.931 . S
H3228 C3243 0.930 . S
C3229 H3217 0.930 . S
C3229 C3230 1.399 . S
C3229 C3234 1.399 . S
C3230 C3229 1.399 . S
C3230 C3231 1.376 . S
C3231 H3218 0.930 . S
C3231 C3230 1.376 . S
C3231 C3232 1.388 . S
C3232 H3219 0.930 . S
C3232 C3231 1.388 . S
C3232 C3233 1.390 . S
C3233 C3232 1.390 . S
C3233 C3234 1.394 . S
C3233 C3239 1.465 . S
C3234 C3229 1.399 . S
C3234 C3233 1.394 . S
C3234 C3235 1.516 . S
C3235 C3234 1.516 . S
C3235 C3236 1.502 . S
C3235 C3237 1.561 . S
C3235 C3238 1.526 . S
C3236 H3220 0.959 . S
C3236 H3221 0.959 . S
C3236 H3222 0.961 . S
C3236 C3235 1.502 . S
C3237 H3223 0.960 . S
C3237 H3224 0.961 . S
C3237 H3225 0.959 . S
C3237 C3235 1.561 . S
C3238 C3235 1.526 . S
C3238 C3239 1.396 . S
C3238 C3243 1.390 . S
C3239 C3233 1.465 . S
C3239 C3238 1.396 . S
C3239 C3240 1.399 . S
C3240 H3226 0.929 . S
C3240 C3239 1.399 . S
C3240 C3241 1.385 . S
C3241 H3227 0.931 . S
C3241 C3240 1.385 . S
C3241 C3242 1.389 . S
C3242 C3241 1.389 . S
C3242 C3243 1.387 . S
C3243 H3228 0.930 . S
C3243 C3238 1.390 . S
C3243 C3242 1.387 . S
H3244 C3256 0.930 . S
H3245 C3258 0.930 . S
H3246 C3259 0.930 . S
H3247 C3263 0.959 . S
H3248 C3263 0.959 . S
H3249 C3263 0.961 . S
H3250 C3264 0.960 . S
H3251 C3264 0.961 . S
H3252 C3264 0.959 . S
H3253 C3267 0.929 . S
H3254 C3268 0.931 . S
H3255 C3270 0.930 . S
C3256 H3244 0.930 . S
C3256 C3257 1.399 . S
C3256 C3261 1.399 . S
C3257 C3256 1.399 . S
C3257 C3258 1.376 . S
C3258 H3245 0.930 . S
C3258 C3257 1.376 . S
C3258 C3259 1.388 . S
C3259 H3246 0.930 . S
C3259 C3258 1.388 . S
C3259 C3260 1.390 . S
C3260 C3259 1.390 . S
C3260 C3261 1.394 . S
C3260 C3266 1.465 . S
C3261 C3256 1.399 . S
C3261 C3260 1.394 . S
C3261 C3262 1.516 . S
C3262 C3261 1.516 . S
C3262 C3263 1.502 . S
C3262 C3264 1.561 . S
C3262 C3265 1.526 . S
C3263 H3247 0.959 . S
C3263 H3248 0.959 . S
C3263 H3249 0.961 . S
C3263 C3262 1.502 . S
C3264 H3250 0.960 . S
C3264 H3251 0.961 . S
C3264 H3252 0.959 . S
C3264 C3262 1.561 . S
C3265 C3262 1.526 . S
C3265 C3266 1.396 . S
C3265 C3270 1.390 . S
C3266 C3260 1.465 . S
C3266 C3265 1.396 . S
C3266 C3267 1.399 . S
C3267 H3253 0.929 . S
C3267 C3266 1.399 . S
C3267 C3268 1.385 . S
C3268 H3254 0.931 . S
C3268 C3267 1.385 . S
C3268 C3269 1.389 . S
C3269 C3268 1.389 . S
C3269 C3270 1.387 . S
C3270 H3255 0.930 . S
C3270 C3265 1.390 . S
C3270 C3269 1.387 . S
H3271 C3283 0.930 . S
H3272 C3285 0.930 . S
H3273 C3286 0.930 . S
H3274 C3290 0.959 . S
H3275 C3290 0.959 . S
H3276 C3290 0.961 . S
H3277 C3291 0.960 . S
H3278 C3291 0.961 . S
H3279 C3291 0.959 . S
H3280 C3294 0.929 . S
H3281 C3295 0.931 . S
H3282 C3297 0.930 . S
C3283 H3271 0.930 . S
C3283 C3284 1.399 . S
C3283 C3288 1.399 . S
C3284 C3283 1.399 . S
C3284 C3285 1.376 . S
C3285 H3272 0.930 . S
C3285 C3284 1.376 . S
C3285 C3286 1.388 . S
C3286 H3273 0.930 . S
C3286 C3285 1.388 . S
C3286 C3287 1.390 . S
C3287 C3286 1.390 . S
C3287 C3288 1.394 . S
C3287 C3293 1.465 . S
C3288 C3283 1.399 . S
C3288 C3287 1.394 . S
C3288 C3289 1.516 . S
C3289 C3288 1.516 . S
C3289 C3290 1.502 . S
C3289 C3291 1.561 . S
C3289 C3292 1.526 . S
C3290 H3274 0.959 . S
C3290 H3275 0.959 . S
C3290 H3276 0.961 . S
C3290 C3289 1.502 . S
C3291 H3277 0.960 . S
C3291 H3278 0.961 . S
C3291 H3279 0.959 . S
C3291 C3289 1.561 . S
C3292 C3289 1.526 . S
C3292 C3293 1.396 . S
C3292 C3297 1.390 . S
C3293 C3287 1.465 . S
C3293 C3292 1.396 . S
C3293 C3294 1.399 . S
C3294 H3280 0.929 . S
C3294 C3293 1.399 . S
C3294 C3295 1.385 . S
C3295 H3281 0.931 . S
C3295 C3294 1.385 . S
C3295 C3296 1.389 . S
C3296 C3295 1.389 . S
C3296 C3297 1.387 . S
C3297 H3282 0.930 . S
C3297 C3292 1.390 . S
C3297 C3296 1.387 . S
H3298 C3310 0.930 . S
H3299 C3312 0.930 . S
H3300 C3313 0.930 . S
H3301 C3317 0.959 . S
H3302 C3317 0.959 . S
H3303 C3317 0.961 . S
H3304 C3318 0.960 . S
H3305 C3318 0.961 . S
H3306 C3318 0.959 . S
H3307 C3321 0.929 . S
H3308 C3322 0.931 1_455 S
H3309 C3324 0.930 . S
C3310 H3298 0.930 . S
C3310 C3311 1.399 . S
C3310 C3315 1.399 . S
C3311 C3310 1.399 . S
C3311 C3312 1.376 . S
C3312 H3299 0.930 . S
C3312 C3311 1.376 . S
C3312 C3313 1.388 . S
C3313 H3300 0.930 . S
C3313 C3312 1.388 . S
C3313 C3314 1.390 . S
C3314 C3313 1.390 . S
C3314 C3315 1.394 . S
C3314 C3320 1.465 . S
C3315 C3310 1.399 . S
C3315 C3314 1.394 . S
C3315 C3316 1.516 . S
C3316 C3315 1.516 . S
C3316 C3317 1.502 . S
C3316 C3318 1.561 . S
C3316 C3319 1.526 . S
C3317 H3301 0.959 . S
C3317 H3302 0.959 . S
C3317 H3303 0.961 . S
C3317 C3316 1.502 . S
C3318 H3304 0.960 . S
C3318 H3305 0.961 . S
C3318 H3306 0.959 . S
C3318 C3316 1.561 . S
C3319 C3316 1.526 . S
C3319 C3320 1.396 . S
C3319 C3324 1.390 . S
C3320 C3314 1.465 . S
C3320 C3319 1.396 . S
C3320 C3321 1.399 . S
C3321 H3307 0.929 . S
C3321 C3320 1.399 . S
C3321 C3322 1.385 . S
C3322 H3308 0.931 1_655 S
C3322 C3321 1.385 . S
C3322 C3323 1.389 . S
C3323 C3322 1.389 . S
C3323 C3324 1.387 . S
C3324 H3309 0.930 . S
C3324 C3319 1.390 . S
C3324 C3323 1.387 . S
H3325 C3337 0.930 . S
H3326 C3339 0.930 . S
H3327 C3340 0.930 . S
H3328 C3344 0.959 . S
H3329 C3344 0.959 . S
H3330 C3344 0.961 . S
H3331 C3345 0.960 . S
H3332 C3345 0.961 . S
H3333 C3345 0.959 . S
H3334 C3348 0.929 . S
H3335 C3349 0.931 . S
H3336 C3351 0.930 . S
C3337 H3325 0.930 . S
C3337 C3338 1.399 . S
C3337 C3342 1.399 . S
C3338 C3337 1.399 . S
C3338 C3339 1.376 . S
C3339 H3326 0.930 . S
C3339 C3338 1.376 . S
C3339 C3340 1.388 . S
C3340 H3327 0.930 . S
C3340 C3339 1.388 . S
C3340 C3341 1.390 . S
C3341 C3340 1.390 . S
C3341 C3342 1.394 . S
C3341 C3347 1.465 . S
C3342 C3337 1.399 . S
C3342 C3341 1.394 . S
C3342 C3343 1.516 . S
C3343 C3342 1.516 . S
C3343 C3344 1.502 . S
C3343 C3345 1.561 . S
C3343 C3346 1.526 . S
C3344 H3328 0.959 . S
C3344 H3329 0.959 . S
C3344 H3330 0.961 . S
C3344 C3343 1.502 . S
C3345 H3331 0.960 . S
C3345 H3332 0.961 . S
C3345 H3333 0.959 . S
C3345 C3343 1.561 . S
C3346 C3343 1.526 . S
C3346 C3347 1.396 . S
C3346 C3351 1.390 . S
C3347 C3341 1.465 . S
C3347 C3346 1.396 . S
C3347 C3348 1.399 . S
C3348 H3334 0.929 . S
C3348 C3347 1.399 . S
C3348 C3349 1.385 . S
C3349 H3335 0.931 . S
C3349 C3348 1.385 . S
C3349 C3350 1.389 . S
C3350 C3349 1.389 . S
C3350 C3351 1.387 . S
C3351 H3336 0.930 . S
C3351 C3346 1.390 . S
C3351 C3350 1.387 . S
H3352 C3364 0.930 . S
H3353 C3366 0.930 . S
H3354 C3367 0.930 . S
H3355 C3371 0.959 . S
H3356 C3371 0.959 . S
H3357 C3371 0.961 . S
H3358 C3372 0.960 . S
H3359 C3372 0.961 . S
H3360 C3372 0.959 . S
H3361 C3375 0.929 . S
H3362 C3376 0.931 . S
H3363 C3378 0.930 . S
C3364 H3352 0.930 . S
C3364 C3365 1.399 . S
C3364 C3369 1.399 . S
C3365 C3364 1.399 . S
C3365 C3366 1.376 . S
C3366 H3353 0.930 . S
C3366 C3365 1.376 . S
C3366 C3367 1.388 . S
C3367 H3354 0.930 . S
C3367 C3366 1.388 . S
C3367 C3368 1.390 . S
C3368 C3367 1.390 . S
C3368 C3369 1.394 . S
C3368 C3374 1.465 . S
C3369 C3364 1.399 . S
C3369 C3368 1.394 . S
C3369 C3370 1.516 . S
C3370 C3369 1.516 . S
C3370 C3371 1.502 . S
C3370 C3372 1.561 . S
C3370 C3373 1.526 . S
C3371 H3355 0.959 . S
C3371 H3356 0.959 . S
C3371 H3357 0.961 . S
C3371 C3370 1.502 . S
C3372 H3358 0.960 . S
C3372 H3359 0.961 . S
C3372 H3360 0.959 . S
C3372 C3370 1.561 . S
C3373 C3370 1.526 . S
C3373 C3374 1.396 . S
C3373 C3378 1.390 . S
C3374 C3368 1.465 . S
C3374 C3373 1.396 . S
C3374 C3375 1.399 . S
C3375 H3361 0.929 . S
C3375 C3374 1.399 . S
C3375 C3376 1.385 . S
C3376 H3362 0.931 . S
C3376 C3375 1.385 . S
C3376 C3377 1.389 . S
C3377 C3376 1.389 . S
C3377 C3378 1.387 . S
C3378 H3363 0.930 . S
C3378 C3373 1.390 . S
C3378 C3377 1.387 . S
H3379 C3391 0.930 . S
H3380 C3393 0.930 . S
H3381 C3394 0.930 . S
H3382 C3398 0.959 . S
H3383 C3398 0.959 . S
H3384 C3398 0.961 . S
H3385 C3399 0.960 . S
H3386 C3399 0.961 . S
H3387 C3399 0.959 . S
H3388 C3402 0.929 . S
H3389 C3403 0.931 . S
H3390 C3405 0.930 1_545 S
C3391 H3379 0.930 . S
C3391 C3392 1.399 . S
C3391 C3396 1.399 . S
C3392 C3391 1.399 . S
C3392 C3393 1.376 . S
C3393 H3380 0.930 . S
C3393 C3392 1.376 . S
C3393 C3394 1.388 . S
C3394 H3381 0.930 . S
C3394 C3393 1.388 . S
C3394 C3395 1.390 . S
C3395 C3394 1.390 . S
C3395 C3396 1.394 . S
C3395 C3401 1.465 . S
C3396 C3391 1.399 . S
C3396 C3395 1.394 . S
C3396 C3397 1.516 . S
C3397 C3396 1.516 . S
C3397 C3398 1.502 1_565 S
C3397 C3399 1.561 . S
C3397 C3400 1.526 . S
C3398 H3382 0.959 . S
C3398 H3383 0.959 . S
C3398 H3384 0.961 . S
C3398 C3397 1.502 1_545 S
C3399 H3385 0.960 . S
C3399 H3386 0.961 . S
C3399 H3387 0.959 . S
C3399 C3397 1.561 . S
C3400 C3397 1.526 . S
C3400 C3401 1.396 . S
C3400 C3405 1.390 . S
C3401 C3395 1.465 . S
C3401 C3400 1.396 . S
C3401 C3402 1.399 . S
C3402 H3388 0.929 . S
C3402 C3401 1.399 . S
C3402 C3403 1.385 . S
C3403 H3389 0.931 . S
C3403 C3402 1.385 . S
C3403 C3404 1.389 . S
C3404 C3403 1.389 . S
C3404 C3405 1.387 . S
C3405 H3390 0.930 1_565 S
C3405 C3400 1.390 . S
C3405 C3404 1.387 . S
H3406 C3418 0.930 . S
H3407 C3420 0.930 . S
H3408 C3421 0.930 . S
H3409 C3425 0.959 . S
H3410 C3425 0.959 . S
H3411 C3425 0.961 . S
H3412 C3426 0.960 . S
H3413 C3426 0.961 . S
H3414 C3426 0.959 . S
H3415 C3429 0.929 . S
H3416 C3430 0.931 . S
H3417 C3432 0.930 . S
C3418 H3406 0.930 . S
C3418 C3419 1.399 . S
C3418 C3423 1.399 . S
C3419 C3418 1.399 . S
C3419 C3420 1.376 . S
C3420 H3407 0.930 . S
C3420 C3419 1.376 . S
C3420 C3421 1.388 . S
C3421 H3408 0.930 . S
C3421 C3420 1.388 . S
C3421 C3422 1.390 . S
C3422 C3421 1.390 . S
C3422 C3423 1.394 . S
C3422 C3428 1.465 . S
C3423 C3418 1.399 . S
C3423 C3422 1.394 . S
C3423 C3424 1.516 . S
C3424 C3423 1.516 . S
C3424 C3425 1.502 . S
C3424 C3426 1.561 . S
C3424 C3427 1.526 . S
C3425 H3409 0.959 . S
C3425 H3410 0.959 . S
C3425 H3411 0.961 . S
C3425 C3424 1.502 . S
C3426 H3412 0.960 . S
C3426 H3413 0.961 . S
C3426 H3414 0.959 . S
C3426 C3424 1.561 . S
C3427 C3424 1.526 . S
C3427 C3428 1.396 . S
C3427 C3432 1.390 . S
C3428 C3422 1.465 . S
C3428 C3427 1.396 . S
C3428 C3429 1.399 . S
C3429 H3415 0.929 . S
C3429 C3428 1.399 . S
C3429 C3430 1.385 . S
C3430 H3416 0.931 . S
C3430 C3429 1.385 . S
C3430 C3431 1.389 . S
C3431 C3430 1.389 . S
C3431 C3432 1.387 . S
C3432 H3417 0.930 . S
C3432 C3427 1.390 . S
C3432 C3431 1.387 . S
H3433 C3445 0.930 . S
H3434 C3447 0.930 . S
H3435 C3448 0.930 . S
H3436 C3452 0.959 . S
H3437 C3452 0.959 . S
H3438 C3452 0.961 . S
H3439 C3453 0.960 . S
H3440 C3453 0.961 . S
H3441 C3453 0.959 . S
H3442 C3456 0.929 . S
H3443 C3457 0.931 . S
H3444 C3459 0.930 . S
C3445 H3433 0.930 . S
C3445 C3446 1.399 . S
C3445 C3450 1.399 . S
C3446 C3445 1.399 . S
C3446 C3447 1.376 . S
C3447 H3434 0.930 . S
C3447 C3446 1.376 . S
C3447 C3448 1.388 . S
C3448 H3435 0.930 . S
C3448 C3447 1.388 . S
C3448 C3449 1.390 . S
C3449 C3448 1.390 . S
C3449 C3450 1.394 . S
C3449 C3455 1.465 . S
C3450 C3445 1.399 . S
C3450 C3449 1.394 . S
C3450 C3451 1.516 . S
C3451 C3450 1.516 . S
C3451 C3452 1.502 . S
C3451 C3453 1.561 . S
C3451 C3454 1.526 . S
C3452 H3436 0.959 . S
C3452 H3437 0.959 . S
C3452 H3438 0.961 . S
C3452 C3451 1.502 . S
C3453 H3439 0.960 . S
C3453 H3440 0.961 . S
C3453 H3441 0.959 . S
C3453 C3451 1.561 . S
C3454 C3451 1.526 . S
C3454 C3455 1.396 . S
C3454 C3459 1.390 . S
C3455 C3449 1.465 . S
C3455 C3454 1.396 . S
C3455 C3456 1.399 . S
C3456 H3442 0.929 . S
C3456 C3455 1.399 . S
C3456 C3457 1.385 . S
C3457 H3443 0.931 . S
C3457 C3456 1.385 . S
C3457 C3458 1.389 . S
C3458 C3457 1.389 . S
C3458 C3459 1.387 . S
C3459 H3444 0.930 . S
C3459 C3454 1.390 . S
C3459 C3458 1.387 . S
H3460 C3472 0.930 . S
H3461 C3474 0.930 . S
H3462 C3475 0.930 . S
H3463 C3479 0.959 . S
H3464 C3479 0.959 . S
H3465 C3479 0.961 . S
H3466 C3480 0.960 . S
H3467 C3480 0.961 . S
H3468 C3480 0.959 . S
H3469 C3483 0.929 . S
H3470 C3484 0.931 . S
H3471 C3486 0.930 . S
C3472 H3460 0.930 . S
C3472 C3473 1.399 . S
C3472 C3477 1.399 . S
C3473 C3472 1.399 . S
C3473 C3474 1.376 . S
C3474 H3461 0.930 . S
C3474 C3473 1.376 . S
C3474 C3475 1.388 . S
C3475 H3462 0.930 . S
C3475 C3474 1.388 . S
C3475 C3476 1.390 . S
C3476 C3475 1.390 . S
C3476 C3477 1.394 . S
C3476 C3482 1.465 . S
C3477 C3472 1.399 . S
C3477 C3476 1.394 . S
C3477 C3478 1.516 . S
C3478 C3477 1.516 . S
C3478 C3479 1.502 . S
C3478 C3480 1.561 . S
C3478 C3481 1.526 . S
C3479 H3463 0.959 . S
C3479 H3464 0.959 . S
C3479 H3465 0.961 . S
C3479 C3478 1.502 . S
C3480 H3466 0.960 . S
C3480 H3467 0.961 . S
C3480 H3468 0.959 . S
C3480 C3478 1.561 . S
C3481 C3478 1.526 . S
C3481 C3482 1.396 . S
C3481 C3486 1.390 . S
C3482 C3476 1.465 . S
C3482 C3481 1.396 . S
C3482 C3483 1.399 . S
C3483 H3469 0.929 . S
C3483 C3482 1.399 . S
C3483 C3484 1.385 . S
C3484 H3470 0.931 . S
C3484 C3483 1.385 . S
C3484 C3485 1.389 . S
C3485 C3484 1.389 . S
C3485 C3486 1.387 . S
C3486 H3471 0.930 . S
C3486 C3481 1.390 . S
C3486 C3485 1.387 . S
H3487 C3499 0.930 . S
H3488 C3501 0.930 . S
H3489 C3502 0.930 . S
H3490 C3506 0.996 . S
H3491 C3506 0.964 . S
H3492 C3506 0.952 1_554 S
H3493 C3507 0.960 . S
H3494 C3507 0.961 . S
H3495 C3507 0.959 . S
H3496 C3510 0.929 . S
H3497 C3511 0.931 . S
H3498 C3513 0.930 . S
C3499 H3487 0.930 . S
C3499 C3500 1.399 . S
C3499 C3504 1.399 . S
C3500 C3499 1.399 . S
C3500 C3501 1.376 . S
C3501 H3488 0.930 . S
C3501 C3500 1.376 . S
C3501 C3502 1.388 . S
C3502 H3489 0.930 . S
C3502 C3501 1.388 . S
C3502 C3503 1.390 . S
C3503 C3502 1.390 . S
C3503 C3504 1.394 . S
C3503 C3509 1.465 . S
C3504 C3499 1.399 . S
C3504 C3503 1.394 . S
C3504 C3505 1.516 . S
C3505 C3504 1.516 . S
C3505 C3506 1.470 1_554 S
C3505 C3507 1.561 . S
C3505 C3508 1.526 . S
C3506 H3490 0.996 . S
C3506 H3491 0.964 . S
C3506 H3492 0.952 1_556 S
C3506 C3505 1.470 1_556 S
C3507 H3493 0.960 . S
C3507 H3494 0.961 . S
C3507 H3495 0.959 . S
C3507 C3505 1.561 . S
C3508 C3505 1.526 . S
C3508 C3509 1.396 . S
C3508 C3513 1.390 . S
C3509 C3503 1.465 . S
C3509 C3508 1.396 . S
C3509 C3510 1.399 . S
C3510 H3496 0.929 . S
C3510 C3509 1.399 . S
C3510 C3511 1.385 . S
C3511 H3497 0.931 . S
C3511 C3510 1.385 . S
C3511 C3512 1.389 . S
C3512 C3511 1.389 . S
C3512 C3513 1.387 . S
C3513 H3498 0.930 . S
C3513 C3508 1.390 . S
C3513 C3512 1.387 . S
H3514 C3526 0.930 . S
H3515 C3528 0.930 . S
H3516 C3529 0.930 . S
H3517 C3533 0.959 . S
H3518 C3533 0.959 . S
H3519 C3533 0.961 . S
H3520 C3534 0.960 . S
H3521 C3534 0.961 . S
H3522 C3534 0.959 . S
H3523 C3537 0.929 . S
H3524 C3538 0.931 . S
H3525 C3540 0.930 . S
C3526 H3514 0.930 . S
C3526 C3527 1.399 . S
C3526 C3531 1.399 . S
C3527 C3526 1.399 . S
C3527 C3528 1.376 . S
C3528 H3515 0.930 . S
C3528 C3527 1.376 . S
C3528 C3529 1.388 . S
C3529 H3516 0.930 . S
C3529 C3528 1.388 . S
C3529 C3530 1.390 . S
C3530 C3529 1.390 . S
C3530 C3531 1.394 . S
C3530 C3536 1.465 . S
C3531 C3526 1.399 . S
C3531 C3530 1.394 . S
C3531 C3532 1.516 . S
C3532 C3531 1.516 . S
C3532 C3533 1.502 . S
C3532 C3534 1.561 . S
C3532 C3535 1.526 . S
C3533 H3517 0.959 . S
C3533 H3518 0.959 . S
C3533 H3519 0.961 . S
C3533 C3532 1.502 . S
C3534 H3520 0.960 . S
C3534 H3521 0.961 . S
C3534 H3522 0.959 . S
C3534 C3532 1.561 . S
C3535 C3532 1.526 . S
C3535 C3536 1.396 . S
C3535 C3540 1.390 . S
C3536 C3530 1.465 . S
C3536 C3535 1.396 . S
C3536 C3537 1.399 . S
C3537 H3523 0.929 . S
C3537 C3536 1.399 . S
C3537 C3538 1.385 . S
C3538 H3524 0.931 . S
C3538 C3537 1.385 . S
C3538 C3539 1.389 . S
C3539 C3538 1.389 . S
C3539 C3540 1.387 . S
C3540 H3525 0.930 . S
C3540 C3535 1.390 . S
C3540 C3539 1.387 . S
H3541 C3553 0.930 . S
H3542 C3555 0.930 . S
H3543 C3556 0.930 . S
H3544 C3560 0.959 . S
H3545 C3560 0.959 . S
H3546 C3560 0.961 . S
H3547 C3561 0.960 . S
H3548 C3561 0.961 . S
H3549 C3561 0.959 . S
H3550 C3564 0.929 . S
H3551 C3565 0.931 . S
H3552 C3567 0.930 . S
C3553 H3541 0.930 . S
C3553 C3554 1.399 . S
C3553 C3558 1.399 . S
C3554 C3553 1.399 . S
C3554 C3555 1.376 . S
C3555 H3542 0.930 . S
C3555 C3554 1.376 . S
C3555 C3556 1.388 . S
C3556 H3543 0.930 . S
C3556 C3555 1.388 . S
C3556 C3557 1.390 . S
C3557 C3556 1.390 . S
C3557 C3558 1.394 . S
C3557 C3563 1.465 . S
C3558 C3553 1.399 . S
C3558 C3557 1.394 . S
C3558 C3559 1.516 . S
C3559 C3558 1.516 . S
C3559 C3560 1.502 . S
C3559 C3561 1.561 . S
C3559 C3562 1.526 . S
C3560 H3544 0.959 . S
C3560 H3545 0.959 . S
C3560 H3546 0.961 . S
C3560 C3559 1.502 . S
C3561 H3547 0.960 . S
C3561 H3548 0.961 . S
C3561 H3549 0.959 . S
C3561 C3559 1.561 . S
C3562 C3559 1.526 . S
C3562 C3563 1.396 . S
C3562 C3567 1.390 . S
C3563 C3557 1.465 . S
C3563 C3562 1.396 . S
C3563 C3564 1.399 . S
C3564 H3550 0.929 . S
C3564 C3563 1.399 . S
C3564 C3565 1.385 . S
C3565 H3551 0.931 . S
C3565 C3564 1.385 . S
C3565 C3566 1.389 . S
C3566 C3565 1.389 . S
C3566 C3567 1.387 . S
C3567 H3552 0.930 . S
C3567 C3562 1.390 . S
C3567 C3566 1.387 . S
C989 C109 2.031 . S
C1001 C355 1.959 . S
C1016 C61 1.969 . S
C1028 C384 2.147 . S
C1043 C74 1.168 . S
C1055 C435 1.206 . S
C1082 C461 1.493 . S
C1070 C96 1.538 . S
C1097 C25 0.505 . S
C1109 C501 0.545 . S
C1136 C551 0.292 . S
C1124 C40 0.233 . S
C1163 C594 0.595 . S
C1151 C46 0.245 . S
C1178 C5 0.926 . S
C1190 C631 1.004 . S
C1217 C344 2.245 . S
C1205 C229 1.906 . S
C1232 C249 0.418 . S
C1244 C381 0.520 . S
C1271 C424 2.248 . S
C1259 C271 2.048 1_545 S
C1298 C475 1.409 . S
C1286 C172 1.364 1_556 S
C1313 C236 1.798 . S
C1325 C515 1.783 1_655 S
C1352 C554 0.405 . S
C1340 C242 0.492 . S
C1379 C585 1.879 1_556 S
C1367 C278 1.935 . S
C1406 C634 2.028 . S
C1394 C179 2.015 . S
C1433 C341 1.352 . S
C1421 C159 0.951 . S
C1448 C285 1.988 . S
C1460 C664 2.188 . S
C1487 C705 2.277 . S
C1475 C333 2.295 . S
C1514 C751 0.525 . S
C1502 C320 0.486 . S
C1529 C123 2.501 . S
C1541 C625 2.446 . S
C1556 C138 1.480 . S
C1568 C421 1.437 . S
C1583 C326 2.286 . S
C1595 C784 2.271 . S
C1622 C835 1.890 . S
C1610 C298 1.865 . S
C1649 C345 1.964 . S
C1637 C67 1.969 . S
C1676 C834 2.044 . S
C1664 C110 2.068 . S
C1691 C88 1.197 . S
C1703 C425 1.228 . S
C1718 C75 1.248 . S
C1730 C791 1.400 . S
C1757 C511 0.516 . S
C1745 C11 0.705 . S
C1772 C47 0.743 . S
C1784 C701 0.235 . S
C1811 C584 0.579 . S
C1799 C32 0.798 . S
C1838 C861 1.244 . S
C1826 C26 1.203 . S
C1865 C354 2.379 . S
C1853 C152 2.376 . S
C1892 C831 0.405 . S
C1880 C319 0.728 . S
C1907 C124 2.253 . S
C1919 C434 2.253 . S
C1934 C284 1.426 . S
C1946 C785 1.398 . S
C1961 C145 1.622 . S
C1973 C505 1.787 . S
C2000 C704 0.563 . S
C1988 C312 0.527 . S
C2015 C117 1.455 . S
C2027 C595 1.657 . S
C2042 C291 1.944 . S
C2054 C864 1.997 . S
C2069 C194 1.503 . S
C2081 C351 1.499 . S
C2096 C180 2.139 . S
C2108 C674 2.119 . S
C2123 C263 2.165 . S
C2135 C555 2.177 . S
C2150 C243 0.671 . S
C2162 C741 0.428 . S
C2189 C875 2.466 . S
C2177 C277 2.484 . S
C2204 C215 1.232 . S
C2216 C431 1.375 . S
C2243 C474 2.154 . S
C2231 C256 2.128 . S
C2270 C385 1.978 . S
C2258 C200 1.988 . S
C2285 C81 2.031 . S
C2297 C915 1.957 . S
C2324 C824 2.148 . S
C2312 C89 1.972 . S
C2339 C102 1.235 . S
C2351 C955 1.199 . S
C2366 C68 1.514 . S
C2378 C781 1.537 . S
C2393 C53 0.590 . S
C2405 C661 0.578 . S
C2432 C711 0.296 . S
C2420 C12 0.247 . S
C2459 C754 0.551 . S
C2447 C18 0.240 . S
C2486 C871 1.040 . S
C2474 C33 0.799 . S
C2513 C904 2.246 . S
C2501 C257 1.917 . S
C2528 C193 0.399 . S
C2540 C821 0.412 . S
C2567 C944 2.254 . S
C2555 C201 2.076 . S
C2594 C795 1.391 . S
C2582 C214 1.391 . S
C2621 C675 1.813 . S
C2609 C264 1.822 . S
C2636 C186 0.449 . S
C2648 C714 0.635 . S
C2675 C745 1.850 . S
C2663 C208 1.929 . S
C2690 C221 2.016 . S
C2702 C874 2.028 . S
C2729 C901 1.377 . S
C2717 C313 0.882 . S
C2744 C131 1.974 . S
C2756 C504 2.183 . S
C2783 C545 2.277 . S
C2771 C151 2.293 . S
C2810 C591 0.494 . S
C2798 C166 0.523 . S
C2837 C865 2.409 . S
C2825 C305 2.480 . S
C2852 C292 1.482 . S
C2864 C941 1.434 . S
C2891 C464 2.285 . S
C2879 C144 2.296 . S
C2918 C395 1.885 . S
C2906 C116 1.817 . S
C2933 C95 1.973 . S
C2945 C905 1.961 . S
C2972 C394 2.041 . S
C2960 C82 2.075 . S
C2987 C60 1.183 . S
C2999 C945 1.235 . S
C3014 C103 1.368 . S
C3026 C471 1.453 . S
C3041 C39 0.580 . S
C3053 C671 0.637 . S
C3080 C541 0.270 . S
C3068 C19 0.651 . S
C3095 C4 0.662 . S
C3107 C744 0.602 . S
C3122 C54 1.164 . S
C3134 C621 1.239 . S
C3161 C914 2.381 . S
C3149 C334 2.374 . S
C3176 C165 0.527 . S
C3188 C391 0.516 . S
C3215 C954 2.218 1_655 S
C3203 C306 2.266 . S
C3230 C130 1.395 . S
C3242 C465 1.442 . S
C3257 C327 1.624 . S
C3269 C665 1.770 . S
C3296 C544 0.476 . S
C3284 C158 0.476 . S
C3311 C299 1.477 . S
C3323 C755 1.709 1_655 S
C3350 C624 1.987 . S
C3338 C137 1.958 . S
C3377 C911 1.473 . S
C3365 C250 1.494 . S
C3404 C514 2.131 1_565 S
C3392 C222 2.131 . S
C3419 C235 2.193 . S
C3431 C715 2.143 . S
C3458 C581 0.412 . S
C3446 C187 0.732 . S
C3473 C207 2.511 . S
C3485 C635 2.428 . S
C3500 C173 1.238 . S
C3512 C951 1.385 . S
C3539 C794 2.154 . S
C3527 C228 2.127 . S
C3566 C825 1.942 . S
C3554 C270 2.008 . S
