# Generated by pormake.
# Topology pth, (4,4)-cn, num edge types: 1
# Building blocks:
#     Node 0, Type 0, BuildingBlock: KUFVIS_clean_sbu_0, # of connection points: 4
#     Node 1, Type 0, BuildingBlock: KUFVIS_clean_sbu_0, # of connection points: 4
#     Node 2, Type 0, BuildingBlock: KUFVIS_clean_sbu_0, # of connection points: 4
#     Node 3, Type 1, BuildingBlock: KOZSID_clean_sbu_0, # of connection points: 4
#     Node 4, Type 1, BuildingBlock: KOZSID_clean_sbu_0, # of connection points: 4
#     Node 5, Type 1, BuildingBlock: KOZSID_clean_sbu_0, # of connection points: 4
#     Edge 6, Type (0, 1), BuildingBlock: FUNLAD_clean_linker_0, # of connection points: 2
#     Edge 7, Type (0, 1), BuildingBlock: FUNLAD_clean_linker_0, # of connection points: 2
#     Edge 8, Type (0, 1), BuildingBlock: FUNLAD_clean_linker_0, # of connection points: 2
#     Edge 9, Type (0, 1), BuildingBlock: FUNLAD_clean_linker_0, # of connection points: 2
#     Edge 10, Type (0, 1), BuildingBlock: FUNLAD_clean_linker_0, # of connection points: 2
#     Edge 11, Type (0, 1), BuildingBlock: FUNLAD_clean_linker_0, # of connection points: 2
#     Edge 12, Type (0, 1), BuildingBlock: FUNLAD_clean_linker_0, # of connection points: 2
#     Edge 13, Type (0, 1), BuildingBlock: FUNLAD_clean_linker_0, # of connection points: 2
#     Edge 14, Type (0, 1), BuildingBlock: FUNLAD_clean_linker_0, # of connection points: 2
#     Edge 15, Type (0, 1), BuildingBlock: FUNLAD_clean_linker_0, # of connection points: 2
#     Edge 16, Type (0, 1), BuildingBlock: FUNLAD_clean_linker_0, # of connection points: 2
#     Edge 17, Type (0, 1), BuildingBlock: FUNLAD_clean_linker_0, # of connection points: 2
# Relax obj value: 0.010
# Max RMSD: 0.083
# Mean RMSD: 0.052
data_MOF--net-pth--node1-KUFVIS_clean_sbu_0--node2-KOZSID_clean_sbu_0--edge1-FUNLAD_clean_linker_0
_symmetry_space_group_name_H-M    P1
_symmetry_Int_Tables_number       1
_symmetry_cell_setting            triclinic
loop_
_symmetry_equiv_pos_as_xyz
'x, y, z'
_cell_length_a     30.193441
_cell_length_b     30.280967
_cell_length_c     70.004649
_cell_angle_alpha  88.018477
_cell_angle_beta   89.480151
_cell_angle_gamma 120.22938
loop_
_atom_site_label
_atom_site_type_symbol
_atom_site_fract_x
_atom_site_fract_y
_atom_site_fract_z
_atom_type_partial_charge
Mn0 Mn 0.09214 0.05525 0.04662 0.0
Mn1 Mn 0.0284 0.09896 0.01995 0.0
C2 C 0.0455 0.00979 0.02103 0.0
C3 C 0.09396 0.00645 0.07291 0.0
C4 C 0.14372 0.14339 0.01636 0.0
O5 O 0.09053 0.10818 0.06339 0.0
O6 O 0.04326 0.13089 0.04526 0.0
C7 C 0.93171 0.05218 0.04316 0.0
N8 N 0.95666 0.05859 0.02609 0.0
C9 C 0.87743 0.00314 0.01093 0.0
C10 C 0.85084 0.99625 0.02833 0.0
C11 C 0.87813 0.02081 0.04451 0.0
C12 C 0.9308 0.03508 0.01043 0.0
H13 H 0.95257 0.07075 0.05566 0.0
C14 C 0.06773 0.13359 0.06047 0.0
O15 O 0.13601 0.04349 0.06497 0.0
O16 O 0.05124 0.99928 0.06603 0.0
N17 N 0.01108 0.07109 0.99518 0.0
C18 C 0.04268 0.07981 0.97973 0.0
C19 C 0.02152 0.05702 0.96247 0.0
C20 C 0.96813 0.02582 0.96123 0.0
C21 C 0.93634 0.01794 0.97724 0.0
C22 C 0.95959 0.04204 0.99401 0.0
H23 H 0.08375 0.10368 0.98061 0.0
O24 O 0.0817 0.0031 0.02772 0.0
O25 O 0.03735 0.04256 0.02962 0.0
O26 O 0.1464 0.1129 0.02876 0.0
O27 O 0.10175 0.14182 0.01231 0.0
C28 C 0.8826 0.98629 0.97734 0.0
C29 C 0.85317 0.97881 0.99418 0.0
H30 H 0.80954 0.97184 0.02946 0.0
H31 H 0.85791 0.01545 0.05801 0.0
H32 H 0.04631 0.06328 0.95018 0.0
H33 H 0.95199 0.00784 0.94796 0.0
H34 H 0.86357 0.96691 0.96462 0.0
H35 H 0.81195 0.95382 0.99415 0.0
Mn36 Mn 0.04367 0.06107 0.37885 0.0
Mn37 Mn 0.10773 0.16857 0.40338 0.0
C38 C 0.09219 0.06281 0.40447 0.0
C39 C 0.04184 0.01199 0.35345 0.0
C40 C 0.99291 0.09553 0.40838 0.0
O41 O 0.0433 0.11541 0.36097 0.0
O42 O 0.09024 0.18549 0.3778 0.0
C43 C 0.20252 0.22061 0.37905 0.0
N44 N 0.17907 0.20134 0.39651 0.0
C45 C 0.25978 0.22584 0.41098 0.0
C46 C 0.28484 0.24628 0.39318 0.0
C47 C 0.25606 0.24357 0.37714 0.0
C48 C 0.20638 0.20368 0.41202 0.0
H49 H 0.1805 0.21833 0.36667 0.0
C50 C 0.06512 0.16361 0.36298 0.0
O51 O 0.99971 0.00514 0.36148 0.0
O52 O 0.08447 0.04817 0.35979 0.0
N53 N 0.12742 0.15821 0.4283 0.0
C54 C 0.09722 0.135 0.44427 0.0
C55 C 0.12 0.13353 0.4615 0.0
C56 C 0.17355 0.15623 0.46217 0.0
C57 C 0.20388 0.18053 0.44562 0.0
C58 C 0.17906 0.18124 0.4289 0.0
H59 H 0.05603 0.11741 0.44384 0.0
O60 O 0.05613 0.01959 0.39856 0.0
O61 O 0.09917 0.10373 0.39506 0.0
O62 O 0.98981 0.06277 0.3966 0.0
O63 O 0.0349 0.13639 0.41165 0.0
C64 C 0.25768 0.20325 0.44496 0.0
C65 C 0.2856 0.2258 0.42765 0.0
H66 H 0.3261 0.26376 0.39162 0.0
H67 H 0.27509 0.25901 0.36333 0.0
H68 H 0.09633 0.11473 0.47422 0.0
H69 H 0.19093 0.15451 0.47543 0.0
H70 H 0.27791 0.20299 0.45763 0.0
H71 H 0.32688 0.24257 0.42727 0.0
Mn72 Mn 0.08829 0.05922 0.71274 0.0
Mn73 Mn 0.05318 0.13072 0.73778 0.0
C74 C 0.14095 0.11156 0.73603 0.0
C75 C 0.13041 0.04895 0.68652 0.0
C76 C 0.00668 0.01612 0.74518 0.0
O77 O 0.03216 0.05904 0.69647 0.0
O78 O 0.01629 0.11195 0.71338 0.0
C79 C 0.09679 0.22308 0.71178 0.0
N80 N 0.0933 0.2011 0.72945 0.0
C81 C 0.1508 0.28281 0.74222 0.0
C82 C 0.15471 0.30638 0.72419 0.0
C83 C 0.1277 0.27636 0.7089 0.0
C84 C 0.11924 0.2296 0.74425 0.0
H85 H 0.0762 0.20012 0.69998 0.0
C86 C 0.00926 0.08437 0.69896 0.0
O87 O 0.09416 0.00984 0.69622 0.0
O88 O 0.14038 0.09384 0.69151 0.0
N89 N 0.08639 0.15204 0.76163 0.0
C90 C 0.08105 0.12305 0.77776 0.0
C91 C 0.10708 0.14709 0.79422 0.0
C92 C 0.13792 0.20062 0.79397 0.0
C93 C 0.1424 0.22967 0.77727 0.0
C94 C 0.11535 0.20363 0.76134 0.0
H95 H 0.05737 0.0819 0.77805 0.0
O96 O 0.14477 0.073 0.73068 0.0
O97 O 0.10649 0.11835 0.72763 0.0
O98 O 0.03404 0.00992 0.73275 0.0
O99 O 0.01034 0.05935 0.74782 0.0
C100 C 0.17355 0.28336 0.77566 0.0
C101 C 0.1778 0.3099 0.75815 0.0
H102 H 0.17871 0.34743 0.72188 0.0
H103 H 0.13074 0.29424 0.69492 0.0
H104 H 0.10348 0.12439 0.80705 0.0
H105 H 0.15831 0.21898 0.80663 0.0
H106 H 0.19507 0.30452 0.78772 0.0
H107 H 0.2025 0.35108 0.75701 0.0
C108 C 0.10074 0.65036 0.18322 0.0
C109 C 0.14907 0.68654 0.17593 0.0
C110 C 0.18359 0.67932 0.18597 0.0
C111 C 0.15451 0.63905 0.19864 0.0
N112 N 0.10346 0.61973 0.19719 0.0
Co113 Co 0.04757 0.56013 0.21251 0.0
N114 N 0.0985 0.55419 0.22901 0.0
C115 C 0.15 0.58541 0.22826 0.0
C116 C 0.17501 0.57259 0.24161 0.0
C117 C 0.13728 0.53047 0.25144 0.0
C118 C 0.09126 0.51977 0.24337 0.0
N119 N 0.99175 0.49895 0.22727 0.0
C120 C 0.9947 0.46836 0.24123 0.0
C121 C 0.94661 0.4277 0.24668 0.0
C122 C 0.91203 0.43264 0.23576 0.0
C123 C 0.94085 0.47564 0.22423 0.0
N124 N 0.99659 0.56789 0.19663 0.0
C125 C 0.94488 0.53903 0.19833 0.0
C126 C 0.91968 0.55594 0.18674 0.0
C127 C 0.95747 0.59871 0.17725 0.0
C128 C 0.00385 0.60515 0.18348 0.0
N129 N 0.05041 0.51279 0.1941 0.0
C130 C 0.05142 0.43961 0.17028 0.0
C131 C 0.00734 0.44318 0.17275 0.0
C132 C 0.00761 0.47944 0.18461 0.0
C133 C 0.0956 0.47471 0.17947 0.0
C134 C 0.09436 0.51086 0.19108 0.0
N135 N 0.04447 0.6072 0.23087 0.0
C136 C 0.99458 0.63141 0.25059 0.0
C137 C 0.03831 0.67756 0.25461 0.0
C138 C 0.08545 0.68725 0.24693 0.0
C139 C 0.08771 0.65168 0.23531 0.0
C140 C 0.99847 0.59714 0.23882 0.0
H141 H 0.12478 0.6612 0.22989 0.0
H142 H 0.96352 0.56312 0.23611 0.0
H143 H 0.9724 0.47923 0.18598 0.0
H144 H 0.12933 0.53634 0.19766 0.0
C145 C 0.17398 0.62289 0.21359 0.0
C146 C 0.05368 0.64808 0.17696 0.0
C147 C 0.04205 0.47548 0.24939 0.0
C148 C 0.92119 0.49623 0.21096 0.0
H149 H 0.15847 0.71597 0.16484 0.0
H150 H 0.22499 0.70204 0.18471 0.0
H151 H 0.21593 0.59072 0.24356 0.0
H152 H 0.14308 0.50934 0.26297 0.0
H153 H 0.93747 0.39737 0.25734 0.0
H154 H 0.87079 0.4078 0.23615 0.0
H155 H 0.87868 0.53962 0.18557 0.0
H156 H 0.95136 0.62279 0.16714 0.0
H157 H 0.97242 0.41809 0.16555 0.0
H158 H 0.13085 0.47375 0.17811 0.0
H159 H 0.9571 0.62222 0.25609 0.0
H160 H 0.12057 0.72208 0.2499 0.0
C161 C 0.46027 0.0061 0.57457 0.0
C162 C 0.41998 0.95813 0.58043 0.0
C163 C 0.42612 0.92325 0.57069 0.0
C164 C 0.4694 0.95168 0.55939 0.0
N165 N 0.49193 0.00268 0.56155 0.0
Co166 Co 0.55299 0.05813 0.54662 0.0
N167 N 0.55815 0.00703 0.53059 0.0
C168 C 0.52756 0.95555 0.53193 0.0
C169 C 0.54182 0.93028 0.51967 0.0
C170 C 0.58456 0.96776 0.5101 0.0
C171 C 0.59382 0.01395 0.51705 0.0
N172 N 0.61361 0.11368 0.53159 0.0
C173 C 0.6436 0.11046 0.51782 0.0
C174 C 0.68221 0.1585 0.51118 0.0
C175 C 0.67718 0.19332 0.52142 0.0
C176 C 0.63582 0.16473 0.5336 0.0
N177 N 0.54808 0.1092 0.56271 0.0
C178 C 0.57995 0.16052 0.56196 0.0
C179 C 0.5662 0.18562 0.5745 0.0
C180 C 0.52237 0.14826 0.58356 0.0
C181 C 0.51172 0.10238 0.57588 0.0
N182 N 0.60023 0.05329 0.56516 0.0
C183 C 0.67138 0.04707 0.58946 0.0
C184 C 0.67745 0.09433 0.58343 0.0
C185 C 0.64182 0.09652 0.57144 0.0
C186 C 0.6285 0.00291 0.58336 0.0
C187 C 0.59362 0.00685 0.5714 0.0
N188 N 0.50593 0.06303 0.52811 0.0
C189 C 0.47625 0.1135 0.51091 0.0
C190 C 0.435 0.06958 0.50386 0.0
C191 C 0.43062 0.02239 0.50883 0.0
C192 C 0.4662 0.02002 0.52083 0.0
C193 C 0.51098 0.10941 0.52285 0.0
H194 H 0.46045 0.9829 0.52417 0.0
H195 H 0.54114 0.14429 0.52787 0.0
H196 H 0.64926 0.13376 0.56726 0.0
H197 H 0.56185 0.97177 0.56729 0.0
C198 C 0.48725 0.93195 0.54549 0.0
C199 C 0.46515 0.05386 0.58082 0.0
C200 C 0.63855 0.06303 0.51117 0.0
C201 C 0.61936 0.18441 0.54803 0.0
H202 H 0.38839 0.94913 0.59023 0.0
H203 H 0.40082 0.88217 0.57119 0.0
H204 H 0.52408 0.88939 0.51826 0.0
H205 H 0.60705 0.9616 0.49954 0.0
H206 H 0.71169 0.16735 0.50035 0.0
H207 H 0.7017 0.23451 0.52049 0.0
H208 H 0.58468 0.22643 0.5763 0.0
H209 H 0.49989 0.15424 0.59419 0.0
H210 H 0.71025 0.12976 0.58758 0.0
H211 H 0.62156 0.96532 0.58789 0.0
H212 H 0.48122 0.15098 0.50764 0.0
H213 H 0.39994 0.98726 0.50346 0.0
C214 C 0.68672 0.59302 0.85032 0.0
C215 C 0.7248 0.58281 0.84478 0.0
C216 C 0.71859 0.54259 0.85625 0.0
C217 C 0.67724 0.53054 0.86807 0.0
N218 N 0.65637 0.56039 0.86477 0.0
Co219 Co 0.59588 0.55612 0.87874 0.0
N220 N 0.59011 0.50049 0.8969 0.0
C221 C 0.62194 0.48122 0.89766 0.0
C222 C 0.60771 0.44267 0.91136 0.0
C223 C 0.56385 0.43651 0.91974 0.0
C224 C 0.55383 0.47185 0.91062 0.0
N225 N 0.53419 0.55048 0.89222 0.0
C226 C 0.50243 0.51609 0.90597 0.0
C227 C 0.46232 0.52403 0.91074 0.0
C228 C 0.46821 0.56409 0.89928 0.0
C229 C 0.51143 0.57832 0.88825 0.0
N230 N 0.60283 0.6131 0.86109 0.0
C231 C 0.57321 0.63492 0.86119 0.0
C232 C 0.58861 0.67475 0.84797 0.0
C233 C 0.63118 0.67931 0.83908 0.0
C234 C 0.63927 0.64181 0.84744 0.0
N235 N 0.54932 0.5041 0.8609 0.0
C236 C 0.47906 0.42723 0.8373 0.0
C237 C 0.47926 0.47325 0.83902 0.0
C238 C 0.51406 0.51058 0.85087 0.0
C239 C 0.51558 0.42109 0.84736 0.0
C240 C 0.55029 0.45978 0.85876 0.0
N241 N 0.64246 0.60816 0.8966 0.0
C242 C 0.66692 0.6839 0.91439 0.0
C243 C 0.71163 0.68519 0.92028 0.0
C244 C 0.72057 0.64668 0.9144 0.0
C245 C 0.68576 0.60881 0.90275 0.0
C246 C 0.63321 0.64544 0.90265 0.0
H247 H 0.69498 0.58071 0.8988 0.0
H248 H 0.60026 0.64711 0.89848 0.0
H249 H 0.51138 0.54418 0.85179 0.0
H250 H 0.57712 0.45254 0.86591 0.0
C251 C 0.6607 0.49541 0.8837 0.0
C252 C 0.6828 0.6359 0.84222 0.0
C253 C 0.50755 0.47426 0.91446 0.0
C254 C 0.53115 0.61705 0.87387 0.0
H255 H 0.75483 0.60324 0.83394 0.0
H256 H 0.74258 0.52546 0.85643 0.0
H257 H 0.62568 0.42005 0.91429 0.0
H258 H 0.54091 0.40797 0.93082 0.0
H259 H 0.4315 0.50247 0.92121 0.0
H260 H 0.44344 0.58033 0.89881 0.0
H261 H 0.57128 0.69805 0.84527 0.0
H262 H 0.65407 0.70742 0.82785 0.0
H263 H 0.45276 0.48081 0.83125 0.0
H264 H 0.517 0.38614 0.84683 0.0
H265 H 0.6584 0.71309 0.91845 0.0
H266 H 0.75421 0.64545 0.91886 0.0
C267 C 0.03648 0.18838 0.07458 0.0
C268 C 0.0701 0.16893 0.07516 0.0
C269 C 0.03971 0.22328 0.08784 0.0
C270 C 0.07677 0.23979 0.10202 0.0
C271 C 0.11049 0.22055 0.10259 0.0
C272 C 0.1069 0.1851 0.08944 0.0
C273 C 0.08254 0.27877 0.11573 0.0
C274 C 0.04269 0.28346 0.12183 0.0
C275 C 0.0475 0.32319 0.13495 0.0
C276 C 0.00476 0.3133 0.14634 0.0
C277 C 0.00648 0.35057 0.15803 0.0
C278 C 0.05079 0.39929 0.15837 0.0
H279 H 0.12555 0.381 0.1265 0.0
C280 C 0.09383 0.40911 0.14702 0.0
C281 C 0.09227 0.37149 0.13546 0.0
H282 H 0.12835 0.44634 0.14664 0.0
H283 H 0.00773 0.17693 0.06377 0.0
H284 H 0.01396 0.23826 0.08657 0.0
H285 H 0.13969 0.23296 0.11326 0.0
H286 H 0.13366 0.17123 0.09023 0.0
H287 H 0.12027 0.30292 0.1214 0.0
H288 H 0.00425 0.25587 0.11758 0.0
H289 H 0.96976 0.27649 0.1462 0.0
H290 H 0.97291 0.341 0.16684 0.0
C291 C 0.94884 0.1213 0.43238 0.0
C292 C 0.9459 0.08618 0.41907 0.0
C293 C 0.90522 0.11312 0.4426 0.0
C294 C 0.85729 0.06925 0.43994 0.0
C295 C 0.85405 0.03449 0.42645 0.0
C296 C 0.89785 0.04267 0.41619 0.0
C297 C 0.80995 0.05981 0.45051 0.0
C298 C 0.81088 0.07887 0.46775 0.0
C299 C 0.76474 0.07181 0.47852 0.0
C300 C 0.76885 0.08134 0.49813 0.0
C301 C 0.72762 0.07777 0.50871 0.0
C302 C 0.68141 0.06479 0.49989 0.0
H303 H 0.71365 0.05245 0.45455 0.0
C304 C 0.67687 0.05524 0.48033 0.0
C305 C 0.71814 0.05872 0.4697 0.0
H306 H 0.6416 0.04578 0.47326 0.0
H307 H 0.98496 0.15553 0.43492 0.0
H308 H 0.90928 0.1419 0.45229 0.0
H309 H 0.81756 1.00067 0.42393 0.0
H310 H 0.89397 0.01489 0.40601 0.0
H311 H 0.77346 0.03496 0.44412 0.0
H312 H 0.84724 0.0997 0.47478 0.0
H313 H 0.80427 0.09192 0.5053 0.0
H314 H 0.73189 0.08554 0.52378 0.0
C315 C 0.96154 0.92215 0.75518 0.0
C316 C 0.96918 0.97148 0.75752 0.0
C317 C 0.92647 0.88062 0.76709 0.0
C318 C 0.89809 0.88753 0.78159 0.0
C319 C 0.90608 0.93684 0.78394 0.0
C320 C 0.9409 0.97815 0.77207 0.0
C321 C 0.861 0.84529 0.79499 0.0
C322 C 0.83954 0.79499 0.79182 0.0
C323 C 0.80084 0.754 0.80523 0.0
C324 C 0.76577 0.70625 0.7981 0.0
C325 C 0.72784 0.66748 0.81015 0.0
C326 C 0.72468 0.67565 0.82957 0.0
H327 H 0.82558 0.79672 0.83118 0.0
C328 C 0.76033 0.7226 0.83691 0.0
C329 C 0.79827 0.76134 0.82491 0.0
H330 H 0.75856 0.72932 0.85192 0.0
H331 H 0.98286 0.91558 0.74422 0.0
H332 H 0.92259 0.84361 0.76505 0.0
H333 H 0.88516 0.94355 0.79503 0.0
H334 H 0.94577 0.01548 0.77444 0.0
H335 H 0.84892 0.85669 0.80764 0.0
H336 H 0.84788 0.78313 0.77845 0.0
H337 H 0.76708 0.69926 0.78309 0.0
H338 H 0.70054 0.63138 0.80427 0.0
C339 C 0.048 0.92703 0.09404 0.0
C340 C 0.09416 0.97113 0.08807 0.0
C341 C 0.04799 0.89099 0.10705 0.0
C342 C 0.09421 0.89822 0.11446 0.0
C343 C 0.14012 0.94332 0.10914 0.0
C344 C 0.14021 0.97924 0.09593 0.0
C345 C 0.09533 0.85954 0.12786 0.0
C346 C 0.06217 0.80892 0.12684 0.0
C347 C 0.06239 0.76904 0.13981 0.0
C348 C 0.04209 0.71922 0.13337 0.0
C349 C 0.0398 0.68012 0.14533 0.0
C350 C 0.05678 0.68982 0.16411 0.0
H351 H 0.0947 0.81636 0.16426 0.0
C352 C 0.07712 0.73949 0.17064 0.0
C353 C 0.07996 0.77882 0.15862 0.0
H354 H 0.09035 0.74766 0.18513 0.0
H355 H 0.01177 0.91972 0.08837 0.0
H356 H 0.01166 0.85757 0.11131 0.0
H357 H 0.17619 0.95014 0.11482 0.0
H358 H 0.17639 0.01292 0.09168 0.0
H359 H 0.12605 0.87296 0.13798 0.0
H360 H 0.03493 0.79561 0.1154 0.0
H361 H 0.02807 0.71053 0.11901 0.0
H362 H 0.02437 0.64213 0.13997 0.0
C363 C 0.18125 0.08663 0.41263 0.0
C364 C 0.12918 0.06299 0.41803 0.0
C365 C 0.21628 0.08422 0.42492 0.0
C366 C 0.19969 0.05781 0.44289 0.0
C367 C 0.14713 0.03287 0.44792 0.0
C368 C 0.11213 0.03504 0.43553 0.0
C369 C 0.23522 0.05301 0.45632 0.0
C370 C 0.28653 0.08491 0.45578 0.0
C371 C 0.32314 0.07968 0.4686 0.0
C372 C 0.3756 0.11629 0.46643 0.0
C373 C 0.41183 0.113 0.47776 0.0
C374 C 0.39656 0.07293 0.49164 0.0
H375 H 0.26827 0.01006 0.48487 0.0
C376 C 0.34414 0.03628 0.49388 0.0
C377 C 0.30788 0.03946 0.48252 0.0
H378 H 0.3309 0.00532 0.50462 0.0
H379 H 0.19476 0.10646 0.39877 0.0
H380 H 0.25589 0.10219 0.42003 0.0
H381 H 0.13302 0.01151 0.46148 0.0
H382 H 0.07179 0.01527 0.43969 0.0
H383 H 0.21754 0.02226 0.46717 0.0
H384 H 0.30315 0.11718 0.44548 0.0
H385 H 0.38882 0.14758 0.45582 0.0
H386 H 0.45193 0.14157 0.47545 0.0
C387 C 0.19638 0.13747 0.76456 0.0
C388 C 0.18132 0.15089 0.74746 0.0
C389 C 0.23448 0.17539 0.77539 0.0
C390 C 0.2585 0.22719 0.76906 0.0
C391 C 0.24474 0.24006 0.75155 0.0
C392 C 0.2071 0.20215 0.74069 0.0
C393 C 0.29594 0.2688 0.78084 0.0
C394 C 0.32998 0.26417 0.79174 0.0
C395 C 0.3678 0.30655 0.80317 0.0
C396 C 0.41709 0.31361 0.80512 0.0
C397 C 0.45339 0.35316 0.81586 0.0
C398 C 0.44079 0.38584 0.82536 0.0
H399 H 0.31678 0.33373 0.81172 0.0
C400 C 0.3909 0.37801 0.82359 0.0
C401 C 0.35497 0.33908 0.81254 0.0
H402 H 0.37906 0.40126 0.83105 0.0
H403 H 0.17764 0.0979 0.7698 0.0
H404 H 0.24388 0.1643 0.78894 0.0
H405 H 0.26291 0.27961 0.74631 0.0
H406 H 0.19748 0.21301 0.72713 0.0
H407 H 0.29724 0.30533 0.77966 0.0
H408 H 0.33232 0.22954 0.7914 0.0
H409 H 0.42783 0.28894 0.79806 0.0
H410 H 0.49147 0.35825 0.81654 0.0
C411 C 0.95147 0.04466 0.6711 0.0
C412 C 0.97267 0.08291 0.68457 0.0
C413 C 0.91536 0.04313 0.65821 0.0
C414 C 0.90013 0.08016 0.6585 0.0
C415 C 0.92244 0.11891 0.67163 0.0
C416 C 0.95784 0.12013 0.68455 0.0
C417 C 0.86188 0.08093 0.6454 0.0
C418 C 0.82568 0.03998 0.63652 0.0
C419 C 0.78572 0.042 0.62475 0.0
C420 C 0.76299 0.00732 0.61019 0.0
C421 C 0.72558 0.00852 0.59884 0.0
C422 C 0.70974 0.04425 0.60191 0.0
H423 H 0.78342 0.10263 0.63975 0.0
C424 C 0.73148 0.07799 0.61682 0.0
C425 C 0.76876 0.07677 0.62815 0.0
H426 H 0.71923 0.10508 0.61992 0.0
H427 H 0.96224 0.01557 0.67067 0.0
H428 H 0.90005 0.01333 0.648 0.0
H429 H 0.91188 0.14819 0.67212 0.0
H430 H 0.97363 0.15054 0.69455 0.0
H431 H 0.86275 0.11712 0.64362 0.0
H432 H 0.82492 0.00379 0.6378 0.0
H433 H 0.77478 0.97971 0.60739 0.0
H434 H 0.70984 0.98213 0.58742 0.0
C435 C 0.95711 0.9447 0.01238 0.0
C436 C 0.0096 0.97358 0.00753 0.0
C437 C 0.92299 0.90833 1.00008 0.0
C438 C 0.94097 0.89987 0.98273 0.0
C439 C 0.99391 0.92756 0.97833 0.0
C440 C 0.02797 0.96386 0.99068 0.0
C441 C 0.90625 0.86081 0.96939 0.0
C442 C 0.85583 0.84492 0.96826 0.0
C443 C 0.82009 0.80449 0.95547 0.0
C444 C 0.76702 0.78231 0.95895 0.0
C445 C 0.73184 0.7438 0.94755 0.0
C446 C 0.74889 0.72653 0.93232 0.0
H447 H 0.87738 0.80466 0.93623 0.0
C448 C 0.80192 0.74918 0.92862 0.0
C449 C 0.83712 0.78781 0.93996 0.0
H450 H 0.8163 0.73756 0.91672 0.0
H451 H 0.94253 0.94997 0.02579 0.0
H452 H 0.8829 0.88637 0.00445 0.0
H453 H 0.00897 0.9212 0.96526 0.0
H454 H 0.0686 0.98473 0.98697 0.0
H455 H 0.92358 0.8452 0.96022 0.0
H456 H 0.83931 0.86158 0.97736 0.0
H457 H 0.75261 0.79442 0.97069 0.0
H458 H 0.69126 0.72697 0.95088 0.0
C459 C 0.99719 0.93318 0.33424 0.0
C460 C 0.04219 0.97829 0.33866 0.0
C461 C 0.99908 0.8993 0.32153 0.0
C462 C 0.04614 0.90995 0.31301 0.0
C463 C 0.09057 0.95606 0.31689 0.0
C464 C 0.08873 0.98964 0.32962 0.0
C465 C 0.05093 0.87448 0.30001 0.0
C466 C 0.01777 0.82359 0.30027 0.0
C467 C 0.02456 0.7874 0.28829 0.0
C468 C 0.99698 0.73494 0.29355 0.0
C469 C 1.00183 0.69945 0.28279 0.0
C470 C 0.03438 0.71551 0.26641 0.0
H471 H 0.07769 0.84313 0.26676 0.0
C472 C 0.06191 0.76794 0.26106 0.0
C473 C 0.05688 0.80346 0.27178 0.0
H474 H 0.08647 0.78144 0.2483 0.0
H475 H 0.96069 0.9235 0.34089 0.0
H476 H 0.96364 0.86503 0.31845 0.0
H477 H 0.12724 0.96565 0.3104 0.0
H478 H 0.1241 0.0242 0.33261 0.0
H479 H 0.08535 0.8908 0.29095 0.0
H480 H 0.98565 0.80688 0.31051 0.0
H481 H 0.97166 0.72126 0.30612 0.0
H482 H 0.98032 0.65939 0.28739 0.0
C483 C 0.20187 0.08625 0.66171 0.0
C484 C 0.16256 0.04308 0.67183 0.0
C485 C 0.23634 0.08176 0.64956 0.0
C486 C 0.23224 0.03383 0.64722 0.0
C487 C 0.19214 0.99057 0.65697 0.0
C488 C 0.1575 0.99503 0.66904 0.0
C489 C 0.27113 0.02811 0.63598 0.0
C490 C 0.30118 0.06133 0.62177 0.0
C491 C 0.34191 0.05685 0.61135 0.0
C492 C 0.35657 0.07812 0.59262 0.0
C493 C 0.39598 0.07634 0.58265 0.0
C494 C 0.42198 0.05382 0.59131 0.0
H495 H 0.35934 0.01922 0.63467 0.0
C496 C 0.40809 0.03321 0.61012 0.0
C497 C 0.36829 0.03449 0.62005 0.0
H498 H 0.42842 0.01659 0.61718 0.0
H499 H 0.20708 0.12391 0.66364 0.0
H500 H 0.26732 0.11628 0.64271 0.0
H501 H 0.18814 0.95322 0.65554 0.0
H502 H 0.12785 0.96104 0.67669 0.0
H503 H 0.27429 0.99454 0.63938 0.0
H504 H 0.29487 0.09222 0.61706 0.0
H505 H 0.33741 0.09613 0.58565 0.0
H506 H 0.40648 0.0929 0.5682 0.0
C507 C 0.18912 0.21458 0.99136 0.0
C508 C 0.19136 0.18242 0.00586 0.0
C509 C 0.23352 0.2512 0.98132 0.0
C510 C 0.28148 0.2565 0.9854 0.0
C511 C 0.28391 0.22497 1.00006 0.0
C512 C 0.2394 0.18816 0.01011 0.0
C513 C 0.32967 0.29565 0.97513 0.0
C514 C 0.3306 0.31428 0.95724 0.0
C515 C 0.37788 0.35423 0.94673 0.0
C516 C 0.37666 0.35968 0.92675 0.0
C517 C 0.41911 0.39809 0.9163 0.0
C518 C 0.46365 0.43206 0.92564 0.0
H519 H 0.42499 0.38672 0.97146 0.0
C520 C 0.46528 0.42705 0.94558 0.0
C521 C 0.4228 0.38849 0.95607 0.0
H522 H 0.49916 0.45348 0.95303 0.0
H523 H 0.15298 0.21168 0.98773 0.0
H524 H 0.23001 0.27583 0.97062 0.0
H525 H 0.32036 0.22855 0.00367 0.0
H526 H 0.24274 0.16432 0.02123 0.0
H527 H 0.36542 0.30773 0.98232 0.0
H528 H 0.29518 0.29844 0.9495 0.0
H529 H 0.34257 0.33427 0.91916 0.0
H530 H 0.41706 0.40165 0.90093 0.0
C531 C 0.08156 0.24905 0.34993 0.0
C532 C 0.06092 0.19633 0.34759 0.0
C533 C 0.07699 0.27999 0.33573 0.0
C534 C 0.0515 0.25902 0.31879 0.0
C535 C 0.0318 0.20663 0.31624 0.0
C536 C 0.03613 0.17553 0.33051 0.0
C537 C 0.04659 0.29112 0.30327 0.0
C538 C 0.04577 0.33437 0.30654 0.0
C539 C 0.04245 0.36798 0.29125 0.0
C540 C 0.02558 0.40178 0.29628 0.0
C541 C 0.02443 0.43596 0.28261 0.0
C542 C 0.04053 0.43725 0.26367 0.0
H543 H 0.073 0.34504 0.26774 0.0
C544 C 0.05732 0.40362 0.25849 0.0
C545 C 0.05834 0.36927 0.27214 0.0
H546 H 0.07039 0.40456 0.24394 0.0
H547 H 0.10135 0.26667 0.36278 0.0
H548 H 0.09432 0.32047 0.33799 0.0
H549 H 0.01253 0.18955 0.30323 0.0
H550 H 0.02003 0.13521 0.32812 0.0
H551 H 0.04147 0.27736 0.28889 0.0
H552 H 0.04595 0.34518 0.32119 0.0
H553 H 0.01356 0.40201 0.31089 0.0
H554 H 0.01173 0.46196 0.28687 0.0
loop_
_geom_bond_atom_site_label_1
_geom_bond_atom_site_label_2
_geom_bond_distance
_geom_bond_site_symmetry_2
_ccdc_geom_bond_type
Mn0 O5 2.095 . S
Mn0 O15 2.162 . S
Mn0 O16 2.297 1_545 S
Mn0 O24 2.385 1_545 S
Mn0 O25 2.209 . S
Mn0 O26 2.094 . S
Mn1 O6 2.121 . S
Mn1 N8 2.257 1_455 S
Mn1 N17 2.282 1_554 S
Mn1 O25 2.215 . S
Mn1 O27 2.117 . S
C2 O24 1.234 . S
C2 O25 1.283 1_565 S
C3 O15 1.281 1_565 S
C3 O16 1.236 . S
C4 O26 1.240 . S
C4 O27 1.264 . S
O5 Mn0 2.095 . S
O5 C14 1.250 . S
O6 Mn1 2.121 . S
O6 C14 1.258 . S
C7 N8 1.326 . S
C7 C11 1.460 . S
C7 H13 0.929 . S
N8 Mn1 2.257 1_655 S
N8 C7 1.326 . S
N8 C12 1.408 . S
C9 C10 1.258 1_556 S
C9 C12 1.421 1_556 S
C9 C29 1.449 . S
C10 C9 1.258 1_554 S
C10 C11 1.477 . S
C10 H30 0.931 . S
C11 C7 1.460 . S
C11 C10 1.477 . S
C11 H31 0.930 . S
C12 N8 1.408 . S
C12 C9 1.421 1_554 S
C12 C22 1.442 1_554 S
H13 C7 0.929 . S
C14 O5 1.250 . S
C14 O6 1.258 . S
O15 Mn0 2.162 . S
O15 C3 1.281 1_545 S
O16 Mn0 2.297 1_565 S
O16 C3 1.236 . S
N17 Mn1 2.282 1_556 S
N17 C18 1.328 . S
N17 C22 1.318 1_455 S
C18 N17 1.328 . S
C18 C19 1.457 . S
C18 H23 0.929 . S
C19 C18 1.457 . S
C19 C20 1.291 1_455 S
C19 H32 0.931 . S
C20 C19 1.291 1_655 S
C20 C21 1.373 . S
C20 H33 0.929 . S
C21 C20 1.373 . S
C21 C22 1.396 . S
C21 C28 1.403 . S
C22 C12 1.442 1_556 S
C22 N17 1.318 1_655 S
C22 C21 1.396 . S
H23 C18 0.929 . S
O24 Mn0 2.385 1_565 S
O24 C2 1.234 . S
O25 Mn0 2.209 . S
O25 Mn1 2.215 . S
O25 C2 1.283 1_545 S
O26 Mn0 2.094 . S
O26 C4 1.240 . S
O27 Mn1 2.117 . S
O27 C4 1.264 . S
C28 C21 1.403 . S
C28 C29 1.399 . S
C28 H34 0.929 . S
C29 C9 1.449 . S
C29 C28 1.399 . S
C29 H35 0.930 . S
H30 C10 0.931 . S
H31 C11 0.930 . S
H32 C19 0.931 . S
H33 C20 0.929 . S
H34 C28 0.929 . S
H35 C29 0.930 . S
Mn36 O41 2.095 . S
Mn36 O51 2.162 1_445 S
Mn36 O52 2.297 . S
Mn36 O60 2.385 . S
Mn36 O61 2.209 . S
Mn36 O62 2.094 1_455 S
Mn37 O42 2.121 . S
Mn37 N44 2.257 . S
Mn37 N53 2.282 . S
Mn37 O61 2.215 . S
Mn37 O63 2.117 . S
C38 O60 1.234 . S
C38 O61 1.283 . S
C39 O51 1.281 1_455 S
C39 O52 1.236 1_565 S
C40 O62 1.240 . S
C40 O63 1.264 1_655 S
O41 Mn36 2.095 . S
O41 C50 1.250 . S
O42 Mn37 2.121 . S
O42 C50 1.258 . S
C43 N44 1.326 . S
C43 C47 1.460 . S
C43 H49 0.929 . S
N44 Mn37 2.257 . S
N44 C43 1.326 . S
N44 C48 1.362 . S
C45 C46 1.258 . S
C45 C48 1.431 . S
C45 C65 1.449 . S
C46 C45 1.258 . S
C46 C47 1.477 . S
C46 H66 0.931 . S
C47 C43 1.460 . S
C47 C46 1.477 . S
C47 H67 0.930 . S
C48 N44 1.362 . S
C48 C45 1.431 . S
C48 C58 1.476 . S
H49 C43 0.929 . S
C50 O41 1.250 . S
C50 O42 1.258 . S
O51 Mn36 2.162 1_665 S
O51 C39 1.281 1_655 S
O52 Mn36 2.297 . S
O52 C39 1.236 1_545 S
N53 Mn37 2.282 . S
N53 C54 1.328 . S
N53 C58 1.318 . S
C54 N53 1.328 . S
C54 C55 1.457 . S
C54 H59 0.929 . S
C55 C54 1.457 . S
C55 C56 1.291 . S
C55 H68 0.931 . S
C56 C55 1.291 . S
C56 C57 1.373 . S
C56 H69 0.929 . S
C57 C56 1.373 . S
C57 C58 1.396 . S
C57 C64 1.403 . S
C58 C48 1.476 . S
C58 N53 1.318 . S
C58 C57 1.396 . S
H59 C54 0.929 . S
O60 Mn36 2.385 . S
O60 C38 1.234 . S
O61 Mn36 2.209 . S
O61 Mn37 2.215 . S
O61 C38 1.283 . S
O62 Mn36 2.094 1_655 S
O62 C40 1.240 . S
O63 Mn37 2.117 . S
O63 C40 1.264 1_455 S
C64 C57 1.403 . S
C64 C65 1.399 . S
C64 H70 0.929 . S
C65 C45 1.449 . S
C65 C64 1.399 . S
C65 H71 0.930 . S
H66 C46 0.931 . S
H67 C47 0.930 . S
H68 C55 0.931 . S
H69 C56 0.929 . S
H70 C64 0.929 . S
H71 C65 0.930 . S
Mn72 O77 2.095 . S
Mn72 O87 2.162 1_545 S
Mn72 O88 2.297 . S
Mn72 O96 2.385 . S
Mn72 O97 2.209 . S
Mn72 O98 2.094 1_545 S
Mn73 O78 2.121 1_455 S
Mn73 N80 2.257 . S
Mn73 N89 2.282 . S
Mn73 O97 2.215 . S
Mn73 O99 2.117 1_455 S
C74 O96 1.234 . S
C74 O97 1.283 . S
C75 O87 1.281 1_545 S
C75 O88 1.236 . S
C76 O98 1.240 1_655 S
C76 O99 1.264 1_565 S
O77 Mn72 2.095 . S
O77 C86 1.242 1_455 S
O78 Mn73 2.121 1_655 S
O78 C86 1.262 . S
C79 N80 1.326 . S
C79 C83 1.460 . S
C79 H85 0.929 . S
N80 Mn73 2.257 . S
N80 C79 1.326 . S
N80 C84 1.362 . S
C81 C82 1.258 . S
C81 C84 1.431 . S
C81 C101 1.449 . S
C82 C81 1.258 . S
C82 C83 1.477 . S
C82 H102 0.931 . S
C83 C79 1.460 . S
C83 C82 1.477 . S
C83 H103 0.930 . S
C84 N80 1.362 . S
C84 C81 1.431 . S
C84 C94 1.476 . S
H85 C79 0.929 . S
C86 O77 1.242 1_655 S
C86 O78 1.262 . S
O87 Mn72 2.162 1_565 S
O87 C75 1.281 1_565 S
O88 Mn72 2.297 . S
O88 C75 1.236 . S
N89 Mn73 2.282 . S
N89 C90 1.328 . S
N89 C94 1.318 . S
C90 N89 1.328 . S
C90 C91 1.457 . S
C90 H95 0.929 . S
C91 C90 1.457 . S
C91 C92 1.291 . S
C91 H104 0.931 . S
C92 C91 1.291 . S
C92 C93 1.373 . S
C92 H105 0.929 . S
C93 C92 1.373 . S
C93 C94 1.396 . S
C93 C100 1.403 . S
C94 C84 1.476 . S
C94 N89 1.318 . S
C94 C93 1.396 . S
H95 C90 0.929 . S
O96 Mn72 2.385 . S
O96 C74 1.234 . S
O97 Mn72 2.209 . S
O97 Mn73 2.215 . S
O97 C74 1.283 . S
O98 Mn72 2.094 1_565 S
O98 C76 1.240 1_455 S
O99 Mn73 2.117 1_655 S
O99 C76 1.264 1_545 S
C100 C93 1.403 . S
C100 C101 1.399 . S
C100 H106 0.929 . S
C101 C81 1.449 . S
C101 C100 1.399 . S
C101 H107 0.930 . S
H102 C82 0.931 . S
H103 C83 0.930 . S
H104 C91 0.931 . S
H105 C92 0.929 . S
H106 C100 0.929 . S
H107 C101 0.930 . S
C108 C109 1.443 . S
C108 N112 1.376 . S
C108 C146 1.389 . S
C109 C108 1.443 . S
C109 C110 1.340 . S
C109 H149 0.951 . S
C110 C109 1.340 . S
C110 C111 1.439 . S
C110 H150 0.950 . S
C111 C110 1.439 . S
C111 N112 1.374 . S
C111 C145 1.395 . S
N112 C108 1.376 . S
N112 C111 1.374 . S
N112 Co113 2.008 . S
Co113 N112 2.008 . S
Co113 N114 1.995 . S
Co113 N119 2.008 1_455 S
Co113 N124 1.995 1_455 S
Co113 N129 2.282 . S
Co113 N135 2.282 . S
N114 Co113 1.995 . S
N114 C115 1.376 . S
N114 C118 1.383 . S
C115 N114 1.376 . S
C115 C116 1.446 . S
C115 C145 1.391 . S
C116 C115 1.446 . S
C116 C117 1.339 . S
C116 H151 0.949 . S
C117 C116 1.339 . S
C117 C118 1.439 . S
C117 H152 0.950 . S
C118 N114 1.383 . S
C118 C117 1.439 . S
C118 C147 1.392 . S
N119 Co113 2.008 1_655 S
N119 C120 1.376 . S
N119 C123 1.374 . S
C120 N119 1.376 . S
C120 C121 1.443 . S
C120 C147 1.389 1_655 S
C121 C120 1.443 . S
C121 C122 1.340 . S
C121 H153 0.951 . S
C122 C121 1.340 . S
C122 C123 1.439 . S
C122 H154 0.950 . S
C123 N119 1.374 . S
C123 C122 1.439 . S
C123 C148 1.395 . S
N124 Co113 1.995 1_655 S
N124 C125 1.376 . S
N124 C128 1.383 1_655 S
C125 N124 1.376 . S
C125 C126 1.446 . S
C125 C148 1.391 . S
C126 C125 1.446 . S
C126 C127 1.339 . S
C126 H155 0.949 . S
C127 C126 1.339 . S
C127 C128 1.439 1_655 S
C127 H156 0.950 . S
C128 N124 1.383 1_455 S
C128 C127 1.439 1_455 S
C128 C146 1.392 . S
N129 Co113 2.282 . S
N129 C132 1.332 . S
N129 C134 1.332 . S
C130 C131 1.386 . S
C130 C133 1.388 . S
C131 C130 1.386 . S
C131 C132 1.382 . S
C131 H157 0.950 1_455 S
C132 N129 1.332 . S
C132 C131 1.382 . S
C132 H143 0.952 1_455 S
C133 C130 1.388 . S
C133 C134 1.382 . S
C133 H158 0.950 . S
C134 N129 1.332 . S
C134 C133 1.382 . S
C134 H144 0.948 . S
N135 Co113 2.282 . S
N135 C139 1.332 . S
N135 C140 1.330 . S
C136 C137 1.388 1_655 S
C136 C140 1.383 1_655 S
C136 H159 0.950 . S
C137 C136 1.388 1_455 S
C137 C138 1.386 . S
C138 C137 1.386 . S
C138 C139 1.382 . S
C138 H160 0.950 . S
C139 N135 1.332 . S
C139 C138 1.382 . S
C139 H141 0.952 . S
C140 N135 1.330 . S
C140 C136 1.383 1_455 S
C140 H142 0.949 1_455 S
H141 C139 0.952 . S
H142 C140 0.949 1_655 S
H143 C132 0.952 1_655 S
H144 C134 0.948 . S
C145 C111 1.395 . S
C145 C115 1.391 . S
C146 C108 1.389 . S
C146 C128 1.392 . S
C147 C118 1.392 . S
C147 C120 1.389 1_455 S
C148 C123 1.395 . S
C148 C125 1.391 . S
H149 C109 0.951 . S
H150 C110 0.950 . S
H151 C116 0.949 . S
H152 C117 0.950 . S
H153 C121 0.951 . S
H154 C122 0.950 . S
H155 C126 0.949 . S
H156 C127 0.950 . S
H157 C131 0.950 1_655 S
H158 C133 0.950 . S
H159 C136 0.950 . S
H160 C138 0.950 . S
C161 C162 1.443 1_545 S
C161 N165 1.376 . S
C161 C199 1.389 . S
C162 C161 1.443 1_565 S
C162 C163 1.340 . S
C162 H202 0.951 . S
C163 C162 1.340 . S
C163 C164 1.439 . S
C163 H203 0.950 . S
C164 C163 1.439 . S
C164 N165 1.374 1_565 S
C164 C198 1.395 . S
N165 C161 1.376 . S
N165 C164 1.374 1_545 S
N165 Co166 2.008 . S
Co166 N165 2.008 . S
Co166 N167 1.995 . S
Co166 N172 2.008 . S
Co166 N177 1.995 . S
Co166 N182 2.282 . S
Co166 N188 2.282 . S
N167 Co166 1.995 . S
N167 C168 1.376 1_545 S
N167 C171 1.383 . S
C168 N167 1.376 1_565 S
C168 C169 1.446 . S
C168 C198 1.391 . S
C169 C168 1.446 . S
C169 C170 1.339 1_565 S
C169 H204 0.949 . S
C170 C169 1.339 1_545 S
C170 C171 1.439 . S
C170 H205 0.950 1_545 S
C171 N167 1.383 . S
C171 C170 1.439 . S
C171 C200 1.392 . S
N172 Co166 2.008 . S
N172 C173 1.376 . S
N172 C176 1.374 . S
C173 N172 1.376 . S
C173 C174 1.443 . S
C173 C200 1.389 . S
C174 C173 1.443 . S
C174 C175 1.340 . S
C174 H206 0.951 . S
C175 C174 1.340 . S
C175 C176 1.439 . S
C175 H207 0.950 . S
C176 N172 1.374 . S
C176 C175 1.439 . S
C176 C201 1.395 . S
N177 Co166 1.995 . S
N177 C178 1.376 . S
N177 C181 1.383 . S
C178 N177 1.376 . S
C178 C179 1.446 . S
C178 C201 1.391 . S
C179 C178 1.446 . S
C179 C180 1.339 . S
C179 H208 0.949 . S
C180 C179 1.339 . S
C180 C181 1.439 . S
C180 H209 0.950 . S
C181 N177 1.383 . S
C181 C180 1.439 . S
C181 C199 1.392 . S
N182 Co166 2.282 . S
N182 C185 1.332 . S
N182 C187 1.332 . S
C183 C184 1.386 . S
C183 C186 1.388 . S
C184 C183 1.386 . S
C184 C185 1.382 . S
C184 H210 0.950 . S
C185 N182 1.332 . S
C185 C184 1.382 . S
C185 H196 0.952 . S
C186 C183 1.388 . S
C186 C187 1.382 . S
C186 H211 0.950 . S
C187 N182 1.332 . S
C187 C186 1.382 . S
C187 H197 0.948 . S
N188 Co166 2.282 . S
N188 C192 1.332 . S
N188 C193 1.332 . S
C189 C190 1.388 . S
C189 C193 1.382 . S
C189 H212 0.950 . S
C190 C189 1.388 . S
C190 C191 1.386 . S
C191 C190 1.386 . S
C191 C192 1.382 . S
C191 H213 0.950 . S
C192 N188 1.332 . S
C192 C191 1.382 . S
C192 H194 0.952 . S
C193 N188 1.332 . S
C193 C189 1.382 . S
C193 H195 0.948 . S
H194 C192 0.952 . S
H195 C193 0.948 . S
H196 C185 0.952 . S
H197 C187 0.948 . S
C198 C164 1.395 . S
C198 C168 1.391 . S
C199 C161 1.389 . S
C199 C181 1.392 . S
C200 C171 1.392 . S
C200 C173 1.389 . S
C201 C176 1.395 . S
C201 C178 1.391 . S
H202 C162 0.951 . S
H203 C163 0.950 . S
H204 C169 0.949 . S
H205 C170 0.950 1_565 S
H206 C174 0.951 . S
H207 C175 0.950 . S
H208 C179 0.949 . S
H209 C180 0.950 . S
H210 C184 0.950 . S
H211 C186 0.950 . S
H212 C189 0.950 . S
H213 C191 0.950 . S
C214 C215 1.443 . S
C214 N218 1.376 . S
C214 C252 1.389 . S
C215 C214 1.443 . S
C215 C216 1.340 . S
C215 H255 0.951 . S
C216 C215 1.340 . S
C216 C217 1.439 . S
C216 H256 0.950 . S
C217 C216 1.439 . S
C217 N218 1.374 . S
C217 C251 1.395 . S
N218 C214 1.376 . S
N218 C217 1.374 . S
N218 Co219 2.008 . S
Co219 N218 2.008 . S
Co219 N220 1.995 . S
Co219 N225 2.008 . S
Co219 N230 1.995 . S
Co219 N235 2.282 . S
Co219 N241 2.282 . S
N220 Co219 1.995 . S
N220 C221 1.376 . S
N220 C224 1.383 . S
C221 N220 1.376 . S
C221 C222 1.446 . S
C221 C251 1.391 . S
C222 C221 1.446 . S
C222 C223 1.339 . S
C222 H257 0.949 . S
C223 C222 1.339 . S
C223 C224 1.439 . S
C223 H258 0.950 . S
C224 N220 1.383 . S
C224 C223 1.439 . S
C224 C253 1.392 . S
N225 Co219 2.008 . S
N225 C226 1.376 . S
N225 C229 1.374 . S
C226 N225 1.376 . S
C226 C227 1.443 . S
C226 C253 1.389 . S
C227 C226 1.443 . S
C227 C228 1.340 . S
C227 H259 0.951 . S
C228 C227 1.340 . S
C228 C229 1.439 . S
C228 H260 0.950 . S
C229 N225 1.374 . S
C229 C228 1.439 . S
C229 C254 1.395 . S
N230 Co219 1.995 . S
N230 C231 1.376 . S
N230 C234 1.383 . S
C231 N230 1.376 . S
C231 C232 1.446 . S
C231 C254 1.391 . S
C232 C231 1.446 . S
C232 C233 1.339 . S
C232 H261 0.949 . S
C233 C232 1.339 . S
C233 C234 1.439 . S
C233 H262 0.950 . S
C234 N230 1.383 . S
C234 C233 1.439 . S
C234 C252 1.392 . S
N235 Co219 2.282 . S
N235 C238 1.332 . S
N235 C240 1.332 . S
C236 C237 1.386 . S
C236 C239 1.388 . S
C237 C236 1.386 . S
C237 C238 1.382 . S
C237 H263 0.950 . S
C238 N235 1.332 . S
C238 C237 1.382 . S
C238 H249 0.952 . S
C239 C236 1.388 . S
C239 C240 1.382 . S
C239 H264 0.950 . S
C240 N235 1.332 . S
C240 C239 1.382 . S
C240 H250 0.948 . S
N241 Co219 2.282 . S
N241 C245 1.332 . S
N241 C246 1.332 . S
C242 C243 1.388 . S
C242 C246 1.382 . S
C242 H265 0.950 . S
C243 C242 1.388 . S
C243 C244 1.386 . S
C244 C243 1.386 . S
C244 C245 1.382 . S
C244 H266 0.950 . S
C245 N241 1.332 . S
C245 C244 1.382 . S
C245 H247 0.952 . S
C246 N241 1.332 . S
C246 C242 1.382 . S
C246 H248 0.948 . S
H247 C245 0.952 . S
H248 C246 0.948 . S
H249 C238 0.952 . S
H250 C240 0.948 . S
C251 C217 1.395 . S
C251 C221 1.391 . S
C252 C214 1.389 . S
C252 C234 1.392 . S
C253 C224 1.392 . S
C253 C226 1.389 . S
C254 C229 1.395 . S
C254 C231 1.391 . S
H255 C215 0.951 . S
H256 C216 0.950 . S
H257 C222 0.949 . S
H258 C223 0.950 . S
H259 C227 0.951 . S
H260 C228 0.950 . S
H261 C232 0.949 . S
H262 C233 0.950 . S
H263 C237 0.950 . S
H264 C239 0.950 . S
H265 C242 0.950 . S
H266 C244 0.950 . S
C267 C268 1.386 . S
C267 C269 1.383 . S
C267 H283 0.951 . S
C268 C267 1.386 . S
C268 C272 1.383 . S
C269 C267 1.383 . S
C269 C270 1.402 . S
C269 H284 0.951 . S
C270 C269 1.402 . S
C270 C271 1.375 . S
C270 C273 1.481 . S
C271 C270 1.375 . S
C271 C272 1.367 . S
C271 H285 0.951 . S
C272 C268 1.383 . S
C272 C271 1.367 . S
C272 H286 0.950 . S
C273 C270 1.481 . S
C273 C274 1.297 . S
C273 H287 0.950 . S
C274 C273 1.297 . S
C274 C275 1.479 . S
C274 H288 0.950 . S
C275 C274 1.479 . S
C275 C276 1.375 . S
C275 C281 1.404 . S
C276 C275 1.375 . S
C276 C277 1.369 . S
C276 H289 0.950 1_455 S
C277 C276 1.369 . S
C277 C278 1.392 . S
C277 H290 0.951 1_455 S
C278 C277 1.392 . S
C278 C280 1.384 . S
H279 C281 0.949 . S
C280 C278 1.384 . S
C280 C281 1.385 . S
C280 H282 0.950 . S
C281 C275 1.404 . S
C281 H279 0.949 . S
C281 C280 1.385 . S
H282 C280 0.950 . S
H283 C267 0.951 . S
H284 C269 0.951 . S
H285 C271 0.951 . S
H286 C272 0.950 . S
H287 C273 0.950 . S
H288 C274 0.950 . S
H289 C276 0.950 1_655 S
H290 C277 0.951 1_655 S
C291 C292 1.386 . S
C291 C293 1.383 . S
C291 H307 0.951 . S
C292 C291 1.386 . S
C292 C296 1.383 . S
C293 C291 1.383 . S
C293 C294 1.402 . S
C293 H308 0.951 . S
C294 C293 1.402 . S
C294 C295 1.375 . S
C294 C297 1.481 . S
C295 C294 1.375 . S
C295 C296 1.367 . S
C295 H309 0.951 1_545 S
C296 C292 1.383 . S
C296 C295 1.367 . S
C296 H310 0.950 1_545 S
C297 C294 1.481 . S
C297 C298 1.297 . S
C297 H311 0.950 . S
C298 C297 1.297 . S
C298 C299 1.479 . S
C298 H312 0.950 . S
C299 C298 1.479 . S
C299 C300 1.375 . S
C299 C305 1.404 . S
C300 C299 1.375 . S
C300 C301 1.369 . S
C300 H313 0.950 . S
C301 C300 1.369 . S
C301 C302 1.392 . S
C301 H314 0.951 . S
C302 C301 1.392 . S
C302 C304 1.384 . S
H303 C305 0.949 . S
C304 C302 1.384 . S
C304 C305 1.385 . S
C304 H306 0.950 . S
C305 C299 1.404 . S
C305 H303 0.949 . S
C305 C304 1.385 . S
H306 C304 0.950 . S
H307 C291 0.951 . S
H308 C293 0.951 . S
H309 C295 0.951 1_565 S
H310 C296 0.950 1_565 S
H311 C297 0.950 . S
H312 C298 0.950 . S
H313 C300 0.950 . S
H314 C301 0.951 . S
C315 C316 1.386 . S
C315 C317 1.383 . S
C315 H331 0.951 . S
C316 C315 1.386 . S
C316 C320 1.383 . S
C317 C315 1.383 . S
C317 C318 1.402 . S
C317 H332 0.951 . S
C318 C317 1.402 . S
C318 C319 1.375 . S
C318 C321 1.481 . S
C319 C318 1.375 . S
C319 C320 1.367 . S
C319 H333 0.951 . S
C320 C316 1.383 . S
C320 C319 1.367 . S
C320 H334 0.950 . S
C321 C318 1.481 . S
C321 C322 1.297 . S
C321 H335 0.950 . S
C322 C321 1.297 . S
C322 C323 1.479 . S
C322 H336 0.950 . S
C323 C322 1.479 . S
C323 C324 1.375 . S
C323 C329 1.404 . S
C324 C323 1.375 . S
C324 C325 1.369 . S
C324 H337 0.950 . S
C325 C324 1.369 . S
C325 C326 1.392 . S
C325 H338 0.951 . S
C326 C325 1.392 . S
C326 C328 1.384 . S
H327 C329 0.949 . S
C328 C326 1.384 . S
C328 C329 1.385 . S
C328 H330 0.950 . S
C329 C323 1.404 . S
C329 H327 0.949 . S
C329 C328 1.385 . S
H330 C328 0.950 . S
H331 C315 0.951 . S
H332 C317 0.951 . S
H333 C319 0.951 . S
H334 C320 0.950 . S
H335 C321 0.950 . S
H336 C322 0.950 . S
H337 C324 0.950 . S
H338 C325 0.951 . S
C339 C340 1.386 . S
C339 C341 1.383 . S
C339 H355 0.951 . S
C340 C339 1.386 . S
C340 C344 1.383 . S
C341 C339 1.383 . S
C341 C342 1.402 . S
C341 H356 0.951 . S
C342 C341 1.402 . S
C342 C343 1.375 . S
C342 C345 1.481 . S
C343 C342 1.375 . S
C343 C344 1.367 . S
C343 H357 0.951 . S
C344 C340 1.383 . S
C344 C343 1.367 . S
C344 H358 0.950 . S
C345 C342 1.481 . S
C345 C346 1.297 . S
C345 H359 0.950 . S
C346 C345 1.297 . S
C346 C347 1.479 . S
C346 H360 0.950 . S
C347 C346 1.479 . S
C347 C348 1.375 . S
C347 C353 1.404 . S
C348 C347 1.375 . S
C348 C349 1.369 . S
C348 H361 0.950 . S
C349 C348 1.369 . S
C349 C350 1.392 . S
C349 H362 0.951 . S
C350 C349 1.392 . S
C350 C352 1.384 . S
H351 C353 0.949 . S
C352 C350 1.384 . S
C352 C353 1.385 . S
C352 H354 0.950 . S
C353 C347 1.404 . S
C353 H351 0.949 . S
C353 C352 1.385 . S
H354 C352 0.950 . S
H355 C339 0.951 . S
H356 C341 0.951 . S
H357 C343 0.951 . S
H358 C344 0.950 . S
H359 C345 0.950 . S
H360 C346 0.950 . S
H361 C348 0.950 . S
H362 C349 0.951 . S
C363 C364 1.386 . S
C363 C365 1.383 . S
C363 H379 0.951 . S
C364 C363 1.386 . S
C364 C368 1.383 . S
C365 C363 1.383 . S
C365 C366 1.402 . S
C365 H380 0.951 . S
C366 C365 1.402 . S
C366 C367 1.375 . S
C366 C369 1.481 . S
C367 C366 1.375 . S
C367 C368 1.367 . S
C367 H381 0.951 . S
C368 C364 1.383 . S
C368 C367 1.367 . S
C368 H382 0.950 . S
C369 C366 1.481 . S
C369 C370 1.297 . S
C369 H383 0.950 . S
C370 C369 1.297 . S
C370 C371 1.479 . S
C370 H384 0.950 . S
C371 C370 1.479 . S
C371 C372 1.375 . S
C371 C377 1.404 . S
C372 C371 1.375 . S
C372 C373 1.369 . S
C372 H385 0.950 . S
C373 C372 1.369 . S
C373 C374 1.392 . S
C373 H386 0.951 . S
C374 C373 1.392 . S
C374 C376 1.384 . S
H375 C377 0.949 . S
C376 C374 1.384 . S
C376 C377 1.385 . S
C376 H378 0.950 . S
C377 C371 1.404 . S
C377 H375 0.949 . S
C377 C376 1.385 . S
H378 C376 0.950 . S
H379 C363 0.951 . S
H380 C365 0.951 . S
H381 C367 0.951 . S
H382 C368 0.950 . S
H383 C369 0.950 . S
H384 C370 0.950 . S
H385 C372 0.950 . S
H386 C373 0.951 . S
C387 C388 1.386 . S
C387 C389 1.383 . S
C387 H403 0.951 . S
C388 C387 1.386 . S
C388 C392 1.383 . S
C389 C387 1.383 . S
C389 C390 1.402 . S
C389 H404 0.951 . S
C390 C389 1.402 . S
C390 C391 1.375 . S
C390 C393 1.481 . S
C391 C390 1.375 . S
C391 C392 1.367 . S
C391 H405 0.951 . S
C392 C388 1.383 . S
C392 C391 1.367 . S
C392 H406 0.950 . S
C393 C390 1.481 . S
C393 C394 1.297 . S
C393 H407 0.950 . S
C394 C393 1.297 . S
C394 C395 1.479 . S
C394 H408 0.950 . S
C395 C394 1.479 . S
C395 C396 1.375 . S
C395 C401 1.404 . S
C396 C395 1.375 . S
C396 C397 1.369 . S
C396 H409 0.950 . S
C397 C396 1.369 . S
C397 C398 1.392 . S
C397 H410 0.951 . S
C398 C397 1.392 . S
C398 C400 1.384 . S
H399 C401 0.949 . S
C400 C398 1.384 . S
C400 C401 1.385 . S
C400 H402 0.950 . S
C401 C395 1.404 . S
C401 H399 0.949 . S
C401 C400 1.385 . S
H402 C400 0.950 . S
H403 C387 0.951 . S
H404 C389 0.951 . S
H405 C391 0.951 . S
H406 C392 0.950 . S
H407 C393 0.950 . S
H408 C394 0.950 . S
H409 C396 0.950 . S
H410 C397 0.951 . S
C411 C412 1.386 . S
C411 C413 1.383 . S
C411 H427 0.951 . S
C412 C411 1.386 . S
C412 C416 1.383 . S
C413 C411 1.383 . S
C413 C414 1.402 . S
C413 H428 0.951 . S
C414 C413 1.402 . S
C414 C415 1.375 . S
C414 C417 1.481 . S
C415 C414 1.375 . S
C415 C416 1.367 . S
C415 H429 0.951 . S
C416 C412 1.383 . S
C416 C415 1.367 . S
C416 H430 0.950 . S
C417 C414 1.481 . S
C417 C418 1.297 . S
C417 H431 0.950 . S
C418 C417 1.297 . S
C418 C419 1.479 . S
C418 H432 0.950 . S
C419 C418 1.479 . S
C419 C420 1.375 . S
C419 C425 1.404 . S
C420 C419 1.375 . S
C420 C421 1.369 . S
C420 H433 0.950 . S
C421 C420 1.369 . S
C421 C422 1.392 . S
C421 H434 0.951 . S
C422 C421 1.392 . S
C422 C424 1.384 . S
H423 C425 0.949 . S
C424 C422 1.384 . S
C424 C425 1.385 . S
C424 H426 0.950 . S
C425 C419 1.404 . S
C425 H423 0.949 . S
C425 C424 1.385 . S
H426 C424 0.950 . S
H427 C411 0.951 . S
H428 C413 0.951 . S
H429 C415 0.951 . S
H430 C416 0.950 . S
H431 C417 0.950 . S
H432 C418 0.950 . S
H433 C420 0.950 . S
H434 C421 0.951 . S
C435 C436 1.386 . S
C435 C437 1.383 1_554 S
C435 H451 0.951 . S
C436 C435 1.386 . S
C436 C440 1.383 1_655 S
C437 C435 1.383 1_556 S
C437 C438 1.402 . S
C437 H452 0.951 . S
C438 C437 1.402 . S
C438 C439 1.375 . S
C438 C441 1.481 . S
C439 C438 1.375 . S
C439 C440 1.367 1_656 S
C439 H453 0.951 . S
C440 C436 1.383 1_455 S
C440 C439 1.367 1_454 S
C440 H454 0.950 . S
C441 C438 1.481 . S
C441 C442 1.297 . S
C441 H455 0.950 . S
C442 C441 1.297 . S
C442 C443 1.479 . S
C442 H456 0.950 . S
C443 C442 1.479 . S
C443 C444 1.375 . S
C443 C449 1.404 . S
C444 C443 1.375 . S
C444 C445 1.369 . S
C444 H457 0.950 . S
C445 C444 1.369 . S
C445 C446 1.392 . S
C445 H458 0.951 . S
C446 C445 1.392 . S
C446 C448 1.384 . S
H447 C449 0.949 . S
C448 C446 1.384 . S
C448 C449 1.385 . S
C448 H450 0.950 . S
C449 C443 1.404 . S
C449 H447 0.949 . S
C449 C448 1.385 . S
H450 C448 0.950 . S
H451 C435 0.951 . S
H452 C437 0.951 . S
H453 C439 0.951 . S
H454 C440 0.950 . S
H455 C441 0.950 . S
H456 C442 0.950 . S
H457 C444 0.950 . S
H458 C445 0.951 . S
C459 C460 1.386 1_655 S
C459 C461 1.383 . S
C459 H475 0.951 . S
C460 C459 1.386 1_455 S
C460 C464 1.383 . S
C461 C459 1.383 . S
C461 C462 1.402 1_655 S
C461 H476 0.951 . S
C462 C461 1.402 1_455 S
C462 C463 1.375 . S
C462 C465 1.481 . S
C463 C462 1.375 . S
C463 C464 1.367 . S
C463 H477 0.951 . S
C464 C460 1.383 . S
C464 C463 1.367 . S
C464 H478 0.950 1_565 S
C465 C462 1.481 . S
C465 C466 1.297 . S
C465 H479 0.950 . S
C466 C465 1.297 . S
C466 C467 1.479 . S
C466 H480 0.950 1_455 S
C467 C466 1.479 . S
C467 C468 1.375 1_455 S
C467 C473 1.404 . S
C468 C467 1.375 1_655 S
C468 C469 1.369 . S
C468 H481 0.950 . S
C469 C468 1.369 . S
C469 C470 1.392 1_655 S
C469 H482 0.951 . S
C470 C469 1.392 1_455 S
C470 C472 1.384 . S
H471 C473 0.949 . S
C472 C470 1.384 . S
C472 C473 1.385 . S
C472 H474 0.950 . S
C473 C467 1.404 . S
C473 H471 0.949 . S
C473 C472 1.385 . S
H474 C472 0.950 . S
H475 C459 0.951 . S
H476 C461 0.951 . S
H477 C463 0.951 . S
H478 C464 0.950 1_545 S
H479 C465 0.950 . S
H480 C466 0.950 1_655 S
H481 C468 0.950 . S
H482 C469 0.951 . S
C483 C484 1.386 . S
C483 C485 1.383 . S
C483 H499 0.951 . S
C484 C483 1.386 . S
C484 C488 1.397 . S
C485 C483 1.383 . S
C485 C486 1.402 . S
C485 H500 0.951 . S
C486 C485 1.402 . S
C486 C487 1.375 . S
C486 C489 1.481 . S
C487 C486 1.375 . S
C487 C488 1.361 . S
C487 H501 0.951 1_545 S
C488 C484 1.397 . S
C488 C487 1.361 . S
C488 H502 0.942 1_545 S
C489 C486 1.481 . S
C489 C490 1.297 . S
C489 H503 0.950 . S
C490 C489 1.297 . S
C490 C491 1.479 . S
C490 H504 0.950 . S
C491 C490 1.479 . S
C491 C492 1.375 . S
C491 C497 1.404 . S
C492 C491 1.375 . S
C492 C493 1.369 . S
C492 H505 0.950 . S
C493 C492 1.369 . S
C493 C494 1.392 . S
C493 H506 0.951 . S
C494 C493 1.392 . S
C494 C496 1.384 . S
H495 C497 0.949 . S
C496 C494 1.384 . S
C496 C497 1.385 . S
C496 H498 0.950 . S
C497 C491 1.404 . S
C497 H495 0.949 . S
C497 C496 1.385 . S
H498 C496 0.950 . S
H499 C483 0.951 . S
H500 C485 0.951 . S
H501 C487 0.951 1_565 S
H502 C488 0.942 1_565 S
H503 C489 0.950 . S
H504 C490 0.950 . S
H505 C492 0.950 . S
H506 C493 0.951 . S
C507 C508 1.386 1_556 S
C507 C509 1.383 . S
C507 H523 0.951 . S
C508 C507 1.386 1_554 S
C508 C512 1.383 . S
C509 C507 1.383 . S
C509 C510 1.402 . S
C509 H524 0.951 . S
C510 C509 1.402 . S
C510 C511 1.375 1_556 S
C510 C513 1.481 . S
C511 C510 1.375 1_554 S
C511 C512 1.367 . S
C511 H525 0.951 . S
C512 C508 1.383 . S
C512 C511 1.367 . S
C512 H526 0.950 . S
C513 C510 1.481 . S
C513 C514 1.297 . S
C513 H527 0.950 . S
C514 C513 1.297 . S
C514 C515 1.479 . S
C514 H528 0.950 . S
C515 C514 1.479 . S
C515 C516 1.375 . S
C515 C521 1.404 . S
C516 C515 1.375 . S
C516 C517 1.369 . S
C516 H529 0.950 . S
C517 C516 1.369 . S
C517 C518 1.392 . S
C517 H530 0.951 . S
C518 C517 1.392 . S
C518 C520 1.384 . S
H519 C521 0.949 . S
C520 C518 1.384 . S
C520 C521 1.385 . S
C520 H522 0.950 . S
C521 C515 1.404 . S
C521 H519 0.949 . S
C521 C520 1.385 . S
H522 C520 0.950 . S
H523 C507 0.951 . S
H524 C509 0.951 . S
H525 C511 0.951 . S
H526 C512 0.950 . S
H527 C513 0.950 . S
H528 C514 0.950 . S
H529 C516 0.950 . S
H530 C517 0.951 . S
C531 C532 1.386 . S
C531 C533 1.383 . S
C531 H547 0.951 . S
C532 C531 1.386 . S
C532 C536 1.383 . S
C533 C531 1.383 . S
C533 C534 1.402 . S
C533 H548 0.951 . S
C534 C533 1.402 . S
C534 C535 1.375 . S
C534 C537 1.481 . S
C535 C534 1.375 . S
C535 C536 1.367 . S
C535 H549 0.951 . S
C536 C532 1.383 . S
C536 C535 1.367 . S
C536 H550 0.950 . S
C537 C534 1.481 . S
C537 C538 1.297 . S
C537 H551 0.950 . S
C538 C537 1.297 . S
C538 C539 1.479 . S
C538 H552 0.950 . S
C539 C538 1.479 . S
C539 C540 1.375 . S
C539 C545 1.404 . S
C540 C539 1.375 . S
C540 C541 1.369 . S
C540 H553 0.950 . S
C541 C540 1.369 . S
C541 C542 1.392 . S
C541 H554 0.951 . S
C542 C541 1.392 . S
C542 C544 1.384 . S
H543 C545 0.949 . S
C544 C542 1.384 . S
C544 C545 1.385 . S
C544 H546 0.950 . S
C545 C539 1.404 . S
C545 H543 0.949 . S
C545 C544 1.385 . S
H546 C544 0.950 . S
H547 C531 0.951 . S
H548 C533 0.951 . S
H549 C535 0.951 . S
H550 C536 0.950 . S
H551 C537 0.950 . S
H552 C538 0.950 . S
H553 C540 0.950 . S
H554 C541 0.951 . S
C278 C130 1.474 . S
C268 C14 1.445 . S
C292 C40 1.500 . S
C302 C200 1.487 . S
C316 C76 1.457 . S
C326 C252 1.462 . S
C340 C3 1.461 . S
C350 C146 1.442 . S
C374 C190 1.497 . S
C364 C38 1.483 . S
C388 C74 1.468 . S
C398 C236 1.452 . S
C422 C183 1.435 . S
C412 C86 1.388 . S
C436 C2 1.440 1_655 S
C446 C243 1.467 . S
C470 C137 1.452 . S
C460 C39 1.453 . S
C494 C199 1.451 . S
C484 C75 1.468 . S
C518 C253 1.472 . S
C508 C4 1.456 . S
C532 C50 1.436 . S
C542 C147 1.457 . S
