# Generated by pormake.
# Topology anh, (6,3)-cn, num edge types: 1
# Building blocks:
#     Node 0, Type 0, BuildingBlock: BETGAK_clean_sbu_0, # of connection points: 6
#     Node 1, Type 0, BuildingBlock: BETGAK_clean_sbu_0, # of connection points: 6
#     Node 2, Type 0, BuildingBlock: BETGAK_clean_sbu_0, # of connection points: 6
#     Node 3, Type 1, BuildingBlock: OLANEW_clean_sbu_2, # of connection points: 3
#     Node 4, Type 1, BuildingBlock: OLANEW_clean_sbu_2, # of connection points: 3
#     Node 5, Type 1, BuildingBlock: OLANEW_clean_sbu_2, # of connection points: 3
#     Node 6, Type 1, BuildingBlock: OLANEW_clean_sbu_2, # of connection points: 3
#     Node 7, Type 1, BuildingBlock: OLANEW_clean_sbu_2, # of connection points: 3
#     Node 8, Type 1, BuildingBlock: OLANEW_clean_sbu_2, # of connection points: 3
#     Edge 9, Type (0, 1), BuildingBlock: KIFKEQ_clean_linker_1, # of connection points: 2
#     Edge 10, Type (0, 1), BuildingBlock: KIFKEQ_clean_linker_1, # of connection points: 2
#     Edge 11, Type (0, 1), BuildingBlock: KIFKEQ_clean_linker_1, # of connection points: 2
#     Edge 12, Type (0, 1), BuildingBlock: KIFKEQ_clean_linker_1, # of connection points: 2
#     Edge 13, Type (0, 1), BuildingBlock: KIFKEQ_clean_linker_1, # of connection points: 2
#     Edge 14, Type (0, 1), BuildingBlock: KIFKEQ_clean_linker_1, # of connection points: 2
#     Edge 15, Type (0, 1), BuildingBlock: KIFKEQ_clean_linker_1, # of connection points: 2
#     Edge 16, Type (0, 1), BuildingBlock: KIFKEQ_clean_linker_1, # of connection points: 2
#     Edge 17, Type (0, 1), BuildingBlock: KIFKEQ_clean_linker_1, # of connection points: 2
#     Edge 18, Type (0, 1), BuildingBlock: KIFKEQ_clean_linker_1, # of connection points: 2
#     Edge 19, Type (0, 1), BuildingBlock: KIFKEQ_clean_linker_1, # of connection points: 2
#     Edge 20, Type (0, 1), BuildingBlock: KIFKEQ_clean_linker_1, # of connection points: 2
#     Edge 21, Type (0, 1), BuildingBlock: KIFKEQ_clean_linker_1, # of connection points: 2
#     Edge 22, Type (0, 1), BuildingBlock: KIFKEQ_clean_linker_1, # of connection points: 2
#     Edge 23, Type (0, 1), BuildingBlock: KIFKEQ_clean_linker_1, # of connection points: 2
#     Edge 24, Type (0, 1), BuildingBlock: KIFKEQ_clean_linker_1, # of connection points: 2
#     Edge 25, Type (0, 1), BuildingBlock: KIFKEQ_clean_linker_1, # of connection points: 2
#     Edge 26, Type (0, 1), BuildingBlock: KIFKEQ_clean_linker_1, # of connection points: 2
# Relax obj value: 0.141
# Max RMSD: 0.165
# Mean RMSD: 0.114
data_MOF--net-anh--node1-BETGAK_clean_sbu_0--node2-OLANEW_clean_sbu_2--edge1-KIFKEQ_clean_linker_1
_symmetry_space_group_name_H-M    P1
_symmetry_Int_Tables_number       1
_symmetry_cell_setting            triclinic
loop_
_symmetry_equiv_pos_as_xyz
'x, y, z'
_cell_length_a     37.169619
_cell_length_b     41.569006
_cell_length_c     51.911765
_cell_angle_alpha  91.838642
_cell_angle_beta   89.388268
_cell_angle_gamma 130.20609
loop_
_atom_site_label
_atom_site_type_symbol
_atom_site_fract_x
_atom_site_fract_y
_atom_site_fract_z
_atom_type_partial_charge
La0 La 0.06853 0.50434 0.12568 0.0
La1 La 1.02384 0.54405 0.14614 0.0
C2 C 0.11046 0.48446 0.10084 0.0
C3 C 0.15194 0.48909 0.10705 0.0
C4 C 0.17859 0.51188 0.1294 0.0
C5 C 0.21432 0.5118 0.13726 0.0
C6 C 0.22384 0.48884 0.1229 0.0
C7 C 0.19824 0.46744 0.09994 0.0
C8 C 0.1624 0.46748 0.09213 0.0
C9 C 0.062 0.50844 0.17608 0.0
C10 C 0.1335 0.60473 0.13472 0.0
C11 C 0.9919 0.56706 0.17743 0.0
C12 C 0.94771 0.5591 0.18104 0.0
C13 C 0.91545 0.54342 0.1606 0.0
C14 C 0.87435 0.53766 0.16406 0.0
C15 C 0.86474 0.54718 0.1881 0.0
C16 C 0.8966 0.5616 0.20873 0.0
C17 C 0.93781 0.56756 0.20519 0.0
C18 C 1.01403 0.52983 0.09511 0.0
C19 C 0.95942 0.44586 0.13384 0.0
O20 O 0.07421 0.45866 0.11553 0.0
O21 O 0.11805 0.51951 0.09759 0.0
O22 O 0.06343 0.4814 0.16423 0.0
O23 O 0.06979 0.53423 0.16014 0.0
O24 O 0.1297 0.57218 0.126 0.0
O25 O 0.09767 0.60045 0.14472 0.0
O26 O 1.01616 0.58819 0.15698 0.0
O27 O 0.98975 0.53474 0.18096 0.0
O28 O 0.99891 0.54648 0.10778 0.0
O29 O 0.03177 0.52232 0.11155 0.0
O30 O 0.96574 0.47632 0.148 0.0
O31 O 0.99324 0.45222 0.11955 0.0
H32 H 0.17073 0.52861 0.1412 0.0
H33 H 0.23386 0.529 0.15484 0.0
H34 H 0.20447 0.44914 0.08863 0.0
H35 H 0.14181 0.44946 0.07495 0.0
H36 H 0.92249 0.53642 0.14185 0.0
H37 H 0.85091 0.52703 0.14768 0.0
H38 H 0.88986 0.5686 0.22756 0.0
H39 H 0.96224 0.57923 0.22123 0.0
La40 La 0.57194 0.0179 0.48193 0.0
La41 La 0.51736 0.04635 0.47141 0.0
C42 C 0.60266 0.98308 0.49853 0.0
C43 C 0.58971 0.94109 0.49743 0.0
C44 C 0.59876 0.92679 0.47541 0.0
C45 C 0.59032 0.8888 0.47546 0.0
C46 C 0.57276 0.8643 0.49753 0.0
C47 C 0.5626 0.8781 0.5193 0.0
C48 C 0.57116 0.91615 0.51928 0.0
C49 C 0.57309 0.03635 0.43367 0.0
C50 C 0.46184 0.94993 0.46871 0.0
C51 C 0.4872 0.08149 0.45452 0.0
C52 C 0.4962 0.12129 0.45979 0.0
C53 C 0.45821 0.11997 0.4652 0.0
C54 C 0.46591 0.15704 0.47122 0.0
C55 C 0.51187 0.19625 0.47199 0.0
C56 C 0.54984 0.19754 0.46619 0.0
C57 C 0.54206 0.16046 0.46009 0.0
C58 C 0.51712 0.02846 0.51983 0.0
C59 C 0.62814 0.11437 0.48405 0.0
O60 O 0.6164 1.00361 0.47713 0.0
O61 O 0.57531 0.98684 0.51172 0.0
O62 O 0.60761 0.04221 0.44524 0.0
O63 O 0.53821 0.0177 0.4484 0.0
O64 O 0.49877 0.95808 0.48016 0.0
O65 O 0.46415 0.98048 0.45944 0.0
O66 O 0.4673 0.05467 0.47309 0.0
O67 O 0.5209 0.084 0.44368 0.0
O68 O 0.48363 0.02514 0.50909 0.0
O69 O 0.55121 0.0466 0.50469 0.0
O70 O 0.59053 0.10614 0.47348 0.0
O71 O 0.62657 0.08399 0.49286 0.0
H72 H 0.61324 0.94528 0.45826 0.0
H73 H 0.59805 0.87882 0.4583 0.0
H74 H 0.54968 0.86029 0.53674 0.0
H75 H 0.56435 0.92658 0.53662 0.0
H76 H 0.42252 0.09011 0.46507 0.0
H77 H 0.43594 0.15486 0.47584 0.0
H78 H 0.5856 0.22727 0.46624 0.0
H79 H 0.57191 0.16244 0.45572 0.0
La80 La 0.58559 0.56971 0.84186 0.0
La81 La 0.52071 0.479 0.85611 0.0
C82 C 0.62381 0.63787 0.81952 0.0
C83 C 0.61388 0.66637 0.8152 0.0
C84 C 0.65081 0.71003 0.81736 0.0
C85 C 0.6424 0.73785 0.81368 0.0
C86 C 0.59675 0.72251 0.80785 0.0
C87 C 0.55974 0.67866 0.80569 0.0
C88 C 0.56827 0.65085 0.80923 0.0
C89 C 0.57931 0.55665 0.8916 0.0
C90 C 0.47556 0.52087 0.8518 0.0
C91 C 0.48394 0.4091 0.87546 0.0
C92 C 0.49201 0.37926 0.87022 0.0
C93 C 0.52314 0.38737 0.85075 0.0
C94 C 0.5284 0.35781 0.84418 0.0
C95 C 0.50256 0.31948 0.85693 0.0
C96 C 0.4725 0.31204 0.87703 0.0
C97 C 0.46717 0.34172 0.88357 0.0
C98 C 0.52737 0.49177 0.8063 0.0
C99 C 0.63203 0.52975 0.85004 0.0
O100 O 0.63326 0.63594 0.84333 0.0
O101 O 0.59609 0.60066 0.80786 0.0
O102 O 0.61715 0.58849 0.88069 0.0
O103 O 0.54635 0.536 0.87529 0.0
O104 O 0.51514 0.55215 0.84034 0.0
O105 O 0.47246 0.49121 0.86337 0.0
O106 O 0.46531 0.41368 0.85623 0.0
O107 O 0.51929 0.44541 0.88614 0.0
O108 O 0.48968 0.4604 0.81738 0.0
O109 O 0.56046 0.51253 0.8226 0.0
O110 O 0.59095 0.49716 0.85941 0.0
O111 O 0.63682 0.56034 0.83864 0.0
H112 H 0.68624 0.72265 0.822 0.0
H113 H 0.67157 0.77141 0.81579 0.0
H114 H 0.52429 0.66584 0.80092 0.0
H115 H 0.53929 0.61728 0.8072 0.0
H116 H 0.54261 0.41621 0.84021 0.0
H117 H 0.55232 0.36474 0.82888 0.0
H118 H 0.45189 0.28268 0.88707 0.0
H119 H 0.44291 0.33495 0.89861 0.0
O120 O 0.56542 0.07011 0.2286 0.0
Cd121 Cd 0.56593 0.07843 0.18201 0.0
O122 O 0.53387 1.00323 0.22896 0.0
Cd123 Cd 0.51017 0.98294 0.18887 0.0
O124 O 0.45327 0.92625 0.16645 0.0
C125 C 0.44589 0.89246 0.17078 0.0
O126 O 0.47437 0.89427 0.18677 0.0
C127 C 0.55261 0.03819 0.24079 0.0
C128 C 0.64965 0.15702 0.1677 0.0
O129 O 0.61494 0.15322 0.1768 0.0
O130 O 0.64489 0.12368 0.16509 0.0
O131 O 0.57377 0.52484 0.6001 0.0
Cd132 Cd 0.57492 0.52634 0.55298 0.0
O133 O 0.51578 0.52639 0.60291 0.0
Cd134 Cd 0.5171 0.54138 0.56283 0.0
O135 O 0.51987 0.58408 0.53773 0.0
C136 C 0.55842 0.62182 0.53721 0.0
O137 O 0.59506 0.63193 0.54988 0.0
C138 C 0.54416 0.52352 0.61365 0.0
C139 C 0.56184 0.45671 0.53175 0.0
O140 O 0.60325 0.49171 0.53661 0.0
O141 O 0.52663 0.45478 0.53667 0.0
O142 O 0.08843 0.51808 0.89971 0.0
Cd143 Cd 0.1291 0.52568 0.85917 0.0
O144 O 0.03931 0.52687 0.88567 0.0
Cd145 Cd 0.9801 0.52802 0.88774 0.0
O146 O 0.91683 0.52238 0.88143 0.0
C147 C 0.91921 0.55437 0.88091 0.0
O148 O 0.96037 0.59207 0.88471 0.0
C149 C 0.05605 0.52018 0.90407 0.0
C150 C 0.20383 0.52363 0.86207 0.0
O151 O 0.21132 0.55826 0.86516 0.0
O152 O 0.16105 0.4898 0.85839 0.0
O153 O 0.07079 0.55726 0.38213 0.0
Cd154 Cd 0.07722 0.56745 0.42902 0.0
O155 O 1.00414 0.49147 0.3805 0.0
Cd156 Cd 0.98875 0.48065 0.42157 0.0
O157 O 0.93678 0.43145 0.44782 0.0
C158 C 0.93308 0.39886 0.44836 0.0
O159 O 0.96293 0.39826 0.43505 0.0
C160 C 0.03844 0.52414 0.36914 0.0
C161 C 0.15966 0.64914 0.44189 0.0
O162 O 0.15993 0.61854 0.43919 0.0
O163 O 0.12026 0.64098 0.43896 0.0
O164 O 0.52573 0.99073 0.72392 0.0
Cd165 Cd 0.52703 0.98439 0.77052 0.0
O166 O 0.56831 0.05964 0.72526 0.0
Cd167 Cd 0.56674 0.06787 0.76691 0.0
O168 O 0.55602 0.1026 0.79377 0.0
C169 C 0.5239 0.10332 0.78672 0.0
O170 O 0.4993 0.08169 0.76574 0.0
C171 C 0.54698 0.02514 0.71234 0.0
C172 C 0.54134 0.92779 0.78122 0.0
O173 O 0.49974 0.91503 0.77789 0.0
O174 O 0.57614 0.96736 0.77978 0.0
O175 O 0.54255 0.55337 0.09749 0.0
Cd176 Cd 0.53921 0.55793 0.14431 0.0
O177 O 0.50214 0.48479 0.09255 0.0
Cd178 Cd 0.486 0.46892 0.13311 0.0
O179 O 0.46972 0.44416 0.17216 0.0
C180 C 0.43694 0.43664 0.18623 0.0
O181 O 0.42901 0.41908 0.2085 0.0
C182 C 0.52552 0.52105 0.08299 0.0
C183 C 0.6053 0.55598 0.16668 0.0
O184 O 0.61652 0.591 0.16041 0.0
O185 O 0.56265 0.52224 0.16292 0.0
H186 H 0.2905 0.49336 0.0958 0.0
H187 H 0.23372 0.47447 0.17217 0.0
H188 H 0.34281 0.48171 0.11168 0.0
H189 H 0.28677 0.46393 0.18814 0.0
H190 H 0.34499 0.39479 0.19775 0.0
H191 H 0.29483 0.40948 0.18288 0.0
H192 H 0.41172 0.51521 0.14107 0.0
H193 H 0.46163 0.50083 0.15644 0.0
C194 C 0.28941 0.48696 0.11599 0.0
C195 C 0.25802 0.48481 0.13273 0.0
C196 C 0.31957 0.48062 0.12512 0.0
C197 C 0.3187 0.47173 0.15113 0.0
C198 C 0.28784 0.47024 0.16794 0.0
C199 C 0.25789 0.4768 0.15885 0.0
C200 C 0.35989 0.42117 0.1854 0.0
C201 C 0.40691 0.44595 0.17752 0.0
C202 C 0.33127 0.42967 0.17696 0.0
C203 C 0.34926 0.46325 0.16059 0.0
C204 C 0.39656 0.48851 0.15317 0.0
C205 C 0.42509 0.48006 0.16172 0.0
H206 H 0.64512 0.18503 0.46802 0.0
H207 H 0.71377 0.1436 0.50253 0.0
H208 H 0.7205 0.25552 0.46489 0.0
H209 H 0.78948 0.21469 0.49986 0.0
H210 H 0.91358 0.32351 0.45093 0.0
H211 H 0.84097 0.25688 0.46474 0.0
H212 H 0.78661 0.31917 0.48731 0.0
H213 H 0.85914 0.38595 0.4729 0.0
C214 C 0.67612 0.19107 0.47538 0.0
C215 C 0.67327 0.15842 0.48528 0.0
C216 C 0.71948 0.23172 0.47375 0.0
C217 C 0.76118 0.2408 0.48199 0.0
C218 C 0.75811 0.20862 0.49299 0.0
C219 C 0.71464 0.16789 0.49463 0.0
C220 C 0.88648 0.32321 0.45918 0.0
C221 C 0.89198 0.36001 0.4605 0.0
C222 C 0.84487 0.28495 0.46729 0.0
C223 C 0.80773 0.28254 0.47695 0.0
C224 C 0.81424 0.31981 0.47957 0.0
C225 C 0.85593 0.35814 0.47145 0.0
H226 H 0.52345 0.71695 0.82594 0.0
H227 H 0.65019 0.79535 0.78116 0.0
H228 H 0.50992 0.76647 0.82031 0.0
H229 H 0.63649 0.8446 0.77526 0.0
H230 H 0.62466 0.94558 0.79154 0.0
H231 H 0.63754 0.89601 0.79862 0.0
H232 H 0.48842 0.79211 0.78821 0.0
H233 H 0.47541 0.84176 0.78181 0.0
C234 C 0.54817 0.74456 0.81468 0.0
C235 C 0.58796 0.75225 0.80405 0.0
C236 C 0.54042 0.77296 0.81143 0.0
C237 C 0.57218 0.80966 0.79738 0.0
C238 C 0.61178 0.81713 0.78661 0.0
C239 C 0.61961 0.78883 0.78994 0.0
C240 C 0.59459 0.91216 0.79085 0.0
C241 C 0.54901 0.89765 0.78608 0.0
C242 C 0.60201 0.88369 0.79475 0.0
C243 C 0.56406 0.83998 0.79387 0.0
C244 C 0.51841 0.82553 0.78933 0.0
C245 C 0.51097 0.85402 0.78552 0.0
H246 H 0.77567 0.48623 0.16844 0.0
H247 H 0.85993 0.60243 0.21423 0.0
H248 H 0.71104 0.48738 0.16821 0.0
H249 H 0.79443 0.60242 0.21511 0.0
H250 H 0.69978 0.62081 0.17266 0.0
H251 H 0.7599 0.61607 0.18285 0.0
H252 H 0.65194 0.48209 0.19291 0.0
H253 H 0.59172 0.48666 0.18207 0.0
C254 C 0.78015 0.5117 0.17876 0.0
C255 C 0.82316 0.54453 0.19105 0.0
C256 C 0.74287 0.51207 0.17893 0.0
C257 C 0.74774 0.54519 0.19149 0.0
C258 C 0.78985 0.57679 0.20495 0.0
C259 C 0.8272 0.57652 0.20469 0.0
C260 C 0.68881 0.59045 0.17741 0.0
C261 C 0.64108 0.55406 0.17628 0.0
C262 C 0.72327 0.58775 0.18342 0.0
C263 C 0.7107 0.54863 0.18853 0.0
C264 C 0.66276 0.51257 0.18866 0.0
C265 C 0.62828 0.51524 0.18257 0.0
H266 H 0.3823 0.92037 0.44187 0.0
H267 H 0.44129 0.87912 0.48788 0.0
H268 H 0.30977 0.84777 0.43626 0.0
H269 H 0.36812 0.80651 0.48286 0.0
H270 H 0.24957 0.67757 0.44446 0.0
H271 H 0.3224 0.74991 0.45127 0.0
H272 H 0.24224 0.79169 0.45933 0.0
H273 H 0.16954 0.71952 0.45177 0.0
C274 C 0.37975 0.89585 0.45092 0.0
C275 C 0.41772 0.90563 0.46529 0.0
C276 C 0.33794 0.85417 0.44785 0.0
C277 C 0.33291 0.82118 0.45918 0.0
C278 C 0.37092 0.831 0.47358 0.0
C279 C 0.41285 0.87271 0.47656 0.0
C280 C 0.24747 0.70217 0.44779 0.0
C281 C 0.20373 0.69277 0.44746 0.0
C282 C 0.28927 0.74367 0.45183 0.0
C283 C 0.28832 0.77677 0.45576 0.0
C284 C 0.24442 0.76716 0.45591 0.0
C285 C 0.20266 0.7257 0.45175 0.0
H286 H 0.50954 0.27002 0.88653 0.0
H287 H 0.50102 0.29448 0.80755 0.0
H288 H 0.51246 0.2152 0.87154 0.0
H289 H 0.50486 0.24069 0.79268 0.0
H290 H 0.46005 0.11271 0.77479 0.0
H291 H 0.45361 0.1632 0.7934 0.0
H292 H 0.56658 0.20848 0.84706 0.0
H293 H 0.57293 0.15744 0.8285 0.0
C294 C 0.50827 0.26368 0.86602 0.0
C295 C 0.50516 0.28663 0.84822 0.0
C296 C 0.5103 0.23256 0.85745 0.0
C297 C 0.50864 0.22349 0.83094 0.0
C298 C 0.50561 0.24654 0.81323 0.0
C299 C 0.50395 0.27772 0.82175 0.0
C300 C 0.48332 0.1331 0.7907 0.0
C301 C 0.51731 0.13126 0.8 0.0
C302 C 0.47975 0.16222 0.80128 0.0
C303 C 0.50998 0.19017 0.82147 0.0
C304 C 0.5427 0.18723 0.83156 0.0
C305 C 0.54642 0.15811 0.82087 0.0
H306 H 0.50074 0.78842 0.51808 0.0
H307 H 0.63367 0.85341 0.47933 0.0
H308 H 0.49665 0.72805 0.52348 0.0
H309 H 0.6288 0.79252 0.48394 0.0
H310 H 0.63494 0.70524 0.53372 0.0
H311 H 0.63644 0.76158 0.52026 0.0
H312 H 0.48802 0.67044 0.50115 0.0
H313 H 0.48628 0.61388 0.51506 0.0
C314 C 0.52883 0.78963 0.51048 0.0
C315 C 0.56768 0.82583 0.49845 0.0
C316 C 0.52624 0.75485 0.5133 0.0
C317 C 0.56251 0.75554 0.50422 0.0
C318 C 0.60054 0.79118 0.49139 0.0
C319 C 0.60307 0.8259 0.48852 0.0
C320 C 0.60272 0.69707 0.52633 0.0
C321 C 0.5604 0.65508 0.52569 0.0
C322 C 0.60364 0.72941 0.51847 0.0
C323 C 0.56227 0.72054 0.50979 0.0
C324 C 0.52034 0.67834 0.5081 0.0
C325 C 0.51943 0.64592 0.51591 0.0
H326 H 0.63563 0.47321 0.87282 0.0
H327 H 0.7226 0.59098 0.83349 0.0
H328 H 0.70398 0.47846 0.87966 0.0
H329 H 0.79081 0.59567 0.8397 0.0
H330 H 0.91262 0.61625 0.88094 0.0
H331 H 0.8436 0.60934 0.87258 0.0
H332 H 0.7598 0.47502 0.85998 0.0
H333 H 0.8289 0.48189 0.86905 0.0
C334 C 0.66924 0.50009 0.86539 0.0
C335 C 0.67344 0.53179 0.85269 0.0
C336 C 0.70856 0.50296 0.86919 0.0
C337 C 0.75332 0.53761 0.86039 0.0
C338 C 0.75725 0.56888 0.84721 0.0
C339 C 0.71793 0.56604 0.84345 0.0
C340 C 0.87951 0.58517 0.8764 0.0
C341 C 0.87651 0.54963 0.87573 0.0
C342 C 0.83982 0.58124 0.87138 0.0
C343 C 0.79581 0.54162 0.86545 0.0
C344 C 0.79281 0.50601 0.86477 0.0
C345 C 0.83258 0.50996 0.86986 0.0
H346 H 0.15393 0.67944 0.14691 0.0
H347 H 0.21973 0.62727 0.12427 0.0
H348 H 0.23093 0.74896 0.1517 0.0
H349 H 0.29715 0.69742 0.12868 0.0
H350 H 0.42086 0.81529 0.17677 0.0
H351 H 0.34689 0.74652 0.16433 0.0
H352 H 0.3 0.8066 0.12881 0.0
H353 H 0.37389 0.87563 0.14169 0.0
C354 C 0.18479 0.68281 0.14266 0.0
C355 C 0.18052 0.64757 0.13538 0.0
C356 C 0.22905 0.72288 0.14521 0.0
C357 C 0.2703 0.72885 0.14061 0.0
C358 C 0.26607 0.69383 0.13264 0.0
C359 C 0.22167 0.65365 0.12997 0.0
C360 C 0.39505 0.81394 0.16605 0.0
C361 C 0.40319 0.85104 0.16044 0.0
C362 C 0.35268 0.77442 0.15876 0.0
C363 C 0.31733 0.77097 0.1457 0.0
C364 C 0.32622 0.80813 0.13918 0.0
C365 C 0.36869 0.84771 0.14643 0.0
H366 H 0.58077 0.26131 0.50391 0.0
H367 H 0.46167 0.21987 0.45683 0.0
H368 H 0.59316 0.32462 0.51707 0.0
H369 H 0.47425 0.28343 0.46983 0.0
H370 H 0.47855 0.37697 0.52256 0.0
H371 H 0.46716 0.31488 0.50724 0.0
H372 H 0.61793 0.39008 0.50144 0.0
H373 H 0.62933 0.45195 0.51738 0.0
C374 C 0.55759 0.26599 0.4961 0.0
C375 C 0.5202 0.2355 0.47933 0.0
C376 C 0.56472 0.30234 0.50363 0.0
C377 C 0.5347 0.30919 0.49453 0.0
C378 C 0.49758 0.27888 0.47754 0.0
C379 C 0.49039 0.24245 0.47006 0.0
C380 C 0.50927 0.3803 0.51793 0.0
C381 C 0.55486 0.4194 0.5213 0.0
C382 C 0.50273 0.34472 0.50899 0.0
C383 C 0.54163 0.3474 0.50314 0.0
C384 C 0.5872 0.38671 0.50614 0.0
C385 C 0.59374 0.42226 0.51514 0.0
H386 H 0.38892 0.46223 0.87344 0.0
H387 H 0.47118 0.57991 0.83413 0.0
H388 H 0.32402 0.46301 0.87687 0.0
H389 H 0.40596 0.5802 0.83697 0.0
H390 H 0.29832 0.59018 0.86888 0.0
H391 H 0.36335 0.58937 0.86692 0.0
H392 H 0.2644 0.45476 0.85191 0.0
H393 H 0.19938 0.4555 0.85442 0.0
C394 C 0.39318 0.48821 0.86538 0.0
C395 C 0.43551 0.52098 0.85344 0.0
C396 C 0.35572 0.48853 0.86722 0.0
C397 C 0.35946 0.52167 0.85721 0.0
C398 C 0.40182 0.55441 0.84524 0.0
C399 C 0.43925 0.55407 0.84339 0.0
C400 C 0.29037 0.56035 0.8653 0.0
C401 C 0.24346 0.5229 0.86184 0.0
C402 C 0.32779 0.55992 0.86397 0.0
C403 C 0.31941 0.52202 0.85914 0.0
C404 C 0.27238 0.4845 0.85597 0.0
C405 C 0.23498 0.48495 0.85729 0.0
H406 H 0.8738 0.42459 0.14077 0.0
H407 H 0.94057 0.37059 0.1298 0.0
H408 H 0.79821 0.35472 0.1462 0.0
H409 H 0.86566 0.30069 0.137 0.0
H410 H 0.71786 0.17429 0.13481 0.0
H411 H 0.79076 0.24319 0.12351 0.0
H412 H 0.75592 0.30281 0.17547 0.0
H413 H 0.68199 0.23417 0.18523 0.0
C414 C 0.87221 0.39762 0.13958 0.0
C415 C 0.91303 0.403 0.13487 0.0
C416 C 0.82888 0.35745 0.14299 0.0
C417 C 0.8254 0.32159 0.14252 0.0
C418 C 0.86635 0.32712 0.13719 0.0
C419 C 0.90953 0.3673 0.13313 0.0
C420 C 0.72582 0.20225 0.14365 0.0
C421 C 0.69412 0.19882 0.16083 0.0
C422 C 0.76787 0.24189 0.13732 0.0
C423 C 0.77977 0.2791 0.14847 0.0
C424 C 0.7479 0.27531 0.16586 0.0
C425 C 0.70547 0.23578 0.1717 0.0
H426 H 0.05344 0.50275 0.06814 0.0
H427 H 0.97286 0.54291 0.05844 0.0
H428 H 0.0585 0.49793 0.02182 0.0
H429 H 0.9744 0.53503 0.01167 0.0
H430 H 0.03605 0.56542 0.92964 0.0
H431 H 1.02124 0.56486 0.97562 0.0
H432 H 1.02142 0.46172 0.98412 0.0
H433 H 0.03957 0.46475 0.93869 0.0
C434 C 0.03641 0.51016 0.056 0.0
C435 C 1.01348 0.52382 0.06687 0.0
C436 C 0.03857 0.50677 0.02928 0.0
C437 C 1.0167 0.51592 0.01261 0.0
C438 C 0.99246 0.52844 0.02367 0.0
C439 C 0.99118 0.53264 0.05051 0.0
C440 C 0.0322 0.54231 0.94139 0.0
C441 C 0.03921 0.51531 0.93072 0.0
C442 C 1.02359 0.54183 0.9678 0.0
C443 C 1.02084 0.51369 0.98399 0.0
C444 C 1.0249 0.4849 0.97269 0.0
C445 C 0.03474 0.4862 0.94652 0.0
H446 H 0.50438 0.02659 0.40565 0.0
H447 H 0.63797 0.05468 0.39855 0.0
H448 H 0.50124 0.03051 0.35866 0.0
H449 H 0.63391 0.05715 0.3518 0.0
H450 H 0.56155 0.991 0.27066 0.0
H451 H 0.56762 0.99351 0.31766 0.0
H452 H 0.55988 0.0927 0.32221 0.0
H453 H 0.5551 0.09115 0.27498 0.0
C454 C 0.53309 0.03384 0.39409 0.0
C455 C 0.57139 0.04033 0.40568 0.0
C456 C 0.53132 0.03613 0.36731 0.0
C457 C 0.56732 0.04402 0.35179 0.0
C458 C 0.60572 0.05088 0.36343 0.0
C459 C 0.60799 0.0495 0.39014 0.0
C460 C 0.56141 0.01352 0.28165 0.0
C461 C 0.55804 0.04099 0.26916 0.0
C462 C 0.56493 0.01495 0.30848 0.0
C463 C 0.56406 0.0432 0.32339 0.0
C464 C 0.56042 0.07055 0.31103 0.0
C465 C 0.55802 0.06982 0.28409 0.0
H466 H 0.60749 0.54725 0.77854 0.0
H467 H 0.4566 0.44964 0.77095 0.0
H468 H 0.61299 0.55597 0.73176 0.0
H469 H 0.46201 0.45779 0.72448 0.0
H470 H 0.48248 0.5159 0.64744 0.0
H471 H 0.48057 0.51021 0.69397 0.0
H472 H 0.601 0.51629 0.69091 0.0
H473 H 0.60341 0.52255 0.64412 0.0
C474 C 0.57559 0.52776 0.76686 0.0
C475 C 0.53161 0.49791 0.77829 0.0
C476 C 0.57873 0.53251 0.74012 0.0
C477 C 0.5379 0.50764 0.72445 0.0
C478 C 0.49403 0.47782 0.73604 0.0
C479 C 0.49096 0.47299 0.76263 0.0
C480 C 0.50861 0.51601 0.6566 0.0
C481 C 0.54298 0.51949 0.64198 0.0
C482 C 0.50738 0.51259 0.6833 0.0
C483 C 0.54052 0.51264 0.69611 0.0
C484 C 0.57523 0.51653 0.6816 0.0
C485 C 0.57637 0.51979 0.65478 0.0
H486 H 0.51949 0.97414 0.54569 0.0
H487 H 0.52253 0.07903 0.55667 0.0
H488 H 0.52973 0.97376 0.59206 0.0
H489 H 0.53055 0.07776 0.60329 0.0
H490 H 0.59386 0.09326 0.68157 0.0
H491 H 0.58738 0.09359 0.63501 0.0
H492 H 0.48808 0.95742 0.63195 0.0
H493 H 0.49545 0.95704 0.67853 0.0
C494 C 0.52299 0.99744 0.55809 0.0
C495 C 0.52156 0.02732 0.54777 0.0
C496 C 0.52801 0.99681 0.58468 0.0
C497 C 0.53135 0.02596 0.60143 0.0
C498 C 0.52904 0.05542 0.59093 0.0
C499 C 0.52407 0.056 0.56433 0.0
C500 C 0.57084 0.06335 0.67098 0.0
C501 C 0.54507 0.02511 0.68383 0.0
C502 C 0.56687 0.06356 0.64427 0.0
C503 C 0.5369 0.02555 0.62973 0.0
C504 C 0.51184 0.98728 0.64251 0.0
C505 C 0.51594 0.98706 0.66925 0.0
H506 H 0.49916 0.49451 0.91621 0.0
H507 H 0.64495 0.60432 0.92988 0.0
H508 H 0.48688 0.48559 0.96252 0.0
H509 H 0.63294 0.59509 0.97637 0.0
H510 H 0.57656 0.59379 0.05614 0.0
H511 H 0.59071 0.60158 0.00994 0.0
H512 H 0.50856 0.46707 0.0 0.0
H513 H 0.49368 0.45907 0.04614 0.0
C514 C 0.52868 0.51654 0.92916 0.0
C515 C 0.57295 0.55021 0.91954 0.0
C516 C 0.52171 0.51131 0.95567 0.0
C517 C 0.5589 0.5397 0.97312 0.0
C518 C 0.60344 0.57303 0.96342 0.0
C519 C 0.61042 0.57819 0.93685 0.0
C520 C 0.56143 0.56584 0.04412 0.0
C521 C 0.53383 0.52578 0.05487 0.0
C522 C 0.56987 0.57037 0.01766 0.0
C523 C 0.55085 0.53496 0.00132 0.0
C524 C 0.5233 0.49492 0.01205 0.0
C525 C 0.51492 0.49038 0.03851 0.0
H526 H 0.07769 0.57317 0.20419 0.0
H527 H 0.03736 0.45046 0.21113 0.0
H528 H 0.07073 0.57764 0.25086 0.0
H529 H 0.03131 0.45515 0.25774 0.0
H530 H 0.9767 0.4578 0.33583 0.0
H531 H 0.98154 0.45488 0.28915 0.0
H532 H 0.11063 0.58446 0.29099 0.0
H533 H 0.10555 0.5877 0.3378 0.0
C534 C 0.06722 0.54714 0.21573 0.0
C535 C 0.05771 0.51133 0.20413 0.0
C536 C 0.0636 0.54983 0.24243 0.0
C537 C 0.05035 0.5167 0.25799 0.0
C538 C 0.04093 0.48094 0.24626 0.0
C539 C 0.04468 0.47833 0.21962 0.0
C540 C 1.00611 0.48581 0.32633 0.0
C541 C 0.04087 0.52298 0.34062 0.0
C542 C 1.00895 0.48399 0.29955 0.0
C543 C 0.04659 0.51934 0.28637 0.0
C544 C 0.08096 0.55678 0.30057 0.0
C545 C 0.07821 0.55859 0.32742 0.0
loop_
_geom_bond_atom_site_label_1
_geom_bond_atom_site_label_2
_geom_bond_distance
_geom_bond_site_symmetry_2
_ccdc_geom_bond_type
La0 C2 2.928 . S
La0 O20 2.521 . S
La0 O21 2.628 . S
La0 O22 2.554 . S
La0 O23 2.757 . S
La0 O24 2.470 . S
La0 O29 2.482 . S
La0 O31 2.503 1_455 S
La1 C11 2.928 . S
La1 O23 2.482 1_655 S
La1 O25 2.503 1_655 S
La1 O26 2.521 . S
La1 O27 2.628 . S
La1 O28 2.554 . S
La1 O29 2.757 1_655 S
La1 O30 2.470 . S
C2 La0 2.928 . S
C2 C3 1.503 . S
C2 O20 1.261 . S
C2 O21 1.243 . S
C3 C2 1.503 . S
C3 C4 1.394 . S
C3 C8 1.373 . S
C4 C3 1.394 . S
C4 C5 1.380 . S
C4 H32 0.930 . S
C5 C4 1.380 . S
C5 C6 1.376 . S
C5 H33 0.930 . S
C6 C5 1.376 . S
C6 C7 1.370 . S
C7 C6 1.370 . S
C7 C8 1.396 . S
C7 H34 0.929 . S
C8 C3 1.373 . S
C8 C7 1.396 . S
C8 H35 0.929 . S
C9 O22 1.240 . S
C9 O23 1.289 . S
C10 O24 1.258 . S
C10 O25 1.256 . S
C11 La1 2.928 . S
C11 C12 1.503 . S
C11 O26 1.261 . S
C11 O27 1.243 . S
C12 C11 1.503 . S
C12 C13 1.394 . S
C12 C17 1.373 . S
C13 C12 1.394 . S
C13 C14 1.380 . S
C13 H36 0.930 . S
C14 C13 1.380 . S
C14 C15 1.376 . S
C14 H37 0.930 . S
C15 C14 1.376 . S
C15 C16 1.370 . S
C16 C15 1.370 . S
C16 C17 1.396 . S
C16 H38 0.929 . S
C17 C12 1.373 . S
C17 C16 1.396 . S
C17 H39 0.929 . S
C18 O28 1.240 1_455 S
C18 O29 1.289 . S
C19 O30 1.258 . S
C19 O31 1.256 . S
O20 La0 2.521 . S
O20 C2 1.261 . S
O21 La0 2.628 . S
O21 C2 1.243 . S
O22 La0 2.554 . S
O22 C9 1.240 . S
O23 La0 2.757 . S
O23 La1 2.482 1_455 S
O23 C9 1.289 . S
O24 La0 2.470 . S
O24 C10 1.258 . S
O25 La1 2.503 1_455 S
O25 C10 1.256 . S
O26 La1 2.521 . S
O26 C11 1.261 . S
O27 La1 2.628 . S
O27 C11 1.243 . S
O28 La1 2.554 . S
O28 C18 1.240 1_655 S
O29 La0 2.482 . S
O29 La1 2.757 1_455 S
O29 C18 1.289 . S
O30 La1 2.470 . S
O30 C19 1.258 . S
O31 La0 2.503 1_655 S
O31 C19 1.256 . S
H32 C4 0.930 . S
H33 C5 0.930 . S
H34 C7 0.929 . S
H35 C8 0.929 . S
H36 C13 0.930 . S
H37 C14 0.930 . S
H38 C16 0.929 . S
H39 C17 0.929 . S
La40 C42 2.928 . S
La40 O60 2.521 . S
La40 O61 2.628 . S
La40 O62 2.554 . S
La40 O63 2.757 1_565 S
La40 O64 2.470 . S
La40 O69 2.475 1_565 S
La40 O71 2.503 1_565 S
La41 C51 2.928 . S
La41 O63 2.482 . S
La41 O65 2.503 1_545 S
La41 O66 2.521 . S
La41 O67 2.628 . S
La41 O68 2.554 . S
La41 O69 2.768 . S
La41 O70 2.470 . S
C42 La40 2.928 . S
C42 C43 1.503 . S
C42 O60 1.261 . S
C42 O61 1.243 . S
C43 C42 1.503 . S
C43 C44 1.394 . S
C43 C48 1.373 . S
C44 C43 1.394 . S
C44 C45 1.380 . S
C44 H72 0.930 . S
C45 C44 1.380 . S
C45 C46 1.376 . S
C45 H73 0.930 . S
C46 C45 1.376 . S
C46 C47 1.370 . S
C47 C46 1.370 . S
C47 C48 1.396 . S
C47 H74 0.929 . S
C48 C43 1.373 . S
C48 C47 1.396 . S
C48 H75 0.929 . S
C49 O62 1.240 1_545 S
C49 O63 1.289 . S
C50 O64 1.258 . S
C50 O65 1.256 . S
C51 La41 2.928 . S
C51 C52 1.503 . S
C51 O66 1.261 . S
C51 O67 1.243 . S
C52 C51 1.503 . S
C52 C53 1.394 . S
C52 C57 1.373 . S
C53 C52 1.394 . S
C53 C54 1.380 . S
C53 H76 0.930 . S
C54 C53 1.380 . S
C54 C55 1.376 . S
C54 H77 0.930 . S
C55 C54 1.376 . S
C55 C56 1.370 . S
C56 C55 1.370 . S
C56 C57 1.396 . S
C56 H78 0.929 . S
C57 C52 1.373 . S
C57 C56 1.396 . S
C57 H79 0.929 . S
C58 O68 1.240 . S
C58 O69 1.296 . S
C59 O70 1.258 . S
C59 O71 1.256 . S
O60 La40 2.521 . S
O60 C42 1.261 . S
O61 La40 2.628 . S
O61 C42 1.243 . S
O62 La40 2.554 . S
O62 C49 1.240 1_565 S
O63 La40 2.757 1_545 S
O63 La41 2.482 . S
O63 C49 1.289 . S
O64 La40 2.470 . S
O64 C50 1.258 . S
O65 La41 2.503 1_565 S
O65 C50 1.256 . S
O66 La41 2.521 . S
O66 C51 1.261 . S
O67 La41 2.628 . S
O67 C51 1.243 . S
O68 La41 2.554 . S
O68 C58 1.240 . S
O69 La40 2.475 1_545 S
O69 La41 2.768 . S
O69 C58 1.296 . S
O70 La41 2.470 . S
O70 C59 1.258 . S
O71 La40 2.503 1_545 S
O71 C59 1.256 . S
H72 C44 0.930 . S
H73 C45 0.930 . S
H74 C47 0.929 . S
H75 C48 0.929 . S
H76 C53 0.930 . S
H77 C54 0.930 . S
H78 C56 0.929 . S
H79 C57 0.929 . S
La80 C82 2.928 . S
La80 O100 2.521 . S
La80 O101 2.628 . S
La80 O102 2.554 . S
La80 O103 2.757 . S
La80 O104 2.470 . S
La80 O109 2.482 . S
La80 O111 2.503 . S
La81 C91 2.928 . S
La81 O103 2.482 . S
La81 O105 2.503 . S
La81 O106 2.521 . S
La81 O107 2.628 . S
La81 O108 2.554 . S
La81 O109 2.757 . S
La81 O110 2.470 . S
C82 La80 2.928 . S
C82 C83 1.503 . S
C82 O100 1.261 . S
C82 O101 1.243 . S
C83 C82 1.503 . S
C83 C84 1.394 . S
C83 C88 1.373 . S
C84 C83 1.394 . S
C84 C85 1.380 . S
C84 H112 0.930 . S
C85 C84 1.380 . S
C85 C86 1.376 . S
C85 H113 0.930 . S
C86 C85 1.376 . S
C86 C87 1.370 . S
C87 C86 1.370 . S
C87 C88 1.396 . S
C87 H114 0.929 . S
C88 C83 1.373 . S
C88 C87 1.396 . S
C88 H115 0.929 . S
C89 O102 1.240 . S
C89 O103 1.289 . S
C90 O104 1.258 . S
C90 O105 1.256 . S
C91 La81 2.928 . S
C91 C92 1.503 . S
C91 O106 1.261 . S
C91 O107 1.243 . S
C92 C91 1.503 . S
C92 C93 1.394 . S
C92 C97 1.373 . S
C93 C92 1.394 . S
C93 C94 1.380 . S
C93 H116 0.930 . S
C94 C93 1.380 . S
C94 C95 1.376 . S
C94 H117 0.930 . S
C95 C94 1.376 . S
C95 C96 1.370 . S
C96 C95 1.370 . S
C96 C97 1.396 . S
C96 H118 0.929 . S
C97 C92 1.373 . S
C97 C96 1.396 . S
C97 H119 0.929 . S
C98 O108 1.240 . S
C98 O109 1.289 . S
C99 O110 1.258 . S
C99 O111 1.256 . S
O100 La80 2.521 . S
O100 C82 1.261 . S
O101 La80 2.628 . S
O101 C82 1.243 . S
O102 La80 2.554 . S
O102 C89 1.240 . S
O103 La80 2.757 . S
O103 La81 2.482 . S
O103 C89 1.289 . S
O104 La80 2.470 . S
O104 C90 1.258 . S
O105 La81 2.503 . S
O105 C90 1.256 . S
O106 La81 2.521 . S
O106 C91 1.261 . S
O107 La81 2.628 . S
O107 C91 1.243 . S
O108 La81 2.554 . S
O108 C98 1.240 . S
O109 La80 2.482 . S
O109 La81 2.757 . S
O109 C98 1.289 . S
O110 La81 2.470 . S
O110 C99 1.258 . S
O111 La80 2.503 . S
O111 C99 1.256 . S
H112 C84 0.930 . S
H113 C85 0.930 . S
H114 C87 0.929 . S
H115 C88 0.929 . S
H116 C93 0.930 . S
H117 C94 0.930 . S
H118 C96 0.929 . S
H119 C97 0.929 . S
O120 Cd121 2.300 . S
O120 C127 1.275 . S
Cd121 O120 2.300 . S
Cd121 O129 2.381 . S
Cd121 O130 2.378 . S
O122 Cd123 2.385 . S
O122 C127 1.255 1_565 S
Cd123 O122 2.385 . S
Cd123 O124 2.317 . S
O124 Cd123 2.317 . S
O124 C125 1.232 . S
C125 O124 1.232 . S
C125 O126 1.218 . S
O126 C125 1.218 . S
C127 O120 1.275 . S
C127 O122 1.255 1_545 S
C128 O129 1.258 . S
C128 O130 1.256 . S
O129 Cd121 2.381 . S
O129 C128 1.258 . S
O130 Cd121 2.378 . S
O130 C128 1.256 . S
O131 Cd132 2.300 . S
O131 C138 1.275 . S
Cd132 O131 2.300 . S
Cd132 O140 2.381 . S
Cd132 O141 2.378 . S
O133 Cd134 2.385 . S
O133 C138 1.255 . S
Cd134 O133 2.385 . S
Cd134 O135 2.317 . S
O135 Cd134 2.317 . S
O135 C136 1.232 . S
C136 O135 1.232 . S
C136 O137 1.218 . S
O137 C136 1.218 . S
C138 O131 1.275 . S
C138 O133 1.255 . S
C139 O140 1.258 . S
C139 O141 1.256 . S
O140 Cd132 2.381 . S
O140 C139 1.258 . S
O141 Cd132 2.378 . S
O141 C139 1.256 . S
O142 Cd143 2.300 . S
O142 C149 1.275 . S
Cd143 O142 2.300 . S
Cd143 O151 2.381 . S
Cd143 O152 2.378 . S
O144 Cd145 2.385 . S
O144 C149 1.255 1_655 S
Cd145 O144 2.385 . S
Cd145 O146 2.317 . S
O146 Cd145 2.317 . S
O146 C147 1.232 . S
C147 O146 1.232 . S
C147 O148 1.218 . S
O148 C147 1.218 . S
C149 O142 1.275 . S
C149 O144 1.255 1_455 S
C150 O151 1.258 . S
C150 O152 1.256 . S
O151 Cd143 2.381 . S
O151 C150 1.258 . S
O152 Cd143 2.378 . S
O152 C150 1.256 . S
O153 Cd154 2.300 . S
O153 C160 1.275 1_455 S
Cd154 O153 2.300 . S
Cd154 O162 2.381 . S
Cd154 O163 2.378 . S
O155 Cd156 2.385 . S
O155 C160 1.255 . S
Cd156 O155 2.385 . S
Cd156 O157 2.317 . S
O157 Cd156 2.317 . S
O157 C158 1.232 . S
C158 O157 1.232 . S
C158 O159 1.218 . S
O159 C158 1.218 . S
C160 O153 1.275 1_655 S
C160 O155 1.255 . S
C161 O162 1.258 . S
C161 O163 1.256 . S
O162 Cd154 2.381 . S
O162 C161 1.258 . S
O163 Cd154 2.378 . S
O163 C161 1.256 . S
O164 Cd165 2.300 . S
O164 C171 1.275 1_565 S
Cd165 O164 2.300 . S
Cd165 O173 2.381 . S
Cd165 O174 2.378 . S
O166 Cd167 2.385 . S
O166 C171 1.255 . S
Cd167 O166 2.385 . S
Cd167 O168 2.317 . S
O168 Cd167 2.317 . S
O168 C169 1.232 . S
C169 O168 1.232 . S
C169 O170 1.218 . S
O170 C169 1.218 . S
C171 O164 1.275 1_545 S
C171 O166 1.255 . S
C172 O173 1.258 . S
C172 O174 1.256 . S
O173 Cd165 2.381 . S
O173 C172 1.258 . S
O174 Cd165 2.378 . S
O174 C172 1.256 . S
O175 Cd176 2.300 . S
O175 C182 1.275 . S
Cd176 O175 2.300 . S
Cd176 O184 2.381 . S
Cd176 O185 2.378 . S
O177 Cd178 2.385 . S
O177 C182 1.255 . S
Cd178 O177 2.385 . S
Cd178 O179 2.317 . S
O179 Cd178 2.317 . S
O179 C180 1.232 . S
C180 O179 1.232 . S
C180 O181 1.218 . S
O181 C180 1.218 . S
C182 O175 1.275 . S
C182 O177 1.255 . S
C183 O184 1.258 . S
C183 O185 1.256 . S
O184 Cd176 2.381 . S
O184 C183 1.258 . S
O185 Cd176 2.378 . S
O185 C183 1.256 . S
H186 C194 0.950 . S
H187 C199 0.950 . S
H188 C196 0.950 . S
H189 C198 0.950 . S
H190 C200 0.950 . S
H191 C202 0.950 . S
H192 C204 0.950 . S
H193 C205 0.950 . S
C194 H186 0.950 . S
C194 C195 1.386 . S
C194 C196 1.391 . S
C195 C194 1.386 . S
C195 C199 1.393 . S
C196 H188 0.950 . S
C196 C194 1.391 . S
C196 C197 1.400 . S
C197 C196 1.400 . S
C197 C198 1.398 . S
C197 C203 1.491 . S
C198 H189 0.950 . S
C198 C197 1.398 . S
C198 C199 1.391 . S
C199 H187 0.950 . S
C199 C195 1.393 . S
C199 C198 1.391 . S
C200 H190 0.950 . S
C200 C201 1.386 . S
C200 C202 1.391 . S
C201 C200 1.386 . S
C201 C205 1.393 . S
C202 H191 0.950 . S
C202 C200 1.391 . S
C202 C203 1.400 . S
C203 C197 1.491 . S
C203 C202 1.400 . S
C203 C204 1.398 . S
C204 H192 0.950 . S
C204 C203 1.398 . S
C204 C205 1.391 . S
C205 H193 0.950 . S
C205 C201 1.393 . S
C205 C204 1.391 . S
H206 C214 0.950 . S
H207 C219 0.950 . S
H208 C216 0.950 . S
H209 C218 0.950 . S
H210 C220 0.950 . S
H211 C222 0.950 . S
H212 C224 0.950 . S
H213 C225 0.950 . S
C214 H206 0.950 . S
C214 C215 1.386 . S
C214 C216 1.391 . S
C215 C214 1.386 . S
C215 C219 1.393 . S
C216 H208 0.950 . S
C216 C214 1.391 . S
C216 C217 1.400 . S
C217 C216 1.400 . S
C217 C218 1.398 . S
C217 C223 1.491 . S
C218 H209 0.950 . S
C218 C217 1.398 . S
C218 C219 1.391 . S
C219 H207 0.950 . S
C219 C215 1.393 . S
C219 C218 1.391 . S
C220 H210 0.950 . S
C220 C221 1.386 . S
C220 C222 1.391 . S
C221 C220 1.386 . S
C221 C225 1.393 . S
C222 H211 0.950 . S
C222 C220 1.391 . S
C222 C223 1.400 . S
C223 C217 1.491 . S
C223 C222 1.400 . S
C223 C224 1.398 . S
C224 H212 0.950 . S
C224 C223 1.398 . S
C224 C225 1.391 . S
C225 H213 0.950 . S
C225 C221 1.393 . S
C225 C224 1.391 . S
H226 C234 0.950 . S
H227 C239 0.950 . S
H228 C236 0.950 . S
H229 C238 0.950 . S
H230 C240 0.950 . S
H231 C242 0.950 . S
H232 C244 0.950 . S
H233 C245 0.950 . S
C234 H226 0.950 . S
C234 C235 1.386 . S
C234 C236 1.391 . S
C235 C234 1.386 . S
C235 C239 1.393 . S
C236 H228 0.950 . S
C236 C234 1.391 . S
C236 C237 1.400 . S
C237 C236 1.400 . S
C237 C238 1.398 . S
C237 C243 1.491 . S
C238 H229 0.950 . S
C238 C237 1.398 . S
C238 C239 1.391 . S
C239 H227 0.950 . S
C239 C235 1.393 . S
C239 C238 1.391 . S
C240 H230 0.950 . S
C240 C241 1.386 . S
C240 C242 1.391 . S
C241 C240 1.386 . S
C241 C245 1.393 . S
C242 H231 0.950 . S
C242 C240 1.391 . S
C242 C243 1.400 . S
C243 C237 1.491 . S
C243 C242 1.400 . S
C243 C244 1.398 . S
C244 H232 0.950 . S
C244 C243 1.398 . S
C244 C245 1.391 . S
C245 H233 0.950 . S
C245 C241 1.393 . S
C245 C244 1.391 . S
H246 C254 0.950 . S
H247 C259 0.950 . S
H248 C256 0.950 . S
H249 C258 0.950 . S
H250 C260 0.950 . S
H251 C262 0.950 . S
H252 C264 0.950 . S
H253 C265 0.950 . S
C254 H246 0.950 . S
C254 C255 1.386 . S
C254 C256 1.391 . S
C255 C254 1.386 . S
C255 C259 1.393 . S
C256 H248 0.950 . S
C256 C254 1.391 . S
C256 C257 1.400 . S
C257 C256 1.400 . S
C257 C258 1.398 . S
C257 C263 1.491 . S
C258 H249 0.950 . S
C258 C257 1.398 . S
C258 C259 1.391 . S
C259 H247 0.950 . S
C259 C255 1.393 . S
C259 C258 1.391 . S
C260 H250 0.950 . S
C260 C261 1.386 . S
C260 C262 1.391 . S
C261 C260 1.386 . S
C261 C265 1.393 . S
C262 H251 0.950 . S
C262 C260 1.391 . S
C262 C263 1.400 . S
C263 C257 1.491 . S
C263 C262 1.400 . S
C263 C264 1.398 . S
C264 H252 0.950 . S
C264 C263 1.398 . S
C264 C265 1.391 . S
C265 H253 0.950 . S
C265 C261 1.393 . S
C265 C264 1.391 . S
H266 C274 0.950 . S
H267 C279 0.950 . S
H268 C276 0.950 . S
H269 C278 0.950 . S
H270 C280 0.950 . S
H271 C282 0.950 . S
H272 C284 0.950 . S
H273 C285 0.950 . S
C274 H266 0.950 . S
C274 C275 1.386 . S
C274 C276 1.391 . S
C275 C274 1.386 . S
C275 C279 1.393 . S
C276 H268 0.950 . S
C276 C274 1.391 . S
C276 C277 1.400 . S
C277 C276 1.400 . S
C277 C278 1.398 . S
C277 C283 1.491 . S
C278 H269 0.950 . S
C278 C277 1.398 . S
C278 C279 1.391 . S
C279 H267 0.950 . S
C279 C275 1.393 . S
C279 C278 1.391 . S
C280 H270 0.950 . S
C280 C281 1.386 . S
C280 C282 1.391 . S
C281 C280 1.386 . S
C281 C285 1.393 . S
C282 H271 0.950 . S
C282 C280 1.391 . S
C282 C283 1.400 . S
C283 C277 1.491 . S
C283 C282 1.400 . S
C283 C284 1.398 . S
C284 H272 0.950 . S
C284 C283 1.398 . S
C284 C285 1.391 . S
C285 H273 0.950 . S
C285 C281 1.393 . S
C285 C284 1.391 . S
H286 C294 0.950 . S
H287 C299 0.950 . S
H288 C296 0.950 . S
H289 C298 0.950 . S
H290 C300 0.950 . S
H291 C302 0.950 . S
H292 C304 0.950 . S
H293 C305 0.950 . S
C294 H286 0.950 . S
C294 C295 1.386 . S
C294 C296 1.391 . S
C295 C294 1.386 . S
C295 C299 1.393 . S
C296 H288 0.950 . S
C296 C294 1.391 . S
C296 C297 1.400 . S
C297 C296 1.400 . S
C297 C298 1.398 . S
C297 C303 1.491 . S
C298 H289 0.950 . S
C298 C297 1.398 . S
C298 C299 1.391 . S
C299 H287 0.950 . S
C299 C295 1.393 . S
C299 C298 1.391 . S
C300 H290 0.950 . S
C300 C301 1.386 . S
C300 C302 1.391 . S
C301 C300 1.386 . S
C301 C305 1.393 . S
C302 H291 0.950 . S
C302 C300 1.391 . S
C302 C303 1.400 . S
C303 C297 1.491 . S
C303 C302 1.400 . S
C303 C304 1.398 . S
C304 H292 0.950 . S
C304 C303 1.398 . S
C304 C305 1.391 . S
C305 H293 0.950 . S
C305 C301 1.393 . S
C305 C304 1.391 . S
H306 C314 0.950 . S
H307 C319 0.950 . S
H308 C316 0.950 . S
H309 C318 0.950 . S
H310 C320 0.950 . S
H311 C322 0.950 . S
H312 C324 0.950 . S
H313 C325 0.950 . S
C314 H306 0.950 . S
C314 C315 1.386 . S
C314 C316 1.391 . S
C315 C314 1.386 . S
C315 C319 1.393 . S
C316 H308 0.950 . S
C316 C314 1.391 . S
C316 C317 1.400 . S
C317 C316 1.400 . S
C317 C318 1.398 . S
C317 C323 1.491 . S
C318 H309 0.950 . S
C318 C317 1.398 . S
C318 C319 1.391 . S
C319 H307 0.950 . S
C319 C315 1.393 . S
C319 C318 1.391 . S
C320 H310 0.950 . S
C320 C321 1.386 . S
C320 C322 1.391 . S
C321 C320 1.386 . S
C321 C325 1.393 . S
C322 H311 0.950 . S
C322 C320 1.391 . S
C322 C323 1.400 . S
C323 C317 1.491 . S
C323 C322 1.400 . S
C323 C324 1.398 . S
C324 H312 0.950 . S
C324 C323 1.398 . S
C324 C325 1.391 . S
C325 H313 0.950 . S
C325 C321 1.393 . S
C325 C324 1.391 . S
H326 C334 0.950 . S
H327 C339 0.950 . S
H328 C336 0.950 . S
H329 C338 0.950 . S
H330 C340 0.950 . S
H331 C342 0.950 . S
H332 C344 0.950 . S
H333 C345 0.950 . S
C334 H326 0.950 . S
C334 C335 1.386 . S
C334 C336 1.391 . S
C335 C334 1.386 . S
C335 C339 1.393 . S
C336 H328 0.950 . S
C336 C334 1.391 . S
C336 C337 1.400 . S
C337 C336 1.400 . S
C337 C338 1.398 . S
C337 C343 1.491 . S
C338 H329 0.950 . S
C338 C337 1.398 . S
C338 C339 1.391 . S
C339 H327 0.950 . S
C339 C335 1.393 . S
C339 C338 1.391 . S
C340 H330 0.950 . S
C340 C341 1.386 . S
C340 C342 1.391 . S
C341 C340 1.386 . S
C341 C345 1.393 . S
C342 H331 0.950 . S
C342 C340 1.391 . S
C342 C343 1.400 . S
C343 C337 1.491 . S
C343 C342 1.400 . S
C343 C344 1.398 . S
C344 H332 0.950 . S
C344 C343 1.398 . S
C344 C345 1.391 . S
C345 H333 0.950 . S
C345 C341 1.393 . S
C345 C344 1.391 . S
H346 C354 0.950 . S
H347 C359 0.950 . S
H348 C356 0.950 . S
H349 C358 0.950 . S
H350 C360 0.950 . S
H351 C362 0.950 . S
H352 C364 0.950 . S
H353 C365 0.950 . S
C354 H346 0.950 . S
C354 C355 1.386 . S
C354 C356 1.391 . S
C355 C354 1.386 . S
C355 C359 1.393 . S
C356 H348 0.950 . S
C356 C354 1.391 . S
C356 C357 1.400 . S
C357 C356 1.400 . S
C357 C358 1.398 . S
C357 C363 1.491 . S
C358 H349 0.950 . S
C358 C357 1.398 . S
C358 C359 1.391 . S
C359 H347 0.950 . S
C359 C355 1.393 . S
C359 C358 1.391 . S
C360 H350 0.950 . S
C360 C361 1.386 . S
C360 C362 1.391 . S
C361 C360 1.386 . S
C361 C365 1.393 . S
C362 H351 0.950 . S
C362 C360 1.391 . S
C362 C363 1.400 . S
C363 C357 1.491 . S
C363 C362 1.400 . S
C363 C364 1.398 . S
C364 H352 0.950 . S
C364 C363 1.398 . S
C364 C365 1.391 . S
C365 H353 0.950 . S
C365 C361 1.393 . S
C365 C364 1.391 . S
H366 C374 0.950 . S
H367 C379 0.950 . S
H368 C376 0.950 . S
H369 C378 0.950 . S
H370 C380 0.950 . S
H371 C382 0.950 . S
H372 C384 0.950 . S
H373 C385 0.950 . S
C374 H366 0.950 . S
C374 C375 1.386 . S
C374 C376 1.391 . S
C375 C374 1.386 . S
C375 C379 1.393 . S
C376 H368 0.950 . S
C376 C374 1.391 . S
C376 C377 1.400 . S
C377 C376 1.400 . S
C377 C378 1.398 . S
C377 C383 1.491 . S
C378 H369 0.950 . S
C378 C377 1.398 . S
C378 C379 1.391 . S
C379 H367 0.950 . S
C379 C375 1.393 . S
C379 C378 1.391 . S
C380 H370 0.950 . S
C380 C381 1.386 . S
C380 C382 1.391 . S
C381 C380 1.386 . S
C381 C385 1.393 . S
C382 H371 0.950 . S
C382 C380 1.391 . S
C382 C383 1.400 . S
C383 C377 1.491 . S
C383 C382 1.400 . S
C383 C384 1.398 . S
C384 H372 0.950 . S
C384 C383 1.398 . S
C384 C385 1.391 . S
C385 H373 0.950 . S
C385 C381 1.393 . S
C385 C384 1.391 . S
H386 C394 0.950 . S
H387 C399 0.950 . S
H388 C396 0.950 . S
H389 C398 0.950 . S
H390 C400 0.950 . S
H391 C402 0.950 . S
H392 C404 0.950 . S
H393 C405 0.950 . S
C394 H386 0.950 . S
C394 C395 1.386 . S
C394 C396 1.391 . S
C395 C394 1.386 . S
C395 C399 1.393 . S
C396 H388 0.950 . S
C396 C394 1.391 . S
C396 C397 1.400 . S
C397 C396 1.400 . S
C397 C398 1.398 . S
C397 C403 1.491 . S
C398 H389 0.950 . S
C398 C397 1.398 . S
C398 C399 1.391 . S
C399 H387 0.950 . S
C399 C395 1.393 . S
C399 C398 1.391 . S
C400 H390 0.950 . S
C400 C401 1.386 . S
C400 C402 1.391 . S
C401 C400 1.386 . S
C401 C405 1.393 . S
C402 H391 0.950 . S
C402 C400 1.391 . S
C402 C403 1.400 . S
C403 C397 1.491 . S
C403 C402 1.400 . S
C403 C404 1.398 . S
C404 H392 0.950 . S
C404 C403 1.398 . S
C404 C405 1.391 . S
C405 H393 0.950 . S
C405 C401 1.393 . S
C405 C404 1.391 . S
H406 C414 0.950 . S
H407 C419 0.950 . S
H408 C416 0.950 . S
H409 C418 0.950 . S
H410 C420 0.950 . S
H411 C422 0.950 . S
H412 C424 0.950 . S
H413 C425 0.950 . S
C414 H406 0.950 . S
C414 C415 1.386 . S
C414 C416 1.391 . S
C415 C414 1.386 . S
C415 C419 1.393 . S
C416 H408 0.950 . S
C416 C414 1.391 . S
C416 C417 1.400 . S
C417 C416 1.400 . S
C417 C418 1.398 . S
C417 C423 1.491 . S
C418 H409 0.950 . S
C418 C417 1.398 . S
C418 C419 1.391 . S
C419 H407 0.950 . S
C419 C415 1.393 . S
C419 C418 1.391 . S
C420 H410 0.950 . S
C420 C421 1.386 . S
C420 C422 1.391 . S
C421 C420 1.386 . S
C421 C425 1.393 . S
C422 H411 0.950 . S
C422 C420 1.391 . S
C422 C423 1.400 . S
C423 C417 1.491 . S
C423 C422 1.400 . S
C423 C424 1.398 . S
C424 H412 0.950 . S
C424 C423 1.398 . S
C424 C425 1.391 . S
C425 H413 0.950 . S
C425 C421 1.393 . S
C425 C424 1.391 . S
H426 C434 0.950 . S
H427 C439 0.950 . S
H428 C436 0.950 . S
H429 C438 0.950 . S
H430 C440 0.950 . S
H431 C442 0.950 . S
H432 C444 0.950 . S
H433 C445 0.950 . S
C434 H426 0.950 . S
C434 C435 1.386 . S
C434 C436 1.391 . S
C435 C434 1.386 . S
C435 C439 1.393 1_455 S
C436 H428 0.950 . S
C436 C434 1.391 . S
C436 C437 1.400 . S
C437 C436 1.400 . S
C437 C438 1.398 1_455 S
C437 C443 1.524 . S
C438 H429 0.950 . S
C438 C437 1.398 1_655 S
C438 C439 1.391 . S
C439 H427 0.950 . S
C439 C435 1.393 1_655 S
C439 C438 1.391 . S
C440 H430 0.950 . S
C440 C441 1.386 1_655 S
C440 C442 1.391 . S
C441 C440 1.386 1_455 S
C441 C445 1.393 . S
C442 H431 0.950 . S
C442 C440 1.391 . S
C442 C443 1.384 1_656 S
C443 C437 1.524 . S
C443 C442 1.384 1_454 S
C443 C444 1.381 1_554 S
C444 H432 0.950 . S
C444 C443 1.381 1_556 S
C444 C445 1.391 . S
C445 H433 0.950 . S
C445 C441 1.393 . S
C445 C444 1.391 . S
H446 C454 0.950 . S
H447 C459 0.950 . S
H448 C456 0.950 . S
H449 C458 0.950 . S
H450 C460 0.927 1_565 S
H451 C462 0.950 . S
H452 C464 0.950 . S
H453 C465 0.950 . S
C454 H446 0.950 . S
C454 C455 1.386 . S
C454 C456 1.391 . S
C455 C454 1.386 . S
C455 C459 1.393 . S
C456 H448 0.950 . S
C456 C454 1.391 . S
C456 C457 1.400 . S
C457 C456 1.400 . S
C457 C458 1.398 . S
C457 C463 1.491 . S
C458 H449 0.950 . S
C458 C457 1.398 . S
C458 C459 1.391 . S
C459 H447 0.950 . S
C459 C455 1.393 . S
C459 C458 1.391 . S
C460 H450 0.927 1_545 S
C460 C461 1.386 . S
C460 C462 1.391 . S
C461 C460 1.386 . S
C461 C465 1.393 . S
C462 H451 0.950 . S
C462 C460 1.391 . S
C462 C463 1.400 . S
C463 C457 1.491 . S
C463 C462 1.400 . S
C463 C464 1.398 . S
C464 H452 0.950 . S
C464 C463 1.398 . S
C464 C465 1.391 . S
C465 H453 0.950 . S
C465 C461 1.393 . S
C465 C464 1.391 . S
H466 C474 0.950 . S
H467 C479 0.950 . S
H468 C476 0.950 . S
H469 C478 0.950 . S
H470 C480 0.950 . S
H471 C482 0.950 . S
H472 C484 0.950 . S
H473 C485 0.950 . S
C474 H466 0.950 . S
C474 C475 1.386 . S
C474 C476 1.391 . S
C475 C474 1.386 . S
C475 C479 1.393 . S
C476 H468 0.950 . S
C476 C474 1.391 . S
C476 C477 1.400 . S
C477 C476 1.400 . S
C477 C478 1.398 . S
C477 C483 1.491 . S
C478 H469 0.950 . S
C478 C477 1.398 . S
C478 C479 1.391 . S
C479 H467 0.950 . S
C479 C475 1.393 . S
C479 C478 1.391 . S
C480 H470 0.950 . S
C480 C481 1.386 . S
C480 C482 1.391 . S
C481 C480 1.386 . S
C481 C485 1.393 . S
C482 H471 0.950 . S
C482 C480 1.391 . S
C482 C483 1.400 . S
C483 C477 1.491 . S
C483 C482 1.400 . S
C483 C484 1.398 . S
C484 H472 0.950 . S
C484 C483 1.398 . S
C484 C485 1.391 . S
C485 H473 0.950 . S
C485 C481 1.393 . S
C485 C484 1.391 . S
H486 C494 0.950 . S
H487 C499 0.950 . S
H488 C496 0.950 . S
H489 C498 0.950 . S
H490 C500 0.950 . S
H491 C502 0.950 . S
H492 C504 0.950 . S
H493 C505 0.950 . S
C494 H486 0.950 . S
C494 C495 1.386 1_565 S
C494 C496 1.391 . S
C495 C494 1.386 1_545 S
C495 C499 1.393 . S
C496 H488 0.950 . S
C496 C494 1.391 . S
C496 C497 1.400 1_565 S
C497 C496 1.400 1_545 S
C497 C498 1.398 . S
C497 C503 1.491 . S
C498 H489 0.950 . S
C498 C497 1.398 . S
C498 C499 1.391 . S
C499 H487 0.950 . S
C499 C495 1.393 . S
C499 C498 1.391 . S
C500 H490 0.950 . S
C500 C501 1.386 . S
C500 C502 1.391 . S
C501 C500 1.386 . S
C501 C505 1.393 1_545 S
C502 H491 0.950 . S
C502 C500 1.391 . S
C502 C503 1.400 . S
C503 C497 1.491 . S
C503 C502 1.400 . S
C503 C504 1.398 1_545 S
C504 H492 0.950 . S
C504 C503 1.398 1_565 S
C504 C505 1.391 . S
C505 H493 0.950 . S
C505 C501 1.393 1_565 S
C505 C504 1.391 . S
H506 C514 0.950 . S
H507 C519 0.950 . S
H508 C516 0.950 . S
H509 C518 0.950 . S
H510 C520 0.950 . S
H511 C522 0.950 1_556 S
H512 C524 0.950 1_556 S
H513 C525 0.950 . S
C514 H506 0.950 . S
C514 C515 1.386 . S
C514 C516 1.391 . S
C515 C514 1.386 . S
C515 C519 1.393 . S
C516 H508 0.950 . S
C516 C514 1.391 . S
C516 C517 1.400 . S
C517 C516 1.400 . S
C517 C518 1.398 . S
C517 C523 1.491 . S
C518 H509 0.950 . S
C518 C517 1.398 . S
C518 C519 1.391 . S
C519 H507 0.950 . S
C519 C515 1.393 . S
C519 C518 1.391 . S
C520 H510 0.950 . S
C520 C521 1.386 . S
C520 C522 1.391 . S
C521 C520 1.386 . S
C521 C525 1.393 . S
C522 H511 0.950 1_554 S
C522 C520 1.391 . S
C522 C523 1.400 1_554 S
C523 C517 1.491 . S
C523 C522 1.400 1_556 S
C523 C524 1.398 1_556 S
C524 H512 0.950 1_554 S
C524 C523 1.398 1_554 S
C524 C525 1.391 . S
C525 H513 0.950 . S
C525 C521 1.393 . S
C525 C524 1.391 . S
H526 C534 0.950 . S
H527 C539 0.950 . S
H528 C536 0.950 . S
H529 C538 0.950 . S
H530 C540 0.950 . S
H531 C542 0.950 . S
H532 C544 0.950 . S
H533 C545 0.950 . S
C534 H526 0.950 . S
C534 C535 1.386 . S
C534 C536 1.391 . S
C535 C534 1.386 . S
C535 C539 1.393 1_455 S
C536 H528 0.950 . S
C536 C534 1.391 . S
C536 C537 1.400 . S
C537 C536 1.400 . S
C537 C538 1.398 1_455 S
C537 C543 1.491 . S
C538 H529 0.950 . S
C538 C537 1.398 1_655 S
C538 C539 1.391 . S
C539 H527 0.950 . S
C539 C535 1.393 1_655 S
C539 C538 1.391 . S
C540 H530 0.950 . S
C540 C541 1.386 . S
C540 C542 1.391 . S
C541 C540 1.386 . S
C541 C545 1.393 1_655 S
C542 H531 0.950 . S
C542 C540 1.391 . S
C542 C543 1.400 1_655 S
C543 C537 1.491 . S
C543 C542 1.400 1_455 S
C543 C544 1.398 . S
C544 H532 0.950 . S
C544 C543 1.398 . S
C544 C545 1.391 . S
C545 H533 0.950 . S
C545 C541 1.393 1_455 S
C545 C544 1.391 . S
C195 C6 0.652 . S
C201 C180 0.743 . S
C215 C59 2.034 . S
C221 C158 1.748 . S
C235 C86 1.059 . S
C241 C172 1.025 . S
C255 C15 0.352 . S
C261 C183 0.164 . S
C281 C161 1.805 . S
C275 C50 1.842 . S
C301 C169 1.180 . S
C295 C95 1.391 . S
C315 C46 1.341 . S
C321 C136 1.120 . S
C335 C99 3.279 . S
C341 C147 2.929 . S
C355 C10 2.095 . S
C361 C125 1.787 . S
C381 C139 1.059 . S
C375 C55 1.076 . S
C401 C150 2.853 . S
C395 C90 2.896 . S
C415 C19 1.767 . S
C421 C128 1.739 . S
C441 C149 1.663 . S
C435 C18 1.661 . S
C455 C49 1.405 . S
C461 C127 1.406 . S
C475 C98 1.488 . S
C481 C138 1.491 . S
C501 C171 1.454 . S
C495 C58 1.459 . S
C521 C182 1.172 . S
C515 C89 1.235 . S
C535 C9 1.421 . S
C541 C160 1.389 . S
