# Generated by pormake.
# Topology gar, (4,6)-cn, num edge types: 1
# Building blocks:
#     Node 0, Type 0, BuildingBlock: KUFVIS_clean_sbu_0, # of connection points: 4
#     Node 1, Type 0, BuildingBlock: KUFVIS_clean_sbu_0, # of connection points: 4
#     Node 2, Type 0, BuildingBlock: KUFVIS_clean_sbu_0, # of connection points: 4
#     Node 3, Type 0, BuildingBlock: KUFVIS_clean_sbu_0, # of connection points: 4
#     Node 4, Type 0, BuildingBlock: KUFVIS_clean_sbu_0, # of connection points: 4
#     Node 5, Type 0, BuildingBlock: KUFVIS_clean_sbu_0, # of connection points: 4
#     Node 6, Type 0, BuildingBlock: KUFVIS_clean_sbu_0, # of connection points: 4
#     Node 7, Type 0, BuildingBlock: KUFVIS_clean_sbu_0, # of connection points: 4
#     Node 8, Type 0, BuildingBlock: KUFVIS_clean_sbu_0, # of connection points: 4
#     Node 9, Type 0, BuildingBlock: KUFVIS_clean_sbu_0, # of connection points: 4
#     Node 10, Type 0, BuildingBlock: KUFVIS_clean_sbu_0, # of connection points: 4
#     Node 11, Type 0, BuildingBlock: KUFVIS_clean_sbu_0, # of connection points: 4
#     Node 12, Type 0, BuildingBlock: KUFVIS_clean_sbu_0, # of connection points: 4
#     Node 13, Type 0, BuildingBlock: KUFVIS_clean_sbu_0, # of connection points: 4
#     Node 14, Type 0, BuildingBlock: KUFVIS_clean_sbu_0, # of connection points: 4
#     Node 15, Type 0, BuildingBlock: KUFVIS_clean_sbu_0, # of connection points: 4
#     Node 16, Type 0, BuildingBlock: KUFVIS_clean_sbu_0, # of connection points: 4
#     Node 17, Type 0, BuildingBlock: KUFVIS_clean_sbu_0, # of connection points: 4
#     Node 18, Type 0, BuildingBlock: KUFVIS_clean_sbu_0, # of connection points: 4
#     Node 19, Type 0, BuildingBlock: KUFVIS_clean_sbu_0, # of connection points: 4
#     Node 20, Type 0, BuildingBlock: KUFVIS_clean_sbu_0, # of connection points: 4
#     Node 21, Type 0, BuildingBlock: KUFVIS_clean_sbu_0, # of connection points: 4
#     Node 22, Type 0, BuildingBlock: KUFVIS_clean_sbu_0, # of connection points: 4
#     Node 23, Type 0, BuildingBlock: KUFVIS_clean_sbu_0, # of connection points: 4
#     Node 24, Type 1, BuildingBlock: GEDQOX_clean_sbu_0, # of connection points: 6
#     Node 25, Type 1, BuildingBlock: GEDQOX_clean_sbu_0, # of connection points: 6
#     Node 26, Type 1, BuildingBlock: GEDQOX_clean_sbu_0, # of connection points: 6
#     Node 27, Type 1, BuildingBlock: GEDQOX_clean_sbu_0, # of connection points: 6
#     Node 28, Type 1, BuildingBlock: GEDQOX_clean_sbu_0, # of connection points: 6
#     Node 29, Type 1, BuildingBlock: GEDQOX_clean_sbu_0, # of connection points: 6
#     Node 30, Type 1, BuildingBlock: GEDQOX_clean_sbu_0, # of connection points: 6
#     Node 31, Type 1, BuildingBlock: GEDQOX_clean_sbu_0, # of connection points: 6
#     Node 32, Type 1, BuildingBlock: GEDQOX_clean_sbu_0, # of connection points: 6
#     Node 33, Type 1, BuildingBlock: GEDQOX_clean_sbu_0, # of connection points: 6
#     Node 34, Type 1, BuildingBlock: GEDQOX_clean_sbu_0, # of connection points: 6
#     Node 35, Type 1, BuildingBlock: GEDQOX_clean_sbu_0, # of connection points: 6
#     Node 36, Type 1, BuildingBlock: GEDQOX_clean_sbu_0, # of connection points: 6
#     Node 37, Type 1, BuildingBlock: GEDQOX_clean_sbu_0, # of connection points: 6
#     Node 38, Type 1, BuildingBlock: GEDQOX_clean_sbu_0, # of connection points: 6
#     Node 39, Type 1, BuildingBlock: GEDQOX_clean_sbu_0, # of connection points: 6
#     Edge 40, Type (0, 1), BuildingBlock: OJICUG_clean_linker_0, # of connection points: 2
#     Edge 41, Type (0, 1), BuildingBlock: OJICUG_clean_linker_0, # of connection points: 2
#     Edge 42, Type (0, 1), BuildingBlock: OJICUG_clean_linker_0, # of connection points: 2
#     Edge 43, Type (0, 1), BuildingBlock: OJICUG_clean_linker_0, # of connection points: 2
#     Edge 44, Type (0, 1), BuildingBlock: OJICUG_clean_linker_0, # of connection points: 2
#     Edge 45, Type (0, 1), BuildingBlock: OJICUG_clean_linker_0, # of connection points: 2
#     Edge 46, Type (0, 1), BuildingBlock: OJICUG_clean_linker_0, # of connection points: 2
#     Edge 47, Type (0, 1), BuildingBlock: OJICUG_clean_linker_0, # of connection points: 2
#     Edge 48, Type (0, 1), BuildingBlock: OJICUG_clean_linker_0, # of connection points: 2
#     Edge 49, Type (0, 1), BuildingBlock: OJICUG_clean_linker_0, # of connection points: 2
#     Edge 50, Type (0, 1), BuildingBlock: OJICUG_clean_linker_0, # of connection points: 2
#     Edge 51, Type (0, 1), BuildingBlock: OJICUG_clean_linker_0, # of connection points: 2
#     Edge 52, Type (0, 1), BuildingBlock: OJICUG_clean_linker_0, # of connection points: 2
#     Edge 53, Type (0, 1), BuildingBlock: OJICUG_clean_linker_0, # of connection points: 2
#     Edge 54, Type (0, 1), BuildingBlock: OJICUG_clean_linker_0, # of connection points: 2
#     Edge 55, Type (0, 1), BuildingBlock: OJICUG_clean_linker_0, # of connection points: 2
#     Edge 56, Type (0, 1), BuildingBlock: OJICUG_clean_linker_0, # of connection points: 2
#     Edge 57, Type (0, 1), BuildingBlock: OJICUG_clean_linker_0, # of connection points: 2
#     Edge 58, Type (0, 1), BuildingBlock: OJICUG_clean_linker_0, # of connection points: 2
#     Edge 59, Type (0, 1), BuildingBlock: OJICUG_clean_linker_0, # of connection points: 2
#     Edge 60, Type (0, 1), BuildingBlock: OJICUG_clean_linker_0, # of connection points: 2
#     Edge 61, Type (0, 1), BuildingBlock: OJICUG_clean_linker_0, # of connection points: 2
#     Edge 62, Type (0, 1), BuildingBlock: OJICUG_clean_linker_0, # of connection points: 2
#     Edge 63, Type (0, 1), BuildingBlock: OJICUG_clean_linker_0, # of connection points: 2
#     Edge 64, Type (0, 1), BuildingBlock: OJICUG_clean_linker_0, # of connection points: 2
#     Edge 65, Type (0, 1), BuildingBlock: OJICUG_clean_linker_0, # of connection points: 2
#     Edge 66, Type (0, 1), BuildingBlock: OJICUG_clean_linker_0, # of connection points: 2
#     Edge 67, Type (0, 1), BuildingBlock: OJICUG_clean_linker_0, # of connection points: 2
#     Edge 68, Type (0, 1), BuildingBlock: OJICUG_clean_linker_0, # of connection points: 2
#     Edge 69, Type (0, 1), BuildingBlock: OJICUG_clean_linker_0, # of connection points: 2
#     Edge 70, Type (0, 1), BuildingBlock: OJICUG_clean_linker_0, # of connection points: 2
#     Edge 71, Type (0, 1), BuildingBlock: OJICUG_clean_linker_0, # of connection points: 2
#     Edge 72, Type (0, 1), BuildingBlock: OJICUG_clean_linker_0, # of connection points: 2
#     Edge 73, Type (0, 1), BuildingBlock: OJICUG_clean_linker_0, # of connection points: 2
#     Edge 74, Type (0, 1), BuildingBlock: OJICUG_clean_linker_0, # of connection points: 2
#     Edge 75, Type (0, 1), BuildingBlock: OJICUG_clean_linker_0, # of connection points: 2
#     Edge 76, Type (0, 1), BuildingBlock: OJICUG_clean_linker_0, # of connection points: 2
#     Edge 77, Type (0, 1), BuildingBlock: OJICUG_clean_linker_0, # of connection points: 2
#     Edge 78, Type (0, 1), BuildingBlock: OJICUG_clean_linker_0, # of connection points: 2
#     Edge 79, Type (0, 1), BuildingBlock: OJICUG_clean_linker_0, # of connection points: 2
#     Edge 80, Type (0, 1), BuildingBlock: OJICUG_clean_linker_0, # of connection points: 2
#     Edge 81, Type (0, 1), BuildingBlock: OJICUG_clean_linker_0, # of connection points: 2
#     Edge 82, Type (0, 1), BuildingBlock: OJICUG_clean_linker_0, # of connection points: 2
#     Edge 83, Type (0, 1), BuildingBlock: OJICUG_clean_linker_0, # of connection points: 2
#     Edge 84, Type (0, 1), BuildingBlock: OJICUG_clean_linker_0, # of connection points: 2
#     Edge 85, Type (0, 1), BuildingBlock: OJICUG_clean_linker_0, # of connection points: 2
#     Edge 86, Type (0, 1), BuildingBlock: OJICUG_clean_linker_0, # of connection points: 2
#     Edge 87, Type (0, 1), BuildingBlock: OJICUG_clean_linker_0, # of connection points: 2
#     Edge 88, Type (0, 1), BuildingBlock: OJICUG_clean_linker_0, # of connection points: 2
#     Edge 89, Type (0, 1), BuildingBlock: OJICUG_clean_linker_0, # of connection points: 2
#     Edge 90, Type (0, 1), BuildingBlock: OJICUG_clean_linker_0, # of connection points: 2
#     Edge 91, Type (0, 1), BuildingBlock: OJICUG_clean_linker_0, # of connection points: 2
#     Edge 92, Type (0, 1), BuildingBlock: OJICUG_clean_linker_0, # of connection points: 2
#     Edge 93, Type (0, 1), BuildingBlock: OJICUG_clean_linker_0, # of connection points: 2
#     Edge 94, Type (0, 1), BuildingBlock: OJICUG_clean_linker_0, # of connection points: 2
#     Edge 95, Type (0, 1), BuildingBlock: OJICUG_clean_linker_0, # of connection points: 2
#     Edge 96, Type (0, 1), BuildingBlock: OJICUG_clean_linker_0, # of connection points: 2
#     Edge 97, Type (0, 1), BuildingBlock: OJICUG_clean_linker_0, # of connection points: 2
#     Edge 98, Type (0, 1), BuildingBlock: OJICUG_clean_linker_0, # of connection points: 2
#     Edge 99, Type (0, 1), BuildingBlock: OJICUG_clean_linker_0, # of connection points: 2
#     Edge 100, Type (0, 1), BuildingBlock: OJICUG_clean_linker_0, # of connection points: 2
#     Edge 101, Type (0, 1), BuildingBlock: OJICUG_clean_linker_0, # of connection points: 2
#     Edge 102, Type (0, 1), BuildingBlock: OJICUG_clean_linker_0, # of connection points: 2
#     Edge 103, Type (0, 1), BuildingBlock: OJICUG_clean_linker_0, # of connection points: 2
#     Edge 104, Type (0, 1), BuildingBlock: OJICUG_clean_linker_0, # of connection points: 2
#     Edge 105, Type (0, 1), BuildingBlock: OJICUG_clean_linker_0, # of connection points: 2
#     Edge 106, Type (0, 1), BuildingBlock: OJICUG_clean_linker_0, # of connection points: 2
#     Edge 107, Type (0, 1), BuildingBlock: OJICUG_clean_linker_0, # of connection points: 2
#     Edge 108, Type (0, 1), BuildingBlock: OJICUG_clean_linker_0, # of connection points: 2
#     Edge 109, Type (0, 1), BuildingBlock: OJICUG_clean_linker_0, # of connection points: 2
#     Edge 110, Type (0, 1), BuildingBlock: OJICUG_clean_linker_0, # of connection points: 2
#     Edge 111, Type (0, 1), BuildingBlock: OJICUG_clean_linker_0, # of connection points: 2
#     Edge 112, Type (0, 1), BuildingBlock: OJICUG_clean_linker_0, # of connection points: 2
#     Edge 113, Type (0, 1), BuildingBlock: OJICUG_clean_linker_0, # of connection points: 2
#     Edge 114, Type (0, 1), BuildingBlock: OJICUG_clean_linker_0, # of connection points: 2
#     Edge 115, Type (0, 1), BuildingBlock: OJICUG_clean_linker_0, # of connection points: 2
#     Edge 116, Type (0, 1), BuildingBlock: OJICUG_clean_linker_0, # of connection points: 2
#     Edge 117, Type (0, 1), BuildingBlock: OJICUG_clean_linker_0, # of connection points: 2
#     Edge 118, Type (0, 1), BuildingBlock: OJICUG_clean_linker_0, # of connection points: 2
#     Edge 119, Type (0, 1), BuildingBlock: OJICUG_clean_linker_0, # of connection points: 2
#     Edge 120, Type (0, 1), BuildingBlock: OJICUG_clean_linker_0, # of connection points: 2
#     Edge 121, Type (0, 1), BuildingBlock: OJICUG_clean_linker_0, # of connection points: 2
#     Edge 122, Type (0, 1), BuildingBlock: OJICUG_clean_linker_0, # of connection points: 2
#     Edge 123, Type (0, 1), BuildingBlock: OJICUG_clean_linker_0, # of connection points: 2
#     Edge 124, Type (0, 1), BuildingBlock: OJICUG_clean_linker_0, # of connection points: 2
#     Edge 125, Type (0, 1), BuildingBlock: OJICUG_clean_linker_0, # of connection points: 2
#     Edge 126, Type (0, 1), BuildingBlock: OJICUG_clean_linker_0, # of connection points: 2
#     Edge 127, Type (0, 1), BuildingBlock: OJICUG_clean_linker_0, # of connection points: 2
#     Edge 128, Type (0, 1), BuildingBlock: OJICUG_clean_linker_0, # of connection points: 2
#     Edge 129, Type (0, 1), BuildingBlock: OJICUG_clean_linker_0, # of connection points: 2
#     Edge 130, Type (0, 1), BuildingBlock: OJICUG_clean_linker_0, # of connection points: 2
#     Edge 131, Type (0, 1), BuildingBlock: OJICUG_clean_linker_0, # of connection points: 2
#     Edge 132, Type (0, 1), BuildingBlock: OJICUG_clean_linker_0, # of connection points: 2
#     Edge 133, Type (0, 1), BuildingBlock: OJICUG_clean_linker_0, # of connection points: 2
#     Edge 134, Type (0, 1), BuildingBlock: OJICUG_clean_linker_0, # of connection points: 2
#     Edge 135, Type (0, 1), BuildingBlock: OJICUG_clean_linker_0, # of connection points: 2
# Relax obj value: 0.351
# Max RMSD: 0.521
# Mean RMSD: 0.186
data_MOF--net-gar--node1-KUFVIS_clean_sbu_0--node2-GEDQOX_clean_sbu_0--edge1-OJICUG_clean_linker_0
_symmetry_space_group_name_H-M    P1
_symmetry_Int_Tables_number       1
_symmetry_cell_setting            triclinic
loop_
_symmetry_equiv_pos_as_xyz
'x, y, z'
_cell_length_a     45.042075
_cell_length_b     43.718473
_cell_length_c     39.638041
_cell_angle_alpha  99.536708
_cell_angle_beta   97.629257
_cell_angle_gamma 97.619519
loop_
_atom_site_label
_atom_site_type_symbol
_atom_site_fract_x
_atom_site_fract_y
_atom_site_fract_z
_atom_type_partial_charge
Mn0 Mn 0.17655 0.41111 0.52983 0.0
Mn1 Mn 0.16826 0.45568 0.46891 0.0
C2 C 0.13004 0.42419 0.51262 0.0
C3 C 0.17416 0.36196 0.54427 0.0
C4 C 0.19612 0.48199 0.54415 0.0
O5 O 0.21338 0.4064 0.50619 0.0
O6 O 0.20267 0.43217 0.46232 0.0
C7 C 0.15213 0.4073 0.40451 0.0
N8 N 0.14517 0.43196 0.42626 0.0
C9 C 0.09802 0.43039 0.38888 0.0
C10 C 0.10501 0.40535 0.36592 0.0
C11 C 0.13217 0.39373 0.37382 0.0
C12 C 0.11915 0.4435 0.41872 0.0
H13 H 0.17262 0.39784 0.4105 0.0
C14 C 0.21649 0.41237 0.47627 0.0
O15 O 0.1897 0.38646 0.56552 0.0
O16 O 0.16207 0.36599 0.51416 0.0
N17 N 0.13399 0.47711 0.47207 0.0
C18 C 0.12805 0.49712 0.4996 0.0
C19 C 0.09995 0.50749 0.49812 0.0
C20 C 0.07834 0.49812 0.46796 0.0
C21 C 0.08485 0.47756 0.43983 0.0
C22 C 0.11305 0.46715 0.44318 0.0
H23 H 0.1438 0.50379 0.52329 0.0
O24 O 0.13595 0.41638 0.54267 0.0
O25 O 0.15162 0.42452 0.49405 0.0
O26 O 0.19296 0.45606 0.55496 0.0
O27 O 0.19119 0.48353 0.51195 0.0
C28 C 0.06367 0.46541 0.40956 0.0
C29 C 0.07038 0.44204 0.38394 0.0
H30 H 0.08941 0.39447 0.3425 0.0
H31 H 0.1376 0.37416 0.35643 0.0
H32 H 0.09482 0.52179 0.52078 0.0
H33 H 0.05651 0.50602 0.46714 0.0
H34 H 0.04177 0.47313 0.40624 0.0
H35 H 0.05363 0.43234 0.36114 0.0
Mn36 Mn 1.0255 0.76274 0.67813 0.0
Mn37 Mn 0.07805 0.80077 0.74645 0.0
C38 C 0.07576 0.75571 0.68136 0.0
C39 C 0.99391 0.71846 0.64539 0.0
C40 C 0.05541 0.83119 0.68679 0.0
O41 O 0.99831 0.77694 0.71408 0.0
O42 O 1.03667 0.80055 0.75681 0.0
C43 C 0.0667 0.75457 0.79196 0.0
N44 N 0.08633 0.77258 0.77717 0.0
C45 C 0.12938 0.75947 0.81124 0.0
C46 C 0.10966 0.74158 0.82772 0.0
C47 C 0.07816 0.73882 0.81772 0.0
C48 C 0.11658 0.77391 0.78512 0.0
H49 H 0.04255 0.75233 0.7841 0.0
C50 C 1.00853 0.79194 0.74502 0.0
O51 O 0.99156 0.74631 0.63896 0.0
O52 O 1.01027 0.71733 0.67457 0.0
N53 N 0.12001 0.80356 0.74173 0.0
C54 C 0.13594 0.82224 0.72379 0.0
C55 C 0.16779 0.82714 0.7303 0.0
C56 C 0.18296 0.81403 0.75632 0.0
C57 C 0.16612 0.79578 0.77526 0.0
C58 C 0.13447 0.79079 0.76677 0.0
H59 H 0.12444 0.83349 0.70477 0.0
O60 O 0.05824 0.75025 0.65175 0.0
O61 O 0.06378 0.76507 0.70842 0.0
O62 O 1.036 0.80773 0.6706 0.0
O63 O 0.07184 0.83126 0.71566 0.0
C64 C 0.17944 0.7832 0.80301 0.0
C65 C 0.16117 0.76436 0.82038 0.0
H66 H 0.11844 0.7299 0.84808 0.0
H67 H 0.06279 0.72512 0.83032 0.0
H68 H 0.1806 0.84156 0.71583 0.0
H69 H 0.20752 0.81838 0.76176 0.0
H70 H 0.20376 0.78778 0.81115 0.0
H71 H 0.17176 0.75422 0.84112 0.0
Mn72 Mn 0.67633 0.90773 1.00807 0.0
Mn73 Mn 0.65088 0.95064 0.95071 0.0
C74 C 0.62781 0.91913 1.00421 0.0
C75 C 0.67957 0.85868 0.02217 0.0
C76 C 0.69006 0.97945 0.02039 0.0
O77 O 0.70595 0.90355 0.97334 0.0
O78 O 0.6866 0.93283 0.9368 0.0
C79 C 0.63009 0.89636 0.89264 0.0
N80 N 0.62477 0.923 0.9125 0.0
C81 C 0.57417 0.91676 0.88103 0.0
C82 C 0.58001 0.89064 0.85872 0.0
C83 C 0.60794 0.88005 0.86496 0.0
C84 C 0.5973 0.93224 0.90801 0.0
H85 H 0.65063 0.88703 0.89849 0.0
C86 C 0.70407 0.91333 0.94455 0.0
O87 O 0.69758 0.88353 0.03988 0.0
O88 O 0.66199 0.86226 0.99503 0.0
N89 N 0.6151 0.96791 0.95948 0.0
C90 C 0.61122 0.98983 0.98651 0.0
C91 C 0.58277 0.99947 0.98714 0.0
C92 C 0.55898 0.98764 0.95963 0.0
C93 C 0.56354 0.9654 0.93193 0.0
C94 C 0.59212 0.95594 0.93296 0.0
H95 H 0.62942 0.99927 1.00776 0.0
O96 O 0.64058 0.91207 0.03254 0.0
O97 O 0.64393 0.91966 0.97964 0.0
O98 O 0.69415 0.95357 0.02993 0.0
O99 O 0.67616 0.98092 0.99042 0.0
C100 C 0.54049 0.95144 0.90397 0.0
C101 C 0.54586 0.92723 0.87839 0.0
H102 H 0.5628 0.8778 0.8376 0.0
H103 H 0.61222 0.85909 0.84883 0.0
H104 H 0.57892 1.01571 1.00886 0.0
H105 H 0.53713 0.99528 0.96046 0.0
H106 H 0.51825 0.95848 0.90245 0.0
H107 H 0.52767 0.91596 0.85758 0.0
Mn108 Mn 0.50407 0.25609 0.15763 0.0
Mn109 Mn 0.44837 0.26038 0.09687 0.0
C110 C 0.4795 0.20964 0.12274 0.0
C111 C 0.55495 0.25999 0.17946 0.0
C112 C 0.45119 0.28255 0.17378 0.0
O113 O 0.51065 0.30115 0.14795 0.0
O114 O 0.48141 0.29451 0.09532 0.0
C115 C 0.46802 0.24715 0.0284 0.0
N116 N 0.45043 0.2383 0.05162 0.0
C117 C 0.42833 0.19002 1.01265 0.0
C118 C 0.44686 0.19817 0.98872 0.0
C119 C 0.46657 0.227 0.99649 0.0
C120 C 0.43063 0.21113 0.04392 0.0
H121 H 0.48338 0.26919 0.03446 0.0
C122 C 0.50293 0.30999 0.11909 0.0
O123 O 0.5352 0.26686 0.19929 0.0
O124 O 0.54514 0.25063 0.14647 0.0
N125 N 0.41682 0.22658 0.09797 0.0
C126 C 0.39996 0.22247 0.12345 0.0
C127 C 0.37863 0.19508 0.11936 0.0
C128 C 0.37473 0.17221 0.08906 0.0
C129 C 0.39204 0.17707 0.06299 0.0
C130 C 0.4129 0.20487 0.06848 0.0
H131 H 0.40266 0.23992 0.14674 0.0
O132 O 0.49299 0.20983 0.15398 0.0
O133 O 0.47974 0.23725 0.11457 0.0
O134 O 0.46778 0.2628 0.18099 0.0
O135 O 0.4436 0.28554 0.14251 0.0
C136 C 0.38951 0.15533 0.03183 0.0
C137 C 0.40771 0.16176 1.00673 0.0
H138 H 0.44599 0.18257 0.96421 0.0
H139 H 0.48074 0.23359 0.97803 0.0
H140 H 0.36525 0.19157 0.13954 0.0
H141 H 0.35835 0.15105 0.08608 0.0
H142 H 0.37365 0.13358 0.02691 0.0
H143 H 0.40561 0.14484 0.98292 0.0
Mn144 Mn 0.09388 0.80574 0.27963 0.0
Mn145 Mn 1.03806 0.79035 0.20866 0.0
C146 C 0.07891 0.75432 0.24477 0.0
C147 C 0.15052 0.81603 0.30148 0.0
C148 C 1.02208 0.80364 0.28225 0.0
O149 O 0.0924 0.8499 0.26639 0.0
O150 O 0.05559 0.83523 0.2192 0.0
C151 C 0.07677 0.80321 0.15622 0.0
N152 N 0.05621 0.78326 0.16771 0.0
C153 C 0.05393 0.74326 0.11743 0.0
C154 C 0.07499 0.76341 0.10497 0.0
C155 C 0.08651 0.79348 0.12451 0.0
C156 C 0.04507 0.75422 0.14919 0.0
H157 H 0.08569 0.82634 0.17114 0.0
C158 C 0.07516 0.85588 0.24032 0.0
O159 O 0.13015 0.82058 0.32138 0.0
O160 O 0.13834 0.80696 0.26946 0.0
N161 N 1.01952 0.74723 0.19535 0.0
C162 C 1.00066 0.73008 0.2119 0.0
C163 C 0.98768 0.69915 0.19615 0.0
C164 C 0.99405 0.68627 0.16349 0.0
C165 C 1.01338 0.70445 0.14686 0.0
C166 C 1.0255 0.73519 0.16373 0.0
H167 H 0.99557 0.73994 0.23691 0.0
O168 O 0.09161 0.75809 0.2768 0.0
O169 O 0.0739 0.78016 0.23517 0.0
O170 O 0.04996 0.80719 0.29876 0.0
O171 O 1.01668 0.79698 0.24915 0.0
C172 C 1.02153 0.69311 0.11451 0.0
C173 C 0.04191 0.71248 0.09992 0.0
H174 H 0.08264 0.75594 0.08059 0.0
H175 H 0.10287 0.80913 0.11515 0.0
H176 H 0.97279 0.68526 0.20914 0.0
H177 H 0.98417 0.66234 0.15154 0.0
H178 H 1.01269 0.66936 0.10093 0.0
H179 H 0.04858 0.70342 0.07546 0.0
Mn180 Mn 0.59709 0.85508 0.42595 0.0
Mn181 Mn 0.59078 0.89196 0.35826 0.0
C182 C 0.54657 0.8561 0.3968 0.0
C183 C 0.60825 0.81406 0.45465 0.0
C184 C 0.60088 0.92673 0.43303 0.0
O185 O 0.6415 0.85998 0.41371 0.0
O186 O 0.63439 0.88182 0.36681 0.0
C187 C 0.59766 0.83912 0.30397 0.0
N188 N 0.58103 0.86098 0.31662 0.0
C189 C 0.54048 0.84233 0.26856 0.0
C190 C 0.5573 0.81982 0.25491 0.0
C191 C 0.58599 0.81819 0.27273 0.0
C192 C 0.55331 0.86264 0.29976 0.0
H193 H 0.61962 0.83756 0.31766 0.0
C194 C 0.65185 0.8701 0.38824 0.0
O195 O 0.61324 0.84309 0.46986 0.0
O196 O 0.59588 0.80803 0.42211 0.0
N197 N 0.55147 0.90279 0.34565 0.0
C198 C 0.53795 0.9257 0.36234 0.0
C199 C 0.509 0.93021 0.34797 0.0
C200 C 0.49432 0.91134 0.31649 0.0
C201 C 0.50886 0.88829 0.29948 0.0
C202 C 0.53779 0.88495 0.31495 0.0
H203 H 0.54899 0.94029 0.3866 0.0
O204 O 0.55179 0.85049 0.42799 0.0
O205 O 0.57157 0.85969 0.38265 0.0
O206 O 0.60075 0.90176 0.44541 0.0
O207 O 0.59939 0.92654 0.40048 0.0
C208 C 0.4956 0.86822 0.26799 0.0
C209 C 0.51138 0.84524 0.25257 0.0
H210 H 0.54835 0.80356 0.23087 0.0
H211 H 0.59905 0.80077 0.26244 0.0
H212 H 0.49796 0.94811 0.36122 0.0
H213 H 0.47187 0.91471 0.30565 0.0
H214 H 0.4732 0.87014 0.25552 0.0
H215 H 0.50088 0.82983 0.22845 0.0
Mn216 Mn 0.59525 0.30416 0.77947 0.0
Mn217 Mn 0.53874 0.28842 0.70899 0.0
C218 C 0.57967 0.25248 0.74517 0.0
C219 C 0.65203 0.31476 0.80067 0.0
C220 C 0.52387 0.30346 0.78303 0.0
O221 O 0.59381 0.34792 0.76528 0.0
O222 O 0.55773 0.33287 0.71734 0.0
C223 C 0.57639 0.29722 0.65443 0.0
N224 N 0.55566 0.2788 0.66747 0.0
C225 C 0.55078 0.23703 0.61823 0.0
C226 C 0.572 0.25561 0.60424 0.0
C227 C 0.58493 0.28581 0.62249 0.0
C228 C 0.5432 0.24964 0.6502 0.0
H229 H 0.58633 0.32041 0.66834 0.0
C230 C 0.57738 0.35353 0.73838 0.0
O231 O 0.63184 0.31958 0.82075 0.0
O232 O 0.63957 0.30509 0.76879 0.0
N233 N 0.51895 0.24563 0.69795 0.0
C234 C 0.50038 0.22993 0.71605 0.0
C235 C 0.48617 0.19906 0.70177 0.0
C236 C 0.49106 0.18472 0.66898 0.0
C237 C 0.5102 0.20137 0.65078 0.0
C238 C 0.52362 0.23213 0.66625 0.0
H239 H 0.49641 0.24088 0.74118 0.0
O240 O 0.59289 0.25648 0.77705 0.0
O241 O 0.57457 0.27823 0.73549 0.0
O242 O 0.5517 0.30611 0.79931 0.0
O243 O 0.51835 0.29738 0.74994 0.0
C244 C 0.51701 0.18843 0.61825 0.0
C245 C 0.53741 0.20621 0.60211 0.0
H246 H 0.57873 0.24683 0.57966 0.0
H247 H 0.60142 0.30026 0.61194 0.0
H248 H 0.47147 0.18635 0.716 0.0
H249 H 0.48023 0.16083 0.65816 0.0
H250 H 0.50716 0.16462 0.60573 0.0
H251 H 0.54312 0.19584 0.57759 0.0
Mn252 Mn 0.09845 0.35552 0.92684 0.0
Mn253 Mn 0.09274 0.39324 0.85977 0.0
C254 C 0.04807 0.35703 0.89741 0.0
C255 C 0.10933 0.31403 0.95499 0.0
C256 C 0.10278 0.42729 0.93489 0.0
O257 O 0.14299 0.36046 0.91485 0.0
O258 O 0.13616 0.38266 0.86818 0.0
C259 C 0.09932 0.34067 0.80499 0.0
N260 N 0.08283 0.36258 0.81787 0.0
C261 C 0.04211 0.34427 0.76994 0.0
C262 C 0.05877 0.3217 0.75605 0.0
C263 C 0.08748 0.31988 0.77369 0.0
C264 C 0.0551 0.36442 0.80119 0.0
H265 H 0.12128 0.33893 0.81854 0.0
C266 C 0.15347 0.3707 0.88949 0.0
O267 O 0.11433 0.34296 0.97055 0.0
O268 O 0.09707 0.30837 0.92242 0.0
N269 N 0.05359 0.4045 0.8473 0.0
C270 C 0.04038 0.42768 0.864 0.0
C271 C 1.01154 0.43254 0.8497 0.0
C272 C 0.99663 0.41371 0.81828 0.0
C273 C 1.01088 0.39042 0.80122 0.0
C274 C 0.03975 0.38679 0.81659 0.0
H275 H 0.0516 0.44223 0.88821 0.0
O276 O 0.053 0.35101 0.92847 0.0
O277 O 0.07324 0.36073 0.88361 0.0
O278 O 0.10227 0.40209 0.94687 0.0
O279 O 0.10152 0.42747 0.90241 0.0
C280 C 0.99744 0.37048 0.76972 0.0
C281 C 1.01302 0.34739 0.75412 0.0
H282 H 0.04969 0.30557 0.73196 0.0
H283 H 0.10042 0.30242 0.76322 0.0
H284 H 1.00073 0.45064 0.86296 0.0
H285 H 0.97426 0.41733 0.8075 0.0
H286 H 0.97508 0.37262 0.75733 0.0
H287 H 1.00239 0.33211 0.72997 0.0
Mn288 Mn 0.49957 0.15238 0.32587 0.0
Mn289 Mn 0.44432 0.15115 0.3771 0.0
C290 C 0.47756 0.10544 0.33812 0.0
C291 C 0.51836 0.14779 0.27153 0.0
C292 C 0.5114 0.16485 0.40692 0.0
O293 O 0.48384 0.19536 0.32382 0.0
O294 O 0.44928 0.19139 0.35978 0.0
C295 C 0.39216 0.1512 0.32283 0.0
N296 N 0.40536 0.13825 0.34882 0.0
C297 C 0.35945 0.10237 0.34655 0.0
C298 C 0.3453 0.11554 0.32 0.0
C299 C 0.36184 0.13986 0.30785 0.0
C300 C 0.38993 0.11419 0.35994 0.0
H301 H 0.40459 0.17012 0.31369 0.0
C302 C 0.46259 0.2058 0.33905 0.0
O303 O 0.53496 0.16205 0.30056 0.0
O304 O 0.49006 0.13889 0.27345 0.0
N305 N 0.43512 0.11404 0.396 0.0
C306 C 0.45209 0.10342 0.42142 0.0
C307 C 0.43923 0.07809 0.43513 0.0
C308 C 0.40862 0.06509 0.42408 0.0
C309 C 0.39122 0.07718 0.39894 0.0
C310 C 0.40556 0.10164 0.38521 0.0
H311 H 0.47541 0.11379 0.43086 0.0
O312 O 0.50412 0.10819 0.3287 0.0
O313 O 0.4639 0.12998 0.33967 0.0
O314 O 0.52112 0.16452 0.37778 0.0
O315 O 0.48327 0.16308 0.40936 0.0
C316 C 0.36021 0.06587 0.38694 0.0
C317 C 0.34443 0.07817 0.36046 0.0
H318 H 0.32179 0.10712 0.30871 0.0
H319 H 0.35114 0.15009 0.28727 0.0
H320 H 0.45284 0.06876 0.45439 0.0
H321 H 0.3987 0.04584 0.43512 0.0
H322 H 0.34837 0.0474 0.39759 0.0
H323 H 0.32072 0.06889 0.35102 0.0
Mn324 Mn 0.2933 0.1925 0.51036 0.0
Mn325 Mn 0.25507 0.14913 0.43866 0.0
C326 C 0.24271 0.17461 0.5113 0.0
C327 C 0.32913 0.19497 0.55815 0.0
C328 C 0.28147 0.2188 0.44824 0.0
O329 O 0.32368 0.17924 0.47952 0.0
O330 O 0.29604 0.13573 0.44643 0.0
C331 C 0.2472 0.08339 0.44975 0.0
N332 N 0.23485 0.10905 0.44334 0.0
C333 C 0.1844 0.08199 0.44186 0.0
C334 C 0.19663 0.05534 0.44857 0.0
C335 C 0.22817 0.05603 0.45244 0.0
C336 C 0.20449 0.10849 0.43905 0.0
H337 H 0.2714 0.08382 0.45299 0.0
C338 C 0.32168 0.1518 0.46173 0.0
O339 O 0.32651 0.21922 0.54363 0.0
O340 O 0.31031 0.16923 0.54528 0.0
N341 N 0.21516 0.16031 0.43156 0.0
C342 C 0.20679 0.18808 0.42577 0.0
C343 C 0.17603 0.19143 0.4222 0.0
C344 C 0.15408 0.1662 0.42443 0.0
C345 C 0.16308 0.13772 0.42994 0.0
C346 C 0.19409 0.13569 0.43315 0.0
H347 H 0.2233 0.20761 0.42373 0.0
O348 O 0.25766 0.19796 0.53466 0.0
O349 O 0.25858 0.16234 0.48892 0.0
O350 O 0.28207 0.22389 0.4807 0.0
O351 O 0.27499 0.19088 0.43014 0.0
C352 C 0.14248 0.11136 0.43268 0.0
C353 C 0.15313 0.0835 0.43858 0.0
H354 H 0.18204 0.0343 0.45102 0.0
H355 H 0.2378 0.03558 0.45768 0.0
H356 H 0.16925 0.21346 0.41776 0.0
H357 H 0.13037 0.16894 0.42183 0.0
H358 H 0.11839 0.1123 0.43044 0.0
H359 H 0.13709 0.06345 0.44085 0.0
Mn360 Mn 0.22899 0.08366 0.85168 0.0
Mn361 Mn 0.28374 0.09701 0.91995 0.0
C362 C 0.25723 0.13863 0.87026 0.0
C363 C 0.20446 0.07398 0.79081 0.0
C364 C 0.21524 0.08457 0.92925 0.0
O365 O 0.24348 0.03691 0.8512 0.0
O366 O 0.28143 0.05035 0.89616 0.0
C367 C 0.33831 0.08907 0.88692 0.0
N368 N 0.32299 0.10736 0.90746 0.0
C369 C 0.36395 0.15085 0.91757 0.0
C370 C 0.38021 0.13236 0.8968 0.0
C371 C 0.36732 0.10134 0.88141 0.0
C372 C 0.33529 0.13722 0.92255 0.0
H373 H 0.32851 0.0653 0.87471 0.0
C374 C 0.26644 0.02921 0.87041 0.0
O375 O 0.19065 0.06794 0.816 0.0
O376 O 0.23353 0.08286 0.80001 0.0
N377 N 0.28987 0.13971 0.94412 0.0
C378 C 0.27053 0.15525 0.96155 0.0
C379 C 0.27971 0.18686 0.97756 0.0
C380 C 0.30859 0.20226 0.97539 0.0
C381 C 0.32802 0.18593 0.95709 0.0
C382 C 0.31774 0.15436 0.94186 0.0
H383 H 0.24818 0.14377 0.96313 0.0
O384 O 0.22908 0.13165 0.85564 0.0
O385 O 0.26752 0.11255 0.87646 0.0
O386 O 0.20656 0.0834 0.89667 0.0
O387 O 0.24396 0.08748 0.94002 0.0
C388 C 0.3569 0.19999 0.95271 0.0
C389 C 0.37478 0.18251 0.93281 0.0
H390 H 0.40249 0.14183 0.89223 0.0
H391 H 0.37966 0.08697 0.86517 0.0
H392 H 0.26448 0.19937 0.99143 0.0
H393 H 0.3155 0.22671 0.98756 0.0
H394 H 0.36542 0.22436 0.96413 0.0
H395 H 0.39671 0.19374 0.9291 0.0
Mn396 Mn 0.28345 0.92144 0.10444 0.0
Mn397 Mn 0.29798 0.97593 0.05447 0.0
C398 C 0.33159 0.93463 0.09279 0.0
C399 C 0.28561 0.90729 0.16045 0.0
C400 C 0.2734 0.90715 0.02357 0.0
O401 O 0.24546 0.94499 0.10547 0.0
O402 O 0.25963 0.98092 0.07356 0.0
C403 C 0.30945 0.03167 0.11125 0.0
N404 N 0.31825 1.01451 0.08345 0.0
C405 C 0.36393 0.05174 0.08912 0.0
C406 C 0.35469 0.07041 0.11689 0.0
C407 C 0.32749 0.06015 0.12824 0.0
C408 C 0.34492 1.02364 0.07309 0.0
H409 H 0.28905 1.02351 0.12071 0.0
C410 C 0.24172 0.96991 0.09281 0.0
O411 O 0.27001 0.88888 0.13285 0.0
O412 O 0.29613 0.93512 0.15617 0.0
N413 N 0.3348 0.97555 0.03495 0.0
C414 C 0.34163 0.95395 1.00931 0.0
C415 C 0.36884 0.95996 0.99618 0.0
C416 C 0.38863 0.9883 1.00915 0.0
C417 C 0.38111 1.01033 0.03526 0.0
C418 C 0.35353 1.00317 0.04716 0.0
H419 H 0.32657 0.93221 0.9989 0.0
O420 O 0.32375 0.90827 0.10231 0.0
O421 O 0.31136 0.95308 0.09083 0.0
O422 O 0.27128 0.89781 0.0525 0.0
O423 O 0.27899 0.93632 0.0218 0.0
C424 C 0.40014 0.03891 0.0503 0.0
C425 C 0.39161 0.05956 0.07729 0.0
H426 H 0.36862 0.09232 0.13016 0.0
H427 H 0.32054 0.07405 0.15018 0.0
H428 H 0.37452 0.94279 0.97605 0.0
H429 H 0.40962 0.99284 0.99899 0.0
H430 H 0.42163 0.045 0.0417 0.0
H431 H 0.40669 0.08121 0.08909 0.0
Mn432 Mn 0.41456 0.53827 0.22674 0.0
Mn433 Mn 0.41055 0.5814 0.16355 0.0
C434 C 0.45769 0.54788 0.19963 0.0
C435 C 0.39538 0.48461 0.2358 0.0
C436 C 0.38157 0.51392 0.15211 0.0
O437 O 0.37223 0.55116 0.22192 0.0
O438 O 0.38537 0.59356 0.19947 0.0
C439 C 0.44035 0.64178 0.20792 0.0
N440 N 0.43885 0.61932 0.17922 0.0
C441 C 0.48087 0.64875 0.16103 0.0
C442 C 0.4828 0.67228 0.1903 0.0
C443 C 0.46253 0.6687 0.21394 0.0
C444 C 0.45855 0.62226 0.15664 0.0
H445 H 0.42471 0.63918 0.22607 0.0
C446 C 0.36604 0.57597 0.2114 0.0
O447 O 0.40003 0.49062 0.20623 0.0
O448 O 0.40111 0.50888 0.25942 0.0
N449 N 0.43444 0.57266 0.12757 0.0
C450 C 0.42937 0.54808 0.10029 0.0
C451 C 0.44757 0.54819 0.07416 0.0
C452 C 0.47041 0.57383 0.0759 0.0
C453 C 0.47473 0.59922 0.1037 0.0
C454 C 0.45593 0.59778 0.12903 0.0
H455 H 0.41147 0.52858 0.09824 0.0
O456 O 0.45749 0.52964 0.22229 0.0
O457 O 0.4335 0.56038 0.19497 0.0
O458 O 0.39584 0.50783 0.18014 0.0
O459 O 0.38191 0.54174 0.14557 0.0
C460 C 0.49692 0.62594 0.10725 0.0
C461 C 0.50019 0.65056 0.13603 0.0
H462 H 0.49976 0.69316 0.1949 0.0
H463 H 0.46391 0.68671 0.23664 0.0
H464 H 0.4439 0.52861 0.05263 0.0
H465 H 0.4845 0.57374 0.05577 0.0
H466 H 0.51159 0.62779 0.08799 0.0
H467 H 0.51752 0.67087 0.13859 0.0
Mn468 Mn 0.91391 0.2516 0.10506 0.0
Mn469 Mn 0.88529 0.18855 0.04079 0.0
C470 C 0.86251 0.23726 0.08702 0.0
C471 C 0.92154 0.27593 0.16599 0.0
C472 C 0.90701 0.25321 0.02603 0.0
O473 O 0.9515 0.22671 0.10211 0.0
O474 O 0.92845 0.18762 0.0582 0.0
C475 C 0.88852 0.13946 0.08399 0.0
N476 N 0.87208 0.1536 0.06146 0.0
C477 C 0.8267 0.11751 0.06115 0.0
C478 C 0.84323 0.10243 0.08409 0.0
C479 C 0.87425 0.11352 0.09564 0.0
C480 C 0.84215 0.14326 0.05041 0.0
H481 H 0.91232 0.14793 0.09308 0.0
C482 C 0.95168 0.20078 0.08059 0.0
O483 O 0.93303 0.28976 0.14295 0.0
O484 O 0.91053 0.24661 0.15483 0.0
N485 N 0.84343 0.18539 0.02132 0.0
C486 C 0.8305 0.20283 0.99964 0.0
C487 C 0.79942 0.19509 0.98628 0.0
C488 C 0.78204 0.16918 0.9948 0.0
C489 C 0.79597 0.15107 0.01636 0.0
C490 C 0.82707 0.15985 0.02882 0.0
H491 H 0.84368 0.2227 0.9928 0.0
O492 O 0.87371 0.26551 0.10261 0.0
O493 O 0.88138 0.2175 0.08272 0.0
O494 O 0.91695 0.26704 0.05768 0.0
O495 O 0.89677 0.22383 0.01749 0.0
C496 C 0.78012 0.12488 0.02631 0.0
C497 C 0.79544 0.1082 0.04882 0.0
H498 H 0.8323 0.08245 0.0932 0.0
H499 H 0.88712 0.10211 0.1135 0.0
H500 H 0.78888 0.2091 0.96951 0.0
H501 H 0.75803 0.16344 0.98472 0.0
H502 H 0.75607 0.11753 0.01707 0.0
H503 H 0.78292 0.08833 0.05662 0.0
Mn504 Mn 0.17605 0.52982 0.32012 0.0
Mn505 Mn 0.23799 0.56015 0.37952 0.0
C506 C 0.19743 0.58244 0.32864 0.0
C507 C 0.15454 0.51689 0.25987 0.0
C508 C 0.17447 0.54771 0.39898 0.0
O509 O 0.19567 0.4894 0.3264 0.0
O510 O 0.23496 0.51367 0.36798 0.0
C511 C 0.28461 0.54393 0.33617 0.0
N512 N 0.27213 0.56596 0.35577 0.0
C513 C 0.30763 0.60777 0.34422 0.0
C514 C 0.32085 0.58549 0.32406 0.0
C515 C 0.30928 0.55344 0.32002 0.0
C516 C 0.28308 0.59691 0.35973 0.0
H517 H 0.27577 0.51926 0.33266 0.0
C518 C 0.22034 0.48895 0.34725 0.0
O519 O 0.13865 0.51034 0.2836 0.0
O520 O 0.18316 0.52534 0.27078 0.0
N521 N 0.24394 0.60515 0.39142 0.0
C522 C 0.22782 0.62389 0.41032 0.0
C523 C 0.23642 0.65664 0.41648 0.0
C524 C 0.26145 0.66983 0.40312 0.0
C525 C 0.27775 0.65013 0.38384 0.0
C526 C 0.26834 0.61762 0.37886 0.0
H527 H 0.20841 0.61402 0.42043 0.0
O528 O 0.16885 0.57384 0.31724 0.0
O529 O 0.21171 0.56046 0.33704 0.0
O530 O 0.16056 0.53478 0.36835 0.0
O531 O 0.20328 0.55647 0.40545 0.0
C532 C 0.30267 0.66152 0.36891 0.0
C533 C 0.31758 0.64036 0.3491 0.0
H534 H 0.33976 0.59274 0.31137 0.0
H535 H 0.31927 0.5361 0.30435 0.0
H536 H 0.2237 0.6717 0.43137 0.0
H537 H 0.26784 0.69511 0.40766 0.0
H538 H 0.31035 0.68654 0.37218 0.0
H539 H 0.33652 0.64943 0.33745 0.0
Mn540 Mn 0.89956 1.01985 0.6927 0.0
Mn541 Mn 0.92407 0.09431 0.68467 0.0
C542 C 0.948 0.03297 0.68094 0.0
C543 C 0.88977 0.97921 0.72315 0.0
C544 C 0.89042 0.04686 0.62514 0.0
O545 O 0.86702 0.04267 0.71136 0.0
O546 O 0.88201 0.08805 0.69509 0.0
C547 C 0.92628 0.11724 0.75985 0.0
N548 N 0.94038 0.11441 0.73137 0.0
C549 C 0.98753 0.14211 0.76512 0.0
C550 C 0.9735 0.14527 0.79476 0.0
C551 C 0.94275 0.13273 0.79211 0.0
C552 C 0.97009 0.12594 0.73378 0.0
H553 H 0.90265 0.10778 0.75808 0.0
C554 C 0.8625 0.06965 0.7059 0.0
O555 O 0.87448 0.9789 0.69298 0.0
O556 O 0.91005 1.0038 0.73642 0.0
N557 N 0.96384 0.10619 0.6746 0.0
C558 C 0.97218 0.10635 0.6428 0.0
C559 C 1.00159 0.1202 0.64038 0.0
C560 C 1.02183 0.13454 0.67066 0.0
C561 C 1.01205 0.13607 0.70291 0.0
C562 C 0.98235 0.12212 0.70362 0.0
H563 H 0.95647 0.09592 0.61946 0.0
O564 O 0.93489 1.00402 0.67545 0.0
O565 O 0.93338 0.05394 0.69614 0.0
O566 O 0.88345 1.02678 0.64408 0.0
O567 O 0.90829 0.07297 0.63637 0.0
C568 C 1.03019 0.152 0.73419 0.0
C569 C 1.01801 0.1548 0.76535 0.0
H570 H 0.98606 0.15747 0.81963 0.0
H571 H 0.93172 0.1351 0.81485 0.0
H572 H 1.00861 0.11967 0.61526 0.0
H573 H 0.04459 0.14495 0.66888 0.0
H574 H 0.05336 0.16271 0.73446 0.0
H575 H 1.03206 0.16739 0.78919 0.0
Mn576 Mn 0.95613 0.08862 0.31937 0.0
Mn577 Mn 0.90009 0.08597 0.37053 0.0
C578 C 0.92775 0.03593 0.32696 0.0
C579 C 0.98742 0.09217 0.2687 0.0
C580 C 0.96801 0.09782 0.40085 0.0
O581 O 0.94225 0.13664 0.32439 0.0
O582 O 0.90488 0.12887 0.3558 0.0
C583 C 0.84824 0.08792 0.31688 0.0
N584 N 0.86104 0.07412 0.34235 0.0
C585 C 0.81635 0.03534 0.33515 0.0
C586 C 0.80245 0.04955 0.30936 0.0
C587 C 0.81855 0.07583 0.30003 0.0
C588 C 0.846 0.04843 0.35101 0.0
H589 H 0.86065 0.10786 0.30932 0.0
C590 C 0.92007 0.14712 0.33951 0.0
O591 O 0.99723 0.10155 0.30114 0.0
O592 O 0.95837 0.08206 0.26437 0.0
N593 N 0.89079 0.04779 0.38754 0.0
C594 C 0.90788 0.03584 0.41173 0.0
C595 C 0.89536 1.00896 0.42317 0.0
C596 C 0.8653 0.99487 0.41001 0.0
C597 C 0.84793 1.0079 0.38571 0.0
C598 C 0.86157 0.0348 0.37536 0.0
H599 H 0.93095 0.04657 0.42218 0.0
O600 O 0.95436 0.03975 0.31745 0.0
O601 O 0.91784 0.06321 0.33128 0.0
O602 O 0.97685 0.09579 0.37127 0.0
O603 O 0.93985 0.09705 0.40358 0.0
C604 C 0.81786 0.99477 0.37069 0.0
C605 C 0.80213 1.0084 0.34532 0.0
H606 H 0.77958 0.04025 0.29625 0.0
H607 H 0.80813 0.08669 0.27985 0.0
H608 H 0.90886 0.99909 0.44205 0.0
H609 H 0.85586 0.97389 0.41846 0.0
H610 H 0.80679 0.97389 0.37806 0.0
H611 H 0.77919 0.9978 0.33356 0.0
Mn612 Mn 0.41148 0.75029 0.60717 0.0
Mn613 Mn 0.38078 0.68639 0.54511 0.0
C614 C 0.35971 0.7362 0.59179 0.0
C615 C 0.42138 0.77523 0.66802 0.0
C616 C 0.40176 0.75028 0.52764 0.0
O617 O 0.44872 0.72513 0.6029 0.0
O618 O 0.42443 0.68523 0.56056 0.0
C619 C 0.38571 0.63845 0.58959 0.0
N620 N 0.36844 0.65241 0.56764 0.0
C621 C 0.32315 0.61815 0.57194 0.0
C622 C 0.34052 0.6033 0.59437 0.0
C623 C 0.37192 0.61355 0.60328 0.0
C624 C 0.33816 0.64284 0.55906 0.0
H625 H 0.40982 0.64629 0.59672 0.0
C626 C 0.4483 0.6988 0.58182 0.0
O627 O 0.43184 0.78873 0.64418 0.0
O628 O 0.41 0.74595 0.65746 0.0
N629 N 0.33846 0.68345 0.52778 0.0
C630 C 0.32483 0.70023 0.50585 0.0
C631 C 0.29336 0.69307 0.49473 0.0
C632 C 0.27628 0.66839 0.50574 0.0
C633 C 0.29088 0.6509 0.52752 0.0
C634 C 0.32235 0.65902 0.53765 0.0
H635 H 0.33776 0.71918 0.49714 0.0
O636 O 0.37145 0.76456 0.60642 0.0
O637 O 0.37835 0.71626 0.58688 0.0
O638 O 0.41272 0.76469 0.55889 0.0
O639 O 0.39129 0.72088 0.52016 0.0
C640 C 0.27538 0.62591 0.53984 0.0
C641 C 0.29149 0.60962 0.56214 0.0
H642 H 0.32996 0.58413 0.60506 0.0
H643 H 0.38546 0.6023 0.62071 0.0
H644 H 0.28229 0.70664 0.47784 0.0
H645 H 0.25197 0.66309 0.49733 0.0
H646 H 0.25104 0.61917 0.53254 0.0
H647 H 0.27928 0.59062 0.57168 0.0
Mn648 Mn 0.45617 0.58591 0.82079 0.0
Mn649 Mn 0.40024 0.58355 0.87216 0.0
C650 C 0.42796 0.5332 0.82895 0.0
C651 C 0.48713 0.58962 0.76983 0.0
C652 C 0.46814 0.59612 0.90229 0.0
O653 O 0.44242 0.63397 0.82591 0.0
O654 O 0.40474 0.62623 0.85691 0.0
C655 C 0.34813 0.58463 0.81848 0.0
N656 N 0.36118 0.57117 0.84409 0.0
C657 C 0.3168 0.53207 0.83738 0.0
C658 C 0.30266 0.54591 0.8114 0.0
C659 C 0.31848 0.57218 0.80176 0.0
C660 C 0.34641 0.5455 0.85307 0.0
H661 H 0.36032 0.6046 0.81072 0.0
C662 C 0.42015 0.64447 0.84082 0.0
O663 O 0.49717 0.59863 0.80226 0.0
O664 O 0.45806 0.57966 0.76568 0.0
N665 N 0.39133 0.54562 0.8897 0.0
C666 C 0.40865 0.53408 0.91406 0.0
C667 C 0.39641 0.50734 0.92593 0.0
C668 C 0.36638 0.49295 0.91306 0.0
C669 C 0.34882 0.50548 0.88843 0.0
C670 C 0.3622 0.53227 0.87765 0.0
H671 H 0.43169 0.54508 0.92435 0.0
O672 O 0.45443 0.537 0.81907 0.0
O673 O 0.41804 0.56051 0.83313 0.0
O674 O 0.4769 0.59337 0.87264 0.0
O675 O 0.44 0.59537 0.90508 0.0
C676 C 0.31879 0.49202 0.87357 0.0
C677 C 0.30285 0.50521 0.84794 0.0
H678 H 0.2798 0.53634 0.79841 0.0
H679 H 0.30785 0.58277 0.78146 0.0
H680 H 0.41011 0.49783 0.94497 0.0
H681 H 0.35711 0.47217 0.92207 0.0
H682 H 0.30792 0.47121 0.88126 0.0
H683 H 0.27994 0.49436 0.83632 0.0
Mn684 Mn 0.6767 0.03107 0.81507 0.0
Mn685 Mn 0.73927 0.06148 0.87344 0.0
C686 C 0.69837 0.08333 0.8224 0.0
C687 C 0.65339 1.01693 0.75556 0.0
C688 C 0.67619 0.05047 0.89412 0.0
O689 O 0.69602 0.99072 0.82174 0.0
O690 O 0.7351 1.01471 0.86384 0.0
C691 C 0.78461 0.04218 0.82958 0.0
N692 N 0.77308 0.06526 0.84884 0.0
C693 C 0.8093 0.10529 0.83523 0.0
C694 C 0.82155 0.08192 0.8154 0.0
C695 C 0.80911 0.05024 0.81254 0.0
C696 C 0.78482 0.09586 0.8516 0.0
H697 H 0.77511 1.01777 0.82698 0.0
C698 C 0.72016 0.99003 0.84328 0.0
O699 O 0.63855 1.01107 0.78039 0.0
O700 O 0.68221 1.02563 0.76501 0.0
N701 N 0.74644 0.10657 0.88365 0.0
C702 C 0.73099 0.12651 0.90198 0.0
C703 C 0.74049 0.15907 0.90697 0.0
C704 C 0.7657 0.17086 0.89296 0.0
C705 C 0.78119 0.14996 0.87407 0.0
C706 C 0.77093 0.1177 0.87031 0.0
H707 H 0.71134 0.11772 0.91239 0.0
O708 O 0.66963 0.07496 0.81172 0.0
O709 O 0.71272 0.06137 0.83088 0.0
O710 O 0.66225 0.03661 0.86384 0.0
O711 O 0.70492 0.05986 0.90018 0.0
C712 C 0.80611 0.15992 0.85834 0.0
C713 C 0.82014 0.1376 0.83892 0.0
H714 H 0.84034 0.08804 0.80204 0.0
H715 H 0.81833 0.03206 0.79711 0.0
H716 H 0.72831 0.17506 0.92143 0.0
H717 H 0.77278 0.19601 0.89659 0.0
H718 H 0.81444 0.18471 0.86065 0.0
H719 H 0.83906 0.14555 0.82662 0.0
Mn720 Mn 0.79393 0.68853 1.00812 0.0
Mn721 Mn 0.75673 0.64074 0.93804 0.0
C722 C 0.74366 0.66928 1.00853 0.0
C723 C 0.82916 0.69467 0.05738 0.0
C724 C 0.77939 0.71062 0.94287 0.0
O725 O 0.8253 0.67479 0.97896 0.0
O726 O 0.79881 0.63018 0.94657 0.0
C727 C 0.75312 0.57746 0.95626 0.0
N728 N 0.73897 0.60103 0.9466 0.0
C729 C 0.68999 0.57239 0.94879 0.0
C730 C 0.70408 0.54776 0.95852 0.0
C731 C 0.73579 0.55031 0.96224 0.0
C732 C 0.70843 0.59873 0.94272 0.0
H733 H 0.77746 0.57944 0.95968 0.0
C734 C 0.82405 0.64722 0.96173 0.0
O735 O 0.82606 0.71762 0.04084 0.0
O736 O 0.8113 0.66811 0.04563 0.0
N737 N 0.71579 0.6491 0.93013 0.0
C738 C 0.70558 0.67535 0.9219 0.0
C739 C 0.67441 0.67688 0.91831 0.0
C740 C 0.65396 0.6514 0.92309 0.0
C741 C 0.66485 0.62449 0.93115 0.0
C742 C 0.69617 0.62419 0.93412 0.0
H743 H 0.72094 0.69505 0.91799 0.0
O744 O 0.75737 0.69382 0.03106 0.0
O745 O 0.76045 0.65686 0.98755 0.0
O746 O 0.78177 0.7172 0.97555 0.0
O747 O 0.77377 0.68213 0.9262 0.0
C748 C 0.64588 0.59818 0.93692 0.0
C749 C 0.65843 0.57214 0.94571 0.0
H750 H 0.6908 0.52694 0.96356 0.0
H751 H 0.74687 0.5315 0.96999 0.0
H752 H 0.66617 0.69771 0.91196 0.0
H753 H 0.62995 0.65279 0.92058 0.0
H754 H 0.62161 0.59784 0.93497 0.0
H755 H 0.64365 0.55217 0.95043 0.0
Mn756 Mn 1.00122 0.65636 0.8311 0.0
Mn757 Mn 0.9462 0.65235 0.88235 0.0
C758 C 0.97937 0.60835 0.84099 0.0
C759 C 1.01957 0.65382 0.77684 0.0
C760 C 1.01325 0.66643 0.91193 0.0
O761 O 0.98526 0.69944 0.83103 0.0
O762 O 0.95093 0.69333 0.86688 0.0
C763 C 0.89362 0.65379 0.82921 0.0
N764 N 0.90714 0.63993 0.85421 0.0
C765 C 0.86201 0.60226 0.84973 0.0
C766 C 0.84756 0.61627 0.82412 0.0
C767 C 0.8635 0.64202 0.81367 0.0
C768 C 0.89214 0.61485 0.86407 0.0
H769 H 0.90563 0.67374 0.82126 0.0
C770 C 0.964 0.70894 0.84692 0.0
O771 O 1.03642 0.66718 0.80601 0.0
O772 O 0.99133 0.64464 0.77875 0.0
N773 N 0.93755 0.6142 0.89945 0.0
C774 C 0.95509 0.60244 0.9234 0.0
C775 C 0.94268 0.57619 0.93592 0.0
C776 C 0.91215 0.56293 0.92463 0.0
C777 C 0.89444 0.57553 0.90027 0.0
C778 C 0.90809 0.60156 0.88845 0.0
H779 H 0.97841 0.61286 0.93283 0.0
O780 O 1.00601 0.61182 0.83185 0.0
O781 O 0.96573 0.6329 0.84398 0.0
O782 O 1.0229 0.66709 0.8829 0.0
O783 O 0.98512 0.66381 0.91445 0.0
C784 C 0.86393 0.56291 0.8868 0.0
C785 C 0.84776 0.57619 0.86143 0.0
H786 H 0.82429 0.60735 0.81217 0.0
H787 H 0.85254 0.6529 0.79384 0.0
H788 H 0.95655 0.56636 0.9545 0.0
H789 H 0.90251 0.54301 0.9348 0.0
H790 H 0.85283 0.54275 0.89544 0.0
H791 H 0.82443 0.56606 0.85095 0.0
Mn792 Mn 0.78602 0.42548 0.60443 0.0
Mn793 Mn 0.79922 0.48072 0.55509 0.0
C794 C 0.83392 0.4397 0.59228 0.0
C795 C 0.78857 0.41021 0.65987 0.0
C796 C 0.77594 0.41186 0.52361 0.0
O797 O 0.74759 0.44845 0.60628 0.0
O798 O 0.76061 0.48433 0.57392 0.0
C799 C 0.80916 0.53569 0.61265 0.0
N800 N 0.81852 0.5193 0.58474 0.0
C801 C 0.86329 0.55785 0.5911 0.0
C802 C 0.85356 0.57565 0.61913 0.0
C803 C 0.82654 0.56433 0.63019 0.0
C804 C 0.84509 0.52937 0.57477 0.0
H805 H 0.7888 0.52682 0.62176 0.0
C806 C 0.74312 0.47313 0.59345 0.0
O807 O 0.77302 0.39213 0.63204 0.0
O808 O 0.79889 0.43832 0.65622 0.0
N809 N 0.83616 0.48182 0.53575 0.0
C810 C 0.84336 0.46116 0.50946 0.0
C811 C 0.87047 0.46832 0.4965 0.0
C812 C 0.88963 0.49696 0.51009 0.0
C813 C 0.88148 0.51819 0.53651 0.0
C814 C 0.85426 0.50971 0.54856 0.0
H815 H 0.82869 0.43928 0.49847 0.0
O816 O 0.82663 0.4131 0.60156 0.0
O817 O 0.81335 0.4578 0.59101 0.0
O818 O 0.77373 0.40234 0.55242 0.0
O819 O 0.78126 0.44106 0.52197 0.0
C820 C 0.8994 0.54742 0.55146 0.0
C821 C 0.89052 0.56706 0.57903 0.0
H822 H 0.8669 0.59777 0.63271 0.0
H823 H 0.81918 0.57761 0.65225 0.0
H824 H 0.8765 0.45185 0.47597 0.0
H825 H 0.91055 0.50239 0.50007 0.0
H826 H 0.92036 0.55478 0.54237 0.0
H827 H 0.9049 0.58911 0.59091 0.0
Mn828 Mn 0.72903 0.58665 0.3529 0.0
Mn829 Mn 0.78346 0.59987 0.42117 0.0
C830 C 0.75701 0.64173 0.37158 0.0
C831 C 0.705 0.57699 0.29209 0.0
C832 C 0.71492 0.58692 0.43024 0.0
O833 O 0.74361 0.53998 0.35218 0.0
O834 O 0.78153 0.5533 0.39714 0.0
C835 C 0.83833 0.59241 0.38859 0.0
N836 N 0.8228 0.61051 0.40906 0.0
C837 C 0.86383 0.65399 0.42023 0.0
C838 C 0.88031 0.63571 0.39954 0.0
C839 C 0.86747 0.60481 0.38362 0.0
C840 C 0.83497 0.64029 0.42454 0.0
H841 H 0.82861 0.56871 0.37604 0.0
C842 C 0.76662 0.53225 0.37125 0.0
O843 O 0.69094 0.57086 0.31706 0.0
O844 O 0.73403 0.58603 0.30151 0.0
N845 N 0.78922 0.64248 0.44544 0.0
C846 C 0.76947 0.65794 0.46224 0.0
C847 C 0.77832 0.68961 0.47814 0.0
C848 C 0.8073 0.70514 0.47652 0.0
C849 C 0.82714 0.68888 0.45885 0.0
C850 C 0.81713 0.65728 0.44359 0.0
H851 H 0.74704 0.64636 0.46334 0.0
O852 O 0.72886 0.6346 0.35696 0.0
O853 O 0.76743 0.61569 0.37776 0.0
O854 O 0.70633 0.58603 0.3977 0.0
O855 O 0.74363 0.58992 0.44105 0.0
C856 C 0.85623 0.703 0.45519 0.0
C857 C 0.87459 0.68555 0.43597 0.0
H858 H 0.90269 0.64527 0.39538 0.0
H859 H 0.87998 0.5906 0.36742 0.0
H860 H 0.76277 0.70208 0.49149 0.0
H861 H 0.81396 0.72964 0.48863 0.0
H862 H 0.86456 0.72739 0.46671 0.0
H863 H 0.89677 0.69679 0.43299 0.0
Nd864 Nd 0.11966 0.1121 0.105 0.0
Nd865 Nd 0.08101 0.06231 0.09165 0.0
C866 C 0.15601 0.16682 0.11894 0.0
C867 C 0.15212 0.19237 0.09885 0.0
C868 C 0.12371 0.20231 0.09275 0.0
C869 C 0.11769 0.22073 0.06768 0.0
C870 C 0.14009 0.23026 0.04842 0.0
C871 C 0.16901 0.22173 0.05567 0.0
C872 C 0.17487 0.20277 0.08038 0.0
C873 C 0.12434 0.08832 0.03487 0.0
C874 C 0.05227 0.12477 0.08011 0.0
C875 C 0.04525 1.00761 0.0797 0.0
C876 C 0.04725 0.98513 0.10442 0.0
C877 C 0.06372 0.96005 0.09867 0.0
C878 C 0.07041 0.9424 0.12455 0.0
C879 C 0.06091 0.94929 0.15712 0.0
C880 C 0.04372 0.97386 0.16246 0.0
C881 C 1.03695 0.9914 0.13657 0.0
C882 C 0.07616 0.08674 0.16175 0.0
C883 C 0.14788 0.04961 0.11844 0.0
O884 O 0.13533 0.15981 0.1377 0.0
O885 O 0.16311 0.14167 0.10163 0.0
O886 O 0.11702 0.11547 0.04615 0.0
O887 O 0.12121 0.07213 0.05904 0.0
O888 O 0.0784 0.13746 0.09878 0.0
O889 O 0.04883 0.09428 0.06695 0.0
O890 O 0.06839 1.01248 0.06368 0.0
O891 O 1.03576 0.03384 0.09043 0.0
O892 O 0.08236 0.05921 0.15031 0.0
O893 O 0.07944 0.10244 0.1373 0.0
O894 O 0.12124 0.03621 0.10171 0.0
O895 O 0.15229 0.08051 0.12868 0.0
H896 H 0.10567 0.195 0.10651 0.0
H897 H 0.0954 0.22747 0.06329 0.0
H898 H 0.18681 0.22882 0.04137 0.0
H899 H 0.19682 0.19518 0.08407 0.0
H900 H 0.07225 0.9546 0.07444 0.0
H901 H 0.08305 0.92328 0.1189 0.0
H902 H 1.03611 0.98024 0.18708 0.0
H903 H 1.02454 1.01071 0.14239 0.0
Nd904 Nd 0.35557 0.86265 0.36541 0.0
Nd905 Nd 0.34387 0.80821 0.32781 0.0
C906 C 0.3639 0.91829 0.40595 0.0
C907 C 0.38233 0.94688 0.40002 0.0
C908 C 0.36788 0.96925 0.38563 0.0
C909 C 0.38445 0.99241 0.37236 0.0
C910 C 0.41609 0.99434 0.3737 0.0
C911 C 0.43064 0.97243 0.38923 0.0
C912 C 0.41401 0.94918 0.40244 0.0
C913 C 0.41269 0.85051 0.34708 0.0
C914 C 0.33853 0.86386 0.28457 0.0
C915 C 0.33829 0.75401 0.28429 0.0
C916 C 0.31345 0.72765 0.27366 0.0
C917 C 0.32038 0.69725 0.27181 0.0
C918 C 0.29809 0.67261 0.27371 0.0
C919 C 0.26839 0.67797 0.27716 0.0
C920 C 0.26087 0.70792 0.27524 0.0
C921 C 0.28334 0.7327 0.27386 0.0
C922 C 0.28628 0.82169 0.34366 0.0
C923 C 0.36245 0.80746 0.4082 0.0
O924 O 0.33953 0.90757 0.38327 0.0
O925 O 0.37851 0.89585 0.41324 0.0
O926 O 0.40102 0.87581 0.3449 0.0
O927 O 0.3924 0.83103 0.35531 0.0
O928 O 0.33845 0.88011 0.31546 0.0
O929 O 0.34668 0.83592 0.28277 0.0
O930 O 0.34961 0.75838 0.31692 0.0
O931 O 0.33443 0.78024 0.27411 0.0
O932 O 0.29711 0.79611 0.3469 0.0
O933 O 0.30734 0.84038 0.33569 0.0
O934 O 0.3654 0.79324 0.37733 0.0
O935 O 0.35148 0.83404 0.40998 0.0
H936 H 0.34347 0.96798 0.38317 0.0
H937 H 0.37211 1.0086 0.36088 0.0
H938 H 0.45476 0.97242 0.39037 0.0
H939 H 0.42591 0.93224 0.41325 0.0
H940 H 0.3436 0.69308 0.2721 0.0
H941 H 0.30493 0.65001 0.2753 0.0
H942 H 0.23807 0.71267 0.27687 0.0
H943 H 0.27761 0.75616 0.2756 0.0
Nd944 Nd 0.6142 0.10395 0.58519 0.0
Nd945 Nd 0.55763 0.08348 0.57769 0.0
C946 C 0.67346 0.11824 0.58687 0.0
C947 C 0.6995 0.11196 0.61052 0.0
C948 C 0.71214 0.08449 0.60224 0.0
C949 C 0.73573 0.07764 0.62499 0.0
C950 C 0.7475 0.09818 0.65655 0.0
C951 C 0.73491 0.1257 0.66495 0.0
C952 C 0.71115 0.1325 0.6422 0.0
C953 C 0.60571 0.07045 0.63907 0.0
C954 C 0.59142 0.0388 0.53272 0.0
C955 C 0.4982 0.06996 0.577 0.0
C956 C 0.47276 0.08014 0.55668 0.0
C957 C 0.44265 0.06737 0.55718 0.0
C958 C 0.41875 0.07749 0.53774 0.0
C959 C 0.42455 0.10049 0.51729 0.0
C960 C 0.45499 0.11303 0.51699 0.0
C961 C 0.4787 0.10294 0.53641 0.0
C962 C 0.56702 0.11583 0.52307 0.0
C963 C 0.58261 0.14715 0.6341 0.0
O964 O 0.6568 0.09392 0.56625 0.0
O965 O 0.65705 0.13813 0.60003 0.0
O966 O 0.62141 0.09782 0.64212 0.0
O967 O 0.59336 0.06128 0.60767 0.0
O968 O 0.60778 0.06643 0.53457 0.0
O969 O 0.57187 0.03691 0.55439 0.0
O970 O 0.51594 0.0921 0.59963 0.0
O971 O 0.51354 0.05173 0.55929 0.0
O972 O 0.55224 0.08801 0.51999 0.0
O973 O 0.57813 0.12579 0.5548 0.0
O974 O 0.56471 0.11997 0.62957 0.0
O975 O 0.60217 0.14989 0.61271 0.0
H976 H 0.70385 0.0682 0.57806 0.0
H977 H 0.74537 0.05663 0.6173 0.0
H978 H 0.7435 0.14201 0.68905 0.0
H979 H 0.70191 0.15384 0.6495 0.0
H980 H 0.43762 0.0498 0.5728 0.0
H981 H 0.39574 0.06771 0.5394 0.0
H982 H 0.4607 0.1303 0.50128 0.0
H983 H 0.50181 0.113 0.53569 0.0
Nd984 Nd 0.35443 0.34328 0.8787 0.0
Nd985 Nd 0.33192 0.32875 0.82566 0.0
C986 C 0.36467 0.35223 0.94728 0.0
C987 C 0.35769 0.37434 0.97593 0.0
C988 C 0.34845 0.36305 1.00455 0.0
C989 C 0.34346 0.38392 0.03307 0.0
C990 C 0.34801 0.41643 0.03347 0.0
C991 C 0.35554 0.42743 1.00379 0.0
C992 C 0.36018 0.40651 0.97515 0.0
C993 C 0.3729 0.40009 0.85224 0.0
C994 C 0.28173 0.35506 0.86463 0.0
C995 C 0.3194 0.31233 0.7576 0.0
C996 C 0.33145 0.28907 0.73418 0.0
C997 C 0.36195 0.29395 0.72935 0.0
C998 C 0.37364 0.27096 0.7087 0.0
C999 C 0.35476 0.2431 0.6914 0.0
C1000 C 0.32441 0.23797 0.69715 0.0
C1001 C 0.31295 0.26069 0.71836 0.0
C1002 C 0.31507 0.27322 0.85517 0.0
C1003 C 0.4052 0.32054 0.83655 0.0
O1004 O 0.34153 0.3334 0.92836 0.0
O1005 O 0.38401 0.36317 0.92891 0.0
O1006 O 0.38986 0.38501 0.87036 0.0
O1007 O 0.3459 0.38347 0.84639 0.0
O1008 O 0.30395 0.35156 0.88851 0.0
O1009 O 0.28849 0.35119 0.83329 0.0
O1010 O 0.33842 0.33718 0.77339 0.0
O1011 O 0.30246 0.30106 0.77817 0.0
O1012 O 0.29697 0.29028 0.84171 0.0
O1013 O 0.34205 0.28873 0.85685 0.0
O1014 O 0.38159 0.32221 0.81368 0.0
O1015 O 0.4 0.32485 0.86864 0.0
H1016 H 0.34584 0.33815 1.00517 0.0
H1017 H 0.33717 0.37473 0.05532 0.0
H1018 H 0.35956 0.45233 1.00334 0.0
H1019 H 0.3667 0.4156 0.95292 0.0
H1020 H 0.37681 0.31569 0.7412 0.0
H1021 H 0.39709 0.27566 0.70497 0.0
H1022 H 0.30878 0.21727 0.68364 0.0
H1023 H 0.2894 0.25631 0.72185 0.0
Nd1024 Nd 0.09368 0.11681 0.60498 0.0
Nd1025 Nd 0.09899 0.05904 0.57466 0.0
C1026 C 0.08166 0.17335 0.62713 0.0
C1027 C 0.0914 0.2015 0.61367 0.0
C1028 C 0.09708 0.23119 0.63505 0.0
C1029 C 0.11175 0.25691 0.62363 0.0
C1030 C 0.12118 0.25303 0.59089 0.0
C1031 C 0.11472 0.22322 0.56945 0.0
C1032 C 0.09993 0.19778 0.58068 0.0
C1033 C 0.14415 0.11917 0.57076 0.0
C1034 C 0.05578 0.09205 0.52618 0.0
C1035 C 0.11212 1.0024 0.55558 0.0
C1036 C 0.10822 0.9771 0.57549 0.0
C1037 C 0.10371 0.94548 0.55931 0.0
C1038 C 0.09535 0.9219 0.57782 0.0
C1039 C 0.09128 0.92974 0.61267 0.0
C1040 C 0.0964 0.96147 0.62881 0.0
C1041 C 0.10465 0.98487 0.61038 0.0
C1042 C 0.04877 0.05714 0.60813 0.0
C1043 C 0.13318 0.08295 0.65563 0.0
O1044 O 0.0621 0.15171 0.60571 0.0
O1045 O 0.10402 0.16193 0.64228 0.0
O1046 O 0.14363 0.13366 0.60169 0.0
O1047 O 0.11843 0.1034 0.55832 0.0
O1048 O 0.05416 0.10776 0.55728 0.0
O1049 O 0.07697 0.07385 0.52423 0.0
O1050 O 0.13282 1.02651 0.5701 0.0
O1051 O 0.08674 1.01084 0.54353 0.0
O1052 O 0.04857 0.04342 0.57672 0.0
O1053 O 0.07457 0.07234 0.62096 0.0
O1054 O 0.13647 0.06754 0.62497 0.0
O1055 O 0.11198 0.10101 0.65589 0.0
H1056 H 0.09106 0.23425 0.66083 0.0
H1057 H 0.11588 0.27971 0.64052 0.0
H1058 H 0.12206 0.21917 0.54438 0.0
H1059 H 0.09644 0.1748 0.56415 0.0
H1060 H 0.10581 0.9391 0.53223 0.0
H1061 H 0.0918 0.89758 0.5648 0.0
H1062 H 0.09295 0.96835 0.65537 0.0
H1063 H 0.10711 1.00918 0.6231 0.0
Nd1064 Nd 0.36368 0.84916 0.87143 0.0
Nd1065 Nd 0.32418 0.8239 0.82258 0.0
C1066 C 0.40681 0.88671 0.91656 0.0
C1067 C 0.43886 0.89138 0.93047 0.0
C1068 C 0.46045 0.88671 0.90868 0.0
C1069 C 0.49085 0.89041 0.92281 0.0
C1070 C 0.50011 0.89861 0.95892 0.0
C1071 C 0.47824 0.90318 0.98062 0.0
C1072 C 0.44777 0.89965 0.9664 0.0
C1073 C 0.31324 0.83615 0.90313 0.0
C1074 C 0.37099 0.7739 0.84913 0.0
C1075 C 0.28307 0.78432 0.77702 0.0
C1076 C 0.25493 0.76728 0.75549 0.0
C1077 C 0.23357 0.74891 0.76933 0.0
C1078 C 0.20558 0.73576 0.74936 0.0
C1079 C 0.19853 0.7407 0.7151 0.0
C1080 C 0.22209 0.75476 0.69992 0.0
C1081 C 0.24985 0.7684 0.72012 0.0
C1082 C 0.37519 0.83644 0.79106 0.0
C1083 C 0.31686 0.89977 0.847 0.0
O1084 O 0.39928 0.89104 0.88482 0.0
O1085 O 0.39051 0.8624 0.92378 0.0
O1086 O 0.33871 0.8261 0.91041 0.0
O1087 O 0.31309 0.84661 0.87505 0.0
O1088 O 0.38687 0.80182 0.86453 0.0
O1089 O 0.34283 0.77602 0.83494 0.0
O1090 O 0.28977 0.78097 0.80921 0.0
O1091 O 0.29616 0.81065 0.77035 0.0
O1092 O 0.3498 0.84651 0.78348 0.0
O1093 O 0.37466 0.82578 0.81895 0.0
O1094 O 0.3017 0.87214 0.82916 0.0
O1095 O 0.34442 0.89736 0.86261 0.0
H1096 H 0.45386 0.88002 0.88084 0.0
H1097 H 0.50699 0.88681 0.90525 0.0
H1098 H 0.4845 0.90887 1.00853 0.0
H1099 H 0.43106 0.90294 0.98345 0.0
H1100 H 0.23765 0.74628 0.79617 0.0
H1101 H 0.18891 0.72438 0.76236 0.0
H1102 H 0.21874 0.75703 0.67301 0.0
H1103 H 0.26695 0.78078 0.70831 0.0
Nd1104 Nd 0.57531 0.06961 0.06864 0.0
Nd1105 Nd 0.60863 0.12852 0.08833 0.0
C1106 C 0.53751 1.01616 0.05446 0.0
C1107 C 0.5094 1.00168 0.0633 0.0
C1108 C 0.50328 1.00716 0.09736 0.0
C1109 C 0.47567 0.99378 0.10474 0.0
C1110 C 0.45388 0.97512 0.07807 0.0
C1111 C 0.46037 0.96953 0.04411 0.0
C1112 C 0.488 0.9827 0.03681 0.0
C1113 C 0.63598 0.0648 0.07961 0.0
C1114 C 0.57342 0.10813 0.14749 0.0
C1115 C 0.64588 0.18215 0.09927 0.0
C1116 C 0.67552 0.19089 0.09022 0.0
C1117 C 0.69034 0.16744 0.0746 0.0
C1118 C 0.71989 0.175 0.06883 0.0
C1119 C 0.73486 0.20606 0.07879 0.0
C1120 C 0.71944 0.22979 0.09289 0.0
C1121 C 0.68977 0.22216 0.09868 0.0
C1122 C 0.54774 0.13156 0.07532 0.0
C1123 C 0.61144 0.0904 1.01009 0.0
O1124 O 0.53521 0.03857 0.03662 0.0
O1125 O 0.56131 1.02212 0.07866 0.0
O1126 O 0.61609 0.04855 0.05481 0.0
O1127 O 0.62409 0.08345 0.09999 0.0
O1128 O 0.55825 0.08679 0.12105 0.0
O1129 O 0.59876 0.12475 0.14319 0.0
O1130 O 0.64527 0.16326 0.12159 0.0
O1131 O 0.62387 0.17365 0.07302 0.0
O1132 O 0.56655 0.14846 0.10093 0.0
O1133 O 0.56104 0.11411 0.0557 0.0
O1134 O 0.62662 0.11095 0.03708 0.0
O1135 O 0.58562 0.07426 1.01374 0.0
H1136 H 0.51962 1.022 0.1181 0.0
H1137 H 0.47128 0.99825 0.13118 0.0
H1138 H 0.44376 0.95581 0.02295 0.0
H1139 H 0.49246 0.97855 1.01035 0.0
H1140 H 0.67948 0.14315 0.06809 0.0
H1141 H 0.73143 0.15646 0.05778 0.0
H1142 H 0.73083 0.25385 0.10104 0.0
H1143 H 0.67837 0.24037 0.11078 0.0
Nd1144 Nd 0.31726 0.32185 0.31334 0.0
Nd1145 Nd 0.3629 0.36708 0.34764 0.0
C1146 C 0.27009 0.27954 0.28617 0.0
C1147 C 0.24355 0.28086 0.30489 0.0
C1148 C 0.22561 0.30432 0.30043 0.0
C1149 C 0.21611 0.32129 0.32906 0.0
C1150 C 0.22413 0.31484 0.36249 0.0
C1151 C 0.23519 0.28655 0.36499 0.0
C1152 C 0.24451 0.26942 0.33621 0.0
C1153 C 0.31969 0.32388 0.38392 0.0
C1154 C 0.29703 0.38903 0.33875 0.0
C1155 C 0.40997 0.40955 0.37478 0.0
C1156 C 0.43625 0.4089 0.3556 0.0
C1157 C 0.45419 0.3852 0.35867 0.0
C1158 C 0.46338 0.36913 0.32928 0.0
C1159 C 0.45511 0.37678 0.29649 0.0
C1160 C 0.44409 0.40534 0.29554 0.0
C1161 C 0.43498 0.42149 0.32501 0.0
C1162 C 0.35851 0.36685 0.27701 0.0
C1163 C 0.38444 0.301 0.32451 0.0
O1164 O 0.27745 0.3036 0.27155 0.0
O1165 O 0.29402 0.27217 0.30345 0.0
O1166 O 0.29684 0.32903 0.3637 0.0
O1167 O 0.34214 0.32497 0.36803 0.0
O1168 O 0.29125 0.3644 0.31334 0.0
O1169 O 0.32226 0.39231 0.3613 0.0
O1170 O 0.40313 0.38506 0.38888 0.0
O1171 O 0.38572 0.41695 0.35816 0.0
O1172 O 0.38192 0.36118 0.29602 0.0
O1173 O 0.33671 0.36432 0.29366 0.0
O1174 O 0.38927 0.32587 0.34929 0.0
O1175 O 0.35915 0.29652 0.30158 0.0
H1176 H 0.22296 0.31285 0.27622 0.0
H1177 H 0.20523 0.34141 0.32543 0.0
H1178 H 0.24004 0.27949 0.38974 0.0
H1179 H 0.25688 0.25036 0.34024 0.0
H1180 H 0.45709 0.3758 0.38232 0.0
H1181 H 0.47429 0.34883 0.33185 0.0
H1182 H 0.43915 0.41346 0.27146 0.0
H1183 H 0.42254 0.44071 0.32205 0.0
Nd1184 Nd 0.59726 0.62095 0.10519 0.0
Nd1185 Nd 0.59859 0.55997 0.07708 0.0
C1186 C 0.59106 0.68014 0.12493 0.0
C1187 C 0.60222 0.70653 0.10905 0.0
C1188 C 0.61121 0.73686 0.12872 0.0
C1189 C 0.62631 0.76055 0.11444 0.0
C1190 C 0.63303 0.75405 0.08047 0.0
C1191 C 0.62363 0.72354 0.06098 0.0
C1192 C 0.60823 0.70018 0.07502 0.0
C1193 C 0.64617 0.61597 0.06915 0.0
C1194 C 0.55653 0.59405 0.02811 0.0
C1195 C 0.60967 0.50262 0.05574 0.0
C1196 C 0.60154 0.47347 0.06835 0.0
C1197 C 0.59768 0.44454 0.04573 0.0
C1198 C 0.58423 0.41731 0.05538 0.0
C1199 C 0.57439 0.41871 0.08777 0.0
C1200 C 0.57972 0.44755 0.11104 0.0
C1201 C 0.59305 0.47476 0.10132 0.0
C1202 C 0.55015 0.56335 0.11346 0.0
C1203 C 0.63488 0.58587 0.15665 0.0
O1204 O 0.56935 0.65923 0.10571 0.0
O1205 O 0.61253 0.66731 0.13972 0.0
O1206 O 0.64759 0.6322 0.0997 0.0
O1207 O 0.61938 0.60245 0.05833 0.0
O1208 O 0.55682 0.61212 0.05851 0.0
O1209 O 0.57612 0.57409 0.02662 0.0
O1210 O 0.62957 0.52439 0.07652 0.0
O1211 O 0.58648 0.51374 0.04199 0.0
O1212 O 0.54898 0.54547 0.08382 0.0
O1213 O 0.57639 0.57853 0.12369 0.0
O1214 O 0.63682 0.56854 0.12647 0.0
O1215 O 0.61505 0.60555 0.15656 0.0
H1216 H 0.60716 0.74202 0.15525 0.0
H1217 H 0.63264 0.7839 0.13002 0.0
H1218 H 0.62875 0.71735 0.03503 0.0
H1219 H 0.60193 0.67671 0.05963 0.0
H1220 H 0.60379 0.44324 0.02005 0.0
H1221 H 0.58069 0.3953 0.0371 0.0
H1222 H 0.57208 0.44941 0.13598 0.0
H1223 H 0.59534 0.49706 0.11888 0.0
Nd1224 Nd 0.86545 0.35265 0.36851 0.0
Nd1225 Nd 0.82182 0.32603 0.32141 0.0
C1226 C 0.91167 0.39096 0.408 0.0
C1227 C 0.94402 0.39683 0.4216 0.0
C1228 C 0.96616 0.39722 0.39987 0.0
C1229 C 0.9968 0.4033 0.41424 0.0
C1230 C 1.00558 0.40886 0.45041 0.0
C1231 C 0.98321 0.40866 0.47194 0.0
C1232 C 0.95272 0.40291 0.45762 0.0
C1233 C 0.8168 0.3414 0.40359 0.0
C1234 C 0.87031 0.27635 0.34706 0.0
C1235 C 0.77505 0.28826 0.28138 0.0
C1236 C 0.74255 0.28376 0.26875 0.0
C1237 C 0.72515 0.30725 0.27761 0.0
C1238 C 0.69458 0.30314 0.263 0.0
C1239 C 0.68117 0.27555 0.23929 0.0
C1240 C 0.69878 0.25204 0.23079 0.0
C1241 C 0.72926 0.25615 0.24546 0.0
C1242 C 0.87142 0.33643 0.2867 0.0
C1243 C 0.81712 0.40299 0.3458 0.0
O1244 O 0.90289 0.39262 0.37557 0.0
O1245 O 0.89535 0.36863 0.41872 0.0
O1246 O 0.84268 0.33197 0.41056 0.0
O1247 O 0.81564 0.35112 0.37502 0.0
O1248 O 0.88671 0.30421 0.36189 0.0
O1249 O 0.84189 0.27848 0.33329 0.0
O1250 O 0.78372 0.28636 0.31369 0.0
O1251 O 0.79167 0.31064 0.27113 0.0
O1252 O 0.84567 0.34596 0.27922 0.0
O1253 O 0.87163 0.32659 0.31512 0.0
O1254 O 0.80141 0.37547 0.32835 0.0
O1255 O 0.84495 0.40052 0.36068 0.0
H1256 H 0.95985 0.39282 0.37196 0.0
H1257 H 1.01355 0.40368 0.39704 0.0
H1258 H 0.98918 0.41233 0.49985 0.0
H1259 H 0.93584 0.40295 0.47475 0.0
H1260 H 0.73531 0.32886 0.29531 0.0
H1261 H 0.68161 0.3218 0.26973 0.0
H1262 H 0.68897 0.23041 0.21297 0.0
H1263 H 0.74259 0.23791 0.23827 0.0
Nd1264 Nd 0.07751 0.57266 0.57782 0.0
Nd1265 Nd 0.10519 0.63304 0.58803 0.0
C1266 C 0.04417 0.51659 0.55956 0.0
C1267 C 1.0145 0.50443 0.56685 0.0
C1268 C 0.99385 0.52507 0.57363 0.0
C1269 C 0.96551 0.51384 0.58069 0.0
C1270 C 0.95727 0.48177 0.58097 0.0
C1271 C 0.97849 0.46133 0.57541 0.0
C1272 C 1.00711 0.47272 0.56873 0.0
C1273 C 0.13834 0.57535 0.60401 0.0
C1274 C 0.07253 0.61423 0.65172 0.0
C1275 C 0.14013 0.68797 0.60556 0.0
C1276 C 0.17153 0.69525 0.60063 0.0
C1277 C 0.18793 0.67047 0.59354 0.0
C1278 C 0.21803 0.6766 0.58909 0.0
C1279 C 0.23228 0.70767 0.59196 0.0
C1280 C 0.21542 0.73241 0.59779 0.0
C1281 C 0.18502 0.72614 0.60175 0.0
C1282 C 0.04339 0.63043 0.56552 0.0
C1283 C 0.11143 0.59174 0.51507 0.0
O1284 O 0.04427 0.53776 0.53978 0.0
O1285 O 0.06557 0.52409 0.58646 0.0
O1286 O 0.11588 0.56236 0.61664 0.0
O1287 O 0.12804 0.58966 0.58101 0.0
O1288 O 0.05738 0.59136 0.62693 0.0
O1289 O 0.09668 0.63118 0.64472 0.0
O1290 O 0.13583 0.66914 0.62751 0.0
O1291 O 0.12068 0.67998 0.57686 0.0
O1292 O 0.06487 0.64451 0.5522 0.0
O1293 O 0.05517 0.61549 0.58678 0.0
O1294 O 0.12662 0.6138 0.54047 0.0
O1295 O 0.08632 0.57585 0.52116 0.0
H1296 H 0.99959 0.5499 0.57334 0.0
H1297 H 0.94995 0.53029 0.58532 0.0
H1298 H 0.97308 0.43666 0.57645 0.0
H1299 H 1.02342 0.45684 0.5652 0.0
H1300 H 0.17747 0.64632 0.59167 0.0
H1301 H 0.23019 0.65702 0.58367 0.0
H1302 H 0.22587 0.75661 0.60019 0.0
H1303 H 0.1722 0.74532 0.60596 0.0
Nd1304 Nd 0.85403 0.84762 0.37772 0.0
Nd1305 Nd 0.83142 0.83164 0.32545 0.0
C1306 C 0.86761 0.86834 0.44534 0.0
C1307 C 0.86903 0.90024 0.46518 0.0
C1308 C 0.84478 0.91711 0.46016 0.0
C1309 C 0.84659 0.94755 0.47864 0.0
C1310 C 0.87285 0.96188 0.50198 0.0
C1311 C 0.89751 0.94541 0.50597 0.0
C1312 C 0.89555 0.91481 0.4878 0.0
C1313 C 0.872 0.90276 0.34824 0.0
C1314 C 0.78051 0.85575 0.3639 0.0
C1315 C 0.82011 0.81617 0.25728 0.0
C1316 C 0.83372 0.79523 0.23342 0.0
C1317 C 0.83763 0.80289 0.20135 0.0
C1318 C 0.85091 0.78347 0.17841 0.0
C1319 C 0.86041 0.75595 0.18718 0.0
C1320 C 0.85781 0.74916 0.22013 0.0
C1321 C 0.84473 0.76887 0.24329 0.0
C1322 C 0.81425 0.77654 0.35575 0.0
C1323 C 0.90382 0.82189 0.33617 0.0
O1324 O 0.84091 0.85381 0.43013 0.0
O1325 O 0.88808 0.8649 0.42545 0.0
O1326 O 0.88932 0.88719 0.36495 0.0
O1327 O 0.84494 0.8867 0.34435 0.0
O1328 O 0.80237 0.85071 0.38727 0.0
O1329 O 0.78799 0.85408 0.33298 0.0
O1330 O 0.83842 0.84119 0.27375 0.0
O1331 O 0.80376 0.80312 0.27729 0.0
O1332 O 0.79635 0.79235 0.33979 0.0
O1333 O 0.84126 0.79264 0.35905 0.0
O1334 O 0.88074 0.82478 0.3134 0.0
O1335 O 0.89827 0.82586 0.36819 0.0
H1336 H 0.82427 0.90677 0.44219 0.0
H1337 H 0.82731 0.95974 0.4751 0.0
H1338 H 0.91782 0.95563 0.52433 0.0
H1339 H 0.91466 0.90241 0.49166 0.0
H1340 H 0.82984 0.82354 0.19377 0.0
H1341 H 0.85193 0.78904 0.15291 0.0
H1342 H 0.86478 0.72805 0.22738 0.0
H1343 H 0.84268 0.76322 0.26856 0.0
Nd1344 Nd 0.85733 0.36371 0.86395 0.0
Nd1345 Nd 0.84581 0.3089 0.82686 0.0
C1346 C 0.86516 0.41982 0.90326 0.0
C1347 C 0.87965 0.44861 0.89359 0.0
C1348 C 0.87146 0.45468 0.86016 0.0
C1349 C 0.88929 0.47754 0.8478 0.0
C1350 C 0.91557 0.49531 0.86872 0.0
C1351 C 0.92341 0.48954 0.90249 0.0
C1352 C 0.9056 0.46645 0.91477 0.0
C1353 C 0.91445 0.35134 0.84595 0.0
C1354 C 0.84023 0.36434 0.78288 0.0
C1355 C 0.84074 0.25413 0.7845 0.0
C1356 C 0.81559 0.22856 0.77089 0.0
C1357 C 0.82179 0.19781 0.76722 0.0
C1358 C 0.79887 0.17316 0.7673 0.0
C1359 C 0.76927 0.17889 0.77081 0.0
C1360 C 0.76249 0.20933 0.7702 0.0
C1361 C 0.7856 0.23411 0.77064 0.0
C1362 C 0.78817 0.32245 0.84237 0.0
C1363 C 0.86627 0.30971 0.90728 0.0
O1364 O 0.83904 0.4065 0.88502 0.0
O1365 O 0.88324 0.39957 0.90796 0.0
O1366 O 0.90263 0.37645 0.84297 0.0
O1367 O 0.89418 0.33199 0.85443 0.0
O1368 O 0.84096 0.38098 0.81375 0.0
O1369 O 0.84731 0.33592 0.78102 0.0
O1370 O 0.84829 0.2583 0.81792 0.0
O1371 O 0.83989 0.28054 0.7735 0.0
O1372 O 0.79916 0.29707 0.84621 0.0
O1373 O 0.80916 0.34101 0.83404 0.0
O1374 O 0.86971 0.2959 0.87643 0.0
O1375 O 0.85413 0.33558 0.90895 0.0
H1376 H 0.85187 0.44096 0.84289 0.0
H1377 H 0.88269 0.48067 0.82148 0.0
H1378 H 0.94305 0.50311 0.9198 0.0
H1379 H 0.91268 0.46179 0.94039 0.0
H1380 H 0.84491 0.19323 0.76782 0.0
H1381 H 0.80523 0.15022 0.76781 0.0
H1382 H 0.73979 0.21445 0.77176 0.0
H1383 H 0.78048 0.25785 0.77373 0.0
Nd1384 Nd 0.82012 0.82527 0.81061 0.0
Nd1385 Nd 0.86055 0.86747 0.86172 0.0
C1386 C 0.77769 0.78839 0.76571 0.0
C1387 C 0.74644 0.7907 0.7732 0.0
C1388 C 0.73398 0.81717 0.76601 0.0
C1389 C 0.72118 0.83487 0.79133 0.0
C1390 C 0.71952 0.82563 0.82359 0.0
C1391 C 0.72412 0.79476 0.82609 0.0
C1392 C 0.73711 0.77718 0.80074 0.0
C1393 C 0.81066 0.81611 0.87628 0.0
C1394 C 0.79552 0.88941 0.84127 0.0
C1395 C 0.90288 0.90282 0.90804 0.0
C1396 C 0.93425 0.89856 0.90257 0.0
C1397 C 0.94478 0.87127 0.91042 0.0
C1398 C 0.95989 0.85393 0.88724 0.0
C1399 C 0.96529 0.86399 0.85632 0.0
C1400 C 0.96147 0.8949 0.85336 0.0
C1401 C 0.94645 0.91231 0.87665 0.0
C1402 C 0.87001 0.87639 0.79614 0.0
C1403 C 0.88593 0.80432 0.83177 0.0
O1404 O 0.7923 0.81359 0.75789 0.0
O1405 O 0.79477 0.77724 0.78851 0.0
O1406 O 0.7903 0.82175 0.85307 0.0
O1407 O 0.8359 0.82017 0.86603 0.0
O1408 O 0.79391 0.86784 0.81323 0.0
O1409 O 0.81723 0.89059 0.86773 0.0
O1410 O 0.88638 0.87857 0.91547 0.0
O1411 O 0.88778 0.91454 0.88408 0.0
O1412 O 0.8908 0.87214 0.81987 0.0
O1413 O 0.84467 0.8721 0.80603 0.0
O1414 O 0.88648 0.82557 0.85961 0.0
O1415 O 0.86437 0.80252 0.80485 0.0
H1416 H 0.73904 0.82739 0.74391 0.0
H1417 H 0.71595 0.85729 0.7866 0.0
H1418 H 0.72065 0.78532 0.84909 0.0
H1419 H 0.74463 0.75568 0.80609 0.0
H1420 H 0.93719 0.86065 0.93125 0.0
H1421 H 0.96444 0.83132 0.89214 0.0
H1422 H 0.96786 0.90471 0.83153 0.0
H1423 H 0.94025 0.93421 0.87087 0.0
Nd1424 Nd 0.61794 0.61255 0.6054 0.0
Nd1425 Nd 0.58018 0.56186 0.59181 0.0
C1426 C 0.65354 0.66775 0.61989 0.0
C1427 C 0.64972 0.69321 0.59971 0.0
C1428 C 0.62112 0.70249 0.59259 0.0
C1429 C 0.61538 0.72081 0.56735 0.0
C1430 C 0.63825 0.73088 0.54896 0.0
C1431 C 0.66733 0.72302 0.55725 0.0
C1432 C 0.67292 0.70416 0.58212 0.0
C1433 C 0.62356 0.58889 0.53553 0.0
C1434 C 0.54997 0.62391 0.58038 0.0
C1435 C 0.54561 0.50613 0.57847 0.0
C1436 C 0.55055 0.48119 0.5994 0.0
C1437 C 0.57922 0.47183 0.60526 0.0
C1438 C 0.58618 0.45409 0.63083 0.0
C1439 C 0.5645 0.44423 0.65104 0.0
C1440 C 0.53517 0.45217 0.64365 0.0
C1441 C 0.52846 0.47063 0.61856 0.0
C1442 C 0.57503 0.58606 0.66178 0.0
C1443 C 0.64784 0.55113 0.61918 0.0
O1444 O 0.63249 0.66041 0.63807 0.0
O1445 O 0.66123 0.6428 0.60288 0.0
O1446 O 0.61558 0.61578 0.54653 0.0
O1447 O 0.62065 0.57273 0.55978 0.0
O1448 O 0.57623 0.63721 0.59837 0.0
O1449 O 0.54681 0.5933 0.56788 0.0
O1450 O 0.56615 0.51367 0.55968 0.0
O1451 O 0.53732 0.53103 0.59492 0.0
O1452 O 0.58238 0.55893 0.65069 0.0
O1453 O 0.57756 0.60173 0.63717 0.0
O1454 O 0.62149 0.5372 0.60206 0.0
O1455 O 0.65143 0.58197 0.62954 0.0
H1456 H 0.60274 0.69474 0.60566 0.0
H1457 H 0.59295 0.72704 0.56215 0.0
H1458 H 0.68548 0.73055 0.54362 0.0
H1459 H 0.69504 0.69707 0.58662 0.0
H1460 H 0.59688 0.4792 0.59097 0.0
H1461 H 0.60906 0.44903 0.63522 0.0
H1462 H 0.5172 0.44441 0.65731 0.0
H1463 H 0.50618 0.47747 0.61488 0.0
Nd1464 Nd 0.1169 0.6052 0.08764 0.0
Nd1465 Nd 0.06055 0.58335 0.08091 0.0
C1466 C 0.17546 0.62187 0.08599 0.0
C1467 C 0.20243 0.61416 0.10615 0.0
C1468 C 0.22923 0.63591 0.11534 0.0
C1469 C 0.25397 0.62954 0.13695 0.0
C1470 C 0.25217 0.60152 0.15043 0.0
C1471 C 0.22507 0.57985 0.14096 0.0
C1472 C 0.2007 0.58594 0.11872 0.0
C1473 C 0.1101 0.57215 0.14236 0.0
C1474 C 0.0947 0.5389 0.03621 0.0
C1475 C 1.00122 0.56884 0.08004 0.0
C1476 C 0.97578 0.57858 0.05925 0.0
C1477 C 0.94572 0.5653 0.05914 0.0
C1478 C 0.92186 0.57496 0.03915 0.0
C1479 C 0.92769 0.59802 0.01878 0.0
C1480 C 0.95807 0.611 0.01898 0.0
C1481 C 0.98174 0.60139 0.03898 0.0
C1482 C 0.06922 0.61609 0.02642 0.0
C1483 C 0.08411 0.64786 0.13583 0.0
O1484 O 0.1583 0.59864 0.0642 0.0
O1485 O 0.15965 0.6394 0.1038 0.0
O1486 O 0.1257 0.59948 0.14458 0.0
O1487 O 0.09726 0.56246 0.11117 0.0
O1488 O 0.1109 0.56659 0.03792 0.0
O1489 O 0.07515 0.53694 0.05785 0.0
O1490 O 1.01861 0.59123 0.10268 0.0
O1491 O 1.01692 0.55079 0.06266 0.0
O1492 O 0.05527 0.58788 0.02308 0.0
O1493 O 0.07987 0.62611 0.05816 0.0
O1494 O 0.06729 0.62019 0.13238 0.0
O1495 O 0.10316 0.65082 0.11388 0.0
H1496 H 0.23099 0.65787 0.10593 0.0
H1497 H 0.27459 0.64652 0.14262 0.0
H1498 H 0.22239 0.55824 0.15097 0.0
H1499 H 0.18017 0.56879 0.11177 0.0
H1500 H 0.94068 0.54767 0.07469 0.0
H1501 H 0.89884 0.56482 0.04033 0.0
H1502 H 0.96375 0.62836 1.00334 0.0
H1503 H 1.00482 0.61184 0.03872 0.0
C1504 C 0.14566 0.29725 0.99852 0.0
C1505 C 0.1186 0.28979 0.97453 0.0
H1506 H 0.17379 0.28424 0.0401 0.0
C1507 C 0.09947 0.26139 0.97326 0.0
H1508 H 0.1608 0.31907 1.00016 0.0
C1509 C 0.10664 0.24167 0.99684 0.0
C1510 C 0.13338 0.24969 0.02153 0.0
H1511 H 0.07832 0.25526 0.95534 0.0
H1512 H 0.09106 0.22037 0.99614 0.0
C1513 C 0.15314 0.27731 0.02142 0.0
C1514 C 0.19806 0.81133 0.34526 0.0
C1515 C 0.18543 0.81946 0.3138 0.0
H1516 H 0.23809 0.80464 0.37865 0.0
C1517 C 0.20696 0.82912 0.29295 0.0
H1518 H 0.183 0.80334 0.36225 0.0
C1519 C 0.23902 0.83099 0.30309 0.0
C1520 C 0.25161 0.82211 0.3341 0.0
H1521 H 0.19896 0.83544 0.26844 0.0
H1522 H 0.25404 0.83858 0.28585 0.0
C1523 C 0.2301 0.81202 0.35475 0.0
C1524 C 0.6088 0.9866 0.4519 0.0
C1525 C 0.5995 0.95622 0.45804 0.0
H1526 H 0.61425 0.03653 0.47091 0.0
C1527 C 0.58762 0.9537 0.48887 0.0
H1528 H 0.61789 0.98956 0.42848 0.0
C1529 C 0.58491 0.98037 0.5126 0.0
C1530 C 0.59455 1.01068 0.50687 0.0
H1531 H 0.57979 0.93087 0.49455 0.0
H1532 H 0.57543 0.97717 0.53573 0.0
C1533 C 0.60675 1.01351 0.47628 0.0
C1534 C 0.49336 0.31806 0.83573 0.0
C1535 C 0.49468 0.30688 0.8002 0.0
H1536 H 0.4655 0.33099 0.87527 0.0
C1537 C 0.46583 0.2994 0.77846 0.0
H1538 H 0.51425 0.32435 0.85403 0.0
C1539 C 0.43805 0.30336 0.79058 0.0
C1540 C 0.43641 0.31498 0.82551 0.0
H1541 H 0.46431 0.29038 0.75105 0.0
H1542 H 0.41745 0.29706 0.77203 0.0
C1543 C 0.46495 0.32191 0.84804 0.0
C1544 C 0.08455 0.88375 0.68514 0.0
C1545 C 0.06201 0.85813 0.66919 0.0
H1546 H 0.11193 0.92591 0.67959 0.0
C1547 C 0.04842 0.85688 0.63479 0.0
H1548 H 0.09566 0.88547 0.71151 0.0
C1549 C 0.05787 0.8801 0.61646 0.0
C1550 C 0.08102 0.90516 0.63213 0.0
H1551 H 1.03104 0.83749 0.6216 0.0
H1552 H 0.04706 0.87842 0.58998 0.0
C1553 C 0.09395 0.90695 0.66682 0.0
C1554 C 0.57667 0.93046 1.0141 0.0
C1555 C 0.59505 0.91307 0.9955 0.0
H1556 H 0.53179 0.9406 1.01596 0.0
C1557 C 0.58212 0.88883 0.96773 0.0
H1558 H 0.58655 0.94886 0.03608 0.0
C1559 C 0.55108 0.88317 0.95709 0.0
C1560 C 0.5325 0.90225 0.9735 0.0
H1561 H 0.59614 0.87445 0.95394 0.0
H1562 H 0.54181 0.86417 0.93554 0.0
C1563 C 0.54545 0.92548 1.00272 0.0
C1564 C 0.49751 0.18797 0.06861 0.0
C1565 C 0.48201 0.1824 0.09614 0.0
H1566 H 0.52994 0.17326 0.03722 0.0
C1567 C 0.47961 0.15235 0.10471 0.0
H1568 H 0.50097 0.21108 0.06216 0.0
C1569 C 0.49706 0.13069 0.09069 0.0
C1570 C 0.51701 0.13896 0.0681 0.0
H1571 H 0.46794 0.14736 0.12587 0.0
H1572 H 0.49874 0.10989 0.10193 0.0
C1573 C 0.51446 0.1661 0.05423 0.0
C1574 C 0.23389 0.39552 0.42005 0.0
C1575 C 0.22756 0.38848 0.45182 0.0
H1576 H 0.23625 0.37818 0.3674 0.0
C1577 C 0.2229 0.35663 0.45524 0.0
H1578 H 0.23724 0.41965 0.41634 0.0
C1579 C 0.22196 0.33254 0.42665 0.0
C1580 C 0.22563 0.33973 0.39396 0.0
H1581 H 0.21747 0.35016 0.47918 0.0
H1582 H 0.21688 0.3084 0.4299 0.0
C1583 C 0.23261 0.37157 0.39163 0.0
C1584 C 0.99971 0.08362 0.20358 0.0
C1585 C 1.00931 0.09199 0.24016 0.0
H1586 H 1.01149 0.07592 0.15149 0.0
C1587 C 0.04152 0.0998 0.24965 0.0
H1588 H 0.97569 0.07713 0.19386 0.0
C1589 C 0.06241 0.09893 0.22494 0.0
C1590 C 0.05293 0.09079 0.18847 0.0
H1591 H 0.051 0.10624 0.27688 0.0
H1592 H 0.08648 0.10447 0.23475 0.0
C1593 C 1.02071 0.08309 0.17874 0.0
C1594 C 0.39435 0.7518 0.46376 0.0
C1595 C 0.39657 0.76791 0.49814 0.0
H1596 H 0.38194 0.75105 0.40955 0.0
C1597 C 0.38783 0.79802 0.50281 0.0
H1598 H 0.40035 0.72846 0.45877 0.0
C1599 C 0.37654 0.81102 0.47404 0.0
C1600 C 0.37374 0.79434 0.43973 0.0
H1601 H 0.38839 0.81094 0.52873 0.0
H1602 H 0.36974 0.83399 0.47871 0.0
C1603 C 0.38336 0.76474 0.43529 0.0
C1604 C 0.60763 1.02614 0.71496 0.0
C1605 C 0.63851 1.02262 0.72114 0.0
H1606 H 0.57276 0.04363 0.68396 0.0
C1607 C 0.65678 0.03093 0.69674 0.0
H1608 H 0.59287 1.02063 0.73331 0.0
C1609 C 0.64529 0.04423 0.66871 0.0
C1610 C 0.61497 0.0494 0.66363 0.0
H1611 H 0.68068 0.02902 0.70047 0.0
H1612 H 0.66069 0.05208 0.65195 0.0
C1613 C 0.59604 0.0394 0.68661 0.0
C1614 C 0.34868 0.49233 0.09487 0.0
C1615 C 0.36656 0.48723 0.12467 0.0
H1616 H 0.32778 0.47336 0.04255 0.0
C1617 C 0.37323 0.45692 0.12601 0.0
H1618 H 0.34268 0.5153 0.09326 0.0
C1619 C 0.36491 0.4331 0.09701 0.0
C1620 C 0.34959 0.43901 0.0661 0.0
H1621 H 0.38687 0.45195 0.14843 0.0
H1622 H 0.37273 0.41085 0.09811 0.0
C1623 C 0.34021 0.46837 0.06582 0.0
C1624 C 1.01962 0.08836 0.4305 0.0
C1625 C 0.99123 0.09838 0.43319 0.0
H1626 H 0.0614 0.07799 0.45645 0.0
C1627 C 0.98474 0.10668 0.4672 0.0
H1628 H 1.02578 0.08134 0.40519 0.0
C1629 C 1.00565 0.10521 0.49693 0.0
C1630 C 1.03373 0.09457 0.49413 0.0
H1631 H 0.9633 0.11428 0.47095 0.0
H1632 H 0.99944 0.11187 0.52229 0.0
C1633 C 0.0402 0.08619 0.46019 0.0
C1634 C 0.40798 0.82393 0.70497 0.0
C1635 C 0.41524 0.7932 0.70224 0.0
H1636 H 0.38948 0.86124 0.73407 0.0
C1637 C 0.41152 0.77818 0.73071 0.0
H1638 H 0.40974 0.83625 0.68359 0.0
C1639 C 0.40062 0.79297 0.76028 0.0
C1640 C 0.39192 0.82306 0.76225 0.0
H1641 H 0.41624 0.75442 0.72973 0.0
H1642 H 0.39746 0.77998 0.78088 0.0
C1643 C 0.39613 0.83833 0.73407 0.0
C1644 C 0.67334 0.08114 0.9534 0.0
C1645 C 0.65868 0.0594 0.92349 0.0
H1646 H 0.67006 0.10917 1.00199 0.0
C1647 C 0.6274 0.04873 0.92175 0.0
H1648 H 0.69727 0.09023 0.95633 0.0
C1649 C 0.61171 0.05918 0.94918 0.0
C1650 C 0.62662 0.08104 0.97892 0.0
H1651 H 0.61504 0.03221 0.8993 0.0
H1652 H 0.58785 0.05011 0.94704 0.0
C1653 C 0.65758 0.09215 0.98005 0.0
C1654 C 0.3646 0.45169 0.26794 0.0
C1655 C 0.38272 0.45331 0.24197 0.0
H1656 H 0.34175 0.42304 0.29807 0.0
C1657 C 0.38968 0.42524 0.22398 0.0
H1658 H 0.35861 0.47285 0.28201 0.0
C1659 C 0.38047 0.39629 0.23377 0.0
C1660 C 0.36328 0.39503 0.26079 0.0
H1661 H 0.40371 0.42589 0.20386 0.0
H1662 H 0.38781 0.37525 0.22132 0.0
C1663 C 0.35466 0.42297 0.27687 0.0
C1664 C 0.19049 0.97821 0.11315 0.0
C1665 C 0.21781 0.98997 0.10266 0.0
H1666 H 0.14697 0.9875 0.12604 0.0
C1667 C 0.22254 1.02241 0.10104 0.0
H1668 H 0.18563 0.95361 0.11472 0.0
C1669 C 0.20114 0.04214 0.10921 0.0
C1670 C 0.17338 0.03023 0.1182 0.0
H1671 H 0.24285 0.03285 0.0928 0.0
H1672 H 0.20564 0.06647 0.10638 0.0
C1673 C 0.16838 0.99785 0.12001 0.0
C1674 C 0.69021 0.66705 0.01914 0.0
C1675 C 0.71546 0.6519 1.01553 0.0
H1676 H 0.64766 0.66644 0.03774 0.0
C1677 C 0.71588 0.62267 0.02588 0.0
H1678 H 0.68962 0.68984 1.01193 0.0
C1679 C 0.69209 0.60959 0.04118 0.0
C1680 C 0.66755 0.62555 0.04625 0.0
H1681 H 0.73553 0.61098 0.02428 0.0
H1682 H 0.69371 0.58799 0.05082 0.0
C1683 C 0.66631 0.65378 0.03402 0.0
C1684 C 0.76335 0.47103 0.33911 0.0
C1685 C 0.77839 0.49842 0.36373 0.0
H1686 H 0.76179 0.42198 0.31438 0.0
C1687 C 0.80649 0.4928 0.38158 0.0
H1688 H 0.74188 0.47242 0.324 0.0
C1689 C 0.81844 0.4633 0.37553 0.0
C1690 C 0.80351 0.43588 0.35117 0.0
H1691 H 0.81997 0.51178 0.4008 0.0
H1692 H 0.83993 0.46206 0.39072 0.0
C1693 C 0.77519 0.44119 0.33337 0.0
C1694 C 0.88084 0.47815 0.6104 0.0
C1695 C 0.86534 0.45013 0.5896 0.0
H1696 H 0.92264 0.50976 0.62485 0.0
C1697 C 0.88061 0.43102 0.5683 0.0
H1698 H 0.86947 0.49249 0.62796 0.0
C1699 C 0.91079 0.44103 0.56592 0.0
C1700 C 0.92623 0.46979 0.58574 0.0
H1701 H 0.86888 0.40895 0.55264 0.0
H1702 H 0.92166 0.42673 0.54779 0.0
C1703 C 0.91115 0.4879 0.6086 0.0
C1704 C 0.42709 0.23088 0.3006 0.0
C1705 C 0.44889 0.23384 0.33064 0.0
H1706 H 0.38942 0.24879 0.27491 0.0
C1707 C 0.45017 0.26 0.35702 0.0
H1708 H 0.42464 0.21055 0.28011 0.0
C1709 C 0.43016 0.28196 0.35399 0.0
C1710 C 0.40718 0.27823 0.3249 0.0
H1711 H 0.46578 0.26267 0.38098 0.0
H1712 H 0.43192 0.30127 0.37552 0.0
C1713 C 0.40643 0.25258 0.29784 0.0
C1714 C 0.34658 0.10458 0.46826 0.0
C1715 C 0.34912 0.13664 0.46661 0.0
H1716 H 0.36819 0.0679 0.48541 0.0
C1717 C 0.37758 0.15568 0.4778 0.0
H1718 H 0.32507 0.08919 0.45984 0.0
C1719 C 0.40215 0.14372 0.49311 0.0
C1720 C 0.39912 0.1122 0.49742 0.0
H1721 H 0.38035 0.18053 0.47695 0.0
H1722 H 0.42295 0.15988 0.50339 0.0
C1723 C 0.37124 0.09254 0.48369 0.0
C1724 C 0.75833 0.7021 0.3701 0.0
C1725 C 0.7748 0.67645 0.37174 0.0
H1726 H 0.75634 0.75033 0.36432 0.0
C1727 C 0.80611 0.6851 0.36861 0.0
H1728 H 0.73431 0.69811 0.37142 0.0
C1729 C 0.81952 0.71668 0.3651 0.0
C1730 C 0.80249 0.74208 0.36312 0.0
H1731 H 0.82035 0.66707 0.36742 0.0
H1732 H 0.84328 0.72071 0.36256 0.0
C1733 C 0.77136 0.73305 0.36583 0.0
C1734 C 0.98026 0.55806 0.86234 0.0
C1735 C 0.96458 0.57721 0.84384 0.0
H1736 H 0.97722 0.51643 0.88415 0.0
C1737 C 0.9345 0.56652 0.82812 0.0
H1738 H 1.00392 0.5655 0.87359 0.0
C1739 C 0.91899 0.53884 0.83449 0.0
C1740 C 0.93356 0.52111 0.85633 0.0
H1741 H 0.92247 0.58046 0.81246 0.0
H1742 H 0.89504 0.53286 0.82434 0.0
C1743 C 0.96485 0.53017 0.86859 0.0
C1744 C 0.09996 0.89653 0.21136 0.0
C1745 C 0.07748 0.8874 0.23074 0.0
H1746 H 0.11271 0.92328 0.1733 0.0
C1747 C 0.0513 0.90174 0.22883 0.0
H1748 H 0.11989 0.88511 0.21127 0.0
C1749 C 0.04666 0.92293 0.20637 0.0
C1750 C 0.06803 0.93031 0.18484 0.0
H1751 H 1.03306 0.89436 0.24243 0.0
H1752 H 1.02523 0.93166 0.20415 0.0
C1753 C 0.09535 0.91777 0.18878 0.0
C1754 C 0.99666 0.3769 0.8983 0.0
C1755 C 1.01493 0.3576 0.88078 0.0
H1756 H 0.95262 0.391 0.9011 0.0
C1757 C 0.9992 0.33559 0.85131 0.0
H1758 H 1.00702 0.39361 0.92155 0.0
C1759 C 0.96715 0.33331 0.84005 0.0
C1760 C 0.94912 0.3531 0.85745 0.0
H1761 H 1.01154 0.31941 0.83736 0.0
H1762 H 0.95645 0.31589 0.81754 0.0
C1763 C 0.96499 0.37522 0.88658 0.0
C1764 C 0.59918 0.22803 0.69268 0.0
C1765 C 0.58161 0.22427 0.71895 0.0
H1766 H 0.61311 0.20722 0.64571 0.0
C1767 C 0.56562 0.19425 0.71846 0.0
H1768 H 0.6121 0.25074 0.69256 0.0
C1769 C 0.56578 0.16911 0.691 0.0
C1770 C 0.58248 0.17331 0.66389 0.0
H1771 H 0.55209 0.19053 0.73847 0.0
H1772 H 0.55255 0.1465 0.6908 0.0
C1773 C 0.59971 0.20299 0.6657 0.0
C1774 C 0.69621 0.87252 0.35174 0.0
C1775 C 0.68525 0.86741 0.38267 0.0
H1776 H 0.73296 0.87292 0.3216 0.0
C1777 C 0.70681 0.85895 0.40773 0.0
H1778 H 0.68113 0.87889 0.33133 0.0
C1779 C 0.73724 0.85586 0.40221 0.0
C1780 C 0.748 0.8606 0.37108 0.0
H1781 H 0.70016 0.8546 0.43198 0.0
H1782 H 0.75232 0.84922 0.42243 0.0
C1783 C 0.72646 0.86902 0.34606 0.0
C1784 C 0.17257 0.32904 0.59014 0.0
C1785 C 0.1655 0.33204 0.5554 0.0
H1786 H 0.1643 0.30134 0.6287 0.0
C1787 C 0.14574 0.3079 0.5321 0.0
H1788 H 0.18772 0.34736 0.60866 0.0
C1789 C 0.13166 0.28227 0.54367 0.0
C1790 C 0.1375 0.27976 0.57871 0.0
H1791 H 0.13976 0.30953 0.50513 0.0
H1792 H 0.11522 0.26509 0.52525 0.0
C1793 C 0.15874 0.30299 0.6017 0.0
C1794 C 0.59665 0.27565 0.22975 0.0
C1795 C 0.58724 0.26337 0.19429 0.0
H1796 H 0.63361 0.28883 0.27172 0.0
C1797 C 0.60887 0.2548 0.17359 0.0
H1798 H 0.5805 0.28239 0.24643 0.0
C1799 C 0.63945 0.25863 0.18818 0.0
C1800 C 0.64884 0.27121 0.22364 0.0
H1801 H 0.60223 0.24525 0.1462 0.0
H1802 H 0.65579 0.25218 0.17162 0.0
C1803 C 0.62711 0.27956 0.24425 0.0
C1804 C 0.68211 1.00434 0.07908 0.0
C1805 C 0.69273 1.00789 0.04783 0.0
H1806 H 0.65603 1.0226 0.11696 0.0
C1807 C 0.69575 0.03794 0.0392 0.0
H1808 H 0.67951 0.98158 0.08673 0.0
C1809 C 0.68364 0.06208 0.05804 0.0
C1810 C 0.66649 0.05592 0.08403 0.0
H1811 H 0.70409 0.04172 1.01557 0.0
H1812 H 0.68282 0.08357 0.0481 0.0
C1813 C 0.66895 0.02819 0.09698 0.0
C1814 C 0.97039 0.82488 0.76386 0.0
C1815 C 0.9886 0.80214 0.76997 0.0
H1816 H 0.94838 0.862 0.7862 0.0
C1817 C 0.99617 0.79762 0.80419 0.0
H1818 H 0.96469 0.82934 0.73789 0.0
C1819 C 0.98848 0.81732 0.83199 0.0
C1820 C 0.97227 0.8418 0.82642 0.0
H1821 H 1.01034 0.78045 0.80988 0.0
H1822 H 0.99674 0.81416 0.85788 0.0
C1823 C 0.96204 0.84432 0.7918 0.0
C1824 C 0.19639 0.0729 0.98792 0.0
C1825 C 0.19135 0.08377 0.9558 0.0
H1826 H 0.18075 0.06432 0.03588 0.0
C1827 C 0.16303 0.09495 0.95032 0.0
H1828 H 0.21734 0.06411 0.99456 0.0
C1829 C 0.14201 0.09593 0.97505 0.0
C1830 C 0.14675 0.08463 1.00686 0.0
H1831 H 0.15723 0.104 0.9269 0.0
H1832 H 0.12157 0.1058 0.96901 0.0
C1833 C 0.17481 0.07285 1.01215 0.0
C1834 C 0.80032 0.36585 0.69123 0.0
C1835 C 0.79941 0.3981 0.69213 0.0
H1836 H 0.8145 0.33006 0.71827 0.0
C1837 C 0.81268 0.41907 0.72308 0.0
H1838 H 0.79088 0.34894 0.66782 0.0
C1839 C 0.82615 0.40821 0.75213 0.0
C1840 C 0.8276 0.37604 0.75104 0.0
H1841 H 0.81286 0.44409 0.72481 0.0
H1842 H 0.83574 0.42517 0.77545 0.0
C1843 C 0.81438 0.35503 0.72009 0.0
C1844 C 0.55462 0.14087 0.43486 0.0
C1845 C 0.53201 0.16013 0.4385 0.0
H1846 H 0.58316 0.11179 0.45848 0.0
C1847 C 0.5246 0.16818 0.47208 0.0
H1848 H 0.56045 0.13321 0.4095 0.0
C1849 C 0.53813 0.15625 0.5004 0.0
C1850 C 0.55927 0.13546 0.49619 0.0
H1851 H 0.50684 0.18222 0.47607 0.0
H1852 H 0.53018 0.16134 0.52497 0.0
C1853 C 0.56764 0.1284 0.46307 0.0
C1854 C 0.83882 0.68674 0.11786 0.0
C1855 C 0.84872 0.70064 0.09107 0.0
H1856 H 0.83589 0.69411 0.17175 0.0
C1857 C 0.87242 0.72622 0.09896 0.0
H1858 H 0.82097 0.66655 0.11229 0.0
C1859 C 0.88159 0.7416 0.13317 0.0
C1860 C 0.86628 0.73193 0.15916 0.0
H1861 H 0.88105 0.73667 0.07854 0.0
H1862 H 0.89688 0.76376 0.13836 0.0
C1863 C 0.84759 0.70247 0.15206 0.0
C1864 C 0.15616 0.07959 0.75234 0.0
C1865 C 0.18675 0.07473 0.75526 0.0
H1866 H 0.11615 0.0866 0.72006 0.0
C1867 C 0.19955 0.072 0.72437 0.0
H1868 H 0.14521 0.0821 0.77516 0.0
C1869 C 0.18225 0.07369 0.69201 0.0
C1870 C 0.15185 0.07935 0.6895 0.0
H1871 H 0.22292 0.06837 0.72512 0.0
H1872 H 0.19298 0.07134 0.66904 0.0
C1873 C 0.13933 0.08234 0.72046 0.0
C1874 C 0.77388 0.39673 0.45816 0.0
C1875 C 0.77908 0.38886 0.49143 0.0
H1876 H 0.78062 0.38793 0.40485 0.0
C1877 C 0.79389 0.36262 0.49418 0.0
H1878 H 0.76314 0.41699 0.45472 0.0
C1879 C 0.80467 0.34625 0.46545 0.0
C1880 C 0.80066 0.35507 0.43262 0.0
H1881 H 0.79917 0.35608 0.51922 0.0
H1882 H 0.81738 0.32743 0.46939 0.0
C1883 C 0.78414 0.38001 0.42934 0.0
C1884 C 0.56244 0.14994 0.2374 0.0
C1885 C 0.53194 0.13867 0.23909 0.0
H1886 H 0.59928 0.14933 0.208 0.0
C1887 C 0.51545 0.11661 0.21046 0.0
H1888 H 0.57608 0.16673 0.25882 0.0
C1889 C 0.52901 0.10607 0.18138 0.0
C1890 C 0.55953 0.11738 0.1797 0.0
H1891 H 0.49205 0.10705 0.21069 0.0
H1892 H 0.51539 0.08923 0.15999 0.0
C1893 C 0.57589 0.13968 0.20819 0.0
C1894 C 0.78173 0.76782 0.93961 0.0
C1895 C 0.7854 0.73725 0.92446 0.0
H1896 H 0.78675 0.81682 0.93617 0.0
C1897 C 0.79725 0.73311 0.89328 0.0
H1898 H 0.77258 0.77182 0.96361 0.0
C1899 C 0.80599 0.75901 0.87818 0.0
C1900 C 0.80263 0.78948 0.89363 0.0
H1901 H 0.80061 0.71002 0.88109 0.0
H1902 H 0.81529 0.75523 0.85424 0.0
C1903 C 0.78997 0.79363 0.92413 0.0
C1904 C 0.97443 0.15166 0.06033 0.0
C1905 C 0.97841 0.18244 0.08071 0.0
H1906 H 0.99335 0.10983 0.04389 0.0
C1907 C 1.0074 0.19394 0.10007 0.0
H1908 H 0.95265 0.14123 0.04495 0.0
C1909 C 1.03111 0.1755 0.099 0.0
C1910 C 1.0269 0.1447 0.07875 0.0
H1911 H 1.01183 0.21714 0.11612 0.0
H1912 H 0.05282 0.1854 0.11479 0.0
C1913 C 0.99797 0.13324 0.0595 0.0
C1914 C 0.50491 0.57787 0.18712 0.0
C1915 C 0.48236 0.55122 0.17897 0.0
H1916 H 0.54424 0.60263 0.17252 0.0
C1917 C 0.48325 0.52772 0.15056 0.0
H1918 H 0.50472 0.5961 0.2092 0.0
C1919 C 0.50539 0.53163 0.12932 0.0
C1920 C 0.52742 0.5588 0.13664 0.0
H1921 H 0.46619 0.50683 0.14414 0.0
H1922 H 0.50506 0.51351 0.10697 0.0
C1923 C 0.52741 0.58156 0.16619 0.0
C1924 C 0.42787 0.70829 0.84468 0.0
C1925 C 0.40903 0.67827 0.84014 0.0
H1926 H 0.4324 0.75961 0.85178 0.0
C1927 C 0.37756 0.68144 0.8388 0.0
H1928 H 0.45215 0.70894 0.84674 0.0
C1929 C 0.36588 0.71107 0.84101 0.0
C1930 C 0.38452 0.74109 0.8463 0.0
H1931 H 0.36118 0.66035 0.83596 0.0
H1932 H 0.3416 0.71029 0.83925 0.0
C1933 C 0.41617 0.73826 0.84802 0.0
C1934 C 0.3074 0.74441 0.57288 0.0
C1935 C 0.32716 0.72697 0.58877 0.0
H1936 H 0.26137 0.751 0.56008 0.0
C1937 C 0.31595 0.70357 0.60599 0.0
H1938 H 0.31602 0.76309 0.5602 0.0
C1939 C 0.28501 0.6971 0.60666 0.0
C1940 C 0.26492 0.7141 0.59023 0.0
H1941 H 0.33119 0.69083 0.61958 0.0
H1942 H 0.27694 0.6793 0.62077 0.0
C1943 C 0.27635 0.7377 0.57314 0.0
C1944 C 0.73511 0.93922 0.81268 0.0
C1945 C 0.73508 0.9609 0.84325 0.0
H1946 H 0.75463 0.90082 0.78768 0.0
C1947 C 0.75448 0.95787 0.87329 0.0
H1948 H 0.7214 0.94115 0.78876 0.0
C1949 C 0.7733 0.9345 0.87282 0.0
C1950 C 0.77392 0.91328 0.84217 0.0
H1951 H 0.75558 0.97415 0.89737 0.0
H1952 H 0.78779 0.93344 0.89655 0.0
C1953 C 0.75442 0.91607 0.81209 0.0
C1954 C 0.80606 0.05447 0.69646 0.0
C1955 C 0.83165 0.0781 0.70493 0.0
H1956 H 0.75894 0.04241 0.67462 0.0
C1957 C 0.8276 0.10938 0.70425 0.0
H1958 H 0.80833 0.03017 0.69687 0.0
C1959 C 0.79943 0.11631 0.69114 0.0
C1960 C 0.7747 0.09212 0.67858 0.0
H1961 H 0.8468 0.12821 0.71109 0.0
H1962 H 0.79776 0.14025 0.68823 0.0
C1963 C 0.77784 0.06142 0.68326 0.0
C1964 C 0.38158 0.48469 0.82102 0.0
C1965 C 0.41214 0.4996 0.83496 0.0
H1966 H 0.34517 0.44458 0.81489 0.0
C1967 C 0.42866 0.48004 0.85316 0.0
H1968 H 0.36738 0.49705 0.80564 0.0
C1969 C 0.41574 0.44935 0.85841 0.0
C1970 C 0.38508 0.43461 0.84548 0.0
H1971 H 0.45219 0.48875 0.86408 0.0
H1972 H 0.43043 0.43685 0.87303 0.0
C1973 C 0.36852 0.45365 0.82625 0.0
C1974 C 0.21064 0.63881 0.32446 0.0
C1975 C 0.21363 0.60734 0.31455 0.0
H1976 H 0.22664 0.68628 0.32133 0.0
C1977 C 0.23167 0.59883 0.2894 0.0
H1978 H 0.19631 0.64558 0.3434 0.0
C1979 C 0.24779 0.62165 0.27542 0.0
C1980 C 0.24687 0.65358 0.28709 0.0
H1981 H 0.23349 0.57441 0.28066 0.0
H1982 H 0.26157 0.61423 0.25613 0.0
C1983 C 0.22762 0.66192 0.3113 0.0
C1984 C 0.64397 0.79803 0.49941 0.0
C1985 C 0.61745 0.79006 0.47459 0.0
H1986 H 0.67146 0.78553 0.54183 0.0
C1987 C 0.59873 0.76128 0.47265 0.0
H1988 H 0.65881 0.82014 0.50154 0.0
C1989 C 0.6057 0.74166 0.49639 0.0
C1990 C 0.63186 0.75019 0.52192 0.0
H1991 H 0.57801 0.75472 0.45404 0.0
H1992 H 0.59042 0.72003 0.49517 0.0
C1993 C 0.65127 0.77822 0.5225 0.0
C1994 C 0.70828 0.32763 0.7912 0.0
C1995 C 0.68703 0.31869 0.8127 0.0
H1996 H 0.75521 0.337 0.78346 0.0
C1997 C 0.70006 0.31188 0.84472 0.0
H1998 H 0.69999 0.33295 0.76626 0.0
C1999 C 0.73219 0.31312 0.85415 0.0
C2000 C 0.75341 0.3225 0.83284 0.0
H2001 H 0.68526 0.30453 0.86227 0.0
H2002 H 0.74048 0.30673 0.87852 0.0
C2003 C 0.74044 0.33005 0.80123 0.0
C2004 C 0.11123 0.48713 0.95454 0.0
C2005 C 0.1018 0.45667 0.96035 0.0
H2006 H 0.11711 0.537 0.97417 0.0
C2007 C 0.09022 0.45394 0.99132 0.0
H2008 H 0.12011 0.49028 0.93105 0.0
C2009 C 0.0879 0.48049 1.01548 0.0
C2010 C 0.09764 0.51088 1.01006 0.0
H2011 H 0.08231 0.43105 0.9968 0.0
H2012 H 0.07861 0.47712 0.03868 0.0
C2013 C 0.10956 0.5139 0.97934 0.0
C2014 C 0.96429 0.80293 0.27717 0.0
C2015 C 0.99286 0.80749 0.29925 0.0
H2016 H 0.91617 0.80351 0.27045 0.0
C2017 C 0.99134 0.8161 0.33516 0.0
H2018 H 0.96298 0.79623 0.2494 0.0
C2019 C 0.96304 0.82009 0.34762 0.0
C2020 C 0.93481 0.81593 0.32488 0.0
H2021 H 1.01201 0.82009 0.35372 0.0
H2022 H 0.96344 0.82705 0.3752 0.0
C2023 C 0.93659 0.80714 0.2894 0.0
C2024 C 0.51524 0.34672 0.07899 0.0
C2025 C 0.52067 0.33853 0.11186 0.0
H2026 H 0.52793 0.37834 0.04577 0.0
C2027 C 0.54408 0.35701 0.1369 0.0
H2028 H 0.49745 0.33308 0.05901 0.0
C2029 C 0.5617 0.38298 0.12913 0.0
C2030 C 0.55642 0.39081 0.09611 0.0
H2031 H 0.54896 0.35133 0.16244 0.0
H2032 H 0.5797 0.39671 0.1488 0.0
C2033 C 0.53293 0.3725 0.07122 0.0
C2034 C 0.08814 0.40006 0.46552 0.0
C2035 C 0.09862 0.42145 0.49661 0.0
H2036 H 0.0503 0.37899 0.42664 0.0
C2037 C 0.07856 0.43826 0.51297 0.0
H2038 H 0.10327 0.38609 0.45324 0.0
C2039 C 0.04854 0.43512 0.49711 0.0
C2040 C 1.03786 0.41377 0.46586 0.0
H2041 H 0.08633 0.45449 0.5373 0.0
H2042 H 1.03376 0.44967 0.50898 0.0
C2043 C 0.05795 0.39615 0.45028 0.0
C2044 C 0.99069 0.66108 0.6232 0.0
C2045 C 0.99157 0.69163 0.61631 0.0
H2046 H 1.00462 0.6163 0.61014 0.0
C2047 C 1.00082 0.69768 0.58512 0.0
H2048 H 0.98356 0.65558 0.64686 0.0
C2049 C 1.0143 0.67564 0.5649 0.0
C2050 C 1.01795 0.64692 0.57511 0.0
H2051 H 1.00172 0.72097 0.57889 0.0
H2052 H 1.02493 0.68259 0.5438 0.0
C2053 C 1.00314 0.63867 0.60226 0.0
C2054 C 0.70429 0.89921 0.88087 0.0
C2055 C 0.7148 0.89487 0.91461 0.0
H2056 H 0.69383 0.88002 0.82716 0.0
C2057 C 0.72847 0.86824 0.91804 0.0
H2058 H 0.69344 0.91925 0.87674 0.0
C2059 C 0.73006 0.84594 0.8887 0.0
C2060 C 0.7172 0.84908 0.85513 0.0
H2061 H 0.73679 0.86387 0.94344 0.0
H2062 H 0.74116 0.82608 0.89266 0.0
C2063 C 0.70444 0.8763 0.85192 0.0
C2064 C 0.49925 0.58758 0.70486 0.0
C2065 C 0.50885 0.58959 0.74111 0.0
H2066 H 0.51089 0.58591 0.65288 0.0
C2067 C 0.54094 0.59163 0.75009 0.0
H2068 H 0.47528 0.58589 0.69551 0.0
C2069 C 0.56162 0.59106 0.72517 0.0
C2070 C 0.55224 0.58953 0.68912 0.0
H2071 H 0.55039 0.59308 0.77699 0.0
H2072 H 0.58547 0.59179 0.73446 0.0
C2073 C 0.52017 0.58783 0.67991 0.0
C2074 C 0.89089 0.30024 1.0019 0.0
C2075 C 0.90227 0.27149 0.99717 0.0
H2076 H 0.87013 0.33473 0.97775 0.0
C2077 C 0.90245 0.25656 0.96286 0.0
H2078 H 0.88952 0.31207 0.02777 0.0
C2079 C 0.89099 0.26918 0.93438 0.0
C2080 C 0.87854 0.29724 0.93881 0.0
H2081 H 0.91051 0.23421 0.9579 0.0
H2082 H 0.89135 0.25636 0.90864 0.0
C2083 C 0.87918 0.31293 0.97311 0.0
C2084 C 0.16117 0.53743 0.20536 0.0
C2085 C 0.14125 0.52385 0.22533 0.0
H2086 H 0.16702 0.56363 0.16524 0.0
C2087 C 0.10982 0.52291 0.21476 0.0
H2088 H 0.1855 0.53921 0.21244 0.0
C2089 C 0.09905 0.53641 0.18608 0.0
C2090 C 0.11947 0.55168 0.16775 0.0
H2091 H 0.09366 0.5132 0.22962 0.0
H2092 H 0.07495 0.53657 0.17965 0.0
C2093 C 0.15054 0.55148 0.17776 0.0
C2094 C 0.90321 0.03668 0.56581 0.0
C2095 C 0.88118 0.03578 0.5877 0.0
H2096 H 0.91786 1.01318 0.52051 0.0
C2097 C 0.85322 1.01607 0.57594 0.0
H2098 H 0.9249 0.05182 0.57425 0.0
C2099 C 0.84912 0.99418 0.54525 0.0
C2100 C 0.87307 0.99157 0.52614 0.0
H2101 H 0.83582 1.01519 0.59237 0.0
H2102 H 0.82857 0.97703 0.53877 0.0
C2103 C 0.89932 1.01438 0.53527 0.0
C2104 C 0.51906 0.5858 0.9323 0.0
C2105 C 0.49148 0.59762 0.93468 0.0
H2106 H 0.56028 0.57485 0.95875 0.0
C2107 C 0.48598 0.60885 0.96851 0.0
H2108 H 0.5244 0.57656 0.90713 0.0
C2109 C 0.50714 0.60849 0.99842 0.0
C2110 C 0.53433 0.59592 0.99599 0.0
H2111 H 0.46517 0.61801 0.97196 0.0
H2112 H 0.50179 0.61753 0.02362 0.0
C2113 C 0.53977 0.58463 0.9622 0.0
C2114 C 0.90576 0.324 0.20152 0.0
C2115 C 0.91389 0.29365 0.19954 0.0
H2116 H 0.88574 0.3608 0.22938 0.0
C2117 C 0.90977 0.27873 0.22799 0.0
H2118 H 0.90777 0.33621 0.18009 0.0
C2119 C 0.89785 0.29332 0.25689 0.0
C2120 C 0.88841 0.32304 0.25813 0.0
H2121 H 0.91511 0.25525 0.22756 0.0
H2122 H 0.89463 0.28049 0.27761 0.0
C2123 C 0.89285 0.33815 0.2299 0.0
C2124 C 0.12507 0.5513 0.42495 0.0
C2125 C 0.15708 0.55681 0.42844 0.0
H2126 H 0.08537 0.55833 0.44882 0.0
C2127 C 0.17305 0.57457 0.46026 0.0
H2128 H 0.11171 0.53819 0.40094 0.0
C2129 C 0.15799 0.58668 0.48704 0.0
C2130 C 0.12622 0.58074 0.48409 0.0
H2131 H 0.19758 0.57992 0.46453 0.0
H2132 H 0.17159 0.60064 0.51041 0.0
C2133 C 0.1099 0.56302 0.45242 0.0
C2134 C 0.90841 0.94648 0.76513 0.0
C2135 C 0.88517 0.95197 0.74065 0.0
H2136 H 0.92227 0.91749 0.8008 0.0
C2137 C 0.85784 0.93067 0.73227 0.0
H2138 H 0.92986 0.96224 0.77174 0.0
C2139 C 0.85337 0.90513 0.7492 0.0
C2140 C 0.87643 0.89997 0.77418 0.0
H2141 H 0.83958 0.93422 0.71331 0.0
H2142 H 0.83164 0.88983 0.74337 0.0
C2143 C 0.9042 0.92056 0.78143 0.0
C2144 C 0.69238 0.48114 0.61544 0.0
C2145 C 0.71892 0.49285 0.60338 0.0
H2146 H 0.64935 0.49018 0.62998 0.0
C2147 C 0.72265 0.52501 0.60038 0.0
H2148 H 0.68832 0.45679 0.61826 0.0
C2149 C 0.70098 0.54444 0.60855 0.0
C2150 C 0.67393 0.53249 0.61907 0.0
H2151 H 0.74238 0.53547 0.59107 0.0
H2152 H 0.70466 0.56849 0.60456 0.0
C2153 C 0.67005 0.50047 0.62245 0.0
C2154 C 0.21009 0.12635 0.52059 0.0
C2155 C 0.2137 0.15841 0.51834 0.0
H2156 H 0.1844 0.08834 0.53783 0.0
C2157 C 0.19263 0.1765 0.53099 0.0
H2158 H 0.22693 0.11223 0.513 0.0
C2159 C 0.16924 0.16321 0.5466 0.0
C2160 C 0.16599 0.13141 0.54945 0.0
H2161 H 0.19532 0.20144 0.53064 0.0
H2162 H 0.15442 0.17814 0.55779 0.0
C2163 C 0.18606 0.1128 0.53536 0.0
C2164 C 0.26323 0.96779 0.83874 0.0
C2165 C 0.2781 0.99527 0.86334 0.0
H2166 H 0.2618 0.91863 0.81443 0.0
C2167 C 0.30599 0.98967 0.8817 0.0
H2168 H 0.24193 0.96914 0.82326 0.0
C2169 C 0.3179 0.96013 0.87615 0.0
C2170 C 0.30316 0.93262 0.85181 0.0
H2171 H 0.31934 1.00872 0.90094 0.0
H2172 H 0.33922 0.95894 0.8917 0.0
C2173 C 0.27505 0.93789 0.83347 0.0
C2174 C 0.3785 0.97321 0.10915 0.0
C2175 C 0.36311 0.94432 0.09024 0.0
H2176 H 0.41949 1.00608 0.11945 0.0
C2177 C 0.37851 0.92381 0.07082 0.0
H2178 H 0.36704 0.98863 0.12544 0.0
C2179 C 0.40862 0.93331 0.06798 0.0
C2180 C 0.42361 0.96326 0.08489 0.0
H2181 H 0.36697 0.90094 0.05703 0.0
H2182 H 0.41997 0.91751 0.05201 0.0
C2183 C 0.40856 0.98282 0.10625 0.0
C2184 C 0.9367 0.74116 0.80792 0.0
C2185 C 0.95037 0.73769 0.84106 0.0
H2186 H 0.90559 0.76446 0.77843 0.0
C2187 C 0.94333 0.7571 0.86993 0.0
H2188 H 0.94061 0.7259 0.78503 0.0
C2189 C 0.92291 0.77837 0.86624 0.0
C2190 C 0.90852 0.78158 0.83345 0.0
H2191 H 0.95251 0.75465 0.89586 0.0
H2192 H 0.91771 0.7918 0.88964 0.0
C2193 C 0.91605 0.76284 0.80416 0.0
C2194 C 0.88001 0.65262 0.97932 0.0
C2195 C 0.85201 0.63294 0.9671 0.0
H2196 H 0.92519 0.65756 1.0059 0.0
C2197 C 0.85022 0.60076 0.96797 0.0
H2198 H 0.88225 0.67755 0.97901 0.0
C2199 C 0.87496 0.58919 0.98386 0.0
C2200 C 0.90229 0.60939 0.99855 0.0
H2201 H 0.82919 0.58482 0.95849 0.0
H2202 H 0.87242 0.56445 0.98509 0.0
C2203 C 0.90476 0.64106 0.99488 0.0
C2204 C 0.25906 0.19919 0.87002 0.0
C2205 C 0.27522 0.17322 0.8706 0.0
H2206 H 0.25748 0.2477 0.86528 0.0
C2207 C 0.30634 0.18146 0.86652 0.0
H2208 H 0.23518 0.19548 0.87211 0.0
C2209 C 0.3199 0.21298 0.86307 0.0
C2210 C 0.30319 0.2387 0.86217 0.0
H2211 H 0.32026 0.16314 0.86451 0.0
H2212 H 0.3435 0.21673 0.85978 0.0
C2213 C 0.27225 0.23011 0.86589 0.0
C2214 C 0.43418 0.06187 0.3268 0.0
C2215 C 0.46334 0.07512 0.34397 0.0
H2216 H 0.39703 1.02486 0.32084 0.0
C2217 C 0.47891 0.05917 0.36667 0.0
H2218 H 0.42235 0.0733 0.30805 0.0
C2219 C 0.46406 0.03217 0.37539 0.0
C2220 C 0.43372 1.01995 0.3604 0.0
H2221 H 0.50178 0.06887 0.37959 0.0
H2222 H 0.47593 1.02229 0.39549 0.0
C2223 C 0.41967 0.03424 0.33449 0.0
C2224 C 0.60063 0.38679 0.70124 0.0
C2225 C 0.58216 0.38406 0.72679 0.0
H2226 H 0.60884 0.40573 0.65664 0.0
C2227 C 0.56022 0.40394 0.72995 0.0
H2228 H 0.61709 0.37109 0.69739 0.0
C2229 C 0.55571 0.42473 0.70686 0.0
C2230 C 0.57224 0.4254 0.67898 0.0
H2231 H 0.545 0.40177 0.74872 0.0
H2232 H 0.53828 0.43925 0.71023 0.0
C2233 C 0.59557 0.40676 0.67748 0.0
C2234 C 0.49758 0.83546 0.35051 0.0
C2235 C 0.51331 0.85664 0.38063 0.0
H2236 H 0.45479 0.81655 0.31646 0.0
C2237 C 0.49497 0.87496 0.39926 0.0
H2238 H 0.50997 0.81995 0.33569 0.0
C2239 C 0.46322 0.87312 0.38811 0.0
C2240 C 0.44737 0.85202 0.3582 0.0
H2241 H 0.50531 0.89093 0.42306 0.0
H2242 H 0.45079 0.8879 0.4037 0.0
C2243 C 0.46547 0.8332 0.33961 0.0
C2244 C 0.09835 0.72978 0.19217 0.0
C2245 C 0.08103 0.72607 0.21867 0.0
H2246 H 0.1127 0.70862 0.14559 0.0
C2247 C 0.06587 0.69586 0.21895 0.0
H2248 H 0.11071 0.75264 0.1915 0.0
C2249 C 0.06665 0.67041 0.1921 0.0
C2250 C 0.08319 0.67447 0.16484 0.0
H2251 H 0.05259 0.69216 0.23919 0.0
H2252 H 0.0541 0.64762 0.19257 0.0
C2253 C 0.09948 0.70445 0.16576 0.0
C2254 C 0.2086 0.36009 0.9092 0.0
C2255 C 0.18682 0.36784 0.88384 0.0
H2256 H 0.25421 0.35072 0.92402 0.0
C2257 C 0.19749 0.37206 0.8525 0.0
H2258 H 0.20217 0.35645 0.93377 0.0
C2259 C 0.22766 0.36829 0.84669 0.0
C2260 C 0.24943 0.3606 0.87201 0.0
H2261 H 0.18223 0.37783 0.83184 0.0
H2262 H 0.23391 0.37138 0.82187 0.0
C2263 C 0.23897 0.35684 0.90357 0.0
C2264 C 0.65335 0.80396 1.01488 0.0
C2265 C 0.67386 0.82923 0.0355 0.0
H2266 H 0.62348 0.7616 1.01296 0.0
C2267 C 0.68353 0.82808 0.07038 0.0
H2268 H 0.6454 0.80411 0.98789 0.0
C2269 C 0.67118 0.80309 0.08487 0.0
C2270 C 0.64883 0.77899 0.06477 0.0
H2271 H 0.69925 0.84729 0.08693 0.0
H2272 H 0.67854 0.80315 0.11202 0.0
C2273 C 0.64077 0.77938 0.02936 0.0
C2274 C 0.12766 0.76098 0.66714 0.0
C2275 C 0.10587 0.74697 0.68407 0.0
H2276 H 0.17439 0.77194 0.6653 0.0
C2277 C 0.11322 0.72524 0.70469 0.0
H2278 H 0.12198 0.7774 0.65053 0.0
C2279 C 0.14297 0.71958 0.71084 0.0
C2280 C 0.16622 0.73743 0.69853 0.0
H2281 H 0.09612 0.71351 0.717 0.0
H2282 H 0.14775 0.70277 0.72717 0.0
C2283 C 0.1578 0.75713 0.6752 0.0
C2284 C 0.19746 0.54049 0.55855 0.0
C2285 C 0.19557 0.51129 0.56945 0.0
H2286 H 0.18151 0.58486 0.56251 0.0
C2287 C 0.18313 0.50865 0.59987 0.0
H2288 H 0.20739 0.54377 0.53571 0.0
C2289 C 0.16755 0.53191 0.61449 0.0
C2290 C 0.16462 0.55848 0.5994 0.0
H2291 H 0.1817 0.48689 0.60967 0.0
H2292 H 0.15499 0.5273 0.63509 0.0
C2293 C 0.18223 0.56395 0.5736 0.0
C2294 C 0.45159 0.33856 0.20131 0.0
C2295 C 0.44691 0.30646 0.20306 0.0
H2296 H 0.45948 0.38597 0.22918 0.0
C2297 C 0.44438 0.29781 0.23517 0.0
H2298 H 0.45446 0.34593 0.177 0.0
C2299 C 0.44719 0.3206 0.26503 0.0
C2300 C 0.45321 0.3529 0.264 0.0
H2301 H 0.44104 0.27325 0.23737 0.0
H2302 H 0.44464 0.31263 0.28899 0.0
C2303 C 0.45486 0.36154 0.23145 0.0
C2304 C 0.66251 0.5967 0.45131 0.0
C2305 C 0.69093 0.58568 0.45669 0.0
H2306 H 0.6209 0.60702 0.46997 0.0
C2307 C 0.69595 0.57451 0.48865 0.0
H2308 H 0.6567 0.60595 0.42802 0.0
C2309 C 0.67428 0.57404 0.51278 0.0
C2310 C 0.64613 0.58566 0.5076 0.0
H2311 H 0.71696 0.5658 0.49523 0.0
H2312 H 0.68023 0.56528 0.53637 0.0
C2313 C 0.6414 0.59725 0.47596 0.0
C2314 C 0.29848 0.86377 0.19253 0.0
C2315 C 0.29653 0.89577 0.19306 0.0
H2316 H 0.31389 0.82882 0.22007 0.0
C2317 C 0.30906 0.91717 0.22397 0.0
H2318 H 0.28967 0.84657 0.16917 0.0
C2319 C 0.32285 0.90694 0.25334 0.0
C2320 C 0.32543 0.87505 0.25256 0.0
H2321 H 0.30844 0.94203 0.22542 0.0
H2322 H 0.33183 0.92418 0.27663 0.0
C2323 C 0.31291 0.85363 0.22166 0.0
C2324 C 1.02668 0.66906 0.97676 0.0
C2325 C 1.034 0.66142 0.9431 0.0
H2326 H 1.03235 0.66137 0.02934 0.0
C2327 C 0.05646 0.64209 0.93887 0.0
H2328 H 1.00901 0.68314 0.98111 0.0
C2329 C 0.06943 0.6291 0.96664 0.0
C2330 C 0.06113 0.63574 0.99981 0.0
H2331 H 0.06217 0.63476 0.91338 0.0
H2332 H 0.0849 0.6125 0.96168 0.0
C2333 C 0.04018 0.65663 1.00465 0.0
C2334 C 0.34185 0.17967 0.61514 0.0
C2335 C 0.34923 0.19862 0.59124 0.0
H2336 H 0.34004 0.17896 0.6686 0.0
C2337 C 0.37026 0.22626 0.60251 0.0
H2338 H 0.32657 0.15756 0.60689 0.0
C2339 C 0.37759 0.23869 0.6377 0.0
C2340 C 0.36371 0.22341 0.66146 0.0
H2341 H 0.3774 0.24056 0.58429 0.0
H2342 H 0.38975 0.26246 0.64516 0.0
C2343 C 0.3495 0.19199 0.65049 0.0
C2344 C 0.65733 0.58368 0.25356 0.0
C2345 C 0.68759 0.57781 0.25652 0.0
H2346 H 0.61784 0.5915 0.22105 0.0
C2347 C 0.70037 0.57407 0.22565 0.0
H2348 H 0.64646 0.587 0.2764 0.0
C2349 C 0.6833 0.5757 0.19319 0.0
C2350 C 0.65325 0.58237 0.19063 0.0
H2351 H 0.72352 0.56963 0.22651 0.0
H2352 H 0.69395 0.57253 0.17019 0.0
C2353 C 0.64077 0.58643 0.22157 0.0
C2354 C 0.27103 0.89208 0.95803 0.0
C2355 C 0.276 0.88398 0.99122 0.0
H2356 H 0.27782 0.88341 0.90471 0.0
C2357 C 0.29016 0.85729 0.99369 0.0
H2358 H 0.26077 0.91266 0.95477 0.0
C2359 C 0.30062 0.84072 0.96481 0.0
C2360 C 0.29697 0.84983 0.93209 0.0
H2361 H 0.29525 0.85051 0.01863 0.0
H2362 H 0.31291 0.82157 0.96858 0.0
C2363 C 0.28103 0.87523 0.92907 0.0
C2364 C 0.06322 0.65664 0.74201 0.0
C2365 C 1.03279 0.64539 0.74413 0.0
H2366 H 0.09965 0.65557 0.71185 0.0
C2367 C 1.01591 0.62353 0.71566 0.0
H2368 H 0.07714 0.67326 0.76339 0.0
C2369 C 1.02902 0.61298 0.68637 0.0
C2370 C 0.05939 0.62425 0.68415 0.0
H2371 H 0.99258 0.61395 0.71627 0.0
H2372 H 1.01513 0.59606 0.66526 0.0
C2373 C 0.07623 0.64637 0.71243 0.0
C2374 C 0.28726 0.2766 0.44631 0.0
C2375 C 0.29136 0.24597 0.43199 0.0
H2376 H 0.29291 0.32548 0.44215 0.0
C2377 C 0.30706 0.24196 0.40366 0.0
H2378 H 0.27533 0.28048 0.46824 0.0
C2379 C 0.31824 0.26786 0.38985 0.0
C2380 C 0.31338 0.29831 0.40349 0.0
H2381 H 0.31102 0.21883 0.39238 0.0
H2382 H 0.32963 0.26384 0.36747 0.0
C2383 C 0.29769 0.30244 0.43179 0.0
C2384 C 0.50438 0.69257 0.60014 0.0
C2385 C 0.47522 0.68068 0.58134 0.0
H2386 H 0.55009 0.68467 0.61433 0.0
C2387 C 0.47134 0.64978 0.56129 0.0
H2388 H 0.50877 0.71588 0.61595 0.0
C2389 C 0.49513 0.6316 0.56032 0.0
C2390 C 0.52423 0.64347 0.57907 0.0
H2391 H 0.44946 0.63908 0.54634 0.0
H2392 H 0.49058 0.60808 0.545 0.0
C2393 C 0.5283 0.67442 0.59892 0.0
C2394 C 1.0029 0.0543 0.68186 0.0
C2395 C 0.97422 0.04018 0.66344 0.0
H2396 H 0.04935 0.07111 0.67859 0.0
C2397 C 0.97095 0.02976 0.62753 0.0
H2398 H 1.00615 0.06138 0.70977 0.0
C2399 C 0.99527 0.03526 0.6098 0.0
C2400 C 1.02368 0.05068 0.62775 0.0
H2401 H 0.94934 1.01759 0.61306 0.0
H2402 H 0.99172 0.02766 0.58193 0.0
C2403 C 1.02752 0.05964 0.66406 0.0
C2404 C 0.87726 0.18397 0.33829 0.0
C2405 C 0.90869 0.18084 0.33872 0.0
H2406 H 0.84118 0.21269 0.33924 0.0
C2407 C 0.92729 0.21083 0.34206 0.0
H2408 H 0.86105 0.16292 0.33638 0.0
C2409 C 0.91544 0.24072 0.34515 0.0
C2410 C 0.88384 0.24352 0.34432 0.0
H2411 H 0.95152 0.21154 0.34332 0.0
H2412 H 0.93153 0.26205 0.348 0.0
C2413 C 0.86541 0.21351 0.34023 0.0
C2414 C 0.81076 0.24616 0.06669 0.0
C2415 C 0.82994 0.22772 0.08179 0.0
H2416 H 0.76481 0.25302 0.05297 0.0
C2417 C 0.81795 0.20239 0.09582 0.0
H2418 H 0.81999 0.26631 0.05657 0.0
C2419 C 0.78679 0.19478 0.09371 0.0
C2420 C 0.76742 0.21294 0.07827 0.0
H2421 H 0.8327 0.18888 0.10892 0.0
H2422 H 0.77788 0.1753 0.10508 0.0
C2423 C 0.7795 0.23866 0.06472 0.0
C2424 C 0.23113 0.43515 0.3177 0.0
C2425 C 0.23641 0.46036 0.34614 0.0
H2426 H 0.2458 0.3932 0.29284 0.0
C2427 C 0.26121 0.46076 0.37238 0.0
H2428 H 0.21277 0.43393 0.29667 0.0
C2429 C 0.28047 0.4379 0.3699 0.0
C2430 C 0.27577 0.41319 0.34124 0.0
H2431 H 0.26644 0.47945 0.39492 0.0
H2432 H 0.29926 0.43976 0.39064 0.0
C2433 C 0.25046 0.41193 0.31533 0.0
C2434 C 0.328 0.61231 0.20956 0.0
C2435 C 0.3344 0.58148 0.20532 0.0
H2436 H 0.29649 0.64275 0.19713 0.0
C2437 C 0.3119 0.5568 0.18728 0.0
H2438 H 0.34507 0.63175 0.2234 0.0
C2439 C 0.2846 0.56313 0.17077 0.0
C2440 C 0.27893 0.59429 0.17263 0.0
H2441 H 0.31653 0.53287 0.18308 0.0
H2442 H 0.26902 0.54365 0.15459 0.0
C2443 C 0.30037 0.6186 0.19385 0.0
C2444 C 0.88102 0.98784 0.31847 0.0
C2445 C 0.9117 1.00232 0.33239 0.0
H2446 H 0.84429 0.948 0.31205 0.0
C2447 C 0.92811 0.98238 0.35002 0.0
H2448 H 0.86693 1.00058 0.30345 0.0
C2449 C 0.91499 0.95164 0.35478 0.0
C2450 C 0.88422 0.93733 0.34194 0.0
H2451 H 0.95171 0.9908 0.36086 0.0
H2452 H 0.92961 0.93878 0.36898 0.0
C2453 C 0.86772 0.95677 0.32329 0.0
C2454 C 0.71112 0.13962 0.81761 0.0
C2455 C 0.71434 0.10817 0.80799 0.0
H2456 H 0.72691 0.18707 0.81436 0.0
C2457 C 0.73233 0.09967 0.78278 0.0
H2458 H 0.69677 0.14639 0.83652 0.0
C2459 C 0.74829 0.12249 0.76865 0.0
C2460 C 0.74734 0.15445 0.78021 0.0
H2461 H 0.73426 0.07525 0.77418 0.0
H2462 H 0.76209 0.11503 0.74944 0.0
C2463 C 0.72799 0.16273 0.80433 0.0
loop_
_geom_bond_atom_site_label_1
_geom_bond_atom_site_label_2
_geom_bond_distance
_geom_bond_site_symmetry_2
_ccdc_geom_bond_type
Mn0 O5 2.095 . S
Mn0 O15 2.162 . S
Mn0 O16 2.297 . S
Mn0 O24 2.385 . S
Mn0 O25 2.209 . S
Mn0 O26 2.094 . S
Mn1 O6 2.121 . S
Mn1 N8 2.257 . S
Mn1 N17 2.282 . S
Mn1 O25 2.215 . S
Mn1 O27 2.117 . S
C2 O24 1.234 . S
C2 O25 1.283 . S
C3 O15 1.281 . S
C3 O16 1.236 . S
C4 O26 1.240 . S
C4 O27 1.264 . S
O5 Mn0 2.095 . S
O5 C14 1.250 . S
O6 Mn1 2.121 . S
O6 C14 1.258 . S
C7 N8 1.326 . S
C7 C11 1.460 . S
C7 H13 0.929 . S
N8 Mn1 2.257 . S
N8 C7 1.326 . S
N8 C12 1.362 . S
C9 C10 1.258 . S
C9 C12 1.431 . S
C9 C29 1.449 . S
C10 C9 1.258 . S
C10 C11 1.477 . S
C10 H30 0.931 . S
C11 C7 1.460 . S
C11 C10 1.477 . S
C11 H31 0.930 . S
C12 N8 1.362 . S
C12 C9 1.431 . S
C12 C22 1.476 . S
H13 C7 0.929 . S
C14 O5 1.250 . S
C14 O6 1.258 . S
O15 Mn0 2.162 . S
O15 C3 1.281 . S
O16 Mn0 2.297 . S
O16 C3 1.236 . S
N17 Mn1 2.282 . S
N17 C18 1.328 . S
N17 C22 1.318 . S
C18 N17 1.328 . S
C18 C19 1.457 . S
C18 H23 0.929 . S
C19 C18 1.457 . S
C19 C20 1.291 . S
C19 H32 0.931 . S
C20 C19 1.291 . S
C20 C21 1.373 . S
C20 H33 0.929 1_455 S
C21 C20 1.373 . S
C21 C22 1.396 . S
C21 C28 1.403 . S
C22 C12 1.476 . S
C22 N17 1.318 . S
C22 C21 1.396 . S
H23 C18 0.929 . S
O24 Mn0 2.385 . S
O24 C2 1.234 . S
O25 Mn0 2.209 . S
O25 Mn1 2.215 . S
O25 C2 1.283 . S
O26 Mn0 2.094 . S
O26 C4 1.240 . S
O27 Mn1 2.117 . S
O27 C4 1.264 . S
C28 C21 1.403 . S
C28 C29 1.399 . S
C28 H34 0.929 1_455 S
C29 C9 1.449 . S
C29 C28 1.399 . S
C29 H35 0.930 . S
H30 C10 0.931 . S
H31 C11 0.930 . S
H32 C19 0.931 . S
H33 C20 0.929 1_655 S
H34 C28 0.929 1_655 S
H35 C29 0.930 . S
Mn36 O41 2.111 . S
Mn36 O51 2.161 . S
Mn36 O52 2.295 . S
Mn36 O60 2.369 1_655 S
Mn36 O61 2.202 1_655 S
Mn36 O62 2.095 1_655 S
Mn37 O42 2.121 1_455 S
Mn37 N44 2.257 . S
Mn37 N53 2.282 . S
Mn37 O61 2.215 . S
Mn37 O63 2.117 . S
C38 O60 1.234 . S
C38 O61 1.283 . S
C39 O51 1.281 . S
C39 O52 1.236 . S
C40 O62 1.239 . S
C40 O63 1.264 . S
O41 Mn36 2.111 . S
O41 C50 1.250 . S
O42 Mn37 2.121 1_655 S
O42 C50 1.258 . S
C43 N44 1.326 . S
C43 C47 1.460 . S
C43 H49 0.925 1_455 S
N44 Mn37 2.257 . S
N44 C43 1.326 . S
N44 C48 1.362 . S
C45 C46 1.258 . S
C45 C48 1.431 . S
C45 C65 1.449 . S
C46 C45 1.258 . S
C46 C47 1.477 . S
C46 H66 0.931 . S
C47 C43 1.460 . S
C47 C46 1.477 . S
C47 H67 0.930 . S
C48 N44 1.362 . S
C48 C45 1.431 . S
C48 C58 1.476 . S
H49 C43 0.925 1_655 S
C50 O41 1.250 . S
C50 O42 1.258 . S
O51 Mn36 2.161 . S
O51 C39 1.281 . S
O52 Mn36 2.295 . S
O52 C39 1.236 . S
N53 Mn37 2.282 . S
N53 C54 1.328 . S
N53 C58 1.318 . S
C54 N53 1.328 . S
C54 C55 1.457 . S
C54 H59 0.929 . S
C55 C54 1.457 . S
C55 C56 1.291 . S
C55 H68 0.931 . S
C56 C55 1.291 . S
C56 C57 1.373 . S
C56 H69 0.929 . S
C57 C56 1.373 . S
C57 C58 1.396 . S
C57 C64 1.403 . S
C58 C48 1.476 . S
C58 N53 1.318 . S
C58 C57 1.396 . S
H59 C54 0.929 . S
O60 Mn36 2.369 1_455 S
O60 C38 1.234 . S
O61 Mn36 2.202 1_455 S
O61 Mn37 2.215 . S
O61 C38 1.283 . S
O62 Mn36 2.095 1_455 S
O62 C40 1.239 . S
O63 Mn37 2.117 . S
O63 C40 1.264 . S
C64 C57 1.403 . S
C64 C65 1.399 . S
C64 H70 0.929 . S
C65 C45 1.449 . S
C65 C64 1.399 . S
C65 H71 0.930 . S
H66 C46 0.931 . S
H67 C47 0.930 . S
H68 C55 0.931 . S
H69 C56 0.929 . S
H70 C64 0.929 . S
H71 C65 0.930 . S
Mn72 O77 2.095 1_554 S
Mn72 O87 2.162 . S
Mn72 O88 2.297 1_554 S
Mn72 O96 2.385 . S
Mn72 O97 2.209 1_554 S
Mn72 O98 2.094 . S
Mn73 O78 2.121 . S
Mn73 N80 2.257 . S
Mn73 N89 2.282 . S
Mn73 O97 2.215 . S
Mn73 O99 2.117 . S
C74 O96 1.230 1_556 S
C74 O97 1.283 . S
C75 O87 1.281 . S
C75 O88 1.236 1_554 S
C76 O98 1.240 . S
C76 O99 1.264 1_554 S
O77 Mn72 2.095 1_556 S
O77 C86 1.250 . S
O78 Mn73 2.121 . S
O78 C86 1.258 . S
C79 N80 1.326 . S
C79 C83 1.460 . S
C79 H85 0.929 . S
N80 Mn73 2.257 . S
N80 C79 1.326 . S
N80 C84 1.362 . S
C81 C82 1.258 . S
C81 C84 1.431 . S
C81 C101 1.449 . S
C82 C81 1.258 . S
C82 C83 1.477 . S
C82 H102 0.931 . S
C83 C79 1.460 . S
C83 C82 1.477 . S
C83 H103 0.930 . S
C84 N80 1.362 . S
C84 C81 1.431 . S
C84 C94 1.476 . S
H85 C79 0.929 . S
C86 O77 1.250 . S
C86 O78 1.258 . S
O87 Mn72 2.162 . S
O87 C75 1.281 . S
O88 Mn72 2.297 1_556 S
O88 C75 1.236 1_556 S
N89 Mn73 2.282 . S
N89 C90 1.328 . S
N89 C94 1.318 . S
C90 N89 1.328 . S
C90 C91 1.457 . S
C90 H95 0.929 . S
C91 C90 1.457 . S
C91 C92 1.291 . S
C91 H104 0.931 . S
C92 C91 1.291 . S
C92 C93 1.373 . S
C92 H105 0.929 . S
C93 C92 1.373 . S
C93 C94 1.396 . S
C93 C100 1.403 . S
C94 C84 1.476 . S
C94 N89 1.318 . S
C94 C93 1.396 . S
H95 C90 0.929 . S
O96 Mn72 2.385 . S
O96 C74 1.230 1_554 S
O97 Mn72 2.209 1_556 S
O97 Mn73 2.215 . S
O97 C74 1.283 . S
O98 Mn72 2.094 . S
O98 C76 1.240 . S
O99 Mn73 2.117 . S
O99 C76 1.264 1_556 S
C100 C93 1.403 . S
C100 C101 1.399 . S
C100 H106 0.929 . S
C101 C81 1.449 . S
C101 C100 1.399 . S
C101 H107 0.930 . S
H102 C82 0.931 . S
H103 C83 0.930 . S
H104 C91 0.931 . S
H105 C92 0.929 . S
H106 C100 0.929 . S
H107 C101 0.930 . S
Mn108 O113 2.095 . S
Mn108 O123 2.162 . S
Mn108 O124 2.297 . S
Mn108 O132 2.385 . S
Mn108 O133 2.209 . S
Mn108 O134 2.094 . S
Mn109 O114 2.121 . S
Mn109 N116 2.257 1_554 S
Mn109 N125 2.282 . S
Mn109 O133 2.215 . S
Mn109 O135 2.117 . S
C110 O132 1.234 . S
C110 O133 1.283 . S
C111 O123 1.281 . S
C111 O124 1.236 . S
C112 O134 1.240 . S
C112 O135 1.264 . S
O113 Mn108 2.095 . S
O113 C122 1.250 . S
O114 Mn109 2.121 . S
O114 C122 1.258 . S
C115 N116 1.326 . S
C115 C119 1.460 . S
C115 H121 0.929 . S
N116 Mn109 2.257 1_556 S
N116 C115 1.326 . S
N116 C120 1.362 . S
C117 C118 1.258 . S
C117 C120 1.431 . S
C117 C137 1.449 . S
C118 C117 1.258 . S
C118 C119 1.477 . S
C118 H138 0.931 . S
C119 C115 1.460 . S
C119 C118 1.477 . S
C119 H139 0.930 . S
C120 N116 1.362 . S
C120 C117 1.431 . S
C120 C130 1.476 1_556 S
H121 C115 0.929 . S
C122 O113 1.250 . S
C122 O114 1.258 . S
O123 Mn108 2.162 . S
O123 C111 1.281 . S
O124 Mn108 2.297 . S
O124 C111 1.236 . S
N125 Mn109 2.282 . S
N125 C126 1.328 . S
N125 C130 1.318 . S
C126 N125 1.328 . S
C126 C127 1.457 . S
C126 H131 0.929 . S
C127 C126 1.457 . S
C127 C128 1.291 . S
C127 H140 0.931 . S
C128 C127 1.291 . S
C128 C129 1.373 1_554 S
C128 H141 0.929 . S
C129 C128 1.373 1_556 S
C129 C130 1.396 1_556 S
C129 C136 1.403 . S
C130 C120 1.476 1_554 S
C130 N125 1.318 . S
C130 C129 1.396 1_554 S
H131 C126 0.929 . S
O132 Mn108 2.385 . S
O132 C110 1.234 . S
O133 Mn108 2.209 . S
O133 Mn109 2.215 . S
O133 C110 1.283 . S
O134 Mn108 2.094 . S
O134 C112 1.240 . S
O135 Mn109 2.117 . S
O135 C112 1.264 . S
C136 C129 1.403 . S
C136 C137 1.399 . S
C136 H142 0.929 . S
C137 C117 1.449 . S
C137 C136 1.399 . S
C137 H143 0.930 . S
H138 C118 0.931 . S
H139 C119 0.930 . S
H140 C127 0.931 . S
H141 C128 0.929 . S
H142 C136 0.929 . S
H143 C137 0.930 . S
Mn144 O149 2.095 . S
Mn144 O159 2.162 . S
Mn144 O160 2.297 . S
Mn144 O168 2.385 . S
Mn144 O169 2.209 . S
Mn144 O170 2.094 . S
Mn145 O150 2.121 1_655 S
Mn145 N152 2.257 . S
Mn145 N161 2.282 . S
Mn145 O169 2.215 1_655 S
Mn145 O171 2.117 . S
C146 O168 1.234 . S
C146 O169 1.283 . S
C147 O159 1.281 . S
C147 O160 1.236 . S
C148 O170 1.240 1_655 S
C148 O171 1.264 . S
O149 Mn144 2.095 . S
O149 C158 1.250 . S
O150 Mn145 2.121 1_455 S
O150 C158 1.258 . S
C151 N152 1.326 1_455 S
C151 C155 1.460 . S
C151 H157 0.929 . S
N152 Mn145 2.257 . S
N152 C151 1.326 1_655 S
N152 C156 1.362 . S
C153 C154 1.258 . S
C153 C156 1.431 . S
C153 C173 1.449 . S
C154 C153 1.258 . S
C154 C155 1.477 1_655 S
C154 H174 0.931 . S
C155 C151 1.460 . S
C155 C154 1.477 1_455 S
C155 H175 0.930 . S
C156 N152 1.362 . S
C156 C153 1.431 . S
C156 C166 1.476 . S
H157 C151 0.929 . S
C158 O149 1.250 . S
C158 O150 1.258 . S
O159 Mn144 2.162 . S
O159 C147 1.281 . S
O160 Mn144 2.297 . S
O160 C147 1.236 . S
N161 Mn145 2.282 . S
N161 C162 1.328 . S
N161 C166 1.318 . S
C162 N161 1.328 . S
C162 C163 1.457 . S
C162 H167 0.929 . S
C163 C162 1.457 . S
C163 C164 1.291 . S
C163 H176 0.931 . S
C164 C163 1.291 . S
C164 C165 1.373 . S
C164 H177 0.929 . S
C165 C164 1.373 . S
C165 C166 1.396 . S
C165 C172 1.403 . S
C166 C156 1.476 . S
C166 N161 1.318 . S
C166 C165 1.396 . S
H167 C162 0.929 . S
O168 Mn144 2.385 . S
O168 C146 1.234 . S
O169 Mn144 2.209 . S
O169 Mn145 2.215 1_455 S
O169 C146 1.283 . S
O170 Mn144 2.094 . S
O170 C148 1.240 1_455 S
O171 Mn145 2.117 . S
O171 C148 1.264 . S
C172 C165 1.403 . S
C172 C173 1.399 . S
C172 H178 0.929 . S
C173 C153 1.449 . S
C173 C172 1.399 . S
C173 H179 0.930 . S
H174 C154 0.931 . S
H175 C155 0.930 . S
H176 C163 0.931 . S
H177 C164 0.929 . S
H178 C172 0.929 . S
H179 C173 0.930 . S
Mn180 O185 2.095 . S
Mn180 O195 2.162 . S
Mn180 O196 2.297 . S
Mn180 O204 2.385 . S
Mn180 O205 2.209 . S
Mn180 O206 2.094 . S
Mn181 O186 2.121 . S
Mn181 N188 2.257 . S
Mn181 N197 2.282 . S
Mn181 O205 2.215 . S
Mn181 O207 2.117 . S
C182 O204 1.234 . S
C182 O205 1.283 . S
C183 O195 1.281 . S
C183 O196 1.236 . S
C184 O206 1.240 . S
C184 O207 1.264 . S
O185 Mn180 2.095 . S
O185 C194 1.250 . S
O186 Mn181 2.121 . S
O186 C194 1.258 . S
C187 N188 1.326 . S
C187 C191 1.460 . S
C187 H193 0.929 . S
N188 Mn181 2.257 . S
N188 C187 1.326 . S
N188 C192 1.362 . S
C189 C190 1.258 . S
C189 C192 1.431 . S
C189 C209 1.449 . S
C190 C189 1.258 . S
C190 C191 1.477 . S
C190 H210 0.931 . S
C191 C187 1.460 . S
C191 C190 1.477 . S
C191 H211 0.930 . S
C192 N188 1.362 . S
C192 C189 1.431 . S
C192 C202 1.476 . S
H193 C187 0.929 . S
C194 O185 1.250 . S
C194 O186 1.258 . S
O195 Mn180 2.162 . S
O195 C183 1.281 . S
O196 Mn180 2.297 . S
O196 C183 1.236 . S
N197 Mn181 2.282 . S
N197 C198 1.328 . S
N197 C202 1.318 . S
C198 N197 1.328 . S
C198 C199 1.457 . S
C198 H203 0.929 . S
C199 C198 1.457 . S
C199 C200 1.291 . S
C199 H212 0.931 . S
C200 C199 1.291 . S
C200 C201 1.373 . S
C200 H213 0.929 . S
C201 C200 1.373 . S
C201 C202 1.396 . S
C201 C208 1.403 . S
C202 C192 1.476 . S
C202 N197 1.318 . S
C202 C201 1.396 . S
H203 C198 0.929 . S
O204 Mn180 2.385 . S
O204 C182 1.234 . S
O205 Mn180 2.209 . S
O205 Mn181 2.215 . S
O205 C182 1.283 . S
O206 Mn180 2.094 . S
O206 C184 1.240 . S
O207 Mn181 2.117 . S
O207 C184 1.264 . S
C208 C201 1.403 . S
C208 C209 1.399 . S
C208 H214 0.929 . S
C209 C189 1.449 . S
C209 C208 1.399 . S
C209 H215 0.930 . S
H210 C190 0.931 . S
H211 C191 0.930 . S
H212 C199 0.931 . S
H213 C200 0.929 . S
H214 C208 0.929 . S
H215 C209 0.930 . S
Mn216 O221 2.095 . S
Mn216 O231 2.162 . S
Mn216 O232 2.297 . S
Mn216 O240 2.385 . S
Mn216 O241 2.209 . S
Mn216 O242 2.094 . S
Mn217 O222 2.121 . S
Mn217 N224 2.257 . S
Mn217 N233 2.282 . S
Mn217 O241 2.215 . S
Mn217 O243 2.117 . S
C218 O240 1.234 . S
C218 O241 1.283 . S
C219 O231 1.281 . S
C219 O232 1.236 . S
C220 O242 1.240 . S
C220 O243 1.264 . S
O221 Mn216 2.095 . S
O221 C230 1.250 . S
O222 Mn217 2.121 . S
O222 C230 1.258 . S
C223 N224 1.326 . S
C223 C227 1.460 . S
C223 H229 0.929 . S
N224 Mn217 2.257 . S
N224 C223 1.326 . S
N224 C228 1.362 . S
C225 C226 1.258 . S
C225 C228 1.431 . S
C225 C245 1.449 . S
C226 C225 1.258 . S
C226 C227 1.477 . S
C226 H246 0.931 . S
C227 C223 1.460 . S
C227 C226 1.477 . S
C227 H247 0.930 . S
C228 N224 1.362 . S
C228 C225 1.431 . S
C228 C238 1.476 . S
H229 C223 0.929 . S
C230 O221 1.250 . S
C230 O222 1.258 . S
O231 Mn216 2.162 . S
O231 C219 1.281 . S
O232 Mn216 2.297 . S
O232 C219 1.236 . S
N233 Mn217 2.282 . S
N233 C234 1.328 . S
N233 C238 1.318 . S
C234 N233 1.328 . S
C234 C235 1.457 . S
C234 H239 0.929 . S
C235 C234 1.457 . S
C235 C236 1.291 . S
C235 H248 0.931 . S
C236 C235 1.291 . S
C236 C237 1.373 . S
C236 H249 0.929 . S
C237 C236 1.373 . S
C237 C238 1.396 . S
C237 C244 1.403 . S
C238 C228 1.476 . S
C238 N233 1.318 . S
C238 C237 1.396 . S
H239 C234 0.929 . S
O240 Mn216 2.385 . S
O240 C218 1.234 . S
O241 Mn216 2.209 . S
O241 Mn217 2.215 . S
O241 C218 1.283 . S
O242 Mn216 2.094 . S
O242 C220 1.240 . S
O243 Mn217 2.117 . S
O243 C220 1.264 . S
C244 C237 1.403 . S
C244 C245 1.399 . S
C244 H250 0.929 . S
C245 C225 1.449 . S
C245 C244 1.399 . S
C245 H251 0.930 . S
H246 C226 0.931 . S
H247 C227 0.930 . S
H248 C235 0.931 . S
H249 C236 0.929 . S
H250 C244 0.929 . S
H251 C245 0.930 . S
Mn252 O257 2.095 . S
Mn252 O267 2.162 . S
Mn252 O268 2.297 . S
Mn252 O276 2.385 . S
Mn252 O277 2.209 . S
Mn252 O278 2.094 . S
Mn253 O258 2.121 . S
Mn253 N260 2.257 . S
Mn253 N269 2.282 . S
Mn253 O277 2.215 . S
Mn253 O279 2.117 . S
C254 O276 1.234 . S
C254 O277 1.283 . S
C255 O267 1.281 . S
C255 O268 1.236 . S
C256 O278 1.240 . S
C256 O279 1.264 . S
O257 Mn252 2.095 . S
O257 C266 1.250 . S
O258 Mn253 2.121 . S
O258 C266 1.258 . S
C259 N260 1.326 . S
C259 C263 1.460 . S
C259 H265 0.929 . S
N260 Mn253 2.257 . S
N260 C259 1.326 . S
N260 C264 1.362 . S
C261 C262 1.258 . S
C261 C264 1.431 . S
C261 C281 1.449 1_455 S
C262 C261 1.258 . S
C262 C263 1.477 . S
C262 H282 0.931 . S
C263 C259 1.460 . S
C263 C262 1.477 . S
C263 H283 0.930 . S
C264 N260 1.362 . S
C264 C261 1.431 . S
C264 C274 1.476 . S
H265 C259 0.929 . S
C266 O257 1.250 . S
C266 O258 1.258 . S
O267 Mn252 2.162 . S
O267 C255 1.281 . S
O268 Mn252 2.297 . S
O268 C255 1.236 . S
N269 Mn253 2.282 . S
N269 C270 1.328 . S
N269 C274 1.318 . S
C270 N269 1.328 . S
C270 C271 1.457 1_455 S
C270 H275 0.929 . S
C271 C270 1.457 1_655 S
C271 C272 1.291 . S
C271 H284 0.931 . S
C272 C271 1.291 . S
C272 C273 1.373 . S
C272 H285 0.929 . S
C273 C272 1.373 . S
C273 C274 1.396 1_655 S
C273 C280 1.403 . S
C274 C264 1.476 . S
C274 N269 1.318 . S
C274 C273 1.396 1_455 S
H275 C270 0.929 . S
O276 Mn252 2.385 . S
O276 C254 1.234 . S
O277 Mn252 2.209 . S
O277 Mn253 2.215 . S
O277 C254 1.283 . S
O278 Mn252 2.094 . S
O278 C256 1.240 . S
O279 Mn253 2.117 . S
O279 C256 1.264 . S
C280 C273 1.403 . S
C280 C281 1.399 . S
C280 H286 0.929 . S
C281 C261 1.449 1_655 S
C281 C280 1.399 . S
C281 H287 0.930 . S
H282 C262 0.931 . S
H283 C263 0.930 . S
H284 C271 0.931 . S
H285 C272 0.929 . S
H286 C280 0.929 . S
H287 C281 0.930 . S
Mn288 O293 2.095 . S
Mn288 O303 2.162 . S
Mn288 O304 2.297 . S
Mn288 O312 2.385 . S
Mn288 O313 2.209 . S
Mn288 O314 2.094 . S
Mn289 O294 2.121 . S
Mn289 N296 2.257 . S
Mn289 N305 2.282 . S
Mn289 O313 2.215 . S
Mn289 O315 2.117 . S
C290 O312 1.234 . S
C290 O313 1.283 . S
C291 O303 1.281 . S
C291 O304 1.236 . S
C292 O314 1.240 . S
C292 O315 1.264 . S
O293 Mn288 2.095 . S
O293 C302 1.250 . S
O294 Mn289 2.121 . S
O294 C302 1.258 . S
C295 N296 1.326 . S
C295 C299 1.460 . S
C295 H301 0.929 . S
N296 Mn289 2.257 . S
N296 C295 1.326 . S
N296 C300 1.362 . S
C297 C298 1.258 . S
C297 C300 1.431 . S
C297 C317 1.449 . S
C298 C297 1.258 . S
C298 C299 1.477 . S
C298 H318 0.931 . S
C299 C295 1.460 . S
C299 C298 1.477 . S
C299 H319 0.930 . S
C300 N296 1.362 . S
C300 C297 1.431 . S
C300 C310 1.476 . S
H301 C295 0.929 . S
C302 O293 1.250 . S
C302 O294 1.258 . S
O303 Mn288 2.162 . S
O303 C291 1.281 . S
O304 Mn288 2.297 . S
O304 C291 1.236 . S
N305 Mn289 2.282 . S
N305 C306 1.328 . S
N305 C310 1.318 . S
C306 N305 1.328 . S
C306 C307 1.457 . S
C306 H311 0.929 . S
C307 C306 1.457 . S
C307 C308 1.291 . S
C307 H320 0.931 . S
C308 C307 1.291 . S
C308 C309 1.373 . S
C308 H321 0.929 . S
C309 C308 1.373 . S
C309 C310 1.396 . S
C309 C316 1.403 . S
C310 C300 1.476 . S
C310 N305 1.318 . S
C310 C309 1.396 . S
H311 C306 0.929 . S
O312 Mn288 2.385 . S
O312 C290 1.234 . S
O313 Mn288 2.209 . S
O313 Mn289 2.215 . S
O313 C290 1.283 . S
O314 Mn288 2.094 . S
O314 C292 1.240 . S
O315 Mn289 2.117 . S
O315 C292 1.264 . S
C316 C309 1.403 . S
C316 C317 1.399 . S
C316 H322 0.929 . S
C317 C297 1.449 . S
C317 C316 1.399 . S
C317 H323 0.930 . S
H318 C298 0.931 . S
H319 C299 0.930 . S
H320 C307 0.931 . S
H321 C308 0.929 . S
H322 C316 0.929 . S
H323 C317 0.930 . S
Mn324 O329 2.095 . S
Mn324 O339 2.162 . S
Mn324 O340 2.297 . S
Mn324 O348 2.385 . S
Mn324 O349 2.209 . S
Mn324 O350 2.094 . S
Mn325 O330 2.121 . S
Mn325 N332 2.257 . S
Mn325 N341 2.282 . S
Mn325 O349 2.215 . S
Mn325 O351 2.117 . S
C326 O348 1.234 . S
C326 O349 1.283 . S
C327 O339 1.281 . S
C327 O340 1.236 . S
C328 O350 1.240 . S
C328 O351 1.264 . S
O329 Mn324 2.095 . S
O329 C338 1.250 . S
O330 Mn325 2.121 . S
O330 C338 1.258 . S
C331 N332 1.326 . S
C331 C335 1.460 1_545 S
C331 H337 0.929 . S
N332 Mn325 2.257 . S
N332 C331 1.326 . S
N332 C336 1.362 . S
C333 C334 1.258 . S
C333 C336 1.431 1_565 S
C333 C353 1.449 . S
C334 C333 1.258 . S
C334 C335 1.477 . S
C334 H354 0.931 . S
C335 C331 1.460 1_565 S
C335 C334 1.477 . S
C335 H355 0.930 . S
C336 N332 1.362 . S
C336 C333 1.431 1_545 S
C336 C346 1.476 . S
H337 C331 0.929 . S
C338 O329 1.250 . S
C338 O330 1.258 . S
O339 Mn324 2.162 . S
O339 C327 1.281 . S
O340 Mn324 2.297 . S
O340 C327 1.236 . S
N341 Mn325 2.282 . S
N341 C342 1.328 . S
N341 C346 1.318 . S
C342 N341 1.328 . S
C342 C343 1.457 . S
C342 H347 0.929 . S
C343 C342 1.457 . S
C343 C344 1.291 . S
C343 H356 0.931 . S
C344 C343 1.291 . S
C344 C345 1.373 . S
C344 H357 0.929 . S
C345 C344 1.373 . S
C345 C346 1.396 . S
C345 C352 1.403 1_545 S
C346 C336 1.476 . S
C346 N341 1.318 . S
C346 C345 1.396 . S
H347 C342 0.929 . S
O348 Mn324 2.385 . S
O348 C326 1.234 . S
O349 Mn324 2.209 . S
O349 Mn325 2.215 . S
O349 C326 1.283 . S
O350 Mn324 2.094 . S
O350 C328 1.240 . S
O351 Mn325 2.117 . S
O351 C328 1.264 . S
C352 C345 1.403 1_565 S
C352 C353 1.399 . S
C352 H358 0.929 . S
C353 C333 1.449 . S
C353 C352 1.399 . S
C353 H359 0.930 . S
H354 C334 0.931 . S
H355 C335 0.930 . S
H356 C343 0.931 . S
H357 C344 0.929 . S
H358 C352 0.929 . S
H359 C353 0.930 . S
Mn360 O365 2.095 1_545 S
Mn360 O375 2.162 . S
Mn360 O376 2.297 . S
Mn360 O384 2.385 . S
Mn360 O385 2.209 . S
Mn360 O386 2.094 . S
Mn361 O366 2.121 . S
Mn361 N368 2.257 . S
Mn361 N377 2.282 . S
Mn361 O385 2.215 . S
Mn361 O387 2.117 . S
C362 O384 1.234 . S
C362 O385 1.283 . S
C363 O375 1.281 . S
C363 O376 1.236 . S
C364 O386 1.240 . S
C364 O387 1.264 . S
O365 Mn360 2.095 1_565 S
O365 C374 1.250 . S
O366 Mn361 2.121 . S
O366 C374 1.258 1_545 S
C367 N368 1.326 . S
C367 C371 1.460 . S
C367 H373 0.929 . S
N368 Mn361 2.257 . S
N368 C367 1.326 . S
N368 C372 1.362 . S
C369 C370 1.258 . S
C369 C372 1.431 . S
C369 C389 1.449 . S
C370 C369 1.258 . S
C370 C371 1.477 . S
C370 H390 0.931 . S
C371 C367 1.460 . S
C371 C370 1.477 . S
C371 H391 0.930 . S
C372 N368 1.362 . S
C372 C369 1.431 . S
C372 C382 1.476 . S
H373 C367 0.929 . S
C374 O365 1.250 . S
C374 O366 1.258 1_565 S
O375 Mn360 2.162 . S
O375 C363 1.281 . S
O376 Mn360 2.297 . S
O376 C363 1.236 . S
N377 Mn361 2.282 . S
N377 C378 1.328 . S
N377 C382 1.318 . S
C378 N377 1.328 . S
C378 C379 1.457 . S
C378 H383 0.929 . S
C379 C378 1.457 . S
C379 C380 1.291 . S
C379 H392 0.931 . S
C380 C379 1.291 . S
C380 C381 1.373 . S
C380 H393 0.929 . S
C381 C380 1.373 . S
C381 C382 1.396 . S
C381 C388 1.403 . S
C382 C372 1.476 . S
C382 N377 1.318 . S
C382 C381 1.396 . S
H383 C378 0.929 . S
O384 Mn360 2.385 . S
O384 C362 1.234 . S
O385 Mn360 2.209 . S
O385 Mn361 2.215 . S
O385 C362 1.283 . S
O386 Mn360 2.094 . S
O386 C364 1.240 . S
O387 Mn361 2.117 . S
O387 C364 1.264 . S
C388 C381 1.403 . S
C388 C389 1.399 . S
C388 H394 0.929 . S
C389 C369 1.449 . S
C389 C388 1.399 . S
C389 H395 0.930 . S
H390 C370 0.931 . S
H391 C371 0.930 . S
H392 C379 0.931 . S
H393 C380 0.929 . S
H394 C388 0.929 . S
H395 C389 0.930 . S
Mn396 O401 2.095 . S
Mn396 O411 2.162 . S
Mn396 O412 2.297 . S
Mn396 O420 2.385 . S
Mn396 O421 2.209 . S
Mn396 O422 2.094 . S
Mn397 O402 2.121 . S
Mn397 N404 2.257 . S
Mn397 N413 2.282 . S
Mn397 O421 2.215 . S
Mn397 O423 2.117 . S
C398 O420 1.234 . S
C398 O421 1.283 . S
C399 O411 1.281 . S
C399 O412 1.236 . S
C400 O422 1.240 . S
C400 O423 1.264 . S
O401 Mn396 2.095 . S
O401 C410 1.250 . S
O402 Mn397 2.121 . S
O402 C410 1.258 . S
C403 N404 1.326 1_545 S
C403 C407 1.460 . S
C403 H409 0.929 . S
N404 Mn397 2.257 . S
N404 C403 1.326 1_565 S
N404 C408 1.362 1_565 S
C405 C406 1.258 . S
C405 C408 1.431 . S
C405 C425 1.449 . S
C406 C405 1.258 . S
C406 C407 1.477 . S
C406 H426 0.931 . S
C407 C403 1.460 . S
C407 C406 1.477 . S
C407 H427 0.930 . S
C408 N404 1.362 1_545 S
C408 C405 1.431 . S
C408 C418 1.476 1_545 S
H409 C403 0.929 . S
C410 O401 1.250 . S
C410 O402 1.258 . S
O411 Mn396 2.162 . S
O411 C399 1.281 . S
O412 Mn396 2.297 . S
O412 C399 1.236 . S
N413 Mn397 2.282 . S
N413 C414 1.314 1_554 S
N413 C418 1.318 . S
C414 N413 1.314 1_556 S
C414 C415 1.474 . S
C414 H419 0.928 . S
C415 C414 1.474 . S
C415 C416 1.291 . S
C415 H428 0.931 . S
C416 C415 1.291 . S
C416 C417 1.373 1_556 S
C416 H429 0.929 . S
C417 C416 1.373 1_554 S
C417 C418 1.396 . S
C417 C424 1.403 1_565 S
C418 C408 1.476 1_565 S
C418 N413 1.318 . S
C418 C417 1.396 . S
H419 C414 0.928 . S
O420 Mn396 2.385 . S
O420 C398 1.234 . S
O421 Mn396 2.209 . S
O421 Mn397 2.215 . S
O421 C398 1.283 . S
O422 Mn396 2.094 . S
O422 C400 1.240 . S
O423 Mn397 2.117 . S
O423 C400 1.264 . S
C424 C417 1.403 1_545 S
C424 C425 1.399 . S
C424 H430 0.929 . S
C425 C405 1.449 . S
C425 C424 1.399 . S
C425 H431 0.930 . S
H426 C406 0.931 . S
H427 C407 0.930 . S
H428 C415 0.931 . S
H429 C416 0.929 . S
H430 C424 0.929 . S
H431 C425 0.930 . S
Mn432 O437 2.095 . S
Mn432 O447 2.162 . S
Mn432 O448 2.297 . S
Mn432 O456 2.385 . S
Mn432 O457 2.209 . S
Mn432 O458 2.094 . S
Mn433 O438 2.121 . S
Mn433 N440 2.257 . S
Mn433 N449 2.282 . S
Mn433 O457 2.215 . S
Mn433 O459 2.117 . S
C434 O456 1.234 . S
C434 O457 1.283 . S
C435 O447 1.281 . S
C435 O448 1.236 . S
C436 O458 1.240 . S
C436 O459 1.264 . S
O437 Mn432 2.095 . S
O437 C446 1.250 . S
O438 Mn433 2.121 . S
O438 C446 1.258 . S
C439 N440 1.326 . S
C439 C443 1.460 . S
C439 H445 0.929 . S
N440 Mn433 2.257 . S
N440 C439 1.326 . S
N440 C444 1.362 . S
C441 C442 1.258 . S
C441 C444 1.431 . S
C441 C461 1.449 . S
C442 C441 1.258 . S
C442 C443 1.477 . S
C442 H462 0.931 . S
C443 C439 1.460 . S
C443 C442 1.477 . S
C443 H463 0.930 . S
C444 N440 1.362 . S
C444 C441 1.431 . S
C444 C454 1.476 . S
H445 C439 0.929 . S
C446 O437 1.250 . S
C446 O438 1.258 . S
O447 Mn432 2.162 . S
O447 C435 1.281 . S
O448 Mn432 2.297 . S
O448 C435 1.236 . S
N449 Mn433 2.282 . S
N449 C450 1.328 . S
N449 C454 1.318 . S
C450 N449 1.328 . S
C450 C451 1.457 . S
C450 H455 0.929 . S
C451 C450 1.457 . S
C451 C452 1.291 . S
C451 H464 0.931 . S
C452 C451 1.291 . S
C452 C453 1.373 . S
C452 H465 0.929 . S
C453 C452 1.373 . S
C453 C454 1.396 . S
C453 C460 1.403 . S
C454 C444 1.476 . S
C454 N449 1.318 . S
C454 C453 1.396 . S
H455 C450 0.929 . S
O456 Mn432 2.385 . S
O456 C434 1.234 . S
O457 Mn432 2.209 . S
O457 Mn433 2.215 . S
O457 C434 1.283 . S
O458 Mn432 2.094 . S
O458 C436 1.240 . S
O459 Mn433 2.117 . S
O459 C436 1.264 . S
C460 C453 1.403 . S
C460 C461 1.399 . S
C460 H466 0.929 . S
C461 C441 1.449 . S
C461 C460 1.399 . S
C461 H467 0.930 . S
H462 C442 0.931 . S
H463 C443 0.930 . S
H464 C451 0.931 . S
H465 C452 0.929 . S
H466 C460 0.929 . S
H467 C461 0.930 . S
Mn468 O473 2.095 . S
Mn468 O483 2.162 . S
Mn468 O484 2.297 . S
Mn468 O492 2.385 . S
Mn468 O493 2.209 . S
Mn468 O494 2.094 . S
Mn469 O474 2.121 . S
Mn469 N476 2.257 . S
Mn469 N485 2.282 1_554 S
Mn469 O493 2.215 . S
Mn469 O495 2.122 . S
C470 O492 1.234 . S
C470 O493 1.283 . S
C471 O483 1.281 . S
C471 O484 1.236 . S
C472 O494 1.240 . S
C472 O495 1.265 . S
O473 Mn468 2.095 . S
O473 C482 1.250 . S
O474 Mn469 2.121 . S
O474 C482 1.258 . S
C475 N476 1.326 . S
C475 C479 1.460 . S
C475 H481 0.929 . S
N476 Mn469 2.257 . S
N476 C475 1.326 . S
N476 C480 1.362 1_554 S
C477 C478 1.270 . S
C477 C480 1.431 . S
C477 C497 1.449 . S
C478 C477 1.270 . S
C478 C479 1.468 1_556 S
C478 H498 0.929 . S
C479 C475 1.460 . S
C479 C478 1.468 1_554 S
C479 H499 0.930 . S
C480 N476 1.362 1_556 S
C480 C477 1.431 . S
C480 C490 1.476 . S
H481 C475 0.929 . S
C482 O473 1.250 . S
C482 O474 1.258 . S
O483 Mn468 2.162 . S
O483 C471 1.281 . S
O484 Mn468 2.297 . S
O484 C471 1.236 . S
N485 Mn469 2.282 1_556 S
N485 C486 1.328 . S
N485 C490 1.318 . S
C486 N485 1.328 . S
C486 C487 1.457 . S
C486 H491 0.929 . S
C487 C486 1.457 . S
C487 C488 1.291 . S
C487 H500 0.931 . S
C488 C487 1.291 . S
C488 C489 1.373 . S
C488 H501 0.929 . S
C489 C488 1.373 . S
C489 C490 1.396 . S
C489 C496 1.403 . S
C490 C480 1.476 . S
C490 N485 1.318 . S
C490 C489 1.396 . S
H491 C486 0.929 . S
O492 Mn468 2.385 . S
O492 C470 1.234 . S
O493 Mn468 2.209 . S
O493 Mn469 2.215 . S
O493 C470 1.283 . S
O494 Mn468 2.094 . S
O494 C472 1.240 . S
O495 Mn469 2.122 . S
O495 C472 1.265 . S
C496 C489 1.403 . S
C496 C497 1.399 . S
C496 H502 0.929 . S
C497 C477 1.449 . S
C497 C496 1.399 . S
C497 H503 0.930 . S
H498 C478 0.929 . S
H499 C479 0.930 . S
H500 C487 0.931 . S
H501 C488 0.929 . S
H502 C496 0.929 . S
H503 C497 0.930 . S
Mn504 O509 2.095 . S
Mn504 O519 2.162 . S
Mn504 O520 2.297 . S
Mn504 O528 2.385 . S
Mn504 O529 2.209 . S
Mn504 O530 2.094 . S
Mn505 O510 2.121 . S
Mn505 N512 2.257 . S
Mn505 N521 2.282 . S
Mn505 O529 2.215 . S
Mn505 O531 2.117 . S
C506 O528 1.234 . S
C506 O529 1.283 . S
C507 O519 1.281 . S
C507 O520 1.236 . S
C508 O530 1.240 . S
C508 O531 1.264 . S
O509 Mn504 2.095 . S
O509 C518 1.250 . S
O510 Mn505 2.121 . S
O510 C518 1.258 . S
C511 N512 1.326 . S
C511 C515 1.460 . S
C511 H517 0.929 . S
N512 Mn505 2.257 . S
N512 C511 1.326 . S
N512 C516 1.362 . S
C513 C514 1.258 . S
C513 C516 1.431 . S
C513 C533 1.449 . S
C514 C513 1.258 . S
C514 C515 1.477 . S
C514 H534 0.931 . S
C515 C511 1.460 . S
C515 C514 1.477 . S
C515 H535 0.930 . S
C516 N512 1.362 . S
C516 C513 1.431 . S
C516 C526 1.476 . S
H517 C511 0.929 . S
C518 O509 1.250 . S
C518 O510 1.258 . S
O519 Mn504 2.162 . S
O519 C507 1.281 . S
O520 Mn504 2.297 . S
O520 C507 1.236 . S
N521 Mn505 2.282 . S
N521 C522 1.328 . S
N521 C526 1.318 . S
C522 N521 1.328 . S
C522 C523 1.457 . S
C522 H527 0.929 . S
C523 C522 1.457 . S
C523 C524 1.291 . S
C523 H536 0.931 . S
C524 C523 1.291 . S
C524 C525 1.373 . S
C524 H537 0.929 . S
C525 C524 1.373 . S
C525 C526 1.396 . S
C525 C532 1.403 . S
C526 C516 1.476 . S
C526 N521 1.318 . S
C526 C525 1.396 . S
H527 C522 0.929 . S
O528 Mn504 2.385 . S
O528 C506 1.234 . S
O529 Mn504 2.209 . S
O529 Mn505 2.215 . S
O529 C506 1.283 . S
O530 Mn504 2.094 . S
O530 C508 1.240 . S
O531 Mn505 2.117 . S
O531 C508 1.264 . S
C532 C525 1.403 . S
C532 C533 1.399 . S
C532 H538 0.929 . S
C533 C513 1.449 . S
C533 C532 1.399 . S
C533 H539 0.930 . S
H534 C514 0.931 . S
H535 C515 0.930 . S
H536 C523 0.931 . S
H537 C524 0.929 . S
H538 C532 0.929 . S
H539 C533 0.930 . S
Mn540 O545 2.095 1_565 S
Mn540 O555 2.162 . S
Mn540 O556 2.297 1_565 S
Mn540 O564 2.384 . S
Mn540 O565 2.209 1_565 S
Mn540 O566 2.094 . S
Mn541 O546 2.121 . S
Mn541 N548 2.257 . S
Mn541 N557 2.282 . S
Mn541 O565 2.215 . S
Mn541 O567 2.117 1_545 S
C542 O564 1.210 1_545 S
C542 O565 1.283 . S
C543 O555 1.281 . S
C543 O556 1.236 1_565 S
C544 O566 1.240 . S
C544 O567 1.264 . S
O545 Mn540 2.095 1_545 S
O545 C554 1.250 . S
O546 Mn541 2.121 . S
O546 C554 1.258 . S
C547 N548 1.326 . S
C547 C551 1.460 . S
C547 H553 0.929 . S
N548 Mn541 2.257 . S
N548 C547 1.326 . S
N548 C552 1.362 . S
C549 C550 1.258 . S
C549 C552 1.431 . S
C549 C569 1.449 . S
C550 C549 1.258 . S
C550 C551 1.477 . S
C550 H570 0.931 . S
C551 C547 1.460 . S
C551 C550 1.477 . S
C551 H571 0.930 . S
C552 N548 1.362 . S
C552 C549 1.431 . S
C552 C562 1.476 . S
H553 C547 0.929 . S
C554 O545 1.250 . S
C554 O546 1.258 . S
O555 Mn540 2.162 . S
O555 C543 1.281 . S
O556 Mn540 2.297 1_545 S
O556 C543 1.236 1_545 S
N557 Mn541 2.282 . S
N557 C558 1.328 . S
N557 C562 1.318 . S
C558 N557 1.328 . S
C558 C559 1.457 . S
C558 H563 0.929 . S
C559 C558 1.457 . S
C559 C560 1.291 . S
C559 H572 0.931 . S
C560 C559 1.291 . S
C560 C561 1.373 . S
C560 H573 0.929 . S
C561 C560 1.373 . S
C561 C562 1.396 . S
C561 C568 1.403 . S
C562 C552 1.476 . S
C562 N557 1.318 . S
C562 C561 1.396 . S
H563 C558 0.929 . S
O564 Mn540 2.384 . S
O564 C542 1.210 1_565 S
O565 Mn540 2.209 1_545 S
O565 Mn541 2.215 . S
O565 C542 1.283 . S
O566 Mn540 2.094 . S
O566 C544 1.240 . S
O567 Mn541 2.117 1_565 S
O567 C544 1.264 . S
C568 C561 1.403 . S
C568 C569 1.399 . S
C568 H574 0.929 . S
C569 C549 1.449 . S
C569 C568 1.399 . S
C569 H575 0.930 . S
H570 C550 0.931 . S
H571 C551 0.930 . S
H572 C559 0.931 . S
H573 C560 0.929 . S
H574 C568 0.929 . S
H575 C569 0.930 . S
Mn576 O581 2.095 . S
Mn576 O591 2.162 . S
Mn576 O592 2.297 . S
Mn576 O600 2.385 . S
Mn576 O601 2.209 . S
Mn576 O602 2.094 . S
Mn577 O582 2.121 . S
Mn577 N584 2.257 . S
Mn577 N593 2.282 . S
Mn577 O601 2.215 . S
Mn577 O603 2.117 . S
C578 O600 1.234 . S
C578 O601 1.283 . S
C579 O591 1.281 . S
C579 O592 1.236 . S
C580 O602 1.240 . S
C580 O603 1.264 . S
O581 Mn576 2.095 . S
O581 C590 1.250 . S
O582 Mn577 2.121 . S
O582 C590 1.258 . S
C583 N584 1.326 . S
C583 C587 1.460 . S
C583 H589 0.929 . S
N584 Mn577 2.257 . S
N584 C583 1.326 . S
N584 C588 1.362 . S
C585 C586 1.258 . S
C585 C588 1.431 . S
C585 C605 1.449 1_545 S
C586 C585 1.258 . S
C586 C587 1.477 . S
C586 H606 0.931 . S
C587 C583 1.460 . S
C587 C586 1.477 . S
C587 H607 0.930 . S
C588 N584 1.362 . S
C588 C585 1.431 . S
C588 C598 1.476 . S
H589 C583 0.929 . S
C590 O581 1.250 . S
C590 O582 1.258 . S
O591 Mn576 2.162 . S
O591 C579 1.281 . S
O592 Mn576 2.297 . S
O592 C579 1.236 . S
N593 Mn577 2.282 . S
N593 C594 1.328 . S
N593 C598 1.318 . S
C594 N593 1.328 . S
C594 C595 1.447 1_545 S
C594 H599 0.929 . S
C595 C594 1.447 1_565 S
C595 C596 1.294 . S
C595 H608 0.937 . S
C596 C595 1.294 . S
C596 C597 1.373 . S
C596 H609 0.929 . S
C597 C596 1.373 . S
C597 C598 1.396 1_565 S
C597 C604 1.403 . S
C598 C588 1.476 . S
C598 N593 1.318 . S
C598 C597 1.396 1_545 S
H599 C594 0.929 . S
O600 Mn576 2.385 . S
O600 C578 1.234 . S
O601 Mn576 2.209 . S
O601 Mn577 2.215 . S
O601 C578 1.283 . S
O602 Mn576 2.094 . S
O602 C580 1.240 . S
O603 Mn577 2.117 . S
O603 C580 1.264 . S
C604 C597 1.403 . S
C604 C605 1.399 . S
C604 H610 0.929 . S
C605 C585 1.449 1_565 S
C605 C604 1.399 . S
C605 H611 0.930 . S
H606 C586 0.931 . S
H607 C587 0.930 . S
H608 C595 0.937 . S
H609 C596 0.929 . S
H610 C604 0.929 . S
H611 C605 0.930 . S
Mn612 O617 2.095 . S
Mn612 O627 2.162 . S
Mn612 O628 2.297 . S
Mn612 O636 2.385 . S
Mn612 O637 2.209 . S
Mn612 O638 2.094 . S
Mn613 O618 2.121 . S
Mn613 N620 2.257 . S
Mn613 N629 2.282 . S
Mn613 O637 2.215 . S
Mn613 O639 2.117 . S
C614 O636 1.234 . S
C614 O637 1.283 . S
C615 O627 1.281 . S
C615 O628 1.236 . S
C616 O638 1.240 . S
C616 O639 1.264 . S
O617 Mn612 2.095 . S
O617 C626 1.250 . S
O618 Mn613 2.121 . S
O618 C626 1.258 . S
C619 N620 1.326 . S
C619 C623 1.460 . S
C619 H625 0.929 . S
N620 Mn613 2.257 . S
N620 C619 1.326 . S
N620 C624 1.362 . S
C621 C622 1.258 . S
C621 C624 1.431 . S
C621 C641 1.449 . S
C622 C621 1.258 . S
C622 C623 1.477 . S
C622 H642 0.931 . S
C623 C619 1.460 . S
C623 C622 1.477 . S
C623 H643 0.930 . S
C624 N620 1.362 . S
C624 C621 1.431 . S
C624 C634 1.476 . S
H625 C619 0.929 . S
C626 O617 1.250 . S
C626 O618 1.258 . S
O627 Mn612 2.162 . S
O627 C615 1.281 . S
O628 Mn612 2.297 . S
O628 C615 1.236 . S
N629 Mn613 2.282 . S
N629 C630 1.328 . S
N629 C634 1.318 . S
C630 N629 1.328 . S
C630 C631 1.457 . S
C630 H635 0.929 . S
C631 C630 1.457 . S
C631 C632 1.291 . S
C631 H644 0.931 . S
C632 C631 1.291 . S
C632 C633 1.373 . S
C632 H645 0.929 . S
C633 C632 1.373 . S
C633 C634 1.396 . S
C633 C640 1.403 . S
C634 C624 1.476 . S
C634 N629 1.318 . S
C634 C633 1.396 . S
H635 C630 0.929 . S
O636 Mn612 2.385 . S
O636 C614 1.234 . S
O637 Mn612 2.209 . S
O637 Mn613 2.215 . S
O637 C614 1.283 . S
O638 Mn612 2.094 . S
O638 C616 1.240 . S
O639 Mn613 2.117 . S
O639 C616 1.264 . S
C640 C633 1.403 . S
C640 C641 1.399 . S
C640 H646 0.929 . S
C641 C621 1.449 . S
C641 C640 1.399 . S
C641 H647 0.930 . S
H642 C622 0.931 . S
H643 C623 0.930 . S
H644 C631 0.931 . S
H645 C632 0.929 . S
H646 C640 0.929 . S
H647 C641 0.930 . S
Mn648 O653 2.095 . S
Mn648 O663 2.162 . S
Mn648 O664 2.297 . S
Mn648 O672 2.385 . S
Mn648 O673 2.209 . S
Mn648 O674 2.094 . S
Mn649 O654 2.121 . S
Mn649 N656 2.257 . S
Mn649 N665 2.282 . S
Mn649 O673 2.215 . S
Mn649 O675 2.117 . S
C650 O672 1.234 . S
C650 O673 1.283 . S
C651 O663 1.281 . S
C651 O664 1.236 . S
C652 O674 1.240 . S
C652 O675 1.264 . S
O653 Mn648 2.095 . S
O653 C662 1.250 . S
O654 Mn649 2.121 . S
O654 C662 1.258 . S
C655 N656 1.326 . S
C655 C659 1.460 . S
C655 H661 0.929 . S
N656 Mn649 2.257 . S
N656 C655 1.326 . S
N656 C660 1.362 . S
C657 C658 1.258 . S
C657 C660 1.431 . S
C657 C677 1.449 . S
C658 C657 1.258 . S
C658 C659 1.477 . S
C658 H678 0.931 . S
C659 C655 1.460 . S
C659 C658 1.477 . S
C659 H679 0.930 . S
C660 N656 1.362 . S
C660 C657 1.431 . S
C660 C670 1.476 . S
H661 C655 0.929 . S
C662 O653 1.250 . S
C662 O654 1.258 . S
O663 Mn648 2.162 . S
O663 C651 1.281 . S
O664 Mn648 2.297 . S
O664 C651 1.236 . S
N665 Mn649 2.282 . S
N665 C666 1.328 . S
N665 C670 1.318 . S
C666 N665 1.328 . S
C666 C667 1.457 . S
C666 H671 0.929 . S
C667 C666 1.457 . S
C667 C668 1.291 . S
C667 H680 0.931 . S
C668 C667 1.291 . S
C668 C669 1.373 . S
C668 H681 0.929 . S
C669 C668 1.373 . S
C669 C670 1.396 . S
C669 C676 1.403 . S
C670 C660 1.476 . S
C670 N665 1.318 . S
C670 C669 1.396 . S
H671 C666 0.929 . S
O672 Mn648 2.385 . S
O672 C650 1.234 . S
O673 Mn648 2.209 . S
O673 Mn649 2.215 . S
O673 C650 1.283 . S
O674 Mn648 2.094 . S
O674 C652 1.240 . S
O675 Mn649 2.117 . S
O675 C652 1.264 . S
C676 C669 1.403 . S
C676 C677 1.399 . S
C676 H682 0.929 . S
C677 C657 1.449 . S
C677 C676 1.399 . S
C677 H683 0.930 . S
H678 C658 0.931 . S
H679 C659 0.930 . S
H680 C667 0.931 . S
H681 C668 0.929 . S
H682 C676 0.929 . S
H683 C677 0.930 . S
Mn684 O689 2.099 . S
Mn684 O699 2.161 . S
Mn684 O700 2.297 . S
Mn684 O708 2.382 1_565 S
Mn684 O709 2.207 1_565 S
Mn684 O710 2.094 1_565 S
Mn685 O690 2.121 1_545 S
Mn685 N692 2.257 . S
Mn685 N701 2.282 . S
Mn685 O709 2.215 . S
Mn685 O711 2.117 . S
C686 O708 1.234 . S
C686 O709 1.283 . S
C687 O699 1.281 . S
C687 O700 1.236 . S
C688 O710 1.238 . S
C688 O711 1.264 . S
O689 Mn684 2.099 . S
O689 C698 1.250 . S
O690 Mn685 2.121 1_565 S
O690 C698 1.258 . S
C691 N692 1.326 . S
C691 C695 1.460 . S
C691 H697 0.929 1_545 S
N692 Mn685 2.257 . S
N692 C691 1.326 . S
N692 C696 1.362 . S
C693 C694 1.258 . S
C693 C696 1.431 . S
C693 C713 1.449 . S
C694 C693 1.258 . S
C694 C695 1.477 . S
C694 H714 0.931 . S
C695 C691 1.460 . S
C695 C694 1.477 . S
C695 H715 0.930 . S
C696 N692 1.362 . S
C696 C693 1.431 . S
C696 C706 1.476 . S
H697 C691 0.929 1_565 S
C698 O689 1.250 . S
C698 O690 1.258 . S
O699 Mn684 2.161 . S
O699 C687 1.281 . S
O700 Mn684 2.297 . S
O700 C687 1.236 . S
N701 Mn685 2.282 . S
N701 C702 1.328 . S
N701 C706 1.318 . S
C702 N701 1.328 . S
C702 C703 1.457 . S
C702 H707 0.929 . S
C703 C702 1.457 . S
C703 C704 1.291 . S
C703 H716 0.931 . S
C704 C703 1.291 . S
C704 C705 1.373 . S
C704 H717 0.929 . S
C705 C704 1.373 . S
C705 C706 1.396 . S
C705 C712 1.403 . S
C706 C696 1.476 . S
C706 N701 1.318 . S
C706 C705 1.396 . S
H707 C702 0.929 . S
O708 Mn684 2.382 1_545 S
O708 C686 1.234 . S
O709 Mn684 2.207 1_545 S
O709 Mn685 2.215 . S
O709 C686 1.283 . S
O710 Mn684 2.094 1_545 S
O710 C688 1.238 . S
O711 Mn685 2.117 . S
O711 C688 1.264 . S
C712 C705 1.403 . S
C712 C713 1.399 . S
C712 H718 0.929 . S
C713 C693 1.449 . S
C713 C712 1.399 . S
C713 H719 0.930 . S
H714 C694 0.931 . S
H715 C695 0.930 . S
H716 C703 0.931 . S
H717 C704 0.929 . S
H718 C712 0.929 . S
H719 C713 0.930 . S
Mn720 O725 2.095 1_554 S
Mn720 O735 2.162 . S
Mn720 O736 2.297 . S
Mn720 O744 2.386 1_554 S
Mn720 O745 2.209 1_554 S
Mn720 O746 2.094 1_554 S
Mn721 O726 2.121 . S
Mn721 N728 2.257 . S
Mn721 N737 2.282 . S
Mn721 O745 2.215 . S
Mn721 O747 2.117 . S
C722 O744 1.234 . S
C722 O745 1.283 . S
C723 O735 1.281 . S
C723 O736 1.236 . S
C724 O746 1.240 . S
C724 O747 1.264 . S
O725 Mn720 2.095 1_556 S
O725 C734 1.250 . S
O726 Mn721 2.121 . S
O726 C734 1.258 . S
C727 N728 1.326 . S
C727 C731 1.460 . S
C727 H733 0.929 . S
N728 Mn721 2.257 . S
N728 C727 1.326 . S
N728 C732 1.362 . S
C729 C730 1.258 . S
C729 C732 1.431 . S
C729 C749 1.449 . S
C730 C729 1.258 . S
C730 C731 1.477 . S
C730 H750 0.931 . S
C731 C727 1.460 . S
C731 C730 1.477 . S
C731 H751 0.930 . S
C732 N728 1.362 . S
C732 C729 1.431 . S
C732 C742 1.476 . S
H733 C727 0.929 . S
C734 O725 1.250 . S
C734 O726 1.258 . S
O735 Mn720 2.162 . S
O735 C723 1.281 . S
O736 Mn720 2.297 . S
O736 C723 1.236 . S
N737 Mn721 2.282 . S
N737 C738 1.328 . S
N737 C742 1.318 . S
C738 N737 1.328 . S
C738 C739 1.457 . S
C738 H743 0.929 . S
C739 C738 1.457 . S
C739 C740 1.291 . S
C739 H752 0.931 . S
C740 C739 1.291 . S
C740 C741 1.373 . S
C740 H753 0.929 . S
C741 C740 1.373 . S
C741 C742 1.396 . S
C741 C748 1.403 . S
C742 C732 1.476 . S
C742 N737 1.318 . S
C742 C741 1.396 . S
H743 C738 0.929 . S
O744 Mn720 2.386 1_556 S
O744 C722 1.234 . S
O745 Mn720 2.209 1_556 S
O745 Mn721 2.215 . S
O745 C722 1.283 . S
O746 Mn720 2.094 1_556 S
O746 C724 1.240 . S
O747 Mn721 2.117 . S
O747 C724 1.264 . S
C748 C741 1.403 . S
C748 C749 1.399 . S
C748 H754 0.929 . S
C749 C729 1.449 . S
C749 C748 1.399 . S
C749 H755 0.930 . S
H750 C730 0.931 . S
H751 C731 0.930 . S
H752 C739 0.931 . S
H753 C740 0.929 . S
H754 C748 0.929 . S
H755 C749 0.930 . S
Mn756 O761 2.095 . S
Mn756 O771 2.162 1_655 S
Mn756 O772 2.297 . S
Mn756 O780 2.385 . S
Mn756 O781 2.209 . S
Mn756 O782 2.094 1_655 S
Mn757 O762 2.121 . S
Mn757 N764 2.257 . S
Mn757 N773 2.282 . S
Mn757 O781 2.215 . S
Mn757 O783 2.117 . S
C758 O780 1.234 . S
C758 O781 1.283 . S
C759 O771 1.276 1_655 S
C759 O772 1.244 . S
C760 O782 1.240 . S
C760 O783 1.264 1_455 S
O761 Mn756 2.095 . S
O761 C770 1.250 . S
O762 Mn757 2.121 . S
O762 C770 1.258 . S
C763 N764 1.326 . S
C763 C767 1.460 . S
C763 H769 0.929 . S
N764 Mn757 2.257 . S
N764 C763 1.326 . S
N764 C768 1.362 . S
C765 C766 1.258 . S
C765 C768 1.431 . S
C765 C785 1.449 . S
C766 C765 1.258 . S
C766 C767 1.477 . S
C766 H786 0.931 . S
C767 C763 1.460 . S
C767 C766 1.477 . S
C767 H787 0.930 . S
C768 N764 1.362 . S
C768 C765 1.431 . S
C768 C778 1.476 . S
H769 C763 0.929 . S
C770 O761 1.250 . S
C770 O762 1.258 . S
O771 Mn756 2.162 1_455 S
O771 C759 1.276 1_455 S
O772 Mn756 2.297 . S
O772 C759 1.244 . S
N773 Mn757 2.282 . S
N773 C774 1.328 . S
N773 C778 1.318 . S
C774 N773 1.328 . S
C774 C775 1.457 . S
C774 H779 0.929 . S
C775 C774 1.457 . S
C775 C776 1.291 . S
C775 H788 0.931 . S
C776 C775 1.291 . S
C776 C777 1.373 . S
C776 H789 0.929 . S
C777 C776 1.373 . S
C777 C778 1.396 . S
C777 C784 1.403 . S
C778 C768 1.476 . S
C778 N773 1.318 . S
C778 C777 1.396 . S
H779 C774 0.929 . S
O780 Mn756 2.385 . S
O780 C758 1.234 . S
O781 Mn756 2.209 . S
O781 Mn757 2.215 . S
O781 C758 1.283 . S
O782 Mn756 2.094 1_455 S
O782 C760 1.240 . S
O783 Mn757 2.117 . S
O783 C760 1.264 1_655 S
C784 C777 1.403 . S
C784 C785 1.399 . S
C784 H790 0.929 . S
C785 C765 1.449 . S
C785 C784 1.399 . S
C785 H791 0.930 . S
H786 C766 0.931 . S
H787 C767 0.930 . S
H788 C775 0.931 . S
H789 C776 0.929 . S
H790 C784 0.929 . S
H791 C785 0.930 . S
Mn792 O797 2.095 . S
Mn792 O807 2.162 . S
Mn792 O808 2.297 . S
Mn792 O816 2.385 . S
Mn792 O817 2.209 . S
Mn792 O818 2.094 . S
Mn793 O798 2.121 . S
Mn793 N800 2.257 . S
Mn793 N809 2.282 . S
Mn793 O817 2.215 . S
Mn793 O819 2.117 . S
C794 O816 1.234 . S
C794 O817 1.283 . S
C795 O807 1.281 . S
C795 O808 1.236 . S
C796 O818 1.240 . S
C796 O819 1.264 . S
O797 Mn792 2.095 . S
O797 C806 1.250 . S
O798 Mn793 2.121 . S
O798 C806 1.258 . S
C799 N800 1.326 . S
C799 C803 1.460 . S
C799 H805 0.929 . S
N800 Mn793 2.257 . S
N800 C799 1.326 . S
N800 C804 1.362 . S
C801 C802 1.258 . S
C801 C804 1.431 . S
C801 C821 1.449 . S
C802 C801 1.258 . S
C802 C803 1.477 . S
C802 H822 0.931 . S
C803 C799 1.460 . S
C803 C802 1.477 . S
C803 H823 0.930 . S
C804 N800 1.362 . S
C804 C801 1.431 . S
C804 C814 1.476 . S
H805 C799 0.929 . S
C806 O797 1.250 . S
C806 O798 1.258 . S
O807 Mn792 2.162 . S
O807 C795 1.281 . S
O808 Mn792 2.297 . S
O808 C795 1.236 . S
N809 Mn793 2.282 . S
N809 C810 1.328 . S
N809 C814 1.318 . S
C810 N809 1.328 . S
C810 C811 1.457 . S
C810 H815 0.929 . S
C811 C810 1.457 . S
C811 C812 1.291 . S
C811 H824 0.931 . S
C812 C811 1.291 . S
C812 C813 1.373 . S
C812 H825 0.929 . S
C813 C812 1.373 . S
C813 C814 1.396 . S
C813 C820 1.403 . S
C814 C804 1.476 . S
C814 N809 1.318 . S
C814 C813 1.396 . S
H815 C810 0.929 . S
O816 Mn792 2.385 . S
O816 C794 1.234 . S
O817 Mn792 2.209 . S
O817 Mn793 2.215 . S
O817 C794 1.283 . S
O818 Mn792 2.094 . S
O818 C796 1.240 . S
O819 Mn793 2.117 . S
O819 C796 1.264 . S
C820 C813 1.403 . S
C820 C821 1.399 . S
C820 H826 0.929 . S
C821 C801 1.449 . S
C821 C820 1.399 . S
C821 H827 0.930 . S
H822 C802 0.931 . S
H823 C803 0.930 . S
H824 C811 0.931 . S
H825 C812 0.929 . S
H826 C820 0.929 . S
H827 C821 0.930 . S
Mn828 O833 2.095 . S
Mn828 O843 2.162 . S
Mn828 O844 2.297 . S
Mn828 O852 2.385 . S
Mn828 O853 2.209 . S
Mn828 O854 2.094 . S
Mn829 O834 2.121 . S
Mn829 N836 2.257 . S
Mn829 N845 2.282 . S
Mn829 O853 2.215 . S
Mn829 O855 2.117 . S
C830 O852 1.234 . S
C830 O853 1.283 . S
C831 O843 1.281 . S
C831 O844 1.236 . S
C832 O854 1.240 . S
C832 O855 1.264 . S
O833 Mn828 2.095 . S
O833 C842 1.250 . S
O834 Mn829 2.121 . S
O834 C842 1.258 . S
C835 N836 1.326 . S
C835 C839 1.460 . S
C835 H841 0.929 . S
N836 Mn829 2.257 . S
N836 C835 1.326 . S
N836 C840 1.362 . S
C837 C838 1.258 . S
C837 C840 1.431 . S
C837 C857 1.449 . S
C838 C837 1.258 . S
C838 C839 1.477 . S
C838 H858 0.931 . S
C839 C835 1.460 . S
C839 C838 1.477 . S
C839 H859 0.930 . S
C840 N836 1.362 . S
C840 C837 1.431 . S
C840 C850 1.476 . S
H841 C835 0.929 . S
C842 O833 1.250 . S
C842 O834 1.258 . S
O843 Mn828 2.162 . S
O843 C831 1.281 . S
O844 Mn828 2.297 . S
O844 C831 1.236 . S
N845 Mn829 2.282 . S
N845 C846 1.328 . S
N845 C850 1.318 . S
C846 N845 1.328 . S
C846 C847 1.457 . S
C846 H851 0.929 . S
C847 C846 1.457 . S
C847 C848 1.291 . S
C847 H860 0.931 . S
C848 C847 1.291 . S
C848 C849 1.373 . S
C848 H861 0.929 . S
C849 C848 1.373 . S
C849 C850 1.396 . S
C849 C856 1.403 . S
C850 C840 1.476 . S
C850 N845 1.318 . S
C850 C849 1.396 . S
H851 C846 0.929 . S
O852 Mn828 2.385 . S
O852 C830 1.234 . S
O853 Mn828 2.209 . S
O853 Mn829 2.215 . S
O853 C830 1.283 . S
O854 Mn828 2.094 . S
O854 C832 1.240 . S
O855 Mn829 2.117 . S
O855 C832 1.264 . S
C856 C849 1.403 . S
C856 C857 1.399 . S
C856 H862 0.929 . S
C857 C837 1.449 . S
C857 C856 1.399 . S
C857 H863 0.930 . S
H858 C838 0.931 . S
H859 C839 0.930 . S
H860 C847 0.931 . S
H861 C848 0.929 . S
H862 C856 0.929 . S
H863 C857 0.930 . S
Nd864 C866 2.836 . S
Nd864 O884 2.500 . S
Nd864 O885 2.492 . S
Nd864 O886 2.487 . S
Nd864 O887 2.682 . S
Nd864 O888 2.410 . S
Nd864 O893 2.414 . S
Nd864 O895 2.424 . S
Nd865 C875 2.836 1_545 S
Nd865 O887 2.414 . S
Nd865 O889 2.424 1_455 S
Nd865 O890 2.500 1_545 S
Nd865 O891 2.492 1_545 S
Nd865 O892 2.487 . S
Nd865 O893 2.682 . S
Nd865 O894 2.410 . S
C866 Nd864 2.836 . S
C866 C867 1.498 . S
C866 O884 1.258 . S
C866 O885 1.239 . S
C867 C866 1.498 . S
C867 C868 1.366 . S
C867 C872 1.407 . S
C868 C867 1.366 . S
C868 C869 1.392 . S
C868 H896 0.930 . S
C869 C868 1.392 . S
C869 C870 1.398 . S
C869 H897 0.929 . S
C870 C869 1.398 . S
C870 C871 1.352 . S
C871 C870 1.352 . S
C871 C872 1.384 . S
C871 H898 0.930 . S
C872 C867 1.407 . S
C872 C871 1.384 . S
C872 H899 0.929 . S
C873 O886 1.241 . S
C873 O887 1.273 . S
C874 O888 1.251 . S
C874 O889 1.268 1_455 S
C875 Nd865 2.836 1_565 S
C875 C876 1.498 . S
C875 O890 1.258 . S
C875 O891 1.239 . S
C876 C875 1.498 . S
C876 C877 1.366 . S
C876 C881 1.407 . S
C877 C876 1.366 . S
C877 C878 1.392 . S
C877 H900 0.930 . S
C878 C877 1.392 . S
C878 C879 1.398 . S
C878 H901 0.929 . S
C879 C878 1.398 . S
C879 C880 1.352 . S
C880 C879 1.352 . S
C880 C881 1.384 . S
C880 H902 0.930 . S
C881 C876 1.407 . S
C881 C880 1.384 . S
C881 H903 0.929 . S
C882 O892 1.241 . S
C882 O893 1.273 . S
C883 O894 1.251 . S
C883 O895 1.268 . S
O884 Nd864 2.500 . S
O884 C866 1.258 . S
O885 Nd864 2.492 . S
O885 C866 1.239 . S
O886 Nd864 2.487 . S
O886 C873 1.241 . S
O887 Nd864 2.682 . S
O887 Nd865 2.414 . S
O887 C873 1.273 . S
O888 Nd864 2.410 . S
O888 C874 1.251 . S
O889 Nd865 2.424 1_655 S
O889 C874 1.268 1_655 S
O890 Nd865 2.500 1_565 S
O890 C875 1.258 . S
O891 Nd865 2.492 1_565 S
O891 C875 1.239 . S
O892 Nd865 2.487 . S
O892 C882 1.241 . S
O893 Nd864 2.414 . S
O893 Nd865 2.682 . S
O893 C882 1.273 . S
O894 Nd865 2.410 . S
O894 C883 1.251 . S
O895 Nd864 2.424 . S
O895 C883 1.268 . S
H896 C868 0.930 . S
H897 C869 0.929 . S
H898 C871 0.930 . S
H899 C872 0.929 . S
H900 C877 0.930 . S
H901 C878 0.929 . S
H902 C880 0.930 . S
H903 C881 0.929 . S
Nd904 C906 2.836 . S
Nd904 O924 2.500 . S
Nd904 O925 2.492 . S
Nd904 O926 2.487 . S
Nd904 O927 2.682 . S
Nd904 O928 2.410 . S
Nd904 O933 2.414 . S
Nd904 O935 2.424 . S
Nd905 C915 2.836 . S
Nd905 O927 2.414 . S
Nd905 O929 2.424 . S
Nd905 O930 2.500 . S
Nd905 O931 2.492 . S
Nd905 O932 2.487 . S
Nd905 O933 2.682 . S
Nd905 O934 2.410 . S
C906 Nd904 2.836 . S
C906 C907 1.498 . S
C906 O924 1.258 . S
C906 O925 1.239 . S
C907 C906 1.498 . S
C907 C908 1.366 . S
C907 C912 1.407 . S
C908 C907 1.366 . S
C908 C909 1.392 . S
C908 H936 0.930 . S
C909 C908 1.392 . S
C909 C910 1.397 . S
C909 H937 0.929 . S
C910 C909 1.397 . S
C910 C911 1.351 . S
C911 C910 1.351 . S
C911 C912 1.384 . S
C911 H938 0.930 1_565 S
C912 C907 1.407 . S
C912 C911 1.384 . S
C912 H939 0.929 . S
C913 O926 1.241 . S
C913 O927 1.273 . S
C914 O928 1.251 . S
C914 O929 1.268 . S
C915 Nd905 2.836 . S
C915 C916 1.498 . S
C915 O930 1.258 . S
C915 O931 1.239 . S
C916 C915 1.498 . S
C916 C917 1.366 . S
C916 C921 1.407 . S
C917 C916 1.366 . S
C917 C918 1.392 . S
C917 H940 0.930 . S
C918 C917 1.392 . S
C918 C919 1.398 . S
C918 H941 0.929 . S
C919 C918 1.398 . S
C919 C920 1.352 . S
C920 C919 1.352 . S
C920 C921 1.384 . S
C920 H942 0.930 . S
C921 C916 1.407 . S
C921 C920 1.384 . S
C921 H943 0.929 . S
C922 O932 1.241 . S
C922 O933 1.273 . S
C923 O934 1.251 . S
C923 O935 1.268 . S
O924 Nd904 2.500 . S
O924 C906 1.258 . S
O925 Nd904 2.492 . S
O925 C906 1.239 . S
O926 Nd904 2.487 . S
O926 C913 1.241 . S
O927 Nd904 2.682 . S
O927 Nd905 2.414 . S
O927 C913 1.273 . S
O928 Nd904 2.410 . S
O928 C914 1.251 . S
O929 Nd905 2.424 . S
O929 C914 1.268 . S
O930 Nd905 2.500 . S
O930 C915 1.258 . S
O931 Nd905 2.492 . S
O931 C915 1.239 . S
O932 Nd905 2.487 . S
O932 C922 1.241 . S
O933 Nd904 2.414 . S
O933 Nd905 2.682 . S
O933 C922 1.273 . S
O934 Nd905 2.410 . S
O934 C923 1.251 . S
O935 Nd904 2.424 . S
O935 C923 1.268 . S
H936 C908 0.930 . S
H937 C909 0.929 . S
H938 C911 0.930 1_545 S
H939 C912 0.929 . S
H940 C917 0.930 . S
H941 C918 0.929 . S
H942 C920 0.930 . S
H943 C921 0.929 . S
Nd944 C946 2.836 . S
Nd944 O964 2.500 . S
Nd944 O965 2.492 . S
Nd944 O966 2.487 . S
Nd944 O967 2.682 . S
Nd944 O968 2.410 . S
Nd944 O973 2.414 . S
Nd944 O975 2.424 . S
Nd945 C955 2.836 . S
Nd945 O967 2.414 . S
Nd945 O969 2.424 . S
Nd945 O970 2.500 . S
Nd945 O971 2.492 . S
Nd945 O972 2.487 . S
Nd945 O973 2.682 . S
Nd945 O974 2.410 . S
C946 Nd944 2.836 . S
C946 C947 1.498 . S
C946 O964 1.258 . S
C946 O965 1.239 . S
C947 C946 1.498 . S
C947 C948 1.366 . S
C947 C952 1.407 . S
C948 C947 1.366 . S
C948 C949 1.392 . S
C948 H976 0.930 . S
C949 C948 1.392 . S
C949 C950 1.398 . S
C949 H977 0.929 . S
C950 C949 1.398 . S
C950 C951 1.352 . S
C951 C950 1.352 . S
C951 C952 1.384 . S
C951 H978 0.930 . S
C952 C947 1.407 . S
C952 C951 1.384 . S
C952 H979 0.929 . S
C953 O966 1.241 . S
C953 O967 1.273 . S
C954 O968 1.251 . S
C954 O969 1.268 . S
C955 Nd945 2.836 . S
C955 C956 1.498 . S
C955 O970 1.258 . S
C955 O971 1.239 . S
C956 C955 1.498 . S
C956 C957 1.366 . S
C956 C961 1.407 . S
C957 C956 1.366 . S
C957 C958 1.392 . S
C957 H980 0.930 . S
C958 C957 1.392 . S
C958 C959 1.398 . S
C958 H981 0.929 . S
C959 C958 1.398 . S
C959 C960 1.352 . S
C960 C959 1.352 . S
C960 C961 1.384 . S
C960 H982 0.930 . S
C961 C956 1.407 . S
C961 C960 1.384 . S
C961 H983 0.929 . S
C962 O972 1.241 . S
C962 O973 1.273 . S
C963 O974 1.251 . S
C963 O975 1.268 . S
O964 Nd944 2.500 . S
O964 C946 1.258 . S
O965 Nd944 2.492 . S
O965 C946 1.239 . S
O966 Nd944 2.487 . S
O966 C953 1.241 . S
O967 Nd944 2.682 . S
O967 Nd945 2.414 . S
O967 C953 1.273 . S
O968 Nd944 2.410 . S
O968 C954 1.251 . S
O969 Nd945 2.424 . S
O969 C954 1.268 . S
O970 Nd945 2.500 . S
O970 C955 1.258 . S
O971 Nd945 2.492 . S
O971 C955 1.239 . S
O972 Nd945 2.487 . S
O972 C962 1.241 . S
O973 Nd944 2.414 . S
O973 Nd945 2.682 . S
O973 C962 1.273 . S
O974 Nd945 2.410 . S
O974 C963 1.251 . S
O975 Nd944 2.424 . S
O975 C963 1.268 . S
H976 C948 0.930 . S
H977 C949 0.929 . S
H978 C951 0.930 . S
H979 C952 0.929 . S
H980 C957 0.930 . S
H981 C958 0.929 . S
H982 C960 0.930 . S
H983 C961 0.929 . S
Nd984 C986 2.836 . S
Nd984 O1004 2.500 . S
Nd984 O1005 2.492 . S
Nd984 O1006 2.487 . S
Nd984 O1007 2.682 . S
Nd984 O1008 2.410 . S
Nd984 O1013 2.414 . S
Nd984 O1015 2.424 . S
Nd985 C995 2.836 . S
Nd985 O1007 2.414 . S
Nd985 O1009 2.424 . S
Nd985 O1010 2.500 . S
Nd985 O1011 2.492 . S
Nd985 O1012 2.487 . S
Nd985 O1013 2.682 . S
Nd985 O1014 2.410 . S
C986 Nd984 2.836 . S
C986 C987 1.498 . S
C986 O1004 1.258 . S
C986 O1005 1.239 . S
C987 C986 1.498 . S
C987 C988 1.366 . S
C987 C992 1.407 . S
C988 C987 1.366 . S
C988 C989 1.392 1_556 S
C988 H1016 0.930 . S
C989 C988 1.392 1_554 S
C989 C990 1.398 . S
C989 H1017 0.929 . S
C990 C989 1.398 . S
C990 C991 1.352 . S
C991 C990 1.352 . S
C991 C992 1.384 1_554 S
C991 H1018 0.930 . S
C992 C987 1.407 . S
C992 C991 1.384 1_556 S
C992 H1019 0.929 . S
C993 O1006 1.241 . S
C993 O1007 1.273 . S
C994 O1008 1.251 . S
C994 O1009 1.268 . S
C995 Nd985 2.836 . S
C995 C996 1.498 . S
C995 O1010 1.258 . S
C995 O1011 1.239 . S
C996 C995 1.498 . S
C996 C997 1.366 . S
C996 C1001 1.407 . S
C997 C996 1.366 . S
C997 C998 1.392 . S
C997 H1020 0.930 . S
C998 C997 1.392 . S
C998 C999 1.398 . S
C998 H1021 0.929 . S
C999 C998 1.398 . S
C999 C1000 1.352 . S
C1000 C999 1.352 . S
C1000 C1001 1.384 . S
C1000 H1022 0.930 . S
C1001 C996 1.407 . S
C1001 C1000 1.384 . S
C1001 H1023 0.929 . S
C1002 O1012 1.241 . S
C1002 O1013 1.273 . S
C1003 O1014 1.251 . S
C1003 O1015 1.268 . S
O1004 Nd984 2.500 . S
O1004 C986 1.258 . S
O1005 Nd984 2.492 . S
O1005 C986 1.239 . S
O1006 Nd984 2.487 . S
O1006 C993 1.241 . S
O1007 Nd984 2.682 . S
O1007 Nd985 2.414 . S
O1007 C993 1.273 . S
O1008 Nd984 2.410 . S
O1008 C994 1.251 . S
O1009 Nd985 2.424 . S
O1009 C994 1.268 . S
O1010 Nd985 2.500 . S
O1010 C995 1.258 . S
O1011 Nd985 2.492 . S
O1011 C995 1.239 . S
O1012 Nd985 2.487 . S
O1012 C1002 1.241 . S
O1013 Nd984 2.414 . S
O1013 Nd985 2.682 . S
O1013 C1002 1.273 . S
O1014 Nd985 2.410 . S
O1014 C1003 1.251 . S
O1015 Nd984 2.424 . S
O1015 C1003 1.268 . S
H1016 C988 0.930 . S
H1017 C989 0.929 . S
H1018 C991 0.930 . S
H1019 C992 0.929 . S
H1020 C997 0.930 . S
H1021 C998 0.929 . S
H1022 C1000 0.930 . S
H1023 C1001 0.929 . S
Nd1024 C1026 2.836 . S
Nd1024 O1044 2.500 . S
Nd1024 O1045 2.492 . S
Nd1024 O1046 2.487 . S
Nd1024 O1047 2.682 . S
Nd1024 O1048 2.410 . S
Nd1024 O1053 2.414 . S
Nd1024 O1055 2.424 . S
Nd1025 C1035 2.836 1_545 S
Nd1025 O1047 2.414 . S
Nd1025 O1049 2.424 . S
Nd1025 O1050 2.500 1_545 S
Nd1025 O1051 2.492 1_545 S
Nd1025 O1052 2.487 1_455 S
Nd1025 O1053 2.682 . S
Nd1025 O1054 2.410 . S
C1026 Nd1024 2.836 . S
C1026 C1027 1.498 . S
C1026 O1044 1.258 . S
C1026 O1045 1.239 . S
C1027 C1026 1.498 . S
C1027 C1028 1.366 . S
C1027 C1032 1.407 . S
C1028 C1027 1.366 . S
C1028 C1029 1.392 . S
C1028 H1056 0.930 . S
C1029 C1028 1.392 . S
C1029 C1030 1.398 . S
C1029 H1057 0.929 1_455 S
C1030 C1029 1.398 . S
C1030 C1031 1.352 . S
C1031 C1030 1.352 . S
C1031 C1032 1.384 . S
C1031 H1058 0.930 . S
C1032 C1027 1.407 . S
C1032 C1031 1.384 . S
C1032 H1059 0.929 . S
C1033 O1046 1.241 . S
C1033 O1047 1.273 . S
C1034 O1048 1.251 . S
C1034 O1049 1.268 . S
C1035 Nd1025 2.836 1_565 S
C1035 C1036 1.498 . S
C1035 O1050 1.258 . S
C1035 O1051 1.239 . S
C1036 C1035 1.498 . S
C1036 C1037 1.366 . S
C1036 C1041 1.407 . S
C1037 C1036 1.366 . S
C1037 C1038 1.392 . S
C1037 H1060 0.930 . S
C1038 C1037 1.392 . S
C1038 C1039 1.398 . S
C1038 H1061 0.929 . S
C1039 C1038 1.398 . S
C1039 C1040 1.352 . S
C1040 C1039 1.352 . S
C1040 C1041 1.384 . S
C1040 H1062 0.930 . S
C1041 C1036 1.407 . S
C1041 C1040 1.384 . S
C1041 H1063 0.929 . S
C1042 O1052 1.241 1_455 S
C1042 O1053 1.273 . S
C1043 O1054 1.251 . S
C1043 O1055 1.268 . S
O1044 Nd1024 2.500 . S
O1044 C1026 1.258 . S
O1045 Nd1024 2.492 . S
O1045 C1026 1.239 . S
O1046 Nd1024 2.487 . S
O1046 C1033 1.241 . S
O1047 Nd1024 2.682 . S
O1047 Nd1025 2.414 . S
O1047 C1033 1.273 . S
O1048 Nd1024 2.410 . S
O1048 C1034 1.251 . S
O1049 Nd1025 2.424 . S
O1049 C1034 1.268 . S
O1050 Nd1025 2.500 1_565 S
O1050 C1035 1.258 . S
O1051 Nd1025 2.492 1_565 S
O1051 C1035 1.239 . S
O1052 Nd1025 2.487 1_655 S
O1052 C1042 1.241 1_655 S
O1053 Nd1024 2.414 . S
O1053 Nd1025 2.682 . S
O1053 C1042 1.273 . S
O1054 Nd1025 2.410 . S
O1054 C1043 1.251 . S
O1055 Nd1024 2.424 . S
O1055 C1043 1.268 . S
H1056 C1028 0.930 . S
H1057 C1029 0.929 1_655 S
H1058 C1031 0.930 . S
H1059 C1032 0.929 . S
H1060 C1037 0.930 . S
H1061 C1038 0.929 . S
H1062 C1040 0.930 . S
H1063 C1041 0.929 . S
Nd1064 C1066 2.836 . S
Nd1064 O1084 2.500 . S
Nd1064 O1085 2.492 . S
Nd1064 O1086 2.487 . S
Nd1064 O1087 2.682 . S
Nd1064 O1088 2.410 . S
Nd1064 O1093 2.414 . S
Nd1064 O1095 2.424 . S
Nd1065 C1075 2.836 . S
Nd1065 O1087 2.414 . S
Nd1065 O1089 2.424 . S
Nd1065 O1090 2.500 . S
Nd1065 O1091 2.492 . S
Nd1065 O1092 2.487 . S
Nd1065 O1093 2.682 . S
Nd1065 O1094 2.410 . S
C1066 Nd1064 2.836 . S
C1066 C1067 1.498 . S
C1066 O1084 1.258 . S
C1066 O1085 1.239 . S
C1067 C1066 1.498 . S
C1067 C1068 1.366 . S
C1067 C1072 1.407 . S
C1068 C1067 1.366 . S
C1068 C1069 1.392 . S
C1068 H1096 0.930 . S
C1069 C1068 1.392 . S
C1069 C1070 1.398 . S
C1069 H1097 0.929 . S
C1070 C1069 1.398 . S
C1070 C1071 1.352 . S
C1071 C1070 1.352 . S
C1071 C1072 1.384 . S
C1071 H1098 0.930 . S
C1072 C1067 1.407 . S
C1072 C1071 1.384 . S
C1072 H1099 0.929 . S
C1073 O1086 1.241 . S
C1073 O1087 1.273 . S
C1074 O1088 1.251 . S
C1074 O1089 1.268 . S
C1075 Nd1065 2.836 . S
C1075 C1076 1.498 . S
C1075 O1090 1.258 . S
C1075 O1091 1.239 . S
C1076 C1075 1.498 . S
C1076 C1077 1.366 . S
C1076 C1081 1.407 . S
C1077 C1076 1.366 . S
C1077 C1078 1.392 . S
C1077 H1100 0.930 . S
C1078 C1077 1.392 . S
C1078 C1079 1.398 . S
C1078 H1101 0.929 . S
C1079 C1078 1.398 . S
C1079 C1080 1.352 . S
C1080 C1079 1.352 . S
C1080 C1081 1.384 . S
C1080 H1102 0.930 . S
C1081 C1076 1.407 . S
C1081 C1080 1.384 . S
C1081 H1103 0.929 . S
C1082 O1092 1.241 . S
C1082 O1093 1.273 . S
C1083 O1094 1.251 . S
C1083 O1095 1.268 . S
O1084 Nd1064 2.500 . S
O1084 C1066 1.258 . S
O1085 Nd1064 2.492 . S
O1085 C1066 1.239 . S
O1086 Nd1064 2.487 . S
O1086 C1073 1.241 . S
O1087 Nd1064 2.682 . S
O1087 Nd1065 2.414 . S
O1087 C1073 1.273 . S
O1088 Nd1064 2.410 . S
O1088 C1074 1.251 . S
O1089 Nd1065 2.424 . S
O1089 C1074 1.268 . S
O1090 Nd1065 2.500 . S
O1090 C1075 1.258 . S
O1091 Nd1065 2.492 . S
O1091 C1075 1.239 . S
O1092 Nd1065 2.487 . S
O1092 C1082 1.241 . S
O1093 Nd1064 2.414 . S
O1093 Nd1065 2.682 . S
O1093 C1082 1.273 . S
O1094 Nd1065 2.410 . S
O1094 C1083 1.251 . S
O1095 Nd1064 2.424 . S
O1095 C1083 1.268 . S
H1096 C1068 0.930 . S
H1097 C1069 0.929 . S
H1098 C1071 0.930 . S
H1099 C1072 0.929 . S
H1100 C1077 0.930 . S
H1101 C1078 0.929 . S
H1102 C1080 0.930 . S
H1103 C1081 0.929 . S
Nd1104 C1106 2.836 . S
Nd1104 O1124 2.500 . S
Nd1104 O1125 2.492 . S
Nd1104 O1126 2.487 . S
Nd1104 O1127 2.682 . S
Nd1104 O1128 2.410 . S
Nd1104 O1133 2.414 . S
Nd1104 O1135 2.424 . S
Nd1105 C1115 2.836 . S
Nd1105 O1127 2.414 . S
Nd1105 O1129 2.424 . S
Nd1105 O1130 2.500 . S
Nd1105 O1131 2.492 . S
Nd1105 O1132 2.487 . S
Nd1105 O1133 2.682 . S
Nd1105 O1134 2.410 . S
C1106 Nd1104 2.836 . S
C1106 C1107 1.498 . S
C1106 O1124 1.258 . S
C1106 O1125 1.239 . S
C1107 C1106 1.498 . S
C1107 C1108 1.366 . S
C1107 C1112 1.407 1_545 S
C1108 C1107 1.366 . S
C1108 C1109 1.392 . S
C1108 H1136 0.930 . S
C1109 C1108 1.392 . S
C1109 C1110 1.398 . S
C1109 H1137 0.929 . S
C1110 C1109 1.398 . S
C1110 C1111 1.352 1_545 S
C1111 C1110 1.352 1_565 S
C1111 C1112 1.384 . S
C1111 H1138 0.930 . S
C1112 C1107 1.407 1_565 S
C1112 C1111 1.384 . S
C1112 H1139 0.929 . S
C1113 O1126 1.241 . S
C1113 O1127 1.273 . S
C1114 O1128 1.251 . S
C1114 O1129 1.268 . S
C1115 Nd1105 2.836 . S
C1115 C1116 1.498 . S
C1115 O1130 1.258 . S
C1115 O1131 1.239 . S
C1116 C1115 1.498 . S
C1116 C1117 1.366 . S
C1116 C1121 1.407 . S
C1117 C1116 1.366 . S
C1117 C1118 1.392 . S
C1117 H1140 0.930 . S
C1118 C1117 1.392 . S
C1118 C1119 1.398 . S
C1118 H1141 0.929 . S
C1119 C1118 1.398 . S
C1119 C1120 1.352 . S
C1120 C1119 1.352 . S
C1120 C1121 1.384 . S
C1120 H1142 0.930 . S
C1121 C1116 1.407 . S
C1121 C1120 1.384 . S
C1121 H1143 0.929 . S
C1122 O1132 1.241 . S
C1122 O1133 1.273 . S
C1123 O1134 1.251 . S
C1123 O1135 1.268 . S
O1124 Nd1104 2.500 . S
O1124 C1106 1.258 . S
O1125 Nd1104 2.492 . S
O1125 C1106 1.239 . S
O1126 Nd1104 2.487 . S
O1126 C1113 1.241 . S
O1127 Nd1104 2.682 . S
O1127 Nd1105 2.414 . S
O1127 C1113 1.273 . S
O1128 Nd1104 2.410 . S
O1128 C1114 1.251 . S
O1129 Nd1105 2.424 . S
O1129 C1114 1.268 . S
O1130 Nd1105 2.500 . S
O1130 C1115 1.258 . S
O1131 Nd1105 2.492 . S
O1131 C1115 1.239 . S
O1132 Nd1105 2.487 . S
O1132 C1122 1.241 . S
O1133 Nd1104 2.414 . S
O1133 Nd1105 2.682 . S
O1133 C1122 1.273 . S
O1134 Nd1105 2.410 . S
O1134 C1123 1.251 . S
O1135 Nd1104 2.424 . S
O1135 C1123 1.268 . S
H1136 C1108 0.930 . S
H1137 C1109 0.929 . S
H1138 C1111 0.930 . S
H1139 C1112 0.929 . S
H1140 C1117 0.930 . S
H1141 C1118 0.929 . S
H1142 C1120 0.930 . S
H1143 C1121 0.929 . S
Nd1144 C1146 2.836 . S
Nd1144 O1164 2.500 . S
Nd1144 O1165 2.492 . S
Nd1144 O1166 2.487 . S
Nd1144 O1167 2.682 . S
Nd1144 O1168 2.410 . S
Nd1144 O1173 2.414 . S
Nd1144 O1175 2.424 . S
Nd1145 C1155 2.836 . S
Nd1145 O1167 2.414 . S
Nd1145 O1169 2.424 . S
Nd1145 O1170 2.500 . S
Nd1145 O1171 2.492 . S
Nd1145 O1172 2.487 . S
Nd1145 O1173 2.682 . S
Nd1145 O1174 2.410 . S
C1146 Nd1144 2.836 . S
C1146 C1147 1.498 . S
C1146 O1164 1.258 . S
C1146 O1165 1.239 . S
C1147 C1146 1.498 . S
C1147 C1148 1.366 . S
C1147 C1152 1.407 . S
C1148 C1147 1.366 . S
C1148 C1149 1.392 . S
C1148 H1176 0.930 . S
C1149 C1148 1.392 . S
C1149 C1150 1.398 . S
C1149 H1177 0.929 . S
C1150 C1149 1.398 . S
C1150 C1151 1.352 . S
C1151 C1150 1.352 . S
C1151 C1152 1.384 . S
C1151 H1178 0.930 . S
C1152 C1147 1.407 . S
C1152 C1151 1.384 . S
C1152 H1179 0.929 . S
C1153 O1166 1.241 . S
C1153 O1167 1.273 . S
C1154 O1168 1.251 . S
C1154 O1169 1.268 . S
C1155 Nd1145 2.836 . S
C1155 C1156 1.498 . S
C1155 O1170 1.258 . S
C1155 O1171 1.239 . S
C1156 C1155 1.498 . S
C1156 C1157 1.366 . S
C1156 C1161 1.407 . S
C1157 C1156 1.366 . S
C1157 C1158 1.392 . S
C1157 H1180 0.930 . S
C1158 C1157 1.392 . S
C1158 C1159 1.398 . S
C1158 H1181 0.929 . S
C1159 C1158 1.398 . S
C1159 C1160 1.352 . S
C1160 C1159 1.352 . S
C1160 C1161 1.384 . S
C1160 H1182 0.930 . S
C1161 C1156 1.407 . S
C1161 C1160 1.384 . S
C1161 H1183 0.929 . S
C1162 O1172 1.241 . S
C1162 O1173 1.273 . S
C1163 O1174 1.251 . S
C1163 O1175 1.268 . S
O1164 Nd1144 2.500 . S
O1164 C1146 1.258 . S
O1165 Nd1144 2.492 . S
O1165 C1146 1.239 . S
O1166 Nd1144 2.487 . S
O1166 C1153 1.241 . S
O1167 Nd1144 2.682 . S
O1167 Nd1145 2.414 . S
O1167 C1153 1.273 . S
O1168 Nd1144 2.410 . S
O1168 C1154 1.251 . S
O1169 Nd1145 2.424 . S
O1169 C1154 1.268 . S
O1170 Nd1145 2.500 . S
O1170 C1155 1.258 . S
O1171 Nd1145 2.492 . S
O1171 C1155 1.239 . S
O1172 Nd1145 2.487 . S
O1172 C1162 1.241 . S
O1173 Nd1144 2.414 . S
O1173 Nd1145 2.682 . S
O1173 C1162 1.273 . S
O1174 Nd1145 2.410 . S
O1174 C1163 1.251 . S
O1175 Nd1144 2.424 . S
O1175 C1163 1.268 . S
H1176 C1148 0.930 . S
H1177 C1149 0.929 . S
H1178 C1151 0.930 . S
H1179 C1152 0.929 . S
H1180 C1157 0.930 . S
H1181 C1158 0.929 . S
H1182 C1160 0.930 . S
H1183 C1161 0.929 . S
Nd1184 C1186 2.836 . S
Nd1184 O1204 2.500 . S
Nd1184 O1205 2.492 . S
Nd1184 O1206 2.487 . S
Nd1184 O1207 2.682 . S
Nd1184 O1208 2.410 . S
Nd1184 O1213 2.414 . S
Nd1184 O1215 2.424 . S
Nd1185 C1195 2.836 . S
Nd1185 O1207 2.414 . S
Nd1185 O1209 2.424 . S
Nd1185 O1210 2.500 . S
Nd1185 O1211 2.492 . S
Nd1185 O1212 2.487 . S
Nd1185 O1213 2.682 . S
Nd1185 O1214 2.410 . S
C1186 Nd1184 2.836 . S
C1186 C1187 1.498 . S
C1186 O1204 1.258 . S
C1186 O1205 1.239 . S
C1187 C1186 1.498 . S
C1187 C1188 1.366 . S
C1187 C1192 1.407 . S
C1188 C1187 1.366 . S
C1188 C1189 1.392 . S
C1188 H1216 0.930 . S
C1189 C1188 1.392 . S
C1189 C1190 1.398 . S
C1189 H1217 0.929 . S
C1190 C1189 1.398 . S
C1190 C1191 1.352 . S
C1191 C1190 1.352 . S
C1191 C1192 1.384 . S
C1191 H1218 0.930 . S
C1192 C1187 1.407 . S
C1192 C1191 1.384 . S
C1192 H1219 0.929 . S
C1193 O1206 1.241 . S
C1193 O1207 1.273 . S
C1194 O1208 1.251 . S
C1194 O1209 1.268 . S
C1195 Nd1185 2.836 . S
C1195 C1196 1.498 . S
C1195 O1210 1.258 . S
C1195 O1211 1.239 . S
C1196 C1195 1.498 . S
C1196 C1197 1.366 . S
C1196 C1201 1.407 . S
C1197 C1196 1.366 . S
C1197 C1198 1.392 . S
C1197 H1220 0.930 . S
C1198 C1197 1.392 . S
C1198 C1199 1.398 . S
C1198 H1221 0.929 . S
C1199 C1198 1.398 . S
C1199 C1200 1.352 . S
C1200 C1199 1.352 . S
C1200 C1201 1.384 . S
C1200 H1222 0.930 . S
C1201 C1196 1.407 . S
C1201 C1200 1.384 . S
C1201 H1223 0.929 . S
C1202 O1212 1.241 . S
C1202 O1213 1.273 . S
C1203 O1214 1.251 . S
C1203 O1215 1.268 . S
O1204 Nd1184 2.500 . S
O1204 C1186 1.258 . S
O1205 Nd1184 2.492 . S
O1205 C1186 1.239 . S
O1206 Nd1184 2.487 . S
O1206 C1193 1.241 . S
O1207 Nd1184 2.682 . S
O1207 Nd1185 2.414 . S
O1207 C1193 1.273 . S
O1208 Nd1184 2.410 . S
O1208 C1194 1.251 . S
O1209 Nd1185 2.424 . S
O1209 C1194 1.268 . S
O1210 Nd1185 2.500 . S
O1210 C1195 1.258 . S
O1211 Nd1185 2.492 . S
O1211 C1195 1.239 . S
O1212 Nd1185 2.487 . S
O1212 C1202 1.241 . S
O1213 Nd1184 2.414 . S
O1213 Nd1185 2.682 . S
O1213 C1202 1.273 . S
O1214 Nd1185 2.410 . S
O1214 C1203 1.251 . S
O1215 Nd1184 2.424 . S
O1215 C1203 1.268 . S
H1216 C1188 0.930 . S
H1217 C1189 0.929 . S
H1218 C1191 0.930 . S
H1219 C1192 0.929 . S
H1220 C1197 0.930 . S
H1221 C1198 0.929 . S
H1222 C1200 0.930 . S
H1223 C1201 0.929 . S
Nd1224 C1226 2.836 . S
Nd1224 O1244 2.500 . S
Nd1224 O1245 2.492 . S
Nd1224 O1246 2.487 . S
Nd1224 O1247 2.682 . S
Nd1224 O1248 2.410 . S
Nd1224 O1253 2.414 . S
Nd1224 O1255 2.424 . S
Nd1225 C1235 2.836 . S
Nd1225 O1247 2.414 . S
Nd1225 O1249 2.424 . S
Nd1225 O1250 2.500 . S
Nd1225 O1251 2.492 . S
Nd1225 O1252 2.487 . S
Nd1225 O1253 2.682 . S
Nd1225 O1254 2.410 . S
C1226 Nd1224 2.836 . S
C1226 C1227 1.498 . S
C1226 O1244 1.258 . S
C1226 O1245 1.239 . S
C1227 C1226 1.498 . S
C1227 C1228 1.366 . S
C1227 C1232 1.407 . S
C1228 C1227 1.366 . S
C1228 C1229 1.392 . S
C1228 H1256 0.930 . S
C1229 C1228 1.392 . S
C1229 C1230 1.398 . S
C1229 H1257 0.929 . S
C1230 C1229 1.398 . S
C1230 C1231 1.352 . S
C1231 C1230 1.352 . S
C1231 C1232 1.384 . S
C1231 H1258 0.930 . S
C1232 C1227 1.407 . S
C1232 C1231 1.384 . S
C1232 H1259 0.929 . S
C1233 O1246 1.241 . S
C1233 O1247 1.273 . S
C1234 O1248 1.251 . S
C1234 O1249 1.268 . S
C1235 Nd1225 2.836 . S
C1235 C1236 1.498 . S
C1235 O1250 1.258 . S
C1235 O1251 1.239 . S
C1236 C1235 1.498 . S
C1236 C1237 1.366 . S
C1236 C1241 1.407 . S
C1237 C1236 1.366 . S
C1237 C1238 1.392 . S
C1237 H1260 0.930 . S
C1238 C1237 1.392 . S
C1238 C1239 1.398 . S
C1238 H1261 0.929 . S
C1239 C1238 1.398 . S
C1239 C1240 1.352 . S
C1240 C1239 1.352 . S
C1240 C1241 1.384 . S
C1240 H1262 0.930 . S
C1241 C1236 1.407 . S
C1241 C1240 1.384 . S
C1241 H1263 0.929 . S
C1242 O1252 1.241 . S
C1242 O1253 1.273 . S
C1243 O1254 1.251 . S
C1243 O1255 1.268 . S
O1244 Nd1224 2.500 . S
O1244 C1226 1.258 . S
O1245 Nd1224 2.492 . S
O1245 C1226 1.239 . S
O1246 Nd1224 2.487 . S
O1246 C1233 1.241 . S
O1247 Nd1224 2.682 . S
O1247 Nd1225 2.414 . S
O1247 C1233 1.273 . S
O1248 Nd1224 2.410 . S
O1248 C1234 1.251 . S
O1249 Nd1225 2.424 . S
O1249 C1234 1.268 . S
O1250 Nd1225 2.500 . S
O1250 C1235 1.258 . S
O1251 Nd1225 2.492 . S
O1251 C1235 1.239 . S
O1252 Nd1225 2.487 . S
O1252 C1242 1.241 . S
O1253 Nd1224 2.414 . S
O1253 Nd1225 2.682 . S
O1253 C1242 1.273 . S
O1254 Nd1225 2.410 . S
O1254 C1243 1.251 . S
O1255 Nd1224 2.424 . S
O1255 C1243 1.268 . S
H1256 C1228 0.930 . S
H1257 C1229 0.929 . S
H1258 C1231 0.930 . S
H1259 C1232 0.929 . S
H1260 C1237 0.930 . S
H1261 C1238 0.929 . S
H1262 C1240 0.930 . S
H1263 C1241 0.929 . S
Nd1264 C1266 2.836 1_455 S
Nd1264 O1284 2.500 1_455 S
Nd1264 O1285 2.492 1_455 S
Nd1264 O1286 2.487 . S
Nd1264 O1287 2.682 . S
Nd1264 O1288 2.410 . S
Nd1264 O1293 2.414 . S
Nd1264 O1295 2.424 . S
Nd1265 C1275 2.836 . S
Nd1265 O1287 2.414 . S
Nd1265 O1289 2.424 . S
Nd1265 O1290 2.500 . S
Nd1265 O1291 2.492 . S
Nd1265 O1292 2.487 . S
Nd1265 O1293 2.682 . S
Nd1265 O1294 2.410 . S
C1266 Nd1264 2.836 1_655 S
C1266 C1267 1.498 . S
C1266 O1284 1.258 . S
C1266 O1285 1.239 . S
C1267 C1266 1.498 . S
C1267 C1268 1.366 . S
C1267 C1272 1.407 . S
C1268 C1267 1.366 . S
C1268 C1269 1.392 . S
C1268 H1296 0.930 . S
C1269 C1268 1.392 . S
C1269 C1270 1.398 . S
C1269 H1297 0.929 . S
C1270 C1269 1.398 . S
C1270 C1271 1.352 . S
C1271 C1270 1.352 . S
C1271 C1272 1.384 . S
C1271 H1298 0.930 . S
C1272 C1267 1.407 . S
C1272 C1271 1.384 . S
C1272 H1299 0.929 . S
C1273 O1286 1.241 . S
C1273 O1287 1.273 . S
C1274 O1288 1.251 . S
C1274 O1289 1.268 . S
C1275 Nd1265 2.836 . S
C1275 C1276 1.498 . S
C1275 O1290 1.258 . S
C1275 O1291 1.239 . S
C1276 C1275 1.498 . S
C1276 C1277 1.366 . S
C1276 C1281 1.407 . S
C1277 C1276 1.366 . S
C1277 C1278 1.392 . S
C1277 H1300 0.930 . S
C1278 C1277 1.392 . S
C1278 C1279 1.398 . S
C1278 H1301 0.929 . S
C1279 C1278 1.398 . S
C1279 C1280 1.352 . S
C1280 C1279 1.352 . S
C1280 C1281 1.384 . S
C1280 H1302 0.930 . S
C1281 C1276 1.407 . S
C1281 C1280 1.384 . S
C1281 H1303 0.929 . S
C1282 O1292 1.241 . S
C1282 O1293 1.273 . S
C1283 O1294 1.251 . S
C1283 O1295 1.268 . S
O1284 Nd1264 2.500 1_655 S
O1284 C1266 1.258 . S
O1285 Nd1264 2.492 1_655 S
O1285 C1266 1.239 . S
O1286 Nd1264 2.487 . S
O1286 C1273 1.241 . S
O1287 Nd1264 2.682 . S
O1287 Nd1265 2.414 . S
O1287 C1273 1.273 . S
O1288 Nd1264 2.410 . S
O1288 C1274 1.251 . S
O1289 Nd1265 2.424 . S
O1289 C1274 1.268 . S
O1290 Nd1265 2.500 . S
O1290 C1275 1.258 . S
O1291 Nd1265 2.492 . S
O1291 C1275 1.239 . S
O1292 Nd1265 2.487 . S
O1292 C1282 1.241 . S
O1293 Nd1264 2.414 . S
O1293 Nd1265 2.682 . S
O1293 C1282 1.273 . S
O1294 Nd1265 2.410 . S
O1294 C1283 1.251 . S
O1295 Nd1264 2.424 . S
O1295 C1283 1.268 . S
H1296 C1268 0.930 . S
H1297 C1269 0.929 . S
H1298 C1271 0.930 . S
H1299 C1272 0.929 . S
H1300 C1277 0.930 . S
H1301 C1278 0.929 . S
H1302 C1280 0.930 . S
H1303 C1281 0.929 . S
Nd1304 C1306 2.836 . S
Nd1304 O1324 2.500 . S
Nd1304 O1325 2.492 . S
Nd1304 O1326 2.487 . S
Nd1304 O1327 2.682 . S
Nd1304 O1328 2.410 . S
Nd1304 O1333 2.414 . S
Nd1304 O1335 2.424 . S
Nd1305 C1315 2.836 . S
Nd1305 O1327 2.414 . S
Nd1305 O1329 2.424 . S
Nd1305 O1330 2.500 . S
Nd1305 O1331 2.492 . S
Nd1305 O1332 2.487 . S
Nd1305 O1333 2.682 . S
Nd1305 O1334 2.410 . S
C1306 Nd1304 2.836 . S
C1306 C1307 1.498 . S
C1306 O1324 1.258 . S
C1306 O1325 1.239 . S
C1307 C1306 1.498 . S
C1307 C1308 1.366 . S
C1307 C1312 1.407 . S
C1308 C1307 1.366 . S
C1308 C1309 1.392 . S
C1308 H1336 0.930 . S
C1309 C1308 1.392 . S
C1309 C1310 1.398 . S
C1309 H1337 0.929 . S
C1310 C1309 1.398 . S
C1310 C1311 1.352 . S
C1311 C1310 1.352 . S
C1311 C1312 1.384 . S
C1311 H1338 0.930 . S
C1312 C1307 1.407 . S
C1312 C1311 1.384 . S
C1312 H1339 0.929 . S
C1313 O1326 1.241 . S
C1313 O1327 1.273 . S
C1314 O1328 1.251 . S
C1314 O1329 1.268 . S
C1315 Nd1305 2.836 . S
C1315 C1316 1.498 . S
C1315 O1330 1.258 . S
C1315 O1331 1.239 . S
C1316 C1315 1.498 . S
C1316 C1317 1.366 . S
C1316 C1321 1.407 . S
C1317 C1316 1.366 . S
C1317 C1318 1.392 . S
C1317 H1340 0.930 . S
C1318 C1317 1.392 . S
C1318 C1319 1.398 . S
C1318 H1341 0.929 . S
C1319 C1318 1.398 . S
C1319 C1320 1.352 . S
C1320 C1319 1.352 . S
C1320 C1321 1.384 . S
C1320 H1342 0.930 . S
C1321 C1316 1.407 . S
C1321 C1320 1.384 . S
C1321 H1343 0.929 . S
C1322 O1332 1.241 . S
C1322 O1333 1.273 . S
C1323 O1334 1.251 . S
C1323 O1335 1.268 . S
O1324 Nd1304 2.500 . S
O1324 C1306 1.258 . S
O1325 Nd1304 2.492 . S
O1325 C1306 1.239 . S
O1326 Nd1304 2.487 . S
O1326 C1313 1.241 . S
O1327 Nd1304 2.682 . S
O1327 Nd1305 2.414 . S
O1327 C1313 1.273 . S
O1328 Nd1304 2.410 . S
O1328 C1314 1.251 . S
O1329 Nd1305 2.424 . S
O1329 C1314 1.268 . S
O1330 Nd1305 2.500 . S
O1330 C1315 1.258 . S
O1331 Nd1305 2.492 . S
O1331 C1315 1.239 . S
O1332 Nd1305 2.487 . S
O1332 C1322 1.241 . S
O1333 Nd1304 2.414 . S
O1333 Nd1305 2.682 . S
O1333 C1322 1.273 . S
O1334 Nd1305 2.410 . S
O1334 C1323 1.251 . S
O1335 Nd1304 2.424 . S
O1335 C1323 1.268 . S
H1336 C1308 0.930 . S
H1337 C1309 0.929 . S
H1338 C1311 0.930 . S
H1339 C1312 0.929 . S
H1340 C1317 0.930 . S
H1341 C1318 0.929 . S
H1342 C1320 0.930 . S
H1343 C1321 0.929 . S
Nd1344 C1346 2.836 . S
Nd1344 O1364 2.500 . S
Nd1344 O1365 2.492 . S
Nd1344 O1366 2.487 . S
Nd1344 O1367 2.682 . S
Nd1344 O1368 2.410 . S
Nd1344 O1373 2.414 . S
Nd1344 O1375 2.424 . S
Nd1345 C1355 2.836 . S
Nd1345 O1367 2.414 . S
Nd1345 O1369 2.424 . S
Nd1345 O1370 2.500 . S
Nd1345 O1371 2.492 . S
Nd1345 O1372 2.487 . S
Nd1345 O1373 2.682 . S
Nd1345 O1374 2.410 . S
C1346 Nd1344 2.836 . S
C1346 C1347 1.498 . S
C1346 O1364 1.258 . S
C1346 O1365 1.239 . S
C1347 C1346 1.498 . S
C1347 C1348 1.366 . S
C1347 C1352 1.407 . S
C1348 C1347 1.366 . S
C1348 C1349 1.392 . S
C1348 H1376 0.930 . S
C1349 C1348 1.392 . S
C1349 C1350 1.398 . S
C1349 H1377 0.929 . S
C1350 C1349 1.398 . S
C1350 C1351 1.352 . S
C1351 C1350 1.352 . S
C1351 C1352 1.384 . S
C1351 H1378 0.930 . S
C1352 C1347 1.407 . S
C1352 C1351 1.384 . S
C1352 H1379 0.929 . S
C1353 O1366 1.241 . S
C1353 O1367 1.273 . S
C1354 O1368 1.251 . S
C1354 O1369 1.268 . S
C1355 Nd1345 2.836 . S
C1355 C1356 1.498 . S
C1355 O1370 1.258 . S
C1355 O1371 1.239 . S
C1356 C1355 1.498 . S
C1356 C1357 1.366 . S
C1356 C1361 1.407 . S
C1357 C1356 1.366 . S
C1357 C1358 1.392 . S
C1357 H1380 0.930 . S
C1358 C1357 1.392 . S
C1358 C1359 1.398 . S
C1358 H1381 0.929 . S
C1359 C1358 1.398 . S
C1359 C1360 1.352 . S
C1360 C1359 1.352 . S
C1360 C1361 1.384 . S
C1360 H1382 0.930 . S
C1361 C1356 1.407 . S
C1361 C1360 1.384 . S
C1361 H1383 0.929 . S
C1362 O1372 1.241 . S
C1362 O1373 1.273 . S
C1363 O1374 1.251 . S
C1363 O1375 1.268 . S
O1364 Nd1344 2.500 . S
O1364 C1346 1.258 . S
O1365 Nd1344 2.492 . S
O1365 C1346 1.239 . S
O1366 Nd1344 2.487 . S
O1366 C1353 1.241 . S
O1367 Nd1344 2.682 . S
O1367 Nd1345 2.414 . S
O1367 C1353 1.273 . S
O1368 Nd1344 2.410 . S
O1368 C1354 1.251 . S
O1369 Nd1345 2.424 . S
O1369 C1354 1.268 . S
O1370 Nd1345 2.500 . S
O1370 C1355 1.258 . S
O1371 Nd1345 2.492 . S
O1371 C1355 1.239 . S
O1372 Nd1345 2.487 . S
O1372 C1362 1.241 . S
O1373 Nd1344 2.414 . S
O1373 Nd1345 2.682 . S
O1373 C1362 1.273 . S
O1374 Nd1345 2.410 . S
O1374 C1363 1.251 . S
O1375 Nd1344 2.424 . S
O1375 C1363 1.268 . S
H1376 C1348 0.930 . S
H1377 C1349 0.929 . S
H1378 C1351 0.930 . S
H1379 C1352 0.929 . S
H1380 C1357 0.930 . S
H1381 C1358 0.929 . S
H1382 C1360 0.930 . S
H1383 C1361 0.929 . S
Nd1384 C1386 2.836 . S
Nd1384 O1404 2.500 . S
Nd1384 O1405 2.492 . S
Nd1384 O1406 2.487 . S
Nd1384 O1407 2.682 . S
Nd1384 O1408 2.410 . S
Nd1384 O1413 2.414 . S
Nd1384 O1415 2.424 . S
Nd1385 C1395 2.836 . S
Nd1385 O1407 2.414 . S
Nd1385 O1409 2.424 . S
Nd1385 O1410 2.500 . S
Nd1385 O1411 2.492 . S
Nd1385 O1412 2.487 . S
Nd1385 O1413 2.682 . S
Nd1385 O1414 2.410 . S
C1386 Nd1384 2.836 . S
C1386 C1387 1.498 . S
C1386 O1404 1.258 . S
C1386 O1405 1.239 . S
C1387 C1386 1.498 . S
C1387 C1388 1.366 . S
C1387 C1392 1.407 . S
C1388 C1387 1.366 . S
C1388 C1389 1.392 . S
C1388 H1416 0.930 . S
C1389 C1388 1.392 . S
C1389 C1390 1.398 . S
C1389 H1417 0.929 . S
C1390 C1389 1.398 . S
C1390 C1391 1.352 . S
C1391 C1390 1.352 . S
C1391 C1392 1.384 . S
C1391 H1418 0.930 . S
C1392 C1387 1.407 . S
C1392 C1391 1.384 . S
C1392 H1419 0.929 . S
C1393 O1406 1.241 . S
C1393 O1407 1.273 . S
C1394 O1408 1.251 . S
C1394 O1409 1.268 . S
C1395 Nd1385 2.836 . S
C1395 C1396 1.498 . S
C1395 O1410 1.258 . S
C1395 O1411 1.239 . S
C1396 C1395 1.498 . S
C1396 C1397 1.366 . S
C1396 C1401 1.407 . S
C1397 C1396 1.366 . S
C1397 C1398 1.392 . S
C1397 H1420 0.930 . S
C1398 C1397 1.392 . S
C1398 C1399 1.398 . S
C1398 H1421 0.929 . S
C1399 C1398 1.398 . S
C1399 C1400 1.352 . S
C1400 C1399 1.352 . S
C1400 C1401 1.384 . S
C1400 H1422 0.930 . S
C1401 C1396 1.407 . S
C1401 C1400 1.384 . S
C1401 H1423 0.929 . S
C1402 O1412 1.241 . S
C1402 O1413 1.273 . S
C1403 O1414 1.251 . S
C1403 O1415 1.268 . S
O1404 Nd1384 2.500 . S
O1404 C1386 1.258 . S
O1405 Nd1384 2.492 . S
O1405 C1386 1.239 . S
O1406 Nd1384 2.487 . S
O1406 C1393 1.241 . S
O1407 Nd1384 2.682 . S
O1407 Nd1385 2.414 . S
O1407 C1393 1.273 . S
O1408 Nd1384 2.410 . S
O1408 C1394 1.251 . S
O1409 Nd1385 2.424 . S
O1409 C1394 1.268 . S
O1410 Nd1385 2.500 . S
O1410 C1395 1.258 . S
O1411 Nd1385 2.492 . S
O1411 C1395 1.239 . S
O1412 Nd1385 2.487 . S
O1412 C1402 1.241 . S
O1413 Nd1384 2.414 . S
O1413 Nd1385 2.682 . S
O1413 C1402 1.273 . S
O1414 Nd1385 2.410 . S
O1414 C1403 1.251 . S
O1415 Nd1384 2.424 . S
O1415 C1403 1.268 . S
H1416 C1388 0.930 . S
H1417 C1389 0.929 . S
H1418 C1391 0.930 . S
H1419 C1392 0.929 . S
H1420 C1397 0.930 . S
H1421 C1398 0.929 . S
H1422 C1400 0.930 . S
H1423 C1401 0.929 . S
Nd1424 C1426 2.836 . S
Nd1424 O1444 2.500 . S
Nd1424 O1445 2.492 . S
Nd1424 O1446 2.487 . S
Nd1424 O1447 2.682 . S
Nd1424 O1448 2.410 . S
Nd1424 O1453 2.414 . S
Nd1424 O1455 2.424 . S
Nd1425 C1435 2.836 . S
Nd1425 O1447 2.414 . S
Nd1425 O1449 2.424 . S
Nd1425 O1450 2.500 . S
Nd1425 O1451 2.492 . S
Nd1425 O1452 2.487 . S
Nd1425 O1453 2.682 . S
Nd1425 O1454 2.410 . S
C1426 Nd1424 2.836 . S
C1426 C1427 1.498 . S
C1426 O1444 1.258 . S
C1426 O1445 1.239 . S
C1427 C1426 1.498 . S
C1427 C1428 1.366 . S
C1427 C1432 1.407 . S
C1428 C1427 1.366 . S
C1428 C1429 1.392 . S
C1428 H1456 0.930 . S
C1429 C1428 1.392 . S
C1429 C1430 1.398 . S
C1429 H1457 0.929 . S
C1430 C1429 1.398 . S
C1430 C1431 1.352 . S
C1431 C1430 1.352 . S
C1431 C1432 1.384 . S
C1431 H1458 0.930 . S
C1432 C1427 1.407 . S
C1432 C1431 1.384 . S
C1432 H1459 0.929 . S
C1433 O1446 1.241 . S
C1433 O1447 1.273 . S
C1434 O1448 1.251 . S
C1434 O1449 1.268 . S
C1435 Nd1425 2.836 . S
C1435 C1436 1.498 . S
C1435 O1450 1.258 . S
C1435 O1451 1.239 . S
C1436 C1435 1.498 . S
C1436 C1437 1.366 . S
C1436 C1441 1.407 . S
C1437 C1436 1.366 . S
C1437 C1438 1.392 . S
C1437 H1460 0.930 . S
C1438 C1437 1.392 . S
C1438 C1439 1.398 . S
C1438 H1461 0.929 . S
C1439 C1438 1.398 . S
C1439 C1440 1.352 . S
C1440 C1439 1.352 . S
C1440 C1441 1.384 . S
C1440 H1462 0.930 . S
C1441 C1436 1.407 . S
C1441 C1440 1.384 . S
C1441 H1463 0.929 . S
C1442 O1452 1.241 . S
C1442 O1453 1.273 . S
C1443 O1454 1.251 . S
C1443 O1455 1.268 . S
O1444 Nd1424 2.500 . S
O1444 C1426 1.258 . S
O1445 Nd1424 2.492 . S
O1445 C1426 1.239 . S
O1446 Nd1424 2.487 . S
O1446 C1433 1.241 . S
O1447 Nd1424 2.682 . S
O1447 Nd1425 2.414 . S
O1447 C1433 1.273 . S
O1448 Nd1424 2.410 . S
O1448 C1434 1.251 . S
O1449 Nd1425 2.424 . S
O1449 C1434 1.268 . S
O1450 Nd1425 2.500 . S
O1450 C1435 1.258 . S
O1451 Nd1425 2.492 . S
O1451 C1435 1.239 . S
O1452 Nd1425 2.487 . S
O1452 C1442 1.241 . S
O1453 Nd1424 2.414 . S
O1453 Nd1425 2.682 . S
O1453 C1442 1.273 . S
O1454 Nd1425 2.410 . S
O1454 C1443 1.251 . S
O1455 Nd1424 2.424 . S
O1455 C1443 1.268 . S
H1456 C1428 0.930 . S
H1457 C1429 0.929 . S
H1458 C1431 0.930 . S
H1459 C1432 0.929 . S
H1460 C1437 0.930 . S
H1461 C1438 0.929 . S
H1462 C1440 0.930 . S
H1463 C1441 0.929 . S
Nd1464 C1466 2.836 . S
Nd1464 O1484 2.500 . S
Nd1464 O1485 2.492 . S
Nd1464 O1486 2.487 . S
Nd1464 O1487 2.682 . S
Nd1464 O1488 2.410 . S
Nd1464 O1493 2.414 . S
Nd1464 O1495 2.424 . S
Nd1465 C1475 2.836 1_455 S
Nd1465 O1487 2.414 . S
Nd1465 O1489 2.424 . S
Nd1465 O1490 2.500 1_455 S
Nd1465 O1491 2.492 1_455 S
Nd1465 O1492 2.487 . S
Nd1465 O1493 2.682 . S
Nd1465 O1494 2.410 . S
C1466 Nd1464 2.836 . S
C1466 C1467 1.498 . S
C1466 O1484 1.258 . S
C1466 O1485 1.239 . S
C1467 C1466 1.498 . S
C1467 C1468 1.366 . S
C1467 C1472 1.407 . S
C1468 C1467 1.366 . S
C1468 C1469 1.392 . S
C1468 H1496 0.930 . S
C1469 C1468 1.392 . S
C1469 C1470 1.398 . S
C1469 H1497 0.929 . S
C1470 C1469 1.398 . S
C1470 C1471 1.352 . S
C1471 C1470 1.352 . S
C1471 C1472 1.384 . S
C1471 H1498 0.930 . S
C1472 C1467 1.407 . S
C1472 C1471 1.384 . S
C1472 H1499 0.929 . S
C1473 O1486 1.241 . S
C1473 O1487 1.273 . S
C1474 O1488 1.251 . S
C1474 O1489 1.268 . S
C1475 Nd1465 2.836 1_655 S
C1475 C1476 1.498 . S
C1475 O1490 1.258 . S
C1475 O1491 1.239 . S
C1476 C1475 1.498 . S
C1476 C1477 1.366 . S
C1476 C1481 1.407 . S
C1477 C1476 1.366 . S
C1477 C1478 1.392 . S
C1477 H1500 0.930 . S
C1478 C1477 1.392 . S
C1478 C1479 1.398 . S
C1478 H1501 0.929 . S
C1479 C1478 1.398 . S
C1479 C1480 1.352 . S
C1480 C1479 1.352 . S
C1480 C1481 1.384 . S
C1480 H1502 0.930 . S
C1481 C1476 1.407 . S
C1481 C1480 1.384 . S
C1481 H1503 0.929 . S
C1482 O1492 1.241 . S
C1482 O1493 1.273 . S
C1483 O1494 1.251 . S
C1483 O1495 1.268 . S
O1484 Nd1464 2.500 . S
O1484 C1466 1.258 . S
O1485 Nd1464 2.492 . S
O1485 C1466 1.239 . S
O1486 Nd1464 2.487 . S
O1486 C1473 1.241 . S
O1487 Nd1464 2.682 . S
O1487 Nd1465 2.414 . S
O1487 C1473 1.273 . S
O1488 Nd1464 2.410 . S
O1488 C1474 1.251 . S
O1489 Nd1465 2.424 . S
O1489 C1474 1.268 . S
O1490 Nd1465 2.500 1_655 S
O1490 C1475 1.258 . S
O1491 Nd1465 2.492 1_655 S
O1491 C1475 1.239 . S
O1492 Nd1465 2.487 . S
O1492 C1482 1.241 . S
O1493 Nd1464 2.414 . S
O1493 Nd1465 2.682 . S
O1493 C1482 1.273 . S
O1494 Nd1465 2.410 . S
O1494 C1483 1.251 . S
O1495 Nd1464 2.424 . S
O1495 C1483 1.268 . S
H1496 C1468 0.930 . S
H1497 C1469 0.929 . S
H1498 C1471 0.930 . S
H1499 C1472 0.929 . S
H1500 C1477 0.930 . S
H1501 C1478 0.929 . S
H1502 C1480 0.930 . S
H1503 C1481 0.929 . S
C1504 C1505 1.387 . S
C1504 H1508 0.950 . S
C1504 C1513 1.390 1_556 S
C1505 C1504 1.387 . S
C1505 C1507 1.387 . S
H1506 C1513 0.950 . S
C1507 C1505 1.387 . S
C1507 C1509 1.390 1_556 S
C1507 H1511 0.950 . S
H1508 C1504 0.950 . S
C1509 C1507 1.390 1_554 S
C1509 C1510 1.387 . S
C1509 H1512 0.950 . S
C1510 C1509 1.387 . S
C1510 C1513 1.387 . S
H1511 C1507 0.950 . S
H1512 C1509 0.950 . S
C1513 C1504 1.390 1_554 S
C1513 H1506 0.950 . S
C1513 C1510 1.387 . S
C1514 C1515 1.387 . S
C1514 H1518 0.950 . S
C1514 C1523 1.390 . S
C1515 C1514 1.387 . S
C1515 C1517 1.387 . S
H1516 C1523 0.950 . S
C1517 C1515 1.387 . S
C1517 C1519 1.390 . S
C1517 H1521 0.950 . S
H1518 C1514 0.950 . S
C1519 C1517 1.390 . S
C1519 C1520 1.387 . S
C1519 H1522 0.950 . S
C1520 C1519 1.387 . S
C1520 C1523 1.387 . S
H1521 C1517 0.950 . S
H1522 C1519 0.950 . S
C1523 C1514 1.390 . S
C1523 H1516 0.950 . S
C1523 C1520 1.387 . S
C1524 C1525 1.387 . S
C1524 H1528 0.950 . S
C1524 C1533 1.390 . S
C1525 C1524 1.387 . S
C1525 C1527 1.387 . S
H1526 C1533 0.950 1_545 S
C1527 C1525 1.387 . S
C1527 C1529 1.390 . S
C1527 H1531 0.950 . S
H1528 C1524 0.950 . S
C1529 C1527 1.390 . S
C1529 C1530 1.387 . S
C1529 H1532 0.950 . S
C1530 C1529 1.387 . S
C1530 C1533 1.387 . S
H1531 C1527 0.950 . S
H1532 C1529 0.950 . S
C1533 C1524 1.390 . S
C1533 H1526 0.950 1_565 S
C1533 C1530 1.387 . S
C1534 C1535 1.387 . S
C1534 H1538 0.950 . S
C1534 C1543 1.390 . S
C1535 C1534 1.387 . S
C1535 C1537 1.387 . S
H1536 C1543 0.950 . S
C1537 C1535 1.387 . S
C1537 C1539 1.390 . S
C1537 H1541 0.950 . S
H1538 C1534 0.950 . S
C1539 C1537 1.390 . S
C1539 C1540 1.387 . S
C1539 H1542 0.950 . S
C1540 C1539 1.387 . S
C1540 C1543 1.387 . S
H1541 C1537 0.950 . S
H1542 C1539 0.950 . S
C1543 C1534 1.390 . S
C1543 H1536 0.950 . S
C1543 C1540 1.387 . S
C1544 C1545 1.387 . S
C1544 H1548 0.950 . S
C1544 C1553 1.390 . S
C1545 C1544 1.387 . S
C1545 C1547 1.387 . S
H1546 C1553 0.950 . S
C1547 C1545 1.387 . S
C1547 C1549 1.390 . S
C1547 H1551 0.950 . S
H1548 C1544 0.950 . S
C1549 C1547 1.390 . S
C1549 C1550 1.387 . S
C1549 H1552 0.950 . S
C1550 C1549 1.387 . S
C1550 C1553 1.387 . S
H1551 C1547 0.950 . S
H1552 C1549 0.950 . S
C1553 C1544 1.390 . S
C1553 H1546 0.950 . S
C1553 C1550 1.387 . S
C1554 C1555 1.387 . S
C1554 H1558 0.950 . S
C1554 C1563 1.390 . S
C1555 C1554 1.387 . S
C1555 C1557 1.387 . S
H1556 C1563 0.950 . S
C1557 C1555 1.387 . S
C1557 C1559 1.390 . S
C1557 H1561 0.950 . S
H1558 C1554 0.950 . S
C1559 C1557 1.390 . S
C1559 C1560 1.387 . S
C1559 H1562 0.950 . S
C1560 C1559 1.387 . S
C1560 C1563 1.387 . S
H1561 C1557 0.950 . S
H1562 C1559 0.950 . S
C1563 C1554 1.390 . S
C1563 H1556 0.950 . S
C1563 C1560 1.387 . S
C1564 C1565 1.387 . S
C1564 H1568 0.950 . S
C1564 C1573 1.390 . S
C1565 C1564 1.387 . S
C1565 C1567 1.387 . S
H1566 C1573 0.950 . S
C1567 C1565 1.387 . S
C1567 C1569 1.390 . S
C1567 H1571 0.950 . S
H1568 C1564 0.950 . S
C1569 C1567 1.390 . S
C1569 C1570 1.387 . S
C1569 H1572 0.950 . S
C1570 C1569 1.387 . S
C1570 C1573 1.387 . S
H1571 C1567 0.950 . S
H1572 C1569 0.950 . S
C1573 C1564 1.390 . S
C1573 H1566 0.950 . S
C1573 C1570 1.387 . S
C1574 C1575 1.387 . S
C1574 H1578 0.950 . S
C1574 C1583 1.390 . S
C1575 C1574 1.387 . S
C1575 C1577 1.387 . S
H1576 C1583 0.950 . S
C1577 C1575 1.387 . S
C1577 C1579 1.390 . S
C1577 H1581 0.950 . S
H1578 C1574 0.950 . S
C1579 C1577 1.390 . S
C1579 C1580 1.387 . S
C1579 H1582 0.950 . S
C1580 C1579 1.387 . S
C1580 C1583 1.387 . S
H1581 C1577 0.950 . S
H1582 C1579 0.950 . S
C1583 C1574 1.390 . S
C1583 H1576 0.950 . S
C1583 C1580 1.387 . S
C1584 C1585 1.387 . S
C1584 H1588 0.950 . S
C1584 C1593 1.390 . S
C1585 C1584 1.387 . S
C1585 C1587 1.387 . S
H1586 C1593 0.950 . S
C1587 C1585 1.387 . S
C1587 C1589 1.390 1_655 S
C1587 H1591 0.950 1_655 S
H1588 C1584 0.950 . S
C1589 C1587 1.390 1_455 S
C1589 C1590 1.387 . S
C1589 H1592 0.950 . S
C1590 C1589 1.387 . S
C1590 C1593 1.387 1_455 S
H1591 C1587 0.950 1_455 S
H1592 C1589 0.950 . S
C1593 C1584 1.390 . S
C1593 H1586 0.950 . S
C1593 C1590 1.387 1_655 S
C1594 C1595 1.387 . S
C1594 H1598 0.950 . S
C1594 C1603 1.390 . S
C1595 C1594 1.387 . S
C1595 C1597 1.387 . S
H1596 C1603 0.950 . S
C1597 C1595 1.387 . S
C1597 C1599 1.390 . S
C1597 H1601 0.950 . S
H1598 C1594 0.950 . S
C1599 C1597 1.390 . S
C1599 C1600 1.387 . S
C1599 H1602 0.950 . S
C1600 C1599 1.387 . S
C1600 C1603 1.387 . S
H1601 C1597 0.950 . S
H1602 C1599 0.950 . S
C1603 C1594 1.390 . S
C1603 H1596 0.950 . S
C1603 C1600 1.387 . S
C1604 C1605 1.387 . S
C1604 H1608 0.950 . S
C1604 C1613 1.390 . S
C1605 C1604 1.387 . S
C1605 C1607 1.387 . S
H1606 C1613 0.950 . S
C1607 C1605 1.387 . S
C1607 C1609 1.390 . S
C1607 H1611 0.950 . S
H1608 C1604 0.950 . S
C1609 C1607 1.390 . S
C1609 C1610 1.387 . S
C1609 H1612 0.950 . S
C1610 C1609 1.387 . S
C1610 C1613 1.387 . S
H1611 C1607 0.950 . S
H1612 C1609 0.950 . S
C1613 C1604 1.390 . S
C1613 H1606 0.950 . S
C1613 C1610 1.387 . S
C1614 C1615 1.387 . S
C1614 H1618 0.950 . S
C1614 C1623 1.390 . S
C1615 C1614 1.387 . S
C1615 C1617 1.387 . S
H1616 C1623 0.950 . S
C1617 C1615 1.387 . S
C1617 C1619 1.390 . S
C1617 H1621 0.950 . S
H1618 C1614 0.950 . S
C1619 C1617 1.390 . S
C1619 C1620 1.387 . S
C1619 H1622 0.950 . S
C1620 C1619 1.387 . S
C1620 C1623 1.387 . S
H1621 C1617 0.950 . S
H1622 C1619 0.950 . S
C1623 C1614 1.390 . S
C1623 H1616 0.950 . S
C1623 C1620 1.387 . S
C1624 C1625 1.387 . S
C1624 H1628 0.950 . S
C1624 C1633 1.390 . S
C1625 C1624 1.387 . S
C1625 C1627 1.387 . S
H1626 C1633 0.950 . S
C1627 C1625 1.387 . S
C1627 C1629 1.390 1_655 S
C1627 H1631 0.950 . S
H1628 C1624 0.950 . S
C1629 C1627 1.390 1_455 S
C1629 C1630 1.387 . S
C1629 H1632 0.950 . S
C1630 C1629 1.387 . S
C1630 C1633 1.387 1_455 S
H1631 C1627 0.950 . S
H1632 C1629 0.950 . S
C1633 C1624 1.390 . S
C1633 H1626 0.950 . S
C1633 C1630 1.387 1_655 S
C1634 C1635 1.387 . S
C1634 H1638 0.950 . S
C1634 C1643 1.390 . S
C1635 C1634 1.387 . S
C1635 C1637 1.387 . S
H1636 C1643 0.950 . S
C1637 C1635 1.387 . S
C1637 C1639 1.390 . S
C1637 H1641 0.950 . S
H1638 C1634 0.950 . S
C1639 C1637 1.390 . S
C1639 C1640 1.387 . S
C1639 H1642 0.950 . S
C1640 C1639 1.387 . S
C1640 C1643 1.387 . S
H1641 C1637 0.950 . S
H1642 C1639 0.950 . S
C1643 C1634 1.390 . S
C1643 H1636 0.950 . S
C1643 C1640 1.387 . S
C1644 C1645 1.387 . S
C1644 H1648 0.950 1_545 S
C1644 C1653 1.390 . S
C1645 C1644 1.387 . S
C1645 C1647 1.387 . S
H1646 C1653 0.950 . S
C1647 C1645 1.387 . S
C1647 C1649 1.390 . S
C1647 H1651 0.950 . S
H1648 C1644 0.950 1_565 S
C1649 C1647 1.390 . S
C1649 C1650 1.387 . S
C1649 H1652 0.950 . S
C1650 C1649 1.387 . S
C1650 C1653 1.387 . S
H1651 C1647 0.950 . S
H1652 C1649 0.950 . S
C1653 C1644 1.390 . S
C1653 H1646 0.950 . S
C1653 C1650 1.387 . S
C1654 C1655 1.387 . S
C1654 H1658 0.950 . S
C1654 C1663 1.390 . S
C1655 C1654 1.387 . S
C1655 C1657 1.387 . S
H1656 C1663 0.950 . S
C1657 C1655 1.387 . S
C1657 C1659 1.390 . S
C1657 H1661 0.950 . S
H1658 C1654 0.950 . S
C1659 C1657 1.390 . S
C1659 C1660 1.387 . S
C1659 H1662 0.950 . S
C1660 C1659 1.387 . S
C1660 C1663 1.387 . S
H1661 C1657 0.950 . S
H1662 C1659 0.950 . S
C1663 C1654 1.390 . S
C1663 H1656 0.950 . S
C1663 C1660 1.387 . S
C1664 C1665 1.387 . S
C1664 H1668 0.950 . S
C1664 C1673 1.390 . S
C1665 C1664 1.387 . S
C1665 C1667 1.387 . S
H1666 C1673 0.950 1_545 S
C1667 C1665 1.387 . S
C1667 C1669 1.390 . S
C1667 H1671 0.950 . S
H1668 C1664 0.950 . S
C1669 C1667 1.390 . S
C1669 C1670 1.387 . S
C1669 H1672 0.950 . S
C1670 C1669 1.387 . S
C1670 C1673 1.387 . S
H1671 C1667 0.950 . S
H1672 C1669 0.950 . S
C1673 C1664 1.390 . S
C1673 H1666 0.950 1_565 S
C1673 C1670 1.387 . S
C1674 C1675 1.387 . S
C1674 H1678 0.950 . S
C1674 C1683 1.390 . S
C1675 C1674 1.387 . S
C1675 C1677 1.387 . S
H1676 C1683 0.950 . S
C1677 C1675 1.387 . S
C1677 C1679 1.390 . S
C1677 H1681 0.950 . S
H1678 C1674 0.950 . S
C1679 C1677 1.390 . S
C1679 C1680 1.387 . S
C1679 H1682 0.950 . S
C1680 C1679 1.387 . S
C1680 C1683 1.387 . S
H1681 C1677 0.950 . S
H1682 C1679 0.950 . S
C1683 C1674 1.390 . S
C1683 H1676 0.950 . S
C1683 C1680 1.387 . S
C1684 C1685 1.387 . S
C1684 H1688 0.950 . S
C1684 C1693 1.390 . S
C1685 C1684 1.387 . S
C1685 C1687 1.387 . S
H1686 C1693 0.950 . S
C1687 C1685 1.387 . S
C1687 C1689 1.390 . S
C1687 H1691 0.950 . S
H1688 C1684 0.950 . S
C1689 C1687 1.390 . S
C1689 C1690 1.387 . S
C1689 H1692 0.950 . S
C1690 C1689 1.387 . S
C1690 C1693 1.387 . S
H1691 C1687 0.950 . S
H1692 C1689 0.950 . S
C1693 C1684 1.390 . S
C1693 H1686 0.950 . S
C1693 C1690 1.387 . S
C1694 C1695 1.387 . S
C1694 H1698 0.950 . S
C1694 C1703 1.390 . S
C1695 C1694 1.387 . S
C1695 C1697 1.387 . S
H1696 C1703 0.950 . S
C1697 C1695 1.387 . S
C1697 C1699 1.390 . S
C1697 H1701 0.950 . S
H1698 C1694 0.950 . S
C1699 C1697 1.390 . S
C1699 C1700 1.387 . S
C1699 H1702 0.950 . S
C1700 C1699 1.387 . S
C1700 C1703 1.387 . S
H1701 C1697 0.950 . S
H1702 C1699 0.950 . S
C1703 C1694 1.390 . S
C1703 H1696 0.950 . S
C1703 C1700 1.387 . S
C1704 C1705 1.387 . S
C1704 H1708 0.950 . S
C1704 C1713 1.390 . S
C1705 C1704 1.387 . S
C1705 C1707 1.387 . S
H1706 C1713 0.950 . S
C1707 C1705 1.387 . S
C1707 C1709 1.390 . S
C1707 H1711 0.950 . S
H1708 C1704 0.950 . S
C1709 C1707 1.390 . S
C1709 C1710 1.387 . S
C1709 H1712 0.950 . S
C1710 C1709 1.387 . S
C1710 C1713 1.387 . S
H1711 C1707 0.950 . S
H1712 C1709 0.950 . S
C1713 C1704 1.390 . S
C1713 H1706 0.950 . S
C1713 C1710 1.387 . S
C1714 C1715 1.387 . S
C1714 H1718 0.950 . S
C1714 C1723 1.390 . S
C1715 C1714 1.387 . S
C1715 C1717 1.387 . S
H1716 C1723 0.950 . S
C1717 C1715 1.387 . S
C1717 C1719 1.390 . S
C1717 H1721 0.950 . S
H1718 C1714 0.950 . S
C1719 C1717 1.390 . S
C1719 C1720 1.387 . S
C1719 H1722 0.950 . S
C1720 C1719 1.387 . S
C1720 C1723 1.387 . S
H1721 C1717 0.950 . S
H1722 C1719 0.950 . S
C1723 C1714 1.390 . S
C1723 H1716 0.950 . S
C1723 C1720 1.387 . S
C1724 C1725 1.387 . S
C1724 H1728 0.950 . S
C1724 C1733 1.390 . S
C1725 C1724 1.387 . S
C1725 C1727 1.387 . S
H1726 C1733 0.950 . S
C1727 C1725 1.387 . S
C1727 C1729 1.390 . S
C1727 H1731 0.950 . S
H1728 C1724 0.950 . S
C1729 C1727 1.390 . S
C1729 C1730 1.387 . S
C1729 H1732 0.950 . S
C1730 C1729 1.387 . S
C1730 C1733 1.387 . S
H1731 C1727 0.950 . S
H1732 C1729 0.950 . S
C1733 C1724 1.390 . S
C1733 H1726 0.950 . S
C1733 C1730 1.387 . S
C1734 C1735 1.387 . S
C1734 H1738 0.950 . S
C1734 C1743 1.390 . S
C1735 C1734 1.387 . S
C1735 C1737 1.387 . S
H1736 C1743 0.950 . S
C1737 C1735 1.387 . S
C1737 C1739 1.390 . S
C1737 H1741 0.950 . S
H1738 C1734 0.950 . S
C1739 C1737 1.390 . S
C1739 C1740 1.387 . S
C1739 H1742 0.950 . S
C1740 C1739 1.387 . S
C1740 C1743 1.387 . S
H1741 C1737 0.950 . S
H1742 C1739 0.950 . S
C1743 C1734 1.390 . S
C1743 H1736 0.950 . S
C1743 C1740 1.387 . S
C1744 C1745 1.387 . S
C1744 H1748 0.950 . S
C1744 C1753 1.390 . S
C1745 C1744 1.387 . S
C1745 C1747 1.387 . S
H1746 C1753 0.950 . S
C1747 C1745 1.387 . S
C1747 C1749 1.390 . S
C1747 H1751 0.950 . S
H1748 C1744 0.950 . S
C1749 C1747 1.390 . S
C1749 C1750 1.387 . S
C1749 H1752 0.950 . S
C1750 C1749 1.387 . S
C1750 C1753 1.387 . S
H1751 C1747 0.950 . S
H1752 C1749 0.950 . S
C1753 C1744 1.390 . S
C1753 H1746 0.950 . S
C1753 C1750 1.387 . S
C1754 C1755 1.387 . S
C1754 H1758 0.950 . S
C1754 C1763 1.390 . S
C1755 C1754 1.387 . S
C1755 C1757 1.387 . S
H1756 C1763 0.950 . S
C1757 C1755 1.387 . S
C1757 C1759 1.390 . S
C1757 H1761 0.950 . S
H1758 C1754 0.950 . S
C1759 C1757 1.390 . S
C1759 C1760 1.387 . S
C1759 H1762 0.950 . S
C1760 C1759 1.387 . S
C1760 C1763 1.387 . S
H1761 C1757 0.950 . S
H1762 C1759 0.950 . S
C1763 C1754 1.390 . S
C1763 H1756 0.950 . S
C1763 C1760 1.387 . S
C1764 C1765 1.387 . S
C1764 H1768 0.950 . S
C1764 C1773 1.390 . S
C1765 C1764 1.387 . S
C1765 C1767 1.387 . S
H1766 C1773 0.950 . S
C1767 C1765 1.387 . S
C1767 C1769 1.390 . S
C1767 H1771 0.950 . S
H1768 C1764 0.950 . S
C1769 C1767 1.390 . S
C1769 C1770 1.387 . S
C1769 H1772 0.950 . S
C1770 C1769 1.387 . S
C1770 C1773 1.387 . S
H1771 C1767 0.950 . S
H1772 C1769 0.950 . S
C1773 C1764 1.390 . S
C1773 H1766 0.950 . S
C1773 C1770 1.387 . S
C1774 C1775 1.387 . S
C1774 H1778 0.950 . S
C1774 C1783 1.390 . S
C1775 C1774 1.387 . S
C1775 C1777 1.387 . S
H1776 C1783 0.950 . S
C1777 C1775 1.387 . S
C1777 C1779 1.390 . S
C1777 H1781 0.950 . S
H1778 C1774 0.950 . S
C1779 C1777 1.390 . S
C1779 C1780 1.387 . S
C1779 H1782 0.950 . S
C1780 C1779 1.387 . S
C1780 C1783 1.387 . S
H1781 C1777 0.950 . S
H1782 C1779 0.950 . S
C1783 C1774 1.390 . S
C1783 H1776 0.950 . S
C1783 C1780 1.387 . S
C1784 C1785 1.387 . S
C1784 H1788 0.950 . S
C1784 C1793 1.390 . S
C1785 C1784 1.387 . S
C1785 C1787 1.387 . S
H1786 C1793 0.950 . S
C1787 C1785 1.387 . S
C1787 C1789 1.390 . S
C1787 H1791 0.950 . S
H1788 C1784 0.950 . S
C1789 C1787 1.390 . S
C1789 C1790 1.387 . S
C1789 H1792 0.950 . S
C1790 C1789 1.387 . S
C1790 C1793 1.387 . S
H1791 C1787 0.950 . S
H1792 C1789 0.950 . S
C1793 C1784 1.390 . S
C1793 H1786 0.950 . S
C1793 C1790 1.387 . S
C1794 C1795 1.387 . S
C1794 H1798 0.950 . S
C1794 C1803 1.390 . S
C1795 C1794 1.387 . S
C1795 C1797 1.387 . S
H1796 C1803 0.950 . S
C1797 C1795 1.387 . S
C1797 C1799 1.390 . S
C1797 H1801 0.950 . S
H1798 C1794 0.950 . S
C1799 C1797 1.390 . S
C1799 C1800 1.387 . S
C1799 H1802 0.950 . S
C1800 C1799 1.387 . S
C1800 C1803 1.387 . S
H1801 C1797 0.950 . S
H1802 C1799 0.950 . S
C1803 C1794 1.390 . S
C1803 H1796 0.950 . S
C1803 C1800 1.387 . S
C1804 C1805 1.387 . S
C1804 H1808 0.950 . S
C1804 C1813 1.390 . S
C1805 C1804 1.387 . S
C1805 C1807 1.387 . S
H1806 C1813 0.950 . S
C1807 C1805 1.387 . S
C1807 C1809 1.390 1_565 S
C1807 H1811 0.950 1_554 S
H1808 C1804 0.950 . S
C1809 C1807 1.390 1_545 S
C1809 C1810 1.387 . S
C1809 H1812 0.950 . S
C1810 C1809 1.387 . S
C1810 C1813 1.387 1_545 S
H1811 C1807 0.950 1_556 S
H1812 C1809 0.950 . S
C1813 C1804 1.390 . S
C1813 H1806 0.950 . S
C1813 C1810 1.387 1_565 S
C1814 C1815 1.387 . S
C1814 H1818 0.950 . S
C1814 C1823 1.390 . S
C1815 C1814 1.387 . S
C1815 C1817 1.387 . S
H1816 C1823 0.950 . S
C1817 C1815 1.387 . S
C1817 C1819 1.390 . S
C1817 H1821 0.950 . S
H1818 C1814 0.950 . S
C1819 C1817 1.390 . S
C1819 C1820 1.387 . S
C1819 H1822 0.950 1_655 S
C1820 C1819 1.387 . S
C1820 C1823 1.387 . S
H1821 C1817 0.950 . S
H1822 C1819 0.950 1_455 S
C1823 C1814 1.390 . S
C1823 H1816 0.950 . S
C1823 C1820 1.387 . S
C1824 C1825 1.387 . S
C1824 H1828 0.950 1_545 S
C1824 C1833 1.390 . S
C1825 C1824 1.387 . S
C1825 C1827 1.387 . S
H1826 C1833 0.950 1_565 S
C1827 C1825 1.387 . S
C1827 C1829 1.390 . S
C1827 H1831 0.950 . S
H1828 C1824 0.950 1_565 S
C1829 C1827 1.390 . S
C1829 C1830 1.387 . S
C1829 H1832 0.950 . S
C1830 C1829 1.387 . S
C1830 C1833 1.387 . S
H1831 C1827 0.950 . S
H1832 C1829 0.950 . S
C1833 C1824 1.390 . S
C1833 H1826 0.950 1_545 S
C1833 C1830 1.387 . S
C1834 C1835 1.387 . S
C1834 H1838 0.950 . S
C1834 C1843 1.390 . S
C1835 C1834 1.387 . S
C1835 C1837 1.387 . S
H1836 C1843 0.950 . S
C1837 C1835 1.387 . S
C1837 C1839 1.390 . S
C1837 H1841 0.950 . S
H1838 C1834 0.950 . S
C1839 C1837 1.390 . S
C1839 C1840 1.387 . S
C1839 H1842 0.950 . S
C1840 C1839 1.387 . S
C1840 C1843 1.387 . S
H1841 C1837 0.950 . S
H1842 C1839 0.950 . S
C1843 C1834 1.390 . S
C1843 H1836 0.950 . S
C1843 C1840 1.387 . S
C1844 C1845 1.387 . S
C1844 H1848 0.950 . S
C1844 C1853 1.390 . S
C1845 C1844 1.387 . S
C1845 C1847 1.387 . S
H1846 C1853 0.950 . S
C1847 C1845 1.387 . S
C1847 C1849 1.390 . S
C1847 H1851 0.950 . S
H1848 C1844 0.950 . S
C1849 C1847 1.390 . S
C1849 C1850 1.387 . S
C1849 H1852 0.950 . S
C1850 C1849 1.387 . S
C1850 C1853 1.387 . S
H1851 C1847 0.950 . S
H1852 C1849 0.950 . S
C1853 C1844 1.390 . S
C1853 H1846 0.950 . S
C1853 C1850 1.387 . S
C1854 C1855 1.387 . S
C1854 H1858 0.950 . S
C1854 C1863 1.390 . S
C1855 C1854 1.387 . S
C1855 C1857 1.387 . S
H1856 C1863 0.950 . S
C1857 C1855 1.387 . S
C1857 C1859 1.390 . S
C1857 H1861 0.950 . S
H1858 C1854 0.950 . S
C1859 C1857 1.390 . S
C1859 C1860 1.387 . S
C1859 H1862 0.950 . S
C1860 C1859 1.387 . S
C1860 C1863 1.387 . S
H1861 C1857 0.950 . S
H1862 C1859 0.950 . S
C1863 C1854 1.390 . S
C1863 H1856 0.950 . S
C1863 C1860 1.387 . S
C1864 C1865 1.387 . S
C1864 H1868 0.950 . S
C1864 C1873 1.390 . S
C1865 C1864 1.387 . S
C1865 C1867 1.387 . S
H1866 C1873 0.950 . S
C1867 C1865 1.387 . S
C1867 C1869 1.390 . S
C1867 H1871 0.950 1_545 S
H1868 C1864 0.950 . S
C1869 C1867 1.390 . S
C1869 C1870 1.387 . S
C1869 H1872 0.950 1_545 S
C1870 C1869 1.387 . S
C1870 C1873 1.387 . S
H1871 C1867 0.950 1_565 S
H1872 C1869 0.950 1_565 S
C1873 C1864 1.390 . S
C1873 H1866 0.950 . S
C1873 C1870 1.387 . S
C1874 C1875 1.387 . S
C1874 H1878 0.950 . S
C1874 C1883 1.390 . S
C1875 C1874 1.387 . S
C1875 C1877 1.387 . S
H1876 C1883 0.950 . S
C1877 C1875 1.387 . S
C1877 C1879 1.390 . S
C1877 H1881 0.950 . S
H1878 C1874 0.950 . S
C1879 C1877 1.390 . S
C1879 C1880 1.387 . S
C1879 H1882 0.950 . S
C1880 C1879 1.387 . S
C1880 C1883 1.387 . S
H1881 C1877 0.950 . S
H1882 C1879 0.950 . S
C1883 C1874 1.390 . S
C1883 H1876 0.950 . S
C1883 C1880 1.387 . S
C1884 C1885 1.387 . S
C1884 H1888 0.950 . S
C1884 C1893 1.390 . S
C1885 C1884 1.387 . S
C1885 C1887 1.387 . S
H1886 C1893 0.950 . S
C1887 C1885 1.387 . S
C1887 C1889 1.390 . S
C1887 H1891 0.950 . S
H1888 C1884 0.950 . S
C1889 C1887 1.390 . S
C1889 C1890 1.387 . S
C1889 H1892 0.950 . S
C1890 C1889 1.387 . S
C1890 C1893 1.387 . S
H1891 C1887 0.950 . S
H1892 C1889 0.950 . S
C1893 C1884 1.390 . S
C1893 H1886 0.950 . S
C1893 C1890 1.387 . S
C1894 C1895 1.387 . S
C1894 H1898 0.950 . S
C1894 C1903 1.390 . S
C1895 C1894 1.387 . S
C1895 C1897 1.387 . S
H1896 C1903 0.950 . S
C1897 C1895 1.387 . S
C1897 C1899 1.390 . S
C1897 H1901 0.950 . S
H1898 C1894 0.950 . S
C1899 C1897 1.390 . S
C1899 C1900 1.387 . S
C1899 H1902 0.950 . S
C1900 C1899 1.387 . S
C1900 C1903 1.387 . S
H1901 C1897 0.950 . S
H1902 C1899 0.950 . S
C1903 C1894 1.390 . S
C1903 H1896 0.950 . S
C1903 C1900 1.387 . S
C1904 C1905 1.387 . S
C1904 H1908 0.950 . S
C1904 C1913 1.390 . S
C1905 C1904 1.387 . S
C1905 C1907 1.387 . S
H1906 C1913 0.950 . S
C1907 C1905 1.387 . S
C1907 C1909 1.390 . S
C1907 H1911 0.950 . S
H1908 C1904 0.950 . S
C1909 C1907 1.390 . S
C1909 C1910 1.387 . S
C1909 H1912 0.950 . S
C1910 C1909 1.387 . S
C1910 C1913 1.387 . S
H1911 C1907 0.950 . S
H1912 C1909 0.950 . S
C1913 C1904 1.390 . S
C1913 H1906 0.950 . S
C1913 C1910 1.387 . S
C1914 C1915 1.387 . S
C1914 H1918 0.950 . S
C1914 C1923 1.390 . S
C1915 C1914 1.387 . S
C1915 C1917 1.387 . S
H1916 C1923 0.950 . S
C1917 C1915 1.387 . S
C1917 C1919 1.390 . S
C1917 H1921 0.950 . S
H1918 C1914 0.950 . S
C1919 C1917 1.390 . S
C1919 C1920 1.387 . S
C1919 H1922 0.950 . S
C1920 C1919 1.387 . S
C1920 C1923 1.387 . S
H1921 C1917 0.950 . S
H1922 C1919 0.950 . S
C1923 C1914 1.390 . S
C1923 H1916 0.950 . S
C1923 C1920 1.387 . S
C1924 C1925 1.387 . S
C1924 H1928 0.950 . S
C1924 C1933 1.390 . S
C1925 C1924 1.387 . S
C1925 C1927 1.387 . S
H1926 C1933 0.950 . S
C1927 C1925 1.387 . S
C1927 C1929 1.390 . S
C1927 H1931 0.950 . S
H1928 C1924 0.950 . S
C1929 C1927 1.390 . S
C1929 C1930 1.387 . S
C1929 H1932 0.950 . S
C1930 C1929 1.387 . S
C1930 C1933 1.387 . S
H1931 C1927 0.950 . S
H1932 C1929 0.950 . S
C1933 C1924 1.390 . S
C1933 H1926 0.950 . S
C1933 C1930 1.387 . S
C1934 C1935 1.387 . S
C1934 H1938 0.950 . S
C1934 C1943 1.390 . S
C1935 C1934 1.387 . S
C1935 C1937 1.387 . S
H1936 C1943 0.950 . S
C1937 C1935 1.387 . S
C1937 C1939 1.390 . S
C1937 H1941 0.950 . S
H1938 C1934 0.950 . S
C1939 C1937 1.390 . S
C1939 C1940 1.387 . S
C1939 H1942 0.950 . S
C1940 C1939 1.387 . S
C1940 C1943 1.387 . S
H1941 C1937 0.950 . S
H1942 C1939 0.950 . S
C1943 C1934 1.390 . S
C1943 H1936 0.950 . S
C1943 C1940 1.387 . S
C1944 C1945 1.387 . S
C1944 H1948 0.950 . S
C1944 C1953 1.390 . S
C1945 C1944 1.387 . S
C1945 C1947 1.387 . S
H1946 C1953 0.950 . S
C1947 C1945 1.387 . S
C1947 C1949 1.390 . S
C1947 H1951 0.950 . S
H1948 C1944 0.950 . S
C1949 C1947 1.390 . S
C1949 C1950 1.387 . S
C1949 H1952 0.950 . S
C1950 C1949 1.387 . S
C1950 C1953 1.387 . S
H1951 C1947 0.950 . S
H1952 C1949 0.950 . S
C1953 C1944 1.390 . S
C1953 H1946 0.950 . S
C1953 C1950 1.387 . S
C1954 C1955 1.387 . S
C1954 H1958 0.950 1_545 S
C1954 C1963 1.390 . S
C1955 C1954 1.387 . S
C1955 C1957 1.387 . S
H1956 C1963 0.950 1_565 S
C1957 C1955 1.387 . S
C1957 C1959 1.390 . S
C1957 H1961 0.950 . S
H1958 C1954 0.950 1_565 S
C1959 C1957 1.390 . S
C1959 C1960 1.387 . S
C1959 H1962 0.950 . S
C1960 C1959 1.387 . S
C1960 C1963 1.387 . S
H1961 C1957 0.950 . S
H1962 C1959 0.950 . S
C1963 C1954 1.390 . S
C1963 H1956 0.950 1_545 S
C1963 C1960 1.387 . S
C1964 C1965 1.387 . S
C1964 H1968 0.950 . S
C1964 C1973 1.390 . S
C1965 C1964 1.387 . S
C1965 C1967 1.387 . S
H1966 C1973 0.950 . S
C1967 C1965 1.387 . S
C1967 C1969 1.390 . S
C1967 H1971 0.950 . S
H1968 C1964 0.950 . S
C1969 C1967 1.390 . S
C1969 C1970 1.387 . S
C1969 H1972 0.950 . S
C1970 C1969 1.387 . S
C1970 C1973 1.387 . S
H1971 C1967 0.950 . S
H1972 C1969 0.950 . S
C1973 C1964 1.390 . S
C1973 H1966 0.950 . S
C1973 C1970 1.387 . S
C1974 C1975 1.387 . S
C1974 H1978 0.950 . S
C1974 C1983 1.390 . S
C1975 C1974 1.387 . S
C1975 C1977 1.387 . S
H1976 C1983 0.950 . S
C1977 C1975 1.387 . S
C1977 C1979 1.390 . S
C1977 H1981 0.950 . S
H1978 C1974 0.950 . S
C1979 C1977 1.390 . S
C1979 C1980 1.387 . S
C1979 H1982 0.950 . S
C1980 C1979 1.387 . S
C1980 C1983 1.387 . S
H1981 C1977 0.950 . S
H1982 C1979 0.950 . S
C1983 C1974 1.390 . S
C1983 H1976 0.950 . S
C1983 C1980 1.387 . S
C1984 C1985 1.387 . S
C1984 H1988 0.950 . S
C1984 C1993 1.390 . S
C1985 C1984 1.387 . S
C1985 C1987 1.387 . S
H1986 C1993 0.950 . S
C1987 C1985 1.387 . S
C1987 C1989 1.390 . S
C1987 H1991 0.950 . S
H1988 C1984 0.950 . S
C1989 C1987 1.390 . S
C1989 C1990 1.387 . S
C1989 H1992 0.950 . S
C1990 C1989 1.387 . S
C1990 C1993 1.387 . S
H1991 C1987 0.950 . S
H1992 C1989 0.950 . S
C1993 C1984 1.390 . S
C1993 H1986 0.950 . S
C1993 C1990 1.387 . S
C1994 C1995 1.387 . S
C1994 H1998 0.950 . S
C1994 C2003 1.390 . S
C1995 C1994 1.387 . S
C1995 C1997 1.387 . S
H1996 C2003 0.950 . S
C1997 C1995 1.387 . S
C1997 C1999 1.390 . S
C1997 H2001 0.950 . S
H1998 C1994 0.950 . S
C1999 C1997 1.390 . S
C1999 C2000 1.387 . S
C1999 H2002 0.950 . S
C2000 C1999 1.387 . S
C2000 C2003 1.387 . S
H2001 C1997 0.950 . S
H2002 C1999 0.950 . S
C2003 C1994 1.390 . S
C2003 H1996 0.950 . S
C2003 C2000 1.387 . S
C2004 C2005 1.387 . S
C2004 H2008 0.950 . S
C2004 C2013 1.390 . S
C2005 C2004 1.387 . S
C2005 C2007 1.387 1_556 S
H2006 C2013 0.950 . S
C2007 C2005 1.387 1_554 S
C2007 C2009 1.390 . S
C2007 H2011 0.950 . S
H2008 C2004 0.950 . S
C2009 C2007 1.390 . S
C2009 C2010 1.387 . S
C2009 H2012 0.950 . S
C2010 C2009 1.387 . S
C2010 C2013 1.387 1_554 S
H2011 C2007 0.950 . S
H2012 C2009 0.950 . S
C2013 C2004 1.390 . S
C2013 H2006 0.950 . S
C2013 C2010 1.387 1_556 S
C2014 C2015 1.387 . S
C2014 H2018 0.950 . S
C2014 C2023 1.390 . S
C2015 C2014 1.387 . S
C2015 C2017 1.387 . S
H2016 C2023 0.950 . S
C2017 C2015 1.387 . S
C2017 C2019 1.390 . S
C2017 H2021 0.950 . S
H2018 C2014 0.950 . S
C2019 C2017 1.390 . S
C2019 C2020 1.387 . S
C2019 H2022 0.950 . S
C2020 C2019 1.387 . S
C2020 C2023 1.387 . S
H2021 C2017 0.950 . S
H2022 C2019 0.950 . S
C2023 C2014 1.390 . S
C2023 H2016 0.950 . S
C2023 C2020 1.387 . S
C2024 C2025 1.387 . S
C2024 H2028 0.950 . S
C2024 C2033 1.390 . S
C2025 C2024 1.387 . S
C2025 C2027 1.387 . S
H2026 C2033 0.950 . S
C2027 C2025 1.387 . S
C2027 C2029 1.390 . S
C2027 H2031 0.950 . S
H2028 C2024 0.950 . S
C2029 C2027 1.390 . S
C2029 C2030 1.387 . S
C2029 H2032 0.950 . S
C2030 C2029 1.387 . S
C2030 C2033 1.387 . S
H2031 C2027 0.950 . S
H2032 C2029 0.950 . S
C2033 C2024 1.390 . S
C2033 H2026 0.950 . S
C2033 C2030 1.387 . S
C2034 C2035 1.387 . S
C2034 H2038 0.950 . S
C2034 C2043 1.390 . S
C2035 C2034 1.387 . S
C2035 C2037 1.387 . S
H2036 C2043 0.950 . S
C2037 C2035 1.387 . S
C2037 C2039 1.390 . S
C2037 H2041 0.950 . S
H2038 C2034 0.950 . S
C2039 C2037 1.390 . S
C2039 C2040 1.387 . S
C2039 H2042 0.950 . S
C2040 C2039 1.387 . S
C2040 C2043 1.387 . S
H2041 C2037 0.950 . S
H2042 C2039 0.950 . S
C2043 C2034 1.390 . S
C2043 H2036 0.950 . S
C2043 C2040 1.387 . S
C2044 C2045 1.387 1_455 S
C2044 H2048 0.954 . S
C2044 C2053 1.390 . S
C2045 C2044 1.387 1_655 S
C2045 C2047 1.387 . S
H2046 C2053 0.950 . S
C2047 C2045 1.387 . S
C2047 C2049 1.390 1_655 S
C2047 H2051 0.950 . S
H2048 C2044 0.954 . S
C2049 C2047 1.390 1_455 S
C2049 C2050 1.387 . S
C2049 H2052 0.950 . S
C2050 C2049 1.387 . S
C2050 C2053 1.387 . S
H2051 C2047 0.950 . S
H2052 C2049 0.950 . S
C2053 C2044 1.390 . S
C2053 H2046 0.950 . S
C2053 C2050 1.387 . S
C2054 C2055 1.387 . S
C2054 H2058 0.950 . S
C2054 C2063 1.390 . S
C2055 C2054 1.387 . S
C2055 C2057 1.387 . S
H2056 C2063 0.950 . S
C2057 C2055 1.387 . S
C2057 C2059 1.390 . S
C2057 H2061 0.950 . S
H2058 C2054 0.950 . S
C2059 C2057 1.390 . S
C2059 C2060 1.387 . S
C2059 H2062 0.950 . S
C2060 C2059 1.387 . S
C2060 C2063 1.387 . S
H2061 C2057 0.950 . S
H2062 C2059 0.950 . S
C2063 C2054 1.390 . S
C2063 H2056 0.950 . S
C2063 C2060 1.387 . S
C2064 C2065 1.387 . S
C2064 H2068 0.950 . S
C2064 C2073 1.390 . S
C2065 C2064 1.387 . S
C2065 C2067 1.387 . S
H2066 C2073 0.950 . S
C2067 C2065 1.387 . S
C2067 C2069 1.390 . S
C2067 H2071 0.950 . S
H2068 C2064 0.950 . S
C2069 C2067 1.390 . S
C2069 C2070 1.387 . S
C2069 H2072 0.950 . S
C2070 C2069 1.387 . S
C2070 C2073 1.387 . S
H2071 C2067 0.950 . S
H2072 C2069 0.950 . S
C2073 C2064 1.390 . S
C2073 H2066 0.950 . S
C2073 C2070 1.387 . S
C2074 C2075 1.387 . S
C2074 H2078 0.950 1_556 S
C2074 C2083 1.390 . S
C2075 C2074 1.387 . S
C2075 C2077 1.387 . S
H2076 C2083 0.950 . S
C2077 C2075 1.387 . S
C2077 C2079 1.390 . S
C2077 H2081 0.950 . S
H2078 C2074 0.950 1_554 S
C2079 C2077 1.390 . S
C2079 C2080 1.387 . S
C2079 H2082 0.950 . S
C2080 C2079 1.387 . S
C2080 C2083 1.387 . S
H2081 C2077 0.950 . S
H2082 C2079 0.950 . S
C2083 C2074 1.390 . S
C2083 H2076 0.950 . S
C2083 C2080 1.387 . S
C2084 C2085 1.387 . S
C2084 H2088 0.950 . S
C2084 C2093 1.390 . S
C2085 C2084 1.387 . S
C2085 C2087 1.387 . S
H2086 C2093 0.950 . S
C2087 C2085 1.387 . S
C2087 C2089 1.390 . S
C2087 H2091 0.950 . S
H2088 C2084 0.950 . S
C2089 C2087 1.390 . S
C2089 C2090 1.387 . S
C2089 H2092 0.950 . S
C2090 C2089 1.387 . S
C2090 C2093 1.387 . S
H2091 C2087 0.950 . S
H2092 C2089 0.950 . S
C2093 C2084 1.390 . S
C2093 H2086 0.950 . S
C2093 C2090 1.387 . S
C2094 C2095 1.387 . S
C2094 H2098 0.950 . S
C2094 C2103 1.390 . S
C2095 C2094 1.387 . S
C2095 C2097 1.387 . S
H2096 C2103 0.950 . S
C2097 C2095 1.387 . S
C2097 C2099 1.390 . S
C2097 H2101 0.950 . S
H2098 C2094 0.950 . S
C2099 C2097 1.390 . S
C2099 C2100 1.387 . S
C2099 H2102 0.950 . S
C2100 C2099 1.387 . S
C2100 C2103 1.387 . S
H2101 C2097 0.950 . S
H2102 C2099 0.950 . S
C2103 C2094 1.390 . S
C2103 H2096 0.950 . S
C2103 C2100 1.387 . S
C2104 C2105 1.387 . S
C2104 H2108 0.950 . S
C2104 C2113 1.390 . S
C2105 C2104 1.387 . S
C2105 C2107 1.387 . S
H2106 C2113 0.950 . S
C2107 C2105 1.387 . S
C2107 C2109 1.390 . S
C2107 H2111 0.950 . S
H2108 C2104 0.950 . S
C2109 C2107 1.390 . S
C2109 C2110 1.387 . S
C2109 H2112 0.950 . S
C2110 C2109 1.387 . S
C2110 C2113 1.387 . S
H2111 C2107 0.950 . S
H2112 C2109 0.950 . S
C2113 C2104 1.390 . S
C2113 H2106 0.950 . S
C2113 C2110 1.387 . S
C2114 C2115 1.387 . S
C2114 H2118 0.950 . S
C2114 C2123 1.390 . S
C2115 C2114 1.387 . S
C2115 C2117 1.387 . S
H2116 C2123 0.950 . S
C2117 C2115 1.387 . S
C2117 C2119 1.390 . S
C2117 H2121 0.950 . S
H2118 C2114 0.950 . S
C2119 C2117 1.390 . S
C2119 C2120 1.387 . S
C2119 H2122 0.950 . S
C2120 C2119 1.387 . S
C2120 C2123 1.387 . S
H2121 C2117 0.950 . S
H2122 C2119 0.950 . S
C2123 C2114 1.390 . S
C2123 H2116 0.950 . S
C2123 C2120 1.387 . S
C2124 C2125 1.387 . S
C2124 H2128 0.950 . S
C2124 C2133 1.390 . S
C2125 C2124 1.387 . S
C2125 C2127 1.387 . S
H2126 C2133 0.950 . S
C2127 C2125 1.387 . S
C2127 C2129 1.390 . S
C2127 H2131 0.950 . S
H2128 C2124 0.950 . S
C2129 C2127 1.390 . S
C2129 C2130 1.387 . S
C2129 H2132 0.950 . S
C2130 C2129 1.387 . S
C2130 C2133 1.387 . S
H2131 C2127 0.950 . S
H2132 C2129 0.950 . S
C2133 C2124 1.390 . S
C2133 H2126 0.950 . S
C2133 C2130 1.387 . S
C2134 C2135 1.387 . S
C2134 H2138 0.950 . S
C2134 C2143 1.390 . S
C2135 C2134 1.387 . S
C2135 C2137 1.387 . S
H2136 C2143 0.950 . S
C2137 C2135 1.387 . S
C2137 C2139 1.390 . S
C2137 H2141 0.950 . S
H2138 C2134 0.950 . S
C2139 C2137 1.390 . S
C2139 C2140 1.387 . S
C2139 H2142 0.950 . S
C2140 C2139 1.387 . S
C2140 C2143 1.387 . S
H2141 C2137 0.950 . S
H2142 C2139 0.950 . S
C2143 C2134 1.390 . S
C2143 H2136 0.950 . S
C2143 C2140 1.387 . S
C2144 C2145 1.387 . S
C2144 H2148 0.950 . S
C2144 C2153 1.390 . S
C2145 C2144 1.387 . S
C2145 C2147 1.387 . S
H2146 C2153 0.950 . S
C2147 C2145 1.387 . S
C2147 C2149 1.390 . S
C2147 H2151 0.950 . S
H2148 C2144 0.950 . S
C2149 C2147 1.390 . S
C2149 C2150 1.387 . S
C2149 H2152 0.950 . S
C2150 C2149 1.387 . S
C2150 C2153 1.387 . S
H2151 C2147 0.950 . S
H2152 C2149 0.950 . S
C2153 C2144 1.390 . S
C2153 H2146 0.950 . S
C2153 C2150 1.387 . S
C2154 C2155 1.387 . S
C2154 H2158 0.950 . S
C2154 C2163 1.390 . S
C2155 C2154 1.387 . S
C2155 C2157 1.387 . S
H2156 C2163 0.950 . S
C2157 C2155 1.387 . S
C2157 C2159 1.390 . S
C2157 H2161 0.950 . S
H2158 C2154 0.950 . S
C2159 C2157 1.390 . S
C2159 C2160 1.387 . S
C2159 H2162 0.950 . S
C2160 C2159 1.387 . S
C2160 C2163 1.387 . S
H2161 C2157 0.950 . S
H2162 C2159 0.950 . S
C2163 C2154 1.390 . S
C2163 H2156 0.950 . S
C2163 C2160 1.387 . S
C2164 C2165 1.387 . S
C2164 H2168 0.950 . S
C2164 C2173 1.390 . S
C2165 C2164 1.387 . S
C2165 C2167 1.387 . S
H2166 C2173 0.950 . S
C2167 C2165 1.387 . S
C2167 C2169 1.390 . S
C2167 H2171 0.950 . S
H2168 C2164 0.950 . S
C2169 C2167 1.390 . S
C2169 C2170 1.387 . S
C2169 H2172 0.950 . S
C2170 C2169 1.387 . S
C2170 C2173 1.387 . S
H2171 C2167 0.950 . S
H2172 C2169 0.950 . S
C2173 C2164 1.390 . S
C2173 H2166 0.950 . S
C2173 C2170 1.387 . S
C2174 C2175 1.387 . S
C2174 H2178 0.950 . S
C2174 C2183 1.390 . S
C2175 C2174 1.387 . S
C2175 C2177 1.387 . S
H2176 C2183 0.950 1_545 S
C2177 C2175 1.387 . S
C2177 C2179 1.390 . S
C2177 H2181 0.950 . S
H2178 C2174 0.950 . S
C2179 C2177 1.390 . S
C2179 C2180 1.387 . S
C2179 H2182 0.950 . S
C2180 C2179 1.387 . S
C2180 C2183 1.387 . S
H2181 C2177 0.950 . S
H2182 C2179 0.950 . S
C2183 C2174 1.390 . S
C2183 H2176 0.950 1_565 S
C2183 C2180 1.387 . S
C2184 C2185 1.387 . S
C2184 H2188 0.950 . S
C2184 C2193 1.390 . S
C2185 C2184 1.387 . S
C2185 C2187 1.387 . S
H2186 C2193 0.950 . S
C2187 C2185 1.387 . S
C2187 C2189 1.390 . S
C2187 H2191 0.950 . S
H2188 C2184 0.950 . S
C2189 C2187 1.390 . S
C2189 C2190 1.387 . S
C2189 H2192 0.950 . S
C2190 C2189 1.387 . S
C2190 C2193 1.387 . S
H2191 C2187 0.950 . S
H2192 C2189 0.950 . S
C2193 C2184 1.390 . S
C2193 H2186 0.950 . S
C2193 C2190 1.387 . S
C2194 C2195 1.387 . S
C2194 H2198 0.950 . S
C2194 C2203 1.390 . S
C2195 C2194 1.387 . S
C2195 C2197 1.387 . S
H2196 C2203 0.950 . S
C2197 C2195 1.387 . S
C2197 C2199 1.390 . S
C2197 H2201 0.950 . S
H2198 C2194 0.950 . S
C2199 C2197 1.390 . S
C2199 C2200 1.387 . S
C2199 H2202 0.950 . S
C2200 C2199 1.387 . S
C2200 C2203 1.387 . S
H2201 C2197 0.950 . S
H2202 C2199 0.950 . S
C2203 C2194 1.390 . S
C2203 H2196 0.950 . S
C2203 C2200 1.387 . S
C2204 C2205 1.387 . S
C2204 H2208 0.950 . S
C2204 C2213 1.390 . S
C2205 C2204 1.387 . S
C2205 C2207 1.387 . S
H2206 C2213 0.950 . S
C2207 C2205 1.387 . S
C2207 C2209 1.390 . S
C2207 H2211 0.950 . S
H2208 C2204 0.950 . S
C2209 C2207 1.390 . S
C2209 C2210 1.387 . S
C2209 H2212 0.950 . S
C2210 C2209 1.387 . S
C2210 C2213 1.387 . S
H2211 C2207 0.950 . S
H2212 C2209 0.950 . S
C2213 C2204 1.390 . S
C2213 H2206 0.950 . S
C2213 C2210 1.387 . S
C2214 C2215 1.387 . S
C2214 H2218 0.950 . S
C2214 C2223 1.390 . S
C2215 C2214 1.387 . S
C2215 C2217 1.387 . S
H2216 C2223 0.950 . S
C2217 C2215 1.387 . S
C2217 C2219 1.390 . S
C2217 H2221 0.950 . S
H2218 C2214 0.950 . S
C2219 C2217 1.390 . S
C2219 C2220 1.387 . S
C2219 H2222 0.950 . S
C2220 C2219 1.387 . S
C2220 C2223 1.387 . S
H2221 C2217 0.950 . S
H2222 C2219 0.950 . S
C2223 C2214 1.390 . S
C2223 H2216 0.950 . S
C2223 C2220 1.387 . S
C2224 C2225 1.387 . S
C2224 H2228 0.950 . S
C2224 C2233 1.390 . S
C2225 C2224 1.387 . S
C2225 C2227 1.387 . S
H2226 C2233 0.950 . S
C2227 C2225 1.387 . S
C2227 C2229 1.390 . S
C2227 H2231 0.950 . S
H2228 C2224 0.950 . S
C2229 C2227 1.390 . S
C2229 C2230 1.387 . S
C2229 H2232 0.950 . S
C2230 C2229 1.387 . S
C2230 C2233 1.387 . S
H2231 C2227 0.950 . S
H2232 C2229 0.950 . S
C2233 C2224 1.390 . S
C2233 H2226 0.950 . S
C2233 C2230 1.387 . S
C2234 C2235 1.387 . S
C2234 H2238 0.950 . S
C2234 C2243 1.390 . S
C2235 C2234 1.387 . S
C2235 C2237 1.387 . S
H2236 C2243 0.950 . S
C2237 C2235 1.387 . S
C2237 C2239 1.390 . S
C2237 H2241 0.950 . S
H2238 C2234 0.950 . S
C2239 C2237 1.390 . S
C2239 C2240 1.387 . S
C2239 H2242 0.950 . S
C2240 C2239 1.387 . S
C2240 C2243 1.387 . S
H2241 C2237 0.950 . S
H2242 C2239 0.950 . S
C2243 C2234 1.390 . S
C2243 H2236 0.950 . S
C2243 C2240 1.387 . S
C2244 C2245 1.387 . S
C2244 H2248 0.950 . S
C2244 C2253 1.390 . S
C2245 C2244 1.387 . S
C2245 C2247 1.387 . S
H2246 C2253 0.950 . S
C2247 C2245 1.387 . S
C2247 C2249 1.390 . S
C2247 H2251 0.950 . S
H2248 C2244 0.950 . S
C2249 C2247 1.390 . S
C2249 C2250 1.387 . S
C2249 H2252 0.950 . S
C2250 C2249 1.387 . S
C2250 C2253 1.387 . S
H2251 C2247 0.950 . S
H2252 C2249 0.950 . S
C2253 C2244 1.390 . S
C2253 H2246 0.950 . S
C2253 C2250 1.387 . S
C2254 C2255 1.387 . S
C2254 H2258 0.950 . S
C2254 C2263 1.390 . S
C2255 C2254 1.387 . S
C2255 C2257 1.387 . S
H2256 C2263 0.950 . S
C2257 C2255 1.387 . S
C2257 C2259 1.390 . S
C2257 H2261 0.950 . S
H2258 C2254 0.950 . S
C2259 C2257 1.390 . S
C2259 C2260 1.387 . S
C2259 H2262 0.950 . S
C2260 C2259 1.387 . S
C2260 C2263 1.387 . S
H2261 C2257 0.950 . S
H2262 C2259 0.950 . S
C2263 C2254 1.390 . S
C2263 H2256 0.950 . S
C2263 C2260 1.387 . S
C2264 C2265 1.387 . S
C2264 H2268 0.950 1_554 S
C2264 C2273 1.390 . S
C2265 C2264 1.387 . S
C2265 C2267 1.387 . S
H2266 C2273 0.950 1_556 S
C2267 C2265 1.387 . S
C2267 C2269 1.390 . S
C2267 H2271 0.950 . S
H2268 C2264 0.950 1_556 S
C2269 C2267 1.390 . S
C2269 C2270 1.387 . S
C2269 H2272 0.950 . S
C2270 C2269 1.387 . S
C2270 C2273 1.387 . S
H2271 C2267 0.950 . S
H2272 C2269 0.950 . S
C2273 C2264 1.390 . S
C2273 H2266 0.950 1_554 S
C2273 C2270 1.387 . S
C2274 C2275 1.387 . S
C2274 H2278 0.950 . S
C2274 C2283 1.390 . S
C2275 C2274 1.387 . S
C2275 C2277 1.387 . S
H2276 C2283 0.950 . S
C2277 C2275 1.387 . S
C2277 C2279 1.390 . S
C2277 H2281 0.950 . S
H2278 C2274 0.950 . S
C2279 C2277 1.390 . S
C2279 C2280 1.387 . S
C2279 H2282 0.950 . S
C2280 C2279 1.387 . S
C2280 C2283 1.387 . S
H2281 C2277 0.950 . S
H2282 C2279 0.950 . S
C2283 C2274 1.390 . S
C2283 H2276 0.950 . S
C2283 C2280 1.387 . S
C2284 C2285 1.387 . S
C2284 H2288 0.950 . S
C2284 C2293 1.390 . S
C2285 C2284 1.387 . S
C2285 C2287 1.387 . S
H2286 C2293 0.950 . S
C2287 C2285 1.387 . S
C2287 C2289 1.390 . S
C2287 H2291 0.950 . S
H2288 C2284 0.950 . S
C2289 C2287 1.390 . S
C2289 C2290 1.387 . S
C2289 H2292 0.950 . S
C2290 C2289 1.387 . S
C2290 C2293 1.387 . S
H2291 C2287 0.950 . S
H2292 C2289 0.950 . S
C2293 C2284 1.390 . S
C2293 H2286 0.950 . S
C2293 C2290 1.387 . S
C2294 C2295 1.387 . S
C2294 H2298 0.950 . S
C2294 C2303 1.390 . S
C2295 C2294 1.387 . S
C2295 C2297 1.387 . S
H2296 C2303 0.950 . S
C2297 C2295 1.387 . S
C2297 C2299 1.390 . S
C2297 H2301 0.950 . S
H2298 C2294 0.950 . S
C2299 C2297 1.390 . S
C2299 C2300 1.387 . S
C2299 H2302 0.950 . S
C2300 C2299 1.387 . S
C2300 C2303 1.387 . S
H2301 C2297 0.950 . S
H2302 C2299 0.950 . S
C2303 C2294 1.390 . S
C2303 H2296 0.950 . S
C2303 C2300 1.387 . S
C2304 C2305 1.387 . S
C2304 H2308 0.950 . S
C2304 C2313 1.390 . S
C2305 C2304 1.387 . S
C2305 C2307 1.387 . S
H2306 C2313 0.950 . S
C2307 C2305 1.387 . S
C2307 C2309 1.390 . S
C2307 H2311 0.950 . S
H2308 C2304 0.950 . S
C2309 C2307 1.390 . S
C2309 C2310 1.387 . S
C2309 H2312 0.950 . S
C2310 C2309 1.387 . S
C2310 C2313 1.387 . S
H2311 C2307 0.950 . S
H2312 C2309 0.950 . S
C2313 C2304 1.390 . S
C2313 H2306 0.950 . S
C2313 C2310 1.387 . S
C2314 C2315 1.387 . S
C2314 H2318 0.950 . S
C2314 C2323 1.390 . S
C2315 C2314 1.387 . S
C2315 C2317 1.387 . S
H2316 C2323 0.950 . S
C2317 C2315 1.387 . S
C2317 C2319 1.390 . S
C2317 H2321 0.950 . S
H2318 C2314 0.950 . S
C2319 C2317 1.390 . S
C2319 C2320 1.387 . S
C2319 H2322 0.950 . S
C2320 C2319 1.387 . S
C2320 C2323 1.387 . S
H2321 C2317 0.950 . S
H2322 C2319 0.950 . S
C2323 C2314 1.390 . S
C2323 H2316 0.950 . S
C2323 C2320 1.387 . S
C2324 C2325 1.387 . S
C2324 H2328 0.950 . S
C2324 C2333 1.390 . S
C2325 C2324 1.387 . S
C2325 C2327 1.387 . S
H2326 C2333 0.950 1_554 S
C2327 C2325 1.387 . S
C2327 C2329 1.390 . S
C2327 H2331 0.950 1_455 S
H2328 C2324 0.950 . S
C2329 C2327 1.390 . S
C2329 C2330 1.387 . S
C2329 H2332 0.950 . S
C2330 C2329 1.387 . S
C2330 C2333 1.387 . S
H2331 C2327 0.950 1_655 S
H2332 C2329 0.950 . S
C2333 C2324 1.390 . S
C2333 H2326 0.950 1_556 S
C2333 C2330 1.387 . S
C2334 C2335 1.387 . S
C2334 H2338 0.950 . S
C2334 C2343 1.390 . S
C2335 C2334 1.387 . S
C2335 C2337 1.387 . S
H2336 C2343 0.950 . S
C2337 C2335 1.387 . S
C2337 C2339 1.390 . S
C2337 H2341 0.950 . S
H2338 C2334 0.950 . S
C2339 C2337 1.390 . S
C2339 C2340 1.387 . S
C2339 H2342 0.950 . S
C2340 C2339 1.387 . S
C2340 C2343 1.387 . S
H2341 C2337 0.950 . S
H2342 C2339 0.950 . S
C2343 C2334 1.390 . S
C2343 H2336 0.950 . S
C2343 C2340 1.387 . S
C2344 C2345 1.387 . S
C2344 H2348 0.950 . S
C2344 C2353 1.390 . S
C2345 C2344 1.387 . S
C2345 C2347 1.387 . S
H2346 C2353 0.950 . S
C2347 C2345 1.387 . S
C2347 C2349 1.390 . S
C2347 H2351 0.950 . S
H2348 C2344 0.950 . S
C2349 C2347 1.390 . S
C2349 C2350 1.387 . S
C2349 H2352 0.950 . S
C2350 C2349 1.387 . S
C2350 C2353 1.387 . S
H2351 C2347 0.950 . S
H2352 C2349 0.950 . S
C2353 C2344 1.390 . S
C2353 H2346 0.950 . S
C2353 C2350 1.387 . S
C2354 C2355 1.387 . S
C2354 H2358 0.950 . S
C2354 C2363 1.390 . S
C2355 C2354 1.387 . S
C2355 C2357 1.387 . S
H2356 C2363 0.950 . S
C2357 C2355 1.387 . S
C2357 C2359 1.390 . S
C2357 H2361 0.950 . S
H2358 C2354 0.950 . S
C2359 C2357 1.390 . S
C2359 C2360 1.387 . S
C2359 H2362 0.950 . S
C2360 C2359 1.387 . S
C2360 C2363 1.387 . S
H2361 C2357 0.950 . S
H2362 C2359 0.950 . S
C2363 C2354 1.390 . S
C2363 H2356 0.950 . S
C2363 C2360 1.387 . S
C2364 C2365 1.387 . S
C2364 H2368 0.950 . S
C2364 C2373 1.390 . S
C2365 C2364 1.387 . S
C2365 C2367 1.387 1_455 S
H2366 C2373 0.950 . S
C2367 C2365 1.387 1_655 S
C2367 C2369 1.390 1_655 S
C2367 H2371 0.950 . S
H2368 C2364 0.950 . S
C2369 C2367 1.390 1_455 S
C2369 C2370 1.387 . S
C2369 H2372 0.950 1_455 S
C2370 C2369 1.387 . S
C2370 C2373 1.387 . S
H2371 C2367 0.950 . S
H2372 C2369 0.950 1_655 S
C2373 C2364 1.390 . S
C2373 H2366 0.950 . S
C2373 C2370 1.387 . S
C2374 C2375 1.387 . S
C2374 H2378 0.950 . S
C2374 C2383 1.390 . S
C2375 C2374 1.387 . S
C2375 C2377 1.387 . S
H2376 C2383 0.950 . S
C2377 C2375 1.387 . S
C2377 C2379 1.390 . S
C2377 H2381 0.950 . S
H2378 C2374 0.950 . S
C2379 C2377 1.390 . S
C2379 C2380 1.387 . S
C2379 H2382 0.950 . S
C2380 C2379 1.387 . S
C2380 C2383 1.387 . S
H2381 C2377 0.950 . S
H2382 C2379 0.950 . S
C2383 C2374 1.390 . S
C2383 H2376 0.950 . S
C2383 C2380 1.387 . S
C2384 C2385 1.387 . S
C2384 H2388 0.950 . S
C2384 C2393 1.390 . S
C2385 C2384 1.387 . S
C2385 C2387 1.387 . S
H2386 C2393 0.950 . S
C2387 C2385 1.387 . S
C2387 C2389 1.390 . S
C2387 H2391 0.950 . S
H2388 C2384 0.950 . S
C2389 C2387 1.390 . S
C2389 C2390 1.387 . S
C2389 H2392 0.950 . S
C2390 C2389 1.387 . S
C2390 C2393 1.387 . S
H2391 C2387 0.950 . S
H2392 C2389 0.950 . S
C2393 C2384 1.390 . S
C2393 H2386 0.950 . S
C2393 C2390 1.387 . S
C2394 C2395 1.387 . S
C2394 H2398 0.950 . S
C2394 C2403 1.390 . S
C2395 C2394 1.387 . S
C2395 C2397 1.387 . S
H2396 C2403 0.950 . S
C2397 C2395 1.387 . S
C2397 C2399 1.390 . S
C2397 H2401 0.950 . S
H2398 C2394 0.950 . S
C2399 C2397 1.390 . S
C2399 C2400 1.387 . S
C2399 H2402 0.950 . S
C2400 C2399 1.387 . S
C2400 C2403 1.387 . S
H2401 C2397 0.950 . S
H2402 C2399 0.950 . S
C2403 C2394 1.390 . S
C2403 H2396 0.950 . S
C2403 C2400 1.387 . S
C2404 C2405 1.387 . S
C2404 H2408 0.950 . S
C2404 C2413 1.390 . S
C2405 C2404 1.387 . S
C2405 C2407 1.387 . S
H2406 C2413 0.950 . S
C2407 C2405 1.387 . S
C2407 C2409 1.390 . S
C2407 H2411 0.950 . S
H2408 C2404 0.950 . S
C2409 C2407 1.390 . S
C2409 C2410 1.387 . S
C2409 H2412 0.950 . S
C2410 C2409 1.387 . S
C2410 C2413 1.387 . S
H2411 C2407 0.950 . S
H2412 C2409 0.950 . S
C2413 C2404 1.390 . S
C2413 H2406 0.950 . S
C2413 C2410 1.387 . S
C2414 C2415 1.387 . S
C2414 H2418 0.950 . S
C2414 C2423 1.390 . S
C2415 C2414 1.387 . S
C2415 C2417 1.387 . S
H2416 C2423 0.950 . S
C2417 C2415 1.387 . S
C2417 C2419 1.390 . S
C2417 H2421 0.950 . S
H2418 C2414 0.950 . S
C2419 C2417 1.390 . S
C2419 C2420 1.387 . S
C2419 H2422 0.950 . S
C2420 C2419 1.387 . S
C2420 C2423 1.387 . S
H2421 C2417 0.950 . S
H2422 C2419 0.950 . S
C2423 C2414 1.390 . S
C2423 H2416 0.950 . S
C2423 C2420 1.387 . S
C2424 C2425 1.387 . S
C2424 H2428 0.950 . S
C2424 C2433 1.390 . S
C2425 C2424 1.387 . S
C2425 C2427 1.387 . S
H2426 C2433 0.950 . S
C2427 C2425 1.387 . S
C2427 C2429 1.390 . S
C2427 H2431 0.950 . S
H2428 C2424 0.950 . S
C2429 C2427 1.390 . S
C2429 C2430 1.387 . S
C2429 H2432 0.950 . S
C2430 C2429 1.387 . S
C2430 C2433 1.387 . S
H2431 C2427 0.950 . S
H2432 C2429 0.950 . S
C2433 C2424 1.390 . S
C2433 H2426 0.950 . S
C2433 C2430 1.387 . S
C2434 C2435 1.387 . S
C2434 H2438 0.950 . S
C2434 C2443 1.390 . S
C2435 C2434 1.387 . S
C2435 C2437 1.387 . S
H2436 C2443 0.950 . S
C2437 C2435 1.387 . S
C2437 C2439 1.390 . S
C2437 H2441 0.950 . S
H2438 C2434 0.950 . S
C2439 C2437 1.390 . S
C2439 C2440 1.387 . S
C2439 H2442 0.950 . S
C2440 C2439 1.387 . S
C2440 C2443 1.387 . S
H2441 C2437 0.950 . S
H2442 C2439 0.950 . S
C2443 C2434 1.390 . S
C2443 H2436 0.950 . S
C2443 C2440 1.387 . S
C2444 C2445 1.387 . S
C2444 H2448 0.950 . S
C2444 C2453 1.390 . S
C2445 C2444 1.387 . S
C2445 C2447 1.387 . S
H2446 C2453 0.950 . S
C2447 C2445 1.387 . S
C2447 C2449 1.390 . S
C2447 H2451 0.950 . S
H2448 C2444 0.950 . S
C2449 C2447 1.390 . S
C2449 C2450 1.387 . S
C2449 H2452 0.950 . S
C2450 C2449 1.387 . S
C2450 C2453 1.387 . S
H2451 C2447 0.950 . S
H2452 C2449 0.950 . S
C2453 C2444 1.390 . S
C2453 H2446 0.950 . S
C2453 C2450 1.387 . S
C2454 C2455 1.387 . S
C2454 H2458 0.950 . S
C2454 C2463 1.390 . S
C2455 C2454 1.387 . S
C2455 C2457 1.387 . S
H2456 C2463 0.950 . S
C2457 C2455 1.387 . S
C2457 C2459 1.390 . S
C2457 H2461 0.950 . S
H2458 C2454 0.950 . S
C2459 C2457 1.390 . S
C2459 C2460 1.387 . S
C2459 H2462 0.950 . S
C2460 C2459 1.387 . S
C2460 C2463 1.387 . S
H2461 C2457 0.950 . S
H2462 C2459 0.950 . S
C2463 C2454 1.390 . S
C2463 H2456 0.950 . S
C2463 C2460 1.387 . S
C1505 C255 1.551 . S
C1510 C870 1.456 . S
C1515 C147 2.049 . S
C1520 C922 1.914 . S
C1525 C184 1.424 . S
C1530 C954 1.436 1_565 S
C1540 C1003 2.517 . S
C1535 C220 2.499 . S
C1545 C40 1.297 . S
C1550 C1039 1.333 . S
C1560 C1070 0.740 . S
C1555 C74 0.728 . S
C1570 C1122 0.560 . S
C1565 C110 0.715 . S
C1575 C14 2.638 . S
C1580 C1150 2.527 . S
C1590 C882 2.086 . S
C1585 C579 2.247 . S
C1595 C616 1.839 . S
C1600 C923 1.901 . S
C1610 C953 1.960 . S
C1605 C687 2.077 1_545 S
C1620 C990 0.953 . S
C1615 C436 1.039 . S
C1625 C580 1.857 . S
C1630 C1034 1.879 . S
C1640 C1082 2.094 . S
C1635 C615 2.029 . S
C1650 C1123 1.893 1_556 S
C1645 C688 1.843 . S
C1660 C1162 1.976 . S
C1655 C435 2.115 . S
C1670 C883 2.360 1_565 S
C1665 C410 2.283 . S
C1675 C722 1.786 1_554 S
C1680 C1193 1.798 . S
C1690 C1243 2.576 . S
C1685 C842 2.563 . S
C1700 C1270 1.034 . S
C1695 C794 1.048 . S
C1705 C302 2.750 . S
C1710 C1163 2.730 . S
C1715 C338 2.109 . S
C1720 C959 1.791 . S
C1725 C830 2.663 . S
C1730 C1322 2.579 . S
C1740 C1350 1.389 . S
C1735 C758 1.546 . S
C1750 C879 1.581 . S
C1745 C158 1.611 . S
C1760 C1353 1.981 . S
C1755 C254 2.096 1_655 S
C1765 C218 1.436 . S
C1770 C963 1.442 . S
C1775 C194 2.518 . S
C1780 C1314 2.499 . S
C1790 C1030 1.295 . S
C1785 C3 1.354 . S
C1795 C111 0.930 . S
C1800 C1239 0.921 . S
C1810 C1113 0.598 . S
C1805 C76 0.614 . S
C1820 C1399 2.604 . S
C1815 C50 2.566 . S
C1830 C873 2.017 1_556 S
C1825 C364 2.247 . S
C1840 C1354 1.951 . S
C1835 C795 1.929 . S
C1845 C292 1.999 . S
C1850 C962 1.932 . S
C1855 C723 0.821 . S
C1860 C1319 0.798 . S
C1865 C363 1.854 . S
C1870 C1043 1.849 . S
C1880 C1233 2.093 . S
C1875 C796 2.003 . S
C1885 C291 1.947 . S
C1890 C1114 1.955 . S
C1895 C724 2.284 . S
C1900 C1393 2.052 . S
C1905 C482 2.207 . S
C1910 C874 2.350 1_655 S
C1915 C434 1.920 . S
C1920 C1202 2.003 . S
C1925 C662 2.365 . S
C1930 C1074 2.461 . S
C1935 C614 0.994 . S
C1940 C1279 0.993 . S
C1950 C1394 2.714 . S
C1945 C698 2.598 . S
C1955 C554 1.664 . S
C1960 C950 1.795 . S
C1970 C993 2.528 . S
C1965 C650 2.590 . S
C1980 C919 1.489 . S
C1975 C506 1.674 . S
C1985 C183 1.522 . S
C1990 C1430 1.422 . S
C2000 C1362 1.965 . S
C1995 C219 2.121 . S
C2005 C256 1.517 . S
C2010 C1474 1.535 . S
C2015 C148 2.490 . S
C2020 C1323 2.513 . S
C2025 C122 1.584 . S
C2030 C1199 1.414 . S
C2040 C1230 0.996 1_455 S
C2035 C2 1.069 . S
C2050 C1282 0.621 . S
C2045 C39 0.718 . S
C2060 C1390 1.623 . S
C2055 C86 1.717 . S
C2070 C1442 2.025 . S
C2065 C651 2.190 . S
C2075 C472 1.938 1_556 S
C2080 C1363 2.007 . S
C2090 C1473 1.979 . S
C2085 C507 2.070 . S
C2100 C1310 0.815 . S
C2095 C544 0.855 . S
C2110 C1194 1.986 1_556 S
C2105 C652 1.962 . S
C2115 C471 2.080 . S
C2120 C1242 2.091 . S
C2130 C1283 1.911 . S
C2125 C508 1.857 . S
C2135 C543 1.975 . S
C2140 C1402 1.836 . S
C2150 C1443 2.361 . S
C2145 C806 2.285 . S
C2155 C326 1.955 . S
C2160 C1033 2.042 . S
C2170 C1083 2.531 . S
C2165 C374 2.547 . S
C2180 C1110 1.167 1_565 S
C2175 C398 1.201 . S
C2190 C1403 2.615 . S
C2185 C770 2.615 . S
C2195 C734 1.781 1_554 S
C2200 C1479 1.497 . S
C2210 C1002 2.648 . S
C2205 C362 2.712 . S
C2220 C910 1.410 1_545 S
C2215 C290 1.560 . S
C2225 C230 1.609 . S
C2230 C1439 1.569 . S
C2240 C913 2.028 . S
C2235 C182 2.169 . S
C2245 C146 1.473 . S
C2250 C1483 1.483 . S
C2255 C266 2.520 . S
C2260 C994 2.502 . S
C2265 C75 1.318 . S
C2270 C1190 1.241 . S
C2280 C1079 0.931 . S
C2275 C38 0.982 . S
C2285 C4 0.743 . S
C2290 C1273 0.581 . S
C2295 C112 2.593 . S
C2300 C1159 2.332 . S
C2310 C1433 1.992 . S
C2305 C832 2.224 . S
C2315 C399 1.975 . S
C2320 C914 1.993 . S
C2330 C1482 1.986 1_556 S
C2325 C760 2.045 . S
C2335 C327 0.930 . S
C2340 C999 0.901 . S
C2345 C831 1.983 . S
C2350 C1203 1.991 . S
C2360 C1073 2.135 . S
C2355 C400 2.105 1_556 S
C2365 C759 1.921 1_455 S
C2370 C1274 1.940 . S
C2380 C1153 1.985 . S
C2375 C328 2.220 . S
C2390 C1434 2.366 . S
C2385 C626 2.223 . S
C2400 C1042 2.031 1_655 S
C2395 C542 1.949 . S
C2405 C590 2.329 . S
C2410 C1234 2.417 . S
C2420 C1119 1.061 . S
C2415 C470 1.075 . S
C2425 C518 2.489 . S
C2430 C1154 2.610 . S
C2435 C446 1.581 . S
C2440 C1470 1.698 . S
C2450 C1313 2.579 . S
C2445 C578 2.627 1_565 S
C2460 C1359 1.380 . S
C2455 C686 1.563 . S
