# Generated by pormake.
# Topology myd, (4,6)-cn, num edge types: 1
# Building blocks:
#     Node 0, Type 0, BuildingBlock: KOZSID_clean_sbu_0, # of connection points: 4
#     Node 1, Type 0, BuildingBlock: KOZSID_clean_sbu_0, # of connection points: 4
#     Node 2, Type 0, BuildingBlock: KOZSID_clean_sbu_0, # of connection points: 4
#     Node 3, Type 0, BuildingBlock: KOZSID_clean_sbu_0, # of connection points: 4
#     Node 4, Type 0, BuildingBlock: KOZSID_clean_sbu_0, # of connection points: 4
#     Node 5, Type 0, BuildingBlock: KOZSID_clean_sbu_0, # of connection points: 4
#     Node 6, Type 0, BuildingBlock: KOZSID_clean_sbu_0, # of connection points: 4
#     Node 7, Type 0, BuildingBlock: KOZSID_clean_sbu_0, # of connection points: 4
#     Node 8, Type 0, BuildingBlock: KOZSID_clean_sbu_0, # of connection points: 4
#     Node 9, Type 0, BuildingBlock: KOZSID_clean_sbu_0, # of connection points: 4
#     Node 10, Type 0, BuildingBlock: KOZSID_clean_sbu_0, # of connection points: 4
#     Node 11, Type 0, BuildingBlock: KOZSID_clean_sbu_0, # of connection points: 4
#     Node 12, Type 1, BuildingBlock: JUFBIX_clean_sbu_0, # of connection points: 6
#     Node 13, Type 1, BuildingBlock: JUFBIX_clean_sbu_0, # of connection points: 6
#     Node 14, Type 1, BuildingBlock: JUFBIX_clean_sbu_0, # of connection points: 6
#     Node 15, Type 1, BuildingBlock: JUFBIX_clean_sbu_0, # of connection points: 6
#     Node 16, Type 1, BuildingBlock: JUFBIX_clean_sbu_0, # of connection points: 6
#     Node 17, Type 1, BuildingBlock: JUFBIX_clean_sbu_0, # of connection points: 6
#     Node 18, Type 1, BuildingBlock: JUFBIX_clean_sbu_0, # of connection points: 6
#     Node 19, Type 1, BuildingBlock: JUFBIX_clean_sbu_0, # of connection points: 6
#     Edge 20, Type (0, 1), BuildingBlock: MIFKUJ_clean_linker_0, # of connection points: 2
#     Edge 21, Type (0, 1), BuildingBlock: MIFKUJ_clean_linker_0, # of connection points: 2
#     Edge 22, Type (0, 1), BuildingBlock: MIFKUJ_clean_linker_0, # of connection points: 2
#     Edge 23, Type (0, 1), BuildingBlock: MIFKUJ_clean_linker_0, # of connection points: 2
#     Edge 24, Type (0, 1), BuildingBlock: MIFKUJ_clean_linker_0, # of connection points: 2
#     Edge 25, Type (0, 1), BuildingBlock: MIFKUJ_clean_linker_0, # of connection points: 2
#     Edge 26, Type (0, 1), BuildingBlock: MIFKUJ_clean_linker_0, # of connection points: 2
#     Edge 27, Type (0, 1), BuildingBlock: MIFKUJ_clean_linker_0, # of connection points: 2
#     Edge 28, Type (0, 1), BuildingBlock: MIFKUJ_clean_linker_0, # of connection points: 2
#     Edge 29, Type (0, 1), BuildingBlock: MIFKUJ_clean_linker_0, # of connection points: 2
#     Edge 30, Type (0, 1), BuildingBlock: MIFKUJ_clean_linker_0, # of connection points: 2
#     Edge 31, Type (0, 1), BuildingBlock: MIFKUJ_clean_linker_0, # of connection points: 2
#     Edge 32, Type (0, 1), BuildingBlock: MIFKUJ_clean_linker_0, # of connection points: 2
#     Edge 33, Type (0, 1), BuildingBlock: MIFKUJ_clean_linker_0, # of connection points: 2
#     Edge 34, Type (0, 1), BuildingBlock: MIFKUJ_clean_linker_0, # of connection points: 2
#     Edge 35, Type (0, 1), BuildingBlock: MIFKUJ_clean_linker_0, # of connection points: 2
#     Edge 36, Type (0, 1), BuildingBlock: MIFKUJ_clean_linker_0, # of connection points: 2
#     Edge 37, Type (0, 1), BuildingBlock: MIFKUJ_clean_linker_0, # of connection points: 2
#     Edge 38, Type (0, 1), BuildingBlock: MIFKUJ_clean_linker_0, # of connection points: 2
#     Edge 39, Type (0, 1), BuildingBlock: MIFKUJ_clean_linker_0, # of connection points: 2
#     Edge 40, Type (0, 1), BuildingBlock: MIFKUJ_clean_linker_0, # of connection points: 2
#     Edge 41, Type (0, 1), BuildingBlock: MIFKUJ_clean_linker_0, # of connection points: 2
#     Edge 42, Type (0, 1), BuildingBlock: MIFKUJ_clean_linker_0, # of connection points: 2
#     Edge 43, Type (0, 1), BuildingBlock: MIFKUJ_clean_linker_0, # of connection points: 2
#     Edge 44, Type (0, 1), BuildingBlock: MIFKUJ_clean_linker_0, # of connection points: 2
#     Edge 45, Type (0, 1), BuildingBlock: MIFKUJ_clean_linker_0, # of connection points: 2
#     Edge 46, Type (0, 1), BuildingBlock: MIFKUJ_clean_linker_0, # of connection points: 2
#     Edge 47, Type (0, 1), BuildingBlock: MIFKUJ_clean_linker_0, # of connection points: 2
#     Edge 48, Type (0, 1), BuildingBlock: MIFKUJ_clean_linker_0, # of connection points: 2
#     Edge 49, Type (0, 1), BuildingBlock: MIFKUJ_clean_linker_0, # of connection points: 2
#     Edge 50, Type (0, 1), BuildingBlock: MIFKUJ_clean_linker_0, # of connection points: 2
#     Edge 51, Type (0, 1), BuildingBlock: MIFKUJ_clean_linker_0, # of connection points: 2
#     Edge 52, Type (0, 1), BuildingBlock: MIFKUJ_clean_linker_0, # of connection points: 2
#     Edge 53, Type (0, 1), BuildingBlock: MIFKUJ_clean_linker_0, # of connection points: 2
#     Edge 54, Type (0, 1), BuildingBlock: MIFKUJ_clean_linker_0, # of connection points: 2
#     Edge 55, Type (0, 1), BuildingBlock: MIFKUJ_clean_linker_0, # of connection points: 2
#     Edge 56, Type (0, 1), BuildingBlock: MIFKUJ_clean_linker_0, # of connection points: 2
#     Edge 57, Type (0, 1), BuildingBlock: MIFKUJ_clean_linker_0, # of connection points: 2
#     Edge 58, Type (0, 1), BuildingBlock: MIFKUJ_clean_linker_0, # of connection points: 2
#     Edge 59, Type (0, 1), BuildingBlock: MIFKUJ_clean_linker_0, # of connection points: 2
#     Edge 60, Type (0, 1), BuildingBlock: MIFKUJ_clean_linker_0, # of connection points: 2
#     Edge 61, Type (0, 1), BuildingBlock: MIFKUJ_clean_linker_0, # of connection points: 2
#     Edge 62, Type (0, 1), BuildingBlock: MIFKUJ_clean_linker_0, # of connection points: 2
#     Edge 63, Type (0, 1), BuildingBlock: MIFKUJ_clean_linker_0, # of connection points: 2
#     Edge 64, Type (0, 1), BuildingBlock: MIFKUJ_clean_linker_0, # of connection points: 2
#     Edge 65, Type (0, 1), BuildingBlock: MIFKUJ_clean_linker_0, # of connection points: 2
#     Edge 66, Type (0, 1), BuildingBlock: MIFKUJ_clean_linker_0, # of connection points: 2
#     Edge 67, Type (0, 1), BuildingBlock: MIFKUJ_clean_linker_0, # of connection points: 2
# Relax obj value: 0.218
# Max RMSD: 0.216
# Mean RMSD: 0.147
data_MOF--net-myd--node1-KOZSID_clean_sbu_0--node2-JUFBIX_clean_sbu_0--edge1-MIFKUJ_clean_linker_0
_symmetry_space_group_name_H-M    P1
_symmetry_Int_Tables_number       1
_symmetry_cell_setting            triclinic
loop_
_symmetry_equiv_pos_as_xyz
'x, y, z'
_cell_length_a     63.321764
_cell_length_b     66.069664
_cell_length_c     65.454741
_cell_angle_alpha  91.798813
_cell_angle_beta   88.25228
_cell_angle_gamma 92.950027
loop_
_atom_site_label
_atom_site_type_symbol
_atom_site_fract_x
_atom_site_fract_y
_atom_site_fract_z
_atom_type_partial_charge
C0 C 0.98708 0.25763 0.3388 0.0
C1 C 0.96711 0.25917 0.34778 0.0
C2 C 0.95541 0.24201 0.34164 0.0
C3 C 0.96887 0.23098 0.32929 0.0
N4 N 0.98823 0.24016 0.32747 0.0
Co5 Co 0.01205 0.23073 0.31 0.0
N6 N 0.99293 0.21364 0.29246 0.0
C7 C 0.97308 0.20714 0.29785 0.0
C8 C 0.96385 0.19462 0.28316 0.0
C9 C 0.97893 0.19297 0.26776 0.0
C10 C 0.99662 0.2047 0.27384 0.0
N11 N 0.03615 0.2217 0.29259 0.0
C12 C 0.03632 0.21276 0.27363 0.0
C13 C 0.05698 0.20979 0.26683 0.0
C14 C 0.06993 0.21639 0.28238 0.0
C15 C 0.05663 0.22328 0.29771 0.0
N16 N 0.03084 0.2479 0.32773 0.0
C17 C 0.05172 0.24621 0.32969 0.0
C18 C 0.06052 0.26128 0.34223 0.0
C19 C 0.04413 0.27319 0.34831 0.0
C20 C 0.02623 0.26471 0.33908 0.0
N21 N 0.01479 0.20728 0.32746 0.0
C22 C 0.01477 0.17185 0.3504 0.0
C23 C 0.0185 0.17125 0.32923 0.0
C24 C 0.01833 0.18886 0.31818 0.0
C25 C 0.01202 0.19092 0.36006 0.0
C26 C 0.01211 0.20848 0.3483 0.0
N27 N 0.00919 0.25352 0.29225 0.0
C28 C 0.02493 0.27996 0.27147 0.0
C29 C 1.00501 0.28415 0.26442 0.0
C30 C 0.9872 0.27305 0.272 0.0
C31 C 0.98963 0.2578 0.28583 0.0
C32 C 0.02666 0.26466 0.28549 0.0
H33 H 0.97569 0.24919 0.29102 0.0
H34 H 0.04217 0.26163 0.2906 0.0
H35 H 0.02058 0.18729 0.3019 0.0
H36 H 0.00953 0.22292 0.35594 0.0
C37 C 0.96285 0.2152 0.31545 0.0
C38 C 1.00495 0.27248 0.34151 0.0
C39 C 0.01729 0.20501 0.26276 0.0
C40 C 0.06289 0.23411 0.31553 0.0
H41 H 0.96152 0.27151 0.35741 0.0
H42 H 0.93872 0.23871 0.34471 0.0
H43 H 0.94795 0.18777 0.28343 0.0
H44 H 0.97723 0.18376 0.25389 0.0
H45 H 0.06222 0.20332 0.25228 0.0
H46 H 0.08704 0.21673 0.28221 0.0
H47 H 0.07711 0.26419 0.34535 0.0
H48 H 0.04526 0.28676 0.35799 0.0
H49 H 0.02138 0.15712 0.32103 0.0
H50 H 0.00922 0.19222 0.37644 0.0
H51 H 0.03907 0.28838 0.26616 0.0
H52 H 0.97152 0.27567 0.26679 0.0
C53 C 1.0019 0.70667 0.15133 0.0
C54 C 0.9809 0.70192 0.14682 0.0
C55 C 0.96901 0.71421 0.15913 0.0
C56 C 0.98334 0.7256 0.17048 0.0
N57 N 1.00373 0.72165 0.1659 0.0
Co58 Co 0.0295 0.73317 0.18014 0.0
N59 N 0.0119 0.75025 0.19917 0.0
C60 C 0.99066 0.75171 0.19919 0.0
C61 C 0.98328 0.76591 0.21297 0.0
C62 C 1.00089 0.77433 0.22202 0.0
C63 C 0.01804 0.76464 0.21325 0.0
N64 N 0.0552 0.74399 0.19483 0.0
C65 C 0.05707 0.75838 0.20992 0.0
C66 C 0.07785 0.76157 0.21586 0.0
C67 C 0.08963 0.74898 0.20377 0.0
C68 C 0.0754 0.73882 0.19128 0.0
N69 N 0.04715 0.7168 0.16056 0.0
C70 C 0.0685 0.71667 0.15939 0.0
C71 C 0.07607 0.70383 0.14435 0.0
C72 C 0.05849 0.695 0.13557 0.0
C73 C 0.04118 0.70294 0.14591 0.0
N74 N 0.03223 0.75643 0.16134 0.0
C75 C 0.03588 0.79379 0.14116 0.0
C76 C 0.05384 0.7836 0.14595 0.0
C77 C 0.05167 0.76502 0.1558 0.0
C78 C 0.01611 0.78416 0.14539 0.0
C79 C 0.01466 0.76566 0.15527 0.0
N80 N 0.02675 0.71019 0.19928 0.0
C81 C 0.04168 0.68221 0.2161 0.0
C82 C 0.02324 0.67905 0.22812 0.0
C83 C 0.0064 0.69134 0.22498 0.0
C84 C 0.0084 0.70651 0.21052 0.0
C85 C 0.04314 0.69781 0.20197 0.0
H86 H 0.99487 0.71517 0.20885 0.0
H87 H 0.05777 0.69971 0.19356 0.0
H88 H 0.06598 0.75821 0.15935 0.0
H89 H 0.99909 0.75943 0.15833 0.0
C90 C 0.97816 0.73981 0.18581 0.0
C91 C 0.01948 0.69576 0.14228 0.0
C92 C 0.0399 0.77027 0.21807 0.0
C93 C 0.0808 0.72661 0.17434 0.0
H94 H 0.97474 0.69045 0.13612 0.0
H95 H 0.95193 0.71446 0.16005 0.0
H96 H 0.96708 0.76998 0.21575 0.0
H97 H 1.00113 0.78652 0.23346 0.0
H98 H 0.08394 0.7724 0.22725 0.0
H99 H 0.10666 0.74806 0.20345 0.0
H100 H 0.09238 0.70054 0.14086 0.0
H101 H 0.05835 0.68347 0.12344 0.0
H102 H 0.06956 0.79024 0.14287 0.0
H103 H 1.00168 0.79099 0.14135 0.0
H104 H 0.05519 0.6731 0.218 0.0
H105 H 0.99165 0.68925 0.23365 0.0
C106 C 0.33185 0.99608 0.26199 0.0
C107 C 0.34037 0.97732 0.26373 0.0
C108 C 0.33538 0.9663 0.2462 0.0
C109 C 0.32415 0.97892 0.23477 0.0
N110 N 0.32192 0.99715 0.24401 0.0
Co111 Co 0.30592 0.01954 0.23367 0.0
N112 N 0.28931 1.00089 0.21511 0.0
C113 C 0.29469 0.98209 0.20916 0.0
C114 C 0.28094 0.97293 0.19549 0.0
C115 C 0.26621 0.98695 0.1924 0.0
C116 C 0.27175 1.00399 0.20442 0.0
N117 N 0.29015 0.0422 0.22344 0.0
C118 C 0.27241 0.04193 0.21228 0.0
C119 C 0.26687 0.06156 0.20865 0.0
C120 C 0.28207 0.07442 0.21717 0.0
C121 C 0.29591 0.06206 0.22573 0.0
N122 N 0.32253 0.03788 0.2524 0.0
C123 C 0.32528 0.05811 0.25118 0.0
C124 C 0.3368 0.06669 0.26699 0.0
C125 C 0.34143 0.05083 0.27892 0.0
C126 C 0.33243 0.03344 0.26968 0.0
N127 N 0.32737 0.02382 0.21147 0.0
C128 C 0.35699 0.02764 0.17864 0.0
C129 C 0.33529 0.0277 0.17545 0.0
C130 C 0.32089 0.02605 0.19193 0.0
C131 C 0.36369 0.02613 0.19877 0.0
C132 C 0.34861 0.02402 0.21497 0.0
N133 N 0.28445 0.01514 0.25548 0.0
C134 C 0.26176 0.02807 0.28256 0.0
C135 C 0.25481 0.00831 0.28755 0.0
C136 C 0.26285 0.99209 0.27602 0.0
C137 C 0.27744 0.99582 0.25998 0.0
C138 C 0.2767 0.03115 0.26659 0.0
H139 H 0.28316 0.98301 0.2513 0.0
H140 H 0.28211 0.04648 0.26334 0.0
H141 H 0.3044 0.02636 0.18865 0.0
H142 H 0.35409 0.02232 0.23026 0.0
C143 C 0.31143 0.97289 0.21826 0.0
C144 C 0.3339 0.01286 0.27719 0.0
C145 C 0.26186 0.02362 0.20296 0.0
C146 C 0.31278 0.06853 0.23815 0.0
H147 H 0.34896 0.9721 0.27644 0.0
H148 H 0.3384 0.95054 0.24285 0.0
H149 H 0.28147 0.95782 0.18867 0.0
H150 H 0.25331 0.98507 0.18193 0.0
H151 H 0.25349 0.06615 0.20033 0.0
H152 H 0.28267 0.09082 0.21745 0.0
H153 H 0.34023 0.08266 0.27024 0.0
H154 H 0.35008 0.05196 0.29295 0.0
H155 H 0.32944 0.02916 0.1602 0.0
H156 H 0.38039 0.0261 0.2019 0.0
H157 H 0.25596 0.04103 0.29114 0.0
H158 H 0.25767 0.97659 0.27917 0.0
C159 C 0.673 0.4687 0.25359 0.0
C160 C 0.66269 0.44991 0.25025 0.0
C161 C 0.66939 0.4375 0.26496 0.0
C162 C 0.68329 0.44943 0.27644 0.0
N163 N 0.6856 0.4685 0.26985 0.0
Co164 Co 0.70416 0.49067 0.28139 0.0
N165 N 0.7218 0.47124 0.2946 0.0
C166 C 0.7163 0.45163 0.29804 0.0
C167 C 0.73188 0.44178 0.30718 0.0
C168 C 0.74803 0.45615 0.30992 0.0
C169 C 0.74127 0.47413 0.30249 0.0
N170 N 0.72253 0.51304 0.293 0.0
C171 C 0.74174 0.51255 0.30142 0.0
C172 C 0.74847 0.53176 0.30866 0.0
C173 C 0.73281 0.54454 0.30472 0.0
C174 C 0.7174 0.53253 0.2954 0.0
N175 N 0.68635 0.50989 0.26809 0.0
C176 C 0.68504 0.52972 0.27292 0.0
C177 C 0.67246 0.53931 0.25993 0.0
C178 C 0.66549 0.52456 0.24612 0.0
C179 C 0.67405 0.50665 0.25163 0.0
N180 N 0.68579 0.49181 0.30638 0.0
C181 C 0.66028 0.49441 0.34238 0.0
C182 C 0.65116 0.49208 0.32313 0.0
C183 C 0.66418 0.49091 0.30532 0.0
C184 C 0.68234 0.49523 0.34323 0.0
C185 C 0.69473 0.49376 0.3252 0.0
N186 N 0.72268 0.48959 0.25659 0.0
C187 C 0.74358 0.50676 0.23021 0.0
C188 C 0.7496 0.48821 0.22135 0.0
C189 C 0.74161 0.47037 0.23056 0.0
C190 C 0.72837 0.47138 0.24814 0.0
C191 C 0.7301 0.50711 0.24764 0.0
H192 H 0.72279 0.45738 0.25495 0.0
H193 H 0.72568 0.52164 0.25389 0.0
H194 H 0.65677 0.48939 0.29067 0.0
H195 H 0.71164 0.49435 0.3266 0.0
C196 C 0.69778 0.44242 0.28997 0.0
C197 C 0.6701 0.48664 0.24162 0.0
C198 C 0.75269 0.49397 0.30511 0.0
C199 C 0.69946 0.53939 0.28628 0.0
H200 H 0.65174 0.44561 0.23831 0.0
H201 H 0.66555 0.42144 0.26632 0.0
H202 H 0.73179 0.42593 0.3109 0.0
H203 H 0.76291 0.45372 0.31692 0.0
H204 H 0.76292 0.53605 0.31645 0.0
H205 H 0.73287 0.56071 0.30793 0.0
H206 H 0.66984 0.55535 0.25962 0.0
H207 H 0.65567 0.527 0.23332 0.0
H208 H 0.63413 0.49145 0.32183 0.0
H209 H 0.68999 0.497 0.3578 0.0
H210 H 0.74905 0.52097 0.2236 0.0
H211 H 0.7459 0.45566 0.22447 0.0
C212 C 0.29936 0.38978 0.99105 0.0
C213 C 0.30583 0.39798 0.97252 0.0
C214 C 0.29248 0.38955 0.9582 0.0
C215 C 0.27863 0.37679 0.96879 0.0
N216 N 0.28204 0.37698 0.98909 0.0
Co217 Co 0.26693 0.35969 0.01006 0.0
N218 N 0.25194 0.34279 0.98849 0.0
C219 C 0.25313 0.3455 0.96807 0.0
C220 C 0.24212 0.33073 0.95701 0.0
C221 C 0.2336 0.31769 0.97119 0.0
C222 C 0.23979 0.32539 0.99019 0.0
N223 N 0.25179 0.34268 0.03117 0.0
C224 C 0.23898 0.32579 0.02889 0.0
C225 C 0.23113 0.31895 0.04764 0.0
C226 C 0.2397 0.33177 0.06227 0.0
C227 C 0.25209 0.34571 0.05168 0.0
N228 N 0.2827 0.37616 0.03148 0.0
C229 C 0.28024 0.37476 0.05199 0.0
C230 C 0.29488 0.38639 0.06274 0.0
C231 C 0.30787 0.39533 0.04824 0.0
C232 C 0.30025 0.38873 0.02939 0.0
N233 N 0.24272 0.37844 0.01175 0.0
C234 C 0.20273 0.3965 0.01484 0.0
C235 C 0.21487 0.39424 0.03209 0.0
C236 C 0.23467 0.38554 0.03019 0.0
C237 C 0.21194 0.39114 0.99586 0.0
C238 C 0.23175 0.38251 0.99469 0.0
N239 N 0.29018 0.3406 0.00831 0.0
C240 C 0.31127 0.31614 0.02405 0.0
C241 C 0.31949 0.30972 0.00495 0.0
C242 C 0.31338 0.31971 0.98771 0.0
C243 C 0.29888 0.33497 0.98971 0.0
C244 C 0.29688 0.33163 0.0254 0.0
H245 H 0.29447 0.34167 0.97593 0.0
H246 H 0.29097 0.33589 0.04035 0.0
H247 H 0.24288 0.38438 0.04398 0.0
H248 H 0.23745 0.37875 0.97972 0.0
C249 C 0.26542 0.36162 0.95976 0.0
C250 C 0.31093 0.39351 0.00987 0.0
C251 C 0.23419 0.31551 0.00939 0.0
C252 C 0.26575 0.36053 0.06055 0.0
H253 H 0.31937 0.40825 0.96957 0.0
H254 H 0.29373 0.39138 0.94183 0.0
H255 H 0.24085 0.32934 0.94057 0.0
H256 H 0.22416 0.30394 0.96787 0.0
H257 H 0.22056 0.30588 0.05048 0.0
H258 H 0.23764 0.33068 0.07868 0.0
H259 H 0.29667 0.38731 0.07914 0.0
H260 H 0.32182 0.40492 0.05132 0.0
H261 H 0.20906 0.39895 0.04714 0.0
H262 H 0.20359 0.39276 0.98187 0.0
H263 H 0.31582 0.30921 0.03792 0.0
H264 H 0.31914 0.31531 0.97255 0.0
C265 C 0.22507 0.66368 0.4814 0.0
C266 C 0.22238 0.6558 0.46169 0.0
C267 C 0.23784 0.66491 0.44969 0.0
C268 C 0.24903 0.67782 0.46267 0.0
N269 N 0.24187 0.67727 0.48233 0.0
Co270 Co 0.25272 0.69443 0.50603 0.0
N271 N 0.27322 0.71014 0.48781 0.0
C272 C 0.27626 0.70729 0.46738 0.0
C273 C 0.2918 0.71996 0.45908 0.0
C274 C 0.29915 0.73164 0.47513 0.0
C275 C 0.28752 0.72549 0.49239 0.0
N276 N 0.26352 0.71146 0.52978 0.0
C277 C 0.27848 0.7269 0.5304 0.0
C278 C 0.28071 0.73496 0.55013 0.0
C279 C 0.26705 0.72394 0.56245 0.0
C280 C 0.25715 0.70997 0.54962 0.0
N281 N 0.23196 0.67887 0.52414 0.0
C282 C 0.22953 0.68093 0.54468 0.0
C283 C 0.21336 0.66881 0.55278 0.0
C284 C 0.20464 0.65865 0.53638 0.0
C285 C 0.21603 0.66524 0.51919 0.0
N286 N 0.27501 0.67458 0.51064 0.0
C287 C 0.3105 0.65133 0.51785 0.0
C288 C 0.29621 0.65639 0.5337 0.0
C289 C 0.27879 0.66794 0.52981 0.0
C290 C 0.30601 0.6572 0.49818 0.0
C291 C 0.28826 0.66841 0.49492 0.0
N292 N 0.23091 0.71451 0.50147 0.0
C293 C 0.20492 0.73775 0.51465 0.0
C294 C 0.20166 0.74474 0.49505 0.0
C295 C 0.21302 0.73585 0.47871 0.0
C296 C 0.22733 0.72092 0.48221 0.0
C297 C 0.21944 0.72277 0.51748 0.0
H298 H 0.23544 0.71482 0.46908 0.0
H299 H 0.2213 0.71823 0.5328 0.0
H300 H 0.26891 0.67168 0.54268 0.0
H301 H 0.28589 0.67219 0.47954 0.0
C302 C 0.26477 0.6921 0.45653 0.0
C303 C 0.21056 0.65872 0.49845 0.0
C304 C 0.29098 0.73439 0.51282 0.0
C305 C 0.24149 0.69559 0.5557 0.0
H306 H 0.21011 0.64505 0.45641 0.0
H307 H 0.24008 0.66303 0.43329 0.0
H308 H 0.29734 0.72043 0.44329 0.0
H309 H 0.31185 0.7432 0.47422 0.0
H310 H 0.29108 0.74754 0.55517 0.0
H311 H 0.26454 0.72597 0.57881 0.0
H312 H 0.20806 0.66801 0.56862 0.0
H313 H 0.19109 0.64798 0.53692 0.0
H314 H 0.29884 0.65209 0.54921 0.0
H315 H 0.31622 0.65321 0.48526 0.0
H316 H 0.19669 0.7441 0.52789 0.0
H317 H 0.21082 0.74028 0.46316 0.0
C318 C 0.78049 0.86558 0.48036 0.0
C319 C 0.78444 0.87417 0.4615 0.0
C320 C 0.76818 0.86722 0.4492 0.0
C321 C 0.75521 0.85485 0.46125 0.0
N322 N 0.76236 0.85378 0.48028 0.0
Co323 Co 0.7497 0.83694 0.50231 0.0
N324 N 0.7345 0.81868 0.48262 0.0
C325 C 0.73037 0.82301 0.46322 0.0
C326 C 0.71973 0.80722 0.45317 0.0
C327 C 0.71686 0.79222 0.46722 0.0
C328 C 0.72581 0.79975 0.48521 0.0
N329 N 0.73723 0.8204 0.52464 0.0
C330 C 0.72811 0.80146 0.52386 0.0
C331 C 0.72056 0.79589 0.54317 0.0
C332 C 0.72517 0.812 0.55631 0.0
C333 C 0.73517 0.82651 0.54439 0.0
N334 N 0.76507 0.85533 0.52181 0.0
C335 C 0.76037 0.85789 0.54185 0.0
C336 C 0.77474 0.87089 0.55154 0.0
C337 C 0.78934 0.87677 0.53662 0.0
C338 C 0.78294 0.86709 0.51855 0.0
N339 N 0.72475 0.85384 0.50434 0.0
C340 C 0.68787 0.87611 0.50535 0.0
C341 C 0.68662 0.85502 0.50611 0.0
C342 C 0.70503 0.84428 0.5057 0.0
C343 C 0.70805 0.88603 0.50439 0.0
C344 C 0.72634 0.87459 0.50382 0.0
N345 N 0.77386 0.8194 0.50005 0.0
C346 C 0.79701 0.79675 0.51554 0.0
C347 C 0.80313 0.78872 0.49624 0.0
C348 C 0.79502 0.79723 0.47894 0.0
C349 C 0.78055 0.81247 0.48116 0.0
C350 C 0.78251 0.81215 0.5171 0.0
H351 H 0.77405 0.81799 0.46751 0.0
H352 H 0.77769 0.81768 0.53212 0.0
H353 H 0.70313 0.82804 0.50628 0.0
H354 H 0.74172 0.88243 0.50278 0.0
C355 C 0.73978 0.84045 0.4542 0.0
C356 C 0.79353 0.86946 0.49839 0.0
C357 C 0.72426 0.78945 0.50489 0.0
C358 C 0.74572 0.84443 0.55154 0.0
H359 H 0.79778 0.88416 0.45708 0.0
H360 H 0.76678 0.86984 0.43307 0.0
H361 H 0.71528 0.80638 0.43732 0.0
H362 H 0.70893 0.77752 0.46456 0.0
H363 H 0.71224 0.78184 0.54733 0.0
H364 H 0.72212 0.81277 0.57267 0.0
H365 H 0.77539 0.87461 0.56774 0.0
H366 H 0.8032 0.88671 0.53898 0.0
H367 H 0.67137 0.8468 0.50701 0.0
H368 H 0.70966 0.9024 0.50386 0.0
H369 H 0.80313 0.791 0.52937 0.0
H370 H 0.79903 0.79155 0.4637 0.0
C371 C 0.50257 0.77483 0.85161 0.0
C372 C 0.48374 0.7779 0.86237 0.0
C373 C 0.47086 0.76078 0.859 0.0
C374 C 0.48245 0.74824 0.84635 0.0
N375 N 0.50179 0.75644 0.84172 0.0
Co376 Co 0.52309 0.7445 0.82277 0.0
N377 N 0.50147 0.72638 0.80923 0.0
C378 C 0.48209 0.72135 0.81716 0.0
C379 C 0.47068 0.70803 0.80472 0.0
C380 C 0.48381 0.70425 0.78811 0.0
C381 C 0.50263 0.71549 0.79135 0.0
N382 N 0.54467 0.73291 0.80384 0.0
C383 C 0.54229 0.72164 0.78629 0.0
C384 C 0.56181 0.7161 0.77832 0.0
C385 C 0.57678 0.72399 0.7915 0.0
C386 C 0.56566 0.73388 0.80678 0.0
N387 N 0.54444 0.76268 0.83648 0.0
C388 C 0.5654 0.76035 0.83631 0.0
C389 C 0.57617 0.7761 0.84637 0.0
C390 C 0.56099 0.78912 0.85312 0.0
C391 C 0.54177 0.78057 0.84672 0.0
N392 N 0.52745 0.72288 0.84211 0.0
C393 C 0.53023 0.69023 0.86846 0.0
C394 C 0.53036 0.68716 0.84724 0.0
C395 C 0.52896 0.70346 0.8345 0.0
C396 C 0.52955 0.71029 0.87628 0.0
C397 C 0.5281 0.72643 0.86281 0.0
N398 N 0.51859 0.76546 0.80323 0.0
C399 C 0.53241 0.78986 0.77911 0.0
C400 C 0.51188 0.79351 0.77328 0.0
C401 C 0.49479 0.78324 0.78315 0.0
C402 C 0.49847 0.7694 0.79813 0.0
C403 C 0.53543 0.7757 0.79404 0.0
H404 H 0.485 0.76167 0.8054 0.0
H405 H 0.55139 0.7728 0.79791 0.0
H406 H 0.52868 0.70006 0.81836 0.0
H407 H 0.52712 0.74167 0.86911 0.0
C408 C 0.4743 0.73152 0.83479 0.0
C409 C 0.52114 0.78922 0.85121 0.0
C410 C 0.52187 0.71377 0.77829 0.0
C411 C 0.5744 0.74629 0.82253 0.0
H412 H 0.47957 0.79121 0.87135 0.0
H413 H 0.45451 0.75841 0.86404 0.0
H414 H 0.45458 0.70211 0.80718 0.0
H415 H 0.48012 0.69408 0.77529 0.0
H416 H 0.56488 0.70688 0.76469 0.0
H417 H 0.59375 0.72291 0.78992 0.0
H418 H 0.59313 0.77855 0.8475 0.0
H419 H 0.56373 0.80336 0.86147 0.0
H420 H 0.53141 0.6721 0.84037 0.0
H421 H 0.52952 0.71343 0.89261 0.0
H422 H 0.54606 0.79745 0.77179 0.0
H423 H 0.47865 0.78587 0.77931 0.0
C424 C 0.53727 0.26252 0.66355 0.0
C425 C 0.55622 0.26536 0.65254 0.0
C426 C 0.56679 0.24783 0.65392 0.0
C427 C 0.55391 0.23531 0.66581 0.0
N428 N 0.53593 0.24394 0.67198 0.0
Co429 Co 0.51378 0.23195 0.69072 0.0
N430 N 0.53316 0.21215 0.70098 0.0
C431 C 0.55131 0.20674 0.69158 0.0
C432 C 0.5613 0.19243 0.70199 0.0
C433 C 0.5485 0.18844 0.71884 0.0
C434 C 0.5313 0.20054 0.71776 0.0
N435 N 0.49151 0.22028 0.70954 0.0
C436 C 0.49317 0.20825 0.72579 0.0
C437 C 0.47333 0.20309 0.73427 0.0
C438 C 0.45884 0.21203 0.72276 0.0
C439 C 0.47056 0.22213 0.70792 0.0
N440 N 0.49441 0.25153 0.68023 0.0
C441 C 0.47315 0.2498 0.68127 0.0
C442 C 0.46399 0.26577 0.67266 0.0
C443 C 0.48055 0.27826 0.66581 0.0
C444 C 0.49896 0.26922 0.67075 0.0
N445 N 0.50501 0.2122 0.66931 0.0
C446 C 0.49291 0.18341 0.63917 0.0
C447 C 0.49833 0.20342 0.63398 0.0
C448 C 0.5041 0.2177 0.64937 0.0
C449 C 0.49366 0.17806 0.65958 0.0
C450 C 0.49994 0.19257 0.67434 0.0
N451 N 0.52257 0.25152 0.712 0.0
C452 C 0.51396 0.27755 0.73677 0.0
C453 C 0.53543 0.28115 0.74102 0.0
C454 C 0.55027 0.26934 0.73059 0.0
C455 C 0.54353 0.25468 0.71611 0.0
C456 C 0.50787 0.26258 0.72237 0.0
H457 H 0.55533 0.24606 0.70808 0.0
H458 H 0.49128 0.26018 0.71936 0.0
H459 H 0.50791 0.23314 0.64514 0.0
H460 H 0.5008 0.18777 0.68983 0.0
C461 C 0.55993 0.21766 0.67499 0.0
C462 C 0.52042 0.27717 0.66526 0.0
C463 C 0.51282 0.19952 0.73198 0.0
C464 C 0.46283 0.2355 0.69401 0.0
H465 H 0.56205 0.27872 0.64461 0.0
H466 H 0.58256 0.24506 0.64799 0.0
H467 H 0.57641 0.18612 0.69817 0.0
H468 H 0.55142 0.17773 0.73048 0.0
H469 H 0.46967 0.19346 0.74712 0.0
H470 H 0.44184 0.21152 0.72519 0.0
H471 H 0.44731 0.26855 0.6723 0.0
H472 H 0.47926 0.29241 0.65815 0.0
H473 H 0.49794 0.208 0.61825 0.0
H474 H 0.4898 0.16262 0.66405 0.0
H475 H 0.5019 0.28648 0.74418 0.0
H476 H 0.56699 0.27133 0.73358 0.0
C477 C 0.83664 0.48685 0.76326 0.0
C478 C 0.84281 0.4673 0.76602 0.0
C479 C 0.83214 0.45506 0.75217 0.0
C480 C 0.82028 0.46781 0.74164 0.0
N481 N 0.82318 0.4875 0.74758 0.0
Co482 Co 0.80871 0.51101 0.73677 0.0
N483 N 0.78842 0.49267 0.72097 0.0
C484 C 0.78802 0.47217 0.71993 0.0
C485 C 0.77233 0.46358 0.70804 0.0
C486 C 0.76197 0.47953 0.70116 0.0
C487 C 0.77192 0.49705 0.70934 0.0
N488 N 0.79464 0.53462 0.7255 0.0
C489 C 0.77783 0.53519 0.71314 0.0
C490 C 0.7733 0.55502 0.70916 0.0
C491 C 0.78797 0.56732 0.71896 0.0
C492 C 0.80051 0.55444 0.72847 0.0
N493 N 0.82831 0.52918 0.75361 0.0
C494 C 0.82942 0.54968 0.75409 0.0
C495 C 0.84176 0.55811 0.76926 0.0
C496 C 0.84849 0.54207 0.77949 0.0
C497 C 0.8401 0.52461 0.76975 0.0
N498 N 0.82909 0.51179 0.7126 0.0
C499 C 0.85375 0.5145 0.67562 0.0
C500 C 0.85294 0.53088 0.68965 0.0
C501 C 0.8408 0.52917 0.70786 0.0
C502 C 0.84279 0.49644 0.68097 0.0
C503 C 0.83081 0.49541 0.69931 0.0
N504 N 0.78855 0.51034 0.76051 0.0
C505 C 0.76906 0.52794 0.78734 0.0
C506 C 0.76189 0.50959 0.79578 0.0
C507 C 0.76811 0.49159 0.7861 0.0
C508 C 0.78121 0.4923 0.7685 0.0
C509 C 0.78231 0.52798 0.76988 0.0
H510 H 0.78535 0.4781 0.76162 0.0
H511 H 0.78751 0.54246 0.76431 0.0
H512 H 0.841 0.5423 0.71765 0.0
H513 H 0.8228 0.48122 0.70205 0.0
C514 C 0.8034 0.46149 0.72932 0.0
C515 C 0.84257 0.50402 0.77693 0.0
C516 C 0.76557 0.51746 0.70501 0.0
C517 C 0.81647 0.56051 0.74195 0.0
H518 H 0.85311 0.46229 0.77754 0.0
H519 H 0.83191 0.43868 0.75095 0.0
H520 H 0.76906 0.44764 0.70448 0.0
H521 H 0.74879 0.47834 0.69098 0.0
H522 H 0.76055 0.56016 0.70033 0.0
H523 H 0.78899 0.58373 0.71955 0.0
H524 H 0.84441 0.57404 0.77326 0.0
H525 H 0.85769 0.54338 0.79312 0.0
H526 H 0.86162 0.54508 0.68662 0.0
H527 H 0.84282 0.48323 0.67076 0.0
H528 H 0.76474 0.54227 0.79435 0.0
H529 H 0.76265 0.477 0.79189 0.0
C530 C 0.18142 0.02613 0.79757 0.0
C531 C 0.1764 0.04587 0.80293 0.0
C532 C 0.18454 0.05792 0.78777 0.0
C533 C 0.19434 0.04505 0.77416 0.0
N534 N 0.19268 0.0254 0.77947 0.0
Co535 Co 0.20766 1.00245 0.76538 0.0
N536 N 0.22121 0.02061 0.74405 0.0
C537 C 0.21785 0.04048 0.74201 0.0
C538 C 0.22842 0.04895 0.72555 0.0
C539 C 0.239 0.03351 0.7163 0.0
C540 C 0.23426 0.01641 0.7277 0.0
N541 N 0.22355 0.97973 0.75204 0.0
C542 C 0.23722 0.97948 0.73555 0.0
C543 C 0.24469 0.9603 0.73176 0.0
C544 C 0.23547 0.94803 0.74626 0.0
C545 C 0.22293 0.96032 0.75808 0.0
N546 N 0.19331 0.98413 0.78608 0.0
C547 C 0.1944 0.96376 0.78641 0.0
C548 C 0.18264 0.95504 0.80203 0.0
C549 C 0.17369 0.97079 0.81248 0.0
C550 C 0.18075 0.98837 0.80277 0.0
N551 N 0.18374 0.99664 0.7467 0.0
C552 C 0.15562 0.98945 0.71441 0.0
C553 C 0.16505 0.97342 0.72338 0.0
C554 C 0.17882 0.9773 0.73949 0.0
C555 C 0.15912 0.0089 0.72303 0.0
C556 C 0.17299 0.0121 0.73912 0.0
N557 N 0.23155 0.00831 0.78384 0.0
C558 C 0.25337 0.9983 0.81107 0.0
C559 C 0.26317 0.01768 0.81232 0.0
C560 C 0.25736 0.03212 0.79874 0.0
C561 C 0.24157 0.02718 0.78479 0.0
C562 C 0.23789 0.99388 0.79662 0.0
H563 H 0.23754 0.039 0.77515 0.0
H564 H 0.23112 0.97875 0.79622 0.0
H565 H 0.18583 0.96446 0.74534 0.0
H566 H 0.17522 0.02734 0.7447 0.0
C567 C 0.20571 0.05101 0.75655 0.0
C568 C 0.1757 0.00873 0.81048 0.0
C569 C 0.24281 0.99666 0.72244 0.0
C570 C 0.20879 0.95372 0.7736 0.0
H571 H 0.16817 0.05123 0.81659 0.0
H572 H 0.18392 0.07422 0.78706 0.0
H573 H 0.2286 0.06455 0.72094 0.0
H574 H 0.24916 0.03475 0.70276 0.0
H575 H 0.25531 0.95553 0.71947 0.0
H576 H 0.23718 0.93191 0.74761 0.0
H577 H 0.18141 0.9392 0.80588 0.0
H578 H 0.16356 0.9695 0.82604 0.0
H579 H 0.16267 0.95802 0.71741 0.0
H580 H 0.15158 0.02174 0.71708 0.0
H581 H 0.25772 0.98657 0.82112 0.0
H582 H 0.26458 0.04735 0.79924 0.0
C583 C 0.73801 0.17519 0.96959 0.0
C584 C 0.73494 0.1686 0.94952 0.0
C585 C 0.74959 0.17914 0.93775 0.0
C586 C 0.7607 0.19154 0.95125 0.0
N587 N 0.75427 0.18936 0.97098 0.0
Co588 Co 0.76527 0.20522 0.99547 0.0
N589 N 0.78442 0.22294 0.97785 0.0
C590 C 0.78705 0.2215 0.95727 0.0
C591 C 0.80156 0.23551 0.94945 0.0
C592 C 0.80857 0.24667 0.966 0.0
C593 C 0.79776 0.23887 0.98304 0.0
N594 N 0.77617 0.22097 0.01999 0.0
C595 C 0.79 0.23729 0.02121 0.0
C596 C 0.79258 0.24403 0.04135 0.0
C597 C 0.78025 0.23134 0.05326 0.0
C598 C 0.77072 0.21773 0.03981 0.0
N599 N 0.74584 0.18761 0.01298 0.0
C600 C 0.74415 0.18805 0.03363 0.0
C601 C 0.7288 0.17475 0.0413 0.0
C602 C 0.71987 0.16545 0.02454 0.0
C603 C 0.73032 0.17372 0.00757 0.0
N604 N 0.78867 0.18602 0.99779 0.0
C605 C 0.82607 0.16454 1.00204 0.0
C606 C 0.81226 0.16807 0.01874 0.0
C607 C 0.79386 0.17869 0.0163 0.0
C608 C 0.82006 0.1709 0.98299 0.0
C609 C 0.80144 0.18123 0.98119 0.0
N610 N 0.74248 0.22476 0.99322 0.0
C611 C 0.71713 0.2471 0.0092 0.0
C612 C 0.71324 0.2557 0.99045 0.0
C613 C 0.72372 0.2478 0.97303 0.0
C614 C 0.73806 0.23251 0.97473 0.0
C615 C 0.73157 0.23175 0.01021 0.0
H616 H 0.74563 0.22734 0.96089 0.0
H617 H 0.73398 0.22598 0.02498 0.0
H618 H 0.78436 0.18117 0.02975 0.0
H619 H 0.79799 0.1855 0.9662 0.0
C620 C 0.77575 0.20673 0.94571 0.0
C621 C 0.72437 0.16842 0.98666 0.0
C622 C 0.80087 0.24699 1.00381 0.0
C623 C 0.75592 0.20233 0.04529 0.0
H624 H 0.72296 0.15773 0.94389 0.0
H625 H 0.75136 0.17845 0.92125 0.0
H626 H 0.8065 0.23734 0.93361 0.0
H627 H 0.82038 0.25909 0.96553 0.0
H628 H 0.80221 0.25691 0.04693 0.0
H629 H 0.77821 0.23214 0.06974 0.0
H630 H 0.72415 0.17259 0.05717 0.0
H631 H 0.7068 0.15423 0.02475 0.0
H632 H 0.81598 0.1633 0.03385 0.0
H633 H 0.82977 0.168 0.9694 0.0
H634 H 0.70956 0.25255 0.02322 0.0
H635 H 0.72093 0.25339 0.95802 0.0
Co636 Co 0.05646 0.05302 0.04794 0.0
C637 C 0.05446 0.08613 0.07637 0.0
Co638 Co 0.07234 0.08169 0.0378 0.0
C639 C 0.05105 0.01088 0.06116 0.0
C640 C 0.02307 0.02757 0.06514 0.0
N641 N 0.04325 0.02922 0.05798 0.0
N642 N 0.03651 0.99795 0.07015 0.0
C643 C 0.01888 0.0085 0.07248 0.0
H644 H 0.06726 0.00733 0.05754 0.0
H645 H 0.01213 0.03963 0.0654 0.0
C646 C 0.07505 0.04948 0.00882 0.0
N647 N 0.08472 0.10536 0.02744 0.0
C648 C 0.09813 0.11972 0.03571 0.0
C649 C 0.0806 0.11215 0.00881 0.0
N650 N 0.10216 0.13526 0.02299 0.0
C651 C 0.09121 0.13049 0.00607 0.0
C652 C 0.09886 0.05827 0.0592 0.0
O653 O 0.06527 0.03885 0.02247 0.0
O654 O 0.07907 0.06818 0.01265 0.0
O655 O 0.09882 0.07439 0.04893 0.0
O656 O 0.08208 0.04685 0.06022 0.0
O657 O 0.06573 0.09521 0.06277 0.0
H658 H 0.07029 0.10432 0.99794 0.0
H659 H 0.10435 0.11905 0.05089 0.0
O660 O 0.04816 0.06768 0.07301 0.0
O661 O 0.0305 0.05978 0.03601 0.0
O662 O 0.04555 0.08892 0.02748 0.0
C663 C 0.02905 0.07713 0.02848 0.0
H664 H 1.0039 1.00292 0.07905 0.0
H665 H 0.09101 0.1396 0.99262 0.0
Co666 Co 0.95 0.45778 0.06545 0.0
C667 C 0.96241 0.498 0.0599 0.0
Co668 Co 0.94341 0.46825 0.03449 0.0
C669 C 0.96033 0.43177 0.09826 0.0
C670 C 0.94985 0.46064 0.10894 0.0
N671 N 0.95392 0.44957 0.09173 0.0
N672 N 0.9602 0.43128 0.11888 0.0
C673 C 0.95365 0.44945 0.12562 0.0
H674 H 0.96446 0.41924 0.0881 0.0
H675 H 0.9442 0.47583 0.10932 0.0
C676 C 0.93055 0.42827 0.04018 0.0
N677 N 0.9398 0.47731 0.00784 0.0
C678 C 0.92383 0.47508 0.99437 0.0
C679 C 0.95514 0.48828 0.99782 0.0
N680 N 0.92871 0.48444 0.97647 0.0
C681 C 0.94848 0.4926 0.97879 0.0
C682 C 0.98387 0.45163 0.03918 0.0
O683 O 0.93756 0.43188 0.05802 0.0
O684 O 0.93191 0.44216 0.0271 0.0
O685 O 0.97217 0.45982 0.02648 0.0
O686 O 0.97674 0.44906 0.05727 0.0
O687 O 0.95475 0.4945 0.04236 0.0
H688 H 0.97041 0.49275 1.00394 0.0
H689 H 0.90896 0.46687 0.99768 0.0
O690 O 0.96231 0.48373 0.07245 0.0
O691 O 0.92326 0.46651 0.07395 0.0
O692 O 0.91506 0.47626 0.04354 0.0
C693 C 0.91014 0.474 0.06248 0.0
H694 H 0.95178 0.45431 0.14149 0.0
H695 H 0.95784 0.50081 0.96736 0.0
Co696 Co 0.05366 0.94854 0.45943 0.0
C697 C 0.08253 0.95015 0.42569 0.0
Co698 Co 0.04251 0.93299 0.4312 0.0
C699 C 0.06641 0.95708 0.50149 0.0
C700 C 0.07176 0.9823 0.48193 0.0
N701 N 0.06399 0.96293 0.48212 0.0
N702 N 0.07544 0.9721 0.51337 0.0
C703 C 0.07863 0.98799 0.50101 0.0
H704 H 0.0621 0.94196 0.50656 0.0
H705 H 0.07263 0.99169 0.46866 0.0
C706 C 0.01299 0.93126 0.4641 0.0
N707 N 0.03227 0.9188 0.40849 0.0
C708 C 0.03654 0.92186 0.38845 0.0
C709 C 0.01931 0.90196 0.40889 0.0
N710 N 0.02667 0.90762 0.37639 0.0
C711 C 0.01579 0.89512 0.38924 0.0
C712 C 0.06456 0.90838 0.45686 0.0
O713 O 0.02707 0.94157 0.47406 0.0
O714 O 0.01696 0.92625 0.44559 0.0
O715 O 0.05467 0.90868 0.4402 0.0
O716 O 0.06562 0.92438 0.4682 0.0
O717 O 0.06786 0.93975 0.41692 0.0
H718 H 0.0134 0.89463 0.4226 0.0
H719 H 0.04707 0.93401 0.38284 0.0
O720 O 0.07987 0.95552 0.44443 0.0
O721 O 0.04205 0.9725 0.45037 0.0
O722 O 0.03094 0.9576 0.42209 0.0
C723 C 0.03321 0.97362 0.43334 0.0
H724 H 0.08541 1.00281 0.50533 0.0
H725 H 0.0069 0.88132 0.38483 0.0
Co726 Co 0.96399 0.56755 0.44382 0.0
C727 C 0.00573 0.56414 0.45538 0.0
Co728 Co 0.97603 0.53655 0.43813 0.0
C729 C 0.93664 0.60213 0.4532 0.0
C730 C 0.96778 0.61055 0.44176 0.0
N731 N 0.95522 0.59427 0.44688 0.0
N732 N 0.93721 0.62262 0.45191 0.0
C733 C 0.95685 0.62783 0.44477 0.0
H734 H 0.92285 0.593 0.45814 0.0
H735 H 0.98391 0.6099 0.43595 0.0
C736 C 0.93481 0.54044 0.42597 0.0
N737 N 0.98528 0.5097 0.43513 0.0
C738 C 0.98126 0.49434 0.42117 0.0
C739 C 0.99693 0.5013 0.44921 0.0
N740 N 0.98981 0.47676 0.42626 0.0
C741 C 0.99973 0.48132 0.44387 0.0
C742 C 0.95535 0.5439 0.47687 0.0
O743 O 0.93782 0.55874 0.43238 0.0
O744 O 0.94945 0.52809 0.42738 0.0
O745 O 0.96496 0.5308 0.46573 0.0
O746 O 0.95318 0.56141 0.46998 0.0
O747 O 1.00286 0.54587 0.44887 0.0
H748 H 1.00265 0.5091 0.46289 0.0
H749 H 0.97161 0.49582 0.40798 0.0
O750 O 0.99051 0.57593 0.45502 0.0
O751 O 0.97486 0.57345 0.4176 0.0
O752 O 0.9866 0.54322 0.41073 0.0
C753 C 0.98416 0.56137 0.40532 0.0
H754 H 0.96296 0.64313 0.44199 0.0
H755 H 0.00838 0.47089 0.45244 0.0
Co756 Co 0.44241 0.94721 0.56326 0.0
C757 C 0.45088 0.98755 0.55083 0.0
Co758 Co 0.43141 0.95451 0.53251 0.0
C759 C 0.45774 0.92712 0.59829 0.0
C760 C 0.45041 0.95791 0.60517 0.0
N761 N 0.45057 0.94377 0.58985 0.0
N762 N 0.46217 0.93041 0.61821 0.0
C763 C 0.4576 0.94978 0.62257 0.0
H764 H 0.45982 0.91292 0.58994 0.0
H765 H 0.44517 0.97313 0.60385 0.0
C766 C 0.42222 0.91435 0.54495 0.0
N767 N 0.42347 0.95729 0.50493 0.0
C768 C 0.41287 0.97081 0.4943 0.0
C769 C 0.42956 0.94354 0.4905 0.0
N770 N 0.4126 0.9659 0.47393 0.0
C771 C 0.42312 0.9488 0.47169 0.0
C772 C 0.47385 0.94049 0.53482 0.0
O773 O 0.43144 0.9198 0.56136 0.0
O774 O 0.42106 0.92706 0.53093 0.0
O775 O 0.46024 0.94657 0.52256 0.0
O776 O 0.46864 0.93934 0.55358 0.0
O777 O 0.44148 0.98201 0.53452 0.0
H778 H 0.43841 0.93042 0.49341 0.0
H779 H 0.40602 0.98415 0.50119 0.0
O780 O 0.4531 0.9747 0.5646 0.0
O781 O 0.41632 0.95515 0.57343 0.0
O782 O 0.40333 0.96239 0.54401 0.0
C783 C 0.40117 0.96141 0.56356 0.0
H784 H 0.45887 0.95737 0.63741 0.0
H785 H 0.42597 0.94066 0.45733 0.0
Co786 Co 0.53898 0.54024 0.57731 0.0
C787 C 0.53661 0.57463 0.60455 0.0
Co788 Co 0.55262 0.56931 0.56542 0.0
C789 C 0.53565 0.49759 0.59062 0.0
C790 C 0.50897 0.51485 0.59939 0.0
N791 N 0.52761 0.51614 0.58889 0.0
N792 N 0.52278 0.48501 0.60204 0.0
C793 C 0.506 0.49592 0.60745 0.0
H794 H 0.55096 0.49366 0.58433 0.0
H795 H 0.49837 0.52712 0.6015 0.0
C796 C 0.5558 0.53643 0.53744 0.0
N797 N 0.5634 0.59301 0.55368 0.0
C798 C 0.5785 0.60686 0.5599 0.0
C799 C 0.55704 0.59979 0.53574 0.0
N800 N 0.58149 0.62208 0.54661 0.0
C801 C 0.56801 0.61762 0.53143 0.0
C802 C 0.5818 0.54794 0.5858 0.0
O803 O 0.54667 0.52574 0.55147 0.0
O804 O 0.55936 0.55523 0.54102 0.0
O805 O 0.57983 0.56398 0.57583 0.0
O806 O 0.56593 0.53546 0.58786 0.0
O807 O 0.5459 0.58362 0.58969 0.0
H808 H 0.54532 0.59208 0.52619 0.0
H809 H 0.58705 0.60586 0.57388 0.0
O810 O 0.53203 0.55558 0.60273 0.0
O811 O 0.51156 0.54563 0.56682 0.0
O812 O 0.52527 0.57437 0.55558 0.0
C813 C 0.50923 0.56222 0.55794 0.0
H814 H 0.49251 0.49062 0.61674 0.0
H815 H 0.56661 0.62637 0.51787 0.0
Co816 Co 0.5726 0.46891 0.98198 0.0
C817 C 0.60161 0.47237 0.9491 0.0
Co818 Co 0.56094 0.45606 0.95266 0.0
C819 C 0.58535 0.47065 0.02452 0.0
C820 C 0.59002 0.49913 0.00989 0.0
N821 N 0.58308 0.47968 0.0065 0.0
N822 N 0.59308 0.48384 0.03896 0.0
C823 C 0.59599 0.50175 0.02983 0.0
H824 H 0.58117 0.45482 0.0271 0.0
H825 H 0.59082 0.51073 0.99855 0.0
C826 C 0.53143 0.45191 0.98481 0.0
N827 N 0.55018 0.4461 0.92833 0.0
C828 C 0.55907 0.43429 0.91362 0.0
C829 C 0.53084 0.44961 0.92157 0.0
N830 N 0.54592 0.43021 0.89801 0.0
C831 C 0.52816 0.43985 0.90297 0.0
C832 C 0.58173 0.42805 0.97446 0.0
O833 O 0.54566 0.46115 0.9955 0.0
O834 O 0.53522 0.44835 0.96597 0.0
O835 O 0.57172 0.43031 0.95817 0.0
O836 O 0.58349 0.4429 0.98732 0.0
O837 O 0.58663 0.46343 0.93941 0.0
H838 H 0.51937 0.45868 0.9297 0.0
H839 H 0.57469 0.42849 0.91455 0.0
O840 O 0.59905 0.47664 0.9681 0.0
O841 O 0.56212 0.4947 0.97608 0.0
O842 O 0.5506 0.48212 0.94701 0.0
C843 C 0.55323 0.49724 0.9593 0.0
H844 H 0.60235 0.51565 0.037 0.0
H845 H 0.51424 0.43989 0.89377 0.0
Co846 Co 0.47401 0.08608 0.95228 0.0
C847 C 0.51617 0.07635 0.95919 0.0
Co848 Co 0.48201 0.05412 0.94396 0.0
C849 C 0.4522 0.12327 0.96353 0.0
C850 C 0.48438 0.12881 0.95339 0.0
N851 N 0.4698 0.1137 0.95722 0.0
N852 N 0.45525 0.14373 0.96355 0.0
C853 C 0.47555 0.14716 0.95726 0.0
H854 H 0.43725 0.11539 0.96731 0.0
H855 H 0.50032 0.12666 0.94764 0.0
C856 C 0.44032 0.06427 0.93641 0.0
N857 N 0.48492 0.02561 0.93901 0.0
C858 C 0.49766 0.01328 0.92754 0.0
C859 C 0.47073 0.0125 0.94803 0.0
N860 N 0.49197 0.99322 0.9297 0.0
C861 C 0.47504 0.99298 0.94258 0.0
C862 C 0.46596 0.06228 0.98503 0.0
O863 O 0.44579 0.08178 0.94361 0.0
O864 O 0.45364 0.05052 0.93557 0.0
O865 O 0.47287 0.04882 0.97244 0.0
O866 O 0.46519 0.08036 0.97923 0.0
O867 O 0.51079 0.05857 0.95229 0.0
H868 H 0.45753 0.0168 0.9578 0.0
H869 H 0.51079 0.01882 0.91795 0.0
O870 O 0.5024 0.08976 0.96067 0.0
O871 O 0.48294 0.09183 0.92531 0.0
O872 O 0.49073 0.06075 0.91594 0.0
C873 C 0.48971 0.07947 0.91167 0.0
H874 H 0.48351 0.16191 0.95544 0.0
H875 H 0.46601 0.9795 0.9474 0.0
H876 H 0.03035 0.16405 0.38827 0.0
H877 H 0.03093 0.13113 0.40457 0.0
H878 H 0.99777 0.10266 0.35381 0.0
H879 H 0.99615 0.1354 0.33815 0.0
H880 H 0.98348 0.08571 0.38617 0.0
H881 H 0.05356 0.10198 0.35945 0.0
H882 H 0.08709 0.12227 0.35512 0.0
H883 H 0.09848 0.1183 0.41917 0.0
H884 H 0.06484 0.09821 0.42394 0.0
H885 H 0.01514 0.9832 0.39718 0.0
H886 H 0.00953 0.01723 0.38488 0.0
H887 H 0.0339 0.04386 0.4409 0.0
H888 H 0.03937 0.01021 0.4533 0.0
H889 H 0.05232 0.06178 0.40711 0.0
H890 H 0.98197 0.04346 0.4325 0.0
H891 H 0.94917 0.02179 0.43508 0.0
H892 H 0.9393 0.02817 0.37104 0.0
H893 H 0.97221 0.04967 0.36801 0.0
C894 C 0.02287 0.15083 0.38078 0.0
C895 C 0.01355 0.15241 0.36168 0.0
C896 C 0.02343 0.13192 0.38999 0.0
C897 C 0.01484 0.11416 0.38024 0.0
C898 C 1.00469 0.11596 0.36167 0.0
C899 C 1.00397 0.13477 0.35258 0.0
C900 C 0.01677 0.09361 0.38887 0.0
C901 C 0.99861 0.08048 0.39056 0.0
C902 C 0.0364 0.08663 0.3949 0.0
C903 C 0.05655 0.09882 0.39209 0.0
C904 C 0.06312 0.10559 0.37264 0.0
C905 C 0.08216 0.11703 0.3701 0.0
C906 C 0.09487 0.12163 0.38687 0.0
C907 C 0.08859 0.11477 0.40621 0.0
C908 C 0.06954 0.10336 0.40884 0.0
C909 C 0.01902 0.99629 0.40699 0.0
C910 C 0.02767 0.99387 0.42626 0.0
C911 C 0.01583 0.01576 0.39993 0.0
C912 C 0.0213 0.03317 0.41196 0.0
C913 C 0.02962 0.03072 0.43129 0.0
C914 C 0.03264 0.01137 0.4384 0.0
C915 C 0.01909 0.05399 0.4043 0.0
C916 C 0.03721 0.06712 0.40279 0.0
C917 C 0.99951 0.06084 0.39817 0.0
C918 C 0.97966 0.04801 0.39999 0.0
C919 C 0.97289 0.04011 0.41893 0.0
C920 C 0.95427 0.02788 0.42048 0.0
C921 C 0.94219 0.02356 0.40323 0.0
C922 C 0.94868 0.03151 0.38439 0.0
C923 C 0.96731 0.04373 0.38275 0.0
H924 H 0.92777 0.01409 0.40446 0.0
H925 H 0.10962 0.13047 0.38487 0.0
H926 H 0.99895 0.28623 0.3811 0.0
H927 H 0.99472 0.32127 0.39365 0.0
H928 H 0.99968 0.34172 0.33164 0.0
H929 H 1.00443 0.30665 0.31925 0.0
H930 H 0.02117 0.36771 0.3548 0.0
H931 H 0.95127 0.33758 0.35981 0.0
H932 H 0.92338 0.31208 0.36982 0.0
H933 H 0.93534 0.32522 0.4332 0.0
H934 H 0.96356 0.35058 0.42357 0.0
H935 H 0.98804 0.46752 0.38529 0.0
H936 H 0.98856 0.4335 0.36874 0.0
H937 H 0.989 0.40677 0.42795 0.0
H938 H 0.98824 0.44038 0.44435 0.0
H939 H 0.96286 0.38474 0.40362 0.0
H940 H 0.03448 0.41336 0.3978 0.0
H941 H 0.06224 0.43881 0.38729 0.0
H942 H 0.04598 0.42871 0.32444 0.0
H943 H 0.01793 0.40338 0.33463 0.0
C944 C 0.99903 0.29824 0.3702 0.0
C945 C 1.00181 0.29374 0.34921 0.0
C946 C 0.99652 0.3183 0.37734 0.0
C947 C 0.99649 0.33437 0.36364 0.0
C948 C 0.99954 0.32978 0.34262 0.0
C949 C 1.00216 0.30972 0.3355 0.0
C950 C 0.9935 0.35585 0.37126 0.0
C951 C 0.00818 0.37141 0.36521 0.0
C952 C 0.97674 0.36098 0.38508 0.0
C953 C 0.95966 0.34587 0.39095 0.0
C954 C 0.94805 0.33494 0.37588 0.0
C955 C 0.93218 0.32052 0.38149 0.0
C956 C 0.92762 0.31701 0.40213 0.0
C957 C 0.9389 0.32795 0.41721 0.0
C958 C 0.95483 0.34236 0.41169 0.0
C959 C 0.98801 0.45436 0.39474 0.0
C960 C 0.98833 0.45681 0.41618 0.0
C961 C 0.98848 0.43488 0.38527 0.0
C962 C 0.9891 0.41738 0.39703 0.0
C963 C 0.98862 0.41986 0.41842 0.0
C964 C 0.98834 0.43921 0.42782 0.0
C965 C 0.99067 0.39648 0.38737 0.0
C966 C 0.97573 0.38103 0.39306 0.0
C967 C 0.00708 0.3915 0.37313 0.0
C968 C 0.02396 0.40667 0.367 0.0
C969 C 0.03672 0.41669 0.38176 0.0
C970 C 0.05252 0.43107 0.37586 0.0
C971 C 0.05583 0.43542 0.35522 0.0
C972 C 0.04337 0.42536 0.34043 0.0
C973 C 0.02753 0.41098 0.34626 0.0
H974 H 0.06807 0.44655 0.35068 0.0
H975 H 0.91532 0.30584 0.40644 0.0
H976 H 0.06488 0.80927 0.11262 0.0
H977 H 0.06742 0.84347 0.09902 0.0
H978 H 0.01336 0.85954 0.13659 0.0
H979 H 0.01086 0.82563 0.15039 0.0
H980 H 0.00976 0.87215 0.09853 0.0
H981 H 0.06382 0.87566 0.14877 0.0
H982 H 0.09596 0.86527 0.1651 0.0
H983 H 0.13238 0.87687 0.10991 0.0
H984 H 0.10037 0.88705 0.09314 0.0
H985 H 0.01378 0.97813 0.09988 0.0
H986 H 0.01613 0.94312 0.10951 0.0
H987 H 0.06761 0.93575 0.06575 0.0
H988 H 0.06514 0.97104 0.05565 0.0
H989 H 0.0743 0.91775 0.10318 0.0
H990 H 0.02012 0.91652 0.05384 0.0
H991 H 0.98781 0.92747 0.03823 0.0
H992 H 0.95142 0.91179 0.0924 0.0
H993 H 0.98359 0.90102 0.10846 0.0
C994 C 0.05363 0.82012 0.11812 0.0
C995 C 0.03758 0.81455 0.13256 0.0
C996 C 0.0551 0.83969 0.1103 0.0
C997 C 0.04064 0.85418 0.11682 0.0
C998 C 0.02463 0.84865 0.13119 0.0
C999 C 0.02316 0.82915 0.13901 0.0
C1000 C 0.04186 0.87505 0.1086 0.0
C1001 C 0.02384 0.88214 0.09972 0.0
C1002 C 0.0604 0.88799 0.10957 0.0
C1003 C 0.07965 0.88187 0.11962 0.0
C1004 C 0.07864 0.87582 0.14005 0.0
C1005 C 0.09685 0.87 0.1494 0.0
C1006 C 0.11619 0.87035 0.13853 0.0
C1007 C 0.11738 0.87657 0.1183 0.0
C1008 C 0.09921 0.88237 0.10887 0.0
C1009 C 0.0255 0.96914 0.09207 0.0
C1010 C 0.03901 0.97746 0.07665 0.0
C1011 C 0.02689 0.94905 0.09771 0.0
C1012 C 0.04179 0.93664 0.08813 0.0
C1013 C 0.0559 0.94501 0.07329 0.0
C1014 C 0.05449 0.96521 0.06756 0.0
C1015 C 0.04208 0.91489 0.0935 0.0
C1016 C 0.06033 0.90765 0.1018 0.0
C1017 C 0.02373 0.90177 0.09207 0.0
C1018 C 1.00431 0.9081 0.08241 0.0
C1019 C 1.00526 0.91554 0.06248 0.0
C1020 C 0.98697 0.9217 0.05355 0.0
C1021 C 0.96758 0.92036 0.06433 0.0
C1022 C 0.96645 0.91282 0.08406 0.0
C1023 C 0.98471 0.90667 0.09308 0.0
H1024 H 0.95344 0.92513 0.05738 0.0
H1025 H 0.13027 0.86585 0.1458 0.0
H1026 H 1.0043 0.68842 0.10407 0.0
H1027 H 0.99667 0.65521 0.08713 0.0
H1028 H 0.01822 0.62555 0.13994 0.0
H1029 H 0.02592 0.65875 0.15674 0.0
H1030 H 0.0326 0.60787 0.10427 0.0
H1031 H 0.96652 0.62997 0.13324 0.0
H1032 H 0.93808 0.65386 0.13868 0.0
H1033 H 0.92517 0.65001 0.07461 0.0
H1034 H 0.95384 0.62639 0.06872 0.0
H1035 H 0.9828 0.50974 0.09481 0.0
H1036 H 0.99462 0.54406 0.10568 0.0
H1037 H 0.97215 0.56728 0.04989 0.0
H1038 H 0.96025 0.53293 0.03884 0.0
H1039 H 0.95908 0.58908 0.08409 0.0
H1040 H 0.02378 0.56568 0.05526 0.0
H1041 H 0.05243 0.54213 0.04957 0.0
H1042 H 0.06784 0.54824 0.11297 0.0
H1043 H 0.03909 0.57172 0.1191 0.0
C1044 C 0.0074 0.67474 0.11192 0.0
C1045 C 0.01541 0.67589 0.13167 0.0
C1046 C 1.00307 0.65586 0.10231 0.0
C1047 C 0.00669 0.63794 0.11239 0.0
C1048 C 0.01531 0.63919 0.13192 0.0
C1049 C 0.01961 0.65805 0.14151 0.0
C1050 C 1.00083 0.61785 0.10295 0.0
C1051 C 0.0165 0.60369 0.10001 0.0
C1052 C 0.97992 0.61261 0.09694 0.0
C1053 C 0.96248 0.62659 0.1005 0.0
C1054 C 0.95773 0.63434 0.12028 0.0
C1055 C 0.94156 0.64782 0.12345 0.0
C1056 C 0.92986 0.65349 0.10699 0.0
C1057 C 0.93427 0.64564 0.08734 0.0
C1058 C 0.95048 0.6322 0.08408 0.0
C1059 C 0.98051 0.52211 0.08476 0.0
C1060 C 0.97059 0.51861 0.06596 0.0
C1061 C 0.98734 0.54171 0.09097 0.0
C1062 C 0.98437 0.55818 0.07852 0.0
C1063 C 0.97459 0.55475 0.05969 0.0
C1064 C 0.96788 0.53511 0.05339 0.0
C1065 C 0.99081 0.57903 0.0856 0.0
C1066 C 0.97523 0.59332 0.08815 0.0
C1067 C 0.0118 0.58439 0.09125 0.0
C1068 C 0.02915 0.57032 0.08767 0.0
C1069 C 0.03316 0.56188 0.06803 0.0
C1070 C 0.04945 0.54856 0.06472 0.0
C1071 C 0.06192 0.54363 0.0809 0.0
C1072 C 0.05816 0.55206 0.10044 0.0
C1073 C 0.04189 0.56541 0.10384 0.0
H1074 H 0.07452 0.5333 0.0783 0.0
H1075 H 0.91734 0.66392 0.10947 0.0
H1076 H 0.3889 0.05647 0.17163 0.0
H1077 H 0.41027 0.06118 0.1399 0.0
H1078 H 0.38025 0.00686 0.11354 0.0
H1079 H 0.35855 1.00244 0.14496 0.0
H1080 H 0.42649 0.01193 0.10572 0.0
H1081 H 0.36176 0.04732 0.10077 0.0
H1082 H 0.33552 0.07166 0.11275 0.0
H1083 H 0.38341 0.12007 0.11122 0.0
H1084 H 0.41003 0.09592 0.09954 0.0
H1085 H 0.45125 0.02525 0.99938 0.0
H1086 H 0.43529 0.01811 0.03315 0.0
H1087 H 0.44761 0.08064 0.05217 0.0
H1088 H 0.46248 0.08795 0.01824 0.0
H1089 H 0.41108 0.07111 0.06486 0.0
H1090 H 0.47597 0.03784 0.06933 0.0
H1091 H 0.50376 0.01453 0.05885 0.0
H1092 H 0.45877 0.96382 0.06295 0.0
H1093 H 0.43063 0.98688 0.07321 0.0
C1094 C 0.38717 0.04538 0.15918 0.0
C1095 C 0.3721 0.02908 0.16076 0.0
C1096 C 0.3993 0.0481 0.14104 0.0
C1097 C 0.39684 0.03439 0.12428 0.0
C1098 C 0.3825 0.01759 0.12624 0.0
C1099 C 0.37009 0.0151 0.14418 0.0
C1100 C 0.40805 0.03825 0.10425 0.0
C1101 C 0.42305 0.02478 0.09667 0.0
C1102 C 0.40394 0.05524 0.09264 0.0
C1103 C 0.38793 0.06978 0.09952 0.0
C1104 C 0.36674 0.06312 0.10318 0.0
C1105 C 0.35179 0.07689 0.10988 0.0
C1106 C 0.35781 0.09739 0.11281 0.0
C1107 C 0.37878 0.10418 0.10898 0.0
C1108 C 0.3938 0.09046 0.10232 0.0
C1109 C 0.45074 0.0374 0.01086 0.0
C1110 C 0.45816 0.05717 0.00607 0.0
C1111 C 0.44168 0.0333 0.03027 0.0
C1112 C 0.44033 0.04875 0.04556 0.0
C1113 C 0.44824 0.06838 0.04081 0.0
C1114 C 0.45688 0.07256 0.02135 0.0
C1115 C 0.4299 0.04488 0.06612 0.0
C1116 C 0.41484 0.05832 0.07384 0.0
C1117 C 0.43428 0.02803 0.07799 0.0
C1118 C 0.45115 0.01411 0.07184 0.0
C1119 C 0.47197 0.02174 0.06785 0.0
C1120 C 0.48779 0.00856 0.06197 0.0
C1121 C 0.48302 0.98771 0.06018 0.0
C1122 C 0.46243 0.97998 0.06432 0.0
C1123 C 0.44655 0.99309 0.07018 0.0
H1124 H 0.49529 0.97754 0.05562 0.0
H1125 H 0.34621 0.10803 0.11799 0.0
H1126 H 0.63218 0.49863 0.22823 0.0
H1127 H 0.61861 0.49484 0.19373 0.0
H1128 H 0.67355 0.46227 0.17438 0.0
H1129 H 0.68797 0.46779 0.20856 0.0
H1130 H 0.66614 0.48504 0.14598 0.0
H1131 H 0.62156 0.43894 0.18352 0.0
H1132 H 0.59762 0.42693 0.21149 0.0
H1133 H 0.55194 0.46915 0.19552 0.0
H1134 H 0.57575 0.48165 0.16764 0.0
H1135 H 0.61458 0.45279 0.05233 0.0
H1136 H 0.62679 0.44894 0.08734 0.0
H1137 H 0.59459 0.50234 0.10725 0.0
H1138 H 0.58302 0.50652 0.07226 0.0
H1139 H 0.59089 0.4645 0.13427 0.0
H1140 H 0.64047 0.51202 0.09853 0.0
H1141 H 0.66496 0.52084 0.06978 0.0
H1142 H 0.70187 0.47007 0.08202 0.0
H1143 H 0.67736 0.46078 0.11067 0.0
C1144 C 0.64159 0.49118 0.21644 0.0
C1145 C 0.66144 0.48414 0.22079 0.0
C1146 C 0.6336 0.48855 0.19681 0.0
C1147 C 0.64485 0.47797 0.18136 0.0
C1148 C 0.66454 0.47055 0.18591 0.0
C1149 C 0.67276 0.47364 0.20542 0.0
C1150 C 0.63637 0.47523 0.16037 0.0
C1151 C 0.64977 0.48016 0.14353 0.0
C1152 C 0.61498 0.46888 0.15688 0.0
C1153 C 0.60053 0.46134 0.17357 0.0
C1154 C 0.60647 0.44576 0.18605 0.0
C1155 C 0.59292 0.43886 0.20188 0.0
C1156 C 0.57329 0.4473 0.2053 0.0
C1157 C 0.56716 0.46263 0.19286 0.0
C1158 C 0.58067 0.46962 0.17702 0.0
C1159 C 0.60987 0.46344 0.06432 0.0
C1160 C 0.59794 0.47996 0.05974 0.0
C1161 C 0.61686 0.46128 0.08421 0.0
C1162 C 0.61156 0.47538 0.09981 0.0
C1163 C 0.59876 0.49129 0.09542 0.0
C1164 C 0.59224 0.49371 0.0755 0.0
C1165 C 0.62059 0.4746 0.12035 0.0
C1166 C 0.6073 0.46905 0.13696 0.0
C1167 C 0.64216 0.47985 0.12361 0.0
C1168 C 0.65696 0.48557 0.10654 0.0
C1169 C 0.65369 0.50263 0.09496 0.0
C1170 C 0.6676 0.50774 0.07871 0.0
C1171 C 0.68492 0.49598 0.07403 0.0
C1172 C 0.68841 0.47914 0.08564 0.0
C1173 C 0.67453 0.47395 0.10187 0.0
H1174 H 0.69567 0.49996 0.06145 0.0
H1175 H 0.56282 0.44193 0.21757 0.0
H1176 H 0.37455 0.01372 0.29033 0.0
H1177 H 0.38663 0.00794 0.32489 0.0
H1178 H 0.32182 0.9984 0.34611 0.0
H1179 H 0.3098 1.00443 0.31147 0.0
H1180 H 0.34425 0.02092 0.37418 0.0
H1181 H 0.35339 0.95859 0.33652 0.0
H1182 H 0.36596 0.93704 0.30769 0.0
H1183 H 0.43033 0.95517 0.32087 0.0
H1184 H 0.41812 0.97712 0.34958 0.0
H1185 H 0.37171 0.97464 0.46837 0.0
H1186 H 0.35673 0.9846 0.43608 0.0
H1187 H 0.41955 0.98937 0.40861 0.0
H1188 H 0.43415 0.97881 0.44054 0.0
H1189 H 0.3961 0.9686 0.38396 0.0
H1190 H 0.38709 0.0318 0.42102 0.0
H1191 H 0.37453 0.0539 0.44944 0.0
H1192 H 0.31023 0.03438 0.43752 0.0
H1193 H 0.32243 0.01197 0.40917 0.0
C1194 C 0.36294 0.0104 0.30242 0.0
C1195 C 0.34127 0.00944 0.29827 0.0
C1196 C 0.36982 0.00704 0.32218 0.0
C1197 C 0.35519 1.00249 0.33826 0.0
C1198 C 0.33347 1.00187 0.3341 0.0
C1199 C 0.3266 0.00521 0.3143 0.0
C1200 C 0.36263 0.99799 0.35918 0.0
C1201 C 0.3554 0.0093 0.37634 0.0
C1202 C 0.37743 0.98304 0.36218 0.0
C1203 C 0.38483 0.96964 0.3451 0.0
C1204 C 0.37022 0.95809 0.33319 0.0
C1205 C 0.37728 0.94579 0.31687 0.0
C1206 C 0.39893 0.94476 0.31243 0.0
C1207 C 0.41356 0.956 0.32432 0.0
C1208 C 0.40658 0.96836 0.34062 0.0
C1209 C 0.38227 0.97846 0.45559 0.0
C1210 C 0.40413 0.97623 0.45705 0.0
C1211 C 0.37373 0.98407 0.43704 0.0
C1212 C 0.38693 0.98783 0.41963 0.0
C1213 C 0.40887 0.98648 0.42156 0.0
C1214 C 0.41729 0.98066 0.43991 0.0
C1215 C 0.37812 0.99184 0.39906 0.0
C1216 C 0.385 0.98029 0.38189 0.0
C1217 C 0.36304 0.00658 0.39611 0.0
C1218 C 0.35569 0.02005 0.41312 0.0
C1219 C 0.37028 0.0321 0.42456 0.0
C1220 C 0.36322 0.04471 0.44064 0.0
C1221 C 0.3416 0.0455 0.44532 0.0
C1222 C 0.32698 0.03373 0.43389 0.0
C1223 C 0.33395 0.02108 0.41782 0.0
H1224 H 0.33617 0.05526 0.45777 0.0
H1225 H 0.40436 0.93523 0.29979 0.0
H1226 H 0.63968 0.46443 0.36441 0.0
H1227 H 0.62085 0.46785 0.39764 0.0
H1228 H 0.63266 0.53275 0.39679 0.0
H1229 H 0.65216 0.52911 0.36405 0.0
H1230 H 0.6396 0.52201 0.43255 0.0
H1231 H 0.5818 0.50621 0.38808 0.0
H1232 H 0.56135 0.48629 0.36227 0.0
H1233 H 0.55657 0.43542 0.4017 0.0
H1234 H 0.57724 0.45497 0.42765 0.0
H1235 H 0.56561 0.55787 0.50357 0.0
H1236 H 0.58175 0.5467 0.4714 0.0
H1237 H 0.5792 0.48519 0.49169 0.0
H1238 H 0.56281 0.49644 0.52465 0.0
H1239 H 0.56849 0.49023 0.44822 0.0
H1240 H 0.62448 0.50958 0.49419 0.0
H1241 H 0.64256 0.53226 0.5195 0.0
H1242 H 0.64849 0.57954 0.47585 0.0
H1243 H 0.6302 0.55724 0.45036 0.0
C1244 C 0.638 0.47941 0.37129 0.0
C1245 C 0.64717 0.49653 0.36158 0.0
C1246 C 0.62716 0.4814 0.39029 0.0
C1247 C 0.62495 0.50062 0.39989 0.0
C1248 C 0.63403 0.51772 0.38994 0.0
C1249 C 0.64508 0.51569 0.37111 0.0
C1250 C 0.6139 0.50305 0.4205 0.0
C1251 C 0.62398 0.51513 0.43578 0.0
C1252 C 0.59366 0.49376 0.42527 0.0
C1253 C 0.58128 0.48197 0.4097 0.0
C1254 C 0.57654 0.49072 0.39118 0.0
C1255 C 0.56488 0.4795 0.37654 0.0
C1256 C 0.55772 0.45957 0.38032 0.0
C1257 C 0.56216 0.45084 0.39877 0.0
C1258 C 0.57384 0.46198 0.41346 0.0
C1259 C 0.56826 0.54187 0.50134 0.0
C1260 C 0.56305 0.52811 0.51699 0.0
C1261 C 0.57756 0.53552 0.48278 0.0
C1262 C 0.58208 0.51516 0.47911 0.0
C1263 C 0.57597 0.50103 0.49418 0.0
C1264 C 0.56657 0.50745 0.51301 0.0
C1265 C 0.59411 0.5094 0.45988 0.0
C1266 C 0.58424 0.49679 0.44493 0.0
C1267 C 0.61441 0.51847 0.45523 0.0
C1268 C 0.62586 0.53176 0.47039 0.0
C1269 C 0.62955 0.52484 0.49001 0.0
C1270 C 0.63985 0.53763 0.50439 0.0
C1271 C 0.64665 0.55734 0.49929 0.0
C1272 C 0.64323 0.56427 0.47978 0.0
C1273 C 0.63293 0.55155 0.46535 0.0
H1274 H 0.65459 0.56723 0.51045 0.0
H1275 H 0.54869 0.45092 0.36897 0.0
H1276 H 0.17244 0.38863 0.04505 0.0
H1277 H 0.13583 0.39854 0.04706 0.0
H1278 H 0.14519 0.42957 0.9903 0.0
H1279 H 0.18217 0.42044 0.98859 0.0
H1280 H 0.12151 0.45141 0.01614 0.0
H1281 H 0.11915 0.38192 0.99269 0.0
H1282 H 0.12714 0.34584 0.9938 0.0
H1283 H 0.09451 0.34119 0.05206 0.0
H1284 H 0.08655 0.37734 0.05144 0.0
H1285 H 0.00937 0.46084 0.00508 0.0
H1286 H 0.04626 0.4518 0.99838 0.0
H1287 H 0.04483 0.41956 0.05471 0.0
H1288 H 0.00837 0.42829 0.06133 0.0
H1289 H 0.06436 0.39809 0.02583 0.0
H1290 H 0.06865 0.46758 0.05044 0.0
H1291 H 0.06138 0.50386 0.05028 0.0
H1292 H 0.09062 0.50853 0.99043 0.0
H1293 H 0.09778 0.47215 0.99012 0.0
C1294 C 0.16692 0.39785 0.03311 0.0
C1295 C 0.1805 0.40359 0.01659 0.0
C1296 C 0.14577 0.40331 0.03416 0.0
C1297 C 0.13743 0.41452 0.01863 0.0
C1298 C 0.15106 0.4208 1.00243 0.0
C1299 C 0.17226 0.41538 1.00139 0.0
C1300 C 0.11448 0.41939 0.01921 0.0
C1301 C 0.10902 0.43968 0.01791 0.0
C1302 C 0.09801 0.40424 0.02184 0.0
C1303 C 0.1024 0.38239 0.02208 0.0
C1304 C 0.11376 0.37323 0.00579 0.0
C1305 C 0.11828 0.35277 0.00633 0.0
C1306 C 0.11138 0.34124 0.02301 0.0
C1307 C 0.09986 0.35015 0.03916 0.0
C1308 C 0.09532 0.37062 0.0387 0.0
C1309 C 0.01689 0.45169 0.01592 0.0
C1310 C 0.0058 0.44539 0.03378 0.0
C1311 C 0.03806 0.44661 0.01215 0.0
C1312 C 0.04857 0.4351 0.02613 0.0
C1313 C 0.03726 0.42842 0.04363 0.0
C1314 C 0.0163 0.43353 0.04744 0.0
C1315 C 0.07138 0.43014 0.02302 0.0
C1316 C 0.07682 0.40981 0.02384 0.0
C1317 C 0.08782 0.44526 0.02 0.0
C1318 C 0.08352 0.4671 0.02015 0.0
C1319 C 0.07337 0.47631 0.03717 0.0
C1320 C 0.0693 0.4969 0.03718 0.0
C1321 C 0.07549 0.5085 0.02033 0.0
C1322 C 0.0858 0.49952 1.00345 0.0
C1323 C 0.08987 0.47892 1.00335 0.0
H1324 H 0.07235 0.52444 0.02035 0.0
H1325 H 0.11493 0.32541 0.02342 0.0
H1326 H 0.20271 0.61824 0.49058 0.0
H1327 H 0.16829 0.60034 0.48487 0.0
H1328 H 0.13756 0.65703 0.49237 0.0
H1329 H 0.17195 0.67476 0.49846 0.0
H1330 H 0.11555 0.62807 0.51221 0.0
H1331 H 0.14728 0.63441 0.44483 0.0
H1332 H 0.17531 0.6303 0.41826 0.0
H1333 H 0.16908 0.56564 0.42353 0.0
H1334 H 0.14125 0.56938 0.4504 0.0
H1335 H 0.0172 0.60301 0.46743 0.0
H1336 H 0.05224 0.61701 0.47613 0.0
H1337 H 0.07742 0.55785 0.46722 0.0
H1338 H 0.04229 0.54371 0.45804 0.0
H1339 H 0.10289 0.58585 0.44933 0.0
H1340 H 0.06985 0.57948 0.51565 0.0
H1341 H 0.04191 0.58375 0.54228 0.0
H1342 H 0.05054 0.64847 0.53902 0.0
H1343 H 0.07834 0.64459 0.51216 0.0
C1344 C 0.18854 0.62677 0.49094 0.0
C1345 C 0.18982 0.64781 0.49473 0.0
C1346 C 0.16892 0.61661 0.48763 0.0
C1347 C 0.15029 0.62736 0.48792 0.0
C1348 C 0.15165 0.64839 0.49204 0.0
C1349 C 0.17125 0.65852 0.49541 0.0
C1350 C 0.12937 0.61678 0.48391 0.0
C1351 C 0.11273 0.61901 0.49836 0.0
C1352 C 0.12578 0.60448 0.4661 0.0
C1353 C 0.14233 0.60219 0.44977 0.0
C1354 C 0.15199 0.61932 0.44042 0.0
C1355 C 0.16783 0.61706 0.4253 0.0
C1356 C 0.17401 0.59772 0.41924 0.0
C1357 C 0.16431 0.58061 0.42826 0.0
C1358 C 0.14849 0.58279 0.44343 0.0
C1359 C 0.03011 0.59287 0.46749 0.0
C1360 C 0.02685 0.57218 0.46211 0.0
C1361 C 0.05018 0.60092 0.47255 0.0
C1362 C 0.06751 0.58848 0.47261 0.0
C1363 C 0.06432 0.56777 0.46735 0.0
C1364 C 0.04419 0.55968 0.46219 0.0
C1365 C 0.08899 0.59731 0.47754 0.0
C1366 C 0.10573 0.59477 0.46326 0.0
C1367 C 0.09268 0.60935 0.49551 0.0
C1368 C 0.07607 0.61174 0.51177 0.0
C1369 C 0.06569 0.59462 0.52051 0.0
C1370 C 0.04989 0.59697 0.53566 0.0
C1371 C 0.04442 0.61636 0.54231 0.0
C1372 C 0.05478 0.63345 0.53385 0.0
C1373 C 0.07058 0.63119 0.51868 0.0
H1374 H 0.03218 0.61815 0.55404 0.0
H1375 H 0.18627 0.596 0.40753 0.0
H1376 H 0.81116 0.90711 0.50889 0.0
H1377 H 0.84857 0.91865 0.50662 0.0
H1378 H 0.86399 0.86078 0.47926 0.0
H1379 H 0.82664 0.84902 0.48238 0.0
H1380 H 0.89225 0.87138 0.50611 0.0
H1381 H 0.86191 0.90561 0.4515 0.0
H1382 H 0.83714 0.92751 0.43551 0.0
H1383 H 0.85882 0.97795 0.47365 0.0
H1384 H 0.88352 0.95625 0.4901 0.0
H1385 H 0.99021 0.89642 0.45577 0.0
H1386 H 0.95354 0.88746 0.46556 0.0
H1387 H 0.95034 0.94319 0.50133 0.0
H1388 H 0.98756 0.95219 0.49166 0.0
H1389 H 0.91627 0.93578 0.47376 0.0
H1390 H 0.94934 0.90077 0.52596 0.0
H1391 H 0.97474 0.87813 0.53989 0.0
H1392 H 0.94838 0.82822 0.50375 0.0
H1393 H 0.92301 0.85064 0.48936 0.0
C1394 C 0.82261 0.89683 0.50259 0.0
C1395 C 0.8161 0.87705 0.49617 0.0
C1396 C 0.84399 0.9035 0.50107 0.0
C1397 C 0.85931 0.89068 0.49265 0.0
C1398 C 0.85265 0.87099 0.48592 0.0
C1399 C 0.83129 0.86429 0.48759 0.0
C1400 C 0.88223 0.89762 0.49103 0.0
C1401 C 0.89744 0.88538 0.49885 0.0
C1402 C 0.88922 0.91617 0.48205 0.0
C1403 C 0.87438 0.92924 0.4722 0.0
C1404 C 0.86127 0.92133 0.45661 0.0
C1405 C 0.84726 0.93371 0.44744 0.0
C1406 C 0.84636 0.95409 0.4536 0.0
C1407 C 0.85951 0.96215 0.46892 0.0
C1408 C 0.87351 0.94981 0.47817 0.0
C1409 C 0.98186 0.90665 0.46603 0.0
C1410 C 0.99185 0.92499 0.47301 0.0
C1411 C 0.96085 0.90148 0.47163 0.0
C1412 C 0.94909 0.91459 0.48422 0.0
C1413 C 0.95909 0.9328 0.49162 0.0
C1414 C 0.9804 0.93785 0.48626 0.0
C1415 C 0.92615 0.90942 0.48862 0.0
C1416 C 0.91099 0.92193 0.48126 0.0
C1417 C 0.9192 0.89101 0.49777 0.0
C1418 C 0.93437 0.87744 0.50647 0.0
C1419 C 0.94906 0.885 0.52086 0.0
C1420 C 0.96343 0.8722 0.52886 0.0
C1421 C 0.9632 0.85176 0.52268 0.0
C1422 C 0.94855 0.84407 0.50852 0.0
C1423 C 0.93415 0.85681 0.50045 0.0
H1424 H 0.97434 0.84187 0.52889 0.0
H1425 H 0.83552 0.96366 0.44648 0.0
H1426 H 0.35075 0.66051 0.50341 0.0
H1427 H 0.38305 0.64329 0.50954 0.0
H1428 H 0.34737 0.60014 0.54678 0.0
H1429 H 0.31505 0.61796 0.5413 0.0
H1430 H 0.38233 0.60796 0.56408 0.0
H1431 H 0.36671 0.58924 0.49522 0.0
H1432 H 0.35802 0.59418 0.4593 0.0
H1433 H 0.41648 0.62903 0.4501 0.0
H1434 H 0.42539 0.62452 0.48605 0.0
H1435 H 0.46997 0.54338 0.56568 0.0
H1436 H 0.43523 0.55549 0.55765 0.0
H1437 H 0.46569 0.60709 0.52814 0.0
H1438 H 0.50027 0.59506 0.53589 0.0
H1439 H 0.43202 0.59178 0.50653 0.0
H1440 H 0.44636 0.60929 0.57734 0.0
H1441 H 0.45509 0.59997 0.61208 0.0
H1442 H 0.39703 0.56365 0.61702 0.0
H1443 H 0.3884 0.57206 0.58188 0.0
C1444 C 0.34973 0.64728 0.51282 0.0
C1445 C 0.3302 0.64054 0.5217 0.0
C1446 C 0.36828 0.63732 0.51626 0.0
C1447 C 0.36782 0.61997 0.52825 0.0
C1448 C 0.34834 0.61338 0.53739 0.0
C1449 C 0.3298 0.62359 0.53424 0.0
C1450 C 0.38768 0.60899 0.53143 0.0
C1451 C 0.39295 0.60417 0.55139 0.0
C1452 C 0.40188 0.60398 0.51504 0.0
C1453 C 0.39663 0.60668 0.49338 0.0
C1454 C 0.37765 0.59807 0.48557 0.0
C1455 C 0.37269 0.60078 0.4652 0.0
C1456 C 0.38667 0.61195 0.45244 0.0
C1457 C 0.40566 0.62039 0.46001 0.0
C1458 C 0.41068 0.61775 0.48038 0.0
C1459 C 0.46928 0.55717 0.55726 0.0
C1460 C 0.48802 0.56826 0.55155 0.0
C1461 C 0.44937 0.56415 0.55275 0.0
C1462 C 0.44771 0.5824 0.54248 0.0
C1463 C 0.46642 0.59302 0.53609 0.0
C1464 C 0.48626 0.58611 0.54062 0.0
C1465 C 0.42667 0.59106 0.5391 0.0
C1466 C 0.42123 0.59547 0.51914 0.0
C1467 C 0.41216 0.59533 0.55542 0.0
C1468 C 0.41685 0.59113 0.57689 0.0
C1469 C 0.4355 0.59924 0.58579 0.0
C1470 C 0.44044 0.59409 0.60556 0.0
C1471 C 0.4266 0.58126 0.6168 0.0
C1472 C 0.40775 0.57357 0.60829 0.0
C1473 C 0.40287 0.57846 0.58841 0.0
H1474 H 0.43046 0.57722 0.63209 0.0
H1475 H 0.3828 0.61403 0.43668 0.0
H1476 H 0.50733 0.65432 0.86411 0.0
H1477 H 0.51015 0.62338 0.88283 0.0
H1478 H 0.55594 0.65395 0.92205 0.0
H1479 H 0.55363 0.68511 0.90274 0.0
H1480 H 0.56902 0.61735 0.90979 0.0
H1481 H 0.50489 0.6412 0.93952 0.0
H1482 H 0.46917 0.65445 0.94001 0.0
H1483 H 0.44561 0.60069 0.9079 0.0
H1484 H 0.48125 0.58722 0.90696 0.0
H1485 H 0.56656 0.53378 0.97658 0.0
H1486 H 0.56117 0.5677 0.96432 0.0
H1487 H 0.52274 0.54161 0.91604 0.0
H1488 H 0.52834 0.50753 0.92801 0.0
H1489 H 0.50614 0.57712 0.93595 0.0
H1490 H 0.57053 0.55465 0.90405 0.0
H1491 H 0.6059 0.54072 0.90412 0.0
H1492 H 0.62872 0.5918 0.94078 0.0
H1493 H 0.59332 0.60587 0.94125 0.0
C1494 C 0.518 0.65456 0.87675 0.0
C1495 C 0.53038 0.67224 0.8818 0.0
C1496 C 0.51946 0.63683 0.88761 0.0
C1497 C 0.53313 0.63623 0.90405 0.0
C1498 C 0.54523 0.65397 0.90946 0.0
C1499 C 0.54377 0.67184 0.89854 0.0
C1500 C 0.53521 0.61681 0.91486 0.0
C1501 C 0.55529 0.6088 0.91588 0.0
C1502 C 0.51729 0.60527 0.92244 0.0
C1503 C 0.4958 0.61327 0.92304 0.0
C1504 C 0.49212 0.63226 0.93244 0.0
C1505 C 0.47188 0.6398 0.93281 0.0
C1506 C 0.45514 0.62843 0.92396 0.0
C1507 C 0.45859 0.60948 0.91475 0.0
C1508 C 0.47881 0.60187 0.91431 0.0
C1509 C 0.55673 0.53523 0.96351 0.0
C1510 C 0.54792 0.51788 0.95326 0.0
C1511 C 0.55373 0.55466 0.95647 0.0
C1512 C 0.54167 0.55723 0.93917 0.0
C1513 C 0.53211 0.54001 0.92941 0.0
C1514 C 0.53536 0.52053 0.93626 0.0
C1515 C 0.53984 0.57775 0.9307 0.0
C1516 C 0.51984 0.58586 0.93007 0.0
C1517 C 0.5578 0.58939 0.92349 0.0
C1518 C 0.57921 0.5812 0.92288 0.0
C1519 C 0.58304 0.56284 0.91226 0.0
C1520 C 0.6031 0.55492 0.91218 0.0
C1521 C 0.61953 0.56534 0.9225 0.0
C1522 C 0.61596 0.58374 0.93283 0.0
C1523 C 0.5959 0.59169 0.93301 0.0
H1524 H 0.63505 0.55917 0.92244 0.0
H1525 H 0.43948 0.6343 0.92426 0.0
H1526 H 0.51462 0.80438 0.89028 0.0
H1527 H 0.51222 0.83993 0.90176 0.0
H1528 H 0.52246 0.85878 0.83959 0.0
H1529 H 0.52531 0.82311 0.82823 0.0
H1530 H 0.54323 0.88491 0.86398 0.0
H1531 H 0.47235 0.85697 0.86384 0.0
H1532 H 0.44295 0.83234 0.87197 0.0
H1533 H 0.44995 0.84576 0.93609 0.0
H1534 H 0.47964 0.87024 0.92836 0.0
H1535 H 0.50434 0.98557 0.88985 0.0
H1536 H 0.51179 0.95203 0.8743 0.0
H1537 H 0.50574 0.92579 0.93381 0.0
H1538 H 0.49839 0.95892 0.9491 0.0
H1539 H 0.48179 0.90422 0.90774 0.0
H1540 H 0.55396 0.93168 0.90704 0.0
H1541 H 0.58309 0.9563 0.89804 0.0
H1542 H 0.57251 0.94441 0.8342 0.0
H1543 H 0.54311 0.9199 0.84284 0.0
C1544 C 0.51626 0.81614 0.87908 0.0
C1545 C 0.51975 0.81096 0.85831 0.0
C1546 C 0.51486 0.83651 0.88563 0.0
C1547 C 0.51672 0.85229 0.87156 0.0
C1548 C 0.52084 0.84708 0.85083 0.0
C1549 C 0.52236 0.82667 0.84431 0.0
C1550 C 0.514 0.87404 0.87849 0.0
C1551 C 0.52962 0.88913 0.87331 0.0
C1552 C 0.49637 0.87985 0.89081 0.0
C1553 C 0.47835 0.86532 0.89552 0.0
C1554 C 0.46771 0.85458 0.87968 0.0
C1555 C 0.45099 0.84065 0.88422 0.0
C1556 C 0.44461 0.83746 0.90453 0.0
C1557 C 0.45492 0.84824 0.92036 0.0
C1558 C 0.47169 0.86215 0.91591 0.0
C1559 C 0.50523 0.97273 0.8996 0.0
C1560 C 0.50075 0.97496 0.92073 0.0
C1561 C 0.50935 0.95348 0.89071 0.0
C1562 C 0.50918 0.93611 0.9028 0.0
C1563 C 0.50576 0.9387 0.924 0.0
C1564 C 0.50167 0.95775 0.93278 0.0
C1565 C 0.51125 0.91502 0.89368 0.0
C1566 C 0.49539 0.90003 0.89836 0.0
C1567 C 0.52853 0.90942 0.88079 0.0
C1568 C 0.54618 0.92414 0.87559 0.0
C1569 C 0.55772 0.93445 0.89109 0.0
C1570 C 0.57431 0.94836 0.88605 0.0
C1571 C 0.57961 0.95196 0.86556 0.0
C1572 C 0.56836 0.94163 0.85006 0.0
C1573 C 0.55174 0.92772 0.85502 0.0
H1574 H 0.59246 0.96273 0.86169 0.0
H1575 H 0.43166 0.82667 0.90801 0.0
H1576 H 0.53211 0.29102 0.62704 0.0
H1577 H 0.53528 0.32627 0.61603 0.0
H1578 H 0.51705 0.34696 0.67685 0.0
H1579 H 0.5145 0.31172 0.68801 0.0
H1580 H 0.49455 0.36423 0.64645 0.0
H1581 H 0.56723 0.35368 0.66063 0.0
H1582 H 0.60057 0.336 0.65735 0.0
H1583 H 0.60404 0.34673 0.59294 0.0
H1584 H 0.57052 0.36421 0.59578 0.0
H1585 H 0.51215 0.46911 0.63865 0.0
H1586 H 0.51428 0.43405 0.64863 0.0
H1587 H 0.54238 0.4189 0.58963 0.0
H1588 H 0.54083 0.4545 0.57982 0.0
H1589 H 0.56005 0.398 0.61743 0.0
H1590 H 0.48834 0.40796 0.60202 0.0
H1591 H 0.45432 0.42458 0.60368 0.0
H1592 H 0.44789 0.41356 0.66793 0.0
H1593 H 0.48204 0.39712 0.66672 0.0
C1594 C 0.5294 0.30313 0.63819 0.0
C1595 C 0.5237 0.29865 0.65856 0.0
C1596 C 0.53104 0.32329 0.63185 0.0
C1597 C 0.52663 0.3394 0.64563 0.0
C1598 C 0.52065 0.33488 0.66592 0.0
C1599 C 0.51928 0.31475 0.67232 0.0
C1600 C 0.52747 0.36086 0.63876 0.0
C1601 C 0.50896 0.37169 0.64037 0.0
C1602 C 0.54603 0.37045 0.63009 0.0
C1603 C 0.56624 0.36007 0.62838 0.0
C1604 C 0.575 0.35212 0.64573 0.0
C1605 C 0.59395 0.34216 0.64396 0.0
C1606 C 0.60439 0.34019 0.62494 0.0
C1607 C 0.59592 0.34823 0.60766 0.0
C1608 C 0.57695 0.35818 0.60934 0.0
C1609 C 0.51884 0.45835 0.62779 0.0
C1610 C 0.52604 0.46457 0.60831 0.0
C1611 C 0.51999 0.4382 0.63349 0.0
C1612 C 0.52791 0.42347 0.61973 0.0
C1613 C 0.53601 0.42982 0.60053 0.0
C1614 C 0.53516 0.45018 0.59491 0.0
C1615 C 0.52715 0.40154 0.62537 0.0
C1616 C 0.54562 0.39058 0.62347 0.0
C1617 C 0.50844 0.39166 0.63352 0.0
C1618 C 0.48785 0.40146 0.63431 0.0
C1619 C 0.47974 0.4092 0.61653 0.0
C1620 C 0.46043 0.41857 0.61739 0.0
C1621 C 0.44898 0.42017 0.63591 0.0
C1622 C 0.45679 0.41234 0.6536 0.0
C1623 C 0.47612 0.40297 0.65284 0.0
H1624 H 0.43403 0.42743 0.63654 0.0
H1625 H 0.61906 0.33248 0.62359 0.0
H1626 H 0.45486 0.1632 0.63524 0.0
H1627 H 0.44719 0.13235 0.61448 0.0
H1628 H 0.51081 0.13626 0.58877 0.0
H1629 H 0.51814 0.16766 0.60896 0.0
H1630 H 0.48426 0.1197 0.56106 0.0
H1631 H 0.49868 0.10948 0.63156 0.0
H1632 H 0.4936 0.11412 0.66888 0.0
H1633 H 0.43001 0.08865 0.66515 0.0
H1634 H 0.43459 0.08422 0.62773 0.0
H1635 H 0.47927 1.00217 0.57861 0.0
H1636 H 0.48763 0.03748 0.58846 0.0
H1637 H 0.44588 0.05679 0.54277 0.0
H1638 H 0.43796 0.02132 0.53237 0.0
H1639 H 0.46198 0.06227 0.60518 0.0
H1640 H 0.46038 0.10591 0.5299 0.0
H1641 H 0.46911 0.10068 0.49318 0.0
H1642 H 0.51408 0.05712 0.50747 0.0
H1643 H 0.50583 0.0623 0.54427 0.0
C1644 C 0.46693 0.15776 0.62465 0.0
C1645 C 0.48706 0.16763 0.62363 0.0
C1646 C 0.46261 0.14013 0.61289 0.0
C1647 C 0.47859 0.13173 0.60043 0.0
C1648 C 0.49826 0.14242 0.5983 0.0
C1649 C 0.50245 0.16032 0.60981 0.0
C1650 C 0.47561 0.11078 0.59169 0.0
C1651 C 0.4793 0.10713 0.57065 0.0
C1652 C 0.46963 0.09428 0.60428 0.0
C1653 C 0.46691 0.09673 0.62682 0.0
C1654 C 0.48357 0.10501 0.63868 0.0
C1655 C 0.48078 0.10759 0.65985 0.0
C1656 C 0.46148 0.10173 0.66938 0.0
C1657 C 0.44494 0.09323 0.65775 0.0
C1658 C 0.44762 0.09068 0.63656 0.0
C1659 C 0.47214 0.01393 0.5704 0.0
C1660 C 0.45789 0.00897 0.55476 0.0
C1661 C 0.47689 0.03413 0.57609 0.0
C1662 C 0.46736 0.04984 0.56643 0.0
C1663 C 0.45367 0.04498 0.55029 0.0
C1664 C 0.44911 0.02469 0.54438 0.0
C1665 C 0.47056 0.07105 0.57447 0.0
C1666 C 0.46684 0.07478 0.59546 0.0
C1667 C 0.47705 0.08743 0.5619 0.0
C1668 C 0.4823 0.08435 0.53982 0.0
C1669 C 0.47218 0.09527 0.5252 0.0
C1670 C 0.47704 0.09231 0.50438 0.0
C1671 C 0.49209 0.07852 0.49799 0.0
C1672 C 0.50236 0.06773 0.51243 0.0
C1673 C 0.49758 0.07065 0.53327 0.0
H1674 H 0.49582 0.07624 0.48186 0.0
H1675 H 0.45935 0.10374 0.68577 0.0
H1676 H 0.8773 0.48615 0.65469 0.0
H1677 H 0.89487 0.48893 0.62102 0.0
H1678 H 0.87452 0.54993 0.61709 0.0
H1679 H 0.85634 0.54704 0.6504 0.0
H1680 H 0.86828 0.52958 0.58187 0.0
H1681 H 0.92621 0.53967 0.62769 0.0
H1682 H 0.94903 0.53087 0.65562 0.0
H1683 H 0.96538 0.47647 0.62252 0.0
H1684 H 0.94242 0.48482 0.59451 0.0
H1685 H 0.93393 0.56893 0.50308 0.0
H1686 H 0.91764 0.56142 0.53629 0.0
H1687 H 0.93915 0.50056 0.53114 0.0
H1688 H 0.95585 0.50806 0.49759 0.0
H1689 H 0.94443 0.51751 0.56999 0.0
H1690 H 0.88824 0.50853 0.52314 0.0
H1691 H 0.86604 0.5178 0.49492 0.0
H1692 H 0.84652 0.57007 0.52977 0.0
H1693 H 0.86885 0.56129 0.5581 0.0
C1694 C 0.87645 0.50014 0.64665 0.0
C1695 C 0.86537 0.51638 0.65541 0.0
C1696 C 0.8867 0.50177 0.62742 0.0
C1697 C 0.88624 0.51972 0.61648 0.0
C1698 C 0.87519 0.53593 0.62517 0.0
C1699 C 0.86495 0.53432 0.64438 0.0
C1700 C 0.89693 0.52159 0.59586 0.0
C1701 C 0.88498 0.52714 0.57936 0.0
C1702 C 0.9186 0.51779 0.5923 0.0
C1703 C 0.93241 0.51276 0.60911 0.0
C1704 C 0.93454 0.52575 0.62645 0.0
C1705 C 0.94752 0.52086 0.64228 0.0
C1706 C 0.9586 0.50309 0.64087 0.0
C1707 C 0.95676 0.49021 0.62361 0.0
C1708 C 0.94377 0.49502 0.60774 0.0
C1709 C 0.93532 0.55391 0.50892 0.0
C1710 C 0.94616 0.53906 0.4975 0.0
C1711 C 0.92587 0.54962 0.52797 0.0
C1712 C 0.92684 0.53033 0.53616 0.0
C1713 C 0.93809 0.51554 0.52511 0.0
C1714 C 0.94759 0.51983 0.50591 0.0
C1715 C 0.91585 0.52583 0.55615 0.0
C1716 C 0.9277 0.51978 0.57249 0.0
C1717 C 0.89407 0.52913 0.55959 0.0
C1718 C 0.88036 0.53432 0.5427 0.0
C1719 C 0.87932 0.52207 0.52474 0.0
C1720 C 0.8667 0.52723 0.50873 0.0
C1721 C 0.85491 0.54453 0.51053 0.0
C1722 C 0.85567 0.55668 0.52839 0.0
C1723 C 0.86828 0.5516 0.54444 0.0
H1724 H 0.84516 0.5485 0.49811 0.0
H1725 H 0.96865 0.49933 0.65314 0.0
H1726 H 0.15752 0.01304 0.68097 0.0
H1727 H 0.13917 0.00736 0.64901 0.0
H1728 H 0.10845 0.9526 0.67215 0.0
H1729 H 0.12691 0.95822 0.70443 0.0
H1730 H 0.12329 0.94661 0.63351 0.0
H1731 H 0.0803 0.99467 0.66769 0.0
H1732 H 0.07234 0.02585 0.68751 0.0
H1733 H 0.09946 0.06207 0.63911 0.0
H1734 H 0.10788 0.03112 0.61911 0.0
H1735 H 0.06041 0.94537 0.54202 0.0
H1736 H 0.06988 0.94524 0.57806 0.0
H1737 H 0.11247 0.9974 0.56899 0.0
H1738 H 0.10382 0.99731 0.53317 0.0
H1739 H 0.08492 1.00144 0.60316 0.0
H1740 H 0.13209 0.95294 0.57169 0.0
H1741 H 0.13993 0.9217 0.5519 0.0
H1742 H 0.10367 0.8861 0.59557 0.0
H1743 H 0.09537 0.9172 0.61547 0.0
C1744 C 0.14657 0.99997 0.67947 0.0
C1745 C 0.1435 0.98622 0.69537 0.0
C1746 C 0.13612 0.9967 0.66113 0.0
C1747 C 0.12216 0.97972 0.65828 0.0
C1748 C 0.11909 0.96584 0.67405 0.0
C1749 C 0.12965 0.96907 0.69246 0.0
C1750 C 0.11137 0.97641 0.63853 0.0
C1751 C 0.11447 0.95841 0.62706 0.0
C1752 C 0.09999 0.99184 0.63003 0.0
C1753 C 0.09482 0.01055 0.64194 0.0
C1754 C 0.08469 0.00928 0.66132 0.0
C1755 C 0.08008 0.02692 0.67259 0.0
C1756 C 0.08542 0.04593 0.66459 0.0
C1757 C 0.09534 0.04734 0.64529 0.0
C1758 C 0.1 0.02975 0.63397 0.0
C1759 C 0.07195 0.95668 0.5476 0.0
C1760 C 0.08114 0.97148 0.53456 0.0
C1761 C 0.07726 0.95663 0.56824 0.0
C1762 C 0.09177 0.9714 0.57618 0.0
C1763 C 0.10105 0.98601 0.56321 0.0
C1764 C 0.09595 0.98597 0.54266 0.0
C1765 C 0.09746 0.97199 0.59798 0.0
C1766 C 0.09334 0.98948 0.60982 0.0
C1767 C 0.10778 0.95607 0.60681 0.0
C1768 C 0.11288 0.9374 0.59492 0.0
C1769 C 0.12563 0.93847 0.57697 0.0
C1770 C 0.13019 0.92079 0.56575 0.0
C1771 C 0.12224 0.90193 0.57244 0.0
C1772 C 0.10978 0.90072 0.59039 0.0
C1773 C 0.10514 0.91836 0.60165 0.0
H1774 H 0.12579 0.88826 0.56373 0.0
H1775 H 0.08184 0.05956 0.67334 0.0
H1776 H 0.82257 0.48165 0.8068 0.0
H1777 H 0.8351 0.47443 0.84066 0.0
H1778 H 0.89209 0.51138 0.8286 0.0
H1779 H 0.88063 0.51641 0.79386 0.0
H1780 H 0.90289 0.48299 0.84876 0.0
H1781 H 0.844 0.52669 0.86049 0.0
H1782 H 0.80697 0.53455 0.85488 0.0
H1783 H 0.7852 0.4796 0.88382 0.0
H1784 H 0.82213 0.47131 0.88946 0.0
H1785 H 0.93265 0.51324 0.94773 0.0
H1786 H 0.91541 0.51331 0.91508 0.0
H1787 H 0.8785 0.45907 0.93051 0.0
H1788 H 0.8964 0.45843 0.96338 0.0
H1789 H 0.85563 0.49214 0.90988 0.0
H1790 H 0.91595 0.45093 0.90076 0.0
H1791 H 0.95336 0.44326 0.90412 0.0
H1792 H 0.97274 0.49552 0.86953 0.0
H1793 H 0.93543 0.50368 0.86624 0.0
C1794 C 0.83782 0.48815 0.8114 0.0
C1795 C 0.85027 0.50023 0.79789 0.0
C1796 C 0.8449 0.48423 0.83093 0.0
C1797 C 0.86426 0.493 0.83783 0.0
C1798 C 0.87695 0.50461 0.82402 0.0
C1799 C 0.87022 0.50784 0.80421 0.0
C1800 C 0.87145 0.49013 0.85923 0.0
C1801 C 0.89251 0.48524 0.86203 0.0
C1802 C 0.85795 0.49242 0.87685 0.0
C1803 C 0.8358 0.4983 0.87522 0.0
C1804 C 0.8313 0.51635 0.86576 0.0
C1805 C 0.81036 0.52082 0.86249 0.0
C1806 C 0.79379 0.50746 0.86878 0.0
C1807 C 0.79809 0.48984 0.87882 0.0
C1808 C 0.81901 0.48528 0.88212 0.0
C1809 C 0.92099 0.50117 0.94431 0.0
C1810 C 0.91636 0.48555 0.9582 0.0
C1811 C 0.91097 0.50137 0.92559 0.0
C1812 C 0.8958 0.48611 0.92017 0.0
C1813 C 0.89018 0.47102 0.93434 0.0
C1814 C 0.90042 0.47069 0.95316 0.0
C1815 C 0.88709 0.48557 0.89916 0.0
C1816 C 0.86585 0.48983 0.8965 0.0
C1817 C 0.90045 0.48299 0.88163 0.0
C1818 C 0.9229 0.478 0.8834 0.0
C1819 C 0.92819 0.46087 0.89401 0.0
C1820 C 0.94938 0.45642 0.89588 0.0
C1821 C 0.96542 0.46892 0.88708 0.0
C1822 C 0.9603 0.48586 0.87635 0.0
C1823 C 0.93913 0.4904 0.87446 0.0
H1824 H 0.98182 0.46545 0.88855 0.0
H1825 H 0.77762 0.51081 0.86597 0.0
H1826 H 0.18912 0.99827 0.84808 0.0
H1827 H 0.17125 1.00263 0.88175 0.0
H1828 H 0.12 0.03045 0.85339 0.0
H1829 H 0.13727 0.02515 0.81962 0.0
H1830 H 0.14165 0.05209 0.89149 0.0
H1831 H 0.10724 0.98902 0.86601 0.0
H1832 H 0.10781 0.95395 0.85205 0.0
H1833 H 0.1398 0.93607 0.90499 0.0
H1834 H 0.13976 0.97115 0.9191 0.0
H1835 H 0.0689 0.06545 0.97211 0.0
H1836 H 0.08475 0.05617 0.93892 0.0
H1837 H 0.1146 0.00671 0.96609 0.0
H1838 H 0.09751 0.01542 0.99935 0.0
H1839 H 0.10619 0.99523 0.92921 0.0
H1840 H 0.14119 0.05485 0.95601 0.0
H1841 H 0.14488 0.08937 0.97136 0.0
H1842 H 0.11798 0.11348 0.91842 0.0
H1843 H 0.11382 0.07905 0.90287 0.0
C1844 C 0.17397 0.00519 0.84902 0.0
C1845 C 0.16475 0.01156 0.83114 0.0
C1846 C 0.16378 0.00771 0.86829 0.0
C1847 C 0.14428 0.01697 0.8702 0.0
C1848 C 0.13507 0.02338 0.85238 0.0
C1849 C 0.145 0.02041 0.83308 0.0
C1850 C 0.13356 0.02011 0.89073 0.0
C1851 C 0.13364 0.03972 0.89962 0.0
C1852 C 0.12393 1.00386 0.90184 0.0
C1853 C 0.12372 0.98275 0.89349 0.0
C1854 C 0.11459 0.97766 0.87457 0.0
C1855 C 0.11478 0.95777 0.86665 0.0
C1856 C 0.12389 0.9428 0.87759 0.0
C1857 C 0.13278 0.94768 0.89651 0.0
C1858 C 0.13267 0.96757 0.90448 0.0
C1859 C 0.07846 0.05229 0.97093 0.0
C1860 C 0.08186 0.04113 0.98837 0.0
C1861 C 0.08781 0.04713 0.95193 0.0
C1862 C 0.10162 0.03112 0.94986 0.0
C1863 C 0.10422 0.01925 0.96711 0.0
C1864 C 0.09436 0.02416 0.98615 0.0
C1865 C 0.11373 0.02744 0.92995 0.0
C1866 C 0.11411 0.0077 0.92118 0.0
C1867 C 0.12437 0.04353 0.91917 0.0
C1868 C 0.12702 0.06432 0.92835 0.0
C1869 C 0.13594 0.06749 0.94769 0.0
C1870 C 0.13812 0.08705 0.95643 0.0
C1871 C 0.13162 0.1036 0.94589 0.0
C1872 C 0.12298 0.10063 0.92657 0.0
C1873 C 0.12073 0.0811 0.91777 0.0
H1874 H 0.13332 0.11872 0.95269 0.0
H1875 H 0.12402 0.92741 0.87144 0.0
H1876 H 0.66797 0.89424 0.5381 0.0
H1877 H 0.63191 0.90644 0.5399 0.0
H1878 H 0.62587 0.89355 0.47531 0.0
H1879 H 0.66192 0.88123 0.47359 0.0
H1880 H 0.60668 0.92957 0.48771 0.0
H1881 H 0.6054 0.86044 0.50741 0.0
H1882 H 0.61633 0.83153 0.52681 0.0
H1883 H 0.59616 0.86091 0.58298 0.0
H1884 H 0.58545 0.89017 0.56394 0.0
H1885 H 0.49179 0.934 0.49568 0.0
H1886 H 0.5281 0.92397 0.4871 0.0
H1887 H 0.54202 0.92557 0.55124 0.0
H1888 H 0.50633 0.93493 0.55977 0.0
H1889 H 0.55671 0.89318 0.5353 0.0
H1890 H 0.56027 0.96344 0.51578 0.0
H1891 H 0.54982 0.99253 0.49636 0.0
H1892 H 0.56546 0.96109 0.43994 0.0
H1893 H 0.57576 0.9317 0.45904 0.0
C1894 C 0.65912 0.89453 0.52422 0.0
C1895 C 0.66785 0.88708 0.50566 0.0
C1896 C 0.63844 0.90134 0.52526 0.0
C1897 C 0.62596 0.9008 0.50776 0.0
C1898 C 0.63508 0.89422 0.48901 0.0
C1899 C 0.65571 0.88723 0.48802 0.0
C1900 C 0.60306 0.90573 0.5094 0.0
C1901 C 0.59569 0.92146 0.49794 0.0
C1902 C 0.58857 0.89526 0.52276 0.0
C1903 C 0.5948 0.87759 0.53425 0.0
C1904 C 0.60345 0.86081 0.52391 0.0
C1905 C 0.60958 0.84435 0.53484 0.0
C1906 C 0.60698 0.8444 0.55611 0.0
C1907 C 0.59819 0.8609 0.5665 0.0
C1908 C 0.59207 0.87743 0.55564 0.0
C1909 C 0.50265 0.93226 0.50789 0.0
C1910 C 0.49591 0.93521 0.52843 0.0
C1911 C 0.52349 0.92657 0.50299 0.0
C1912 C 0.53808 0.92397 0.51851 0.0
C1913 C 0.53128 0.92722 0.53889 0.0
C1914 C 0.51066 0.93267 0.54375 0.0
C1915 C 0.56032 0.91756 0.51414 0.0
C1916 C 0.5676 0.90134 0.52501 0.0
C1917 C 0.57466 0.92763 0.50028 0.0
C1918 C 0.56854 0.9453 0.48882 0.0
C1919 C 0.56133 0.96268 0.49923 0.0
C1920 C 0.55546 0.97923 0.48828 0.0
C1921 C 0.55691 0.97864 0.46693 0.0
C1922 C 0.5643 0.96151 0.45648 0.0
C1923 C 0.57016 0.94491 0.46736 0.0
H1924 H 0.55236 0.99147 0.45848 0.0
H1925 H 0.61174 0.83164 0.56454 0.0
H1926 H 0.68503 0.18279 0.98967 0.0
H1927 H 0.65102 0.16382 0.98558 0.0
H1928 H 0.68383 0.10914 0.9719 0.0
H1929 H 0.71794 0.12834 0.97569 0.0
H1930 H 0.65051 0.11201 0.94695 0.0
H1931 H 0.66174 0.11758 0.01886 0.0
H1932 H 0.6702 0.13574 0.05129 0.0
H1933 H 0.61546 0.17087 0.04664 0.0
H1934 H 0.60687 0.1532 0.01396 0.0
H1935 H 0.55173 0.05373 0.95522 0.0
H1936 H 0.58855 0.06552 0.96117 0.0
H1937 H 0.56756 0.12459 0.97975 0.0
H1938 H 0.53113 0.11291 0.97444 0.0
H1939 H 0.5971 0.115 1.00387 0.0
H1940 H 0.58852 0.11299 0.93043 0.0
H1941 H 0.58037 0.09631 0.89715 0.0
H1942 H 0.62992 0.05534 0.9044 0.0
H1943 H 0.63818 0.07164 0.93786 0.0
C1944 C 0.68489 0.16676 0.98563 0.0
C1945 C 0.70393 0.15695 0.98294 0.0
C1946 C 0.66551 0.1559 0.98339 0.0
C1947 C 0.66482 0.13495 0.97872 0.0
C1948 C 0.68394 0.12525 0.97554 0.0
C1949 C 0.70337 0.13616 0.97772 0.0
C1950 C 0.64409 0.12323 0.97763 0.0
C1951 C 0.63896 0.11236 0.95952 0.0
C1952 C 0.6289 0.12382 0.99395 0.0
C1953 C 0.63373 0.13413 0.01388 0.0
C1954 C 0.65155 0.12924 0.02469 0.0
C1955 C 0.65638 0.13946 0.04312 0.0
C1956 C 0.64339 0.15446 0.05101 0.0
C1957 C 0.62551 0.15925 0.04051 0.0
C1958 C 0.62064 0.14912 0.02204 0.0
C1959 C 0.55498 0.06914 0.96081 0.0
C1960 C 0.53842 0.08235 0.96426 0.0
C1961 C 0.57606 0.07593 0.96407 0.0
C1962 C 0.58094 0.09608 0.97067 0.0
C1963 C 0.56432 0.109 0.97469 0.0
C1964 C 0.54339 0.10225 0.97156 0.0
C1965 C 0.60322 0.10422 0.97295 0.0
C1966 C 0.60871 0.1144 0.99136 0.0
C1967 C 0.61867 0.10307 0.95687 0.0
C1968 C 0.6138 0.09337 0.93673 0.0
C1969 C 0.59757 0.10034 0.92498 0.0
C1970 C 0.59295 0.09097 0.90608 0.0
C1971 C 0.60458 0.07474 0.89869 0.0
C1972 C 0.6209 0.06789 0.91016 0.0
C1973 C 0.62556 0.07719 0.92908 0.0
H1974 H 0.60098 0.0675 0.88406 0.0
H1975 H 0.64716 0.16236 0.06528 0.0
H1976 H 0.34413 0.37314 0.99406 0.0
H1977 H 0.38173 0.38412 0.99319 0.0
H1978 H 0.3665 0.44098 0.0229 0.0
H1979 H 0.32875 0.4302 0.02302 0.0
H1980 H 0.39595 0.44773 0.9944 0.0
H1981 H 0.38762 0.40201 0.04937 0.0
H1982 H 0.37623 0.37013 0.06599 0.0
H1983 H 0.41692 0.33706 0.02489 0.0
H1984 H 0.42833 0.36871 0.00781 0.0
H1985 H 0.50602 0.47189 0.01294 0.0
H1986 H 0.46853 0.46304 0.02149 0.0
H1987 H 0.47185 0.40847 0.98387 0.0
H1988 H 0.50883 0.4174 0.97505 0.0
H1989 H 0.44844 0.40254 0.02072 0.0
H1990 H 0.45361 0.44806 0.964 0.0
H1991 H 0.46484 0.47998 0.94736 0.0
H1992 H 0.42991 0.5137 0.99293 0.0
H1993 H 0.41875 0.48196 0.01005 0.0
C1994 C 0.34888 0.388 1.00032 0.0
C1995 C 0.33367 0.40068 0.00895 0.0
C1996 C 0.37036 0.39423 0.99997 0.0
C1997 C 0.37714 0.41323 0.00845 0.0
C1998 C 0.36179 0.4262 0.01645 0.0
C1999 C 0.34026 0.42 0.01664 0.0
C2000 C 0.40018 0.41946 0.00894 0.0
C2001 C 0.40733 0.43799 1.00054 0.0
C2002 C 0.41524 0.40676 0.01675 0.0
C2003 C 0.40872 0.38773 0.02721 0.0
C2004 C 0.39407 0.38793 0.0438 0.0
C2005 C 0.38761 0.3699 0.05331 0.0
C2006 C 0.39582 0.35158 0.04648 0.0
C2007 C 0.41056 0.35126 0.03016 0.0
C2008 C 0.41705 0.36925 0.02057 0.0
C2009 C 0.49882 0.4578 0.00693 0.0
C2010 C 0.51032 0.44533 0.99335 0.0
C2011 C 0.4774 0.45281 0.01169 0.0
C2012 C 0.46732 0.43513 1.0032 0.0
C2013 C 0.47922 0.42215 0.99063 0.0
C2014 C 0.50037 0.42729 0.98558 0.0
C2015 C 0.4441 0.43063 0.006 0.0
C2016 C 0.43695 0.41239 0.01495 0.0
C2017 C 0.42905 0.44364 0.99881 0.0
C2018 C 0.43558 0.46268 0.98845 0.0
C2019 C 0.44848 0.4623 0.97058 0.0
C2020 C 0.45481 0.48035 0.96104 0.0
C2021 C 0.44815 0.49886 0.96913 0.0
C2022 C 0.43509 0.49935 0.98672 0.0
C2023 C 0.42877 0.48134 0.99634 0.0
H2024 H 0.45306 0.51282 0.96172 0.0
H2025 H 0.39078 0.33763 0.05384 0.0
H2026 H 0.86476 0.17553 0.9847 0.0
H2027 H 0.89855 0.16005 0.98846 0.0
H2028 H 0.86834 0.1159 0.0284 0.0
H2029 H 0.83449 0.13175 0.02507 0.0
H2030 H 0.90467 0.12686 0.04315 0.0
H2031 H 0.8835 0.105 0.97621 0.0
H2032 H 0.8715 0.10872 0.94111 0.0
H2033 H 0.92772 0.14524 0.92671 0.0
H2034 H 0.93994 0.14196 0.96183 0.0
H2035 H 0.98965 0.05984 0.03744 0.0
H2036 H 0.95522 0.07378 0.03209 0.0
H2037 H 0.98608 0.12498 1.00228 0.0
H2038 H 0.02066 0.11125 0.00777 0.0
H2039 H 0.94941 0.10943 0.98222 0.0
H2040 H 0.9701 0.13064 0.05003 0.0
H2041 H 0.98212 0.125 0.08478 0.0
H2042 H 0.92608 0.08749 0.09715 0.0
H2043 H 0.9139 0.09261 0.06232 0.0
C2044 C 0.86522 0.16242 0.99416 0.0
C2045 C 0.84674 0.15482 1.00441 0.0
C2046 C 0.88464 0.1535 0.99628 0.0
C2047 C 0.88615 0.13643 0.0084 0.0
C2048 C 0.86776 0.12898 0.0189 0.0
C2049 C 0.84835 0.13808 0.01699 0.0
C2050 C 0.90688 0.12655 0.01022 0.0
C2051 C 0.91422 0.1228 0.02976 0.0
C2052 C 0.91979 0.12144 0.99287 0.0
C2053 C 0.91254 0.12339 0.97171 0.0
C2054 C 0.89324 0.11394 0.9656 0.0
C2055 C 0.8864 0.11595 0.94569 0.0
C2056 C 0.89881 0.12725 0.9317 0.0
C2057 C 0.91811 0.13652 0.93757 0.0
C2058 C 0.92501 0.13457 0.95747 0.0
C2059 C 0.98916 0.07394 0.0295 0.0
C2060 C 0.00802 0.0844 0.02305 0.0
C2061 C 0.96941 0.08196 0.02655 0.0
C2062 C 0.96798 0.10056 0.01695 0.0
C2063 C 0.98672 0.11063 0.00976 0.0
C2064 C 0.00651 0.10275 0.01292 0.0
C2065 C 0.94705 0.10983 0.01507 0.0
C2066 C 0.93974 0.11347 0.99555 0.0
C2067 C 0.93408 0.11463 0.0324 0.0
C2068 C 0.94118 0.11184 0.05348 0.0
C2069 C 0.96041 0.12107 0.0601 0.0
C2070 C 0.96725 0.11798 0.07982 0.0
C2071 C 0.9549 0.10585 0.09315 0.0
C2072 C 0.93564 0.09685 0.0868 0.0
C2073 C 0.92876 0.09985 0.06707 0.0
H2074 H 0.96023 0.10347 0.1084 0.0
H2075 H 0.89349 0.1288 0.91629 0.0
H2076 H 0.03805 0.16991 0.25697 0.0
H2077 H 0.04269 0.14972 0.22535 0.0
H2078 H 1.00388 0.19001 0.19406 0.0
H2079 H 1.00057 0.21103 0.22549 0.0
H2080 H 0.0201 0.12779 0.20214 0.0
H2081 H 0.01658 0.19166 0.14391 0.0
H2082 H 0.02474 0.2285 0.14193 0.0
H2083 H 0.07052 0.22544 0.18865 0.0
H2084 H 0.06283 0.18857 0.19072 0.0
H2085 H 0.01986 0.08007 0.10243 0.0
H2086 H 0.01106 0.0999 0.13362 0.0
H2087 H 0.06914 0.13636 0.12577 0.0
H2088 H 0.07724 0.11743 0.09421 0.0
H2089 H 0.04185 0.16021 0.13701 0.0
H2090 H 0.06024 0.09642 0.16263 0.0
H2091 H 0.05803 0.05929 0.16605 0.0
H2092 H 0.99323 0.06164 0.18695 0.0
H2093 H 0.99499 0.09877 0.18342 0.0
C2094 C 0.03088 0.17465 0.24321 0.0
C2095 C 0.01957 0.19242 0.24347 0.0
C2096 C 0.03329 0.16295 0.22516 0.0
C2097 C 0.02402 0.16843 0.207 0.0
C2098 C 0.0118 0.18569 0.20757 0.0
C2099 C 0.00978 0.19767 0.22555 0.0
C2100 C 0.02749 0.15621 0.18759 0.0
C2101 C 0.02482 0.13494 0.18791 0.0
C2102 C 0.034 0.16529 0.16893 0.0
C2103 C 0.03894 0.18741 0.16762 0.0
C2104 C 0.02843 0.19885 0.1537 0.0
C2105 C 0.03297 0.21973 0.15257 0.0
C2106 C 0.04808 0.22931 0.16521 0.0
C2107 C 0.05876 0.21801 0.17893 0.0
C2108 C 0.05431 0.19713 0.18009 0.0
C2109 C 0.03074 0.09228 0.10747 0.0
C2110 C 0.04926 0.09715 0.09588 0.0
C2111 C 0.02576 0.10359 0.12536 0.0
C2112 C 0.03952 0.11962 0.13238 0.0
C2113 C 0.0581 0.12426 0.12079 0.0
C2114 C 0.0628 0.11332 0.10273 0.0
C2115 C 0.03477 0.13175 0.1516 0.0
C2116 C 0.03706 0.15304 0.15121 0.0
C2117 C 0.02879 0.12263 0.17038 0.0
C2118 C 0.02768 0.10033 0.17255 0.0
C2119 C 0.04548 0.08899 0.16782 0.0
C2120 C 0.04431 0.06795 0.1698 0.0
C2121 C 0.02548 0.0581 0.17665 0.0
C2122 C 0.00779 0.06928 0.1816 0.0
C2123 C 0.00887 0.09033 0.17963 0.0
H2124 H 0.02461 0.04181 0.17817 0.0
H2125 H 0.05154 0.24548 0.16433 0.0
H2126 H 0.97586 0.3131 0.26396 0.0
H2127 H 0.9701 0.3364 0.23665 0.0
H2128 H 0.02295 0.31294 0.20192 0.0
H2129 H 0.02889 0.28963 0.22933 0.0
H2130 H 0.02263 0.35354 0.19954 0.0
H2131 H 0.97319 0.29766 0.18972 0.0
H2132 H 0.94528 0.27211 0.19952 0.0
H2133 H 0.90293 0.31932 0.21494 0.0
H2134 H 0.9307 0.34519 0.20553 0.0
H2135 H 0.98935 0.40331 0.11047 0.0
H2136 H 0.99874 0.37606 0.1327 0.0
H2137 H 0.95183 0.39484 0.17758 0.0
H2138 H 0.94231 0.42179 0.15546 0.0
H2139 H 0.95094 0.3533 0.1709 0.0
H2140 H 1.00252 0.40893 0.18365 0.0
H2141 H 0.03076 0.43401 0.17345 0.0
H2142 H 0.06934 0.38601 0.15116 0.0
H2143 H 0.04118 0.36065 0.161 0.0
C2144 C 0.98626 0.31293 0.25051 0.0
C2145 C 1.00271 0.29945 0.24868 0.0
C2146 C 0.98295 0.32621 0.23492 0.0
C2147 C 0.99584 0.3261 0.21708 0.0
C2148 C 0.01278 0.3132 0.21552 0.0
C2149 C 0.01618 0.29996 0.2312 0.0
C2150 C 0.99126 0.33924 0.19998 0.0
C2151 C 0.00707 0.35324 0.19301 0.0
C2152 C 0.97093 0.33889 0.19152 0.0
C2153 C 0.9541 0.32337 0.19706 0.0
C2154 C 0.95798 0.30261 0.19534 0.0
C2155 C 0.94217 0.28806 0.20081 0.0
C2156 C 0.92235 0.29409 0.20789 0.0
C2157 C 0.91829 0.31467 0.20946 0.0
C2158 C 0.93405 0.32928 0.20404 0.0
C2159 C 0.98094 0.40144 0.12499 0.0
C2160 C 0.96523 0.41474 0.13133 0.0
C2161 C 0.98639 0.386 0.1377 0.0
C2162 C 0.97607 0.38358 0.15683 0.0
C2163 C 0.96 0.3965 0.1629 0.0
C2164 C 0.95471 0.41198 0.15033 0.0
C2165 C 0.98211 0.36792 0.17091 0.0
C2166 C 0.96657 0.35339 0.17726 0.0
C2167 C 1.00271 0.36769 0.17865 0.0
C2168 C 0.01965 0.38292 0.17283 0.0
C2169 C 0.01695 0.40374 0.17642 0.0
C2170 C 0.03296 0.418 0.17073 0.0
C2171 C 0.05181 0.41161 0.1616 0.0
C2172 C 0.05472 0.39094 0.1582 0.0
C2173 C 0.03874 0.37662 0.16383 0.0
H2174 H 0.06418 0.42268 0.15721 0.0
H2175 H 0.91014 0.2828 0.21211 0.0
H2176 H 0.03863 0.77316 0.25938 0.0
H2177 H 0.04296 0.80408 0.28086 0.0
H2178 H 0.05612 0.83914 0.22693 0.0
H2179 H 0.05147 0.80807 0.20544 0.0
H2180 H 0.0742 0.83284 0.28726 0.0
H2181 H 0.03101 0.88425 0.23571 0.0
H2182 H 0.00657 0.88147 0.20694 0.0
H2183 H 0.98013 0.82485 0.22907 0.0
H2184 H 1.00416 0.82747 0.2581 0.0
H2185 H 0.06209 0.91654 0.35328 0.0
H2186 H 0.06987 0.90259 0.31894 0.0
H2187 H 0.00644 0.87555 0.31676 0.0
H2188 H 0.99841 0.89009 0.35057 0.0
H2189 H 0.02062 0.88403 0.27907 0.0
H2190 H 0.04647 0.85102 0.33906 0.0
H2191 H 0.06781 0.85074 0.36998 0.0
H2192 H 0.1241 0.8657 0.33417 0.0
H2193 H 0.103 0.8663 0.30308 0.0
C2194 C 0.04274 0.78748 0.25226 0.0
C2195 C 0.04464 0.78853 0.23097 0.0
C2196 C 0.04532 0.80505 0.26444 0.0
C2197 C 0.04977 0.82388 0.25545 0.0
C2198 C 0.05258 0.82477 0.23413 0.0
C2199 C 0.04995 0.80714 0.22192 0.0
C2200 C 0.0495 0.84255 0.26849 0.0
C2201 C 0.06281 0.84429 0.28524 0.0
C2202 C 0.03455 0.8574 0.26589 0.0
C2203 C 0.01955 0.85596 0.24889 0.0
C2204 C 0.0199 0.87127 0.23446 0.0
C2205 C 0.00613 0.86972 0.21812 0.0
C2206 C 0.99186 0.85296 0.21614 0.0
C2207 C 0.99123 0.83779 0.23058 0.0
C2208 C 1.00491 0.83931 0.24698 0.0
C2209 C 0.04957 0.90832 0.34513 0.0
C2210 C 0.02979 0.90392 0.35477 0.0
C2211 C 0.05407 0.90028 0.32555 0.0
C2212 C 0.0389 0.88762 0.31553 0.0
C2213 C 0.01845 0.88516 0.32424 0.0
C2214 C 0.01394 0.89326 0.34367 0.0
C2215 C 0.04493 0.874 0.29816 0.0
C2216 C 0.03269 0.87314 0.2806 0.0
C2217 C 0.06048 0.85959 0.30027 0.0
C2218 C 0.07317 0.85893 0.31885 0.0
C2219 C 0.06339 0.85432 0.33783 0.0
C2220 C 0.07543 0.85411 0.35537 0.0
C2221 C 0.09729 0.85825 0.35405 0.0
C2222 C 0.10716 0.86254 0.33517 0.0
C2223 C 0.09518 0.86283 0.31759 0.0
H2224 H 0.10658 0.85809 0.36764 0.0
H2225 H 0.98127 0.85176 0.20344 0.0
H2226 H 0.00842 0.68399 0.2674 0.0
H2227 H 0.00604 0.65917 0.29441 0.0
H2228 H 0.032 0.61436 0.25287 0.0
H2229 H 0.03461 0.63934 0.22564 0.0
H2230 H 0.99438 0.60051 0.27843 0.0
H2231 H 0.06382 0.63198 0.28469 0.0
H2232 H 0.09007 0.66082 0.28658 0.0
H2233 H 0.05874 0.68381 0.34092 0.0
H2234 H 0.0321 0.65527 0.33918 0.0
H2235 H 0.99792 0.54057 0.37006 0.0
H2236 H 0.00897 0.5555 0.33704 0.0
H2237 H 0.99871 0.61521 0.36281 0.0
H2238 H 0.98813 0.60076 0.39521 0.0
H2239 H 0.03459 0.61587 0.34139 0.0
H2240 H 0.96243 0.58917 0.33216 0.0
H2241 H 0.93428 0.56198 0.33053 0.0
H2242 H 0.96899 0.53133 0.28254 0.0
H2243 H 0.99749 0.55824 0.28408 0.0
C2244 C 0.0135 0.66882 0.26393 0.0
C2245 C 0.02169 0.66365 0.24436 0.0
C2246 C 0.0122 0.65466 0.27941 0.0
C2247 C 0.01887 0.63491 0.27568 0.0
C2248 C 0.02674 0.62951 0.25607 0.0
C2249 C 0.02835 0.64382 0.2406 0.0
C2250 C 0.01804 0.62036 0.29265 0.0
C2251 C 1.00352 0.60355 0.29204 0.0
C2252 C 0.02977 0.62445 0.31048 0.0
C2253 C 0.04589 0.64154 0.31172 0.0
C2254 C 0.06244 0.64326 0.29696 0.0
C2255 C 0.0774 0.65954 0.29802 0.0
C2256 C 0.07605 0.67415 0.31384 0.0
C2257 C 0.05976 0.67248 0.32867 0.0
C2258 C 0.04474 0.65624 0.32767 0.0
C2259 C 0.99822 0.55686 0.36864 0.0
C2260 C 0.99203 0.56939 0.38532 0.0
C2261 C 1.00443 0.56539 0.34975 0.0
C2262 C 1.00462 0.58654 0.34737 0.0
C2263 C 0.99883 0.59891 0.36417 0.0
C2264 C 0.99263 0.59051 0.38278 0.0
C2265 C 0.01035 0.59637 0.32757 0.0
C2266 C 0.02583 0.61241 0.32762 0.0
C2267 C 0.99931 0.59168 0.30937 0.0
C2268 C 0.98221 0.57554 0.30843 0.0
C2269 C 0.96414 0.57654 0.32139 0.0
C2270 C 0.94811 0.5612 0.32046 0.0
C2271 C 0.94988 0.5449 0.30649 0.0
C2272 C 0.96767 0.54394 0.29339 0.0
C2273 C 0.98376 0.55922 0.29428 0.0
H2274 H 0.93745 0.53305 0.30579 0.0
H2275 H 0.08765 0.68675 0.31463 0.0
H2276 H 0.26728 0.04233 0.16645 0.0
H2277 H 0.24073 0.04741 0.1408 0.0
H2278 H 0.1937 0.01444 0.17746 0.0
H2279 H 0.22029 0.00966 0.20337 0.0
H2280 H 0.1928 1.00367 0.13503 0.0
H2281 H 0.1939 0.0641 0.1783 0.0
H2282 H 0.21135 0.09377 0.19573 0.0
H2283 H 0.23257 0.11712 0.13773 0.0
H2284 H 0.21557 0.08737 0.11997 0.0
H2285 H 0.09966 0.03036 0.0889 0.0
H2286 H 0.12809 0.02413 0.11159 0.0
H2287 H 0.16857 0.06881 0.08082 0.0
H2288 H 0.13947 0.07591 0.05853 0.0
H2289 H 0.17446 0.07346 0.11915 0.0
H2290 H 0.17385 0.0145 0.07525 0.0
H2291 H 0.15841 0.98449 0.05673 0.0
H2292 H 0.13862 0.95801 0.1137 0.0
H2293 H 0.1537 0.98799 0.13257 0.0
C2294 C 0.25123 0.03627 0.16905 0.0
C2295 C 0.24569 0.02595 0.18706 0.0
C2296 C 0.23609 0.03914 0.15439 0.0
C2297 C 0.21511 0.03152 0.15726 0.0
C2298 C 0.20974 0.02053 0.17492 0.0
C2299 C 0.22488 0.01785 0.18973 0.0
C2300 C 0.19876 0.03541 0.14205 0.0
C2301 C 0.18858 0.01891 0.13172 0.0
C2302 C 0.19375 0.05532 0.13717 0.0
C2303 C 0.20363 0.0734 0.14781 0.0
C2304 C 0.20242 0.07548 0.16927 0.0
C2305 C 0.21222 0.09232 0.17921 0.0
C2306 C 0.22311 0.1073 0.16785 0.0
C2307 C 0.22416 0.10549 0.14651 0.0
C2308 C 0.21444 0.08865 0.1365 0.0
C2309 C 0.11466 0.03877 0.08672 0.0
C2310 C 0.11726 0.05354 0.07166 0.0
C2311 C 0.13106 0.03508 0.09973 0.0
C2312 C 0.15084 0.04561 0.0978 0.0
C2313 C 0.15356 0.06034 0.08268 0.0
C2314 C 0.13694 0.06433 0.06982 0.0
C2315 C 0.16824 0.04167 0.11205 0.0
C2316 C 0.17866 0.05818 0.12227 0.0
C2317 C 0.1737 0.02173 0.11661 0.0
C2318 C 0.16477 1.00358 0.10532 0.0
C2319 C 0.1661 1.00233 0.08383 0.0
C2320 C 0.15742 0.98532 0.07326 0.0
C2321 C 0.1475 0.96937 0.08403 0.0
C2322 C 0.14629 0.97038 0.10538 0.0
C2323 C 0.15493 0.98737 0.11602 0.0
H2324 H 0.14077 0.95622 0.07582 0.0
H2325 H 0.23069 0.12032 0.17557 0.0
H2326 H 0.7471 0.46261 0.18735 0.0
H2327 H 0.77109 0.46153 0.15734 0.0
H2328 H 0.80958 0.51095 0.18344 0.0
H2329 H 0.78536 0.51236 0.21322 0.0
H2330 H 0.80718 0.51703 0.14503 0.0
H2331 H 0.82295 0.45865 0.18264 0.0
H2332 H 0.8153 0.42634 0.19992 0.0
H2333 H 0.79326 0.39861 0.14377 0.0
H2334 H 0.80051 0.43086 0.12621 0.0
H2335 H 0.9055 0.50258 0.09227 0.0
H2336 H 0.87505 0.5064 0.11566 0.0
H2337 H 0.83924 0.46123 0.08029 0.0
H2338 H 0.87 0.45745 0.05672 0.0
H2339 H 0.83764 0.45268 0.12057 0.0
H2340 H 0.8257 0.51138 0.08251 0.0
H2341 H 0.83528 0.54374 0.066 0.0
H2342 H 0.85223 0.57097 0.12402 0.0
H2343 H 0.84302 0.53869 0.14087 0.0
C2344 C 0.76074 0.47319 0.18677 0.0
C2345 C 0.76425 0.48753 0.20285 0.0
C2346 C 0.77454 0.47254 0.16954 0.0
C2347 C 0.79252 0.48595 0.16804 0.0
C2348 C 0.7959 0.50041 0.18402 0.0
C2349 C 0.78198 0.50122 0.20112 0.0
C2350 C 0.80782 0.48498 0.14998 0.0
C2351 C 0.81395 0.50294 0.13987 0.0
C2352 C 0.81644 0.46661 0.14265 0.0
C2353 C 0.81203 0.44723 0.15318 0.0
C2354 C 0.8163 0.44571 0.17402 0.0
C2355 C 0.81207 0.4274 0.18386 0.0
C2356 C 0.80373 0.41045 0.17296 0.0
C2357 C 0.79967 0.41177 0.1522 0.0
C2358 C 0.80384 0.43005 0.14229 0.0
C2359 C 0.89083 0.49409 0.08898 0.0
C2360 C 0.88994 0.48018 0.07229 0.0
C2361 C 0.87341 0.49618 0.10247 0.0
C2362 C 0.85462 0.48423 0.0998 0.0
C2363 C 0.85344 0.47075 0.08269 0.0
C2364 C 0.87091 0.4688 0.06901 0.0
C2365 C 0.83713 0.48473 0.11583 0.0
C2366 C 0.83065 0.4667 0.1256 0.0
C2367 C 0.82838 0.50307 0.12299 0.0
C2368 C 0.8338 0.52256 0.11293 0.0
C2369 C 0.83161 0.52423 0.09174 0.0
C2370 C 0.83695 0.54257 0.08232 0.0
C2371 C 0.8444 0.55939 0.09395 0.0
C2372 C 0.84647 0.55792 0.11503 0.0
C2373 C 0.84116 0.53962 0.12453 0.0
H2374 H 0.84853 0.57357 0.08662 0.0
H2375 H 0.80048 0.39629 0.1806 0.0
H2376 H 0.25691 0.98176 0.31847 0.0
H2377 H 0.22984 0.97352 0.3448 0.0
H2378 H 0.18975 0.0174 0.32072 0.0
H2379 H 0.21716 0.02616 0.29479 0.0
H2380 H 0.18496 0.01822 0.36029 0.0
H2381 H 0.18395 0.96539 0.30838 0.0
H2382 H 0.1989 0.93884 0.28578 0.0
H2383 H 0.21564 0.90623 0.33815 0.0
H2384 H 0.20104 0.93275 0.36107 0.0
H2385 H 0.091 0.94182 0.38538 0.0
H2386 H 0.12162 0.95301 0.36468 0.0
H2387 H 0.14905 0.98352 0.41753 0.0
H2388 H 0.11789 0.97267 0.43847 0.0
H2389 H 0.1611 0.94576 0.36483 0.0
H2390 H 0.17949 0.02537 0.40134 0.0
H2391 H 0.16086 0.05251 0.42001 0.0
H2392 H 0.10273 0.03234 0.39201 0.0
H2393 H 0.12107 0.00527 0.37298 0.0
C2394 C 0.24236 0.98973 0.3189 0.0
C2395 C 0.23904 1.00445 0.30445 0.0
C2396 C 0.22687 0.98499 0.33394 0.0
C2397 C 0.2075 0.99451 0.33455 0.0
C2398 C 0.20451 0.0098 0.3206 0.0
C2399 C 0.22016 0.01478 0.30575 0.0
C2400 C 0.18997 0.98781 0.34896 0.0
C2401 C 0.17983 1.00236 0.36136 0.0
C2402 C 0.1829 0.96717 0.35016 0.0
C2403 C 0.19161 0.95116 0.33643 0.0
C2404 C 0.19095 0.95263 0.31507 0.0
C2405 C 0.19934 0.93758 0.30221 0.0
C2406 C 0.20827 0.92089 0.31053 0.0
C2407 C 0.20876 0.91919 0.33173 0.0
C2408 C 0.20042 0.93421 0.34467 0.0
C2409 C 0.10351 0.95088 0.39272 0.0
C2410 C 0.10192 0.95638 0.41364 0.0
C2411 C 0.12111 0.95723 0.38081 0.0
C2412 C 0.13766 0.96924 0.38943 0.0
C2413 C 0.13637 0.9745 0.41042 0.0
C2414 C 0.1186 0.9682 0.42242 0.0
C2415 C 0.15605 0.97614 0.37618 0.0
C2416 C 0.16639 0.96161 0.36398 0.0
C2417 C 0.16277 0.99685 0.37468 0.0
C2418 C 0.15162 0.01315 0.38595 0.0
C2419 C 0.16275 0.02676 0.39915 0.0
C2420 C 0.15224 0.04213 0.40978 0.0
C2421 C 0.13061 0.0441 0.40725 0.0
C2422 C 0.11946 0.03075 0.39402 0.0
C2423 C 0.1299 0.01537 0.38333 0.0
H2424 H 0.1225 0.05601 0.4155 0.0
H2425 H 0.21476 0.90925 0.30054 0.0
H2426 H 0.79233 0.50856 0.2942 0.0
H2427 H 0.8228 0.51426 0.31632 0.0
H2428 H 0.78584 0.48916 0.36689 0.0
H2429 H 0.75517 0.4846 0.34505 0.0
H2430 H 0.80627 0.52048 0.38014 0.0
H2431 H 0.82573 0.46267 0.34019 0.0
H2432 H 0.83225 0.44198 0.30885 0.0
H2433 H 0.88087 0.48542 0.28925 0.0
H2434 H 0.87442 0.50653 0.32035 0.0
H2435 H 0.92177 0.50194 0.414 0.0
H2436 H 0.88987 0.49131 0.3956 0.0
H2437 H 0.87159 0.55335 0.396 0.0
H2438 H 0.9031 0.56401 0.41489 0.0
H2439 H 0.87818 0.49974 0.35941 0.0
H2440 H 0.8187 0.55559 0.39662 0.0
H2441 H 0.81168 0.57211 0.4303 0.0
H2442 H 0.84175 0.52459 0.45981 0.0
H2443 H 0.84864 0.50761 0.42636 0.0
C2444 C 0.79092 0.5041 0.30998 0.0
C2445 C 0.77171 0.49572 0.31788 0.0
C2446 C 0.80828 0.50727 0.3226 0.0
C2447 C 0.80676 0.50181 0.34323 0.0
C2448 C 0.78747 0.49343 0.35105 0.0
C2449 C 0.77005 0.4906 0.33854 0.0
C2450 C 0.82505 0.5054 0.35682 0.0
C2451 C 0.82197 0.51588 0.37561 0.0
C2452 C 0.84547 0.49895 0.35123 0.0
C2453 C 0.84946 0.48627 0.33253 0.0
C2454 C 0.83771 0.46789 0.32913 0.0
C2455 C 0.84141 0.45607 0.31142 0.0
C2456 C 0.85693 0.4624 0.29705 0.0
C2457 C 0.86883 0.48054 0.30039 0.0
C2458 C 0.86517 0.49243 0.31807 0.0
C2459 C 0.91083 0.51329 0.41036 0.0
C2460 C 0.91493 0.53381 0.41594 0.0
C2461 C 0.89266 0.5072 0.39977 0.0
C2462 C 0.87826 0.52149 0.39453 0.0
C2463 C 0.88226 0.54198 0.4002 0.0
C2464 C 0.90033 0.54806 0.41095 0.0
C2465 C 0.85944 0.51515 0.38248 0.0
C2466 C 0.86244 0.50421 0.36397 0.0
C2467 C 0.83882 0.52051 0.38869 0.0
C2468 C 0.83436 0.53043 0.40893 0.0
C2469 C 0.82371 0.54861 0.4103 0.0
C2470 C 0.81977 0.55806 0.42936 0.0
C2471 C 0.82633 0.54943 0.44718 0.0
C2472 C 0.83675 0.53129 0.44599 0.0
C2473 C 0.84069 0.52176 0.42699 0.0
H2474 H 0.82329 0.55679 0.46191 0.0
H2475 H 0.85977 0.45323 0.28334 0.0
H2476 H 0.19345 0.30733 0.99859 0.0
H2477 H 0.17233 0.2755 1.00286 0.0
H2478 H 0.22666 0.24782 0.02614 0.0
H2479 H 0.24792 0.27955 0.02124 0.0
H2480 H 0.20437 0.22151 1.00171 0.0
H2481 H 0.18933 0.26639 0.05847 0.0
H2482 H 0.17951 0.29882 0.07484 0.0
H2483 H 0.11893 0.29299 0.0469 0.0
H2484 H 0.12855 0.26069 0.03003 0.0
H2485 H 0.14011 0.13871 0.04106 0.0
H2486 H 0.16427 0.16912 0.04215 0.0
H2487 H 0.11765 0.20294 0.01308 0.0
H2488 H 0.0937 0.17274 0.01198 0.0
H2489 H 0.1382 0.22522 0.04404 0.0
H2490 H 0.15476 0.1828 0.98461 0.0
H2491 H 0.16454 0.15083 0.96722 0.0
H2492 H 0.22223 0.15234 1.00019 0.0
H2493 H 0.2126 0.18417 0.01804 0.0
C2494 C 0.2009 0.29427 1.00419 0.0
C2495 C 0.22221 0.29566 0.0095 0.0
C2496 C 0.18885 0.2762 0.00681 0.0
C2497 C 0.19785 0.25942 0.01518 0.0
C2498 C 0.21941 0.26059 0.01972 0.0
C2499 C 0.2315 0.27863 0.01694 0.0
C2500 C 0.1845 0.24098 0.01996 0.0
C2501 C 0.19011 0.22226 0.01126 0.0
C2502 C 0.16579 0.24201 0.0323 0.0
C2503 C 0.15972 0.26116 0.04288 0.0
C2504 C 0.17395 0.27206 0.05574 0.0
C2505 C 0.16842 0.29043 0.0651 0.0
C2506 C 0.14862 0.29797 0.06188 0.0
C2507 C 0.13427 0.28713 0.04936 0.0
C2508 C 0.13975 0.26878 0.03991 0.0
C2509 C 0.13497 0.15278 0.03532 0.0
C2510 C 0.11521 0.15343 0.02625 0.0
C2511 C 0.14874 0.17005 0.03584 0.0
C2512 C 0.14277 0.18819 0.02751 0.0
C2513 C 0.12256 0.1891 0.01956 0.0
C2514 C 0.10897 0.17184 0.01881 0.0
C2515 C 0.15793 0.20587 0.02555 0.0
C2516 C 0.15265 0.22446 0.03477 0.0
C2517 C 0.17694 0.20472 0.01372 0.0
C2518 C 0.18284 0.18572 1.00285 0.0
C2519 C 0.16945 0.17622 0.98828 0.0
C2520 C 0.17497 0.15814 0.97832 0.0
C2521 C 0.19396 0.14952 0.98265 0.0
C2522 C 0.2075 0.15901 0.99689 0.0
C2523 C 0.20202 0.17707 0.00694 0.0
H2524 H 0.19822 0.13553 0.97492 0.0
H2525 H 0.14438 0.31221 0.06912 0.0
H2526 H 0.16315 0.75142 0.51438 0.0
H2527 H 0.13924 0.77852 0.50877 0.0
H2528 H 0.18214 0.80246 0.46205 0.0
H2529 H 0.20644 0.77587 0.46805 0.0
H2530 H 0.16806 0.83268 0.48486 0.0
H2531 H 0.13584 0.77445 0.45035 0.0
H2532 H 0.12095 0.7393 0.44717 0.0
H2533 H 0.07347 0.75228 0.4933 0.0
H2534 H 0.08827 0.78745 0.49695 0.0
H2535 H 0.06918 0.87306 0.43418 0.0
H2536 H 0.09131 0.84495 0.44134 0.0
H2537 H 0.10848 0.87428 0.49867 0.0
H2538 H 0.08673 0.9026 0.49144 0.0
H2539 H 0.09255 0.81727 0.46967 0.0
H2540 H 0.15905 0.86558 0.50898 0.0
H2541 H 0.1745 0.90065 0.50902 0.0
H2542 H 0.15481 0.90708 0.44746 0.0
H2543 H 0.13946 0.872 0.44698 0.0
C2544 C 0.16764 0.76253 0.50302 0.0
C2545 C 0.1868 0.76127 0.49163 0.0
C2546 C 0.15379 0.77797 0.49968 0.0
C2547 C 0.15866 0.79253 0.48479 0.0
C2548 C 0.17789 0.79145 0.47359 0.0
C2549 C 0.19172 0.77604 0.47691 0.0
C2550 C 0.14384 0.8089 0.48086 0.0
C2551 C 0.15154 0.82925 0.48162 0.0
C2552 C 0.12228 0.80462 0.47629 0.0
C2553 C 0.11329 0.78352 0.47406 0.0
C2554 C 0.12232 0.76976 0.45992 0.0
C2555 C 0.11388 0.74984 0.45802 0.0
C2556 C 0.09631 0.74354 0.47007 0.0
C2557 C 0.0871 0.75717 0.484 0.0
C2558 C 0.0955 0.77711 0.48598 0.0
C2559 C 0.07751 0.87348 0.44841 0.0
C2560 C 0.07621 0.89024 0.46216 0.0
C2561 C 0.09017 0.85733 0.45251 0.0
C2562 C 0.10193 0.85752 0.47042 0.0
C2563 C 0.09996 0.87386 0.48455 0.0
C2564 C 0.08738 0.89004 0.48043 0.0
C2565 C 0.11672 0.84103 0.47395 0.0
C2566 C 0.10903 0.82068 0.47308 0.0
C2567 C 0.13839 0.84527 0.47806 0.0
C2568 C 0.14795 0.86624 0.47803 0.0
C2569 C 0.15811 0.87446 0.49543 0.0
C2570 C 0.16683 0.89434 0.49553 0.0
C2571 C 0.16559 0.9061 0.47827 0.0
C2572 C 0.1557 0.89798 0.46084 0.0
C2573 C 0.14697 0.87811 0.46065 0.0
H2574 H 0.17232 0.9215 0.47839 0.0
H2575 H 0.0898 0.72812 0.46857 0.0
H2576 H 0.8345 0.78208 0.4672 0.0
H2577 H 0.85461 0.75178 0.46142 0.0
H2578 H 0.82366 0.72475 0.51421 0.0
H2579 H 0.80318 0.755 0.51998 0.0
H2580 H 0.86576 0.71726 0.51226 0.0
H2581 H 0.80803 0.71011 0.46719 0.0
H2582 H 0.78403 0.7205 0.44092 0.0
H2583 H 0.83619 0.7261 0.39765 0.0
H2584 H 0.86058 0.71604 0.42377 0.0
H2585 H 0.90677 0.62042 0.48223 0.0
H2586 H 0.88123 0.64631 0.49163 0.0
H2587 H 0.90524 0.68239 0.44143 0.0
H2588 H 0.93032 0.65668 0.43199 0.0
H2589 H 0.86285 0.68239 0.44408 0.0
H2590 H 0.9208 0.69266 0.49051 0.0
H2591 H 0.94469 0.68241 0.51696 0.0
H2592 H 0.89145 0.67044 0.55779 0.0
H2593 H 0.86722 0.68037 0.53145 0.0
C2594 C 0.83187 0.7697 0.47759 0.0
C2595 C 0.81699 0.77101 0.49396 0.0
C2596 C 0.84344 0.75235 0.47427 0.0
C2597 C 0.84044 0.73576 0.48715 0.0
C2598 C 0.82625 0.73729 0.504 0.0
C2599 C 0.81461 0.75468 0.50733 0.0
C2600 C 0.8518 0.71675 0.48264 0.0
C2601 C 0.86482 0.70943 0.49747 0.0
C2602 C 0.85078 0.70653 0.46331 0.0
C2603 C 0.83616 0.71248 0.4475 0.0
C2604 C 0.81441 0.7137 0.45212 0.0
C2605 C 0.80073 0.71951 0.43725 0.0
C2606 C 0.80859 0.724 0.41764 0.0
C2607 C 0.83013 0.72264 0.41285 0.0
C2608 C 0.84389 0.71686 0.42768 0.0
C2609 C 0.90633 0.63376 0.47309 0.0
C2610 C 0.92072 0.63659 0.45649 0.0
C2611 C 0.89187 0.64863 0.47854 0.0
C2612 C 0.89144 0.6665 0.46739 0.0
C2613 C 0.90524 0.66885 0.45035 0.0
C2614 C 0.9197 0.65416 0.44504 0.0
C2615 C 0.87721 0.68317 0.47351 0.0
C2616 C 0.8636 0.69006 0.45896 0.0
C2617 C 0.87765 0.69293 0.4931 0.0
C2618 C 0.89219 0.68701 0.50894 0.0
C2619 C 0.91418 0.68768 0.50507 0.0
C2620 C 0.92778 0.68196 0.52005 0.0
C2621 C 0.91959 0.67571 0.53902 0.0
C2622 C 0.89777 0.67523 0.54307 0.0
C2623 C 0.8841 0.68091 0.52813 0.0
H2624 H 0.93014 0.6713 0.55061 0.0
H2625 H 0.79797 0.72849 0.40615 0.0
H2626 H 0.32719 0.73387 0.53429 0.0
H2627 H 0.35326 0.76215 0.5405 0.0
H2628 H 0.31764 0.80047 0.50369 0.0
H2629 H 0.29124 0.77245 0.49805 0.0
H2630 H 0.36409 0.8011 0.49569 0.0
H2631 H 0.31093 0.80613 0.55079 0.0
H2632 H 0.28985 0.79215 0.57984 0.0
H2633 H 0.34679 0.78255 0.61139 0.0
H2634 H 0.36823 0.79612 0.58231 0.0
H2635 H 0.39473 0.90183 0.5156 0.0
H2636 H 0.37646 0.86889 0.51113 0.0
H2637 H 0.40798 0.8471 0.56307 0.0
H2638 H 0.4259 0.8807 0.56818 0.0
H2639 H 0.36836 0.83426 0.56465 0.0
H2640 H 0.42195 0.83216 0.51279 0.0
H2641 H 0.4446 0.84417 0.48389 0.0
H2642 H 0.39017 0.84578 0.44654 0.0
H2643 H 0.36713 0.83406 0.47531 0.0
C2644 C 0.32503 0.74837 0.52757 0.0
C2645 C 0.30729 0.75114 0.51577 0.0
C2646 C 0.33987 0.76442 0.53107 0.0
C2647 C 0.33731 0.78333 0.52254 0.0
C2648 C 0.31988 0.78594 0.51031 0.0
C2649 C 0.30486 0.77002 0.50713 0.0
C2650 C 0.35237 0.80069 0.52685 0.0
C2651 C 0.365 0.80847 0.51071 0.0
C2652 C 0.35409 0.80968 0.54666 0.0
C2653 C 0.34119 0.80191 0.56428 0.0
C2654 C 0.31896 0.80087 0.56384 0.0
C2655 C 0.30695 0.79304 0.58032 0.0
C2656 C 0.31698 0.78641 0.59743 0.0
C2657 C 0.33905 0.78766 0.59811 0.0
C2658 C 0.35114 0.79541 0.58164 0.0
C2659 C 0.39796 0.89005 0.52605 0.0
C2660 C 0.41192 0.89386 0.54218 0.0
C2661 C 0.38755 0.87111 0.52338 0.0
C2662 C 0.39119 0.85529 0.53644 0.0
C2663 C 0.40504 0.85902 0.55269 0.0
C2664 C 0.4153 0.87818 0.55557 0.0
C2665 C 0.37981 0.83521 0.53329 0.0
C2666 C 0.36783 0.82681 0.54966 0.0
C2667 C 0.37899 0.82541 0.51372 0.0
C2668 C 0.39279 0.83233 0.49628 0.0
C2669 C 0.41478 0.83519 0.49846 0.0
C2670 C 0.4277 0.84194 0.48209 0.0
C2671 C 0.41883 0.84577 0.4634 0.0
C2672 C 0.39702 0.84281 0.46103 0.0
C2673 C 0.38403 0.83608 0.47735 0.0
H2674 H 0.42885 0.851 0.45075 0.0
H2675 H 0.30765 0.78036 0.61017 0.0
H2676 H 0.52324 0.67281 0.78039 0.0
H2677 H 0.52387 0.64754 0.75207 0.0
H2678 H 0.52153 0.69534 0.70889 0.0
H2679 H 0.52071 0.72058 0.73736 0.0
H2680 H 0.49489 0.6637 0.69855 0.0
H2681 H 0.56741 0.67232 0.71749 0.0
H2682 H 0.59698 0.6733 0.7412 0.0
H2683 H 0.5834 0.61059 0.75421 0.0
H2684 H 0.55348 0.60934 0.73083 0.0
H2685 H 0.53164 0.61517 0.60765 0.0
H2686 H 0.52638 0.63633 0.63834 0.0
H2687 H 0.52535 0.58344 0.67536 0.0
H2688 H 0.53045 0.56189 0.64431 0.0
H2689 H 0.55226 0.61544 0.69028 0.0
H2690 H 0.47932 0.60691 0.67323 0.0
H2691 H 0.44806 0.60598 0.65167 0.0
H2692 H 0.46246 0.66774 0.63545 0.0
H2693 H 0.49365 0.66915 0.65731 0.0
C2694 C 0.52281 0.67782 0.76482 0.0
C2695 C 0.52187 0.69855 0.76095 0.0
C2696 C 0.52328 0.66343 0.74864 0.0
C2697 C 0.52296 0.66948 0.72825 0.0
C2698 C 0.52179 0.69025 0.72444 0.0
C2699 C 0.52137 0.70466 0.74065 0.0
C2700 C 0.52376 0.65419 0.71092 0.0
C2701 C 0.5076 0.65334 0.69665 0.0
C2702 C 0.53995 0.64014 0.70867 0.0
C2703 C 0.55806 0.64079 0.72257 0.0
C2704 C 0.57062 0.65878 0.72553 0.0
C2705 C 0.58746 0.65938 0.73889 0.0
C2706 C 0.59204 0.64203 0.74924 0.0
C2707 C 0.57981 0.62403 0.7462 0.0
C2708 C 0.56292 0.62336 0.73289 0.0
C2709 C 0.53009 0.60792 0.62227 0.0
C2710 C 0.5315 0.58678 0.62348 0.0
C2711 C 0.52698 0.62009 0.63985 0.0
C2712 C 0.52535 0.61156 0.65924 0.0
C2713 C 0.52651 0.5904 0.66058 0.0
C2714 C 0.52931 0.57808 0.64283 0.0
C2715 C 0.52347 0.6251 0.67789 0.0
C2716 C 0.53948 0.6257 0.69232 0.0
C2717 C 0.50716 0.63893 0.68036 0.0
C2718 C 0.48889 0.63806 0.66672 0.0
C2719 C 0.47591 0.62024 0.66493 0.0
C2720 C 0.45815 0.61966 0.65274 0.0
C2721 C 0.45335 0.63674 0.64205 0.0
C2722 C 0.46622 0.65451 0.64369 0.0
C2723 C 0.48387 0.65524 0.65608 0.0
H2724 H 0.43962 0.63622 0.63256 0.0
H2725 H 0.60508 0.64252 0.75958 0.0
H2726 H 0.4857 0.78705 0.74118 0.0
H2727 H 0.47927 0.81026 0.71389 0.0
H2728 H 0.52338 0.85478 0.74044 0.0
H2729 H 0.52984 0.83159 0.76789 0.0
H2730 H 0.48469 0.87039 0.73023 0.0
H2731 H 0.53832 0.82963 0.69901 0.0
H2732 H 0.55421 0.7976 0.68815 0.0
H2733 H 0.50117 0.78199 0.65041 0.0
H2734 H 0.4848 0.81382 0.66128 0.0
H2735 H 0.4882 0.93855 0.64963 0.0
H2736 H 0.49858 0.91493 0.67504 0.0
H2737 H 0.46244 0.86644 0.64447 0.0
H2738 H 0.45246 0.89003 0.61869 0.0
H2739 H 0.49791 0.85278 0.65684 0.0
H2740 H 0.44322 0.89148 0.68821 0.0
H2741 H 0.42543 0.92244 0.69938 0.0
H2742 H 0.47774 0.9406 0.73718 0.0
H2743 H 0.49599 0.90987 0.72601 0.0
C2744 C 0.49397 0.80181 0.74123 0.0
C2745 C 0.50824 0.80755 0.75666 0.0
C2746 C 0.4904 0.81498 0.72557 0.0
C2747 C 0.50097 0.83416 0.72509 0.0
C2748 C 0.51513 0.84 0.74053 0.0
C2749 C 0.51889 0.82674 0.75611 0.0
C2750 C 0.49681 0.84827 0.7087 0.0
C2751 C 0.48789 0.86672 0.71419 0.0
C2752 C 0.50036 0.84312 0.68778 0.0
C2753 C 0.51025 0.82403 0.68111 0.0
C2754 C 0.52996 0.8193 0.68852 0.0
C2755 C 0.53907 0.80119 0.68234 0.0
C2756 C 0.52868 0.78774 0.66864 0.0
C2757 C 0.50919 0.79241 0.66104 0.0
C2758 C 0.5 0.81049 0.66719 0.0
C2759 C 0.48251 0.92285 0.64834 0.0
C2760 C 0.46937 0.91616 0.63232 0.0
C2761 C 0.48841 0.90936 0.66287 0.0
C2762 C 0.48092 0.88898 0.66195 0.0
C2763 C 0.46836 0.8821 0.64555 0.0
C2764 C 0.46269 0.89556 0.63082 0.0
C2765 C 0.48579 0.87501 0.67833 0.0
C2766 C 0.49478 0.85654 0.67286 0.0
C2767 C 0.48202 0.88001 0.6993 0.0
C2768 C 0.47106 0.89847 0.70611 0.0
C2769 C 0.451 0.90215 0.69878 0.0
C2770 C 0.44082 0.91965 0.70513 0.0
C2771 C 0.45047 0.9335 0.71894 0.0
C2772 C 0.4703 0.92987 0.72646 0.0
C2773 C 0.48056 0.9124 0.72014 0.0
H2774 H 0.44257 0.94704 0.72384 0.0
H2775 H 0.53576 0.77373 0.66387 0.0
H2776 H 0.51545 0.29197 0.77704 0.0
H2777 H 0.52486 0.32046 0.80014 0.0
H2778 H 0.5806 0.33494 0.76297 0.0
H2779 H 0.57081 0.30702 0.73901 0.0
H2780 H 0.58082 0.33323 0.8134 0.0
H2781 H 0.55458 0.36526 0.75432 0.0
H2782 H 0.52977 0.36754 0.72626 0.0
H2783 H 0.47794 0.3714 0.76982 0.0
H2784 H 0.50241 0.36875 0.79814 0.0
H2785 H 0.5832 0.42428 0.87771 0.0
H2786 H 0.58868 0.40204 0.84741 0.0
H2787 H 0.52195 0.3849 0.8483 0.0
H2788 H 0.51647 0.40701 0.8782 0.0
H2789 H 0.53567 0.39225 0.81049 0.0
H2790 H 0.55912 0.35499 0.86819 0.0
H2791 H 0.58177 0.35029 0.89751 0.0
H2792 H 0.63709 0.3547 0.85797 0.0
H2793 H 0.61474 0.3597 0.82845 0.0
C2794 C 0.52964 0.30125 0.77362 0.0
C2795 C 0.54221 0.29734 0.756 0.0
C2796 C 0.53509 0.31736 0.78696 0.0
C2797 C 0.55335 0.32969 0.78313 0.0
C2798 C 0.5665 0.32544 0.76613 0.0
C2799 C 0.56088 0.30945 0.75254 0.0
C2800 C 0.55756 0.34772 0.79642 0.0
C2801 C 0.57146 0.34647 0.81252 0.0
C2802 C 0.54504 0.36469 0.79529 0.0
C2803 C 0.53031 0.36665 0.77833 0.0
C2804 C 0.53787 0.36642 0.75791 0.0
C2805 C 0.52388 0.36781 0.74196 0.0
C2806 C 0.50229 0.36958 0.74625 0.0
C2807 C 0.49467 0.37002 0.76652 0.0
C2808 C 0.5086 0.36859 0.78252 0.0
C2809 C 0.56978 0.41568 0.8714 0.0
C2810 C 0.5494 0.41736 0.88025 0.0
C2811 C 0.5729 0.40307 0.85411 0.0
C2812 C 0.55571 0.39182 0.84564 0.0
C2813 C 0.5354 0.39361 0.85445 0.0
C2814 C 0.53227 0.40626 0.87153 0.0
C2815 C 0.55848 0.37758 0.82798 0.0
C2816 C 0.54572 0.37947 0.81106 0.0
C2817 C 0.57193 0.36114 0.8285 0.0
C2818 C 0.58531 0.35797 0.84619 0.0
C2819 C 0.57613 0.3551 0.86579 0.0
C2820 C 0.5889 0.35236 0.88243 0.0
C2821 C 0.61086 0.35227 0.87962 0.0
C2822 C 0.62008 0.35483 0.86014 0.0
C2823 C 0.60737 0.35761 0.84345 0.0
H2824 H 0.62073 0.35015 0.89252 0.0
H2825 H 0.49148 0.37065 0.73388 0.0
H2826 H 0.51546 0.20845 0.77284 0.0
H2827 H 0.5138 0.18476 0.80114 0.0
H2828 H 0.5063 0.1344 0.75796 0.0
H2829 H 0.50781 0.1582 0.72971 0.0
H2830 H 0.47953 0.12931 0.79082 0.0
H2831 H 0.55347 0.14504 0.78026 0.0
H2832 H 0.58558 0.1674 0.77597 0.0
H2833 H 0.5753 0.19336 0.8362 0.0
H2834 H 0.54291 0.17138 0.84072 0.0
H2835 H 0.49094 0.06036 0.87309 0.0
H2836 H 0.49758 0.07692 0.84002 0.0
H2837 H 0.50899 0.13439 0.87191 0.0
H2838 H 0.50282 0.11816 0.90439 0.0
H2839 H 0.53635 0.13166 0.84146 0.0
H2840 H 0.46046 0.11954 0.85027 0.0
H2841 H 0.42765 0.09816 0.85475 0.0
H2842 H 0.44131 0.06601 0.79825 0.0
H2843 H 0.47436 0.08705 0.79357 0.0
C2844 C 0.51355 0.19231 0.76947 0.0
C2845 C 0.51205 0.18509 0.74916 0.0
C2846 C 0.51264 0.17876 0.7856 0.0
C2847 C 0.5102 0.15768 0.78175 0.0
C2848 C 0.50826 0.15052 0.7614 0.0
C2849 C 0.50924 0.16409 0.74527 0.0
C2850 C 0.50975 0.14321 0.79896 0.0
C2851 C 0.49214 0.12959 0.80169 0.0
C2852 C 0.52606 0.14357 0.81334 0.0
C2853 C 0.54567 0.15665 0.81077 0.0
C2854 C 0.55798 0.15561 0.79254 0.0
C2855 C 0.57624 0.16821 0.79007 0.0
C2856 C 0.58246 0.18182 0.80579 0.0
C2857 C 0.57045 0.18282 0.82403 0.0
C2858 C 0.55215 0.17028 0.82656 0.0
C2859 C 0.49523 0.07644 0.87296 0.0
C2860 C 0.49618 0.08791 0.89142 0.0
C2861 C 0.49884 0.08596 0.85406 0.0
C2862 C 0.50355 0.10706 0.85335 0.0
C2863 C 0.50539 0.11818 0.87186 0.0
C2864 C 0.50174 0.1088 0.89053 0.0
C2865 C 0.50586 0.11814 0.83368 0.0
C2866 C 0.52386 0.13115 0.83045 0.0
C2867 C 0.48986 0.11728 0.81893 0.0
C2868 C 0.46999 0.10469 0.8217 0.0
C2869 C 0.45654 0.10781 0.83888 0.0
C2870 C 0.43789 0.09577 0.84145 0.0
C2871 C 0.43243 0.08069 0.82683 0.0
C2872 C 0.44558 0.07766 0.80958 0.0
C2873 C 0.46427 0.08964 0.80696 0.0
H2874 H 0.41798 0.07139 0.82884 0.0
H2875 H 0.5966 0.19156 0.80385 0.0
H2876 H 0.76604 0.53451 0.66741 0.0
H2877 H 0.73582 0.53961 0.64575 0.0
H2878 H 0.69379 0.51084 0.6904 0.0
H2879 H 0.72392 0.50632 0.71236 0.0
H2880 H 0.68768 0.49716 0.64801 0.0
H2881 H 0.69447 0.55889 0.68956 0.0
H2882 H 0.71421 0.58909 0.70351 0.0
H2883 H 0.72626 0.6105 0.64279 0.0
H2884 H 0.7069 0.5802 0.62844 0.0
H2885 H 0.58738 0.52148 0.61606 0.0
H2886 H 0.61932 0.51642 0.6346 0.0
H2887 H 0.65383 0.56051 0.5975 0.0
H2888 H 0.62138 0.5664 0.57948 0.0
H2889 H 0.6657 0.56632 0.63423 0.0
H2890 H 0.65925 0.5067 0.59178 0.0
H2891 H 0.64165 0.47621 0.57597 0.0
H2892 H 0.63158 0.45039 0.63508 0.0
H2893 H 0.64888 0.48085 0.65129 0.0
C2894 C 0.75031 0.52939 0.6726 0.0
C2895 C 0.74724 0.52017 0.6916 0.0
C2896 C 0.73309 0.53226 0.66023 0.0
C2897 C 0.71252 0.52566 0.66648 0.0
C2898 C 0.70951 0.51603 0.68526 0.0
C2899 C 0.72668 0.51348 0.69779 0.0
C2900 C 0.6941 0.52908 0.65361 0.0
C2901 C 0.6827 0.51225 0.64515 0.0
C2902 C 0.68809 0.5488 0.64927 0.0
C2903 C 0.69943 0.56717 0.65791 0.0
C2904 C 0.70148 0.56994 0.67917 0.0
C2905 C 0.71258 0.58709 0.68715 0.0
C2906 C 0.72153 0.60168 0.67404 0.0
C2907 C 0.71934 0.59917 0.65292 0.0
C2908 C 0.70831 0.58201 0.64485 0.0
C2909 C 0.60178 0.53003 0.61169 0.0
C2910 C 0.60181 0.54425 0.59613 0.0
C2911 C 0.62016 0.52702 0.62228 0.0
C2912 C 0.6393 0.53772 0.61726 0.0
C2913 C 0.63938 0.55197 0.60169 0.0
C2914 C 0.62082 0.55527 0.59131 0.0
C2915 C 0.65893 0.53433 0.62866 0.0
C2916 C 0.67064 0.55117 0.63688 0.0
C2917 C 0.66548 0.51458 0.63246 0.0
C2918 C 0.65522 0.49615 0.62277 0.0
C2919 C 0.65317 0.49458 0.60143 0.0
C2920 C 0.64326 0.47729 0.59239 0.0
C2921 C 0.63546 0.46139 0.60452 0.0
C2922 C 0.63762 0.46272 0.62571 0.0
C2923 C 0.6475 0.47999 0.63483 0.0
H2924 H 0.62778 0.44803 0.59749 0.0
H2925 H 0.73012 0.61494 0.68025 0.0
H2926 H 0.23269 0.99623 0.68194 0.0
H2927 H 0.25641 0.99263 0.65169 0.0
H2928 H 0.30921 0.98786 0.69107 0.0
H2929 H 0.28547 0.99162 0.72121 0.0
H2930 H 0.31994 0.01269 0.66046 0.0
H2931 H 0.28518 0.94611 0.66543 0.0
H2932 H 0.25428 0.92185 0.66688 0.0
H2933 H 0.23557 0.94027 0.60804 0.0
H2934 H 0.26622 0.96487 0.60637 0.0
H2935 H 0.39886 0.96658 0.60468 0.0
H2936 H 0.36937 0.97473 0.62687 0.0
H2937 H 0.32998 0.97898 0.57479 0.0
H2938 H 0.36017 0.97017 0.55173 0.0
H2939 H 0.30898 0.95827 0.6073 0.0
H2940 H 0.34654 0.02189 0.60047 0.0
H2941 H 0.3778 0.0457 0.59905 0.0
H2942 H 0.39116 0.03327 0.6612 0.0
H2943 H 0.36017 0.00914 0.66292 0.0
C2944 C 0.24937 0.99435 0.68406 0.0
C2945 C 0.25724 0.99413 0.70392 0.0
C2946 C 0.26293 0.99223 0.66677 0.0
C2947 C 0.28473 0.98979 0.66892 0.0
C2948 C 0.29254 0.98971 0.68884 0.0
C2949 C 0.27897 0.99178 0.7061 0.0
C2950 C 0.2995 0.98748 0.6506 0.0
C2951 C 0.31755 1.0007 0.64893 0.0
C2952 C 0.29616 0.97236 0.63495 0.0
C2953 C 0.27785 0.95749 0.63588 0.0
C2954 C 0.27438 0.9451 0.65287 0.0
C2955 C 0.25693 0.93127 0.65372 0.0
C2956 C 0.24294 0.92956 0.63759 0.0
C2957 C 0.2464 0.94164 0.62054 0.0
C2958 C 0.26381 0.95552 0.61963 0.0
C2959 C 0.38406 0.96921 0.59758 0.0
C2960 C 0.38215 0.96764 0.57612 0.0
C2961 C 0.36707 0.97405 0.61052 0.0
C2962 C 0.34736 0.97784 0.60271 0.0
C2963 C 0.34506 0.97625 0.58129 0.0
C2964 C 0.36236 0.97132 0.56807 0.0
C2965 C 0.32967 0.98317 0.61749 0.0
C2966 C 0.31114 0.97051 0.61859 0.0
C2967 C 0.33249 0.99889 0.63263 0.0
C2968 C 0.35103 0.01362 0.63178 0.0
C2969 C 0.3562 0.02415 0.61381 0.0
C2970 C 0.37387 0.03771 0.61295 0.0
C2971 C 0.38647 0.04099 0.63001 0.0
C2972 C 0.38138 0.03073 0.64799 0.0
C2973 C 0.36373 0.01713 0.64893 0.0
H2974 H 0.40016 0.05148 0.62932 0.0
H2975 H 0.22944 0.91885 0.63827 0.0
H2976 H 0.72752 0.53223 0.80383 0.0
H2977 H 0.70293 0.53054 0.83335 0.0
H2978 H 0.7391 0.48441 0.8589 0.0
H2979 H 0.76392 0.48617 0.82945 0.0
H2980 H 0.67812 0.49847 0.84366 0.0
H2981 H 0.73385 0.48872 0.9119 0.0
H2982 H 0.76817 0.50242 0.92452 0.0
H2983 H 0.76383 0.55525 0.88862 0.0
H2984 H 0.72941 0.54197 0.87592 0.0
H2985 H 0.62012 0.44949 0.91958 0.0
H2986 H 0.65015 0.45912 0.89714 0.0
H2987 H 0.65763 0.51669 0.92979 0.0
H2988 H 0.62784 0.50662 0.95303 0.0
H2989 H 0.69599 0.50273 0.91704 0.0
H2990 H 0.6304 0.51415 0.88653 0.0
H2991 H 0.5938 0.50476 0.87674 0.0
H2992 H 0.61603 0.45613 0.83809 0.0
H2993 H 0.65276 0.46511 0.84783 0.0
C2994 C 0.73044 0.52195 0.81588 0.0
C2995 C 0.7476 0.50925 0.81425 0.0
C2996 C 0.71633 0.52096 0.83271 0.0
C2997 C 0.71921 0.50743 0.8484 0.0
C2998 C 0.73666 0.49511 0.84709 0.0
C2999 C 0.75069 0.49596 0.83015 0.0
C3000 C 0.70294 0.50488 0.86509 0.0
C3001 C 0.68207 0.4995 0.85969 0.0
C3002 C 0.70792 0.50664 0.88605 0.0
C3003 C 0.72911 0.51424 0.89283 0.0
C3004 C 0.74022 0.50325 0.90668 0.0
C3005 C 0.75966 0.51098 0.91391 0.0
C3006 C 0.76811 0.52974 0.90747 0.0
C3007 C 0.75723 0.54074 0.89364 0.0
C3008 C 0.73781 0.53306 0.88634 0.0
C3009 C 0.62842 0.46406 0.92222 0.0
C3010 C 0.62162 0.47742 0.93787 0.0
C3011 C 0.64553 0.46957 0.90936 0.0
C3012 C 0.65581 0.48881 0.91146 0.0
C3013 C 0.64986 0.50179 0.92785 0.0
C3014 C 0.63289 0.49606 0.94109 0.0
C3015 C 0.67151 0.49568 0.89548 0.0
C3016 C 0.69215 0.50182 0.90099 0.0
C3017 C 0.66625 0.49519 0.87458 0.0
C3018 C 0.64431 0.49026 0.86798 0.0
C3019 C 0.62747 0.50145 0.87595 0.0
C3020 C 0.60671 0.49619 0.87042 0.0
C3021 C 0.60259 0.47984 0.85682 0.0
C3022 C 0.61925 0.4688 0.84861 0.0
C3023 C 0.64005 0.474 0.85409 0.0
H3024 H 0.5865 0.47573 0.85262 0.0
H3025 H 0.78317 0.53569 0.91306 0.0
H3026 H 0.2602 0.011 0.85322 0.0
H3027 H 0.28624 0.02095 0.87908 0.0
H3028 H 0.32841 0.04555 0.83196 0.0
H3029 H 0.30212 0.03628 0.80629 0.0
H3030 H 0.32341 0.01035 0.88571 0.0
H3031 H 0.3586 0.0846 0.84872 0.0
H3032 H 0.34622 0.11263 0.82894 0.0
H3033 H 0.28303 0.10127 0.85302 0.0
H3034 H 0.29508 0.07338 0.87318 0.0
H3035 H 0.42751 0.03162 0.91288 0.0
H3036 H 0.39367 0.02522 0.8968 0.0
H3037 H 0.37106 0.08037 0.92477 0.0
H3038 H 0.40551 0.08735 0.94037 0.0
H3039 H 0.36049 0.07837 0.88729 0.0
H3040 H 0.35243 0.03224 0.94087 0.0
H3041 H 0.3622 0.00554 0.96378 0.0
H3042 H 0.36571 0.96328 0.91276 0.0
H3043 H 0.35627 0.9898 0.88948 0.0
C3044 C 0.27506 0.01854 0.84846 0.0
C3045 C 0.27917 0.02298 0.82783 0.0
C3046 C 0.28989 0.02425 0.86322 0.0
C3047 C 0.30914 0.03435 0.85755 0.0
C3048 C 0.31343 0.03833 0.83683 0.0
C3049 C 0.29849 0.03292 0.82215 0.0
C3050 C 0.32511 0.04015 0.87311 0.0
C3051 C 0.3314 0.02527 0.88617 0.0
C3052 C 0.33506 0.05984 0.87425 0.0
C3053 C 0.32774 0.07679 0.86236 0.0
C3054 C 0.34209 0.08815 0.84989 0.0
C3055 C 0.33512 0.104 0.83859 0.0
C3056 C 0.31384 0.10869 0.83969 0.0
C3057 C 0.29949 0.09758 0.85214 0.0
C3058 C 0.30638 0.08173 0.86349 0.0
C3059 C 0.4153 0.04233 0.91582 0.0
C3060 C 0.41916 0.05998 0.92795 0.0
C3061 C 0.39586 0.03856 0.9067 0.0
C3062 C 0.37962 0.05209 0.90988 0.0
C3063 C 0.38332 0.06966 0.92218 0.0
C3064 C 0.40297 0.07362 0.93111 0.0
C3065 C 0.35936 0.04831 0.89924 0.0
C3066 C 0.35225 0.06356 0.8871 0.0
C3067 C 0.3482 0.02918 0.89945 0.0
C3068 C 0.35372 0.01307 0.91341 0.0
C3069 C 0.3554 0.01729 0.93451 0.0
C3070 C 0.36087 1.00218 0.94757 0.0
C3071 C 0.36459 0.98273 0.93973 0.0
C3072 C 0.36281 0.97835 0.91881 0.0
C3073 C 0.35736 0.99341 0.90568 0.0
H3074 H 0.36884 0.97106 0.94986 0.0
H3075 H 0.30847 0.12096 0.83091 0.0
H3076 H 0.68261 0.78195 0.49763 0.0
H3077 H 0.66066 0.75187 0.50676 0.0
H3078 H 0.71576 0.72375 0.52773 0.0
H3079 H 0.73792 0.75375 0.51786 0.0
H3080 H 0.68882 0.69613 0.50887 0.0
H3081 H 0.6839 0.74764 0.56141 0.0
H3082 H 0.67859 0.78223 0.57519 0.0
H3083 H 0.61495 0.77875 0.55404 0.0
H3084 H 0.61997 0.74424 0.53984 0.0
H3085 H 0.62144 0.62292 0.5605 0.0
H3086 H 0.64841 0.65082 0.55695 0.0
H3087 H 0.60245 0.68729 0.5303 0.0
H3088 H 0.57561 0.65967 0.53403 0.0
H3089 H 0.62816 0.70969 0.55631 0.0
H3090 H 0.63496 0.66023 0.50023 0.0
H3091 H 0.64024 0.62584 0.48584 0.0
H3092 H 0.70058 0.62568 0.51403 0.0
H3093 H 0.69549 0.65997 0.52885 0.0
C3094 C 0.6901 0.76904 0.50351 0.0
C3095 C 0.71193 0.76988 0.50673 0.0
C3096 C 0.67755 0.752 0.50899 0.0
C3097 C 0.68653 0.73575 0.5183 0.0
C3098 C 0.70852 0.73615 0.52062 0.0
C3099 C 0.72115 0.75318 0.51494 0.0
C3100 C 0.67269 0.71897 0.52658 0.0
C3101 C 0.6758 0.69904 0.51954 0.0
C3102 C 0.65563 0.72279 0.54044 0.0
C3103 C 0.65236 0.74337 0.54944 0.0
C3104 C 0.66879 0.75427 0.55962 0.0
C3105 C 0.66584 0.77387 0.5675 0.0
C3106 C 0.64646 0.78269 0.56546 0.0
C3107 C 0.62996 0.77189 0.5556 0.0
C3108 C 0.63284 0.7523 0.54766 0.0
C3109 C 0.61706 0.63707 0.55432 0.0
C3110 C 0.59655 0.63912 0.54732 0.0
C3111 C 0.63247 0.65292 0.55218 0.0
C3112 C 0.62747 0.67101 0.54311 0.0
C3113 C 0.60666 0.67345 0.53727 0.0
C3114 C 0.59139 0.65763 0.53927 0.0
C3115 C 0.64401 0.68696 0.53822 0.0
C3116 C 0.64141 0.70676 0.54592 0.0
C3117 C 0.66155 0.683 0.52502 0.0
C3118 C 0.66474 0.66254 0.51584 0.0
C3119 C 0.64929 0.6528 0.50347 0.0
C3120 C 0.65225 0.63333 0.49523 0.0
C3121 C 0.6707 0.62355 0.49908 0.0
C3122 C 0.68627 0.63325 0.51111 0.0
C3123 C 0.68336 0.6527 0.51943 0.0
H3124 H 0.67297 0.60848 0.4927 0.0
H3125 H 0.64422 0.79788 0.57154 0.0
H3126 H 0.67626 0.26253 0.0126 0.0
H3127 H 0.65336 0.29103 0.01063 0.0
H3128 H 0.69392 0.3163 0.96279 0.0
H3129 H 0.7174 0.2884 0.9653 0.0
H3130 H 0.68314 0.34561 0.98758 0.0
H3131 H 0.64482 0.29089 0.95326 0.0
H3132 H 0.62781 0.25662 0.94933 0.0
H3133 H 0.58545 0.26911 1.00012 0.0
H3134 H 0.6024 0.30338 0.00452 0.0
H3135 H 0.58266 0.39408 0.9492 0.0
H3136 H 0.60374 0.36439 0.95247 0.0
H3137 H 0.62717 0.38899 0.00972 0.0
H3138 H 0.60632 0.41884 0.00645 0.0
H3139 H 0.60577 0.33467 0.97905 0.0
H3140 H 0.67886 0.37779 0.01355 0.0
H3141 H 0.69619 0.41211 0.01352 0.0
H3142 H 0.66985 0.42266 0.95535 0.0
H3143 H 0.65264 0.38831 0.95489 0.0
C3144 C 0.68048 0.27421 1.00177 0.0
C3145 C 0.69878 0.27294 0.98906 0.0
C3146 C 0.66717 0.29047 1.0005 0.0
C3147 C 0.67164 0.30584 0.98636 0.0
C3148 C 0.68997 0.3047 0.97379 0.0
C3149 C 0.70332 0.28851 0.9751 0.0
C3150 C 0.6574 0.32316 0.98471 0.0
C3151 C 0.66622 0.34314 0.9858 0.0
C3152 C 0.63529 0.32018 0.98199 0.0
C3153 C 0.62502 0.29962 0.97934 0.0
C3154 C 0.63198 0.28627 0.96368 0.0
C3155 C 0.62233 0.26686 0.96136 0.0
C3156 C 0.60559 0.26067 0.9745 0.0
C3157 C 0.59843 0.27391 0.98997 0.0
C3158 C 0.60804 0.29334 0.99237 0.0
C3159 C 0.59212 0.39312 0.96262 0.0
C3160 C 0.5928 0.40898 0.97752 0.0
C3161 C 0.60417 0.37606 0.96448 0.0
C3162 C 0.61734 0.37446 0.98121 0.0
C3163 C 0.61744 0.38993 0.99649 0.0
C3164 C 0.60539 0.40699 0.99465 0.0
C3165 C 0.63149 0.35703 0.98228 0.0
C3166 C 0.62267 0.33709 0.98102 0.0
C3167 C 0.65367 0.36001 0.98437 0.0
C3168 C 0.66428 0.38056 0.98431 0.0
C3169 C 0.67685 0.38741 1.00072 0.0
C3170 C 0.68664 0.40687 1.00079 0.0
C3171 C 0.68407 0.41958 0.98448 0.0
C3172 C 0.67178 0.41283 0.96801 0.0
C3173 C 0.66198 0.39337 0.96785 0.0
H3174 H 0.69164 0.43465 0.98458 0.0
H3175 H 0.59815 0.24564 0.97268 0.0
H3176 H 0.35456 0.30612 0.97965 0.0
H3177 H 0.37598 0.27665 0.97397 0.0
H3178 H 0.33819 0.24428 0.01944 0.0
H3179 H 0.31662 0.27378 0.02519 0.0
H3180 H 0.37933 0.23691 0.02278 0.0
H3181 H 0.33047 0.23477 0.96866 0.0
H3182 H 0.31139 0.24797 0.94004 0.0
H3183 H 0.37006 0.25781 0.90632 0.0
H3184 H 0.38954 0.24494 0.93488 0.0
H3185 H 0.42118 0.14135 0.98998 0.0
H3186 H 0.39639 0.16804 0.99834 0.0
H3187 H 0.43027 0.20743 0.95594 0.0
H3188 H 0.45466 0.1809 0.94734 0.0
H3189 H 0.38822 0.20902 0.95196 0.0
H3190 H 0.43699 0.21286 0.00752 0.0
H3191 H 0.45559 0.19934 0.0363 0.0
H3192 H 0.39611 0.18541 0.06728 0.0
H3193 H 0.37714 0.19862 0.03854 0.0
C3194 C 0.35074 0.29274 0.98843 0.0
C3195 C 0.33369 0.29233 1.00275 0.0
C3196 C 0.36303 0.27586 0.98517 0.0
C3197 C 0.35851 0.25803 0.99599 0.0
C3198 C 0.342 0.2578 0.01084 0.0
C3199 C 0.3297 0.27474 0.01417 0.0
C3200 C 0.37075 0.23959 0.99143 0.0
C3201 C 0.38099 0.23063 0.00734 0.0
C3202 C 0.37314 0.23139 0.97126 0.0
C3203 C 0.36148 0.23905 0.95399 0.0
C3204 C 0.33932 0.23988 0.95521 0.0
C3205 C 0.32843 0.24729 0.93899 0.0
C3206 C 0.33951 0.25377 0.92139 0.0
C3207 C 0.3615 0.25281 0.91997 0.0
C3208 C 0.37248 0.24544 0.93616 0.0
C3209 C 0.42321 0.15564 0.98234 0.0
C3210 C 0.44006 0.15901 0.96812 0.0
C3211 C 0.40913 0.17095 0.98724 0.0
C3212 C 0.41157 0.18989 0.97794 0.0
C3213 C 0.42806 0.19304 0.9634 0.0
C3214 C 0.44215 0.17786 0.95862 0.0
C3215 C 0.39715 0.2066 0.98322 0.0
C3216 C 0.38644 0.21521 0.96742 0.0
C3217 C 0.39426 0.21437 1.00349 0.0
C3218 C 0.40564 0.20651 0.02079 0.0
C3219 C 0.42787 0.20676 0.0204 0.0
C3220 C 0.43849 0.19918 0.03671 0.0
C3221 C 0.42704 0.19146 0.05358 0.0
C3222 C 0.40496 0.19136 0.05419 0.0
C3223 C 0.39426 0.1989 0.0379 0.0
H3224 H 0.43528 0.18561 0.06619 0.0
H3225 H 0.33105 0.2595 0.90885 0.0
H3226 H 0.79626 0.28541 0.99149 0.0
H3227 H 0.82044 0.31527 0.99701 0.0
H3228 H 0.86189 0.27894 0.02989 0.0
H3229 H 0.83809 0.24891 0.02377 0.0
H3230 H 0.84987 0.3186 0.04944 0.0
H3231 H 0.87806 0.28861 0.98667 0.0
H3232 H 0.87501 0.2746 0.95147 0.0
H3233 H 0.85414 0.33146 0.93179 0.0
H3234 H 0.85668 0.3457 0.96698 0.0
H3235 H 0.93348 0.39248 0.05942 0.0
H3236 H 0.91361 0.36044 0.05236 0.0
H3237 H 0.88247 0.38781 1.00317 0.0
H3238 H 0.90303 0.41954 0.00955 0.0
H3239 H 0.88996 0.35137 0.99199 0.0
H3240 H 0.85891 0.38156 0.05235 0.0
H3241 H 0.85827 0.39694 0.08717 0.0
H3242 H 0.88011 0.3422 0.11105 0.0
H3243 H 0.88114 0.32657 0.07631 0.0
C3244 C 0.81061 0.28388 0.99979 0.0
C3245 C 0.81542 0.26503 0.00726 0.0
C3246 C 0.82433 0.30084 1.00296 0.0
C3247 C 0.84287 0.29921 0.01385 0.0
C3248 C 0.8476 0.28043 0.02151 0.0
C3249 C 0.83408 0.26338 0.01801 0.0
C3250 C 0.85737 0.31717 0.01718 0.0
C3251 C 0.85894 0.32564 0.03699 0.0
C3252 C 0.86854 0.32659 1.00074 0.0
C3253 C 0.86737 0.31816 0.97951 0.0
C3254 C 0.87265 0.29807 0.97488 0.0
C3255 C 0.87104 0.29009 0.95492 0.0
C3256 C 0.86434 0.30211 0.93941 0.0
C3257 C 0.8593 0.32216 0.94382 0.0
C3258 C 0.86084 0.33019 0.96377 0.0
C3259 C 0.92253 0.39158 0.04699 0.0
C3260 C 0.91971 0.40852 0.03511 0.0
C3261 C 0.91109 0.3733 0.04303 0.0
C3262 C 0.89617 0.37181 0.02752 0.0
C3263 C 0.89384 0.38857 0.01525 0.0
C3264 C 0.90558 0.40672 0.01893 0.0
C3265 C 0.88258 0.35302 0.02438 0.0
C3266 C 0.88108 0.34436 0.00456 0.0
C3267 C 0.87105 0.34368 0.04077 0.0
C3268 C 0.87031 0.35297 0.0617 0.0
C3269 C 0.86371 0.37285 0.06501 0.0
C3270 C 0.86326 0.3816 0.08473 0.0
C3271 C 0.8692 0.37057 0.1013 0.0
C3272 C 0.87555 0.35073 0.09819 0.0
C3273 C 0.87605 0.34191 0.07849 0.0
H3274 H 0.86885 0.37738 0.11656 0.0
H3275 H 0.8631 0.29591 0.92397 0.0
loop_
_geom_bond_atom_site_label_1
_geom_bond_atom_site_label_2
_geom_bond_distance
_geom_bond_site_symmetry_2
_ccdc_geom_bond_type
C0 C1 1.443 . S
C0 N4 1.376 . S
C0 C38 1.389 1_655 S
C1 C0 1.443 . S
C1 C2 1.340 . S
C1 H41 0.951 . S
C2 C1 1.340 . S
C2 C3 1.439 . S
C2 H42 0.950 . S
C3 C2 1.439 . S
C3 N4 1.374 . S
C3 C37 1.395 . S
N4 C0 1.376 . S
N4 C3 1.374 . S
N4 Co5 2.008 1_655 S
Co5 N4 2.008 1_455 S
Co5 N6 1.995 . S
Co5 N11 2.008 . S
Co5 N16 1.995 . S
Co5 N21 2.282 . S
Co5 N27 2.282 . S
N6 Co5 1.995 . S
N6 C7 1.376 1_455 S
N6 C10 1.383 . S
C7 N6 1.376 1_655 S
C7 C8 1.446 . S
C7 C37 1.391 . S
C8 C7 1.446 . S
C8 C9 1.339 . S
C8 H43 0.949 . S
C9 C8 1.339 . S
C9 C10 1.439 1_655 S
C9 H44 0.950 . S
C10 N6 1.383 . S
C10 C9 1.439 1_455 S
C10 C39 1.392 . S
N11 Co5 2.008 . S
N11 C12 1.376 . S
N11 C15 1.374 . S
C12 N11 1.376 . S
C12 C13 1.443 . S
C12 C39 1.389 . S
C13 C12 1.443 . S
C13 C14 1.340 . S
C13 H45 0.951 . S
C14 C13 1.340 . S
C14 C15 1.439 . S
C14 H46 0.950 . S
C15 N11 1.374 . S
C15 C14 1.439 . S
C15 C40 1.395 . S
N16 Co5 1.995 . S
N16 C17 1.376 . S
N16 C20 1.383 . S
C17 N16 1.376 . S
C17 C18 1.446 . S
C17 C40 1.391 . S
C18 C17 1.446 . S
C18 C19 1.339 . S
C18 H47 0.949 . S
C19 C18 1.339 . S
C19 C20 1.439 . S
C19 H48 0.950 . S
C20 N16 1.383 . S
C20 C19 1.439 . S
C20 C38 1.392 . S
N21 Co5 2.282 . S
N21 C24 1.332 . S
N21 C26 1.332 . S
C22 C23 1.386 . S
C22 C25 1.388 . S
C23 C22 1.386 . S
C23 C24 1.382 . S
C23 H49 0.950 . S
C24 N21 1.332 . S
C24 C23 1.382 . S
C24 H35 0.952 . S
C25 C22 1.388 . S
C25 C26 1.382 . S
C25 H50 0.950 . S
C26 N21 1.332 . S
C26 C25 1.382 . S
C26 H36 0.948 . S
N27 Co5 2.282 . S
N27 C31 1.332 . S
N27 C32 1.332 . S
C28 C29 1.388 . S
C28 C32 1.382 . S
C28 H51 0.950 . S
C29 C28 1.388 . S
C29 C30 1.386 1_455 S
C30 C29 1.386 1_655 S
C30 C31 1.382 1_655 S
C30 H52 0.950 . S
C31 N27 1.332 . S
C31 C30 1.382 1_455 S
C31 H33 0.952 1_455 S
C32 N27 1.332 . S
C32 C28 1.382 . S
C32 H34 0.948 . S
H33 C31 0.952 1_655 S
H34 C32 0.948 . S
H35 C24 0.952 . S
H36 C26 0.948 . S
C37 C3 1.395 . S
C37 C7 1.391 . S
C38 C0 1.389 1_455 S
C38 C20 1.392 . S
C39 C10 1.392 . S
C39 C12 1.389 . S
C40 C15 1.395 . S
C40 C17 1.391 . S
H41 C1 0.951 . S
H42 C2 0.950 . S
H43 C8 0.949 . S
H44 C9 0.950 . S
H45 C13 0.951 . S
H46 C14 0.950 . S
H47 C18 0.949 . S
H48 C19 0.950 . S
H49 C23 0.950 . S
H50 C25 0.950 . S
H51 C28 0.950 . S
H52 C30 0.950 . S
C53 C54 1.443 . S
C53 N57 1.376 . S
C53 C91 1.389 1_655 S
C54 C53 1.443 . S
C54 C55 1.340 . S
C54 H94 0.951 . S
C55 C54 1.340 . S
C55 C56 1.439 . S
C55 H95 0.950 . S
C56 C55 1.439 . S
C56 N57 1.374 . S
C56 C90 1.395 . S
N57 C53 1.376 . S
N57 C56 1.374 . S
N57 Co58 2.008 1_655 S
Co58 N57 2.008 1_455 S
Co58 N59 1.995 1_455 S
Co58 N64 2.008 . S
Co58 N69 1.995 . S
Co58 N74 2.282 . S
Co58 N80 2.282 . S
N59 Co58 1.995 1_655 S
N59 C60 1.376 . S
N59 C63 1.383 . S
C60 N59 1.376 . S
C60 C61 1.446 . S
C60 C90 1.391 . S
C61 C60 1.446 . S
C61 C62 1.339 . S
C61 H96 0.949 . S
C62 C61 1.339 . S
C62 C63 1.439 . S
C62 H97 0.950 . S
C63 N59 1.383 . S
C63 C62 1.439 . S
C63 C92 1.392 1_655 S
N64 Co58 2.008 . S
N64 C65 1.376 . S
N64 C68 1.374 . S
C65 N64 1.376 . S
C65 C66 1.443 . S
C65 C92 1.389 . S
C66 C65 1.443 . S
C66 C67 1.340 . S
C66 H98 0.951 . S
C67 C66 1.340 . S
C67 C68 1.439 . S
C67 H99 0.950 . S
C68 N64 1.374 . S
C68 C67 1.439 . S
C68 C93 1.395 . S
N69 Co58 1.995 . S
N69 C70 1.376 . S
N69 C73 1.383 . S
C70 N69 1.376 . S
C70 C71 1.446 . S
C70 C93 1.391 . S
C71 C70 1.446 . S
C71 C72 1.339 . S
C71 H100 0.949 . S
C72 C71 1.339 . S
C72 C73 1.439 . S
C72 H101 0.950 . S
C73 N69 1.383 . S
C73 C72 1.439 . S
C73 C91 1.392 . S
N74 Co58 2.282 . S
N74 C77 1.332 . S
N74 C79 1.368 . S
C75 C76 1.386 . S
C75 C78 1.388 . S
C76 C75 1.386 . S
C76 C77 1.382 . S
C76 H102 0.950 . S
C77 N74 1.332 . S
C77 C76 1.382 . S
C77 H88 0.952 . S
C78 C75 1.388 . S
C78 C79 1.389 . S
C78 H103 0.950 1_455 S
C79 N74 1.368 . S
C79 C78 1.389 . S
C79 H89 0.905 1_455 S
N80 Co58 2.282 . S
N80 C84 1.332 1_455 S
N80 C85 1.332 . S
C81 C82 1.388 1_455 S
C81 C85 1.382 . S
C81 H104 0.950 . S
C82 C81 1.388 1_655 S
C82 C83 1.386 . S
C83 C82 1.386 . S
C83 C84 1.382 . S
C83 H105 0.950 . S
C84 N80 1.332 1_655 S
C84 C83 1.382 . S
C84 H86 0.952 . S
C85 N80 1.332 . S
C85 C81 1.382 . S
C85 H87 0.948 . S
H86 C84 0.952 . S
H87 C85 0.948 . S
H88 C77 0.952 . S
H89 C79 0.905 1_655 S
C90 C56 1.395 . S
C90 C60 1.391 . S
C91 C53 1.389 1_455 S
C91 C73 1.392 . S
C92 C63 1.392 1_455 S
C92 C65 1.389 . S
C93 C68 1.395 . S
C93 C70 1.391 . S
H94 C54 0.951 . S
H95 C55 0.950 . S
H96 C61 0.949 . S
H97 C62 0.950 . S
H98 C66 0.951 . S
H99 C67 0.950 . S
H100 C71 0.949 . S
H101 C72 0.950 . S
H102 C76 0.950 . S
H103 C78 0.950 1_655 S
H104 C81 0.950 . S
H105 C83 0.950 . S
C106 C107 1.443 . S
C106 N110 1.376 . S
C106 C144 1.389 1_565 S
C107 C106 1.443 . S
C107 C108 1.340 . S
C107 H147 0.951 . S
C108 C107 1.340 . S
C108 C109 1.439 . S
C108 H148 0.950 . S
C109 C108 1.439 . S
C109 N110 1.374 . S
C109 C143 1.395 . S
N110 C106 1.376 . S
N110 C109 1.374 . S
N110 Co111 2.008 1_565 S
Co111 N110 2.008 1_545 S
Co111 N112 1.995 1_545 S
Co111 N117 2.008 . S
Co111 N122 1.995 . S
Co111 N127 2.282 . S
Co111 N133 2.282 . S
N112 Co111 1.995 1_565 S
N112 C113 1.376 . S
N112 C116 1.383 1_565 S
C113 N112 1.376 . S
C113 C114 1.446 . S
C113 C143 1.391 . S
C114 C113 1.446 . S
C114 C115 1.339 . S
C114 H149 0.949 . S
C115 C114 1.339 . S
C115 C116 1.439 1_565 S
C115 H150 0.950 . S
C116 N112 1.383 1_545 S
C116 C115 1.439 1_545 S
C116 C145 1.392 . S
N117 Co111 2.008 . S
N117 C118 1.376 . S
N117 C121 1.374 . S
C118 N117 1.376 . S
C118 C119 1.443 . S
C118 C145 1.389 . S
C119 C118 1.443 . S
C119 C120 1.340 . S
C119 H151 0.951 . S
C120 C119 1.340 . S
C120 C121 1.439 . S
C120 H152 0.950 . S
C121 N117 1.374 . S
C121 C120 1.439 . S
C121 C146 1.395 . S
N122 Co111 1.995 . S
N122 C123 1.376 . S
N122 C126 1.383 . S
C123 N122 1.376 . S
C123 C124 1.446 . S
C123 C146 1.391 . S
C124 C123 1.446 . S
C124 C125 1.339 . S
C124 H153 0.949 . S
C125 C124 1.339 . S
C125 C126 1.439 . S
C125 H154 0.950 . S
C126 N122 1.383 . S
C126 C125 1.439 . S
C126 C144 1.392 . S
N127 Co111 2.282 . S
N127 C130 1.332 . S
N127 C132 1.332 . S
C128 C129 1.386 . S
C128 C131 1.388 . S
C129 C128 1.386 . S
C129 C130 1.382 . S
C129 H155 0.950 . S
C130 N127 1.332 . S
C130 C129 1.382 . S
C130 H141 0.952 . S
C131 C128 1.388 . S
C131 C132 1.382 . S
C131 H156 0.961 . S
C132 N127 1.332 . S
C132 C131 1.382 . S
C132 H142 0.948 1_545 S
N133 Co111 2.282 . S
N133 C137 1.332 1_545 S
N133 C138 1.332 . S
C134 C135 1.388 1_545 S
C134 C138 1.382 . S
C134 H157 0.950 . S
C135 C134 1.388 1_565 S
C135 C136 1.386 . S
C136 C135 1.386 . S
C136 C137 1.382 . S
C136 H158 0.950 . S
C137 N133 1.332 1_565 S
C137 C136 1.382 . S
C137 H139 0.952 . S
C138 N133 1.332 . S
C138 C134 1.382 . S
C138 H140 0.948 . S
H139 C137 0.952 . S
H140 C138 0.948 . S
H141 C130 0.952 . S
H142 C132 0.948 1_565 S
C143 C109 1.395 . S
C143 C113 1.391 . S
C144 C106 1.389 1_545 S
C144 C126 1.392 . S
C145 C116 1.392 . S
C145 C118 1.389 . S
C146 C121 1.395 . S
C146 C123 1.391 . S
H147 C107 0.951 . S
H148 C108 0.950 . S
H149 C114 0.949 . S
H150 C115 0.950 . S
H151 C119 0.951 . S
H152 C120 0.950 . S
H153 C124 0.949 . S
H154 C125 0.950 . S
H155 C129 0.950 . S
H156 C131 0.961 . S
H157 C134 0.950 . S
H158 C136 0.950 . S
C159 C160 1.443 . S
C159 N163 1.376 . S
C159 C197 1.389 . S
C160 C159 1.443 . S
C160 C161 1.340 . S
C160 H200 0.951 . S
C161 C160 1.340 . S
C161 C162 1.439 . S
C161 H201 0.950 . S
C162 C161 1.439 . S
C162 N163 1.374 . S
C162 C196 1.395 . S
N163 C159 1.376 . S
N163 C162 1.374 . S
N163 Co164 2.008 . S
Co164 N163 2.008 . S
Co164 N165 1.995 . S
Co164 N170 2.008 . S
Co164 N175 1.995 . S
Co164 N180 2.282 . S
Co164 N186 2.282 . S
N165 Co164 1.995 . S
N165 C166 1.376 . S
N165 C169 1.383 . S
C166 N165 1.376 . S
C166 C167 1.446 . S
C166 C196 1.391 . S
C167 C166 1.446 . S
C167 C168 1.339 . S
C167 H202 0.949 . S
C168 C167 1.339 . S
C168 C169 1.439 . S
C168 H203 0.950 . S
C169 N165 1.383 . S
C169 C168 1.439 . S
C169 C198 1.392 . S
N170 Co164 2.008 . S
N170 C171 1.376 . S
N170 C174 1.374 . S
C171 N170 1.376 . S
C171 C172 1.443 . S
C171 C198 1.389 . S
C172 C171 1.443 . S
C172 C173 1.340 . S
C172 H204 0.951 . S
C173 C172 1.340 . S
C173 C174 1.439 . S
C173 H205 0.950 . S
C174 N170 1.374 . S
C174 C173 1.439 . S
C174 C199 1.395 . S
N175 Co164 1.995 . S
N175 C176 1.376 . S
N175 C179 1.383 . S
C176 N175 1.376 . S
C176 C177 1.446 . S
C176 C199 1.391 . S
C177 C176 1.446 . S
C177 C178 1.339 . S
C177 H206 0.949 . S
C178 C177 1.339 . S
C178 C179 1.439 . S
C178 H207 0.950 . S
C179 N175 1.383 . S
C179 C178 1.439 . S
C179 C197 1.392 . S
N180 Co164 2.282 . S
N180 C183 1.332 . S
N180 C185 1.332 . S
C181 C182 1.386 . S
C181 C184 1.388 . S
C182 C181 1.386 . S
C182 C183 1.382 . S
C182 H208 0.950 . S
C183 N180 1.332 . S
C183 C182 1.382 . S
C183 H194 0.952 . S
C184 C181 1.388 . S
C184 C185 1.382 . S
C184 H209 0.950 . S
C185 N180 1.332 . S
C185 C184 1.382 . S
C185 H195 0.948 . S
N186 Co164 2.282 . S
N186 C190 1.332 . S
N186 C191 1.332 . S
C187 C188 1.388 . S
C187 C191 1.382 . S
C187 H210 0.950 . S
C188 C187 1.388 . S
C188 C189 1.386 . S
C189 C188 1.386 . S
C189 C190 1.382 . S
C189 H211 0.950 . S
C190 N186 1.332 . S
C190 C189 1.382 . S
C190 H192 0.952 . S
C191 N186 1.332 . S
C191 C187 1.382 . S
C191 H193 0.948 . S
H192 C190 0.952 . S
H193 C191 0.948 . S
H194 C183 0.952 . S
H195 C185 0.948 . S
C196 C162 1.395 . S
C196 C166 1.391 . S
C197 C159 1.389 . S
C197 C179 1.392 . S
C198 C169 1.392 . S
C198 C171 1.389 . S
C199 C174 1.395 . S
C199 C176 1.391 . S
H200 C160 0.951 . S
H201 C161 0.950 . S
H202 C167 0.949 . S
H203 C168 0.950 . S
H204 C172 0.951 . S
H205 C173 0.950 . S
H206 C177 0.949 . S
H207 C178 0.950 . S
H208 C182 0.950 . S
H209 C184 0.950 . S
H210 C187 0.950 . S
H211 C189 0.950 . S
C212 C213 1.443 . S
C212 N216 1.376 . S
C212 C250 1.389 1_556 S
C213 C212 1.443 . S
C213 C214 1.340 . S
C213 H253 0.951 . S
C214 C213 1.340 . S
C214 C215 1.439 . S
C214 H254 0.950 . S
C215 C214 1.439 . S
C215 N216 1.374 . S
C215 C249 1.395 . S
N216 C212 1.376 . S
N216 C215 1.374 . S
N216 Co217 2.008 1_556 S
Co217 N216 2.008 1_554 S
Co217 N218 1.995 1_554 S
Co217 N223 2.008 . S
Co217 N228 1.995 . S
Co217 N233 2.282 . S
Co217 N239 2.282 . S
N218 Co217 1.995 1_556 S
N218 C219 1.376 . S
N218 C222 1.383 1_556 S
C219 N218 1.376 . S
C219 C220 1.446 . S
C219 C249 1.391 . S
C220 C219 1.446 . S
C220 C221 1.339 . S
C220 H255 0.949 . S
C221 C220 1.339 . S
C221 C222 1.439 1_556 S
C221 H256 0.950 . S
C222 N218 1.383 1_554 S
C222 C221 1.439 1_554 S
C222 C251 1.392 . S
N223 Co217 2.008 . S
N223 C224 1.376 . S
N223 C227 1.374 . S
C224 N223 1.376 . S
C224 C225 1.443 . S
C224 C251 1.389 . S
C225 C224 1.443 . S
C225 C226 1.340 . S
C225 H257 0.951 . S
C226 C225 1.340 . S
C226 C227 1.439 . S
C226 H258 0.950 . S
C227 N223 1.374 . S
C227 C226 1.439 . S
C227 C252 1.395 . S
N228 Co217 1.995 . S
N228 C229 1.376 . S
N228 C232 1.383 . S
C229 N228 1.376 . S
C229 C230 1.446 . S
C229 C252 1.391 . S
C230 C229 1.446 . S
C230 C231 1.339 . S
C230 H259 0.949 . S
C231 C230 1.339 . S
C231 C232 1.439 . S
C231 H260 0.950 . S
C232 N228 1.383 . S
C232 C231 1.439 . S
C232 C250 1.392 . S
N233 Co217 2.282 . S
N233 C236 1.332 . S
N233 C238 1.332 . S
C234 C235 1.386 . S
C234 C237 1.388 . S
C235 C234 1.386 . S
C235 C236 1.382 . S
C235 H261 0.950 . S
C236 N233 1.332 . S
C236 C235 1.382 . S
C236 H247 0.952 . S
C237 C234 1.388 . S
C237 C238 1.382 . S
C237 H262 0.950 1_554 S
C238 N233 1.332 . S
C238 C237 1.382 . S
C238 H248 0.948 1_554 S
N239 Co217 2.282 . S
N239 C243 1.332 1_554 S
N239 C244 1.332 . S
C240 C241 1.388 1_554 S
C240 C244 1.382 . S
C240 H263 0.950 . S
C241 C240 1.388 1_556 S
C241 C242 1.386 . S
C242 C241 1.386 . S
C242 C243 1.382 . S
C242 H264 0.950 . S
C243 N239 1.332 1_556 S
C243 C242 1.382 . S
C243 H245 0.952 . S
C244 N239 1.332 . S
C244 C240 1.382 . S
C244 H246 0.948 . S
H245 C243 0.952 . S
H246 C244 0.948 . S
H247 C236 0.952 . S
H248 C238 0.948 1_556 S
C249 C215 1.395 . S
C249 C219 1.391 . S
C250 C212 1.389 1_554 S
C250 C232 1.392 . S
C251 C222 1.392 . S
C251 C224 1.389 . S
C252 C227 1.395 . S
C252 C229 1.391 . S
H253 C213 0.951 . S
H254 C214 0.950 . S
H255 C220 0.949 . S
H256 C221 0.950 . S
H257 C225 0.951 . S
H258 C226 0.950 . S
H259 C230 0.949 . S
H260 C231 0.950 . S
H261 C235 0.950 . S
H262 C237 0.950 1_556 S
H263 C240 0.950 . S
H264 C242 0.950 . S
C265 C266 1.443 . S
C265 N269 1.376 . S
C265 C303 1.389 . S
C266 C265 1.443 . S
C266 C267 1.340 . S
C266 H306 0.951 . S
C267 C266 1.340 . S
C267 C268 1.439 . S
C267 H307 0.950 . S
C268 C267 1.439 . S
C268 N269 1.374 . S
C268 C302 1.395 . S
N269 C265 1.376 . S
N269 C268 1.374 . S
N269 Co270 2.008 . S
Co270 N269 2.008 . S
Co270 N271 1.995 . S
Co270 N276 2.008 . S
Co270 N281 1.995 . S
Co270 N286 2.282 . S
Co270 N292 2.282 . S
N271 Co270 1.995 . S
N271 C272 1.376 . S
N271 C275 1.383 . S
C272 N271 1.376 . S
C272 C273 1.446 . S
C272 C302 1.391 . S
C273 C272 1.446 . S
C273 C274 1.339 . S
C273 H308 0.949 . S
C274 C273 1.339 . S
C274 C275 1.439 . S
C274 H309 0.950 . S
C275 N271 1.383 . S
C275 C274 1.439 . S
C275 C304 1.392 . S
N276 Co270 2.008 . S
N276 C277 1.376 . S
N276 C280 1.374 . S
C277 N276 1.376 . S
C277 C278 1.443 . S
C277 C304 1.389 . S
C278 C277 1.443 . S
C278 C279 1.340 . S
C278 H310 0.951 . S
C279 C278 1.340 . S
C279 C280 1.439 . S
C279 H311 0.950 . S
C280 N276 1.374 . S
C280 C279 1.439 . S
C280 C305 1.395 . S
N281 Co270 1.995 . S
N281 C282 1.376 . S
N281 C285 1.383 . S
C282 N281 1.376 . S
C282 C283 1.446 . S
C282 C305 1.391 . S
C283 C282 1.446 . S
C283 C284 1.339 . S
C283 H312 0.949 . S
C284 C283 1.339 . S
C284 C285 1.439 . S
C284 H313 0.950 . S
C285 N281 1.383 . S
C285 C284 1.439 . S
C285 C303 1.392 . S
N286 Co270 2.282 . S
N286 C289 1.332 . S
N286 C291 1.332 . S
C287 C288 1.386 . S
C287 C290 1.388 . S
C288 C287 1.386 . S
C288 C289 1.382 . S
C288 H314 0.950 . S
C289 N286 1.332 . S
C289 C288 1.382 . S
C289 H300 0.952 . S
C290 C287 1.388 . S
C290 C291 1.382 . S
C290 H315 0.950 . S
C291 N286 1.332 . S
C291 C290 1.382 . S
C291 H301 0.948 . S
N292 Co270 2.282 . S
N292 C296 1.332 . S
N292 C297 1.332 . S
C293 C294 1.388 . S
C293 C297 1.382 . S
C293 H316 0.950 . S
C294 C293 1.388 . S
C294 C295 1.386 . S
C295 C294 1.386 . S
C295 C296 1.382 . S
C295 H317 0.950 . S
C296 N292 1.332 . S
C296 C295 1.382 . S
C296 H298 0.952 . S
C297 N292 1.332 . S
C297 C293 1.382 . S
C297 H299 0.948 . S
H298 C296 0.952 . S
H299 C297 0.948 . S
H300 C289 0.952 . S
H301 C291 0.948 . S
C302 C268 1.395 . S
C302 C272 1.391 . S
C303 C265 1.389 . S
C303 C285 1.392 . S
C304 C275 1.392 . S
C304 C277 1.389 . S
C305 C280 1.395 . S
C305 C282 1.391 . S
H306 C266 0.951 . S
H307 C267 0.950 . S
H308 C273 0.949 . S
H309 C274 0.950 . S
H310 C278 0.951 . S
H311 C279 0.950 . S
H312 C283 0.949 . S
H313 C284 0.950 . S
H314 C288 0.950 . S
H315 C290 0.950 . S
H316 C293 0.950 . S
H317 C295 0.950 . S
C318 C319 1.443 . S
C318 N322 1.376 . S
C318 C356 1.389 . S
C319 C318 1.443 . S
C319 C320 1.340 . S
C319 H359 0.951 . S
C320 C319 1.340 . S
C320 C321 1.439 . S
C320 H360 0.950 . S
C321 C320 1.439 . S
C321 N322 1.374 . S
C321 C355 1.395 . S
N322 C318 1.376 . S
N322 C321 1.374 . S
N322 Co323 2.008 . S
Co323 N322 2.008 . S
Co323 N324 1.995 . S
Co323 N329 2.008 . S
Co323 N334 1.995 . S
Co323 N339 2.282 . S
Co323 N345 2.282 . S
N324 Co323 1.995 . S
N324 C325 1.376 . S
N324 C328 1.383 . S
C325 N324 1.376 . S
C325 C326 1.446 . S
C325 C355 1.391 . S
C326 C325 1.446 . S
C326 C327 1.339 . S
C326 H361 0.949 . S
C327 C326 1.339 . S
C327 C328 1.439 . S
C327 H362 0.950 . S
C328 N324 1.383 . S
C328 C327 1.439 . S
C328 C357 1.392 . S
N329 Co323 2.008 . S
N329 C330 1.376 . S
N329 C333 1.374 . S
C330 N329 1.376 . S
C330 C331 1.443 . S
C330 C357 1.389 . S
C331 C330 1.443 . S
C331 C332 1.340 . S
C331 H363 0.951 . S
C332 C331 1.340 . S
C332 C333 1.439 . S
C332 H364 0.950 . S
C333 N329 1.374 . S
C333 C332 1.439 . S
C333 C358 1.395 . S
N334 Co323 1.995 . S
N334 C335 1.376 . S
N334 C338 1.383 . S
C335 N334 1.376 . S
C335 C336 1.446 . S
C335 C358 1.391 . S
C336 C335 1.446 . S
C336 C337 1.339 . S
C336 H365 0.949 . S
C337 C336 1.339 . S
C337 C338 1.439 . S
C337 H366 0.950 . S
C338 N334 1.383 . S
C338 C337 1.439 . S
C338 C356 1.392 . S
N339 Co323 2.282 . S
N339 C342 1.332 . S
N339 C344 1.332 . S
C340 C341 1.386 . S
C340 C343 1.388 . S
C341 C340 1.386 . S
C341 C342 1.382 . S
C341 H367 0.950 . S
C342 N339 1.332 . S
C342 C341 1.382 . S
C342 H353 0.952 . S
C343 C340 1.388 . S
C343 C344 1.382 . S
C343 H368 0.950 . S
C344 N339 1.332 . S
C344 C343 1.382 . S
C344 H354 0.948 . S
N345 Co323 2.282 . S
N345 C349 1.332 . S
N345 C350 1.332 . S
C346 C347 1.388 . S
C346 C350 1.382 . S
C346 H369 0.950 . S
C347 C346 1.388 . S
C347 C348 1.386 . S
C348 C347 1.386 . S
C348 C349 1.382 . S
C348 H370 0.950 . S
C349 N345 1.332 . S
C349 C348 1.382 . S
C349 H351 0.952 . S
C350 N345 1.332 . S
C350 C346 1.382 . S
C350 H352 0.948 . S
H351 C349 0.952 . S
H352 C350 0.948 . S
H353 C342 0.952 . S
H354 C344 0.948 . S
C355 C321 1.395 . S
C355 C325 1.391 . S
C356 C318 1.389 . S
C356 C338 1.392 . S
C357 C328 1.392 . S
C357 C330 1.389 . S
C358 C333 1.395 . S
C358 C335 1.391 . S
H359 C319 0.951 . S
H360 C320 0.950 . S
H361 C326 0.949 . S
H362 C327 0.950 . S
H363 C331 0.951 . S
H364 C332 0.950 . S
H365 C336 0.949 . S
H366 C337 0.950 . S
H367 C341 0.950 . S
H368 C343 0.950 . S
H369 C346 0.950 . S
H370 C348 0.950 . S
C371 C372 1.443 . S
C371 N375 1.376 . S
C371 C409 1.389 . S
C372 C371 1.443 . S
C372 C373 1.340 . S
C372 H412 0.951 . S
C373 C372 1.340 . S
C373 C374 1.439 . S
C373 H413 0.950 . S
C374 C373 1.439 . S
C374 N375 1.374 . S
C374 C408 1.395 . S
N375 C371 1.376 . S
N375 C374 1.374 . S
N375 Co376 2.008 . S
Co376 N375 2.008 . S
Co376 N377 1.995 . S
Co376 N382 2.008 . S
Co376 N387 1.995 . S
Co376 N392 2.282 . S
Co376 N398 2.282 . S
N377 Co376 1.995 . S
N377 C378 1.376 . S
N377 C381 1.383 . S
C378 N377 1.376 . S
C378 C379 1.446 . S
C378 C408 1.391 . S
C379 C378 1.446 . S
C379 C380 1.339 . S
C379 H414 0.949 . S
C380 C379 1.339 . S
C380 C381 1.439 . S
C380 H415 0.950 . S
C381 N377 1.383 . S
C381 C380 1.439 . S
C381 C410 1.392 . S
N382 Co376 2.008 . S
N382 C383 1.376 . S
N382 C386 1.374 . S
C383 N382 1.376 . S
C383 C384 1.443 . S
C383 C410 1.389 . S
C384 C383 1.443 . S
C384 C385 1.340 . S
C384 H416 0.951 . S
C385 C384 1.340 . S
C385 C386 1.439 . S
C385 H417 0.950 . S
C386 N382 1.374 . S
C386 C385 1.439 . S
C386 C411 1.395 . S
N387 Co376 1.995 . S
N387 C388 1.376 . S
N387 C391 1.383 . S
C388 N387 1.376 . S
C388 C389 1.446 . S
C388 C411 1.391 . S
C389 C388 1.446 . S
C389 C390 1.339 . S
C389 H418 0.949 . S
C390 C389 1.339 . S
C390 C391 1.439 . S
C390 H419 0.950 . S
C391 N387 1.383 . S
C391 C390 1.439 . S
C391 C409 1.392 . S
N392 Co376 2.282 . S
N392 C395 1.332 . S
N392 C397 1.332 . S
C393 C394 1.386 . S
C393 C396 1.388 . S
C394 C393 1.386 . S
C394 C395 1.382 . S
C394 H420 0.950 . S
C395 N392 1.332 . S
C395 C394 1.382 . S
C395 H406 0.952 . S
C396 C393 1.388 . S
C396 C397 1.382 . S
C396 H421 0.950 . S
C397 N392 1.332 . S
C397 C396 1.382 . S
C397 H407 0.948 . S
N398 Co376 2.282 . S
N398 C402 1.332 . S
N398 C403 1.332 . S
C399 C400 1.388 . S
C399 C403 1.382 . S
C399 H422 0.950 . S
C400 C399 1.388 . S
C400 C401 1.386 . S
C401 C400 1.386 . S
C401 C402 1.382 . S
C401 H423 0.950 . S
C402 N398 1.332 . S
C402 C401 1.382 . S
C402 H404 0.952 . S
C403 N398 1.332 . S
C403 C399 1.382 . S
C403 H405 0.948 . S
H404 C402 0.952 . S
H405 C403 0.948 . S
H406 C395 0.952 . S
H407 C397 0.948 . S
C408 C374 1.395 . S
C408 C378 1.391 . S
C409 C371 1.389 . S
C409 C391 1.392 . S
C410 C381 1.392 . S
C410 C383 1.389 . S
C411 C386 1.395 . S
C411 C388 1.391 . S
H412 C372 0.951 . S
H413 C373 0.950 . S
H414 C379 0.949 . S
H415 C380 0.950 . S
H416 C384 0.951 . S
H417 C385 0.950 . S
H418 C389 0.949 . S
H419 C390 0.950 . S
H420 C394 0.950 . S
H421 C396 0.950 . S
H422 C399 0.950 . S
H423 C401 0.950 . S
C424 C425 1.443 . S
C424 N428 1.376 . S
C424 C462 1.389 . S
C425 C424 1.443 . S
C425 C426 1.340 . S
C425 H465 0.951 . S
C426 C425 1.340 . S
C426 C427 1.439 . S
C426 H466 0.950 . S
C427 C426 1.439 . S
C427 N428 1.374 . S
C427 C461 1.395 . S
N428 C424 1.376 . S
N428 C427 1.374 . S
N428 Co429 2.008 . S
Co429 N428 2.008 . S
Co429 N430 1.995 . S
Co429 N435 2.008 . S
Co429 N440 1.995 . S
Co429 N445 2.282 . S
Co429 N451 2.282 . S
N430 Co429 1.995 . S
N430 C431 1.376 . S
N430 C434 1.383 . S
C431 N430 1.376 . S
C431 C432 1.446 . S
C431 C461 1.391 . S
C432 C431 1.446 . S
C432 C433 1.339 . S
C432 H467 0.949 . S
C433 C432 1.339 . S
C433 C434 1.439 . S
C433 H468 0.950 . S
C434 N430 1.383 . S
C434 C433 1.439 . S
C434 C463 1.392 . S
N435 Co429 2.008 . S
N435 C436 1.376 . S
N435 C439 1.374 . S
C436 N435 1.376 . S
C436 C437 1.443 . S
C436 C463 1.389 . S
C437 C436 1.443 . S
C437 C438 1.340 . S
C437 H469 0.951 . S
C438 C437 1.340 . S
C438 C439 1.439 . S
C438 H470 0.950 . S
C439 N435 1.374 . S
C439 C438 1.439 . S
C439 C464 1.395 . S
N440 Co429 1.995 . S
N440 C441 1.376 . S
N440 C444 1.383 . S
C441 N440 1.376 . S
C441 C442 1.446 . S
C441 C464 1.391 . S
C442 C441 1.446 . S
C442 C443 1.339 . S
C442 H471 0.949 . S
C443 C442 1.339 . S
C443 C444 1.439 . S
C443 H472 0.950 . S
C444 N440 1.383 . S
C444 C443 1.439 . S
C444 C462 1.392 . S
N445 Co429 2.282 . S
N445 C448 1.332 . S
N445 C450 1.332 . S
C446 C447 1.386 . S
C446 C449 1.388 . S
C447 C446 1.386 . S
C447 C448 1.382 . S
C447 H473 0.950 . S
C448 N445 1.332 . S
C448 C447 1.382 . S
C448 H459 0.952 . S
C449 C446 1.388 . S
C449 C450 1.382 . S
C449 H474 0.950 . S
C450 N445 1.332 . S
C450 C449 1.382 . S
C450 H460 0.948 . S
N451 Co429 2.282 . S
N451 C455 1.332 . S
N451 C456 1.332 . S
C452 C453 1.388 . S
C452 C456 1.382 . S
C452 H475 0.950 . S
C453 C452 1.388 . S
C453 C454 1.386 . S
C454 C453 1.386 . S
C454 C455 1.382 . S
C454 H476 0.950 . S
C455 N451 1.332 . S
C455 C454 1.382 . S
C455 H457 0.952 . S
C456 N451 1.332 . S
C456 C452 1.382 . S
C456 H458 0.948 . S
H457 C455 0.952 . S
H458 C456 0.948 . S
H459 C448 0.952 . S
H460 C450 0.948 . S
C461 C427 1.395 . S
C461 C431 1.391 . S
C462 C424 1.389 . S
C462 C444 1.392 . S
C463 C434 1.392 . S
C463 C436 1.389 . S
C464 C439 1.395 . S
C464 C441 1.391 . S
H465 C425 0.951 . S
H466 C426 0.950 . S
H467 C432 0.949 . S
H468 C433 0.950 . S
H469 C437 0.951 . S
H470 C438 0.950 . S
H471 C442 0.949 . S
H472 C443 0.950 . S
H473 C447 0.950 . S
H474 C449 0.950 . S
H475 C452 0.950 . S
H476 C454 0.950 . S
C477 C478 1.443 . S
C477 N481 1.376 . S
C477 C515 1.389 . S
C478 C477 1.443 . S
C478 C479 1.340 . S
C478 H518 0.951 . S
C479 C478 1.340 . S
C479 C480 1.439 . S
C479 H519 0.950 . S
C480 C479 1.439 . S
C480 N481 1.374 . S
C480 C514 1.395 . S
N481 C477 1.376 . S
N481 C480 1.374 . S
N481 Co482 2.008 . S
Co482 N481 2.008 . S
Co482 N483 1.995 . S
Co482 N488 2.008 . S
Co482 N493 1.995 . S
Co482 N498 2.282 . S
Co482 N504 2.282 . S
N483 Co482 1.995 . S
N483 C484 1.376 . S
N483 C487 1.383 . S
C484 N483 1.376 . S
C484 C485 1.446 . S
C484 C514 1.391 . S
C485 C484 1.446 . S
C485 C486 1.339 . S
C485 H520 0.949 . S
C486 C485 1.339 . S
C486 C487 1.439 . S
C486 H521 0.950 . S
C487 N483 1.383 . S
C487 C486 1.439 . S
C487 C516 1.392 . S
N488 Co482 2.008 . S
N488 C489 1.376 . S
N488 C492 1.374 . S
C489 N488 1.376 . S
C489 C490 1.443 . S
C489 C516 1.389 . S
C490 C489 1.443 . S
C490 C491 1.340 . S
C490 H522 0.951 . S
C491 C490 1.340 . S
C491 C492 1.439 . S
C491 H523 0.950 . S
C492 N488 1.374 . S
C492 C491 1.439 . S
C492 C517 1.395 . S
N493 Co482 1.995 . S
N493 C494 1.376 . S
N493 C497 1.383 . S
C494 N493 1.376 . S
C494 C495 1.446 . S
C494 C517 1.391 . S
C495 C494 1.446 . S
C495 C496 1.339 . S
C495 H524 0.949 . S
C496 C495 1.339 . S
C496 C497 1.439 . S
C496 H525 0.950 . S
C497 N493 1.383 . S
C497 C496 1.439 . S
C497 C515 1.392 . S
N498 Co482 2.282 . S
N498 C501 1.332 . S
N498 C503 1.332 . S
C499 C500 1.386 . S
C499 C502 1.388 . S
C500 C499 1.386 . S
C500 C501 1.382 . S
C500 H526 0.950 . S
C501 N498 1.332 . S
C501 C500 1.382 . S
C501 H512 0.952 . S
C502 C499 1.388 . S
C502 C503 1.382 . S
C502 H527 0.950 . S
C503 N498 1.332 . S
C503 C502 1.382 . S
C503 H513 0.948 . S
N504 Co482 2.282 . S
N504 C508 1.332 . S
N504 C509 1.332 . S
C505 C506 1.388 . S
C505 C509 1.382 . S
C505 H528 0.950 . S
C506 C505 1.388 . S
C506 C507 1.386 . S
C507 C506 1.386 . S
C507 C508 1.382 . S
C507 H529 0.950 . S
C508 N504 1.332 . S
C508 C507 1.382 . S
C508 H510 0.952 . S
C509 N504 1.332 . S
C509 C505 1.382 . S
C509 H511 0.948 . S
H510 C508 0.952 . S
H511 C509 0.948 . S
H512 C501 0.952 . S
H513 C503 0.948 . S
C514 C480 1.395 . S
C514 C484 1.391 . S
C515 C477 1.389 . S
C515 C497 1.392 . S
C516 C487 1.392 . S
C516 C489 1.389 . S
C517 C492 1.395 . S
C517 C494 1.391 . S
H518 C478 0.951 . S
H519 C479 0.950 . S
H520 C485 0.949 . S
H521 C486 0.950 . S
H522 C490 0.951 . S
H523 C491 0.950 . S
H524 C495 0.949 . S
H525 C496 0.950 . S
H526 C500 0.950 . S
H527 C502 0.950 . S
H528 C505 0.950 . S
H529 C507 0.950 . S
C530 C531 1.443 . S
C530 N534 1.376 . S
C530 C568 1.389 . S
C531 C530 1.443 . S
C531 C532 1.340 . S
C531 H571 0.951 . S
C532 C531 1.340 . S
C532 C533 1.439 . S
C532 H572 0.950 . S
C533 C532 1.439 . S
C533 N534 1.374 . S
C533 C567 1.395 . S
N534 C530 1.376 . S
N534 C533 1.374 . S
N534 Co535 2.008 . S
Co535 N534 2.008 . S
Co535 N536 1.995 . S
Co535 N541 2.008 1_545 S
Co535 N546 1.995 1_545 S
Co535 N551 2.282 . S
Co535 N557 2.282 . S
N536 Co535 1.995 . S
N536 C537 1.376 . S
N536 C540 1.383 . S
C537 N536 1.376 . S
C537 C538 1.446 . S
C537 C567 1.391 . S
C538 C537 1.446 . S
C538 C539 1.339 . S
C538 H573 0.949 . S
C539 C538 1.339 . S
C539 C540 1.439 . S
C539 H574 0.950 . S
C540 N536 1.383 . S
C540 C539 1.439 . S
C540 C569 1.392 1_545 S
N541 Co535 2.008 1_565 S
N541 C542 1.376 . S
N541 C545 1.374 . S
C542 N541 1.376 . S
C542 C543 1.443 . S
C542 C569 1.389 . S
C543 C542 1.443 . S
C543 C544 1.340 . S
C543 H575 0.951 . S
C544 C543 1.340 . S
C544 C545 1.439 . S
C544 H576 0.950 . S
C545 N541 1.374 . S
C545 C544 1.439 . S
C545 C570 1.395 . S
N546 Co535 1.995 1_565 S
N546 C547 1.376 . S
N546 C550 1.374 1_565 S
C547 N546 1.376 . S
C547 C548 1.446 . S
C547 C570 1.391 . S
C548 C547 1.446 . S
C548 C549 1.339 . S
C548 H577 0.949 . S
C549 C548 1.339 . S
C549 C550 1.420 1_565 S
C549 H578 0.950 . S
C550 N546 1.374 1_545 S
C550 C549 1.420 1_545 S
C550 C568 1.416 . S
N551 Co535 2.282 . S
N551 C554 1.332 1_545 S
N551 C556 1.332 . S
C552 C553 1.386 . S
C552 C555 1.388 1_565 S
C553 C552 1.386 . S
C553 C554 1.382 . S
C553 H579 0.950 . S
C554 N551 1.332 1_565 S
C554 C553 1.382 . S
C554 H565 0.952 . S
C555 C552 1.388 1_545 S
C555 C556 1.382 . S
C555 H580 0.950 . S
C556 N551 1.332 . S
C556 C555 1.382 . S
C556 H566 0.948 . S
N557 Co535 2.282 . S
N557 C561 1.332 . S
N557 C562 1.332 . S
C558 C559 1.388 . S
C558 C562 1.382 . S
C558 H581 0.950 1_545 S
C559 C558 1.388 . S
C559 C560 1.386 . S
C560 C559 1.386 . S
C560 C561 1.382 . S
C560 H582 0.950 . S
C561 N557 1.332 . S
C561 C560 1.382 . S
C561 H563 0.952 . S
C562 N557 1.332 . S
C562 C558 1.382 . S
C562 H564 0.948 1_545 S
H563 C561 0.952 . S
H564 C562 0.948 1_565 S
H565 C554 0.952 . S
H566 C556 0.948 . S
C567 C533 1.395 . S
C567 C537 1.391 . S
C568 C530 1.389 . S
C568 C550 1.416 . S
C569 C540 1.392 1_565 S
C569 C542 1.389 . S
C570 C545 1.395 . S
C570 C547 1.391 . S
H571 C531 0.951 . S
H572 C532 0.950 . S
H573 C538 0.949 . S
H574 C539 0.950 . S
H575 C543 0.951 . S
H576 C544 0.950 . S
H577 C548 0.949 . S
H578 C549 0.950 . S
H579 C553 0.950 . S
H580 C555 0.950 . S
H581 C558 0.950 1_565 S
H582 C560 0.950 . S
C583 C584 1.443 . S
C583 N587 1.376 . S
C583 C621 1.360 1_556 S
C584 C583 1.443 . S
C584 C585 1.340 . S
C584 H624 0.951 . S
C585 C584 1.340 . S
C585 C586 1.439 . S
C585 H625 0.950 . S
C586 C585 1.439 . S
C586 N587 1.374 . S
C586 C620 1.395 . S
N587 C583 1.376 . S
N587 C586 1.374 . S
N587 Co588 2.008 1_556 S
Co588 N587 2.008 1_554 S
Co588 N589 1.995 1_554 S
Co588 N594 2.008 . S
Co588 N599 1.995 . S
Co588 N604 2.282 . S
Co588 N610 2.282 . S
N589 Co588 1.995 1_556 S
N589 C590 1.376 . S
N589 C593 1.383 1_556 S
C590 N589 1.376 . S
C590 C591 1.446 . S
C590 C620 1.391 . S
C591 C590 1.446 . S
C591 C592 1.339 . S
C591 H626 0.949 . S
C592 C591 1.339 . S
C592 C593 1.439 1_556 S
C592 H627 0.950 . S
C593 N589 1.383 1_554 S
C593 C592 1.439 1_554 S
C593 C622 1.392 . S
N594 Co588 2.008 . S
N594 C595 1.376 . S
N594 C598 1.374 . S
C595 N594 1.376 . S
C595 C596 1.443 . S
C595 C622 1.389 . S
C596 C595 1.443 . S
C596 C597 1.340 . S
C596 H628 0.951 . S
C597 C596 1.340 . S
C597 C598 1.439 . S
C597 H629 0.950 . S
C598 N594 1.374 . S
C598 C597 1.439 . S
C598 C623 1.395 . S
N599 Co588 1.995 . S
N599 C600 1.376 . S
N599 C603 1.383 . S
C600 N599 1.376 . S
C600 C601 1.446 . S
C600 C623 1.391 . S
C601 C600 1.446 . S
C601 C602 1.339 . S
C601 H630 0.949 . S
C602 C601 1.339 . S
C602 C603 1.439 . S
C602 H631 0.950 . S
C603 N599 1.383 . S
C603 C602 1.439 . S
C603 C621 1.428 . S
N604 Co588 2.282 . S
N604 C607 1.332 . S
N604 C609 1.369 . S
C605 C606 1.386 . S
C605 C608 1.388 . S
C606 C605 1.386 . S
C606 C607 1.382 . S
C606 H632 0.950 . S
C607 N604 1.332 . S
C607 C606 1.382 . S
C607 H618 0.952 . S
C608 C605 1.388 . S
C608 C609 1.395 . S
C608 H633 0.950 1_554 S
C609 N604 1.369 . S
C609 C608 1.395 . S
C609 H619 0.897 1_554 S
N610 Co588 2.282 . S
N610 C614 1.332 1_554 S
N610 C615 1.332 . S
C611 C612 1.359 1_554 S
C611 C615 1.382 . S
C611 H634 0.950 . S
C612 C611 1.359 1_556 S
C612 C613 1.407 . S
C613 C612 1.407 . S
C613 C614 1.382 . S
C613 H635 0.950 . S
C614 N610 1.332 1_556 S
C614 C613 1.382 . S
C614 H616 0.952 . S
C615 N610 1.332 . S
C615 C611 1.382 . S
C615 H617 0.948 . S
H616 C614 0.952 . S
H617 C615 0.948 . S
H618 C607 0.952 . S
H619 C609 0.897 1_556 S
C620 C586 1.395 . S
C620 C590 1.391 . S
C621 C583 1.360 1_554 S
C621 C603 1.428 . S
C622 C593 1.392 . S
C622 C595 1.389 . S
C623 C598 1.395 . S
C623 C600 1.391 . S
H624 C584 0.951 . S
H625 C585 0.950 . S
H626 C591 0.949 . S
H627 C592 0.950 . S
H628 C596 0.951 . S
H629 C597 0.950 . S
H630 C601 0.949 . S
H631 C602 0.950 . S
H632 C606 0.950 . S
H633 C608 0.950 1_556 S
H634 C611 0.950 . S
H635 C613 0.950 . S
Co636 N641 2.057 . S
Co636 O653 2.021 . S
Co636 O656 2.062 . S
Co636 O660 2.117 . S
Co636 O661 2.020 . S
C637 O657 1.259 . S
C637 O660 1.258 . S
Co638 N647 2.057 . S
Co638 O654 2.117 . S
Co638 O655 2.020 . S
Co638 O657 2.021 . S
Co638 O662 2.062 . S
C639 N641 1.316 . S
C639 N642 1.347 1_545 S
C639 H644 0.931 1_545 S
C640 N641 1.375 . S
C640 C643 1.405 . S
C640 H645 0.930 . S
N641 Co636 2.057 . S
N641 C639 1.316 . S
N641 C640 1.375 . S
N642 C639 1.347 1_565 S
N642 C643 1.342 1_565 S
C643 C640 1.405 . S
C643 N642 1.342 1_545 S
C643 H664 0.914 1_545 S
H644 C639 0.931 1_565 S
H645 C640 0.930 . S
C646 O653 1.259 . S
C646 O654 1.258 . S
N647 Co638 2.057 . S
N647 C648 1.316 . S
N647 C649 1.375 . S
C648 N647 1.316 . S
C648 N650 1.347 . S
C648 H659 0.931 . S
C649 N647 1.375 . S
C649 C651 1.350 . S
C649 H658 0.930 . S
N650 C648 1.347 . S
N650 C651 1.373 . S
C651 C649 1.350 . S
C651 N650 1.373 . S
C651 H665 0.931 1_554 S
C652 O655 1.256 . S
C652 O656 1.255 . S
O653 Co636 2.021 . S
O653 C646 1.259 . S
O654 Co638 2.117 . S
O654 C646 1.258 . S
O655 Co638 2.020 . S
O655 C652 1.256 . S
O656 Co636 2.062 . S
O656 C652 1.255 . S
O657 C637 1.259 . S
O657 Co638 2.021 . S
H658 C649 0.930 . S
H659 C648 0.931 . S
O660 Co636 2.117 . S
O660 C637 1.258 . S
O661 Co636 2.020 . S
O661 C663 1.256 . S
O662 Co638 2.062 . S
O662 C663 1.255 . S
C663 O661 1.256 . S
C663 O662 1.255 . S
H664 C643 0.914 1_565 S
H665 C651 0.931 1_556 S
Co666 N671 2.057 . S
Co666 O683 2.021 . S
Co666 O686 2.062 . S
Co666 O690 2.117 . S
Co666 O691 2.020 . S
C667 O687 1.259 . S
C667 O690 1.258 . S
Co668 N677 2.057 . S
Co668 O684 2.117 . S
Co668 O685 2.020 . S
Co668 O687 2.021 . S
Co668 O692 2.062 . S
C669 N671 1.316 . S
C669 N672 1.347 . S
C669 H674 0.931 . S
C670 N671 1.375 . S
C670 C673 1.350 . S
C670 H675 0.930 . S
N671 Co666 2.057 . S
N671 C669 1.316 . S
N671 C670 1.375 . S
N672 C669 1.347 . S
N672 C673 1.373 . S
C673 C670 1.350 . S
C673 N672 1.373 . S
C673 H694 0.931 . S
H674 C669 0.931 . S
H675 C670 0.930 . S
C676 O683 1.259 . S
C676 O684 1.258 . S
N677 Co668 2.057 . S
N677 C678 1.316 1_554 S
N677 C679 1.375 1_554 S
C678 N677 1.316 1_556 S
C678 N680 1.347 . S
C678 H689 0.931 1_556 S
C679 N677 1.375 1_556 S
C679 C681 1.350 . S
C679 H688 0.930 . S
N680 C678 1.347 . S
N680 C681 1.373 . S
C681 C679 1.350 . S
C681 N680 1.373 . S
C681 H695 0.931 . S
C682 O685 1.256 . S
C682 O686 1.255 . S
O683 Co666 2.021 . S
O683 C676 1.259 . S
O684 Co668 2.117 . S
O684 C676 1.258 . S
O685 Co668 2.020 . S
O685 C682 1.256 . S
O686 Co666 2.062 . S
O686 C682 1.255 . S
O687 C667 1.259 . S
O687 Co668 2.021 . S
H688 C679 0.930 . S
H689 C678 0.931 1_554 S
O690 Co666 2.117 . S
O690 C667 1.258 . S
O691 Co666 2.020 . S
O691 C693 1.256 . S
O692 Co668 2.062 . S
O692 C693 1.255 . S
C693 O691 1.256 . S
C693 O692 1.255 . S
H694 C673 0.931 . S
H695 C681 0.931 . S
Co696 N701 2.057 . S
Co696 O713 2.021 . S
Co696 O716 2.062 . S
Co696 O720 2.117 . S
Co696 O721 2.020 . S
C697 O717 1.259 . S
C697 O720 1.258 . S
Co698 N707 2.057 . S
Co698 O714 2.117 . S
Co698 O715 2.020 . S
Co698 O717 2.021 . S
Co698 O722 2.062 . S
C699 N701 1.316 . S
C699 N702 1.347 . S
C699 H704 0.931 . S
C700 N701 1.375 . S
C700 C703 1.350 . S
C700 H705 0.930 . S
N701 Co696 2.057 . S
N701 C699 1.316 . S
N701 C700 1.375 . S
N702 C699 1.347 . S
N702 C703 1.373 . S
C703 C700 1.350 . S
C703 N702 1.373 . S
C703 H724 0.931 . S
H704 C699 0.931 . S
H705 C700 0.930 . S
C706 O713 1.259 . S
C706 O714 1.258 . S
N707 Co698 2.057 . S
N707 C708 1.316 . S
N707 C709 1.375 . S
C708 N707 1.316 . S
C708 N710 1.347 . S
C708 H719 0.931 . S
C709 N707 1.375 . S
C709 C711 1.350 . S
C709 H718 0.950 . S
N710 C708 1.347 . S
N710 C711 1.373 . S
C711 C709 1.350 . S
C711 N710 1.373 . S
C711 H725 0.931 1_455 S
C712 O715 1.256 . S
C712 O716 1.255 . S
O713 Co696 2.021 . S
O713 C706 1.259 . S
O714 Co698 2.117 . S
O714 C706 1.258 . S
O715 Co698 2.020 . S
O715 C712 1.256 . S
O716 Co696 2.062 . S
O716 C712 1.255 . S
O717 C697 1.259 . S
O717 Co698 2.021 . S
H718 C709 0.950 . S
H719 C708 0.931 . S
O720 Co696 2.117 . S
O720 C697 1.258 . S
O721 Co696 2.020 . S
O721 C723 1.256 . S
O722 Co698 2.062 . S
O722 C723 1.255 . S
C723 O721 1.256 . S
C723 O722 1.255 . S
H724 C703 0.931 . S
H725 C711 0.931 1_655 S
Co726 N731 2.057 . S
Co726 O743 2.021 . S
Co726 O746 2.062 . S
Co726 O750 2.117 . S
Co726 O751 2.020 . S
C727 O747 1.259 . S
C727 O750 1.258 . S
Co728 N737 2.057 . S
Co728 O744 2.117 . S
Co728 O745 2.020 . S
Co728 O747 2.021 . S
Co728 O752 2.062 . S
C729 N731 1.316 . S
C729 N732 1.347 . S
C729 H734 0.931 . S
C730 N731 1.375 . S
C730 C733 1.350 . S
C730 H735 0.930 . S
N731 Co726 2.057 . S
N731 C729 1.316 . S
N731 C730 1.375 . S
N732 C729 1.347 . S
N732 C733 1.373 . S
C733 C730 1.350 . S
C733 N732 1.373 . S
C733 H754 0.931 . S
H734 C729 0.931 . S
H735 C730 0.930 . S
C736 O743 1.259 . S
C736 O744 1.258 . S
N737 Co728 2.057 . S
N737 C738 1.316 . S
N737 C739 1.375 . S
C738 N737 1.316 . S
C738 N740 1.347 . S
C738 H749 0.931 . S
C739 N737 1.375 . S
C739 C741 1.350 . S
C739 H748 0.930 . S
N740 C738 1.347 . S
N740 C741 1.373 . S
C741 C739 1.350 . S
C741 N740 1.373 . S
C741 H755 0.931 . S
C742 O745 1.256 . S
C742 O746 1.255 . S
O743 Co726 2.021 . S
O743 C736 1.259 . S
O744 Co728 2.117 . S
O744 C736 1.258 . S
O745 Co728 2.020 . S
O745 C742 1.256 . S
O746 Co726 2.062 . S
O746 C742 1.255 . S
O747 C727 1.259 . S
O747 Co728 2.021 . S
H748 C739 0.930 . S
H749 C738 0.931 . S
O750 Co726 2.117 . S
O750 C727 1.258 . S
O751 Co726 2.020 . S
O751 C753 1.256 . S
O752 Co728 2.062 . S
O752 C753 1.255 . S
C753 O751 1.256 . S
C753 O752 1.255 . S
H754 C733 0.931 . S
H755 C741 0.931 . S
Co756 N761 2.057 . S
Co756 O773 2.021 . S
Co756 O776 2.062 . S
Co756 O780 2.117 . S
Co756 O781 2.020 . S
C757 O777 1.259 . S
C757 O780 1.258 . S
Co758 N767 2.057 . S
Co758 O774 2.117 . S
Co758 O775 2.020 . S
Co758 O777 2.021 . S
Co758 O782 2.062 . S
C759 N761 1.316 . S
C759 N762 1.347 . S
C759 H764 0.931 . S
C760 N761 1.375 . S
C760 C763 1.350 . S
C760 H765 0.930 . S
N761 Co756 2.057 . S
N761 C759 1.316 . S
N761 C760 1.375 . S
N762 C759 1.347 . S
N762 C763 1.373 . S
C763 C760 1.350 . S
C763 N762 1.373 . S
C763 H784 0.931 . S
H764 C759 0.931 . S
H765 C760 0.930 . S
C766 O773 1.259 . S
C766 O774 1.258 . S
N767 Co758 2.057 . S
N767 C768 1.316 . S
N767 C769 1.375 . S
C768 N767 1.316 . S
C768 N770 1.347 . S
C768 H779 0.931 . S
C769 N767 1.375 . S
C769 C771 1.350 . S
C769 H778 0.930 . S
N770 C768 1.347 . S
N770 C771 1.373 . S
C771 C769 1.350 . S
C771 N770 1.373 . S
C771 H785 0.931 . S
C772 O775 1.256 . S
C772 O776 1.255 . S
O773 Co756 2.021 . S
O773 C766 1.259 . S
O774 Co758 2.117 . S
O774 C766 1.258 . S
O775 Co758 2.020 . S
O775 C772 1.256 . S
O776 Co756 2.062 . S
O776 C772 1.255 . S
O777 C757 1.259 . S
O777 Co758 2.021 . S
H778 C769 0.930 . S
H779 C768 0.931 . S
O780 Co756 2.117 . S
O780 C757 1.258 . S
O781 Co756 2.020 . S
O781 C783 1.256 . S
O782 Co758 2.062 . S
O782 C783 1.255 . S
C783 O781 1.256 . S
C783 O782 1.255 . S
H784 C763 0.931 . S
H785 C771 0.931 . S
Co786 N791 2.057 . S
Co786 O803 2.021 . S
Co786 O806 2.062 . S
Co786 O810 2.117 . S
Co786 O811 2.020 . S
C787 O807 1.259 . S
C787 O810 1.258 . S
Co788 N797 2.057 . S
Co788 O804 2.117 . S
Co788 O805 2.020 . S
Co788 O807 2.021 . S
Co788 O812 2.062 . S
C789 N791 1.316 . S
C789 N792 1.347 . S
C789 H794 0.931 . S
C790 N791 1.375 . S
C790 C793 1.350 . S
C790 H795 0.930 . S
N791 Co786 2.057 . S
N791 C789 1.316 . S
N791 C790 1.375 . S
N792 C789 1.347 . S
N792 C793 1.373 . S
C793 C790 1.350 . S
C793 N792 1.373 . S
C793 H814 0.931 . S
H794 C789 0.931 . S
H795 C790 0.930 . S
C796 O803 1.259 . S
C796 O804 1.258 . S
N797 Co788 2.057 . S
N797 C798 1.316 . S
N797 C799 1.375 . S
C798 N797 1.316 . S
C798 N800 1.347 . S
C798 H809 0.931 . S
C799 N797 1.375 . S
C799 C801 1.350 . S
C799 H808 0.930 . S
N800 C798 1.347 . S
N800 C801 1.373 . S
C801 C799 1.350 . S
C801 N800 1.373 . S
C801 H815 0.931 . S
C802 O805 1.256 . S
C802 O806 1.255 . S
O803 Co786 2.021 . S
O803 C796 1.259 . S
O804 Co788 2.117 . S
O804 C796 1.258 . S
O805 Co788 2.020 . S
O805 C802 1.256 . S
O806 Co786 2.062 . S
O806 C802 1.255 . S
O807 C787 1.259 . S
O807 Co788 2.021 . S
H808 C799 0.930 . S
H809 C798 0.931 . S
O810 Co786 2.117 . S
O810 C787 1.258 . S
O811 Co786 2.020 . S
O811 C813 1.256 . S
O812 Co788 2.062 . S
O812 C813 1.255 . S
C813 O811 1.256 . S
C813 O812 1.255 . S
H814 C793 0.931 . S
H815 C801 0.931 . S
Co816 N821 2.057 . S
Co816 O833 2.021 . S
Co816 O836 2.062 . S
Co816 O840 2.117 . S
Co816 O841 2.020 . S
C817 O837 1.259 . S
C817 O840 1.258 . S
Co818 N827 2.057 . S
Co818 O834 2.117 . S
Co818 O835 2.020 . S
Co818 O837 2.021 . S
Co818 O842 2.062 . S
C819 N821 1.316 1_554 S
C819 N822 1.347 . S
C819 H824 0.931 . S
C820 N821 1.375 . S
C820 C823 1.350 1_556 S
C820 H825 0.930 . S
N821 Co816 2.057 . S
N821 C819 1.316 1_556 S
N821 C820 1.375 . S
N822 C819 1.347 . S
N822 C823 1.373 . S
C823 C820 1.350 1_554 S
C823 N822 1.373 . S
C823 H844 0.931 . S
H824 C819 0.931 . S
H825 C820 0.930 . S
C826 O833 1.259 . S
C826 O834 1.258 . S
N827 Co818 2.057 . S
N827 C828 1.316 . S
N827 C829 1.375 . S
C828 N827 1.316 . S
C828 N830 1.347 . S
C828 H839 0.931 . S
C829 N827 1.375 . S
C829 C831 1.350 . S
C829 H838 0.930 . S
N830 C828 1.347 . S
N830 C831 1.373 . S
C831 C829 1.350 . S
C831 N830 1.373 . S
C831 H845 0.931 . S
C832 O835 1.256 . S
C832 O836 1.255 . S
O833 Co816 2.021 . S
O833 C826 1.259 . S
O834 Co818 2.117 . S
O834 C826 1.258 . S
O835 Co818 2.020 . S
O835 C832 1.256 . S
O836 Co816 2.062 . S
O836 C832 1.255 . S
O837 C817 1.259 . S
O837 Co818 2.021 . S
H838 C829 0.930 . S
H839 C828 0.931 . S
O840 Co816 2.117 . S
O840 C817 1.258 . S
O841 Co816 2.020 . S
O841 C843 1.256 . S
O842 Co818 2.062 . S
O842 C843 1.255 . S
C843 O841 1.256 . S
C843 O842 1.255 . S
H844 C823 0.931 . S
H845 C831 0.931 . S
Co846 N851 2.057 . S
Co846 O863 2.021 . S
Co846 O866 2.062 . S
Co846 O870 2.117 . S
Co846 O871 2.020 . S
C847 O867 1.259 . S
C847 O870 1.258 . S
Co848 N857 2.057 . S
Co848 O864 2.117 . S
Co848 O865 2.020 . S
Co848 O867 2.021 . S
Co848 O872 2.062 . S
C849 N851 1.316 . S
C849 N852 1.347 . S
C849 H854 0.931 . S
C850 N851 1.375 . S
C850 C853 1.350 . S
C850 H855 0.930 . S
N851 Co846 2.057 . S
N851 C849 1.316 . S
N851 C850 1.375 . S
N852 C849 1.347 . S
N852 C853 1.373 . S
C853 C850 1.350 . S
C853 N852 1.373 . S
C853 H874 0.931 . S
H854 C849 0.931 . S
H855 C850 0.930 . S
C856 O863 1.259 . S
C856 O864 1.258 . S
N857 Co848 2.057 . S
N857 C858 1.316 . S
N857 C859 1.375 . S
C858 N857 1.316 . S
C858 N860 1.347 1_545 S
C858 H869 0.931 . S
C859 N857 1.375 . S
C859 C861 1.350 1_545 S
C859 H868 0.930 . S
N860 C858 1.347 1_565 S
N860 C861 1.373 . S
C861 C859 1.350 1_565 S
C861 N860 1.373 . S
C861 H875 0.931 . S
C862 O865 1.256 . S
C862 O866 1.255 . S
O863 Co846 2.021 . S
O863 C856 1.259 . S
O864 Co848 2.117 . S
O864 C856 1.258 . S
O865 Co848 2.020 . S
O865 C862 1.256 . S
O866 Co846 2.062 . S
O866 C862 1.255 . S
O867 C847 1.259 . S
O867 Co848 2.021 . S
H868 C859 0.930 . S
H869 C858 0.931 . S
O870 Co846 2.117 . S
O870 C847 1.258 . S
O871 Co846 2.020 . S
O871 C873 1.256 . S
O872 Co848 2.062 . S
O872 C873 1.255 . S
C873 O871 1.256 . S
C873 O872 1.255 . S
H874 C853 0.931 . S
H875 C861 0.931 . S
H876 C894 0.951 . S
H877 C896 0.951 . S
H878 C898 0.950 . S
H879 C899 0.950 . S
H880 C901 0.950 . S
H881 C904 0.950 . S
H882 C905 0.950 . S
H883 C907 0.950 . S
H884 C908 0.950 . S
H885 C909 0.951 . S
H886 C911 0.951 . S
H887 C913 0.950 . S
H888 C914 0.954 . S
H889 C916 0.950 . S
H890 C919 0.950 . S
H891 C920 0.950 1_565 S
H892 C922 0.950 . S
H893 C923 0.950 . S
C894 H876 0.951 . S
C894 C895 1.366 . S
C894 C896 1.388 . S
C895 C894 1.366 . S
C895 C899 1.385 . S
C896 H877 0.951 . S
C896 C894 1.388 . S
C896 C897 1.366 . S
C897 C896 1.366 . S
C897 C898 1.414 . S
C897 C900 1.499 . S
C898 H878 0.950 . S
C898 C897 1.414 . S
C898 C899 1.374 . S
C899 H879 0.950 . S
C899 C895 1.385 . S
C899 C898 1.374 . S
C900 C897 1.499 . S
C900 C901 1.373 . S
C900 C902 1.389 . S
C901 H880 0.950 . S
C901 C900 1.373 . S
C901 C917 1.377 . S
C902 C900 1.389 . S
C902 C903 1.524 . S
C902 C916 1.377 . S
C903 C902 1.524 . S
C903 C904 1.397 . S
C903 C908 1.363 . S
C904 H881 0.950 . S
C904 C903 1.397 . S
C904 C905 1.334 . S
C905 H882 0.950 . S
C905 C904 1.334 . S
C905 C906 1.287 . S
C906 C905 1.287 . S
C906 C907 1.524 . S
C906 H925 0.913 . S
C907 H883 0.950 . S
C907 C906 1.524 . S
C907 C908 1.415 . S
C908 H884 0.950 . S
C908 C903 1.363 . S
C908 C907 1.415 . S
C909 H885 0.951 . S
C909 C910 1.366 . S
C909 C911 1.388 1_565 S
C910 C909 1.366 . S
C910 C914 1.393 . S
C911 H886 0.951 . S
C911 C909 1.388 1_545 S
C911 C912 1.366 . S
C912 C911 1.366 . S
C912 C913 1.414 . S
C912 C915 1.499 . S
C913 H887 0.950 . S
C913 C912 1.414 . S
C913 C914 1.362 1_545 S
C914 H888 0.954 . S
C914 C910 1.393 . S
C914 C913 1.362 1_565 S
C915 C912 1.499 . S
C915 C916 1.373 . S
C915 C917 1.389 . S
C916 H889 0.950 . S
C916 C902 1.377 . S
C916 C915 1.373 . S
C917 C901 1.377 . S
C917 C915 1.389 . S
C917 C918 1.524 . S
C918 C917 1.524 . S
C918 C919 1.397 . S
C918 C923 1.363 . S
C919 H890 0.950 . S
C919 C918 1.397 . S
C919 C920 1.334 . S
C920 H891 0.950 1_545 S
C920 C919 1.334 . S
C920 C921 1.287 . S
C921 C920 1.287 . S
C921 C922 1.524 . S
C921 H924 0.999 1_545 S
C922 H892 0.950 . S
C922 C921 1.524 . S
C922 C923 1.415 . S
C923 H893 0.950 . S
C923 C918 1.363 . S
C923 C922 1.415 . S
H924 C921 0.999 1_565 S
H925 C906 0.913 . S
H926 C944 0.951 . S
H927 C946 0.951 . S
H928 C948 0.950 . S
H929 C949 0.950 . S
H930 C951 0.950 . S
H931 C954 0.950 . S
H932 C955 0.950 . S
H933 C957 0.950 . S
H934 C958 0.950 . S
H935 C959 0.951 . S
H936 C961 0.947 1_455 S
H937 C963 0.950 . S
H938 C964 0.950 . S
H939 C966 0.950 . S
H940 C969 0.950 . S
H941 C970 0.950 . S
H942 C972 0.950 . S
H943 C973 0.950 . S
C944 H926 0.951 . S
C944 C945 1.366 . S
C944 C946 1.388 . S
C945 C944 1.366 . S
C945 C949 1.385 . S
C946 H927 0.951 . S
C946 C944 1.388 . S
C946 C947 1.366 . S
C947 C946 1.366 . S
C947 C948 1.414 . S
C947 C950 1.499 . S
C948 H928 0.950 . S
C948 C947 1.414 . S
C948 C949 1.374 . S
C949 H929 0.950 . S
C949 C945 1.385 . S
C949 C948 1.374 . S
C950 C947 1.499 . S
C950 C951 1.373 . S
C950 C952 1.389 1_455 S
C951 H930 0.950 . S
C951 C950 1.373 . S
C951 C967 1.377 . S
C952 C950 1.389 1_655 S
C952 C953 1.524 . S
C952 C966 1.377 . S
C953 C952 1.524 . S
C953 C954 1.397 . S
C953 C958 1.363 . S
C954 H931 0.950 . S
C954 C953 1.397 . S
C954 C955 1.334 . S
C955 H932 0.950 . S
C955 C954 1.334 . S
C955 C956 1.287 . S
C956 C955 1.287 . S
C956 C957 1.524 . S
C956 H975 0.913 . S
C957 H933 0.950 . S
C957 C956 1.524 . S
C957 C958 1.415 . S
C958 H934 0.950 . S
C958 C953 1.363 . S
C958 C957 1.415 . S
C959 H935 0.951 . S
C959 C960 1.366 . S
C959 C961 1.395 . S
C960 C959 1.366 . S
C960 C964 1.385 . S
C961 H936 0.947 1_655 S
C961 C959 1.395 . S
C961 C962 1.364 . S
C962 C961 1.364 . S
C962 C963 1.416 . S
C962 C965 1.497 1_655 S
C963 H937 0.950 . S
C963 C962 1.416 . S
C963 C964 1.374 . S
C964 H938 0.950 . S
C964 C960 1.385 . S
C964 C963 1.374 . S
C965 C962 1.497 1_455 S
C965 C966 1.373 1_455 S
C965 C967 1.389 . S
C966 H939 0.950 . S
C966 C952 1.377 . S
C966 C965 1.373 1_655 S
C967 C951 1.377 . S
C967 C965 1.389 . S
C967 C968 1.524 . S
C968 C967 1.524 . S
C968 C969 1.397 . S
C968 C973 1.363 . S
C969 H940 0.950 . S
C969 C968 1.397 . S
C969 C970 1.334 . S
C970 H941 0.950 . S
C970 C969 1.334 . S
C970 C971 1.287 . S
C971 C970 1.287 . S
C971 C972 1.524 . S
C971 H974 0.999 . S
C972 H942 0.950 . S
C972 C971 1.524 . S
C972 C973 1.415 . S
C973 H943 0.950 . S
C973 C968 1.363 . S
C973 C972 1.415 . S
H974 C971 0.999 . S
H975 C956 0.913 . S
H976 C994 0.951 . S
H977 C996 0.951 . S
H978 C998 0.950 . S
H979 C999 0.950 . S
H980 C1001 0.950 1_655 S
H981 C1004 0.950 . S
H982 C1005 0.950 . S
H983 C1007 0.950 . S
H984 C1008 0.950 . S
H985 C1009 0.951 . S
H986 C1011 0.951 . S
H987 C1013 0.950 . S
H988 C1014 0.950 . S
H989 C1016 0.950 . S
H990 C1019 0.950 . S
H991 C1020 0.950 . S
H992 C1022 0.950 . S
H993 C1023 0.950 . S
C994 H976 0.951 . S
C994 C995 1.366 . S
C994 C996 1.388 . S
C995 C994 1.366 . S
C995 C999 1.385 . S
C996 H977 0.951 . S
C996 C994 1.388 . S
C996 C997 1.366 . S
C997 C996 1.366 . S
C997 C998 1.414 . S
C997 C1000 1.499 . S
C998 H978 0.950 . S
C998 C997 1.414 . S
C998 C999 1.374 . S
C999 H979 0.950 . S
C999 C995 1.385 . S
C999 C998 1.374 . S
C1000 C997 1.499 . S
C1000 C1001 1.373 . S
C1000 C1002 1.389 . S
C1001 H980 0.950 1_455 S
C1001 C1000 1.373 . S
C1001 C1017 1.377 . S
C1002 C1000 1.389 . S
C1002 C1003 1.524 . S
C1002 C1016 1.377 . S
C1003 C1002 1.524 . S
C1003 C1004 1.397 . S
C1003 C1008 1.363 . S
C1004 H981 0.950 . S
C1004 C1003 1.397 . S
C1004 C1005 1.334 . S
C1005 H982 0.950 . S
C1005 C1004 1.334 . S
C1005 C1006 1.287 . S
C1006 C1005 1.287 . S
C1006 C1007 1.524 . S
C1006 H1025 0.913 . S
C1007 H983 0.950 . S
C1007 C1006 1.524 . S
C1007 C1008 1.415 . S
C1008 H984 0.950 . S
C1008 C1003 1.363 . S
C1008 C1007 1.415 . S
C1009 H985 0.951 . S
C1009 C1010 1.366 . S
C1009 C1011 1.388 . S
C1010 C1009 1.366 . S
C1010 C1014 1.385 . S
C1011 H986 0.951 . S
C1011 C1009 1.388 . S
C1011 C1012 1.366 . S
C1012 C1011 1.366 . S
C1012 C1013 1.414 . S
C1012 C1015 1.499 . S
C1013 H987 0.950 . S
C1013 C1012 1.414 . S
C1013 C1014 1.374 . S
C1014 H988 0.950 . S
C1014 C1010 1.385 . S
C1014 C1013 1.374 . S
C1015 C1012 1.499 . S
C1015 C1016 1.373 . S
C1015 C1017 1.389 . S
C1016 H989 0.950 . S
C1016 C1002 1.377 . S
C1016 C1015 1.373 . S
C1017 C1001 1.377 . S
C1017 C1015 1.389 . S
C1017 C1018 1.524 1_455 S
C1018 C1017 1.524 1_655 S
C1018 C1019 1.397 . S
C1018 C1023 1.363 . S
C1019 H990 0.950 . S
C1019 C1018 1.397 . S
C1019 C1020 1.334 . S
C1020 H991 0.950 . S
C1020 C1019 1.334 . S
C1020 C1021 1.287 . S
C1021 C1020 1.287 . S
C1021 C1022 1.524 . S
C1021 H1024 0.999 . S
C1022 H992 0.950 . S
C1022 C1021 1.524 . S
C1022 C1023 1.415 . S
C1023 H993 0.950 . S
C1023 C1018 1.363 . S
C1023 C1022 1.415 . S
H1024 C1021 0.999 . S
H1025 C1006 0.913 . S
H1026 C1044 0.951 . S
H1027 C1046 0.951 . S
H1028 C1048 0.950 . S
H1029 C1049 0.950 . S
H1030 C1051 0.950 . S
H1031 C1054 0.950 . S
H1032 C1055 0.950 . S
H1033 C1057 0.950 . S
H1034 C1058 0.950 . S
H1035 C1059 0.951 . S
H1036 C1061 0.934 1_455 S
H1037 C1063 0.950 . S
H1038 C1064 0.950 . S
H1039 C1066 0.950 . S
H1040 C1069 0.950 . S
H1041 C1070 0.950 . S
H1042 C1072 0.950 . S
H1043 C1073 0.950 . S
C1044 H1026 0.951 . S
C1044 C1045 1.366 . S
C1044 C1046 1.388 . S
C1045 C1044 1.366 . S
C1045 C1049 1.385 1_655 S
C1046 H1027 0.951 . S
C1046 C1044 1.388 . S
C1046 C1047 1.366 . S
C1047 C1046 1.366 . S
C1047 C1048 1.414 1_655 S
C1047 C1050 1.499 . S
C1048 H1028 0.950 . S
C1048 C1047 1.414 1_455 S
C1048 C1049 1.374 . S
C1049 H1029 0.950 . S
C1049 C1045 1.385 1_455 S
C1049 C1048 1.374 . S
C1050 C1047 1.499 . S
C1050 C1051 1.373 1_655 S
C1050 C1052 1.389 . S
C1051 H1030 0.950 . S
C1051 C1050 1.373 1_455 S
C1051 C1067 1.382 . S
C1052 C1050 1.389 . S
C1052 C1053 1.524 . S
C1052 C1066 1.377 . S
C1053 C1052 1.524 . S
C1053 C1054 1.397 . S
C1053 C1058 1.363 . S
C1054 H1031 0.950 . S
C1054 C1053 1.397 . S
C1054 C1055 1.334 . S
C1055 H1032 0.950 . S
C1055 C1054 1.334 . S
C1055 C1056 1.287 . S
C1056 C1055 1.287 . S
C1056 C1057 1.524 . S
C1056 H1075 0.913 . S
C1057 H1033 0.950 . S
C1057 C1056 1.524 . S
C1057 C1058 1.415 . S
C1058 H1034 0.950 . S
C1058 C1053 1.363 . S
C1058 C1057 1.415 . S
C1059 H1035 0.951 . S
C1059 C1060 1.366 . S
C1059 C1061 1.388 . S
C1060 C1059 1.366 . S
C1060 C1064 1.385 . S
C1061 H1036 0.934 1_655 S
C1061 C1059 1.388 . S
C1061 C1062 1.366 . S
C1062 C1061 1.366 . S
C1062 C1063 1.414 . S
C1062 C1065 1.499 . S
C1063 H1037 0.950 . S
C1063 C1062 1.414 . S
C1063 C1064 1.374 . S
C1064 H1038 0.950 . S
C1064 C1060 1.385 . S
C1064 C1063 1.374 . S
C1065 C1062 1.499 . S
C1065 C1066 1.373 . S
C1065 C1067 1.348 1_655 S
C1066 H1039 0.950 . S
C1066 C1052 1.377 . S
C1066 C1065 1.373 . S
C1067 C1051 1.382 . S
C1067 C1065 1.348 1_455 S
C1067 C1068 1.563 . S
C1068 C1067 1.563 . S
C1068 C1069 1.397 . S
C1068 C1073 1.363 . S
C1069 H1040 0.950 . S
C1069 C1068 1.397 . S
C1069 C1070 1.334 . S
C1070 H1041 0.950 . S
C1070 C1069 1.334 . S
C1070 C1071 1.287 . S
C1071 C1070 1.287 . S
C1071 C1072 1.524 . S
C1071 H1074 0.999 . S
C1072 H1042 0.950 . S
C1072 C1071 1.524 . S
C1072 C1073 1.415 . S
C1073 H1043 0.950 . S
C1073 C1068 1.363 . S
C1073 C1072 1.415 . S
H1074 C1071 0.999 . S
H1075 C1056 0.913 . S
H1076 C1094 0.951 . S
H1077 C1096 0.951 . S
H1078 C1098 0.950 . S
H1079 C1099 0.950 . S
H1080 C1101 0.950 . S
H1081 C1104 0.950 . S
H1082 C1105 0.950 . S
H1083 C1107 0.950 . S
H1084 C1108 0.950 . S
H1085 C1109 0.951 1_556 S
H1086 C1111 0.951 . S
H1087 C1113 0.950 . S
H1088 C1114 0.950 . S
H1089 C1116 0.950 . S
H1090 C1119 0.950 . S
H1091 C1120 0.950 . S
H1092 C1122 0.950 . S
H1093 C1123 0.950 . S
C1094 H1076 0.951 . S
C1094 C1095 1.366 . S
C1094 C1096 1.388 . S
C1095 C1094 1.366 . S
C1095 C1099 1.385 . S
C1096 H1077 0.951 . S
C1096 C1094 1.388 . S
C1096 C1097 1.366 . S
C1097 C1096 1.366 . S
C1097 C1098 1.414 . S
C1097 C1100 1.499 . S
C1098 H1078 0.950 . S
C1098 C1097 1.414 . S
C1098 C1099 1.374 . S
C1099 H1079 0.950 . S
C1099 C1095 1.385 . S
C1099 C1098 1.374 . S
C1100 C1097 1.499 . S
C1100 C1101 1.373 . S
C1100 C1102 1.389 . S
C1101 H1080 0.950 . S
C1101 C1100 1.373 . S
C1101 C1117 1.377 . S
C1102 C1100 1.389 . S
C1102 C1103 1.524 . S
C1102 C1116 1.377 . S
C1103 C1102 1.524 . S
C1103 C1104 1.397 . S
C1103 C1108 1.363 . S
C1104 H1081 0.950 . S
C1104 C1103 1.397 . S
C1104 C1105 1.334 . S
C1105 H1082 0.950 . S
C1105 C1104 1.334 . S
C1105 C1106 1.287 . S
C1106 C1105 1.287 . S
C1106 C1107 1.524 . S
C1106 H1125 0.913 . S
C1107 H1083 0.950 . S
C1107 C1106 1.524 . S
C1107 C1108 1.415 . S
C1108 H1084 0.950 . S
C1108 C1103 1.363 . S
C1108 C1107 1.415 . S
C1109 H1085 0.951 1_554 S
C1109 C1110 1.366 1_554 S
C1109 C1111 1.388 . S
C1110 C1109 1.366 1_556 S
C1110 C1114 1.385 1_556 S
C1111 H1086 0.951 . S
C1111 C1109 1.388 . S
C1111 C1112 1.366 . S
C1112 C1111 1.366 . S
C1112 C1113 1.414 . S
C1112 C1115 1.499 . S
C1113 H1087 0.950 . S
C1113 C1112 1.414 . S
C1113 C1114 1.374 . S
C1114 H1088 0.950 . S
C1114 C1110 1.385 1_554 S
C1114 C1113 1.374 . S
C1115 C1112 1.499 . S
C1115 C1116 1.373 . S
C1115 C1117 1.389 . S
C1116 H1089 0.950 . S
C1116 C1102 1.377 . S
C1116 C1115 1.373 . S
C1117 C1101 1.377 . S
C1117 C1115 1.389 . S
C1117 C1118 1.524 . S
C1118 C1117 1.524 . S
C1118 C1119 1.397 . S
C1118 C1123 1.363 1_545 S
C1119 H1090 0.950 . S
C1119 C1118 1.397 . S
C1119 C1120 1.334 . S
C1120 H1091 0.950 . S
C1120 C1119 1.334 . S
C1120 C1121 1.287 1_545 S
C1121 C1120 1.287 1_565 S
C1121 C1122 1.524 . S
C1121 H1124 0.999 . S
C1122 H1092 0.950 . S
C1122 C1121 1.524 . S
C1122 C1123 1.415 . S
C1123 H1093 0.950 . S
C1123 C1118 1.363 1_565 S
C1123 C1122 1.415 . S
H1124 C1121 0.999 . S
H1125 C1106 0.913 . S
H1126 C1144 0.951 . S
H1127 C1146 0.951 . S
H1128 C1148 0.950 . S
H1129 C1149 0.950 . S
H1130 C1151 0.950 . S
H1131 C1154 0.950 . S
H1132 C1155 0.950 . S
H1133 C1157 0.950 . S
H1134 C1158 0.950 . S
H1135 C1159 0.951 . S
H1136 C1161 0.951 . S
H1137 C1163 0.950 . S
H1138 C1164 0.950 . S
H1139 C1166 0.950 . S
H1140 C1169 0.950 . S
H1141 C1170 0.950 . S
H1142 C1172 0.950 . S
H1143 C1173 0.950 . S
C1144 H1126 0.951 . S
C1144 C1145 1.366 . S
C1144 C1146 1.388 . S
C1145 C1144 1.366 . S
C1145 C1149 1.385 . S
C1146 H1127 0.951 . S
C1146 C1144 1.388 . S
C1146 C1147 1.366 . S
C1147 C1146 1.366 . S
C1147 C1148 1.414 . S
C1147 C1150 1.499 . S
C1148 H1128 0.950 . S
C1148 C1147 1.414 . S
C1148 C1149 1.374 . S
C1149 H1129 0.950 . S
C1149 C1145 1.385 . S
C1149 C1148 1.374 . S
C1150 C1147 1.499 . S
C1150 C1151 1.373 . S
C1150 C1152 1.389 . S
C1151 H1130 0.950 . S
C1151 C1150 1.373 . S
C1151 C1167 1.377 . S
C1152 C1150 1.389 . S
C1152 C1153 1.524 . S
C1152 C1166 1.377 . S
C1153 C1152 1.524 . S
C1153 C1154 1.397 . S
C1153 C1158 1.363 . S
C1154 H1131 0.950 . S
C1154 C1153 1.397 . S
C1154 C1155 1.334 . S
C1155 H1132 0.950 . S
C1155 C1154 1.334 . S
C1155 C1156 1.287 . S
C1156 C1155 1.287 . S
C1156 C1157 1.524 . S
C1156 H1175 0.913 . S
C1157 H1133 0.950 . S
C1157 C1156 1.524 . S
C1157 C1158 1.415 . S
C1158 H1134 0.950 . S
C1158 C1153 1.363 . S
C1158 C1157 1.415 . S
C1159 H1135 0.951 . S
C1159 C1160 1.366 . S
C1159 C1161 1.388 . S
C1160 C1159 1.366 . S
C1160 C1164 1.385 . S
C1161 H1136 0.951 . S
C1161 C1159 1.388 . S
C1161 C1162 1.366 . S
C1162 C1161 1.366 . S
C1162 C1163 1.414 . S
C1162 C1165 1.499 . S
C1163 H1137 0.950 . S
C1163 C1162 1.414 . S
C1163 C1164 1.374 . S
C1164 H1138 0.950 . S
C1164 C1160 1.385 . S
C1164 C1163 1.374 . S
C1165 C1162 1.499 . S
C1165 C1166 1.373 . S
C1165 C1167 1.389 . S
C1166 H1139 0.950 . S
C1166 C1152 1.377 . S
C1166 C1165 1.373 . S
C1167 C1151 1.377 . S
C1167 C1165 1.389 . S
C1167 C1168 1.524 . S
C1168 C1167 1.524 . S
C1168 C1169 1.397 . S
C1168 C1173 1.363 . S
C1169 H1140 0.950 . S
C1169 C1168 1.397 . S
C1169 C1170 1.334 . S
C1170 H1141 0.950 . S
C1170 C1169 1.334 . S
C1170 C1171 1.287 . S
C1171 C1170 1.287 . S
C1171 C1172 1.524 . S
C1171 H1174 0.999 . S
C1172 H1142 0.950 . S
C1172 C1171 1.524 . S
C1172 C1173 1.415 . S
C1173 H1143 0.950 . S
C1173 C1168 1.363 . S
C1173 C1172 1.415 . S
H1174 C1171 0.999 . S
H1175 C1156 0.913 . S
H1176 C1194 0.951 . S
H1177 C1196 0.951 . S
H1178 C1198 0.950 . S
H1179 C1199 0.950 . S
H1180 C1201 0.950 1_545 S
H1181 C1204 0.950 . S
H1182 C1205 0.950 . S
H1183 C1207 0.950 . S
H1184 C1208 0.950 . S
H1185 C1209 0.951 . S
H1186 C1211 0.951 . S
H1187 C1213 0.950 . S
H1188 C1214 0.950 . S
H1189 C1216 0.950 . S
H1190 C1219 0.950 . S
H1191 C1220 0.950 . S
H1192 C1222 0.950 . S
H1193 C1223 0.950 1_565 S
C1194 H1176 0.951 . S
C1194 C1195 1.366 1_545 S
C1194 C1196 1.388 . S
C1195 C1194 1.366 1_565 S
C1195 C1199 1.385 . S
C1196 H1177 0.951 . S
C1196 C1194 1.388 . S
C1196 C1197 1.364 1_545 S
C1197 C1196 1.364 1_565 S
C1197 C1198 1.414 . S
C1197 C1200 1.499 . S
C1198 H1178 0.950 . S
C1198 C1197 1.414 . S
C1198 C1199 1.374 . S
C1199 H1179 0.950 . S
C1199 C1195 1.385 . S
C1199 C1198 1.374 . S
C1200 C1197 1.499 . S
C1200 C1201 1.373 . S
C1200 C1202 1.389 . S
C1201 H1180 0.950 1_565 S
C1201 C1200 1.373 . S
C1201 C1217 1.377 . S
C1202 C1200 1.389 . S
C1202 C1203 1.524 . S
C1202 C1216 1.377 . S
C1203 C1202 1.524 . S
C1203 C1204 1.397 . S
C1203 C1208 1.363 . S
C1204 H1181 0.950 . S
C1204 C1203 1.397 . S
C1204 C1205 1.334 . S
C1205 H1182 0.950 . S
C1205 C1204 1.334 . S
C1205 C1206 1.287 . S
C1206 C1205 1.287 . S
C1206 C1207 1.524 . S
C1206 H1225 0.913 . S
C1207 H1183 0.950 . S
C1207 C1206 1.524 . S
C1207 C1208 1.415 . S
C1208 H1184 0.950 . S
C1208 C1203 1.363 . S
C1208 C1207 1.415 . S
C1209 H1185 0.951 . S
C1209 C1210 1.366 . S
C1209 C1211 1.388 . S
C1210 C1209 1.366 . S
C1210 C1214 1.385 . S
C1211 H1186 0.951 . S
C1211 C1209 1.388 . S
C1211 C1212 1.366 . S
C1212 C1211 1.366 . S
C1212 C1213 1.414 . S
C1212 C1215 1.499 . S
C1213 H1187 0.950 . S
C1213 C1212 1.414 . S
C1213 C1214 1.374 . S
C1214 H1188 0.950 . S
C1214 C1210 1.385 . S
C1214 C1213 1.374 . S
C1215 C1212 1.499 . S
C1215 C1216 1.373 . S
C1215 C1217 1.389 . S
C1216 H1189 0.950 . S
C1216 C1202 1.377 . S
C1216 C1215 1.373 . S
C1217 C1201 1.377 . S
C1217 C1215 1.389 . S
C1217 C1218 1.524 1_565 S
C1218 C1217 1.524 1_545 S
C1218 C1219 1.397 . S
C1218 C1223 1.363 . S
C1219 H1190 0.950 . S
C1219 C1218 1.397 . S
C1219 C1220 1.334 . S
C1220 H1191 0.950 . S
C1220 C1219 1.334 . S
C1220 C1221 1.287 . S
C1221 C1220 1.287 . S
C1221 C1222 1.524 . S
C1221 H1224 0.999 . S
C1222 H1192 0.950 . S
C1222 C1221 1.524 . S
C1222 C1223 1.415 . S
C1223 H1193 0.950 1_545 S
C1223 C1218 1.363 . S
C1223 C1222 1.415 . S
H1224 C1221 0.999 . S
H1225 C1206 0.913 . S
H1226 C1244 0.951 . S
H1227 C1246 0.951 . S
H1228 C1248 0.950 . S
H1229 C1249 0.950 . S
H1230 C1251 0.950 . S
H1231 C1254 0.950 . S
H1232 C1255 0.950 . S
H1233 C1257 0.950 . S
H1234 C1258 0.950 . S
H1235 C1259 0.951 . S
H1236 C1261 0.951 . S
H1237 C1263 0.950 . S
H1238 C1264 0.950 . S
H1239 C1266 0.950 . S
H1240 C1269 0.950 . S
H1241 C1270 0.950 . S
H1242 C1272 0.950 . S
H1243 C1273 0.950 . S
C1244 H1226 0.951 . S
C1244 C1245 1.366 . S
C1244 C1246 1.388 . S
C1245 C1244 1.366 . S
C1245 C1249 1.385 . S
C1246 H1227 0.951 . S
C1246 C1244 1.388 . S
C1246 C1247 1.366 . S
C1247 C1246 1.366 . S
C1247 C1248 1.414 . S
C1247 C1250 1.499 . S
C1248 H1228 0.950 . S
C1248 C1247 1.414 . S
C1248 C1249 1.374 . S
C1249 H1229 0.950 . S
C1249 C1245 1.385 . S
C1249 C1248 1.374 . S
C1250 C1247 1.499 . S
C1250 C1251 1.373 . S
C1250 C1252 1.389 . S
C1251 H1230 0.950 . S
C1251 C1250 1.373 . S
C1251 C1267 1.377 . S
C1252 C1250 1.389 . S
C1252 C1253 1.524 . S
C1252 C1266 1.377 . S
C1253 C1252 1.524 . S
C1253 C1254 1.397 . S
C1253 C1258 1.363 . S
C1254 H1231 0.950 . S
C1254 C1253 1.397 . S
C1254 C1255 1.334 . S
C1255 H1232 0.950 . S
C1255 C1254 1.334 . S
C1255 C1256 1.287 . S
C1256 C1255 1.287 . S
C1256 C1257 1.524 . S
C1256 H1275 0.913 . S
C1257 H1233 0.950 . S
C1257 C1256 1.524 . S
C1257 C1258 1.415 . S
C1258 H1234 0.950 . S
C1258 C1253 1.363 . S
C1258 C1257 1.415 . S
C1259 H1235 0.951 . S
C1259 C1260 1.366 . S
C1259 C1261 1.388 . S
C1260 C1259 1.366 . S
C1260 C1264 1.385 . S
C1261 H1236 0.951 . S
C1261 C1259 1.388 . S
C1261 C1262 1.366 . S
C1262 C1261 1.366 . S
C1262 C1263 1.414 . S
C1262 C1265 1.499 . S
C1263 H1237 0.950 . S
C1263 C1262 1.414 . S
C1263 C1264 1.374 . S
C1264 H1238 0.950 . S
C1264 C1260 1.385 . S
C1264 C1263 1.374 . S
C1265 C1262 1.499 . S
C1265 C1266 1.373 . S
C1265 C1267 1.389 . S
C1266 H1239 0.950 . S
C1266 C1252 1.377 . S
C1266 C1265 1.373 . S
C1267 C1251 1.377 . S
C1267 C1265 1.389 . S
C1267 C1268 1.524 . S
C1268 C1267 1.524 . S
C1268 C1269 1.397 . S
C1268 C1273 1.363 . S
C1269 H1240 0.950 . S
C1269 C1268 1.397 . S
C1269 C1270 1.334 . S
C1270 H1241 0.950 . S
C1270 C1269 1.334 . S
C1270 C1271 1.287 . S
C1271 C1270 1.287 . S
C1271 C1272 1.524 . S
C1271 H1274 0.999 . S
C1272 H1242 0.950 . S
C1272 C1271 1.524 . S
C1272 C1273 1.415 . S
C1273 H1243 0.950 . S
C1273 C1268 1.363 . S
C1273 C1272 1.415 . S
H1274 C1271 0.999 . S
H1275 C1256 0.913 . S
H1276 C1294 0.951 . S
H1277 C1296 0.951 . S
H1278 C1298 0.952 1_556 S
H1279 C1299 0.952 . S
H1280 C1301 0.950 . S
H1281 C1304 0.950 . S
H1282 C1305 0.950 . S
H1283 C1307 0.950 . S
H1284 C1308 0.950 . S
H1285 C1309 0.951 . S
H1286 C1311 0.951 . S
H1287 C1313 0.950 . S
H1288 C1314 0.950 . S
H1289 C1316 0.950 . S
H1290 C1319 0.950 . S
H1291 C1320 0.950 . S
H1292 C1322 0.974 . S
H1293 C1323 0.950 1_556 S
C1294 H1276 0.951 . S
C1294 C1295 1.366 . S
C1294 C1296 1.388 . S
C1295 C1294 1.366 . S
C1295 C1299 1.385 . S
C1296 H1277 0.951 . S
C1296 C1294 1.388 . S
C1296 C1297 1.366 . S
C1297 C1296 1.366 . S
C1297 C1298 1.414 . S
C1297 C1300 1.499 . S
C1298 H1278 0.952 1_554 S
C1298 C1297 1.414 . S
C1298 C1299 1.374 . S
C1299 H1279 0.952 . S
C1299 C1295 1.385 . S
C1299 C1298 1.374 . S
C1300 C1297 1.499 . S
C1300 C1301 1.373 . S
C1300 C1302 1.389 . S
C1301 H1280 0.950 . S
C1301 C1300 1.373 . S
C1301 C1317 1.377 . S
C1302 C1300 1.389 . S
C1302 C1303 1.524 . S
C1302 C1316 1.377 . S
C1303 C1302 1.524 . S
C1303 C1304 1.397 . S
C1303 C1308 1.363 . S
C1304 H1281 0.950 . S
C1304 C1303 1.397 . S
C1304 C1305 1.334 . S
C1305 H1282 0.950 . S
C1305 C1304 1.334 . S
C1305 C1306 1.287 . S
C1306 C1305 1.287 . S
C1306 C1307 1.524 . S
C1306 H1325 0.913 . S
C1307 H1283 0.950 . S
C1307 C1306 1.524 . S
C1307 C1308 1.415 . S
C1308 H1284 0.950 . S
C1308 C1303 1.363 . S
C1308 C1307 1.415 . S
C1309 H1285 0.951 . S
C1309 C1310 1.366 . S
C1309 C1311 1.388 . S
C1310 C1309 1.366 . S
C1310 C1314 1.385 . S
C1311 H1286 0.951 . S
C1311 C1309 1.388 . S
C1311 C1312 1.366 . S
C1312 C1311 1.366 . S
C1312 C1313 1.414 . S
C1312 C1315 1.499 . S
C1313 H1287 0.950 . S
C1313 C1312 1.414 . S
C1313 C1314 1.374 . S
C1314 H1288 0.950 . S
C1314 C1310 1.385 . S
C1314 C1313 1.374 . S
C1315 C1312 1.499 . S
C1315 C1316 1.373 . S
C1315 C1317 1.389 . S
C1316 H1289 0.950 . S
C1316 C1302 1.377 . S
C1316 C1315 1.373 . S
C1317 C1301 1.377 . S
C1317 C1315 1.389 . S
C1317 C1318 1.524 . S
C1318 C1317 1.524 . S
C1318 C1319 1.397 . S
C1318 C1323 1.363 . S
C1319 H1290 0.950 . S
C1319 C1318 1.397 . S
C1319 C1320 1.334 . S
C1320 H1291 0.950 . S
C1320 C1319 1.334 . S
C1320 C1321 1.287 . S
C1321 C1320 1.287 . S
C1321 C1322 1.502 1_554 S
C1321 H1324 0.999 . S
C1322 H1292 0.974 . S
C1322 C1321 1.502 1_556 S
C1322 C1323 1.409 1_556 S
C1323 H1293 0.950 1_554 S
C1323 C1318 1.363 . S
C1323 C1322 1.409 1_554 S
H1324 C1321 0.999 . S
H1325 C1306 0.913 . S
H1326 C1344 0.951 . S
H1327 C1346 0.951 . S
H1328 C1348 0.950 . S
H1329 C1349 0.950 . S
H1330 C1351 0.950 . S
H1331 C1354 0.950 . S
H1332 C1355 0.950 . S
H1333 C1357 0.950 . S
H1334 C1358 0.950 . S
H1335 C1359 0.951 . S
H1336 C1361 0.951 . S
H1337 C1363 0.950 . S
H1338 C1364 0.950 . S
H1339 C1366 0.950 . S
H1340 C1369 0.950 . S
H1341 C1370 0.950 . S
H1342 C1372 0.950 . S
H1343 C1373 0.950 . S
C1344 H1326 0.951 . S
C1344 C1345 1.366 . S
C1344 C1346 1.388 . S
C1345 C1344 1.366 . S
C1345 C1349 1.385 . S
C1346 H1327 0.951 . S
C1346 C1344 1.388 . S
C1346 C1347 1.366 . S
C1347 C1346 1.366 . S
C1347 C1348 1.414 . S
C1347 C1350 1.499 . S
C1348 H1328 0.950 . S
C1348 C1347 1.414 . S
C1348 C1349 1.374 . S
C1349 H1329 0.950 . S
C1349 C1345 1.385 . S
C1349 C1348 1.374 . S
C1350 C1347 1.499 . S
C1350 C1351 1.373 . S
C1350 C1352 1.389 . S
C1351 H1330 0.950 . S
C1351 C1350 1.373 . S
C1351 C1367 1.377 . S
C1352 C1350 1.389 . S
C1352 C1353 1.524 . S
C1352 C1366 1.377 . S
C1353 C1352 1.524 . S
C1353 C1354 1.397 . S
C1353 C1358 1.363 . S
C1354 H1331 0.950 . S
C1354 C1353 1.397 . S
C1354 C1355 1.334 . S
C1355 H1332 0.950 . S
C1355 C1354 1.334 . S
C1355 C1356 1.287 . S
C1356 C1355 1.287 . S
C1356 C1357 1.524 . S
C1356 H1375 0.913 . S
C1357 H1333 0.950 . S
C1357 C1356 1.524 . S
C1357 C1358 1.415 . S
C1358 H1334 0.950 . S
C1358 C1353 1.363 . S
C1358 C1357 1.415 . S
C1359 H1335 0.951 . S
C1359 C1360 1.366 . S
C1359 C1361 1.388 . S
C1360 C1359 1.366 . S
C1360 C1364 1.385 . S
C1361 H1336 0.951 . S
C1361 C1359 1.388 . S
C1361 C1362 1.366 . S
C1362 C1361 1.366 . S
C1362 C1363 1.414 . S
C1362 C1365 1.499 . S
C1363 H1337 0.950 . S
C1363 C1362 1.414 . S
C1363 C1364 1.374 . S
C1364 H1338 0.950 . S
C1364 C1360 1.385 . S
C1364 C1363 1.374 . S
C1365 C1362 1.499 . S
C1365 C1366 1.373 . S
C1365 C1367 1.389 . S
C1366 H1339 0.950 . S
C1366 C1352 1.377 . S
C1366 C1365 1.373 . S
C1367 C1351 1.377 . S
C1367 C1365 1.389 . S
C1367 C1368 1.524 . S
C1368 C1367 1.524 . S
C1368 C1369 1.397 . S
C1368 C1373 1.363 . S
C1369 H1340 0.950 . S
C1369 C1368 1.397 . S
C1369 C1370 1.334 . S
C1370 H1341 0.950 . S
C1370 C1369 1.334 . S
C1370 C1371 1.287 . S
C1371 C1370 1.287 . S
C1371 C1372 1.524 . S
C1371 H1374 0.999 . S
C1372 H1342 0.950 . S
C1372 C1371 1.524 . S
C1372 C1373 1.415 . S
C1373 H1343 0.950 . S
C1373 C1368 1.363 . S
C1373 C1372 1.415 . S
H1374 C1371 0.999 . S
H1375 C1356 0.913 . S
H1376 C1394 0.951 . S
H1377 C1396 0.951 . S
H1378 C1398 0.950 . S
H1379 C1399 0.950 . S
H1380 C1401 0.950 . S
H1381 C1404 0.950 . S
H1382 C1405 0.950 . S
H1383 C1407 0.950 . S
H1384 C1408 0.950 . S
H1385 C1409 0.951 . S
H1386 C1411 0.951 . S
H1387 C1413 0.950 . S
H1388 C1414 0.950 . S
H1389 C1416 0.950 . S
H1390 C1419 0.950 . S
H1391 C1420 0.950 . S
H1392 C1422 0.950 . S
H1393 C1423 0.950 . S
C1394 H1376 0.951 . S
C1394 C1395 1.366 . S
C1394 C1396 1.388 . S
C1395 C1394 1.366 . S
C1395 C1399 1.385 . S
C1396 H1377 0.951 . S
C1396 C1394 1.388 . S
C1396 C1397 1.366 . S
C1397 C1396 1.366 . S
C1397 C1398 1.414 . S
C1397 C1400 1.499 . S
C1398 H1378 0.950 . S
C1398 C1397 1.414 . S
C1398 C1399 1.374 . S
C1399 H1379 0.950 . S
C1399 C1395 1.385 . S
C1399 C1398 1.374 . S
C1400 C1397 1.499 . S
C1400 C1401 1.373 . S
C1400 C1402 1.389 . S
C1401 H1380 0.950 . S
C1401 C1400 1.373 . S
C1401 C1417 1.377 . S
C1402 C1400 1.389 . S
C1402 C1403 1.524 . S
C1402 C1416 1.377 . S
C1403 C1402 1.524 . S
C1403 C1404 1.397 . S
C1403 C1408 1.363 . S
C1404 H1381 0.950 . S
C1404 C1403 1.397 . S
C1404 C1405 1.334 . S
C1405 H1382 0.950 . S
C1405 C1404 1.334 . S
C1405 C1406 1.287 . S
C1406 C1405 1.287 . S
C1406 C1407 1.524 . S
C1406 H1425 0.913 . S
C1407 H1383 0.950 . S
C1407 C1406 1.524 . S
C1407 C1408 1.415 . S
C1408 H1384 0.950 . S
C1408 C1403 1.363 . S
C1408 C1407 1.415 . S
C1409 H1385 0.951 . S
C1409 C1410 1.366 . S
C1409 C1411 1.388 . S
C1410 C1409 1.366 . S
C1410 C1414 1.385 . S
C1411 H1386 0.951 . S
C1411 C1409 1.388 . S
C1411 C1412 1.366 . S
C1412 C1411 1.366 . S
C1412 C1413 1.414 . S
C1412 C1415 1.499 . S
C1413 H1387 0.950 . S
C1413 C1412 1.414 . S
C1413 C1414 1.374 . S
C1414 H1388 0.950 . S
C1414 C1410 1.385 . S
C1414 C1413 1.374 . S
C1415 C1412 1.499 . S
C1415 C1416 1.373 . S
C1415 C1417 1.389 . S
C1416 H1389 0.950 . S
C1416 C1402 1.377 . S
C1416 C1415 1.373 . S
C1417 C1401 1.377 . S
C1417 C1415 1.389 . S
C1417 C1418 1.524 . S
C1418 C1417 1.524 . S
C1418 C1419 1.397 . S
C1418 C1423 1.363 . S
C1419 H1390 0.950 . S
C1419 C1418 1.397 . S
C1419 C1420 1.334 . S
C1420 H1391 0.950 . S
C1420 C1419 1.334 . S
C1420 C1421 1.287 . S
C1421 C1420 1.287 . S
C1421 C1422 1.524 . S
C1421 H1424 0.999 . S
C1422 H1392 0.950 . S
C1422 C1421 1.524 . S
C1422 C1423 1.415 . S
C1423 H1393 0.950 . S
C1423 C1418 1.363 . S
C1423 C1422 1.415 . S
H1424 C1421 0.999 . S
H1425 C1406 0.913 . S
H1426 C1444 0.951 . S
H1427 C1446 0.951 . S
H1428 C1448 0.950 . S
H1429 C1449 0.950 . S
H1430 C1451 0.950 . S
H1431 C1454 0.950 . S
H1432 C1455 0.950 . S
H1433 C1457 0.950 . S
H1434 C1458 0.950 . S
H1435 C1459 0.951 . S
H1436 C1461 0.951 . S
H1437 C1463 0.950 . S
H1438 C1464 0.950 . S
H1439 C1466 0.950 . S
H1440 C1469 0.950 . S
H1441 C1470 0.950 . S
H1442 C1472 0.950 . S
H1443 C1473 0.950 . S
C1444 H1426 0.951 . S
C1444 C1445 1.366 . S
C1444 C1446 1.388 . S
C1445 C1444 1.366 . S
C1445 C1449 1.385 . S
C1446 H1427 0.951 . S
C1446 C1444 1.388 . S
C1446 C1447 1.366 . S
C1447 C1446 1.366 . S
C1447 C1448 1.414 . S
C1447 C1450 1.499 . S
C1448 H1428 0.950 . S
C1448 C1447 1.414 . S
C1448 C1449 1.374 . S
C1449 H1429 0.950 . S
C1449 C1445 1.385 . S
C1449 C1448 1.374 . S
C1450 C1447 1.499 . S
C1450 C1451 1.373 . S
C1450 C1452 1.389 . S
C1451 H1430 0.950 . S
C1451 C1450 1.373 . S
C1451 C1467 1.377 . S
C1452 C1450 1.389 . S
C1452 C1453 1.524 . S
C1452 C1466 1.377 . S
C1453 C1452 1.524 . S
C1453 C1454 1.397 . S
C1453 C1458 1.363 . S
C1454 H1431 0.950 . S
C1454 C1453 1.397 . S
C1454 C1455 1.334 . S
C1455 H1432 0.950 . S
C1455 C1454 1.334 . S
C1455 C1456 1.287 . S
C1456 C1455 1.287 . S
C1456 C1457 1.524 . S
C1456 H1475 0.913 . S
C1457 H1433 0.950 . S
C1457 C1456 1.524 . S
C1457 C1458 1.415 . S
C1458 H1434 0.950 . S
C1458 C1453 1.363 . S
C1458 C1457 1.415 . S
C1459 H1435 0.951 . S
C1459 C1460 1.366 . S
C1459 C1461 1.388 . S
C1460 C1459 1.366 . S
C1460 C1464 1.385 . S
C1461 H1436 0.951 . S
C1461 C1459 1.388 . S
C1461 C1462 1.366 . S
C1462 C1461 1.366 . S
C1462 C1463 1.414 . S
C1462 C1465 1.499 . S
C1463 H1437 0.950 . S
C1463 C1462 1.414 . S
C1463 C1464 1.374 . S
C1464 H1438 0.950 . S
C1464 C1460 1.385 . S
C1464 C1463 1.374 . S
C1465 C1462 1.499 . S
C1465 C1466 1.373 . S
C1465 C1467 1.389 . S
C1466 H1439 0.950 . S
C1466 C1452 1.377 . S
C1466 C1465 1.373 . S
C1467 C1451 1.377 . S
C1467 C1465 1.389 . S
C1467 C1468 1.524 . S
C1468 C1467 1.524 . S
C1468 C1469 1.397 . S
C1468 C1473 1.363 . S
C1469 H1440 0.950 . S
C1469 C1468 1.397 . S
C1469 C1470 1.334 . S
C1470 H1441 0.950 . S
C1470 C1469 1.334 . S
C1470 C1471 1.287 . S
C1471 C1470 1.287 . S
C1471 C1472 1.524 . S
C1471 H1474 0.999 . S
C1472 H1442 0.950 . S
C1472 C1471 1.524 . S
C1472 C1473 1.415 . S
C1473 H1443 0.950 . S
C1473 C1468 1.363 . S
C1473 C1472 1.415 . S
H1474 C1471 0.999 . S
H1475 C1456 0.913 . S
H1476 C1494 0.951 . S
H1477 C1496 0.951 . S
H1478 C1498 0.950 . S
H1479 C1499 0.950 . S
H1480 C1501 0.950 . S
H1481 C1504 0.950 . S
H1482 C1505 0.950 . S
H1483 C1507 0.950 . S
H1484 C1508 0.950 . S
H1485 C1509 0.951 . S
H1486 C1511 0.951 . S
H1487 C1513 0.950 . S
H1488 C1514 0.950 . S
H1489 C1516 0.950 . S
H1490 C1519 0.950 . S
H1491 C1520 0.950 . S
H1492 C1522 0.950 . S
H1493 C1523 0.950 . S
C1494 H1476 0.951 . S
C1494 C1495 1.366 . S
C1494 C1496 1.388 . S
C1495 C1494 1.366 . S
C1495 C1499 1.385 . S
C1496 H1477 0.951 . S
C1496 C1494 1.388 . S
C1496 C1497 1.366 . S
C1497 C1496 1.366 . S
C1497 C1498 1.414 . S
C1497 C1500 1.499 . S
C1498 H1478 0.950 . S
C1498 C1497 1.414 . S
C1498 C1499 1.374 . S
C1499 H1479 0.950 . S
C1499 C1495 1.385 . S
C1499 C1498 1.374 . S
C1500 C1497 1.499 . S
C1500 C1501 1.373 . S
C1500 C1502 1.389 . S
C1501 H1480 0.950 . S
C1501 C1500 1.373 . S
C1501 C1517 1.377 . S
C1502 C1500 1.389 . S
C1502 C1503 1.524 . S
C1502 C1516 1.377 . S
C1503 C1502 1.524 . S
C1503 C1504 1.397 . S
C1503 C1508 1.363 . S
C1504 H1481 0.950 . S
C1504 C1503 1.397 . S
C1504 C1505 1.334 . S
C1505 H1482 0.950 . S
C1505 C1504 1.334 . S
C1505 C1506 1.287 . S
C1506 C1505 1.287 . S
C1506 C1507 1.524 . S
C1506 H1525 0.913 . S
C1507 H1483 0.950 . S
C1507 C1506 1.524 . S
C1507 C1508 1.415 . S
C1508 H1484 0.950 . S
C1508 C1503 1.363 . S
C1508 C1507 1.415 . S
C1509 H1485 0.951 . S
C1509 C1510 1.366 . S
C1509 C1511 1.388 . S
C1510 C1509 1.366 . S
C1510 C1514 1.385 . S
C1511 H1486 0.951 . S
C1511 C1509 1.388 . S
C1511 C1512 1.366 . S
C1512 C1511 1.366 . S
C1512 C1513 1.414 . S
C1512 C1515 1.499 . S
C1513 H1487 0.950 . S
C1513 C1512 1.414 . S
C1513 C1514 1.374 . S
C1514 H1488 0.950 . S
C1514 C1510 1.385 . S
C1514 C1513 1.374 . S
C1515 C1512 1.499 . S
C1515 C1516 1.373 . S
C1515 C1517 1.389 . S
C1516 H1489 0.950 . S
C1516 C1502 1.377 . S
C1516 C1515 1.373 . S
C1517 C1501 1.377 . S
C1517 C1515 1.389 . S
C1517 C1518 1.524 . S
C1518 C1517 1.524 . S
C1518 C1519 1.397 . S
C1518 C1523 1.363 . S
C1519 H1490 0.950 . S
C1519 C1518 1.397 . S
C1519 C1520 1.334 . S
C1520 H1491 0.950 . S
C1520 C1519 1.334 . S
C1520 C1521 1.287 . S
C1521 C1520 1.287 . S
C1521 C1522 1.524 . S
C1521 H1524 0.999 . S
C1522 H1492 0.950 . S
C1522 C1521 1.524 . S
C1522 C1523 1.415 . S
C1523 H1493 0.950 . S
C1523 C1518 1.363 . S
C1523 C1522 1.415 . S
H1524 C1521 0.999 . S
H1525 C1506 0.913 . S
H1526 C1544 0.951 . S
H1527 C1546 0.951 . S
H1528 C1548 0.950 . S
H1529 C1549 0.950 . S
H1530 C1551 0.950 . S
H1531 C1554 0.950 . S
H1532 C1555 0.950 . S
H1533 C1557 0.950 . S
H1534 C1558 0.950 . S
H1535 C1559 0.951 . S
H1536 C1561 0.951 . S
H1537 C1563 0.950 . S
H1538 C1564 0.950 . S
H1539 C1566 0.950 . S
H1540 C1569 0.950 . S
H1541 C1570 0.950 . S
H1542 C1572 0.950 . S
H1543 C1573 0.950 . S
C1544 H1526 0.951 . S
C1544 C1545 1.366 . S
C1544 C1546 1.388 . S
C1545 C1544 1.366 . S
C1545 C1549 1.385 . S
C1546 H1527 0.951 . S
C1546 C1544 1.388 . S
C1546 C1547 1.366 . S
C1547 C1546 1.366 . S
C1547 C1548 1.414 . S
C1547 C1550 1.499 . S
C1548 H1528 0.950 . S
C1548 C1547 1.414 . S
C1548 C1549 1.374 . S
C1549 H1529 0.950 . S
C1549 C1545 1.385 . S
C1549 C1548 1.374 . S
C1550 C1547 1.499 . S
C1550 C1551 1.373 . S
C1550 C1552 1.389 . S
C1551 H1530 0.950 . S
C1551 C1550 1.373 . S
C1551 C1567 1.377 . S
C1552 C1550 1.389 . S
C1552 C1553 1.524 . S
C1552 C1566 1.377 . S
C1553 C1552 1.524 . S
C1553 C1554 1.397 . S
C1553 C1558 1.363 . S
C1554 H1531 0.950 . S
C1554 C1553 1.397 . S
C1554 C1555 1.334 . S
C1555 H1532 0.950 . S
C1555 C1554 1.334 . S
C1555 C1556 1.287 . S
C1556 C1555 1.287 . S
C1556 C1557 1.524 . S
C1556 H1575 0.913 . S
C1557 H1533 0.950 . S
C1557 C1556 1.524 . S
C1557 C1558 1.415 . S
C1558 H1534 0.950 . S
C1558 C1553 1.363 . S
C1558 C1557 1.415 . S
C1559 H1535 0.951 . S
C1559 C1560 1.366 . S
C1559 C1561 1.388 . S
C1560 C1559 1.366 . S
C1560 C1564 1.385 . S
C1561 H1536 0.951 . S
C1561 C1559 1.388 . S
C1561 C1562 1.366 . S
C1562 C1561 1.366 . S
C1562 C1563 1.414 . S
C1562 C1565 1.499 . S
C1563 H1537 0.950 . S
C1563 C1562 1.414 . S
C1563 C1564 1.374 . S
C1564 H1538 0.950 . S
C1564 C1560 1.385 . S
C1564 C1563 1.374 . S
C1565 C1562 1.499 . S
C1565 C1566 1.373 . S
C1565 C1567 1.389 . S
C1566 H1539 0.950 . S
C1566 C1552 1.377 . S
C1566 C1565 1.373 . S
C1567 C1551 1.377 . S
C1567 C1565 1.389 . S
C1567 C1568 1.524 . S
C1568 C1567 1.524 . S
C1568 C1569 1.397 . S
C1568 C1573 1.363 . S
C1569 H1540 0.950 . S
C1569 C1568 1.397 . S
C1569 C1570 1.334 . S
C1570 H1541 0.950 . S
C1570 C1569 1.334 . S
C1570 C1571 1.287 . S
C1571 C1570 1.287 . S
C1571 C1572 1.524 . S
C1571 H1574 0.999 . S
C1572 H1542 0.950 . S
C1572 C1571 1.524 . S
C1572 C1573 1.415 . S
C1573 H1543 0.950 . S
C1573 C1568 1.363 . S
C1573 C1572 1.415 . S
H1574 C1571 0.999 . S
H1575 C1556 0.913 . S
H1576 C1594 0.951 . S
H1577 C1596 0.951 . S
H1578 C1598 0.950 . S
H1579 C1599 0.950 . S
H1580 C1601 0.950 . S
H1581 C1604 0.950 . S
H1582 C1605 0.950 . S
H1583 C1607 0.950 . S
H1584 C1608 0.950 . S
H1585 C1609 0.951 . S
H1586 C1611 0.951 . S
H1587 C1613 0.950 . S
H1588 C1614 0.950 . S
H1589 C1616 0.950 . S
H1590 C1619 0.950 . S
H1591 C1620 0.950 . S
H1592 C1622 0.950 . S
H1593 C1623 0.950 . S
C1594 H1576 0.951 . S
C1594 C1595 1.366 . S
C1594 C1596 1.388 . S
C1595 C1594 1.366 . S
C1595 C1599 1.385 . S
C1596 H1577 0.951 . S
C1596 C1594 1.388 . S
C1596 C1597 1.366 . S
C1597 C1596 1.366 . S
C1597 C1598 1.414 . S
C1597 C1600 1.499 . S
C1598 H1578 0.950 . S
C1598 C1597 1.414 . S
C1598 C1599 1.374 . S
C1599 H1579 0.950 . S
C1599 C1595 1.385 . S
C1599 C1598 1.374 . S
C1600 C1597 1.499 . S
C1600 C1601 1.373 . S
C1600 C1602 1.389 . S
C1601 H1580 0.950 . S
C1601 C1600 1.373 . S
C1601 C1617 1.377 . S
C1602 C1600 1.389 . S
C1602 C1603 1.524 . S
C1602 C1616 1.377 . S
C1603 C1602 1.524 . S
C1603 C1604 1.397 . S
C1603 C1608 1.363 . S
C1604 H1581 0.950 . S
C1604 C1603 1.397 . S
C1604 C1605 1.334 . S
C1605 H1582 0.950 . S
C1605 C1604 1.334 . S
C1605 C1606 1.287 . S
C1606 C1605 1.287 . S
C1606 C1607 1.524 . S
C1606 H1625 0.913 . S
C1607 H1583 0.950 . S
C1607 C1606 1.524 . S
C1607 C1608 1.415 . S
C1608 H1584 0.950 . S
C1608 C1603 1.363 . S
C1608 C1607 1.415 . S
C1609 H1585 0.951 . S
C1609 C1610 1.366 . S
C1609 C1611 1.388 . S
C1610 C1609 1.366 . S
C1610 C1614 1.385 . S
C1611 H1586 0.951 . S
C1611 C1609 1.388 . S
C1611 C1612 1.366 . S
C1612 C1611 1.366 . S
C1612 C1613 1.414 . S
C1612 C1615 1.499 . S
C1613 H1587 0.950 . S
C1613 C1612 1.414 . S
C1613 C1614 1.374 . S
C1614 H1588 0.950 . S
C1614 C1610 1.385 . S
C1614 C1613 1.374 . S
C1615 C1612 1.499 . S
C1615 C1616 1.373 . S
C1615 C1617 1.389 . S
C1616 H1589 0.950 . S
C1616 C1602 1.377 . S
C1616 C1615 1.373 . S
C1617 C1601 1.377 . S
C1617 C1615 1.389 . S
C1617 C1618 1.524 . S
C1618 C1617 1.524 . S
C1618 C1619 1.397 . S
C1618 C1623 1.363 . S
C1619 H1590 0.950 . S
C1619 C1618 1.397 . S
C1619 C1620 1.334 . S
C1620 H1591 0.950 . S
C1620 C1619 1.334 . S
C1620 C1621 1.287 . S
C1621 C1620 1.287 . S
C1621 C1622 1.524 . S
C1621 H1624 0.999 . S
C1622 H1592 0.950 . S
C1622 C1621 1.524 . S
C1622 C1623 1.415 . S
C1623 H1593 0.950 . S
C1623 C1618 1.363 . S
C1623 C1622 1.415 . S
H1624 C1621 0.999 . S
H1625 C1606 0.913 . S
H1626 C1644 0.951 . S
H1627 C1646 0.951 . S
H1628 C1648 0.950 . S
H1629 C1649 0.950 . S
H1630 C1651 0.950 . S
H1631 C1654 0.950 . S
H1632 C1655 0.950 . S
H1633 C1657 0.950 . S
H1634 C1658 0.950 . S
H1635 C1659 0.960 . S
H1636 C1661 0.951 . S
H1637 C1663 0.950 . S
H1638 C1664 0.929 1_565 S
H1639 C1666 0.950 . S
H1640 C1669 0.950 . S
H1641 C1670 0.950 . S
H1642 C1672 0.950 . S
H1643 C1673 0.950 . S
C1644 H1626 0.951 . S
C1644 C1645 1.366 . S
C1644 C1646 1.388 . S
C1645 C1644 1.366 . S
C1645 C1649 1.385 . S
C1646 H1627 0.951 . S
C1646 C1644 1.388 . S
C1646 C1647 1.366 . S
C1647 C1646 1.366 . S
C1647 C1648 1.414 . S
C1647 C1650 1.499 . S
C1648 H1628 0.950 . S
C1648 C1647 1.414 . S
C1648 C1649 1.374 . S
C1649 H1629 0.950 . S
C1649 C1645 1.385 . S
C1649 C1648 1.374 . S
C1650 C1647 1.499 . S
C1650 C1651 1.373 . S
C1650 C1652 1.389 . S
C1651 H1630 0.950 . S
C1651 C1650 1.373 . S
C1651 C1667 1.377 . S
C1652 C1650 1.389 . S
C1652 C1653 1.524 . S
C1652 C1666 1.377 . S
C1653 C1652 1.524 . S
C1653 C1654 1.397 . S
C1653 C1658 1.363 . S
C1654 H1631 0.950 . S
C1654 C1653 1.397 . S
C1654 C1655 1.334 . S
C1655 H1632 0.950 . S
C1655 C1654 1.334 . S
C1655 C1656 1.287 . S
C1656 C1655 1.287 . S
C1656 C1657 1.524 . S
C1656 H1675 0.913 . S
C1657 H1633 0.950 . S
C1657 C1656 1.524 . S
C1657 C1658 1.415 . S
C1658 H1634 0.950 . S
C1658 C1653 1.363 . S
C1658 C1657 1.415 . S
C1659 H1635 0.960 . S
C1659 C1660 1.373 . S
C1659 C1661 1.372 1_565 S
C1660 C1659 1.373 . S
C1660 C1664 1.355 1_565 S
C1661 H1636 0.951 . S
C1661 C1659 1.372 1_545 S
C1661 C1662 1.366 . S
C1662 C1661 1.366 . S
C1662 C1663 1.414 . S
C1662 C1665 1.499 . S
C1663 H1637 0.950 . S
C1663 C1662 1.414 . S
C1663 C1664 1.426 . S
C1664 H1638 0.929 1_545 S
C1664 C1660 1.355 1_545 S
C1664 C1663 1.426 . S
C1665 C1662 1.499 . S
C1665 C1666 1.373 . S
C1665 C1667 1.389 . S
C1666 H1639 0.950 . S
C1666 C1652 1.377 . S
C1666 C1665 1.373 . S
C1667 C1651 1.377 . S
C1667 C1665 1.389 . S
C1667 C1668 1.524 . S
C1668 C1667 1.524 . S
C1668 C1669 1.397 . S
C1668 C1673 1.363 . S
C1669 H1640 0.950 . S
C1669 C1668 1.397 . S
C1669 C1670 1.334 . S
C1670 H1641 0.950 . S
C1670 C1669 1.334 . S
C1670 C1671 1.287 . S
C1671 C1670 1.287 . S
C1671 C1672 1.524 . S
C1671 H1674 0.999 . S
C1672 H1642 0.950 . S
C1672 C1671 1.524 . S
C1672 C1673 1.415 . S
C1673 H1643 0.950 . S
C1673 C1668 1.363 . S
C1673 C1672 1.415 . S
H1674 C1671 0.999 . S
H1675 C1656 0.913 . S
H1676 C1694 0.951 . S
H1677 C1696 0.951 . S
H1678 C1698 0.950 . S
H1679 C1699 0.950 . S
H1680 C1701 0.950 . S
H1681 C1704 0.950 . S
H1682 C1705 0.950 . S
H1683 C1707 0.950 . S
H1684 C1708 0.950 . S
H1685 C1709 0.951 . S
H1686 C1711 0.951 . S
H1687 C1713 0.950 . S
H1688 C1714 0.950 . S
H1689 C1716 0.950 . S
H1690 C1719 0.950 . S
H1691 C1720 0.950 . S
H1692 C1722 0.950 . S
H1693 C1723 0.950 . S
C1694 H1676 0.951 . S
C1694 C1695 1.366 . S
C1694 C1696 1.388 . S
C1695 C1694 1.366 . S
C1695 C1699 1.385 . S
C1696 H1677 0.951 . S
C1696 C1694 1.388 . S
C1696 C1697 1.366 . S
C1697 C1696 1.366 . S
C1697 C1698 1.414 . S
C1697 C1700 1.499 . S
C1698 H1678 0.950 . S
C1698 C1697 1.414 . S
C1698 C1699 1.374 . S
C1699 H1679 0.950 . S
C1699 C1695 1.385 . S
C1699 C1698 1.374 . S
C1700 C1697 1.499 . S
C1700 C1701 1.373 . S
C1700 C1702 1.389 . S
C1701 H1680 0.950 . S
C1701 C1700 1.373 . S
C1701 C1717 1.377 . S
C1702 C1700 1.389 . S
C1702 C1703 1.524 . S
C1702 C1716 1.377 . S
C1703 C1702 1.524 . S
C1703 C1704 1.397 . S
C1703 C1708 1.363 . S
C1704 H1681 0.950 . S
C1704 C1703 1.397 . S
C1704 C1705 1.334 . S
C1705 H1682 0.950 . S
C1705 C1704 1.334 . S
C1705 C1706 1.287 . S
C1706 C1705 1.287 . S
C1706 C1707 1.524 . S
C1706 H1725 0.913 . S
C1707 H1683 0.950 . S
C1707 C1706 1.524 . S
C1707 C1708 1.415 . S
C1708 H1684 0.950 . S
C1708 C1703 1.363 . S
C1708 C1707 1.415 . S
C1709 H1685 0.951 . S
C1709 C1710 1.366 . S
C1709 C1711 1.388 . S
C1710 C1709 1.366 . S
C1710 C1714 1.385 . S
C1711 H1686 0.951 . S
C1711 C1709 1.388 . S
C1711 C1712 1.366 . S
C1712 C1711 1.366 . S
C1712 C1713 1.414 . S
C1712 C1715 1.499 . S
C1713 H1687 0.950 . S
C1713 C1712 1.414 . S
C1713 C1714 1.374 . S
C1714 H1688 0.950 . S
C1714 C1710 1.385 . S
C1714 C1713 1.374 . S
C1715 C1712 1.499 . S
C1715 C1716 1.373 . S
C1715 C1717 1.389 . S
C1716 H1689 0.950 . S
C1716 C1702 1.377 . S
C1716 C1715 1.373 . S
C1717 C1701 1.377 . S
C1717 C1715 1.389 . S
C1717 C1718 1.524 . S
C1718 C1717 1.524 . S
C1718 C1719 1.397 . S
C1718 C1723 1.363 . S
C1719 H1690 0.950 . S
C1719 C1718 1.397 . S
C1719 C1720 1.334 . S
C1720 H1691 0.950 . S
C1720 C1719 1.334 . S
C1720 C1721 1.287 . S
C1721 C1720 1.287 . S
C1721 C1722 1.524 . S
C1721 H1724 0.999 . S
C1722 H1692 0.950 . S
C1722 C1721 1.524 . S
C1722 C1723 1.415 . S
C1723 H1693 0.950 . S
C1723 C1718 1.363 . S
C1723 C1722 1.415 . S
H1724 C1721 0.999 . S
H1725 C1706 0.913 . S
H1726 C1744 0.951 . S
H1727 C1746 0.951 . S
H1728 C1748 0.950 . S
H1729 C1749 0.950 . S
H1730 C1751 0.950 . S
H1731 C1754 0.950 . S
H1732 C1755 0.950 . S
H1733 C1757 0.950 . S
H1734 C1758 0.950 . S
H1735 C1759 0.951 . S
H1736 C1761 0.951 . S
H1737 C1763 0.979 . S
H1738 C1764 0.950 . S
H1739 C1766 0.950 1_545 S
H1740 C1769 0.950 . S
H1741 C1770 0.950 . S
H1742 C1772 0.950 . S
H1743 C1773 0.950 . S
C1744 H1726 0.951 . S
C1744 C1745 1.366 1_545 S
C1744 C1746 1.388 . S
C1745 C1744 1.366 1_565 S
C1745 C1749 1.385 . S
C1746 H1727 0.951 . S
C1746 C1744 1.388 . S
C1746 C1747 1.366 1_545 S
C1747 C1746 1.366 1_565 S
C1747 C1748 1.414 . S
C1747 C1750 1.499 . S
C1748 H1728 0.950 . S
C1748 C1747 1.414 . S
C1748 C1749 1.374 . S
C1749 H1729 0.950 . S
C1749 C1745 1.385 . S
C1749 C1748 1.374 . S
C1750 C1747 1.499 . S
C1750 C1751 1.373 . S
C1750 C1752 1.390 . S
C1751 H1730 0.950 . S
C1751 C1750 1.373 . S
C1751 C1767 1.377 . S
C1752 C1750 1.390 . S
C1752 C1753 1.523 1_565 S
C1752 C1766 1.377 . S
C1753 C1752 1.523 1_545 S
C1753 C1754 1.397 . S
C1753 C1758 1.363 . S
C1754 H1731 0.950 . S
C1754 C1753 1.397 . S
C1754 C1755 1.334 . S
C1755 H1732 0.950 . S
C1755 C1754 1.334 . S
C1755 C1756 1.287 . S
C1756 C1755 1.287 . S
C1756 C1757 1.524 . S
C1756 H1775 0.913 . S
C1757 H1733 0.950 . S
C1757 C1756 1.524 . S
C1757 C1758 1.415 . S
C1758 H1734 0.950 . S
C1758 C1753 1.363 . S
C1758 C1757 1.415 . S
C1759 H1735 0.951 . S
C1759 C1760 1.366 . S
C1759 C1761 1.388 . S
C1760 C1759 1.366 . S
C1760 C1764 1.385 . S
C1761 H1736 0.951 . S
C1761 C1759 1.388 . S
C1761 C1762 1.366 . S
C1762 C1761 1.366 . S
C1762 C1763 1.414 . S
C1762 C1765 1.499 . S
C1763 H1737 0.979 . S
C1763 C1762 1.414 . S
C1763 C1764 1.374 . S
C1764 H1738 0.950 . S
C1764 C1760 1.385 . S
C1764 C1763 1.374 . S
C1765 C1762 1.499 . S
C1765 C1766 1.373 . S
C1765 C1767 1.389 . S
C1766 H1739 0.950 1_565 S
C1766 C1752 1.377 . S
C1766 C1765 1.373 . S
C1767 C1751 1.377 . S
C1767 C1765 1.389 . S
C1767 C1768 1.524 . S
C1768 C1767 1.524 . S
C1768 C1769 1.397 . S
C1768 C1773 1.363 . S
C1769 H1740 0.950 . S
C1769 C1768 1.397 . S
C1769 C1770 1.334 . S
C1770 H1741 0.950 . S
C1770 C1769 1.334 . S
C1770 C1771 1.287 . S
C1771 C1770 1.287 . S
C1771 C1772 1.524 . S
C1771 H1774 0.999 . S
C1772 H1742 0.950 . S
C1772 C1771 1.524 . S
C1772 C1773 1.415 . S
C1773 H1743 0.950 . S
C1773 C1768 1.363 . S
C1773 C1772 1.415 . S
H1774 C1771 0.999 . S
H1775 C1756 0.913 . S
H1776 C1794 0.951 . S
H1777 C1796 0.951 . S
H1778 C1798 0.950 . S
H1779 C1799 0.950 . S
H1780 C1801 0.950 . S
H1781 C1804 0.950 . S
H1782 C1805 0.950 . S
H1783 C1807 0.950 . S
H1784 C1808 0.950 . S
H1785 C1809 0.951 . S
H1786 C1811 0.951 . S
H1787 C1813 0.950 . S
H1788 C1814 0.950 . S
H1789 C1816 0.950 . S
H1790 C1819 0.950 . S
H1791 C1820 0.950 . S
H1792 C1822 0.950 . S
H1793 C1823 0.950 . S
C1794 H1776 0.951 . S
C1794 C1795 1.366 . S
C1794 C1796 1.388 . S
C1795 C1794 1.366 . S
C1795 C1799 1.385 . S
C1796 H1777 0.951 . S
C1796 C1794 1.388 . S
C1796 C1797 1.366 . S
C1797 C1796 1.366 . S
C1797 C1798 1.414 . S
C1797 C1800 1.499 . S
C1798 H1778 0.950 . S
C1798 C1797 1.414 . S
C1798 C1799 1.374 . S
C1799 H1779 0.950 . S
C1799 C1795 1.385 . S
C1799 C1798 1.374 . S
C1800 C1797 1.499 . S
C1800 C1801 1.373 . S
C1800 C1802 1.389 . S
C1801 H1780 0.950 . S
C1801 C1800 1.373 . S
C1801 C1817 1.377 . S
C1802 C1800 1.389 . S
C1802 C1803 1.524 . S
C1802 C1816 1.377 . S
C1803 C1802 1.524 . S
C1803 C1804 1.397 . S
C1803 C1808 1.363 . S
C1804 H1781 0.950 . S
C1804 C1803 1.397 . S
C1804 C1805 1.334 . S
C1805 H1782 0.950 . S
C1805 C1804 1.334 . S
C1805 C1806 1.287 . S
C1806 C1805 1.287 . S
C1806 C1807 1.524 . S
C1806 H1825 0.913 . S
C1807 H1783 0.950 . S
C1807 C1806 1.524 . S
C1807 C1808 1.415 . S
C1808 H1784 0.950 . S
C1808 C1803 1.363 . S
C1808 C1807 1.415 . S
C1809 H1785 0.951 . S
C1809 C1810 1.366 . S
C1809 C1811 1.388 . S
C1810 C1809 1.366 . S
C1810 C1814 1.385 . S
C1811 H1786 0.951 . S
C1811 C1809 1.388 . S
C1811 C1812 1.366 . S
C1812 C1811 1.366 . S
C1812 C1813 1.414 . S
C1812 C1815 1.499 . S
C1813 H1787 0.950 . S
C1813 C1812 1.414 . S
C1813 C1814 1.374 . S
C1814 H1788 0.950 . S
C1814 C1810 1.385 . S
C1814 C1813 1.374 . S
C1815 C1812 1.499 . S
C1815 C1816 1.373 . S
C1815 C1817 1.389 . S
C1816 H1789 0.950 . S
C1816 C1802 1.377 . S
C1816 C1815 1.373 . S
C1817 C1801 1.377 . S
C1817 C1815 1.389 . S
C1817 C1818 1.524 . S
C1818 C1817 1.524 . S
C1818 C1819 1.397 . S
C1818 C1823 1.363 . S
C1819 H1790 0.950 . S
C1819 C1818 1.397 . S
C1819 C1820 1.334 . S
C1820 H1791 0.950 . S
C1820 C1819 1.334 . S
C1820 C1821 1.287 . S
C1821 C1820 1.287 . S
C1821 C1822 1.524 . S
C1821 H1824 0.999 . S
C1822 H1792 0.950 . S
C1822 C1821 1.524 . S
C1822 C1823 1.415 . S
C1823 H1793 0.950 . S
C1823 C1818 1.363 . S
C1823 C1822 1.415 . S
H1824 C1821 0.999 . S
H1825 C1806 0.913 . S
H1826 C1844 0.951 . S
H1827 C1846 0.951 . S
H1828 C1848 0.950 . S
H1829 C1849 0.950 . S
H1830 C1851 0.950 . S
H1831 C1854 0.950 . S
H1832 C1855 0.950 . S
H1833 C1857 0.950 . S
H1834 C1858 0.950 . S
H1835 C1859 0.951 . S
H1836 C1861 0.951 . S
H1837 C1863 0.950 . S
H1838 C1864 0.950 . S
H1839 C1866 0.950 . S
H1840 C1869 0.950 . S
H1841 C1870 0.950 . S
H1842 C1872 0.950 . S
H1843 C1873 0.950 . S
C1844 H1826 0.951 . S
C1844 C1845 1.366 . S
C1844 C1846 1.388 . S
C1845 C1844 1.366 . S
C1845 C1849 1.385 . S
C1846 H1827 0.951 . S
C1846 C1844 1.388 . S
C1846 C1847 1.366 . S
C1847 C1846 1.366 . S
C1847 C1848 1.414 . S
C1847 C1850 1.499 . S
C1848 H1828 0.950 . S
C1848 C1847 1.414 . S
C1848 C1849 1.374 . S
C1849 H1829 0.950 . S
C1849 C1845 1.385 . S
C1849 C1848 1.374 . S
C1850 C1847 1.499 . S
C1850 C1851 1.373 . S
C1850 C1852 1.389 . S
C1851 H1830 0.950 . S
C1851 C1850 1.373 . S
C1851 C1867 1.377 . S
C1852 C1850 1.389 . S
C1852 C1853 1.524 1_545 S
C1852 C1866 1.377 . S
C1853 C1852 1.524 1_565 S
C1853 C1854 1.397 . S
C1853 C1858 1.363 . S
C1854 H1831 0.950 . S
C1854 C1853 1.397 . S
C1854 C1855 1.334 . S
C1855 H1832 0.950 . S
C1855 C1854 1.334 . S
C1855 C1856 1.287 . S
C1856 C1855 1.287 . S
C1856 C1857 1.524 . S
C1856 H1875 0.913 . S
C1857 H1833 0.950 . S
C1857 C1856 1.524 . S
C1857 C1858 1.415 . S
C1858 H1834 0.950 . S
C1858 C1853 1.363 . S
C1858 C1857 1.415 . S
C1859 H1835 0.951 . S
C1859 C1860 1.366 . S
C1859 C1861 1.388 . S
C1860 C1859 1.366 . S
C1860 C1864 1.385 . S
C1861 H1836 0.951 . S
C1861 C1859 1.388 . S
C1861 C1862 1.366 . S
C1862 C1861 1.366 . S
C1862 C1863 1.414 . S
C1862 C1865 1.499 . S
C1863 H1837 0.950 . S
C1863 C1862 1.414 . S
C1863 C1864 1.374 . S
C1864 H1838 0.950 . S
C1864 C1860 1.385 . S
C1864 C1863 1.374 . S
C1865 C1862 1.499 . S
C1865 C1866 1.373 . S
C1865 C1867 1.389 . S
C1866 H1839 0.950 . S
C1866 C1852 1.377 . S
C1866 C1865 1.373 . S
C1867 C1851 1.377 . S
C1867 C1865 1.389 . S
C1867 C1868 1.524 . S
C1868 C1867 1.524 . S
C1868 C1869 1.397 . S
C1868 C1873 1.363 . S
C1869 H1840 0.950 . S
C1869 C1868 1.397 . S
C1869 C1870 1.334 . S
C1870 H1841 0.950 . S
C1870 C1869 1.334 . S
C1870 C1871 1.287 . S
C1871 C1870 1.287 . S
C1871 C1872 1.524 . S
C1871 H1874 0.999 . S
C1872 H1842 0.950 . S
C1872 C1871 1.524 . S
C1872 C1873 1.415 . S
C1873 H1843 0.950 . S
C1873 C1868 1.363 . S
C1873 C1872 1.415 . S
H1874 C1871 0.999 . S
H1875 C1856 0.913 . S
H1876 C1894 0.951 . S
H1877 C1896 0.951 . S
H1878 C1898 0.950 . S
H1879 C1899 0.950 . S
H1880 C1901 0.950 . S
H1881 C1904 0.950 . S
H1882 C1905 0.950 . S
H1883 C1907 0.950 . S
H1884 C1908 0.950 . S
H1885 C1909 0.951 . S
H1886 C1911 0.951 . S
H1887 C1913 0.950 . S
H1888 C1914 0.950 . S
H1889 C1916 0.950 . S
H1890 C1919 0.950 . S
H1891 C1920 0.950 . S
H1892 C1922 0.950 . S
H1893 C1923 0.950 . S
C1894 H1876 0.951 . S
C1894 C1895 1.366 . S
C1894 C1896 1.388 . S
C1895 C1894 1.366 . S
C1895 C1899 1.385 . S
C1896 H1877 0.951 . S
C1896 C1894 1.388 . S
C1896 C1897 1.366 . S
C1897 C1896 1.366 . S
C1897 C1898 1.414 . S
C1897 C1900 1.499 . S
C1898 H1878 0.950 . S
C1898 C1897 1.414 . S
C1898 C1899 1.374 . S
C1899 H1879 0.950 . S
C1899 C1895 1.385 . S
C1899 C1898 1.374 . S
C1900 C1897 1.499 . S
C1900 C1901 1.373 . S
C1900 C1902 1.389 . S
C1901 H1880 0.950 . S
C1901 C1900 1.373 . S
C1901 C1917 1.377 . S
C1902 C1900 1.389 . S
C1902 C1903 1.524 . S
C1902 C1916 1.377 . S
C1903 C1902 1.524 . S
C1903 C1904 1.397 . S
C1903 C1908 1.363 . S
C1904 H1881 0.950 . S
C1904 C1903 1.397 . S
C1904 C1905 1.334 . S
C1905 H1882 0.950 . S
C1905 C1904 1.334 . S
C1905 C1906 1.287 . S
C1906 C1905 1.287 . S
C1906 C1907 1.524 . S
C1906 H1925 0.913 . S
C1907 H1883 0.950 . S
C1907 C1906 1.524 . S
C1907 C1908 1.415 . S
C1908 H1884 0.950 . S
C1908 C1903 1.363 . S
C1908 C1907 1.415 . S
C1909 H1885 0.951 . S
C1909 C1910 1.366 . S
C1909 C1911 1.388 . S
C1910 C1909 1.366 . S
C1910 C1914 1.385 . S
C1911 H1886 0.951 . S
C1911 C1909 1.388 . S
C1911 C1912 1.366 . S
C1912 C1911 1.366 . S
C1912 C1913 1.414 . S
C1912 C1915 1.499 . S
C1913 H1887 0.950 . S
C1913 C1912 1.414 . S
C1913 C1914 1.374 . S
C1914 H1888 0.950 . S
C1914 C1910 1.385 . S
C1914 C1913 1.374 . S
C1915 C1912 1.499 . S
C1915 C1916 1.373 . S
C1915 C1917 1.389 . S
C1916 H1889 0.950 . S
C1916 C1902 1.377 . S
C1916 C1915 1.373 . S
C1917 C1901 1.377 . S
C1917 C1915 1.389 . S
C1917 C1918 1.524 . S
C1918 C1917 1.524 . S
C1918 C1919 1.397 . S
C1918 C1923 1.363 . S
C1919 H1890 0.950 . S
C1919 C1918 1.397 . S
C1919 C1920 1.334 . S
C1920 H1891 0.950 . S
C1920 C1919 1.334 . S
C1920 C1921 1.287 . S
C1921 C1920 1.287 . S
C1921 C1922 1.524 . S
C1921 H1924 0.999 . S
C1922 H1892 0.950 . S
C1922 C1921 1.524 . S
C1922 C1923 1.415 . S
C1923 H1893 0.950 . S
C1923 C1918 1.363 . S
C1923 C1922 1.415 . S
H1924 C1921 0.999 . S
H1925 C1906 0.913 . S
H1926 C1944 0.951 . S
H1927 C1946 0.951 . S
H1928 C1948 0.950 . S
H1929 C1949 0.950 . S
H1930 C1951 0.950 . S
H1931 C1954 0.950 . S
H1932 C1955 0.950 . S
H1933 C1957 0.950 . S
H1934 C1958 0.950 . S
H1935 C1959 0.951 . S
H1936 C1961 0.951 . S
H1937 C1963 0.950 . S
H1938 C1964 0.950 . S
H1939 C1966 0.950 . S
H1940 C1969 0.950 . S
H1941 C1970 0.950 . S
H1942 C1972 0.950 . S
H1943 C1973 0.950 . S
C1944 H1926 0.951 . S
C1944 C1945 1.366 . S
C1944 C1946 1.388 . S
C1945 C1944 1.366 . S
C1945 C1949 1.385 1_556 S
C1946 H1927 0.951 . S
C1946 C1944 1.388 . S
C1946 C1947 1.366 . S
C1947 C1946 1.366 . S
C1947 C1948 1.414 1_556 S
C1947 C1950 1.499 . S
C1948 H1928 0.950 . S
C1948 C1947 1.414 1_554 S
C1948 C1949 1.374 . S
C1949 H1929 0.950 . S
C1949 C1945 1.385 1_554 S
C1949 C1948 1.374 . S
C1950 C1947 1.499 . S
C1950 C1951 1.373 . S
C1950 C1952 1.389 . S
C1951 H1930 0.950 . S
C1951 C1950 1.373 . S
C1951 C1967 1.377 . S
C1952 C1950 1.389 . S
C1952 C1953 1.524 . S
C1952 C1966 1.377 . S
C1953 C1952 1.524 . S
C1953 C1954 1.397 1_556 S
C1953 C1958 1.363 . S
C1954 H1931 0.950 . S
C1954 C1953 1.397 1_554 S
C1954 C1955 1.334 . S
C1955 H1932 0.950 . S
C1955 C1954 1.334 . S
C1955 C1956 1.257 1_554 S
C1956 C1955 1.257 1_556 S
C1956 C1957 1.567 . S
C1956 H1975 0.903 1_556 S
C1957 H1933 0.950 . S
C1957 C1956 1.567 . S
C1957 C1958 1.415 . S
C1958 H1934 0.950 . S
C1958 C1953 1.363 . S
C1958 C1957 1.415 . S
C1959 H1935 0.951 . S
C1959 C1960 1.366 . S
C1959 C1961 1.388 . S
C1960 C1959 1.366 . S
C1960 C1964 1.385 . S
C1961 H1936 0.951 . S
C1961 C1959 1.388 . S
C1961 C1962 1.366 . S
C1962 C1961 1.366 . S
C1962 C1963 1.414 . S
C1962 C1965 1.499 . S
C1963 H1937 0.950 . S
C1963 C1962 1.414 . S
C1963 C1964 1.374 . S
C1964 H1938 0.950 . S
C1964 C1960 1.385 . S
C1964 C1963 1.374 . S
C1965 C1962 1.499 . S
C1965 C1966 1.373 . S
C1965 C1967 1.389 . S
C1966 H1939 0.950 . S
C1966 C1952 1.377 . S
C1966 C1965 1.373 . S
C1967 C1951 1.377 . S
C1967 C1965 1.389 . S
C1967 C1968 1.524 . S
C1968 C1967 1.524 . S
C1968 C1969 1.397 . S
C1968 C1973 1.363 . S
C1969 H1940 0.950 . S
C1969 C1968 1.397 . S
C1969 C1970 1.334 . S
C1970 H1941 0.950 . S
C1970 C1969 1.334 . S
C1970 C1971 1.287 . S
C1971 C1970 1.287 . S
C1971 C1972 1.524 . S
C1971 H1974 0.999 . S
C1972 H1942 0.950 . S
C1972 C1971 1.524 . S
C1972 C1973 1.415 . S
C1973 H1943 0.950 . S
C1973 C1968 1.363 . S
C1973 C1972 1.415 . S
H1974 C1971 0.999 . S
H1975 C1956 0.903 1_554 S
H1976 C1994 0.955 . S
H1977 C1996 0.951 . S
H1978 C1998 0.950 . S
H1979 C1999 0.950 . S
H1980 C2001 0.950 . S
H1981 C2004 0.950 . S
H1982 C2005 0.950 . S
H1983 C2007 0.950 . S
H1984 C2008 0.950 . S
H1985 C2009 0.951 . S
H1986 C2011 0.951 . S
H1987 C2013 0.950 . S
H1988 C2014 0.950 . S
H1989 C2016 0.985 . S
H1990 C2019 0.950 . S
H1991 C2020 0.950 . S
H1992 C2022 0.950 . S
H1993 C2023 0.950 . S
C1994 H1976 0.955 . S
C1994 C1995 1.364 1_554 S
C1994 C1996 1.386 1_554 S
C1995 C1994 1.364 1_556 S
C1995 C1999 1.384 . S
C1996 H1977 0.951 . S
C1996 C1994 1.386 1_556 S
C1996 C1997 1.366 . S
C1997 C1996 1.366 . S
C1997 C1998 1.414 . S
C1997 C2000 1.499 . S
C1998 H1978 0.950 . S
C1998 C1997 1.414 . S
C1998 C1999 1.374 . S
C1999 H1979 0.950 . S
C1999 C1995 1.384 . S
C1999 C1998 1.374 . S
C2000 C1997 1.499 . S
C2000 C2001 1.373 . S
C2000 C2002 1.389 1_556 S
C2001 H1980 0.950 . S
C2001 C2000 1.373 . S
C2001 C2017 1.377 . S
C2002 C2000 1.389 1_554 S
C2002 C2003 1.524 . S
C2002 C2016 1.387 . S
C2003 C2002 1.524 . S
C2003 C2004 1.397 . S
C2003 C2008 1.363 . S
C2004 H1981 0.950 . S
C2004 C2003 1.397 . S
C2004 C2005 1.334 . S
C2005 H1982 0.950 . S
C2005 C2004 1.334 . S
C2005 C2006 1.287 . S
C2006 C2005 1.287 . S
C2006 C2007 1.524 . S
C2006 H2025 0.913 . S
C2007 H1983 0.950 . S
C2007 C2006 1.524 . S
C2007 C2008 1.415 . S
C2008 H1984 0.950 . S
C2008 C2003 1.363 . S
C2008 C2007 1.415 . S
C2009 H1985 0.951 . S
C2009 C2010 1.366 . S
C2009 C2011 1.388 . S
C2010 C2009 1.366 . S
C2010 C2014 1.385 . S
C2011 H1986 0.951 . S
C2011 C2009 1.388 . S
C2011 C2012 1.366 . S
C2012 C2011 1.366 . S
C2012 C2013 1.414 . S
C2012 C2015 1.499 . S
C2013 H1987 0.950 . S
C2013 C2012 1.414 . S
C2013 C2014 1.374 . S
C2014 H1988 0.950 . S
C2014 C2010 1.385 . S
C2014 C2013 1.374 . S
C2015 C2012 1.499 . S
C2015 C2016 1.331 1_556 S
C2015 C2017 1.389 . S
C2016 H1989 0.985 . S
C2016 C2002 1.387 . S
C2016 C2015 1.331 1_554 S
C2017 C2001 1.377 . S
C2017 C2015 1.389 . S
C2017 C2018 1.524 . S
C2018 C2017 1.524 . S
C2018 C2019 1.397 . S
C2018 C2023 1.363 . S
C2019 H1990 0.950 . S
C2019 C2018 1.397 . S
C2019 C2020 1.334 . S
C2020 H1991 0.950 . S
C2020 C2019 1.334 . S
C2020 C2021 1.287 . S
C2021 C2020 1.287 . S
C2021 C2022 1.524 . S
C2021 H2024 0.999 . S
C2022 H1992 0.950 . S
C2022 C2021 1.524 . S
C2022 C2023 1.415 . S
C2023 H1993 0.950 . S
C2023 C2018 1.363 . S
C2023 C2022 1.415 . S
H2024 C2021 0.999 . S
H2025 C2006 0.913 . S
H2026 C2044 0.951 . S
H2027 C2046 0.951 . S
H2028 C2048 0.950 . S
H2029 C2049 0.950 . S
H2030 C2051 0.950 . S
H2031 C2054 0.950 . S
H2032 C2055 0.950 . S
H2033 C2057 0.950 . S
H2034 C2058 0.920 1_554 S
H2035 C2059 0.951 . S
H2036 C2061 0.951 . S
H2037 C2063 0.950 . S
H2038 C2064 0.950 . S
H2039 C2066 0.950 . S
H2040 C2069 0.950 . S
H2041 C2070 0.950 . S
H2042 C2072 0.950 . S
H2043 C2073 0.950 . S
C2044 H2026 0.951 . S
C2044 C2045 1.366 . S
C2044 C2046 1.388 . S
C2045 C2044 1.366 . S
C2045 C2049 1.385 . S
C2046 H2027 0.951 . S
C2046 C2044 1.388 . S
C2046 C2047 1.366 . S
C2047 C2046 1.366 . S
C2047 C2048 1.414 . S
C2047 C2050 1.499 . S
C2048 H2028 0.950 . S
C2048 C2047 1.414 . S
C2048 C2049 1.374 . S
C2049 H2029 0.950 . S
C2049 C2045 1.385 . S
C2049 C2048 1.374 . S
C2050 C2047 1.499 . S
C2050 C2051 1.373 . S
C2050 C2052 1.389 . S
C2051 H2030 0.950 . S
C2051 C2050 1.373 . S
C2051 C2067 1.377 . S
C2052 C2050 1.389 . S
C2052 C2053 1.524 1_554 S
C2052 C2066 1.377 . S
C2053 C2052 1.524 1_556 S
C2053 C2054 1.397 . S
C2053 C2058 1.363 . S
C2054 H2031 0.950 . S
C2054 C2053 1.397 . S
C2054 C2055 1.334 . S
C2055 H2032 0.950 . S
C2055 C2054 1.334 . S
C2055 C2056 1.287 . S
C2056 C2055 1.287 . S
C2056 C2057 1.524 . S
C2056 H2075 0.913 . S
C2057 H2033 0.950 . S
C2057 C2056 1.524 . S
C2057 C2058 1.415 . S
C2058 H2034 0.920 1_556 S
C2058 C2053 1.363 . S
C2058 C2057 1.415 . S
C2059 H2035 0.951 . S
C2059 C2060 1.366 1_655 S
C2059 C2061 1.388 . S
C2060 C2059 1.366 1_455 S
C2060 C2064 1.385 . S
C2061 H2036 0.951 . S
C2061 C2059 1.388 . S
C2061 C2062 1.366 . S
C2062 C2061 1.366 . S
C2062 C2063 1.414 . S
C2062 C2065 1.499 . S
C2063 H2037 0.950 . S
C2063 C2062 1.414 . S
C2063 C2064 1.374 1_655 S
C2064 H2038 0.950 . S
C2064 C2060 1.385 . S
C2064 C2063 1.374 1_455 S
C2065 C2062 1.499 . S
C2065 C2066 1.373 . S
C2065 C2067 1.389 . S
C2066 H2039 0.950 . S
C2066 C2052 1.377 . S
C2066 C2065 1.373 . S
C2067 C2051 1.377 . S
C2067 C2065 1.389 . S
C2067 C2068 1.524 . S
C2068 C2067 1.524 . S
C2068 C2069 1.397 . S
C2068 C2073 1.363 . S
C2069 H2040 0.950 . S
C2069 C2068 1.397 . S
C2069 C2070 1.334 . S
C2070 H2041 0.950 . S
C2070 C2069 1.334 . S
C2070 C2071 1.287 . S
C2071 C2070 1.287 . S
C2071 C2072 1.524 . S
C2071 H2074 0.999 . S
C2072 H2042 0.950 . S
C2072 C2071 1.524 . S
C2072 C2073 1.415 . S
C2073 H2043 0.950 . S
C2073 C2068 1.363 . S
C2073 C2072 1.415 . S
H2074 C2071 0.999 . S
H2075 C2056 0.913 . S
H2076 C2094 0.951 . S
H2077 C2096 0.951 . S
H2078 C2098 0.950 . S
H2079 C2099 0.950 . S
H2080 C2101 0.950 . S
H2081 C2104 0.950 . S
H2082 C2105 0.950 . S
H2083 C2107 0.950 . S
H2084 C2108 0.950 . S
H2085 C2109 0.951 . S
H2086 C2111 0.951 . S
H2087 C2113 0.950 . S
H2088 C2114 0.950 . S
H2089 C2116 0.950 . S
H2090 C2119 0.950 . S
H2091 C2120 0.950 . S
H2092 C2122 0.950 . S
H2093 C2123 0.949 . S
C2094 H2076 0.951 . S
C2094 C2095 1.366 . S
C2094 C2096 1.388 . S
C2095 C2094 1.366 . S
C2095 C2099 1.385 . S
C2096 H2077 0.951 . S
C2096 C2094 1.388 . S
C2096 C2097 1.366 . S
C2097 C2096 1.366 . S
C2097 C2098 1.414 . S
C2097 C2100 1.499 . S
C2098 H2078 0.950 . S
C2098 C2097 1.414 . S
C2098 C2099 1.374 . S
C2099 H2079 0.950 . S
C2099 C2095 1.385 . S
C2099 C2098 1.374 . S
C2100 C2097 1.499 . S
C2100 C2101 1.373 . S
C2100 C2102 1.389 . S
C2101 H2080 0.950 . S
C2101 C2100 1.373 . S
C2101 C2117 1.377 . S
C2102 C2100 1.389 . S
C2102 C2103 1.524 . S
C2102 C2116 1.377 . S
C2103 C2102 1.524 . S
C2103 C2104 1.397 . S
C2103 C2108 1.363 . S
C2104 H2081 0.950 . S
C2104 C2103 1.397 . S
C2104 C2105 1.334 . S
C2105 H2082 0.950 . S
C2105 C2104 1.334 . S
C2105 C2106 1.287 . S
C2106 C2105 1.287 . S
C2106 C2107 1.524 . S
C2106 H2125 0.913 . S
C2107 H2083 0.950 . S
C2107 C2106 1.524 . S
C2107 C2108 1.415 . S
C2108 H2084 0.950 . S
C2108 C2103 1.363 . S
C2108 C2107 1.415 . S
C2109 H2085 0.951 . S
C2109 C2110 1.366 . S
C2109 C2111 1.388 . S
C2110 C2109 1.366 . S
C2110 C2114 1.385 . S
C2111 H2086 0.951 . S
C2111 C2109 1.388 . S
C2111 C2112 1.366 . S
C2112 C2111 1.366 . S
C2112 C2113 1.414 . S
C2112 C2115 1.499 . S
C2113 H2087 0.950 . S
C2113 C2112 1.414 . S
C2113 C2114 1.374 . S
C2114 H2088 0.950 . S
C2114 C2110 1.385 . S
C2114 C2113 1.374 . S
C2115 C2112 1.499 . S
C2115 C2116 1.373 . S
C2115 C2117 1.389 . S
C2116 H2089 0.950 . S
C2116 C2102 1.377 . S
C2116 C2115 1.373 . S
C2117 C2101 1.377 . S
C2117 C2115 1.389 . S
C2117 C2118 1.524 . S
C2118 C2117 1.524 . S
C2118 C2119 1.397 . S
C2118 C2123 1.365 1_455 S
C2119 H2090 0.950 . S
C2119 C2118 1.397 . S
C2119 C2120 1.334 . S
C2120 H2091 0.950 . S
C2120 C2119 1.334 . S
C2120 C2121 1.287 . S
C2121 C2120 1.287 . S
C2121 C2122 1.524 1_455 S
C2121 H2124 0.999 1_455 S
C2122 H2092 0.950 . S
C2122 C2121 1.524 1_655 S
C2122 C2123 1.414 . S
C2123 H2093 0.949 . S
C2123 C2118 1.365 1_655 S
C2123 C2122 1.414 . S
H2124 C2121 0.999 1_655 S
H2125 C2106 0.913 . S
H2126 C2144 0.951 . S
H2127 C2146 0.951 . S
H2128 C2148 0.950 . S
H2129 C2149 0.950 . S
H2130 C2151 0.950 . S
H2131 C2154 0.950 1_455 S
H2132 C2155 0.950 . S
H2133 C2157 0.950 . S
H2134 C2158 0.950 . S
H2135 C2159 0.939 1_455 S
H2136 C2161 0.951 . S
H2137 C2163 0.950 . S
H2138 C2164 0.950 . S
H2139 C2166 0.950 . S
H2140 C2169 0.950 1_655 S
H2141 C2170 0.953 . S
H2142 C2172 0.950 . S
H2143 C2173 0.950 . S
C2144 H2126 0.951 . S
C2144 C2145 1.366 1_655 S
C2144 C2146 1.388 . S
C2145 C2144 1.366 1_455 S
C2145 C2149 1.385 . S
C2146 H2127 0.951 . S
C2146 C2144 1.388 . S
C2146 C2147 1.366 1_655 S
C2147 C2146 1.366 1_455 S
C2147 C2148 1.414 . S
C2147 C2150 1.497 . S
C2148 H2128 0.950 . S
C2148 C2147 1.414 . S
C2148 C2149 1.374 . S
C2149 H2129 0.950 . S
C2149 C2145 1.385 . S
C2149 C2148 1.374 . S
C2150 C2147 1.497 . S
C2150 C2151 1.371 . S
C2150 C2152 1.393 1_455 S
C2151 H2130 0.950 . S
C2151 C2150 1.371 . S
C2151 C2167 1.377 . S
C2152 C2150 1.393 1_655 S
C2152 C2153 1.524 . S
C2152 C2166 1.377 . S
C2153 C2152 1.524 . S
C2153 C2154 1.397 . S
C2153 C2158 1.363 . S
C2154 H2131 0.950 1_655 S
C2154 C2153 1.397 . S
C2154 C2155 1.334 . S
C2155 H2132 0.950 . S
C2155 C2154 1.334 . S
C2155 C2156 1.287 . S
C2156 C2155 1.287 . S
C2156 C2157 1.524 . S
C2156 H2175 0.913 . S
C2157 H2133 0.950 . S
C2157 C2156 1.524 . S
C2157 C2158 1.415 . S
C2158 H2134 0.950 . S
C2158 C2153 1.363 . S
C2158 C2157 1.415 . S
C2159 H2135 0.939 1_655 S
C2159 C2160 1.381 . S
C2159 C2161 1.384 1_655 S
C2160 C2159 1.381 . S
C2160 C2164 1.385 . S
C2161 H2136 0.951 . S
C2161 C2159 1.384 1_455 S
C2161 C2162 1.366 1_455 S
C2162 C2161 1.366 1_655 S
C2162 C2163 1.414 . S
C2162 C2165 1.499 . S
C2163 H2137 0.950 . S
C2163 C2162 1.414 . S
C2163 C2164 1.374 . S
C2164 H2138 0.950 . S
C2164 C2160 1.385 . S
C2164 C2163 1.374 . S
C2165 C2162 1.499 . S
C2165 C2166 1.373 . S
C2165 C2167 1.389 1_655 S
C2166 H2139 0.950 . S
C2166 C2152 1.377 . S
C2166 C2165 1.373 . S
C2167 C2151 1.377 . S
C2167 C2165 1.389 1_455 S
C2167 C2168 1.524 . S
C2168 C2167 1.524 . S
C2168 C2169 1.397 . S
C2168 C2173 1.363 . S
C2169 H2140 0.950 1_455 S
C2169 C2168 1.397 . S
C2169 C2170 1.334 . S
C2170 H2141 0.953 . S
C2170 C2169 1.334 . S
C2170 C2171 1.287 . S
C2171 C2170 1.287 . S
C2171 C2172 1.524 . S
C2171 H2174 0.999 . S
C2172 H2142 0.950 . S
C2172 C2171 1.524 . S
C2172 C2173 1.415 . S
C2173 H2143 0.950 . S
C2173 C2168 1.363 . S
C2173 C2172 1.415 . S
H2174 C2171 0.999 . S
H2175 C2156 0.913 . S
H2176 C2194 0.951 1_655 S
H2177 C2196 0.951 1_655 S
H2178 C2198 0.950 . S
H2179 C2199 0.950 . S
H2180 C2201 0.950 . S
H2181 C2204 0.950 1_455 S
H2182 C2205 0.950 . S
H2183 C2207 0.950 . S
H2184 C2208 0.950 . S
H2185 C2209 0.951 . S
H2186 C2211 0.951 . S
H2187 C2213 0.950 1_655 S
H2188 C2214 0.950 1_655 S
H2189 C2216 0.950 1_655 S
H2190 C2219 0.950 . S
H2191 C2220 0.950 . S
H2192 C2222 0.950 . S
H2193 C2223 0.950 . S
C2194 H2176 0.951 1_455 S
C2194 C2195 1.366 . S
C2194 C2196 1.388 . S
C2195 C2194 1.366 . S
C2195 C2199 1.385 . S
C2196 H2177 0.951 1_455 S
C2196 C2194 1.388 . S
C2196 C2197 1.366 . S
C2197 C2196 1.366 . S
C2197 C2198 1.414 . S
C2197 C2200 1.499 . S
C2198 H2178 0.950 . S
C2198 C2197 1.414 . S
C2198 C2199 1.374 . S
C2199 H2179 0.950 . S
C2199 C2195 1.385 . S
C2199 C2198 1.374 . S
C2200 C2197 1.499 . S
C2200 C2201 1.373 . S
C2200 C2202 1.389 . S
C2201 H2180 0.950 . S
C2201 C2200 1.373 . S
C2201 C2217 1.377 . S
C2202 C2200 1.389 . S
C2202 C2203 1.524 1_455 S
C2202 C2216 1.377 . S
C2203 C2202 1.524 1_655 S
C2203 C2204 1.397 . S
C2203 C2208 1.363 . S
C2204 H2181 0.950 1_655 S
C2204 C2203 1.397 . S
C2204 C2205 1.334 . S
C2205 H2182 0.950 . S
C2205 C2204 1.334 . S
C2205 C2206 1.287 . S
C2206 C2205 1.287 . S
C2206 C2207 1.524 . S
C2206 H2225 0.913 . S
C2207 H2183 0.950 . S
C2207 C2206 1.524 . S
C2207 C2208 1.415 . S
C2208 H2184 0.950 . S
C2208 C2203 1.363 . S
C2208 C2207 1.415 . S
C2209 H2185 0.951 . S
C2209 C2210 1.366 . S
C2209 C2211 1.388 . S
C2210 C2209 1.366 . S
C2210 C2214 1.385 . S
C2211 H2186 0.951 . S
C2211 C2209 1.388 . S
C2211 C2212 1.366 . S
C2212 C2211 1.366 . S
C2212 C2213 1.414 . S
C2212 C2215 1.499 . S
C2213 H2187 0.950 1_455 S
C2213 C2212 1.414 . S
C2213 C2214 1.374 . S
C2214 H2188 0.950 1_455 S
C2214 C2210 1.385 . S
C2214 C2213 1.374 . S
C2215 C2212 1.499 . S
C2215 C2216 1.373 . S
C2215 C2217 1.389 . S
C2216 H2189 0.950 1_455 S
C2216 C2202 1.377 . S
C2216 C2215 1.373 . S
C2217 C2201 1.377 . S
C2217 C2215 1.389 . S
C2217 C2218 1.524 . S
C2218 C2217 1.524 . S
C2218 C2219 1.397 . S
C2218 C2223 1.363 . S
C2219 H2190 0.950 . S
C2219 C2218 1.397 . S
C2219 C2220 1.334 . S
C2220 H2191 0.950 . S
C2220 C2219 1.334 . S
C2220 C2221 1.287 . S
C2221 C2220 1.287 . S
C2221 C2222 1.524 . S
C2221 H2224 0.999 . S
C2222 H2192 0.950 . S
C2222 C2221 1.524 . S
C2222 C2223 1.415 . S
C2223 H2193 0.950 . S
C2223 C2218 1.363 . S
C2223 C2222 1.415 . S
H2224 C2221 0.999 . S
H2225 C2206 0.913 . S
H2226 C2244 0.951 . S
H2227 C2246 0.951 . S
H2228 C2248 0.950 . S
H2229 C2249 0.950 . S
H2230 C2251 0.950 . S
H2231 C2254 0.950 . S
H2232 C2255 0.950 . S
H2233 C2257 0.950 . S
H2234 C2258 0.950 . S
H2235 C2259 0.951 . S
H2236 C2261 0.951 . S
H2237 C2263 0.950 . S
H2238 C2264 0.950 . S
H2239 C2266 0.950 1_455 S
H2240 C2269 0.950 . S
H2241 C2270 0.950 . S
H2242 C2272 0.950 . S
H2243 C2273 0.950 . S
C2244 H2226 0.951 . S
C2244 C2245 1.366 . S
C2244 C2246 1.388 . S
C2245 C2244 1.366 . S
C2245 C2249 1.385 . S
C2246 H2227 0.951 . S
C2246 C2244 1.388 . S
C2246 C2247 1.366 . S
C2247 C2246 1.366 . S
C2247 C2248 1.414 . S
C2247 C2250 1.499 . S
C2248 H2228 0.950 . S
C2248 C2247 1.414 . S
C2248 C2249 1.374 . S
C2249 H2229 0.950 . S
C2249 C2245 1.385 . S
C2249 C2248 1.374 . S
C2250 C2247 1.499 . S
C2250 C2251 1.373 . S
C2250 C2252 1.418 . S
C2251 H2230 0.950 . S
C2251 C2250 1.373 . S
C2251 C2267 1.377 . S
C2252 C2250 1.418 . S
C2252 C2253 1.487 1_655 S
C2252 C2266 1.384 . S
C2253 C2252 1.487 1_455 S
C2253 C2254 1.397 . S
C2253 C2258 1.363 . S
C2254 H2231 0.950 . S
C2254 C2253 1.397 . S
C2254 C2255 1.334 . S
C2255 H2232 0.950 . S
C2255 C2254 1.334 . S
C2255 C2256 1.287 . S
C2256 C2255 1.287 . S
C2256 C2257 1.524 . S
C2256 H2275 0.913 . S
C2257 H2233 0.950 . S
C2257 C2256 1.524 . S
C2257 C2258 1.415 . S
C2258 H2234 0.950 . S
C2258 C2253 1.363 . S
C2258 C2257 1.415 . S
C2259 H2235 0.951 . S
C2259 C2260 1.366 . S
C2259 C2261 1.388 . S
C2260 C2259 1.366 . S
C2260 C2264 1.385 . S
C2261 H2236 0.951 . S
C2261 C2259 1.388 . S
C2261 C2262 1.366 . S
C2262 C2261 1.366 . S
C2262 C2263 1.414 . S
C2262 C2265 1.499 . S
C2263 H2237 0.950 . S
C2263 C2262 1.414 . S
C2263 C2264 1.374 . S
C2264 H2238 0.950 . S
C2264 C2260 1.385 . S
C2264 C2263 1.374 . S
C2265 C2262 1.499 . S
C2265 C2266 1.373 . S
C2265 C2267 1.389 . S
C2266 H2239 0.950 1_655 S
C2266 C2252 1.384 . S
C2266 C2265 1.373 . S
C2267 C2251 1.377 . S
C2267 C2265 1.389 . S
C2267 C2268 1.524 . S
C2268 C2267 1.524 . S
C2268 C2269 1.397 . S
C2268 C2273 1.363 . S
C2269 H2240 0.950 . S
C2269 C2268 1.397 . S
C2269 C2270 1.334 . S
C2270 H2241 0.950 . S
C2270 C2269 1.334 . S
C2270 C2271 1.287 . S
C2271 C2270 1.287 . S
C2271 C2272 1.524 . S
C2271 H2274 0.999 . S
C2272 H2242 0.950 . S
C2272 C2271 1.524 . S
C2272 C2273 1.415 . S
C2273 H2243 0.950 . S
C2273 C2268 1.363 . S
C2273 C2272 1.415 . S
H2274 C2271 0.999 . S
H2275 C2256 0.913 . S
H2276 C2294 0.951 . S
H2277 C2296 0.951 . S
H2278 C2298 0.950 . S
H2279 C2299 0.950 . S
H2280 C2301 0.950 . S
H2281 C2304 0.950 . S
H2282 C2305 0.950 . S
H2283 C2307 0.950 . S
H2284 C2308 0.950 . S
H2285 C2309 0.951 . S
H2286 C2311 0.951 . S
H2287 C2313 0.950 . S
H2288 C2314 0.950 . S
H2289 C2316 0.950 . S
H2290 C2319 0.950 1_545 S
H2291 C2320 0.950 . S
H2292 C2322 0.950 . S
H2293 C2323 0.950 . S
C2294 H2276 0.951 . S
C2294 C2295 1.366 . S
C2294 C2296 1.388 . S
C2295 C2294 1.366 . S
C2295 C2299 1.385 . S
C2296 H2277 0.951 . S
C2296 C2294 1.388 . S
C2296 C2297 1.366 . S
C2297 C2296 1.366 . S
C2297 C2298 1.414 . S
C2297 C2300 1.499 . S
C2298 H2278 0.950 . S
C2298 C2297 1.414 . S
C2298 C2299 1.374 . S
C2299 H2279 0.950 . S
C2299 C2295 1.385 . S
C2299 C2298 1.374 . S
C2300 C2297 1.499 . S
C2300 C2301 1.373 . S
C2300 C2302 1.389 . S
C2301 H2280 0.950 . S
C2301 C2300 1.373 . S
C2301 C2317 1.377 . S
C2302 C2300 1.389 . S
C2302 C2303 1.524 . S
C2302 C2316 1.377 . S
C2303 C2302 1.524 . S
C2303 C2304 1.397 . S
C2303 C2308 1.363 . S
C2304 H2281 0.950 . S
C2304 C2303 1.397 . S
C2304 C2305 1.334 . S
C2305 H2282 0.950 . S
C2305 C2304 1.334 . S
C2305 C2306 1.287 . S
C2306 C2305 1.287 . S
C2306 C2307 1.524 . S
C2306 H2325 0.913 . S
C2307 H2283 0.950 . S
C2307 C2306 1.524 . S
C2307 C2308 1.415 . S
C2308 H2284 0.950 . S
C2308 C2303 1.363 . S
C2308 C2307 1.415 . S
C2309 H2285 0.951 . S
C2309 C2310 1.366 . S
C2309 C2311 1.388 . S
C2310 C2309 1.366 . S
C2310 C2314 1.385 . S
C2311 H2286 0.951 . S
C2311 C2309 1.388 . S
C2311 C2312 1.366 . S
C2312 C2311 1.366 . S
C2312 C2313 1.414 . S
C2312 C2315 1.499 . S
C2313 H2287 0.950 . S
C2313 C2312 1.414 . S
C2313 C2314 1.374 . S
C2314 H2288 0.950 . S
C2314 C2310 1.385 . S
C2314 C2313 1.374 . S
C2315 C2312 1.499 . S
C2315 C2316 1.373 . S
C2315 C2317 1.389 . S
C2316 H2289 0.950 . S
C2316 C2302 1.377 . S
C2316 C2315 1.373 . S
C2317 C2301 1.377 . S
C2317 C2315 1.389 . S
C2317 C2318 1.548 . S
C2318 C2317 1.548 . S
C2318 C2319 1.392 1_545 S
C2318 C2323 1.345 1_545 S
C2319 H2290 0.950 1_565 S
C2319 C2318 1.392 1_565 S
C2319 C2320 1.334 . S
C2320 H2291 0.950 . S
C2320 C2319 1.334 . S
C2320 C2321 1.287 . S
C2321 C2320 1.287 . S
C2321 C2322 1.524 . S
C2321 H2324 0.999 . S
C2322 H2292 0.950 . S
C2322 C2321 1.524 . S
C2322 C2323 1.415 . S
C2323 H2293 0.950 . S
C2323 C2318 1.345 1_565 S
C2323 C2322 1.415 . S
H2324 C2321 0.999 . S
H2325 C2306 0.913 . S
H2326 C2344 0.951 . S
H2327 C2346 0.951 . S
H2328 C2348 0.950 . S
H2329 C2349 0.950 . S
H2330 C2351 0.950 . S
H2331 C2354 0.950 . S
H2332 C2355 0.950 . S
H2333 C2357 0.950 . S
H2334 C2358 0.950 . S
H2335 C2359 0.951 . S
H2336 C2361 0.951 . S
H2337 C2363 0.950 . S
H2338 C2364 0.950 . S
H2339 C2366 0.950 . S
H2340 C2369 0.950 . S
H2341 C2370 0.950 . S
H2342 C2372 0.950 . S
H2343 C2373 0.950 . S
C2344 H2326 0.951 . S
C2344 C2345 1.366 . S
C2344 C2346 1.388 . S
C2345 C2344 1.366 . S
C2345 C2349 1.385 . S
C2346 H2327 0.951 . S
C2346 C2344 1.388 . S
C2346 C2347 1.366 . S
C2347 C2346 1.366 . S
C2347 C2348 1.414 . S
C2347 C2350 1.499 . S
C2348 H2328 0.950 . S
C2348 C2347 1.414 . S
C2348 C2349 1.374 . S
C2349 H2329 0.950 . S
C2349 C2345 1.385 . S
C2349 C2348 1.374 . S
C2350 C2347 1.499 . S
C2350 C2351 1.373 . S
C2350 C2352 1.389 . S
C2351 H2330 0.950 . S
C2351 C2350 1.373 . S
C2351 C2367 1.377 . S
C2352 C2350 1.389 . S
C2352 C2353 1.524 . S
C2352 C2366 1.377 . S
C2353 C2352 1.524 . S
C2353 C2354 1.397 . S
C2353 C2358 1.363 . S
C2354 H2331 0.950 . S
C2354 C2353 1.397 . S
C2354 C2355 1.334 . S
C2355 H2332 0.950 . S
C2355 C2354 1.334 . S
C2355 C2356 1.287 . S
C2356 C2355 1.287 . S
C2356 C2357 1.524 . S
C2356 H2375 0.913 . S
C2357 H2333 0.950 . S
C2357 C2356 1.524 . S
C2357 C2358 1.415 . S
C2358 H2334 0.950 . S
C2358 C2353 1.363 . S
C2358 C2357 1.415 . S
C2359 H2335 0.951 . S
C2359 C2360 1.366 . S
C2359 C2361 1.388 . S
C2360 C2359 1.366 . S
C2360 C2364 1.385 . S
C2361 H2336 0.951 . S
C2361 C2359 1.388 . S
C2361 C2362 1.366 . S
C2362 C2361 1.366 . S
C2362 C2363 1.414 . S
C2362 C2365 1.499 . S
C2363 H2337 0.950 . S
C2363 C2362 1.414 . S
C2363 C2364 1.374 . S
C2364 H2338 0.950 . S
C2364 C2360 1.385 . S
C2364 C2363 1.374 . S
C2365 C2362 1.499 . S
C2365 C2366 1.373 . S
C2365 C2367 1.389 . S
C2366 H2339 0.950 . S
C2366 C2352 1.377 . S
C2366 C2365 1.373 . S
C2367 C2351 1.377 . S
C2367 C2365 1.389 . S
C2367 C2368 1.524 . S
C2368 C2367 1.524 . S
C2368 C2369 1.397 . S
C2368 C2373 1.363 . S
C2369 H2340 0.950 . S
C2369 C2368 1.397 . S
C2369 C2370 1.334 . S
C2370 H2341 0.950 . S
C2370 C2369 1.334 . S
C2370 C2371 1.287 . S
C2371 C2370 1.287 . S
C2371 C2372 1.524 . S
C2371 H2374 0.999 . S
C2372 H2342 0.950 . S
C2372 C2371 1.524 . S
C2372 C2373 1.415 . S
C2373 H2343 0.950 . S
C2373 C2368 1.363 . S
C2373 C2372 1.415 . S
H2374 C2371 0.999 . S
H2375 C2356 0.913 . S
H2376 C2394 0.951 . S
H2377 C2396 0.951 . S
H2378 C2398 0.950 1_545 S
H2379 C2399 0.950 . S
H2380 C2401 0.950 1_545 S
H2381 C2404 0.950 . S
H2382 C2405 0.950 . S
H2383 C2407 0.950 . S
H2384 C2408 0.950 . S
H2385 C2409 0.951 . S
H2386 C2411 0.951 . S
H2387 C2413 0.950 . S
H2388 C2414 0.950 . S
H2389 C2416 0.950 . S
H2390 C2419 0.950 1_565 S
H2391 C2420 0.950 . S
H2392 C2422 0.950 . S
H2393 C2423 0.950 . S
C2394 H2376 0.951 . S
C2394 C2395 1.366 . S
C2394 C2396 1.388 . S
C2395 C2394 1.366 . S
C2395 C2399 1.385 1_565 S
C2396 H2377 0.951 . S
C2396 C2394 1.388 . S
C2396 C2397 1.366 . S
C2397 C2396 1.366 . S
C2397 C2398 1.414 . S
C2397 C2400 1.499 . S
C2398 H2378 0.950 1_565 S
C2398 C2397 1.414 . S
C2398 C2399 1.374 1_565 S
C2399 H2379 0.950 . S
C2399 C2395 1.385 1_545 S
C2399 C2398 1.374 1_545 S
C2400 C2397 1.499 . S
C2400 C2401 1.373 . S
C2400 C2402 1.389 . S
C2401 H2380 0.950 1_565 S
C2401 C2400 1.373 . S
C2401 C2417 1.377 . S
C2402 C2400 1.389 . S
C2402 C2403 1.524 . S
C2402 C2416 1.377 . S
C2403 C2402 1.524 . S
C2403 C2404 1.397 . S
C2403 C2408 1.363 . S
C2404 H2381 0.950 . S
C2404 C2403 1.397 . S
C2404 C2405 1.334 . S
C2405 H2382 0.950 . S
C2405 C2404 1.334 . S
C2405 C2406 1.287 . S
C2406 C2405 1.287 . S
C2406 C2407 1.524 . S
C2406 H2425 0.913 . S
C2407 H2383 0.950 . S
C2407 C2406 1.524 . S
C2407 C2408 1.415 . S
C2408 H2384 0.950 . S
C2408 C2403 1.363 . S
C2408 C2407 1.415 . S
C2409 H2385 0.951 . S
C2409 C2410 1.366 . S
C2409 C2411 1.388 . S
C2410 C2409 1.366 . S
C2410 C2414 1.385 . S
C2411 H2386 0.951 . S
C2411 C2409 1.388 . S
C2411 C2412 1.366 . S
C2412 C2411 1.366 . S
C2412 C2413 1.414 . S
C2412 C2415 1.499 . S
C2413 H2387 0.950 . S
C2413 C2412 1.414 . S
C2413 C2414 1.374 . S
C2414 H2388 0.950 . S
C2414 C2410 1.385 . S
C2414 C2413 1.374 . S
C2415 C2412 1.499 . S
C2415 C2416 1.373 . S
C2415 C2417 1.389 . S
C2416 H2389 0.950 . S
C2416 C2402 1.377 . S
C2416 C2415 1.373 . S
C2417 C2401 1.377 . S
C2417 C2415 1.389 . S
C2417 C2418 1.524 1_565 S
C2418 C2417 1.524 1_545 S
C2418 C2419 1.397 . S
C2418 C2423 1.363 . S
C2419 H2390 0.950 1_545 S
C2419 C2418 1.397 . S
C2419 C2420 1.334 . S
C2420 H2391 0.950 . S
C2420 C2419 1.334 . S
C2420 C2421 1.287 . S
C2421 C2420 1.287 . S
C2421 C2422 1.524 . S
C2421 H2424 0.999 . S
C2422 H2392 0.950 . S
C2422 C2421 1.524 . S
C2422 C2423 1.415 . S
C2423 H2393 0.950 . S
C2423 C2418 1.363 . S
C2423 C2422 1.415 . S
H2424 C2421 0.999 . S
H2425 C2406 0.913 . S
H2426 C2444 0.951 . S
H2427 C2446 0.951 . S
H2428 C2448 0.950 . S
H2429 C2449 0.950 . S
H2430 C2451 0.950 . S
H2431 C2454 0.950 . S
H2432 C2455 0.950 . S
H2433 C2457 0.950 . S
H2434 C2458 0.950 . S
H2435 C2459 0.951 . S
H2436 C2461 0.951 . S
H2437 C2463 0.950 . S
H2438 C2464 0.950 . S
H2439 C2466 0.950 . S
H2440 C2469 0.950 . S
H2441 C2470 0.950 . S
H2442 C2472 0.950 . S
H2443 C2473 0.950 . S
C2444 H2426 0.951 . S
C2444 C2445 1.366 . S
C2444 C2446 1.388 . S
C2445 C2444 1.366 . S
C2445 C2449 1.385 . S
C2446 H2427 0.951 . S
C2446 C2444 1.388 . S
C2446 C2447 1.366 . S
C2447 C2446 1.366 . S
C2447 C2448 1.414 . S
C2447 C2450 1.499 . S
C2448 H2428 0.950 . S
C2448 C2447 1.414 . S
C2448 C2449 1.374 . S
C2449 H2429 0.950 . S
C2449 C2445 1.385 . S
C2449 C2448 1.374 . S
C2450 C2447 1.499 . S
C2450 C2451 1.373 . S
C2450 C2452 1.389 . S
C2451 H2430 0.950 . S
C2451 C2450 1.373 . S
C2451 C2467 1.377 . S
C2452 C2450 1.389 . S
C2452 C2453 1.524 . S
C2452 C2466 1.377 . S
C2453 C2452 1.524 . S
C2453 C2454 1.397 . S
C2453 C2458 1.363 . S
C2454 H2431 0.950 . S
C2454 C2453 1.397 . S
C2454 C2455 1.334 . S
C2455 H2432 0.950 . S
C2455 C2454 1.334 . S
C2455 C2456 1.287 . S
C2456 C2455 1.287 . S
C2456 C2457 1.524 . S
C2456 H2475 0.913 . S
C2457 H2433 0.950 . S
C2457 C2456 1.524 . S
C2457 C2458 1.415 . S
C2458 H2434 0.950 . S
C2458 C2453 1.363 . S
C2458 C2457 1.415 . S
C2459 H2435 0.951 . S
C2459 C2460 1.366 . S
C2459 C2461 1.388 . S
C2460 C2459 1.366 . S
C2460 C2464 1.385 . S
C2461 H2436 0.951 . S
C2461 C2459 1.388 . S
C2461 C2462 1.366 . S
C2462 C2461 1.366 . S
C2462 C2463 1.414 . S
C2462 C2465 1.499 . S
C2463 H2437 0.950 . S
C2463 C2462 1.414 . S
C2463 C2464 1.374 . S
C2464 H2438 0.950 . S
C2464 C2460 1.385 . S
C2464 C2463 1.374 . S
C2465 C2462 1.499 . S
C2465 C2466 1.373 . S
C2465 C2467 1.389 . S
C2466 H2439 0.950 . S
C2466 C2452 1.377 . S
C2466 C2465 1.373 . S
C2467 C2451 1.377 . S
C2467 C2465 1.389 . S
C2467 C2468 1.524 . S
C2468 C2467 1.524 . S
C2468 C2469 1.397 . S
C2468 C2473 1.363 . S
C2469 H2440 0.950 . S
C2469 C2468 1.397 . S
C2469 C2470 1.334 . S
C2470 H2441 0.950 . S
C2470 C2469 1.334 . S
C2470 C2471 1.287 . S
C2471 C2470 1.287 . S
C2471 C2472 1.524 . S
C2471 H2474 0.999 . S
C2472 H2442 0.950 . S
C2472 C2471 1.524 . S
C2472 C2473 1.415 . S
C2473 H2443 0.950 . S
C2473 C2468 1.363 . S
C2473 C2472 1.415 . S
H2474 C2471 0.999 . S
H2475 C2456 0.913 . S
H2476 C2494 0.951 . S
H2477 C2496 0.951 . S
H2478 C2498 0.950 . S
H2479 C2499 0.950 . S
H2480 C2501 0.950 1_556 S
H2481 C2504 0.950 . S
H2482 C2505 0.950 . S
H2483 C2507 0.950 . S
H2484 C2508 0.950 . S
H2485 C2509 0.951 . S
H2486 C2511 0.951 . S
H2487 C2513 0.950 . S
H2488 C2514 0.950 . S
H2489 C2516 0.950 . S
H2490 C2519 0.950 . S
H2491 C2520 0.950 . S
H2492 C2522 0.950 . S
H2493 C2523 0.950 . S
C2494 H2476 0.951 . S
C2494 C2495 1.366 . S
C2494 C2496 1.388 . S
C2495 C2494 1.366 . S
C2495 C2499 1.385 . S
C2496 H2477 0.951 . S
C2496 C2494 1.388 . S
C2496 C2497 1.366 . S
C2497 C2496 1.366 . S
C2497 C2498 1.414 . S
C2497 C2500 1.499 . S
C2498 H2478 0.950 . S
C2498 C2497 1.414 . S
C2498 C2499 1.374 . S
C2499 H2479 0.950 . S
C2499 C2495 1.385 . S
C2499 C2498 1.374 . S
C2500 C2497 1.499 . S
C2500 C2501 1.373 . S
C2500 C2502 1.389 . S
C2501 H2480 0.950 1_554 S
C2501 C2500 1.373 . S
C2501 C2517 1.377 . S
C2502 C2500 1.389 . S
C2502 C2503 1.524 . S
C2502 C2516 1.377 . S
C2503 C2502 1.524 . S
C2503 C2504 1.397 . S
C2503 C2508 1.363 . S
C2504 H2481 0.950 . S
C2504 C2503 1.397 . S
C2504 C2505 1.334 . S
C2505 H2482 0.950 . S
C2505 C2504 1.334 . S
C2505 C2506 1.287 . S
C2506 C2505 1.287 . S
C2506 C2507 1.524 . S
C2506 H2525 0.913 . S
C2507 H2483 0.950 . S
C2507 C2506 1.524 . S
C2507 C2508 1.415 . S
C2508 H2484 0.950 . S
C2508 C2503 1.363 . S
C2508 C2507 1.415 . S
C2509 H2485 0.951 . S
C2509 C2510 1.366 . S
C2509 C2511 1.388 . S
C2510 C2509 1.366 . S
C2510 C2514 1.385 . S
C2511 H2486 0.951 . S
C2511 C2509 1.388 . S
C2511 C2512 1.366 . S
C2512 C2511 1.366 . S
C2512 C2513 1.414 . S
C2512 C2515 1.499 . S
C2513 H2487 0.950 . S
C2513 C2512 1.414 . S
C2513 C2514 1.374 . S
C2514 H2488 0.950 . S
C2514 C2510 1.385 . S
C2514 C2513 1.374 . S
C2515 C2512 1.499 . S
C2515 C2516 1.373 . S
C2515 C2517 1.389 . S
C2516 H2489 0.950 . S
C2516 C2502 1.377 . S
C2516 C2515 1.373 . S
C2517 C2501 1.377 . S
C2517 C2515 1.389 . S
C2517 C2518 1.524 1_554 S
C2518 C2517 1.524 1_556 S
C2518 C2519 1.397 . S
C2518 C2523 1.363 . S
C2519 H2490 0.950 . S
C2519 C2518 1.397 . S
C2519 C2520 1.334 . S
C2520 H2491 0.950 . S
C2520 C2519 1.334 . S
C2520 C2521 1.287 . S
C2521 C2520 1.287 . S
C2521 C2522 1.524 . S
C2521 H2524 0.999 . S
C2522 H2492 0.950 . S
C2522 C2521 1.524 . S
C2522 C2523 1.415 . S
C2523 H2493 0.950 . S
C2523 C2518 1.363 . S
C2523 C2522 1.415 . S
H2524 C2521 0.999 . S
H2525 C2506 0.913 . S
H2526 C2544 0.951 . S
H2527 C2546 0.951 . S
H2528 C2548 0.950 . S
H2529 C2549 0.950 . S
H2530 C2551 0.950 . S
H2531 C2554 0.950 . S
H2532 C2555 0.950 . S
H2533 C2557 0.950 . S
H2534 C2558 0.950 . S
H2535 C2559 0.951 . S
H2536 C2561 0.951 . S
H2537 C2563 0.950 . S
H2538 C2564 0.950 . S
H2539 C2566 0.950 . S
H2540 C2569 0.950 . S
H2541 C2570 0.950 . S
H2542 C2572 0.950 . S
H2543 C2573 0.950 . S
C2544 H2526 0.951 . S
C2544 C2545 1.366 . S
C2544 C2546 1.388 . S
C2545 C2544 1.366 . S
C2545 C2549 1.385 . S
C2546 H2527 0.951 . S
C2546 C2544 1.388 . S
C2546 C2547 1.366 . S
C2547 C2546 1.366 . S
C2547 C2548 1.414 . S
C2547 C2550 1.499 . S
C2548 H2528 0.950 . S
C2548 C2547 1.414 . S
C2548 C2549 1.374 . S
C2549 H2529 0.950 . S
C2549 C2545 1.385 . S
C2549 C2548 1.374 . S
C2550 C2547 1.499 . S
C2550 C2551 1.373 . S
C2550 C2552 1.389 . S
C2551 H2530 0.950 . S
C2551 C2550 1.373 . S
C2551 C2567 1.377 . S
C2552 C2550 1.389 . S
C2552 C2553 1.524 . S
C2552 C2566 1.377 . S
C2553 C2552 1.524 . S
C2553 C2554 1.397 . S
C2553 C2558 1.363 . S
C2554 H2531 0.950 . S
C2554 C2553 1.397 . S
C2554 C2555 1.334 . S
C2555 H2532 0.950 . S
C2555 C2554 1.334 . S
C2555 C2556 1.287 . S
C2556 C2555 1.287 . S
C2556 C2557 1.524 . S
C2556 H2575 0.913 . S
C2557 H2533 0.950 . S
C2557 C2556 1.524 . S
C2557 C2558 1.415 . S
C2558 H2534 0.950 . S
C2558 C2553 1.363 . S
C2558 C2557 1.415 . S
C2559 H2535 0.951 . S
C2559 C2560 1.366 . S
C2559 C2561 1.388 . S
C2560 C2559 1.366 . S
C2560 C2564 1.385 . S
C2561 H2536 0.951 . S
C2561 C2559 1.388 . S
C2561 C2562 1.366 . S
C2562 C2561 1.366 . S
C2562 C2563 1.414 . S
C2562 C2565 1.499 . S
C2563 H2537 0.950 . S
C2563 C2562 1.414 . S
C2563 C2564 1.374 . S
C2564 H2538 0.950 . S
C2564 C2560 1.385 . S
C2564 C2563 1.374 . S
C2565 C2562 1.499 . S
C2565 C2566 1.373 . S
C2565 C2567 1.389 . S
C2566 H2539 0.950 . S
C2566 C2552 1.377 . S
C2566 C2565 1.373 . S
C2567 C2551 1.377 . S
C2567 C2565 1.389 . S
C2567 C2568 1.524 . S
C2568 C2567 1.524 . S
C2568 C2569 1.397 . S
C2568 C2573 1.363 . S
C2569 H2540 0.950 . S
C2569 C2568 1.397 . S
C2569 C2570 1.334 . S
C2570 H2541 0.950 . S
C2570 C2569 1.334 . S
C2570 C2571 1.287 . S
C2571 C2570 1.287 . S
C2571 C2572 1.524 . S
C2571 H2574 0.999 . S
C2572 H2542 0.950 . S
C2572 C2571 1.524 . S
C2572 C2573 1.415 . S
C2573 H2543 0.950 . S
C2573 C2568 1.363 . S
C2573 C2572 1.415 . S
H2574 C2571 0.999 . S
H2575 C2556 0.913 . S
H2576 C2594 0.951 . S
H2577 C2596 0.951 . S
H2578 C2598 0.950 . S
H2579 C2599 0.950 . S
H2580 C2601 0.950 . S
H2581 C2604 0.950 . S
H2582 C2605 0.950 . S
H2583 C2607 0.950 . S
H2584 C2608 0.950 . S
H2585 C2609 0.951 . S
H2586 C2611 0.951 . S
H2587 C2613 0.950 . S
H2588 C2614 0.950 . S
H2589 C2616 0.950 . S
H2590 C2619 0.950 . S
H2591 C2620 0.950 . S
H2592 C2622 0.950 . S
H2593 C2623 0.950 . S
C2594 H2576 0.951 . S
C2594 C2595 1.366 . S
C2594 C2596 1.388 . S
C2595 C2594 1.366 . S
C2595 C2599 1.385 . S
C2596 H2577 0.951 . S
C2596 C2594 1.388 . S
C2596 C2597 1.366 . S
C2597 C2596 1.366 . S
C2597 C2598 1.414 . S
C2597 C2600 1.499 . S
C2598 H2578 0.950 . S
C2598 C2597 1.414 . S
C2598 C2599 1.374 . S
C2599 H2579 0.950 . S
C2599 C2595 1.385 . S
C2599 C2598 1.374 . S
C2600 C2597 1.499 . S
C2600 C2601 1.373 . S
C2600 C2602 1.389 . S
C2601 H2580 0.950 . S
C2601 C2600 1.373 . S
C2601 C2617 1.377 . S
C2602 C2600 1.389 . S
C2602 C2603 1.524 . S
C2602 C2616 1.377 . S
C2603 C2602 1.524 . S
C2603 C2604 1.397 . S
C2603 C2608 1.363 . S
C2604 H2581 0.950 . S
C2604 C2603 1.397 . S
C2604 C2605 1.334 . S
C2605 H2582 0.950 . S
C2605 C2604 1.334 . S
C2605 C2606 1.287 . S
C2606 C2605 1.287 . S
C2606 C2607 1.524 . S
C2606 H2625 0.913 . S
C2607 H2583 0.950 . S
C2607 C2606 1.524 . S
C2607 C2608 1.415 . S
C2608 H2584 0.950 . S
C2608 C2603 1.363 . S
C2608 C2607 1.415 . S
C2609 H2585 0.951 . S
C2609 C2610 1.366 . S
C2609 C2611 1.388 . S
C2610 C2609 1.366 . S
C2610 C2614 1.385 . S
C2611 H2586 0.951 . S
C2611 C2609 1.388 . S
C2611 C2612 1.366 . S
C2612 C2611 1.366 . S
C2612 C2613 1.414 . S
C2612 C2615 1.499 . S
C2613 H2587 0.950 . S
C2613 C2612 1.414 . S
C2613 C2614 1.374 . S
C2614 H2588 0.950 . S
C2614 C2610 1.385 . S
C2614 C2613 1.374 . S
C2615 C2612 1.499 . S
C2615 C2616 1.373 . S
C2615 C2617 1.389 . S
C2616 H2589 0.950 . S
C2616 C2602 1.377 . S
C2616 C2615 1.373 . S
C2617 C2601 1.377 . S
C2617 C2615 1.389 . S
C2617 C2618 1.524 . S
C2618 C2617 1.524 . S
C2618 C2619 1.397 . S
C2618 C2623 1.363 . S
C2619 H2590 0.950 . S
C2619 C2618 1.397 . S
C2619 C2620 1.334 . S
C2620 H2591 0.950 . S
C2620 C2619 1.334 . S
C2620 C2621 1.287 . S
C2621 C2620 1.287 . S
C2621 C2622 1.524 . S
C2621 H2624 0.999 . S
C2622 H2592 0.950 . S
C2622 C2621 1.524 . S
C2622 C2623 1.415 . S
C2623 H2593 0.950 . S
C2623 C2618 1.363 . S
C2623 C2622 1.415 . S
H2624 C2621 0.999 . S
H2625 C2606 0.913 . S
H2626 C2644 0.951 . S
H2627 C2646 0.951 . S
H2628 C2648 0.950 . S
H2629 C2649 0.950 . S
H2630 C2651 0.950 . S
H2631 C2654 0.950 . S
H2632 C2655 0.950 . S
H2633 C2657 0.950 . S
H2634 C2658 0.950 . S
H2635 C2659 0.951 . S
H2636 C2661 0.951 . S
H2637 C2663 0.950 . S
H2638 C2664 0.950 . S
H2639 C2666 0.950 . S
H2640 C2669 0.950 . S
H2641 C2670 0.950 . S
H2642 C2672 0.950 . S
H2643 C2673 0.950 . S
C2644 H2626 0.951 . S
C2644 C2645 1.366 . S
C2644 C2646 1.388 . S
C2645 C2644 1.366 . S
C2645 C2649 1.385 . S
C2646 H2627 0.951 . S
C2646 C2644 1.388 . S
C2646 C2647 1.366 . S
C2647 C2646 1.366 . S
C2647 C2648 1.414 . S
C2647 C2650 1.499 . S
C2648 H2628 0.950 . S
C2648 C2647 1.414 . S
C2648 C2649 1.374 . S
C2649 H2629 0.950 . S
C2649 C2645 1.385 . S
C2649 C2648 1.374 . S
C2650 C2647 1.499 . S
C2650 C2651 1.373 . S
C2650 C2652 1.389 . S
C2651 H2630 0.950 . S
C2651 C2650 1.373 . S
C2651 C2667 1.377 . S
C2652 C2650 1.389 . S
C2652 C2653 1.524 . S
C2652 C2666 1.377 . S
C2653 C2652 1.524 . S
C2653 C2654 1.397 . S
C2653 C2658 1.363 . S
C2654 H2631 0.950 . S
C2654 C2653 1.397 . S
C2654 C2655 1.334 . S
C2655 H2632 0.950 . S
C2655 C2654 1.334 . S
C2655 C2656 1.287 . S
C2656 C2655 1.287 . S
C2656 C2657 1.524 . S
C2656 H2675 0.913 . S
C2657 H2633 0.950 . S
C2657 C2656 1.524 . S
C2657 C2658 1.415 . S
C2658 H2634 0.950 . S
C2658 C2653 1.363 . S
C2658 C2657 1.415 . S
C2659 H2635 0.951 . S
C2659 C2660 1.366 . S
C2659 C2661 1.388 . S
C2660 C2659 1.366 . S
C2660 C2664 1.385 . S
C2661 H2636 0.951 . S
C2661 C2659 1.388 . S
C2661 C2662 1.366 . S
C2662 C2661 1.366 . S
C2662 C2663 1.414 . S
C2662 C2665 1.499 . S
C2663 H2637 0.950 . S
C2663 C2662 1.414 . S
C2663 C2664 1.374 . S
C2664 H2638 0.950 . S
C2664 C2660 1.385 . S
C2664 C2663 1.374 . S
C2665 C2662 1.499 . S
C2665 C2666 1.373 . S
C2665 C2667 1.389 . S
C2666 H2639 0.950 . S
C2666 C2652 1.377 . S
C2666 C2665 1.373 . S
C2667 C2651 1.377 . S
C2667 C2665 1.389 . S
C2667 C2668 1.524 . S
C2668 C2667 1.524 . S
C2668 C2669 1.397 . S
C2668 C2673 1.363 . S
C2669 H2640 0.950 . S
C2669 C2668 1.397 . S
C2669 C2670 1.334 . S
C2670 H2641 0.950 . S
C2670 C2669 1.334 . S
C2670 C2671 1.287 . S
C2671 C2670 1.287 . S
C2671 C2672 1.524 . S
C2671 H2674 0.999 . S
C2672 H2642 0.950 . S
C2672 C2671 1.524 . S
C2672 C2673 1.415 . S
C2673 H2643 0.950 . S
C2673 C2668 1.363 . S
C2673 C2672 1.415 . S
H2674 C2671 0.999 . S
H2675 C2656 0.913 . S
H2676 C2694 0.951 . S
H2677 C2696 0.951 . S
H2678 C2698 0.950 . S
H2679 C2699 0.950 . S
H2680 C2701 0.950 . S
H2681 C2704 0.950 . S
H2682 C2705 0.950 . S
H2683 C2707 0.950 . S
H2684 C2708 0.950 . S
H2685 C2709 0.951 . S
H2686 C2711 0.951 . S
H2687 C2713 0.950 . S
H2688 C2714 0.950 . S
H2689 C2716 0.950 . S
H2690 C2719 0.950 . S
H2691 C2720 0.950 . S
H2692 C2722 0.950 . S
H2693 C2723 0.950 . S
C2694 H2676 0.951 . S
C2694 C2695 1.366 . S
C2694 C2696 1.388 . S
C2695 C2694 1.366 . S
C2695 C2699 1.385 . S
C2696 H2677 0.951 . S
C2696 C2694 1.388 . S
C2696 C2697 1.366 . S
C2697 C2696 1.366 . S
C2697 C2698 1.414 . S
C2697 C2700 1.499 . S
C2698 H2678 0.950 . S
C2698 C2697 1.414 . S
C2698 C2699 1.374 . S
C2699 H2679 0.950 . S
C2699 C2695 1.385 . S
C2699 C2698 1.374 . S
C2700 C2697 1.499 . S
C2700 C2701 1.373 . S
C2700 C2702 1.389 . S
C2701 H2680 0.950 . S
C2701 C2700 1.373 . S
C2701 C2717 1.377 . S
C2702 C2700 1.389 . S
C2702 C2703 1.524 . S
C2702 C2716 1.377 . S
C2703 C2702 1.524 . S
C2703 C2704 1.397 . S
C2703 C2708 1.363 . S
C2704 H2681 0.950 . S
C2704 C2703 1.397 . S
C2704 C2705 1.334 . S
C2705 H2682 0.950 . S
C2705 C2704 1.334 . S
C2705 C2706 1.287 . S
C2706 C2705 1.287 . S
C2706 C2707 1.524 . S
C2706 H2725 0.913 . S
C2707 H2683 0.950 . S
C2707 C2706 1.524 . S
C2707 C2708 1.415 . S
C2708 H2684 0.950 . S
C2708 C2703 1.363 . S
C2708 C2707 1.415 . S
C2709 H2685 0.951 . S
C2709 C2710 1.366 . S
C2709 C2711 1.388 . S
C2710 C2709 1.366 . S
C2710 C2714 1.385 . S
C2711 H2686 0.951 . S
C2711 C2709 1.388 . S
C2711 C2712 1.366 . S
C2712 C2711 1.366 . S
C2712 C2713 1.414 . S
C2712 C2715 1.499 . S
C2713 H2687 0.950 . S
C2713 C2712 1.414 . S
C2713 C2714 1.374 . S
C2714 H2688 0.950 . S
C2714 C2710 1.385 . S
C2714 C2713 1.374 . S
C2715 C2712 1.499 . S
C2715 C2716 1.373 . S
C2715 C2717 1.389 . S
C2716 H2689 0.950 . S
C2716 C2702 1.377 . S
C2716 C2715 1.373 . S
C2717 C2701 1.377 . S
C2717 C2715 1.389 . S
C2717 C2718 1.524 . S
C2718 C2717 1.524 . S
C2718 C2719 1.397 . S
C2718 C2723 1.363 . S
C2719 H2690 0.950 . S
C2719 C2718 1.397 . S
C2719 C2720 1.334 . S
C2720 H2691 0.950 . S
C2720 C2719 1.334 . S
C2720 C2721 1.287 . S
C2721 C2720 1.287 . S
C2721 C2722 1.524 . S
C2721 H2724 0.999 . S
C2722 H2692 0.950 . S
C2722 C2721 1.524 . S
C2722 C2723 1.415 . S
C2723 H2693 0.950 . S
C2723 C2718 1.363 . S
C2723 C2722 1.415 . S
H2724 C2721 0.999 . S
H2725 C2706 0.913 . S
H2726 C2744 0.951 . S
H2727 C2746 0.951 . S
H2728 C2748 0.950 . S
H2729 C2749 0.950 . S
H2730 C2751 0.950 . S
H2731 C2754 0.950 . S
H2732 C2755 0.950 . S
H2733 C2757 0.950 . S
H2734 C2758 0.950 . S
H2735 C2759 0.951 . S
H2736 C2761 0.951 . S
H2737 C2763 0.950 . S
H2738 C2764 0.950 . S
H2739 C2766 0.950 . S
H2740 C2769 0.950 . S
H2741 C2770 0.950 . S
H2742 C2772 0.950 . S
H2743 C2773 0.950 . S
C2744 H2726 0.951 . S
C2744 C2745 1.366 . S
C2744 C2746 1.388 . S
C2745 C2744 1.366 . S
C2745 C2749 1.385 . S
C2746 H2727 0.951 . S
C2746 C2744 1.388 . S
C2746 C2747 1.366 . S
C2747 C2746 1.366 . S
C2747 C2748 1.414 . S
C2747 C2750 1.499 . S
C2748 H2728 0.950 . S
C2748 C2747 1.414 . S
C2748 C2749 1.374 . S
C2749 H2729 0.950 . S
C2749 C2745 1.385 . S
C2749 C2748 1.374 . S
C2750 C2747 1.499 . S
C2750 C2751 1.373 . S
C2750 C2752 1.389 . S
C2751 H2730 0.950 . S
C2751 C2750 1.373 . S
C2751 C2767 1.377 . S
C2752 C2750 1.389 . S
C2752 C2753 1.524 . S
C2752 C2766 1.377 . S
C2753 C2752 1.524 . S
C2753 C2754 1.397 . S
C2753 C2758 1.363 . S
C2754 H2731 0.950 . S
C2754 C2753 1.397 . S
C2754 C2755 1.334 . S
C2755 H2732 0.950 . S
C2755 C2754 1.334 . S
C2755 C2756 1.287 . S
C2756 C2755 1.287 . S
C2756 C2757 1.524 . S
C2756 H2775 0.913 . S
C2757 H2733 0.950 . S
C2757 C2756 1.524 . S
C2757 C2758 1.415 . S
C2758 H2734 0.950 . S
C2758 C2753 1.363 . S
C2758 C2757 1.415 . S
C2759 H2735 0.951 . S
C2759 C2760 1.366 . S
C2759 C2761 1.388 . S
C2760 C2759 1.366 . S
C2760 C2764 1.385 . S
C2761 H2736 0.951 . S
C2761 C2759 1.388 . S
C2761 C2762 1.366 . S
C2762 C2761 1.366 . S
C2762 C2763 1.414 . S
C2762 C2765 1.499 . S
C2763 H2737 0.950 . S
C2763 C2762 1.414 . S
C2763 C2764 1.374 . S
C2764 H2738 0.950 . S
C2764 C2760 1.385 . S
C2764 C2763 1.374 . S
C2765 C2762 1.499 . S
C2765 C2766 1.373 . S
C2765 C2767 1.389 . S
C2766 H2739 0.950 . S
C2766 C2752 1.377 . S
C2766 C2765 1.373 . S
C2767 C2751 1.377 . S
C2767 C2765 1.389 . S
C2767 C2768 1.524 . S
C2768 C2767 1.524 . S
C2768 C2769 1.397 . S
C2768 C2773 1.363 . S
C2769 H2740 0.950 . S
C2769 C2768 1.397 . S
C2769 C2770 1.334 . S
C2770 H2741 0.950 . S
C2770 C2769 1.334 . S
C2770 C2771 1.287 . S
C2771 C2770 1.287 . S
C2771 C2772 1.524 . S
C2771 H2774 0.999 . S
C2772 H2742 0.950 . S
C2772 C2771 1.524 . S
C2772 C2773 1.415 . S
C2773 H2743 0.950 . S
C2773 C2768 1.363 . S
C2773 C2772 1.415 . S
H2774 C2771 0.999 . S
H2775 C2756 0.913 . S
H2776 C2794 0.951 . S
H2777 C2796 0.951 . S
H2778 C2798 0.950 . S
H2779 C2799 0.950 . S
H2780 C2801 0.950 . S
H2781 C2804 0.950 . S
H2782 C2805 0.950 . S
H2783 C2807 0.950 . S
H2784 C2808 0.950 . S
H2785 C2809 0.951 . S
H2786 C2811 0.951 . S
H2787 C2813 0.950 . S
H2788 C2814 0.950 . S
H2789 C2816 0.950 . S
H2790 C2819 0.950 . S
H2791 C2820 0.950 . S
H2792 C2822 0.950 . S
H2793 C2823 0.950 . S
C2794 H2776 0.951 . S
C2794 C2795 1.366 . S
C2794 C2796 1.388 . S
C2795 C2794 1.366 . S
C2795 C2799 1.385 . S
C2796 H2777 0.951 . S
C2796 C2794 1.388 . S
C2796 C2797 1.366 . S
C2797 C2796 1.366 . S
C2797 C2798 1.414 . S
C2797 C2800 1.499 . S
C2798 H2778 0.950 . S
C2798 C2797 1.414 . S
C2798 C2799 1.374 . S
C2799 H2779 0.950 . S
C2799 C2795 1.385 . S
C2799 C2798 1.374 . S
C2800 C2797 1.499 . S
C2800 C2801 1.373 . S
C2800 C2802 1.389 . S
C2801 H2780 0.950 . S
C2801 C2800 1.373 . S
C2801 C2817 1.377 . S
C2802 C2800 1.389 . S
C2802 C2803 1.524 . S
C2802 C2816 1.377 . S
C2803 C2802 1.524 . S
C2803 C2804 1.397 . S
C2803 C2808 1.363 . S
C2804 H2781 0.950 . S
C2804 C2803 1.397 . S
C2804 C2805 1.334 . S
C2805 H2782 0.950 . S
C2805 C2804 1.334 . S
C2805 C2806 1.287 . S
C2806 C2805 1.287 . S
C2806 C2807 1.524 . S
C2806 H2825 0.913 . S
C2807 H2783 0.950 . S
C2807 C2806 1.524 . S
C2807 C2808 1.415 . S
C2808 H2784 0.950 . S
C2808 C2803 1.363 . S
C2808 C2807 1.415 . S
C2809 H2785 0.951 . S
C2809 C2810 1.366 . S
C2809 C2811 1.388 . S
C2810 C2809 1.366 . S
C2810 C2814 1.385 . S
C2811 H2786 0.951 . S
C2811 C2809 1.388 . S
C2811 C2812 1.366 . S
C2812 C2811 1.366 . S
C2812 C2813 1.414 . S
C2812 C2815 1.499 . S
C2813 H2787 0.950 . S
C2813 C2812 1.414 . S
C2813 C2814 1.374 . S
C2814 H2788 0.950 . S
C2814 C2810 1.385 . S
C2814 C2813 1.374 . S
C2815 C2812 1.499 . S
C2815 C2816 1.373 . S
C2815 C2817 1.389 . S
C2816 H2789 0.950 . S
C2816 C2802 1.377 . S
C2816 C2815 1.373 . S
C2817 C2801 1.377 . S
C2817 C2815 1.389 . S
C2817 C2818 1.524 . S
C2818 C2817 1.524 . S
C2818 C2819 1.397 . S
C2818 C2823 1.363 . S
C2819 H2790 0.950 . S
C2819 C2818 1.397 . S
C2819 C2820 1.334 . S
C2820 H2791 0.950 . S
C2820 C2819 1.334 . S
C2820 C2821 1.287 . S
C2821 C2820 1.287 . S
C2821 C2822 1.524 . S
C2821 H2824 0.999 . S
C2822 H2792 0.950 . S
C2822 C2821 1.524 . S
C2822 C2823 1.415 . S
C2823 H2793 0.950 . S
C2823 C2818 1.363 . S
C2823 C2822 1.415 . S
H2824 C2821 0.999 . S
H2825 C2806 0.913 . S
H2826 C2844 0.951 . S
H2827 C2846 0.951 . S
H2828 C2848 0.950 . S
H2829 C2849 0.950 . S
H2830 C2851 0.950 . S
H2831 C2854 0.950 . S
H2832 C2855 0.950 . S
H2833 C2857 0.950 . S
H2834 C2858 0.950 . S
H2835 C2859 0.951 . S
H2836 C2861 0.951 . S
H2837 C2863 0.950 . S
H2838 C2864 0.950 . S
H2839 C2866 0.950 . S
H2840 C2869 0.950 . S
H2841 C2870 0.950 . S
H2842 C2872 0.950 . S
H2843 C2873 0.950 . S
C2844 H2826 0.951 . S
C2844 C2845 1.366 . S
C2844 C2846 1.388 . S
C2845 C2844 1.366 . S
C2845 C2849 1.385 . S
C2846 H2827 0.951 . S
C2846 C2844 1.388 . S
C2846 C2847 1.366 . S
C2847 C2846 1.366 . S
C2847 C2848 1.414 . S
C2847 C2850 1.499 . S
C2848 H2828 0.950 . S
C2848 C2847 1.414 . S
C2848 C2849 1.374 . S
C2849 H2829 0.950 . S
C2849 C2845 1.385 . S
C2849 C2848 1.374 . S
C2850 C2847 1.499 . S
C2850 C2851 1.373 . S
C2850 C2852 1.389 . S
C2851 H2830 0.950 . S
C2851 C2850 1.373 . S
C2851 C2867 1.377 . S
C2852 C2850 1.389 . S
C2852 C2853 1.524 . S
C2852 C2866 1.377 . S
C2853 C2852 1.524 . S
C2853 C2854 1.397 . S
C2853 C2858 1.363 . S
C2854 H2831 0.950 . S
C2854 C2853 1.397 . S
C2854 C2855 1.334 . S
C2855 H2832 0.950 . S
C2855 C2854 1.334 . S
C2855 C2856 1.287 . S
C2856 C2855 1.287 . S
C2856 C2857 1.524 . S
C2856 H2875 0.913 . S
C2857 H2833 0.950 . S
C2857 C2856 1.524 . S
C2857 C2858 1.415 . S
C2858 H2834 0.950 . S
C2858 C2853 1.363 . S
C2858 C2857 1.415 . S
C2859 H2835 0.951 . S
C2859 C2860 1.366 . S
C2859 C2861 1.388 . S
C2860 C2859 1.366 . S
C2860 C2864 1.385 . S
C2861 H2836 0.951 . S
C2861 C2859 1.388 . S
C2861 C2862 1.366 . S
C2862 C2861 1.366 . S
C2862 C2863 1.414 . S
C2862 C2865 1.499 . S
C2863 H2837 0.950 . S
C2863 C2862 1.414 . S
C2863 C2864 1.374 . S
C2864 H2838 0.950 . S
C2864 C2860 1.385 . S
C2864 C2863 1.374 . S
C2865 C2862 1.499 . S
C2865 C2866 1.373 . S
C2865 C2867 1.389 . S
C2866 H2839 0.950 . S
C2866 C2852 1.377 . S
C2866 C2865 1.373 . S
C2867 C2851 1.377 . S
C2867 C2865 1.389 . S
C2867 C2868 1.524 . S
C2868 C2867 1.524 . S
C2868 C2869 1.397 . S
C2868 C2873 1.363 . S
C2869 H2840 0.950 . S
C2869 C2868 1.397 . S
C2869 C2870 1.334 . S
C2870 H2841 0.950 . S
C2870 C2869 1.334 . S
C2870 C2871 1.287 . S
C2871 C2870 1.287 . S
C2871 C2872 1.524 . S
C2871 H2874 0.999 . S
C2872 H2842 0.950 . S
C2872 C2871 1.524 . S
C2872 C2873 1.415 . S
C2873 H2843 0.950 . S
C2873 C2868 1.363 . S
C2873 C2872 1.415 . S
H2874 C2871 0.999 . S
H2875 C2856 0.913 . S
H2876 C2894 0.951 . S
H2877 C2896 0.951 . S
H2878 C2898 0.950 . S
H2879 C2899 0.950 . S
H2880 C2901 0.950 . S
H2881 C2904 0.950 . S
H2882 C2905 0.950 . S
H2883 C2907 0.950 . S
H2884 C2908 0.950 . S
H2885 C2909 0.951 . S
H2886 C2911 0.951 . S
H2887 C2913 0.950 . S
H2888 C2914 0.950 . S
H2889 C2916 0.950 . S
H2890 C2919 0.950 . S
H2891 C2920 0.950 . S
H2892 C2922 0.950 . S
H2893 C2923 0.950 . S
C2894 H2876 0.951 . S
C2894 C2895 1.366 . S
C2894 C2896 1.388 . S
C2895 C2894 1.366 . S
C2895 C2899 1.385 . S
C2896 H2877 0.951 . S
C2896 C2894 1.388 . S
C2896 C2897 1.366 . S
C2897 C2896 1.366 . S
C2897 C2898 1.414 . S
C2897 C2900 1.499 . S
C2898 H2878 0.950 . S
C2898 C2897 1.414 . S
C2898 C2899 1.374 . S
C2899 H2879 0.950 . S
C2899 C2895 1.385 . S
C2899 C2898 1.374 . S
C2900 C2897 1.499 . S
C2900 C2901 1.373 . S
C2900 C2902 1.389 . S
C2901 H2880 0.950 . S
C2901 C2900 1.373 . S
C2901 C2917 1.377 . S
C2902 C2900 1.389 . S
C2902 C2903 1.524 . S
C2902 C2916 1.377 . S
C2903 C2902 1.524 . S
C2903 C2904 1.397 . S
C2903 C2908 1.363 . S
C2904 H2881 0.950 . S
C2904 C2903 1.397 . S
C2904 C2905 1.334 . S
C2905 H2882 0.950 . S
C2905 C2904 1.334 . S
C2905 C2906 1.287 . S
C2906 C2905 1.287 . S
C2906 C2907 1.524 . S
C2906 H2925 0.913 . S
C2907 H2883 0.950 . S
C2907 C2906 1.524 . S
C2907 C2908 1.415 . S
C2908 H2884 0.950 . S
C2908 C2903 1.363 . S
C2908 C2907 1.415 . S
C2909 H2885 0.951 . S
C2909 C2910 1.366 . S
C2909 C2911 1.388 . S
C2910 C2909 1.366 . S
C2910 C2914 1.385 . S
C2911 H2886 0.951 . S
C2911 C2909 1.388 . S
C2911 C2912 1.366 . S
C2912 C2911 1.366 . S
C2912 C2913 1.414 . S
C2912 C2915 1.499 . S
C2913 H2887 0.950 . S
C2913 C2912 1.414 . S
C2913 C2914 1.374 . S
C2914 H2888 0.950 . S
C2914 C2910 1.385 . S
C2914 C2913 1.374 . S
C2915 C2912 1.499 . S
C2915 C2916 1.373 . S
C2915 C2917 1.389 . S
C2916 H2889 0.950 . S
C2916 C2902 1.377 . S
C2916 C2915 1.373 . S
C2917 C2901 1.377 . S
C2917 C2915 1.389 . S
C2917 C2918 1.524 . S
C2918 C2917 1.524 . S
C2918 C2919 1.397 . S
C2918 C2923 1.363 . S
C2919 H2890 0.950 . S
C2919 C2918 1.397 . S
C2919 C2920 1.334 . S
C2920 H2891 0.950 . S
C2920 C2919 1.334 . S
C2920 C2921 1.287 . S
C2921 C2920 1.287 . S
C2921 C2922 1.524 . S
C2921 H2924 0.999 . S
C2922 H2892 0.950 . S
C2922 C2921 1.524 . S
C2922 C2923 1.415 . S
C2923 H2893 0.950 . S
C2923 C2918 1.363 . S
C2923 C2922 1.415 . S
H2924 C2921 0.999 . S
H2925 C2906 0.913 . S
H2926 C2944 0.951 . S
H2927 C2946 0.951 . S
H2928 C2948 0.950 . S
H2929 C2949 0.950 . S
H2930 C2951 0.958 . S
H2931 C2954 0.950 . S
H2932 C2955 0.950 . S
H2933 C2957 0.950 . S
H2934 C2958 0.950 . S
H2935 C2959 0.951 . S
H2936 C2961 0.951 . S
H2937 C2963 0.950 . S
H2938 C2964 0.950 . S
H2939 C2966 0.950 . S
H2940 C2969 0.950 . S
H2941 C2970 0.950 . S
H2942 C2972 0.950 . S
H2943 C2973 0.950 1_565 S
C2944 H2926 0.951 . S
C2944 C2945 1.366 . S
C2944 C2946 1.388 . S
C2945 C2944 1.366 . S
C2945 C2949 1.385 . S
C2946 H2927 0.951 . S
C2946 C2944 1.388 . S
C2946 C2947 1.366 . S
C2947 C2946 1.366 . S
C2947 C2948 1.414 . S
C2947 C2950 1.499 . S
C2948 H2928 0.950 . S
C2948 C2947 1.414 . S
C2948 C2949 1.374 . S
C2949 H2929 0.950 . S
C2949 C2945 1.385 . S
C2949 C2948 1.374 . S
C2950 C2947 1.499 . S
C2950 C2951 1.373 . S
C2950 C2952 1.389 . S
C2951 H2930 0.958 . S
C2951 C2950 1.373 . S
C2951 C2967 1.377 . S
C2952 C2950 1.389 . S
C2952 C2953 1.524 . S
C2952 C2966 1.377 . S
C2953 C2952 1.524 . S
C2953 C2954 1.397 . S
C2953 C2958 1.363 . S
C2954 H2931 0.950 . S
C2954 C2953 1.397 . S
C2954 C2955 1.334 . S
C2955 H2932 0.950 . S
C2955 C2954 1.334 . S
C2955 C2956 1.287 . S
C2956 C2955 1.287 . S
C2956 C2957 1.524 . S
C2956 H2975 0.913 . S
C2957 H2933 0.950 . S
C2957 C2956 1.524 . S
C2957 C2958 1.415 . S
C2958 H2934 0.950 . S
C2958 C2953 1.363 . S
C2958 C2957 1.415 . S
C2959 H2935 0.951 . S
C2959 C2960 1.366 . S
C2959 C2961 1.388 . S
C2960 C2959 1.366 . S
C2960 C2964 1.385 . S
C2961 H2936 0.951 . S
C2961 C2959 1.388 . S
C2961 C2962 1.366 . S
C2962 C2961 1.366 . S
C2962 C2963 1.414 . S
C2962 C2965 1.499 . S
C2963 H2937 0.950 . S
C2963 C2962 1.414 . S
C2963 C2964 1.374 . S
C2964 H2938 0.950 . S
C2964 C2960 1.385 . S
C2964 C2963 1.374 . S
C2965 C2962 1.499 . S
C2965 C2966 1.373 . S
C2965 C2967 1.389 . S
C2966 H2939 0.950 . S
C2966 C2952 1.377 . S
C2966 C2965 1.373 . S
C2967 C2951 1.377 . S
C2967 C2965 1.389 . S
C2967 C2968 1.524 1_565 S
C2968 C2967 1.524 1_545 S
C2968 C2969 1.397 . S
C2968 C2973 1.363 . S
C2969 H2940 0.950 . S
C2969 C2968 1.397 . S
C2969 C2970 1.334 . S
C2970 H2941 0.950 . S
C2970 C2969 1.334 . S
C2970 C2971 1.287 . S
C2971 C2970 1.287 . S
C2971 C2972 1.524 . S
C2971 H2974 0.999 . S
C2972 H2942 0.950 . S
C2972 C2971 1.524 . S
C2972 C2973 1.415 . S
C2973 H2943 0.950 1_545 S
C2973 C2968 1.363 . S
C2973 C2972 1.415 . S
H2974 C2971 0.999 . S
H2975 C2956 0.913 . S
H2976 C2994 0.951 . S
H2977 C2996 0.951 . S
H2978 C2998 0.950 . S
H2979 C2999 0.950 . S
H2980 C3001 0.950 . S
H2981 C3004 0.950 . S
H2982 C3005 0.950 . S
H2983 C3007 0.950 . S
H2984 C3008 0.950 . S
H2985 C3009 0.951 . S
H2986 C3011 0.951 . S
H2987 C3013 0.950 . S
H2988 C3014 0.950 . S
H2989 C3016 0.950 . S
H2990 C3019 0.950 . S
H2991 C3020 0.950 . S
H2992 C3022 0.950 . S
H2993 C3023 0.950 . S
C2994 H2976 0.951 . S
C2994 C2995 1.366 . S
C2994 C2996 1.388 . S
C2995 C2994 1.366 . S
C2995 C2999 1.385 . S
C2996 H2977 0.951 . S
C2996 C2994 1.388 . S
C2996 C2997 1.366 . S
C2997 C2996 1.366 . S
C2997 C2998 1.414 . S
C2997 C3000 1.499 . S
C2998 H2978 0.950 . S
C2998 C2997 1.414 . S
C2998 C2999 1.374 . S
C2999 H2979 0.950 . S
C2999 C2995 1.385 . S
C2999 C2998 1.374 . S
C3000 C2997 1.499 . S
C3000 C3001 1.373 . S
C3000 C3002 1.389 . S
C3001 H2980 0.950 . S
C3001 C3000 1.373 . S
C3001 C3017 1.377 . S
C3002 C3000 1.389 . S
C3002 C3003 1.524 . S
C3002 C3016 1.377 . S
C3003 C3002 1.524 . S
C3003 C3004 1.397 . S
C3003 C3008 1.363 . S
C3004 H2981 0.950 . S
C3004 C3003 1.397 . S
C3004 C3005 1.334 . S
C3005 H2982 0.950 . S
C3005 C3004 1.334 . S
C3005 C3006 1.287 . S
C3006 C3005 1.287 . S
C3006 C3007 1.524 . S
C3006 H3025 0.913 . S
C3007 H2983 0.950 . S
C3007 C3006 1.524 . S
C3007 C3008 1.415 . S
C3008 H2984 0.950 . S
C3008 C3003 1.363 . S
C3008 C3007 1.415 . S
C3009 H2985 0.951 . S
C3009 C3010 1.366 . S
C3009 C3011 1.388 . S
C3010 C3009 1.366 . S
C3010 C3014 1.385 . S
C3011 H2986 0.951 . S
C3011 C3009 1.388 . S
C3011 C3012 1.366 . S
C3012 C3011 1.366 . S
C3012 C3013 1.414 . S
C3012 C3015 1.499 . S
C3013 H2987 0.950 . S
C3013 C3012 1.414 . S
C3013 C3014 1.374 . S
C3014 H2988 0.950 . S
C3014 C3010 1.385 . S
C3014 C3013 1.374 . S
C3015 C3012 1.499 . S
C3015 C3016 1.373 . S
C3015 C3017 1.389 . S
C3016 H2989 0.950 . S
C3016 C3002 1.377 . S
C3016 C3015 1.373 . S
C3017 C3001 1.377 . S
C3017 C3015 1.389 . S
C3017 C3018 1.524 . S
C3018 C3017 1.524 . S
C3018 C3019 1.397 . S
C3018 C3023 1.363 . S
C3019 H2990 0.950 . S
C3019 C3018 1.397 . S
C3019 C3020 1.334 . S
C3020 H2991 0.950 . S
C3020 C3019 1.334 . S
C3020 C3021 1.287 . S
C3021 C3020 1.287 . S
C3021 C3022 1.524 . S
C3021 H3024 0.999 . S
C3022 H2992 0.950 . S
C3022 C3021 1.524 . S
C3022 C3023 1.415 . S
C3023 H2993 0.950 . S
C3023 C3018 1.363 . S
C3023 C3022 1.415 . S
H3024 C3021 0.999 . S
H3025 C3006 0.913 . S
H3026 C3044 0.951 . S
H3027 C3046 0.951 . S
H3028 C3048 0.950 . S
H3029 C3049 0.950 . S
H3030 C3051 0.950 . S
H3031 C3054 0.950 . S
H3032 C3055 0.950 . S
H3033 C3057 0.950 . S
H3034 C3058 0.950 . S
H3035 C3059 0.951 . S
H3036 C3061 0.951 . S
H3037 C3063 0.950 . S
H3038 C3064 0.950 . S
H3039 C3066 0.950 . S
H3040 C3069 0.935 1_545 S
H3041 C3070 0.950 . S
H3042 C3072 0.950 . S
H3043 C3073 0.950 1_545 S
C3044 H3026 0.951 . S
C3044 C3045 1.366 . S
C3044 C3046 1.388 . S
C3045 C3044 1.366 . S
C3045 C3049 1.385 . S
C3046 H3027 0.951 . S
C3046 C3044 1.388 . S
C3046 C3047 1.366 . S
C3047 C3046 1.366 . S
C3047 C3048 1.414 . S
C3047 C3050 1.499 . S
C3048 H3028 0.950 . S
C3048 C3047 1.414 . S
C3048 C3049 1.374 . S
C3049 H3029 0.950 . S
C3049 C3045 1.385 . S
C3049 C3048 1.374 . S
C3050 C3047 1.499 . S
C3050 C3051 1.373 . S
C3050 C3052 1.389 . S
C3051 H3030 0.950 . S
C3051 C3050 1.373 . S
C3051 C3067 1.377 . S
C3052 C3050 1.389 . S
C3052 C3053 1.524 . S
C3052 C3066 1.377 . S
C3053 C3052 1.524 . S
C3053 C3054 1.397 . S
C3053 C3058 1.363 . S
C3054 H3031 0.950 . S
C3054 C3053 1.397 . S
C3054 C3055 1.334 . S
C3055 H3032 0.950 . S
C3055 C3054 1.334 . S
C3055 C3056 1.287 . S
C3056 C3055 1.287 . S
C3056 C3057 1.524 . S
C3056 H3075 0.913 . S
C3057 H3033 0.950 . S
C3057 C3056 1.524 . S
C3057 C3058 1.415 . S
C3058 H3034 0.950 . S
C3058 C3053 1.363 . S
C3058 C3057 1.415 . S
C3059 H3035 0.951 . S
C3059 C3060 1.366 . S
C3059 C3061 1.388 . S
C3060 C3059 1.366 . S
C3060 C3064 1.385 . S
C3061 H3036 0.951 . S
C3061 C3059 1.388 . S
C3061 C3062 1.366 . S
C3062 C3061 1.366 . S
C3062 C3063 1.414 . S
C3062 C3065 1.499 . S
C3063 H3037 0.950 . S
C3063 C3062 1.414 . S
C3063 C3064 1.374 . S
C3064 H3038 0.950 . S
C3064 C3060 1.385 . S
C3064 C3063 1.374 . S
C3065 C3062 1.499 . S
C3065 C3066 1.373 . S
C3065 C3067 1.389 . S
C3066 H3039 0.950 . S
C3066 C3052 1.377 . S
C3066 C3065 1.373 . S
C3067 C3051 1.377 . S
C3067 C3065 1.389 . S
C3067 C3068 1.524 . S
C3068 C3067 1.524 . S
C3068 C3069 1.397 1_545 S
C3068 C3073 1.363 1_545 S
C3069 H3040 0.935 1_565 S
C3069 C3068 1.397 1_565 S
C3069 C3070 1.334 . S
C3070 H3041 0.950 . S
C3070 C3069 1.334 . S
C3070 C3071 1.287 . S
C3071 C3070 1.287 . S
C3071 C3072 1.524 . S
C3071 H3074 0.999 . S
C3072 H3042 0.950 . S
C3072 C3071 1.524 . S
C3072 C3073 1.415 . S
C3073 H3043 0.950 1_565 S
C3073 C3068 1.363 1_565 S
C3073 C3072 1.415 . S
H3074 C3071 0.999 . S
H3075 C3056 0.913 . S
H3076 C3094 0.951 . S
H3077 C3096 0.951 . S
H3078 C3098 0.950 . S
H3079 C3099 0.950 . S
H3080 C3101 0.950 . S
H3081 C3104 0.950 . S
H3082 C3105 0.950 . S
H3083 C3107 0.950 . S
H3084 C3108 0.950 . S
H3085 C3109 0.951 . S
H3086 C3111 0.951 . S
H3087 C3113 0.950 . S
H3088 C3114 0.950 . S
H3089 C3116 0.950 . S
H3090 C3119 0.950 . S
H3091 C3120 0.950 . S
H3092 C3122 0.950 . S
H3093 C3123 0.950 . S
C3094 H3076 0.951 . S
C3094 C3095 1.366 . S
C3094 C3096 1.388 . S
C3095 C3094 1.366 . S
C3095 C3099 1.385 . S
C3096 H3077 0.951 . S
C3096 C3094 1.388 . S
C3096 C3097 1.366 . S
C3097 C3096 1.366 . S
C3097 C3098 1.414 . S
C3097 C3100 1.499 . S
C3098 H3078 0.950 . S
C3098 C3097 1.414 . S
C3098 C3099 1.374 . S
C3099 H3079 0.950 . S
C3099 C3095 1.385 . S
C3099 C3098 1.374 . S
C3100 C3097 1.499 . S
C3100 C3101 1.373 . S
C3100 C3102 1.389 . S
C3101 H3080 0.950 . S
C3101 C3100 1.373 . S
C3101 C3117 1.377 . S
C3102 C3100 1.389 . S
C3102 C3103 1.524 . S
C3102 C3116 1.377 . S
C3103 C3102 1.524 . S
C3103 C3104 1.397 . S
C3103 C3108 1.363 . S
C3104 H3081 0.950 . S
C3104 C3103 1.397 . S
C3104 C3105 1.334 . S
C3105 H3082 0.950 . S
C3105 C3104 1.334 . S
C3105 C3106 1.287 . S
C3106 C3105 1.287 . S
C3106 C3107 1.524 . S
C3106 H3125 0.913 . S
C3107 H3083 0.950 . S
C3107 C3106 1.524 . S
C3107 C3108 1.415 . S
C3108 H3084 0.950 . S
C3108 C3103 1.363 . S
C3108 C3107 1.415 . S
C3109 H3085 0.951 . S
C3109 C3110 1.366 . S
C3109 C3111 1.388 . S
C3110 C3109 1.366 . S
C3110 C3114 1.385 . S
C3111 H3086 0.951 . S
C3111 C3109 1.388 . S
C3111 C3112 1.366 . S
C3112 C3111 1.366 . S
C3112 C3113 1.414 . S
C3112 C3115 1.499 . S
C3113 H3087 0.950 . S
C3113 C3112 1.414 . S
C3113 C3114 1.374 . S
C3114 H3088 0.950 . S
C3114 C3110 1.385 . S
C3114 C3113 1.374 . S
C3115 C3112 1.499 . S
C3115 C3116 1.373 . S
C3115 C3117 1.389 . S
C3116 H3089 0.950 . S
C3116 C3102 1.377 . S
C3116 C3115 1.373 . S
C3117 C3101 1.377 . S
C3117 C3115 1.389 . S
C3117 C3118 1.524 . S
C3118 C3117 1.524 . S
C3118 C3119 1.397 . S
C3118 C3123 1.363 . S
C3119 H3090 0.950 . S
C3119 C3118 1.397 . S
C3119 C3120 1.334 . S
C3120 H3091 0.950 . S
C3120 C3119 1.334 . S
C3120 C3121 1.287 . S
C3121 C3120 1.287 . S
C3121 C3122 1.524 . S
C3121 H3124 0.999 . S
C3122 H3092 0.950 . S
C3122 C3121 1.524 . S
C3122 C3123 1.415 . S
C3123 H3093 0.950 . S
C3123 C3118 1.363 . S
C3123 C3122 1.415 . S
H3124 C3121 0.999 . S
H3125 C3106 0.913 . S
H3126 C3144 0.951 . S
H3127 C3146 0.951 . S
H3128 C3148 0.950 . S
H3129 C3149 0.950 . S
H3130 C3151 0.950 . S
H3131 C3154 0.950 . S
H3132 C3155 0.950 . S
H3133 C3157 0.950 . S
H3134 C3158 0.950 . S
H3135 C3159 0.951 . S
H3136 C3161 0.951 . S
H3137 C3163 0.950 1_554 S
H3138 C3164 0.950 . S
H3139 C3166 0.950 . S
H3140 C3169 0.950 1_554 S
H3141 C3170 0.950 1_554 S
H3142 C3172 0.950 . S
H3143 C3173 0.950 . S
C3144 H3126 0.951 . S
C3144 C3145 1.366 1_554 S
C3144 C3146 1.388 . S
C3145 C3144 1.366 1_556 S
C3145 C3149 1.385 . S
C3146 H3127 0.951 . S
C3146 C3144 1.388 . S
C3146 C3147 1.366 1_554 S
C3147 C3146 1.366 1_556 S
C3147 C3148 1.414 . S
C3147 C3150 1.499 . S
C3148 H3128 0.950 . S
C3148 C3147 1.414 . S
C3148 C3149 1.374 . S
C3149 H3129 0.950 . S
C3149 C3145 1.385 . S
C3149 C3148 1.374 . S
C3150 C3147 1.499 . S
C3150 C3151 1.373 . S
C3150 C3152 1.389 . S
C3151 H3130 0.950 . S
C3151 C3150 1.373 . S
C3151 C3167 1.377 . S
C3152 C3150 1.389 . S
C3152 C3153 1.524 . S
C3152 C3166 1.377 . S
C3153 C3152 1.524 . S
C3153 C3154 1.397 . S
C3153 C3158 1.363 1_556 S
C3154 H3131 0.950 . S
C3154 C3153 1.397 . S
C3154 C3155 1.334 . S
C3155 H3132 0.950 . S
C3155 C3154 1.334 . S
C3155 C3156 1.287 . S
C3156 C3155 1.287 . S
C3156 C3157 1.524 1_556 S
C3156 H3175 0.913 . S
C3157 H3133 0.950 . S
C3157 C3156 1.524 1_554 S
C3157 C3158 1.415 . S
C3158 H3134 0.950 . S
C3158 C3153 1.363 1_554 S
C3158 C3157 1.415 . S
C3159 H3135 0.951 . S
C3159 C3160 1.366 . S
C3159 C3161 1.388 . S
C3160 C3159 1.366 . S
C3160 C3164 1.385 . S
C3161 H3136 0.951 . S
C3161 C3159 1.388 . S
C3161 C3162 1.366 . S
C3162 C3161 1.366 . S
C3162 C3163 1.414 . S
C3162 C3165 1.499 . S
C3163 H3137 0.950 1_556 S
C3163 C3162 1.414 . S
C3163 C3164 1.374 . S
C3164 H3138 0.950 . S
C3164 C3160 1.385 . S
C3164 C3163 1.374 . S
C3165 C3162 1.499 . S
C3165 C3166 1.373 . S
C3165 C3167 1.389 . S
C3166 H3139 0.950 . S
C3166 C3152 1.377 . S
C3166 C3165 1.373 . S
C3167 C3151 1.377 . S
C3167 C3165 1.389 . S
C3167 C3168 1.524 . S
C3168 C3167 1.524 . S
C3168 C3169 1.397 . S
C3168 C3173 1.363 . S
C3169 H3140 0.950 1_556 S
C3169 C3168 1.397 . S
C3169 C3170 1.334 . S
C3170 H3141 0.950 1_556 S
C3170 C3169 1.334 . S
C3170 C3171 1.287 . S
C3171 C3170 1.287 . S
C3171 C3172 1.524 . S
C3171 H3174 0.999 . S
C3172 H3142 0.950 . S
C3172 C3171 1.524 . S
C3172 C3173 1.415 . S
C3173 H3143 0.950 . S
C3173 C3168 1.363 . S
C3173 C3172 1.415 . S
H3174 C3171 0.999 . S
H3175 C3156 0.913 . S
H3176 C3194 0.951 . S
H3177 C3196 0.951 . S
H3178 C3198 0.950 . S
H3179 C3199 0.950 . S
H3180 C3201 0.950 1_554 S
H3181 C3204 0.950 . S
H3182 C3205 0.950 . S
H3183 C3207 0.950 . S
H3184 C3208 0.950 . S
H3185 C3209 0.951 . S
H3186 C3211 0.951 1_554 S
H3187 C3213 0.950 . S
H3188 C3214 0.950 . S
H3189 C3216 0.950 . S
H3190 C3219 0.950 1_556 S
H3191 C3220 0.950 . S
H3192 C3222 0.950 . S
H3193 C3223 0.950 . S
C3194 H3176 0.951 . S
C3194 C3195 1.366 . S
C3194 C3196 1.388 . S
C3195 C3194 1.366 . S
C3195 C3199 1.385 1_556 S
C3196 H3177 0.951 . S
C3196 C3194 1.388 . S
C3196 C3197 1.366 . S
C3197 C3196 1.366 . S
C3197 C3198 1.414 1_556 S
C3197 C3200 1.499 . S
C3198 H3178 0.950 . S
C3198 C3197 1.414 1_554 S
C3198 C3199 1.374 . S
C3199 H3179 0.950 . S
C3199 C3195 1.385 1_554 S
C3199 C3198 1.374 . S
C3200 C3197 1.499 . S
C3200 C3201 1.373 . S
C3200 C3202 1.389 . S
C3201 H3180 0.950 1_556 S
C3201 C3200 1.373 . S
C3201 C3217 1.377 . S
C3202 C3200 1.389 . S
C3202 C3203 1.524 . S
C3202 C3216 1.377 . S
C3203 C3202 1.524 . S
C3203 C3204 1.397 . S
C3203 C3208 1.363 . S
C3204 H3181 0.950 . S
C3204 C3203 1.397 . S
C3204 C3205 1.334 . S
C3205 H3182 0.950 . S
C3205 C3204 1.334 . S
C3205 C3206 1.287 . S
C3206 C3205 1.287 . S
C3206 C3207 1.524 . S
C3206 H3225 0.913 . S
C3207 H3183 0.950 . S
C3207 C3206 1.524 . S
C3207 C3208 1.415 . S
C3208 H3184 0.950 . S
C3208 C3203 1.363 . S
C3208 C3207 1.415 . S
C3209 H3185 0.951 . S
C3209 C3210 1.366 . S
C3209 C3211 1.388 . S
C3210 C3209 1.366 . S
C3210 C3214 1.385 . S
C3211 H3186 0.951 1_556 S
C3211 C3209 1.388 . S
C3211 C3212 1.366 . S
C3212 C3211 1.366 . S
C3212 C3213 1.414 . S
C3212 C3215 1.499 . S
C3213 H3187 0.950 . S
C3213 C3212 1.414 . S
C3213 C3214 1.374 . S
C3214 H3188 0.950 . S
C3214 C3210 1.385 . S
C3214 C3213 1.374 . S
C3215 C3212 1.499 . S
C3215 C3216 1.373 . S
C3215 C3217 1.389 . S
C3216 H3189 0.950 . S
C3216 C3202 1.377 . S
C3216 C3215 1.373 . S
C3217 C3201 1.377 . S
C3217 C3215 1.389 . S
C3217 C3218 1.524 1_556 S
C3218 C3217 1.524 1_554 S
C3218 C3219 1.397 . S
C3218 C3223 1.363 . S
C3219 H3190 0.950 1_554 S
C3219 C3218 1.397 . S
C3219 C3220 1.334 . S
C3220 H3191 0.950 . S
C3220 C3219 1.334 . S
C3220 C3221 1.287 . S
C3221 C3220 1.287 . S
C3221 C3222 1.524 . S
C3221 H3224 0.999 . S
C3222 H3192 0.950 . S
C3222 C3221 1.524 . S
C3222 C3223 1.415 . S
C3223 H3193 0.950 . S
C3223 C3218 1.363 . S
C3223 C3222 1.415 . S
H3224 C3221 0.999 . S
H3225 C3206 0.913 . S
H3226 C3244 0.951 . S
H3227 C3246 0.951 . S
H3228 C3248 0.950 . S
H3229 C3249 0.950 . S
H3230 C3251 0.950 . S
H3231 C3254 0.950 . S
H3232 C3255 0.950 . S
H3233 C3257 0.950 . S
H3234 C3258 0.950 . S
H3235 C3259 0.951 . S
H3236 C3261 0.951 . S
H3237 C3263 0.950 . S
H3238 C3264 0.950 . S
H3239 C3266 0.950 . S
H3240 C3269 0.950 . S
H3241 C3270 0.950 . S
H3242 C3272 0.950 . S
H3243 C3273 0.950 . S
C3244 H3226 0.951 . S
C3244 C3245 1.366 . S
C3244 C3246 1.388 . S
C3245 C3244 1.366 . S
C3245 C3249 1.385 . S
C3246 H3227 0.951 . S
C3246 C3244 1.388 . S
C3246 C3247 1.366 . S
C3247 C3246 1.366 . S
C3247 C3248 1.414 . S
C3247 C3250 1.499 . S
C3248 H3228 0.950 . S
C3248 C3247 1.414 . S
C3248 C3249 1.374 . S
C3249 H3229 0.950 . S
C3249 C3245 1.385 . S
C3249 C3248 1.374 . S
C3250 C3247 1.499 . S
C3250 C3251 1.373 . S
C3250 C3252 1.389 . S
C3251 H3230 0.950 . S
C3251 C3250 1.373 . S
C3251 C3267 1.377 . S
C3252 C3250 1.389 . S
C3252 C3253 1.524 1_554 S
C3252 C3266 1.377 . S
C3253 C3252 1.524 1_556 S
C3253 C3254 1.397 . S
C3253 C3258 1.363 . S
C3254 H3231 0.950 . S
C3254 C3253 1.397 . S
C3254 C3255 1.334 . S
C3255 H3232 0.950 . S
C3255 C3254 1.334 . S
C3255 C3256 1.287 . S
C3256 C3255 1.287 . S
C3256 C3257 1.524 . S
C3256 H3275 0.913 . S
C3257 H3233 0.950 . S
C3257 C3256 1.524 . S
C3257 C3258 1.415 . S
C3258 H3234 0.950 . S
C3258 C3253 1.363 . S
C3258 C3257 1.415 . S
C3259 H3235 0.951 . S
C3259 C3260 1.366 . S
C3259 C3261 1.388 . S
C3260 C3259 1.366 . S
C3260 C3264 1.385 . S
C3261 H3236 0.951 . S
C3261 C3259 1.388 . S
C3261 C3262 1.366 . S
C3262 C3261 1.366 . S
C3262 C3263 1.414 . S
C3262 C3265 1.499 . S
C3263 H3237 0.950 . S
C3263 C3262 1.414 . S
C3263 C3264 1.374 . S
C3264 H3238 0.950 . S
C3264 C3260 1.385 . S
C3264 C3263 1.374 . S
C3265 C3262 1.499 . S
C3265 C3266 1.373 . S
C3265 C3267 1.389 . S
C3266 H3239 0.950 . S
C3266 C3252 1.377 . S
C3266 C3265 1.373 . S
C3267 C3251 1.377 . S
C3267 C3265 1.389 . S
C3267 C3268 1.524 . S
C3268 C3267 1.524 . S
C3268 C3269 1.397 . S
C3268 C3273 1.363 . S
C3269 H3240 0.950 . S
C3269 C3268 1.397 . S
C3269 C3270 1.334 . S
C3270 H3241 0.950 . S
C3270 C3269 1.334 . S
C3270 C3271 1.287 . S
C3271 C3270 1.287 . S
C3271 C3272 1.524 . S
C3271 H3274 0.999 . S
C3272 H3242 0.950 . S
C3272 C3271 1.524 . S
C3272 C3273 1.415 . S
C3273 H3243 0.950 . S
C3273 C3268 1.363 . S
C3273 C3272 1.415 . S
H3274 C3271 0.999 . S
H3275 C3256 0.913 . S
C895 C22 1.708 . S
C910 C723 1.683 . S
C960 N740 1.824 . S
C945 C38 1.943 . S
C1010 N642 1.646 . S
C995 C75 1.631 . S
C1045 C91 1.322 1_655 S
C1060 C667 1.319 . S
C1095 C128 1.830 . S
C1110 C862 1.831 . S
C1145 C197 1.451 . S
C1160 N822 1.443 . S
C1210 N770 1.747 . S
C1195 C144 1.876 1_565 S
C1245 C181 1.720 . S
C1260 C796 1.720 . S
C1310 C682 1.692 1_455 S
C1295 C234 1.695 . S
C1360 C727 1.897 1_455 S
C1345 C303 1.897 . S
C1395 C356 1.841 . S
C1410 C706 1.854 1_655 S
C1445 C287 1.967 . S
C1460 C813 1.960 . S
C1510 C843 1.621 . S
C1495 C393 1.638 . S
C1560 N860 1.820 . S
C1545 C409 1.965 . S
C1595 C462 1.762 . S
C1610 N792 1.772 . S
C1660 C757 1.270 . S
C1645 C446 1.267 . S
C1695 C499 1.784 . S
C1710 C742 1.780 . S
C1745 C552 1.390 . S
C1760 N702 1.388 . S
C1810 N680 1.628 . S
C1795 C515 1.758 . S
C1845 C568 1.962 . S
C1860 C646 1.963 1_556 S
C1910 C772 1.775 . S
C1895 C340 1.773 . S
C1960 C847 1.848 . S
C1945 C621 1.840 1_556 S
C1995 C250 1.720 1_556 S
C2010 C826 1.726 . S
C2045 C605 1.906 . S
C2060 C663 1.886 . S
C2110 C637 1.196 . S
C2095 C39 1.191 . S
C2145 C29 0.636 . S
C2160 N672 0.638 . S
C2210 N710 1.104 . S
C2195 C92 1.157 . S
C2260 C753 1.571 . S
C2245 C82 1.535 . S
C2295 C145 1.516 . S
C2310 C652 1.520 . S
C2345 C188 1.366 . S
C2360 C693 1.363 . S
C2410 C697 0.982 . S
C2395 C135 0.982 . S
C2445 C198 1.472 . S
C2460 C736 1.469 . S
C2495 C251 0.919 . S
C2510 N650 0.904 . S
C2560 C712 1.599 . S
C2545 C294 1.580 . S
C2595 C347 1.020 . S
C2610 N732 1.019 . S
C2645 C304 1.413 . S
C2660 C766 1.416 . S
C2710 C787 1.215 . S
C2695 C410 1.218 . S
C2745 C400 0.662 . S
C2760 N762 0.664 . S
C2795 C453 0.846 . S
C2810 N830 0.833 . S
C2845 C463 1.840 . S
C2860 C873 1.865 . S
C2895 C516 1.508 . S
C2910 C802 1.518 . S
C2960 C783 1.702 . S
C2945 C569 1.713 . S
C2995 C506 0.881 . S
C3010 C817 0.878 . S
C3060 C856 1.263 . S
C3045 C559 1.254 . S
C3110 N800 0.850 . S
C3095 C357 0.862 . S
C3160 C832 1.567 . S
C3145 C612 1.559 . S
C3210 N852 0.986 . S
C3195 C241 0.986 . S
C3245 C622 1.313 . S
C3260 C676 1.312 . S
