# Generated by pormake.
# Topology pyr, (3,6)-cn, num edge types: 1
# Building blocks:
#     Node 0, Type 0, BuildingBlock: OLANEW_clean_sbu_2, # of connection points: 3
#     Node 1, Type 0, BuildingBlock: OLANEW_clean_sbu_2, # of connection points: 3
#     Node 2, Type 0, BuildingBlock: OLANEW_clean_sbu_2, # of connection points: 3
#     Node 3, Type 0, BuildingBlock: OLANEW_clean_sbu_2, # of connection points: 3
#     Node 4, Type 0, BuildingBlock: OLANEW_clean_sbu_2, # of connection points: 3
#     Node 5, Type 0, BuildingBlock: OLANEW_clean_sbu_2, # of connection points: 3
#     Node 6, Type 0, BuildingBlock: OLANEW_clean_sbu_2, # of connection points: 3
#     Node 7, Type 0, BuildingBlock: OLANEW_clean_sbu_2, # of connection points: 3
#     Node 8, Type 1, BuildingBlock: FUNLAD_clean_sbu_0, # of connection points: 6
#     Node 9, Type 1, BuildingBlock: FUNLAD_clean_sbu_0, # of connection points: 6
#     Node 10, Type 1, BuildingBlock: FUNLAD_clean_sbu_0, # of connection points: 6
#     Node 11, Type 1, BuildingBlock: FUNLAD_clean_sbu_0, # of connection points: 6
#     Edge 12, Type (0, 1), BuildingBlock: EZIPEK_clean_linker_0, # of connection points: 2
#     Edge 13, Type (0, 1), BuildingBlock: EZIPEK_clean_linker_0, # of connection points: 2
#     Edge 14, Type (0, 1), BuildingBlock: EZIPEK_clean_linker_0, # of connection points: 2
#     Edge 15, Type (0, 1), BuildingBlock: EZIPEK_clean_linker_0, # of connection points: 2
#     Edge 16, Type (0, 1), BuildingBlock: EZIPEK_clean_linker_0, # of connection points: 2
#     Edge 17, Type (0, 1), BuildingBlock: EZIPEK_clean_linker_0, # of connection points: 2
#     Edge 18, Type (0, 1), BuildingBlock: EZIPEK_clean_linker_0, # of connection points: 2
#     Edge 19, Type (0, 1), BuildingBlock: EZIPEK_clean_linker_0, # of connection points: 2
#     Edge 20, Type (0, 1), BuildingBlock: EZIPEK_clean_linker_0, # of connection points: 2
#     Edge 21, Type (0, 1), BuildingBlock: EZIPEK_clean_linker_0, # of connection points: 2
#     Edge 22, Type (0, 1), BuildingBlock: EZIPEK_clean_linker_0, # of connection points: 2
#     Edge 23, Type (0, 1), BuildingBlock: EZIPEK_clean_linker_0, # of connection points: 2
#     Edge 24, Type (0, 1), BuildingBlock: EZIPEK_clean_linker_0, # of connection points: 2
#     Edge 25, Type (0, 1), BuildingBlock: EZIPEK_clean_linker_0, # of connection points: 2
#     Edge 26, Type (0, 1), BuildingBlock: EZIPEK_clean_linker_0, # of connection points: 2
#     Edge 27, Type (0, 1), BuildingBlock: EZIPEK_clean_linker_0, # of connection points: 2
#     Edge 28, Type (0, 1), BuildingBlock: EZIPEK_clean_linker_0, # of connection points: 2
#     Edge 29, Type (0, 1), BuildingBlock: EZIPEK_clean_linker_0, # of connection points: 2
#     Edge 30, Type (0, 1), BuildingBlock: EZIPEK_clean_linker_0, # of connection points: 2
#     Edge 31, Type (0, 1), BuildingBlock: EZIPEK_clean_linker_0, # of connection points: 2
#     Edge 32, Type (0, 1), BuildingBlock: EZIPEK_clean_linker_0, # of connection points: 2
#     Edge 33, Type (0, 1), BuildingBlock: EZIPEK_clean_linker_0, # of connection points: 2
#     Edge 34, Type (0, 1), BuildingBlock: EZIPEK_clean_linker_0, # of connection points: 2
#     Edge 35, Type (0, 1), BuildingBlock: EZIPEK_clean_linker_0, # of connection points: 2
# Relax obj value: 0.204
# Max RMSD: 0.176
# Mean RMSD: 0.120
data_MOF--net-pry--node1-OLANEW_clean_sbu_2--node2-FUNLAD_clean_sbu_0--edge1-EZIPEK_clean_linker_0
_symmetry_space_group_name_H-M    P1
_symmetry_Int_Tables_number       1
_symmetry_cell_setting            triclinic
loop_
_symmetry_equiv_pos_as_xyz
'x, y, z'
_cell_length_a     28.219351
_cell_length_b     30.917332
_cell_length_c     30.952177
_cell_angle_alpha  93.861081
_cell_angle_beta   89.663982
_cell_angle_gamma 89.155359
loop_
_atom_site_label
_atom_site_type_symbol
_atom_site_fract_x
_atom_site_fract_y
_atom_site_fract_z
_atom_type_partial_charge
O0 O 0.24286 0.19101 0.16339 0.0
Cd1 Cd 0.17073 0.23445 0.18687 0.0
O2 O 0.24662 0.13847 0.20958 0.0
Cd3 Cd 0.18595 0.14333 0.25565 0.0
O4 O 0.14271 0.12172 0.31052 0.0
C5 C 0.16295 0.10018 0.3391 0.0
O6 O 0.20874 0.09228 0.33588 0.0
C7 C 0.26323 0.15755 0.17753 0.0
C8 C 0.14284 0.30738 0.14111 0.0
O9 O 0.17364 0.31077 0.17138 0.0
O10 O 0.12639 0.26963 0.13104 0.0
O11 O 0.46095 0.9075 0.80629 0.0
Cd12 Cd 0.43595 0.87842 0.73331 0.0
O13 O 0.40207 0.95572 0.81293 0.0
Cd14 Cd 0.36549 0.94336 0.75109 0.0
O15 O 0.30772 0.95804 0.70678 0.0
C16 C 0.27844 0.92957 0.69295 0.0
O17 O 0.28393 0.88934 0.70346 0.0
C18 C 0.43901 0.93823 0.82802 0.0
C19 C 0.47631 0.80023 0.69676 0.0
O20 O 0.4956 0.83669 0.69103 0.0
O21 O 0.43921 0.80018 0.72084 0.0
O22 O 0.73377 0.5151 0.03268 0.0
Cd23 Cd 0.64769 0.50676 0.03463 0.0
O24 O 0.73555 0.46098 0.98364 0.0
Cd25 Cd 0.76397 0.40971 0.93874 0.0
O26 O 0.7316 0.34635 0.93928 0.0
C27 C 0.6867 0.34679 0.93644 0.0
O28 O 0.66454 0.38299 0.92848 0.0
C29 C 0.75758 0.48941 1.0068 0.0
C30 C 0.61311 0.49889 0.95053 0.0
O31 O 0.6159 0.53612 0.97111 0.0
O32 O 0.62549 0.46523 0.96991 0.0
O33 O 0.93053 0.63783 0.51225 0.0
Cd34 Cd 0.91373 0.5634 0.48906 0.0
O35 O 0.99234 0.62091 0.55118 0.0
Cd36 Cd 0.9543 0.56212 0.56268 0.0
O37 O 0.87834 0.5519 0.56717 0.0
C38 C 0.85537 0.54743 0.60193 0.0
O39 O 0.87816 0.5445 0.63853 0.0
C40 C 0.96842 0.64877 0.53174 0.0
C41 C 0.93861 0.56172 0.40236 0.0
O42 O 0.96948 0.55347 0.43098 0.0
O43 O 0.89538 0.568 0.41439 0.0
O44 O 0.94766 0.88833 0.82503 0.0
Cd45 Cd 0.91503 0.85362 0.88958 0.0
O46 O 0.88421 0.9307 0.82028 0.0
Cd47 Cd 0.84733 0.91627 0.88051 0.0
O48 O 0.79588 0.92236 0.9347 0.0
C49 C 0.76765 0.95494 0.93634 0.0
O50 O 0.77105 0.98335 0.90683 0.0
C51 C 0.92418 0.91672 0.80543 0.0
C52 C 0.95781 0.78258 0.9295 0.0
O53 O 0.93998 0.7782 0.89146 0.0
O54 O 0.95822 0.82099 0.94789 0.0
O55 O 0.66148 0.12323 0.34909 0.0
Cd56 Cd 0.6893 0.14797 0.42243 0.0
O57 O 0.60276 0.17152 0.34713 0.0
Cd58 Cd 0.61528 0.21151 0.40789 0.0
O59 O 0.6162 0.26863 0.4552 0.0
C60 C 0.5781 0.28967 0.46534 0.0
O61 O 0.53772 0.2759 0.44908 0.0
C62 C 0.62598 0.13907 0.32984 0.0
C63 C 0.77001 0.10717 0.45614 0.0
O64 O 0.72864 0.09127 0.46022 0.0
O65 O 0.77365 0.1412 0.43492 0.0
O66 O 0.56589 0.67214 0.1183 0.0
Cd67 Cd 0.58643 0.5974 0.13001 0.0
O68 O 0.49298 0.65268 0.1306 0.0
Cd69 Cd 0.41694 0.66495 0.13656 0.0
O70 O 0.34113 0.65524 0.12821 0.0
C71 C 0.32933 0.62722 0.09847 0.0
O72 O 0.36229 0.60677 0.07457 0.0
C73 C 0.52235 0.68214 0.12349 0.0
C74 C 0.57027 0.58892 0.21744 0.0
O75 O 0.61109 0.59951 0.2036 0.0
O76 O 0.53734 0.58088 0.18986 0.0
O77 O 0.12677 0.50074 0.6504 0.0
Cd78 Cd 0.15259 0.51066 0.57564 0.0
O79 O 0.19916 0.47915 0.66289 0.0
Cd80 Cd 0.18905 0.43875 0.60373 0.0
O81 O 0.15459 0.3766 0.59358 0.0
C82 C 0.12225 0.36969 0.62092 0.0
O83 O 0.11 0.40041 0.65039 0.0
C84 C 0.15944 0.49355 0.67723 0.0
C85 C 0.25121 0.5206 0.57363 0.0
O86 O 0.23207 0.48731 0.55459 0.0
O87 O 0.22389 0.54996 0.59172 0.0
C88 C 0.06964 0.03518 0.49046 0.0
N89 N 0.0429 0.1065 0.60769 0.0
C90 C 0.08742 0.12154 0.60205 0.0
C91 C 0.09658 0.16545 0.60915 0.0
C92 C 0.05952 0.19404 0.6219 0.0
C93 C 0.0144 0.17783 0.62976 0.0
C94 C 1.00681 0.13337 0.62249 0.0
Zn95 Zn 0.03065 0.04489 0.5838 0.0
C96 C 0.93987 0.03922 0.53524 0.0
N97 N 0.01181 0.91824 0.52695 0.0
C98 C 0.04901 0.89372 0.51052 0.0
C99 C 0.96941 0.90029 0.53573 0.0
C100 C 0.96433 0.85551 0.53124 0.0
C101 C 1.00329 0.8294 0.5177 0.0
C102 C 0.04552 0.84871 0.50573 0.0
Zn103 Zn 0.02288 0.97971 0.55097 0.0
O104 O 0.06191 0.06133 0.52337 0.0
C105 C 0.11283 0.98481 0.59988 0.0
O106 O 0.05755 0.99585 0.49236 0.0
H107 H 0.94059 0.92041 0.54923 0.0
H108 H 0.11545 0.09987 0.58984 0.0
H109 H 0.08244 0.90878 0.50408 0.0
O110 O 0.0981 0.02361 0.60778 0.0
O111 O 0.08854 0.95893 0.57588 0.0
H112 H 0.97168 0.12071 0.62665 0.0
O113 O 0.99027 0.9636 0.61121 0.0
O114 O 0.99931 0.02823 0.64351 0.0
O115 O 0.95602 1.00112 0.52547 0.0
O116 O 0.96341 0.06484 0.56036 0.0
C117 C 0.98645 0.98908 0.64517 0.0
H118 H 0.13175 0.1773 0.60291 0.0
H119 H 0.98525 0.19946 0.63977 0.0
H120 H 0.93135 0.84122 0.54072 0.0
H121 H 0.07611 0.82909 0.49523 0.0
C122 C 0.61224 1.00681 0.05011 0.0
N123 N 0.55527 0.13039 0.0406 0.0
C124 C 0.59929 0.14476 0.05138 0.0
C125 C 0.61754 0.18089 0.03298 0.0
C126 C 0.59037 0.20214 1.00302 0.0
C127 C 0.54489 0.18727 0.99264 0.0
C128 C 0.52779 0.15099 0.0121 0.0
Zn129 Zn 0.53484 0.07396 0.06501 0.0
C130 C 0.49162 0.01318 0.99826 0.0
N131 N 0.50008 0.95359 0.11518 0.0
C132 C 0.53392 0.9322 0.13692 0.0
C133 C 0.45979 0.93355 0.10115 0.0
C134 C 0.45424 0.88925 0.1057 0.0
C135 C 0.49047 0.86597 0.12498 0.0
C136 C 0.52971 0.88804 0.1423 0.0
Zn137 Zn 0.51722 0.0119 0.09295 0.0
O138 O 0.60126 0.04593 0.04436 0.0
C139 C 0.56234 0.07145 0.15968 0.0
O140 O 0.58454 0.98458 0.07196 0.0
H141 H 0.43353 0.95118 0.0837 0.0
H142 H 0.62081 0.12758 0.0736 0.0
H143 H 0.56586 0.94863 0.14731 0.0
O144 O 0.56277 0.09531 0.12771 0.0
O145 O 0.54556 0.03349 0.15453 0.0
H146 H 0.49305 0.13879 1.00383 0.0
O147 O 0.44948 0.04029 0.11328 0.0
O148 O 0.4676 0.10135 0.08495 0.0
O149 O 0.49021 0.99032 0.03082 0.0
O150 O 0.50708 0.05165 1.00309 0.0
C151 C 0.43856 0.07929 0.10581 0.0
H152 H 0.65279 0.19181 0.04151 0.0
H153 H 0.52319 0.20332 0.96961 0.0
H154 H 0.42361 0.87284 0.09198 0.0
H155 H 0.55823 0.87069 0.15724 0.0
C156 C 0.56401 0.45764 0.56046 0.0
N157 N 0.55409 0.52078 0.68467 0.0
C158 C 0.53069 0.48691 0.70043 0.0
C159 C 0.53489 0.47838 0.74414 0.0
C160 C 0.56341 0.50507 0.77127 0.0
C161 C 0.58657 0.53989 0.75434 0.0
C162 C 0.58138 0.54722 0.71078 0.0
Zn163 Zn 0.55186 0.53411 0.62098 0.0
C164 C 0.65031 0.55348 0.58867 0.0
N165 N 0.5518 0.56938 0.49033 0.0
C166 C 0.58359 0.54714 0.46374 0.0
C167 C 0.51931 0.59704 0.47437 0.0
C168 C 0.51814 0.60312 0.42999 0.0
C169 C 0.55084 0.58054 0.40224 0.0
C170 C 0.58392 0.55245 0.41946 0.0
Zn171 Zn 0.55263 0.55635 0.55426 0.0
O172 O 0.56324 0.46717 0.60104 0.0
C173 C 0.45518 0.53607 0.58554 0.0
O174 O 0.5601 0.4881 0.5349 0.0
H175 H 0.49378 0.61375 0.49589 0.0
H176 H 0.50926 0.46629 0.67904 0.0
H177 H 0.60818 0.52447 0.4767 0.0
O178 O 0.4774 0.52556 0.61901 0.0
O179 O 0.47781 0.55023 0.55394 0.0
H180 H 0.59975 0.57381 0.69768 0.0
O181 O 0.54486 0.62375 0.5749 0.0
O182 O 0.53887 0.60196 0.64046 0.0
O183 O 0.62751 0.56299 0.55531 0.0
O184 O 0.62735 0.54171 0.62125 0.0
C185 C 0.53735 0.63277 0.61512 0.0
H186 H 0.51679 0.4511 0.7565 0.0
H187 H 0.60894 0.56088 0.77459 0.0
H188 H 0.49192 0.6248 0.41738 0.0
H189 H 0.6093 0.53432 0.39871 0.0
C190 C 0.02178 0.6278 0.01302 0.0
N191 N 0.01256 0.57102 0.13545 0.0
C192 C 0.02833 0.60495 0.16155 0.0
C193 C 0.01694 0.60794 0.20578 0.0
C194 C 0.9886 0.57603 0.22262 0.0
C195 C 0.97129 0.54261 0.19471 0.0
C196 C 0.98424 0.54037 0.15125 0.0
Zn197 Zn 0.03631 0.55801 0.0733 0.0
C198 C 0.95848 0.51841 0.01905 0.0
N199 N 0.08437 0.52127 0.94563 0.0
C200 C 0.11378 0.55054 0.92893 0.0
C201 C 0.06886 0.4862 0.92109 0.0
C202 C 0.08208 0.48022 0.8775 0.0
C203 C 0.11173 0.51047 0.85961 0.0
C204 C 0.12831 0.5455 0.88587 0.0
Zn205 Zn 0.06047 0.53519 1.0071 0.0
O206 O 0.01459 0.62128 0.05284 0.0
C207 C 0.13705 0.57614 0.06248 0.0
O208 O 0.0412 0.59804 0.98849 0.0
H209 H 0.04535 0.4635 0.93503 0.0
H210 H 0.05124 0.62867 0.14851 0.0
H211 H 0.12504 0.57862 0.94867 0.0
O212 O 0.10371 0.58178 0.09003 0.0
O213 O 0.12898 0.55736 0.02556 0.0
H214 H 0.97323 0.51282 0.13063 0.0
O215 O 0.08035 0.47202 0.02572 0.0
O216 O 0.05869 0.49467 0.09172 0.0
O217 O 0.99047 0.51359 0.98991 0.0
O218 O 0.96893 0.53485 0.05625 0.0
C219 C 0.07612 0.465 0.06558 0.0
H220 H 0.031 0.63404 0.22678 0.0
H221 H 0.94965 0.51738 0.20687 0.0
H222 H 0.06888 0.45277 0.85779 0.0
H223 H 0.15125 0.56929 0.87282 0.0
C224 C 0.1496 0.10059 0.41933 0.0
C225 C 0.13627 0.08532 0.37705 0.0
C226 C 0.07617 0.03934 0.40835 0.0
C227 C 0.09327 0.051 0.45084 0.0
N228 N 0.1547 0.08556 0.4946 0.0
N229 N 0.09197 0.03496 0.33095 0.0
C230 C 0.1322 0.0798 0.45572 0.0
C231 C 0.10087 0.05333 0.37143 0.0
N232 N 0.17815 0.13584 0.42493 0.0
N233 N 0.03532 0.01647 0.40288 0.0
H234 H 0.10878 0.04458 0.30315 0.0
H235 H 0.0709 1.00781 0.3253 0.0
H236 H 0.01572 1.00527 0.42827 0.0
H237 H 0.01832 0.01189 0.37317 0.0
H238 H 0.18481 0.15142 0.45515 0.0
H239 H 0.1912 0.15229 0.39913 0.0
H240 H 0.1862 0.10246 0.49871 0.0
H241 H 0.14524 0.06941 0.52164 0.0
C242 C 0.42477 0.94954 0.90804 0.0
C243 C 0.45516 0.95393 0.87198 0.0
C244 C 0.5119 0.99311 0.91958 0.0
C245 C 0.47871 0.99354 0.95448 0.0
N246 N 0.40053 0.97693 0.97996 0.0
N247 N 0.52498 0.98477 0.84192 0.0
C248 C 0.4344 0.97281 0.94821 0.0
C249 C 0.49812 0.97691 0.87735 0.0
N250 N 0.38726 0.92208 0.90417 0.0
N251 N 0.55737 1.00623 0.927 0.0
H252 H 0.51654 0.97298 0.81059 0.0
H253 H 0.55356 1.00576 0.84314 0.0
H254 H 0.56953 0.01744 0.95737 0.0
H255 H 0.58439 1.00194 0.90398 0.0
H256 H 0.36674 0.91383 0.93037 0.0
H257 H 0.37944 0.90414 0.8754 0.0
H258 H 0.36574 0.96681 0.97562 0.0
H259 H 0.40592 0.99416 1.00948 0.0
C260 C 0.55163 0.51032 0.89407 0.0
C261 C 0.59752 0.49521 0.90484 0.0
C262 C 0.61411 0.47532 0.82822 0.0
C263 C 0.57138 0.49631 0.81715 0.0
N264 N 0.5001 0.53616 0.83852 0.0
N265 N 0.67522 0.46862 0.88185 0.0
C266 C 0.54002 0.51416 0.84982 0.0
C267 C 0.62937 0.47855 0.8719 0.0
N268 N 0.51885 0.51997 0.92611 0.0
N269 N 0.64016 0.45241 0.79684 0.0
H270 H 0.68838 0.47178 0.91323 0.0
H271 H 0.7014 0.46095 0.85863 0.0
H272 H 0.63008 0.4498 0.76439 0.0
H273 H 0.66911 0.43274 0.80351 0.0
H274 H 0.48341 0.5271 0.92016 0.0
H275 H 0.52609 0.51704 0.95881 0.0
H276 H 0.4788 0.55443 0.86069 0.0
H277 H 0.4897 0.53826 0.80643 0.0
C278 C 0.98033 0.53321 0.33415 0.0
C279 C 0.95306 0.56637 0.35686 0.0
C280 C 0.94903 0.60667 0.29138 0.0
C281 C 0.97928 0.57513 0.26978 0.0
N282 N 0.03339 0.51437 0.27389 0.0
N283 N 0.92258 0.64008 0.36036 0.0
C284 C 0.99801 0.54025 0.29226 0.0
C285 C 0.94056 0.60474 0.33646 0.0
N286 N 0.98745 0.49417 0.35155 0.0
N287 N 0.92697 0.63752 0.26871 0.0
H288 H 0.91757 0.6408 0.3938 0.0
H289 H 0.91746 0.6702 0.34777 0.0
H290 H 0.93211 0.64001 0.23558 0.0
H291 H 0.90052 0.65826 0.28206 0.0
H292 H 1.00292 0.46741 0.33437 0.0
H293 H 0.97367 0.48704 0.38154 0.0
H294 H 0.05149 0.4911 0.29052 0.0
H295 H 0.04799 0.51916 0.24356 0.0
C296 C 0.35125 0.16058 0.16337 0.0
C297 C 0.30747 0.1393 0.1562 0.0
C298 C 0.34893 0.08053 0.11272 0.0
C299 C 0.39324 0.09982 0.12312 0.0
N300 N 0.43695 0.15407 0.1654 0.0
N301 N 0.26454 0.07704 0.12756 0.0
C302 C 0.39449 0.13895 0.15008 0.0
C303 C 0.30637 0.09864 0.13195 0.0
N304 N 0.35163 0.20145 0.18317 0.0
N305 N 0.34725 0.04594 0.08293 0.0
H306 H 0.23211 0.09042 0.1384 0.0
H307 H 0.26222 0.04493 0.11537 0.0
H308 H 0.37747 0.03183 0.06832 0.0
H309 H 0.31595 0.03341 0.07 0.0
H310 H 0.38161 0.22071 0.18477 0.0
H311 H 0.32109 0.21757 0.19516 0.0
H312 H 0.43994 0.17951 0.18898 0.0
H313 H 0.46931 0.1386 0.1579 0.0
C314 C 0.24218 0.96316 0.62868 0.0
C315 C 0.23629 0.94246 0.66793 0.0
C316 C 0.15008 0.94333 0.658 0.0
C317 C 0.15562 0.96864 0.62177 0.0
N318 N 0.2063 1.00438 0.57303 0.0
N319 N 0.18417 0.92046 0.72438 0.0
C320 C 0.20156 0.97923 0.60735 0.0
C321 C 0.19012 0.93433 0.68369 0.0
N322 N 0.28637 0.96559 0.61071 0.0
N323 N 0.10666 0.92735 0.66771 0.0
H324 H 0.2123 0.91489 0.74507 0.0
H325 H 0.15117 0.91876 0.73939 0.0
H326 H 0.0761 0.93382 0.65039 0.0
H327 H 0.10162 0.90475 0.69073 0.0
H328 H 0.29263 0.9763 0.58005 0.0
H329 H 0.31675 0.95332 0.62485 0.0
H330 H 0.23816 0.01795 0.56413 0.0
H331 H 0.17752 0.01328 0.55451 0.0
C332 C 0.82741 0.53651 0.99873 0.0
C333 C 0.8097 0.49443 1.0032 0.0
C334 C 0.89148 0.46637 1.0065 0.0
C335 C 0.90807 0.50955 1.00954 0.0
N336 N 0.88976 0.58649 0.01739 0.0
N337 N 0.82489 0.41952 0.01726 0.0
C338 C 0.87551 0.54487 1.00809 0.0
C339 C 0.8417 0.45911 1.00806 0.0
N340 N 0.79854 0.5684 0.98449 0.0
N341 N 0.92316 0.43245 1.0033 0.0
H342 H 0.78891 0.41322 0.02041 0.0
H343 H 0.84666 0.39394 0.0256 0.0
H344 H 0.95976 0.43673 1.00363 0.0
H345 H 0.91317 0.40037 0.99683 0.0
H346 H 0.81103 0.59854 0.97685 0.0
H347 H 0.76342 0.56304 0.97549 0.0
H348 H 0.86612 0.61271 0.02123 0.0
H349 H 0.92453 0.59458 0.02501 0.0
C350 C 0.77615 0.57838 0.62801 0.0
C351 C 0.80283 0.5483 0.60061 0.0
C352 C 0.73156 0.53115 0.55876 0.0
C353 C 0.70322 0.55558 0.59014 0.0
N354 N 0.69929 0.60159 0.65641 0.0
N355 N 0.80337 0.48861 0.54629 0.0
C356 C 0.72578 0.57853 0.62559 0.0
C357 C 0.77974 0.52249 0.5679 0.0
N358 N 0.79868 0.60886 0.6542 0.0
N359 N 0.71364 0.51727 0.5195 0.0
H360 H 0.83827 0.48004 0.55321 0.0
H361 H 0.78661 0.46613 0.52514 0.0
H362 H 0.67962 0.52458 0.50969 0.0
H363 H 0.73459 0.50291 0.49448 0.0
H364 H 0.78102 0.63451 0.67126 0.0
H365 H 0.8354 0.61139 0.65571 0.0
H366 H 0.71299 0.61372 0.68591 0.0
H367 H 0.66317 0.60722 0.65307 0.0
C368 C 0.07686 0.35963 0.12364 0.0
C369 C 0.12533 0.3465 0.11958 0.0
C370 C 0.14184 0.41169 0.08071 0.0
C371 C 0.09283 0.42315 0.08219 0.0
N372 N 0.01246 0.40404 0.09809 0.0
N373 N 0.2022 0.35579 0.08752 0.0
C374 C 0.05999 0.39591 0.10166 0.0
C375 C 0.15732 0.37138 0.0962 0.0
N376 N 0.04732 0.33877 0.15027 0.0
N377 N 0.17399 0.44018 0.06629 0.0
H378 H 0.21467 0.32639 0.09804 0.0
H379 H 0.2256 0.36992 0.06669 0.0
H380 H 0.16431 0.46983 0.05449 0.0
H381 H 0.2105 0.43614 0.06929 0.0
H382 H 0.01321 0.34983 0.15852 0.0
H383 H 0.05817 0.31244 0.16731 0.0
H384 H 0.98653 0.38284 0.10734 0.0
H385 H 0.99882 0.43018 0.08222 0.0
C386 C 0.63397 0.31584 0.99127 0.0
C387 C 0.65941 0.31022 0.95149 0.0
C388 C 0.63755 0.2337 0.94413 0.0
C389 C 0.61034 0.23998 0.98283 0.0
N390 N 0.57485 0.28798 0.03885 0.0
N391 N 0.67953 0.2667 0.88633 0.0
C392 C 0.60598 0.28146 1.00492 0.0
C393 C 0.6595 0.26993 0.92677 0.0
N394 N 0.63872 0.3531 0.01727 0.0
N395 N 0.64347 0.19289 0.92475 0.0
H396 H 0.69615 0.29262 0.8729 0.0
H397 H 0.67657 0.23956 0.86478 0.0
H398 H 0.62644 0.1659 0.93563 0.0
H399 H 0.66728 0.18524 0.89948 0.0
H400 H 0.62538 0.35709 0.04874 0.0
H401 H 0.65965 0.37887 1.00909 0.0
H402 H 0.56621 0.31849 0.05329 0.0
H403 H 0.55441 0.26325 0.05023 0.0
C404 C 0.98986 0.72139 0.56662 0.0
C405 C 0.98527 0.69337 0.52877 0.0
C406 C 0.99547 0.75422 0.48302 0.0
C407 C 1.00111 0.78201 0.52082 0.0
N408 N 0.01583 0.79102 0.59761 0.0
N409 N 0.99608 0.68034 0.45156 0.0
C410 C 1.0023 0.76519 0.56237 0.0
C411 C 0.99198 0.70897 0.48708 0.0
N412 N 0.97964 0.70698 0.60639 0.0
N413 N 0.99158 0.7712 0.44352 0.0
H414 H 0.99492 0.64681 0.45357 0.0
H415 H 1.00526 0.68941 0.42085 0.0
H416 H 0.99469 0.80423 0.43926 0.0
H417 H 0.98189 0.75306 0.41548 0.0
H418 H 0.9769 0.72737 0.6345 0.0
H419 H 0.97024 0.67512 0.61098 0.0
H420 H 0.02197 0.7794 0.62792 0.0
H421 H 0.02524 0.82335 0.59568 0.0
C422 C 0.48243 0.74821 0.63084 0.0
C423 C 0.495 0.75927 0.67442 0.0
C424 C 0.54416 0.69318 0.67423 0.0
C425 C 0.52579 0.67837 0.6331 0.0
N426 N 0.47141 0.69143 0.57455 0.0
N427 N 0.53408 0.74036 0.73958 0.0
C428 C 0.49372 0.70598 0.61169 0.0
C429 C 0.52464 0.7311 0.69672 0.0
N430 N 0.45952 0.7781 0.60753 0.0
N431 N 0.58228 0.67247 0.69083 0.0
H432 H 0.52208 0.7687 0.75667 0.0
H433 H 0.5508 0.71848 0.75888 0.0
H434 H 0.59987 0.64687 0.67384 0.0
H435 H 0.6 0.68391 0.71864 0.0
H436 H 0.45463 0.77404 0.57418 0.0
H437 H 0.44891 0.80864 0.6208 0.0
H438 H 0.44332 0.70805 0.56115 0.0
H439 H 0.47734 0.66114 0.55883 0.0
C440 C 0.98218 0.96077 0.76442 0.0
C441 C 0.94214 0.93351 0.76422 0.0
C442 C 0.92775 0.94761 0.68792 0.0
C443 C 0.97015 0.97183 0.68689 0.0
N444 N 0.04259 0.99448 0.72271 0.0
N445 N 0.88174 0.89461 0.72374 0.0
C446 C 0.99865 0.97665 0.72479 0.0
C447 C 0.91635 0.92515 0.72534 0.0
N448 N 1.00362 0.97283 0.80275 0.0
N449 N 0.89715 0.94755 0.65383 0.0
H450 H 0.87268 0.87726 0.75027 0.0
H451 H 0.86519 0.88352 0.69521 0.0
H452 H 0.90349 0.96436 0.62634 0.0
H453 H 0.86339 0.93446 0.6545 0.0
H454 H 0.02919 0.99677 0.80586 0.0
H455 H 0.99319 0.96142 0.83224 0.0
H456 H 0.06708 0.99399 0.74772 0.0
H457 H 0.05675 1.00606 0.69465 0.0
C458 C 0.56597 0.1004 0.28192 0.0
C459 C 0.61105 0.11991 0.28653 0.0
C460 C 0.62599 0.10464 0.20849 0.0
C461 C 0.57925 0.08848 0.20327 0.0
N462 N 0.50143 0.07952 0.23399 0.0
N463 N 0.68122 0.14681 0.25332 0.0
C464 C 0.54836 0.08854 0.23976 0.0
C465 C 0.64041 0.12359 0.24957 0.0
N466 N 0.54042 0.09203 0.318 0.0
N467 N 0.65724 0.10065 0.17455 0.0
H468 H 0.69317 0.16091 0.28274 0.0
H469 H 0.70128 0.15513 0.22687 0.0
H470 H 0.64792 0.08777 0.14392 0.0
H471 H 0.69328 0.10689 0.1775 0.0
H472 H 0.50979 0.0736 0.31697 0.0
H473 H 0.55218 0.10004 0.34938 0.0
H474 H 0.47618 0.0838 0.25863 0.0
H475 H 0.48661 0.07192 0.2037 0.0
C476 C 0.54539 0.54926 0.28191 0.0
C477 C 0.56102 0.58789 0.26445 0.0
C478 C 0.56811 0.62281 0.33753 0.0
C479 C 0.55029 0.58494 0.35483 0.0
N480 N 0.51155 0.51616 0.3436 0.0
N481 N 0.57528 0.66471 0.27455 0.0
C482 C 0.53556 0.54942 0.32698 0.0
C483 C 0.56883 0.6257 0.29195 0.0
N484 N 0.54232 0.51183 0.25598 0.0
N485 N 0.58617 0.65529 0.36444 0.0
H486 H 0.57481 0.66837 0.24129 0.0
H487 H 0.57627 0.69406 0.29309 0.0
H488 H 0.58606 0.65459 0.39808 0.0
H489 H 0.60461 0.68131 0.3533 0.0
H490 H 0.53621 0.48168 0.26787 0.0
H491 H 0.55001 0.51008 0.22292 0.0
H492 H 0.49575 0.49149 0.32443 0.0
H493 H 0.50348 0.51544 0.37649 0.0
C494 C 0.16303 0.46538 0.75191 0.0
C495 C 0.1499 0.49875 0.7245 0.0
C496 C 0.1076 0.53728 0.78506 0.0
C497 C 0.12476 0.50627 0.81312 0.0
N498 N 0.17773 0.44644 0.82528 0.0
N499 N 0.12028 0.5718 0.71829 0.0
C500 C 0.15525 0.47203 0.79718 0.0
C501 C 0.12519 0.53629 0.74201 0.0
N502 N 0.18043 0.42635 0.73491 0.0
N503 N 0.07348 0.56689 0.79906 0.0
H504 H 0.13492 0.57332 0.68742 0.0
H505 H 0.10644 0.60139 0.7311 0.0
H506 H 0.05901 0.56822 0.83022 0.0
H507 H 0.05634 0.58729 0.7785 0.0
H508 H 0.18546 0.39968 0.75332 0.0
H509 H 0.18532 0.41876 0.70194 0.0
H510 H 0.20436 0.42408 0.81563 0.0
H511 H 0.17312 0.4504 0.85878 0.0
C512 C 0.73673 0.9966 1.00331 0.0
C513 C 0.7315 0.96196 0.97131 0.0
C514 C 0.64952 0.95195 0.99529 0.0
C515 C 0.65471 0.98676 0.0274 0.0
N516 N 0.70632 0.03402 0.06937 0.0
N517 N 0.68756 0.90015 0.94321 0.0
C518 C 0.69938 1.00657 0.03362 0.0
C519 C 0.68951 0.93727 0.96971 0.0
N520 N 0.77715 0.02048 1.0042 0.0
N521 N 0.6058 0.93494 0.98684 0.0
H522 H 0.71545 0.88932 0.92284 0.0
H523 H 0.66003 0.87816 0.94409 0.0
H524 H 0.5753 0.9445 1.00421 0.0
H525 H 0.59874 0.9137 0.96019 0.0
H526 H 0.78086 0.04943 0.02301 0.0
H527 H 0.80643 0.01241 0.98438 0.0
H528 H 0.73904 0.04688 0.07814 0.0
H529 H 0.68001 0.04027 0.09279 0.0
C530 C 0.81305 0.08093 0.52136 0.0
C531 C 0.81256 0.0875 0.47624 0.0
C532 C 0.89664 0.06591 0.47116 0.0
C533 C 0.89573 0.05505 0.51496 0.0
N534 N 0.85151 0.04663 0.58051 0.0
N535 N 0.85144 0.07728 0.40655 0.0
C536 C 0.85337 0.06078 0.53966 0.0
C537 C 0.85369 0.0774 0.45065 0.0
N538 N 0.77632 0.09622 0.54734 0.0
N539 N 0.93895 0.06734 0.44967 0.0
H540 H 0.82034 0.08418 0.39016 0.0
H541 H 0.87905 0.06599 0.38612 0.0
H542 H 0.97123 0.06099 0.46433 0.0
H543 H 0.94244 0.07921 0.41912 0.0
H544 H 0.77701 0.09652 0.581 0.0
H545 H 0.74689 0.1125 0.5358 0.0
H546 H 0.82022 0.04531 0.59836 0.0
H547 H 0.88075 0.03298 0.59528 0.0
C548 C 0.25507 0.63277 0.05527 0.0
C549 C 0.279 0.6167 0.09117 0.0
C550 C 0.2102 0.57316 0.10778 0.0
C551 C 0.18529 0.5911 0.07332 0.0
N552 N 0.17999 0.64393 0.0196 0.0
N553 N 0.27783 0.57723 0.15577 0.0
C554 C 0.20662 0.62256 0.04846 0.0
C555 C 0.25596 0.58879 0.11887 0.0
N556 N 0.27884 0.65737 0.02738 0.0
N557 N 0.19123 0.53956 0.12835 0.0
H558 H 0.31212 0.58658 0.16411 0.0
H559 H 0.26082 0.56109 0.17977 0.0
H560 H 0.15798 0.52687 0.12106 0.0
H561 H 0.20993 0.52171 0.15015 0.0
H562 H 0.26521 0.66566 0.99781 0.0
H563 H 0.31362 0.66738 0.03251 0.0
H564 H 0.19202 0.67038 1.00378 0.0
H565 H 0.14418 0.6378 0.01422 0.0
C566 C 0.33186 0.48851 0.58788 0.0
C567 C 0.30359 0.52433 0.57615 0.0
C568 C 0.37437 0.56923 0.57749 0.0
C569 C 0.40302 0.53206 0.58316 0.0
N570 N 0.40946 0.45432 0.58396 0.0
N571 N 0.30048 0.59637 0.55012 0.0
C572 C 0.38191 0.49106 0.58552 0.0
C573 C 0.32553 0.5641 0.56819 0.0
N574 N 0.31137 0.45293 0.60354 0.0
N575 N 0.39331 0.60958 0.5828 0.0
H576 H 0.26526 0.59315 0.54059 0.0
H577 H 0.31621 0.62436 0.54017 0.0
H578 H 0.4283 0.61435 0.59235 0.0
H579 H 0.37304 0.63803 0.58276 0.0
H580 H 0.33094 0.42797 0.61627 0.0
H581 H 0.27507 0.45055 0.60861 0.0
H582 H 0.39553 0.42322 0.58137 0.0
H583 H 0.44616 0.45502 0.58047 0.0
C584 C 0.94746 0.70505 0.94876 0.0
C585 C 0.97422 0.74372 0.95253 0.0
C586 C 0.02808 0.70821 1.00248 0.0
C587 C 1.00482 0.6682 0.99355 0.0
N588 N 0.9497 0.62705 0.94796 0.0
N589 N 0.04637 0.77858 0.97688 0.0
C590 C 0.96695 0.66611 0.96344 0.0
C591 C 0.01618 0.74454 0.97803 0.0
N592 N 0.90207 0.70566 0.9336 0.0
N593 N 0.06222 0.71139 0.03359 0.0
H594 H 0.04073 0.8044 0.95747 0.0
H595 H 0.07956 0.77898 0.99143 0.0
H596 H 0.07327 0.68511 0.05065 0.0
H597 H 0.07693 0.74076 0.04468 0.0
H598 H 0.8799 0.67901 0.93408 0.0
H599 H 0.88443 0.73398 0.92601 0.0
H600 H 0.92546 0.62414 0.92267 0.0
H601 H 0.96242 0.59738 0.95741 0.0
C602 C 0.51281 0.74896 0.08327 0.0
C603 C 0.50661 0.7278 0.12204 0.0
C604 C 0.47794 0.79586 0.15916 0.0
C605 C 0.49088 0.81797 0.12237 0.0
N606 N 0.52385 0.81686 0.0501 0.0
N607 N 0.48674 0.73092 0.19823 0.0
C608 C 0.50876 0.79484 0.08439 0.0
C609 C 0.48942 0.75102 0.16028 0.0
N610 N 0.52162 0.725 0.04524 0.0
N611 N 0.45456 0.81783 0.19286 0.0
H612 H 0.49473 0.69813 0.20055 0.0
H613 H 0.47989 0.7473 0.22816 0.0
H614 H 0.44617 0.85083 0.193 0.0
H615 H 0.43991 0.8028 0.21881 0.0
H616 H 0.5218 0.73806 0.0151 0.0
H617 H 0.52432 0.69122 0.04336 0.0
H618 H 0.54256 0.80227 0.02378 0.0
H619 H 0.52058 0.85042 0.04911 0.0
C620 C 0.07476 0.3086 0.58752 0.0
C621 C 0.10212 0.32605 0.62258 0.0
C622 C 0.08995 0.26061 0.66141 0.0
C623 C 0.06827 0.24108 0.6241 0.0
N624 N 0.04255 0.24427 0.55015 0.0
N625 N 0.14174 0.31679 0.69041 0.0
C626 C 0.06099 0.26456 0.58678 0.0
C627 C 0.11092 0.30178 0.65916 0.0
N628 N 0.061 0.33445 0.55556 0.0
N629 N 0.09048 0.23965 0.69892 0.0
H630 H 0.15934 0.34603 0.68914 0.0
H631 H 0.15342 0.29851 0.71543 0.0
H632 H 0.07576 0.20913 0.70133 0.0
H633 H 0.10149 0.25404 0.72848 0.0
H634 H 0.03697 0.32493 0.53148 0.0
H635 H 0.07051 0.3669 0.55516 0.0
H636 H 0.0418 0.25796 0.52033 0.0
H637 H 0.0305 0.21248 0.54883 0.0
C638 C 0.55055 0.33528 0.53163 0.0
C639 C 0.57898 0.33076 0.49348 0.0
C640 C 0.60725 0.40471 0.50881 0.0
C641 C 0.5726 0.41207 0.54199 0.0
N642 N 0.51021 0.38356 0.58527 0.0
N643 N 0.62997 0.36386 0.44248 0.0
C644 C 0.54426 0.377 0.55389 0.0
C645 C 0.60646 0.36608 0.48132 0.0
N646 N 0.53079 0.29938 0.54739 0.0
N647 N 0.64238 0.43404 0.50483 0.0
H648 H 0.62962 0.33669 0.42064 0.0
H649 H 0.64616 0.39053 0.43013 0.0
H650 H 0.64572 0.46078 0.52686 0.0
H651 H 0.67112 0.4289 0.48372 0.0
H652 H 0.51384 0.29959 0.57737 0.0
H653 H 0.53534 0.26835 0.53238 0.0
H654 H 0.48419 0.36105 0.59097 0.0
H655 H 0.50619 0.41237 0.60435 0.0
loop_
_geom_bond_atom_site_label_1
_geom_bond_atom_site_label_2
_geom_bond_distance
_geom_bond_site_symmetry_2
_ccdc_geom_bond_type
O0 Cd1 2.300 . S
O0 C7 1.275 . S
Cd1 O0 2.300 . S
Cd1 O9 2.381 . S
Cd1 O10 2.378 . S
O2 Cd3 2.385 . S
O2 C7 1.255 . S
Cd3 O2 2.385 . S
Cd3 O4 2.317 . S
O4 Cd3 2.317 . S
O4 C5 1.232 . S
C5 O4 1.232 . S
C5 O6 1.218 . S
O6 C5 1.218 . S
C7 O0 1.275 . S
C7 O2 1.255 . S
C8 O9 1.258 . S
C8 O10 1.256 . S
O9 Cd1 2.381 . S
O9 C8 1.258 . S
O10 Cd1 2.378 . S
O10 C8 1.256 . S
O11 Cd12 2.300 . S
O11 C18 1.275 . S
Cd12 O11 2.300 . S
Cd12 O20 2.381 . S
Cd12 O21 2.378 . S
O13 Cd14 2.385 . S
O13 C18 1.255 . S
Cd14 O13 2.385 . S
Cd14 O15 2.317 . S
O15 Cd14 2.317 . S
O15 C16 1.232 . S
C16 O15 1.232 . S
C16 O17 1.218 . S
O17 C16 1.218 . S
C18 O11 1.275 . S
C18 O13 1.255 . S
C19 O20 1.258 . S
C19 O21 1.256 . S
O20 Cd12 2.381 . S
O20 C19 1.258 . S
O21 Cd12 2.378 . S
O21 C19 1.256 . S
O22 Cd23 2.300 . S
O22 C29 1.275 . S
Cd23 O22 2.300 . S
Cd23 O31 2.381 . S
Cd23 O32 2.378 . S
O24 Cd25 2.385 . S
O24 C29 1.255 . S
Cd25 O24 2.385 . S
Cd25 O26 2.317 . S
O26 Cd25 2.317 . S
O26 C27 1.232 1_556 S
C27 O26 1.232 1_554 S
C27 O28 1.218 . S
O28 C27 1.218 . S
C29 O22 1.275 . S
C29 O24 1.255 . S
C30 O31 1.258 . S
C30 O32 1.256 . S
O31 Cd23 2.381 . S
O31 C30 1.258 . S
O32 Cd23 2.378 . S
O32 C30 1.256 . S
O33 Cd34 2.300 . S
O33 C40 1.275 . S
Cd34 O33 2.300 . S
Cd34 O42 2.381 . S
Cd34 O43 2.378 . S
O35 Cd36 2.385 . S
O35 C40 1.255 . S
Cd36 O35 2.385 . S
Cd36 O37 2.317 . S
O37 Cd36 2.317 . S
O37 C38 1.232 . S
C38 O37 1.232 . S
C38 O39 1.218 . S
O39 C38 1.218 . S
C40 O33 1.275 . S
C40 O35 1.255 . S
C41 O42 1.258 . S
C41 O43 1.256 . S
O42 Cd34 2.381 . S
O42 C41 1.258 . S
O43 Cd34 2.378 . S
O43 C41 1.256 . S
O44 Cd45 2.300 . S
O44 C51 1.275 . S
Cd45 O44 2.300 . S
Cd45 O53 2.381 . S
Cd45 O54 2.378 . S
O46 Cd47 2.385 . S
O46 C51 1.255 . S
Cd47 O46 2.385 . S
Cd47 O48 2.317 . S
O48 Cd47 2.317 . S
O48 C49 1.232 . S
C49 O48 1.232 . S
C49 O50 1.218 1_565 S
O50 C49 1.218 1_545 S
C51 O44 1.275 . S
C51 O46 1.255 . S
C52 O53 1.258 . S
C52 O54 1.256 . S
O53 Cd45 2.381 . S
O53 C52 1.258 . S
O54 Cd45 2.378 . S
O54 C52 1.256 . S
O55 Cd56 2.300 . S
O55 C62 1.275 . S
Cd56 O55 2.300 . S
Cd56 O64 2.381 . S
Cd56 O65 2.378 . S
O57 Cd58 2.385 . S
O57 C62 1.255 . S
Cd58 O57 2.385 . S
Cd58 O59 2.317 . S
O59 Cd58 2.317 . S
O59 C60 1.232 . S
C60 O59 1.232 . S
C60 O61 1.218 . S
O61 C60 1.218 . S
C62 O55 1.275 . S
C62 O57 1.255 . S
C63 O64 1.258 . S
C63 O65 1.256 . S
O64 Cd56 2.381 . S
O64 C63 1.258 . S
O65 Cd56 2.378 . S
O65 C63 1.256 . S
O66 Cd67 2.300 . S
O66 C73 1.275 . S
Cd67 O66 2.300 . S
Cd67 O75 2.381 . S
Cd67 O76 2.378 . S
O68 Cd69 2.385 . S
O68 C73 1.255 . S
Cd69 O68 2.385 . S
Cd69 O70 2.317 . S
O70 Cd69 2.317 . S
O70 C71 1.232 . S
C71 O70 1.232 . S
C71 O72 1.218 . S
O72 C71 1.218 . S
C73 O66 1.275 . S
C73 O68 1.255 . S
C74 O75 1.258 . S
C74 O76 1.256 . S
O75 Cd67 2.381 . S
O75 C74 1.258 . S
O76 Cd67 2.378 . S
O76 C74 1.256 . S
O77 Cd78 2.300 . S
O77 C84 1.275 . S
Cd78 O77 2.300 . S
Cd78 O86 2.381 . S
Cd78 O87 2.378 . S
O79 Cd80 2.385 . S
O79 C84 1.255 . S
Cd80 O79 2.385 . S
Cd80 O81 2.317 . S
O81 Cd80 2.317 . S
O81 C82 1.232 . S
C82 O81 1.232 . S
C82 O83 1.218 . S
O83 C82 1.218 . S
C84 O77 1.275 . S
C84 O79 1.255 . S
C85 O86 1.258 . S
C85 O87 1.256 . S
O86 Cd78 2.381 . S
O86 C85 1.258 . S
O87 Cd78 2.378 . S
O87 C85 1.256 . S
C88 O104 1.251 . S
C88 O106 1.254 1_545 S
N89 C90 1.333 . S
N89 C94 1.307 . S
N89 Zn95 2.020 . S
C90 N89 1.333 . S
C90 C91 1.379 . S
C90 H108 0.952 . S
C91 C90 1.379 . S
C91 C92 1.390 . S
C91 H118 0.949 . S
C92 C91 1.390 . S
C92 C93 1.357 . S
C93 C92 1.357 . S
C93 C94 1.370 . S
C93 H119 0.950 . S
C94 N89 1.307 . S
C94 C93 1.370 . S
C94 H112 0.948 . S
Zn95 N89 2.020 . S
Zn95 O104 2.039 . S
Zn95 O110 2.034 . S
Zn95 O114 2.025 . S
Zn95 O116 2.024 1_455 S
C96 O115 1.246 . S
C96 O116 1.249 . S
N97 C98 1.307 1_655 S
N97 C99 1.333 . S
N97 Zn103 2.020 1_655 S
C98 N97 1.307 1_455 S
C98 C102 1.370 1_455 S
C98 H109 0.948 . S
C99 N97 1.333 . S
C99 C100 1.379 . S
C99 H107 0.952 . S
C100 C99 1.379 . S
C100 C101 1.390 . S
C100 H120 0.949 . S
C101 C100 1.390 . S
C101 C102 1.357 . S
C102 C98 1.370 1_655 S
C102 C101 1.357 . S
C102 H121 0.950 1_655 S
Zn103 N97 2.020 1_455 S
Zn103 O106 2.025 . S
Zn103 O111 2.024 . S
Zn103 O113 2.039 1_455 S
Zn103 O115 2.034 1_465 S
O104 C88 1.251 . S
O104 Zn95 2.039 . S
C105 O110 1.246 1_565 S
C105 O111 1.249 . S
O106 C88 1.254 1_565 S
O106 Zn103 2.025 . S
H107 C99 0.952 . S
H108 C90 0.952 . S
H109 C98 0.948 . S
O110 Zn95 2.034 . S
O110 C105 1.246 1_545 S
O111 Zn103 2.024 . S
O111 C105 1.249 . S
H112 C94 0.948 . S
O113 Zn103 2.039 1_655 S
O113 C117 1.250 1_565 S
O114 Zn95 2.025 . S
O114 C117 1.254 1_455 S
O115 C96 1.246 . S
O115 Zn103 2.034 1_645 S
O116 Zn95 2.024 1_655 S
O116 C96 1.249 . S
C117 O113 1.250 1_545 S
C117 O114 1.254 1_655 S
H118 C91 0.949 . S
H119 C93 0.950 . S
H120 C100 0.949 . S
H121 C102 0.950 1_455 S
C122 O138 1.251 . S
C122 O140 1.254 1_545 S
N123 C124 1.333 . S
N123 C128 1.307 . S
N123 Zn129 2.020 . S
C124 N123 1.333 . S
C124 C125 1.379 . S
C124 H142 0.952 . S
C125 C124 1.379 . S
C125 C126 1.390 . S
C125 H152 0.949 . S
C126 C125 1.390 . S
C126 C127 1.357 . S
C127 C126 1.357 . S
C127 C128 1.370 . S
C127 H153 0.950 . S
C128 N123 1.307 . S
C128 C127 1.370 . S
C128 H146 0.948 . S
Zn129 N123 2.020 . S
Zn129 O138 2.039 . S
Zn129 O144 2.034 . S
Zn129 O148 2.025 . S
Zn129 O150 2.024 . S
C130 O149 1.246 1_546 S
C130 O150 1.249 1_556 S
N131 C132 1.307 . S
N131 C133 1.333 . S
N131 Zn137 2.020 . S
C132 N131 1.307 . S
C132 C136 1.370 . S
C132 H143 0.948 . S
C133 N131 1.333 . S
C133 C134 1.379 . S
C133 H141 0.952 . S
C134 C133 1.379 . S
C134 C135 1.390 . S
C134 H154 0.949 . S
C135 C134 1.390 . S
C135 C136 1.357 . S
C136 C132 1.370 . S
C136 C135 1.357 . S
C136 H155 0.950 . S
Zn137 N131 2.020 . S
Zn137 O140 2.025 . S
Zn137 O145 2.024 1_565 S
Zn137 O147 2.039 1_565 S
Zn137 O149 2.034 . S
O138 C122 1.251 . S
O138 Zn129 2.039 . S
C139 O144 1.246 . S
C139 O145 1.249 . S
O140 C122 1.254 1_565 S
O140 Zn137 2.025 . S
H141 C133 0.952 . S
H142 C124 0.952 . S
H143 C132 0.948 . S
O144 Zn129 2.034 . S
O144 C139 1.246 . S
O145 Zn137 2.024 1_545 S
O145 C139 1.249 . S
H146 C128 0.948 . S
O147 Zn137 2.039 1_545 S
O147 C151 1.251 . S
O148 Zn129 2.025 . S
O148 C151 1.254 . S
O149 C130 1.246 1_564 S
O149 Zn137 2.034 . S
O150 Zn129 2.024 . S
O150 C130 1.249 1_554 S
C151 O147 1.251 . S
C151 O148 1.254 . S
H152 C125 0.949 . S
H153 C127 0.950 . S
H154 C134 0.949 . S
H155 C136 0.950 . S
C156 O172 1.251 . S
C156 O174 1.254 . S
N157 C158 1.333 . S
N157 C162 1.307 . S
N157 Zn163 2.020 . S
C158 N157 1.333 . S
C158 C159 1.379 . S
C158 H176 0.952 . S
C159 C158 1.379 . S
C159 C160 1.390 . S
C159 H186 0.949 . S
C160 C159 1.390 . S
C160 C161 1.357 . S
C161 C160 1.357 . S
C161 C162 1.370 . S
C161 H187 0.950 . S
C162 N157 1.307 . S
C162 C161 1.370 . S
C162 H180 0.948 . S
Zn163 N157 2.020 . S
Zn163 O172 2.039 . S
Zn163 O178 2.034 . S
Zn163 O182 2.025 . S
Zn163 O184 2.024 . S
C164 O183 1.246 . S
C164 O184 1.249 . S
N165 C166 1.307 . S
N165 C167 1.333 . S
N165 Zn171 2.020 . S
C166 N165 1.307 . S
C166 C170 1.370 . S
C166 H177 0.948 . S
C167 N165 1.333 . S
C167 C168 1.379 . S
C167 H175 0.952 . S
C168 C167 1.379 . S
C168 C169 1.390 . S
C168 H188 0.949 . S
C169 C168 1.390 . S
C169 C170 1.357 . S
C170 C166 1.370 . S
C170 C169 1.357 . S
C170 H189 0.950 . S
Zn171 N165 2.020 . S
Zn171 O174 2.025 . S
Zn171 O179 2.024 . S
Zn171 O181 2.039 . S
Zn171 O183 2.034 . S
O172 C156 1.251 . S
O172 Zn163 2.039 . S
C173 O178 1.246 . S
C173 O179 1.249 . S
O174 C156 1.254 . S
O174 Zn171 2.025 . S
H175 C167 0.952 . S
H176 C158 0.952 . S
H177 C166 0.948 . S
O178 Zn163 2.034 . S
O178 C173 1.246 . S
O179 Zn171 2.024 . S
O179 C173 1.249 . S
H180 C162 0.948 . S
O181 Zn171 2.039 . S
O181 C185 1.251 . S
O182 Zn163 2.025 . S
O182 C185 1.254 . S
O183 C164 1.246 . S
O183 Zn171 2.034 . S
O184 Zn163 2.024 . S
O184 C164 1.249 . S
C185 O181 1.251 . S
C185 O182 1.254 . S
H186 C159 0.949 . S
H187 C161 0.950 . S
H188 C168 0.949 . S
H189 C170 0.950 . S
C190 O206 1.251 . S
C190 O208 1.254 1_554 S
N191 C192 1.333 . S
N191 C196 1.307 1_455 S
N191 Zn197 2.020 . S
C192 N191 1.333 . S
C192 C193 1.379 1_455 S
C192 H210 0.952 . S
C193 C192 1.379 1_655 S
C193 C194 1.390 . S
C193 H220 0.949 . S
C194 C193 1.390 . S
C194 C195 1.357 . S
C195 C194 1.357 . S
C195 C196 1.370 . S
C195 H221 0.950 . S
C196 N191 1.307 1_655 S
C196 C195 1.370 . S
C196 H214 0.948 . S
Zn197 N191 2.020 . S
Zn197 O206 2.039 . S
Zn197 O212 2.034 . S
Zn197 O216 2.025 . S
Zn197 O218 2.024 1_455 S
C198 O217 1.246 1_554 S
C198 O218 1.249 . S
N199 C200 1.307 . S
N199 C201 1.333 . S
N199 Zn205 2.020 . S
C200 N199 1.307 . S
C200 C204 1.370 . S
C200 H211 0.948 . S
C201 N199 1.333 . S
C201 C202 1.379 . S
C201 H209 0.952 . S
C202 C201 1.379 . S
C202 C203 1.390 . S
C202 H222 0.949 . S
C203 C202 1.390 . S
C203 C204 1.357 . S
C204 C200 1.370 . S
C204 C203 1.357 . S
C204 H223 0.950 . S
Zn205 N199 2.020 . S
Zn205 O208 2.025 . S
Zn205 O213 2.024 1_556 S
Zn205 O215 2.039 1_556 S
Zn205 O217 2.034 1_455 S
O206 C190 1.251 . S
O206 Zn197 2.039 . S
C207 O212 1.246 . S
C207 O213 1.249 . S
O208 C190 1.254 1_556 S
O208 Zn205 2.025 . S
H209 C201 0.952 . S
H210 C192 0.952 . S
H211 C200 0.948 . S
O212 Zn197 2.034 . S
O212 C207 1.246 . S
O213 Zn205 2.024 1_554 S
O213 C207 1.249 . S
H214 C196 0.948 . S
O215 Zn205 2.039 1_554 S
O215 C219 1.251 . S
O216 Zn197 2.025 . S
O216 C219 1.254 . S
O217 C198 1.246 1_556 S
O217 Zn205 2.034 1_655 S
O218 Zn197 2.024 1_655 S
O218 C198 1.249 . S
C219 O215 1.251 . S
C219 O216 1.254 . S
H220 C193 0.949 . S
H221 C195 0.950 . S
H222 C202 0.949 . S
H223 C204 0.950 . S
C224 C225 1.363 . S
C224 C230 1.379 . S
C224 N232 1.356 . S
C225 C224 1.363 . S
C225 C231 1.363 . S
C226 C227 1.363 . S
C226 C231 1.379 . S
C226 N233 1.356 1_545 S
C227 C226 1.363 . S
C227 C230 1.363 . S
N228 C230 1.356 . S
N228 H240 0.984 . S
N228 H241 0.985 . S
N229 C231 1.356 . S
N229 H234 0.984 . S
N229 H235 0.985 1_545 S
C230 C224 1.379 . S
C230 C227 1.363 . S
C230 N228 1.356 . S
C231 C225 1.363 . S
C231 C226 1.379 . S
C231 N229 1.356 . S
N232 C224 1.356 . S
N232 H238 0.984 . S
N232 H239 0.984 . S
N233 C226 1.356 1_565 S
N233 H236 0.984 . S
N233 H237 0.985 . S
H234 N229 0.984 . S
H235 N229 0.985 1_565 S
H236 N233 0.984 . S
H237 N233 0.985 . S
H238 N232 0.984 . S
H239 N232 0.984 . S
H240 N228 0.984 . S
H241 N228 0.985 . S
C242 C243 1.363 . S
C242 C248 1.379 . S
C242 N250 1.356 . S
C243 C242 1.363 . S
C243 C249 1.363 1_565 S
C244 C245 1.363 1_545 S
C244 C249 1.379 . S
C244 N251 1.356 . S
C245 C244 1.363 1_565 S
C245 C248 1.363 . S
N246 C248 1.356 . S
N246 H258 0.984 . S
N246 H259 0.985 . S
N247 C249 1.356 . S
N247 H252 0.984 . S
N247 H253 0.985 . S
C248 C242 1.379 . S
C248 C245 1.363 . S
C248 N246 1.356 . S
C249 C243 1.363 1_545 S
C249 C244 1.379 . S
C249 N247 1.356 . S
N250 C242 1.356 . S
N250 H256 0.984 . S
N250 H257 0.984 . S
N251 C244 1.356 . S
N251 H254 0.984 . S
N251 H255 0.985 . S
H252 N247 0.984 . S
H253 N247 0.985 . S
H254 N251 0.984 . S
H255 N251 0.985 . S
H256 N250 0.984 . S
H257 N250 0.984 . S
H258 N246 0.984 . S
H259 N246 0.985 . S
C260 C261 1.363 . S
C260 C266 1.379 . S
C260 N268 1.356 . S
C261 C260 1.363 . S
C261 C267 1.363 . S
C262 C263 1.363 . S
C262 C267 1.379 . S
C262 N269 1.356 . S
C263 C262 1.363 . S
C263 C266 1.363 . S
N264 C266 1.356 . S
N264 H276 0.984 . S
N264 H277 0.985 . S
N265 C267 1.356 . S
N265 H270 0.984 . S
N265 H271 0.985 . S
C266 C260 1.379 . S
C266 C263 1.363 . S
C266 N264 1.356 . S
C267 C261 1.363 . S
C267 C262 1.379 . S
C267 N265 1.356 . S
N268 C260 1.356 . S
N268 H274 0.984 . S
N268 H275 0.984 . S
N269 C262 1.356 . S
N269 H272 0.984 . S
N269 H273 0.985 . S
H270 N265 0.984 . S
H271 N265 0.985 . S
H272 N269 0.984 . S
H273 N269 0.985 . S
H274 N268 0.984 . S
H275 N268 0.984 . S
H276 N264 0.984 . S
H277 N264 0.985 . S
C278 C279 1.363 . S
C278 C284 1.379 . S
C278 N286 1.356 1_655 S
C279 C278 1.363 . S
C279 C285 1.363 . S
C280 C281 1.363 . S
C280 C285 1.379 . S
C280 N287 1.356 . S
C281 C280 1.363 . S
C281 C284 1.363 . S
N282 C284 1.356 1_455 S
N282 H294 0.984 . S
N282 H295 0.984 1_455 S
N283 C285 1.356 . S
N283 H288 0.984 . S
N283 H289 0.985 . S
C284 C278 1.379 . S
C284 C281 1.363 . S
C284 N282 1.356 1_655 S
C285 C279 1.363 . S
C285 C280 1.379 . S
C285 N283 1.356 . S
N286 C278 1.356 1_455 S
N286 H292 0.984 . S
N286 H293 0.984 . S
N287 C280 1.356 . S
N287 H290 0.984 . S
N287 H291 0.985 . S
H288 N283 0.984 . S
H289 N283 0.985 . S
H290 N287 0.984 . S
H291 N287 0.985 . S
H292 N286 0.984 . S
H293 N286 0.984 . S
H294 N282 0.984 . S
H295 N282 0.984 1_655 S
C296 C297 1.363 . S
C296 C302 1.379 . S
C296 N304 1.356 . S
C297 C296 1.363 . S
C297 C303 1.363 . S
C298 C299 1.363 . S
C298 C303 1.379 . S
C298 N305 1.356 . S
C299 C298 1.363 . S
C299 C302 1.363 . S
N300 C302 1.356 . S
N300 H312 0.984 . S
N300 H313 0.985 . S
N301 C303 1.356 . S
N301 H306 0.984 . S
N301 H307 0.985 . S
C302 C296 1.379 . S
C302 C299 1.363 . S
C302 N300 1.356 . S
C303 C297 1.363 . S
C303 C298 1.379 . S
C303 N301 1.356 . S
N304 C296 1.356 . S
N304 H310 0.984 . S
N304 H311 0.984 . S
N305 C298 1.356 . S
N305 H308 0.984 . S
N305 H309 0.985 1_545 S
H306 N301 0.984 . S
H307 N301 0.985 . S
H308 N305 0.984 . S
H309 N305 0.985 1_565 S
H310 N304 0.984 . S
H311 N304 0.984 . S
H312 N300 0.984 . S
H313 N300 0.985 . S
C314 C315 1.363 . S
C314 C320 1.379 . S
C314 N322 1.356 . S
C315 C314 1.363 . S
C315 C321 1.363 1_565 S
C316 C317 1.363 1_545 S
C316 C321 1.379 . S
C316 N323 1.356 . S
C317 C316 1.363 1_565 S
C317 C320 1.363 . S
N318 C320 1.356 . S
N318 H330 0.984 . S
N318 H331 0.985 . S
N319 C321 1.356 . S
N319 H324 0.984 . S
N319 H325 0.985 . S
C320 C314 1.379 . S
C320 C317 1.363 . S
C320 N318 1.356 . S
C321 C315 1.363 1_545 S
C321 C316 1.379 . S
C321 N319 1.356 . S
N322 C314 1.356 . S
N322 H328 0.984 . S
N322 H329 0.984 . S
N323 C316 1.356 . S
N323 H326 0.984 . S
N323 H327 0.985 . S
H324 N319 0.984 . S
H325 N319 0.985 . S
H326 N323 0.984 . S
H327 N323 0.985 . S
H328 N322 0.984 . S
H329 N322 0.984 . S
H330 N318 0.984 . S
H331 N318 0.985 . S
C332 C333 1.363 1_556 S
C332 C338 1.379 . S
C332 N340 1.356 . S
C333 C332 1.363 1_554 S
C333 C339 1.363 . S
C334 C335 1.363 1_554 S
C334 C339 1.379 . S
C334 N341 1.356 . S
C335 C334 1.363 1_556 S
C335 C338 1.363 . S
N336 C338 1.356 . S
N336 H348 0.984 . S
N336 H349 0.985 . S
N337 C339 1.356 . S
N337 H342 0.984 . S
N337 H343 0.985 . S
C338 C332 1.379 . S
C338 C335 1.363 . S
C338 N336 1.356 . S
C339 C333 1.363 . S
C339 C334 1.379 . S
C339 N337 1.356 . S
N340 C332 1.356 . S
N340 H346 0.984 . S
N340 H347 0.984 . S
N341 C334 1.356 . S
N341 H344 0.984 . S
N341 H345 0.985 . S
H342 N337 0.984 . S
H343 N337 0.985 . S
H344 N341 0.984 . S
H345 N341 0.985 . S
H346 N340 0.984 . S
H347 N340 0.984 . S
H348 N336 0.984 . S
H349 N336 0.985 . S
C350 C351 1.363 . S
C350 C356 1.379 . S
C350 N358 1.356 . S
C351 C350 1.363 . S
C351 C357 1.363 . S
C352 C353 1.363 . S
C352 C357 1.379 . S
C352 N359 1.356 . S
C353 C352 1.363 . S
C353 C356 1.363 . S
N354 C356 1.356 . S
N354 H366 0.984 . S
N354 H367 0.985 . S
N355 C357 1.356 . S
N355 H360 0.984 . S
N355 H361 0.985 . S
C356 C350 1.379 . S
C356 C353 1.363 . S
C356 N354 1.356 . S
C357 C351 1.363 . S
C357 C352 1.379 . S
C357 N355 1.356 . S
N358 C350 1.356 . S
N358 H364 0.984 . S
N358 H365 0.984 . S
N359 C352 1.356 . S
N359 H362 0.984 . S
N359 H363 0.985 . S
H360 N355 0.984 . S
H361 N355 0.985 . S
H362 N359 0.984 . S
H363 N359 0.985 . S
H364 N358 0.984 . S
H365 N358 0.984 . S
H366 N354 0.984 . S
H367 N354 0.985 . S
C368 C369 1.363 . S
C368 C374 1.379 . S
C368 N376 1.356 . S
C369 C368 1.363 . S
C369 C375 1.363 . S
C370 C371 1.363 . S
C370 C375 1.379 . S
C370 N377 1.356 . S
C371 C370 1.363 . S
C371 C374 1.363 . S
N372 C374 1.356 . S
N372 H384 0.984 . S
N372 H385 0.985 . S
N373 C375 1.356 . S
N373 H378 0.984 . S
N373 H379 0.985 . S
C374 C368 1.379 . S
C374 C371 1.363 . S
C374 N372 1.356 . S
C375 C369 1.363 . S
C375 C370 1.379 . S
C375 N373 1.356 . S
N376 C368 1.356 . S
N376 H382 0.984 . S
N376 H383 0.984 . S
N377 C370 1.356 . S
N377 H380 0.984 . S
N377 H381 0.985 1_554 S
H378 N373 0.984 . S
H379 N373 0.985 . S
H380 N377 0.984 . S
H381 N377 0.985 1_556 S
H382 N376 0.984 . S
H383 N376 0.984 . S
H384 N372 0.984 . S
H385 N372 0.985 . S
C386 C387 1.363 . S
C386 C392 1.379 . S
C386 N394 1.356 . S
C387 C386 1.363 . S
C387 C393 1.363 . S
C388 C389 1.363 1_556 S
C388 C393 1.379 1_556 S
C388 N395 1.356 . S
C389 C388 1.363 1_554 S
C389 C392 1.363 . S
N390 C392 1.356 . S
N390 H402 0.984 . S
N390 H403 0.985 . S
N391 C393 1.356 1_556 S
N391 H396 0.984 . S
N391 H397 0.985 . S
C392 C386 1.379 . S
C392 C389 1.363 . S
C392 N390 1.356 . S
C393 C387 1.363 . S
C393 C388 1.379 1_554 S
C393 N391 1.356 1_554 S
N394 C386 1.356 . S
N394 H400 0.984 . S
N394 H401 0.984 . S
N395 C388 1.356 . S
N395 H398 0.984 . S
N395 H399 0.985 . S
H396 N391 0.984 . S
H397 N391 0.985 . S
H398 N395 0.984 . S
H399 N395 0.985 . S
H400 N394 0.984 . S
H401 N394 0.984 . S
H402 N390 0.984 . S
H403 N390 0.985 . S
C404 C405 1.363 . S
C404 C410 1.379 . S
C404 N412 1.356 . S
C405 C404 1.363 . S
C405 C411 1.363 . S
C406 C407 1.363 . S
C406 C411 1.379 . S
C406 N413 1.364 . S
C407 C406 1.363 . S
C407 C410 1.363 . S
N408 C410 1.356 . S
N408 H420 0.984 . S
N408 H421 0.985 . S
N409 C411 1.356 . S
N409 H414 0.984 . S
N409 H415 0.985 1_655 S
C410 C404 1.379 . S
C410 C407 1.363 . S
C410 N408 1.356 . S
C411 C405 1.363 . S
C411 C406 1.379 . S
C411 N409 1.356 . S
N412 C404 1.356 . S
N412 H418 0.984 . S
N412 H419 0.984 . S
N413 C406 1.364 . S
N413 H416 0.986 . S
N413 H417 0.976 1_655 S
H414 N409 0.984 . S
H415 N409 0.985 1_455 S
H416 N413 0.986 . S
H417 N413 0.976 1_455 S
H418 N412 0.984 . S
H419 N412 0.984 . S
H420 N408 0.984 . S
H421 N408 0.985 . S
C422 C423 1.363 . S
C422 C428 1.379 . S
C422 N430 1.356 . S
C423 C422 1.363 . S
C423 C429 1.363 . S
C424 C425 1.363 . S
C424 C429 1.379 . S
C424 N431 1.356 . S
C425 C424 1.363 . S
C425 C428 1.363 . S
N426 C428 1.356 . S
N426 H438 0.984 . S
N426 H439 0.985 . S
N427 C429 1.356 . S
N427 H432 0.984 . S
N427 H433 0.985 . S
C428 C422 1.379 . S
C428 C425 1.363 . S
C428 N426 1.356 . S
C429 C423 1.363 . S
C429 C424 1.379 . S
C429 N427 1.356 . S
N430 C422 1.356 . S
N430 H436 0.984 . S
N430 H437 0.984 . S
N431 C424 1.356 . S
N431 H434 0.984 . S
N431 H435 0.985 . S
H432 N427 0.984 . S
H433 N427 0.985 . S
H434 N431 0.984 . S
H435 N431 0.985 . S
H436 N430 0.984 . S
H437 N430 0.984 . S
H438 N426 0.984 . S
H439 N426 0.985 . S
C440 C441 1.363 . S
C440 C446 1.379 . S
C440 N448 1.356 . S
C441 C440 1.363 . S
C441 C447 1.363 . S
C442 C443 1.363 . S
C442 C447 1.379 . S
C442 N449 1.356 . S
C443 C442 1.363 . S
C443 C446 1.363 . S
N444 C446 1.356 1_445 S
N444 H456 0.984 . S
N444 H457 0.985 . S
N445 C447 1.356 . S
N445 H450 0.984 . S
N445 H451 0.985 . S
C446 C440 1.379 . S
C446 C443 1.363 . S
C446 N444 1.356 1_665 S
C447 C441 1.363 . S
C447 C442 1.379 . S
C447 N445 1.356 . S
N448 C440 1.356 . S
N448 H454 0.984 1_665 S
N448 H455 0.984 . S
N449 C442 1.356 . S
N449 H452 0.984 . S
N449 H453 0.985 . S
H450 N445 0.984 . S
H451 N445 0.985 . S
H452 N449 0.984 . S
H453 N449 0.985 . S
H454 N448 0.984 1_445 S
H455 N448 0.984 . S
H456 N444 0.984 . S
H457 N444 0.985 . S
C458 C459 1.363 . S
C458 C464 1.379 . S
C458 N466 1.356 . S
C459 C458 1.363 . S
C459 C465 1.363 . S
C460 C461 1.363 . S
C460 C465 1.379 . S
C460 N467 1.356 . S
C461 C460 1.363 . S
C461 C464 1.363 . S
N462 C464 1.356 . S
N462 H474 0.984 . S
N462 H475 0.985 . S
N463 C465 1.356 . S
N463 H468 0.984 . S
N463 H469 0.985 . S
C464 C458 1.379 . S
C464 C461 1.363 . S
C464 N462 1.356 . S
C465 C459 1.363 . S
C465 C460 1.379 . S
C465 N463 1.356 . S
N466 C458 1.356 . S
N466 H472 0.984 . S
N466 H473 0.984 . S
N467 C460 1.356 . S
N467 H470 0.984 . S
N467 H471 0.985 . S
H468 N463 0.984 . S
H469 N463 0.985 . S
H470 N467 0.984 . S
H471 N467 0.985 . S
H472 N466 0.984 . S
H473 N466 0.984 . S
H474 N462 0.984 . S
H475 N462 0.985 . S
C476 C477 1.363 . S
C476 C482 1.379 . S
C476 N484 1.356 . S
C477 C476 1.363 . S
C477 C483 1.363 . S
C478 C479 1.363 . S
C478 C483 1.379 . S
C478 N485 1.356 . S
C479 C478 1.363 . S
C479 C482 1.363 . S
N480 C482 1.356 . S
N480 H492 0.984 . S
N480 H493 0.985 . S
N481 C483 1.356 . S
N481 H486 0.984 . S
N481 H487 0.985 . S
C482 C476 1.379 . S
C482 C479 1.363 . S
C482 N480 1.356 . S
C483 C477 1.363 . S
C483 C478 1.379 . S
C483 N481 1.356 . S
N484 C476 1.356 . S
N484 H490 0.984 . S
N484 H491 0.984 . S
N485 C478 1.356 . S
N485 H488 0.984 . S
N485 H489 0.985 . S
H486 N481 0.984 . S
H487 N481 0.985 . S
H488 N485 0.984 . S
H489 N485 0.985 . S
H490 N484 0.984 . S
H491 N484 0.984 . S
H492 N480 0.984 . S
H493 N480 0.985 . S
C494 C495 1.363 . S
C494 C500 1.379 . S
C494 N502 1.356 . S
C495 C494 1.363 . S
C495 C501 1.363 . S
C496 C497 1.363 . S
C496 C501 1.379 . S
C496 N503 1.356 . S
C497 C496 1.363 . S
C497 C500 1.363 . S
N498 C500 1.356 . S
N498 H510 0.984 . S
N498 H511 0.985 . S
N499 C501 1.356 . S
N499 H504 0.984 . S
N499 H505 0.985 . S
C500 C494 1.379 . S
C500 C497 1.363 . S
C500 N498 1.356 . S
C501 C495 1.363 . S
C501 C496 1.379 . S
C501 N499 1.356 . S
N502 C494 1.356 . S
N502 H508 0.984 . S
N502 H509 0.984 . S
N503 C496 1.356 . S
N503 H506 0.984 . S
N503 H507 0.985 . S
H504 N499 0.984 . S
H505 N499 0.985 . S
H506 N503 0.984 . S
H507 N503 0.985 . S
H508 N502 0.984 . S
H509 N502 0.984 . S
H510 N498 0.984 . S
H511 N498 0.985 . S
C512 C513 1.363 1_544 S
C512 C518 1.379 . S
C512 N520 1.355 1_554 S
C513 C512 1.363 1_566 S
C513 C519 1.363 . S
C514 C515 1.363 1_556 S
C514 C519 1.379 . S
C514 N521 1.356 . S
C515 C514 1.363 1_554 S
C515 C518 1.363 1_565 S
N516 C518 1.356 . S
N516 H528 0.984 . S
N516 H529 0.985 . S
N517 C519 1.356 . S
N517 H522 0.984 . S
N517 H523 0.985 . S
C518 C512 1.379 . S
C518 C515 1.363 1_545 S
C518 N516 1.356 . S
C519 C513 1.363 . S
C519 C514 1.379 . S
C519 N517 1.356 . S
N520 C512 1.355 1_556 S
N520 H526 0.982 1_556 S
N520 H527 0.988 . S
N521 C514 1.356 . S
N521 H524 0.986 1_556 S
N521 H525 0.984 . S
H522 N517 0.984 . S
H523 N517 0.985 . S
H524 N521 0.986 1_554 S
H525 N521 0.984 . S
H526 N520 0.982 1_554 S
H527 N520 0.988 . S
H528 N516 0.984 . S
H529 N516 0.985 . S
C530 C531 1.363 . S
C530 C536 1.379 . S
C530 N538 1.356 . S
C531 C530 1.363 . S
C531 C537 1.363 . S
C532 C533 1.363 . S
C532 C537 1.379 . S
C532 N539 1.356 . S
C533 C532 1.363 . S
C533 C536 1.363 . S
N534 C536 1.356 1_565 S
N534 H546 0.984 . S
N534 H547 0.985 . S
N535 C537 1.356 . S
N535 H540 0.984 . S
N535 H541 0.985 . S
C536 C530 1.379 . S
C536 C533 1.363 . S
C536 N534 1.356 1_545 S
C537 C531 1.363 . S
C537 C532 1.379 . S
C537 N535 1.356 . S
N538 C530 1.356 . S
N538 H544 0.984 1_545 S
N538 H545 0.984 . S
N539 C532 1.356 . S
N539 H542 0.984 . S
N539 H543 0.985 . S
H540 N535 0.984 . S
H541 N535 0.985 . S
H542 N539 0.984 . S
H543 N539 0.985 . S
H544 N538 0.984 1_565 S
H545 N538 0.984 . S
H546 N534 0.984 . S
H547 N534 0.985 . S
C548 C549 1.363 . S
C548 C554 1.379 . S
C548 N556 1.356 . S
C549 C548 1.363 . S
C549 C555 1.363 . S
C550 C551 1.363 . S
C550 C555 1.379 . S
C550 N557 1.356 . S
C551 C550 1.363 . S
C551 C554 1.363 . S
N552 C554 1.356 . S
N552 H564 0.984 1_554 S
N552 H565 0.985 . S
N553 C555 1.356 . S
N553 H558 0.984 . S
N553 H559 0.985 . S
C554 C548 1.379 . S
C554 C551 1.363 . S
C554 N552 1.356 . S
C555 C549 1.363 . S
C555 C550 1.379 . S
C555 N553 1.356 . S
N556 C548 1.356 . S
N556 H562 0.984 1_554 S
N556 H563 0.984 . S
N557 C550 1.356 . S
N557 H560 0.984 . S
N557 H561 0.985 . S
H558 N553 0.984 . S
H559 N553 0.985 . S
H560 N557 0.984 . S
H561 N557 0.985 . S
H562 N556 0.984 1_556 S
H563 N556 0.984 . S
H564 N552 0.984 1_556 S
H565 N552 0.985 . S
C566 C567 1.363 . S
C566 C572 1.379 . S
C566 N574 1.356 . S
C567 C566 1.363 . S
C567 C573 1.363 . S
C568 C569 1.363 . S
C568 C573 1.379 . S
C568 N575 1.356 . S
C569 C568 1.363 . S
C569 C572 1.363 . S
N570 C572 1.356 . S
N570 H582 0.984 . S
N570 H583 0.985 . S
N571 C573 1.356 . S
N571 H576 0.984 . S
N571 H577 0.985 . S
C572 C566 1.379 . S
C572 C569 1.363 . S
C572 N570 1.356 . S
C573 C567 1.363 . S
C573 C568 1.379 . S
C573 N571 1.356 . S
N574 C566 1.356 . S
N574 H580 0.984 . S
N574 H581 0.984 . S
N575 C568 1.356 . S
N575 H578 0.984 . S
N575 H579 0.985 . S
H576 N571 0.984 . S
H577 N571 0.985 . S
H578 N575 0.984 . S
H579 N575 0.985 . S
H580 N574 0.984 . S
H581 N574 0.984 . S
H582 N570 0.984 . S
H583 N570 0.985 . S
C584 C585 1.363 . S
C584 C590 1.379 . S
C584 N592 1.356 . S
C585 C584 1.363 . S
C585 C591 1.366 1_655 S
C586 C587 1.363 1_554 S
C586 C591 1.378 1_554 S
C586 N593 1.356 . S
C587 C586 1.363 1_556 S
C587 C590 1.363 1_455 S
N588 C590 1.356 . S
N588 H600 0.984 . S
N588 H601 0.985 . S
N589 C591 1.355 1_554 S
N589 H594 0.997 . S
N589 H595 0.985 . S
C590 C584 1.379 . S
C590 C587 1.363 1_655 S
C590 N588 1.356 . S
C591 C585 1.366 1_455 S
C591 C586 1.378 1_556 S
C591 N589 1.355 1_556 S
N592 C584 1.356 . S
N592 H598 0.984 . S
N592 H599 0.984 . S
N593 C586 1.356 . S
N593 H596 0.984 . S
N593 H597 0.985 . S
H594 N589 0.997 . S
H595 N589 0.985 . S
H596 N593 0.984 . S
H597 N593 0.985 . S
H598 N592 0.984 . S
H599 N592 0.984 . S
H600 N588 0.984 . S
H601 N588 0.985 . S
C602 C603 1.363 . S
C602 C608 1.379 . S
C602 N610 1.356 . S
C603 C602 1.363 . S
C603 C609 1.363 . S
C604 C605 1.363 . S
C604 C609 1.379 . S
C604 N611 1.356 . S
C605 C604 1.363 . S
C605 C608 1.363 . S
N606 C608 1.356 . S
N606 H618 0.984 . S
N606 H619 0.985 . S
N607 C609 1.356 . S
N607 H612 0.984 . S
N607 H613 0.985 . S
C608 C602 1.379 . S
C608 C605 1.363 . S
C608 N606 1.356 . S
C609 C603 1.363 . S
C609 C604 1.379 . S
C609 N607 1.356 . S
N610 C602 1.356 . S
N610 H616 0.984 . S
N610 H617 0.984 . S
N611 C604 1.356 . S
N611 H614 0.984 . S
N611 H615 0.985 . S
H612 N607 0.984 . S
H613 N607 0.985 . S
H614 N611 0.984 . S
H615 N611 0.985 . S
H616 N610 0.984 . S
H617 N610 0.984 . S
H618 N606 0.984 . S
H619 N606 0.985 . S
C620 C621 1.363 . S
C620 C626 1.379 . S
C620 N628 1.356 . S
C621 C620 1.363 . S
C621 C627 1.363 . S
C622 C623 1.363 . S
C622 C627 1.379 . S
C622 N629 1.356 . S
C623 C622 1.363 . S
C623 C626 1.363 . S
N624 C626 1.356 . S
N624 H636 0.984 . S
N624 H637 0.985 . S
N625 C627 1.356 . S
N625 H630 0.984 . S
N625 H631 0.985 . S
C626 C620 1.379 . S
C626 C623 1.363 . S
C626 N624 1.356 . S
C627 C621 1.363 . S
C627 C622 1.379 . S
C627 N625 1.356 . S
N628 C620 1.356 . S
N628 H634 0.984 . S
N628 H635 0.984 . S
N629 C622 1.356 . S
N629 H632 0.984 . S
N629 H633 0.985 . S
H630 N625 0.984 . S
H631 N625 0.985 . S
H632 N629 0.984 . S
H633 N629 0.985 . S
H634 N628 0.984 . S
H635 N628 0.984 . S
H636 N624 0.984 . S
H637 N624 0.985 . S
C638 C639 1.363 . S
C638 C644 1.379 . S
C638 N646 1.356 . S
C639 C638 1.363 . S
C639 C645 1.363 . S
C640 C641 1.363 . S
C640 C645 1.379 . S
C640 N647 1.356 . S
C641 C640 1.363 . S
C641 C644 1.363 . S
N642 C644 1.356 . S
N642 H654 0.984 . S
N642 H655 0.985 . S
N643 C645 1.356 . S
N643 H648 0.984 . S
N643 H649 0.985 . S
C644 C638 1.379 . S
C644 C641 1.363 . S
C644 N642 1.356 . S
C645 C639 1.363 . S
C645 C640 1.379 . S
C645 N643 1.356 . S
N646 C638 1.356 . S
N646 H652 0.984 . S
N646 H653 0.984 . S
N647 C640 1.356 . S
N647 H650 0.984 . S
N647 H651 0.985 . S
H648 N643 0.984 . S
H649 N643 0.985 . S
H650 N647 0.984 . S
H651 N647 0.985 . S
H652 N646 0.984 . S
H653 N646 0.984 . S
H654 N642 0.984 . S
H655 N642 0.985 . S
C225 C5 2.448 . S
C227 C88 2.595 . S
C243 C18 2.254 . S
C245 C130 2.404 1_565 S
C263 C160 0.928 . S
C261 C30 0.900 . S
C279 C41 0.974 . S
C281 C194 0.961 . S
C299 C151 2.084 . S
C297 C7 2.012 . S
C317 C105 2.121 . S
C315 C16 1.780 . S
C335 C198 1.426 1_556 S
C333 C29 1.235 1_554 S
C353 C164 1.048 . S
C351 C38 1.062 . S
C369 C8 2.255 . S
C371 C219 2.247 . S
C389 C126 1.370 . S
C387 C27 1.124 . S
C405 C40 1.095 . S
C407 C101 1.133 . S
C423 C19 1.815 . S
C425 C185 1.862 . S
C443 C117 2.444 1_565 S
C441 C51 2.393 . S
C459 C62 2.330 . S
C461 C139 2.477 . S
C477 C74 0.966 . S
C479 C169 0.997 . S
C495 C84 1.012 . S
C497 C203 1.044 . S
C513 C49 2.049 . S
C515 C122 2.163 1_565 S
C533 C96 1.854 . S
C531 C63 1.794 . S
C551 C207 1.373 . S
C549 C71 1.066 . S
C569 C173 1.123 . S
C567 C85 1.056 . S
C585 C52 2.237 . S
C587 C190 2.235 1_556 S
C605 C135 1.377 . S
C603 C73 1.196 . S
C623 C92 1.129 . S
C621 C82 0.842 . S
C639 C60 2.005 . S
C641 C156 2.372 . S
