# Generated by pormake.
# Topology zzz, (3,6)-cn, num edge types: 1
# Building blocks:
#     Node 0, Type 0, BuildingBlock: OLANEW_clean_sbu_2, # of connection points: 3
#     Node 1, Type 0, BuildingBlock: OLANEW_clean_sbu_2, # of connection points: 3
#     Node 2, Type 0, BuildingBlock: OLANEW_clean_sbu_2, # of connection points: 3
#     Node 3, Type 0, BuildingBlock: OLANEW_clean_sbu_2, # of connection points: 3
#     Node 4, Type 0, BuildingBlock: OLANEW_clean_sbu_2, # of connection points: 3
#     Node 5, Type 0, BuildingBlock: OLANEW_clean_sbu_2, # of connection points: 3
#     Node 6, Type 0, BuildingBlock: OLANEW_clean_sbu_2, # of connection points: 3
#     Node 7, Type 0, BuildingBlock: OLANEW_clean_sbu_2, # of connection points: 3
#     Node 8, Type 1, BuildingBlock: BETFAJ_clean_sbu_0, # of connection points: 6
#     Node 9, Type 1, BuildingBlock: BETFAJ_clean_sbu_0, # of connection points: 6
#     Node 10, Type 1, BuildingBlock: BETFAJ_clean_sbu_0, # of connection points: 6
#     Node 11, Type 1, BuildingBlock: BETFAJ_clean_sbu_0, # of connection points: 6
#     Edge 12, Type (0, 1), BuildingBlock: EZIPEK_clean_linker_0, # of connection points: 2
#     Edge 13, Type (0, 1), BuildingBlock: EZIPEK_clean_linker_0, # of connection points: 2
#     Edge 14, Type (0, 1), BuildingBlock: EZIPEK_clean_linker_0, # of connection points: 2
#     Edge 15, Type (0, 1), BuildingBlock: EZIPEK_clean_linker_0, # of connection points: 2
#     Edge 16, Type (0, 1), BuildingBlock: EZIPEK_clean_linker_0, # of connection points: 2
#     Edge 17, Type (0, 1), BuildingBlock: EZIPEK_clean_linker_0, # of connection points: 2
#     Edge 18, Type (0, 1), BuildingBlock: EZIPEK_clean_linker_0, # of connection points: 2
#     Edge 19, Type (0, 1), BuildingBlock: EZIPEK_clean_linker_0, # of connection points: 2
#     Edge 20, Type (0, 1), BuildingBlock: EZIPEK_clean_linker_0, # of connection points: 2
#     Edge 21, Type (0, 1), BuildingBlock: EZIPEK_clean_linker_0, # of connection points: 2
#     Edge 22, Type (0, 1), BuildingBlock: EZIPEK_clean_linker_0, # of connection points: 2
#     Edge 23, Type (0, 1), BuildingBlock: EZIPEK_clean_linker_0, # of connection points: 2
#     Edge 24, Type (0, 1), BuildingBlock: EZIPEK_clean_linker_0, # of connection points: 2
#     Edge 25, Type (0, 1), BuildingBlock: EZIPEK_clean_linker_0, # of connection points: 2
#     Edge 26, Type (0, 1), BuildingBlock: EZIPEK_clean_linker_0, # of connection points: 2
#     Edge 27, Type (0, 1), BuildingBlock: EZIPEK_clean_linker_0, # of connection points: 2
#     Edge 28, Type (0, 1), BuildingBlock: EZIPEK_clean_linker_0, # of connection points: 2
#     Edge 29, Type (0, 1), BuildingBlock: EZIPEK_clean_linker_0, # of connection points: 2
#     Edge 30, Type (0, 1), BuildingBlock: EZIPEK_clean_linker_0, # of connection points: 2
#     Edge 31, Type (0, 1), BuildingBlock: EZIPEK_clean_linker_0, # of connection points: 2
#     Edge 32, Type (0, 1), BuildingBlock: EZIPEK_clean_linker_0, # of connection points: 2
#     Edge 33, Type (0, 1), BuildingBlock: EZIPEK_clean_linker_0, # of connection points: 2
#     Edge 34, Type (0, 1), BuildingBlock: EZIPEK_clean_linker_0, # of connection points: 2
#     Edge 35, Type (0, 1), BuildingBlock: EZIPEK_clean_linker_0, # of connection points: 2
# Relax obj value: 0.309
# Max RMSD: 0.210
# Mean RMSD: 0.174
data_MOF--net-zzz--node1-OLANEW_clean_sbu_2--node2-BETFAJ_clean_sbu_0--edge1-EZIPEK_clean_linker_0
_symmetry_space_group_name_H-M    P1
_symmetry_Int_Tables_number       1
_symmetry_cell_setting            triclinic
loop_
_symmetry_equiv_pos_as_xyz
'x, y, z'
_cell_length_a     42.735584
_cell_length_b     42.682203
_cell_length_c     11.548227
_cell_angle_alpha  89.536129
_cell_angle_beta   89.779579
_cell_angle_gamma 90.009359
loop_
_atom_site_label
_atom_site_type_symbol
_atom_site_fract_x
_atom_site_fract_y
_atom_site_fract_z
_atom_type_partial_charge
O0 O 0.75117 0.56973 0.24405 0.0
Cd1 Cd 0.70456 0.60191 0.25595 0.0
O2 O 0.7318 0.53617 0.37067 0.0
Cd3 Cd 0.7405 0.49401 0.47198 0.0
O4 O 0.78342 0.47209 0.52966 0.0
C5 C 0.79588 0.48244 0.62118 0.0
O6 O 0.78082 0.50303 0.68433 0.0
C7 C 0.75371 0.54455 0.30232 0.0
C8 C 0.65778 0.57516 0.1229 0.0
O9 O 0.68008 0.59101 0.07667 0.0
O10 O 0.65738 0.57201 0.23337 0.0
O11 O 0.96656 0.68188 0.28336 0.0
Cd12 Cd 0.96411 0.62969 0.37186 0.0
O13 O 0.97395 0.69507 0.46338 0.0
Cd14 Cd 0.98047 0.73038 0.59386 0.0
O15 O 0.97182 0.77821 0.64199 0.0
C16 C 0.98159 0.79164 0.73228 0.0
O17 O 0.9985 0.77617 0.80832 0.0
C18 C 0.9716 0.70304 0.35748 0.0
C19 C 0.971 0.58313 0.20793 0.0
O20 O 0.99495 0.59654 0.25198 0.0
O21 O 0.94374 0.5914 0.24281 0.0
O22 O 0.7677 0.08307 0.3571 0.0
Cd23 Cd 0.81983 0.07894 0.44209 0.0
O24 O 0.76882 0.0317 0.34702 0.0
Cd25 Cd 0.74189 0.98959 0.31079 0.0
O26 O 0.69235 0.98169 0.34063 0.0
C27 C 0.68396 0.97107 0.43879 0.0
O28 O 0.70534 0.96175 0.51288 0.0
C29 C 0.75447 0.05746 0.33074 0.0
C30 C 0.86004 0.05129 0.28328 0.0
O31 O 0.84314 0.03447 0.35137 0.0
O32 O 0.85854 0.08116 0.29222 0.0
O33 O 0.60266 0.81244 0.18192 0.0
Cd34 Cd 0.60252 0.86835 0.22273 0.0
O35 O 0.55931 0.81039 0.28474 0.0
Cd36 Cd 0.5232 0.77945 0.35463 0.0
O37 O 0.51324 0.73194 0.41388 0.0
C38 C 0.51155 0.7257 0.52131 0.0
O39 O 0.51285 0.74861 0.59647 0.0
C40 C 0.5797 0.79689 0.22226 0.0
C41 C 0.55974 0.89641 0.07419 0.0
O42 O 0.58875 0.89445 0.04667 0.0
O43 O 0.55096 0.88577 0.17316 0.0
O44 O 0.26653 0.48919 0.25023 0.0
Cd45 Cd 0.32066 0.49923 0.19747 0.0
O46 O 0.26609 0.44554 0.15069 0.0
Cd47 Cd 0.23951 0.40782 0.07199 0.0
O48 O 0.19749 0.39737 0.9747 0.0
C49 C 0.17216 0.3982 0.03224 0.0
O50 O 0.17327 0.40042 0.1453 0.0
C51 C 0.25195 0.46545 0.21322 0.0
C52 C 0.35692 0.50944 0.39259 0.0
O53 O 0.33897 0.53085 0.3519 0.0
O54 O 0.35757 0.48291 0.34138 0.0
O55 O 0.92436 0.24651 0.13602 0.0
Cd56 Cd 0.93523 0.30086 0.08611 0.0
O57 O 0.97497 0.24739 0.16677 0.0
Cd58 Cd 0.01618 0.22175 0.22486 0.0
O59 O 0.02743 0.17255 0.20577 0.0
C60 C 0.04401 0.16391 0.12052 0.0
O61 O 0.05716 0.18517 0.05347 0.0
C62 C 0.94901 0.23282 0.17078 0.0
C63 C 0.95486 0.3262 0.29437 0.0
O64 O 0.92656 0.32953 0.26001 0.0
O65 O 0.9743 0.3124 0.22731 0.0
O66 O 0.20773 0.00289 0.20608 0.0
Cd67 Cd 0.15156 0.00367 0.16915 0.0
O68 O 0.21664 0.04524 0.10085 0.0
Cd69 Cd 0.25311 0.07533 0.02878 0.0
O70 O 0.30218 0.0756 0.97821 0.0
C71 C 0.30915 0.06001 0.88862 0.0
O72 O 0.28667 0.04698 0.82839 0.0
C73 C 0.22667 0.02295 0.16417 0.0
C74 C 0.11884 0.99177 0.3737 0.0
O75 O 0.12979 0.9693 0.31283 0.0
O76 O 0.12303 0.01991 0.3372 0.0
O77 O 0.57849 0.25908 0.19832 0.0
Cd78 Cd 0.57184 0.20588 0.12593 0.0
O79 O 0.52714 0.26164 0.19541 0.0
Cd80 Cd 0.48722 0.29293 0.21154 0.0
O81 O 0.48234 0.34237 0.17006 0.0
C82 C 0.47356 0.34988 0.06882 0.0
O83 O 0.46463 0.32791 0.9971 0.0
C84 C 0.55345 0.27455 0.2136 0.0
C85 C 0.55024 0.16473 0.29669 0.0
O86 O 0.57944 0.16635 0.27152 0.0
O87 O 0.53129 0.18264 0.24153 0.0
Sm88 Sm 0.0075 0.96548 0.9802 0.0
Sm89 Sm 0.98289 0.99544 0.75699 0.0
C90 C 0.01688 0.9297 0.16549 0.0
C91 C 0.00759 0.89745 0.19798 0.0
C92 C 0.97781 0.88571 0.1702 0.0
C93 C 0.97015 0.85442 0.19393 0.0
C94 C 0.99208 0.83437 0.24609 0.0
C95 C 0.02175 0.84614 0.27449 0.0
C96 C 0.02943 0.87741 0.25061 0.0
C97 C 0.04922 0.96934 0.79848 0.0
C98 C 0.97009 0.92274 0.79427 0.0
C99 C 0.97619 0.02247 0.55105 0.0
C100 C 0.96884 0.05225 0.49234 0.0
C101 C 0.98511 0.06029 0.39052 0.0
C102 C 0.97921 0.08877 0.33426 0.0
C103 C 0.9568 0.10947 0.37884 0.0
C104 C 0.93984 0.10106 0.47881 0.0
C105 C 0.94592 0.07267 0.53562 0.0
C106 C 0.93983 0.99554 0.93541 0.0
C107 C 0.01848 0.03932 0.95522 0.0
O108 O 0.99468 0.95072 0.1593 0.0
O109 O 0.03702 0.9321 0.08055 0.0
O110 O 0.02096 0.96153 0.79276 0.0
O111 O 0.05724 0.97426 0.9052 0.0
O112 O 0.97365 0.9289 0.90508 0.0
O113 O 0.97891 0.94351 0.71625 0.0
O114 O 0.00306 0.02074 0.60492 0.0
O115 O 0.9534 0.00832 0.60663 0.0
O116 O 0.96873 0.00067 0.94496 0.0
O117 O 0.9326 0.99091 0.82778 0.0
O118 O 0.01006 0.03606 0.84522 0.0
O119 O 0.01665 0.01609 0.03109 0.0
H120 H 0.96062 0.90055 0.12863 0.0
H121 H 0.94718 0.84578 0.17124 0.0
H122 H 0.03906 0.83099 0.31419 0.0
H123 H 0.05265 0.88579 0.27146 0.0
H124 H 0.00271 0.04471 0.35544 0.0
H125 H 0.99256 0.09498 0.25748 0.0
H126 H 0.92256 0.11689 0.51444 0.0
H127 H 0.93305 0.06689 0.61391 0.0
Sm128 Sm 0.51078 0.02538 0.7981 0.0
Sm129 Sm 0.48465 0.00643 0.56187 0.0
C130 C 0.53879 0.02719 0.00275 0.0
C131 C 0.56956 0.03435 0.05255 0.0
C132 C 0.57835 0.02012 0.15744 0.0
C133 C 0.60799 0.02562 0.20398 0.0
C134 C 0.62915 0.04556 0.14633 0.0
C135 C 0.62017 0.06017 0.04218 0.0
C136 C 0.59061 0.05447 0.99519 0.0
C137 C 0.50955 0.07349 0.63781 0.0
C138 C 0.55829 0.9977 0.59385 0.0
C139 C 0.45476 0.00131 0.36217 0.0
C140 C 0.42179 0.00406 0.32801 0.0
C141 C 0.39801 0.00163 0.41188 0.0
C142 C 0.36669 0.00487 0.38011 0.0
C143 C 0.35873 0.01067 0.2642 0.0
C144 C 0.38247 0.01326 0.18023 0.0
C145 C 0.41388 0.00997 0.21207 0.0
C146 C 0.48863 0.95862 0.72489 0.0
C147 C 0.43717 0.03415 0.76042 0.0
O148 O 0.53732 0.00202 0.93933 0.0
O149 O 0.52297 0.05069 0.95907 0.0
O150 O 0.51681 0.04549 0.61711 0.0
O151 O 0.50483 0.07741 0.74776 0.0
O152 O 0.55327 0.00232 0.70577 0.0
O153 O 0.53627 0.00193 0.51569 0.0
O154 O 0.46805 0.02722 0.396 0.0
O155 O 0.46167 0.97733 0.42841 0.0
O156 O 0.47953 0.98628 0.74244 0.0
O157 O 0.49573 0.95563 0.61621 0.0
O158 O 0.44301 0.03162 0.6487 0.0
O159 O 0.45846 0.02786 0.83945 0.0
H160 H 0.56243 0.00444 0.20263 0.0
H161 H 0.61458 0.0141 0.28415 0.0
H162 H 0.63628 0.07549 0.99635 0.0
H163 H 0.58433 0.06545 0.91364 0.0
H164 H 0.40368 0.99729 0.50195 0.0
H165 H 0.34864 0.00296 0.44591 0.0
H166 H 0.37667 0.01794 0.0906 0.0
H167 H 0.43197 0.01222 0.14652 0.0
Sm168 Sm 0.49079 0.5509 0.90562 0.0
Sm169 Sm 0.51295 0.5205 0.67273 0.0
C170 C 0.49065 0.5845 0.09562 0.0
C171 C 0.50814 0.61312 0.12433 0.0
C172 C 0.53911 0.61723 0.08497 0.0
C173 C 0.55462 0.64561 0.10209 0.0
C174 C 0.53932 0.67029 0.15799 0.0
C175 C 0.50866 0.6661 0.19914 0.0
C176 C 0.49313 0.63767 0.18224 0.0
C177 C 0.44378 0.5307 0.76361 0.0
C178 C 0.50818 0.59729 0.68538 0.0
C179 C 0.52085 0.49676 0.46388 0.0
C180 C 0.5309 0.46609 0.41991 0.0
C181 C 0.51942 0.4553 0.31382 0.0
C182 C 0.52604 0.42481 0.27758 0.0
C183 C 0.54426 0.40476 0.34681 0.0
C184 C 0.55679 0.41602 0.45075 0.0
C185 C 0.54994 0.44638 0.48756 0.0
C186 C 0.55789 0.52705 0.84078 0.0
C187 C 0.49366 0.4754 0.89023 0.0
O188 O 0.50745 0.55898 0.08416 0.0
O189 O 0.46932 0.58777 0.01512 0.0
O190 O 0.46884 0.54366 0.73225 0.0
O191 O 0.44121 0.53042 0.87598 0.0
O192 O 0.49977 0.59483 0.7952 0.0
O193 O 0.51421 0.5727 0.61974 0.0
O194 O 0.49383 0.49684 0.51792 0.0
O195 O 0.54222 0.51355 0.51588 0.0
O196 O 0.53683 0.54631 0.81524 0.0
O197 O 0.55726 0.50349 0.77042 0.0
O198 O 0.49336 0.47847 0.77619 0.0
O199 O 0.49806 0.49948 0.95936 0.0
H200 H 0.55104 0.59884 0.03816 0.0
H201 H 0.57818 0.64866 0.06907 0.0
H202 H 0.49649 0.68516 0.24115 0.0
H203 H 0.46911 0.63518 0.21109 0.0
H204 H 0.50461 0.47013 0.26066 0.0
H205 H 0.51644 0.41658 0.19692 0.0
H206 H 0.57086 0.40087 0.50535 0.0
H207 H 0.55877 0.45415 0.57033 0.0
Sm208 Sm 0.9748 0.4248 0.90232 0.0
Sm209 Sm 0.99885 0.45183 0.66173 0.0
C210 C 0.94701 0.42247 0.1072 0.0
C211 C 0.9205 0.44063 0.15262 0.0
C212 C 0.91043 0.46744 0.09216 0.0
C213 C 0.8839 0.48367 0.1282 0.0
C214 C 0.86728 0.47373 0.2267 0.0
C215 C 0.87801 0.44769 0.29054 0.0
C216 C 0.90442 0.43103 0.25298 0.0
C217 C 0.98104 0.38207 0.7288 0.0
C218 C 0.92557 0.45431 0.70887 0.0
C219 C 0.02596 0.46045 0.45747 0.0
C220 C 0.05843 0.46199 0.41514 0.0
C221 C 0.0661 0.44949 0.3066 0.0
C222 C 0.09721 0.44924 0.26836 0.0
C223 C 0.12094 0.46174 0.33805 0.0
C224 C 0.1132 0.47444 0.44616 0.0
C225 C 0.0822 0.47438 0.48483 0.0
C226 C 0.99154 0.49446 0.8373 0.0
C227 C 0.0489 0.42048 0.85108 0.0
O228 O 0.97246 0.4387 0.0867 0.0
O229 O 0.9403 0.4031 0.02342 0.0
O230 O 0.97127 0.40971 0.71791 0.0
O231 O 0.98467 0.37448 0.83758 0.0
O232 O 0.9326 0.45058 0.81965 0.0
O233 O 0.94646 0.45087 0.62571 0.0
O234 O 0.01681 0.43302 0.49571 0.0
O235 O 0.01642 0.48355 0.52275 0.0
O236 O 0.00179 0.46698 0.8465 0.0
O237 O 0.98705 0.50154 0.72881 0.0
O238 O 0.04327 0.43018 0.74385 0.0
O239 O 0.02701 0.418 0.93169 0.0
H240 H 0.92287 0.47564 0.01603 0.0
H241 H 0.87609 0.50383 0.07853 0.0
H242 H 0.8655 0.43988 0.36729 0.0
H243 H 0.912 0.41051 0.30107 0.0
H244 H 0.04808 0.4396 0.25215 0.0
H245 H 0.10284 0.43923 0.18488 0.0
H246 H 0.13126 0.484 0.50119 0.0
H247 H 0.07687 0.48371 0.56962 0.0
C248 C 0.07846 0.96208 0.48986 0.0
C249 C 0.1021 0.98537 0.48432 0.0
C250 C 0.09027 -0.00024 0.68467 0.0
C251 C 0.06936 0.97393 0.69434 0.0
N252 N 0.0511 0.92517 0.61297 0.0
N253 N 0.13616 0.02051 0.58823 0.0
C254 C 0.06572 0.95344 0.599 0.0
C255 C 0.10976 0.00247 0.58526 0.0
N256 N 0.06688 0.94919 0.39103 0.0
N257 N 0.09046 0.02281 0.76595 0.0
H258 H 0.15196 0.02203 0.51939 0.0
H259 H 0.14415 0.03103 0.66373 0.0
H260 H 0.0754 0.02309 0.83666 0.0
H261 H 0.10314 0.04352 0.75577 0.0
H262 H 0.04729 0.93466 0.39143 0.0
H263 H 0.07432 0.95583 0.30832 0.0
H264 H 0.05021 0.90845 0.5477 0.0
H265 H 0.04332 0.91682 0.69316 0.0
C266 C 0.55382 0.14146 0.49713 0.0
C267 C 0.53872 0.14278 0.38776 0.0
C268 C 0.50009 0.10464 0.45764 0.0
C269 C 0.5182 0.09943 0.55813 0.0
N270 N 0.56488 0.11045 0.66836 0.0
N271 N 0.50073 0.12058 0.25674 0.0
C272 C 0.54579 0.11719 0.57681 0.0
C273 C 0.5126 0.12311 0.36598 0.0
N274 N 0.57478 0.16414 0.52735 0.0
N275 N 0.47052 0.09275 0.45112 0.0
H276 H 0.5102 0.13225 0.18515 0.0
H277 H 0.48367 0.1042 0.23516 0.0
H278 H 0.46029 0.08015 0.51916 0.0
H279 H 0.45519 0.09821 0.38392 0.0
H280 H 0.58413 0.16592 0.61023 0.0
H281 H 0.58019 0.18323 0.47404 0.0
H282 H 0.58708 0.12018 0.67757 0.0
H283 H 0.55977 0.09327 0.73016 0.0
C284 C 0.37921 0.49297 0.58579 0.0
C285 C 0.37695 0.51551 0.4947 0.0
C286 C 0.41017 0.55094 0.60481 0.0
C287 C 0.41745 0.5263 0.68274 0.0
N288 N 0.41057 0.47256 0.74369 0.0
N289 N 0.39624 0.56385 0.40856 0.0
C290 C 0.40228 0.49694 0.67295 0.0
C291 C 0.39385 0.54408 0.50191 0.0
N292 N 0.3586 0.46852 0.59197 0.0
N293 N 0.41819 0.58108 0.63029 0.0
H294 H 0.38691 0.55881 0.32761 0.0
H295 H 0.41073 0.5835 0.40792 0.0
H296 H 0.42916 0.58714 0.70754 0.0
H297 H 0.41073 0.60021 0.58091 0.0
H298 H 0.35753 0.45308 0.66223 0.0
H299 H 0.34032 0.46568 0.53349 0.0
H300 H 0.40286 0.44967 0.73132 0.0
H301 H 0.42688 0.47482 0.80986 0.0
C302 C 0.94496 0.32815 0.50854 0.0
C303 C 0.96422 0.3362 0.41199 0.0
C304 C 0.00109 0.36118 0.54374 0.0
C305 C 0.97846 0.35967 0.63283 0.0
N306 N 0.9282 0.3419 0.70212 0.0
N307 N 0.00966 0.3638 0.33719 0.0
C308 C 0.95029 0.3429 0.61641 0.0
C309 C 0.99235 0.35326 0.42934 0.0
N310 N 0.92243 0.30561 0.49861 0.0
N311 N 0.03092 0.37008 0.5691 0.0
H312 H 0.0032 0.36031 0.25134 0.0
H313 H 0.02873 0.37879 0.34607 0.0
H314 H 0.0378 0.37476 0.65381 0.0
H315 H 0.04919 0.36942 0.50909 0.0
H316 H 0.90969 0.29698 0.56904 0.0
H317 H 0.9189 0.29299 0.42284 0.0
H318 H 0.90559 0.33346 0.68943 0.0
H319 H 0.93199 0.35108 0.78431 0.0
C320 C 0.87768 0.04701 0.07631 0.0
C321 C 0.8798 0.03655 0.19305 0.0
C322 C 0.9156 0.995 0.13261 0.0
C323 C 0.91724 0.00842 0.02028 0.0
N324 N 0.9041 0.0517 0.89201 0.0
N325 N 0.90621 0.00446 0.33581 0.0
C326 C 0.89947 0.03569 0.99362 0.0
C327 C 0.90025 0.01155 0.22244 0.0
N328 N 0.85411 0.06668 0.04272 0.0
N329 N 0.92773 0.9659 0.15256 0.0
H330 H 0.8966 0.01698 0.40448 0.0
H331 H 0.9233 0.9884 0.36105 0.0
H332 H 0.93752 0.95255 0.08642 0.0
H333 H 0.92489 0.95384 0.23074 0.0
H334 H 0.84986 0.07245 0.95632 0.0
H335 H 0.83665 0.07442 0.09892 0.0
H336 H 0.89416 0.07358 0.87545 0.0
H337 H 0.92027 0.04505 0.82924 0.0
C338 C 0.51659 0.93377 0.01911 0.0
C339 C 0.53668 0.90859 0.98965 0.0
C340 C 0.51582 0.90874 0.79175 0.0
C341 C 0.49854 0.93624 0.81853 0.0
N342 N 0.46968 0.96246 0.96873 0.0
N343 N 0.54818 0.86574 0.86144 0.0
C344 C 0.49478 0.94483 0.936 0.0
C345 C 0.5342 0.89415 0.87959 0.0
N346 N 0.51936 0.94829 0.12365 0.0
N347 N 0.51404 0.89618 0.68362 0.0
H348 H 0.5607 0.85386 0.92547 0.0
H349 H 0.54541 0.85255 0.78688 0.0
H350 H 0.49581 0.90148 0.62705 0.0
H351 H 0.52982 0.87984 0.65136 0.0
H352 H 0.50742 0.96881 0.14408 0.0
H353 H 0.53559 0.94153 0.1862 0.0
H354 H 0.46459 0.96762 0.05479 0.0
H355 H 0.45164 0.96789 0.91143 0.0
C356 C 0.6202 0.57981 0.9577 0.0
C357 C 0.63279 0.5616 0.04973 0.0
C358 C 0.5962 0.51913 0.00345 0.0
C359 C 0.58592 0.53655 0.90593 0.0
N360 N 0.59634 0.57829 0.769 0.0
N361 N 0.63798 0.51057 0.14106 0.0
C362 C 0.60052 0.56527 0.87629 0.0
C363 C 0.62228 0.53023 0.06762 0.0
N364 N 0.6254 0.61137 0.9511 0.0
N365 N 0.58074 0.49248 0.03644 0.0
H366 H 0.65823 0.51711 0.18471 0.0
H367 H 0.63289 0.48678 0.14897 0.0
H368 H 0.56214 0.48327 0.98947 0.0
H369 H 0.585 0.48082 0.11443 0.0
H370 H 0.61433 0.62579 0.89057 0.0
H371 H 0.63748 0.62375 0.01425 0.0
H372 H 0.60877 0.59791 0.74026 0.0
H373 H 0.58312 0.56754 0.70473 0.0
C374 C 0.99671 0.5345 0.13212 0.0
C375 C 0.97488 0.55919 0.11683 0.0
C376 C 0.95958 0.53686 0.93151 0.0
C377 C 0.98527 0.51576 0.93649 0.0
N378 N 0.03234 0.49921 0.03724 0.0
N379 N 0.9401 0.58747 0.98822 0.0
C380 C 0.00494 0.51568 0.03589 0.0
C381 C 0.95752 0.56141 0.01279 0.0
N382 N 0.00898 0.52837 0.23901 0.0
N383 N 0.93616 0.53271 0.85324 0.0
H384 H 0.93905 0.60691 0.0421 0.0
H385 H 0.92952 0.59114 0.90804 0.0
H386 H 0.93534 0.5135 0.79885 0.0
H387 H 0.91561 0.54588 0.85359 0.0
H388 H 0.02271 0.50874 0.25652 0.0
H389 H 0.00261 0.54083 0.31276 0.0
H390 H 0.04866 0.501 0.10374 0.0
H391 H 0.04068 0.48663 0.96699 0.0
C392 C 0.95864 0.1979 0.34079 0.0
C393 C 0.94767 0.20132 0.2256 0.0
C394 C 0.93799 0.14467 0.21723 0.0
C395 C 0.95291 0.14107 0.32625 0.0
N396 N 0.98241 0.16366 0.48285 0.0
N397 N 0.92889 0.17805 0.04937 0.0
C398 C 0.96451 0.16753 0.38583 0.0
C399 C 0.9376 0.17474 0.16255 0.0
N400 N 0.96263 0.22374 0.40851 0.0
N401 N 0.9238 0.11947 0.16729 0.0
H402 H 0.92853 0.19962 0.00644 0.0
H403 H 0.92417 0.15925 0.9953 0.0
H404 H 0.92397 0.09713 0.20462 0.0
H405 H 0.90985 0.12104 0.09381 0.0
H406 H 0.9675 0.22241 0.49674 0.0
H407 H 0.95788 0.24647 0.37966 0.0
H408 H 0.99442 0.18198 0.52188 0.0
H409 H 0.98775 0.14177 0.51832 0.0
C410 C 0.27651 0.04417 0.24708 0.0
C411 C 0.26067 0.02002 0.18709 0.0
C412 C 0.30911 0.98926 0.17951 0.0
C413 C 0.32534 0.01438 0.232 0.0
N414 N 0.32621 0.06802 0.29543 0.0
N415 N 0.26293 0.97247 0.07583 0.0
C416 C 0.30953 0.04256 0.25962 0.0
C417 C 0.27725 0.99331 0.14767 0.0
N418 N 0.25986 0.068 0.29622 0.0
N419 N 0.3239 0.96124 0.16286 0.0
H420 H 0.23975 0.97483 0.04929 0.0
H421 H 0.27478 0.95447 0.03394 0.0
H422 H 0.3474 0.95755 0.183 0.0
H423 H 0.31236 0.94099 0.13713 0.0
H424 H 0.2697 0.08439 0.35161 0.0
H425 H 0.23559 0.06989 0.29001 0.0
H426 H 0.31647 0.09023 0.30479 0.0
H427 H 0.35045 0.06766 0.30585 0.0
C428 C 0.56617 0.33147 0.17684 0.0
C429 C 0.55433 0.30766 0.25161 0.0
C430 C 0.53431 0.3475 0.38414 0.0
C431 C 0.54834 0.37128 0.31455 0.0
N432 N 0.58221 0.38576 0.15531 0.0
N433 N 0.53318 0.29255 0.43762 0.0
C434 C 0.56565 0.36322 0.21388 0.0
C435 C 0.54033 0.31558 0.3589 0.0
N436 N 0.57664 0.32396 0.06858 0.0
N437 N 0.51385 0.35532 0.47055 0.0
H438 H 0.53745 0.26886 0.42234 0.0
H439 H 0.52592 0.29714 0.522 0.0
H440 H 0.50788 0.37838 0.48984 0.0
H441 H 0.50039 0.33889 0.5156 0.0
H442 H 0.58213 0.34062 0.00535 0.0
H443 H 0.57752 0.30101 0.0385 0.0
H444 H 0.59771 0.38085 0.08811 0.0
H445 H 0.58256 0.40918 0.1804 0.0
C446 C 0.20806 0.44321 0.33238 0.0
C447 C 0.21814 0.46224 0.23827 0.0
C448 C 0.16451 0.48113 0.20885 0.0
C449 C 0.15417 0.461 0.29976 0.0
N450 N 0.16456 0.41843 0.43275 0.0
N451 N 0.20614 0.49543 0.07473 0.0
C452 C 0.17555 0.4408 0.3575 0.0
C453 C 0.19635 0.47998 0.17258 0.0
N454 N 0.22967 0.4281 0.39969 0.0
N455 N 0.14422 0.5023 0.1608 0.0
H456 H 0.22935 0.49524 0.04636 0.0
H457 H 0.19105 0.50627 0.01638 0.0
H458 H 0.12077 0.50395 0.18523 0.0
H459 H 0.15099 0.51987 0.10295 0.0
H460 H 0.2242 0.41695 0.47768 0.0
H461 H 0.2536 0.42847 0.38155 0.0
H462 H 0.17849 0.40084 0.46831 0.0
H463 H 0.14085 0.41561 0.45186 0.0
C464 C 0.99856 0.74545 0.24093 0.0
C465 C 0.97494 0.7365 0.32159 0.0
C466 C 0.96202 0.79194 0.35259 0.0
C467 C 0.98458 0.80069 0.26768 0.0
N468 N 0.01795 0.78546 0.10901 0.0
N469 N 0.92919 0.75064 0.43232 0.0
C470 C 0.00089 0.77731 0.20501 0.0
C471 C 0.95513 0.75961 0.37085 0.0
N472 N 0.01985 0.72393 0.20288 0.0
N473 N 0.94796 0.81439 0.41864 0.0
H474 H 0.92315 0.72721 0.44575 0.0
H475 H 0.91216 0.76628 0.46066 0.0
H476 H 0.95259 0.83824 0.40891 0.0
H477 H 0.93361 0.80932 0.48939 0.0
H478 H 0.03957 0.72995 0.15425 0.0
H479 H 0.01956 0.70047 0.22856 0.0
H480 H 0.02768 0.76908 0.053 0.0
H481 H 0.01966 0.80848 0.07861 0.0
C482 C 0.71796 0.04322 0.17079 0.0
C483 C 0.72251 0.05713 0.28061 0.0
C484 C 0.66605 0.06731 0.29532 0.0
C485 C 0.66131 0.05 0.19231 0.0
N486 N 0.68217 0.01666 0.04282 0.0
N487 N 0.70073 0.07934 0.45478 0.0
C488 C 0.68712 0.0367 0.13273 0.0
C489 C 0.69652 0.06854 0.3448 0.0
N490 N 0.74315 0.03696 0.10135 0.0
N491 N 0.64157 0.08308 0.34434 0.0
H492 H 0.72255 0.08027 0.49464 0.0
H493 H 0.68237 0.08501 0.51028 0.0
H494 H 0.61897 0.08266 0.3105 0.0
H495 H 0.64404 0.09864 0.41262 0.0
H496 H 0.74108 0.02981 0.01569 0.0
H497 H 0.76613 0.04191 0.12533 0.0
H498 H 0.69994 0.00355 0.00475 0.0
H499 H 0.65993 0.01081 0.01311 0.0
C500 C 0.5637 0.75412 0.08831 0.0
C501 C 0.57599 0.76314 0.19698 0.0
C502 C 0.57078 0.7092 0.27006 0.0
C503 C 0.5546 0.70135 0.16727 0.0
N504 N 0.53525 0.71526 0.97782 0.0
N505 N 0.59334 0.75012 0.38932 0.0
C506 C 0.55137 0.72339 0.07531 0.0
C507 C 0.58051 0.74076 0.28693 0.0
N508 N 0.56368 0.77508 0.99804 0.0
N509 N 0.57656 0.68641 0.35123 0.0
H510 H 0.60206 0.77268 0.40167 0.0
H511 H 0.59494 0.73609 0.46298 0.0
H512 H 0.56915 0.66327 0.34187 0.0
H513 H 0.59005 0.68963 0.42486 0.0
H514 H 0.55791 0.76934 0.91341 0.0
H515 H 0.57181 0.79799 0.00557 0.0
H516 H 0.52891 0.73098 0.91275 0.0
H517 H 0.52661 0.69276 0.96391 0.0
C518 C 0.78068 0.4945 0.24668 0.0
C519 C 0.78256 0.52537 0.29149 0.0
C520 C 0.83977 0.5208 0.30668 0.0
C521 C 0.83794 0.49029 0.259 0.0
N522 N 0.80791 0.4489 0.17212 0.0
N523 N 0.81248 0.56686 0.37801 0.0
C524 C 0.80866 0.47713 0.22763 0.0
C525 C 0.81179 0.53831 0.32476 0.0
N526 N 0.75206 0.48187 0.22177 0.0
N527 N 0.86849 0.53312 0.33207 0.0
H528 H 0.79239 0.57975 0.3966 0.0
H529 H 0.83248 0.57728 0.41109 0.0
H530 H 0.88915 0.52017 0.32731 0.0
H531 H 0.87242 0.55626 0.35524 0.0
H532 H 0.74838 0.45834 0.2037 0.0
H533 H 0.73128 0.49462 0.22435 0.0
H534 H 0.78806 0.43942 0.13425 0.0
H535 H 0.82778 0.43533 0.15717 0.0
C536 C 0.0591 0.1072 0.10721 0.0
C537 C 0.03895 0.13213 0.07549 0.0
C538 C 0.00406 0.09563 0.97786 0.0
C539 C 0.02584 0.0711 0.99782 0.0
N540 N 0.07584 0.05381 0.07164 0.0
N541 N 0.9952 0.15137 0.96382 0.0
C542 C 0.05386 0.07688 0.06028 0.0
C543 C 0.01241 0.12674 0.00529 0.0
N544 N 0.08283 0.1124 0.18369 0.0
N545 N 0.9745 0.08904 0.94026 0.0
H546 H -0.00034 0.17464 0.98512 0.0
H547 H 0.97813 0.14886 0.90039 0.0
H548 H 0.96664 0.06633 0.92578 0.0
H549 H 0.95668 0.10566 0.93619 0.0
H550 H 0.09621 0.09457 0.22056 0.0
H551 H 0.08777 0.13456 0.21653 0.0
H552 H 0.0981 0.05755 0.10518 0.0
H553 H 0.07277 0.03126 0.03977 0.0
C554 C 0.36339 0.07887 0.83894 0.0
C555 C 0.34229 0.05368 0.85926 0.0
C556 C 0.38323 0.01594 0.80878 0.0
C557 C 0.40485 0.04093 0.7972 0.0
N558 N 0.4174 0.09563 0.81698 0.0
N559 N 0.33403 0.99819 0.88964 0.0
C560 C 0.39552 0.07226 0.81751 0.0
C561 C 0.3527 0.02216 0.85117 0.0
N562 N 0.35247 0.10896 0.83427 0.0
N563 N 0.39163 0.9863 0.77706 0.0
H564 H 0.31178 0.00168 0.92434 0.0
H565 H 0.34178 0.97516 0.8983 0.0
H566 H 0.41401 0.98059 0.74774 0.0
H567 H 0.37573 0.9679 0.77081 0.0
H568 H 0.36604 0.12798 0.80774 0.0
H569 H 0.32901 0.11471 0.84722 0.0
H570 H 0.41271 0.11841 0.84353 0.0
H571 H 0.44097 0.09168 0.79822 0.0
C572 C 0.46061 0.40717 0.06924 0.0
C573 C 0.47891 0.38215 0.02587 0.0
C574 C 0.50977 0.41906 0.90832 0.0
C575 C 0.4893 0.44364 0.94156 0.0
N576 N 0.44326 0.4608 0.04561 0.0
N577 N 0.52018 0.36335 0.90097 0.0
C578 C 0.46436 0.43771 0.02081 0.0
C579 C 0.50319 0.38782 0.94411 0.0
N580 N 0.43989 0.40181 0.15774 0.0
N581 N 0.53655 0.4258 0.84787 0.0
H582 H 0.51838 0.34046 0.93247 0.0
H583 H 0.53502 0.36531 0.82958 0.0
H584 H 0.54261 0.44838 0.82196 0.0
H585 H 0.5543 0.40965 0.8326 0.0
H586 H 0.42888 0.41961 0.20363 0.0
H587 H 0.43522 0.37952 0.19119 0.0
H588 H 0.42247 0.45693 0.09075 0.0
H589 H 0.44515 0.48357 0.01378 0.0
C590 C 0.11854 0.37885 0.98418 0.0
C591 C 0.1419 0.40226 0.9729 0.0
C592 C 0.10458 0.43744 0.87701 0.0
C593 C 0.08153 0.41352 0.88438 0.0
N594 N 0.06815 0.35947 0.92069 0.0
N595 N 0.15908 0.45199 0.89319 0.0
C596 C 0.08896 0.38362 0.93113 0.0
C597 C 0.13558 0.43085 0.91357 0.0
N598 N 0.12451 0.35221 0.04682 0.0
N599 N 0.0965 0.46707 0.84215 0.0
H600 H 0.18168 0.44946 0.92523 0.0
H601 H 0.15685 0.47115 0.8375 0.0
H602 H 0.0743 0.47314 0.81277 0.0
H603 H 0.11108 0.48644 0.85058 0.0
H604 H 0.10731 0.33609 0.07058 0.0
H605 H 0.14649 0.34701 0.08095 0.0
H606 H 0.07331 0.33635 0.94269 0.0
H607 H 0.04662 0.36198 0.87948 0.0
C608 C 0.98646 0.84618 0.65765 0.0
C609 C 0.97548 0.82539 0.74512 0.0
C610 C 0.94954 0.86907 0.84322 0.0
C611 C 0.9631 0.88983 0.76054 0.0
N612 N 0.9776 0.8953 0.559 0.0
N613 N 0.94402 0.81549 0.91532 0.0
C614 C 0.97641 0.87765 0.65807 0.0
C615 C 0.95603 0.83635 0.83628 0.0
N616 N 0.00769 0.83634 0.57695 0.0
N617 N 0.9293 0.88086 0.92374 0.0
H618 H 0.94775 0.7914 0.91036 0.0
H619 H 0.93056 0.82162 0.98668 0.0
H620 H 0.92199 0.9042 0.92106 0.0
H621 H 0.91804 0.86771 0.98747 0.0
H622 H 0.01913 0.85181 0.5208 0.0
H623 H 0.0163 0.81349 0.57399 0.0
H624 H 0.98555 0.88658 0.48012 0.0
H625 H 0.96596 0.91665 0.55103 0.0
C626 C 0.64614 0.00356 0.55059 0.0
C627 C 0.6518 0.9772 0.47939 0.0
C628 C 0.59635 0.96291 0.48961 0.0
C629 C 0.59038 0.9905 0.55403 0.0
N630 N 0.60819 0.04074 0.6221 0.0
N631 N 0.63215 0.93465 0.3647 0.0
C632 C 0.61491 0.01179 0.57856 0.0
C633 C 0.62682 0.95776 0.44361 0.0
N634 N 0.67059 0.02083 0.59171 0.0
N635 N 0.57329 0.94102 0.47663 0.0
H636 H 0.6544 0.92949 0.3326 0.0
H637 H 0.6143 0.9222 0.32476 0.0
H638 H 0.55084 0.94374 0.51059 0.0
H639 H 0.57707 0.91901 0.44093 0.0
H640 H 0.66807 0.03765 0.65596 0.0
H641 H 0.69381 0.01712 0.56746 0.0
H642 H 0.62465 0.05862 0.62895 0.0
H643 H 0.58549 0.0481 0.64057 0.0
C644 C 0.48834 0.67161 0.51784 0.0
C645 C 0.51118 0.69258 0.56112 0.0
C646 C 0.53214 0.65093 0.6859 0.0
C647 C 0.51092 0.62931 0.63582 0.0
N648 N 0.47233 0.61782 0.48958 0.0
N649 N 0.55943 0.7003 0.6657 0.0
C650 C 0.49032 0.63919 0.54641 0.0
C651 C 0.53434 0.68177 0.63967 0.0
N652 N 0.46366 0.68292 0.45508 0.0
N653 N 0.55019 0.64218 0.77818 0.0
H654 H 0.56263 0.72271 0.63136 0.0
H655 H 0.57875 0.69233 0.71207 0.0
H656 H 0.55107 0.61937 0.81054 0.0
H657 H 0.56284 0.65805 0.82759 0.0
H658 H 0.44447 0.66935 0.43179 0.0
H659 H 0.46078 0.70662 0.43538 0.0
H660 H 0.4593 0.62325 0.41619 0.0
H661 H 0.47198 0.59403 0.51007 0.0
C662 C 0.83773 0.44498 0.68417 0.0
C663 C 0.82901 0.47526 0.64478 0.0
C664 C 0.88431 0.49042 0.63113 0.0
C665 C 0.89271 0.46088 0.67871 0.0
N666 N 0.87782 0.409 0.74431 0.0
N667 N 0.84339 0.52858 0.5973 0.0
C668 C 0.86955 0.43801 0.70381 0.0
C669 C 0.85214 0.49851 0.62288 0.0
N670 N 0.81607 0.42226 0.70651 0.0
N671 N 0.90698 0.51042 0.59119 0.0
H672 H 0.8202 0.53537 0.58584 0.0
H673 H 0.85888 0.5474 0.59536 0.0
H674 H 0.93081 0.50548 0.59586 0.0
H675 H 0.90232 0.53097 0.54537 0.0
H676 H 0.79198 0.42526 0.6967 0.0
H677 H 0.79198 0.42526 0.6967 0.0
H678 H 0.86137 0.39166 0.76402 0.0
H679 H 0.90101 0.40213 0.75627 0.0
loop_
_geom_bond_atom_site_label_1
_geom_bond_atom_site_label_2
_geom_bond_distance
_geom_bond_site_symmetry_2
_ccdc_geom_bond_type
O0 Cd1 2.300 . S
O0 C7 1.275 . S
Cd1 O0 2.300 . S
Cd1 O9 2.381 . S
Cd1 O10 2.378 . S
O2 Cd3 2.385 . S
O2 C7 1.255 . S
Cd3 O2 2.385 . S
Cd3 O4 2.317 . S
O4 Cd3 2.317 . S
O4 C5 1.232 . S
C5 O4 1.232 . S
C5 O6 1.218 . S
O6 C5 1.218 . S
C7 O0 1.275 . S
C7 O2 1.255 . S
C8 O9 1.258 . S
C8 O10 1.256 . S
O9 Cd1 2.381 . S
O9 C8 1.258 . S
O10 Cd1 2.378 . S
O10 C8 1.256 . S
O11 Cd12 2.300 1_655 S
O11 C18 1.275 1_655 S
Cd12 O11 2.300 1_455 S
Cd12 O20 2.381 1_455 S
Cd12 O21 2.378 . S
O13 Cd14 2.385 . S
O13 C18 1.255 . S
Cd14 O13 2.385 . S
Cd14 O15 2.317 . S
O15 Cd14 2.317 . S
O15 C16 1.232 . S
C16 O15 1.232 . S
C16 O17 1.218 . S
O17 C16 1.218 . S
C18 O11 1.275 1_455 S
C18 O13 1.255 . S
C19 O20 1.258 1_455 S
C19 O21 1.256 . S
O20 Cd12 2.381 1_655 S
O20 C19 1.258 1_655 S
O21 Cd12 2.378 . S
O21 C19 1.256 . S
O22 Cd23 2.300 1_565 S
O22 C29 1.275 1_565 S
Cd23 O22 2.300 1_545 S
Cd23 O31 2.381 1_545 S
Cd23 O32 2.378 . S
O24 Cd25 2.385 . S
O24 C29 1.255 . S
Cd25 O24 2.385 . S
Cd25 O26 2.317 . S
O26 Cd25 2.317 . S
O26 C27 1.232 . S
C27 O26 1.232 . S
C27 O28 1.218 . S
O28 C27 1.218 . S
C29 O22 1.275 1_545 S
C29 O24 1.255 . S
C30 O31 1.258 1_545 S
C30 O32 1.256 . S
O31 Cd23 2.381 1_565 S
O31 C30 1.258 1_565 S
O32 Cd23 2.378 . S
O32 C30 1.256 . S
O33 Cd34 2.300 . S
O33 C40 1.275 . S
Cd34 O33 2.300 . S
Cd34 O42 2.381 . S
Cd34 O43 2.378 . S
O35 Cd36 2.385 . S
O35 C40 1.255 . S
Cd36 O35 2.385 . S
Cd36 O37 2.317 . S
O37 Cd36 2.317 . S
O37 C38 1.232 . S
C38 O37 1.232 . S
C38 O39 1.218 . S
O39 C38 1.218 . S
C40 O33 1.275 . S
C40 O35 1.255 . S
C41 O42 1.258 . S
C41 O43 1.256 . S
O42 Cd34 2.381 . S
O42 C41 1.258 . S
O43 Cd34 2.378 . S
O43 C41 1.256 . S
O44 Cd45 2.300 . S
O44 C51 1.275 . S
Cd45 O44 2.300 . S
Cd45 O53 2.381 . S
Cd45 O54 2.378 . S
O46 Cd47 2.385 1_554 S
O46 C51 1.255 . S
Cd47 O46 2.385 1_556 S
Cd47 O48 2.317 . S
O48 Cd47 2.317 . S
O48 C49 1.232 . S
C49 O48 1.232 . S
C49 O50 1.218 . S
O50 C49 1.218 . S
C51 O44 1.275 . S
C51 O46 1.255 . S
C52 O53 1.258 . S
C52 O54 1.256 . S
O53 Cd45 2.381 . S
O53 C52 1.258 . S
O54 Cd45 2.378 . S
O54 C52 1.256 . S
O55 Cd56 2.300 1_655 S
O55 C62 1.275 1_655 S
Cd56 O55 2.300 1_455 S
Cd56 O64 2.381 1_455 S
Cd56 O65 2.378 . S
O57 Cd58 2.385 1_554 S
O57 C62 1.255 . S
Cd58 O57 2.385 1_556 S
Cd58 O59 2.317 . S
O59 Cd58 2.317 . S
O59 C60 1.232 . S
C60 O59 1.232 . S
C60 O61 1.218 . S
O61 C60 1.218 . S
C62 O55 1.275 1_455 S
C62 O57 1.255 . S
C63 O64 1.258 1_455 S
C63 O65 1.256 . S
O64 Cd56 2.381 1_655 S
O64 C63 1.258 1_655 S
O65 Cd56 2.378 . S
O65 C63 1.256 . S
O66 Cd67 2.300 1_565 S
O66 C73 1.275 1_565 S
Cd67 O66 2.300 1_545 S
Cd67 O75 2.381 1_545 S
Cd67 O76 2.378 . S
O68 Cd69 2.385 1_554 S
O68 C73 1.255 . S
Cd69 O68 2.385 1_556 S
Cd69 O70 2.317 . S
O70 Cd69 2.317 . S
O70 C71 1.232 . S
C71 O70 1.232 . S
C71 O72 1.218 . S
O72 C71 1.218 . S
C73 O66 1.275 1_545 S
C73 O68 1.255 . S
C74 O75 1.258 1_545 S
C74 O76 1.256 . S
O75 Cd67 2.381 1_565 S
O75 C74 1.258 1_565 S
O76 Cd67 2.378 . S
O76 C74 1.256 . S
O77 Cd78 2.300 . S
O77 C84 1.275 . S
Cd78 O77 2.300 . S
Cd78 O86 2.381 . S
Cd78 O87 2.378 . S
O79 Cd80 2.385 1_554 S
O79 C84 1.255 . S
Cd80 O79 2.385 1_556 S
Cd80 O81 2.317 . S
O81 Cd80 2.317 . S
O81 C82 1.232 . S
C82 O81 1.232 . S
C82 O83 1.218 . S
O83 C82 1.218 . S
C84 O77 1.275 . S
C84 O79 1.255 . S
C85 O86 1.258 . S
C85 O87 1.256 . S
O86 Cd78 2.381 . S
O86 C85 1.258 . S
O87 Cd78 2.378 . S
O87 C85 1.256 . S
Sm88 C90 2.846 1_556 S
Sm88 O108 2.543 1_556 S
Sm88 O109 2.450 . S
Sm88 O110 2.681 1_565 S
Sm88 O111 2.464 . S
Sm88 O112 2.396 . S
Sm88 O116 2.386 1_455 S
Sm88 O119 2.408 1_565 S
Sm89 C99 2.846 . S
Sm89 O110 2.386 1_655 S
Sm89 O113 2.408 1_545 S
Sm89 O114 2.543 . S
Sm89 O115 2.450 . S
Sm89 O116 2.681 1_545 S
Sm89 O117 2.464 . S
Sm89 O118 2.396 . S
C90 Sm88 2.846 1_554 S
C90 C91 1.506 . S
C90 O108 1.261 . S
C90 O109 1.242 1_554 S
C91 C90 1.506 . S
C91 C92 1.358 . S
C91 C96 1.382 . S
C92 C91 1.358 . S
C92 C93 1.385 . S
C92 H120 0.930 1_455 S
C93 C92 1.385 . S
C93 C94 1.395 . S
C93 H121 0.901 1_455 S
C94 C93 1.395 . S
C94 C95 1.335 . S
C95 C94 1.335 . S
C95 C96 1.398 . S
C95 H122 0.930 . S
C96 C91 1.382 . S
C96 C95 1.398 . S
C96 H123 0.929 . S
C97 O110 1.271 1_565 S
C97 O111 1.251 . S
C98 O112 1.252 1_655 S
C98 O113 1.272 . S
C99 Sm89 2.846 . S
C99 C100 1.506 . S
C99 O114 1.261 . S
C99 O115 1.242 . S
C100 C99 1.506 . S
C100 C101 1.358 . S
C100 C105 1.382 . S
C101 C100 1.358 . S
C101 C102 1.385 . S
C101 H124 0.930 1_655 S
C102 C101 1.385 . S
C102 C103 1.395 . S
C102 H125 0.929 1_655 S
C103 C102 1.395 . S
C103 C104 1.335 . S
C104 C103 1.335 . S
C104 C105 1.398 . S
C104 H126 0.930 . S
C105 C100 1.382 . S
C105 C104 1.398 . S
C105 H127 0.929 . S
C106 O116 1.271 1_545 S
C106 O117 1.251 . S
C107 O118 1.252 1_455 S
C107 O119 1.272 . S
O108 Sm88 2.543 1_554 S
O108 C90 1.261 . S
O109 Sm88 2.450 . S
O109 C90 1.242 1_556 S
O110 Sm88 2.681 1_545 S
O110 Sm89 2.386 1_455 S
O110 C97 1.271 1_545 S
O111 Sm88 2.464 . S
O111 C97 1.251 . S
O112 Sm88 2.396 . S
O112 C98 1.252 1_455 S
O113 Sm89 2.408 1_565 S
O113 C98 1.272 . S
O114 Sm89 2.543 . S
O114 C99 1.261 . S
O115 Sm89 2.450 . S
O115 C99 1.242 . S
O116 Sm88 2.386 1_655 S
O116 Sm89 2.681 1_565 S
O116 C106 1.271 1_565 S
O117 Sm89 2.464 . S
O117 C106 1.251 . S
O118 Sm89 2.396 . S
O118 C107 1.252 1_655 S
O119 Sm88 2.408 1_545 S
O119 C107 1.272 . S
H120 C92 0.930 1_655 S
H121 C93 0.901 1_655 S
H122 C95 0.930 . S
H123 C96 0.929 . S
H124 C101 0.930 1_455 S
H125 C102 0.929 1_455 S
H126 C104 0.930 . S
H127 C105 0.929 . S
Sm128 C130 2.846 1_556 S
Sm128 O148 2.543 1_556 S
Sm128 O149 2.450 . S
Sm128 O150 2.681 . S
Sm128 O151 2.464 . S
Sm128 O152 2.396 . S
Sm128 O156 2.386 1_545 S
Sm128 O159 2.408 . S
Sm129 C139 2.846 . S
Sm129 O150 2.386 1_565 S
Sm129 O153 2.408 . S
Sm129 O154 2.543 . S
Sm129 O155 2.450 . S
Sm129 O156 2.681 . S
Sm129 O157 2.464 . S
Sm129 O158 2.396 . S
C130 Sm128 2.846 1_554 S
C130 C131 1.506 . S
C130 O148 1.261 . S
C130 O149 1.242 1_554 S
C131 C130 1.506 . S
C131 C132 1.358 . S
C131 C136 1.382 . S
C132 C131 1.358 . S
C132 C133 1.385 . S
C132 H160 0.930 1_545 S
C133 C132 1.385 . S
C133 C134 1.395 . S
C133 H161 0.929 1_545 S
C134 C133 1.395 . S
C134 C135 1.335 . S
C135 C134 1.335 . S
C135 C136 1.398 . S
C135 H162 0.930 . S
C136 C131 1.382 . S
C136 C135 1.398 . S
C136 H163 0.929 . S
C137 O150 1.271 . S
C137 O151 1.251 . S
C138 O152 1.252 1_565 S
C138 O153 1.272 . S
C139 Sm129 2.846 . S
C139 C140 1.506 . S
C139 O154 1.261 . S
C139 O155 1.242 . S
C140 C139 1.506 . S
C140 C141 1.358 . S
C140 C145 1.382 . S
C141 C140 1.358 . S
C141 C142 1.385 . S
C141 H164 0.930 1_565 S
C142 C141 1.385 . S
C142 C143 1.395 . S
C142 H165 0.929 1_565 S
C143 C142 1.395 . S
C143 C144 1.335 . S
C144 C143 1.335 . S
C144 C145 1.398 . S
C144 H166 0.930 . S
C145 C140 1.382 . S
C145 C144 1.398 . S
C145 H167 0.929 . S
C146 O156 1.271 . S
C146 O157 1.251 . S
C147 O158 1.252 1_545 S
C147 O159 1.272 . S
O148 Sm128 2.543 1_554 S
O148 C130 1.261 . S
O149 Sm128 2.450 . S
O149 C130 1.242 1_556 S
O150 Sm128 2.681 . S
O150 Sm129 2.386 1_545 S
O150 C137 1.271 . S
O151 Sm128 2.464 . S
O151 C137 1.251 . S
O152 Sm128 2.396 . S
O152 C138 1.252 1_545 S
O153 Sm129 2.408 . S
O153 C138 1.272 . S
O154 Sm129 2.543 . S
O154 C139 1.261 . S
O155 Sm129 2.450 . S
O155 C139 1.242 . S
O156 Sm128 2.386 1_565 S
O156 Sm129 2.681 . S
O156 C146 1.271 . S
O157 Sm129 2.464 . S
O157 C146 1.251 . S
O158 Sm129 2.396 . S
O158 C147 1.252 1_565 S
O159 Sm128 2.408 . S
O159 C147 1.272 . S
H160 C132 0.930 1_565 S
H161 C133 0.929 1_565 S
H162 C135 0.930 . S
H163 C136 0.929 . S
H164 C141 0.930 1_545 S
H165 C142 0.929 1_545 S
H166 C144 0.930 . S
H167 C145 0.929 . S
Sm168 C170 2.846 1_556 S
Sm168 O188 2.543 1_556 S
Sm168 O189 2.450 . S
Sm168 O190 2.681 . S
Sm168 O191 2.464 . S
Sm168 O192 2.396 . S
Sm168 O196 2.386 . S
Sm168 O199 2.408 . S
Sm169 C179 2.846 . S
Sm169 O190 2.386 . S
Sm169 O193 2.408 . S
Sm169 O194 2.543 . S
Sm169 O195 2.450 . S
Sm169 O196 2.681 . S
Sm169 O197 2.464 . S
Sm169 O198 2.396 . S
C170 Sm168 2.846 1_554 S
C170 C171 1.506 . S
C170 O188 1.261 . S
C170 O189 1.242 1_554 S
C171 C170 1.506 . S
C171 C172 1.358 . S
C171 C176 1.382 . S
C172 C171 1.358 . S
C172 C173 1.385 . S
C172 H200 0.930 . S
C173 C172 1.385 . S
C173 C174 1.395 . S
C173 H201 0.929 . S
C174 C173 1.395 . S
C174 C175 1.335 . S
C175 C174 1.335 . S
C175 C176 1.398 . S
C175 H202 0.930 . S
C176 C171 1.382 . S
C176 C175 1.398 . S
C176 H203 0.929 . S
C177 O190 1.271 . S
C177 O191 1.251 . S
C178 O192 1.252 . S
C178 O193 1.272 . S
C179 Sm169 2.846 . S
C179 C180 1.506 . S
C179 O194 1.261 . S
C179 O195 1.242 . S
C180 C179 1.506 . S
C180 C181 1.358 . S
C180 C185 1.382 . S
C181 C180 1.358 . S
C181 C182 1.385 . S
C181 H204 0.930 . S
C182 C181 1.385 . S
C182 C183 1.395 . S
C182 H205 0.929 . S
C183 C182 1.395 . S
C183 C184 1.335 . S
C184 C183 1.335 . S
C184 C185 1.398 . S
C184 H206 0.930 . S
C185 C180 1.382 . S
C185 C184 1.398 . S
C185 H207 0.929 . S
C186 O196 1.271 . S
C186 O197 1.251 . S
C187 O198 1.252 . S
C187 O199 1.272 . S
O188 Sm168 2.543 1_554 S
O188 C170 1.261 . S
O189 Sm168 2.450 . S
O189 C170 1.242 1_556 S
O190 Sm168 2.681 . S
O190 Sm169 2.386 . S
O190 C177 1.271 . S
O191 Sm168 2.464 . S
O191 C177 1.251 . S
O192 Sm168 2.396 . S
O192 C178 1.252 . S
O193 Sm169 2.408 . S
O193 C178 1.272 . S
O194 Sm169 2.543 . S
O194 C179 1.261 . S
O195 Sm169 2.450 . S
O195 C179 1.242 . S
O196 Sm168 2.386 . S
O196 Sm169 2.681 . S
O196 C186 1.271 . S
O197 Sm169 2.464 . S
O197 C186 1.251 . S
O198 Sm169 2.396 . S
O198 C187 1.252 . S
O199 Sm168 2.408 . S
O199 C187 1.272 . S
H200 C172 0.930 . S
H201 C173 0.929 . S
H202 C175 0.930 . S
H203 C176 0.929 . S
H204 C181 0.930 . S
H205 C182 0.929 . S
H206 C184 0.930 . S
H207 C185 0.929 . S
Sm208 C210 2.846 1_556 S
Sm208 O228 2.543 1_556 S
Sm208 O229 2.450 . S
Sm208 O230 2.681 1_655 S
Sm208 O231 2.464 . S
Sm208 O232 2.396 . S
Sm208 O236 2.386 . S
Sm208 O239 2.408 1_655 S
Sm209 C219 2.846 . S
Sm209 O230 2.386 . S
Sm209 O233 2.408 1_455 S
Sm209 O234 2.543 . S
Sm209 O235 2.450 . S
Sm209 O236 2.681 1_455 S
Sm209 O237 2.464 . S
Sm209 O238 2.396 . S
C210 Sm208 2.846 1_554 S
C210 C211 1.506 . S
C210 O228 1.261 . S
C210 O229 1.242 1_554 S
C211 C210 1.506 . S
C211 C212 1.358 . S
C211 C216 1.382 . S
C212 C211 1.358 . S
C212 C213 1.385 . S
C212 H240 0.930 . S
C213 C212 1.385 . S
C213 C214 1.395 . S
C213 H241 0.929 . S
C214 C213 1.395 . S
C214 C215 1.335 . S
C215 C214 1.335 . S
C215 C216 1.398 . S
C215 H242 0.930 . S
C216 C211 1.382 . S
C216 C215 1.398 . S
C216 H243 0.929 . S
C217 O230 1.264 1_655 S
C217 O231 1.264 . S
C218 O232 1.252 . S
C218 O233 1.272 . S
C219 Sm209 2.846 . S
C219 C220 1.506 . S
C219 O234 1.261 . S
C219 O235 1.242 . S
C220 C219 1.506 . S
C220 C221 1.358 . S
C220 C225 1.382 . S
C221 C220 1.358 . S
C221 C222 1.385 . S
C221 H244 0.930 . S
C222 C221 1.385 . S
C222 C223 1.395 . S
C222 H245 0.929 . S
C223 C222 1.395 . S
C223 C224 1.335 . S
C224 C223 1.335 . S
C224 C225 1.398 . S
C224 H246 0.930 . S
C225 C220 1.382 . S
C225 C224 1.398 . S
C225 H247 0.929 . S
C226 O236 1.262 1_455 S
C226 O237 1.268 . S
C227 O238 1.252 . S
C227 O239 1.272 . S
O228 Sm208 2.543 1_554 S
O228 C210 1.261 . S
O229 Sm208 2.450 . S
O229 C210 1.242 1_556 S
O230 Sm208 2.681 1_455 S
O230 Sm209 2.386 . S
O230 C217 1.264 1_455 S
O231 Sm208 2.464 . S
O231 C217 1.264 . S
O232 Sm208 2.396 . S
O232 C218 1.252 . S
O233 Sm209 2.408 1_655 S
O233 C218 1.272 . S
O234 Sm209 2.543 . S
O234 C219 1.261 . S
O235 Sm209 2.450 . S
O235 C219 1.242 . S
O236 Sm208 2.386 . S
O236 Sm209 2.681 1_655 S
O236 C226 1.262 1_655 S
O237 Sm209 2.464 . S
O237 C226 1.268 . S
O238 Sm209 2.396 . S
O238 C227 1.252 . S
O239 Sm208 2.408 1_455 S
O239 C227 1.272 . S
H240 C212 0.930 . S
H241 C213 0.929 . S
H242 C215 0.930 . S
H243 C216 0.929 . S
H244 C221 0.930 . S
H245 C222 0.929 . S
H246 C224 0.930 . S
H247 C225 0.929 . S
C248 C249 1.354 1_565 S
C248 C254 1.379 . S
C248 N256 1.356 . S
C249 C248 1.354 1_545 S
C249 C255 1.372 . S
C250 C251 1.389 . S
C250 C255 1.379 . S
C250 N257 1.356 . S
C251 C250 1.389 . S
C251 C254 1.337 1_545 S
N252 C254 1.356 . S
N252 H264 0.984 . S
N252 H265 0.985 . S
N253 C255 1.356 . S
N253 H258 0.984 . S
N253 H259 0.985 . S
C254 C248 1.379 . S
C254 C251 1.337 1_565 S
C254 N252 1.356 . S
C255 C249 1.372 . S
C255 C250 1.379 . S
C255 N253 1.356 . S
N256 C248 1.356 . S
N256 H262 0.984 . S
N256 H263 0.984 . S
N257 C250 1.356 . S
N257 H260 0.984 . S
N257 H261 0.985 . S
H258 N253 0.984 . S
H259 N253 0.985 . S
H260 N257 0.984 . S
H261 N257 0.985 . S
H262 N256 0.984 . S
H263 N256 0.984 . S
H264 N252 0.984 . S
H265 N252 0.985 . S
C266 C267 1.363 . S
C266 C272 1.379 . S
C266 N274 1.356 . S
C267 C266 1.363 . S
C267 C273 1.363 . S
C268 C269 1.363 . S
C268 C273 1.379 . S
C268 N275 1.356 . S
C269 C268 1.363 . S
C269 C272 1.363 . S
N270 C272 1.356 . S
N270 H282 0.984 . S
N270 H283 0.985 . S
N271 C273 1.356 . S
N271 H276 0.984 . S
N271 H277 0.985 . S
C272 C266 1.379 . S
C272 C269 1.363 . S
C272 N270 1.356 . S
C273 C267 1.363 . S
C273 C268 1.379 . S
C273 N271 1.356 . S
N274 C266 1.356 . S
N274 H280 0.984 . S
N274 H281 0.984 . S
N275 C268 1.356 . S
N275 H278 0.984 . S
N275 H279 0.985 . S
H276 N271 0.984 . S
H277 N271 0.985 . S
H278 N275 0.984 . S
H279 N275 0.985 . S
H280 N274 0.984 . S
H281 N274 0.984 . S
H282 N270 0.984 . S
H283 N270 0.985 . S
C284 C285 1.363 . S
C284 C290 1.379 . S
C284 N292 1.356 . S
C285 C284 1.363 . S
C285 C291 1.363 . S
C286 C287 1.363 . S
C286 C291 1.379 . S
C286 N293 1.356 . S
C287 C286 1.363 . S
C287 C290 1.363 . S
N288 C290 1.356 . S
N288 H300 0.984 . S
N288 H301 0.985 . S
N289 C291 1.356 . S
N289 H294 0.984 . S
N289 H295 0.985 . S
C290 C284 1.379 . S
C290 C287 1.363 . S
C290 N288 1.356 . S
C291 C285 1.363 . S
C291 C286 1.379 . S
C291 N289 1.356 . S
N292 C284 1.356 . S
N292 H298 0.984 . S
N292 H299 0.984 . S
N293 C286 1.356 . S
N293 H296 0.984 . S
N293 H297 0.985 . S
H294 N289 0.984 . S
H295 N289 0.985 . S
H296 N293 0.984 . S
H297 N293 0.985 . S
H298 N292 0.984 . S
H299 N292 0.984 . S
H300 N288 0.984 . S
H301 N288 0.985 . S
C302 C303 1.358 1_655 S
C302 C308 1.379 . S
C302 N310 1.356 . S
C303 C302 1.358 1_455 S
C303 C309 1.369 . S
C304 C305 1.363 . S
C304 C309 1.379 . S
C304 N311 1.356 . S
C305 C304 1.363 . S
C305 C308 1.363 1_455 S
N306 C308 1.356 . S
N306 H318 0.984 . S
N306 H319 0.985 . S
N307 C309 1.356 . S
N307 H312 0.984 . S
N307 H313 0.985 . S
C308 C302 1.379 . S
C308 C305 1.363 1_655 S
C308 N306 1.356 . S
C309 C303 1.369 . S
C309 C304 1.379 . S
C309 N307 1.356 . S
N310 C302 1.356 . S
N310 H316 0.984 . S
N310 H317 0.984 . S
N311 C304 1.356 . S
N311 H314 0.984 . S
N311 H315 0.985 . S
H312 N307 0.984 . S
H313 N307 0.985 . S
H314 N311 0.984 . S
H315 N311 0.985 . S
H316 N310 0.984 . S
H317 N310 0.984 . S
H318 N306 0.984 . S
H319 N306 0.985 . S
C320 C321 1.360 1_545 S
C320 C326 1.379 . S
C320 N328 1.356 . S
C321 C320 1.360 1_565 S
C321 C327 1.366 . S
C322 C323 1.383 . S
C322 C327 1.379 . S
C322 N329 1.356 . S
C323 C322 1.383 . S
C323 C326 1.343 1_565 S
N324 C326 1.356 1_556 S
N324 H336 0.984 . S
N324 H337 0.985 . S
N325 C327 1.356 . S
N325 H330 0.984 . S
N325 H331 0.985 . S
C326 C320 1.379 . S
C326 C323 1.343 1_545 S
C326 N324 1.356 1_554 S
C327 C321 1.366 . S
C327 C322 1.379 . S
C327 N325 1.356 . S
N328 C320 1.356 . S
N328 H334 0.984 . S
N328 H335 0.984 . S
N329 C322 1.356 . S
N329 H332 0.984 1_554 S
N329 H333 0.985 . S
H330 N325 0.984 . S
H331 N325 0.985 . S
H332 N329 0.984 1_556 S
H333 N329 0.985 . S
H334 N328 0.984 . S
H335 N328 0.984 . S
H336 N324 0.984 . S
H337 N324 0.985 . S
C338 C339 1.363 . S
C338 C344 1.379 . S
C338 N346 1.356 . S
C339 C338 1.363 . S
C339 C345 1.363 . S
C340 C341 1.363 . S
C340 C345 1.379 . S
C340 N347 1.356 1_554 S
C341 C340 1.363 . S
C341 C344 1.363 . S
N342 C344 1.356 . S
N342 H354 0.984 . S
N342 H355 0.985 1_554 S
N343 C345 1.356 . S
N343 H348 0.984 . S
N343 H349 0.985 . S
C344 C338 1.379 . S
C344 C341 1.363 . S
C344 N342 1.356 . S
C345 C339 1.363 . S
C345 C340 1.379 . S
C345 N343 1.356 . S
N346 C338 1.356 . S
N346 H352 0.984 . S
N346 H353 0.984 . S
N347 C340 1.356 1_556 S
N347 H350 0.984 . S
N347 H351 0.985 . S
H348 N343 0.984 . S
H349 N343 0.985 . S
H350 N347 0.984 . S
H351 N347 0.985 . S
H352 N346 0.984 . S
H353 N346 0.984 . S
H354 N342 0.984 . S
H355 N342 0.985 1_556 S
C356 C357 1.363 . S
C356 C362 1.379 . S
C356 N364 1.356 . S
C357 C356 1.363 . S
C357 C363 1.363 . S
C358 C359 1.363 . S
C358 C363 1.379 . S
C358 N365 1.356 1_554 S
C359 C358 1.363 . S
C359 C362 1.363 . S
N360 C362 1.356 . S
N360 H372 0.984 . S
N360 H373 0.985 1_554 S
N361 C363 1.356 . S
N361 H366 0.984 . S
N361 H367 0.985 . S
C362 C356 1.379 . S
C362 C359 1.363 . S
C362 N360 1.356 . S
C363 C357 1.363 . S
C363 C358 1.379 . S
C363 N361 1.356 . S
N364 C356 1.356 . S
N364 H370 0.984 . S
N364 H371 0.984 . S
N365 C358 1.356 1_556 S
N365 H368 0.984 . S
N365 H369 0.985 . S
H366 N361 0.984 . S
H367 N361 0.985 . S
H368 N365 0.984 . S
H369 N365 0.985 . S
H370 N364 0.984 . S
H371 N364 0.984 . S
H372 N360 0.984 . S
H373 N360 0.985 1_556 S
C374 C375 1.351 1_455 S
C374 C380 1.379 . S
C374 N382 1.356 . S
C375 C374 1.351 1_655 S
C375 C381 1.376 . S
C376 C377 1.363 . S
C376 C381 1.379 . S
C376 N383 1.356 1_554 S
C377 C376 1.363 . S
C377 C380 1.363 1_655 S
N378 C380 1.356 . S
N378 H390 0.984 . S
N378 H391 0.985 1_554 S
N379 C381 1.356 . S
N379 H384 0.984 . S
N379 H385 0.985 . S
C380 C374 1.379 . S
C380 C377 1.363 1_455 S
C380 N378 1.356 . S
C381 C375 1.376 . S
C381 C376 1.379 . S
C381 N379 1.356 . S
N382 C374 1.356 . S
N382 H388 0.984 . S
N382 H389 0.984 . S
N383 C376 1.356 1_556 S
N383 H386 0.984 . S
N383 H387 0.985 . S
H384 N379 0.984 . S
H385 N379 0.985 . S
H386 N383 0.984 . S
H387 N383 0.985 . S
H388 N382 0.984 . S
H389 N382 0.984 . S
H390 N378 0.984 . S
H391 N378 0.985 1_556 S
C392 C393 1.365 . S
C392 C398 1.394 . S
C392 N400 1.337 1_655 S
C393 C392 1.365 . S
C393 C399 1.363 . S
C394 C395 1.363 . S
C394 C399 1.379 . S
C394 N401 1.356 . S
C395 C394 1.363 . S
C395 C398 1.363 . S
N396 C398 1.356 . S
N396 H408 0.984 . S
N396 H409 0.985 . S
N397 C399 1.356 . S
N397 H402 0.984 . S
N397 H403 0.985 . S
C398 C392 1.394 . S
C398 C395 1.363 . S
C398 N396 1.356 . S
C399 C393 1.363 . S
C399 C394 1.379 . S
C399 N397 1.356 . S
N400 C392 1.337 1_455 S
N400 H406 0.984 . S
N400 H407 0.984 . S
N401 C394 1.356 . S
N401 H404 0.984 . S
N401 H405 0.985 . S
H402 N397 0.984 . S
H403 N397 0.985 . S
H404 N401 0.984 . S
H405 N401 0.985 . S
H406 N400 0.984 . S
H407 N400 0.984 . S
H408 N396 0.984 . S
H409 N396 0.985 . S
C410 C411 1.363 1_545 S
C410 C416 1.379 1_545 S
C410 N418 1.356 . S
C411 C410 1.363 1_565 S
C411 C417 1.363 . S
C412 C413 1.363 . S
C412 C417 1.379 . S
C412 N419 1.356 . S
C413 C412 1.363 . S
C413 C416 1.363 . S
N414 C416 1.356 . S
N414 H426 0.984 1_565 S
N414 H427 0.985 . S
N415 C417 1.356 . S
N415 H420 0.984 . S
N415 H421 0.985 . S
C416 C410 1.379 1_565 S
C416 C413 1.363 . S
C416 N414 1.356 . S
C417 C411 1.363 . S
C417 C412 1.379 . S
C417 N415 1.356 . S
N418 C410 1.356 . S
N418 H424 0.984 . S
N418 H425 0.984 . S
N419 C412 1.356 . S
N419 H422 0.984 . S
N419 H423 0.985 . S
H420 N415 0.984 . S
H421 N415 0.985 . S
H422 N419 0.984 . S
H423 N419 0.985 . S
H424 N418 0.984 . S
H425 N418 0.984 . S
H426 N414 0.984 1_545 S
H427 N414 0.985 . S
C428 C429 1.363 . S
C428 C434 1.379 . S
C428 N436 1.356 . S
C429 C428 1.363 . S
C429 C435 1.363 . S
C430 C431 1.363 . S
C430 C435 1.379 . S
C430 N437 1.356 . S
C431 C430 1.363 . S
C431 C434 1.363 . S
N432 C434 1.356 . S
N432 H444 0.984 . S
N432 H445 0.985 . S
N433 C435 1.356 . S
N433 H438 0.984 . S
N433 H439 0.985 . S
C434 C428 1.379 . S
C434 C431 1.363 . S
C434 N432 1.356 . S
C435 C429 1.363 . S
C435 C430 1.379 . S
C435 N433 1.356 . S
N436 C428 1.356 . S
N436 H442 0.984 . S
N436 H443 0.984 . S
N437 C430 1.356 . S
N437 H440 0.984 . S
N437 H441 0.985 . S
H438 N433 0.984 . S
H439 N433 0.985 . S
H440 N437 0.984 . S
H441 N437 0.985 . S
H442 N436 0.984 . S
H443 N436 0.984 . S
H444 N432 0.984 . S
H445 N432 0.985 . S
C446 C447 1.363 . S
C446 C452 1.379 . S
C446 N454 1.356 . S
C447 C446 1.363 . S
C447 C453 1.363 . S
C448 C449 1.363 . S
C448 C453 1.379 . S
C448 N455 1.356 . S
C449 C448 1.363 . S
C449 C452 1.363 . S
N450 C452 1.356 . S
N450 H462 0.984 . S
N450 H463 0.985 . S
N451 C453 1.356 . S
N451 H456 0.984 . S
N451 H457 0.985 . S
C452 C446 1.379 . S
C452 C449 1.363 . S
C452 N450 1.356 . S
C453 C447 1.363 . S
C453 C448 1.379 . S
C453 N451 1.356 . S
N454 C446 1.356 . S
N454 H460 0.984 . S
N454 H461 0.984 . S
N455 C448 1.356 . S
N455 H458 0.984 . S
N455 H459 0.985 . S
H456 N451 0.984 . S
H457 N451 0.985 . S
H458 N455 0.984 . S
H459 N455 0.985 . S
H460 N454 0.984 . S
H461 N454 0.984 . S
H462 N450 0.984 . S
H463 N450 0.985 . S
C464 C465 1.363 . S
C464 C470 1.379 . S
C464 N472 1.356 . S
C465 C464 1.363 . S
C465 C471 1.363 . S
C466 C467 1.363 . S
C466 C471 1.379 . S
C466 N473 1.356 . S
C467 C466 1.363 . S
C467 C470 1.363 . S
N468 C470 1.356 . S
N468 H480 0.984 . S
N468 H481 0.985 . S
N469 C471 1.356 1_655 S
N469 H474 0.984 . S
N469 H475 0.985 . S
C470 C464 1.379 . S
C470 C467 1.363 . S
C470 N468 1.356 . S
C471 C465 1.363 . S
C471 C466 1.379 . S
C471 N469 1.356 1_455 S
N472 C464 1.356 . S
N472 H478 0.984 . S
N472 H479 0.984 1_455 S
N473 C466 1.356 . S
N473 H476 0.984 . S
N473 H477 0.985 . S
H474 N469 0.984 . S
H475 N469 0.985 . S
H476 N473 0.984 . S
H477 N473 0.985 . S
H478 N472 0.984 . S
H479 N472 0.984 1_655 S
H480 N468 0.984 . S
H481 N468 0.985 . S
C482 C483 1.363 . S
C482 C488 1.379 . S
C482 N490 1.356 1_545 S
C483 C482 1.363 . S
C483 C489 1.363 . S
C484 C485 1.363 . S
C484 C489 1.379 . S
C484 N491 1.356 . S
C485 C484 1.363 . S
C485 C488 1.363 . S
N486 C488 1.356 . S
N486 H498 0.984 1_554 S
N486 H499 0.985 . S
N487 C489 1.356 . S
N487 H492 0.984 . S
N487 H493 0.985 . S
C488 C482 1.379 . S
C488 C485 1.363 . S
C488 N486 1.356 . S
C489 C483 1.363 . S
C489 C484 1.379 . S
C489 N487 1.356 . S
N490 C482 1.356 1_565 S
N490 H496 0.984 . S
N490 H497 0.984 . S
N491 C484 1.356 . S
N491 H494 0.984 . S
N491 H495 0.985 . S
H492 N487 0.984 . S
H493 N487 0.985 . S
H494 N491 0.984 . S
H495 N491 0.985 . S
H496 N490 0.984 . S
H497 N490 0.984 . S
H498 N486 0.984 1_556 S
H499 N486 0.985 . S
C500 C501 1.363 . S
C500 C506 1.379 . S
C500 N508 1.356 . S
C501 C500 1.363 . S
C501 C507 1.363 . S
C502 C503 1.363 . S
C502 C507 1.379 . S
C502 N509 1.356 . S
C503 C502 1.363 . S
C503 C506 1.363 . S
N504 C506 1.356 . S
N504 H516 0.984 . S
N504 H517 0.985 . S
N505 C507 1.356 . S
N505 H510 0.984 . S
N505 H511 0.985 . S
C506 C500 1.379 . S
C506 C503 1.363 . S
C506 N504 1.356 . S
C507 C501 1.363 . S
C507 C502 1.379 . S
C507 N505 1.356 . S
N508 C500 1.356 . S
N508 H514 0.984 . S
N508 H515 0.984 . S
N509 C502 1.356 . S
N509 H512 0.984 . S
N509 H513 0.985 . S
H510 N505 0.984 . S
H511 N505 0.985 . S
H512 N509 0.984 . S
H513 N509 0.985 . S
H514 N508 0.984 . S
H515 N508 0.984 . S
H516 N504 0.984 . S
H517 N504 0.985 . S
C518 C519 1.363 . S
C518 C524 1.379 . S
C518 N526 1.356 . S
C519 C518 1.363 . S
C519 C525 1.363 . S
C520 C521 1.363 . S
C520 C525 1.379 . S
C520 N527 1.356 . S
C521 C520 1.363 . S
C521 C524 1.363 . S
N522 C524 1.356 . S
N522 H534 0.984 1_554 S
N522 H535 0.985 . S
N523 C525 1.356 . S
N523 H528 0.984 . S
N523 H529 0.985 . S
C524 C518 1.379 . S
C524 C521 1.363 . S
C524 N522 1.356 . S
C525 C519 1.363 . S
C525 C520 1.379 . S
C525 N523 1.356 . S
N526 C518 1.356 . S
N526 H532 0.984 . S
N526 H533 0.984 . S
N527 C520 1.356 . S
N527 H530 0.984 . S
N527 H531 0.985 . S
H528 N523 0.984 . S
H529 N523 0.985 . S
H530 N527 0.984 . S
H531 N527 0.985 . S
H532 N526 0.984 . S
H533 N526 0.984 . S
H534 N522 0.984 1_556 S
H535 N522 0.985 . S
C536 C537 1.363 . S
C536 C542 1.379 . S
C536 N544 1.356 . S
C537 C536 1.363 . S
C537 C543 1.363 1_455 S
C538 C539 1.363 1_655 S
C538 C543 1.379 . S
C538 N545 1.356 . S
C539 C538 1.363 1_455 S
C539 C542 1.363 . S
N540 C542 1.356 . S
N540 H552 0.984 . S
N540 H553 0.985 . S
N541 C543 1.356 . S
N541 H546 0.984 . S
N541 H547 0.985 . S
C542 C536 1.379 . S
C542 C539 1.363 . S
C542 N540 1.356 . S
C543 C537 1.363 1_655 S
C543 C538 1.379 . S
C543 N541 1.356 . S
N544 C536 1.356 . S
N544 H550 0.984 . S
N544 H551 0.984 . S
N545 C538 1.356 . S
N545 H548 0.984 . S
N545 H549 0.985 . S
H546 N541 0.984 . S
H547 N541 0.985 . S
H548 N545 0.984 . S
H549 N545 0.985 . S
H550 N544 0.984 . S
H551 N544 0.984 . S
H552 N540 0.984 . S
H553 N540 0.985 . S
C554 C555 1.363 . S
C554 C560 1.379 . S
C554 N562 1.356 . S
C555 C554 1.363 . S
C555 C561 1.363 1_545 S
C556 C557 1.363 1_565 S
C556 C561 1.379 . S
C556 N563 1.356 . S
C557 C556 1.363 1_545 S
C557 C560 1.363 . S
N558 C560 1.356 . S
N558 H570 0.984 . S
N558 H571 0.985 . S
N559 C561 1.356 . S
N559 H564 0.984 . S
N559 H565 0.985 . S
C560 C554 1.379 . S
C560 C557 1.363 . S
C560 N558 1.356 . S
C561 C555 1.363 1_565 S
C561 C556 1.379 . S
C561 N559 1.356 . S
N562 C554 1.356 . S
N562 H568 0.984 . S
N562 H569 0.984 . S
N563 C556 1.356 . S
N563 H566 0.984 . S
N563 H567 0.985 . S
H564 N559 0.984 . S
H565 N559 0.985 . S
H566 N563 0.984 . S
H567 N563 0.985 . S
H568 N562 0.984 . S
H569 N562 0.984 . S
H570 N558 0.984 . S
H571 N558 0.985 . S
C572 C573 1.363 . S
C572 C578 1.379 . S
C572 N580 1.356 . S
C573 C572 1.363 . S
C573 C579 1.363 . S
C574 C575 1.363 . S
C574 C579 1.379 . S
C574 N581 1.356 . S
C575 C574 1.363 . S
C575 C578 1.363 . S
N576 C578 1.356 . S
N576 H588 0.984 1_556 S
N576 H589 0.985 . S
N577 C579 1.356 . S
N577 H582 0.984 . S
N577 H583 0.985 . S
C578 C572 1.379 . S
C578 C575 1.363 . S
C578 N576 1.356 . S
C579 C573 1.363 . S
C579 C574 1.379 . S
C579 N577 1.356 . S
N580 C572 1.356 . S
N580 H586 0.984 . S
N580 H587 0.984 . S
N581 C574 1.356 . S
N581 H584 0.984 . S
N581 H585 0.985 . S
H582 N577 0.984 . S
H583 N577 0.985 . S
H584 N581 0.984 . S
H585 N581 0.985 . S
H586 N580 0.984 . S
H587 N580 0.984 . S
H588 N576 0.984 1_554 S
H589 N576 0.985 . S
C590 C591 1.363 . S
C590 C596 1.379 . S
C590 N598 1.356 . S
C591 C590 1.363 . S
C591 C597 1.363 . S
C592 C593 1.363 . S
C592 C597 1.379 . S
C592 N599 1.356 . S
C593 C592 1.363 . S
C593 C596 1.363 . S
N594 C596 1.356 . S
N594 H606 0.984 . S
N594 H607 0.985 . S
N595 C597 1.356 . S
N595 H600 0.984 . S
N595 H601 0.985 . S
C596 C590 1.379 . S
C596 C593 1.363 . S
C596 N594 1.356 . S
C597 C591 1.363 . S
C597 C592 1.379 . S
C597 N595 1.356 . S
N598 C590 1.356 . S
N598 H604 0.984 . S
N598 H605 0.984 . S
N599 C592 1.356 . S
N599 H602 0.984 . S
N599 H603 0.985 1_556 S
H600 N595 0.984 . S
H601 N595 0.985 . S
H602 N599 0.984 . S
H603 N599 0.985 1_554 S
H604 N598 0.984 . S
H605 N598 0.984 . S
H606 N594 0.984 . S
H607 N594 0.985 . S
C608 C609 1.363 1_455 S
C608 C614 1.379 . S
C608 N616 1.356 . S
C609 C608 1.363 1_655 S
C609 C615 1.363 . S
C610 C611 1.363 . S
C610 C615 1.379 . S
C610 N617 1.356 . S
C611 C610 1.363 . S
C611 C614 1.363 1_655 S
N612 C614 1.356 . S
N612 H624 0.984 . S
N612 H625 0.985 . S
N613 C615 1.356 . S
N613 H618 0.984 . S
N613 H619 0.985 . S
C614 C608 1.379 . S
C614 C611 1.363 1_455 S
C614 N612 1.356 . S
C615 C609 1.363 . S
C615 C610 1.379 . S
C615 N613 1.356 . S
N616 C608 1.356 . S
N616 H622 0.984 . S
N616 H623 0.984 . S
N617 C610 1.356 . S
N617 H620 0.984 . S
N617 H621 0.985 . S
H618 N613 0.984 . S
H619 N613 0.985 . S
H620 N617 0.984 . S
H621 N617 0.985 . S
H622 N616 0.984 . S
H623 N616 0.984 . S
H624 N612 0.984 . S
H625 N612 0.985 . S
C626 C627 1.363 1_545 S
C626 C632 1.379 . S
C626 N634 1.356 . S
C627 C626 1.363 1_565 S
C627 C633 1.363 . S
C628 C629 1.363 . S
C628 C633 1.379 . S
C628 N635 1.356 . S
C629 C628 1.363 . S
C629 C632 1.363 1_565 S
N630 C632 1.356 . S
N630 H642 0.984 . S
N630 H643 0.985 . S
N631 C633 1.356 . S
N631 H636 0.984 . S
N631 H637 0.985 . S
C632 C626 1.379 . S
C632 C629 1.363 1_545 S
C632 N630 1.356 . S
C633 C627 1.363 . S
C633 C628 1.379 . S
C633 N631 1.356 . S
N634 C626 1.356 . S
N634 H640 0.984 . S
N634 H641 0.984 . S
N635 C628 1.356 . S
N635 H638 0.984 . S
N635 H639 0.985 . S
H636 N631 0.984 . S
H637 N631 0.985 . S
H638 N635 0.984 . S
H639 N635 0.985 . S
H640 N634 0.984 . S
H641 N634 0.984 . S
H642 N630 0.984 . S
H643 N630 0.985 . S
C644 C645 1.363 . S
C644 C650 1.379 . S
C644 N652 1.356 . S
C645 C644 1.363 . S
C645 C651 1.363 . S
C646 C647 1.363 . S
C646 C651 1.379 . S
C646 N653 1.356 . S
C647 C646 1.363 . S
C647 C650 1.363 . S
N648 C650 1.356 . S
N648 H660 0.984 . S
N648 H661 0.985 . S
N649 C651 1.356 . S
N649 H654 0.984 . S
N649 H655 0.985 . S
C650 C644 1.379 . S
C650 C647 1.363 . S
C650 N648 1.356 . S
C651 C645 1.363 . S
C651 C646 1.379 . S
C651 N649 1.356 . S
N652 C644 1.356 . S
N652 H658 0.984 . S
N652 H659 0.984 . S
N653 C646 1.356 . S
N653 H656 0.984 . S
N653 H657 0.985 . S
H654 N649 0.984 . S
H655 N649 0.985 . S
H656 N653 0.984 . S
H657 N653 0.985 . S
H658 N652 0.984 . S
H659 N652 0.984 . S
H660 N648 0.984 . S
H661 N648 0.985 . S
C662 C663 1.363 . S
C662 C668 1.379 . S
C662 N670 1.356 . S
C663 C662 1.363 . S
C663 C669 1.363 . S
C664 C665 1.363 . S
C664 C669 1.379 . S
C664 N671 1.356 . S
C665 C664 1.363 . S
C665 C668 1.363 . S
N666 C668 1.356 . S
N666 H678 0.984 . S
N666 H679 0.985 . S
N667 C669 1.356 . S
N667 H672 0.984 . S
N667 H673 0.985 . S
C668 C662 1.379 . S
C668 C665 1.363 . S
C668 N666 1.356 . S
C669 C663 1.363 . S
C669 C664 1.379 . S
C669 N667 1.356 . S
N670 C662 1.356 . S
N670 H676 0.984 . S
N670 H677 0.984 . S
N671 C664 1.356 . S
N671 H674 0.984 . S
N671 H675 0.985 . S
H672 N667 0.984 . S
H673 N667 0.985 . S
H674 N671 0.984 . S
H675 N671 0.985 . S
H676 N670 0.984 . S
H677 N670 0.984 . S
H678 N666 0.984 . S
H679 N666 0.985 . S
C249 C74 1.926 . S
C251 C97 2.124 1_545 S
C269 C137 2.140 . S
C267 C85 1.930 . S
C287 C177 2.146 . S
C285 C52 1.940 . S
C305 C217 2.132 1_455 S
C303 C63 1.935 . S
C323 C106 2.127 1_564 S
C321 C30 1.930 1_565 S
C339 C41 1.949 . S
C341 C146 2.142 1_554 S
C357 C8 1.958 . S
C359 C186 2.145 1_554 S
C375 C19 1.935 1_655 S
C377 C226 2.132 1_654 S
C395 C103 0.884 . S
C393 C62 0.926 1_655 S
C413 C143 0.885 . S
C411 C73 0.927 1_565 S
C431 C183 0.876 . S
C429 C84 0.915 . S
C447 C51 0.916 . S
C449 C223 0.872 . S
C465 C18 0.861 . S
C467 C94 0.888 . S
C485 C134 0.885 . S
C483 C29 0.860 . S
C503 C174 0.876 . S
C501 C40 0.859 . S
C519 C7 0.857 . S
C521 C214 0.878 . S
C537 C60 1.927 . S
C539 C107 2.565 . S
C555 C71 1.899 . S
C557 C147 2.542 . S
C575 C187 2.533 . S
C573 C82 1.865 . S
C593 C227 2.561 . S
C591 C49 1.890 . S
C609 C16 2.052 1_655 S
C611 C98 2.574 . S
C629 C138 2.542 . S
C627 C27 2.026 1_565 S
C647 C178 2.533 . S
C645 C38 2.051 . S
C663 C5 2.072 . S
C665 C218 2.564 . S
