# Generated by pormake.
# Topology wbl, (4,4)-cn, num edge types: 1
# Building blocks:
#     Node 0, Type 0, BuildingBlock: MUDLON_clean_sbu_0, # of connection points: 4
#     Node 1, Type 0, BuildingBlock: MUDLON_clean_sbu_0, # of connection points: 4
#     Node 2, Type 0, BuildingBlock: MUDLON_clean_sbu_0, # of connection points: 4
#     Node 3, Type 0, BuildingBlock: MUDLON_clean_sbu_0, # of connection points: 4
#     Node 4, Type 0, BuildingBlock: MUDLON_clean_sbu_0, # of connection points: 4
#     Node 5, Type 0, BuildingBlock: MUDLON_clean_sbu_0, # of connection points: 4
#     Node 6, Type 0, BuildingBlock: MUDLON_clean_sbu_0, # of connection points: 4
#     Node 7, Type 0, BuildingBlock: MUDLON_clean_sbu_0, # of connection points: 4
#     Node 8, Type 1, BuildingBlock: GALJAG_clean_sbu_0, # of connection points: 4
#     Node 9, Type 1, BuildingBlock: GALJAG_clean_sbu_0, # of connection points: 4
#     Node 10, Type 1, BuildingBlock: GALJAG_clean_sbu_0, # of connection points: 4
#     Node 11, Type 1, BuildingBlock: GALJAG_clean_sbu_0, # of connection points: 4
#     Node 12, Type 1, BuildingBlock: GALJAG_clean_sbu_0, # of connection points: 4
#     Node 13, Type 1, BuildingBlock: GALJAG_clean_sbu_0, # of connection points: 4
#     Node 14, Type 1, BuildingBlock: GALJAG_clean_sbu_0, # of connection points: 4
#     Node 15, Type 1, BuildingBlock: GALJAG_clean_sbu_0, # of connection points: 4
#     Edge 16, Type (0, 1), BuildingBlock: AJUNOK_clean_linker_0, # of connection points: 2
#     Edge 17, Type (0, 1), BuildingBlock: AJUNOK_clean_linker_0, # of connection points: 2
#     Edge 18, Type (0, 1), BuildingBlock: AJUNOK_clean_linker_0, # of connection points: 2
#     Edge 19, Type (0, 1), BuildingBlock: AJUNOK_clean_linker_0, # of connection points: 2
#     Edge 20, Type (0, 1), BuildingBlock: AJUNOK_clean_linker_0, # of connection points: 2
#     Edge 21, Type (0, 1), BuildingBlock: AJUNOK_clean_linker_0, # of connection points: 2
#     Edge 22, Type (0, 1), BuildingBlock: AJUNOK_clean_linker_0, # of connection points: 2
#     Edge 23, Type (0, 1), BuildingBlock: AJUNOK_clean_linker_0, # of connection points: 2
#     Edge 24, Type (0, 1), BuildingBlock: AJUNOK_clean_linker_0, # of connection points: 2
#     Edge 25, Type (0, 1), BuildingBlock: AJUNOK_clean_linker_0, # of connection points: 2
#     Edge 26, Type (0, 1), BuildingBlock: AJUNOK_clean_linker_0, # of connection points: 2
#     Edge 27, Type (0, 1), BuildingBlock: AJUNOK_clean_linker_0, # of connection points: 2
#     Edge 28, Type (0, 1), BuildingBlock: AJUNOK_clean_linker_0, # of connection points: 2
#     Edge 29, Type (0, 1), BuildingBlock: AJUNOK_clean_linker_0, # of connection points: 2
#     Edge 30, Type (0, 1), BuildingBlock: AJUNOK_clean_linker_0, # of connection points: 2
#     Edge 31, Type (0, 1), BuildingBlock: AJUNOK_clean_linker_0, # of connection points: 2
#     Edge 32, Type (0, 1), BuildingBlock: AJUNOK_clean_linker_0, # of connection points: 2
#     Edge 33, Type (0, 1), BuildingBlock: AJUNOK_clean_linker_0, # of connection points: 2
#     Edge 34, Type (0, 1), BuildingBlock: AJUNOK_clean_linker_0, # of connection points: 2
#     Edge 35, Type (0, 1), BuildingBlock: AJUNOK_clean_linker_0, # of connection points: 2
#     Edge 36, Type (0, 1), BuildingBlock: AJUNOK_clean_linker_0, # of connection points: 2
#     Edge 37, Type (0, 1), BuildingBlock: AJUNOK_clean_linker_0, # of connection points: 2
#     Edge 38, Type (0, 1), BuildingBlock: AJUNOK_clean_linker_0, # of connection points: 2
#     Edge 39, Type (0, 1), BuildingBlock: AJUNOK_clean_linker_0, # of connection points: 2
#     Edge 40, Type (0, 1), BuildingBlock: AJUNOK_clean_linker_0, # of connection points: 2
#     Edge 41, Type (0, 1), BuildingBlock: AJUNOK_clean_linker_0, # of connection points: 2
#     Edge 42, Type (0, 1), BuildingBlock: AJUNOK_clean_linker_0, # of connection points: 2
#     Edge 43, Type (0, 1), BuildingBlock: AJUNOK_clean_linker_0, # of connection points: 2
#     Edge 44, Type (0, 1), BuildingBlock: AJUNOK_clean_linker_0, # of connection points: 2
#     Edge 45, Type (0, 1), BuildingBlock: AJUNOK_clean_linker_0, # of connection points: 2
#     Edge 46, Type (0, 1), BuildingBlock: AJUNOK_clean_linker_0, # of connection points: 2
#     Edge 47, Type (0, 1), BuildingBlock: AJUNOK_clean_linker_0, # of connection points: 2
# Relax obj value: 0.157
# Max RMSD: 0.185
# Mean RMSD: 0.148
data_MOF--net-wbl--node1-MUDLON_clean_sbu_0--node2-GALJAG_clean_sbu_0--edge1-AJUNOK_clean_linker_0
_symmetry_space_group_name_H-M    P1
_symmetry_Int_Tables_number       1
_symmetry_cell_setting            triclinic
loop_
_symmetry_equiv_pos_as_xyz
'x, y, z'
_cell_length_a     25.378529
_cell_length_b     25.483453
_cell_length_c     60.186176
_cell_angle_alpha  89.910917
_cell_angle_beta   90.033427
_cell_angle_gamma 89.848569
loop_
_atom_site_label
_atom_site_type_symbol
_atom_site_fract_x
_atom_site_fract_y
_atom_site_fract_z
_atom_type_partial_charge
Mg0 Mg 0.01141 0.01122 0.35536 0.0
C1 C 0.97735 0.95344 0.39593 0.0
O2 O 0.94586 0.99436 0.39683 0.0
C3 C 0.89838 0.00636 0.33711 0.0
O4 O 0.89371 0.96852 0.35181 0.0
C5 C 0.08827 0.95422 0.32626 0.0
O6 O 0.05125 0.91863 0.32845 0.0
O7 O 0.0818 0.99855 0.33554 0.0
O8 O 0.00363 0.94574 0.37822 0.0
O9 O 0.02209 0.07313 0.37952 0.0
C10 C 0.98435 0.10478 0.38309 0.0
O11 O 0.94597 0.10741 0.36847 0.0
O12 O 0.94272 0.02885 0.33486 0.0
Mg13 Mg 0.99875 0.52282 0.60575 0.0
C14 C 0.05653 0.48071 0.64414 0.0
O15 O 0.01405 0.45137 0.64393 0.0
C16 C 0.96187 0.4522 0.56801 0.0
O17 O 0.97099 0.49433 0.55602 0.0
C18 C 0.0594 0.58939 0.57359 0.0
O19 O 0.09268 0.5504 0.57647 0.0
O20 O 0.01536 0.58797 0.58365 0.0
O21 O 0.06562 0.50948 0.62728 0.0
O22 O 0.94166 0.54161 0.63128 0.0
C23 C 0.90325 0.51062 0.63434 0.0
O24 O 0.89106 0.47767 0.61841 0.0
O25 O 0.97251 0.45268 0.58863 0.0
Mg26 Mg 0.49501 0.47657 0.85409 0.0
C27 C 0.4667 0.56331 0.88466 0.0
O28 O 0.42169 0.55473 0.87456 0.0
C29 C 0.57802 0.46891 0.81613 0.0
O30 O 0.54809 0.50329 0.80581 0.0
C31 C 0.42005 0.53583 0.8235 0.0
O32 O 0.45759 0.57104 0.82512 0.0
O33 O 0.42592 0.49206 0.83343 0.0
O34 O 0.50771 0.53958 0.87783 0.0
O35 O 0.48068 0.41604 0.87859 0.0
C36 C 0.51612 0.38161 0.88188 0.0
O37 O 0.55216 0.37465 0.86653 0.0
O38 O 0.56545 0.45387 0.83555 0.0
Mg39 Mg 0.51298 0.00375 0.10687 0.0
C40 C 0.60255 0.02596 0.13592 0.0
O41 O 0.595 0.07083 0.12564 0.0
C42 C 0.5086 0.91437 0.07246 0.0
O43 O 0.55683 0.92909 0.06764 0.0
C44 C 0.57742 0.0703 0.07554 0.0
O45 O 0.61052 0.03125 0.07862 0.0
O46 O 0.53281 0.06901 0.08519 0.0
O47 O 0.57755 0.9859 0.12916 0.0
O48 O 0.45574 0.02278 0.13241 0.0
C49 C 0.42006 0.98935 0.13661 0.0
O50 O 0.41075 0.95257 0.12187 0.0
O51 O 0.48379 0.93765 0.08789 0.0
Mg52 Mg 0.01464 0.50594 0.9201 0.0
C53 C 0.96894 0.56896 0.88388 0.0
O54 O 0.93752 0.5281 0.88383 0.0
C55 C 0.90897 0.50173 0.94516 0.0
O56 O 0.90122 0.54811 0.93614 0.0
C57 C 0.08949 0.56018 0.95053 0.0
O58 O 0.05047 0.59416 0.95003 0.0
O59 O 0.08551 0.51825 0.93926 0.0
O60 O 0.99851 0.57568 0.90071 0.0
O61 O 0.02593 0.45118 0.89301 0.0
C62 C 0.99003 0.41781 0.88913 0.0
O63 O 0.95342 0.41032 0.90421 0.0
O64 O 0.95194 0.47777 0.94142 0.0
Mg65 Mg 0.50796 0.49498 0.17343 0.0
C66 C 0.42168 0.53712 0.14469 0.0
O67 O 0.43399 0.57935 0.156 0.0
C68 C 0.56419 0.41774 0.20187 0.0
O69 O 0.60121 0.4517 0.19689 0.0
C70 C 0.46199 0.5681 0.20593 0.0
O71 O 0.43087 0.52702 0.20671 0.0
O72 O 0.50211 0.5661 0.19328 0.0
O73 O 0.44123 0.49329 0.15064 0.0
O74 O 0.56843 0.49153 0.14799 0.0
C75 C 0.55907 0.45038 0.13671 0.0
O76 O 0.52357 0.41734 0.1442 0.0
O77 O 0.51792 0.42586 0.19441 0.0
Mg78 Mg 0.51171 1.00103 0.42045 0.0
C79 C 0.46652 0.05594 0.38143 0.0
O80 O 0.43841 0.01275 0.38149 0.0
C81 C 0.40662 0.00524 0.44462 0.0
O82 O 0.40741 0.05366 0.43712 0.0
C83 C 0.57748 0.06641 0.4509 0.0
O84 O 0.53605 0.09685 0.44837 0.0
O85 O 0.57813 0.02214 0.44117 0.0
O86 O 0.49439 0.06607 0.39847 0.0
O87 O 0.53151 0.94314 0.39547 0.0
C88 C 0.49788 0.90794 0.39099 0.0
O89 O 0.45943 0.89976 0.40519 0.0
O90 O 0.44518 0.97515 0.44021 0.0
Mg91 Mg 0.00414 1.00023 0.67276 0.0
C92 C 0.0922 0.96482 0.64477 0.0
O93 O 0.07526 0.92098 0.65373 0.0
C94 C 0.01124 0.10657 0.69721 0.0
O95 O 0.05655 0.11031 0.68679 0.0
C96 C 0.04929 0.92426 0.70457 0.0
O97 O 0.08002 0.96548 0.70621 0.0
O98 O 0.00995 0.92694 0.69146 0.0
O99 O 0.07479 0.00803 0.65243 0.0
O100 O 0.94877 0.00539 0.64521 0.0
C101 C 0.95649 0.05003 0.63624 0.0
O102 O 0.98802 0.08296 0.64645 0.0
O103 O 0.98406 0.06515 0.69482 0.0
In104 In 0.37663 0.64224 0.01383 0.0
O105 O 0.36747 0.72756 0.0244 0.0
O106 O 0.44468 0.69445 0.02413 0.0
C107 C 0.28209 0.61371 0.99785 0.0
C108 C 0.37734 0.59414 0.05382 0.0
C109 C 0.4252 0.63072 0.9743 0.0
O110 O 0.29253 0.66083 1.0028 0.0
O111 O 0.31877 0.5814 1.00171 0.0
O112 O 0.43397 0.5996 0.99037 0.0
O113 O 0.39423 0.66804 0.97876 0.0
C114 C 0.41605 0.73386 0.02827 0.0
O115 O 0.40951 0.58152 0.03861 0.0
O116 O 0.34474 0.62929 0.0484 0.0
In117 In 0.37519 0.86155 0.26366 0.0
O118 O 0.35775 0.77613 0.25515 0.0
O119 O 0.43423 0.80509 0.24786 0.0
C120 C 0.28274 0.89452 0.2811 0.0
C121 C 0.3781 0.91883 0.22589 0.0
C122 C 0.43322 0.86371 0.30124 0.0
O123 O 0.28902 0.84883 0.27338 0.0
O124 O 0.32281 0.9235 0.27964 0.0
O125 O 0.44189 0.89477 0.28524 0.0
O126 O 0.39644 0.83153 0.29788 0.0
C127 C 0.40302 0.76662 0.24738 0.0
O128 O 0.41041 0.92607 0.2416 0.0
O129 O 0.34461 0.88334 0.22948 0.0
In130 In 0.1417 0.87854 0.51299 0.0
O131 O 0.11263 0.93783 0.53888 0.0
O132 O 0.1752 0.88611 0.54779 0.0
C133 C 0.07595 0.88773 0.47791 0.0
C134 C 0.11584 0.78155 0.52694 0.0
C135 C 0.22832 0.91992 0.49389 0.0
O136 O 0.07009 0.91462 0.49542 0.0
O137 O 0.11419 0.85602 0.47847 0.0
O138 O 0.2245 0.87139 0.49807 0.0
O139 O 0.18918 0.94698 0.49987 0.0
C140 C 0.14447 0.92244 0.55374 0.0
O141 O 0.16133 0.79226 0.51962 0.0
O142 O 0.08366 0.81943 0.52658 0.0
In143 In 0.12796 0.62968 0.76442 0.0
O144 O 0.05507 0.6006 0.78295 0.0
O145 O 0.1052 0.65396 0.79967 0.0
C146 C 0.12088 0.56768 0.72812 0.0
C147 C 0.22186 0.59709 0.78122 0.0
C148 C 0.10296 0.72531 0.74747 0.0
O149 O 0.09413 0.55992 0.74547 0.0
O150 O 0.1516 0.60644 0.72919 0.0
O151 O 0.14692 0.71551 0.75644 0.0
O152 O 0.07168 0.68698 0.7472 0.0
C153 C 0.06415 0.62624 0.80044 0.0
O154 O 0.21501 0.64259 0.77334 0.0
O155 O 0.18157 0.56834 0.78043 0.0
In156 In 0.86349 0.16567 0.51078 0.0
O157 O 0.84429 0.23408 0.53422 0.0
O158 O 0.90487 0.24473 0.51042 0.0
C159 C 0.76784 0.13485 0.49641 0.0
C160 C 0.89461 0.11058 0.54687 0.0
C161 C 0.91511 0.15537 0.47191 0.0
O162 O 0.77667 0.18127 0.5028 0.0
O163 O 0.80687 0.10425 0.49787 0.0
O164 O 0.92596 0.12708 0.48861 0.0
O165 O 0.87877 0.18837 0.47504 0.0
C166 C 0.87987 0.26357 0.52661 0.0
O167 O 0.9263 0.1349 0.53444 0.0
O168 O 0.84734 0.11169 0.5405 0.0
In169 In 0.86985 0.37208 0.76006 0.0
O170 O 0.8989 0.4403 0.73862 0.0
O171 O 0.83946 0.38985 0.72565 0.0
C172 C 0.92066 0.37793 0.79926 0.0
C173 C 0.91578 0.28603 0.74232 0.0
C174 C 0.77327 0.39701 0.77544 0.0
O175 O 0.92813 0.41136 0.78398 0.0
O176 O 0.88845 0.34216 0.79444 0.0
O177 O 0.78732 0.34983 0.77238 0.0
O178 O 0.80739 0.43091 0.77041 0.0
C179 C 0.86863 0.42926 0.72253 0.0
O180 O 0.86729 0.28713 0.74735 0.0
O181 O 0.9403 0.32787 0.74649 0.0
In182 In 0.64906 0.35582 0.00921 0.0
O183 O 0.67742 0.27573 0.0223 0.0
O184 O 0.59526 0.29198 0.02168 0.0
C185 C 0.73622 0.402 0.99288 0.0
C186 C 0.62689 0.40865 0.04673 0.0
C187 C 0.59511 0.35098 0.9707 0.0
O188 O 0.7358 0.35452 0.99909 0.0
O189 O 0.69308 0.426 0.99545 0.0
O190 O 0.58475 0.38445 0.98558 0.0
O191 O 0.63241 0.32007 0.97542 0.0
C192 C 0.63129 0.25996 0.02664 0.0
O193 O 0.5944 0.40401 0.03094 0.0
O194 O 0.67163 0.38867 0.04319 0.0
In195 In 0.63283 0.1268 0.26601 0.0
O196 O 0.55901 0.0921 0.28206 0.0
O197 O 0.60012 0.15209 0.29938 0.0
C198 C 0.64072 0.07565 0.22693 0.0
C199 C 0.71731 0.08783 0.28798 0.0
C200 C 0.61135 0.22324 0.2494 0.0
O201 O 0.60398 0.06647 0.24058 0.0
O202 O 0.67353 0.10941 0.23336 0.0
O203 O 0.6551 0.21194 0.25831 0.0
O204 O 0.57833 0.18631 0.24946 0.0
C205 C 0.56206 0.12028 0.2993 0.0
O206 O 0.71486 0.13514 0.28166 0.0
O207 O 0.6776 0.06063 0.28299 0.0
C208 C 0.14301 0.89218 0.30366 0.0
C209 C 0.13757 0.94147 0.314 0.0
C210 C 0.18969 0.87775 0.2928 0.0
C211 C 0.233 0.91197 0.29178 0.0
H212 H 0.11112 0.86404 0.3041 0.0
H213 H 0.19194 0.83915 0.28534 0.0
S214 S 0.23925 0.04607 0.31573 0.0
N215 N 0.1797 0.02502 0.32213 0.0
N216 N 0.2673 0.99786 0.30175 0.0
C217 C 0.228 0.96172 0.30174 0.0
C218 C 0.18039 0.97646 0.31282 0.0
C219 C 0.03757 0.67719 0.55729 0.0
C220 C 0.07399 0.63593 0.56 0.0
C221 C 0.05112 0.72325 0.54597 0.0
C222 C 0.1017 0.73018 0.53687 0.0
H223 H 0.99839 0.67448 0.56432 0.0
H224 H 0.02186 0.75416 0.5448 0.0
S225 S 0.21082 0.63299 0.53801 0.0
N226 N 0.16237 0.60411 0.55158 0.0
N227 N 0.1877 0.69087 0.53036 0.0
C228 C 0.13808 0.68869 0.53879 0.0
C229 C 0.12427 0.64158 0.55032 0.0
C230 C 0.36353 0.59882 0.80193 0.0
C231 C 0.36997 0.54899 0.81178 0.0
C232 C 0.31588 0.6137 0.79185 0.0
C233 C 0.27256 0.57943 0.79116 0.0
H234 H 0.39532 0.62707 0.80222 0.0
H235 H 0.31288 0.65271 0.78477 0.0
S236 S 0.26898 0.44377 0.81379 0.0
N237 N 0.32887 0.46476 0.81962 0.0
N238 N 0.23958 0.49271 0.80072 0.0
C239 C 0.27863 0.52911 0.80057 0.0
C240 C 0.3272 0.51392 0.81084 0.0
C241 C 0.51465 0.83539 0.04788 0.0
C242 C 0.4835 0.87029 0.06036 0.0
C243 C 0.49229 0.79195 0.0372 0.0
C244 C 0.43781 0.78219 0.03827 0.0
H245 H 0.55686 0.84088 0.04673 0.0
H246 H 0.51804 0.76554 0.02817 0.0
S247 S 0.33837 0.86279 0.06794 0.0
N248 N 0.39481 0.89288 0.0726 0.0
N249 N 0.35295 0.81162 0.0523 0.0
C250 C 0.40593 0.81749 0.05016 0.0
C251 C 0.42874 0.86138 0.06128 0.0
C252 C 0.14519 0.62198 0.97266 0.0
C253 C 0.13795 0.57175 0.96344 0.0
C254 C 0.19144 0.63492 0.98413 0.0
C255 C 0.23217 0.59801 0.98699 0.0
H256 H 0.11529 0.65206 0.97071 0.0
H257 H 0.19549 0.67436 0.99057 0.0
S258 S 0.23212 0.46019 0.96695 0.0
N259 N 0.17504 0.48432 0.95859 0.0
N260 N 0.26171 0.5085 0.9802 0.0
C261 C 0.22503 0.54724 0.97831 0.0
C262 C 0.17805 0.53415 0.96651 0.0
C263 C 0.48041 0.66163 0.21647 0.0
C264 C 0.44753 0.61731 0.21779 0.0
C265 C 0.46609 0.70941 0.22638 0.0
C266 C 0.41813 0.71497 0.23791 0.0
H267 H 0.51733 0.65973 0.20748 0.0
H268 H 0.4925 0.74247 0.22466 0.0
S269 S 0.31875 0.61061 0.24712 0.0
N270 N 0.36536 0.58191 0.23235 0.0
N271 N 0.33855 0.67162 0.25074 0.0
C272 C 0.3853 0.67084 0.23972 0.0
C273 C 0.39995 0.62208 0.22975 0.0
C274 C 0.36044 0.93234 0.4647 0.0
C275 C 0.36116 0.98514 0.45767 0.0
C276 C 0.3177 0.91176 0.4766 0.0
C277 C 0.27395 0.94313 0.48204 0.0
H278 H 0.39299 0.90633 0.46085 0.0
H279 H 0.31891 0.87081 0.48144 0.0
S280 S 0.25603 0.08398 0.46779 0.0
N281 N 0.31403 0.06846 0.45726 0.0
N282 N 0.23395 0.02988 0.47961 0.0
C283 C 0.27424 0.99611 0.47532 0.0
C284 C 0.31771 0.01706 0.46315 0.0
C285 C 0.02964 0.83061 0.71477 0.0
C286 C 0.06269 0.8747 0.71651 0.0
C287 C 0.04263 0.78283 0.72508 0.0
C288 C 0.08938 0.77698 0.73748 0.0
H289 H 0.99354 0.83275 0.70519 0.0
H290 H 0.01606 0.75 0.72304 0.0
S291 S 0.18893 0.88051 0.74786 0.0
N292 N 0.14395 0.90945 0.73224 0.0
N293 N 0.16822 0.81975 0.7514 0.0
C294 C 0.12248 0.82082 0.73963 0.0
C295 C 0.10919 0.86959 0.72923 0.0
C296 C 0.65055 0.47674 0.78808 0.0
C297 C 0.6266 0.44831 0.80539 0.0
C298 C 0.69764 0.45939 0.77829 0.0
C299 C 0.72184 0.41225 0.78501 0.0
H300 H 0.63354 0.51339 0.78237 0.0
H301 H 0.71533 0.48317 0.76536 0.0
S302 S 0.67499 0.3224 0.8292 0.0
N303 N 0.63084 0.3701 0.82866 0.0
N304 N 0.71852 0.33714 0.8098 0.0
C305 C 0.69785 0.38274 0.80188 0.0
C306 C 0.65049 0.40089 0.8122 0.0
C307 C 0.55381 0.15319 0.05571 0.0
C308 C 0.5926 0.11662 0.06203 0.0
C309 C 0.56685 0.19854 0.04383 0.0
C310 C 0.6193 0.20958 0.03787 0.0
H311 H 0.51289 0.14704 0.06008 0.0
H312 H 0.53538 0.22563 0.03963 0.0
S313 S 0.73586 0.12615 0.04995 0.0
N314 N 0.6859 0.09399 0.061 0.0
N315 N 0.7103 0.17967 0.03876 0.0
C316 C 0.65852 0.17306 0.04373 0.0
C317 C 0.64519 0.1265 0.05577 0.0
C318 C 0.85443 0.07351 0.31278 0.0
C319 C 0.85191 0.02532 0.32427 0.0
C320 C 0.81075 0.0935 0.30119 0.0
C321 C 0.76292 0.06588 0.30037 0.0
H322 H 0.89025 0.0965 0.31294 0.0
H323 H 0.81466 0.13085 0.29273 0.0
S324 S 0.73525 0.93788 0.3275 0.0
N325 N 0.79713 0.95049 0.33402 0.0
N326 N 0.71542 0.9878 0.3121 0.0
C327 C 0.75983 0.01749 0.31163 0.0
C328 C 0.80417 0.99732 0.32361 0.0
C329 C 0.94534 0.39558 0.53486 0.0
C330 C 0.93832 0.40503 0.55768 0.0
C331 C 0.92492 0.35038 0.52481 0.0
C332 C 0.89562 0.31358 0.53709 0.0
H333 H 0.96797 0.42258 0.52477 0.0
H334 H 0.93269 0.34392 0.50733 0.0
S335 S 0.86338 0.32143 0.59711 0.0
N336 N 0.89853 0.3746 0.59214 0.0
N337 N 0.85914 0.29037 0.57312 0.0
C338 C 0.88678 0.32337 0.55975 0.0
C339 C 0.90847 0.36886 0.57009 0.0
C340 C 0.66725 0.05032 0.46677 0.0
C341 C 0.6239 0.08423 0.46392 0.0
C342 C 0.71285 0.06673 0.47784 0.0
C343 C 0.71722 0.11781 0.48648 0.0
H344 H 0.66643 0.01085 0.46014 0.0
H345 H 0.74537 0.03929 0.4792 0.0
S346 S 0.61419 0.22132 0.48458 0.0
N347 N 0.58758 0.17095 0.47155 0.0
N348 N 0.6735 0.20168 0.49226 0.0
C349 C 0.67379 0.15181 0.4843 0.0
C350 C 0.62713 0.13505 0.47305 0.0
C351 C 0.9367 0.15022 0.71756 0.0
C352 C 0.98915 0.15183 0.70984 0.0
C353 C 0.9135 0.19343 0.72823 0.0
C354 C 0.94179 0.24003 0.73177 0.0
H355 H 0.91281 0.11559 0.71502 0.0
H356 H 0.87285 0.19036 0.73356 0.0
S357 S 0.081 0.26425 0.71565 0.0
N358 N 0.06914 0.20389 0.70714 0.0
N359 N 0.02577 0.28473 0.72725 0.0
C360 C 0.99461 0.2419 0.72457 0.0
C361 C 0.01819 0.19796 0.71362 0.0
C362 C 0.81919 0.50284 0.96245 0.0
C363 C 0.86696 0.47626 0.95858 0.0
C364 C 0.77779 0.47888 0.97401 0.0
C365 C 0.7823 0.42725 0.98217 0.0
H366 H 0.81325 0.54234 0.95625 0.0
H367 H 0.74157 0.50084 0.97621 0.0
S368 S 0.8998 0.34101 0.97746 0.0
N369 N 0.91693 0.39564 0.96463 0.0
N370 N 0.83901 0.35082 0.98627 0.0
C371 C 0.83018 0.40052 0.9789 0.0
C372 C 0.87249 0.42494 0.96714 0.0
C373 C 0.53742 0.33243 0.21947 0.0
C374 C 0.57685 0.36978 0.21505 0.0
C375 C 0.54881 0.28577 0.23094 0.0
C376 C 0.60005 0.27452 0.2386 0.0
H377 H 0.49742 0.33882 0.21376 0.0
H378 H 0.51716 0.25804 0.23361 0.0
S379 S 0.71757 0.35942 0.23187 0.0
N380 N 0.66946 0.39238 0.2197 0.0
N381 N 0.69052 0.30492 0.24127 0.0
C382 C 0.63971 0.31182 0.2347 0.0
C383 C 0.62822 0.35931 0.22293 0.0
C384 C 0.97942 0.9498 0.43748 0.0
C385 C 0.99404 0.92752 0.41695 0.0
C386 C 0.00411 0.93468 0.45735 0.0
C387 C 0.0441 0.89642 0.45752 0.0
H388 H 0.95107 0.98161 0.43815 0.0
H389 H 0.99351 0.95508 0.47249 0.0
S390 S 0.08995 0.81897 0.40895 0.0
N391 N 0.04602 0.86009 0.39854 0.0
N392 N 0.09213 0.83143 0.43584 0.0
C393 C 0.05582 0.87055 0.43744 0.0
C394 C 0.03082 0.88611 0.41718 0.0
C395 C 0.11821 0.53533 0.66679 0.0
C396 C 0.08236 0.49333 0.66565 0.0
C397 C 0.13302 0.55709 0.68721 0.0
C398 C 0.11253 0.53775 0.70732 0.0
H399 H 0.13262 0.55381 0.65175 0.0
H400 H 0.15838 0.59119 0.6871 0.0
S401 S 0.02642 0.42127 0.7139 0.0
N402 N 0.0335 0.42787 0.68677 0.0
N403 N 0.06103 0.46918 0.72511 0.0
C404 C 0.08052 0.49283 0.7066 0.0
C405 C 0.06562 0.47041 0.68579 0.0
C406 C 0.49078 0.56427 0.92494 0.0
C407 C 0.46577 0.5886 0.90674 0.0
C408 C 0.47962 0.5798 0.94685 0.0
C409 C 0.44373 0.62072 0.95126 0.0
H410 H 0.51625 0.53063 0.92235 0.0
H411 H 0.49744 0.55808 0.9604 0.0
S412 S 0.37348 0.70125 0.90897 0.0
N413 N 0.40741 0.65815 0.89432 0.0
N414 N 0.38748 0.68866 0.93523 0.0
C415 C 0.42165 0.64783 0.93302 0.0
C416 C 0.43236 0.63137 0.91083 0.0
C417 C 0.36407 0.9421 0.16411 0.0
C418 C 0.40123 0.9817 0.15977 0.0
C419 C 0.35469 0.92429 0.18575 0.0
C420 C 0.38227 0.94513 0.20398 0.0
H421 H 0.34401 0.92254 0.15056 0.0
H422 H 0.32766 0.89189 0.18799 0.0
S423 S 0.47548 0.05692 0.20236 0.0
N424 N 0.4598 0.04687 0.17607 0.0
N425 N 0.44232 0.01282 0.21677 0.0
C426 C 0.4161 0.9878 0.2002 0.0
C427 C 0.42542 0.00635 0.1781 0.0
C428 C 0.02832 0.62683 0.8615 0.0
C429 C 0.98402 0.5937 0.8624 0.0
C430 C 0.05216 0.6397 0.84122 0.0
C431 C 0.03268 0.61998 0.82102 0.0
H432 H 0.04688 0.64045 0.87664 0.0
H433 H 0.08782 0.66293 0.84155 0.0
S434 S 0.91126 0.54096 0.81371 0.0
N435 N 0.91676 0.54838 0.84086 0.0
N436 N 0.96193 0.57228 0.80282 0.0
C437 C 0.98572 0.59081 0.82146 0.0
C438 C 0.96121 0.57788 0.84212 0.0
C439 C 0.42339 0.5163 0.10416 0.0
C440 C 0.40043 0.54385 0.12197 0.0
C441 C 0.41409 0.53124 0.08203 0.0
C442 C 0.3807 0.57373 0.07691 0.0
H443 H 0.45158 0.48537 0.10739 0.0
H444 H 0.43481 0.51066 0.06893 0.0
S445 S 0.30555 0.65406 0.1176 0.0
N446 N 0.33951 0.6124 0.13305 0.0
N447 N 0.32045 0.63977 0.09161 0.0
C448 C 0.35445 0.59904 0.09458 0.0
C449 C 0.36472 0.58431 0.11707 0.0
C450 C 0.45366 0.85071 0.36319 0.0
C451 C 0.49204 0.88884 0.36782 0.0
C452 C 0.43745 0.8406 0.3414 0.0
C453 C 0.45875 0.86839 0.3233 0.0
H454 H 0.43378 0.83037 0.37659 0.0
H455 H 0.40583 0.81276 0.33892 0.0
S456 S 0.56748 0.9652 0.32587 0.0
N457 N 0.5563 0.94942 0.35207 0.0
N458 N 0.52552 0.93026 0.31107 0.0
C459 C 0.50033 0.90337 0.32743 0.0
C460 C 0.51715 0.91357 0.34969 0.0
C461 C 0.14285 0.91494 0.6164 0.0
C462 C 0.11759 0.96192 0.6226 0.0
C463 C 0.15475 0.90418 0.59415 0.0
C464 C 0.14106 0.93963 0.57716 0.0
H465 H 0.15084 0.88484 0.62869 0.0
H466 H 0.17161 0.86626 0.59013 0.0
S467 S 0.08422 0.07233 0.58474 0.0
N468 N 0.0867 0.04765 0.61013 0.0
N469 N 0.10812 0.02654 0.56817 0.0
C470 C 0.11984 0.98847 0.58321 0.0
C471 C 0.10851 0.99993 0.60598 0.0
C472 C 0.50752 0.3935 0.92294 0.0
C473 C 0.52746 0.3643 0.90492 0.0
C474 C 0.52791 0.38711 0.94441 0.0
C475 C 0.56862 0.35098 0.94876 0.0
H476 H 0.47843 0.42405 0.92027 0.0
H477 H 0.51323 0.41243 0.95747 0.0
S478 S 0.62813 0.25873 0.9081 0.0
N479 N 0.58557 0.29344 0.89339 0.0
N480 N 0.62355 0.28099 0.93378 0.0
C481 C 0.5858 0.31848 0.93128 0.0
C482 C 0.56525 0.32523 0.90937 0.0
C483 C 0.59826 1.00017 0.17586 0.0
C484 C 0.62412 0.02743 0.15869 0.0
C485 C 0.60658 0.01349 0.1982 0.0
C486 C 0.64127 0.05415 0.20408 0.0
H487 H 0.56812 0.97155 0.17201 0.0
H488 H 0.58334 0.99393 0.21081 0.0
S489 S 0.72571 0.13031 0.16538 0.0
N490 N 0.69083 0.09159 0.1491 0.0
N491 N 0.70728 0.11617 0.191 0.0
C492 C 0.67125 0.07786 0.18715 0.0
C493 C 0.66238 0.06463 0.16445 0.0
C494 C 0.93255 0.15951 0.40953 0.0
C495 C 0.97531 0.12545 0.40582 0.0
C496 C 0.91511 0.17078 0.43105 0.0
C497 C 0.93942 0.14811 0.44977 0.0
H498 H 0.91069 0.17584 0.39567 0.0
H499 H 0.88067 0.19558 0.43291 0.0
S500 S 0.05833 0.06318 0.44952 0.0
N501 N 0.04582 0.07426 0.42299 0.0
N502 N 0.01231 0.09509 0.46345 0.0
C503 C 0.98444 0.11689 0.44648 0.0
C504 C 0.00268 0.10578 0.42451 0.0
C505 C 0.9168 0.51591 0.67551 0.0
C506 C 0.88579 0.49933 0.65738 0.0
C507 C 0.9091 0.49525 0.69687 0.0
C508 C 0.8702 0.45725 0.70092 0.0
H509 H 0.94952 0.54246 0.67301 0.0
H510 H 0.93566 0.50722 0.71001 0.0
S511 S 0.77233 0.40804 0.66007 0.0
N512 N 0.81007 0.44818 0.64561 0.0
N513 N 0.7956 0.40933 0.68568 0.0
C514 C 0.8361 0.44372 0.68337 0.0
C515 C 0.8439 0.46479 0.66164 0.0
C516 C 0.51966 0.12003 0.35946 0.0
C517 C 0.47987 0.08166 0.35997 0.0
C518 C 0.5435 0.13493 0.33946 0.0
C519 C 0.52854 0.11212 0.31915 0.0
H520 H 0.53508 0.13636 0.37474 0.0
H521 H 0.57611 0.1622 0.34018 0.0
S522 S 0.41821 0.01898 0.31068 0.0
N523 N 0.42044 0.02785 0.33783 0.0
N524 N 0.46558 0.05589 0.30027 0.0
C525 C 0.48526 0.07779 0.3191 0.0
C526 C 0.46075 0.06264 0.3395 0.0
C527 C 0.96159 0.10629 0.60262 0.0
C528 C 0.93812 0.06332 0.61351 0.0
C529 C 0.94855 0.11949 0.58079 0.0
C530 C 0.91016 0.09145 0.56907 0.0
H531 H 0.99121 0.12986 0.61083 0.0
H532 H 0.96786 0.15298 0.57327 0.0
S533 S 0.8348 0.97708 0.58991 0.0
N534 N 0.87406 0.99277 0.61078 0.0
N535 N 0.84742 0.01959 0.56984 0.0
C536 C 0.88527 0.04906 0.57972 0.0
C537 C 0.89974 0.03451 0.60191 0.0
C538 C 0.99925 0.4305 0.84806 0.0
C539 C 0.98041 0.40034 0.86602 0.0
C540 C 0.98146 0.42163 0.82631 0.0
C541 C 0.9444 0.3822 0.82171 0.0
H542 H 0.02555 0.4632 0.85091 0.0
H543 H 0.9954 0.4472 0.81318 0.0
S544 S 0.88842 0.28786 0.86246 0.0
N545 N 0.92684 0.32621 0.87742 0.0
N546 N 0.89357 0.30925 0.83666 0.0
C547 C 0.92804 0.34951 0.8393 0.0
C548 C 0.94598 0.35871 0.86142 0.0
C549 C 0.54378 0.42119 0.09806 0.0
C550 C 0.57793 0.44418 0.11366 0.0
C551 C 0.55925 0.41314 0.0761 0.0
C552 C 0.61028 0.42584 0.06901 0.0
H553 H 0.50459 0.40884 0.10285 0.0
H554 H 0.53171 0.39444 0.06487 0.0
S555 S 0.715 0.48712 0.10315 0.0
N556 N 0.66456 0.48132 0.12034 0.0
N557 N 0.69511 0.46306 0.07907 0.0
C558 C 0.64502 0.44909 0.08431 0.0
C559 C 0.62848 0.45908 0.10664 0.0
loop_
_geom_bond_atom_site_label_1
_geom_bond_atom_site_label_2
_geom_bond_distance
_geom_bond_site_symmetry_2
_ccdc_geom_bond_type
Mg0 O7 2.141 1_545 S
Mg0 O8 2.048 1_545 S
Mg0 O9 2.048 1_455 S
Mg0 O12 2.141 1_455 S
C1 O2 1.313 . S
C1 O8 1.195 . S
O2 C1 1.313 . S
C3 O4 1.245 . S
C3 O12 1.289 . S
O4 C3 1.245 . S
C5 O6 1.245 . S
C5 O7 1.289 . S
O6 C5 1.245 . S
O7 Mg0 2.141 1_565 S
O7 C5 1.289 . S
O8 Mg0 2.048 1_565 S
O8 C1 1.195 . S
O9 Mg0 2.048 1_655 S
O9 C10 1.195 . S
C10 O9 1.195 . S
C10 O11 1.313 1_545 S
O11 C10 1.313 1_565 S
O12 Mg0 2.141 1_655 S
O12 C3 1.289 . S
Mg13 O20 2.141 1_655 S
Mg13 O21 2.048 1_655 S
Mg13 O22 2.048 . S
Mg13 O25 2.141 . S
C14 O15 1.313 . S
C14 O21 1.195 . S
O15 C14 1.313 . S
C16 O17 1.245 . S
C16 O25 1.289 . S
O17 C16 1.245 . S
C18 O19 1.245 . S
C18 O20 1.289 . S
O19 C18 1.245 . S
O20 Mg13 2.141 1_455 S
O20 C18 1.289 . S
O21 Mg13 2.048 1_455 S
O21 C14 1.195 . S
O22 Mg13 2.048 . S
O22 C23 1.195 . S
C23 O22 1.195 . S
C23 O24 1.313 1_655 S
O24 C23 1.313 1_455 S
O25 Mg13 2.141 . S
O25 C16 1.289 . S
Mg26 O33 2.141 . S
Mg26 O34 2.048 . S
Mg26 O35 2.048 . S
Mg26 O38 2.141 . S
C27 O28 1.313 . S
C27 O34 1.195 . S
O28 C27 1.313 . S
C29 O30 1.245 . S
C29 O38 1.289 . S
O30 C29 1.245 . S
C31 O32 1.245 . S
C31 O33 1.289 . S
O32 C31 1.245 . S
O33 Mg26 2.141 . S
O33 C31 1.289 . S
O34 Mg26 2.048 . S
O34 C27 1.195 . S
O35 Mg26 2.048 . S
O35 C36 1.195 . S
C36 O35 1.195 . S
C36 O37 1.313 . S
O37 C36 1.313 . S
O38 Mg26 2.141 . S
O38 C29 1.289 . S
Mg39 O46 2.141 . S
Mg39 O47 2.048 . S
Mg39 O48 2.048 1_545 S
Mg39 O51 2.141 1_545 S
C40 O41 1.313 . S
C40 O47 1.195 . S
O41 C40 1.313 . S
C42 O43 1.245 . S
C42 O51 1.289 . S
O43 C42 1.245 . S
C44 O45 1.245 . S
C44 O46 1.289 . S
O45 C44 1.245 . S
O46 Mg39 2.141 . S
O46 C44 1.289 . S
O47 Mg39 2.048 . S
O47 C40 1.195 . S
O48 Mg39 2.048 1_565 S
O48 C49 1.195 . S
C49 O48 1.195 . S
C49 O50 1.313 . S
O50 C49 1.313 . S
O51 Mg39 2.141 1_565 S
O51 C42 1.289 . S
Mg52 O59 2.141 . S
Mg52 O60 2.048 . S
Mg52 O61 2.048 1_455 S
Mg52 O64 2.141 1_455 S
C53 O54 1.313 . S
C53 O60 1.195 . S
O54 C53 1.313 . S
C55 O56 1.245 . S
C55 O64 1.289 . S
O56 C55 1.245 . S
C57 O58 1.245 . S
C57 O59 1.289 . S
O58 C57 1.245 . S
O59 Mg52 2.141 . S
O59 C57 1.289 . S
O60 Mg52 2.048 . S
O60 C53 1.195 . S
O61 Mg52 2.048 1_655 S
O61 C62 1.195 . S
C62 O61 1.195 . S
C62 O63 1.313 . S
O63 C62 1.313 . S
O64 Mg52 2.141 1_655 S
O64 C55 1.289 . S
Mg65 O72 2.141 . S
Mg65 O73 2.048 . S
Mg65 O74 2.048 . S
Mg65 O77 2.141 . S
C66 O67 1.313 . S
C66 O73 1.195 . S
O67 C66 1.313 . S
C68 O69 1.245 . S
C68 O77 1.289 . S
O69 C68 1.245 . S
C70 O71 1.245 . S
C70 O72 1.289 . S
O71 C70 1.245 . S
O72 Mg65 2.141 . S
O72 C70 1.289 . S
O73 Mg65 2.048 . S
O73 C66 1.195 . S
O74 Mg65 2.048 . S
O74 C75 1.195 . S
C75 O74 1.195 . S
C75 O76 1.313 . S
O76 C75 1.313 . S
O77 Mg65 2.141 . S
O77 C68 1.289 . S
Mg78 O85 2.141 1_565 S
Mg78 O86 2.048 1_565 S
Mg78 O87 2.048 . S
Mg78 O90 2.141 . S
C79 O80 1.313 . S
C79 O86 1.195 . S
O80 C79 1.313 . S
C81 O82 1.245 . S
C81 O90 1.289 . S
O82 C81 1.245 . S
C83 O84 1.245 . S
C83 O85 1.289 . S
O84 C83 1.245 . S
O85 Mg78 2.141 1_545 S
O85 C83 1.289 . S
O86 Mg78 2.048 1_545 S
O86 C79 1.195 . S
O87 Mg78 2.048 . S
O87 C88 1.195 . S
C88 O87 1.195 . S
C88 O89 1.313 1_565 S
O89 C88 1.313 1_545 S
O90 Mg78 2.141 . S
O90 C81 1.289 . S
Mg91 O98 2.141 1_655 S
Mg91 O99 2.048 1_655 S
Mg91 O100 2.048 1_565 S
Mg91 O103 2.141 1_565 S
C92 O93 1.313 . S
C92 O99 1.195 . S
O93 C92 1.313 . S
C94 O95 1.245 . S
C94 O103 1.289 . S
O95 C94 1.245 . S
C96 O97 1.245 . S
C96 O98 1.289 . S
O97 C96 1.245 . S
O98 Mg91 2.141 1_455 S
O98 C96 1.289 . S
O99 Mg91 2.048 1_455 S
O99 C92 1.195 . S
O100 Mg91 2.048 1_545 S
O100 C101 1.195 . S
C101 O100 1.195 . S
C101 O102 1.313 1_655 S
O102 C101 1.313 1_455 S
O103 Mg91 2.141 1_545 S
O103 C94 1.289 . S
In104 O105 2.294 . S
In104 O106 2.326 . S
In104 O110 2.266 1_554 S
In104 O111 2.326 1_554 S
In104 O112 2.266 1_554 S
In104 O113 2.326 1_554 S
In104 O115 2.294 . S
In104 O116 2.326 . S
O105 In104 2.294 . S
O105 C114 1.240 . S
O106 In104 2.326 . S
O106 C114 1.252 . S
C107 O110 1.252 . S
C107 O111 1.260 . S
C108 O115 1.240 . S
C108 O116 1.252 . S
C109 O112 1.252 . S
C109 O113 1.260 . S
O110 In104 2.266 1_556 S
O110 C107 1.252 . S
O111 In104 2.326 1_556 S
O111 C107 1.260 . S
O112 In104 2.266 1_556 S
O112 C109 1.252 . S
O113 In104 2.326 1_556 S
O113 C109 1.260 . S
C114 O105 1.240 . S
C114 O106 1.252 . S
O115 In104 2.294 . S
O115 C108 1.240 . S
O116 In104 2.326 . S
O116 C108 1.252 . S
In117 O118 2.294 . S
In117 O119 2.326 . S
In117 O123 2.266 . S
In117 O124 2.326 . S
In117 O125 2.266 . S
In117 O126 2.326 . S
In117 O128 2.294 . S
In117 O129 2.326 . S
O118 In117 2.294 . S
O118 C127 1.240 . S
O119 In117 2.326 . S
O119 C127 1.252 . S
C120 O123 1.252 . S
C120 O124 1.260 . S
C121 O128 1.240 . S
C121 O129 1.252 . S
C122 O125 1.252 . S
C122 O126 1.260 . S
O123 In117 2.266 . S
O123 C120 1.252 . S
O124 In117 2.326 . S
O124 C120 1.260 . S
O125 In117 2.266 . S
O125 C122 1.252 . S
O126 In117 2.326 . S
O126 C122 1.260 . S
C127 O118 1.240 . S
C127 O119 1.252 . S
O128 In117 2.294 . S
O128 C121 1.240 . S
O129 In117 2.326 . S
O129 C121 1.252 . S
In130 O131 2.294 . S
In130 O132 2.326 . S
In130 O136 2.266 . S
In130 O137 2.326 . S
In130 O138 2.266 . S
In130 O139 2.326 . S
In130 O141 2.294 . S
In130 O142 2.326 . S
O131 In130 2.294 . S
O131 C140 1.240 . S
O132 In130 2.326 . S
O132 C140 1.252 . S
C133 O136 1.252 . S
C133 O137 1.260 . S
C134 O141 1.240 . S
C134 O142 1.252 . S
C135 O138 1.252 . S
C135 O139 1.260 . S
O136 In130 2.266 . S
O136 C133 1.252 . S
O137 In130 2.326 . S
O137 C133 1.260 . S
O138 In130 2.266 . S
O138 C135 1.252 . S
O139 In130 2.326 . S
O139 C135 1.260 . S
C140 O131 1.240 . S
C140 O132 1.252 . S
O141 In130 2.294 . S
O141 C134 1.240 . S
O142 In130 2.326 . S
O142 C134 1.252 . S
In143 O144 2.294 . S
In143 O145 2.326 . S
In143 O149 2.266 . S
In143 O150 2.326 . S
In143 O151 2.266 . S
In143 O152 2.326 . S
In143 O154 2.294 . S
In143 O155 2.326 . S
O144 In143 2.294 . S
O144 C153 1.240 . S
O145 In143 2.326 . S
O145 C153 1.252 . S
C146 O149 1.252 . S
C146 O150 1.260 . S
C147 O154 1.240 . S
C147 O155 1.252 . S
C148 O151 1.252 . S
C148 O152 1.260 . S
O149 In143 2.266 . S
O149 C146 1.252 . S
O150 In143 2.326 . S
O150 C146 1.260 . S
O151 In143 2.266 . S
O151 C148 1.252 . S
O152 In143 2.326 . S
O152 C148 1.260 . S
C153 O144 1.240 . S
C153 O145 1.252 . S
O154 In143 2.294 . S
O154 C147 1.240 . S
O155 In143 2.326 . S
O155 C147 1.252 . S
In156 O157 2.294 . S
In156 O158 2.326 . S
In156 O162 2.266 . S
In156 O163 2.326 . S
In156 O164 2.266 . S
In156 O165 2.326 . S
In156 O167 2.294 . S
In156 O168 2.326 . S
O157 In156 2.294 . S
O157 C166 1.240 . S
O158 In156 2.326 . S
O158 C166 1.252 . S
C159 O162 1.252 . S
C159 O163 1.260 . S
C160 O167 1.240 . S
C160 O168 1.252 . S
C161 O164 1.252 . S
C161 O165 1.260 . S
O162 In156 2.266 . S
O162 C159 1.252 . S
O163 In156 2.326 . S
O163 C159 1.260 . S
O164 In156 2.266 . S
O164 C161 1.252 . S
O165 In156 2.326 . S
O165 C161 1.260 . S
C166 O157 1.240 . S
C166 O158 1.252 . S
O167 In156 2.294 . S
O167 C160 1.240 . S
O168 In156 2.326 . S
O168 C160 1.252 . S
In169 O170 2.294 . S
In169 O171 2.326 . S
In169 O175 2.266 . S
In169 O176 2.326 . S
In169 O177 2.266 . S
In169 O178 2.326 . S
In169 O180 2.294 . S
In169 O181 2.326 . S
O170 In169 2.294 . S
O170 C179 1.240 . S
O171 In169 2.326 . S
O171 C179 1.252 . S
C172 O175 1.252 . S
C172 O176 1.260 . S
C173 O180 1.240 . S
C173 O181 1.252 . S
C174 O177 1.252 . S
C174 O178 1.260 . S
O175 In169 2.266 . S
O175 C172 1.252 . S
O176 In169 2.326 . S
O176 C172 1.260 . S
O177 In169 2.266 . S
O177 C174 1.252 . S
O178 In169 2.326 . S
O178 C174 1.260 . S
C179 O170 1.240 . S
C179 O171 1.252 . S
O180 In169 2.294 . S
O180 C173 1.240 . S
O181 In169 2.326 . S
O181 C173 1.252 . S
In182 O183 2.294 . S
In182 O184 2.326 . S
In182 O188 2.266 1_554 S
In182 O189 2.326 1_554 S
In182 O190 2.266 1_554 S
In182 O191 2.326 1_554 S
In182 O193 2.294 . S
In182 O194 2.326 . S
O183 In182 2.294 . S
O183 C192 1.240 . S
O184 In182 2.326 . S
O184 C192 1.252 . S
C185 O188 1.252 . S
C185 O189 1.260 . S
C186 O193 1.240 . S
C186 O194 1.252 . S
C187 O190 1.252 . S
C187 O191 1.260 . S
O188 In182 2.266 1_556 S
O188 C185 1.252 . S
O189 In182 2.326 1_556 S
O189 C185 1.260 . S
O190 In182 2.266 1_556 S
O190 C187 1.252 . S
O191 In182 2.326 1_556 S
O191 C187 1.260 . S
C192 O183 1.240 . S
C192 O184 1.252 . S
O193 In182 2.294 . S
O193 C186 1.240 . S
O194 In182 2.326 . S
O194 C186 1.252 . S
In195 O196 2.294 . S
In195 O197 2.326 . S
In195 O201 2.266 . S
In195 O202 2.326 . S
In195 O203 2.266 . S
In195 O204 2.326 . S
In195 O206 2.294 . S
In195 O207 2.326 . S
O196 In195 2.294 . S
O196 C205 1.240 . S
O197 In195 2.326 . S
O197 C205 1.252 . S
C198 O201 1.252 . S
C198 O202 1.260 . S
C199 O206 1.240 . S
C199 O207 1.252 . S
C200 O203 1.252 . S
C200 O204 1.260 . S
O201 In195 2.266 . S
O201 C198 1.252 . S
O202 In195 2.326 . S
O202 C198 1.260 . S
O203 In195 2.266 . S
O203 C200 1.252 . S
O204 In195 2.326 . S
O204 C200 1.260 . S
C205 O196 1.240 . S
C205 O197 1.252 . S
O206 In195 2.294 . S
O206 C199 1.240 . S
O207 In195 2.326 . S
O207 C199 1.252 . S
C208 C209 1.369 . S
C208 C210 1.419 . S
C208 H212 0.930 . S
C209 C208 1.369 . S
C209 C218 1.429 . S
C210 C208 1.419 . S
C210 C211 1.363 . S
C210 H213 0.929 . S
C211 C210 1.363 . S
C211 C217 1.428 . S
H212 C208 0.930 . S
H213 C210 0.929 . S
S214 N215 1.613 . S
S214 N216 1.610 . S
N215 S214 1.613 . S
N215 C218 1.350 . S
N216 S214 1.610 . S
N216 C217 1.351 . S
C217 C211 1.428 . S
C217 N216 1.351 . S
C217 C218 1.434 . S
C218 C209 1.429 . S
C218 N215 1.350 . S
C218 C217 1.434 . S
C219 C220 1.369 . S
C219 C221 1.419 . S
C219 H223 0.930 . S
C220 C219 1.369 . S
C220 C229 1.429 . S
C221 C219 1.419 . S
C221 C222 1.363 . S
C221 H224 0.929 . S
C222 C221 1.363 . S
C222 C228 1.428 . S
H223 C219 0.930 . S
H224 C221 0.929 . S
S225 N226 1.613 . S
S225 N227 1.610 . S
N226 S225 1.613 . S
N226 C229 1.350 . S
N227 S225 1.610 . S
N227 C228 1.351 . S
C228 C222 1.428 . S
C228 N227 1.351 . S
C228 C229 1.434 . S
C229 C220 1.429 . S
C229 N226 1.350 . S
C229 C228 1.434 . S
C230 C231 1.369 . S
C230 C232 1.419 . S
C230 H234 0.930 . S
C231 C230 1.369 . S
C231 C240 1.429 . S
C232 C230 1.419 . S
C232 C233 1.363 . S
C232 H235 0.929 . S
C233 C232 1.363 . S
C233 C239 1.428 . S
H234 C230 0.930 . S
H235 C232 0.929 . S
S236 N237 1.613 . S
S236 N238 1.610 . S
N237 S236 1.613 . S
N237 C240 1.350 . S
N238 S236 1.610 . S
N238 C239 1.351 . S
C239 C233 1.428 . S
C239 N238 1.351 . S
C239 C240 1.434 . S
C240 C231 1.429 . S
C240 N237 1.350 . S
C240 C239 1.434 . S
C241 C242 1.369 . S
C241 C243 1.419 . S
C241 H245 0.930 . S
C242 C241 1.369 . S
C242 C251 1.429 . S
C243 C241 1.419 . S
C243 C244 1.363 . S
C243 H246 0.929 . S
C244 C243 1.363 . S
C244 C250 1.428 . S
H245 C241 0.930 . S
H246 C243 0.929 . S
S247 N248 1.613 . S
S247 N249 1.610 . S
N248 S247 1.613 . S
N248 C251 1.350 . S
N249 S247 1.610 . S
N249 C250 1.351 . S
C250 C244 1.428 . S
C250 N249 1.351 . S
C250 C251 1.434 . S
C251 C242 1.429 . S
C251 N248 1.350 . S
C251 C250 1.434 . S
C252 C253 1.369 . S
C252 C254 1.419 . S
C252 H256 0.930 . S
C253 C252 1.369 . S
C253 C262 1.429 . S
C254 C252 1.419 . S
C254 C255 1.363 . S
C254 H257 0.929 . S
C255 C254 1.363 . S
C255 C261 1.428 . S
H256 C252 0.930 . S
H257 C254 0.929 . S
S258 N259 1.613 . S
S258 N260 1.610 . S
N259 S258 1.613 . S
N259 C262 1.350 . S
N260 S258 1.610 . S
N260 C261 1.351 . S
C261 C255 1.428 . S
C261 N260 1.351 . S
C261 C262 1.434 . S
C262 C253 1.429 . S
C262 N259 1.350 . S
C262 C261 1.434 . S
C263 C264 1.369 . S
C263 C265 1.419 . S
C263 H267 0.930 . S
C264 C263 1.369 . S
C264 C273 1.429 . S
C265 C263 1.419 . S
C265 C266 1.363 . S
C265 H268 0.929 . S
C266 C265 1.363 . S
C266 C272 1.428 . S
H267 C263 0.930 . S
H268 C265 0.929 . S
S269 N270 1.613 . S
S269 N271 1.610 . S
N270 S269 1.613 . S
N270 C273 1.350 . S
N271 S269 1.610 . S
N271 C272 1.351 . S
C272 C266 1.428 . S
C272 N271 1.351 . S
C272 C273 1.434 . S
C273 C264 1.429 . S
C273 N270 1.350 . S
C273 C272 1.434 . S
C274 C275 1.369 . S
C274 C276 1.419 . S
C274 H278 0.930 . S
C275 C274 1.369 . S
C275 C284 1.429 . S
C276 C274 1.419 . S
C276 C277 1.363 . S
C276 H279 0.929 . S
C277 C276 1.363 . S
C277 C283 1.428 . S
H278 C274 0.930 . S
H279 C276 0.929 . S
S280 N281 1.613 . S
S280 N282 1.610 . S
N281 S280 1.613 . S
N281 C284 1.350 . S
N282 S280 1.610 . S
N282 C283 1.351 . S
C283 C277 1.428 . S
C283 N282 1.351 . S
C283 C284 1.434 . S
C284 C275 1.429 . S
C284 N281 1.350 . S
C284 C283 1.434 . S
C285 C286 1.369 . S
C285 C287 1.419 . S
C285 H289 0.930 . S
C286 C285 1.369 . S
C286 C295 1.429 . S
C287 C285 1.419 . S
C287 C288 1.363 . S
C287 H290 0.929 . S
C288 C287 1.363 . S
C288 C294 1.428 . S
H289 C285 0.930 . S
H290 C287 0.929 . S
S291 N292 1.613 . S
S291 N293 1.610 . S
N292 S291 1.613 . S
N292 C295 1.350 . S
N293 S291 1.610 . S
N293 C294 1.351 . S
C294 C288 1.428 . S
C294 N293 1.351 . S
C294 C295 1.434 . S
C295 C286 1.429 . S
C295 N292 1.350 . S
C295 C294 1.434 . S
C296 C297 1.369 . S
C296 C298 1.419 . S
C296 H300 0.930 . S
C297 C296 1.369 . S
C297 C306 1.429 . S
C298 C296 1.419 . S
C298 C299 1.363 . S
C298 H301 0.929 . S
C299 C298 1.363 . S
C299 C305 1.428 . S
H300 C296 0.930 . S
H301 C298 0.929 . S
S302 N303 1.613 . S
S302 N304 1.610 . S
N303 S302 1.613 . S
N303 C306 1.350 . S
N304 S302 1.610 . S
N304 C305 1.351 . S
C305 C299 1.428 . S
C305 N304 1.351 . S
C305 C306 1.434 . S
C306 C297 1.429 . S
C306 N303 1.350 . S
C306 C305 1.434 . S
C307 C308 1.369 . S
C307 C309 1.419 . S
C307 H311 0.930 . S
C308 C307 1.369 . S
C308 C317 1.429 . S
C309 C307 1.419 . S
C309 C310 1.363 . S
C309 H312 0.929 . S
C310 C309 1.363 . S
C310 C316 1.428 . S
H311 C307 0.930 . S
H312 C309 0.929 . S
S313 N314 1.613 . S
S313 N315 1.610 . S
N314 S313 1.613 . S
N314 C317 1.350 . S
N315 S313 1.610 . S
N315 C316 1.351 . S
C316 C310 1.428 . S
C316 N315 1.351 . S
C316 C317 1.434 . S
C317 C308 1.429 . S
C317 N314 1.350 . S
C317 C316 1.434 . S
C318 C319 1.369 . S
C318 C320 1.419 . S
C318 H322 0.930 . S
C319 C318 1.369 . S
C319 C328 1.429 . S
C320 C318 1.419 . S
C320 C321 1.363 . S
C320 H323 0.929 . S
C321 C320 1.363 . S
C321 C327 1.428 . S
H322 C318 0.930 . S
H323 C320 0.929 . S
S324 N325 1.613 . S
S324 N326 1.610 . S
N325 S324 1.613 . S
N325 C328 1.350 . S
N326 S324 1.610 . S
N326 C327 1.351 . S
C327 C321 1.428 . S
C327 N326 1.351 . S
C327 C328 1.434 . S
C328 C319 1.429 . S
C328 N325 1.350 . S
C328 C327 1.434 . S
C329 C330 1.369 . S
C329 C331 1.419 . S
C329 H333 0.930 . S
C330 C329 1.369 . S
C330 C339 1.429 . S
C331 C329 1.419 . S
C331 C332 1.363 . S
C331 H334 0.929 . S
C332 C331 1.363 . S
C332 C338 1.428 . S
H333 C329 0.930 . S
H334 C331 0.929 . S
S335 N336 1.613 . S
S335 N337 1.610 . S
N336 S335 1.613 . S
N336 C339 1.350 . S
N337 S335 1.610 . S
N337 C338 1.351 . S
C338 C332 1.428 . S
C338 N337 1.351 . S
C338 C339 1.434 . S
C339 C330 1.429 . S
C339 N336 1.350 . S
C339 C338 1.434 . S
C340 C341 1.369 . S
C340 C342 1.419 . S
C340 H344 0.930 . S
C341 C340 1.369 . S
C341 C350 1.429 . S
C342 C340 1.419 . S
C342 C343 1.363 . S
C342 H345 0.929 . S
C343 C342 1.363 . S
C343 C349 1.428 . S
H344 C340 0.930 . S
H345 C342 0.929 . S
S346 N347 1.613 . S
S346 N348 1.610 . S
N347 S346 1.613 . S
N347 C350 1.350 . S
N348 S346 1.610 . S
N348 C349 1.351 . S
C349 C343 1.428 . S
C349 N348 1.351 . S
C349 C350 1.434 . S
C350 C341 1.429 . S
C350 N347 1.350 . S
C350 C349 1.434 . S
C351 C352 1.369 . S
C351 C353 1.419 . S
C351 H355 0.930 . S
C352 C351 1.369 . S
C352 C361 1.429 . S
C353 C351 1.419 . S
C353 C354 1.363 . S
C353 H356 0.929 . S
C354 C353 1.363 . S
C354 C360 1.428 . S
H355 C351 0.930 . S
H356 C353 0.929 . S
S357 N358 1.613 . S
S357 N359 1.610 . S
N358 S357 1.613 . S
N358 C361 1.350 . S
N359 S357 1.610 . S
N359 C360 1.351 . S
C360 C354 1.428 . S
C360 N359 1.351 . S
C360 C361 1.434 . S
C361 C352 1.429 . S
C361 N358 1.350 . S
C361 C360 1.434 . S
C362 C363 1.369 . S
C362 C364 1.419 . S
C362 H366 0.930 . S
C363 C362 1.369 . S
C363 C372 1.429 . S
C364 C362 1.419 . S
C364 C365 1.363 . S
C364 H367 0.929 . S
C365 C364 1.363 . S
C365 C371 1.428 . S
H366 C362 0.930 . S
H367 C364 0.929 . S
S368 N369 1.613 1_554 S
S368 N370 1.610 . S
N369 S368 1.613 1_556 S
N369 C372 1.350 . S
N370 S368 1.610 . S
N370 C371 1.351 1_554 S
C371 C365 1.428 . S
C371 N370 1.351 1_556 S
C371 C372 1.434 . S
C372 C363 1.429 . S
C372 N369 1.350 . S
C372 C371 1.434 . S
C373 C374 1.369 . S
C373 C375 1.419 . S
C373 H377 0.930 . S
C374 C373 1.369 . S
C374 C383 1.429 . S
C375 C373 1.419 . S
C375 C376 1.363 . S
C375 H378 0.929 . S
C376 C375 1.363 . S
C376 C382 1.428 . S
H377 C373 0.930 . S
H378 C375 0.929 . S
S379 N380 1.613 . S
S379 N381 1.610 . S
N380 S379 1.613 . S
N380 C383 1.350 . S
N381 S379 1.610 . S
N381 C382 1.351 . S
C382 C376 1.428 . S
C382 N381 1.351 . S
C382 C383 1.434 . S
C383 C374 1.429 . S
C383 N380 1.350 . S
C383 C382 1.434 . S
C384 C385 1.369 . S
C384 C386 1.419 . S
C384 H388 0.930 . S
C385 C384 1.369 . S
C385 C394 1.429 . S
C386 C384 1.419 . S
C386 C387 1.363 . S
C386 H389 0.929 . S
C387 C386 1.363 . S
C387 C393 1.428 . S
H388 C384 0.930 . S
H389 C386 0.929 . S
S390 N391 1.613 . S
S390 N392 1.610 . S
N391 S390 1.613 . S
N391 C394 1.350 . S
N392 S390 1.610 . S
N392 C393 1.351 . S
C393 C387 1.428 . S
C393 N392 1.351 . S
C393 C394 1.434 . S
C394 C385 1.429 . S
C394 N391 1.350 . S
C394 C393 1.434 . S
C395 C396 1.369 . S
C395 C397 1.419 . S
C395 H399 0.930 . S
C396 C395 1.369 . S
C396 C405 1.429 . S
C397 C395 1.419 . S
C397 C398 1.363 . S
C397 H400 0.929 . S
C398 C397 1.363 . S
C398 C404 1.428 . S
H399 C395 0.930 . S
H400 C397 0.929 . S
S401 N402 1.613 . S
S401 N403 1.610 . S
N402 S401 1.613 . S
N402 C405 1.350 . S
N403 S401 1.610 . S
N403 C404 1.351 . S
C404 C398 1.428 . S
C404 N403 1.351 . S
C404 C405 1.434 . S
C405 C396 1.429 . S
C405 N402 1.350 . S
C405 C404 1.434 . S
C406 C407 1.369 . S
C406 C408 1.419 . S
C406 H410 0.930 . S
C407 C406 1.369 . S
C407 C416 1.429 . S
C408 C406 1.419 . S
C408 C409 1.363 . S
C408 H411 0.929 . S
C409 C408 1.363 . S
C409 C415 1.428 . S
H410 C406 0.930 . S
H411 C408 0.929 . S
S412 N413 1.613 . S
S412 N414 1.610 . S
N413 S412 1.613 . S
N413 C416 1.350 . S
N414 S412 1.610 . S
N414 C415 1.351 . S
C415 C409 1.428 . S
C415 N414 1.351 . S
C415 C416 1.434 . S
C416 C407 1.429 . S
C416 N413 1.350 . S
C416 C415 1.434 . S
C417 C418 1.369 . S
C417 C419 1.419 . S
C417 H421 0.930 . S
C418 C417 1.369 . S
C418 C427 1.429 . S
C419 C417 1.419 . S
C419 C420 1.363 . S
C419 H422 0.929 . S
C420 C419 1.363 . S
C420 C426 1.428 . S
H421 C417 0.930 . S
H422 C419 0.929 . S
S423 N424 1.613 1_545 S
S423 N425 1.610 1_545 S
N424 S423 1.613 1_565 S
N424 C427 1.350 . S
N425 S423 1.610 1_565 S
N425 C426 1.351 . S
C426 C420 1.428 . S
C426 N425 1.351 . S
C426 C427 1.434 . S
C427 C418 1.429 . S
C427 N424 1.350 . S
C427 C426 1.434 . S
C428 C429 1.369 . S
C428 C430 1.419 . S
C428 H432 0.930 . S
C429 C428 1.369 . S
C429 C438 1.429 . S
C430 C428 1.419 . S
C430 C431 1.363 . S
C430 H433 0.929 . S
C431 C430 1.363 . S
C431 C437 1.428 . S
H432 C428 0.930 . S
H433 C430 0.929 . S
S434 N435 1.613 1_655 S
S434 N436 1.610 1_655 S
N435 S434 1.613 1_455 S
N435 C438 1.350 . S
N436 S434 1.610 1_455 S
N436 C437 1.351 . S
C437 C431 1.428 . S
C437 N436 1.351 . S
C437 C438 1.434 . S
C438 C429 1.429 . S
C438 N435 1.350 . S
C438 C437 1.434 . S
C439 C440 1.369 . S
C439 C441 1.419 . S
C439 H443 0.930 . S
C440 C439 1.369 . S
C440 C449 1.429 . S
C441 C439 1.419 . S
C441 C442 1.363 . S
C441 H444 0.929 . S
C442 C441 1.363 . S
C442 C448 1.428 . S
H443 C439 0.930 . S
H444 C441 0.929 . S
S445 N446 1.613 . S
S445 N447 1.610 . S
N446 S445 1.613 . S
N446 C449 1.350 . S
N447 S445 1.610 . S
N447 C448 1.351 . S
C448 C442 1.428 . S
C448 N447 1.351 . S
C448 C449 1.434 . S
C449 C440 1.429 . S
C449 N446 1.350 . S
C449 C448 1.434 . S
C450 C451 1.369 . S
C450 C452 1.419 . S
C450 H454 0.930 . S
C451 C450 1.369 . S
C451 C460 1.429 . S
C452 C450 1.419 . S
C452 C453 1.363 . S
C452 H455 0.929 . S
C453 C452 1.363 . S
C453 C459 1.428 . S
H454 C450 0.930 . S
H455 C452 0.929 . S
S456 N457 1.613 . S
S456 N458 1.610 . S
N457 S456 1.613 . S
N457 C460 1.350 . S
N458 S456 1.610 . S
N458 C459 1.351 . S
C459 C453 1.428 . S
C459 N458 1.351 . S
C459 C460 1.434 . S
C460 C451 1.429 . S
C460 N457 1.350 . S
C460 C459 1.434 . S
C461 C462 1.369 . S
C461 C463 1.419 . S
C461 H465 0.930 . S
C462 C461 1.369 . S
C462 C471 1.429 . S
C463 C461 1.419 . S
C463 C464 1.363 . S
C463 H466 0.929 . S
C464 C463 1.363 . S
C464 C470 1.428 . S
H465 C461 0.930 . S
H466 C463 0.929 . S
S467 N468 1.613 . S
S467 N469 1.610 . S
N468 S467 1.613 . S
N468 C471 1.350 . S
N469 S467 1.610 . S
N469 C470 1.351 . S
C470 C464 1.428 . S
C470 N469 1.351 . S
C470 C471 1.434 . S
C471 C462 1.429 . S
C471 N468 1.350 . S
C471 C470 1.434 . S
C472 C473 1.369 . S
C472 C474 1.419 . S
C472 H476 0.930 . S
C473 C472 1.369 . S
C473 C482 1.429 . S
C474 C472 1.419 . S
C474 C475 1.363 . S
C474 H477 0.929 . S
C475 C474 1.363 . S
C475 C481 1.428 . S
H476 C472 0.930 . S
H477 C474 0.929 . S
S478 N479 1.613 . S
S478 N480 1.610 . S
N479 S478 1.613 . S
N479 C482 1.350 . S
N480 S478 1.610 . S
N480 C481 1.351 . S
C481 C475 1.428 . S
C481 N480 1.351 . S
C481 C482 1.434 . S
C482 C473 1.429 . S
C482 N479 1.350 . S
C482 C481 1.434 . S
C483 C484 1.369 . S
C483 C485 1.419 . S
C483 H487 0.930 . S
C484 C483 1.369 . S
C484 C493 1.429 . S
C485 C483 1.419 . S
C485 C486 1.363 . S
C485 H488 0.929 . S
C486 C485 1.363 . S
C486 C492 1.428 . S
H487 C483 0.930 . S
H488 C485 0.929 . S
S489 N490 1.613 . S
S489 N491 1.610 . S
N490 S489 1.613 . S
N490 C493 1.350 . S
N491 S489 1.610 . S
N491 C492 1.351 . S
C492 C486 1.428 . S
C492 N491 1.351 . S
C492 C493 1.434 . S
C493 C484 1.429 . S
C493 N490 1.350 . S
C493 C492 1.434 . S
C494 C495 1.369 . S
C494 C496 1.419 . S
C494 H498 0.930 . S
C495 C494 1.369 . S
C495 C504 1.429 . S
C496 C494 1.419 . S
C496 C497 1.363 . S
C496 H499 0.929 . S
C497 C496 1.363 . S
C497 C503 1.428 . S
H498 C494 0.930 . S
H499 C496 0.929 . S
S500 N501 1.613 . S
S500 N502 1.610 . S
N501 S500 1.613 . S
N501 C504 1.350 . S
N502 S500 1.610 . S
N502 C503 1.351 . S
C503 C497 1.428 . S
C503 N502 1.351 . S
C503 C504 1.434 . S
C504 C495 1.429 . S
C504 N501 1.350 . S
C504 C503 1.434 . S
C505 C506 1.369 . S
C505 C507 1.419 . S
C505 H509 0.930 . S
C506 C505 1.369 . S
C506 C515 1.429 . S
C507 C505 1.419 . S
C507 C508 1.363 . S
C507 H510 0.929 . S
C508 C507 1.363 . S
C508 C514 1.428 . S
H509 C505 0.930 . S
H510 C507 0.929 . S
S511 N512 1.613 . S
S511 N513 1.610 . S
N512 S511 1.613 . S
N512 C515 1.350 . S
N513 S511 1.610 . S
N513 C514 1.351 . S
C514 C508 1.428 . S
C514 N513 1.351 . S
C514 C515 1.434 . S
C515 C506 1.429 . S
C515 N512 1.350 . S
C515 C514 1.434 . S
C516 C517 1.369 . S
C516 C518 1.419 . S
C516 H520 0.930 . S
C517 C516 1.369 . S
C517 C526 1.429 . S
C518 C516 1.419 . S
C518 C519 1.363 . S
C518 H521 0.929 . S
C519 C518 1.363 . S
C519 C525 1.428 . S
H520 C516 0.930 . S
H521 C518 0.929 . S
S522 N523 1.613 . S
S522 N524 1.610 . S
N523 S522 1.613 . S
N523 C526 1.350 . S
N524 S522 1.610 . S
N524 C525 1.351 . S
C525 C519 1.428 . S
C525 N524 1.351 . S
C525 C526 1.434 . S
C526 C517 1.429 . S
C526 N523 1.350 . S
C526 C525 1.434 . S
C527 C528 1.369 . S
C527 C529 1.419 . S
C527 H531 0.930 . S
C528 C527 1.369 . S
C528 C537 1.429 . S
C529 C527 1.419 . S
C529 C530 1.363 . S
C529 H532 0.929 . S
C530 C529 1.363 . S
C530 C536 1.428 . S
H531 C527 0.930 . S
H532 C529 0.929 . S
S533 N534 1.613 . S
S533 N535 1.610 . S
N534 S533 1.613 . S
N534 C537 1.350 . S
N535 S533 1.610 . S
N535 C536 1.351 . S
C536 C530 1.428 . S
C536 N535 1.351 . S
C536 C537 1.434 . S
C537 C528 1.429 . S
C537 N534 1.350 . S
C537 C536 1.434 . S
C538 C539 1.369 . S
C538 C540 1.419 . S
C538 H542 0.930 . S
C539 C538 1.369 . S
C539 C548 1.429 . S
C540 C538 1.419 . S
C540 C541 1.363 . S
C540 H543 0.929 . S
C541 C540 1.363 . S
C541 C547 1.428 . S
H542 C538 0.930 . S
H543 C540 0.929 . S
S544 N545 1.613 . S
S544 N546 1.610 . S
N545 S544 1.613 . S
N545 C548 1.350 . S
N546 S544 1.610 . S
N546 C547 1.351 . S
C547 C541 1.428 . S
C547 N546 1.351 . S
C547 C548 1.434 . S
C548 C539 1.429 . S
C548 N545 1.350 . S
C548 C547 1.434 . S
C549 C550 1.369 . S
C549 C551 1.419 . S
C549 H553 0.930 . S
C550 C549 1.369 . S
C550 C559 1.429 . S
C551 C549 1.419 . S
C551 C552 1.363 . S
C551 H554 0.929 . S
C552 C551 1.363 . S
C552 C558 1.428 . S
H553 C549 0.930 . S
H554 C551 0.929 . S
S555 N556 1.613 . S
S555 N557 1.610 . S
N556 S555 1.613 . S
N556 C559 1.350 . S
N557 S555 1.610 . S
N557 C558 1.351 . S
C558 C552 1.428 . S
C558 N557 1.351 . S
C558 C559 1.434 . S
C559 C550 1.429 . S
C559 N556 1.350 . S
C559 C558 1.434 . S
C211 C120 1.346 . S
C209 C5 1.358 . S
C222 C134 1.345 . S
C220 C18 1.351 . S
C233 C147 1.346 . S
C231 C31 1.358 . S
C242 C42 1.348 . S
C244 C114 1.348 . S
C253 C57 1.363 . S
C255 C107 1.353 . S
C264 C70 1.358 . S
C266 C127 1.353 . S
C277 C135 1.347 . S
C275 C81 1.347 . S
C288 C148 1.353 . S
C286 C96 1.357 . S
C297 C29 1.346 . S
C299 C174 1.346 . S
C310 C192 1.344 . S
C308 C44 1.352 . S
C319 C3 1.347 . S
C321 C199 1.346 . S
C332 C166 1.350 . S
C330 C16 1.351 . S
C341 C83 1.360 . S
C343 C159 1.357 . S
C352 C94 1.350 . S
C354 C173 1.350 . S
C365 C185 1.352 . S
C363 C55 1.353 . S
C374 C68 1.347 . S
C376 C200 1.349 . S
C387 C133 1.562 . S
C385 C1 1.560 . S
C398 C146 1.563 . S
C396 C14 1.554 . S
C407 C27 1.554 . S
C409 C109 1.560 . S
C418 C49 1.593 . S
C420 C121 1.546 . S
C429 C53 1.547 . S
C431 C153 1.544 . S
C442 C108 1.548 . S
C440 C66 1.545 . S
C453 C122 1.557 . S
C451 C88 1.596 . S
C464 C140 1.547 . S
C462 C92 1.552 . S
C475 C187 1.564 . S
C473 C36 1.601 . S
C486 C198 1.564 . S
C484 C40 1.553 . S
C495 C10 1.595 . S
C497 C161 1.555 . S
C508 C179 1.550 . S
C506 C23 1.593 . S
C519 C205 1.545 . S
C517 C79 1.546 . S
C528 C101 1.590 . S
C530 C160 1.547 . S
C541 C172 1.562 . S
C539 C62 1.597 . S
C552 C186 1.552 . S
C550 C75 1.595 . S
