# Generated by pormake.
# Topology ftw, (4,12)-cn, num edge types: 1
# Building blocks:
#     Node 0, Type 0, BuildingBlock: ESEHIV_clean_sbu_0, # of connection points: 4
#     Node 1, Type 0, BuildingBlock: ESEHIV_clean_sbu_0, # of connection points: 4
#     Node 2, Type 0, BuildingBlock: ESEHIV_clean_sbu_0, # of connection points: 4
#     Node 3, Type 1, BuildingBlock: EZIPEK_clean_sbu_0, # of connection points: 12
#     Edge 4, Type (0, 1), BuildingBlock: FUNLAD_clean_linker_1, # of connection points: 2
#     Edge 5, Type (0, 1), BuildingBlock: FUNLAD_clean_linker_1, # of connection points: 2
#     Edge 6, Type (0, 1), BuildingBlock: FUNLAD_clean_linker_1, # of connection points: 2
#     Edge 7, Type (0, 1), BuildingBlock: FUNLAD_clean_linker_1, # of connection points: 2
#     Edge 8, Type (0, 1), BuildingBlock: FUNLAD_clean_linker_1, # of connection points: 2
#     Edge 9, Type (0, 1), BuildingBlock: FUNLAD_clean_linker_1, # of connection points: 2
#     Edge 10, Type (0, 1), BuildingBlock: FUNLAD_clean_linker_1, # of connection points: 2
#     Edge 11, Type (0, 1), BuildingBlock: FUNLAD_clean_linker_1, # of connection points: 2
#     Edge 12, Type (0, 1), BuildingBlock: FUNLAD_clean_linker_1, # of connection points: 2
#     Edge 13, Type (0, 1), BuildingBlock: FUNLAD_clean_linker_1, # of connection points: 2
#     Edge 14, Type (0, 1), BuildingBlock: FUNLAD_clean_linker_1, # of connection points: 2
#     Edge 15, Type (0, 1), BuildingBlock: FUNLAD_clean_linker_1, # of connection points: 2
# Relax obj value: 0.025
# Max RMSD: 0.144
# Mean RMSD: 0.114
data_MOF--net-ftw--node1-ESEHIV_clean_sbu_0--node2-EZIPEK_clean_sbu_0--edge1-FUNLAD_clean_linker_1
_symmetry_space_group_name_H-M    P1
_symmetry_Int_Tables_number       1
_symmetry_cell_setting            triclinic
loop_
_symmetry_equiv_pos_as_xyz
'x, y, z'
_cell_length_a     25.850543
_cell_length_b     25.432509
_cell_length_c     25.21336
_cell_angle_alpha  86.447675
_cell_angle_beta   86.840789
_cell_angle_gamma 93.06079
loop_
_atom_site_label
_atom_site_type_symbol
_atom_site_fract_x
_atom_site_fract_y
_atom_site_fract_z
_atom_type_partial_charge
Cu0 Cu 0.04841 0.51317 0.50058 0.0
N1 N 1.00542 0.47523 0.45835 0.0
N2 N 0.98581 0.42645 0.39114 0.0
C3 C 1.02356 0.45289 0.41478 0.0
C4 C 0.9417 0.43232 0.42097 0.0
C5 C 0.95403 0.46277 0.46265 0.0
O6 O 0.09069 0.46114 0.53421 0.0
C7 C 0.057 0.59559 0.42663 0.0
O8 O 1.00665 0.59031 0.43791 0.0
H9 H 0.06415 0.45518 0.40118 0.0
H10 H 0.92766 0.47438 0.49406 0.0
N11 N 1.01024 0.54703 0.55199 0.0
N12 N 0.98814 0.60953 0.60555 0.0
C13 C 1.01486 0.59873 0.56065 0.0
C14 C 0.97895 0.52457 0.59257 0.0
C15 C 0.9655 0.56318 0.62607 0.0
C16 C 0.10062 0.45984 0.58307 0.0
O17 O 0.09039 0.50021 0.61119 0.0
H18 H 0.03985 0.62734 0.5364 0.0
H19 H 0.96896 0.4827 0.59876 0.0
O20 O 0.08629 0.56545 0.4518 0.0
H21 H 0.90364 0.41532 0.4139 0.0
H22 H 0.94214 0.55756 0.66318 0.0
Cu23 Cu 0.53311 0.03088 0.49665 0.0
N24 N 0.57846 0.07062 0.53608 0.0
N25 N 0.63004 0.08583 0.6023 0.0
C26 C 0.59142 0.05475 0.58531 0.0
C27 C 0.64167 0.12337 0.56267 0.0
C28 C 0.60954 0.11402 0.52183 0.0
O29 O 0.574 0.98843 0.45006 0.0
C30 C 0.45662 0.01948 0.57492 0.0
O31 O 0.45977 0.07066 0.56304 0.0
H32 H 0.57472 0.01934 0.60719 0.0
H33 H 0.61029 0.13629 0.48388 0.0
N34 N 0.49133 0.07111 0.45354 0.0
N35 N 0.42514 0.08701 0.40271 0.0
C36 C 0.44626 0.05197 0.43608 0.0
C37 C 0.49884 0.12043 0.43074 0.0
C38 C 0.45796 0.13036 0.39909 0.0
C39 C 0.60393 1.01471 0.41503 0.0
O40 O 0.60457 0.06644 0.41314 0.0
H41 H 0.42992 1.01236 0.44659 0.0
H42 H 0.53202 0.14693 0.43584 0.0
O43 O 0.48654 0.99064 0.5492 0.0
H44 H 0.67171 0.15468 0.56283 0.0
H45 H 0.45304 0.16643 0.37527 0.0
Cu46 Cu 0.53132 0.52114 0.0049 0.0
N47 N 0.48877 0.56267 0.04579 0.0
N48 N 0.43832 0.62946 0.06091 0.0
C49 C 0.47429 0.61036 0.02778 0.0
C50 C 0.43014 0.59291 0.10203 0.0
C51 C 0.46159 0.55178 0.09273 0.0
O52 O 0.48702 0.47638 0.96356 0.0
C53 C 0.61463 0.59303 0.98891 0.0
O54 O 0.61812 0.57738 0.03917 0.0
H55 H 0.48806 0.62961 0.98973 0.0
H56 H 0.46293 0.51585 0.11765 0.0
N57 N 0.5716 0.47541 0.04437 0.0
N58 N 0.63488 0.42061 0.05906 0.0
C59 C 0.61619 0.4568 0.025 0.0
C60 C 0.56183 0.4501 0.09271 0.0
C61 C 0.6009 0.41619 0.10193 0.0
C62 C 0.45304 0.44633 0.99089 0.0
O63 O 0.45003 0.44855 0.04283 0.0
H64 H 0.6338 0.46842 0.98577 0.0
H65 H 0.5281 0.45471 0.11886 0.0
O66 O 0.57868 0.57218 0.96311 0.0
H67 H 0.40303 0.59545 0.13593 0.0
H68 H 0.60368 0.39015 0.13712 0.0
C69 C 0.0395 0.15227 0.86639 0.0
C70 C 1.01809 0.14218 0.12323 0.0
C71 C 0.03429 0.89527 0.87514 0.0
C72 C 0.03884 0.88995 0.13164 0.0
C73 C 0.15882 0.90027 0.00424 0.0
C74 C 0.15584 0.15646 0.98386 0.0
C75 C 0.90878 0.88332 0.99789 0.0
C76 C 0.90334 0.13647 0.00651 0.0
C77 C 0.90316 0.9985 0.13087 0.0
C78 C 0.15492 0.03549 0.12169 0.0
C79 C 0.91094 0.02504 0.87221 0.0
C80 C 0.16115 0.0206 0.86591 0.0
Eu81 Eu 0.03027 0.11915 0.99553 0.0
O82 O 0.07662 0.06854 0.0427 0.0
O83 O 0.9866 0.06461 0.95064 0.0
Eu84 Eu 0.13062 0.02659 0.99491 0.0
Eu85 Eu 0.9339 1.01205 1.00075 0.0
O86 O 0.0787 0.07106 0.94831 0.0
O87 O 0.98424 0.06067 0.04494 0.0
Eu88 Eu 0.03525 0.02291 0.89725 0.0
Eu89 Eu 0.02958 1.01687 0.0991 0.0
O90 O 0.08001 0.97773 0.95129 0.0
O91 O 0.07768 0.97525 0.04566 0.0
O92 O 0.98506 0.96784 0.04913 0.0
O93 O 0.98856 0.97106 0.95379 0.0
Eu94 Eu 0.0336 0.9203 0.00216 0.0
O95 O 0.03144 0.16572 0.91627 0.0
O96 O 1.02526 0.16085 0.07254 0.0
O97 O 0.03761 0.87872 0.92589 0.0
O98 O 0.03754 0.87462 0.08198 0.0
O99 O 0.17452 0.95127 0.00448 0.0
O100 O 0.17265 0.10769 0.98269 0.0
O101 O 0.89225 0.93218 0.99469 0.0
O102 O 0.88878 0.08536 0.00718 0.0
O103 O 0.95175 1.00515 0.14566 0.0
O104 O 0.10531 0.02977 0.14043 0.0
O105 O 0.9606 0.02575 0.85474 0.0
O106 O 0.11262 0.02224 0.85077 0.0
O107 O 0.95766 0.8706 0.00401 0.0
O108 O 0.11013 0.88147 1.00082 0.0
O109 O 0.95224 0.15703 1.00119 0.0
O110 O 0.1064 0.16866 0.99062 0.0
O111 O 1.01729 0.09166 0.1408 0.0
O112 O 0.0356 0.93916 0.14628 0.0
O113 O 0.04361 0.10318 0.85095 0.0
O114 O 0.03134 0.94534 0.85633 0.0
O115 O 0.17587 0.02188 0.9158 0.0
O116 O 0.17181 0.03471 0.07087 0.0
O117 O 0.89306 0.02041 0.92318 0.0
O118 O 0.88855 0.99896 0.08079 0.0
H119 H 0.03448 0.39495 0.32914 0.0
C120 C 0.99483 0.3957 0.34594 0.0
H121 H 0.91743 0.3655 0.34021 0.0
H122 H 0.97253 0.30076 0.10299 0.0
H123 H 0.91953 0.37474 0.08496 0.0
H124 H 0.88976 0.42907 0.15714 0.0
H125 H 0.91296 0.4096 0.24801 0.0
C126 C 0.95771 0.36534 0.32572 0.0
C127 C 0.97208 0.33007 0.28299 0.0
C128 C 0.9583 0.34191 0.23017 0.0
C129 C 0.97582 0.31071 0.18853 0.0
C130 C 0.96109 0.32338 0.13616 0.0
C131 C 0.93055 0.36581 0.12519 0.0
C132 C 0.9137 0.39634 0.16585 0.0
C133 C 0.92728 0.38472 0.21781 0.0
H134 H 0.98859 0.16348 0.20172 0.0
C135 C 1.0074 0.17955 0.1641 0.0
H136 H 0.03901 0.248 0.11993 0.0
H137 H 0.99997 0.29244 0.38099 0.0
H138 H 0.05774 0.22226 0.39877 0.0
H139 H 0.09636 0.17476 0.3254 0.0
H140 H 0.07682 0.19668 0.23404 0.0
C141 C 1.0204 0.23147 0.15741 0.0
C142 C 1.00696 0.26755 0.19996 0.0
C143 C 1.02254 0.25721 0.25263 0.0
C144 C 1.0032 0.28699 0.29446 0.0
C145 C 1.01564 0.27282 0.34732 0.0
C146 C 0.04851 0.23239 0.35817 0.0
C147 C 0.07006 0.20551 0.3169 0.0
C148 C 0.05781 0.21795 0.26466 0.0
H149 H 0.62972 0.94646 0.37122 0.0
C150 C 0.63623 0.98852 0.37536 0.0
H151 H 0.67776 0.05934 0.34748 0.0
H152 H 0.83972 0.90207 0.23765 0.0
H153 H 0.84988 0.86166 0.32606 0.0
H154 H 0.7936 0.88391 0.40274 0.0
H155 H 0.72608 0.94551 0.39136 0.0
C156 C 0.67233 1.01711 0.34353 0.0
C157 C 0.70173 0.99634 0.2976 0.0
C158 C 0.7418 0.96117 0.30545 0.0
C159 C 0.77602 0.95035 0.26172 0.0
C160 C 0.81428 0.91339 0.27 0.0
C161 C 0.82024 0.88965 0.3204 0.0
C162 C 0.78843 0.90205 0.36354 0.0
C163 C 0.74966 0.93742 0.35642 0.0
H164 H 0.87258 1.00484 0.21328 0.0
C165 C 0.86232 0.99266 0.17444 0.0
H166 H 0.80272 0.96233 0.12913 0.0
H167 H 0.62382 0.05822 0.26729 0.0
H168 H 0.61393 0.09874 0.17902 0.0
H169 H 0.67638 0.08443 0.10447 0.0
H170 H 0.74858 0.02916 0.11747 0.0
C171 C 0.81343 0.97452 0.16778 0.0
C172 C 0.77184 0.97683 0.21099 0.0
C173 C 0.72961 1.00908 0.20243 0.0
C174 C 0.69431 0.01839 0.24568 0.0
C175 C 0.65243 0.05078 0.23608 0.0
C176 C 0.64615 0.07409 0.18557 0.0
C177 C 0.68124 0.06595 0.14359 0.0
C178 C 0.72257 0.03397 0.15167 0.0
H179 H 0.118 0.63094 0.36754 0.0
C180 C 0.07772 0.63231 0.3819 0.0
H181 H 1.00536 0.66458 0.37056 0.0
H182 H 0.13899 0.84704 0.21883 0.0
H183 H 0.18464 0.86927 0.2968 0.0
H184 H 0.17328 0.81235 0.38 0.0
H185 H 0.11686 0.73256 0.38547 0.0
C186 C 0.04596 0.66452 0.35685 0.0
C187 C 0.06069 0.69476 0.30548 0.0
C188 C 0.09332 0.74148 0.30347 0.0
C189 C 0.09833 0.77535 0.25618 0.0
C190 C 0.13221 0.82111 0.25449 0.0
C191 C 0.15891 0.83409 0.29881 0.0
C192 C 0.15266 0.80193 0.34558 0.0
C193 C 0.12021 0.75617 0.34816 0.0
H194 H 0.0329 0.85891 0.21523 0.0
C195 C 0.04448 0.84955 0.17492 0.0
H196 H 0.07762 0.79347 0.12686 0.0
H197 H 1.00235 0.60374 0.29354 0.0
H198 H 0.95771 0.58105 0.21515 0.0
H199 H 0.96347 0.64156 0.13441 0.0
H200 H 1.01414 0.72481 0.1314 0.0
C201 C 0.06547 0.80331 0.16682 0.0
C202 C 0.06914 0.76334 0.21196 0.0
C203 C 0.03991 0.71457 0.21258 0.0
C204 C 0.03586 0.68016 0.25938 0.0
C205 C 1.00598 0.6318 0.25928 0.0
C206 C 0.98034 0.61818 0.2145 0.0
C207 C 0.98365 0.65221 0.16903 0.0
C208 C 1.01292 0.69992 0.16786 0.0
H209 H 0.35249 0.04325 0.39061 0.0
C210 C 0.37819 0.07689 0.3759 0.0
H211 H 0.39237 0.13787 0.31527 0.0
H212 H 0.22872 0.96009 0.21728 0.0
H213 H 0.2978 0.89975 0.22545 0.0
H214 H 0.37901 0.92623 0.26565 0.0
H215 H 0.39154 1.0129 0.29894 0.0
C216 C 0.36732 0.10424 0.3309 0.0
C217 C 0.32066 0.08969 0.30132 0.0
C218 C 0.31513 0.03959 0.27957 0.0
C219 C 0.2696 0.02542 0.25322 0.0
C220 C 0.26357 0.97389 0.23522 0.0
C221 C 0.30267 0.93862 0.24005 0.0
C222 C 0.34837 0.9535 0.26288 0.0
C223 C 0.3548 1.00331 0.28238 0.0
H224 H 0.23595 0.04676 0.14256 0.0
C225 C 0.19604 0.04424 0.15908 0.0
H226 H 0.1477 0.05075 0.22849 0.0
H227 H 0.31892 0.18884 0.33757 0.0
H228 H 0.25364 0.25218 0.32212 0.0
H229 H 0.17815 0.23011 0.27048 0.0
H230 H 0.16633 0.14382 0.23545 0.0
C231 C 0.18712 0.05063 0.21121 0.0
C232 C 0.23141 0.06271 0.24498 0.0
C233 C 0.23747 0.11317 0.2656 0.0
C234 C 0.28187 0.12648 0.29415 0.0
C235 C 0.2865 0.17693 0.31483 0.0
C236 C 0.24925 0.21367 0.30634 0.0
C237 C 0.20663 0.20116 0.2774 0.0
C238 C 0.20042 0.1515 0.25743 0.0
H239 H 0.98571 0.69516 0.6029 0.0
C240 C 0.98875 0.6597 0.62864 0.0
H241 H 1.00236 0.62787 0.70505 0.0
H242 H 0.07839 0.88339 0.71134 0.0
H243 H 0.13861 0.87062 0.63658 0.0
H244 H 0.13842 0.78562 0.59453 0.0
H245 H 0.07755 0.71347 0.626 0.0
C246 C 0.9981 0.6636 0.68011 0.0
C247 C 1.00029 0.71502 0.70557 0.0
C248 C 0.03744 0.75642 0.68729 0.0
C249 C 0.03915 0.80476 0.71297 0.0
C250 C 0.07588 0.84574 0.6936 0.0
C251 C 0.11073 0.83891 0.65081 0.0
C252 C 0.11049 0.79112 0.62703 0.0
C253 C 0.07471 0.75014 0.64511 0.0
H254 H 0.04276 0.81403 0.85316 0.0
C255 C 0.03232 0.85285 0.83812 0.0
H256 H 1.00196 0.89593 0.77349 0.0
H257 H 0.92415 0.64419 0.75078 0.0
H258 H 0.86938 0.65468 0.83003 0.0
H259 H 0.87602 0.73644 0.87729 0.0
H260 H 0.9346 0.80981 0.84343 0.0
C261 C 1.01312 0.85794 0.78985 0.0
C262 C 1.00596 0.81057 0.75855 0.0
C263 C 0.9692 0.76912 0.77713 0.0
C264 C 0.96628 0.72145 0.75055 0.0
C265 C 0.92903 0.68085 0.76998 0.0
C266 C 0.89706 0.6864 0.81533 0.0
C267 C 0.90052 0.7326 0.84173 0.0
C268 C 0.93509 0.77407 0.82233 0.0
H269 H 0.42711 0.95811 0.63752 0.0
C270 C 0.4219 0.99759 0.62035 0.0
H271 H 0.38213 0.0675 0.62512 0.0
H272 H 0.21968 0.91829 0.78749 0.0
H273 H 0.20682 0.86131 0.71497 0.0
H274 H 0.26127 0.87474 0.63121 0.0
H275 H 0.32986 0.94414 0.62006 0.0
C276 C 0.38629 0.02775 0.64222 0.0
C277 C 0.35717 1.01371 0.6941 0.0
C278 C 0.31664 0.97357 0.69918 0.0
C279 C 0.28361 0.96735 0.74647 0.0
C280 C 0.24452 0.9259 0.75157 0.0
C281 C 0.23693 0.89278 0.71039 0.0
C282 C 0.26774 0.90022 0.66332 0.0
C283 C 0.30713 0.94015 0.6575 0.0
H284 H 0.19093 0.02483 0.78219 0.0
C285 C 0.20151 1.01694 0.82296 0.0
H286 H 0.26134 0.99537 0.87253 0.0
H287 H 0.43597 0.08907 0.70041 0.0
H288 H 0.44836 0.14592 0.77299 0.0
H289 H 0.38822 0.13812 0.8529 0.0
H290 H 0.31574 0.07307 0.86095 0.0
C291 C 0.24983 1.00316 0.83211 0.0
C292 C 0.28975 1.00275 0.78733 0.0
C293 C 0.33217 0.04061 0.78364 0.0
C294 C 0.36613 0.04583 0.73712 0.0
C295 C 0.40827 0.08412 0.73437 0.0
C296 C 0.416 0.11686 0.77586 0.0
C297 C 0.38221 0.11241 0.82087 0.0
C298 C 0.34072 0.07484 0.82495 0.0
H299 H 0.11856 0.37583 0.58506 0.0
C300 C 0.11125 0.40851 0.60976 0.0
H301 H 0.09219 0.43051 0.68752 0.0
H302 H 0.977 0.2054 0.74356 0.0
H303 H 0.90517 0.25113 0.70792 0.0
H304 H 0.91926 0.3401 0.66303 0.0
H305 H 1.00535 0.38358 0.65267 0.0
C306 C 0.10262 0.39891 0.66259 0.0
C307 C 0.09523 0.344 0.68682 0.0
C308 C 0.04448 0.31948 0.69315 0.0
C309 C 0.0361 0.2687 0.72008 0.0
C310 C 0.98526 0.24454 0.72468 0.0
C311 C 0.94372 0.27023 0.70419 0.0
C312 C 0.9517 0.32027 0.67878 0.0
C313 C 1.00136 0.34479 0.67315 0.0
H314 H 0.03257 0.23478 0.83786 0.0
C315 C 0.04506 0.19685 0.82593 0.0
H316 H 0.08454 0.15772 0.76557 0.0
H317 H 0.19733 0.37862 0.67838 0.0
H318 H 0.26949 0.33236 0.71305 0.0
H319 H 0.25486 0.2449 0.7612 0.0
H320 H 0.16815 0.20296 0.77484 0.0
C321 C 0.06851 0.19414 0.77739 0.0
C322 C 0.07827 0.24309 0.74182 0.0
C323 C 0.12932 0.26658 0.73343 0.0
C324 C 0.13779 0.31716 0.70587 0.0
C325 C 0.18893 0.34025 0.69897 0.0
C326 C 0.23061 0.31413 0.71862 0.0
C327 C 0.22237 0.26485 0.74572 0.0
C328 C 0.1724 0.24124 0.75332 0.0
H329 H 0.63294 0.05652 0.68511 0.0
C330 C 0.65518 0.07675 0.65129 0.0
H331 H 0.72893 0.10689 0.62054 0.0
H332 H 0.83761 0.14036 0.83244 0.0
H333 H 0.83642 0.22999 0.79379 0.0
H334 H 0.78667 0.25014 0.71506 0.0
H335 H 0.73865 0.1807 0.6738 0.0
C336 C 0.70635 0.08753 0.65452 0.0
C337 C 0.73374 0.07498 0.70403 0.0
C338 C 0.76058 0.11634 0.72847 0.0
C339 C 0.78874 0.10493 0.77432 0.0
C340 C 0.81578 0.14684 0.79743 0.0
C341 C 0.81521 0.19851 0.77583 0.0
C342 C 0.78726 0.20983 0.73145 0.0
C343 C 0.76002 0.16948 0.70803 0.0
H344 H 0.88873 0.03322 0.78925 0.0
C345 C 0.87362 0.0319 0.83048 0.0
H346 H 0.80681 0.04 0.88132 0.0
H347 H 0.69354 0.98435 0.66342 0.0
H348 H 0.69418 0.89543 0.70334 0.0
H349 H 0.73719 0.87728 0.7869 0.0
H350 H 0.78109 0.94813 0.83032 0.0
C351 C 0.82325 0.03995 0.84074 0.0
C352 C 0.78977 0.05229 0.796 0.0
C353 C 0.76221 1.01105 0.7725 0.0
C354 C 0.73528 0.02205 0.72565 0.0
C355 C 0.71198 0.97913 0.70064 0.0
C356 C 0.71263 0.92761 0.72281 0.0
C357 C 0.73705 0.91733 0.76973 0.0
C358 C 0.76201 0.95834 0.79424 0.0
H359 H 0.4294 0.39666 0.92557 0.0
C360 C 0.42005 0.40615 0.96628 0.0
H361 H 0.37258 0.38861 0.03648 0.0
H362 H 0.21947 0.25952 0.88429 0.0
H363 H 0.2115 0.34249 0.83312 0.0
H364 H 0.26757 0.42102 0.84826 0.0
H365 H 0.33204 0.4172 0.9146 0.0
C366 C 0.38084 0.37921 0.9955 0.0
C367 C 0.35247 0.3309 0.97883 0.0
C368 C 0.31466 0.33405 0.94023 0.0
C369 C 0.2811 0.28912 0.93266 0.0
C370 C 0.24463 0.29291 0.89292 0.0
C371 C 0.23997 0.34013 0.86296 0.0
C372 C 0.27157 0.38436 0.87149 0.0
C373 C 0.3085 0.38162 0.90966 0.0
H374 H 0.1822 0.2398 0.98919 0.0
C375 C 0.19487 0.20146 0.97883 0.0
H376 H 0.25828 0.15863 0.95297 0.0
H377 H 0.42524 0.3093 0.05067 0.0
H378 H 0.43226 0.22687 0.10283 0.0
H379 H 0.37162 0.15039 0.09276 0.0
H380 H 0.304 0.15565 0.03022 0.0
C381 C 0.24489 0.19677 0.96296 0.0
C382 C 0.28425 0.24172 0.96494 0.0
C383 C 0.32395 0.23776 1.00136 0.0
C384 C 0.35822 0.28222 0.00801 0.0
C385 C 0.39746 0.27712 0.04481 0.0
C386 C 0.4021 0.22995 0.07484 0.0
C387 C 0.36804 0.18687 0.06909 0.0
C388 C 0.32938 0.19047 0.0329 0.0
H389 H 0.43385 0.71039 0.02818 0.0
C390 C 0.41279 0.67783 0.05142 0.0
H391 H 0.34125 0.64909 0.08883 0.0
H392 H 0.2352 0.85886 0.12856 0.0
H393 H 0.24218 0.82053 0.21819 0.0
H394 H 0.29352 0.74304 0.23491 0.0
H395 H 0.33731 0.70227 0.16202 0.0
C396 C 0.36253 0.68201 0.06649 0.0
C397 C 0.33474 0.73134 0.05567 0.0
C398 C 0.31116 0.75618 0.099 0.0
C399 C 0.28258 0.80185 0.08954 0.0
C400 C 0.2578 0.82446 0.13345 0.0
C401 C 0.26148 0.80292 0.18515 0.0
C402 C 0.29037 0.75921 0.19455 0.0
C403 C 0.31517 0.73609 0.15223 0.0
H404 H 0.18508 0.81978 1.00005 0.0
C405 C 0.19741 0.85974 0.0088 0.0
H406 H 0.25703 0.90713 0.0394 0.0
H407 H 0.36673 0.68929 0.96214 0.0
H408 H 0.36011 0.72812 0.8729 0.0
H409 H 0.31801 0.81208 0.85756 0.0
H410 H 0.28117 0.85701 0.93167 0.0
C411 C 0.24473 0.86848 0.02701 0.0
C412 C 0.27831 0.82336 0.03686 0.0
C413 C 0.30248 0.79919 0.99355 0.0
C414 C 0.32935 0.75229 0.00271 0.0
C415 C 0.34878 0.7266 0.95809 0.0
C416 C 0.34467 0.74817 0.90643 0.0
C417 C 0.32077 0.79531 0.89777 0.0
C418 C 0.29967 0.82059 0.94064 0.0
H419 H 0.70836 0.40756 0.01664 0.0
C420 C 0.68074 0.39214 0.04868 0.0
H421 H 0.66139 0.32919 0.10607 0.0
H422 H 0.8313 0.23485 0.93009 0.0
H423 H 0.76815 0.25199 0.86441 0.0
H424 H 0.68763 0.29482 0.88823 0.0
H425 H 0.6702 0.32209 0.97738 0.0
C426 C 0.68855 0.34537 0.07411 0.0
C427 C 0.73467 0.31462 0.06038 0.0
C428 C 0.7429 0.29637 0.00856 0.0
C429 C 0.78785 0.26858 0.99563 0.0
C430 C 0.79677 0.254 0.94272 0.0
C431 C 0.76101 0.26383 0.90449 0.0
C432 C 0.71574 0.28817 0.91785 0.0
C433 C 0.70652 0.30419 0.96917 0.0
H434 H 0.82113 0.15521 0.01263 0.0
C435 C 0.86058 0.17222 0.01336 0.0
H436 H 0.90669 0.24051 0.02745 0.0
H437 H 0.73102 0.34324 0.16344 0.0
H438 H 0.78945 0.31802 0.23142 0.0
H439 H 0.86224 0.26227 0.21122 0.0
H440 H 0.87848 0.23324 0.12233 0.0
C441 C 0.86784 0.2233 0.02335 0.0
C442 C 0.82258 0.2556 0.03548 0.0
C443 C 0.81309 0.27167 0.08783 0.0
C444 C 0.76974 0.30199 0.10003 0.0
C445 C 0.76246 0.31899 0.15225 0.0
C446 C 0.79573 0.30483 0.19169 0.0
C447 C 0.83677 0.27352 0.1803 0.0
C448 C 0.84569 0.25721 0.12903 0.0
H449 H 0.63154 0.66693 0.93802 0.0
C450 C 0.64746 0.63937 0.96657 0.0
H451 H 0.70818 0.62206 0.01553 0.0
H452 H 0.81254 0.83832 0.87763 0.0
H453 H 0.79562 0.79571 0.79618 0.0
H454 H 0.74712 0.70927 0.79924 0.0
H455 H 0.71374 0.66566 0.88338 0.0
C456 C 0.69356 0.65058 0.98693 0.0
C457 C 0.7207 0.70413 0.98229 0.0
C458 C 0.74135 0.72803 0.93266 0.0
C459 C 0.77148 0.7768 0.93099 0.0
C460 C 0.79018 0.80093 0.88103 0.0
C461 C 0.7807 0.77693 0.83406 0.0
C462 C 0.75336 0.72826 0.83579 0.0
C463 C 0.73409 0.70376 0.8844 0.0
H464 H 0.88087 0.79962 0.00774 0.0
C465 C 0.86991 0.83901 0.99533 0.0
H466 H 0.81086 0.88392 0.96327 0.0
H467 H 0.6801 0.67417 0.08338 0.0
H468 H 0.69598 0.71828 0.16375 0.0
H469 H 0.75157 0.80046 0.16065 0.0
H470 H 0.79139 0.83904 0.07691 0.0
C471 C 0.82212 0.84543 0.97814 0.0
C472 C 0.78358 0.79968 0.97895 0.0
C473 C 0.76066 0.77751 0.02813 0.0
C474 C 0.72891 0.72999 0.02981 0.0
C475 C 0.70567 0.70944 0.07961 0.0
C476 C 0.71412 0.7346 0.12616 0.0
C477 C 0.74539 0.78085 0.12442 0.0
C478 C 0.76832 0.80235 0.0761 0.0
loop_
_geom_bond_atom_site_label_1
_geom_bond_atom_site_label_2
_geom_bond_distance
_geom_bond_site_symmetry_2
_ccdc_geom_bond_type
Cu0 N1 1.999 . S
Cu0 O6 1.974 . S
Cu0 N11 1.985 . S
Cu0 O20 1.959 . S
N1 Cu0 1.999 . S
N1 C3 1.263 . S
N1 C5 1.389 . S
N2 C3 1.358 . S
N2 C4 1.400 . S
C3 N1 1.263 . S
C3 N2 1.358 . S
C3 H9 0.930 1_455 S
C4 N2 1.400 . S
C4 C5 1.351 . S
C4 H21 0.930 . S
C5 N1 1.389 . S
C5 C4 1.351 . S
C5 H10 0.930 . S
O6 Cu0 1.974 . S
O6 C16 1.282 1_455 S
C7 O8 1.261 . S
C7 O20 1.251 1_655 S
O8 C7 1.261 . S
H9 C3 0.930 1_655 S
H10 C5 0.930 . S
N11 Cu0 1.985 . S
N11 C13 1.335 . S
N11 C14 1.390 1_455 S
N12 C13 1.345 . S
N12 C15 1.336 1_455 S
C13 N11 1.335 . S
C13 N12 1.345 . S
C13 H18 0.930 . S
C14 N11 1.390 1_655 S
C14 C15 1.346 . S
C14 H19 0.930 . S
C15 N12 1.336 1_655 S
C15 C14 1.346 . S
C15 H22 0.929 . S
C16 O6 1.282 1_655 S
C16 O17 1.216 . S
O17 C16 1.216 . S
H18 C13 0.930 . S
H19 C14 0.930 . S
O20 Cu0 1.959 . S
O20 C7 1.251 1_455 S
H21 C4 0.930 . S
H22 C15 0.929 . S
Cu23 N24 1.999 . S
Cu23 O29 1.974 . S
Cu23 N34 1.985 . S
Cu23 O43 1.959 . S
N24 Cu23 1.999 . S
N24 C26 1.269 . S
N24 C28 1.389 . S
N25 C26 1.362 . S
N25 C27 1.400 . S
C26 N24 1.269 . S
C26 N25 1.362 . S
C26 H32 0.921 1_565 S
C27 N25 1.400 . S
C27 C28 1.351 . S
C27 H44 0.930 . S
C28 N24 1.389 . S
C28 C27 1.351 . S
C28 H33 0.930 . S
O29 Cu23 1.974 . S
O29 C39 1.282 1_565 S
C30 O31 1.261 . S
C30 O43 1.251 1_545 S
O31 C30 1.261 . S
H32 C26 0.921 1_545 S
H33 C28 0.930 . S
N34 Cu23 1.985 . S
N34 C36 1.335 . S
N34 C37 1.390 1_565 S
N35 C36 1.350 . S
N35 C38 1.330 1_565 S
C36 N34 1.335 . S
C36 N35 1.350 . S
C36 H41 0.930 . S
C37 N34 1.390 1_545 S
C37 C38 1.346 . S
C37 H42 0.930 . S
C38 N35 1.330 1_545 S
C38 C37 1.346 . S
C38 H45 0.929 . S
C39 O29 1.282 1_545 S
C39 O40 1.216 . S
O40 C39 1.216 . S
H41 C36 0.930 . S
H42 C37 0.930 . S
O43 Cu23 1.959 . S
O43 C30 1.251 1_565 S
H44 C27 0.930 . S
H45 C38 0.929 . S
Cu46 N47 1.999 . S
Cu46 O52 1.974 . S
Cu46 N57 1.985 . S
Cu46 O66 1.959 . S
N47 Cu46 1.999 . S
N47 C49 1.263 . S
N47 C51 1.389 . S
N48 C49 1.358 . S
N48 C50 1.400 . S
C49 N47 1.263 . S
C49 N48 1.358 . S
C49 H55 0.930 1_556 S
C50 N48 1.400 . S
C50 C51 1.351 . S
C50 H67 0.930 . S
C51 N47 1.389 . S
C51 C50 1.351 . S
C51 H56 0.930 . S
O52 Cu46 1.974 . S
O52 C62 1.282 1_556 S
C53 O54 1.261 . S
C53 O66 1.251 1_554 S
O54 C53 1.261 . S
H55 C49 0.930 1_554 S
H56 C51 0.930 . S
N57 Cu46 1.985 . S
N57 C59 1.335 . S
N57 C60 1.390 1_556 S
N58 C59 1.345 . S
N58 C61 1.336 1_556 S
C59 N57 1.335 . S
C59 N58 1.345 . S
C59 H64 0.930 . S
C60 N57 1.390 1_554 S
C60 C61 1.346 . S
C60 H65 0.930 . S
C61 N58 1.336 1_554 S
C61 C60 1.346 . S
C61 H68 0.929 . S
C62 O52 1.282 1_554 S
C62 O63 1.216 . S
O63 C62 1.216 . S
H64 C59 0.930 . S
H65 C60 0.930 . S
O66 Cu46 1.959 . S
O66 C53 1.251 1_556 S
H67 C50 0.930 . S
H68 C61 0.929 . S
C69 O95 1.283 . S
C69 O113 1.283 . S
C70 O96 1.283 . S
C70 O111 1.283 . S
C71 O97 1.283 . S
C71 O114 1.283 . S
C72 O98 1.283 . S
C72 O112 1.283 . S
C73 O99 1.283 1_554 S
C73 O108 1.283 . S
C74 O100 1.283 . S
C74 O110 1.283 . S
C75 O101 1.283 . S
C75 O107 1.283 . S
C76 O102 1.283 . S
C76 O109 1.283 1_554 S
C77 O103 1.283 . S
C77 O118 1.283 . S
C78 O104 1.283 . S
C78 O116 1.283 . S
C79 O105 1.283 . S
C79 O117 1.283 . S
C80 O106 1.283 . S
C80 O115 1.283 . S
Eu81 O82 2.370 1_556 S
Eu81 O83 2.370 1_455 S
Eu81 O86 2.370 . S
Eu81 O87 2.370 1_456 S
Eu81 O95 2.363 . S
Eu81 O96 2.363 1_556 S
Eu81 O109 2.363 1_455 S
Eu81 O110 2.363 . S
O82 Eu81 2.370 1_554 S
O82 Eu84 2.370 1_554 S
O82 Eu89 2.360 1_455 S
O83 Eu81 2.370 1_655 S
O83 Eu85 2.370 1_556 S
O83 Eu88 2.370 1_655 S
Eu84 O82 2.370 1_556 S
Eu84 O86 2.370 . S
Eu84 O90 2.370 1_545 S
Eu84 O91 2.370 1_546 S
Eu84 O99 2.363 1_545 S
Eu84 O100 2.363 . S
Eu84 O115 2.363 . S
Eu84 O116 2.363 1_556 S
Eu85 O83 2.370 1_554 S
Eu85 O87 2.370 . S
Eu85 O92 2.370 1_545 S
Eu85 O93 2.370 1_544 S
Eu85 O101 2.363 1_545 S
Eu85 O102 2.363 . S
Eu85 O117 2.363 1_554 S
Eu85 O118 2.363 . S
O86 Eu81 2.370 . S
O86 Eu84 2.370 . S
O86 Eu88 2.370 . S
O87 Eu81 2.370 1_654 S
O87 Eu85 2.370 . S
O87 Eu89 2.382 . S
Eu88 O83 2.370 1_455 S
Eu88 O86 2.370 . S
Eu88 O90 2.370 1_545 S
Eu88 O93 2.370 1_445 S
Eu88 O105 2.363 1_455 S
Eu88 O106 2.363 . S
Eu88 O113 2.363 . S
Eu88 O114 2.363 1_545 S
Eu89 O82 2.360 1_655 S
Eu89 O87 2.382 . S
Eu89 O91 2.359 1_645 S
Eu89 O92 2.381 1_545 S
Eu89 O103 2.382 . S
Eu89 O104 2.344 1_655 S
Eu89 O111 2.363 1_655 S
Eu89 O112 2.362 1_545 S
O90 Eu84 2.370 1_565 S
O90 Eu88 2.370 1_565 S
O90 Eu94 2.362 1_456 S
O91 Eu84 2.370 1_564 S
O91 Eu89 2.359 1_465 S
O91 Eu94 2.362 1_455 S
O92 Eu85 2.370 1_565 S
O92 Eu89 2.381 1_565 S
O92 Eu94 2.379 . S
O93 Eu85 2.370 1_566 S
O93 Eu88 2.370 1_665 S
O93 Eu94 2.379 1_556 S
Eu94 O90 2.362 1_654 S
Eu94 O91 2.362 1_655 S
Eu94 O92 2.379 . S
Eu94 O93 2.379 1_554 S
Eu94 O97 2.363 1_654 S
Eu94 O98 2.362 . S
Eu94 O107 2.377 . S
Eu94 O108 2.348 1_655 S
O95 C69 1.283 . S
O95 Eu81 2.363 . S
O96 C70 1.283 . S
O96 Eu81 2.363 1_554 S
O97 C71 1.283 . S
O97 Eu94 2.363 1_456 S
O98 C72 1.283 . S
O98 Eu94 2.362 . S
O99 C73 1.283 1_556 S
O99 Eu84 2.363 1_565 S
O100 C74 1.283 . S
O100 Eu84 2.363 . S
O101 C75 1.283 . S
O101 Eu85 2.363 1_565 S
O102 C76 1.283 . S
O102 Eu85 2.363 . S
O103 C77 1.283 . S
O103 Eu89 2.382 . S
O104 C78 1.283 . S
O104 Eu89 2.344 1_455 S
O105 C79 1.283 . S
O105 Eu88 2.363 1_655 S
O106 C80 1.283 . S
O106 Eu88 2.363 . S
O107 C75 1.283 . S
O107 Eu94 2.377 . S
O108 C73 1.283 . S
O108 Eu94 2.348 1_455 S
O109 C76 1.283 1_556 S
O109 Eu81 2.363 1_655 S
O110 C74 1.283 . S
O110 Eu81 2.363 . S
O111 C70 1.283 . S
O111 Eu89 2.363 1_455 S
O112 C72 1.283 . S
O112 Eu89 2.362 1_565 S
O113 C69 1.283 . S
O113 Eu88 2.363 . S
O114 C71 1.283 . S
O114 Eu88 2.363 1_565 S
O115 C80 1.283 . S
O115 Eu84 2.363 . S
O116 C78 1.283 . S
O116 Eu84 2.363 1_554 S
O117 C79 1.283 . S
O117 Eu85 2.363 1_556 S
O118 C77 1.283 . S
O118 Eu85 2.363 . S
H119 C120 0.951 . S
C120 H119 0.951 . S
C120 C126 1.265 1_455 S
H121 C126 0.950 . S
H122 C130 0.949 . S
H123 C131 0.950 . S
H124 C132 0.951 . S
H125 C133 0.951 . S
C126 C120 1.265 1_655 S
C126 H121 0.950 . S
C126 C127 1.478 . S
C127 C126 1.478 . S
C127 C128 1.396 . S
C127 C144 1.394 1_655 S
C128 C127 1.396 . S
C128 C129 1.438 . S
C128 C133 1.429 . S
C129 C128 1.438 . S
C129 C130 1.428 . S
C129 C142 1.394 1_655 S
C130 H122 0.949 . S
C130 C129 1.428 . S
C130 C131 1.345 . S
C131 H123 0.950 . S
C131 C130 1.345 . S
C131 C132 1.424 . S
C132 H124 0.951 . S
C132 C131 1.424 . S
C132 C133 1.347 . S
C133 H125 0.951 . S
C133 C128 1.429 . S
C133 C132 1.347 . S
H134 C135 0.951 . S
C135 H134 0.951 . S
C135 C141 1.265 1_655 S
H136 C141 0.950 . S
H137 C145 0.949 . S
H138 C146 0.950 . S
H139 C147 0.951 . S
H140 C148 0.951 . S
C141 C135 1.265 1_455 S
C141 H136 0.950 . S
C141 C142 1.478 . S
C142 C129 1.394 1_455 S
C142 C141 1.478 . S
C142 C143 1.397 . S
C143 C142 1.397 . S
C143 C144 1.438 . S
C143 C148 1.429 . S
C144 C127 1.394 1_455 S
C144 C143 1.438 . S
C144 C145 1.428 . S
C145 H137 0.949 . S
C145 C144 1.428 . S
C145 C146 1.345 . S
C146 H138 0.950 . S
C146 C145 1.345 . S
C146 C147 1.424 . S
C147 H139 0.951 . S
C147 C146 1.424 . S
C147 C148 1.347 . S
C148 H140 0.951 . S
C148 C143 1.429 . S
C148 C147 1.347 . S
H149 C150 0.951 1_565 S
C150 H149 0.951 1_545 S
C150 C156 1.265 . S
H151 C156 0.950 . S
H152 C160 0.949 . S
H153 C161 0.950 . S
H154 C162 0.951 . S
H155 C163 0.951 . S
C156 C150 1.265 . S
C156 H151 0.950 . S
C156 C157 1.478 . S
C157 C156 1.478 . S
C157 C158 1.397 . S
C157 C174 1.394 . S
C158 C157 1.397 . S
C158 C159 1.438 1_545 S
C158 C163 1.429 1_545 S
C159 C158 1.438 1_565 S
C159 C160 1.428 . S
C159 C172 1.394 1_565 S
C160 H152 0.949 . S
C160 C159 1.428 . S
C160 C161 1.345 . S
C161 H153 0.950 . S
C161 C160 1.345 . S
C161 C162 1.424 . S
C162 H154 0.951 . S
C162 C161 1.424 . S
C162 C163 1.347 . S
C163 H155 0.951 . S
C163 C158 1.429 1_565 S
C163 C162 1.347 . S
H164 C165 0.951 . S
C165 H164 0.951 . S
C165 C171 1.265 1_545 S
H166 C171 0.950 . S
H167 C175 0.949 . S
H168 C176 0.950 . S
H169 C177 0.951 . S
H170 C178 0.951 . S
C171 C165 1.265 1_565 S
C171 H166 0.950 . S
C171 C172 1.478 1_565 S
C172 C159 1.394 1_545 S
C172 C171 1.478 1_545 S
C172 C173 1.397 . S
C173 C172 1.397 . S
C173 C174 1.438 . S
C173 C178 1.429 . S
C174 C157 1.394 . S
C174 C173 1.438 . S
C174 C175 1.428 . S
C175 H167 0.949 . S
C175 C174 1.428 . S
C175 C176 1.345 . S
C176 H168 0.950 . S
C176 C175 1.345 . S
C176 C177 1.424 . S
C177 H169 0.951 . S
C177 C176 1.424 . S
C177 C178 1.347 . S
C178 H170 0.951 . S
C178 C173 1.429 . S
C178 C177 1.347 . S
H179 C180 0.951 . S
C180 H179 0.951 . S
C180 C186 1.265 . S
H181 C186 0.950 1_455 S
H182 C190 0.949 . S
H183 C191 0.950 . S
H184 C192 0.951 . S
H185 C193 0.951 . S
C186 C180 1.265 . S
C186 H181 0.950 1_655 S
C186 C187 1.478 . S
C187 C186 1.478 . S
C187 C188 1.397 1_655 S
C187 C204 1.394 . S
C188 C187 1.397 1_455 S
C188 C189 1.438 . S
C188 C193 1.429 . S
C189 C188 1.438 . S
C189 C190 1.428 . S
C189 C202 1.394 1_455 S
C190 H182 0.949 . S
C190 C189 1.428 . S
C190 C191 1.345 . S
C191 H183 0.950 . S
C191 C190 1.345 . S
C191 C192 1.424 . S
C192 H184 0.951 . S
C192 C191 1.424 . S
C192 C193 1.347 . S
C193 H185 0.951 . S
C193 C188 1.429 . S
C193 C192 1.347 . S
H194 C195 0.951 1_455 S
C195 H194 0.951 1_655 S
C195 C201 1.265 . S
H196 C201 0.950 . S
H197 C205 0.949 . S
H198 C206 0.950 . S
H199 C207 0.951 . S
H200 C208 0.951 . S
C201 C195 1.265 . S
C201 H196 0.950 . S
C201 C202 1.478 . S
C202 C189 1.394 1_655 S
C202 C201 1.478 . S
C202 C203 1.397 . S
C203 C202 1.397 . S
C203 C204 1.438 . S
C203 C208 1.429 . S
C204 C187 1.394 . S
C204 C203 1.438 . S
C204 C205 1.428 . S
C205 H197 0.949 . S
C205 C204 1.428 . S
C205 C206 1.345 . S
C206 H198 0.950 . S
C206 C205 1.345 . S
C206 C207 1.424 . S
C207 H199 0.951 . S
C207 C206 1.424 . S
C207 C208 1.347 . S
C208 H200 0.951 . S
C208 C203 1.429 . S
C208 C207 1.347 . S
H209 C210 0.950 1_545 S
C210 H209 0.950 1_565 S
C210 C216 1.265 . S
H211 C216 0.950 . S
H212 C220 0.949 . S
H213 C221 0.950 . S
H214 C222 0.951 . S
H215 C223 0.951 . S
C216 C210 1.265 . S
C216 H211 0.950 . S
C216 C217 1.478 . S
C217 C216 1.478 . S
C217 C218 1.397 . S
C217 C234 1.394 1_565 S
C218 C217 1.397 . S
C218 C219 1.438 . S
C218 C223 1.429 . S
C219 C218 1.438 . S
C219 C220 1.428 . S
C219 C232 1.394 1_565 S
C220 H212 0.949 . S
C220 C219 1.428 . S
C220 C221 1.345 . S
C221 H213 0.950 . S
C221 C220 1.345 . S
C221 C222 1.424 . S
C222 H214 0.951 . S
C222 C221 1.424 . S
C222 C223 1.347 . S
C223 H215 0.951 . S
C223 C218 1.429 . S
C223 C222 1.347 . S
H224 C225 0.951 . S
C225 H224 0.951 . S
C225 C231 1.265 . S
H226 C231 0.950 . S
H227 C235 0.949 . S
H228 C236 0.950 . S
H229 C237 0.951 . S
H230 C238 0.951 . S
C231 C225 1.265 . S
C231 H226 0.950 . S
C231 C232 1.478 . S
C232 C219 1.394 1_545 S
C232 C231 1.478 . S
C232 C233 1.397 . S
C233 C232 1.397 . S
C233 C234 1.438 . S
C233 C238 1.429 . S
C234 C217 1.394 1_545 S
C234 C233 1.438 . S
C234 C235 1.428 . S
C235 H227 0.949 . S
C235 C234 1.428 . S
C235 C236 1.345 . S
C236 H228 0.950 . S
C236 C235 1.345 . S
C236 C237 1.424 . S
C237 H229 0.951 . S
C237 C236 1.424 . S
C237 C238 1.347 . S
C238 H230 0.951 . S
C238 C233 1.429 . S
C238 C237 1.347 . S
H239 C240 0.951 1_655 S
C240 H239 0.951 1_455 S
C240 C246 1.265 . S
H241 C246 0.950 . S
H242 C250 0.949 . S
H243 C251 0.950 . S
H244 C252 0.951 . S
H245 C253 0.951 . S
C246 C240 1.265 . S
C246 H241 0.950 . S
C246 C247 1.478 . S
C247 C246 1.478 . S
C247 C248 1.397 . S
C247 C264 1.394 1_455 S
C248 C247 1.397 . S
C248 C249 1.438 . S
C248 C253 1.429 . S
C249 C248 1.438 . S
C249 C250 1.428 . S
C249 C262 1.394 1_455 S
C250 H242 0.949 . S
C250 C249 1.428 . S
C250 C251 1.345 . S
C251 H243 0.950 . S
C251 C250 1.345 . S
C251 C252 1.424 . S
C252 H244 0.951 . S
C252 C251 1.424 . S
C252 C253 1.347 . S
C253 H245 0.951 . S
C253 C248 1.429 . S
C253 C252 1.347 . S
H254 C255 0.951 . S
C255 H254 0.951 . S
C255 C261 1.265 1_455 S
H256 C261 0.950 . S
H257 C265 0.949 . S
H258 C266 0.950 . S
H259 C267 0.951 . S
H260 C268 0.951 . S
C261 C255 1.265 1_655 S
C261 H256 0.950 . S
C261 C262 1.478 . S
C262 C249 1.394 1_655 S
C262 C261 1.478 . S
C262 C263 1.397 . S
C263 C262 1.397 . S
C263 C264 1.438 . S
C263 C268 1.429 . S
C264 C247 1.394 1_655 S
C264 C263 1.438 . S
C264 C265 1.428 . S
C265 H257 0.949 . S
C265 C264 1.428 . S
C265 C266 1.345 . S
C266 H258 0.950 . S
C266 C265 1.345 . S
C266 C267 1.424 . S
C267 H259 0.951 . S
C267 C266 1.424 . S
C267 C268 1.347 . S
C268 H260 0.951 . S
C268 C263 1.429 . S
C268 C267 1.347 . S
H269 C270 0.951 . S
C270 H269 0.951 . S
C270 C276 1.265 . S
H271 C276 0.950 . S
H272 C280 0.949 . S
H273 C281 0.950 . S
H274 C282 0.951 . S
H275 C283 0.951 . S
C276 C270 1.265 . S
C276 H271 0.950 . S
C276 C277 1.478 . S
C277 C276 1.478 . S
C277 C278 1.397 1_545 S
C277 C294 1.394 . S
C278 C277 1.397 1_565 S
C278 C279 1.438 . S
C278 C283 1.429 . S
C279 C278 1.438 . S
C279 C280 1.428 . S
C279 C292 1.394 1_565 S
C280 H272 0.949 . S
C280 C279 1.428 . S
C280 C281 1.345 . S
C281 H273 0.950 . S
C281 C280 1.345 . S
C281 C282 1.424 . S
C282 H274 0.951 . S
C282 C281 1.424 . S
C282 C283 1.347 . S
C283 H275 0.951 . S
C283 C278 1.429 . S
C283 C282 1.347 . S
H284 C285 0.951 . S
C285 H284 0.951 . S
C285 C291 1.265 . S
H286 C291 0.950 . S
H287 C295 0.949 . S
H288 C296 0.950 . S
H289 C297 0.951 . S
H290 C298 0.951 . S
C291 C285 1.265 . S
C291 H286 0.950 . S
C291 C292 1.478 . S
C292 C279 1.394 1_545 S
C292 C291 1.478 . S
C292 C293 1.397 . S
C293 C292 1.397 . S
C293 C294 1.438 . S
C293 C298 1.429 . S
C294 C277 1.394 . S
C294 C293 1.438 . S
C294 C295 1.428 . S
C295 H287 0.949 . S
C295 C294 1.428 . S
C295 C296 1.345 . S
C296 H288 0.950 . S
C296 C295 1.345 . S
C296 C297 1.424 . S
C297 H289 0.951 . S
C297 C296 1.424 . S
C297 C298 1.347 . S
C298 H290 0.951 . S
C298 C293 1.429 . S
C298 C297 1.347 . S
H299 C300 0.945 1_455 S
C300 H299 0.945 1_655 S
C300 C306 1.265 . S
H301 C306 0.950 . S
H302 C310 0.949 . S
H303 C311 0.950 . S
H304 C312 0.951 . S
H305 C313 0.951 . S
C306 C300 1.265 . S
C306 H301 0.950 . S
C306 C307 1.478 . S
C307 C306 1.478 . S
C307 C308 1.397 . S
C307 C324 1.394 1_655 S
C308 C307 1.397 . S
C308 C309 1.438 . S
C308 C313 1.429 . S
C309 C308 1.438 . S
C309 C310 1.428 . S
C309 C322 1.394 1_655 S
C310 H302 0.949 . S
C310 C309 1.428 . S
C310 C311 1.345 . S
C311 H303 0.950 . S
C311 C310 1.345 . S
C311 C312 1.424 . S
C312 H304 0.951 . S
C312 C311 1.424 . S
C312 C313 1.347 . S
C313 H305 0.951 . S
C313 C308 1.429 . S
C313 C312 1.347 . S
H314 C315 0.951 1_655 S
C315 H314 0.951 1_455 S
C315 C321 1.265 . S
H316 C321 0.950 . S
H317 C325 0.949 . S
H318 C326 0.950 . S
H319 C327 0.951 . S
H320 C328 0.951 . S
C321 C315 1.265 . S
C321 H316 0.950 . S
C321 C322 1.478 . S
C322 C309 1.394 1_455 S
C322 C321 1.478 . S
C322 C323 1.397 . S
C323 C322 1.397 . S
C323 C324 1.438 . S
C323 C328 1.429 . S
C324 C307 1.394 1_455 S
C324 C323 1.438 . S
C324 C325 1.428 . S
C325 H317 0.949 . S
C325 C324 1.428 . S
C325 C326 1.345 . S
C326 H318 0.950 . S
C326 C325 1.345 . S
C326 C327 1.424 . S
C327 H319 0.951 . S
C327 C326 1.424 . S
C327 C328 1.347 . S
C328 H320 0.951 . S
C328 C323 1.429 . S
C328 C327 1.347 . S
H329 C330 0.951 . S
C330 H329 0.951 . S
C330 C336 1.264 1_565 S
H331 C336 0.950 . S
H332 C340 0.949 . S
H333 C341 0.950 . S
H334 C342 0.951 . S
H335 C343 0.951 . S
C336 C330 1.264 1_545 S
C336 H331 0.950 . S
C336 C337 1.479 . S
C337 C336 1.479 . S
C337 C338 1.397 . S
C337 C354 1.394 1_545 S
C338 C337 1.397 . S
C338 C339 1.438 . S
C338 C343 1.429 . S
C339 C338 1.438 . S
C339 C340 1.428 . S
C339 C352 1.394 . S
C340 H332 0.949 . S
C340 C339 1.428 . S
C340 C341 1.345 . S
C341 H333 0.950 . S
C341 C340 1.345 . S
C341 C342 1.424 . S
C342 H334 0.951 . S
C342 C341 1.424 . S
C342 C343 1.347 . S
C343 H335 0.951 . S
C343 C338 1.429 . S
C343 C342 1.347 . S
H344 C345 0.951 . S
C345 H344 0.951 . S
C345 C351 1.265 . S
H346 C351 0.950 . S
H347 C355 0.949 . S
H348 C356 0.950 . S
H349 C357 0.951 . S
H350 C358 0.951 . S
C351 C345 1.265 . S
C351 H346 0.950 . S
C351 C352 1.478 . S
C352 C339 1.394 . S
C352 C351 1.478 . S
C352 C353 1.397 1_545 S
C353 C352 1.397 1_565 S
C353 C354 1.438 . S
C353 C358 1.429 . S
C354 C337 1.394 1_565 S
C354 C353 1.438 . S
C354 C355 1.428 . S
C355 H347 0.949 . S
C355 C354 1.428 . S
C355 C356 1.345 . S
C356 H348 0.950 . S
C356 C355 1.345 . S
C356 C357 1.424 . S
C357 H349 0.951 . S
C357 C356 1.424 . S
C357 C358 1.347 . S
C358 H350 0.951 . S
C358 C353 1.429 . S
C358 C357 1.347 . S
H359 C360 0.951 . S
C360 H359 0.951 . S
C360 C366 1.265 . S
H361 C366 0.950 . S
H362 C370 0.949 . S
H363 C371 0.950 . S
H364 C372 0.951 . S
H365 C373 0.951 . S
C366 C360 1.265 . S
C366 H361 0.950 . S
C366 C367 1.478 . S
C367 C366 1.478 . S
C367 C368 1.397 1_554 S
C367 C384 1.394 . S
C368 C367 1.397 1_556 S
C368 C369 1.438 . S
C368 C373 1.429 . S
C369 C368 1.438 . S
C369 C370 1.428 . S
C369 C382 1.386 1_556 S
C370 H362 0.949 . S
C370 C369 1.428 . S
C370 C371 1.345 . S
C371 H363 0.950 . S
C371 C370 1.345 . S
C371 C372 1.424 . S
C372 H364 0.951 . S
C372 C371 1.424 . S
C372 C373 1.347 . S
C373 H365 0.951 . S
C373 C368 1.429 . S
C373 C372 1.347 . S
H374 C375 0.951 1_554 S
C375 H374 0.951 1_556 S
C375 C381 1.265 . S
H376 C381 0.950 . S
H377 C385 0.949 . S
H378 C386 0.950 . S
H379 C387 0.951 . S
H380 C388 0.951 . S
C381 C375 1.265 . S
C381 H376 0.950 . S
C381 C382 1.477 1_556 S
C382 C369 1.386 1_554 S
C382 C381 1.477 1_554 S
C382 C383 1.406 . S
C383 C382 1.406 . S
C383 C384 1.438 . S
C383 C388 1.429 . S
C384 C367 1.394 . S
C384 C383 1.438 . S
C384 C385 1.428 . S
C385 H377 0.949 . S
C385 C384 1.428 . S
C385 C386 1.345 . S
C386 H378 0.950 . S
C386 C385 1.345 . S
C386 C387 1.424 . S
C387 H379 0.951 . S
C387 C386 1.424 . S
C387 C388 1.347 . S
C388 H380 0.951 . S
C388 C383 1.429 . S
C388 C387 1.347 . S
H389 C390 0.951 . S
C390 H389 0.951 . S
C390 C396 1.265 . S
H391 C396 0.950 . S
H392 C400 0.949 . S
H393 C401 0.950 . S
H394 C402 0.951 . S
H395 C403 0.951 . S
C396 C390 1.265 . S
C396 H391 0.950 . S
C396 C397 1.478 . S
C397 C396 1.478 . S
C397 C398 1.397 1_556 S
C397 C414 1.394 . S
C398 C397 1.397 1_554 S
C398 C399 1.438 . S
C398 C403 1.429 . S
C399 C398 1.438 . S
C399 C400 1.428 . S
C399 C412 1.394 1_554 S
C400 H392 0.949 . S
C400 C399 1.428 . S
C400 C401 1.345 . S
C401 H393 0.950 . S
C401 C400 1.345 . S
C401 C402 1.424 . S
C402 H394 0.951 . S
C402 C401 1.424 . S
C402 C403 1.347 . S
C403 H395 0.951 . S
C403 C398 1.429 . S
C403 C402 1.347 . S
H404 C405 0.951 . S
C405 H404 0.951 . S
C405 C411 1.264 1_554 S
H406 C411 0.950 . S
H407 C415 0.949 . S
H408 C416 0.950 . S
H409 C417 0.951 . S
H410 C418 0.951 . S
C411 C405 1.264 1_556 S
C411 H406 0.950 . S
C411 C412 1.478 . S
C412 C399 1.394 1_556 S
C412 C411 1.478 . S
C412 C413 1.397 . S
C413 C412 1.397 . S
C413 C414 1.438 . S
C413 C418 1.429 . S
C414 C397 1.394 . S
C414 C413 1.438 . S
C414 C415 1.428 . S
C415 H407 0.949 . S
C415 C414 1.428 . S
C415 C416 1.345 . S
C416 H408 0.950 . S
C416 C415 1.345 . S
C416 C417 1.424 . S
C417 H409 0.951 . S
C417 C416 1.424 . S
C417 C418 1.347 . S
C418 H410 0.951 . S
C418 C413 1.429 . S
C418 C417 1.347 . S
H419 C420 0.951 . S
C420 H419 0.951 . S
C420 C426 1.265 . S
H421 C426 0.950 . S
H422 C430 0.949 . S
H423 C431 0.950 . S
H424 C432 0.951 . S
H425 C433 0.951 . S
C426 C420 1.265 . S
C426 H421 0.950 . S
C426 C427 1.478 . S
C427 C426 1.478 . S
C427 C428 1.397 . S
C427 C444 1.394 1_556 S
C428 C427 1.397 . S
C428 C429 1.438 . S
C428 C433 1.429 . S
C429 C428 1.438 . S
C429 C430 1.428 . S
C429 C442 1.394 . S
C430 H422 0.949 . S
C430 C429 1.428 . S
C430 C431 1.345 . S
C431 H423 0.950 . S
C431 C430 1.345 . S
C431 C432 1.424 . S
C432 H424 0.951 . S
C432 C431 1.424 . S
C432 C433 1.347 . S
C433 H425 0.951 . S
C433 C428 1.429 . S
C433 C432 1.347 . S
H434 C435 0.951 . S
C435 H434 0.951 . S
C435 C441 1.265 1_554 S
H436 C441 0.950 . S
H437 C445 0.949 . S
H438 C446 0.950 . S
H439 C447 0.951 . S
H440 C448 0.951 . S
C441 C435 1.265 1_556 S
C441 H436 0.950 . S
C441 C442 1.478 . S
C442 C429 1.394 . S
C442 C441 1.478 . S
C442 C443 1.397 1_556 S
C443 C442 1.397 1_554 S
C443 C444 1.438 . S
C443 C448 1.429 . S
C444 C427 1.394 1_554 S
C444 C443 1.438 . S
C444 C445 1.428 . S
C445 H437 0.949 . S
C445 C444 1.428 . S
C445 C446 1.345 . S
C446 H438 0.950 . S
C446 C445 1.345 . S
C446 C447 1.424 . S
C447 H439 0.951 . S
C447 C446 1.424 . S
C447 C448 1.347 . S
C448 H440 0.951 . S
C448 C443 1.429 . S
C448 C447 1.347 . S
H449 C450 0.951 . S
C450 H449 0.951 . S
C450 C456 1.265 . S
H451 C456 0.950 1_556 S
H452 C460 0.949 . S
H453 C461 0.950 . S
H454 C462 0.951 . S
H455 C463 0.951 . S
C456 C450 1.265 . S
C456 H451 0.950 1_554 S
C456 C457 1.478 . S
C457 C456 1.478 . S
C457 C458 1.397 1_554 S
C457 C474 1.394 . S
C458 C457 1.397 1_556 S
C458 C459 1.438 . S
C458 C463 1.429 . S
C459 C458 1.438 . S
C459 C460 1.428 . S
C459 C472 1.394 1_556 S
C460 H452 0.949 . S
C460 C459 1.428 . S
C460 C461 1.345 . S
C461 H453 0.950 . S
C461 C460 1.345 . S
C461 C462 1.424 . S
C462 H454 0.951 . S
C462 C461 1.424 . S
C462 C463 1.347 . S
C463 H455 0.951 . S
C463 C458 1.429 . S
C463 C462 1.347 . S
H464 C465 0.946 1_556 S
C465 H464 0.946 1_554 S
C465 C471 1.265 . S
H466 C471 0.950 . S
H467 C475 0.949 . S
H468 C476 0.950 . S
H469 C477 0.951 . S
H470 C478 0.951 . S
C471 C465 1.265 . S
C471 H466 0.950 . S
C471 C472 1.478 . S
C472 C459 1.394 1_554 S
C472 C471 1.478 . S
C472 C473 1.397 . S
C473 C472 1.397 . S
C473 C474 1.438 . S
C473 C478 1.429 . S
C474 C457 1.394 . S
C474 C473 1.438 . S
C474 C475 1.428 . S
C475 H467 0.949 . S
C475 C474 1.428 . S
C475 C476 1.345 . S
C476 H468 0.950 . S
C476 C475 1.345 . S
C476 C477 1.424 . S
C477 H469 0.951 . S
C477 C476 1.424 . S
C477 C478 1.347 . S
C478 H470 0.951 . S
C478 C473 1.429 . S
C478 C477 1.347 . S
C135 C70 1.237 1_655 S
C120 N2 1.153 . S
C165 C77 1.601 . S
C150 C39 1.592 . S
C195 C72 1.455 . S
C180 C7 1.429 . S
C225 C78 1.374 . S
C210 N35 1.372 . S
C240 N12 1.186 . S
C255 C71 1.206 . S
C285 C80 1.641 . S
C270 C30 1.619 . S
C300 C16 1.439 . S
C315 C69 1.424 . S
C330 N25 1.321 . S
C345 C79 1.405 . S
C360 C62 1.760 . S
C375 C74 1.789 . S
C390 N48 1.487 . S
C405 C73 1.580 . S
C435 C76 1.558 . S
C420 N58 1.536 . S
C465 C75 1.823 . S
C450 C53 1.799 . S
