# Generated by pormake.
# Topology zzz, (3,6)-cn, num edge types: 1
# Building blocks:
#     Node 0, Type 0, BuildingBlock: OLANEW_clean_sbu_2, # of connection points: 3
#     Node 1, Type 0, BuildingBlock: OLANEW_clean_sbu_2, # of connection points: 3
#     Node 2, Type 0, BuildingBlock: OLANEW_clean_sbu_2, # of connection points: 3
#     Node 3, Type 0, BuildingBlock: OLANEW_clean_sbu_2, # of connection points: 3
#     Node 4, Type 0, BuildingBlock: OLANEW_clean_sbu_2, # of connection points: 3
#     Node 5, Type 0, BuildingBlock: OLANEW_clean_sbu_2, # of connection points: 3
#     Node 6, Type 0, BuildingBlock: OLANEW_clean_sbu_2, # of connection points: 3
#     Node 7, Type 0, BuildingBlock: OLANEW_clean_sbu_2, # of connection points: 3
#     Node 8, Type 1, BuildingBlock: PAMTUU_clean_sbu_0, # of connection points: 6
#     Node 9, Type 1, BuildingBlock: PAMTUU_clean_sbu_0, # of connection points: 6
#     Node 10, Type 1, BuildingBlock: PAMTUU_clean_sbu_0, # of connection points: 6
#     Node 11, Type 1, BuildingBlock: PAMTUU_clean_sbu_0, # of connection points: 6
#     Edge 12, Type (0, 1), BuildingBlock: ZUJKAS_clean_linker_0, # of connection points: 2
#     Edge 13, Type (0, 1), BuildingBlock: ZUJKAS_clean_linker_0, # of connection points: 2
#     Edge 14, Type (0, 1), BuildingBlock: ZUJKAS_clean_linker_0, # of connection points: 2
#     Edge 15, Type (0, 1), BuildingBlock: ZUJKAS_clean_linker_0, # of connection points: 2
#     Edge 16, Type (0, 1), BuildingBlock: ZUJKAS_clean_linker_0, # of connection points: 2
#     Edge 17, Type (0, 1), BuildingBlock: ZUJKAS_clean_linker_0, # of connection points: 2
#     Edge 18, Type (0, 1), BuildingBlock: ZUJKAS_clean_linker_0, # of connection points: 2
#     Edge 19, Type (0, 1), BuildingBlock: ZUJKAS_clean_linker_0, # of connection points: 2
#     Edge 20, Type (0, 1), BuildingBlock: ZUJKAS_clean_linker_0, # of connection points: 2
#     Edge 21, Type (0, 1), BuildingBlock: ZUJKAS_clean_linker_0, # of connection points: 2
#     Edge 22, Type (0, 1), BuildingBlock: ZUJKAS_clean_linker_0, # of connection points: 2
#     Edge 23, Type (0, 1), BuildingBlock: ZUJKAS_clean_linker_0, # of connection points: 2
#     Edge 24, Type (0, 1), BuildingBlock: ZUJKAS_clean_linker_0, # of connection points: 2
#     Edge 25, Type (0, 1), BuildingBlock: ZUJKAS_clean_linker_0, # of connection points: 2
#     Edge 26, Type (0, 1), BuildingBlock: ZUJKAS_clean_linker_0, # of connection points: 2
#     Edge 27, Type (0, 1), BuildingBlock: ZUJKAS_clean_linker_0, # of connection points: 2
#     Edge 28, Type (0, 1), BuildingBlock: ZUJKAS_clean_linker_0, # of connection points: 2
#     Edge 29, Type (0, 1), BuildingBlock: ZUJKAS_clean_linker_0, # of connection points: 2
#     Edge 30, Type (0, 1), BuildingBlock: ZUJKAS_clean_linker_0, # of connection points: 2
#     Edge 31, Type (0, 1), BuildingBlock: ZUJKAS_clean_linker_0, # of connection points: 2
#     Edge 32, Type (0, 1), BuildingBlock: ZUJKAS_clean_linker_0, # of connection points: 2
#     Edge 33, Type (0, 1), BuildingBlock: ZUJKAS_clean_linker_0, # of connection points: 2
#     Edge 34, Type (0, 1), BuildingBlock: ZUJKAS_clean_linker_0, # of connection points: 2
#     Edge 35, Type (0, 1), BuildingBlock: ZUJKAS_clean_linker_0, # of connection points: 2
# Relax obj value: 0.180
# Max RMSD: 0.207
# Mean RMSD: 0.130
data_MOF--net-zzz--node1-OLANEW_clean_sbu_2--node2-PAMTUU_clean_sbu_0--edge1-ZUJKAS_clean_linker_0
_symmetry_space_group_name_H-M    P1
_symmetry_Int_Tables_number       1
_symmetry_cell_setting            triclinic
loop_
_symmetry_equiv_pos_as_xyz
'x, y, z'
_cell_length_a     70.611112
_cell_length_b     72.439916
_cell_length_c     21.859817
_cell_angle_alpha  98.578447
_cell_angle_beta   89.930081
_cell_angle_gamma 91.455569
loop_
_atom_site_label
_atom_site_type_symbol
_atom_site_fract_x
_atom_site_fract_y
_atom_site_fract_z
_atom_type_partial_charge
O0 O 0.74953 0.55766 0.2283 0.0
Cd1 Cd 0.72199 0.5732 0.27739 0.0
O2 O 0.7561 0.54866 0.31705 0.0
Cd3 Cd 0.77325 0.53329 0.37397 0.0
O4 O 0.79697 0.52213 0.41856 0.0
C5 C 0.80678 0.53348 0.45649 0.0
O6 O 0.80178 0.551 0.46816 0.0
C7 C 0.76022 0.54911 0.26067 0.0
C8 C 0.68905 0.55813 0.21832 0.0
O9 O 0.69805 0.57189 0.19998 0.0
O10 O 0.69553 0.55164 0.26533 0.0
O11 O 0.91717 0.75208 0.0823 0.0
Cd12 Cd 0.89671 0.72635 0.10523 0.0
O13 O 0.92319 0.75751 0.18168 0.0
Cd14 Cd 0.93455 0.77518 0.26357 0.0
O15 O 0.94441 0.79858 0.33097 0.0
C16 C 0.94345 0.79829 0.38883 0.0
O17 O 0.93663 0.78326 0.40893 0.0
C18 C 0.9258 0.76165 0.12771 0.0
C19 C 0.91415 0.69226 0.07291 0.0
O20 O 0.90304 0.69862 0.03512 0.0
O21 O 0.91693 0.702 0.12622 0.0
O22 O 0.76848 0.93962 0.27734 0.0
Cd23 Cd 0.79848 0.93073 0.31802 0.0
O24 O 0.77424 0.96804 0.32518 0.0
Cd25 Cd 0.76336 0.99539 0.36178 0.0
O26 O 0.73655 0.00554 0.40072 0.0
C27 C 0.72661 0.99258 0.41911 0.0
O28 O 0.7336 0.97578 0.41409 0.0
C29 C 0.76351 0.95645 0.29099 0.0
C30 C 0.82848 0.94597 0.25804 0.0
O31 O 0.8215 0.92971 0.23771 0.0
O32 O 0.82138 0.95497 0.30734 0.0
O33 O 0.58647 0.73046 0.89477 0.0
Cd34 Cd 0.60857 0.75723 0.91474 0.0
O35 O 0.59616 0.72205 0.9815 0.0
Cd36 Cd 0.59825 0.70213 0.04708 0.0
O37 O 0.59698 0.68051 0.10669 0.0
C38 C 0.59322 0.66369 0.08318 0.0
O39 O 0.59051 0.6597 0.02317 0.0
C40 C 0.58569 0.71902 0.93354 0.0
C41 C 0.59287 0.79103 0.89766 0.0
O42 O 0.6004 0.7804 0.8525 0.0
O43 O 0.59257 0.78556 0.9508 0.0
O44 O 0.28048 0.57315 0.28438 0.0
Cd45 Cd 0.30842 0.57879 0.22352 0.0
O46 O 0.27854 0.54541 0.22851 0.0
Cd47 Cd 0.26206 0.51998 0.19526 0.0
O48 O 0.23623 0.5051 0.15964 0.0
C49 C 0.22087 0.5132 0.17582 0.0
O50 O 0.22169 0.52921 0.213 0.0
C51 C 0.27222 0.55726 0.27208 0.0
C52 C 0.33996 0.56675 0.28074 0.0
O53 O 0.33498 0.58381 0.29186 0.0
O54 O 0.33024 0.55547 0.24135 0.0
O55 O 0.0566 0.23278 0.28769 0.0
Cd56 Cd 0.07226 0.2552 0.23037 0.0
O57 O 0.08305 0.22739 0.33409 0.0
Cd58 Cd 0.09975 0.23665 0.25972 0.0
O59 O 0.10447 0.21754 0.17436 0.0
C60 C 0.09281 0.21687 0.12981 0.0
O61 O 0.07991 0.2297 0.13243 0.0
C62 C 0.06514 0.22545 0.32888 0.0
C63 C 0.06818 0.29061 0.29724 0.0
O64 O 0.05615 0.28392 0.25535 0.0
O65 O 0.08241 0.28071 0.30628 0.0
O66 O 0.23793 0.94457 0.24599 0.0
Cd67 Cd 0.20751 0.94132 0.19241 0.0
O68 O 0.24323 0.97014 0.20569 0.0
Cd69 Cd 0.26268 0.99161 0.18061 0.0
O70 O 0.29014 -4e-05 0.14732 0.0
C71 C 0.30196 0.9869 0.1387 0.0
O72 O 0.29676 0.97029 0.15092 0.0
C73 C 0.24869 0.95845 0.23957 0.0
C74 C 0.17867 0.95411 0.27325 0.0
O75 O 0.18355 0.937 0.26632 0.0
O76 O 0.18733 0.96516 0.24134 0.0
O77 O 0.41221 0.26494 0.64323 0.0
Cd78 Cd 0.3971 0.23489 0.60314 0.0
O79 O 0.40504 0.27399 0.555 0.0
Cd80 Cd 0.40672 0.29386 0.48886 0.0
O81 O 0.41064 0.31655 0.43432 0.0
C82 C 0.42541 0.32704 0.44243 0.0
O83 O 0.43806 0.32387 0.4834 0.0
C84 C 0.41247 0.27754 0.60859 0.0
C85 C 0.4172 0.20491 0.63351 0.0
O86 O 0.42126 0.21217 0.58497 0.0
O87 O 0.40365 0.21189 0.66784 0.0
Tb88 Tb 0.99693 0.01314 0.77936 0.0
Tb89 Tb 0.02578 0.99276 0.86577 0.0
C90 C 0.98405 0.0007 0.90354 0.0
C91 C 0.98043 0.04539 0.67778 0.0
C92 C 0.98898 0.07562 0.61425 0.0
C93 C 0.97003 0.07059 0.62527 0.0
C94 C 0.9658 0.05556 0.65684 0.0
C95 C -0.00067 0.0502 0.66633 0.0
C96 C 0.00357 0.06515 0.63473 0.0
C97 C 0.97611 0.03058 0.715 0.0
O98 O 0.01913 0.03343 0.8107 0.0
O99 O 0.02752 0.02261 0.89996 0.0
O100 O 0.04391 0.00198 0.79557 0.0
O101 O 0.02111 0.00411 0.72174 0.0
O102 O 0.03342 0.98851 0.95544 0.0
O103 O 0.04778 0.97444 0.87535 0.0
O104 O 0.01493 0.97139 0.7931 0.0
O105 O 0.98694 0.98427 0.76966 0.0
O106 O 0.98418 0.01437 0.87046 0.0
O107 O 0.99716 0.98813 0.89653 0.0
C108 C 0.0271 0.036 0.86551 0.0
O109 O 0.98311 0.01431 0.695 0.0
O110 O 0.97878 0.03534 0.77426 0.0
C111 C 0.0389 0.00284 0.73816 0.0
C112 C 0.03968 0.95688 0.95368 0.0
C113 C 0.02863 0.92271 0.99173 0.0
C114 C 0.04367 0.93361 0.02167 0.0
C115 C 0.04921 0.95058 0.00256 0.0
C116 C 0.02462 0.94609 0.92419 0.0
C117 C 0.01922 0.92915 0.94273 0.0
C118 C 0.04461 0.97498 0.93437 0.0
C119 C 0.9979 0.96983 0.76845 0.0
H120 H 0.95849 0.07828 0.60957 0.0
H121 H 0.95114 0.05207 0.66569 0.0
H122 H 0.01082 0.04259 0.68288 0.0
H123 H 0.0183 0.06884 0.62785 0.0
H124 H 0.05116 0.92896 0.05957 0.0
H125 H 0.06076 0.95883 0.02618 0.0
H126 H 0.01684 0.95089 0.88717 0.0
H127 H 0.00734 0.92129 0.91959 0.0
Tb128 Tb 0.50353 0.99288 0.7139 0.0
Tb129 Tb 0.52435 0.01323 0.84236 0.0
C130 C 0.52586 0.97005 0.79841 0.0
C131 C 0.46817 0.97656 0.58891 0.0
C132 C 0.432 0.97471 0.53335 0.0
C133 C 0.44465 0.95999 0.51912 0.0
C134 C 0.46257 0.96095 0.54655 0.0
C135 C 0.45556 0.99119 0.60421 0.0
C136 C 0.43764 0.9903 0.57652 0.0
C137 C 0.48725 0.97731 0.61609 0.0
O138 O 0.48426 0.98971 0.78966 0.0
O139 O 0.49422 0.01477 0.86026 0.0
O140 O 0.51629 0.03539 0.79079 0.0
O141 O 0.4916 0.02036 0.73381 0.0
O142 O 0.52667 0.01647 0.93905 0.0
O143 O 0.54497 0.0322 0.88562 0.0
O144 O 0.54672 0.00429 0.77745 0.0
O145 O 0.53017 0.00529 0.68814 0.0
O146 O 0.52289 0.97281 0.74126 0.0
O147 O 0.52331 0.98332 0.84537 0.0
C148 C 0.48146 0.00185 0.8397 0.0
O149 O 0.49639 0.99334 0.62108 0.0
O150 O 0.48904 0.96945 0.66557 0.0
C151 C 0.50093 0.03572 0.75694 0.0
C152 C 0.55811 0.02199 0.97295 0.0
C153 C 0.59016 0.01172 0.0356 0.0
C154 C 0.58249 0.02954 0.0515 0.0
C155 C 0.56658 0.03461 0.02043 0.0
C156 C 0.56566 0.0042 0.95686 0.0
C157 C 0.58152 0.99908 0.98803 0.0
C158 C 0.54157 0.02749 0.93992 0.0
C159 C 0.54626 0.00554 0.71825 0.0
H160 H 0.44067 0.94762 0.48709 0.0
H161 H 0.47208 0.94947 0.53457 0.0
H162 H 0.45963 0.00335 0.6371 0.0
H163 H 0.42834 0.00196 0.58816 0.0
H164 H 0.58871 0.03951 0.08829 0.0
H165 H 0.5609 0.0484 0.03339 0.0
H166 H 0.55935 0.99431 0.91996 0.0
H167 H 0.58723 0.98536 0.97409 0.0
Tb168 Tb 0.48647 0.4993 0.81724 0.0
Tb169 Tb 0.51928 0.49453 0.70863 0.0
C170 C 0.4783 0.50548 0.68092 0.0
C171 C 0.45984 0.48987 0.95401 0.0
C172 C 0.45569 0.467 0.04721 0.0
C173 C 0.4397 0.47429 0.02169 0.0
C174 C 0.44178 0.48563 0.97549 0.0
C175 C 0.47585 0.48295 0.98008 0.0
C176 C 0.4738 0.47174 0.0265 0.0
C177 C 0.4618 0.50015 0.90113 0.0
O178 O 0.49454 0.47034 0.80304 0.0
O179 O 0.50286 0.46845 0.70151 0.0
O180 O 0.53196 0.48475 0.78791 0.0
O181 O 0.51371 0.50102 0.8637 0.0
O182 O 0.52634 0.48432 0.61676 0.0
O183 O 0.54725 0.49869 0.67947 0.0
O184 O 0.52239 0.5228 0.75813 0.0
O185 O 0.49255 0.52753 0.79919 0.0
O186 O 0.47221 0.49781 0.72831 0.0
O187 O 0.49633 0.50917 0.67343 0.0
C188 C 0.49682 0.46053 0.74834 0.0
O189 O 0.47611 0.51196 0.90303 0.0
O190 O 0.46011 0.48992 0.847 0.0
C191 C 0.5293 0.4923 0.84567 0.0
C192 C 0.54815 0.50425 0.57644 0.0
C193 C 0.55736 0.52783 0.48865 0.0
C194 C 0.56898 0.51283 0.49623 0.0
C195 C 0.56437 0.50109 0.53974 0.0
C196 C 0.53662 0.51928 0.56945 0.0
C197 C 0.54114 0.53093 0.52581 0.0
C198 C 0.54327 0.49197 0.62215 0.0
C199 C 0.50928 0.53391 0.78435 0.0
H200 H 0.42554 0.47073 0.03581 0.0
H201 H 0.42927 0.49067 0.95535 0.0
H202 H 0.48993 0.48592 0.96372 0.0
H203 H 0.48643 0.46661 0.0457 0.0
H204 H 0.5815 0.51005 0.46802 0.0
H205 H 0.57343 0.48956 0.54467 0.0
H206 H 0.52413 0.52203 0.59784 0.0
H207 H 0.53207 0.54253 0.52179 0.0
Tb208 Tb 0.0267 0.50215 0.73604 0.0
Tb209 Tb 0.00401 0.47615 0.82603 0.0
C210 C 0.00356 0.51958 0.85122 0.0
C211 C 0.06185 0.52128 0.63167 0.0
C212 C 0.09607 0.52134 0.56521 0.0
C213 C 0.08294 0.53554 0.56354 0.0
C214 C 0.06599 0.53549 0.59648 0.0
C215 C 0.07469 0.50689 0.63297 0.0
C216 C 0.0917 0.50692 0.6 0.0
C217 C 0.04439 0.52213 0.66829 0.0
O218 O 0.04837 0.48837 0.78113 0.0
O219 O 0.03155 0.48401 0.86783 0.0
O220 O 0.02139 0.45682 0.76643 0.0
O221 O 0.02501 0.47386 0.68604 0.0
O222 O 0.99744 0.47186 0.91657 0.0
O223 O 0.98569 0.45364 0.83814 0.0
O224 O 0.98576 0.47777 0.74716 0.0
O225 O 0.99676 0.50549 0.72006 0.0
O226 O 0.01968 0.52011 0.82154 0.0
O227 O 0.99333 0.50413 0.84775 0.0
C228 C 0.04771 0.48534 0.83876 0.0
O229 O 0.03091 0.51012 0.64832 0.0
O230 O 0.04661 0.52361 0.728 0.0
C231 C 0.02557 0.458 0.70847 0.0
C232 C 0.96566 0.46278 0.9226 0.0
C233 C 0.93071 0.47322 0.97781 0.0
C234 C 0.94098 0.45874 0.9973 0.0
C235 C 0.95842 0.45362 0.97006 0.0
C236 C 0.95515 0.4768 0.90175 0.0
C237 C 0.93786 0.482 0.92915 0.0
C238 C 0.98472 0.45892 0.89774 0.0
C239 C 0.98356 0.49235 0.71892 0.0
H240 H 0.08597 0.54701 0.53812 0.0
H241 H 0.05624 0.54675 0.59528 0.0
H242 H 0.07165 0.49578 0.65998 0.0
H243 H 0.10142 0.49568 0.60176 0.0
H244 H 0.93584 0.4518 0.03491 0.0
H245 H 0.96643 0.44285 0.98693 0.0
H246 H 0.96051 0.48401 0.86506 0.0
H247 H 0.93014 0.49301 0.91254 0.0
H248 H 0.15877 0.93429 0.34987 0.0
H249 H 0.13447 0.94566 0.42465 0.0
H250 H 0.14014 0.00056 0.37177 0.0
H251 H 0.16475 0.98937 0.29727 0.0
H252 H 0.13985 0.00111 0.49887 0.0
H253 H 0.07991 0.95784 0.38818 0.0
H254 H 0.1 0.9443 0.40166 0.0
H255 H 0.10194 0.96099 0.34858 0.0
C256 C 0.1548 0.94876 0.35382 0.0
C257 C 0.16363 0.96091 0.31744 0.0
C258 C 0.14083 0.95521 0.39636 0.0
C259 C 0.1353 0.97386 0.40295 0.0
C260 C 0.14414 0.98608 0.36703 0.0
H261 H 0.03502 0.00893 0.61843 0.0
H262 H 0.0587 0.00455 0.53633 0.0
C263 C 0.15817 0.97965 0.32447 0.0
C264 C 0.12068 0.98067 0.44881 0.0
H265 H 0.07536 0.97208 0.49289 0.0
C266 C 0.12568 0.99493 0.4973 0.0
C267 C 0.10213 0.97279 0.44601 0.0
C268 C 0.09558 0.95827 0.39296 0.0
C269 C 0.11279 0.001 0.54455 0.0
C270 C 0.0946 0.99232 0.54367 0.0
C271 C 0.08939 0.97858 0.49384 0.0
C272 C 0.08092 0.99673 0.59482 0.0
C273 C 0.11878 0.01664 0.59483 0.0
C274 C 0.0856 0.9939 0.65505 0.0
C275 C 0.07213 0.99646 0.7022 0.0
C276 C 0.05364 0.00166 0.68972 0.0
C277 C 0.04911 0.00483 0.62957 0.0
C278 C 0.06262 0.00236 0.58257 0.0
H279 H 0.13032 0.02548 0.57893 0.0
H280 H 0.10669 0.02563 0.6106 0.0
H281 H 0.12419 0.01061 0.63499 0.0
H282 H 0.0995 0.98912 0.66521 0.0
H283 H 0.07605 0.9938 0.74789 0.0
H284 H 0.40847 0.1831 0.72189 0.0
H285 H 0.42498 0.15562 0.74417 0.0
H286 H 0.46618 0.16286 0.60323 0.0
H287 H 0.44941 0.19005 0.57939 0.0
H288 H 0.45393 0.12753 0.59285 0.0
H289 H 0.47353 0.15196 0.83702 0.0
H290 H 0.44856 0.15327 0.82406 0.0
H291 H 0.46487 0.1675 0.78669 0.0
C292 C 0.42113 0.17894 0.69597 0.0
C293 C 0.42765 0.18876 0.64893 0.0
C294 C 0.43065 0.1633 0.7091 0.0
C295 C 0.44704 0.15738 0.6762 0.0
C296 C 0.45363 0.16724 0.62945 0.0
H297 H 0.51851 0.07022 0.78114 0.0
H298 H 0.50653 0.10001 0.75948 0.0
C299 C 0.44402 0.18277 0.61589 0.0
C300 C 0.45665 0.14028 0.68808 0.0
H301 H 0.47566 0.11908 0.80237 0.0
C302 C 0.45885 0.12576 0.63856 0.0
C303 C 0.46336 0.13808 0.7475 0.0
C304 C 0.46265 0.15362 0.80168 0.0
C305 C 0.46702 0.10889 0.64717 0.0
C306 C 0.47268 0.10627 0.7073 0.0
C307 C 0.47107 0.12101 0.75645 0.0
C308 C 0.47997 0.08823 0.72031 0.0
C309 C 0.46965 0.09411 0.59158 0.0
C310 C 0.46889 0.07179 0.7064 0.0
C311 C 0.47573 0.05476 0.7182 0.0
C312 C 0.49371 0.05386 0.74511 0.0
C313 C 0.50463 0.07042 0.76029 0.0
C314 C 0.49781 0.08746 0.74796 0.0
H315 H 0.4703 0.1003 0.54804 0.0
H316 H 0.48278 0.08627 0.59564 0.0
H317 H 0.4574 0.08409 0.5879 0.0
H318 H 0.45486 0.07214 0.68667 0.0
H319 H 0.46685 0.04232 0.70656 0.0
H320 H 0.36539 0.58776 0.3573 0.0
H321 H 0.39032 0.57662 0.41903 0.0
H322 H 0.37498 0.51967 0.34468 0.0
H323 H 0.35034 0.5307 0.28159 0.0
H324 H 0.38531 0.55519 0.50867 0.0
H325 H 0.43199 0.51944 0.32653 0.0
H326 H 0.41377 0.53504 0.31006 0.0
H327 H 0.40776 0.51132 0.31913 0.0
C328 C 0.3675 0.57287 0.35342 0.0
C329 C 0.35592 0.5601 0.31452 0.0
C330 C 0.38173 0.56653 0.38875 0.0
C331 C 0.38465 0.54733 0.38592 0.0
C332 C 0.37328 0.53455 0.34652 0.0
H333 H 0.4401 0.49787 0.67507 0.0
H334 H 0.41734 0.50736 0.60224 0.0
C335 C 0.35912 0.54089 0.31076 0.0
C336 C 0.3987 0.54072 0.4274 0.0
H337 H 0.4378 0.51405 0.42974 0.0
C338 C 0.39684 0.54627 0.49139 0.0
C339 C 0.41381 0.52919 0.4047 0.0
C340 C 0.4171 0.52353 0.33632 0.0
C341 C 0.40959 0.54051 0.53343 0.0
C342 C 0.42433 0.5285 0.51088 0.0
C343 C 0.42633 0.52308 0.44686 0.0
C344 C 0.43816 0.5219 0.55301 0.0
C345 C 0.40737 0.54766 0.60148 0.0
C346 C 0.45748 0.52639 0.54805 0.0
C347 C 0.47055 0.52084 0.58915 0.0
C348 C 0.46451 0.51069 0.63602 0.0
C349 C 0.44519 0.50584 0.63994 0.0
C350 C 0.43215 0.51131 0.59854 0.0
H351 H 0.39868 0.56037 0.60934 0.0
H352 H 0.40014 0.53674 0.62428 0.0
H353 H 0.42137 0.55098 0.62408 0.0
H354 H 0.46241 0.53448 0.51302 0.0
H355 H 0.48533 0.52476 0.58464 0.0
H356 H 0.03995 0.31511 0.28731 0.0
H357 H 0.034 0.34434 0.35542 0.0
H358 H 0.08329 0.33629 0.46381 0.0
H359 H 0.08955 0.30721 0.39538 0.0
H360 H 0.0268 0.34839 0.48044 0.0
H361 H 0.09067 0.3902 0.43333 0.0
H362 H 0.08344 0.36894 0.38404 0.0
H363 H 0.09582 0.36793 0.45525 0.0
C364 C 0.04966 0.31967 0.32519 0.0
C365 C 0.06525 0.30887 0.33587 0.0
C366 C 0.04621 0.33634 0.3641 0.0
C367 C 0.05831 0.34256 0.41421 0.0
C368 C 0.07399 0.33193 0.42466 0.0
H369 H 0.02956 0.42264 0.73658 0.0
H370 H 0.03782 0.39454 0.66603 0.0
C371 C 0.07749 0.31527 0.38566 0.0
C372 C 0.05394 0.35968 0.45733 0.0
H373 H 0.0716 0.40277 0.51848 0.0
C374 C 0.03656 0.36032 0.48865 0.0
C375 C 0.06664 0.37524 0.46745 0.0
C376 C 0.08511 0.37568 0.43285 0.0
C377 C 0.03158 0.37607 0.53037 0.0
C378 C 0.04451 0.39143 0.54186 0.0
C379 C 0.06181 0.39087 0.51004 0.0
C380 C 0.04007 0.40846 0.58523 0.0
C381 C 0.01236 0.37628 0.56077 0.0
C382 C 0.03916 0.42567 0.5635 0.0
C383 C 0.0346 0.44176 0.60368 0.0
C384 C 0.0309 0.44097 0.66651 0.0
C385 C 0.03217 0.42374 0.6884 0.0
C386 C 0.0368 0.40764 0.64811 0.0
H387 H 0.00246 0.36563 0.53556 0.0
H388 H 0.01394 0.37313 0.60862 0.0
H389 H 0.00596 0.39022 0.56333 0.0
H390 H 0.04173 0.4266 0.51516 0.0
H391 H 0.03382 0.45479 0.5852 0.0
H392 H 0.84585 0.98036 0.28796 0.0
H393 H 0.87147 0.99393 0.23196 0.0
H394 H 0.87227 0.94367 0.09866 0.0
H395 H 0.84658 0.93009 0.15367 0.0
H396 H 0.90771 0.98082 0.20628 0.0
H397 H 0.86828 0.98472 0.98991 0.0
H398 H 0.85662 0.98113 0.06093 0.0
H399 H 0.86709 0.96185 0.01222 0.0
C400 C 0.85144 0.97222 0.24659 0.0
C401 C 0.84413 0.95418 0.22506 0.0
C402 C 0.86606 0.98 0.2147 0.0
C403 C 0.8735 0.96993 0.16062 0.0
C404 C 0.86641 0.95184 0.13952 0.0
H405 H 0.97934 0.9739 0.97803 0.0
H406 H 0.95255 0.96923 0.04481 0.0
C407 C 0.85181 0.94406 0.17128 0.0
C408 C 0.88915 0.97797 0.12711 0.0
H409 H 0.90214 0.98726 0.98424 0.0
C410 C 0.90644 0.98247 0.15795 0.0
C411 C 0.88735 0.98044 0.06444 0.0
C412 C 0.86877 0.97697 0.03007 0.0
C413 C 0.9223 0.98847 0.12679 0.0
C414 C 0.92084 0.98969 0.06299 0.0
C415 C 0.90328 0.98612 0.03301 0.0
C416 C 0.93758 0.99343 0.02548 0.0
C417 C 0.94051 0.99328 0.16232 0.0
C418 C 0.93791 0.00842 0.99154 0.0
C419 C 0.95319 0.01107 0.95273 0.0
C420 C 0.96831 0.99866 0.9469 0.0
C421 C 0.96798 0.98378 0.98153 0.0
C422 C 0.95273 0.98115 0.02019 0.0
H423 H 0.93779 0.9974 0.21251 0.0
H424 H 0.94954 0.98083 0.15694 0.0
H425 H 0.94848 0.00482 0.14482 0.0
H426 H 0.92626 0.01796 0.99465 0.0
H427 H 0.95299 0.02265 0.92662 0.0
H428 H 0.58919 0.80529 0.78943 0.0
H429 H 0.5772 0.83581 0.77561 0.0
H430 H 0.567 0.84849 0.97168 0.0
H431 H 0.57897 0.81801 0.98611 0.0
H432 H 0.5401 0.85099 0.81255 0.0
H433 H 0.60064 0.89308 0.92752 0.0
H434 H 0.60217 0.86842 0.89938 0.0
H435 H 0.5898 0.87617 0.96995 0.0
C436 C 0.58439 0.81456 0.82965 0.0
C437 C 0.5851 0.80925 0.88893 0.0
C438 C 0.57753 0.83197 0.82163 0.0
C439 C 0.57144 0.84444 0.87272 0.0
C440 C 0.57189 0.83913 0.93182 0.0
H441 H 0.53197 0.95841 0.91023 0.0
H442 H 0.54228 0.92775 0.92891 0.0
C443 C 0.57865 0.82168 0.93989 0.0
C444 C 0.56452 0.86298 0.86398 0.0
H445 H 0.5751 0.90968 0.89508 0.0
C446 C 0.54772 0.86384 0.83049 0.0
C447 C 0.57449 0.87966 0.88782 0.0
C448 C 0.59286 0.87941 0.92284 0.0
C449 C 0.54051 0.88103 0.82058 0.0
C450 C 0.55064 0.89774 0.8435 0.0
C451 C 0.56737 0.89685 0.87749 0.0
C452 C 0.54429 0.91627 0.83196 0.0
C453 C 0.52191 0.88114 0.78667 0.0
C454 C 0.5423 0.92009 0.77126 0.0
C455 C 0.53631 0.93755 0.76038 0.0
C456 C 0.5324 0.95162 0.81007 0.0
C457 C 0.53476 0.94787 0.87088 0.0
C458 C 0.54068 0.93036 0.88168 0.0
H459 H 0.5134 0.86812 0.7885 0.0
H460 H 0.51337 0.89326 0.80632 0.0
H461 H 0.52475 0.88213 0.73732 0.0
H462 H 0.5455 0.90959 0.7322 0.0
H463 H 0.53482 0.94 0.71297 0.0
H464 H 0.66535 0.53064 0.25026 0.0
H465 H 0.63744 0.51646 0.19364 0.0
H466 H 0.64646 0.55223 0.05467 0.0
H467 H 0.67405 0.56675 0.11152 0.0
H468 H 0.60995 0.55098 0.09011 0.0
H469 H 0.6368 0.47906 0.03515 0.0
H470 H 0.63678 0.48823 0.11615 0.0
H471 H 0.65192 0.49888 0.0644 0.0
C472 C 0.66139 0.53546 0.2076 0.0
C473 C 0.67196 0.54975 0.18519 0.0
C474 C 0.64553 0.52725 0.1751 0.0
C475 C 0.64013 0.53303 0.11932 0.0
C476 C 0.65049 0.54747 0.09741 0.0
H477 H 0.5668 0.48603 0.82117 0.0
H478 H 0.59332 0.49397 0.89292 0.0
C479 C 0.66624 0.55576 0.13 0.0
C480 C 0.62338 0.52448 0.08425 0.0
H481 H 0.60509 0.48354 0.00632 0.0
C482 C 0.6088 0.53623 0.07224 0.0
C483 C 0.62213 0.50524 0.06009 0.0
C484 C 0.6378 0.49212 0.06901 0.0
C485 C 0.59301 0.52935 0.0365 0.0
C486 C 0.5916 0.51007 0.01306 0.0
C487 C 0.60614 0.49826 0.02512 0.0
C488 C 0.57565 0.50229 0.97271 0.0
C489 C 0.57832 0.54293 0.02241 0.0
C490 C 0.55698 0.50349 0.99458 0.0
C491 C 0.54181 0.49908 0.95372 0.0
C492 C 0.54508 0.49321 0.89039 0.0
C493 C 0.5638 0.49055 0.86962 0.0
C494 C 0.57898 0.4951 0.91053 0.0
H495 H 0.58366 0.55764 0.03199 0.0
H496 H 0.57377 0.53989 0.97325 0.0
H497 H 0.56569 0.54161 0.05186 0.0
H498 H 0.55415 0.50863 0.04275 0.0
H499 H 0.52754 0.50103 0.97132 0.0
H500 H 0.90749 0.66641 0.97048 0.0
H501 H 0.92341 0.63689 0.94047 0.0
H502 H 0.95859 0.64825 0.10362 0.0
H503 H 0.94237 0.67758 0.13489 0.0
H504 H 0.96011 0.63112 0.91364 0.0
H505 H 0.93978 0.59559 0.11277 0.0
H506 H 0.92877 0.61665 0.09755 0.0
H507 H 0.95156 0.61783 0.13484 0.0
C508 C 0.91852 0.66257 0.00023 0.0
C509 C 0.92362 0.67429 0.05521 0.0
C510 C 0.92761 0.6457 0.98299 0.0
C511 C 0.94199 0.64023 0.02025 0.0
C512 C 0.94722 0.65196 0.07494 0.0
H513 H 0.02146 0.55385 0.87685 0.0
H514 H 0.00755 0.58331 0.92245 0.0
C515 C 0.93801 0.66878 0.09254 0.0
C516 C 0.95194 0.62257 0.00033 0.0
H517 H 0.96252 0.58061 0.0435 0.0
C518 C 0.96063 0.62007 0.94201 0.0
C519 C 0.95243 0.60811 0.03719 0.0
C520 C 0.94248 0.60955 0.09881 0.0
C521 C 0.96976 0.60348 0.91937 0.0
C522 C 0.97068 0.5892 0.95687 0.0
C523 C 0.962 0.59169 0.01522 0.0
C524 C 0.97973 0.57119 0.93487 0.0
C525 C 0.97779 0.6012 0.85471 0.0
C526 C 0.96897 0.55448 0.92961 0.0
C527 C 0.97693 0.5376 0.90445 0.0
C528 C 0.99583 0.53712 0.88387 0.0
C529 C 0.00681 0.55377 0.89159 0.0
C530 C 0.99886 0.57064 0.9173 0.0
H531 H 0.97163 0.61119 0.82676 0.0
H532 H 0.99333 0.60391 0.85731 0.0
H533 H 0.97515 0.5868 0.83025 0.0
H534 H 0.95421 0.55458 0.94325 0.0
H535 H 0.96808 0.52503 0.89938 0.0
H536 H 0.02711 0.21706 0.32594 0.0
H537 H 0.0103 0.19436 0.37987 0.0
H538 H 0.06232 0.18333 0.46945 0.0
H539 H 0.0792 0.20614 0.41649 0.0
H540 H 0.01806 0.15703 0.36639 0.0
H541 H 0.02479 0.18863 0.6124 0.0
H542 H 0.02892 0.20183 0.54958 0.0
H543 H 0.04709 0.18732 0.57272 0.0
C544 C 0.03492 0.21007 0.35797 0.0
C545 C 0.05452 0.2134 0.36682 0.0
C546 C 0.02529 0.19708 0.38867 0.0
C547 C 0.03502 0.18731 0.4291 0.0
C548 C 0.05445 0.191 0.43942 0.0
H549 H 0.0159 0.07852 0.52598 0.0
H550 H 0.025 0.10619 0.48007 0.0
C551 C 0.06411 0.20397 0.40879 0.0
C552 C 0.02532 0.17209 0.45623 0.0
H553 H 0.01685 0.15584 0.59268 0.0
C554 C 0.01756 0.15688 0.41592 0.0
C555 C 0.02448 0.17201 0.52083 0.0
C556 C 0.03159 0.18841 0.56644 0.0
C557 C 0.00973 0.14123 0.43838 0.0
C558 C 0.00994 0.14067 0.50275 0.0
C559 C 0.01691 0.15622 0.54326 0.0
C560 C 0.00381 0.12377 0.52879 0.0
C561 C 0.00141 0.12537 0.39297 0.0
C562 C 0.98907 0.12458 0.57213 0.0
C563 C 0.98395 0.10882 0.59891 0.0
C564 C 0.99362 0.09203 0.58319 0.0
C565 C 0.00828 0.09127 0.53938 0.0
C566 C 0.01336 0.10701 0.5126 0.0
H567 H 0.99724 0.13014 0.34899 0.0
H568 H 0.01218 0.11449 0.38192 0.0
H569 H 0.98881 0.11891 0.41263 0.0
H570 H 0.98164 0.13745 0.58557 0.0
H571 H 0.97278 0.10993 0.63315 0.0
H572 H 0.26738 0.99061 0.28975 0.0
H573 H 0.29883 0.99377 0.33763 0.0
H574 H 0.30372 0.93387 0.30675 0.0
H575 H 0.27226 0.93066 0.2584 0.0
H576 H 0.31379 0.94969 0.42481 0.0
H577 H 0.35023 0.98701 0.25229 0.0
H578 H 0.32874 0.9976 0.28238 0.0
H579 H 0.32778 0.97472 0.23735 0.0
C580 C 0.27535 0.97815 0.29184 0.0
C581 C 0.26762 0.96042 0.26884 0.0
C582 C 0.29328 0.97997 0.31944 0.0
C583 C 0.30378 0.96408 0.32455 0.0
C584 C 0.29591 0.94632 0.30277 0.0
H585 H 0.42313 0.96129 0.41268 0.0
H586 H 0.39192 0.95857 0.36376 0.0
C587 C 0.27796 0.9445 0.27528 0.0
C588 C 0.3227 0.96591 0.35455 0.0
H589 H 0.36708 0.98508 0.34495 0.0
C590 C 0.32547 0.95739 0.40732 0.0
C591 C 0.33797 0.97576 0.33113 0.0
C592 C 0.33617 0.98418 0.27236 0.0
C593 C 0.34305 0.9586 0.43776 0.0
C594 C 0.35814 0.96899 0.4156 0.0
C595 C 0.35543 0.97733 0.36236 0.0
C596 C 0.37704 0.97088 0.4458 0.0
C597 C 0.34539 0.94837 0.49247 0.0
C598 C 0.3791 0.97895 0.50801 0.0
C599 C 0.39691 0.98029 0.53645 0.0
C600 C 0.41306 0.97375 0.503 0.0
C601 C 0.41097 0.96611 0.44023 0.0
C602 C 0.39315 0.96469 0.41198 0.0
H603 H 0.33441 0.93712 0.49287 0.0
H604 H 0.35958 0.94209 0.49239 0.0
H605 H 0.34396 0.95836 0.53582 0.0
H606 H 0.36692 0.9842 0.53465 0.0
H607 H 0.39797 0.98616 0.5849 0.0
H608 H 0.44429 0.28462 0.67936 0.0
H609 H 0.46031 0.31497 0.7118 0.0
H610 H 0.41768 0.34186 0.61751 0.0
H611 H 0.40125 0.3118 0.58754 0.0
H612 H 0.47558 0.33943 0.6378 0.0
H613 H 0.41921 0.37319 0.78799 0.0
H614 H 0.41925 0.34834 0.76197 0.0
H615 H 0.41085 0.36395 0.7118 0.0
C616 C 0.43829 0.29706 0.66608 0.0
C617 C 0.42179 0.29584 0.62973 0.0
C618 C 0.44747 0.31434 0.68438 0.0
C619 C 0.44012 0.33067 0.66736 0.0
C620 C 0.42348 0.32947 0.63177 0.0
H621 H 0.494 0.43683 0.63871 0.0
H622 H 0.48191 0.40459 0.62236 0.0
C623 C 0.41431 0.31224 0.61363 0.0
C624 C 0.45006 0.34892 0.68517 0.0
H625 H 0.4436 0.39339 0.75744 0.0
C626 C 0.46869 0.35119 0.66451 0.0
C627 C 0.44113 0.36416 0.72078 0.0
C628 C 0.42158 0.36227 0.74748 0.0
C629 C 0.4784 0.3685 0.67675 0.0
C630 C 0.46908 0.384 0.70944 0.0
C631 C 0.45068 0.38154 0.73186 0.0
C632 C 0.47784 0.40304 0.71967 0.0
C633 C 0.49857 0.36998 0.65479 0.0
C634 C 0.47935 0.41298 0.77974 0.0
C635 C 0.48603 0.43151 0.7892 0.0
C636 C 0.49131 0.44046 0.73869 0.0
C637 C 0.4902 0.43032 0.67865 0.0
C638 C 0.48339 0.41183 0.66923 0.0
H639 H 0.50543 0.35619 0.64869 0.0
H640 H 0.49864 0.37501 0.60928 0.0
H641 H 0.50717 0.37995 0.68775 0.0
H642 H 0.47507 0.40649 0.8193 0.0
H643 H 0.48672 0.4389 0.83606 0.0
H644 H 0.24379 0.5807 0.31269 0.0
H645 H 0.21451 0.573 0.365 0.0
H646 H 0.2329 0.51653 0.36172 0.0
H647 H 0.26218 0.52419 0.30957 0.0
H648 H 0.19547 0.5192 0.31774 0.0
H649 H 0.20766 0.56342 0.54512 0.0
H650 H 0.21035 0.57557 0.47961 0.0
H651 H 0.22646 0.55749 0.49015 0.0
C652 C 0.24161 0.5667 0.32359 0.0
C653 C 0.25501 0.55292 0.30605 0.0
C654 C 0.22494 0.56233 0.35357 0.0
C655 C 0.2216 0.54421 0.36736 0.0
C656 C 0.2352 0.53057 0.35122 0.0
H657 H 0.13118 0.51374 0.60684 0.0
H658 H 0.16174 0.51723 0.55649 0.0
C659 C 0.25182 0.53491 0.32107 0.0
C660 C 0.20362 0.5393 0.39665 0.0
H661 H 0.1768 0.54992 0.52644 0.0
C662 C 0.19139 0.52584 0.36349 0.0
C663 C 0.1985 0.54782 0.45659 0.0
C664 C 0.21148 0.56176 0.49531 0.0
C665 C 0.17392 0.52096 0.38817 0.0
C666 C 0.1685 0.52995 0.44733 0.0
C667 C 0.18094 0.54311 0.48099 0.0
C668 C 0.14986 0.52623 0.47498 0.0
C669 C 0.16153 0.50614 0.35087 0.0
C670 C 0.13303 0.53001 0.44568 0.0
C671 C 0.11554 0.52788 0.47409 0.0
C672 C 0.11453 0.52208 0.53268 0.0
C673 C 0.13141 0.51798 0.56139 0.0
C674 C 0.1489 0.5201 0.53288 0.0
H675 H 0.16985 0.49703 0.31585 0.0
H676 H 0.15413 0.49728 0.3812 0.0
H677 H 0.15067 0.51297 0.32589 0.0
H678 H 0.13344 0.53509 0.40153 0.0
H679 H 0.1028 0.53099 0.45045 0.0
H680 H 0.95922 0.77316 0.18561 0.0
H681 H 0.97902 0.80049 0.17146 0.0
H682 H 0.94056 0.81308 0.03117 0.0
H683 H 0.9205 0.78596 0.04597 0.0
H684 H 0.99642 0.80862 0.05741 0.0
H685 H 0.9459 0.86236 0.15815 0.0
H686 H 0.94435 0.83845 0.17254 0.0
H687 H 0.93598 0.8444 0.10059 0.0
C688 C 0.95479 0.78198 0.15267 0.0
C689 C 0.93806 0.77778 0.11809 0.0
C690 C 0.96622 0.79744 0.14416 0.0
C691 C 0.96105 0.80895 0.10108 0.0
C692 C 0.94459 0.80453 0.06543 0.0
H693 H 0.01983 0.8896 0.91927 0.0
H694 H 0.00549 0.86155 0.95148 0.0
C695 C 0.93322 0.78901 0.07366 0.0
C696 C 0.97299 0.82546 0.09259 0.0
H697 H 0.97229 0.87292 0.10397 0.0
C698 C 0.99124 0.8227 0.06803 0.0
C699 C 0.96628 0.84379 0.10747 0.0
C700 C 0.94712 0.84754 0.13668 0.0
C701 C 0.0027 0.83783 0.05558 0.0
C702 C 0.99561 0.8561 0.0676 0.0
C703 C 0.97765 0.85889 0.09449 0.0
C704 C 0.00603 0.8724 0.04923 0.0
C705 C 0.02224 0.83414 0.0294 0.0
C706 C 0.01106 0.88784 0.09353 0.0
C707 C 0.0192 0.90395 0.07518 0.0
C708 C 0.02218 0.90496 0.01214 0.0
C709 C 0.01758 0.88928 0.96813 0.0
C710 C 0.00955 0.87317 0.9865 0.0
H711 H 0.02756 0.82061 0.03954 0.0
H712 H 0.02171 0.83351 0.97839 0.0
H713 H 0.03246 0.84547 0.04825 0.0
H714 H 0.00831 0.88755 0.14215 0.0
H715 H 0.02241 0.91588 0.11004 0.0
H716 H 0.75564 0.98938 0.2518 0.0
H717 H 0.72518 0.99922 0.21626 0.0
H718 H 0.69974 0.94612 0.24131 0.0
H719 H 0.73016 0.93639 0.27862 0.0
H720 H 0.7048 0.98159 0.11384 0.0
H721 H 0.66248 0.98441 0.32922 0.0
H722 H 0.68801 0.98368 0.3285 0.0
H723 H 0.6741 0.96268 0.30606 0.0
C724 C 0.74344 0.97998 0.25115 0.0
C725 C 0.74512 0.9623 0.26931 0.0
C726 C 0.7261 0.98556 0.23036 0.0
C727 C 0.71013 0.97353 0.22721 0.0
C728 C 0.7118 0.95576 0.24468 0.0
H729 H 0.59693 0.97854 0.07649 0.0
H730 H 0.62593 0.96945 0.12454 0.0
C731 C 0.72918 0.95016 0.26538 0.0
C732 C 0.69208 0.97922 0.20198 0.0
H733 H 0.64564 0.98766 0.23716 0.0
C734 C 0.69188 0.983 0.14087 0.0
C735 C 0.67527 0.98101 0.23741 0.0
C736 C 0.6749 0.9779 0.30413 0.0
C737 C 0.67526 0.9883 0.11386 0.0
C738 C 0.65845 0.99008 0.14919 0.0
C739 C 0.65858 0.98625 0.21027 0.0
C740 C 0.64062 0.99594 0.12312 0.0
C741 C 0.67571 0.99165 0.04736 0.0
C742 C 0.63922 0.01393 0.10741 0.0
C743 C 0.62274 0.01915 0.07984 0.0
C744 C 0.60734 0.00644 0.0675 0.0
C745 C 0.60865 0.98855 0.0846 0.0
C746 C 0.62513 0.98337 0.11243 0.0
H747 H 0.68851 0.9858 0.02282 0.0
H748 H 0.66293 0.98536 0.02203 0.0
H749 H 0.67583 0.0069 0.046 0.0
H750 H 0.65099 0.02388 0.11587 0.0
H751 H 0.62224 0.03298 0.06683 0.0
H752 H 0.5786 0.69798 0.82191 0.0
H753 H 0.56103 0.66814 0.80131 0.0
H754 H 0.54786 0.67174 0.99545 0.0
H755 H 0.56542 0.70162 0.01616 0.0
H756 H 0.56239 0.63832 0.94908 0.0
H757 H 0.50496 0.65487 0.79565 0.0
H758 H 0.52792 0.66109 0.76871 0.0
H759 H 0.51932 0.67276 0.84156 0.0
C760 C 0.57173 0.69251 0.86001 0.0
C761 C 0.57372 0.70187 0.9208 0.0
C762 C 0.5616 0.67552 0.84817 0.0
C763 C 0.55298 0.66778 0.89676 0.0
C764 C 0.55443 0.67744 0.95728 0.0
H765 H 0.48649 0.56205 0.83792 0.0
H766 H 0.49546 0.59508 0.86859 0.0
C767 C 0.56464 0.69439 0.96915 0.0
C768 C 0.54382 0.64892 0.88501 0.0
H769 H 0.51121 0.62223 0.79346 0.0
C770 C 0.55103 0.63489 0.91568 0.0
C771 C 0.52881 0.64446 0.84207 0.0
C772 C 0.51966 0.65915 0.8106 0.0
C773 C 0.54426 0.61637 0.90234 0.0
C774 C 0.53013 0.61171 0.85651 0.0
C775 C 0.52224 0.62584 0.828 0.0
C776 C 0.52423 0.59206 0.83535 0.0
C777 C 0.55249 0.60184 0.93673 0.0
C778 C 0.53733 0.57963 0.8053 0.0
C779 C 0.53229 0.56086 0.78757 0.0
C780 C 0.514 0.55412 0.79957 0.0
C781 C 0.50071 0.56675 0.82821 0.0
C782 C 0.50578 0.58562 0.84573 0.0
H783 H 0.55884 0.60826 0.98157 0.0
H784 H 0.54152 0.59133 0.94574 0.0
H785 H 0.5638 0.59447 0.90826 0.0
H786 H 0.55157 0.58443 0.79612 0.0
H787 H 0.54288 0.5516 0.76534 0.0
H788 H 0.76325 0.52898 0.14596 0.0
H789 H 0.79133 0.51349 0.09902 0.0
H790 H 0.82359 0.53374 0.26405 0.0
H791 H 0.79549 0.54891 0.3113 0.0
H792 H 0.824 0.52801 0.07036 0.0
H793 H 0.83762 0.47992 0.23886 0.0
H794 H 0.81586 0.49244 0.23838 0.0
H795 H 0.83675 0.50376 0.27528 0.0
C796 C 0.77632 0.52993 0.1723 0.0
C797 C 0.77712 0.53972 0.23273 0.0
C798 C 0.79233 0.52108 0.14556 0.0
C799 C 0.80948 0.52204 0.17855 0.0
C800 C 0.81038 0.53219 0.23852 0.0
H801 H 0.92067 0.50909 0.01682 0.0
H802 H 0.89101 0.52006 0.06519 0.0
C803 C 0.79431 0.54086 0.2655 0.0
C804 C 0.82669 0.51341 0.14875 0.0
H805 H 0.86287 0.48442 0.16874 0.0
C806 C 0.83239 0.51834 0.09167 0.0
C807 C 0.83752 0.50058 0.17604 0.0
C808 C 0.83152 0.49371 0.23518 0.0
C809 C 0.84883 0.51122 0.06193 0.0
C810 C 0.86022 0.49922 0.09086 0.0
C811 C 0.85427 0.49383 0.14704 0.0
C812 C 0.8785 0.49241 0.06389 0.0
C813 C 0.85372 0.5165 0.99944 0.0
C814 C 0.88166 0.47318 0.04942 0.0
C815 C 0.89873 0.46686 0.02226 0.0
C816 C 0.91288 0.47968 0.00905 0.0
C817 C 0.90985 0.4989 0.02518 0.0
C818 C 0.8929 0.50518 0.05272 0.0
H819 H 0.84099 0.52076 0.97574 0.0
H820 H 0.86394 0.52852 0.00564 0.0
H821 H 0.8603 0.50474 0.96903 0.0
H822 H 0.87078 0.46308 0.05808 0.0
H823 H 0.90069 0.45198 0.01028 0.0
H824 H 0.11401 0.18543 0.12094 0.0
H825 H 0.1058 0.15478 0.06299 0.0
H826 H 0.05859 0.1783 0.97935 0.0
H827 H 0.06658 0.20899 0.03728 0.0
H828 H 0.04906 0.14901 0.04715 0.0
H829 H 0.10712 0.12942 0.88005 0.0
H830 H 0.11463 0.13834 0.95764 0.0
H831 H 0.10273 0.15335 0.91261 0.0
C832 C 0.1022 0.18422 0.08888 0.0
C833 C 0.09079 0.19961 0.08438 0.0
C834 C 0.09758 0.16668 0.0556 0.0
C835 C 0.08159 0.1643 0.01698 0.0
C836 C 0.071 0.17989 0.00898 0.0
H837 H 0.03321 0.06486 0.80009 0.0
H838 H 0.04731 0.09562 0.8369 0.0
C839 C 0.07561 0.19742 0.04211 0.0
C840 C 0.07438 0.14533 0.9921 0.0
H841 H 0.08505 0.10525 0.89664 0.0
C842 C 0.05688 0.13947 0.01399 0.0
C843 C 0.08465 0.13297 0.94898 0.0
C844 C 0.10327 0.13882 0.92292 0.0
C845 C 0.04942 0.12146 0.99437 0.0
C846 C 0.05985 0.10896 0.95223 0.0
C847 C 0.07724 0.11486 0.92955 0.0
C848 C 0.05246 0.08992 0.92964 0.0
C849 C 0.03035 0.11596 0.01828 0.0
C850 C 0.05093 0.0765 0.96964 0.0
C851 C 0.04288 0.05885 0.94882 0.0
C852 C 0.03619 0.0544 0.88772 0.0
C853 C 0.0381 0.06784 0.84758 0.0
C854 C 0.04624 0.0854 0.86834 0.0
H855 H 0.02268 0.12822 0.0418 0.0
H856 H 0.02141 0.10872 0.97985 0.0
H857 H 0.03237 0.10614 0.05201 0.0
H858 H 0.05579 0.07977 0.0171 0.0
H859 H 0.04168 0.04881 0.98079 0.0
H860 H 0.31731 0.01931 0.10713 0.0
H861 H 0.34835 0.0237 0.06047 0.0
H862 H 0.36046 0.96589 0.0654 0.0
H863 H 0.32965 0.9614 0.11242 0.0
H864 H 0.39069 0.99087 0.10575 0.0
H865 H 0.36135 0.003 0.87949 0.0
H866 H 0.35269 0.01797 0.94609 0.0
H867 H 0.34721 0.99336 0.93649 0.0
C868 C 0.3266 0.00755 0.09839 0.0
C869 C 0.32095 0.98997 0.11296 0.0
C870 C 0.34428 0.01007 0.07155 0.0
C871 C 0.35653 0.99504 0.05869 0.0
C872 C 0.35115 0.97763 0.07472 0.0
H873 H 0.45112 0.97796 0.80976 0.0
H874 H 0.4211 0.97699 0.8651 0.0
C875 C 0.33351 0.97509 0.10144 0.0
C876 C 0.3749 0.99724 0.02768 0.0
H877 H 0.39459 0.00553 0.89142 0.0
C878 C 0.39159 0.99416 0.059 0.0
C879 C 0.37592 0.00129 0.96643 0.0
C880 C 0.35836 0.00395 0.92977 0.0
C881 C 0.40935 0.995 0.03058 0.0
C882 C 0.41039 0.99926 0.96959 0.0
C883 C 0.3937 0.00238 0.93833 0.0
C884 C 0.42863 -2e-05 0.93661 0.0
C885 C 0.42679 0.99082 0.06537 0.0
C886 C 0.44269 0.01336 0.95828 0.0
C887 C 0.45989 0.01394 0.92688 0.0
C888 C 0.46327 0.0012 0.87304 0.0
C889 C 0.44903 0.98793 0.85118 0.0
C890 C 0.43185 0.98737 0.88264 0.0
H891 H 0.42319 0.98368 0.10562 0.0
H892 H 0.43652 0.98191 0.03455 0.0
H893 H 0.43447 0.00411 0.0829 0.0
H894 H 0.44032 0.02342 0.99926 0.0
H895 H 0.47049 0.02442 0.94481 0.0
H896 H 0.40113 0.33864 0.35933 0.0
H897 H 0.4066 0.36341 0.29623 0.0
H898 H 0.46209 0.3747 0.37754 0.0
H899 H 0.4566 0.35021 0.4419 0.0
H900 H 0.4429 0.40684 0.36859 0.0
H901 H 0.44074 0.35912 0.14517 0.0
H902 H 0.41988 0.35743 0.19122 0.0
H903 H 0.44234 0.35076 0.21867 0.0
C904 C 0.41451 0.34639 0.36385 0.0
C905 C 0.4285 0.34233 0.40525 0.0
C906 C 0.41764 0.36048 0.32751 0.0
C907 C 0.43489 0.37064 0.33133 0.0
C908 C 0.44872 0.36694 0.37363 0.0
H909 H 0.47586 0.43563 0.05442 0.0
H910 H 0.47164 0.41338 0.12705 0.0
C911 C 0.44556 0.35291 0.41026 0.0
C912 C 0.43855 0.38507 0.29099 0.0
H913 H 0.44096 0.39162 0.13976 0.0
C914 C 0.44255 0.40353 0.31854 0.0
C915 C 0.43836 0.38065 0.22572 0.0
C916 C 0.43529 0.36089 0.19335 0.0
C917 C 0.44607 0.41776 0.28252 0.0
C918 C 0.4452 0.41345 0.21726 0.0
C919 C 0.44146 0.39494 0.1898 0.0
C920 C 0.44841 0.42779 0.17622 0.0
C921 C 0.45105 0.43718 0.31469 0.0
C922 C 0.43678 0.44334 0.17975 0.0
C923 C 0.43934 0.45628 0.13876 0.0
C924 C 0.45346 0.45381 0.09297 0.0
C925 C 0.46509 0.43821 0.08976 0.0
C926 C 0.4626 0.42536 0.13094 0.0
H927 H 0.45635 0.43701 0.36245 0.0
H928 H 0.462 0.44403 0.28859 0.0
H929 H 0.43819 0.44576 0.31791 0.0
H930 H 0.42548 0.4453 0.21347 0.0
H931 H 0.43021 0.46819 0.14285 0.0
H932 H 0.21464 0.48403 0.08221 0.0
H933 H 0.18481 0.47541 0.02682 0.0
H934 H 0.15606 0.51745 0.15088 0.0
H935 H 0.18572 0.52627 0.20623 0.0
H936 H 0.14623 0.4651 0.06786 0.0
H937 H 0.15115 0.53207 0.97259 0.0
H938 H 0.17108 0.52252 0.00768 0.0
H939 H 0.15294 0.53414 0.05537 0.0
C940 C 0.20191 0.49124 0.0983 0.0
C941 C 0.20258 0.50604 0.14792 0.0
C942 C 0.1849 0.48627 0.06669 0.0
C943 C 0.16839 0.49602 0.08432 0.0
C944 C 0.16876 0.50997 0.13619 0.0
H945 H 0.05235 0.48075 0.95988 0.0
H946 H 0.08208 0.48117 0.01717 0.0
C947 C 0.18572 0.51497 0.1677 0.0
C948 C 0.15118 0.49277 0.04556 0.0
H949 H 0.12299 0.51391 0.95166 0.0
C950 C 0.14112 0.4757 0.04223 0.0
C951 C 0.14482 0.50655 0.01151 0.0
C952 C 0.1556 0.52481 0.01132 0.0
C953 C 0.12449 0.47224 0.0067 0.0
C954 C 0.11779 0.48631 0.97439 0.0
C955 C 0.12813 0.50319 0.97673 0.0
C956 C 0.09993 0.4841 0.93847 0.0
C957 C 0.11434 0.45355 0.00355 0.0
C958 C 0.10012 0.48575 0.87535 0.0
C959 C 0.08316 0.48568 0.84255 0.0
C960 C 0.06568 0.48408 0.87245 0.0
C961 C 0.06556 0.48198 0.93541 0.0
C962 C 0.08255 0.48207 0.96817 0.0
H963 H 0.12379 0.44276 0.01678 0.0
H964 H 0.10222 0.45489 0.03613 0.0
H965 H 0.10871 0.44871 0.95631 0.0
H966 H 0.11341 0.48744 0.85173 0.0
H967 H 0.08379 0.48728 0.7941 0.0
H968 H 0.95627 0.83196 0.36148 0.0
H969 H 0.96553 0.85972 0.43361 0.0
H970 H 0.95372 0.83027 0.58747 0.0
H971 H 0.94407 0.8024 0.51547 0.0
H972 H 0.9387 0.86561 0.60229 0.0
H973 H 0.01423 0.86824 0.5345 0.0
H974 H 0.9984 0.86731 0.46991 0.0
H975 H 0.99909 0.84789 0.51241 0.0
C976 C 0.95572 0.83131 0.41063 0.0
C977 C 0.9495 0.81493 0.43275 0.0
C978 C 0.96112 0.84717 0.45178 0.0
C979 C 0.96061 0.84694 0.51579 0.0
C980 C 0.95432 0.83068 0.53816 0.0
H981 H 0.01405 0.9362 0.77264 0.0
H982 H 0.00407 0.90574 0.71763 0.0
C983 C 0.94885 0.81477 0.49697 0.0
C984 C 0.96617 0.86389 0.55914 0.0
H985 H 0.00233 0.8958 0.59432 0.0
C986 C 0.95267 0.87214 0.60106 0.0
C987 C 0.98448 0.8722 0.55802 0.0
C988 C -5e-05 0.86335 0.51674 0.0
C989 C 0.9568 0.88888 0.64054 0.0
C990 C 0.97478 0.89771 0.63699 0.0
C991 C 0.98847 0.88911 0.59648 0.0
C992 C 0.97974 0.91599 0.6742 0.0
C993 C 0.94193 0.89686 0.68588 0.0
C994 C 0.96931 0.93188 0.66827 0.0
C995 C 0.9749 0.94935 0.70009 0.0
C996 C 0.99119 0.95126 0.73765 0.0
C997 C 0.00147 0.93526 0.74397 0.0
C998 C 0.99579 0.91781 0.71258 0.0
H999 H 0.93153 0.88592 0.69579 0.0
H1000 H 0.94844 0.90355 0.73015 0.0
H1001 H 0.93406 0.9076 0.66579 0.0
H1002 H 0.95714 0.93086 0.63774 0.0
H1003 H 0.96675 0.96141 0.69392 0.0
H1004 H 0.70617 0.0246 0.42715 0.0
H1005 H 0.67437 0.02971 0.4707 0.0
H1006 H 0.67233 0.9735 0.51382 0.0
H1007 H 0.70373 0.96815 0.46954 0.0
H1008 H 0.63954 0.98278 0.45995 0.0
H1009 H 0.66154 0.03749 0.65493 0.0
H1010 H 0.66776 0.04227 0.57901 0.0
H1011 H 0.67838 0.02316 0.6088 0.0
C1012 C 0.69895 0.01337 0.44614 0.0
C1013 C 0.70753 0.99603 0.44548 0.0
C1014 C 0.68082 0.01633 0.47112 0.0
C1015 C 0.67113 0.00207 0.49628 0.0
C1016 C 0.67959 0.98471 0.49479 0.0
H1017 H 0.58208 0.00105 0.75995 0.0
H1018 H 0.61167 0.00156 0.70227 0.0
C1019 C 0.69759 0.98171 0.46965 0.0
C1020 C 0.65219 0.00497 0.52462 0.0
H1021 H 0.62908 0.02913 0.6473 0.0
C1022 C 0.63718 0.99301 0.50065 0.0
C1023 C 0.64927 0.01822 0.57799 0.0
C1024 C 0.66509 0.03094 0.60718 0.0
C1025 C 0.61941 0.99358 0.52953 0.0
C1026 C 0.61649 0.0068 0.583 0.0
C1027 C 0.63137 0.01908 0.60611 0.0
C1028 C 0.59849 0.00729 0.61799 0.0
C1029 C 0.60423 0.97946 0.5041 0.0
C1030 C 0.5813 0.01064 0.59 0.0
C1031 C 0.56431 0.01017 0.62266 0.0
C1032 C 0.56427 0.0066 0.68418 0.0
C1033 C 0.58159 0.0038 0.71261 0.0
C1034 C 0.59854 0.00412 0.67976 0.0
H1035 H 0.61017 0.9676 0.47235 0.0
H1036 H 0.59662 0.97382 0.54205 0.0
H1037 H 0.59379 0.98633 0.47767 0.0
H1038 H 0.581 0.01352 0.54281 0.0
H1039 H 0.55123 0.01259 0.59963 0.0
H1040 H 0.59973 0.66689 0.20769 0.0
H1041 H 0.5956 0.64272 0.27391 0.0
H1042 H 0.57767 0.60319 0.11591 0.0
H1043 H 0.58228 0.62715 0.04908 0.0
H1044 H 0.56275 0.62393 0.29479 0.0
H1045 H 0.61664 0.57356 0.19448 0.0
H1046 H 0.61724 0.59779 0.1833 0.0
H1047 H 0.60104 0.58149 0.13942 0.0
C1048 C 0.59509 0.65301 0.18688 0.0
C1049 C 0.59134 0.64893 0.12306 0.0
C1050 C 0.59274 0.63921 0.2248 0.0
C1051 C 0.58662 0.62108 0.19973 0.0
C1052 C 0.58288 0.61695 0.13604 0.0
H1053 H 0.53345 0.54094 0.40784 0.0
H1054 H 0.54091 0.56304 0.33641 0.0
C1055 C 0.58535 0.63071 0.09798 0.0
C1056 C 0.58311 0.60685 0.24095 0.0
H1057 H 0.5954 0.56341 0.26738 0.0
C1058 C 0.56994 0.61073 0.28894 0.0
C1059 C 0.59271 0.58975 0.23375 0.0
C1060 C 0.60784 0.58537 0.18538 0.0
C1061 C 0.56585 0.59786 0.32941 0.0
C1062 C 0.57486 0.58044 0.32071 0.0
C1063 C 0.58832 0.57667 0.27341 0.0
C1064 C 0.57063 0.56609 0.36091 0.0
C1065 C 0.55218 0.60322 0.38182 0.0
C1066 C 0.58501 0.55989 0.39657 0.0
C1067 C 0.58081 0.54716 0.43717 0.0
C1068 C 0.56213 0.5404 0.44277 0.0
C1069 C 0.54789 0.54618 0.40545 0.0
C1070 C 0.55213 0.55881 0.36467 0.0
H1071 H 0.55069 0.6186 0.39227 0.0
H1072 H 0.538 0.59694 0.3686 0.0
H1073 H 0.55681 0.59802 0.42454 0.0
H1074 H 0.59941 0.56528 0.39415 0.0
H1075 H 0.59206 0.54303 0.46551 0.0
H1076 H 0.82323 0.49936 0.43257 0.0
H1077 H 0.85245 0.48969 0.47743 0.0
H1078 H 0.85868 0.54395 0.58838 0.0
H1079 H 0.82946 0.55371 0.54431 0.0
H1080 H 0.88876 0.50671 0.47201 0.0
H1081 H 0.86477 0.50735 0.71411 0.0
H1082 H 0.84847 0.50706 0.65033 0.0
H1083 H 0.86022 0.52851 0.68362 0.0
C1084 C 0.83071 0.50918 0.46698 0.0
C1085 C 0.824 0.52729 0.48508 0.0
C1086 C 0.84741 0.50363 0.49242 0.0
C1087 C 0.85754 0.51603 0.53672 0.0
C1088 C 0.85085 0.53407 0.55507 0.0
H1089 H 0.97403 0.51955 0.65098 0.0
H1090 H 0.94335 0.52378 0.60413 0.0
C1091 C 0.83421 0.53965 0.52956 0.0
C1092 C 0.8756 0.51047 0.56181 0.0
H1093 H 0.89807 0.50574 0.69646 0.0
C1094 C 0.89078 0.50632 0.52099 0.0
C1095 C 0.87808 0.50979 0.62558 0.0
C1096 C 0.86198 0.51323 0.67097 0.0
C1097 C 0.90861 0.50211 0.54265 0.0
C1098 C 0.91131 0.50229 0.6068 0.0
C1099 C 0.89597 0.5058 0.64734 0.0
C1100 C 0.93006 0.49927 0.63307 0.0
C1101 C 0.9244 0.4975 0.49677 0.0
C1102 C 0.93262 0.48424 0.66561 0.0
C1103 C 0.95011 0.48181 0.69264 0.0
C1104 C 0.96531 0.49447 0.68799 0.0
C1105 C 0.96267 0.5095 0.6552 0.0
C1106 C 0.94518 0.51189 0.62808 0.0
H1107 H 0.91885 0.49313 0.44913 0.0
H1108 H 0.93367 0.51008 0.49633 0.0
H1109 H 0.93319 0.48619 0.50977 0.0
H1110 H 0.92105 0.47444 0.67027 0.0
H1111 H 0.95161 0.47014 0.71789 0.0
loop_
_geom_bond_atom_site_label_1
_geom_bond_atom_site_label_2
_geom_bond_distance
_geom_bond_site_symmetry_2
_ccdc_geom_bond_type
O0 Cd1 2.300 . S
O0 C7 1.275 . S
Cd1 O0 2.300 . S
Cd1 O9 2.381 . S
Cd1 O10 2.378 . S
O2 Cd3 2.385 . S
O2 C7 1.255 . S
Cd3 O2 2.385 . S
Cd3 O4 2.317 . S
O4 Cd3 2.317 . S
O4 C5 1.232 . S
C5 O4 1.232 . S
C5 O6 1.218 . S
O6 C5 1.218 . S
C7 O0 1.275 . S
C7 O2 1.255 . S
C8 O9 1.258 . S
C8 O10 1.256 . S
O9 Cd1 2.381 . S
O9 C8 1.258 . S
O10 Cd1 2.378 . S
O10 C8 1.256 . S
O11 Cd12 2.300 . S
O11 C18 1.275 . S
Cd12 O11 2.300 . S
Cd12 O20 2.381 . S
Cd12 O21 2.378 . S
O13 Cd14 2.385 1_655 S
O13 C18 1.255 . S
Cd14 O13 2.385 1_455 S
Cd14 O15 2.317 1_455 S
O15 Cd14 2.317 1_655 S
O15 C16 1.232 . S
C16 O15 1.232 . S
C16 O17 1.218 . S
O17 C16 1.218 . S
C18 O11 1.275 . S
C18 O13 1.255 . S
C19 O20 1.258 . S
C19 O21 1.256 . S
O20 Cd12 2.381 . S
O20 C19 1.258 . S
O21 Cd12 2.378 . S
O21 C19 1.256 . S
O22 Cd23 2.300 1_565 S
O22 C29 1.275 1_565 S
Cd23 O22 2.300 1_545 S
Cd23 O31 2.381 1_545 S
Cd23 O32 2.378 . S
O24 Cd25 2.385 . S
O24 C29 1.255 . S
Cd25 O24 2.385 . S
Cd25 O26 2.317 . S
O26 Cd25 2.317 . S
O26 C27 1.232 . S
C27 O26 1.232 . S
C27 O28 1.218 . S
O28 C27 1.218 . S
C29 O22 1.275 1_545 S
C29 O24 1.255 . S
C30 O31 1.258 1_545 S
C30 O32 1.256 . S
O31 Cd23 2.381 1_565 S
O31 C30 1.258 1_565 S
O32 Cd23 2.378 . S
O32 C30 1.256 . S
O33 Cd34 2.300 . S
O33 C40 1.275 . S
Cd34 O33 2.300 . S
Cd34 O42 2.381 . S
Cd34 O43 2.378 . S
O35 Cd36 2.385 1_556 S
O35 C40 1.255 . S
Cd36 O35 2.385 1_554 S
Cd36 O37 2.317 . S
O37 Cd36 2.317 . S
O37 C38 1.232 . S
C38 O37 1.232 . S
C38 O39 1.218 . S
O39 C38 1.218 . S
C40 O33 1.275 . S
C40 O35 1.255 . S
C41 O42 1.258 . S
C41 O43 1.256 . S
O42 Cd34 2.381 . S
O42 C41 1.258 . S
O43 Cd34 2.378 . S
O43 C41 1.256 . S
O44 Cd45 2.300 . S
O44 C51 1.275 . S
Cd45 O44 2.300 . S
Cd45 O53 2.381 . S
Cd45 O54 2.378 . S
O46 Cd47 2.385 . S
O46 C51 1.255 . S
Cd47 O46 2.385 . S
Cd47 O48 2.317 . S
O48 Cd47 2.317 . S
O48 C49 1.232 . S
C49 O48 1.232 . S
C49 O50 1.218 . S
O50 C49 1.218 . S
C51 O44 1.275 . S
C51 O46 1.255 . S
C52 O53 1.258 . S
C52 O54 1.256 . S
O53 Cd45 2.381 . S
O53 C52 1.258 . S
O54 Cd45 2.378 . S
O54 C52 1.256 . S
O55 Cd56 2.300 . S
O55 C62 1.275 . S
Cd56 O55 2.300 . S
Cd56 O64 2.381 . S
Cd56 O65 2.378 . S
O57 Cd58 2.385 . S
O57 C62 1.255 . S
Cd58 O57 2.385 . S
Cd58 O59 2.317 . S
O59 Cd58 2.317 . S
O59 C60 1.232 . S
C60 O59 1.232 . S
C60 O61 1.218 . S
O61 C60 1.218 . S
C62 O55 1.275 . S
C62 O57 1.255 . S
C63 O64 1.258 . S
C63 O65 1.256 . S
O64 Cd56 2.381 . S
O64 C63 1.258 . S
O65 Cd56 2.378 . S
O65 C63 1.256 . S
O66 Cd67 2.300 1_565 S
O66 C73 1.275 1_565 S
Cd67 O66 2.300 1_545 S
Cd67 O75 2.381 1_545 S
Cd67 O76 2.378 . S
O68 Cd69 2.385 . S
O68 C73 1.255 . S
Cd69 O68 2.385 . S
Cd69 O70 2.317 . S
O70 Cd69 2.317 . S
O70 C71 1.232 . S
C71 O70 1.232 . S
C71 O72 1.218 . S
O72 C71 1.218 . S
C73 O66 1.275 1_545 S
C73 O68 1.255 . S
C74 O75 1.258 1_545 S
C74 O76 1.256 . S
O75 Cd67 2.381 1_565 S
O75 C74 1.258 1_565 S
O76 Cd67 2.378 . S
O76 C74 1.256 . S
O77 Cd78 2.300 . S
O77 C84 1.275 . S
Cd78 O77 2.300 . S
Cd78 O86 2.381 . S
Cd78 O87 2.378 . S
O79 Cd80 2.385 . S
O79 C84 1.255 . S
Cd80 O79 2.385 . S
Cd80 O81 2.317 . S
O81 Cd80 2.317 . S
O81 C82 1.232 . S
C82 O81 1.232 . S
C82 O83 1.218 . S
O83 C82 1.218 . S
C84 O77 1.275 . S
C84 O79 1.255 . S
C85 O86 1.258 . S
C85 O87 1.256 . S
O86 Cd78 2.381 . S
O86 C85 1.258 . S
O87 Cd78 2.378 . S
O87 C85 1.256 . S
Tb88 C97 2.764 . S
Tb88 O98 2.325 1_655 S
Tb88 O101 2.303 1_655 S
Tb88 O105 2.322 1_545 S
Tb88 O106 2.349 . S
Tb88 O109 2.415 1_655 S
Tb88 O110 2.399 . S
Tb89 O99 2.322 1_565 S
Tb89 O100 2.349 . S
Tb89 O102 2.415 . S
Tb89 O103 2.399 . S
Tb89 O104 2.325 . S
Tb89 O107 2.303 1_455 S
Tb89 C118 2.764 . S
C90 O106 1.261 . S
C90 O107 1.257 1_545 S
C91 C94 1.358 . S
C91 C95 1.332 1_655 S
C91 C97 1.504 . S
C92 C93 1.373 . S
C92 C96 1.308 1_655 S
C93 C92 1.373 . S
C93 C94 1.429 . S
C93 H120 0.932 . S
C94 C91 1.358 . S
C94 C93 1.429 . S
C94 H121 0.930 . S
C95 C91 1.332 1_455 S
C95 C96 1.394 . S
C95 H122 0.932 . S
C96 C92 1.308 1_455 S
C96 C95 1.394 . S
C96 H123 0.929 . S
C97 Tb88 2.764 . S
C97 C91 1.504 . S
C97 O109 1.239 1_655 S
C97 O110 1.263 . S
O98 Tb88 2.325 1_455 S
O98 C108 1.236 . S
O99 Tb89 2.322 1_545 S
O99 C108 1.257 . S
O100 Tb89 2.349 . S
O100 C111 1.261 . S
O101 Tb88 2.303 1_455 S
O101 C111 1.257 1_545 S
O102 Tb89 2.415 . S
O102 C118 1.239 . S
O103 Tb89 2.399 . S
O103 C118 1.263 . S
O104 Tb89 2.325 . S
O104 C119 1.214 1_455 S
O105 Tb88 2.322 1_565 S
O105 C119 1.270 . S
O106 Tb88 2.349 . S
O106 C90 1.261 . S
O107 Tb89 2.303 1_655 S
O107 C90 1.257 1_565 S
C108 O98 1.236 . S
C108 O99 1.257 . S
O109 Tb88 2.415 1_455 S
O109 C97 1.239 1_455 S
O110 Tb88 2.399 . S
O110 C97 1.263 . S
C111 O100 1.261 . S
C111 O101 1.257 1_565 S
C112 C115 1.358 . S
C112 C116 1.332 . S
C112 C118 1.504 . S
C113 C114 1.373 . S
C113 C117 1.308 . S
C114 C113 1.373 . S
C114 C115 1.429 . S
C114 H124 0.932 . S
C115 C112 1.358 . S
C115 C114 1.429 . S
C115 H125 0.930 . S
C116 C112 1.332 . S
C116 C117 1.394 . S
C116 H126 0.932 1_455 S
C117 C113 1.308 . S
C117 C116 1.394 . S
C117 H127 0.929 1_455 S
C118 Tb89 2.764 . S
C118 O102 1.239 . S
C118 O103 1.263 . S
C118 C112 1.504 . S
C119 O104 1.214 1_655 S
C119 O105 1.270 . S
H120 C93 0.932 . S
H121 C94 0.930 . S
H122 C95 0.932 . S
H123 C96 0.929 . S
H124 C114 0.932 . S
H125 C115 0.930 . S
H126 C116 0.932 1_655 S
H127 C117 0.929 1_655 S
Tb128 C137 2.764 . S
Tb128 O138 2.325 . S
Tb128 O141 2.303 1_565 S
Tb128 O145 2.322 . S
Tb128 O146 2.349 . S
Tb128 O149 2.415 1_565 S
Tb128 O150 2.399 . S
Tb129 O139 2.322 . S
Tb129 O140 2.349 . S
Tb129 O142 2.415 1_545 S
Tb129 O143 2.399 . S
Tb129 O144 2.325 . S
Tb129 O147 2.303 1_545 S
Tb129 C158 2.764 . S
C130 O146 1.261 . S
C130 O147 1.257 . S
C131 C134 1.358 . S
C131 C135 1.332 1_565 S
C131 C137 1.504 . S
C132 C133 1.373 . S
C132 C136 1.308 1_565 S
C133 C132 1.373 . S
C133 C134 1.429 . S
C133 H160 0.932 . S
C134 C131 1.358 . S
C134 C133 1.429 . S
C134 H161 0.930 . S
C135 C131 1.332 1_545 S
C135 C136 1.394 . S
C135 H162 0.932 . S
C136 C132 1.308 1_545 S
C136 C135 1.394 . S
C136 H163 0.929 . S
C137 Tb128 2.764 . S
C137 C131 1.504 . S
C137 O149 1.239 1_565 S
C137 O150 1.263 . S
O138 Tb128 2.325 . S
O138 C148 1.236 1_565 S
O139 Tb129 2.322 . S
O139 C148 1.257 . S
O140 Tb129 2.349 . S
O140 C151 1.261 . S
O141 Tb128 2.303 1_545 S
O141 C151 1.257 . S
O142 Tb129 2.415 1_565 S
O142 C158 1.239 1_565 S
O143 Tb129 2.399 . S
O143 C158 1.263 . S
O144 Tb129 2.325 . S
O144 C159 1.236 1_545 S
O145 Tb128 2.322 . S
O145 C159 1.257 . S
O146 Tb128 2.349 . S
O146 C130 1.261 . S
O147 Tb129 2.303 1_565 S
O147 C130 1.257 . S
C148 O138 1.236 1_545 S
C148 O139 1.257 . S
O149 Tb128 2.415 1_545 S
O149 C137 1.239 1_545 S
O150 Tb128 2.399 . S
O150 C137 1.263 . S
C151 O140 1.261 . S
C151 O141 1.257 . S
C152 C155 1.358 . S
C152 C156 1.332 1_545 S
C152 C158 1.504 . S
C153 C154 1.373 . S
C153 C157 1.262 1_544 S
C154 C153 1.373 . S
C154 C155 1.429 1_554 S
C154 H164 0.932 . S
C155 C152 1.358 . S
C155 C154 1.429 1_556 S
C155 H165 0.930 . S
C156 C152 1.332 1_565 S
C156 C157 1.393 . S
C156 H166 0.932 . S
C157 C153 1.262 1_566 S
C157 C156 1.393 . S
C157 H167 0.979 . S
C158 Tb129 2.764 . S
C158 O142 1.239 1_545 S
C158 O143 1.263 . S
C158 C152 1.504 . S
C159 O144 1.236 1_565 S
C159 O145 1.257 . S
H160 C133 0.932 . S
H161 C134 0.930 . S
H162 C135 0.932 . S
H163 C136 0.929 . S
H164 C154 0.932 . S
H165 C155 0.930 . S
H166 C156 0.932 . S
H167 C157 0.979 . S
Tb168 C177 2.764 . S
Tb168 O178 2.325 . S
Tb168 O181 2.303 . S
Tb168 O185 2.322 . S
Tb168 O186 2.349 . S
Tb168 O189 2.415 . S
Tb168 O190 2.399 . S
Tb169 O179 2.322 . S
Tb169 O180 2.349 . S
Tb169 O182 2.415 . S
Tb169 O183 2.399 . S
Tb169 O184 2.325 . S
Tb169 O187 2.303 . S
Tb169 C198 2.764 . S
C170 O186 1.261 . S
C170 O187 1.257 . S
C171 C174 1.358 . S
C171 C175 1.332 . S
C171 C177 1.504 . S
C172 C173 1.373 . S
C172 C176 1.308 . S
C173 C172 1.373 . S
C173 C174 1.429 1_554 S
C173 H200 0.932 . S
C174 C171 1.358 . S
C174 C173 1.429 1_556 S
C174 H201 0.930 . S
C175 C171 1.332 . S
C175 C176 1.394 1_556 S
C175 H202 0.932 . S
C176 C172 1.308 . S
C176 C175 1.394 1_554 S
C176 H203 0.929 . S
C177 Tb168 2.764 . S
C177 C171 1.504 . S
C177 O189 1.239 . S
C177 O190 1.263 . S
O178 Tb168 2.325 . S
O178 C188 1.236 . S
O179 Tb169 2.322 . S
O179 C188 1.257 . S
O180 Tb169 2.349 . S
O180 C191 1.261 . S
O181 Tb168 2.303 . S
O181 C191 1.257 . S
O182 Tb169 2.415 . S
O182 C198 1.239 . S
O183 Tb169 2.399 . S
O183 C198 1.263 . S
O184 Tb169 2.325 . S
O184 C199 1.236 . S
O185 Tb168 2.322 . S
O185 C199 1.257 . S
O186 Tb168 2.349 . S
O186 C170 1.261 . S
O187 Tb169 2.303 . S
O187 C170 1.257 . S
C188 O178 1.236 . S
C188 O179 1.257 . S
O189 Tb168 2.415 . S
O189 C177 1.239 . S
O190 Tb168 2.399 . S
O190 C177 1.263 . S
C191 O180 1.261 . S
C191 O181 1.257 . S
C192 C195 1.358 . S
C192 C196 1.332 . S
C192 C198 1.504 . S
C193 C194 1.373 . S
C193 C197 1.308 . S
C194 C193 1.373 . S
C194 C195 1.429 . S
C194 H204 0.932 . S
C195 C192 1.358 . S
C195 C194 1.429 . S
C195 H205 0.930 . S
C196 C192 1.332 . S
C196 C197 1.394 . S
C196 H206 0.932 . S
C197 C193 1.308 . S
C197 C196 1.394 . S
C197 H207 0.929 . S
C198 Tb169 2.764 . S
C198 O182 1.239 . S
C198 O183 1.263 . S
C198 C192 1.504 . S
C199 O184 1.236 . S
C199 O185 1.257 . S
H200 C173 0.932 . S
H201 C174 0.930 . S
H202 C175 0.932 . S
H203 C176 0.929 . S
H204 C194 0.932 . S
H205 C195 0.930 . S
H206 C196 0.932 . S
H207 C197 0.929 . S
Tb208 C217 2.764 . S
Tb208 O218 2.325 . S
Tb208 O221 2.303 . S
Tb208 O225 2.322 1_455 S
Tb208 O226 2.349 . S
Tb208 O229 2.415 . S
Tb208 O230 2.399 . S
Tb209 O219 2.322 1_655 S
Tb209 O220 2.349 1_655 S
Tb209 O222 2.415 . S
Tb209 O223 2.399 . S
Tb209 O224 2.325 . S
Tb209 O227 2.303 1_655 S
Tb209 C238 2.764 . S
C210 O226 1.261 . S
C210 O227 1.257 . S
C211 C214 1.358 . S
C211 C215 1.332 . S
C211 C217 1.504 . S
C212 C213 1.373 . S
C212 C216 1.308 . S
C213 C212 1.373 . S
C213 C214 1.429 . S
C213 H240 0.932 . S
C214 C211 1.358 . S
C214 C213 1.429 . S
C214 H241 0.930 . S
C215 C211 1.332 . S
C215 C216 1.394 . S
C215 H242 0.932 . S
C216 C212 1.308 . S
C216 C215 1.394 . S
C216 H243 0.929 . S
C217 Tb208 2.764 . S
C217 C211 1.504 . S
C217 O229 1.239 . S
C217 O230 1.263 . S
O218 Tb208 2.325 . S
O218 C228 1.236 . S
O219 Tb209 2.322 1_455 S
O219 C228 1.257 . S
O220 Tb209 2.349 1_455 S
O220 C231 1.261 . S
O221 Tb208 2.303 . S
O221 C231 1.257 . S
O222 Tb209 2.415 . S
O222 C238 1.239 . S
O223 Tb209 2.399 . S
O223 C238 1.263 . S
O224 Tb209 2.325 . S
O224 C239 1.236 . S
O225 Tb208 2.322 1_655 S
O225 C239 1.257 . S
O226 Tb208 2.349 . S
O226 C210 1.261 . S
O227 Tb209 2.303 1_455 S
O227 C210 1.257 . S
C228 O218 1.236 . S
C228 O219 1.257 . S
O229 Tb208 2.415 . S
O229 C217 1.239 . S
O230 Tb208 2.399 . S
O230 C217 1.263 . S
C231 O220 1.261 . S
C231 O221 1.257 . S
C232 C235 1.358 . S
C232 C236 1.332 . S
C232 C238 1.504 . S
C233 C234 1.373 . S
C233 C237 1.308 . S
C234 C233 1.373 . S
C234 C235 1.429 . S
C234 H244 0.932 . S
C235 C232 1.358 . S
C235 C234 1.429 . S
C235 H245 0.930 . S
C236 C232 1.332 . S
C236 C237 1.394 . S
C236 H246 0.932 . S
C237 C233 1.308 . S
C237 C236 1.394 . S
C237 H247 0.929 . S
C238 Tb209 2.764 . S
C238 O222 1.239 . S
C238 O223 1.263 . S
C238 C232 1.504 . S
C239 O224 1.236 . S
C239 O225 1.257 . S
H240 C213 0.932 . S
H241 C214 0.930 . S
H242 C215 0.932 . S
H243 C216 0.929 . S
H244 C234 0.932 . S
H245 C235 0.930 . S
H246 C236 0.932 . S
H247 C237 0.929 . S
H248 C256 0.929 . S
H249 C258 0.930 . S
H250 C260 0.930 . S
H251 C263 0.929 . S
H252 C266 0.930 . S
H253 C268 0.960 . S
H254 C268 0.960 1_565 S
H255 C268 0.960 . S
C256 H248 0.929 . S
C256 C257 1.378 . S
C256 C258 1.384 . S
C257 C256 1.378 . S
C257 C263 1.389 1_565 S
C258 H249 0.930 . S
C258 C256 1.384 . S
C258 C259 1.409 . S
C259 C258 1.409 . S
C259 C260 1.358 1_565 S
C259 C264 1.490 . S
C260 H250 0.930 . S
C260 C259 1.358 1_545 S
C260 C263 1.386 . S
H261 C277 0.930 . S
H262 C278 0.931 . S
C263 H251 0.929 . S
C263 C257 1.389 1_545 S
C263 C260 1.386 . S
C264 C259 1.490 . S
C264 C266 1.408 . S
C264 C267 1.396 1_565 S
H265 C271 0.930 . S
C266 H252 0.930 . S
C266 C264 1.408 . S
C266 C269 1.403 . S
C267 C264 1.396 1_545 S
C267 C268 1.524 . S
C267 C271 1.400 . S
C268 H253 0.960 . S
C268 H254 0.960 1_545 S
C268 H255 0.960 . S
C268 C267 1.524 . S
C269 C266 1.403 . S
C269 C270 1.398 . S
C269 C273 1.495 . S
C270 C269 1.398 . S
C270 C271 1.378 1_565 S
C270 C272 1.479 1_565 S
C271 H265 0.930 . S
C271 C267 1.400 . S
C271 C270 1.378 1_545 S
C272 C270 1.479 1_545 S
C272 C274 1.387 1_545 S
C272 C278 1.377 . S
C273 C269 1.495 . S
C273 H279 0.959 . S
C273 H280 0.961 1_565 S
C273 H281 0.960 . S
C274 C272 1.387 1_565 S
C274 C275 1.394 . S
C274 H282 0.930 . S
C275 C274 1.394 . S
C275 C276 1.354 1_565 S
C275 H283 0.929 . S
C276 C275 1.354 1_545 S
C276 C277 1.409 . S
C277 H261 0.930 . S
C277 C276 1.409 . S
C277 C278 1.379 . S
C278 H262 0.931 . S
C278 C272 1.377 . S
C278 C277 1.379 . S
H279 C273 0.959 . S
H280 C273 0.961 1_545 S
H281 C273 0.960 . S
H282 C274 0.930 . S
H283 C275 0.929 . S
H284 C292 0.929 . S
H285 C294 0.930 . S
H286 C296 0.930 . S
H287 C299 0.929 . S
H288 C302 0.930 . S
H289 C304 0.960 . S
H290 C304 0.960 . S
H291 C304 0.960 . S
C292 H284 0.929 . S
C292 C293 1.377 . S
C292 C294 1.384 . S
C293 C292 1.377 . S
C293 C299 1.390 . S
C294 H285 0.930 . S
C294 C292 1.384 . S
C294 C295 1.372 . S
C295 C294 1.372 . S
C295 C296 1.400 . S
C295 C300 1.490 . S
C296 H286 0.930 . S
C296 C295 1.400 . S
C296 C299 1.386 . S
H297 C313 0.930 . S
H298 C314 0.931 . S
C299 H287 0.929 . S
C299 C293 1.390 . S
C299 C296 1.386 . S
C300 C295 1.490 . S
C300 C302 1.395 . S
C300 C303 1.403 . S
H301 C307 0.930 . S
C302 H288 0.930 . S
C302 C300 1.395 . S
C302 C305 1.403 . S
C303 C300 1.403 . S
C303 C304 1.524 . S
C303 C307 1.400 . S
C304 H289 0.960 . S
C304 H290 0.960 . S
C304 H291 0.960 . S
C304 C303 1.524 . S
C305 C302 1.403 . S
C305 C306 1.392 . S
C305 C309 1.495 . S
C306 C305 1.392 . S
C306 C307 1.385 . S
C306 C308 1.478 . S
C307 H301 0.930 . S
C307 C303 1.400 . S
C307 C306 1.385 . S
C308 C306 1.478 . S
C308 C310 1.381 . S
C308 C314 1.383 . S
C309 C305 1.495 . S
C309 H315 0.959 . S
C309 H316 0.961 . S
C309 H317 0.960 . S
C310 C308 1.381 . S
C310 C311 1.394 . S
C310 H318 0.930 . S
C311 C310 1.394 . S
C311 C312 1.383 . S
C311 H319 0.929 . S
C312 C311 1.383 . S
C312 C313 1.377 . S
C313 H297 0.930 . S
C313 C312 1.377 . S
C313 C314 1.379 . S
C314 H298 0.931 . S
C314 C308 1.383 . S
C314 C313 1.379 . S
H315 C309 0.959 . S
H316 C309 0.961 . S
H317 C309 0.960 . S
H318 C310 0.930 . S
H319 C311 0.929 . S
H320 C328 0.929 . S
H321 C330 0.930 . S
H322 C332 0.930 . S
H323 C335 0.929 . S
H324 C338 0.930 . S
H325 C340 0.960 . S
H326 C340 0.960 . S
H327 C340 0.960 . S
C328 H320 0.929 . S
C328 C329 1.377 . S
C328 C330 1.384 . S
C329 C328 1.377 . S
C329 C335 1.390 . S
C330 H321 0.930 . S
C330 C328 1.384 . S
C330 C331 1.372 . S
C331 C330 1.372 . S
C331 C332 1.400 . S
C331 C336 1.490 . S
C332 H322 0.930 . S
C332 C331 1.400 . S
C332 C335 1.386 . S
H333 C349 0.930 . S
H334 C350 0.931 . S
C335 H323 0.929 . S
C335 C329 1.390 . S
C335 C332 1.386 . S
C336 C331 1.490 . S
C336 C338 1.395 . S
C336 C339 1.403 . S
H337 C343 0.930 . S
C338 H324 0.930 . S
C338 C336 1.395 . S
C338 C341 1.403 . S
C339 C336 1.403 . S
C339 C340 1.524 . S
C339 C343 1.400 . S
C340 H325 0.960 . S
C340 H326 0.960 . S
C340 H327 0.960 . S
C340 C339 1.524 . S
C341 C338 1.403 . S
C341 C342 1.392 . S
C341 C345 1.495 . S
C342 C341 1.392 . S
C342 C343 1.385 . S
C342 C344 1.478 . S
C343 H337 0.930 . S
C343 C339 1.400 . S
C343 C342 1.385 . S
C344 C342 1.478 . S
C344 C346 1.381 . S
C344 C350 1.383 . S
C345 C341 1.495 . S
C345 H351 0.959 . S
C345 H352 0.961 . S
C345 H353 0.960 . S
C346 C344 1.381 . S
C346 C347 1.394 . S
C346 H354 0.930 . S
C347 C346 1.394 . S
C347 C348 1.383 . S
C347 H355 0.929 . S
C348 C347 1.383 . S
C348 C349 1.377 . S
C349 H333 0.930 . S
C349 C348 1.377 . S
C349 C350 1.379 . S
C350 H334 0.931 . S
C350 C344 1.383 . S
C350 C349 1.379 . S
H351 C345 0.959 . S
H352 C345 0.961 . S
H353 C345 0.960 . S
H354 C346 0.930 . S
H355 C347 0.929 . S
H356 C364 0.929 . S
H357 C366 0.930 . S
H358 C368 0.930 . S
H359 C371 0.929 . S
H360 C374 0.930 . S
H361 C376 0.960 . S
H362 C376 0.960 . S
H363 C376 0.960 . S
C364 H356 0.929 . S
C364 C365 1.377 . S
C364 C366 1.384 . S
C365 C364 1.377 . S
C365 C371 1.390 . S
C366 H357 0.930 . S
C366 C364 1.384 . S
C366 C367 1.372 . S
C367 C366 1.372 . S
C367 C368 1.400 . S
C367 C372 1.490 . S
C368 H358 0.930 . S
C368 C367 1.400 . S
C368 C371 1.386 . S
H369 C385 0.930 . S
H370 C386 0.931 . S
C371 H359 0.929 . S
C371 C365 1.390 . S
C371 C368 1.386 . S
C372 C367 1.490 . S
C372 C374 1.395 . S
C372 C375 1.403 . S
H373 C379 0.930 . S
C374 H360 0.930 . S
C374 C372 1.395 . S
C374 C377 1.403 . S
C375 C372 1.403 . S
C375 C376 1.524 . S
C375 C379 1.400 . S
C376 H361 0.960 . S
C376 H362 0.960 . S
C376 H363 0.960 . S
C376 C375 1.524 . S
C377 C374 1.403 . S
C377 C378 1.392 . S
C377 C381 1.495 1_455 S
C378 C377 1.392 . S
C378 C379 1.385 . S
C378 C380 1.478 . S
C379 H373 0.930 . S
C379 C375 1.400 . S
C379 C378 1.385 . S
C380 C378 1.478 . S
C380 C382 1.381 . S
C380 C386 1.383 . S
C381 C377 1.495 1_655 S
C381 H387 0.959 . S
C381 H388 0.961 . S
C381 H389 0.960 . S
C382 C380 1.381 . S
C382 C383 1.394 . S
C382 H390 0.930 1_455 S
C383 C382 1.394 . S
C383 C384 1.383 . S
C383 H391 0.929 1_455 S
C384 C383 1.383 . S
C384 C385 1.377 . S
C385 H369 0.930 . S
C385 C384 1.377 . S
C385 C386 1.379 . S
C386 H370 0.931 . S
C386 C380 1.383 . S
C386 C385 1.379 . S
H387 C381 0.959 . S
H388 C381 0.961 . S
H389 C381 0.960 . S
H390 C382 0.930 1_655 S
H391 C383 0.929 1_655 S
H392 C400 0.929 . S
H393 C402 0.930 . S
H394 C404 0.930 . S
H395 C407 0.929 . S
H396 C410 0.930 . S
H397 C412 0.960 1_556 S
H398 C412 0.960 . S
H399 C412 0.960 . S
C400 H392 0.929 . S
C400 C401 1.382 . S
C400 C402 1.384 . S
C401 C400 1.382 . S
C401 C407 1.386 1_545 S
C402 H393 0.930 . S
C402 C400 1.384 . S
C402 C403 1.417 . S
C403 C402 1.417 . S
C403 C404 1.349 1_545 S
C403 C408 1.497 . S
C404 H394 0.930 . S
C404 C403 1.349 1_565 S
C404 C407 1.386 . S
H405 C421 0.930 . S
H406 C422 0.931 . S
C407 H395 0.929 . S
C407 C401 1.386 1_565 S
C407 C404 1.386 . S
C408 C403 1.497 . S
C408 C410 1.395 . S
C408 C411 1.403 1_545 S
H409 C415 0.930 1_556 S
C410 H396 0.930 . S
C410 C408 1.395 . S
C410 C413 1.403 . S
C411 C408 1.403 1_565 S
C411 C412 1.524 . S
C411 C415 1.400 . S
C412 H397 0.960 1_554 S
C412 H398 0.960 . S
C412 H399 0.960 . S
C412 C411 1.524 . S
C413 C410 1.403 . S
C413 C414 1.392 . S
C413 C417 1.495 . S
C414 C413 1.392 . S
C414 C415 1.385 1_545 S
C414 C416 1.478 1_554 S
C415 H409 0.930 1_554 S
C415 C411 1.400 . S
C415 C414 1.385 1_565 S
C416 C414 1.478 1_556 S
C416 C418 1.381 . S
C416 C422 1.383 1_545 S
C417 C413 1.495 . S
C417 H423 0.959 . S
C417 H424 0.961 . S
C417 H425 0.960 . S
C418 C416 1.381 . S
C418 C419 1.394 . S
C418 H426 0.930 . S
C419 C418 1.394 . S
C419 C420 1.404 . S
C419 H427 0.929 . S
C420 C419 1.404 . S
C420 C421 1.355 1_545 S
C421 H405 0.930 . S
C421 C420 1.355 1_565 S
C421 C422 1.379 . S
C422 H406 0.931 . S
C422 C416 1.383 1_565 S
C422 C421 1.379 . S
H423 C417 0.959 . S
H424 C417 0.961 . S
H425 C417 0.960 . S
H426 C418 0.930 . S
H427 C419 0.929 . S
H428 C436 0.929 . S
H429 C438 0.930 . S
H430 C440 0.930 . S
H431 C443 0.929 1_554 S
H432 C446 0.930 . S
H433 C448 0.960 . S
H434 C448 0.960 . S
H435 C448 0.959 . S
C436 H428 0.929 . S
C436 C437 1.377 . S
C436 C438 1.384 . S
C437 C436 1.377 . S
C437 C443 1.390 . S
C438 H429 0.930 . S
C438 C436 1.384 . S
C438 C439 1.372 . S
C439 C438 1.372 . S
C439 C440 1.400 . S
C439 C444 1.490 . S
C440 H430 0.930 . S
C440 C439 1.400 . S
C440 C443 1.386 . S
H441 C457 0.930 . S
H442 C458 0.931 . S
C443 H431 0.929 1_556 S
C443 C437 1.390 . S
C443 C440 1.386 . S
C444 C439 1.490 . S
C444 C446 1.395 . S
C444 C447 1.403 . S
H445 C451 0.930 . S
C446 H432 0.930 . S
C446 C444 1.395 . S
C446 C449 1.403 . S
C447 C444 1.403 . S
C447 C448 1.524 . S
C447 C451 1.400 . S
C448 H433 0.960 . S
C448 H434 0.960 . S
C448 H435 0.959 . S
C448 C447 1.524 . S
C449 C446 1.403 . S
C449 C450 1.392 . S
C449 C453 1.495 . S
C450 C449 1.392 . S
C450 C451 1.385 . S
C450 C452 1.478 . S
C451 H445 0.930 . S
C451 C447 1.400 . S
C451 C450 1.385 . S
C452 C450 1.478 . S
C452 C454 1.381 . S
C452 C458 1.383 . S
C453 C449 1.495 . S
C453 H459 0.959 . S
C453 H460 0.961 . S
C453 H461 0.960 . S
C454 C452 1.381 . S
C454 C455 1.394 . S
C454 H462 0.930 . S
C455 C454 1.394 . S
C455 C456 1.383 . S
C455 H463 0.929 . S
C456 C455 1.383 . S
C456 C457 1.377 . S
C457 H441 0.930 . S
C457 C456 1.377 . S
C457 C458 1.379 . S
C458 H442 0.931 . S
C458 C452 1.383 . S
C458 C457 1.379 . S
H459 C453 0.959 . S
H460 C453 0.961 . S
H461 C453 0.960 . S
H462 C454 0.930 . S
H463 C455 0.929 . S
H464 C472 0.929 . S
H465 C474 0.930 . S
H466 C476 0.930 . S
H467 C479 0.929 . S
H468 C482 0.930 . S
H469 C484 0.960 1_556 S
H470 C484 0.960 . S
H471 C484 0.960 . S
C472 H464 0.929 . S
C472 C473 1.377 . S
C472 C474 1.384 . S
C473 C472 1.377 . S
C473 C479 1.390 . S
C474 H465 0.930 . S
C474 C472 1.384 . S
C474 C475 1.372 . S
C475 C474 1.372 . S
C475 C476 1.400 . S
C475 C480 1.490 . S
C476 H466 0.930 . S
C476 C475 1.400 . S
C476 C479 1.386 . S
H477 C493 0.930 . S
H478 C494 0.931 . S
C479 H467 0.929 . S
C479 C473 1.390 . S
C479 C476 1.386 . S
C480 C475 1.490 . S
C480 C482 1.395 . S
C480 C483 1.403 . S
H481 C487 0.930 1_556 S
C482 H468 0.930 . S
C482 C480 1.395 . S
C482 C485 1.403 . S
C483 C480 1.403 . S
C483 C484 1.524 . S
C483 C487 1.400 . S
C484 H469 0.960 1_554 S
C484 H470 0.960 . S
C484 H471 0.960 . S
C484 C483 1.524 . S
C485 C482 1.403 . S
C485 C486 1.392 . S
C485 C489 1.495 . S
C486 C485 1.392 . S
C486 C487 1.385 . S
C486 C488 1.478 1_554 S
C487 H481 0.930 1_554 S
C487 C483 1.400 . S
C487 C486 1.385 . S
C488 C486 1.478 1_556 S
C488 C490 1.381 . S
C488 C494 1.383 . S
C489 C485 1.495 . S
C489 H495 0.959 . S
C489 H496 0.961 . S
C489 H497 0.960 . S
C490 C488 1.381 . S
C490 C491 1.394 . S
C490 H498 0.930 . S
C491 C490 1.394 . S
C491 C492 1.383 . S
C491 H499 0.929 . S
C492 C491 1.383 . S
C492 C493 1.377 . S
C493 H477 0.930 . S
C493 C492 1.377 . S
C493 C494 1.379 . S
C494 H478 0.931 . S
C494 C488 1.383 . S
C494 C493 1.379 . S
H495 C489 0.959 . S
H496 C489 0.961 . S
H497 C489 0.960 . S
H498 C490 0.930 . S
H499 C491 0.929 . S
H500 C508 0.929 . S
H501 C510 0.930 . S
H502 C512 0.930 . S
H503 C515 0.929 . S
H504 C518 0.930 . S
H505 C520 0.960 . S
H506 C520 0.960 . S
H507 C520 0.960 . S
C508 H500 0.929 . S
C508 C509 1.377 . S
C508 C510 1.384 . S
C509 C508 1.377 . S
C509 C515 1.390 . S
C510 H501 0.930 . S
C510 C508 1.384 . S
C510 C511 1.372 . S
C511 C510 1.372 . S
C511 C512 1.400 . S
C511 C516 1.490 . S
C512 H502 0.930 . S
C512 C511 1.400 . S
C512 C515 1.386 . S
H513 C529 0.930 . S
H514 C530 0.931 . S
C515 H503 0.929 . S
C515 C509 1.390 . S
C515 C512 1.386 . S
C516 C511 1.490 . S
C516 C518 1.395 . S
C516 C519 1.403 1_655 S
H517 C523 0.930 . S
C518 H504 0.930 . S
C518 C516 1.395 . S
C518 C521 1.403 . S
C519 C516 1.403 1_455 S
C519 C520 1.524 . S
C519 C523 1.400 . S
C520 H505 0.960 . S
C520 H506 0.960 . S
C520 H507 0.960 . S
C520 C519 1.524 . S
C521 C518 1.403 . S
C521 C522 1.392 1_554 S
C521 C525 1.495 1_554 S
C522 C521 1.392 1_556 S
C522 C523 1.385 1_656 S
C522 C524 1.478 . S
C523 H517 0.930 . S
C523 C519 1.400 . S
C523 C522 1.385 1_454 S
C524 C522 1.478 . S
C524 C526 1.381 . S
C524 C530 1.382 1_655 S
C525 C521 1.495 1_556 S
C525 H531 0.959 1_556 S
C525 H532 0.961 . S
C525 H533 0.960 . S
C526 C524 1.381 . S
C526 C527 1.394 . S
C526 H534 0.930 . S
C527 C526 1.394 . S
C527 C528 1.383 1_655 S
C527 H535 0.929 . S
C528 C527 1.383 1_455 S
C528 C529 1.377 . S
C529 H513 0.930 . S
C529 C528 1.377 . S
C529 C530 1.380 . S
C530 H514 0.931 . S
C530 C524 1.382 1_455 S
C530 C529 1.380 . S
H531 C525 0.959 1_554 S
H532 C525 0.961 . S
H533 C525 0.960 . S
H534 C526 0.930 . S
H535 C527 0.929 . S
H536 C544 0.929 . S
H537 C546 0.930 . S
H538 C548 0.930 . S
H539 C551 0.929 . S
H540 C554 0.930 . S
H541 C556 0.960 . S
H542 C556 0.960 . S
H543 C556 0.960 . S
C544 H536 0.929 . S
C544 C545 1.377 . S
C544 C546 1.384 . S
C545 C544 1.377 . S
C545 C551 1.390 . S
C546 H537 0.930 . S
C546 C544 1.384 . S
C546 C547 1.372 . S
C547 C546 1.372 . S
C547 C548 1.400 . S
C547 C552 1.490 . S
C548 H538 0.930 . S
C548 C547 1.400 . S
C548 C551 1.386 . S
H549 C565 0.930 . S
H550 C566 0.931 . S
C551 H539 0.929 . S
C551 C545 1.390 . S
C551 C548 1.386 . S
C552 C547 1.490 . S
C552 C554 1.395 . S
C552 C555 1.403 . S
H553 C559 0.930 . S
C554 H540 0.930 . S
C554 C552 1.395 . S
C554 C557 1.403 . S
C555 C552 1.403 . S
C555 C556 1.524 . S
C555 C559 1.400 . S
C556 H541 0.960 . S
C556 H542 0.960 . S
C556 H543 0.960 . S
C556 C555 1.524 . S
C557 C554 1.403 . S
C557 C558 1.392 . S
C557 C561 1.495 1_455 S
C558 C557 1.392 . S
C558 C559 1.385 . S
C558 C560 1.478 . S
C559 H553 0.930 . S
C559 C555 1.400 . S
C559 C558 1.385 . S
C560 C558 1.478 . S
C560 C562 1.381 1_455 S
C560 C566 1.383 . S
C561 C557 1.495 1_655 S
C561 H567 0.959 . S
C561 H568 0.961 . S
C561 H569 0.960 . S
C562 C560 1.381 1_655 S
C562 C563 1.394 . S
C562 H570 0.930 . S
C563 C562 1.394 . S
C563 C564 1.383 . S
C563 H571 0.929 . S
C564 C563 1.383 . S
C564 C565 1.377 1_655 S
C565 H549 0.930 . S
C565 C564 1.377 1_455 S
C565 C566 1.379 . S
C566 H550 0.931 . S
C566 C560 1.383 . S
C566 C565 1.379 . S
H567 C561 0.959 . S
H568 C561 0.961 . S
H569 C561 0.960 . S
H570 C562 0.930 . S
H571 C563 0.929 . S
H572 C580 0.929 . S
H573 C582 0.930 . S
H574 C584 0.930 . S
H575 C587 0.929 . S
H576 C590 0.930 . S
H577 C592 0.960 . S
H578 C592 0.960 . S
H579 C592 0.960 . S
C580 H572 0.929 . S
C580 C581 1.377 . S
C580 C582 1.384 . S
C581 C580 1.377 . S
C581 C587 1.390 1_545 S
C582 H573 0.930 . S
C582 C580 1.384 . S
C582 C583 1.372 1_545 S
C583 C582 1.372 1_565 S
C583 C584 1.400 . S
C583 C588 1.490 . S
C584 H574 0.930 . S
C584 C583 1.400 . S
C584 C587 1.386 . S
H585 C601 0.930 . S
H586 C602 0.931 . S
C587 H575 0.929 . S
C587 C581 1.390 1_565 S
C587 C584 1.386 . S
C588 C583 1.490 . S
C588 C590 1.395 . S
C588 C591 1.403 1_565 S
H589 C595 0.930 1_545 S
C590 H576 0.930 . S
C590 C588 1.395 . S
C590 C593 1.403 . S
C591 C588 1.403 1_545 S
C591 C592 1.524 . S
C591 C595 1.400 1_545 S
C592 H577 0.960 . S
C592 H578 0.960 . S
C592 H579 0.960 . S
C592 C591 1.524 . S
C593 C590 1.403 . S
C593 C594 1.392 . S
C593 C597 1.495 . S
C594 C593 1.392 . S
C594 C595 1.385 . S
C594 C596 1.478 . S
C595 H589 0.930 1_565 S
C595 C591 1.400 1_565 S
C595 C594 1.385 . S
C596 C594 1.478 . S
C596 C598 1.381 . S
C596 C602 1.383 . S
C597 C593 1.495 . S
C597 H603 0.959 . S
C597 H604 0.961 . S
C597 H605 0.960 . S
C598 C596 1.381 . S
C598 C599 1.394 . S
C598 H606 0.930 1_565 S
C599 C598 1.394 . S
C599 C600 1.383 . S
C599 H607 0.929 . S
C600 C599 1.383 . S
C600 C601 1.377 . S
C601 H585 0.930 . S
C601 C600 1.377 . S
C601 C602 1.379 . S
C602 H586 0.931 . S
C602 C596 1.383 . S
C602 C601 1.379 . S
H603 C597 0.959 . S
H604 C597 0.961 . S
H605 C597 0.960 . S
H606 C598 0.930 1_545 S
H607 C599 0.929 . S
H608 C616 0.929 . S
H609 C618 0.930 . S
H610 C620 0.930 . S
H611 C623 0.929 . S
H612 C626 0.930 . S
H613 C628 0.960 . S
H614 C628 0.960 . S
H615 C628 0.960 . S
C616 H608 0.929 . S
C616 C617 1.377 . S
C616 C618 1.384 . S
C617 C616 1.377 . S
C617 C623 1.390 . S
C618 H609 0.930 . S
C618 C616 1.384 . S
C618 C619 1.372 . S
C619 C618 1.372 . S
C619 C620 1.400 . S
C619 C624 1.490 . S
C620 H610 0.930 . S
C620 C619 1.400 . S
C620 C623 1.386 . S
H621 C637 0.930 . S
H622 C638 0.931 . S
C623 H611 0.929 . S
C623 C617 1.390 . S
C623 C620 1.386 . S
C624 C619 1.490 . S
C624 C626 1.395 . S
C624 C627 1.403 . S
H625 C631 0.930 . S
C626 H612 0.930 . S
C626 C624 1.395 . S
C626 C629 1.403 . S
C627 C624 1.403 . S
C627 C628 1.524 . S
C627 C631 1.400 . S
C628 H613 0.960 . S
C628 H614 0.960 . S
C628 H615 0.960 . S
C628 C627 1.524 . S
C629 C626 1.403 . S
C629 C630 1.392 . S
C629 C633 1.495 . S
C630 C629 1.392 . S
C630 C631 1.385 . S
C630 C632 1.478 . S
C631 H625 0.930 . S
C631 C627 1.400 . S
C631 C630 1.385 . S
C632 C630 1.478 . S
C632 C634 1.381 . S
C632 C638 1.383 . S
C633 C629 1.495 . S
C633 H639 0.959 . S
C633 H640 0.961 . S
C633 H641 0.960 . S
C634 C632 1.381 . S
C634 C635 1.394 . S
C634 H642 0.930 . S
C635 C634 1.394 . S
C635 C636 1.383 . S
C635 H643 0.929 . S
C636 C635 1.383 . S
C636 C637 1.377 . S
C637 H621 0.930 . S
C637 C636 1.377 . S
C637 C638 1.379 . S
C638 H622 0.931 . S
C638 C632 1.383 . S
C638 C637 1.379 . S
H639 C633 0.959 . S
H640 C633 0.961 . S
H641 C633 0.960 . S
H642 C634 0.930 . S
H643 C635 0.929 . S
H644 C652 0.929 . S
H645 C654 0.930 . S
H646 C656 0.930 . S
H647 C659 0.929 . S
H648 C662 0.930 . S
H649 C664 0.960 . S
H650 C664 0.960 . S
H651 C664 0.960 . S
C652 H644 0.929 . S
C652 C653 1.377 . S
C652 C654 1.384 . S
C653 C652 1.377 . S
C653 C659 1.390 . S
C654 H645 0.930 . S
C654 C652 1.384 . S
C654 C655 1.372 . S
C655 C654 1.372 . S
C655 C656 1.400 . S
C655 C660 1.490 . S
C656 H646 0.930 . S
C656 C655 1.400 . S
C656 C659 1.386 . S
H657 C673 0.930 . S
H658 C674 0.931 . S
C659 H647 0.929 . S
C659 C653 1.390 . S
C659 C656 1.386 . S
C660 C655 1.490 . S
C660 C662 1.395 . S
C660 C663 1.403 . S
H661 C667 0.930 . S
C662 H648 0.930 . S
C662 C660 1.395 . S
C662 C665 1.403 . S
C663 C660 1.403 . S
C663 C664 1.524 . S
C663 C667 1.400 . S
C664 H649 0.960 . S
C664 H650 0.960 . S
C664 H651 0.960 . S
C664 C663 1.524 . S
C665 C662 1.403 . S
C665 C666 1.392 . S
C665 C669 1.495 . S
C666 C665 1.392 . S
C666 C667 1.385 . S
C666 C668 1.478 . S
C667 H661 0.930 . S
C667 C663 1.400 . S
C667 C666 1.385 . S
C668 C666 1.478 . S
C668 C670 1.381 . S
C668 C674 1.383 . S
C669 C665 1.495 . S
C669 H675 0.959 . S
C669 H676 0.961 . S
C669 H677 0.960 . S
C670 C668 1.381 . S
C670 C671 1.394 . S
C670 H678 0.930 . S
C671 C670 1.394 . S
C671 C672 1.383 . S
C671 H679 0.929 . S
C672 C671 1.383 . S
C672 C673 1.377 . S
C673 H657 0.930 . S
C673 C672 1.377 . S
C673 C674 1.379 . S
C674 H658 0.931 . S
C674 C668 1.383 . S
C674 C673 1.379 . S
H675 C669 0.959 . S
H676 C669 0.961 . S
H677 C669 0.960 . S
H678 C670 0.930 . S
H679 C671 0.929 . S
H680 C688 0.929 1_455 S
H681 C690 0.925 . S
H682 C692 0.930 . S
H683 C695 0.929 . S
H684 C698 0.930 . S
H685 C700 0.960 . S
H686 C700 0.960 . S
H687 C700 0.960 . S
C688 H680 0.929 1_655 S
C688 C689 1.377 . S
C688 C690 1.385 1_655 S
C689 C688 1.377 . S
C689 C695 1.390 . S
C690 H681 0.925 . S
C690 C688 1.385 1_455 S
C690 C691 1.375 1_455 S
C691 C690 1.375 1_655 S
C691 C692 1.400 . S
C691 C696 1.490 . S
C692 H682 0.930 . S
C692 C691 1.400 . S
C692 C695 1.386 . S
H693 C709 0.930 1_655 S
H694 C710 0.894 1_655 S
C695 H683 0.929 . S
C695 C689 1.390 . S
C695 C692 1.386 . S
C696 C691 1.490 . S
C696 C698 1.395 1_655 S
C696 C699 1.403 . S
H697 C703 0.930 . S
C698 H684 0.930 . S
C698 C696 1.395 1_455 S
C698 C701 1.403 . S
C699 C696 1.403 . S
C699 C700 1.524 . S
C699 C703 1.400 . S
C700 H685 0.960 . S
C700 H686 0.960 . S
C700 H687 0.960 . S
C700 C699 1.524 . S
C701 C698 1.403 . S
C701 C702 1.392 . S
C701 C705 1.495 1_554 S
C702 C701 1.392 . S
C702 C703 1.385 1_455 S
C702 C704 1.478 . S
C703 H697 0.930 . S
C703 C699 1.400 . S
C703 C702 1.385 1_655 S
C704 C702 1.478 . S
C704 C706 1.381 . S
C704 C710 1.410 1_554 S
C705 C701 1.495 1_556 S
C705 H711 0.959 . S
C705 H712 0.961 . S
C705 H713 0.960 1_556 S
C706 C704 1.381 . S
C706 C707 1.394 . S
C706 H714 0.930 . S
C707 C706 1.394 . S
C707 C708 1.383 1_554 S
C707 H715 0.929 . S
C708 C707 1.383 1_556 S
C708 C709 1.377 . S
C709 H693 0.930 1_455 S
C709 C708 1.377 . S
C709 C710 1.390 . S
C710 H694 0.894 1_455 S
C710 C704 1.410 1_556 S
C710 C709 1.390 . S
H711 C705 0.959 . S
H712 C705 0.961 . S
H713 C705 0.960 1_554 S
H714 C706 0.930 . S
H715 C707 0.929 . S
H716 C724 0.929 . S
H717 C726 0.930 . S
H718 C728 0.930 . S
H719 C731 0.929 . S
H720 C734 0.912 1_565 S
H721 C736 0.960 . S
H722 C736 0.960 . S
H723 C736 0.960 . S
C724 H716 0.929 . S
C724 C725 1.361 1_545 S
C724 C726 1.384 . S
C725 C724 1.361 1_565 S
C725 C731 1.401 . S
C726 H717 0.930 . S
C726 C724 1.384 . S
C726 C727 1.372 . S
C727 C726 1.372 . S
C727 C728 1.400 1_545 S
C727 C732 1.490 . S
C728 H718 0.930 . S
C728 C727 1.400 1_565 S
C728 C731 1.386 . S
H729 C745 0.930 1_565 S
H730 C746 0.885 1_565 S
C731 H719 0.929 . S
C731 C725 1.401 . S
C731 C728 1.386 . S
C732 C727 1.490 . S
C732 C734 1.404 . S
C732 C735 1.403 . S
H733 C739 0.930 . S
C734 H720 0.912 1_545 S
C734 C732 1.404 . S
C734 C737 1.416 . S
C735 C732 1.403 . S
C735 C736 1.524 . S
C735 C739 1.400 . S
C736 H721 0.960 . S
C736 H722 0.960 . S
C736 H723 0.960 . S
C736 C735 1.524 . S
C737 C734 1.416 . S
C737 C738 1.392 . S
C737 C741 1.495 1_545 S
C738 C737 1.392 . S
C738 C739 1.385 . S
C738 C740 1.478 . S
C739 H733 0.930 . S
C739 C735 1.400 . S
C739 C738 1.385 . S
C740 C738 1.478 . S
C740 C742 1.381 . S
C740 C746 1.416 . S
C741 C737 1.495 1_565 S
C741 H747 0.959 1_554 S
C741 H748 0.961 1_554 S
C741 H749 0.960 1_564 S
C742 C740 1.381 . S
C742 C743 1.394 1_554 S
C742 H750 0.930 . S
C743 C742 1.394 1_556 S
C743 C744 1.383 1_556 S
C743 H751 0.929 . S
C744 C743 1.383 1_554 S
C744 C745 1.377 . S
C745 H729 0.930 1_545 S
C745 C744 1.377 . S
C745 C746 1.394 . S
C746 H730 0.885 1_545 S
C746 C740 1.416 . S
C746 C745 1.394 . S
H747 C741 0.959 1_556 S
H748 C741 0.961 1_556 S
H749 C741 0.960 1_546 S
H750 C742 0.930 . S
H751 C743 0.929 . S
H752 C760 0.929 . S
H753 C762 0.930 . S
H754 C764 0.930 . S
H755 C767 0.929 . S
H756 C770 0.930 . S
H757 C772 0.960 . S
H758 C772 0.960 . S
H759 C772 0.960 . S
C760 H752 0.929 . S
C760 C761 1.377 . S
C760 C762 1.384 . S
C761 C760 1.377 . S
C761 C767 1.390 . S
C762 H753 0.930 . S
C762 C760 1.384 . S
C762 C763 1.372 . S
C763 C762 1.372 . S
C763 C764 1.400 . S
C763 C768 1.490 . S
C764 H754 0.930 . S
C764 C763 1.400 . S
C764 C767 1.386 . S
H765 C781 0.930 . S
H766 C782 0.931 . S
C767 H755 0.929 . S
C767 C761 1.390 . S
C767 C764 1.386 . S
C768 C763 1.490 . S
C768 C770 1.395 . S
C768 C771 1.403 . S
H769 C775 0.930 . S
C770 H756 0.930 . S
C770 C768 1.395 . S
C770 C773 1.403 . S
C771 C768 1.403 . S
C771 C772 1.524 . S
C771 C775 1.400 . S
C772 H757 0.960 . S
C772 H758 0.960 . S
C772 H759 0.960 . S
C772 C771 1.524 . S
C773 C770 1.403 . S
C773 C774 1.392 . S
C773 C777 1.495 . S
C774 C773 1.392 . S
C774 C775 1.385 . S
C774 C776 1.478 . S
C775 H769 0.930 . S
C775 C771 1.400 . S
C775 C774 1.385 . S
C776 C774 1.478 . S
C776 C778 1.381 . S
C776 C782 1.383 . S
C777 C773 1.495 . S
C777 H783 0.959 . S
C777 H784 0.961 . S
C777 H785 0.960 . S
C778 C776 1.381 . S
C778 C779 1.394 . S
C778 H786 0.930 . S
C779 C778 1.394 . S
C779 C780 1.383 . S
C779 H787 0.929 . S
C780 C779 1.383 . S
C780 C781 1.377 . S
C781 H765 0.930 . S
C781 C780 1.377 . S
C781 C782 1.379 . S
C782 H766 0.931 . S
C782 C776 1.383 . S
C782 C781 1.379 . S
H783 C777 0.959 . S
H784 C777 0.961 . S
H785 C777 0.960 . S
H786 C778 0.930 . S
H787 C779 0.929 . S
H788 C796 0.929 . S
H789 C798 0.930 . S
H790 C800 0.930 . S
H791 C803 0.929 . S
H792 C806 0.930 . S
H793 C808 0.960 . S
H794 C808 0.960 . S
H795 C808 0.960 . S
C796 H788 0.929 . S
C796 C797 1.377 . S
C796 C798 1.384 . S
C797 C796 1.377 . S
C797 C803 1.390 . S
C798 H789 0.930 . S
C798 C796 1.384 . S
C798 C799 1.372 . S
C799 C798 1.372 . S
C799 C800 1.400 . S
C799 C804 1.490 . S
C800 H790 0.930 . S
C800 C799 1.400 . S
C800 C803 1.386 . S
H801 C817 0.930 . S
H802 C818 0.931 . S
C803 H791 0.929 . S
C803 C797 1.390 . S
C803 C800 1.386 . S
C804 C799 1.490 . S
C804 C806 1.395 . S
C804 C807 1.403 . S
H805 C811 0.930 . S
C806 H792 0.930 . S
C806 C804 1.395 . S
C806 C809 1.403 . S
C807 C804 1.403 . S
C807 C808 1.524 . S
C807 C811 1.400 . S
C808 H793 0.960 . S
C808 H794 0.960 . S
C808 H795 0.960 . S
C808 C807 1.524 . S
C809 C806 1.403 . S
C809 C810 1.392 . S
C809 C813 1.495 . S
C810 C809 1.392 . S
C810 C811 1.385 . S
C810 C812 1.478 . S
C811 H805 0.930 . S
C811 C807 1.400 . S
C811 C810 1.385 . S
C812 C810 1.478 . S
C812 C814 1.381 1_554 S
C812 C818 1.383 . S
C813 C809 1.495 . S
C813 H819 0.959 . S
C813 H820 0.961 . S
C813 H821 0.965 . S
C814 C812 1.381 1_556 S
C814 C815 1.394 . S
C814 H822 0.930 . S
C815 C814 1.394 . S
C815 C816 1.383 . S
C815 H823 0.929 . S
C816 C815 1.383 . S
C816 C817 1.377 1_556 S
C817 H801 0.930 . S
C817 C816 1.377 1_554 S
C817 C818 1.379 . S
C818 H802 0.931 . S
C818 C812 1.383 . S
C818 C817 1.379 . S
H819 C813 0.959 . S
H820 C813 0.961 . S
H821 C813 0.965 . S
H822 C814 0.930 . S
H823 C815 0.929 . S
H824 C832 0.929 . S
H825 C834 0.930 . S
H826 C836 0.930 . S
H827 C839 0.929 1_556 S
H828 C842 0.930 . S
H829 C844 0.960 . S
H830 C844 0.960 . S
H831 C844 0.960 . S
C832 H824 0.929 . S
C832 C833 1.377 . S
C832 C834 1.384 . S
C833 C832 1.377 . S
C833 C839 1.390 . S
C834 H825 0.930 . S
C834 C832 1.384 . S
C834 C835 1.372 . S
C835 C834 1.372 . S
C835 C836 1.400 1_554 S
C835 C840 1.490 1_554 S
C836 H826 0.930 . S
C836 C835 1.400 1_556 S
C836 C839 1.386 1_556 S
H837 C853 0.930 . S
H838 C854 0.931 . S
C839 H827 0.929 1_554 S
C839 C833 1.390 . S
C839 C836 1.386 1_554 S
C840 C835 1.490 1_556 S
C840 C842 1.395 1_556 S
C840 C843 1.403 . S
H841 C847 0.930 . S
C842 H828 0.930 . S
C842 C840 1.395 1_554 S
C842 C845 1.403 1_554 S
C843 C840 1.403 . S
C843 C844 1.524 . S
C843 C847 1.400 . S
C844 H829 0.960 . S
C844 H830 0.960 . S
C844 H831 0.960 . S
C844 C843 1.524 . S
C845 C842 1.403 1_556 S
C845 C846 1.392 . S
C845 C849 1.495 1_455 S
C846 C845 1.392 . S
C846 C847 1.385 . S
C846 C848 1.478 . S
C847 H841 0.930 . S
C847 C843 1.400 . S
C847 C846 1.385 . S
C848 C846 1.478 . S
C848 C850 1.381 . S
C848 C854 1.383 . S
C849 C845 1.495 1_655 S
C849 H855 0.959 1_556 S
C849 H856 0.961 . S
C849 H857 0.963 1_556 S
C850 C848 1.381 . S
C850 C851 1.394 . S
C850 H858 0.930 . S
C851 C850 1.394 . S
C851 C852 1.383 . S
C851 H859 0.929 . S
C852 C851 1.383 . S
C852 C853 1.377 . S
C853 H837 0.930 . S
C853 C852 1.377 . S
C853 C854 1.379 . S
C854 H838 0.931 . S
C854 C848 1.383 . S
C854 C853 1.379 . S
H855 C849 0.959 1_554 S
H856 C849 0.961 . S
H857 C849 0.963 1_554 S
H858 C850 0.930 . S
H859 C851 0.929 . S
H860 C868 0.929 . S
H861 C870 0.930 . S
H862 C872 0.930 . S
H863 C875 0.929 . S
H864 C878 0.930 . S
H865 C880 0.960 . S
H866 C880 0.960 . S
H867 C880 0.960 1_565 S
C868 H860 0.929 . S
C868 C869 1.419 . S
C868 C870 1.384 . S
C869 C868 1.419 . S
C869 C875 1.353 1_544 S
C870 H861 0.930 . S
C870 C868 1.384 . S
C870 C871 1.372 1_554 S
C871 C870 1.372 1_556 S
C871 C872 1.400 1_545 S
C871 C876 1.490 . S
C872 H862 0.930 . S
C872 C871 1.400 1_565 S
C872 C875 1.386 . S
H873 C889 0.930 . S
H874 C890 0.931 . S
C875 H863 0.929 . S
C875 C869 1.353 1_566 S
C875 C872 1.386 . S
C876 C871 1.490 . S
C876 C878 1.395 1_556 S
C876 C879 1.403 . S
H877 C883 0.930 . S
C878 H864 0.930 . S
C878 C876 1.395 1_554 S
C878 C881 1.408 . S
C879 C876 1.403 . S
C879 C880 1.524 . S
C879 C883 1.400 . S
C880 H865 0.960 . S
C880 H866 0.960 . S
C880 H867 0.960 1_545 S
C880 C879 1.524 . S
C881 C878 1.408 . S
C881 C882 1.376 1_554 S
C881 C885 1.508 . S
C882 C881 1.376 1_556 S
C882 C883 1.385 . S
C882 C884 1.478 . S
C883 H877 0.930 . S
C883 C879 1.400 . S
C883 C882 1.385 . S
C884 C882 1.478 . S
C884 C886 1.381 . S
C884 C890 1.383 1_545 S
C885 C881 1.508 . S
C885 H891 0.959 . S
C885 H892 0.961 1_545 S
C885 H893 0.960 . S
C886 C884 1.381 . S
C886 C887 1.394 . S
C886 H894 0.930 . S
C887 C886 1.394 . S
C887 C888 1.383 . S
C887 H895 0.929 . S
C888 C887 1.383 . S
C888 C889 1.377 1_545 S
C889 H873 0.930 . S
C889 C888 1.377 1_565 S
C889 C890 1.379 . S
C890 H874 0.931 . S
C890 C884 1.383 1_565 S
C890 C889 1.379 . S
H891 C885 0.959 . S
H892 C885 0.961 1_565 S
H893 C885 0.960 . S
H894 C886 0.930 . S
H895 C887 0.929 . S
H896 C904 0.929 . S
H897 C906 0.930 . S
H898 C908 0.930 . S
H899 C911 0.929 . S
H900 C914 0.930 . S
H901 C916 0.960 . S
H902 C916 0.960 . S
H903 C916 0.960 . S
C904 H896 0.929 . S
C904 C905 1.377 . S
C904 C906 1.384 . S
C905 C904 1.377 . S
C905 C911 1.390 . S
C906 H897 0.930 . S
C906 C904 1.384 . S
C906 C907 1.372 . S
C907 C906 1.372 . S
C907 C908 1.400 . S
C907 C912 1.490 . S
C908 H898 0.930 . S
C908 C907 1.400 . S
C908 C911 1.386 . S
H909 C925 0.930 . S
H910 C926 0.931 . S
C911 H899 0.929 . S
C911 C905 1.390 . S
C911 C908 1.386 . S
C912 C907 1.490 . S
C912 C914 1.395 . S
C912 C915 1.403 . S
H913 C919 0.930 . S
C914 H900 0.930 . S
C914 C912 1.395 . S
C914 C917 1.403 . S
C915 C912 1.403 . S
C915 C916 1.524 . S
C915 C919 1.400 . S
C916 H901 0.960 . S
C916 H902 0.960 . S
C916 H903 0.960 . S
C916 C915 1.524 . S
C917 C914 1.403 . S
C917 C918 1.392 . S
C917 C921 1.495 . S
C918 C917 1.392 . S
C918 C919 1.385 . S
C918 C920 1.478 . S
C919 H913 0.930 . S
C919 C915 1.400 . S
C919 C918 1.385 . S
C920 C918 1.478 . S
C920 C922 1.381 . S
C920 C926 1.383 . S
C921 C917 1.495 . S
C921 H927 0.959 . S
C921 H928 0.961 . S
C921 H929 0.960 . S
C922 C920 1.381 . S
C922 C923 1.394 . S
C922 H930 0.930 . S
C923 C922 1.394 . S
C923 C924 1.383 . S
C923 H931 0.929 . S
C924 C923 1.383 . S
C924 C925 1.377 . S
C925 H909 0.930 . S
C925 C924 1.377 . S
C925 C926 1.379 . S
C926 H910 0.931 . S
C926 C920 1.383 . S
C926 C925 1.379 . S
H927 C921 0.959 . S
H928 C921 0.961 . S
H929 C921 0.960 . S
H930 C922 0.930 . S
H931 C923 0.929 . S
H932 C940 0.929 . S
H933 C942 0.930 . S
H934 C944 0.930 . S
H935 C947 0.929 . S
H936 C950 0.930 . S
H937 C952 0.960 . S
H938 C952 0.960 . S
H939 C952 0.960 . S
C940 H932 0.929 . S
C940 C941 1.377 1_556 S
C940 C942 1.384 . S
C941 C940 1.377 1_554 S
C941 C947 1.390 . S
C942 H933 0.930 . S
C942 C940 1.384 . S
C942 C943 1.372 . S
C943 C942 1.372 . S
C943 C944 1.400 1_556 S
C943 C948 1.490 . S
C944 H934 0.930 . S
C944 C943 1.400 1_554 S
C944 C947 1.386 . S
H945 C961 0.930 . S
H946 C962 0.931 . S
C947 H935 0.929 . S
C947 C941 1.390 . S
C947 C944 1.386 . S
C948 C943 1.490 . S
C948 C950 1.395 . S
C948 C951 1.403 . S
H949 C955 0.930 . S
C950 H936 0.930 . S
C950 C948 1.395 . S
C950 C953 1.403 . S
C951 C948 1.403 . S
C951 C952 1.524 . S
C951 C955 1.400 . S
C952 H937 0.960 . S
C952 H938 0.960 . S
C952 H939 0.960 . S
C952 C951 1.524 . S
C953 C950 1.403 . S
C953 C954 1.392 . S
C953 C957 1.495 . S
C954 C953 1.392 . S
C954 C955 1.385 . S
C954 C956 1.478 . S
C955 H949 0.930 . S
C955 C951 1.400 . S
C955 C954 1.385 . S
C956 C954 1.478 . S
C956 C958 1.381 . S
C956 C962 1.383 . S
C957 C953 1.495 . S
C957 H963 0.959 . S
C957 H964 0.961 . S
C957 H965 0.960 . S
C958 C956 1.381 . S
C958 C959 1.394 . S
C958 H966 0.930 . S
C959 C958 1.394 . S
C959 C960 1.383 . S
C959 H967 0.929 . S
C960 C959 1.383 . S
C960 C961 1.377 . S
C961 H945 0.930 . S
C961 C960 1.377 . S
C961 C962 1.379 . S
C962 H946 0.931 . S
C962 C956 1.383 . S
C962 C961 1.379 . S
H963 C957 0.959 . S
H964 C957 0.961 . S
H965 C957 0.960 . S
H966 C958 0.930 . S
H967 C959 0.929 . S
H968 C976 0.929 . S
H969 C978 0.930 . S
H970 C980 0.930 . S
H971 C983 0.929 . S
H972 C986 0.930 . S
H973 C988 0.960 . S
H974 C988 0.960 . S
H975 C988 0.960 . S
C976 H968 0.929 . S
C976 C977 1.377 . S
C976 C978 1.384 . S
C977 C976 1.377 . S
C977 C983 1.390 . S
C978 H969 0.930 . S
C978 C976 1.384 . S
C978 C979 1.372 . S
C979 C978 1.372 . S
C979 C980 1.400 . S
C979 C984 1.490 . S
C980 H970 0.930 . S
C980 C979 1.400 . S
C980 C983 1.386 . S
H981 C997 0.930 . S
H982 C998 0.931 . S
C983 H971 0.929 . S
C983 C977 1.390 . S
C983 C980 1.386 . S
C984 C979 1.490 . S
C984 C986 1.395 . S
C984 C987 1.446 . S
H985 C991 0.897 1_455 S
C986 H972 0.930 . S
C986 C984 1.395 . S
C986 C989 1.403 . S
C987 C984 1.446 . S
C987 C988 1.481 1_655 S
C987 C991 1.400 . S
C988 H973 0.960 . S
C988 H974 0.960 . S
C988 H975 0.960 . S
C988 C987 1.481 1_455 S
C989 C986 1.403 . S
C989 C990 1.392 . S
C989 C993 1.495 . S
C990 C989 1.392 . S
C990 C991 1.418 . S
C990 C992 1.478 . S
C991 H985 0.897 1_655 S
C991 C987 1.400 . S
C991 C990 1.418 . S
C992 C990 1.478 . S
C992 C994 1.381 . S
C992 C998 1.383 . S
C993 C989 1.495 . S
C993 H999 0.959 . S
C993 H1000 0.961 . S
C993 H1001 0.960 . S
C994 C992 1.381 . S
C994 C995 1.394 . S
C994 H1002 0.930 . S
C995 C994 1.394 . S
C995 C996 1.383 . S
C995 H1003 0.929 . S
C996 C995 1.383 . S
C996 C997 1.377 . S
C997 H981 0.930 . S
C997 C996 1.377 . S
C997 C998 1.379 . S
C998 H982 0.931 . S
C998 C992 1.383 . S
C998 C997 1.379 . S
H999 C993 0.959 . S
H1000 C993 0.961 . S
H1001 C993 0.960 . S
H1002 C994 0.930 . S
H1003 C995 0.929 . S
H1004 C1012 0.929 . S
H1005 C1014 0.930 . S
H1006 C1016 0.930 . S
H1007 C1019 0.929 . S
H1008 C1022 0.930 . S
H1009 C1024 0.960 . S
H1010 C1024 0.960 . S
H1011 C1024 0.960 . S
C1012 H1004 0.929 . S
C1012 C1013 1.378 . S
C1012 C1014 1.384 . S
C1013 C1012 1.378 . S
C1013 C1019 1.389 1_565 S
C1014 H1005 0.930 . S
C1014 C1012 1.384 . S
C1014 C1015 1.372 . S
C1015 C1014 1.372 . S
C1015 C1016 1.400 1_565 S
C1015 C1020 1.490 . S
C1016 H1006 0.930 . S
C1016 C1015 1.400 1_545 S
C1016 C1019 1.386 . S
H1017 C1033 0.930 . S
H1018 C1034 0.931 . S
C1019 H1007 0.929 . S
C1019 C1013 1.389 1_545 S
C1019 C1016 1.386 . S
C1020 C1015 1.490 . S
C1020 C1022 1.395 . S
C1020 C1023 1.403 1_565 S
H1021 C1027 0.930 . S
C1022 H1008 0.930 . S
C1022 C1020 1.395 . S
C1022 C1025 1.403 . S
C1023 C1020 1.403 1_545 S
C1023 C1024 1.524 . S
C1023 C1027 1.400 . S
C1024 H1009 0.960 . S
C1024 H1010 0.960 . S
C1024 H1011 0.960 . S
C1024 C1023 1.524 . S
C1025 C1022 1.403 . S
C1025 C1026 1.392 . S
C1025 C1029 1.495 . S
C1026 C1025 1.392 . S
C1026 C1027 1.385 1_565 S
C1026 C1028 1.478 . S
C1027 H1021 0.930 . S
C1027 C1023 1.400 . S
C1027 C1026 1.385 1_545 S
C1028 C1026 1.478 . S
C1028 C1030 1.381 . S
C1028 C1034 1.383 . S
C1029 C1025 1.495 . S
C1029 H1035 0.959 . S
C1029 H1036 0.961 . S
C1029 H1037 0.960 . S
C1030 C1028 1.381 . S
C1030 C1031 1.394 . S
C1030 H1038 0.930 . S
C1031 C1030 1.394 . S
C1031 C1032 1.383 . S
C1031 H1039 0.929 . S
C1032 C1031 1.383 . S
C1032 C1033 1.377 . S
C1033 H1017 0.930 . S
C1033 C1032 1.377 . S
C1033 C1034 1.379 . S
C1034 H1018 0.931 . S
C1034 C1028 1.383 . S
C1034 C1033 1.379 . S
H1035 C1029 0.959 . S
H1036 C1029 0.961 . S
H1037 C1029 0.960 . S
H1038 C1030 0.930 . S
H1039 C1031 0.929 . S
H1040 C1048 0.929 . S
H1041 C1050 0.930 . S
H1042 C1052 0.930 . S
H1043 C1055 0.929 . S
H1044 C1058 0.930 . S
H1045 C1060 0.960 . S
H1046 C1060 0.960 . S
H1047 C1060 0.960 . S
C1048 H1040 0.929 . S
C1048 C1049 1.377 . S
C1048 C1050 1.384 . S
C1049 C1048 1.377 . S
C1049 C1055 1.390 . S
C1050 H1041 0.930 . S
C1050 C1048 1.384 . S
C1050 C1051 1.372 . S
C1051 C1050 1.372 . S
C1051 C1052 1.400 . S
C1051 C1056 1.490 . S
C1052 H1042 0.930 . S
C1052 C1051 1.400 . S
C1052 C1055 1.386 . S
H1053 C1069 0.930 . S
H1054 C1070 0.931 . S
C1055 H1043 0.929 . S
C1055 C1049 1.390 . S
C1055 C1052 1.386 . S
C1056 C1051 1.490 . S
C1056 C1058 1.395 . S
C1056 C1059 1.403 . S
H1057 C1063 0.930 . S
C1058 H1044 0.930 . S
C1058 C1056 1.395 . S
C1058 C1061 1.403 . S
C1059 C1056 1.403 . S
C1059 C1060 1.524 . S
C1059 C1063 1.400 . S
C1060 H1045 0.960 . S
C1060 H1046 0.960 . S
C1060 H1047 0.960 . S
C1060 C1059 1.524 . S
C1061 C1058 1.403 . S
C1061 C1062 1.392 . S
C1061 C1065 1.495 . S
C1062 C1061 1.392 . S
C1062 C1063 1.385 . S
C1062 C1064 1.478 . S
C1063 H1057 0.930 . S
C1063 C1059 1.400 . S
C1063 C1062 1.385 . S
C1064 C1062 1.478 . S
C1064 C1066 1.381 . S
C1064 C1070 1.383 . S
C1065 C1061 1.495 . S
C1065 H1071 0.959 . S
C1065 H1072 0.961 . S
C1065 H1073 0.960 . S
C1066 C1064 1.381 . S
C1066 C1067 1.394 . S
C1066 H1074 0.930 . S
C1067 C1066 1.394 . S
C1067 C1068 1.383 . S
C1067 H1075 0.929 . S
C1068 C1067 1.383 . S
C1068 C1069 1.377 . S
C1069 H1053 0.930 . S
C1069 C1068 1.377 . S
C1069 C1070 1.379 . S
C1070 H1054 0.931 . S
C1070 C1064 1.383 . S
C1070 C1069 1.379 . S
H1071 C1065 0.959 . S
H1072 C1065 0.961 . S
H1073 C1065 0.960 . S
H1074 C1066 0.930 . S
H1075 C1067 0.929 . S
H1076 C1084 0.929 . S
H1077 C1086 0.930 . S
H1078 C1088 0.930 . S
H1079 C1091 0.929 . S
H1080 C1094 0.930 . S
H1081 C1096 0.960 . S
H1082 C1096 0.960 . S
H1083 C1096 0.960 . S
C1084 H1076 0.929 . S
C1084 C1085 1.377 . S
C1084 C1086 1.384 . S
C1085 C1084 1.377 . S
C1085 C1091 1.390 . S
C1086 H1077 0.930 . S
C1086 C1084 1.384 . S
C1086 C1087 1.372 . S
C1087 C1086 1.372 . S
C1087 C1088 1.400 . S
C1087 C1092 1.490 . S
C1088 H1078 0.930 . S
C1088 C1087 1.400 . S
C1088 C1091 1.386 . S
H1089 C1105 0.930 . S
H1090 C1106 0.931 . S
C1091 H1079 0.929 . S
C1091 C1085 1.390 . S
C1091 C1088 1.386 . S
C1092 C1087 1.490 . S
C1092 C1094 1.395 . S
C1092 C1095 1.403 . S
H1093 C1099 0.930 . S
C1094 H1080 0.930 . S
C1094 C1092 1.395 . S
C1094 C1097 1.403 . S
C1095 C1092 1.403 . S
C1095 C1096 1.524 . S
C1095 C1099 1.400 . S
C1096 H1081 0.960 . S
C1096 H1082 0.960 . S
C1096 H1083 0.960 . S
C1096 C1095 1.524 . S
C1097 C1094 1.403 . S
C1097 C1098 1.392 . S
C1097 C1101 1.495 . S
C1098 C1097 1.392 . S
C1098 C1099 1.385 . S
C1098 C1100 1.478 . S
C1099 H1093 0.930 . S
C1099 C1095 1.400 . S
C1099 C1098 1.385 . S
C1100 C1098 1.478 . S
C1100 C1102 1.381 . S
C1100 C1106 1.383 . S
C1101 C1097 1.495 . S
C1101 H1107 0.959 . S
C1101 H1108 0.961 . S
C1101 H1109 0.960 . S
C1102 C1100 1.381 . S
C1102 C1103 1.394 . S
C1102 H1110 0.930 . S
C1103 C1102 1.394 . S
C1103 C1104 1.383 . S
C1103 H1111 0.929 . S
C1104 C1103 1.383 . S
C1104 C1105 1.377 . S
C1105 H1089 0.930 . S
C1105 C1104 1.377 . S
C1105 C1106 1.379 . S
C1106 H1090 0.931 . S
C1106 C1100 1.383 . S
C1106 C1105 1.379 . S
H1107 C1101 0.959 . S
H1108 C1101 0.961 . S
H1109 C1101 0.960 . S
H1110 C1102 0.930 . S
H1111 C1103 0.929 . S
C257 C74 1.692 1_565 S
C276 C111 1.737 1_545 S
C312 C151 1.632 . S
C293 C85 1.645 . S
C348 C170 1.770 . S
C329 C52 1.722 . S
C384 C231 1.296 . S
C365 C63 1.294 . S
C420 C90 1.740 . S
C401 C30 1.683 . S
C437 C41 1.624 . S
C456 C130 1.625 . S
C473 C8 1.710 . S
C492 C191 1.775 . S
C509 C19 1.268 . S
C528 C210 1.322 . S
C564 C92 0.740 . S
C545 C62 0.704 . S
C600 C132 0.331 . S
C581 C73 0.281 . S
C636 C188 0.730 . S
C617 C84 0.697 . S
C653 C51 0.341 . S
C672 C212 0.295 . S
C689 C18 0.719 . S
C708 C113 0.749 . S
C744 C153 0.253 . S
C725 C29 0.334 1_565 S
C780 C199 0.653 . S
C761 C40 0.705 . S
C797 C7 0.389 . S
C816 C233 0.279 . S
C833 C60 1.267 . S
C852 C108 1.542 . S
C869 C71 1.741 . S
C888 C148 2.168 . S
C924 C172 1.439 . S
C905 C82 1.203 . S
C960 C228 2.174 . S
C941 C49 1.732 . S
C977 C16 1.176 . S
C996 C119 1.592 . S
C1032 C159 2.174 . S
C1013 C27 1.738 1_565 S
C1068 C193 1.418 . S
C1049 C38 1.223 . S
C1085 C5 1.757 . S
C1104 C239 2.169 . S
