# Generated by pormake.
# Topology ocu, (6,8)-cn, num edge types: 1
# Building blocks:
#     Node 0, Type 0, BuildingBlock: CUKXOW_clean_sbu_0, # of connection points: 6
#     Node 1, Type 0, BuildingBlock: CUKXOW_clean_sbu_0, # of connection points: 6
#     Node 2, Type 0, BuildingBlock: CUKXOW_clean_sbu_0, # of connection points: 6
#     Node 3, Type 0, BuildingBlock: CUKXOW_clean_sbu_0, # of connection points: 6
#     Node 4, Type 0, BuildingBlock: CUKXOW_clean_sbu_0, # of connection points: 6
#     Node 5, Type 0, BuildingBlock: CUKXOW_clean_sbu_0, # of connection points: 6
#     Node 6, Type 0, BuildingBlock: CUKXOW_clean_sbu_0, # of connection points: 6
#     Node 7, Type 0, BuildingBlock: CUKXOW_clean_sbu_0, # of connection points: 6
#     Node 8, Type 1, BuildingBlock: AJUNOK_clean_sbu_0, # of connection points: 8
#     Node 9, Type 1, BuildingBlock: AJUNOK_clean_sbu_0, # of connection points: 8
#     Node 10, Type 1, BuildingBlock: AJUNOK_clean_sbu_0, # of connection points: 8
#     Node 11, Type 1, BuildingBlock: AJUNOK_clean_sbu_0, # of connection points: 8
#     Node 12, Type 1, BuildingBlock: AJUNOK_clean_sbu_0, # of connection points: 8
#     Node 13, Type 1, BuildingBlock: AJUNOK_clean_sbu_0, # of connection points: 8
#     Edge 14, Type (0, 1), BuildingBlock: KIFKEQ_clean_linker_1, # of connection points: 2
#     Edge 15, Type (0, 1), BuildingBlock: KIFKEQ_clean_linker_1, # of connection points: 2
#     Edge 16, Type (0, 1), BuildingBlock: KIFKEQ_clean_linker_1, # of connection points: 2
#     Edge 17, Type (0, 1), BuildingBlock: KIFKEQ_clean_linker_1, # of connection points: 2
#     Edge 18, Type (0, 1), BuildingBlock: KIFKEQ_clean_linker_1, # of connection points: 2
#     Edge 19, Type (0, 1), BuildingBlock: KIFKEQ_clean_linker_1, # of connection points: 2
#     Edge 20, Type (0, 1), BuildingBlock: KIFKEQ_clean_linker_1, # of connection points: 2
#     Edge 21, Type (0, 1), BuildingBlock: KIFKEQ_clean_linker_1, # of connection points: 2
#     Edge 22, Type (0, 1), BuildingBlock: KIFKEQ_clean_linker_1, # of connection points: 2
#     Edge 23, Type (0, 1), BuildingBlock: KIFKEQ_clean_linker_1, # of connection points: 2
#     Edge 24, Type (0, 1), BuildingBlock: KIFKEQ_clean_linker_1, # of connection points: 2
#     Edge 25, Type (0, 1), BuildingBlock: KIFKEQ_clean_linker_1, # of connection points: 2
#     Edge 26, Type (0, 1), BuildingBlock: KIFKEQ_clean_linker_1, # of connection points: 2
#     Edge 27, Type (0, 1), BuildingBlock: KIFKEQ_clean_linker_1, # of connection points: 2
#     Edge 28, Type (0, 1), BuildingBlock: KIFKEQ_clean_linker_1, # of connection points: 2
#     Edge 29, Type (0, 1), BuildingBlock: KIFKEQ_clean_linker_1, # of connection points: 2
#     Edge 30, Type (0, 1), BuildingBlock: KIFKEQ_clean_linker_1, # of connection points: 2
#     Edge 31, Type (0, 1), BuildingBlock: KIFKEQ_clean_linker_1, # of connection points: 2
#     Edge 32, Type (0, 1), BuildingBlock: KIFKEQ_clean_linker_1, # of connection points: 2
#     Edge 33, Type (0, 1), BuildingBlock: KIFKEQ_clean_linker_1, # of connection points: 2
#     Edge 34, Type (0, 1), BuildingBlock: KIFKEQ_clean_linker_1, # of connection points: 2
#     Edge 35, Type (0, 1), BuildingBlock: KIFKEQ_clean_linker_1, # of connection points: 2
#     Edge 36, Type (0, 1), BuildingBlock: KIFKEQ_clean_linker_1, # of connection points: 2
#     Edge 37, Type (0, 1), BuildingBlock: KIFKEQ_clean_linker_1, # of connection points: 2
#     Edge 38, Type (0, 1), BuildingBlock: KIFKEQ_clean_linker_1, # of connection points: 2
#     Edge 39, Type (0, 1), BuildingBlock: KIFKEQ_clean_linker_1, # of connection points: 2
#     Edge 40, Type (0, 1), BuildingBlock: KIFKEQ_clean_linker_1, # of connection points: 2
#     Edge 41, Type (0, 1), BuildingBlock: KIFKEQ_clean_linker_1, # of connection points: 2
#     Edge 42, Type (0, 1), BuildingBlock: KIFKEQ_clean_linker_1, # of connection points: 2
#     Edge 43, Type (0, 1), BuildingBlock: KIFKEQ_clean_linker_1, # of connection points: 2
#     Edge 44, Type (0, 1), BuildingBlock: KIFKEQ_clean_linker_1, # of connection points: 2
#     Edge 45, Type (0, 1), BuildingBlock: KIFKEQ_clean_linker_1, # of connection points: 2
#     Edge 46, Type (0, 1), BuildingBlock: KIFKEQ_clean_linker_1, # of connection points: 2
#     Edge 47, Type (0, 1), BuildingBlock: KIFKEQ_clean_linker_1, # of connection points: 2
#     Edge 48, Type (0, 1), BuildingBlock: KIFKEQ_clean_linker_1, # of connection points: 2
#     Edge 49, Type (0, 1), BuildingBlock: KIFKEQ_clean_linker_1, # of connection points: 2
#     Edge 50, Type (0, 1), BuildingBlock: KIFKEQ_clean_linker_1, # of connection points: 2
#     Edge 51, Type (0, 1), BuildingBlock: KIFKEQ_clean_linker_1, # of connection points: 2
#     Edge 52, Type (0, 1), BuildingBlock: KIFKEQ_clean_linker_1, # of connection points: 2
#     Edge 53, Type (0, 1), BuildingBlock: KIFKEQ_clean_linker_1, # of connection points: 2
#     Edge 54, Type (0, 1), BuildingBlock: KIFKEQ_clean_linker_1, # of connection points: 2
#     Edge 55, Type (0, 1), BuildingBlock: KIFKEQ_clean_linker_1, # of connection points: 2
#     Edge 56, Type (0, 1), BuildingBlock: KIFKEQ_clean_linker_1, # of connection points: 2
#     Edge 57, Type (0, 1), BuildingBlock: KIFKEQ_clean_linker_1, # of connection points: 2
#     Edge 58, Type (0, 1), BuildingBlock: KIFKEQ_clean_linker_1, # of connection points: 2
#     Edge 59, Type (0, 1), BuildingBlock: KIFKEQ_clean_linker_1, # of connection points: 2
#     Edge 60, Type (0, 1), BuildingBlock: KIFKEQ_clean_linker_1, # of connection points: 2
#     Edge 61, Type (0, 1), BuildingBlock: KIFKEQ_clean_linker_1, # of connection points: 2
# Relax obj value: 0.139
# Max RMSD: 0.206
# Mean RMSD: 0.188
data_MOF--net-ocu--node1-CUKXOW_clean_sbu_0--node2-AJUNOK_clean_sbu_0--edge1-KIFKEQ_clean_linker_1
_symmetry_space_group_name_H-M    P1
_symmetry_Int_Tables_number       1
_symmetry_cell_setting            triclinic
loop_
_symmetry_equiv_pos_as_xyz
'x, y, z'
_cell_length_a     41.536196
_cell_length_b     43.740201
_cell_length_c     36.589621
_cell_angle_alpha  99.545366
_cell_angle_beta   99.779688
_cell_angle_gamma 98.12932
loop_
_atom_site_label
_atom_site_type_symbol
_atom_site_fract_x
_atom_site_fract_y
_atom_site_fract_z
_atom_type_partial_charge
Tb0 Tb 0.23949 0.21134 0.2096 0.0
C1 C 0.28806 0.2738 0.21226 0.0
Tb2 Tb 0.24581 0.26246 0.27571 0.0
O3 O 0.2147 0.23825 0.17202 0.0
O4 O 0.20783 0.24307 0.22772 0.0
O5 O 0.28134 0.24292 0.19934 0.0
C6 C 0.24375 0.31467 0.32423 0.0
O7 O 0.27529 0.2869 0.24078 0.0
C8 C 0.28273 0.2197 0.28773 0.0
C9 C 0.198 0.19931 0.27344 0.0
O10 O 0.26158 0.29357 0.33129 0.0
O11 O 0.22737 0.3066 0.28966 0.0
O12 O 0.26974 0.23503 0.31321 0.0
O13 O 0.27732 0.23063 0.25775 0.0
O14 O 0.20507 0.2301 0.28729 0.0
O15 O 0.20992 0.18666 0.24402 0.0
C16 C 0.24166 0.1591 0.16116 0.0
O17 O 0.22691 0.18193 0.15291 0.0
O18 O 0.25491 0.16548 0.19687 0.0
C19 C 0.20195 0.25372 0.1976 0.0
Tb20 Tb 0.73443 0.22139 0.26738 0.0
C21 C 0.70816 0.17563 0.18792 0.0
Tb22 Tb 0.76215 0.235 0.19457 0.0
O23 O 0.68688 0.23347 0.24369 0.0
O24 O 0.73033 0.25347 0.22937 0.0
O25 O 0.71407 0.17901 0.2253 0.0
C26 C 0.7747 0.26099 0.13637 0.0
O27 O 0.72122 0.19654 0.16962 0.0
C28 C 0.79353 0.19565 0.22939 0.0
C29 C 0.79367 0.27744 0.27557 0.0
O30 O 0.74628 0.25766 0.14693 0.0
O31 O 0.7957 0.24948 0.15835 0.0
O32 O 0.79916 0.20292 0.19772 0.0
O33 O 0.77089 0.21 0.2377 0.0
O34 O 0.78927 0.27433 0.23818 0.0
O35 O 0.77664 0.25857 0.29337 0.0
C36 C 0.72152 0.19842 0.32758 0.0
O37 O 0.7354 0.18512 0.3015 0.0
O38 O 0.71536 0.22541 0.32027 0.0
C39 C 0.69914 0.25095 0.22218 0.0
Tb40 Tb 0.73402 0.75736 0.21706 0.0
C41 C 0.69944 0.68636 0.19559 0.0
Tb42 Tb 0.7439 0.71254 0.27615 0.0
O43 O 0.76127 0.732 0.17982 0.0
O44 O 0.77072 0.73102 0.23734 0.0
O45 O 0.69776 0.71542 0.19034 0.0
C46 C 0.76691 0.67389 0.31895 0.0
O47 O 0.71792 0.67964 0.22547 0.0
C48 C 0.69343 0.74349 0.28267 0.0
C49 C 0.77908 0.78305 0.29733 0.0
O50 O 0.75816 0.66713 0.28231 0.0
O51 O 0.76281 0.70233 0.3313 0.0
O52 O 0.70172 0.72358 0.30374 0.0
O53 O 0.71208 0.74228 0.25925 0.0
O54 O 0.78151 0.75374 0.30105 0.0
O55 O 0.75928 0.79014 0.26859 0.0
C56 C 0.71005 0.79631 0.17567 0.0
O57 O 0.74154 0.79719 0.18816 0.0
O58 O 0.69258 0.77432 0.1874 0.0
C59 C 0.7762 0.71883 0.20557 0.0
Tb60 Tb 0.26174 0.74664 0.21742 0.0
C61 C 0.30442 0.76508 0.29823 0.0
Tb62 Tb 0.23974 0.71292 0.27531 0.0
O63 O 0.25345 0.79132 0.24787 0.0
O64 O 0.22337 0.74928 0.24928 0.0
O65 O 0.30509 0.76391 0.26198 0.0
C66 C 0.22005 0.69598 0.33574 0.0
O67 O 0.27933 0.74974 0.30964 0.0
C68 C 0.27147 0.68097 0.22992 0.0
C69 C 0.19638 0.69545 0.19487 0.0
O70 O 0.24481 0.68742 0.32189 0.0
O71 O 0.2061 0.71384 0.31531 0.0
O72 O 0.24791 0.66821 0.24465 0.0
O73 O 0.27799 0.71018 0.24327 0.0
O74 O 0.19602 0.6966 0.23116 0.0
O75 O 0.22178 0.71002 0.18322 0.0
C76 C 0.28029 0.7637 0.15653 0.0
O77 O 0.2551 0.77126 0.17024 0.0
O78 O 0.29541 0.7468 0.17742 0.0
C79 C 0.2298 0.77853 0.26243 0.0
Tb80 Tb 0.23214 0.72033 0.76959 0.0
C81 C 0.20775 0.67597 0.69091 0.0
Tb82 Tb 0.26409 0.73526 0.70514 0.0
O83 O 0.18477 0.72987 0.74147 0.0
O84 O 0.22926 0.75435 0.73416 0.0
O85 O 0.21114 0.67795 0.72792 0.0
C86 C 0.28032 0.75315 0.64324 0.0
O87 O 0.22357 0.69746 0.67558 0.0
C88 C 0.29796 0.70571 0.75156 0.0
C89 C 0.28745 0.78064 0.78307 0.0
O90 O 0.29263 0.73223 0.65991 0.0
O91 O 0.25851 0.76358 0.66117 0.0
O92 O 0.31141 0.72584 0.73379 0.0
O93 O 0.2669 0.70122 0.74057 0.0
O94 O 0.28387 0.77805 0.74601 0.0
O95 O 0.27234 0.75895 0.79882 0.0
C96 C 0.21607 0.70313 0.8319 0.0
O97 O 0.20558 0.72545 0.81647 0.0
O98 O 0.23595 0.69075 0.81245 0.0
C99 C 0.19814 0.74993 0.72355 0.0
Tb100 Tb 0.23922 0.25656 0.71298 0.0
C101 C 0.19553 0.18845 0.69602 0.0
Tb102 Tb 0.24005 0.21378 0.77622 0.0
O103 O 0.28245 0.24231 0.6911 0.0
O104 O 0.26635 0.22383 0.7338 0.0
O105 O 0.19867 0.21732 0.68851 0.0
C106 C 0.25649 0.17676 0.82444 0.0
O107 O 0.21157 0.18105 0.72699 0.0
C108 C 0.19258 0.24905 0.77681 0.0
C109 C 0.28213 0.28204 0.79387 0.0
O110 O 0.24897 0.16789 0.78786 0.0
O111 O 0.25506 0.20638 0.83364 0.0
O112 O 0.19739 0.22892 0.79871 0.0
O113 O 0.21307 0.24648 0.7553 0.0
O114 O 0.28091 0.25279 0.79981 0.0
O115 O 0.26505 0.28951 0.76356 0.0
C116 C 0.22249 0.29367 0.66494 0.0
O117 O 0.23258 0.30298 0.70124 0.0
O118 O 0.22157 0.26359 0.65594 0.0
C119 C 0.28713 0.22181 0.71254 0.0
Tb120 Tb 0.76221 0.24347 0.72049 0.0
C121 C 0.80448 0.2655 0.80418 0.0
Tb122 Tb 0.74207 0.21317 0.78179 0.0
O123 O 0.72071 0.26926 0.71816 0.0
O124 O 0.74207 0.25862 0.76896 0.0
O125 O 0.80374 0.26416 0.76752 0.0
C126 C 0.70779 0.19584 0.83222 0.0
O127 O 0.78003 0.25041 0.81676 0.0
C128 C 0.78652 0.18762 0.74937 0.0
C129 C 0.70083 0.19003 0.69775 0.0
O130 O 0.73485 0.18621 0.82598 0.0
O131 O 0.69983 0.21464 0.8097 0.0
O132 O 0.78436 0.18811 0.78445 0.0
O133 O 0.76232 0.19827 0.73356 0.0
O134 O 0.701 0.19173 0.73435 0.0
O135 O 0.72554 0.20512 0.68559 0.0
C136 C 0.79456 0.26314 0.66967 0.0
O137 O 0.76532 0.26826 0.67382 0.0
O138 O 0.80583 0.24727 0.69443 0.0
C139 C 0.71822 0.26975 0.75307 0.0
Tb140 Tb 0.74015 0.70557 0.7033 0.0
C141 C 0.78168 0.77427 0.70565 0.0
Tb142 Tb 0.74382 0.76295 0.7728 0.0
O143 O 0.69896 0.71835 0.66471 0.0
O144 O 0.71798 0.74455 0.71744 0.0
O145 O 0.77545 0.74338 0.69141 0.0
C146 C 0.7213 0.80757 0.81459 0.0
O147 O 0.76986 0.78722 0.73526 0.0
C148 C 0.78713 0.72529 0.78841 0.0
C149 C 0.70409 0.69377 0.77179 0.0
O150 O 0.75255 0.80723 0.81418 0.0
O151 O 0.70317 0.78319 0.79126 0.0
O152 O 0.78468 0.75045 0.81177 0.0
O153 O 0.76636 0.7241 0.75866 0.0
O154 O 0.71022 0.72462 0.78628 0.0
O155 O 0.71508 0.68105 0.74143 0.0
C156 C 0.76017 0.66094 0.65848 0.0
O157 O 0.72955 0.66104 0.66215 0.0
O158 O 0.77924 0.68541 0.68066 0.0
C159 C 0.69685 0.74354 0.68814 0.0
Cd160 Cd 0.9737 0.95709 0.54953 0.0
Cd161 Cd 0.02183 0.00474 0.43163 0.0
C162 C 0.03403 0.93799 0.6051 0.0
N163 N 0.01632 0.92921 0.56906 0.0
C164 C 0.04278 0.88408 0.55894 0.0
C165 C 0.06087 0.89202 0.59645 0.0
C166 C 0.05653 0.91976 0.61937 0.0
C167 C 0.02052 0.90301 0.54584 0.0
H168 H 0.02986 0.95864 0.62323 0.0
H169 H 0.00589 0.89631 0.51741 0.0
C170 C 0.95668 0.95255 0.44577 0.0
C171 C 0.95462 0.01404 0.37553 0.0
C172 C 0.93113 0.02995 0.35832 0.0
C173 C 0.93228 0.06229 0.37182 0.0
C174 C 0.95675 0.07721 0.40388 0.0
C175 C 0.97921 0.06016 0.42081 0.0
N176 N 0.97798 0.02921 0.40634 0.0
H177 H 0.95464 -0.01028 0.36359 0.0
H178 H -0.00146 0.07197 0.44472 0.0
C179 C 0.03362 0.93347 0.3934 0.0
N180 N 0.0494 0.96318 0.41025 0.0
C181 C 0.10178 0.94934 0.40138 0.0
C182 C 0.08635 0.91843 0.38364 0.0
C183 C 0.05168 0.91065 0.37998 0.0
C184 C 0.08287 0.97124 0.4146 0.0
H185 H 0.00699 0.92744 0.39003 0.0
H186 H 0.0949 -0.00498 0.42788 0.0
C187 C 0.03667 0.00998 0.53424 0.0
C188 C 0.92769 0.91575 0.5794 0.0
N189 N 0.95282 0.00116 0.57697 0.0
C190 C 0.96286 0.01228 0.61481 0.0
C191 C 0.94761 0.03508 0.63347 0.0
C192 C 0.92172 0.04673 0.61309 0.0
C193 C 0.91277 0.03564 0.57373 0.0
C194 C 0.92856 0.01263 0.55622 0.0
C195 C 0.0642 0.04999 0.40295 0.0
O196 O 0.96981 0.95917 0.48081 0.0
O197 O 0.97075 0.96518 0.42211 0.0
O198 O 0.02305 0.00192 0.49949 0.0
O199 O 0.02412 -0.00251 0.55905 0.0
O200 O 0.92481 0.91388 0.54372 0.0
O201 O 0.95127 0.93634 0.60007 0.0
O202 O 0.06453 0.05374 0.4385 0.0
O203 O 0.04526 0.02561 0.38234 0.0
H204 H 0.98198 0.0026 0.63077 0.0
H205 H 0.92064 0.00308 0.52627 0.0
H206 H 0.04549 0.86324 0.53996 0.0
H207 H 0.06939 0.92673 0.64857 0.0
H208 H 0.91261 0.01693 0.33428 0.0
H209 H 0.95952 0.10212 0.41515 0.0
H210 H 0.1282 0.95693 0.40432 0.0
H211 H 0.03854 0.88715 0.367 0.0
H212 H 0.9557 0.04316 0.66372 0.0
H213 H 0.89278 0.04365 0.55687 0.0
Cd214 Cd 0.4572 0.95769 0.02731 0.0
Cd215 Cd 0.51142 0.01903 0.96165 0.0
C216 C 0.52087 0.93659 0.07039 0.0
N217 N 0.5052 0.93643 0.03461 0.0
C218 C 0.54744 0.91361 0.00911 0.0
C219 C 0.56498 0.91492 0.04581 0.0
C220 C 0.55116 0.92634 0.0767 0.0
C221 C 0.51759 0.92497 0.00409 0.0
H222 H 0.50994 0.94497 0.09412 0.0
H223 H 0.50433 0.92462 0.97591 0.0
C224 C 0.45833 0.96168 0.93084 0.0
C225 C 0.44206 0.03611 0.92767 0.0
C226 C 0.41248 0.04765 0.92527 0.0
C227 C 0.40566 0.06579 0.95741 0.0
C228 C 0.42899 0.0721 0.99141 0.0
C229 C 0.45782 0.0589 -0.00707 0.0
N230 N 0.46363 0.04111 0.96131 0.0
H231 H 0.44789 0.02352 0.90237 0.0
H232 H 0.47556 0.06302 0.01922 0.0
C233 C 0.5451 0.96054 0.92978 0.0
N234 N 0.54961 -0.0154 0.95993 0.0
C235 C 0.6026 0.97271 0.98482 0.0
C236 C 0.59826 0.94777 0.95396 0.0
C237 C 0.56902 0.94156 0.92649 0.0
C238 C 0.57756 -0.00914 0.98742 0.0
H239 H 0.52345 0.95641 0.90755 0.0
H240 H 0.58077 0.01049 0.01077 0.0
C241 C 0.51207 0.01314 0.05788 0.0
C242 C 0.41231 0.90832 0.04078 0.0
N243 N 0.42067 -0.00709 0.02403 0.0
C244 C 0.42448 0.01807 0.05267 0.0
C245 C 0.39951 0.03605 0.05448 0.0
C246 C 0.3702 0.02768 0.02696 0.0
C247 C 0.36711 0.00205 -0.00277 0.0
C248 C 0.39302 -0.01506 -0.00382 0.0
C249 C 0.55168 0.07105 0.9468 0.0
O250 O 0.46654 0.96808 0.96645 0.0
O251 O 0.47393 0.97865 0.91237 0.0
O252 O 0.50198 0.00801 0.02248 0.0
O253 O 0.49625 -0.00324 0.07678 0.0
O254 O 0.42084 0.90659 0.00887 0.0
O255 O 0.4254 0.93249 0.0661 0.0
O256 O 0.55419 0.06576 0.98017 0.0
O257 O 0.53041 0.05215 0.92087 0.0
H258 H 0.44618 0.02343 0.07505 0.0
H259 H 0.39043 0.96432 0.97427 0.0
H260 H 0.55667 0.90406 0.98461 0.0
H261 H 0.5632 0.92661 0.10546 0.0
H262 H 0.39564 0.04341 0.89816 0.0
H263 H 0.42484 0.08676 0.01647 0.0
H264 H 0.62505 0.97814 0.00637 0.0
H265 H 0.56519 0.92275 0.90202 0.0
H266 H 0.40237 0.05539 0.07817 0.0
H267 H 0.34459 -0.00515 0.97583 0.0
Cd268 Cd 0.96817 0.46776 0.05544 0.0
Cd269 Cd 0.01623 0.51046 0.9376 0.0
C270 C 0.0393 0.4542 0.10101 0.0
N271 N 0.00742 0.4403 0.08517 0.0
C272 C 0.01814 0.39131 0.1017 0.0
C273 C 0.0513 0.40483 0.11815 0.0
C274 C 0.06172 0.43683 0.11763 0.0
C275 C -0.00334 0.40945 0.08529 0.0
H276 H 0.04742 0.47873 0.10064 0.0
H277 H 0.97132 0.39876 0.07226 0.0
C278 C 0.96127 0.45209 0.95297 0.0
C279 C 0.95563 0.5251 0.87522 0.0
C280 C 0.93274 0.54246 0.85945 0.0
C281 C 0.92757 0.57054 0.88101 0.0
C282 C 0.94554 0.57989 0.91849 0.0
C283 C 0.96805 0.56186 0.93308 0.0
N284 N 0.97289 0.53515 0.91138 0.0
H285 H 0.96013 0.50397 0.85831 0.0
H286 H 0.98247 0.56966 0.96153 0.0
C287 C 0.03003 0.45642 0.86988 0.0
N288 N 0.04123 0.4702 0.90696 0.0
C289 C 0.08378 0.43837 0.91154 0.0
C290 C 0.07275 0.42342 0.87334 0.0
C291 C 0.04547 0.43296 0.85247 0.0
C292 C 0.06767 0.46167 0.92776 0.0
H293 H 0.009 0.46356 0.85379 0.0
H294 H 0.07635 0.4731 0.95708 0.0
C295 C 0.02067 0.52875 0.03925 0.0
C296 C 0.90874 0.42606 0.05352 0.0
N297 N 0.94445 0.50949 0.08443 0.0
C298 C 0.95082 0.51925 0.12268 0.0
C299 C 0.93395 0.54164 0.13961 0.0
C300 C 0.91004 0.554 0.11701 0.0
C301 C 0.90474 0.54397 0.0775 0.0
C302 C 0.92217 0.52164 0.06182 0.0
C303 C 0.06548 0.56011 0.93207 0.0
O304 O 0.97123 0.46489 0.98766 0.0
O305 O 0.97345 0.46404 0.92776 0.0
O306 O 0.01321 0.51422 0.00512 0.0
O307 O 0.00797 0.51716 0.06438 0.0
O308 O 0.91858 0.4293 0.02307 0.0
O309 O 0.92636 0.44237 0.08423 0.0
O310 O 0.03968 0.54952 0.90645 0.0
O311 O 0.06894 0.54704 0.96079 0.0
H312 H 0.96839 0.50902 0.14016 0.0
H313 H 0.91738 0.51344 0.03151 0.0
H314 H 0.00897 0.36669 0.10071 0.0
H315 H 0.08691 0.44845 0.13017 0.0
H316 H 0.91936 0.534 0.83062 0.0
H317 H 0.9431 0.60154 0.93617 0.0
H318 H 0.10496 0.43239 0.92879 0.0
H319 H 0.03572 0.42203 0.82313 0.0
H320 H 0.93879 0.54837 0.17013 0.0
H321 H 0.88708 0.55313 0.05876 0.0
Cd322 Cd 0.47232 0.45567 0.04668 0.0
Cd323 Cd 0.52524 0.50504 0.93507 0.0
C324 C 0.52808 0.43546 0.10623 0.0
N325 N 0.51581 0.42937 0.06836 0.0
C326 C 0.54859 0.38875 0.05926 0.0
C327 C 0.56071 0.3937 0.09851 0.0
C328 C 0.55057 0.4179 0.12192 0.0
C329 C 0.5259 0.40681 0.04474 0.0
H330 H 0.51959 0.45341 0.12447 0.0
H331 H 0.5155 0.40211 0.01477 0.0
C332 C 0.45892 0.45302 0.94334 0.0
C333 C 0.4663 0.52253 0.87502 0.0
C334 C 0.44339 0.53997 0.85972 0.0
C335 C 0.43619 0.56633 0.88262 0.0
C336 C 0.45179 0.57363 0.92108 0.0
C337 C 0.47445 0.55548 0.93524 0.0
N338 N 0.48153 0.53066 0.9121 0.0
H339 H 0.47272 0.50304 0.857 0.0
H340 H 0.48715 0.56174 0.96452 0.0
C341 C 0.5365 0.43283 0.89911 0.0
N342 N 0.55259 0.46272 0.91478 0.0
C343 C 0.60406 0.44876 0.90231 0.0
C344 C 0.58805 0.41799 0.88509 0.0
C345 C 0.5539 0.40995 0.88433 0.0
C346 C 0.5859 0.47067 0.91725 0.0
H347 H 0.51005 0.4268 0.89712 0.0
H348 H 0.59828 0.49446 0.92995 0.0
C349 C 0.53789 0.5084 0.03843 0.0
C350 C 0.42799 0.41422 0.07857 0.0
N351 N 0.44803 0.49923 0.06887 0.0
C352 C 0.45756 0.51405 0.10572 0.0
C353 C 0.44045 0.53692 0.12096 0.0
C354 C 0.41309 0.54468 0.09815 0.0
C355 C 0.4046 0.52963 0.0598 0.0
C356 C 0.42237 0.50687 0.04576 0.0
C357 C 0.56888 0.54836 0.90484 0.0
O358 O 0.4713 0.45936 0.97859 0.0
O359 O 0.47355 0.46619 0.92045 0.0
O360 O 0.52585 0.50156 0.0031 0.0
O361 O 0.52326 0.49532 0.06138 0.0
O362 O 0.42709 0.40929 0.04295 0.0
O363 O 0.44854 0.43799 0.09812 0.0
O364 O 0.56604 0.55469 0.93941 0.0
O365 O 0.55212 0.52245 0.88536 0.0
H366 H 0.47773 0.50727 0.12371 0.0
H367 H 0.41504 0.49457 0.01664 0.0
H368 H 0.55544 0.37023 0.04012 0.0
H369 H 0.55954 0.42293 0.15223 0.0
H370 H 0.43246 0.53358 0.82986 0.0
H371 H 0.44683 0.59343 0.94002 0.0
H372 H 0.6304 0.45591 0.90392 0.0
H373 H 0.54053 0.38655 0.87114 0.0
H374 H 0.44778 0.5474 0.15073 0.0
H375 H 0.3841 0.53504 0.04087 0.0
Cd376 Cd 0.96487 0.45423 0.52212 0.0
Cd377 Cd 0.03032 0.50802 0.45838 0.0
C378 C 0.03507 0.43991 0.55876 0.0
N379 N 0.01222 0.43108 0.52596 0.0
C380 C 0.04461 0.39477 0.50088 0.0
C381 C 0.06929 0.40478 0.53374 0.0
C382 C 0.06417 0.42751 0.56297 0.0
C383 C 0.01621 0.40862 0.49737 0.0
H384 H 0.03067 0.4563 0.58207 0.0
H385 H -0.00259 0.40132 0.47191 0.0
C386 C 0.97565 0.45095 0.42494 0.0
C387 C 0.96288 0.52464 0.41418 0.0
C388 C 0.93442 0.53799 0.40891 0.0
C389 C 0.92905 0.56082 0.43792 0.0
C390 C 0.95303 0.57027 0.47144 0.0
C391 C 0.98087 0.55572 0.47584 0.0
N392 N 0.9849 0.53297 0.44766 0.0
H393 H 0.96724 0.5077 0.39136 0.0
H394 H -0.00083 0.5623 0.50181 0.0
C395 C 0.06415 0.446 0.44961 0.0
N396 N 0.06883 0.47554 0.47056 0.0
C397 C 0.1256 0.47341 0.49424 0.0
C398 C 0.12178 0.44348 0.47149 0.0
C399 C 0.09036 0.42934 0.44996 0.0
C400 C 0.09854 0.48914 0.49333 0.0
H401 H 0.04068 0.4359 0.431 0.0
H402 H 0.10186 0.51308 0.50868 0.0
C403 C 0.01778 0.51098 0.55147 0.0
C404 C 0.92707 0.40562 0.5464 0.0
N405 N 0.92476 0.48544 0.50959 0.0
C406 C 0.93208 0.51678 0.52431 0.0
C407 C 0.90711 0.5349 0.52349 0.0
C408 C 0.87414 0.52064 0.50769 0.0
C409 C 0.86742 0.48854 0.49092 0.0
C410 C 0.89335 0.47126 0.49209 0.0
C411 C 0.07764 0.55609 0.44672 0.0
O412 O 0.97939 0.45867 0.46054 0.0
O413 O -0.00428 0.46594 0.40881 0.0
O414 O 0.01206 0.5011 0.5162 0.0
O415 O -0.00106 0.49805 0.57047 0.0
O416 O 0.925 0.40568 0.51139 0.0
O417 O 0.94603 0.42852 0.56958 0.0
O418 O 0.06856 0.55804 0.47841 0.0
O419 O 0.06381 0.53247 0.42086 0.0
H420 H 0.95696 0.52764 0.53843 0.0
H421 H 0.88814 0.44621 0.48084 0.0
H422 H 0.04748 0.37685 0.47799 0.0
H423 H 0.08197 0.43486 0.58943 0.0
H424 H 0.91713 0.531 0.38205 0.0
H425 H 0.94993 0.58817 0.49423 0.0
H426 H 0.14962 0.48515 0.51082 0.0
H427 H 0.08663 0.40653 0.43148 0.0
H428 H 0.91334 0.55943 0.53742 0.0
H429 H 0.84226 0.47669 0.47858 0.0
Cd430 Cd 0.4685 0.96474 0.55039 0.0
Cd431 Cd 0.51603 0.00737 0.43352 0.0
C432 C 0.53199 0.94822 0.60792 0.0
N433 N 0.51068 0.93742 0.57407 0.0
C434 C 0.53135 0.88869 0.5672 0.0
C435 C 0.55309 0.89872 0.60252 0.0
C436 C 0.55365 0.92927 0.6226 0.0
C437 C 0.51038 0.90842 0.55352 0.0
H438 H 0.53154 0.97118 0.62408 0.0
H439 H 0.49306 0.90021 0.52685 0.0
C440 C 0.46095 0.94909 0.449 0.0
C441 C 0.44492 0.01949 0.38547 0.0
C442 C 0.42255 0.03672 0.36849 0.0
C443 C 0.43172 0.06946 0.37171 0.0
C444 C 0.46338 0.08396 0.39256 0.0
C445 C 0.48479 0.06594 0.40928 0.0
N446 N 0.47542 0.03429 0.40544 0.0
H447 H 0.43795 -0.00571 0.3824 0.0
H448 H 0.50909 0.07727 0.4253 0.0
C449 C 0.52351 0.94352 0.3753 0.0
N450 N 0.53995 0.96455 0.40699 0.0
C451 C 0.5871 0.93839 0.40861 0.0
C452 C 0.57067 0.91616 0.37609 0.0
C453 C 0.5383 0.9189 0.35959 0.0
C454 C 0.57119 0.96234 0.42371 0.0
H455 H 0.49892 0.94592 0.36198 0.0
H456 H 0.58392 0.97942 0.44869 0.0
C457 C 0.52985 0.01847 0.53706 0.0
C458 C 0.42154 0.91327 0.55571 0.0
N459 N 0.44316 0.00505 0.58055 0.0
C460 C 0.45377 0.01831 0.61787 0.0
C461 C 0.43794 0.0414 0.63537 0.0
C462 C 0.41087 0.05113 0.61436 0.0
C463 C 0.40052 0.03681 0.57586 0.0
C464 C 0.41699 0.01384 0.55956 0.0
C465 C 0.57135 0.05009 0.42523 0.0
O466 O 0.4692 0.96403 0.48293 0.0
O467 O 0.47307 0.96028 0.42331 0.0
O468 O 0.51751 0.0089 0.50208 0.0
O469 O 0.51674 0.00641 0.56162 0.0
O470 O 0.41983 0.92352 0.52494 0.0
O471 O 0.44417 0.92781 0.58357 0.0
O472 O 0.56416 0.05002 0.45771 0.0
O473 O 0.55306 0.03027 0.39753 0.0
H474 H 0.47454 0.01093 0.63413 0.0
H475 H 0.40873 0.0028 0.53006 0.0
H476 H 0.53029 0.86562 0.55034 0.0
H477 H 0.56974 0.938 0.65002 0.0
H478 H 0.39853 0.02442 0.35249 0.0
H479 H 0.47144 0.10914 0.39642 0.0
H480 H 0.61193 0.93711 0.42251 0.0
H481 H 0.5248 0.90258 0.33429 0.0
H482 H 0.44717 0.05184 0.66494 0.0
H483 H 0.37953 0.04296 0.55846 0.0
H484 H 0.16902 0.21531 0.33495 0.0
H485 H 0.18059 0.13486 0.25547 0.0
H486 H 0.1374 0.18031 0.36689 0.0
H487 H 0.14986 0.09999 0.28776 0.0
H488 H 0.06543 0.04642 0.32808 0.0
H489 H 0.09636 0.08261 0.29774 0.0
H490 H 0.14009 0.14155 0.40671 0.0
H491 H 0.10812 0.10526 0.43726 0.0
C492 C 0.16479 0.19019 0.32413 0.0
C493 C 0.17727 0.17813 0.29222 0.0
C494 C 0.14685 0.17 0.34278 0.0
C495 C 0.14077 0.13706 0.33012 0.0
C496 C 0.15332 0.12511 0.29819 0.0
C497 C 0.17118 0.14525 0.27959 0.0
C498 C 0.08165 0.06703 0.34579 0.0
C499 C 0.08422 0.07268 0.38532 0.0
C500 C 0.0997 0.08785 0.32826 0.0
C501 C 0.12117 0.11517 0.34951 0.0
C502 C 0.12367 0.121 0.38916 0.0
C503 C 0.10548 0.10004 0.4068 0.0
H504 H 0.79488 0.18853 0.30291 0.0
H505 H 0.83476 0.15781 0.20465 0.0
H506 H 0.82448 0.15415 0.33691 0.0
H507 H 0.8671 0.12596 0.23924 0.0
H508 H 0.90395 0.05163 0.29582 0.0
H509 H 0.86781 0.08119 0.26303 0.0
H510 H 0.87479 0.14664 0.36767 0.0
H511 H 0.90809 0.115 0.40132 0.0
C512 C 0.8094 0.17388 0.28834 0.0
C513 C 0.81132 0.1749 0.25064 0.0
C514 C 0.82725 0.15471 0.30814 0.0
C515 C 0.84831 0.13672 0.29102 0.0
C516 C 0.85058 0.13845 0.25338 0.0
C517 C 0.83221 0.15707 0.23348 0.0
C518 C 0.89721 0.07178 0.3123 0.0
C519 C 0.90932 0.08057 0.35162 0.0
C520 C 0.87683 0.08934 0.29311 0.0
C521 C 0.86842 0.11687 0.31226 0.0
C522 C 0.8802 0.12553 0.35165 0.0
C523 C 0.90003 0.10754 0.37102 0.0
H524 H 0.77109 0.84435 0.31196 0.0
H525 H 0.83386 0.77966 0.34804 0.0
H526 H 0.80811 0.88768 0.35687 0.0
H527 H 0.87134 0.82294 0.39176 0.0
H528 H 0.93211 0.90315 0.47529 0.0
H529 H 0.88219 0.86383 0.44737 0.0
H530 H 0.86249 0.91324 0.35509 0.0
H531 H 0.91084 0.95299 0.3841 0.0
C532 C 0.79277 0.83942 0.3295 0.0
C533 C 0.80005 0.80883 0.32601 0.0
C534 C 0.81385 0.86415 0.35528 0.0
C535 C 0.84275 0.85874 0.37758 0.0
C536 C 0.84904 0.82784 0.37538 0.0
C537 C 0.82777 0.80308 0.34996 0.0
C538 C 0.91623 0.90606 0.44989 0.0
C539 C 0.92509 0.93091 0.43183 0.0
C540 C 0.888 0.88346 0.43364 0.0
C541 C 0.86853 0.88538 0.39894 0.0
C542 C 0.87662 0.91127 0.38208 0.0
C543 C 0.90462 0.93382 0.3984 0.0
H544 H 0.24461 0.84006 0.29704 0.0
H545 H 0.16746 0.75834 0.27468 0.0
H546 H 0.20945 0.87169 0.32823 0.0
H547 H 0.13194 0.79017 0.30578 0.0
H548 H 0.06835 0.87145 0.31964 0.0
H549 H 0.10233 0.83565 0.29326 0.0
H550 H 0.18414 0.87681 0.38587 0.0
H551 H 0.15008 0.91188 0.41303 0.0
C552 C 0.22015 0.82882 0.29901 0.0
C553 C 0.20878 0.79675 0.28335 0.0
C554 C 0.20004 0.84691 0.31704 0.0
C555 C 0.16782 0.83351 0.3195 0.0
C556 C 0.15652 0.80128 0.30412 0.0
C557 C 0.17691 0.78301 0.28652 0.0
C558 C 0.09334 0.87255 0.3349 0.0
C559 C 0.10636 0.895 0.36846 0.0
C560 C 0.11288 0.85199 0.31963 0.0
C561 C 0.14607 0.8535 0.33726 0.0
C562 C 0.15885 0.87535 0.37121 0.0
C563 C 0.13926 0.89562 0.38669 0.0
H564 H 0.13125 0.74262 0.70065 0.0
H565 H 0.22237 0.80253 0.69801 0.0
H566 H 0.09944 0.77653 0.66844 0.0
H567 H 0.1906 0.83621 0.66469 0.0
H568 H 0.12089 0.90855 0.64667 0.0
H569 H 0.15448 0.87402 0.67531 0.0
H570 H 0.08492 0.79283 0.60957 0.0
H571 H 0.05064 0.82729 0.58224 0.0
C572 C 0.14451 0.7629 0.69279 0.0
C573 C 0.17934 0.76983 0.70184 0.0
C574 C 0.12626 0.7823 0.67404 0.0
C575 C 0.14231 0.80924 0.66377 0.0
C576 C 0.17729 0.81592 0.67246 0.0
C577 C 0.19557 0.79644 0.69124 0.0
C578 C 0.11262 0.88334 0.63842 0.0
C579 C 0.08282 0.87088 0.61214 0.0
C580 C 0.13217 0.86346 0.65455 0.0
C581 C 0.1225 0.8305 0.64497 0.0
C582 C 0.09304 0.81805 0.61812 0.0
C583 C 0.07352 0.8379 0.602 0.0
H584 H 0.16483 0.13366 0.70896 0.0
H585 H 0.17786 0.18528 0.61997 0.0
H586 H 0.13156 0.0896 0.66278 0.0
H587 H 0.14538 0.14029 0.57304 0.0
H588 H 0.04682 0.06786 0.5167 0.0
H589 H 0.08947 0.11209 0.552 0.0
H590 H 0.13661 0.04887 0.61401 0.0
H591 H 0.09267 0.00543 0.58051 0.0
C592 C 0.16073 0.13543 0.67939 0.0
C593 C 0.17382 0.16278 0.66797 0.0
C594 C 0.14203 0.11003 0.65281 0.0
C595 C 0.13648 0.11118 0.61411 0.0
C596 C 0.14926 0.13874 0.60265 0.0
C597 C 0.16769 0.16446 0.62946 0.0
C598 C 0.06692 0.06353 0.5372 0.0
C599 C 0.06653 0.03378 0.54671 0.0
C600 C 0.09134 0.08873 0.55734 0.0
C601 C 0.11577 0.08407 0.5866 0.0
C602 C 0.11737 0.05335 0.5926 0.0
C603 C 0.09253 0.02847 0.57328 0.0
H604 H 0.83843 0.16223 0.78023 0.0
H605 H 0.78337 0.172 0.67297 0.0
H606 H 0.87244 0.13033 0.74762 0.0
H607 H 0.8165 0.13906 0.64002 0.0
H608 H 0.8996 0.09872 0.59124 0.0
H609 H 0.86871 0.13435 0.62389 0.0
H610 H 0.86987 0.07983 0.71224 0.0
H611 H 0.90121 0.04487 0.68007 0.0
C612 C 0.83356 0.15747 0.7496 0.0
C613 C 0.80809 0.16948 0.72921 0.0
C614 C 0.85291 0.13893 0.7308 0.0
C615 C 0.84717 0.13162 0.69097 0.0
C616 C 0.82203 0.1443 0.67062 0.0
C617 C 0.80283 0.16308 0.68951 0.0
C618 C 0.89322 0.09436 0.61764 0.0
C619 C 0.90316 0.06897 0.63308 0.0
C620 C 0.87537 0.11478 0.63638 0.0
C621 C 0.86672 0.11025 0.67098 0.0
C622 C 0.8766 0.08471 0.68621 0.0
C623 C 0.89461 0.06451 0.66765 0.0
H624 H 0.8028 0.83863 0.72553 0.0
H625 H 0.8078 0.75788 0.64229 0.0
H626 H 0.83628 0.87254 0.69429 0.0
H627 H 0.8416 0.79171 0.61144 0.0
H628 H 0.87714 0.86601 0.54415 0.0
H629 H 0.84126 0.83244 0.57381 0.0
H630 H 0.89182 0.88506 0.68399 0.0
H631 H 0.92712 0.91859 0.65448 0.0
C632 C 0.81106 0.828 0.70066 0.0
C633 C 0.80247 0.7953 0.68673 0.0
C634 C 0.83049 0.84752 0.68274 0.0
C635 C 0.8419 0.83506 0.65016 0.0
C636 C 0.83307 0.8024 0.63608 0.0
C637 C 0.81378 0.78287 0.65408 0.0
C638 C 0.88051 0.87045 0.57469 0.0
C639 C 0.90513 0.89512 0.59679 0.0
C640 C 0.86002 0.85105 0.5918 0.0
C641 C 0.8634 0.85589 0.6315 0.0
C642 C 0.88795 0.88073 0.65342 0.0
C643 C 0.90846 0.89993 0.63639 0.0
H644 H 0.23641 0.15669 0.08572 0.0
H645 H 0.26403 0.10574 0.17432 0.0
H646 H 0.25945 0.12101 0.04218 0.0
H647 H 0.286 0.06949 0.1304 0.0
H648 H 0.36865 0.09023 0.03359 0.0
H649 H 0.32677 0.11791 0.0568 0.0
H650 H 0.26809 0.02908 0.06005 0.0
H651 H 0.30942 0.00122 0.03504 0.0
C652 C 0.24636 0.13722 0.09545 0.0
C653 C 0.24873 0.13395 0.13332 0.0
C654 C 0.25949 0.11691 0.07059 0.0
C655 C 0.27427 0.09261 0.08306 0.0
C656 C 0.2743 0.08789 0.12011 0.0
C657 C 0.26192 0.10864 0.14522 0.0
C658 C 0.34611 0.07663 0.03765 0.0
C659 C 0.342 0.04371 0.03233 0.0
C660 C 0.32221 0.09239 0.05092 0.0
C661 C 0.29439 0.07548 0.06015 0.0
C662 C 0.28932 0.04247 0.05285 0.0
C663 C 0.31282 0.02663 0.03851 0.0
H664 H 0.82604 0.25791 0.10007 0.0
H665 H 0.74582 0.30883 0.11404 0.0
H666 H 0.85011 0.29758 0.06809 0.0
H667 H 0.77044 0.34914 0.08274 0.0
H668 H 0.88289 0.37098 0.0032 0.0
H669 H 0.84148 0.32812 0.01154 0.0
H670 H 0.82781 0.38602 0.11347 0.0
H671 H 0.86953 0.42834 0.10569 0.0
C672 C 0.81307 0.27714 0.09523 0.0
C673 C 0.78427 0.28053 0.10961 0.0
C674 C 0.82673 0.29974 0.07678 0.0
C675 C 0.81217 0.32643 0.07312 0.0
C676 C 0.78207 0.32871 0.08522 0.0
C677 C 0.76798 0.30567 0.10298 0.0
C678 C 0.87038 0.37475 0.02681 0.0
C679 C 0.87959 0.40275 0.05406 0.0
C680 C 0.84677 0.35027 0.03157 0.0
C681 C 0.83149 0.35384 0.06311 0.0
C682 C 0.83892 0.38278 0.08868 0.0
C683 C 0.86298 0.40689 0.0844 0.0
H684 H 0.73933 0.85038 0.15683 0.0
H685 H 0.64806 0.78333 0.13463 0.0
H686 H 0.71233 0.88156 0.11438 0.0
H687 H 0.6216 0.81372 0.09258 0.0
H688 H 0.57827 0.85999 0.00902 0.0
H689 H 0.62237 0.83232 0.03148 0.0
H690 H 0.66499 0.91238 0.12129 0.0
H691 H 0.62157 0.94052 0.09801 0.0
C692 C 0.71374 0.8422 0.14253 0.0
C693 C 0.69557 0.81478 0.14919 0.0
C694 C 0.69841 0.85985 0.11824 0.0
C695 C 0.66505 0.8498 0.09982 0.0
C696 C 0.64753 0.82173 0.10565 0.0
C697 C 0.66255 0.80454 0.1302 0.0
C698 C 0.59783 0.8722 0.03254 0.0
C699 C 0.59602 0.90201 0.0525 0.0
C700 C 0.62299 0.85631 0.04549 0.0
C701 C 0.64653 0.86995 0.07866 0.0
C702 C 0.6471 0.90126 0.09574 0.0
C703 C 0.622 0.9172 0.08272 0.0
H704 H 0.19161 0.67978 0.11832 0.0
H705 H 0.13705 0.66863 0.20737 0.0
H706 H 0.14611 0.64502 0.07241 0.0
H707 H 0.09214 0.63378 0.1618 0.0
H708 H 0.00777 0.5832 0.07503 0.0
H709 H 0.04841 0.63023 0.10646 0.0
H710 H 0.12537 0.58753 0.06277 0.0
H711 H 0.08449 0.54074 0.0313 0.0
C712 C 0.1698 0.67022 0.12804 0.0
C713 C 0.16802 0.67665 0.16653 0.0
C714 C 0.14384 0.65033 0.10175 0.0
C715 C 0.11561 0.63679 0.11352 0.0
C716 C 0.11335 0.64427 0.15175 0.0
C717 C 0.13928 0.66397 0.17798 0.0
C718 C 0.03323 0.5845 0.07129 0.0
C719 C 0.04323 0.55888 0.05055 0.0
C720 C 0.05643 0.61121 0.08931 0.0
C721 C 0.09006 0.61236 0.08734 0.0
C722 C 0.09956 0.58748 0.06436 0.0
C723 C 0.07625 0.56078 0.04623 0.0
H724 H 0.32305 0.82792 0.75962 0.0
H725 H 0.30092 0.79718 0.86053 0.0
H726 H 0.36125 0.87298 0.79798 0.0
H727 H 0.33893 0.84343 0.89932 0.0
H728 H 0.44437 0.90393 0.94737 0.0
H729 H 0.39873 0.86155 0.91456 0.0
H730 H 0.36421 0.92199 0.83951 0.0
H731 H 0.41042 0.96386 0.87195 0.0
C732 C 0.326 0.83096 0.79006 0.0
C733 C 0.30909 0.80885 0.80706 0.0
C734 C 0.34773 0.85706 0.81207 0.0
C735 C 0.35293 0.86183 0.85163 0.0
C736 C 0.33554 0.84013 0.86882 0.0
C737 C 0.31376 0.81377 0.84666 0.0
C738 C 0.42661 0.90808 0.92421 0.0
C739 C 0.43064 0.93674 0.91184 0.0
C740 C 0.40049 0.884 0.90555 0.0
C741 C 0.37801 0.88845 0.87439 0.0
C742 C 0.38153 0.91772 0.86302 0.0
C743 C 0.40788 0.94159 0.8814 0.0
H744 H 0.1956 0.30698 0.75478 0.0
H745 H 0.14196 0.24633 0.81403 0.0
H746 H 0.16564 0.34931 0.77548 0.0
H747 H 0.11181 0.28778 0.83396 0.0
H748 H 0.09736 0.3772 0.90602 0.0
H749 H 0.12477 0.33605 0.87895 0.0
H750 H 0.11232 0.3688 0.77328 0.0
H751 H 0.08573 0.41108 0.80103 0.0
C752 C 0.17687 0.30243 0.77137 0.0
C753 C 0.17122 0.27332 0.78281 0.0
C754 C 0.15972 0.3267 0.78339 0.0
C755 C 0.13664 0.32231 0.80713 0.0
C756 C 0.12995 0.29251 0.81666 0.0
C757 C 0.14705 0.26853 0.80486 0.0
C758 C 0.10068 0.376 0.87713 0.0
C759 C 0.08924 0.39776 0.85592 0.0
C760 C 0.1161 0.35198 0.86133 0.0
C761 C 0.12061 0.3487 0.82365 0.0
C762 C 0.10945 0.37056 0.80238 0.0
C763 C 0.09385 0.39466 0.81823 0.0
H764 H 0.64981 0.21318 0.84416 0.0
H765 H 0.72033 0.15474 0.8789 0.0
H766 H 0.61208 0.1901 0.8806 0.0
H767 H 0.6825 0.13153 0.91527 0.0
H768 H 0.61088 0.10359 0.98915 0.0
H769 H 0.65067 0.1413 0.96934 0.0
H770 H 0.58147 0.13388 0.86447 0.0
H771 H 0.54207 0.09634 0.88396 0.0
C772 C 0.65743 0.19578 0.86014 0.0
C773 C 0.68758 0.18523 0.85835 0.0
C774 C 0.63592 0.18268 0.88097 0.0
C775 C 0.64436 0.15896 0.90043 0.0
C776 C 0.67557 0.15 0.90075 0.0
C777 C 0.69704 0.16303 0.87973 0.0
C778 C 0.60404 0.11055 0.9622 0.0
C779 C 0.57366 0.09688 0.93781 0.0
C780 C 0.62676 0.13199 0.95091 0.0
C781 C 0.61905 0.14039 0.91545 0.0
C782 C 0.58786 0.12807 0.89215 0.0
C783 C 0.56544 0.10639 0.90315 0.0
H784 H 0.83167 0.73023 0.85299 0.0
H785 H 0.78919 0.66676 0.74692 0.0
H786 H 0.86384 0.6915 0.87305 0.0
H787 H 0.82189 0.62758 0.76699 0.0
H788 H 0.91562 0.58219 0.8083 0.0
H789 H 0.88092 0.6178 0.78345 0.0
H790 H 0.85275 0.64022 0.89165 0.0
H791 H 0.88672 0.60442 0.91628 0.0
C792 C 0.82936 0.70799 0.83377 0.0
C793 C 0.80797 0.70168 0.79824 0.0
C794 C 0.84767 0.68564 0.84542 0.0
C795 C 0.8453 0.6562 0.82187 0.0
C796 C 0.82446 0.65005 0.78581 0.0
C797 C 0.80579 0.6725 0.77421 0.0
C798 C 0.90161 0.59428 0.82667 0.0
C799 C 0.90447 0.59053 0.8646 0.0
C800 C 0.88172 0.61479 0.81236 0.0
C801 C 0.86433 0.63227 0.83564 0.0
C802 C 0.86635 0.62772 0.8731 0.0
C803 C 0.88598 0.60716 0.8873 0.0
H804 H 0.16251 0.28203 0.24208 0.0
H805 H 0.19431 0.27998 0.13555 0.0
H806 H 0.12743 0.32081 0.2266 0.0
H807 H 0.15941 0.31794 0.11995 0.0
H808 H 0.11686 0.40624 0.11354 0.0
H809 H 0.15431 0.37251 0.13684 0.0
H810 H 0.07667 0.32449 0.18226 0.0
H811 H 0.03943 0.35895 0.15994 0.0
C812 C 0.16212 0.28994 0.21551 0.0
C813 C 0.18118 0.27791 0.19005 0.0
C814 C 0.1419 0.31201 0.20649 0.0
C815 C 0.1406 0.3227 0.172 0.0
C816 C 0.16007 0.31078 0.14698 0.0
C817 C 0.17996 0.28874 0.15584 0.0
C818 C 0.10784 0.38888 0.12903 0.0
C819 C 0.0749 0.38533 0.13454 0.0
C820 C 0.12928 0.36924 0.1421 0.0
C821 C 0.11853 0.34546 0.16121 0.0
C822 C 0.08595 0.34257 0.16786 0.0
C823 C 0.06443 0.36215 0.15463 0.0
H824 H 0.22989 0.65128 0.85952 0.0
H825 H 0.16869 0.72314 0.8681 0.0
H826 H 0.19628 0.62125 0.89466 0.0
H827 H 0.13526 0.69326 0.90343 0.0
H828 H 0.05571 0.60208 0.88651 0.0
H829 H 0.09674 0.64221 0.87388 0.0
H830 H 0.17254 0.61763 0.95467 0.0
H831 H 0.13092 0.57719 0.96777 0.0
C832 C 0.2099 0.6611 0.86998 0.0
C833 C 0.20146 0.6892 0.86062 0.0
C834 C 0.19078 0.644 0.89023 0.0
C835 C 0.16289 0.65474 0.90125 0.0
C836 C 0.15637 0.68427 0.89481 0.0
C837 C 0.17554 0.70139 0.87469 0.0
C838 C 0.08102 0.60545 0.90199 0.0
C839 C 0.09023 0.5863 0.9278 0.0
C840 C 0.10448 0.62868 0.89503 0.0
C841 C 0.13782 0.63312 0.9134 0.0
C842 C 0.14698 0.61464 0.94014 0.0
C843 C 0.12323 0.5916 0.94762 0.0
H844 H 0.27319 0.19371 0.901 0.0
H845 H 0.26639 0.11636 0.80825 0.0
H846 H 0.30049 0.16441 0.94479 0.0
H847 H 0.29421 0.08735 0.85156 0.0
H848 H 0.34209 0.03626 0.92879 0.0
H849 H 0.29585 0.0612 0.90518 0.0
H850 H 0.35635 0.15273 0.95198 0.0
H851 H 0.402 0.12768 0.97621 0.0
C852 C 0.27706 0.17021 0.89014 0.0
C853 C 0.26822 0.15735 0.85129 0.0
C854 C 0.29266 0.15348 0.91517 0.0
C855 C 0.29971 0.12367 0.90167 0.0
C856 C 0.28876 0.11007 0.86306 0.0
C857 C 0.27311 0.12677 0.8381 0.0
C858 C 0.34492 0.0617 0.93506 0.0
C859 C 0.37561 0.08018 0.95352 0.0
C860 C 0.31859 0.07596 0.92149 0.0
C861 C 0.32276 0.10889 0.92583 0.0
C862 C 0.35227 0.1273 0.94817 0.0
C863 C 0.37852 0.11301 0.96199 0.0
H864 H 0.85748 0.30174 0.78888 0.0
H865 H 0.81132 0.28007 0.88125 0.0
H866 H 0.89528 0.34536 0.832 0.0
H867 H 0.8497 0.32404 0.92442 0.0
H868 H 0.95794 0.39672 0.97855 0.0
H869 H 0.92052 0.34699 0.94702 0.0
H870 H 0.87093 0.39565 0.86683 0.0
H871 H 0.9078 0.44484 0.8981 0.0
C872 C 0.85574 0.30587 0.81844 0.0
C873 C 0.83096 0.2879 0.8315 0.0
C874 C 0.87739 0.33079 0.84304 0.0
C875 C 0.8748 0.33802 0.8811 0.0
C876 C 0.8519 0.31871 0.89504 0.0
C877 C 0.82999 0.29373 0.8703 0.0
C878 C 0.93828 0.39673 0.95493 0.0
C879 C 0.93537 0.42427 0.94058 0.0
C880 C 0.91716 0.36847 0.93693 0.0
C881 C 0.89347 0.3678 0.90441 0.0
C882 C 0.88939 0.39577 0.89169 0.0
C883 C 0.91026 0.42378 0.90957 0.0
H884 H 0.75525 0.85682 0.87093 0.0
H885 H 0.65676 0.80884 0.8147 0.0
H886 H 0.73108 0.89165 0.9147 0.0
H887 H 0.63291 0.84328 0.8575 0.0
H888 H 0.59414 0.88503 0.95128 0.0
H889 H 0.62974 0.85163 0.92469 0.0
H890 H 0.69495 0.93397 0.91274 0.0
H891 H 0.65974 0.96764 0.94132 0.0
C892 C 0.72853 0.85388 0.86787 0.0
C893 C 0.70781 0.83014 0.83967 0.0
C894 C 0.71476 0.87368 0.89286 0.0
C895 C 0.68017 0.86971 0.89002 0.0
C896 C 0.65969 0.84635 0.86117 0.0
C897 C 0.67333 0.8268 0.83636 0.0
C898 C 0.61681 0.89606 0.94457 0.0
C899 C 0.62426 0.92882 0.94828 0.0
C900 C 0.63702 0.87694 0.9289 0.0
C901 C 0.66459 0.89019 0.91569 0.0
C902 C 0.67383 0.92313 0.92264 0.0
C903 C 0.65375 0.94237 0.93898 0.0
H904 H 0.81721 0.69154 0.25434 0.0
H905 H 0.77874 0.6883 0.13628 0.0
H906 H 0.84936 0.65007 0.23633 0.0
H907 H 0.8105 0.64789 0.11853 0.0
H908 H 0.84396 0.55539 0.09477 0.0
H909 H 0.81154 0.59304 0.11975 0.0
H910 H 0.89738 0.64107 0.20399 0.0
H911 H 0.93014 0.60313 0.1788 0.0
C912 C 0.81552 0.68195 0.22469 0.0
C913 C 0.79543 0.69324 0.19676 0.0
C914 C 0.83404 0.65835 0.21433 0.0
C915 C 0.83242 0.64539 0.17589 0.0
C916 C 0.81205 0.65675 0.14834 0.0
C917 C 0.79394 0.68022 0.15859 0.0
C918 C 0.85614 0.57404 0.11846 0.0
C919 C 0.88996 0.5764 0.13419 0.0
C920 C 0.83743 0.59565 0.13295 0.0
C921 C 0.85186 0.62046 0.16366 0.0
C922 C 0.88535 0.6222 0.18048 0.0
C923 C 0.90417 0.60046 0.16592 0.0
H924 H 0.2531 0.80364 0.1164 0.0
H925 H 0.33573 0.75379 0.12915 0.0
H926 H 0.28006 0.8349 0.07709 0.0
H927 H 0.36266 0.78509 0.08961 0.0
H928 H 0.39627 0.84617 0.00629 0.0
H929 H 0.35806 0.80498 0.02333 0.0
H930 H 0.33492 0.87479 0.10849 0.0
H931 H 0.37321 0.91541 0.09228 0.0
C932 C 0.27657 0.79877 0.10987 0.0
C933 C 0.29278 0.77689 0.12631 0.0
C934 C 0.29188 0.81656 0.08736 0.0
C935 C 0.32347 0.81251 0.08082 0.0
C936 C 0.33819 0.78846 0.09417 0.0
C937 C 0.32294 0.77076 0.11694 0.0
C938 C 0.38268 0.85258 0.02836 0.0
C939 C 0.38783 0.88375 0.04835 0.0
C940 C 0.36092 0.82914 0.03798 0.0
C941 C 0.34349 0.83692 0.0669 0.0
C942 C 0.34774 0.86833 0.08569 0.0
C943 C 0.36989 0.89148 0.07671 0.0
H944 H 0.6746 0.12997 0.21619 0.0
H945 H 0.68789 0.158 0.11092 0.0
H946 H 0.6301 0.08817 0.18234 0.0
H947 H 0.64373 0.11484 0.07659 0.0
H948 H 0.53259 0.07018 0.04257 0.0
H949 H 0.58461 0.10589 0.07057 0.0
H950 H 0.61351 0.03925 0.13968 0.0
H951 H 0.56073 0.00412 0.11218 0.0
C952 C 0.66849 0.12686 0.18567 0.0
C953 C 0.68444 0.14769 0.16628 0.0
C954 C 0.64308 0.10258 0.16619 0.0
C955 C 0.63324 0.09832 0.12682 0.0
C956 C 0.65043 0.11797 0.10708 0.0
C957 C 0.6758 0.14255 0.12668 0.0
C958 C 0.55023 0.06325 0.06356 0.0
C959 C 0.54285 0.0348 0.07558 0.0
C960 C 0.58013 0.08348 0.07937 0.0
C961 C 0.60323 0.07535 0.10728 0.0
C962 C 0.59598 0.04637 0.11863 0.0
C963 C 0.56584 0.02637 0.10313 0.0
H964 H 0.66563 0.63541 0.74234 0.0
H965 H 0.69854 0.70373 0.84629 0.0
H966 H 0.63326 0.60149 0.77428 0.0
H967 H 0.66824 0.66913 0.87919 0.0
H968 H 0.58914 0.61268 0.92583 0.0
H969 H 0.62053 0.64758 0.89381 0.0
H970 H 0.63023 0.56679 0.81305 0.0
H971 H 0.59691 0.53266 0.84363 0.0
C972 C 0.6663 0.64303 0.77222 0.0
C973 C 0.68468 0.67246 0.79155 0.0
C974 C 0.64784 0.62335 0.7909 0.0
C975 C 0.64776 0.63199 0.82991 0.0
C976 C 0.66663 0.66143 0.84918 0.0
C977 C 0.68441 0.6814 0.83026 0.0
C978 C 0.59808 0.60248 0.90125 0.0
C979 C 0.59031 0.56983 0.8873 0.0
C980 C 0.6164 0.62254 0.88278 0.0
C981 C 0.62827 0.61053 0.8502 0.0
C982 C 0.62108 0.57759 0.83711 0.0
C983 C 0.60213 0.55773 0.85502 0.0
H984 H 0.27385 0.65221 0.77556 0.0
H985 H 0.36462 0.71446 0.77709 0.0
H986 H 0.30574 0.61888 0.8095 0.0
H987 H 0.39651 0.6811 0.81027 0.0
H988 H 0.44351 0.63086 0.89865 0.0
H989 H 0.40884 0.66452 0.87007 0.0
H990 H 0.34429 0.58239 0.79922 0.0
H991 H 0.37842 0.54858 0.82874 0.0
C992 C 0.30059 0.65889 0.78338 0.0
C993 C 0.31671 0.68602 0.77372 0.0
C994 C 0.31892 0.63964 0.80255 0.0
C995 C 0.35382 0.64718 0.81271 0.0
C996 C 0.36973 0.67466 0.80345 0.0
C997 C 0.35144 0.69375 0.78418 0.0
C998 C 0.42164 0.61985 0.87743 0.0
C999 C 0.41392 0.58686 0.86611 0.0
C1000 C 0.40192 0.63925 0.86065 0.0
C1001 C 0.37376 0.6263 0.83207 0.0
C1002 C 0.36558 0.59328 0.8213 0.0
C1003 C 0.38542 0.57386 0.83798 0.0
H1004 H 0.33586 0.27813 0.84612 0.0
H1005 H 0.27576 0.34353 0.8064 0.0
H1006 H 0.37389 0.32172 0.88945 0.0
H1007 H 0.31306 0.38693 0.8506 0.0
H1008 H 0.41593 0.45103 0.87841 0.0
H1009 H 0.36845 0.4105 0.84847 0.0
H1010 H 0.3838 0.36451 0.9444 0.0
H1011 H 0.43265 0.40481 0.97369 0.0
C1012 C 0.33052 0.30177 0.84716 0.0
C1013 C 0.30347 0.30767 0.82234 0.0
C1014 C 0.35205 0.32666 0.87223 0.0
C1015 C 0.34655 0.35772 0.87308 0.0
C1016 C 0.31822 0.36327 0.84996 0.0
C1017 C 0.29699 0.33848 0.82459 0.0
C1018 C 0.40892 0.43247 0.89331 0.0
C1019 C 0.42782 0.43084 0.92829 0.0
C1020 C 0.38148 0.40945 0.87639 0.0
C1021 C 0.3724 0.38436 0.89416 0.0
C1022 C 0.39041 0.38353 0.93004 0.0
C1023 C 0.41802 0.40668 0.947 0.0
H1024 H 0.67645 0.30574 0.72298 0.0
H1025 H 0.71375 0.27867 0.8282 0.0
H1026 H 0.64468 0.34049 0.75542 0.0
H1027 H 0.6811 0.31302 0.8606 0.0
H1028 H 0.58805 0.35606 0.89104 0.0
H1029 H 0.61891 0.31892 0.86 0.0
H1030 H 0.6605 0.3912 0.80578 0.0
H1031 H 0.63009 0.4282 0.83691 0.0
C1032 C 0.67767 0.307 0.75302 0.0
C1033 C 0.69765 0.28941 0.77299 0.0
C1034 C 0.65952 0.32701 0.77162 0.0
C1035 C 0.66043 0.32962 0.81061 0.0
C1036 C 0.67972 0.31139 0.8305 0.0
C1037 C 0.69841 0.29172 0.81195 0.0
C1038 C 0.60379 0.36395 0.87247 0.0
C1039 C 0.60668 0.39512 0.86653 0.0
C1040 C 0.6216 0.34276 0.85491 0.0
C1041 C 0.64211 0.3521 0.83037 0.0
C1042 C 0.64477 0.3832 0.82431 0.0
C1043 C 0.62751 0.40447 0.84236 0.0
H1044 H 0.72235 0.30056 0.19048 0.0
H1045 H 0.63223 0.246 0.20546 0.0
H1046 H 0.68965 0.33454 0.15858 0.0
H1047 H 0.5997 0.27988 0.1741 0.0
H1048 H 0.55661 0.36876 0.16168 0.0
H1049 H 0.5908 0.33435 0.18929 0.0
H1050 H 0.64748 0.33577 0.10085 0.0
H1051 H 0.61338 0.37088 0.07336 0.0
C1052 C 0.69557 0.2955 0.18641 0.0
C1053 C 0.67988 0.27049 0.20036 0.0
C1054 C 0.67681 0.31502 0.16821 0.0
C1055 C 0.642 0.31017 0.16403 0.0
C1056 C 0.62644 0.28469 0.17734 0.0
C1057 C 0.6451 0.26513 0.19518 0.0
C1058 C 0.57655 0.36206 0.14823 0.0
C1059 C 0.58224 0.37279 0.1153 0.0
C1060 C 0.59597 0.34198 0.16387 0.0
C1061 C 0.62184 0.33207 0.14723 0.0
C1062 C 0.62787 0.34303 0.11452 0.0
C1063 C 0.60815 0.36296 0.09859 0.0
H1064 H 0.64489 0.68654 0.14249 0.0
H1065 H 0.71307 0.62722 0.18123 0.0
H1066 H 0.61199 0.64155 0.09645 0.0
H1067 H 0.6808 0.5825 0.13443 0.0
H1068 H 0.5819 0.51056 0.1025 0.0
H1069 H 0.6269 0.55322 0.13397 0.0
H1070 H 0.60768 0.60098 0.04011 0.0
H1071 H 0.56143 0.55834 0.00919 0.0
C1072 C 0.65308 0.66398 0.14071 0.0
C1073 C 0.68087 0.66003 0.16601 0.0
C1074 C 0.63453 0.63834 0.11406 0.0
C1075 C 0.64377 0.60852 0.11211 0.0
C1076 C 0.67284 0.60514 0.13582 0.0
C1077 C 0.69112 0.63064 0.16273 0.0
C1078 C 0.58768 0.52992 0.08832 0.0
C1079 C 0.56828 0.53145 0.0536 0.0
C1080 C 0.61369 0.55419 0.10611 0.0
C1081 C 0.62071 0.58046 0.08949 0.0
C1082 C 0.60258 0.58105 0.05358 0.0
C1083 C 0.57646 0.55661 0.03572 0.0
H1084 H 0.32971 0.70246 0.20861 0.0
H1085 H 0.25958 0.61804 0.20207 0.0
H1086 H 0.36382 0.67124 0.17448 0.0
H1087 H 0.29371 0.58683 0.16893 0.0
H1088 H 0.34539 0.54087 0.08155 0.0
H1089 H 0.3116 0.5753 0.11024 0.0
H1090 H 0.39983 0.63266 0.18268 0.0
H1091 H 0.43388 0.5989 0.15277 0.0
C1092 C 0.32152 0.67727 0.19974 0.0
C1093 C 0.29192 0.66273 0.208 0.0
C1094 C 0.34119 0.6593 0.18043 0.0
C1095 C 0.33164 0.62638 0.1688 0.0
C1096 C 0.30175 0.61208 0.17681 0.0
C1097 C 0.28221 0.62999 0.1961 0.0
C1098 C 0.35777 0.56112 0.10309 0.0
C1099 C 0.39255 0.5669 0.11472 0.0
C1100 C 0.33825 0.58071 0.11998 0.0
C1101 C 0.35281 0.60675 0.14913 0.0
C1102 C 0.38764 0.61302 0.16019 0.0
C1103 C 0.4072 0.59337 0.14329 0.0
H1104 H 0.31802 0.25583 0.15242 0.0
H1105 H 0.30641 0.33839 0.22845 0.0
H1106 H 0.35091 0.28908 0.11996 0.0
H1107 H 0.33873 0.37168 0.19557 0.0
H1108 H 0.4258 0.42122 0.1537 0.0
H1109 H 0.39307 0.38758 0.18552 0.0
H1110 H 0.34878 0.32621 0.07827 0.0
H1111 H 0.38231 0.35986 0.04636 0.0
C1112 C 0.32249 0.28108 0.16237 0.0
C1113 C 0.30955 0.29423 0.19342 0.0
C1114 C 0.3412 0.30027 0.1434 0.0
C1115 C 0.34768 0.33331 0.15484 0.0
C1116 C 0.33484 0.34641 0.18604 0.0
C1117 C 0.3161 0.32723 0.20497 0.0
C1118 C 0.40905 0.4006 0.13673 0.0
C1119 C 0.40682 0.39342 0.09728 0.0
C1120 C 0.39 0.38128 0.15508 0.0
C1121 C 0.36795 0.35398 0.13473 0.0
C1122 C 0.36567 0.34675 0.09517 0.0
C1123 C 0.38478 0.3662 0.07672 0.0
H1124 H 0.82213 0.66453 0.6445 0.0
H1125 H 0.72411 0.60808 0.60953 0.0
H1126 H 0.84202 0.6299 0.59766 0.0
H1127 H 0.74422 0.57293 0.56204 0.0
H1128 H 0.86964 0.58076 0.49871 0.0
H1129 H 0.8353 0.61441 0.52796 0.0
H1130 H 0.78475 0.53477 0.56383 0.0
H1131 H 0.81874 0.50099 0.534 0.0
C1132 C 0.8048 0.64467 0.62667 0.0
C1133 C 0.77164 0.63886 0.63067 0.0
C1134 C 0.81609 0.62504 0.59948 0.0
C1135 C 0.79452 0.59901 0.57572 0.0
C1136 C 0.7613 0.59295 0.57986 0.0
C1137 C 0.74986 0.61291 0.60703 0.0
C1138 C 0.85039 0.57023 0.51162 0.0
C1139 C 0.8472 0.53837 0.51453 0.0
C1140 C 0.83087 0.58951 0.52858 0.0
C1141 C 0.80799 0.57733 0.54901 0.0
C1142 C 0.80221 0.5448 0.54831 0.0
C1143 C 0.82166 0.52543 0.53113 0.0
H1144 H 0.25988 0.80065 0.61086 0.0
H1145 H 0.33449 0.74117 0.61466 0.0
H1146 H 0.29243 0.83502 0.57905 0.0
H1147 H 0.36703 0.77557 0.58299 0.0
H1148 H 0.43222 0.87668 0.60767 0.0
H1149 H 0.39486 0.83191 0.61693 0.0
H1150 H 0.32234 0.84131 0.52169 0.0
H1151 H 0.36041 0.88634 0.51182 0.0
C1152 C 0.28268 0.79437 0.60374 0.0
C1153 C 0.295 0.76861 0.61567 0.0
C1154 C 0.30121 0.81395 0.58542 0.0
C1155 C 0.33239 0.80811 0.57908 0.0
C1156 C 0.34318 0.78069 0.58791 0.0
C1157 C 0.32455 0.76101 0.60593 0.0
C1158 C 0.40844 0.8691 0.58845 0.0
C1159 C 0.39902 0.88518 0.55931 0.0
C1160 C 0.3872 0.84324 0.5935 0.0
C1161 C 0.35584 0.83306 0.56985 0.0
C1162 C 0.34647 0.84872 0.5402 0.0
C1163 C 0.36815 0.8744 0.53463 0.0
H1164 H 0.21452 0.35468 0.6817 0.0
H1165 H 0.20227 0.27621 0.58881 0.0
H1166 H 0.1848 0.3836 0.6397 0.0
H1167 H 0.17317 0.30541 0.54633 0.0
H1168 H 0.13344 0.4338 0.56147 0.0
H1169 H 0.17974 0.40891 0.58506 0.0
H1170 H 0.11775 0.31743 0.54355 0.0
H1171 H 0.07192 0.34227 0.51973 0.0
C1172 C 0.20624 0.34402 0.65203 0.0
C1173 C 0.21008 0.31313 0.63852 0.0
C1174 C 0.18947 0.36065 0.62784 0.0
C1175 C 0.17638 0.34665 0.5897 0.0
C1176 C 0.18256 0.3166 0.57567 0.0
C1177 C 0.19922 0.29994 0.59993 0.0
C1178 C 0.13009 0.40834 0.55672 0.0
C1179 C 0.099 0.38991 0.53958 0.0
C1180 C 0.15653 0.39413 0.57015 0.0
C1181 C 0.15219 0.36128 0.56685 0.0
C1182 C 0.12202 0.34279 0.54638 0.0
C1183 C 0.09565 0.357 0.5328 0.0
H1184 H 0.69057 0.18145 0.62058 0.0
H1185 H 0.65251 0.1475 0.71223 0.0
H1186 H 0.65141 0.13966 0.57498 0.0
H1187 H 0.61378 0.1061 0.66673 0.0
H1188 H 0.58349 0.0147 0.58706 0.0
H1189 H 0.62662 0.05833 0.62217 0.0
H1190 H 0.58519 0.12045 0.55411 0.0
H1191 H 0.54159 0.07643 0.51887 0.0
C1192 C 0.6737 0.16531 0.63097 0.0
C1193 C 0.67486 0.16746 0.67001 0.0
C1194 C 0.65137 0.14154 0.60488 0.0
C1195 C 0.63026 0.11954 0.61761 0.0
C1196 C 0.63041 0.12255 0.65643 0.0
C1197 C 0.65242 0.14635 0.68241 0.0
C1198 C 0.58424 0.03749 0.57893 0.0
C1199 C 0.55959 0.04247 0.55041 0.0
C1200 C 0.60868 0.06237 0.59905 0.0
C1201 C 0.60863 0.09264 0.59113 0.0
C1202 C 0.58557 0.09719 0.56056 0.0
C1203 C 0.56091 0.07212 0.54033 0.0
H1204 H 0.84755 0.30515 0.25336 0.0
H1205 H 0.79798 0.30784 0.34829 0.0
H1206 H 0.8909 0.34746 0.28972 0.0
H1207 H 0.8408 0.35152 0.38445 0.0
H1208 H 0.94221 0.40384 0.45042 0.0
H1209 H 0.89726 0.3624 0.41493 0.0
H1210 H 0.90188 0.40184 0.31461 0.0
H1211 H 0.94795 0.44243 0.35029 0.0
C1212 C 0.84571 0.31514 0.28193 0.0
C1213 C 0.81942 0.30333 0.29807 0.0
C1214 C 0.87047 0.33956 0.3027 0.0
C1215 C 0.86921 0.35307 0.33989 0.0
C1216 C 0.84273 0.34133 0.35601 0.0
C1217 C 0.81816 0.31645 0.33534 0.0
C1218 C 0.93351 0.40357 0.4209 0.0
C1219 C 0.94858 0.42605 0.4031 0.0
C1220 C 0.90762 0.37999 0.40052 0.0
C1221 C 0.89594 0.37877 0.36189 0.0
C1222 C 0.91072 0.40172 0.34418 0.0
C1223 C 0.93702 0.425 0.36455 0.0
H1224 H 0.69288 0.79991 0.25914 0.0
H1225 H 0.64725 0.74165 0.32702 0.0
H1226 H 0.66189 0.8413 0.27903 0.0
H1227 H 0.61629 0.78289 0.34701 0.0
H1228 H 0.54425 0.85358 0.34948 0.0
H1229 H 0.57174 0.81148 0.32339 0.0
H1230 H 0.66226 0.87839 0.33908 0.0
H1231 H 0.63472 0.92049 0.36489 0.0
C1232 C 0.67576 0.7957 0.27771 0.0
C1233 C 0.67226 0.76739 0.29121 0.0
C1234 C 0.65827 0.81956 0.28949 0.0
C1235 C 0.63658 0.81551 0.31473 0.0
C1236 C 0.63247 0.78675 0.3273 0.0
C1237 C 0.65027 0.76312 0.31591 0.0
C1238 C 0.56994 0.85937 0.34709 0.0
C1239 C 0.58726 0.89047 0.35945 0.0
C1240 C 0.58578 0.83517 0.33236 0.0
C1241 C 0.61926 0.84148 0.32908 0.0
C1242 C 0.6364 0.87268 0.34084 0.0
C1243 C 0.62069 0.89679 0.35602 0.0
H1244 H 0.24359 0.65321 0.37409 0.0
H1245 H 0.16581 0.70901 0.36376 0.0
H1246 H 0.21428 0.62273 0.41238 0.0
H1247 H 0.1365 0.67847 0.40217 0.0
H1248 H 0.097 0.61785 0.48243 0.0
H1249 H 0.13808 0.65737 0.46675 0.0
H1250 H 0.15813 0.58597 0.38106 0.0
H1251 H 0.11711 0.54706 0.39597 0.0
C1252 C 0.22072 0.65952 0.38094 0.0
C1253 C 0.2065 0.68292 0.36547 0.0
C1254 C 0.20404 0.64216 0.40285 0.0
C1255 C 0.17307 0.64814 0.40974 0.0
C1256 C 0.16046 0.67359 0.39737 0.0
C1257 C 0.17707 0.69085 0.37521 0.0
C1258 C 0.11053 0.61072 0.46055 0.0
C1259 C 0.10373 0.57963 0.44001 0.0
C1260 C 0.13393 0.6332 0.45169 0.0
C1261 C 0.15133 0.62452 0.423 0.0
C1262 C 0.1454 0.59313 0.4037 0.0
C1263 C 0.12166 0.57097 0.41193 0.0
H1264 H 0.28652 0.19077 0.34759 0.0
H1265 H 0.32445 0.19305 0.24518 0.0
H1266 H 0.32093 0.15252 0.36368 0.0
H1267 H 0.35931 0.15424 0.26137 0.0
H1268 H 0.44588 0.118 0.3346 0.0
H1269 H 0.40868 0.15179 0.31031 0.0
H1270 H 0.32737 0.09781 0.34404 0.0
H1271 H 0.36464 0.06446 0.36901 0.0
C1272 C 0.30214 0.18291 0.32832 0.0
C1273 C 0.30286 0.19507 0.29518 0.0
C1274 C 0.32174 0.16074 0.33745 0.0
C1275 C 0.34292 0.15014 0.31385 0.0
C1276 C 0.34345 0.16204 0.28033 0.0
C1277 C 0.32341 0.18413 0.27094 0.0
C1278 C 0.42005 0.1133 0.33683 0.0
C1279 C 0.40841 0.0886 0.35416 0.0
C1280 C 0.39863 0.13249 0.32248 0.0
C1281 C 0.36501 0.1277 0.32535 0.0
C1282 C 0.35318 0.10244 0.34169 0.0
C1283 C 0.37453 0.08311 0.35576 0.0
H1284 H 0.69869 0.80381 0.72731 0.0
H1285 H 0.64695 0.73628 0.62781 0.0
H1286 H 0.66353 0.84182 0.70979 0.0
H1287 H 0.61292 0.77414 0.60946 0.0
H1288 H 0.53525 0.83568 0.60068 0.0
H1289 H 0.569 0.79942 0.62437 0.0
H1290 H 0.65242 0.87561 0.6647 0.0
H1291 H 0.6182 0.91217 0.64131 0.0
C1292 C 0.67954 0.79694 0.70202 0.0
C1293 C 0.6752 0.7668 0.67937 0.0
C1294 C 0.65966 0.81888 0.6916 0.0
C1295 C 0.63501 0.81117 0.65821 0.0
C1296 C 0.63096 0.78092 0.63574 0.0
C1297 C 0.6507 0.75916 0.64616 0.0
C1298 C 0.56085 0.84477 0.61437 0.0
C1299 C 0.574 0.8769 0.61852 0.0
C1300 C 0.58033 0.82388 0.62803 0.0
C1301 C 0.61377 0.83429 0.64617 0.0
C1302 C 0.62676 0.86662 0.65123 0.0
C1303 C 0.60713 0.88764 0.63768 0.0
H1304 H 0.67587 0.21439 0.37015 0.0
H1305 H 0.73592 0.14366 0.34534 0.0
H1306 H 0.64411 0.17931 0.40223 0.0
H1307 H 0.70448 0.10888 0.37735 0.0
H1308 H 0.60192 0.10704 0.47012 0.0
H1309 H 0.64422 0.14609 0.4556 0.0
H1310 H 0.64471 0.08266 0.3519 0.0
H1311 H 0.60265 0.04424 0.36598 0.0
C1312 C 0.68296 0.19182 0.37266 0.0
C1313 C 0.708 0.18152 0.35487 0.0
C1314 C 0.66484 0.17177 0.39102 0.0
C1315 C 0.67152 0.14119 0.39169 0.0
C1316 C 0.69848 0.13213 0.37674 0.0
C1317 C 0.71653 0.15209 0.35853 0.0
C1318 C 0.61147 0.10142 0.4445 0.0
C1319 C 0.59896 0.07267 0.41908 0.0
C1320 C 0.6355 0.12376 0.43616 0.0
C1321 C 0.64787 0.11732 0.40275 0.0
C1322 C 0.63602 0.08814 0.37812 0.0
C1323 C 0.61175 0.06619 0.38606 0.0
H1324 H 0.77988 0.6154 0.296 0.0
H1325 H 0.78951 0.68782 0.39495 0.0
H1326 H 0.81317 0.58576 0.33364 0.0
H1327 H 0.8226 0.65799 0.43288 0.0
H1328 H 0.92617 0.62336 0.45318 0.0
H1329 H 0.8797 0.64841 0.43141 0.0
H1330 H 0.81852 0.55698 0.38669 0.0
H1331 H 0.86518 0.53187 0.40861 0.0
C1332 C 0.78852 0.62458 0.32599 0.0
C1333 C 0.78258 0.65395 0.34257 0.0
C1334 C 0.80734 0.60753 0.34764 0.0
C1335 C 0.82057 0.61967 0.38619 0.0
C1336 C 0.81293 0.64826 0.40317 0.0
C1337 C 0.79402 0.66525 0.38152 0.0
C1338 C 0.90252 0.60865 0.43971 0.0
C1339 C 0.8994 0.57575 0.43175 0.0
C1340 C 0.87586 0.62296 0.42733 0.0
C1341 C 0.84567 0.60459 0.40682 0.0
C1342 C 0.84173 0.57165 0.40179 0.0
C1343 C 0.86839 0.55734 0.41418 0.0
H1344 H 0.30573 0.78331 0.37372 0.0
H1345 H 0.36328 0.79469 0.28732 0.0
H1346 H 0.34676 0.82336 0.4191 0.0
H1347 H 0.40385 0.83475 0.33243 0.0
H1348 H 0.48106 0.89608 0.42072 0.0
H1349 H 0.4459 0.8454 0.39118 0.0
H1350 H 0.36087 0.88148 0.42308 0.0
H1351 H 0.39639 0.93208 0.4529 0.0
C1352 C 0.32737 0.79395 0.36456 0.0
C1353 C 0.33114 0.7861 0.32683 0.0
C1354 C 0.35074 0.81692 0.39053 0.0
C1355 C 0.3784 0.83216 0.37927 0.0
C1356 C 0.38299 0.8231 0.34208 0.0
C1357 C 0.35958 0.80034 0.31611 0.0
C1358 C 0.45501 0.89268 0.42231 0.0
C1359 C 0.4412 0.91751 0.43913 0.0
C1360 C 0.43493 0.86385 0.40535 0.0
C1361 C 0.40065 0.85966 0.40452 0.0
C1362 C 0.38728 0.88396 0.42365 0.0
C1363 C 0.40747 0.91285 0.44068 0.0
H1364 H 0.25702 0.31979 0.40056 0.0
H1365 H 0.21548 0.36525 0.31199 0.0
H1366 H 0.23663 0.35547 0.4469 0.0
H1367 H 0.19605 0.40143 0.35841 0.0
H1368 H 0.13075 0.38303 0.4731 0.0
H1369 H 0.17129 0.35646 0.44524 0.0
H1370 H 0.21709 0.44455 0.42298 0.0
H1371 H 0.17711 0.47134 0.45183 0.0
C1372 C 0.24447 0.33805 0.39127 0.0
C1373 C 0.23758 0.3398 0.3528 0.0
C1374 C 0.23283 0.35834 0.41772 0.0
C1375 C 0.21494 0.38113 0.40612 0.0
C1376 C 0.21016 0.38427 0.36807 0.0
C1377 C 0.2211 0.36354 0.34153 0.0
C1378 C 0.15036 0.3969 0.46377 0.0
C1379 C 0.15088 0.42918 0.46463 0.0
C1380 C 0.17354 0.38175 0.44786 0.0
C1381 C 0.19706 0.39854 0.43183 0.0
C1382 C 0.19915 0.43121 0.43523 0.0
C1383 C 0.17643 0.44649 0.4519 0.0
H1384 H 0.33865 0.22625 0.67679 0.0
H1385 H 0.2845 0.16325 0.73298 0.0
H1386 H 0.36966 0.18566 0.65641 0.0
H1387 H 0.31539 0.12181 0.71186 0.0
H1388 H 0.39658 0.06168 0.68618 0.0
H1389 H 0.36907 0.10301 0.71438 0.0
H1390 H 0.3579 0.13812 0.61024 0.0
H1391 H 0.38621 0.09788 0.58274 0.0
C1392 C 0.33365 0.20373 0.68524 0.0
C1393 C 0.30909 0.19805 0.70657 0.0
C1394 C 0.35125 0.18024 0.67316 0.0
C1395 C 0.34471 0.15004 0.68168 0.0
C1396 C 0.32122 0.14474 0.70474 0.0
C1397 C 0.30356 0.16851 0.71702 0.0
C1398 C 0.38855 0.07842 0.66941 0.0
C1399 C 0.3938 0.07624 0.63203 0.0
C1400 C 0.37241 0.10197 0.68552 0.0
C1401 C 0.36132 0.12422 0.66484 0.0
C1402 C 0.36647 0.12186 0.62745 0.0
C1403 C 0.38242 0.09837 0.61138 0.0
H1404 H 0.77211 0.29419 0.61495 0.0
H1405 H 0.85933 0.26231 0.66702 0.0
H1406 H 0.80547 0.32355 0.57908 0.0
H1407 H 0.89274 0.29176 0.63115 0.0
H1408 H 0.93766 0.39282 0.61698 0.0
H1409 H 0.90606 0.35178 0.6405 0.0
H1410 H 0.84325 0.31941 0.52989 0.0
H1411 H 0.87517 0.36061 0.50602 0.0
C1412 C 0.79829 0.29299 0.61808 0.0
C1413 C 0.8134 0.27649 0.64398 0.0
C1414 C 0.81727 0.30956 0.59741 0.0
C1415 C 0.8516 0.31 0.60269 0.0
C1416 C 0.8663 0.2919 0.62692 0.0
C1417 C 0.84726 0.2751 0.64733 0.0
C1418 C 0.91727 0.37683 0.59759 0.0
C1419 C 0.90862 0.37998 0.5598 0.0
C1420 C 0.89944 0.35316 0.61094 0.0
C1421 C 0.87245 0.33242 0.58687 0.0
C1422 C 0.86405 0.33518 0.54889 0.0
C1423 C 0.88223 0.35868 0.53533 0.0
H1424 H 0.17392 0.67453 0.61996 0.0
H1425 H 0.18764 0.6187 0.70666 0.0
H1426 H 0.12881 0.63331 0.5825 0.0
H1427 H 0.14287 0.57759 0.66907 0.0
H1428 H 0.07941 0.50033 0.57331 0.0
H1429 H 0.12901 0.53951 0.60314 0.0
H1430 H 0.0705 0.61352 0.59885 0.0
H1431 H 0.02071 0.57402 0.56959 0.0
C1432 C 0.16772 0.65321 0.6306 0.0
C1433 C 0.18399 0.64973 0.66619 0.0
C1434 C 0.14188 0.62986 0.60935 0.0
C1435 C 0.13252 0.6026 0.62321 0.0
C1436 C 0.14989 0.59844 0.65787 0.0
C1437 C 0.17531 0.62195 0.67936 0.0
C1438 C 0.07732 0.52499 0.57899 0.0
C1439 C 0.04671 0.53455 0.56967 0.0
C1440 C 0.10553 0.54726 0.59575 0.0
C1441 C 0.10335 0.57932 0.60295 0.0
C1442 C 0.07268 0.58887 0.59301 0.0
C1443 C 0.04435 0.56648 0.57662 0.0
loop_
_geom_bond_atom_site_label_1
_geom_bond_atom_site_label_2
_geom_bond_distance
_geom_bond_site_symmetry_2
_ccdc_geom_bond_type
Tb0 O3 2.453 . S
Tb0 O4 2.596 . S
Tb0 O5 2.374 . S
Tb0 O13 2.343 . S
Tb0 O15 2.353 . S
Tb0 O17 2.427 . S
Tb0 O18 2.513 . S
C1 O5 1.251 . S
C1 O7 1.263 . S
Tb2 O4 2.343 . S
Tb2 O7 2.353 . S
Tb2 O10 2.427 . S
Tb2 O11 2.513 . S
Tb2 O12 2.453 . S
Tb2 O13 2.596 . S
Tb2 O14 2.374 . S
O3 Tb0 2.453 . S
O3 C19 1.245 . S
O4 Tb0 2.596 . S
O4 Tb2 2.343 . S
O4 C19 1.259 . S
O5 Tb0 2.374 . S
O5 C1 1.251 . S
C6 O10 1.275 . S
C6 O11 1.246 . S
O7 C1 1.263 . S
O7 Tb2 2.353 . S
C8 O12 1.245 . S
C8 O13 1.259 . S
C9 O14 1.250 . S
C9 O15 1.263 . S
O10 Tb2 2.427 . S
O10 C6 1.275 . S
O11 Tb2 2.513 . S
O11 C6 1.246 . S
O12 Tb2 2.453 . S
O12 C8 1.245 . S
O13 Tb0 2.343 . S
O13 Tb2 2.596 . S
O13 C8 1.259 . S
O14 Tb2 2.374 . S
O14 C9 1.250 . S
O15 Tb0 2.353 . S
O15 C9 1.263 . S
C16 O17 1.275 . S
C16 O18 1.246 . S
O17 Tb0 2.427 . S
O17 C16 1.275 . S
O18 Tb0 2.513 . S
O18 C16 1.246 . S
C19 O3 1.245 . S
C19 O4 1.259 . S
Tb20 O23 2.453 . S
Tb20 O24 2.596 . S
Tb20 O25 2.374 . S
Tb20 O33 2.343 . S
Tb20 O35 2.353 . S
Tb20 O37 2.427 . S
Tb20 O38 2.513 . S
C21 O25 1.251 . S
C21 O27 1.263 . S
Tb22 O24 2.343 . S
Tb22 O27 2.353 . S
Tb22 O30 2.427 . S
Tb22 O31 2.513 . S
Tb22 O32 2.453 . S
Tb22 O33 2.596 . S
Tb22 O34 2.374 . S
O23 Tb20 2.453 . S
O23 C39 1.245 . S
O24 Tb20 2.596 . S
O24 Tb22 2.343 . S
O24 C39 1.259 . S
O25 Tb20 2.374 . S
O25 C21 1.251 . S
C26 O30 1.275 . S
C26 O31 1.246 . S
O27 C21 1.263 . S
O27 Tb22 2.353 . S
C28 O32 1.245 . S
C28 O33 1.259 . S
C29 O34 1.250 . S
C29 O35 1.263 . S
O30 Tb22 2.427 . S
O30 C26 1.275 . S
O31 Tb22 2.513 . S
O31 C26 1.246 . S
O32 Tb22 2.453 . S
O32 C28 1.245 . S
O33 Tb20 2.343 . S
O33 Tb22 2.596 . S
O33 C28 1.259 . S
O34 Tb22 2.374 . S
O34 C29 1.250 . S
O35 Tb20 2.353 . S
O35 C29 1.263 . S
C36 O37 1.275 . S
C36 O38 1.246 . S
O37 Tb20 2.427 . S
O37 C36 1.275 . S
O38 Tb20 2.513 . S
O38 C36 1.246 . S
C39 O23 1.245 . S
C39 O24 1.259 . S
Tb40 O43 2.453 . S
Tb40 O44 2.596 . S
Tb40 O45 2.374 . S
Tb40 O53 2.343 . S
Tb40 O55 2.353 . S
Tb40 O57 2.427 . S
Tb40 O58 2.513 . S
C41 O45 1.251 . S
C41 O47 1.263 . S
Tb42 O44 2.343 . S
Tb42 O47 2.353 . S
Tb42 O50 2.427 . S
Tb42 O51 2.513 . S
Tb42 O52 2.453 . S
Tb42 O53 2.596 . S
Tb42 O54 2.374 . S
O43 Tb40 2.453 . S
O43 C59 1.245 . S
O44 Tb40 2.596 . S
O44 Tb42 2.343 . S
O44 C59 1.259 . S
O45 Tb40 2.374 . S
O45 C41 1.251 . S
C46 O50 1.275 . S
C46 O51 1.246 . S
O47 C41 1.263 . S
O47 Tb42 2.353 . S
C48 O52 1.245 . S
C48 O53 1.259 . S
C49 O54 1.250 . S
C49 O55 1.263 . S
O50 Tb42 2.427 . S
O50 C46 1.275 . S
O51 Tb42 2.513 . S
O51 C46 1.246 . S
O52 Tb42 2.453 . S
O52 C48 1.245 . S
O53 Tb40 2.343 . S
O53 Tb42 2.596 . S
O53 C48 1.259 . S
O54 Tb42 2.374 . S
O54 C49 1.250 . S
O55 Tb40 2.353 . S
O55 C49 1.263 . S
C56 O57 1.275 . S
C56 O58 1.246 . S
O57 Tb40 2.427 . S
O57 C56 1.275 . S
O58 Tb40 2.513 . S
O58 C56 1.246 . S
C59 O43 1.245 . S
C59 O44 1.259 . S
Tb60 O63 2.453 . S
Tb60 O64 2.596 . S
Tb60 O65 2.374 . S
Tb60 O73 2.343 . S
Tb60 O75 2.353 . S
Tb60 O77 2.427 . S
Tb60 O78 2.513 . S
C61 O65 1.251 . S
C61 O67 1.263 . S
Tb62 O64 2.343 . S
Tb62 O67 2.353 . S
Tb62 O70 2.427 . S
Tb62 O71 2.513 . S
Tb62 O72 2.453 . S
Tb62 O73 2.596 . S
Tb62 O74 2.374 . S
O63 Tb60 2.453 . S
O63 C79 1.245 . S
O64 Tb60 2.596 . S
O64 Tb62 2.343 . S
O64 C79 1.259 . S
O65 Tb60 2.374 . S
O65 C61 1.251 . S
C66 O70 1.275 . S
C66 O71 1.246 . S
O67 C61 1.263 . S
O67 Tb62 2.353 . S
C68 O72 1.245 . S
C68 O73 1.259 . S
C69 O74 1.250 . S
C69 O75 1.263 . S
O70 Tb62 2.427 . S
O70 C66 1.275 . S
O71 Tb62 2.513 . S
O71 C66 1.246 . S
O72 Tb62 2.453 . S
O72 C68 1.245 . S
O73 Tb60 2.343 . S
O73 Tb62 2.596 . S
O73 C68 1.259 . S
O74 Tb62 2.374 . S
O74 C69 1.250 . S
O75 Tb60 2.353 . S
O75 C69 1.263 . S
C76 O77 1.275 . S
C76 O78 1.246 . S
O77 Tb60 2.427 . S
O77 C76 1.275 . S
O78 Tb60 2.513 . S
O78 C76 1.246 . S
C79 O63 1.245 . S
C79 O64 1.259 . S
Tb80 O83 2.453 . S
Tb80 O84 2.596 . S
Tb80 O85 2.374 . S
Tb80 O93 2.343 . S
Tb80 O95 2.353 . S
Tb80 O97 2.427 . S
Tb80 O98 2.513 . S
C81 O85 1.251 . S
C81 O87 1.263 . S
Tb82 O84 2.343 . S
Tb82 O87 2.353 . S
Tb82 O90 2.427 . S
Tb82 O91 2.513 . S
Tb82 O92 2.453 . S
Tb82 O93 2.596 . S
Tb82 O94 2.374 . S
O83 Tb80 2.453 . S
O83 C99 1.245 . S
O84 Tb80 2.596 . S
O84 Tb82 2.343 . S
O84 C99 1.259 . S
O85 Tb80 2.374 . S
O85 C81 1.251 . S
C86 O90 1.275 . S
C86 O91 1.246 . S
O87 C81 1.263 . S
O87 Tb82 2.353 . S
C88 O92 1.245 . S
C88 O93 1.259 . S
C89 O94 1.250 . S
C89 O95 1.263 . S
O90 Tb82 2.427 . S
O90 C86 1.275 . S
O91 Tb82 2.513 . S
O91 C86 1.246 . S
O92 Tb82 2.453 . S
O92 C88 1.245 . S
O93 Tb80 2.343 . S
O93 Tb82 2.596 . S
O93 C88 1.259 . S
O94 Tb82 2.374 . S
O94 C89 1.250 . S
O95 Tb80 2.353 . S
O95 C89 1.263 . S
C96 O97 1.275 . S
C96 O98 1.246 . S
O97 Tb80 2.427 . S
O97 C96 1.275 . S
O98 Tb80 2.513 . S
O98 C96 1.246 . S
C99 O83 1.245 . S
C99 O84 1.259 . S
Tb100 O103 2.453 . S
Tb100 O104 2.596 . S
Tb100 O105 2.374 . S
Tb100 O113 2.343 . S
Tb100 O115 2.353 . S
Tb100 O117 2.427 . S
Tb100 O118 2.513 . S
C101 O105 1.251 . S
C101 O107 1.263 . S
Tb102 O104 2.343 . S
Tb102 O107 2.353 . S
Tb102 O110 2.427 . S
Tb102 O111 2.513 . S
Tb102 O112 2.453 . S
Tb102 O113 2.596 . S
Tb102 O114 2.374 . S
O103 Tb100 2.453 . S
O103 C119 1.245 . S
O104 Tb100 2.596 . S
O104 Tb102 2.343 . S
O104 C119 1.259 . S
O105 Tb100 2.374 . S
O105 C101 1.251 . S
C106 O110 1.275 . S
C106 O111 1.246 . S
O107 C101 1.263 . S
O107 Tb102 2.353 . S
C108 O112 1.245 . S
C108 O113 1.259 . S
C109 O114 1.250 . S
C109 O115 1.263 . S
O110 Tb102 2.427 . S
O110 C106 1.275 . S
O111 Tb102 2.513 . S
O111 C106 1.246 . S
O112 Tb102 2.453 . S
O112 C108 1.245 . S
O113 Tb100 2.343 . S
O113 Tb102 2.596 . S
O113 C108 1.259 . S
O114 Tb102 2.374 . S
O114 C109 1.250 . S
O115 Tb100 2.353 . S
O115 C109 1.263 . S
C116 O117 1.275 . S
C116 O118 1.246 . S
O117 Tb100 2.427 . S
O117 C116 1.275 . S
O118 Tb100 2.513 . S
O118 C116 1.246 . S
C119 O103 1.245 . S
C119 O104 1.259 . S
Tb120 O123 2.453 . S
Tb120 O124 2.596 . S
Tb120 O125 2.374 . S
Tb120 O133 2.343 . S
Tb120 O135 2.353 . S
Tb120 O137 2.427 . S
Tb120 O138 2.513 . S
C121 O125 1.251 . S
C121 O127 1.263 . S
Tb122 O124 2.343 . S
Tb122 O127 2.353 . S
Tb122 O130 2.427 . S
Tb122 O131 2.513 . S
Tb122 O132 2.453 . S
Tb122 O133 2.596 . S
Tb122 O134 2.374 . S
O123 Tb120 2.453 . S
O123 C139 1.245 . S
O124 Tb120 2.596 . S
O124 Tb122 2.343 . S
O124 C139 1.259 . S
O125 Tb120 2.374 . S
O125 C121 1.251 . S
C126 O130 1.275 . S
C126 O131 1.246 . S
O127 C121 1.263 . S
O127 Tb122 2.353 . S
C128 O132 1.245 . S
C128 O133 1.259 . S
C129 O134 1.250 . S
C129 O135 1.263 . S
O130 Tb122 2.427 . S
O130 C126 1.275 . S
O131 Tb122 2.513 . S
O131 C126 1.246 . S
O132 Tb122 2.453 . S
O132 C128 1.245 . S
O133 Tb120 2.343 . S
O133 Tb122 2.596 . S
O133 C128 1.259 . S
O134 Tb122 2.374 . S
O134 C129 1.250 . S
O135 Tb120 2.353 . S
O135 C129 1.263 . S
C136 O137 1.275 . S
C136 O138 1.246 . S
O137 Tb120 2.427 . S
O137 C136 1.275 . S
O138 Tb120 2.513 . S
O138 C136 1.246 . S
C139 O123 1.245 . S
C139 O124 1.259 . S
Tb140 O143 2.453 . S
Tb140 O144 2.596 . S
Tb140 O145 2.374 . S
Tb140 O153 2.343 . S
Tb140 O155 2.353 . S
Tb140 O157 2.427 . S
Tb140 O158 2.513 . S
C141 O145 1.251 . S
C141 O147 1.263 . S
Tb142 O144 2.343 . S
Tb142 O147 2.353 . S
Tb142 O150 2.427 . S
Tb142 O151 2.513 . S
Tb142 O152 2.453 . S
Tb142 O153 2.596 . S
Tb142 O154 2.374 . S
O143 Tb140 2.453 . S
O143 C159 1.245 . S
O144 Tb140 2.596 . S
O144 Tb142 2.343 . S
O144 C159 1.259 . S
O145 Tb140 2.374 . S
O145 C141 1.251 . S
C146 O150 1.275 . S
C146 O151 1.246 . S
O147 C141 1.263 . S
O147 Tb142 2.353 . S
C148 O152 1.245 . S
C148 O153 1.259 . S
C149 O154 1.250 . S
C149 O155 1.263 . S
O150 Tb142 2.427 . S
O150 C146 1.275 . S
O151 Tb142 2.513 . S
O151 C146 1.246 . S
O152 Tb142 2.453 . S
O152 C148 1.245 . S
O153 Tb140 2.343 . S
O153 Tb142 2.596 . S
O153 C148 1.259 . S
O154 Tb142 2.374 . S
O154 C149 1.250 . S
O155 Tb140 2.353 . S
O155 C149 1.263 . S
C156 O157 1.275 . S
C156 O158 1.246 . S
O157 Tb140 2.427 . S
O157 C156 1.275 . S
O158 Tb140 2.513 . S
O158 C156 1.246 . S
C159 O143 1.245 . S
C159 O144 1.259 . S
Cd160 N163 2.334 1_655 S
Cd160 N189 2.304 1_565 S
Cd160 O196 2.268 . S
Cd160 O199 2.273 1_665 S
Cd160 O200 2.417 . S
Cd160 O201 2.330 . S
Cd161 N176 2.304 1_455 S
Cd161 N180 2.334 1_545 S
Cd161 O197 2.273 1_445 S
Cd161 O198 2.268 . S
Cd161 O202 2.417 . S
Cd161 O203 2.330 . S
C162 N163 1.332 . S
C162 C166 1.381 . S
C162 H168 0.931 . S
N163 Cd160 2.334 1_455 S
N163 C162 1.332 . S
N163 C167 1.328 . S
C164 C165 1.396 . S
C164 C167 1.378 . S
C164 H206 0.931 . S
C165 C164 1.396 . S
C165 C166 1.382 . S
C166 C162 1.381 . S
C166 C165 1.382 . S
C166 H207 0.930 . S
C167 N163 1.328 . S
C167 C164 1.378 . S
C167 H169 0.930 1_455 S
H168 C162 0.931 . S
H169 C167 0.930 1_655 S
C170 O196 1.238 . S
C170 O197 1.253 . S
C171 C172 1.379 . S
C171 N176 1.337 . S
C171 H177 0.929 . S
C172 C171 1.379 . S
C172 C173 1.380 . S
C172 H208 0.929 . S
C173 C172 1.380 . S
C173 C174 1.399 . S
C174 C173 1.399 . S
C174 C175 1.376 . S
C174 H209 0.931 . S
C175 C174 1.376 . S
C175 N176 1.338 . S
C175 H178 0.930 1_655 S
N176 Cd161 2.304 1_655 S
N176 C171 1.337 . S
N176 C175 1.338 . S
H177 C171 0.929 . S
H178 C175 0.930 1_455 S
C179 N180 1.332 . S
C179 C183 1.381 . S
C179 H185 0.931 . S
N180 Cd161 2.334 1_565 S
N180 C179 1.332 . S
N180 C184 1.328 . S
C181 C182 1.396 . S
C181 C184 1.378 . S
C181 H210 0.931 . S
C182 C181 1.396 . S
C182 C183 1.382 . S
C183 C179 1.381 . S
C183 C182 1.382 . S
C183 H211 0.930 . S
C184 N180 1.328 . S
C184 C181 1.378 . S
C184 H186 0.930 1_565 S
H185 C179 0.931 . S
H186 C184 0.930 1_545 S
C187 O198 1.238 . S
C187 O199 1.253 . S
C188 O200 1.239 . S
C188 O201 1.230 . S
N189 Cd160 2.304 1_545 S
N189 C190 1.337 . S
N189 C194 1.338 . S
C190 N189 1.337 . S
C190 C191 1.379 . S
C190 H204 0.929 . S
C191 C190 1.379 . S
C191 C192 1.380 . S
C191 H212 0.929 . S
C192 C191 1.380 . S
C192 C193 1.399 . S
C193 C192 1.399 . S
C193 C194 1.376 . S
C193 H213 0.931 . S
C194 N189 1.338 . S
C194 C193 1.376 . S
C194 H205 0.930 1_545 S
C195 O202 1.239 . S
C195 O203 1.230 . S
O196 Cd160 2.268 . S
O196 C170 1.238 . S
O197 Cd161 2.273 1_665 S
O197 C170 1.253 . S
O198 Cd161 2.268 . S
O198 C187 1.238 . S
O199 Cd160 2.273 1_445 S
O199 C187 1.253 . S
O200 Cd160 2.417 . S
O200 C188 1.239 . S
O201 Cd160 2.330 . S
O201 C188 1.230 . S
O202 Cd161 2.417 . S
O202 C195 1.239 . S
O203 Cd161 2.330 . S
O203 C195 1.230 . S
H204 C190 0.929 . S
H205 C194 0.930 1_565 S
H206 C164 0.931 . S
H207 C166 0.930 . S
H208 C172 0.929 . S
H209 C174 0.931 . S
H210 C181 0.931 . S
H211 C183 0.930 . S
H212 C191 0.929 . S
H213 C193 0.931 . S
Cd214 N217 2.334 . S
Cd214 N243 2.304 1_565 S
Cd214 O250 2.268 1_554 S
Cd214 O253 2.273 1_565 S
Cd214 O254 2.417 . S
Cd214 O255 2.330 . S
Cd215 N230 2.304 . S
Cd215 N234 2.334 1_545 S
Cd215 O251 2.273 1_545 S
Cd215 O252 2.268 1_556 S
Cd215 O256 2.417 . S
Cd215 O257 2.330 . S
C216 N217 1.332 . S
C216 C220 1.381 . S
C216 H222 0.931 . S
N217 Cd214 2.334 . S
N217 C216 1.332 . S
N217 C221 1.328 . S
C218 C219 1.396 . S
C218 C221 1.378 . S
C218 H260 0.931 1_554 S
C219 C218 1.396 . S
C219 C220 1.382 . S
C220 C216 1.381 . S
C220 C219 1.382 . S
C220 H261 0.930 . S
C221 N217 1.328 . S
C221 C218 1.378 . S
C221 H223 0.930 1_554 S
H222 C216 0.931 . S
H223 C221 0.930 1_556 S
C224 O250 1.238 . S
C224 O251 1.253 . S
C225 C226 1.379 . S
C225 N230 1.337 . S
C225 H231 0.929 . S
C226 C225 1.379 . S
C226 C227 1.380 . S
C226 H262 0.929 . S
C227 C226 1.380 . S
C227 C228 1.399 . S
C228 C227 1.399 . S
C228 C229 1.376 . S
C228 H263 0.931 1_556 S
C229 C228 1.376 . S
C229 N230 1.338 . S
C229 H232 0.930 1_556 S
N230 Cd215 2.304 . S
N230 C225 1.337 . S
N230 C229 1.338 . S
H231 C225 0.929 . S
H232 C229 0.930 1_554 S
C233 N234 1.332 . S
C233 C237 1.381 . S
C233 H239 0.931 . S
N234 Cd215 2.334 1_565 S
N234 C233 1.332 . S
N234 C238 1.328 . S
C235 C236 1.396 . S
C235 C238 1.378 . S
C235 H264 0.931 1_556 S
C236 C235 1.396 . S
C236 C237 1.382 . S
C237 C233 1.381 . S
C237 C236 1.382 . S
C237 H265 0.930 . S
C238 N234 1.328 . S
C238 C235 1.378 . S
C238 H240 0.930 1_566 S
H239 C233 0.931 . S
H240 C238 0.930 1_544 S
C241 O252 1.238 . S
C241 O253 1.253 . S
C242 O254 1.239 . S
C242 O255 1.230 . S
N243 Cd214 2.304 1_545 S
N243 C244 1.337 . S
N243 C248 1.338 . S
C244 N243 1.337 . S
C244 C245 1.379 . S
C244 H258 0.929 . S
C245 C244 1.379 . S
C245 C246 1.380 . S
C245 H266 0.929 . S
C246 C245 1.380 . S
C246 C247 1.399 . S
C247 C246 1.399 . S
C247 C248 1.376 . S
C247 H267 0.931 1_554 S
C248 N243 1.338 . S
C248 C247 1.376 . S
C248 H259 0.930 1_544 S
C249 O256 1.239 . S
C249 O257 1.230 . S
O250 Cd214 2.268 1_556 S
O250 C224 1.238 . S
O251 Cd215 2.273 1_565 S
O251 C224 1.253 . S
O252 Cd215 2.268 1_554 S
O252 C241 1.238 . S
O253 Cd214 2.273 1_545 S
O253 C241 1.253 . S
O254 Cd214 2.417 . S
O254 C242 1.239 . S
O255 Cd214 2.330 . S
O255 C242 1.230 . S
O256 Cd215 2.417 . S
O256 C249 1.239 . S
O257 Cd215 2.330 . S
O257 C249 1.230 . S
H258 C244 0.929 . S
H259 C248 0.930 1_566 S
H260 C218 0.931 1_556 S
H261 C220 0.930 . S
H262 C226 0.929 . S
H263 C228 0.931 1_554 S
H264 C235 0.931 1_554 S
H265 C237 0.930 . S
H266 C245 0.929 . S
H267 C247 0.931 1_556 S
Cd268 N271 2.334 1_655 S
Cd268 N297 2.304 . S
Cd268 O304 2.268 1_554 S
Cd268 O307 2.273 1_655 S
Cd268 O308 2.417 . S
Cd268 O309 2.330 . S
Cd269 N284 2.304 1_455 S
Cd269 N288 2.334 . S
Cd269 O305 2.273 1_455 S
Cd269 O306 2.268 1_556 S
Cd269 O310 2.417 . S
Cd269 O311 2.330 . S
C270 N271 1.332 . S
C270 C274 1.381 . S
C270 H276 0.931 . S
N271 Cd268 2.334 1_455 S
N271 C270 1.332 . S
N271 C275 1.328 . S
C272 C273 1.396 . S
C272 C275 1.378 . S
C272 H314 0.931 1_554 S
C273 C272 1.396 . S
C273 C274 1.382 . S
C274 C270 1.381 . S
C274 C273 1.382 . S
C274 H315 0.930 . S
C275 N271 1.328 . S
C275 C272 1.378 . S
C275 H277 0.930 1_454 S
H276 C270 0.931 . S
H277 C275 0.930 1_656 S
C278 O304 1.238 . S
C278 O305 1.253 . S
C279 C280 1.379 . S
C279 N284 1.337 . S
C279 H285 0.929 . S
C280 C279 1.379 . S
C280 C281 1.380 . S
C280 H316 0.929 . S
C281 C280 1.380 . S
C281 C282 1.399 . S
C282 C281 1.399 . S
C282 C283 1.376 . S
C282 H317 0.931 1_556 S
C283 C282 1.376 . S
C283 N284 1.338 . S
C283 H286 0.930 1_656 S
N284 Cd269 2.304 1_655 S
N284 C279 1.337 . S
N284 C283 1.338 . S
H285 C279 0.929 . S
H286 C283 0.930 1_454 S
C287 N288 1.332 . S
C287 C291 1.381 . S
C287 H293 0.931 . S
N288 Cd269 2.334 . S
N288 C287 1.332 . S
N288 C292 1.328 . S
C289 C290 1.396 . S
C289 C292 1.378 . S
C289 H318 0.931 1_556 S
C290 C289 1.396 . S
C290 C291 1.382 . S
C291 C287 1.381 . S
C291 C290 1.382 . S
C291 H319 0.930 . S
C292 N288 1.328 . S
C292 C289 1.378 . S
C292 H294 0.930 1_556 S
H293 C287 0.931 . S
H294 C292 0.930 1_554 S
C295 O306 1.238 . S
C295 O307 1.253 . S
C296 O308 1.239 . S
C296 O309 1.230 . S
N297 Cd268 2.304 . S
N297 C298 1.337 . S
N297 C302 1.338 . S
C298 N297 1.337 . S
C298 C299 1.379 . S
C298 H312 0.929 . S
C299 C298 1.379 . S
C299 C300 1.380 . S
C299 H320 0.929 . S
C300 C299 1.380 . S
C300 C301 1.399 . S
C301 C300 1.399 . S
C301 C302 1.376 . S
C301 H321 0.931 1_554 S
C302 N297 1.338 . S
C302 C301 1.376 . S
C302 H313 0.930 1_554 S
C303 O310 1.239 . S
C303 O311 1.230 . S
O304 Cd268 2.268 1_556 S
O304 C278 1.238 . S
O305 Cd269 2.273 1_655 S
O305 C278 1.253 . S
O306 Cd269 2.268 1_554 S
O306 C295 1.238 . S
O307 Cd268 2.273 1_455 S
O307 C295 1.253 . S
O308 Cd268 2.417 . S
O308 C296 1.239 . S
O309 Cd268 2.330 . S
O309 C296 1.230 . S
O310 Cd269 2.417 . S
O310 C303 1.239 . S
O311 Cd269 2.330 . S
O311 C303 1.230 . S
H312 C298 0.929 . S
H313 C302 0.930 1_556 S
H314 C272 0.931 1_556 S
H315 C274 0.930 . S
H316 C280 0.929 . S
H317 C282 0.931 1_554 S
H318 C289 0.931 1_554 S
H319 C291 0.930 . S
H320 C299 0.929 . S
H321 C301 0.931 1_556 S
Cd322 N325 2.334 . S
Cd322 N351 2.304 . S
Cd322 O358 2.268 1_554 S
Cd322 O361 2.273 . S
Cd322 O362 2.417 . S
Cd322 O363 2.330 . S
Cd323 N338 2.304 . S
Cd323 N342 2.334 . S
Cd323 O359 2.273 . S
Cd323 O360 2.268 1_556 S
Cd323 O364 2.417 . S
Cd323 O365 2.330 . S
C324 N325 1.332 . S
C324 C328 1.381 . S
C324 H330 0.931 . S
N325 Cd322 2.334 . S
N325 C324 1.332 . S
N325 C329 1.328 . S
C326 C327 1.396 . S
C326 C329 1.378 . S
C326 H368 0.931 1_554 S
C327 C326 1.396 . S
C327 C328 1.382 . S
C328 C324 1.381 . S
C328 C327 1.382 . S
C328 H369 0.930 . S
C329 N325 1.328 . S
C329 C326 1.378 . S
C329 H331 0.930 1_554 S
H330 C324 0.931 . S
H331 C329 0.930 1_556 S
C332 O358 1.238 . S
C332 O359 1.253 . S
C333 C334 1.379 . S
C333 N338 1.337 . S
C333 H339 0.929 . S
C334 C333 1.379 . S
C334 C335 1.380 . S
C334 H370 0.929 . S
C335 C334 1.380 . S
C335 C336 1.399 . S
C336 C335 1.399 . S
C336 C337 1.376 . S
C336 H371 0.931 1_556 S
C337 C336 1.376 . S
C337 N338 1.338 . S
C337 H340 0.930 1_556 S
N338 Cd323 2.304 . S
N338 C333 1.337 . S
N338 C337 1.338 . S
H339 C333 0.929 . S
H340 C337 0.930 1_554 S
C341 N342 1.332 . S
C341 C345 1.381 . S
C341 H347 0.931 . S
N342 Cd323 2.334 . S
N342 C341 1.332 . S
N342 C346 1.328 . S
C343 C344 1.396 . S
C343 C346 1.378 . S
C343 H372 0.931 1_556 S
C344 C343 1.396 . S
C344 C345 1.382 . S
C345 C341 1.381 . S
C345 C344 1.382 . S
C345 H373 0.930 . S
C346 N342 1.328 . S
C346 C343 1.378 . S
C346 H348 0.930 1_556 S
H347 C341 0.931 . S
H348 C346 0.930 1_554 S
C349 O360 1.238 . S
C349 O361 1.253 . S
C350 O362 1.239 . S
C350 O363 1.230 . S
N351 Cd322 2.304 . S
N351 C352 1.337 . S
N351 C356 1.338 . S
C352 N351 1.337 . S
C352 C353 1.379 . S
C352 H366 0.929 . S
C353 C352 1.379 . S
C353 C354 1.380 . S
C353 H374 0.929 . S
C354 C353 1.380 . S
C354 C355 1.399 . S
C355 C354 1.399 . S
C355 C356 1.376 . S
C355 H375 0.931 1_554 S
C356 N351 1.338 . S
C356 C355 1.376 . S
C356 H367 0.930 1_554 S
C357 O364 1.239 . S
C357 O365 1.230 . S
O358 Cd322 2.268 1_556 S
O358 C332 1.238 . S
O359 Cd323 2.273 . S
O359 C332 1.253 . S
O360 Cd323 2.268 1_554 S
O360 C349 1.238 . S
O361 Cd322 2.273 . S
O361 C349 1.253 . S
O362 Cd322 2.417 . S
O362 C350 1.239 . S
O363 Cd322 2.330 . S
O363 C350 1.230 . S
O364 Cd323 2.417 . S
O364 C357 1.239 . S
O365 Cd323 2.330 . S
O365 C357 1.230 . S
H366 C352 0.929 . S
H367 C356 0.930 1_556 S
H368 C326 0.931 1_556 S
H369 C328 0.930 . S
H370 C334 0.929 . S
H371 C336 0.931 1_554 S
H372 C343 0.931 1_554 S
H373 C345 0.930 . S
H374 C353 0.929 . S
H375 C355 0.931 1_556 S
Cd376 N379 2.334 1_655 S
Cd376 N405 2.304 . S
Cd376 O412 2.268 . S
Cd376 O415 2.273 1_655 S
Cd376 O416 2.417 . S
Cd376 O417 2.330 . S
Cd377 N392 2.304 1_455 S
Cd377 N396 2.334 . S
Cd377 O413 2.273 1_455 S
Cd377 O414 2.268 . S
Cd377 O418 2.417 . S
Cd377 O419 2.330 . S
C378 N379 1.332 . S
C378 C382 1.381 . S
C378 H384 0.931 . S
N379 Cd376 2.334 1_455 S
N379 C378 1.332 . S
N379 C383 1.328 . S
C380 C381 1.396 . S
C380 C383 1.378 . S
C380 H422 0.931 . S
C381 C380 1.396 . S
C381 C382 1.382 . S
C382 C378 1.381 . S
C382 C381 1.382 . S
C382 H423 0.930 . S
C383 N379 1.328 . S
C383 C380 1.378 . S
C383 H385 0.930 1_455 S
H384 C378 0.931 . S
H385 C383 0.930 1_655 S
C386 O412 1.238 . S
C386 O413 1.253 . S
C387 C388 1.379 . S
C387 N392 1.337 . S
C387 H393 0.929 . S
C388 C387 1.379 . S
C388 C389 1.380 . S
C388 H424 0.929 . S
C389 C388 1.380 . S
C389 C390 1.399 . S
C390 C389 1.399 . S
C390 C391 1.376 . S
C390 H425 0.931 . S
C391 C390 1.376 . S
C391 N392 1.338 . S
C391 H394 0.930 1_655 S
N392 Cd377 2.304 1_655 S
N392 C387 1.337 . S
N392 C391 1.338 . S
H393 C387 0.929 . S
H394 C391 0.930 1_455 S
C395 N396 1.332 . S
C395 C399 1.381 . S
C395 H401 0.931 . S
N396 Cd377 2.334 . S
N396 C395 1.332 . S
N396 C400 1.328 . S
C397 C398 1.396 . S
C397 C400 1.378 . S
C397 H426 0.931 . S
C398 C397 1.396 . S
C398 C399 1.382 . S
C399 C395 1.381 . S
C399 C398 1.382 . S
C399 H427 0.930 . S
C400 N396 1.328 . S
C400 C397 1.378 . S
C400 H402 0.930 . S
H401 C395 0.931 . S
H402 C400 0.930 . S
C403 O414 1.238 . S
C403 O415 1.253 . S
C404 O416 1.239 . S
C404 O417 1.230 . S
N405 Cd376 2.304 . S
N405 C406 1.337 . S
N405 C410 1.338 . S
C406 N405 1.337 . S
C406 C407 1.379 . S
C406 H420 0.929 . S
C407 C406 1.379 . S
C407 C408 1.380 . S
C407 H428 0.929 . S
C408 C407 1.380 . S
C408 C409 1.399 . S
C409 C408 1.399 . S
C409 C410 1.376 . S
C409 H429 0.931 . S
C410 N405 1.338 . S
C410 C409 1.376 . S
C410 H421 0.930 . S
C411 O418 1.239 . S
C411 O419 1.230 . S
O412 Cd376 2.268 . S
O412 C386 1.238 . S
O413 Cd377 2.273 1_655 S
O413 C386 1.253 . S
O414 Cd377 2.268 . S
O414 C403 1.238 . S
O415 Cd376 2.273 1_455 S
O415 C403 1.253 . S
O416 Cd376 2.417 . S
O416 C404 1.239 . S
O417 Cd376 2.330 . S
O417 C404 1.230 . S
O418 Cd377 2.417 . S
O418 C411 1.239 . S
O419 Cd377 2.330 . S
O419 C411 1.230 . S
H420 C406 0.929 . S
H421 C410 0.930 . S
H422 C380 0.931 . S
H423 C382 0.930 . S
H424 C388 0.929 . S
H425 C390 0.931 . S
H426 C397 0.931 . S
H427 C399 0.930 . S
H428 C407 0.929 . S
H429 C409 0.931 . S
Cd430 N433 2.334 . S
Cd430 N459 2.304 1_565 S
Cd430 O466 2.268 . S
Cd430 O469 2.273 1_565 S
Cd430 O470 2.417 . S
Cd430 O471 2.330 . S
Cd431 N446 2.304 . S
Cd431 N450 2.334 1_545 S
Cd431 O467 2.273 1_545 S
Cd431 O468 2.268 . S
Cd431 O472 2.417 . S
Cd431 O473 2.330 . S
C432 N433 1.332 . S
C432 C436 1.381 . S
C432 H438 0.931 . S
N433 Cd430 2.334 . S
N433 C432 1.332 . S
N433 C437 1.328 . S
C434 C435 1.396 . S
C434 C437 1.378 . S
C434 H476 0.931 . S
C435 C434 1.396 . S
C435 C436 1.382 . S
C436 C432 1.381 . S
C436 C435 1.382 . S
C436 H477 0.930 . S
C437 N433 1.328 . S
C437 C434 1.378 . S
C437 H439 0.930 . S
H438 C432 0.931 . S
H439 C437 0.930 . S
C440 O466 1.238 . S
C440 O467 1.253 . S
C441 C442 1.379 . S
C441 N446 1.337 . S
C441 H447 0.929 . S
C442 C441 1.379 . S
C442 C443 1.380 . S
C442 H478 0.929 . S
C443 C442 1.380 . S
C443 C444 1.399 . S
C444 C443 1.399 . S
C444 C445 1.376 . S
C444 H479 0.931 . S
C445 C444 1.376 . S
C445 N446 1.338 . S
C445 H448 0.930 . S
N446 Cd431 2.304 . S
N446 C441 1.337 . S
N446 C445 1.338 . S
H447 C441 0.929 . S
H448 C445 0.930 . S
C449 N450 1.332 . S
C449 C453 1.381 . S
C449 H455 0.931 . S
N450 Cd431 2.334 1_565 S
N450 C449 1.332 . S
N450 C454 1.328 . S
C451 C452 1.396 . S
C451 C454 1.378 . S
C451 H480 0.931 . S
C452 C451 1.396 . S
C452 C453 1.382 . S
C453 C449 1.381 . S
C453 C452 1.382 . S
C453 H481 0.930 . S
C454 N450 1.328 . S
C454 C451 1.378 . S
C454 H456 0.930 1_565 S
H455 C449 0.931 . S
H456 C454 0.930 1_545 S
C457 O468 1.238 . S
C457 O469 1.253 . S
C458 O470 1.239 . S
C458 O471 1.230 . S
N459 Cd430 2.304 1_545 S
N459 C460 1.337 . S
N459 C464 1.338 . S
C460 N459 1.337 . S
C460 C461 1.379 . S
C460 H474 0.929 . S
C461 C460 1.379 . S
C461 C462 1.380 . S
C461 H482 0.929 . S
C462 C461 1.380 . S
C462 C463 1.399 . S
C463 C462 1.399 . S
C463 C464 1.376 . S
C463 H483 0.931 . S
C464 N459 1.338 . S
C464 C463 1.376 . S
C464 H475 0.930 1_545 S
C465 O472 1.239 . S
C465 O473 1.230 . S
O466 Cd430 2.268 . S
O466 C440 1.238 . S
O467 Cd431 2.273 1_565 S
O467 C440 1.253 . S
O468 Cd431 2.268 . S
O468 C457 1.238 . S
O469 Cd430 2.273 1_545 S
O469 C457 1.253 . S
O470 Cd430 2.417 . S
O470 C458 1.239 . S
O471 Cd430 2.330 . S
O471 C458 1.230 . S
O472 Cd431 2.417 . S
O472 C465 1.239 . S
O473 Cd431 2.330 . S
O473 C465 1.230 . S
H474 C460 0.929 . S
H475 C464 0.930 1_565 S
H476 C434 0.931 . S
H477 C436 0.930 . S
H478 C442 0.929 . S
H479 C444 0.931 . S
H480 C451 0.931 . S
H481 C453 0.930 . S
H482 C461 0.929 . S
H483 C463 0.931 . S
H484 C492 0.950 . S
H485 C497 0.950 . S
H486 C494 0.950 . S
H487 C496 0.950 . S
H488 C498 0.950 . S
H489 C500 0.950 . S
H490 C502 0.950 . S
H491 C503 0.950 . S
C492 H484 0.950 . S
C492 C493 1.386 . S
C492 C494 1.391 . S
C493 C492 1.386 . S
C493 C497 1.393 . S
C494 H486 0.950 . S
C494 C492 1.391 . S
C494 C495 1.400 . S
C495 C494 1.400 . S
C495 C496 1.398 . S
C495 C501 1.491 . S
C496 H487 0.950 . S
C496 C495 1.398 . S
C496 C497 1.391 . S
C497 H485 0.950 . S
C497 C493 1.393 . S
C497 C496 1.391 . S
C498 H488 0.950 . S
C498 C499 1.386 . S
C498 C500 1.391 . S
C499 C498 1.386 . S
C499 C503 1.393 . S
C500 H489 0.950 . S
C500 C498 1.391 . S
C500 C501 1.400 . S
C501 C495 1.491 . S
C501 C500 1.400 . S
C501 C502 1.398 . S
C502 H490 0.950 . S
C502 C501 1.398 . S
C502 C503 1.391 . S
C503 H491 0.950 . S
C503 C499 1.393 . S
C503 C502 1.391 . S
H504 C512 0.950 . S
H505 C517 0.950 . S
H506 C514 0.950 . S
H507 C516 0.950 . S
H508 C518 0.950 . S
H509 C520 0.950 . S
H510 C522 0.950 . S
H511 C523 0.950 . S
C512 H504 0.950 . S
C512 C513 1.386 . S
C512 C514 1.391 . S
C513 C512 1.386 . S
C513 C517 1.393 . S
C514 H506 0.950 . S
C514 C512 1.391 . S
C514 C515 1.400 . S
C515 C514 1.400 . S
C515 C516 1.398 . S
C515 C521 1.491 . S
C516 H507 0.950 . S
C516 C515 1.398 . S
C516 C517 1.391 . S
C517 H505 0.950 . S
C517 C513 1.393 . S
C517 C516 1.391 . S
C518 H508 0.950 . S
C518 C519 1.386 . S
C518 C520 1.391 . S
C519 C518 1.386 . S
C519 C523 1.393 . S
C520 H509 0.950 . S
C520 C518 1.391 . S
C520 C521 1.400 . S
C521 C515 1.491 . S
C521 C520 1.400 . S
C521 C522 1.398 . S
C522 H510 0.950 . S
C522 C521 1.398 . S
C522 C523 1.391 . S
C523 H511 0.950 . S
C523 C519 1.393 . S
C523 C522 1.391 . S
H524 C532 0.950 . S
H525 C537 0.950 . S
H526 C534 0.950 . S
H527 C536 0.950 . S
H528 C538 0.950 . S
H529 C540 0.950 . S
H530 C542 0.950 . S
H531 C543 0.950 . S
C532 H524 0.950 . S
C532 C533 1.386 . S
C532 C534 1.391 . S
C533 C532 1.386 . S
C533 C537 1.393 . S
C534 H526 0.950 . S
C534 C532 1.391 . S
C534 C535 1.400 . S
C535 C534 1.400 . S
C535 C536 1.398 . S
C535 C541 1.491 . S
C536 H527 0.950 . S
C536 C535 1.398 . S
C536 C537 1.391 . S
C537 H525 0.950 . S
C537 C533 1.393 . S
C537 C536 1.391 . S
C538 H528 0.950 . S
C538 C539 1.386 . S
C538 C540 1.391 . S
C539 C538 1.386 . S
C539 C543 1.393 . S
C540 H529 0.950 . S
C540 C538 1.391 . S
C540 C541 1.400 . S
C541 C535 1.491 . S
C541 C540 1.400 . S
C541 C542 1.398 . S
C542 H530 0.950 . S
C542 C541 1.398 . S
C542 C543 1.391 . S
C543 H531 0.950 . S
C543 C539 1.393 . S
C543 C542 1.391 . S
H544 C552 0.950 . S
H545 C557 0.950 . S
H546 C554 0.950 . S
H547 C556 0.950 . S
H548 C558 0.950 . S
H549 C560 0.950 . S
H550 C562 0.950 . S
H551 C563 0.950 . S
C552 H544 0.950 . S
C552 C553 1.386 . S
C552 C554 1.391 . S
C553 C552 1.386 . S
C553 C557 1.393 . S
C554 H546 0.950 . S
C554 C552 1.391 . S
C554 C555 1.400 . S
C555 C554 1.400 . S
C555 C556 1.398 . S
C555 C561 1.491 . S
C556 H547 0.950 . S
C556 C555 1.398 . S
C556 C557 1.391 . S
C557 H545 0.950 . S
C557 C553 1.393 . S
C557 C556 1.391 . S
C558 H548 0.950 . S
C558 C559 1.386 . S
C558 C560 1.391 . S
C559 C558 1.386 . S
C559 C563 1.393 . S
C560 H549 0.950 . S
C560 C558 1.391 . S
C560 C561 1.400 . S
C561 C555 1.491 . S
C561 C560 1.400 . S
C561 C562 1.398 . S
C562 H550 0.950 . S
C562 C561 1.398 . S
C562 C563 1.391 . S
C563 H551 0.950 . S
C563 C559 1.393 . S
C563 C562 1.391 . S
H564 C572 0.950 . S
H565 C577 0.950 . S
H566 C574 0.950 . S
H567 C576 0.950 . S
H568 C578 0.950 . S
H569 C580 0.950 . S
H570 C582 0.950 . S
H571 C583 0.950 . S
C572 H564 0.950 . S
C572 C573 1.386 . S
C572 C574 1.391 . S
C573 C572 1.386 . S
C573 C577 1.393 . S
C574 H566 0.950 . S
C574 C572 1.391 . S
C574 C575 1.400 . S
C575 C574 1.400 . S
C575 C576 1.398 . S
C575 C581 1.491 . S
C576 H567 0.950 . S
C576 C575 1.398 . S
C576 C577 1.391 . S
C577 H565 0.950 . S
C577 C573 1.393 . S
C577 C576 1.391 . S
C578 H568 0.950 . S
C578 C579 1.386 . S
C578 C580 1.391 . S
C579 C578 1.386 . S
C579 C583 1.393 . S
C580 H569 0.950 . S
C580 C578 1.391 . S
C580 C581 1.400 . S
C581 C575 1.491 . S
C581 C580 1.400 . S
C581 C582 1.398 . S
C582 H570 0.950 . S
C582 C581 1.398 . S
C582 C583 1.391 . S
C583 H571 0.950 . S
C583 C579 1.393 . S
C583 C582 1.391 . S
H584 C592 0.950 . S
H585 C597 0.950 . S
H586 C594 0.950 . S
H587 C596 0.950 . S
H588 C598 0.950 . S
H589 C600 0.950 . S
H590 C602 0.950 . S
H591 C603 0.950 . S
C592 H584 0.950 . S
C592 C593 1.386 . S
C592 C594 1.391 . S
C593 C592 1.386 . S
C593 C597 1.393 . S
C594 H586 0.950 . S
C594 C592 1.391 . S
C594 C595 1.400 . S
C595 C594 1.400 . S
C595 C596 1.398 . S
C595 C601 1.491 . S
C596 H587 0.950 . S
C596 C595 1.398 . S
C596 C597 1.391 . S
C597 H585 0.950 . S
C597 C593 1.393 . S
C597 C596 1.391 . S
C598 H588 0.950 . S
C598 C599 1.386 . S
C598 C600 1.391 . S
C599 C598 1.386 . S
C599 C603 1.393 . S
C600 H589 0.950 . S
C600 C598 1.391 . S
C600 C601 1.400 . S
C601 C595 1.491 . S
C601 C600 1.400 . S
C601 C602 1.398 . S
C602 H590 0.950 . S
C602 C601 1.398 . S
C602 C603 1.391 . S
C603 H591 0.950 . S
C603 C599 1.393 . S
C603 C602 1.391 . S
H604 C612 0.950 . S
H605 C617 0.950 . S
H606 C614 0.950 . S
H607 C616 0.950 . S
H608 C618 0.950 . S
H609 C620 0.950 . S
H610 C622 0.950 . S
H611 C623 0.950 . S
C612 H604 0.950 . S
C612 C613 1.386 . S
C612 C614 1.391 . S
C613 C612 1.386 . S
C613 C617 1.393 . S
C614 H606 0.950 . S
C614 C612 1.391 . S
C614 C615 1.400 . S
C615 C614 1.400 . S
C615 C616 1.398 . S
C615 C621 1.491 . S
C616 H607 0.950 . S
C616 C615 1.398 . S
C616 C617 1.391 . S
C617 H605 0.950 . S
C617 C613 1.393 . S
C617 C616 1.391 . S
C618 H608 0.950 . S
C618 C619 1.386 . S
C618 C620 1.391 . S
C619 C618 1.386 . S
C619 C623 1.393 . S
C620 H609 0.950 . S
C620 C618 1.391 . S
C620 C621 1.400 . S
C621 C615 1.491 . S
C621 C620 1.400 . S
C621 C622 1.398 . S
C622 H610 0.950 . S
C622 C621 1.398 . S
C622 C623 1.391 . S
C623 H611 0.950 . S
C623 C619 1.393 . S
C623 C622 1.391 . S
H624 C632 0.950 . S
H625 C637 0.950 . S
H626 C634 0.950 . S
H627 C636 0.950 . S
H628 C638 0.950 . S
H629 C640 0.950 . S
H630 C642 0.950 . S
H631 C643 0.950 . S
C632 H624 0.950 . S
C632 C633 1.386 . S
C632 C634 1.391 . S
C633 C632 1.386 . S
C633 C637 1.393 . S
C634 H626 0.950 . S
C634 C632 1.391 . S
C634 C635 1.400 . S
C635 C634 1.400 . S
C635 C636 1.398 . S
C635 C641 1.491 . S
C636 H627 0.950 . S
C636 C635 1.398 . S
C636 C637 1.391 . S
C637 H625 0.950 . S
C637 C633 1.393 . S
C637 C636 1.391 . S
C638 H628 0.950 . S
C638 C639 1.386 . S
C638 C640 1.391 . S
C639 C638 1.386 . S
C639 C643 1.393 . S
C640 H629 0.950 . S
C640 C638 1.391 . S
C640 C641 1.400 . S
C641 C635 1.491 . S
C641 C640 1.400 . S
C641 C642 1.398 . S
C642 H630 0.950 . S
C642 C641 1.398 . S
C642 C643 1.391 . S
C643 H631 0.950 . S
C643 C639 1.393 . S
C643 C642 1.391 . S
H644 C652 0.950 . S
H645 C657 0.950 . S
H646 C654 0.950 . S
H647 C656 0.950 . S
H648 C658 0.950 . S
H649 C660 0.950 . S
H650 C662 0.950 . S
H651 C663 0.950 . S
C652 H644 0.950 . S
C652 C653 1.386 . S
C652 C654 1.391 . S
C653 C652 1.386 . S
C653 C657 1.393 . S
C654 H646 0.950 . S
C654 C652 1.391 . S
C654 C655 1.400 . S
C655 C654 1.400 . S
C655 C656 1.398 . S
C655 C661 1.491 . S
C656 H647 0.950 . S
C656 C655 1.398 . S
C656 C657 1.391 . S
C657 H645 0.950 . S
C657 C653 1.393 . S
C657 C656 1.391 . S
C658 H648 0.950 . S
C658 C659 1.386 . S
C658 C660 1.391 . S
C659 C658 1.386 . S
C659 C663 1.393 . S
C660 H649 0.950 . S
C660 C658 1.391 . S
C660 C661 1.400 . S
C661 C655 1.491 . S
C661 C660 1.400 . S
C661 C662 1.398 . S
C662 H650 0.950 . S
C662 C661 1.398 . S
C662 C663 1.391 . S
C663 H651 0.950 . S
C663 C659 1.393 . S
C663 C662 1.391 . S
H664 C672 0.950 . S
H665 C677 0.950 . S
H666 C674 0.950 . S
H667 C676 0.950 . S
H668 C678 0.950 . S
H669 C680 0.950 . S
H670 C682 0.950 . S
H671 C683 0.950 . S
C672 H664 0.950 . S
C672 C673 1.386 . S
C672 C674 1.391 . S
C673 C672 1.386 . S
C673 C677 1.393 . S
C674 H666 0.950 . S
C674 C672 1.391 . S
C674 C675 1.400 . S
C675 C674 1.400 . S
C675 C676 1.398 . S
C675 C681 1.491 . S
C676 H667 0.950 . S
C676 C675 1.398 . S
C676 C677 1.391 . S
C677 H665 0.950 . S
C677 C673 1.393 . S
C677 C676 1.391 . S
C678 H668 0.950 . S
C678 C679 1.386 . S
C678 C680 1.391 . S
C679 C678 1.386 . S
C679 C683 1.393 . S
C680 H669 0.950 . S
C680 C678 1.391 . S
C680 C681 1.400 . S
C681 C675 1.491 . S
C681 C680 1.400 . S
C681 C682 1.398 . S
C682 H670 0.950 . S
C682 C681 1.398 . S
C682 C683 1.391 . S
C683 H671 0.950 . S
C683 C679 1.393 . S
C683 C682 1.391 . S
H684 C692 0.950 . S
H685 C697 0.950 . S
H686 C694 0.950 . S
H687 C696 0.950 . S
H688 C698 0.950 . S
H689 C700 0.950 . S
H690 C702 0.950 . S
H691 C703 0.950 . S
C692 H684 0.950 . S
C692 C693 1.386 . S
C692 C694 1.391 . S
C693 C692 1.386 . S
C693 C697 1.393 . S
C694 H686 0.950 . S
C694 C692 1.391 . S
C694 C695 1.400 . S
C695 C694 1.400 . S
C695 C696 1.398 . S
C695 C701 1.491 . S
C696 H687 0.950 . S
C696 C695 1.398 . S
C696 C697 1.391 . S
C697 H685 0.950 . S
C697 C693 1.393 . S
C697 C696 1.391 . S
C698 H688 0.950 . S
C698 C699 1.386 . S
C698 C700 1.391 . S
C699 C698 1.386 . S
C699 C703 1.393 . S
C700 H689 0.950 . S
C700 C698 1.391 . S
C700 C701 1.400 . S
C701 C695 1.491 . S
C701 C700 1.400 . S
C701 C702 1.398 . S
C702 H690 0.950 . S
C702 C701 1.398 . S
C702 C703 1.391 . S
C703 H691 0.950 . S
C703 C699 1.393 . S
C703 C702 1.391 . S
H704 C712 0.950 . S
H705 C717 0.950 . S
H706 C714 0.950 . S
H707 C716 0.950 . S
H708 C718 0.950 . S
H709 C720 0.950 . S
H710 C722 0.950 . S
H711 C723 0.950 . S
C712 H704 0.950 . S
C712 C713 1.386 . S
C712 C714 1.391 . S
C713 C712 1.386 . S
C713 C717 1.393 . S
C714 H706 0.950 . S
C714 C712 1.391 . S
C714 C715 1.400 . S
C715 C714 1.400 . S
C715 C716 1.398 . S
C715 C721 1.491 . S
C716 H707 0.950 . S
C716 C715 1.398 . S
C716 C717 1.391 . S
C717 H705 0.950 . S
C717 C713 1.393 . S
C717 C716 1.391 . S
C718 H708 0.950 . S
C718 C719 1.386 . S
C718 C720 1.391 . S
C719 C718 1.386 . S
C719 C723 1.393 . S
C720 H709 0.950 . S
C720 C718 1.391 . S
C720 C721 1.400 . S
C721 C715 1.491 . S
C721 C720 1.400 . S
C721 C722 1.398 . S
C722 H710 0.950 . S
C722 C721 1.398 . S
C722 C723 1.391 . S
C723 H711 0.950 . S
C723 C719 1.393 . S
C723 C722 1.391 . S
H724 C732 0.950 . S
H725 C737 0.950 . S
H726 C734 0.950 . S
H727 C736 0.950 . S
H728 C738 0.950 . S
H729 C740 0.950 . S
H730 C742 0.950 . S
H731 C743 0.950 . S
C732 H724 0.950 . S
C732 C733 1.386 . S
C732 C734 1.391 . S
C733 C732 1.386 . S
C733 C737 1.393 . S
C734 H726 0.950 . S
C734 C732 1.391 . S
C734 C735 1.400 . S
C735 C734 1.400 . S
C735 C736 1.398 . S
C735 C741 1.491 . S
C736 H727 0.950 . S
C736 C735 1.398 . S
C736 C737 1.391 . S
C737 H725 0.950 . S
C737 C733 1.393 . S
C737 C736 1.391 . S
C738 H728 0.950 . S
C738 C739 1.386 . S
C738 C740 1.391 . S
C739 C738 1.386 . S
C739 C743 1.393 . S
C740 H729 0.950 . S
C740 C738 1.391 . S
C740 C741 1.400 . S
C741 C735 1.491 . S
C741 C740 1.400 . S
C741 C742 1.398 . S
C742 H730 0.950 . S
C742 C741 1.398 . S
C742 C743 1.391 . S
C743 H731 0.950 . S
C743 C739 1.393 . S
C743 C742 1.391 . S
H744 C752 0.950 . S
H745 C757 0.950 . S
H746 C754 0.950 . S
H747 C756 0.950 . S
H748 C758 0.950 . S
H749 C760 0.950 . S
H750 C762 0.950 . S
H751 C763 0.950 . S
C752 H744 0.950 . S
C752 C753 1.386 . S
C752 C754 1.391 . S
C753 C752 1.386 . S
C753 C757 1.393 . S
C754 H746 0.950 . S
C754 C752 1.391 . S
C754 C755 1.400 . S
C755 C754 1.400 . S
C755 C756 1.398 . S
C755 C761 1.491 . S
C756 H747 0.950 . S
C756 C755 1.398 . S
C756 C757 1.391 . S
C757 H745 0.950 . S
C757 C753 1.393 . S
C757 C756 1.391 . S
C758 H748 0.950 . S
C758 C759 1.386 . S
C758 C760 1.391 . S
C759 C758 1.386 . S
C759 C763 1.393 . S
C760 H749 0.950 . S
C760 C758 1.391 . S
C760 C761 1.400 . S
C761 C755 1.491 . S
C761 C760 1.400 . S
C761 C762 1.398 . S
C762 H750 0.950 . S
C762 C761 1.398 . S
C762 C763 1.391 . S
C763 H751 0.950 . S
C763 C759 1.393 . S
C763 C762 1.391 . S
H764 C772 0.950 . S
H765 C777 0.950 . S
H766 C774 0.950 . S
H767 C776 0.950 . S
H768 C778 0.950 . S
H769 C780 0.950 . S
H770 C782 0.950 . S
H771 C783 0.950 . S
C772 H764 0.950 . S
C772 C773 1.386 . S
C772 C774 1.391 . S
C773 C772 1.386 . S
C773 C777 1.393 . S
C774 H766 0.950 . S
C774 C772 1.391 . S
C774 C775 1.400 . S
C775 C774 1.400 . S
C775 C776 1.398 . S
C775 C781 1.491 . S
C776 H767 0.950 . S
C776 C775 1.398 . S
C776 C777 1.391 . S
C777 H765 0.950 . S
C777 C773 1.393 . S
C777 C776 1.391 . S
C778 H768 0.950 . S
C778 C779 1.386 . S
C778 C780 1.391 . S
C779 C778 1.386 . S
C779 C783 1.393 . S
C780 H769 0.950 . S
C780 C778 1.391 . S
C780 C781 1.400 . S
C781 C775 1.491 . S
C781 C780 1.400 . S
C781 C782 1.398 . S
C782 H770 0.950 . S
C782 C781 1.398 . S
C782 C783 1.391 . S
C783 H771 0.950 . S
C783 C779 1.393 . S
C783 C782 1.391 . S
H784 C792 0.950 . S
H785 C797 0.950 . S
H786 C794 0.950 . S
H787 C796 0.950 . S
H788 C798 0.950 . S
H789 C800 0.950 . S
H790 C802 0.950 . S
H791 C803 0.950 . S
C792 H784 0.950 . S
C792 C793 1.386 . S
C792 C794 1.391 . S
C793 C792 1.386 . S
C793 C797 1.393 . S
C794 H786 0.950 . S
C794 C792 1.391 . S
C794 C795 1.400 . S
C795 C794 1.400 . S
C795 C796 1.398 . S
C795 C801 1.491 . S
C796 H787 0.950 . S
C796 C795 1.398 . S
C796 C797 1.391 . S
C797 H785 0.950 . S
C797 C793 1.393 . S
C797 C796 1.391 . S
C798 H788 0.950 . S
C798 C799 1.386 . S
C798 C800 1.391 . S
C799 C798 1.386 . S
C799 C803 1.393 . S
C800 H789 0.950 . S
C800 C798 1.391 . S
C800 C801 1.400 . S
C801 C795 1.491 . S
C801 C800 1.400 . S
C801 C802 1.398 . S
C802 H790 0.950 . S
C802 C801 1.398 . S
C802 C803 1.391 . S
C803 H791 0.950 . S
C803 C799 1.393 . S
C803 C802 1.391 . S
H804 C812 0.950 . S
H805 C817 0.950 . S
H806 C814 0.950 . S
H807 C816 0.950 . S
H808 C818 0.950 . S
H809 C820 0.950 . S
H810 C822 0.950 . S
H811 C823 0.950 . S
C812 H804 0.950 . S
C812 C813 1.386 . S
C812 C814 1.391 . S
C813 C812 1.386 . S
C813 C817 1.393 . S
C814 H806 0.950 . S
C814 C812 1.391 . S
C814 C815 1.400 . S
C815 C814 1.400 . S
C815 C816 1.398 . S
C815 C821 1.491 . S
C816 H807 0.950 . S
C816 C815 1.398 . S
C816 C817 1.391 . S
C817 H805 0.950 . S
C817 C813 1.393 . S
C817 C816 1.391 . S
C818 H808 0.950 . S
C818 C819 1.386 . S
C818 C820 1.391 . S
C819 C818 1.386 . S
C819 C823 1.393 . S
C820 H809 0.950 . S
C820 C818 1.391 . S
C820 C821 1.400 . S
C821 C815 1.491 . S
C821 C820 1.400 . S
C821 C822 1.398 . S
C822 H810 0.950 . S
C822 C821 1.398 . S
C822 C823 1.391 . S
C823 H811 0.950 . S
C823 C819 1.393 . S
C823 C822 1.391 . S
H824 C832 0.950 . S
H825 C837 0.950 . S
H826 C834 0.950 . S
H827 C836 0.950 . S
H828 C838 0.950 . S
H829 C840 0.950 . S
H830 C842 0.950 . S
H831 C843 0.950 . S
C832 H824 0.950 . S
C832 C833 1.386 . S
C832 C834 1.391 . S
C833 C832 1.386 . S
C833 C837 1.393 . S
C834 H826 0.950 . S
C834 C832 1.391 . S
C834 C835 1.400 . S
C835 C834 1.400 . S
C835 C836 1.398 . S
C835 C841 1.491 . S
C836 H827 0.950 . S
C836 C835 1.398 . S
C836 C837 1.391 . S
C837 H825 0.950 . S
C837 C833 1.393 . S
C837 C836 1.391 . S
C838 H828 0.950 . S
C838 C839 1.386 . S
C838 C840 1.391 . S
C839 C838 1.386 . S
C839 C843 1.393 . S
C840 H829 0.950 . S
C840 C838 1.391 . S
C840 C841 1.400 . S
C841 C835 1.491 . S
C841 C840 1.400 . S
C841 C842 1.398 . S
C842 H830 0.950 . S
C842 C841 1.398 . S
C842 C843 1.391 . S
C843 H831 0.950 . S
C843 C839 1.393 . S
C843 C842 1.391 . S
H844 C852 0.950 . S
H845 C857 0.950 . S
H846 C854 0.950 . S
H847 C856 0.950 . S
H848 C858 0.950 . S
H849 C860 0.950 . S
H850 C862 0.950 . S
H851 C863 0.950 . S
C852 H844 0.950 . S
C852 C853 1.386 . S
C852 C854 1.391 . S
C853 C852 1.386 . S
C853 C857 1.393 . S
C854 H846 0.950 . S
C854 C852 1.391 . S
C854 C855 1.400 . S
C855 C854 1.400 . S
C855 C856 1.398 . S
C855 C861 1.491 . S
C856 H847 0.950 . S
C856 C855 1.398 . S
C856 C857 1.391 . S
C857 H845 0.950 . S
C857 C853 1.393 . S
C857 C856 1.391 . S
C858 H848 0.950 . S
C858 C859 1.386 . S
C858 C860 1.391 . S
C859 C858 1.386 . S
C859 C863 1.393 . S
C860 H849 0.950 . S
C860 C858 1.391 . S
C860 C861 1.400 . S
C861 C855 1.491 . S
C861 C860 1.400 . S
C861 C862 1.398 . S
C862 H850 0.950 . S
C862 C861 1.398 . S
C862 C863 1.391 . S
C863 H851 0.950 . S
C863 C859 1.393 . S
C863 C862 1.391 . S
H864 C872 0.950 . S
H865 C877 0.950 . S
H866 C874 0.950 . S
H867 C876 0.950 . S
H868 C878 0.950 . S
H869 C880 0.950 . S
H870 C882 0.950 . S
H871 C883 0.950 . S
C872 H864 0.950 . S
C872 C873 1.386 . S
C872 C874 1.391 . S
C873 C872 1.386 . S
C873 C877 1.393 . S
C874 H866 0.950 . S
C874 C872 1.391 . S
C874 C875 1.400 . S
C875 C874 1.400 . S
C875 C876 1.398 . S
C875 C881 1.491 . S
C876 H867 0.950 . S
C876 C875 1.398 . S
C876 C877 1.391 . S
C877 H865 0.950 . S
C877 C873 1.393 . S
C877 C876 1.391 . S
C878 H868 0.950 . S
C878 C879 1.386 . S
C878 C880 1.391 . S
C879 C878 1.386 . S
C879 C883 1.393 . S
C880 H869 0.950 . S
C880 C878 1.391 . S
C880 C881 1.400 . S
C881 C875 1.491 . S
C881 C880 1.400 . S
C881 C882 1.398 . S
C882 H870 0.950 . S
C882 C881 1.398 . S
C882 C883 1.391 . S
C883 H871 0.950 . S
C883 C879 1.393 . S
C883 C882 1.391 . S
H884 C892 0.950 . S
H885 C897 0.950 . S
H886 C894 0.950 . S
H887 C896 0.950 . S
H888 C898 0.950 . S
H889 C900 0.950 . S
H890 C902 0.950 . S
H891 C903 0.950 . S
C892 H884 0.950 . S
C892 C893 1.386 . S
C892 C894 1.391 . S
C893 C892 1.386 . S
C893 C897 1.393 . S
C894 H886 0.950 . S
C894 C892 1.391 . S
C894 C895 1.400 . S
C895 C894 1.400 . S
C895 C896 1.398 . S
C895 C901 1.491 . S
C896 H887 0.950 . S
C896 C895 1.398 . S
C896 C897 1.391 . S
C897 H885 0.950 . S
C897 C893 1.393 . S
C897 C896 1.391 . S
C898 H888 0.950 . S
C898 C899 1.386 . S
C898 C900 1.391 . S
C899 C898 1.386 . S
C899 C903 1.393 . S
C900 H889 0.950 . S
C900 C898 1.391 . S
C900 C901 1.400 . S
C901 C895 1.491 . S
C901 C900 1.400 . S
C901 C902 1.398 . S
C902 H890 0.950 . S
C902 C901 1.398 . S
C902 C903 1.391 . S
C903 H891 0.950 . S
C903 C899 1.393 . S
C903 C902 1.391 . S
H904 C912 0.950 . S
H905 C917 0.950 . S
H906 C914 0.950 . S
H907 C916 0.950 . S
H908 C918 0.950 . S
H909 C920 0.950 . S
H910 C922 0.950 . S
H911 C923 0.950 . S
C912 H904 0.950 . S
C912 C913 1.386 . S
C912 C914 1.391 . S
C913 C912 1.386 . S
C913 C917 1.393 . S
C914 H906 0.950 . S
C914 C912 1.391 . S
C914 C915 1.400 . S
C915 C914 1.400 . S
C915 C916 1.398 . S
C915 C921 1.491 . S
C916 H907 0.950 . S
C916 C915 1.398 . S
C916 C917 1.391 . S
C917 H905 0.950 . S
C917 C913 1.393 . S
C917 C916 1.391 . S
C918 H908 0.950 . S
C918 C919 1.386 . S
C918 C920 1.391 . S
C919 C918 1.386 . S
C919 C923 1.393 . S
C920 H909 0.950 . S
C920 C918 1.391 . S
C920 C921 1.400 . S
C921 C915 1.491 . S
C921 C920 1.400 . S
C921 C922 1.398 . S
C922 H910 0.950 . S
C922 C921 1.398 . S
C922 C923 1.391 . S
C923 H911 0.950 . S
C923 C919 1.393 . S
C923 C922 1.391 . S
H924 C932 0.950 . S
H925 C937 0.950 . S
H926 C934 0.950 . S
H927 C936 0.950 . S
H928 C938 0.950 . S
H929 C940 0.950 . S
H930 C942 0.950 . S
H931 C943 0.950 . S
C932 H924 0.950 . S
C932 C933 1.386 . S
C932 C934 1.391 . S
C933 C932 1.386 . S
C933 C937 1.393 . S
C934 H926 0.950 . S
C934 C932 1.391 . S
C934 C935 1.400 . S
C935 C934 1.400 . S
C935 C936 1.398 . S
C935 C941 1.491 . S
C936 H927 0.950 . S
C936 C935 1.398 . S
C936 C937 1.391 . S
C937 H925 0.950 . S
C937 C933 1.393 . S
C937 C936 1.391 . S
C938 H928 0.950 . S
C938 C939 1.386 . S
C938 C940 1.391 . S
C939 C938 1.386 . S
C939 C943 1.393 . S
C940 H929 0.950 . S
C940 C938 1.391 . S
C940 C941 1.400 . S
C941 C935 1.491 . S
C941 C940 1.400 . S
C941 C942 1.398 . S
C942 H930 0.950 . S
C942 C941 1.398 . S
C942 C943 1.391 . S
C943 H931 0.950 . S
C943 C939 1.393 . S
C943 C942 1.391 . S
H944 C952 0.950 . S
H945 C957 0.950 . S
H946 C954 0.950 . S
H947 C956 0.950 . S
H948 C958 0.950 . S
H949 C960 0.950 . S
H950 C962 0.950 . S
H951 C963 0.950 . S
C952 H944 0.950 . S
C952 C953 1.386 . S
C952 C954 1.391 . S
C953 C952 1.386 . S
C953 C957 1.393 . S
C954 H946 0.950 . S
C954 C952 1.391 . S
C954 C955 1.400 . S
C955 C954 1.400 . S
C955 C956 1.398 . S
C955 C961 1.491 . S
C956 H947 0.950 . S
C956 C955 1.398 . S
C956 C957 1.391 . S
C957 H945 0.950 . S
C957 C953 1.393 . S
C957 C956 1.391 . S
C958 H948 0.950 . S
C958 C959 1.386 . S
C958 C960 1.391 . S
C959 C958 1.386 . S
C959 C963 1.393 . S
C960 H949 0.950 . S
C960 C958 1.391 . S
C960 C961 1.400 . S
C961 C955 1.491 . S
C961 C960 1.400 . S
C961 C962 1.398 . S
C962 H950 0.950 . S
C962 C961 1.398 . S
C962 C963 1.391 . S
C963 H951 0.950 . S
C963 C959 1.393 . S
C963 C962 1.391 . S
H964 C972 0.950 . S
H965 C977 0.950 . S
H966 C974 0.950 . S
H967 C976 0.950 . S
H968 C978 0.950 . S
H969 C980 0.950 . S
H970 C982 0.950 . S
H971 C983 0.950 . S
C972 H964 0.950 . S
C972 C973 1.386 . S
C972 C974 1.391 . S
C973 C972 1.386 . S
C973 C977 1.393 . S
C974 H966 0.950 . S
C974 C972 1.391 . S
C974 C975 1.400 . S
C975 C974 1.400 . S
C975 C976 1.398 . S
C975 C981 1.491 . S
C976 H967 0.950 . S
C976 C975 1.398 . S
C976 C977 1.391 . S
C977 H965 0.950 . S
C977 C973 1.393 . S
C977 C976 1.391 . S
C978 H968 0.950 . S
C978 C979 1.386 . S
C978 C980 1.391 . S
C979 C978 1.386 . S
C979 C983 1.393 . S
C980 H969 0.950 . S
C980 C978 1.391 . S
C980 C981 1.400 . S
C981 C975 1.491 . S
C981 C980 1.400 . S
C981 C982 1.398 . S
C982 H970 0.950 . S
C982 C981 1.398 . S
C982 C983 1.391 . S
C983 H971 0.950 . S
C983 C979 1.393 . S
C983 C982 1.391 . S
H984 C992 0.950 . S
H985 C997 0.950 . S
H986 C994 0.950 . S
H987 C996 0.950 . S
H988 C998 0.950 . S
H989 C1000 0.950 . S
H990 C1002 0.950 . S
H991 C1003 0.950 . S
C992 H984 0.950 . S
C992 C993 1.386 . S
C992 C994 1.391 . S
C993 C992 1.386 . S
C993 C997 1.393 . S
C994 H986 0.950 . S
C994 C992 1.391 . S
C994 C995 1.400 . S
C995 C994 1.400 . S
C995 C996 1.398 . S
C995 C1001 1.491 . S
C996 H987 0.950 . S
C996 C995 1.398 . S
C996 C997 1.391 . S
C997 H985 0.950 . S
C997 C993 1.393 . S
C997 C996 1.391 . S
C998 H988 0.950 . S
C998 C999 1.386 . S
C998 C1000 1.391 . S
C999 C998 1.386 . S
C999 C1003 1.393 . S
C1000 H989 0.950 . S
C1000 C998 1.391 . S
C1000 C1001 1.400 . S
C1001 C995 1.491 . S
C1001 C1000 1.400 . S
C1001 C1002 1.398 . S
C1002 H990 0.950 . S
C1002 C1001 1.398 . S
C1002 C1003 1.391 . S
C1003 H991 0.950 . S
C1003 C999 1.393 . S
C1003 C1002 1.391 . S
H1004 C1012 0.950 . S
H1005 C1017 0.950 . S
H1006 C1014 0.950 . S
H1007 C1016 0.950 . S
H1008 C1018 0.950 . S
H1009 C1020 0.950 . S
H1010 C1022 0.950 . S
H1011 C1023 0.950 . S
C1012 H1004 0.950 . S
C1012 C1013 1.386 . S
C1012 C1014 1.391 . S
C1013 C1012 1.386 . S
C1013 C1017 1.393 . S
C1014 H1006 0.950 . S
C1014 C1012 1.391 . S
C1014 C1015 1.400 . S
C1015 C1014 1.400 . S
C1015 C1016 1.398 . S
C1015 C1021 1.491 . S
C1016 H1007 0.950 . S
C1016 C1015 1.398 . S
C1016 C1017 1.391 . S
C1017 H1005 0.950 . S
C1017 C1013 1.393 . S
C1017 C1016 1.391 . S
C1018 H1008 0.950 . S
C1018 C1019 1.386 . S
C1018 C1020 1.391 . S
C1019 C1018 1.386 . S
C1019 C1023 1.393 . S
C1020 H1009 0.950 . S
C1020 C1018 1.391 . S
C1020 C1021 1.400 . S
C1021 C1015 1.491 . S
C1021 C1020 1.400 . S
C1021 C1022 1.398 . S
C1022 H1010 0.950 . S
C1022 C1021 1.398 . S
C1022 C1023 1.391 . S
C1023 H1011 0.950 . S
C1023 C1019 1.393 . S
C1023 C1022 1.391 . S
H1024 C1032 0.950 . S
H1025 C1037 0.950 . S
H1026 C1034 0.950 . S
H1027 C1036 0.950 . S
H1028 C1038 0.950 . S
H1029 C1040 0.950 . S
H1030 C1042 0.950 . S
H1031 C1043 0.950 . S
C1032 H1024 0.950 . S
C1032 C1033 1.386 . S
C1032 C1034 1.391 . S
C1033 C1032 1.386 . S
C1033 C1037 1.393 . S
C1034 H1026 0.950 . S
C1034 C1032 1.391 . S
C1034 C1035 1.400 . S
C1035 C1034 1.400 . S
C1035 C1036 1.398 . S
C1035 C1041 1.491 . S
C1036 H1027 0.950 . S
C1036 C1035 1.398 . S
C1036 C1037 1.391 . S
C1037 H1025 0.950 . S
C1037 C1033 1.393 . S
C1037 C1036 1.391 . S
C1038 H1028 0.950 . S
C1038 C1039 1.386 . S
C1038 C1040 1.391 . S
C1039 C1038 1.386 . S
C1039 C1043 1.393 . S
C1040 H1029 0.950 . S
C1040 C1038 1.391 . S
C1040 C1041 1.400 . S
C1041 C1035 1.491 . S
C1041 C1040 1.400 . S
C1041 C1042 1.398 . S
C1042 H1030 0.950 . S
C1042 C1041 1.398 . S
C1042 C1043 1.391 . S
C1043 H1031 0.950 . S
C1043 C1039 1.393 . S
C1043 C1042 1.391 . S
H1044 C1052 0.950 . S
H1045 C1057 0.950 . S
H1046 C1054 0.950 . S
H1047 C1056 0.950 . S
H1048 C1058 0.950 . S
H1049 C1060 0.950 . S
H1050 C1062 0.950 . S
H1051 C1063 0.950 . S
C1052 H1044 0.950 . S
C1052 C1053 1.386 . S
C1052 C1054 1.391 . S
C1053 C1052 1.386 . S
C1053 C1057 1.393 . S
C1054 H1046 0.950 . S
C1054 C1052 1.391 . S
C1054 C1055 1.400 . S
C1055 C1054 1.400 . S
C1055 C1056 1.398 . S
C1055 C1061 1.491 . S
C1056 H1047 0.950 . S
C1056 C1055 1.398 . S
C1056 C1057 1.391 . S
C1057 H1045 0.950 . S
C1057 C1053 1.393 . S
C1057 C1056 1.391 . S
C1058 H1048 0.950 . S
C1058 C1059 1.386 . S
C1058 C1060 1.391 . S
C1059 C1058 1.386 . S
C1059 C1063 1.393 . S
C1060 H1049 0.950 . S
C1060 C1058 1.391 . S
C1060 C1061 1.400 . S
C1061 C1055 1.491 . S
C1061 C1060 1.400 . S
C1061 C1062 1.398 . S
C1062 H1050 0.950 . S
C1062 C1061 1.398 . S
C1062 C1063 1.391 . S
C1063 H1051 0.950 . S
C1063 C1059 1.393 . S
C1063 C1062 1.391 . S
H1064 C1072 0.950 . S
H1065 C1077 0.950 . S
H1066 C1074 0.950 . S
H1067 C1076 0.950 . S
H1068 C1078 0.950 . S
H1069 C1080 0.950 . S
H1070 C1082 0.950 . S
H1071 C1083 0.950 . S
C1072 H1064 0.950 . S
C1072 C1073 1.386 . S
C1072 C1074 1.391 . S
C1073 C1072 1.386 . S
C1073 C1077 1.393 . S
C1074 H1066 0.950 . S
C1074 C1072 1.391 . S
C1074 C1075 1.400 . S
C1075 C1074 1.400 . S
C1075 C1076 1.398 . S
C1075 C1081 1.491 . S
C1076 H1067 0.950 . S
C1076 C1075 1.398 . S
C1076 C1077 1.391 . S
C1077 H1065 0.950 . S
C1077 C1073 1.393 . S
C1077 C1076 1.391 . S
C1078 H1068 0.950 . S
C1078 C1079 1.386 . S
C1078 C1080 1.391 . S
C1079 C1078 1.386 . S
C1079 C1083 1.393 . S
C1080 H1069 0.950 . S
C1080 C1078 1.391 . S
C1080 C1081 1.400 . S
C1081 C1075 1.491 . S
C1081 C1080 1.400 . S
C1081 C1082 1.398 . S
C1082 H1070 0.950 . S
C1082 C1081 1.398 . S
C1082 C1083 1.391 . S
C1083 H1071 0.950 . S
C1083 C1079 1.393 . S
C1083 C1082 1.391 . S
H1084 C1092 0.950 . S
H1085 C1097 0.950 . S
H1086 C1094 0.950 . S
H1087 C1096 0.950 . S
H1088 C1098 0.950 . S
H1089 C1100 0.950 . S
H1090 C1102 0.950 . S
H1091 C1103 0.950 . S
C1092 H1084 0.950 . S
C1092 C1093 1.386 . S
C1092 C1094 1.391 . S
C1093 C1092 1.386 . S
C1093 C1097 1.393 . S
C1094 H1086 0.950 . S
C1094 C1092 1.391 . S
C1094 C1095 1.400 . S
C1095 C1094 1.400 . S
C1095 C1096 1.398 . S
C1095 C1101 1.491 . S
C1096 H1087 0.950 . S
C1096 C1095 1.398 . S
C1096 C1097 1.391 . S
C1097 H1085 0.950 . S
C1097 C1093 1.393 . S
C1097 C1096 1.391 . S
C1098 H1088 0.950 . S
C1098 C1099 1.386 . S
C1098 C1100 1.391 . S
C1099 C1098 1.386 . S
C1099 C1103 1.393 . S
C1100 H1089 0.950 . S
C1100 C1098 1.391 . S
C1100 C1101 1.400 . S
C1101 C1095 1.491 . S
C1101 C1100 1.400 . S
C1101 C1102 1.398 . S
C1102 H1090 0.950 . S
C1102 C1101 1.398 . S
C1102 C1103 1.391 . S
C1103 H1091 0.950 . S
C1103 C1099 1.393 . S
C1103 C1102 1.391 . S
H1104 C1112 0.950 . S
H1105 C1117 0.950 . S
H1106 C1114 0.950 . S
H1107 C1116 0.950 . S
H1108 C1118 0.950 . S
H1109 C1120 0.950 . S
H1110 C1122 0.950 . S
H1111 C1123 0.950 . S
C1112 H1104 0.950 . S
C1112 C1113 1.386 . S
C1112 C1114 1.391 . S
C1113 C1112 1.386 . S
C1113 C1117 1.393 . S
C1114 H1106 0.950 . S
C1114 C1112 1.391 . S
C1114 C1115 1.400 . S
C1115 C1114 1.400 . S
C1115 C1116 1.398 . S
C1115 C1121 1.491 . S
C1116 H1107 0.950 . S
C1116 C1115 1.398 . S
C1116 C1117 1.391 . S
C1117 H1105 0.950 . S
C1117 C1113 1.393 . S
C1117 C1116 1.391 . S
C1118 H1108 0.950 . S
C1118 C1119 1.386 . S
C1118 C1120 1.391 . S
C1119 C1118 1.386 . S
C1119 C1123 1.393 . S
C1120 H1109 0.950 . S
C1120 C1118 1.391 . S
C1120 C1121 1.400 . S
C1121 C1115 1.491 . S
C1121 C1120 1.400 . S
C1121 C1122 1.398 . S
C1122 H1110 0.950 . S
C1122 C1121 1.398 . S
C1122 C1123 1.391 . S
C1123 H1111 0.950 . S
C1123 C1119 1.393 . S
C1123 C1122 1.391 . S
H1124 C1132 0.950 . S
H1125 C1137 0.950 . S
H1126 C1134 0.950 . S
H1127 C1136 0.950 . S
H1128 C1138 0.950 . S
H1129 C1140 0.950 . S
H1130 C1142 0.950 . S
H1131 C1143 0.950 . S
C1132 H1124 0.950 . S
C1132 C1133 1.386 . S
C1132 C1134 1.391 . S
C1133 C1132 1.386 . S
C1133 C1137 1.393 . S
C1134 H1126 0.950 . S
C1134 C1132 1.391 . S
C1134 C1135 1.400 . S
C1135 C1134 1.400 . S
C1135 C1136 1.398 . S
C1135 C1141 1.491 . S
C1136 H1127 0.950 . S
C1136 C1135 1.398 . S
C1136 C1137 1.391 . S
C1137 H1125 0.950 . S
C1137 C1133 1.393 . S
C1137 C1136 1.391 . S
C1138 H1128 0.950 . S
C1138 C1139 1.386 . S
C1138 C1140 1.391 . S
C1139 C1138 1.386 . S
C1139 C1143 1.393 . S
C1140 H1129 0.950 . S
C1140 C1138 1.391 . S
C1140 C1141 1.400 . S
C1141 C1135 1.491 . S
C1141 C1140 1.400 . S
C1141 C1142 1.398 . S
C1142 H1130 0.950 . S
C1142 C1141 1.398 . S
C1142 C1143 1.391 . S
C1143 H1131 0.950 . S
C1143 C1139 1.393 . S
C1143 C1142 1.391 . S
H1144 C1152 0.950 . S
H1145 C1157 0.950 . S
H1146 C1154 0.950 . S
H1147 C1156 0.950 . S
H1148 C1158 0.950 . S
H1149 C1160 0.950 . S
H1150 C1162 0.950 . S
H1151 C1163 0.950 . S
C1152 H1144 0.950 . S
C1152 C1153 1.386 . S
C1152 C1154 1.391 . S
C1153 C1152 1.386 . S
C1153 C1157 1.393 . S
C1154 H1146 0.950 . S
C1154 C1152 1.391 . S
C1154 C1155 1.400 . S
C1155 C1154 1.400 . S
C1155 C1156 1.398 . S
C1155 C1161 1.491 . S
C1156 H1147 0.950 . S
C1156 C1155 1.398 . S
C1156 C1157 1.391 . S
C1157 H1145 0.950 . S
C1157 C1153 1.393 . S
C1157 C1156 1.391 . S
C1158 H1148 0.950 . S
C1158 C1159 1.386 . S
C1158 C1160 1.391 . S
C1159 C1158 1.386 . S
C1159 C1163 1.393 . S
C1160 H1149 0.950 . S
C1160 C1158 1.391 . S
C1160 C1161 1.400 . S
C1161 C1155 1.491 . S
C1161 C1160 1.400 . S
C1161 C1162 1.398 . S
C1162 H1150 0.950 . S
C1162 C1161 1.398 . S
C1162 C1163 1.391 . S
C1163 H1151 0.950 . S
C1163 C1159 1.393 . S
C1163 C1162 1.391 . S
H1164 C1172 0.950 . S
H1165 C1177 0.950 . S
H1166 C1174 0.950 . S
H1167 C1176 0.950 . S
H1168 C1178 0.950 . S
H1169 C1180 0.950 . S
H1170 C1182 0.950 . S
H1171 C1183 0.950 . S
C1172 H1164 0.950 . S
C1172 C1173 1.386 . S
C1172 C1174 1.391 . S
C1173 C1172 1.386 . S
C1173 C1177 1.393 . S
C1174 H1166 0.950 . S
C1174 C1172 1.391 . S
C1174 C1175 1.400 . S
C1175 C1174 1.400 . S
C1175 C1176 1.398 . S
C1175 C1181 1.491 . S
C1176 H1167 0.950 . S
C1176 C1175 1.398 . S
C1176 C1177 1.391 . S
C1177 H1165 0.950 . S
C1177 C1173 1.393 . S
C1177 C1176 1.391 . S
C1178 H1168 0.950 . S
C1178 C1179 1.386 . S
C1178 C1180 1.391 . S
C1179 C1178 1.386 . S
C1179 C1183 1.393 . S
C1180 H1169 0.950 . S
C1180 C1178 1.391 . S
C1180 C1181 1.400 . S
C1181 C1175 1.491 . S
C1181 C1180 1.400 . S
C1181 C1182 1.398 . S
C1182 H1170 0.950 . S
C1182 C1181 1.398 . S
C1182 C1183 1.391 . S
C1183 H1171 0.950 . S
C1183 C1179 1.393 . S
C1183 C1182 1.391 . S
H1184 C1192 0.950 . S
H1185 C1197 0.950 . S
H1186 C1194 0.950 . S
H1187 C1196 0.950 . S
H1188 C1198 0.950 . S
H1189 C1200 0.950 . S
H1190 C1202 0.950 . S
H1191 C1203 0.950 . S
C1192 H1184 0.950 . S
C1192 C1193 1.386 . S
C1192 C1194 1.391 . S
C1193 C1192 1.386 . S
C1193 C1197 1.393 . S
C1194 H1186 0.950 . S
C1194 C1192 1.391 . S
C1194 C1195 1.400 . S
C1195 C1194 1.400 . S
C1195 C1196 1.398 . S
C1195 C1201 1.491 . S
C1196 H1187 0.950 . S
C1196 C1195 1.398 . S
C1196 C1197 1.391 . S
C1197 H1185 0.950 . S
C1197 C1193 1.393 . S
C1197 C1196 1.391 . S
C1198 H1188 0.950 . S
C1198 C1199 1.386 . S
C1198 C1200 1.391 . S
C1199 C1198 1.386 . S
C1199 C1203 1.393 . S
C1200 H1189 0.950 . S
C1200 C1198 1.391 . S
C1200 C1201 1.400 . S
C1201 C1195 1.491 . S
C1201 C1200 1.400 . S
C1201 C1202 1.398 . S
C1202 H1190 0.950 . S
C1202 C1201 1.398 . S
C1202 C1203 1.391 . S
C1203 H1191 0.950 . S
C1203 C1199 1.393 . S
C1203 C1202 1.391 . S
H1204 C1212 0.950 . S
H1205 C1217 0.950 . S
H1206 C1214 0.950 . S
H1207 C1216 0.950 . S
H1208 C1218 0.950 . S
H1209 C1220 0.950 . S
H1210 C1222 0.950 . S
H1211 C1223 0.950 . S
C1212 H1204 0.950 . S
C1212 C1213 1.386 . S
C1212 C1214 1.391 . S
C1213 C1212 1.386 . S
C1213 C1217 1.393 . S
C1214 H1206 0.950 . S
C1214 C1212 1.391 . S
C1214 C1215 1.400 . S
C1215 C1214 1.400 . S
C1215 C1216 1.398 . S
C1215 C1221 1.491 . S
C1216 H1207 0.950 . S
C1216 C1215 1.398 . S
C1216 C1217 1.391 . S
C1217 H1205 0.950 . S
C1217 C1213 1.393 . S
C1217 C1216 1.391 . S
C1218 H1208 0.950 . S
C1218 C1219 1.386 . S
C1218 C1220 1.391 . S
C1219 C1218 1.386 . S
C1219 C1223 1.393 . S
C1220 H1209 0.950 . S
C1220 C1218 1.391 . S
C1220 C1221 1.400 . S
C1221 C1215 1.491 . S
C1221 C1220 1.400 . S
C1221 C1222 1.398 . S
C1222 H1210 0.950 . S
C1222 C1221 1.398 . S
C1222 C1223 1.391 . S
C1223 H1211 0.950 . S
C1223 C1219 1.393 . S
C1223 C1222 1.391 . S
H1224 C1232 0.950 . S
H1225 C1237 0.950 . S
H1226 C1234 0.950 . S
H1227 C1236 0.950 . S
H1228 C1238 0.950 . S
H1229 C1240 0.950 . S
H1230 C1242 0.950 . S
H1231 C1243 0.950 . S
C1232 H1224 0.950 . S
C1232 C1233 1.386 . S
C1232 C1234 1.391 . S
C1233 C1232 1.386 . S
C1233 C1237 1.393 . S
C1234 H1226 0.950 . S
C1234 C1232 1.391 . S
C1234 C1235 1.400 . S
C1235 C1234 1.400 . S
C1235 C1236 1.398 . S
C1235 C1241 1.491 . S
C1236 H1227 0.950 . S
C1236 C1235 1.398 . S
C1236 C1237 1.391 . S
C1237 H1225 0.950 . S
C1237 C1233 1.393 . S
C1237 C1236 1.391 . S
C1238 H1228 0.950 . S
C1238 C1239 1.386 . S
C1238 C1240 1.391 . S
C1239 C1238 1.386 . S
C1239 C1243 1.393 . S
C1240 H1229 0.950 . S
C1240 C1238 1.391 . S
C1240 C1241 1.400 . S
C1241 C1235 1.491 . S
C1241 C1240 1.400 . S
C1241 C1242 1.398 . S
C1242 H1230 0.950 . S
C1242 C1241 1.398 . S
C1242 C1243 1.391 . S
C1243 H1231 0.950 . S
C1243 C1239 1.393 . S
C1243 C1242 1.391 . S
H1244 C1252 0.950 . S
H1245 C1257 0.950 . S
H1246 C1254 0.950 . S
H1247 C1256 0.950 . S
H1248 C1258 0.950 . S
H1249 C1260 0.950 . S
H1250 C1262 0.950 . S
H1251 C1263 0.950 . S
C1252 H1244 0.950 . S
C1252 C1253 1.386 . S
C1252 C1254 1.391 . S
C1253 C1252 1.386 . S
C1253 C1257 1.393 . S
C1254 H1246 0.950 . S
C1254 C1252 1.391 . S
C1254 C1255 1.400 . S
C1255 C1254 1.400 . S
C1255 C1256 1.398 . S
C1255 C1261 1.491 . S
C1256 H1247 0.950 . S
C1256 C1255 1.398 . S
C1256 C1257 1.391 . S
C1257 H1245 0.950 . S
C1257 C1253 1.393 . S
C1257 C1256 1.391 . S
C1258 H1248 0.950 . S
C1258 C1259 1.386 . S
C1258 C1260 1.391 . S
C1259 C1258 1.386 . S
C1259 C1263 1.393 . S
C1260 H1249 0.950 . S
C1260 C1258 1.391 . S
C1260 C1261 1.400 . S
C1261 C1255 1.491 . S
C1261 C1260 1.400 . S
C1261 C1262 1.398 . S
C1262 H1250 0.950 . S
C1262 C1261 1.398 . S
C1262 C1263 1.391 . S
C1263 H1251 0.950 . S
C1263 C1259 1.393 . S
C1263 C1262 1.391 . S
H1264 C1272 0.950 . S
H1265 C1277 0.950 . S
H1266 C1274 0.950 . S
H1267 C1276 0.950 . S
H1268 C1278 0.950 . S
H1269 C1280 0.950 . S
H1270 C1282 0.950 . S
H1271 C1283 0.950 . S
C1272 H1264 0.950 . S
C1272 C1273 1.386 . S
C1272 C1274 1.391 . S
C1273 C1272 1.386 . S
C1273 C1277 1.393 . S
C1274 H1266 0.950 . S
C1274 C1272 1.391 . S
C1274 C1275 1.400 . S
C1275 C1274 1.400 . S
C1275 C1276 1.398 . S
C1275 C1281 1.491 . S
C1276 H1267 0.950 . S
C1276 C1275 1.398 . S
C1276 C1277 1.391 . S
C1277 H1265 0.950 . S
C1277 C1273 1.393 . S
C1277 C1276 1.391 . S
C1278 H1268 0.950 . S
C1278 C1279 1.386 . S
C1278 C1280 1.391 . S
C1279 C1278 1.386 . S
C1279 C1283 1.393 . S
C1280 H1269 0.950 . S
C1280 C1278 1.391 . S
C1280 C1281 1.400 . S
C1281 C1275 1.491 . S
C1281 C1280 1.400 . S
C1281 C1282 1.398 . S
C1282 H1270 0.950 . S
C1282 C1281 1.398 . S
C1282 C1283 1.391 . S
C1283 H1271 0.950 . S
C1283 C1279 1.393 . S
C1283 C1282 1.391 . S
H1284 C1292 0.950 . S
H1285 C1297 0.950 . S
H1286 C1294 0.950 . S
H1287 C1296 0.950 . S
H1288 C1298 0.950 . S
H1289 C1300 0.950 . S
H1290 C1302 0.950 . S
H1291 C1303 0.950 . S
C1292 H1284 0.950 . S
C1292 C1293 1.386 . S
C1292 C1294 1.391 . S
C1293 C1292 1.386 . S
C1293 C1297 1.393 . S
C1294 H1286 0.950 . S
C1294 C1292 1.391 . S
C1294 C1295 1.400 . S
C1295 C1294 1.400 . S
C1295 C1296 1.398 . S
C1295 C1301 1.491 . S
C1296 H1287 0.950 . S
C1296 C1295 1.398 . S
C1296 C1297 1.391 . S
C1297 H1285 0.950 . S
C1297 C1293 1.393 . S
C1297 C1296 1.391 . S
C1298 H1288 0.950 . S
C1298 C1299 1.386 . S
C1298 C1300 1.391 . S
C1299 C1298 1.386 . S
C1299 C1303 1.393 . S
C1300 H1289 0.950 . S
C1300 C1298 1.391 . S
C1300 C1301 1.400 . S
C1301 C1295 1.491 . S
C1301 C1300 1.400 . S
C1301 C1302 1.398 . S
C1302 H1290 0.950 . S
C1302 C1301 1.398 . S
C1302 C1303 1.391 . S
C1303 H1291 0.950 . S
C1303 C1299 1.393 . S
C1303 C1302 1.391 . S
H1304 C1312 0.950 . S
H1305 C1317 0.950 . S
H1306 C1314 0.950 . S
H1307 C1316 0.950 . S
H1308 C1318 0.950 . S
H1309 C1320 0.950 . S
H1310 C1322 0.950 . S
H1311 C1323 0.950 . S
C1312 H1304 0.950 . S
C1312 C1313 1.386 . S
C1312 C1314 1.391 . S
C1313 C1312 1.386 . S
C1313 C1317 1.393 . S
C1314 H1306 0.950 . S
C1314 C1312 1.391 . S
C1314 C1315 1.400 . S
C1315 C1314 1.400 . S
C1315 C1316 1.398 . S
C1315 C1321 1.491 . S
C1316 H1307 0.950 . S
C1316 C1315 1.398 . S
C1316 C1317 1.391 . S
C1317 H1305 0.950 . S
C1317 C1313 1.393 . S
C1317 C1316 1.391 . S
C1318 H1308 0.950 . S
C1318 C1319 1.386 . S
C1318 C1320 1.391 . S
C1319 C1318 1.386 . S
C1319 C1323 1.393 . S
C1320 H1309 0.950 . S
C1320 C1318 1.391 . S
C1320 C1321 1.400 . S
C1321 C1315 1.491 . S
C1321 C1320 1.400 . S
C1321 C1322 1.398 . S
C1322 H1310 0.950 . S
C1322 C1321 1.398 . S
C1322 C1323 1.391 . S
C1323 H1311 0.950 . S
C1323 C1319 1.393 . S
C1323 C1322 1.391 . S
H1324 C1332 0.950 . S
H1325 C1337 0.950 . S
H1326 C1334 0.950 . S
H1327 C1336 0.950 . S
H1328 C1338 0.950 . S
H1329 C1340 0.950 . S
H1330 C1342 0.950 . S
H1331 C1343 0.950 . S
C1332 H1324 0.950 . S
C1332 C1333 1.386 . S
C1332 C1334 1.391 . S
C1333 C1332 1.386 . S
C1333 C1337 1.393 . S
C1334 H1326 0.950 . S
C1334 C1332 1.391 . S
C1334 C1335 1.400 . S
C1335 C1334 1.400 . S
C1335 C1336 1.398 . S
C1335 C1341 1.491 . S
C1336 H1327 0.950 . S
C1336 C1335 1.398 . S
C1336 C1337 1.391 . S
C1337 H1325 0.950 . S
C1337 C1333 1.393 . S
C1337 C1336 1.391 . S
C1338 H1328 0.950 . S
C1338 C1339 1.386 . S
C1338 C1340 1.391 . S
C1339 C1338 1.386 . S
C1339 C1343 1.393 . S
C1340 H1329 0.950 . S
C1340 C1338 1.391 . S
C1340 C1341 1.400 . S
C1341 C1335 1.491 . S
C1341 C1340 1.400 . S
C1341 C1342 1.398 . S
C1342 H1330 0.950 . S
C1342 C1341 1.398 . S
C1342 C1343 1.391 . S
C1343 H1331 0.950 . S
C1343 C1339 1.393 . S
C1343 C1342 1.391 . S
H1344 C1352 0.950 . S
H1345 C1357 0.950 . S
H1346 C1354 0.950 . S
H1347 C1356 0.950 . S
H1348 C1358 0.950 . S
H1349 C1360 0.950 . S
H1350 C1362 0.950 . S
H1351 C1363 0.950 . S
C1352 H1344 0.950 . S
C1352 C1353 1.386 . S
C1352 C1354 1.391 . S
C1353 C1352 1.386 . S
C1353 C1357 1.393 . S
C1354 H1346 0.950 . S
C1354 C1352 1.391 . S
C1354 C1355 1.400 . S
C1355 C1354 1.400 . S
C1355 C1356 1.398 . S
C1355 C1361 1.491 . S
C1356 H1347 0.950 . S
C1356 C1355 1.398 . S
C1356 C1357 1.391 . S
C1357 H1345 0.950 . S
C1357 C1353 1.393 . S
C1357 C1356 1.391 . S
C1358 H1348 0.950 . S
C1358 C1359 1.386 . S
C1358 C1360 1.391 . S
C1359 C1358 1.386 . S
C1359 C1363 1.393 . S
C1360 H1349 0.950 . S
C1360 C1358 1.391 . S
C1360 C1361 1.400 . S
C1361 C1355 1.491 . S
C1361 C1360 1.400 . S
C1361 C1362 1.398 . S
C1362 H1350 0.950 . S
C1362 C1361 1.398 . S
C1362 C1363 1.391 . S
C1363 H1351 0.950 . S
C1363 C1359 1.393 . S
C1363 C1362 1.391 . S
H1364 C1372 0.950 . S
H1365 C1377 0.950 . S
H1366 C1374 0.950 . S
H1367 C1376 0.950 . S
H1368 C1378 0.950 . S
H1369 C1380 0.950 . S
H1370 C1382 0.950 . S
H1371 C1383 0.950 . S
C1372 H1364 0.950 . S
C1372 C1373 1.386 . S
C1372 C1374 1.391 . S
C1373 C1372 1.386 . S
C1373 C1377 1.393 . S
C1374 H1366 0.950 . S
C1374 C1372 1.391 . S
C1374 C1375 1.400 . S
C1375 C1374 1.400 . S
C1375 C1376 1.398 . S
C1375 C1381 1.491 . S
C1376 H1367 0.950 . S
C1376 C1375 1.398 . S
C1376 C1377 1.391 . S
C1377 H1365 0.950 . S
C1377 C1373 1.393 . S
C1377 C1376 1.391 . S
C1378 H1368 0.950 . S
C1378 C1379 1.386 . S
C1378 C1380 1.391 . S
C1379 C1378 1.386 . S
C1379 C1383 1.393 . S
C1380 H1369 0.950 . S
C1380 C1378 1.391 . S
C1380 C1381 1.400 . S
C1381 C1375 1.491 . S
C1381 C1380 1.400 . S
C1381 C1382 1.398 . S
C1382 H1370 0.950 . S
C1382 C1381 1.398 . S
C1382 C1383 1.391 . S
C1383 H1371 0.950 . S
C1383 C1379 1.393 . S
C1383 C1382 1.391 . S
H1384 C1392 0.950 . S
H1385 C1397 0.950 . S
H1386 C1394 0.950 . S
H1387 C1396 0.950 . S
H1388 C1398 0.950 . S
H1389 C1400 0.950 . S
H1390 C1402 0.950 . S
H1391 C1403 0.950 . S
C1392 H1384 0.950 . S
C1392 C1393 1.386 . S
C1392 C1394 1.391 . S
C1393 C1392 1.386 . S
C1393 C1397 1.393 . S
C1394 H1386 0.950 . S
C1394 C1392 1.391 . S
C1394 C1395 1.400 . S
C1395 C1394 1.400 . S
C1395 C1396 1.398 . S
C1395 C1401 1.491 . S
C1396 H1387 0.950 . S
C1396 C1395 1.398 . S
C1396 C1397 1.391 . S
C1397 H1385 0.950 . S
C1397 C1393 1.393 . S
C1397 C1396 1.391 . S
C1398 H1388 0.950 . S
C1398 C1399 1.386 . S
C1398 C1400 1.391 . S
C1399 C1398 1.386 . S
C1399 C1403 1.393 . S
C1400 H1389 0.950 . S
C1400 C1398 1.391 . S
C1400 C1401 1.400 . S
C1401 C1395 1.491 . S
C1401 C1400 1.400 . S
C1401 C1402 1.398 . S
C1402 H1390 0.950 . S
C1402 C1401 1.398 . S
C1402 C1403 1.391 . S
C1403 H1391 0.950 . S
C1403 C1399 1.393 . S
C1403 C1402 1.391 . S
H1404 C1412 0.950 . S
H1405 C1417 0.950 . S
H1406 C1414 0.950 . S
H1407 C1416 0.950 . S
H1408 C1418 0.950 . S
H1409 C1420 0.950 . S
H1410 C1422 0.950 . S
H1411 C1423 0.950 . S
C1412 H1404 0.950 . S
C1412 C1413 1.386 . S
C1412 C1414 1.391 . S
C1413 C1412 1.386 . S
C1413 C1417 1.393 . S
C1414 H1406 0.950 . S
C1414 C1412 1.391 . S
C1414 C1415 1.400 . S
C1415 C1414 1.400 . S
C1415 C1416 1.398 . S
C1415 C1421 1.491 . S
C1416 H1407 0.950 . S
C1416 C1415 1.398 . S
C1416 C1417 1.391 . S
C1417 H1405 0.950 . S
C1417 C1413 1.393 . S
C1417 C1416 1.391 . S
C1418 H1408 0.950 . S
C1418 C1419 1.386 . S
C1418 C1420 1.391 . S
C1419 C1418 1.386 . S
C1419 C1423 1.393 . S
C1420 H1409 0.950 . S
C1420 C1418 1.391 . S
C1420 C1421 1.400 . S
C1421 C1415 1.491 . S
C1421 C1420 1.400 . S
C1421 C1422 1.398 . S
C1422 H1410 0.950 . S
C1422 C1421 1.398 . S
C1422 C1423 1.391 . S
C1423 H1411 0.950 . S
C1423 C1419 1.393 . S
C1423 C1422 1.391 . S
H1424 C1432 0.950 . S
H1425 C1437 0.950 . S
H1426 C1434 0.950 . S
H1427 C1436 0.950 . S
H1428 C1438 0.950 . S
H1429 C1440 0.950 . S
H1430 C1442 0.950 . S
H1431 C1443 0.950 . S
C1432 H1424 0.950 . S
C1432 C1433 1.386 . S
C1432 C1434 1.391 . S
C1433 C1432 1.386 . S
C1433 C1437 1.393 . S
C1434 H1426 0.950 . S
C1434 C1432 1.391 . S
C1434 C1435 1.400 . S
C1435 C1434 1.400 . S
C1435 C1436 1.398 . S
C1435 C1441 1.491 . S
C1436 H1427 0.950 . S
C1436 C1435 1.398 . S
C1436 C1437 1.391 . S
C1437 H1425 0.950 . S
C1437 C1433 1.393 . S
C1437 C1436 1.391 . S
C1438 H1428 0.950 . S
C1438 C1439 1.386 . S
C1438 C1440 1.391 . S
C1439 C1438 1.386 . S
C1439 C1443 1.393 . S
C1440 H1429 0.950 . S
C1440 C1438 1.391 . S
C1440 C1441 1.400 . S
C1441 C1435 1.491 . S
C1441 C1440 1.400 . S
C1441 C1442 1.398 . S
C1442 H1430 0.950 . S
C1442 C1441 1.398 . S
C1442 C1443 1.391 . S
C1443 H1431 0.950 . S
C1443 C1439 1.393 . S
C1443 C1442 1.391 . S
C499 C195 1.574 . S
C493 C9 1.556 . S
C519 C173 2.176 . S
C513 C28 2.194 . S
C539 C170 0.600 . S
C533 C49 0.622 . S
C553 C79 2.192 . S
C559 C182 2.187 . S
C573 C99 2.190 . S
C579 C165 2.173 . S
C599 C187 0.594 . S
C593 C101 0.580 . S
C613 C128 2.197 . S
C619 C192 2.191 . S
C633 C141 1.552 . S
C639 C188 1.583 . S
C659 C246 1.423 . S
C653 C16 1.440 . S
C673 C26 1.013 . S
C679 C296 1.053 . S
C699 C219 1.403 . S
C693 C56 1.420 . S
C719 C295 0.639 . S
C713 C69 0.638 . S
C733 C89 0.687 . S
C739 C224 0.641 . S
C759 C290 2.172 . S
C753 C108 2.178 . S
C773 C126 0.998 . S
C779 C249 1.067 . S
C793 C148 2.201 . S
C799 C281 2.177 . S
C813 C19 2.208 . S
C819 C273 2.184 . S
C833 C96 1.028 . S
C839 C303 1.059 . S
C859 C227 1.409 . S
C853 C106 1.428 . S
C879 C278 0.641 . S
C873 C121 0.689 . S
C893 C146 1.464 . S
C899 C236 1.451 . S
C913 C59 2.202 . S
C919 C300 2.194 . S
C939 C242 1.072 . S
C933 C76 1.028 . S
C953 C21 0.649 . S
C959 C241 0.661 . S
C973 C149 1.566 . S
C979 C357 1.579 . S
C993 C88 2.184 . S
C999 C335 2.185 . S
C1019 C332 0.606 . S
C1013 C109 0.598 . S
C1039 C344 2.194 . S
C1033 C139 2.197 . S
C1053 C39 2.183 . S
C1059 C327 2.173 . S
C1079 C349 0.580 . S
C1073 C41 0.608 . S
C1093 C68 2.193 . S
C1099 C354 2.204 . S
C1113 C1 1.566 . S
C1119 C350 1.577 . S
C1133 C156 1.460 . S
C1139 C408 1.445 . S
C1159 C458 1.025 . S
C1153 C86 0.973 . S
C1173 C116 1.430 . S
C1179 C381 1.408 . S
C1193 C129 0.681 . S
C1199 C457 0.631 . S
C1219 C386 0.647 . S
C1213 C29 0.637 . S
C1233 C48 2.181 . S
C1239 C452 2.175 . S
C1259 C411 1.085 . S
C1253 C66 1.038 . S
C1279 C443 2.187 . S
C1273 C8 2.206 . S
C1299 C435 2.170 . S
C1293 C159 2.192 . S
C1313 C36 1.026 . S
C1319 C465 1.053 . S
C1333 C46 1.442 . S
C1339 C389 1.431 . S
C1359 C440 0.643 . S
C1353 C61 0.682 . S
C1373 C6 1.469 . S
C1379 C398 1.455 . S
C1393 C119 2.186 . S
C1399 C462 2.182 . S
C1419 C404 1.070 . S
C1413 C136 1.002 . S
C1439 C403 0.651 . S
C1433 C81 0.696 . S
