# Generated by pormake.
# Topology gar, (4,6)-cn, num edge types: 1
# Building blocks:
#     Node 0, Type 0, BuildingBlock: GALJAG_clean_sbu_0, # of connection points: 4
#     Node 1, Type 0, BuildingBlock: GALJAG_clean_sbu_0, # of connection points: 4
#     Node 2, Type 0, BuildingBlock: GALJAG_clean_sbu_0, # of connection points: 4
#     Node 3, Type 0, BuildingBlock: GALJAG_clean_sbu_0, # of connection points: 4
#     Node 4, Type 0, BuildingBlock: GALJAG_clean_sbu_0, # of connection points: 4
#     Node 5, Type 0, BuildingBlock: GALJAG_clean_sbu_0, # of connection points: 4
#     Node 6, Type 0, BuildingBlock: GALJAG_clean_sbu_0, # of connection points: 4
#     Node 7, Type 0, BuildingBlock: GALJAG_clean_sbu_0, # of connection points: 4
#     Node 8, Type 0, BuildingBlock: GALJAG_clean_sbu_0, # of connection points: 4
#     Node 9, Type 0, BuildingBlock: GALJAG_clean_sbu_0, # of connection points: 4
#     Node 10, Type 0, BuildingBlock: GALJAG_clean_sbu_0, # of connection points: 4
#     Node 11, Type 0, BuildingBlock: GALJAG_clean_sbu_0, # of connection points: 4
#     Node 12, Type 0, BuildingBlock: GALJAG_clean_sbu_0, # of connection points: 4
#     Node 13, Type 0, BuildingBlock: GALJAG_clean_sbu_0, # of connection points: 4
#     Node 14, Type 0, BuildingBlock: GALJAG_clean_sbu_0, # of connection points: 4
#     Node 15, Type 0, BuildingBlock: GALJAG_clean_sbu_0, # of connection points: 4
#     Node 16, Type 0, BuildingBlock: GALJAG_clean_sbu_0, # of connection points: 4
#     Node 17, Type 0, BuildingBlock: GALJAG_clean_sbu_0, # of connection points: 4
#     Node 18, Type 0, BuildingBlock: GALJAG_clean_sbu_0, # of connection points: 4
#     Node 19, Type 0, BuildingBlock: GALJAG_clean_sbu_0, # of connection points: 4
#     Node 20, Type 0, BuildingBlock: GALJAG_clean_sbu_0, # of connection points: 4
#     Node 21, Type 0, BuildingBlock: GALJAG_clean_sbu_0, # of connection points: 4
#     Node 22, Type 0, BuildingBlock: GALJAG_clean_sbu_0, # of connection points: 4
#     Node 23, Type 0, BuildingBlock: GALJAG_clean_sbu_0, # of connection points: 4
#     Node 24, Type 1, BuildingBlock: KUMJIN_clean_sbu_0, # of connection points: 6
#     Node 25, Type 1, BuildingBlock: KUMJIN_clean_sbu_0, # of connection points: 6
#     Node 26, Type 1, BuildingBlock: KUMJIN_clean_sbu_0, # of connection points: 6
#     Node 27, Type 1, BuildingBlock: KUMJIN_clean_sbu_0, # of connection points: 6
#     Node 28, Type 1, BuildingBlock: KUMJIN_clean_sbu_0, # of connection points: 6
#     Node 29, Type 1, BuildingBlock: KUMJIN_clean_sbu_0, # of connection points: 6
#     Node 30, Type 1, BuildingBlock: KUMJIN_clean_sbu_0, # of connection points: 6
#     Node 31, Type 1, BuildingBlock: KUMJIN_clean_sbu_0, # of connection points: 6
#     Node 32, Type 1, BuildingBlock: KUMJIN_clean_sbu_0, # of connection points: 6
#     Node 33, Type 1, BuildingBlock: KUMJIN_clean_sbu_0, # of connection points: 6
#     Node 34, Type 1, BuildingBlock: KUMJIN_clean_sbu_0, # of connection points: 6
#     Node 35, Type 1, BuildingBlock: KUMJIN_clean_sbu_0, # of connection points: 6
#     Node 36, Type 1, BuildingBlock: KUMJIN_clean_sbu_0, # of connection points: 6
#     Node 37, Type 1, BuildingBlock: KUMJIN_clean_sbu_0, # of connection points: 6
#     Node 38, Type 1, BuildingBlock: KUMJIN_clean_sbu_0, # of connection points: 6
#     Node 39, Type 1, BuildingBlock: KUMJIN_clean_sbu_0, # of connection points: 6
#     Edge 40, Type (0, 1), BuildingBlock: KIFKEQ_clean_linker_1, # of connection points: 2
#     Edge 41, Type (0, 1), BuildingBlock: KIFKEQ_clean_linker_1, # of connection points: 2
#     Edge 42, Type (0, 1), BuildingBlock: KIFKEQ_clean_linker_1, # of connection points: 2
#     Edge 43, Type (0, 1), BuildingBlock: KIFKEQ_clean_linker_1, # of connection points: 2
#     Edge 44, Type (0, 1), BuildingBlock: KIFKEQ_clean_linker_1, # of connection points: 2
#     Edge 45, Type (0, 1), BuildingBlock: KIFKEQ_clean_linker_1, # of connection points: 2
#     Edge 46, Type (0, 1), BuildingBlock: KIFKEQ_clean_linker_1, # of connection points: 2
#     Edge 47, Type (0, 1), BuildingBlock: KIFKEQ_clean_linker_1, # of connection points: 2
#     Edge 48, Type (0, 1), BuildingBlock: KIFKEQ_clean_linker_1, # of connection points: 2
#     Edge 49, Type (0, 1), BuildingBlock: KIFKEQ_clean_linker_1, # of connection points: 2
#     Edge 50, Type (0, 1), BuildingBlock: KIFKEQ_clean_linker_1, # of connection points: 2
#     Edge 51, Type (0, 1), BuildingBlock: KIFKEQ_clean_linker_1, # of connection points: 2
#     Edge 52, Type (0, 1), BuildingBlock: KIFKEQ_clean_linker_1, # of connection points: 2
#     Edge 53, Type (0, 1), BuildingBlock: KIFKEQ_clean_linker_1, # of connection points: 2
#     Edge 54, Type (0, 1), BuildingBlock: KIFKEQ_clean_linker_1, # of connection points: 2
#     Edge 55, Type (0, 1), BuildingBlock: KIFKEQ_clean_linker_1, # of connection points: 2
#     Edge 56, Type (0, 1), BuildingBlock: KIFKEQ_clean_linker_1, # of connection points: 2
#     Edge 57, Type (0, 1), BuildingBlock: KIFKEQ_clean_linker_1, # of connection points: 2
#     Edge 58, Type (0, 1), BuildingBlock: KIFKEQ_clean_linker_1, # of connection points: 2
#     Edge 59, Type (0, 1), BuildingBlock: KIFKEQ_clean_linker_1, # of connection points: 2
#     Edge 60, Type (0, 1), BuildingBlock: KIFKEQ_clean_linker_1, # of connection points: 2
#     Edge 61, Type (0, 1), BuildingBlock: KIFKEQ_clean_linker_1, # of connection points: 2
#     Edge 62, Type (0, 1), BuildingBlock: KIFKEQ_clean_linker_1, # of connection points: 2
#     Edge 63, Type (0, 1), BuildingBlock: KIFKEQ_clean_linker_1, # of connection points: 2
#     Edge 64, Type (0, 1), BuildingBlock: KIFKEQ_clean_linker_1, # of connection points: 2
#     Edge 65, Type (0, 1), BuildingBlock: KIFKEQ_clean_linker_1, # of connection points: 2
#     Edge 66, Type (0, 1), BuildingBlock: KIFKEQ_clean_linker_1, # of connection points: 2
#     Edge 67, Type (0, 1), BuildingBlock: KIFKEQ_clean_linker_1, # of connection points: 2
#     Edge 68, Type (0, 1), BuildingBlock: KIFKEQ_clean_linker_1, # of connection points: 2
#     Edge 69, Type (0, 1), BuildingBlock: KIFKEQ_clean_linker_1, # of connection points: 2
#     Edge 70, Type (0, 1), BuildingBlock: KIFKEQ_clean_linker_1, # of connection points: 2
#     Edge 71, Type (0, 1), BuildingBlock: KIFKEQ_clean_linker_1, # of connection points: 2
#     Edge 72, Type (0, 1), BuildingBlock: KIFKEQ_clean_linker_1, # of connection points: 2
#     Edge 73, Type (0, 1), BuildingBlock: KIFKEQ_clean_linker_1, # of connection points: 2
#     Edge 74, Type (0, 1), BuildingBlock: KIFKEQ_clean_linker_1, # of connection points: 2
#     Edge 75, Type (0, 1), BuildingBlock: KIFKEQ_clean_linker_1, # of connection points: 2
#     Edge 76, Type (0, 1), BuildingBlock: KIFKEQ_clean_linker_1, # of connection points: 2
#     Edge 77, Type (0, 1), BuildingBlock: KIFKEQ_clean_linker_1, # of connection points: 2
#     Edge 78, Type (0, 1), BuildingBlock: KIFKEQ_clean_linker_1, # of connection points: 2
#     Edge 79, Type (0, 1), BuildingBlock: KIFKEQ_clean_linker_1, # of connection points: 2
#     Edge 80, Type (0, 1), BuildingBlock: KIFKEQ_clean_linker_1, # of connection points: 2
#     Edge 81, Type (0, 1), BuildingBlock: KIFKEQ_clean_linker_1, # of connection points: 2
#     Edge 82, Type (0, 1), BuildingBlock: KIFKEQ_clean_linker_1, # of connection points: 2
#     Edge 83, Type (0, 1), BuildingBlock: KIFKEQ_clean_linker_1, # of connection points: 2
#     Edge 84, Type (0, 1), BuildingBlock: KIFKEQ_clean_linker_1, # of connection points: 2
#     Edge 85, Type (0, 1), BuildingBlock: KIFKEQ_clean_linker_1, # of connection points: 2
#     Edge 86, Type (0, 1), BuildingBlock: KIFKEQ_clean_linker_1, # of connection points: 2
#     Edge 87, Type (0, 1), BuildingBlock: KIFKEQ_clean_linker_1, # of connection points: 2
#     Edge 88, Type (0, 1), BuildingBlock: KIFKEQ_clean_linker_1, # of connection points: 2
#     Edge 89, Type (0, 1), BuildingBlock: KIFKEQ_clean_linker_1, # of connection points: 2
#     Edge 90, Type (0, 1), BuildingBlock: KIFKEQ_clean_linker_1, # of connection points: 2
#     Edge 91, Type (0, 1), BuildingBlock: KIFKEQ_clean_linker_1, # of connection points: 2
#     Edge 92, Type (0, 1), BuildingBlock: KIFKEQ_clean_linker_1, # of connection points: 2
#     Edge 93, Type (0, 1), BuildingBlock: KIFKEQ_clean_linker_1, # of connection points: 2
#     Edge 94, Type (0, 1), BuildingBlock: KIFKEQ_clean_linker_1, # of connection points: 2
#     Edge 95, Type (0, 1), BuildingBlock: KIFKEQ_clean_linker_1, # of connection points: 2
#     Edge 96, Type (0, 1), BuildingBlock: KIFKEQ_clean_linker_1, # of connection points: 2
#     Edge 97, Type (0, 1), BuildingBlock: KIFKEQ_clean_linker_1, # of connection points: 2
#     Edge 98, Type (0, 1), BuildingBlock: KIFKEQ_clean_linker_1, # of connection points: 2
#     Edge 99, Type (0, 1), BuildingBlock: KIFKEQ_clean_linker_1, # of connection points: 2
#     Edge 100, Type (0, 1), BuildingBlock: KIFKEQ_clean_linker_1, # of connection points: 2
#     Edge 101, Type (0, 1), BuildingBlock: KIFKEQ_clean_linker_1, # of connection points: 2
#     Edge 102, Type (0, 1), BuildingBlock: KIFKEQ_clean_linker_1, # of connection points: 2
#     Edge 103, Type (0, 1), BuildingBlock: KIFKEQ_clean_linker_1, # of connection points: 2
#     Edge 104, Type (0, 1), BuildingBlock: KIFKEQ_clean_linker_1, # of connection points: 2
#     Edge 105, Type (0, 1), BuildingBlock: KIFKEQ_clean_linker_1, # of connection points: 2
#     Edge 106, Type (0, 1), BuildingBlock: KIFKEQ_clean_linker_1, # of connection points: 2
#     Edge 107, Type (0, 1), BuildingBlock: KIFKEQ_clean_linker_1, # of connection points: 2
#     Edge 108, Type (0, 1), BuildingBlock: KIFKEQ_clean_linker_1, # of connection points: 2
#     Edge 109, Type (0, 1), BuildingBlock: KIFKEQ_clean_linker_1, # of connection points: 2
#     Edge 110, Type (0, 1), BuildingBlock: KIFKEQ_clean_linker_1, # of connection points: 2
#     Edge 111, Type (0, 1), BuildingBlock: KIFKEQ_clean_linker_1, # of connection points: 2
#     Edge 112, Type (0, 1), BuildingBlock: KIFKEQ_clean_linker_1, # of connection points: 2
#     Edge 113, Type (0, 1), BuildingBlock: KIFKEQ_clean_linker_1, # of connection points: 2
#     Edge 114, Type (0, 1), BuildingBlock: KIFKEQ_clean_linker_1, # of connection points: 2
#     Edge 115, Type (0, 1), BuildingBlock: KIFKEQ_clean_linker_1, # of connection points: 2
#     Edge 116, Type (0, 1), BuildingBlock: KIFKEQ_clean_linker_1, # of connection points: 2
#     Edge 117, Type (0, 1), BuildingBlock: KIFKEQ_clean_linker_1, # of connection points: 2
#     Edge 118, Type (0, 1), BuildingBlock: KIFKEQ_clean_linker_1, # of connection points: 2
#     Edge 119, Type (0, 1), BuildingBlock: KIFKEQ_clean_linker_1, # of connection points: 2
#     Edge 120, Type (0, 1), BuildingBlock: KIFKEQ_clean_linker_1, # of connection points: 2
#     Edge 121, Type (0, 1), BuildingBlock: KIFKEQ_clean_linker_1, # of connection points: 2
#     Edge 122, Type (0, 1), BuildingBlock: KIFKEQ_clean_linker_1, # of connection points: 2
#     Edge 123, Type (0, 1), BuildingBlock: KIFKEQ_clean_linker_1, # of connection points: 2
#     Edge 124, Type (0, 1), BuildingBlock: KIFKEQ_clean_linker_1, # of connection points: 2
#     Edge 125, Type (0, 1), BuildingBlock: KIFKEQ_clean_linker_1, # of connection points: 2
#     Edge 126, Type (0, 1), BuildingBlock: KIFKEQ_clean_linker_1, # of connection points: 2
#     Edge 127, Type (0, 1), BuildingBlock: KIFKEQ_clean_linker_1, # of connection points: 2
#     Edge 128, Type (0, 1), BuildingBlock: KIFKEQ_clean_linker_1, # of connection points: 2
#     Edge 129, Type (0, 1), BuildingBlock: KIFKEQ_clean_linker_1, # of connection points: 2
#     Edge 130, Type (0, 1), BuildingBlock: KIFKEQ_clean_linker_1, # of connection points: 2
#     Edge 131, Type (0, 1), BuildingBlock: KIFKEQ_clean_linker_1, # of connection points: 2
#     Edge 132, Type (0, 1), BuildingBlock: KIFKEQ_clean_linker_1, # of connection points: 2
#     Edge 133, Type (0, 1), BuildingBlock: KIFKEQ_clean_linker_1, # of connection points: 2
#     Edge 134, Type (0, 1), BuildingBlock: KIFKEQ_clean_linker_1, # of connection points: 2
#     Edge 135, Type (0, 1), BuildingBlock: KIFKEQ_clean_linker_1, # of connection points: 2
# Relax obj value: 0.136
# Max RMSD: 0.323
# Mean RMSD: 0.168
data_MOF--net-gar--node1-GALJAG_clean_sbu_0--node2-KUMJIN_clean_sbu_0--edge1-KIFKEQ_clean_linker_1
_symmetry_space_group_name_H-M    P1
_symmetry_Int_Tables_number       1
_symmetry_cell_setting            triclinic
loop_
_symmetry_equiv_pos_as_xyz
'x, y, z'
_cell_length_a     62.344263
_cell_length_b     57.278709
_cell_length_c     57.625015
_cell_angle_alpha  99.584417
_cell_angle_beta   93.466051
_cell_angle_gamma 101.7961
loop_
_atom_site_label
_atom_site_type_symbol
_atom_site_fract_x
_atom_site_fract_y
_atom_site_fract_z
_atom_type_partial_charge
In0 In 0.1235 0.33689 0.39294 0.0
O1 O 0.13933 0.33746 0.35907 0.0
O2 O 0.15868 0.33446 0.38993 0.0
C3 C 0.08217 0.33279 0.37476 0.0
C4 C 0.12012 0.297 0.4123 0.0
C5 C 0.13057 0.38288 0.41444 0.0
O6 O 0.09712 0.32785 0.36222 0.0
O7 O 0.08793 0.33905 0.39662 0.0
O8 O 0.12749 0.36546 0.42554 0.0
O9 O 0.13171 0.37707 0.39259 0.0
C10 C 0.15752 0.33522 0.36815 0.0
O11 O 0.12806 0.31802 0.42403 0.0
O12 O 0.1141 0.29621 0.39082 0.0
In13 In 1.00442 0.756 0.66232 0.0
O14 O 0.01517 0.76851 0.629 0.0
O15 O 1.00541 0.7941 0.65526 0.0
C16 C 0.98938 0.7098 0.64291 0.0
C17 C 0.04575 0.75827 0.6796 0.0
C18 C 0.96953 0.75861 0.6857 0.0
O19 O 0.98845 0.72676 0.63158 0.0
O20 O 0.99778 0.71633 0.66411 0.0
O21 O 0.98844 0.76211 0.6967 0.0
O22 O 0.9688 0.75513 0.6635 0.0
C23 C 0.01281 0.7899 0.63547 0.0
O24 O 0.03564 0.77468 0.68688 0.0
O25 O 0.03475 0.74067 0.66475 0.0
In26 In 0.62488 0.83674 0.8939 0.0
O27 O 0.63519 0.8319 0.85724 0.0
O28 O 0.66012 0.83722 0.88579 0.0
C29 C 0.58466 0.83697 0.87546 0.0
C30 C 0.61961 0.7951 0.91057 0.0
C31 C 0.63322 0.88173 0.91874 0.0
O32 O 0.59989 0.83262 0.86307 0.0
O33 O 0.58965 0.84115 0.89756 0.0
O34 O 0.62823 0.86341 0.92844 0.0
O35 O 0.63557 0.87708 0.89703 0.0
C36 C 0.65519 0.83378 0.86371 0.0
O37 O 0.63523 0.8129 0.9189 0.0
O38 O 0.60719 0.79839 0.89399 0.0
In39 In 0.50563 0.25753 0.16585 0.0
O40 O 0.48979 0.22445 0.1391 0.0
O41 O 0.50784 0.21944 0.16992 0.0
C42 C 0.50917 0.29026 0.13751 0.0
C43 C 0.47033 0.26025 0.18882 0.0
C44 C 0.5482 0.26223 0.17978 0.0
O45 O 0.50615 0.26776 0.12997 0.0
O46 O 0.50943 0.29642 0.15965 0.0
O47 O 0.5339 0.26259 0.19451 0.0
O48 O 0.54097 0.26019 0.15849 0.0
C49 C 0.49665 0.20994 0.15042 0.0
O50 O 0.48929 0.27148 0.19829 0.0
O51 O 0.46958 0.24865 0.16815 0.0
In52 In 0.0988 0.81347 0.11312 0.0
O53 O 0.08529 0.77996 0.08144 0.0
O54 O 0.1043 0.77411 0.11032 0.0
C55 C 0.09745 0.85472 0.09217 0.0
C56 C 0.06158 0.80827 0.13622 0.0
C57 C 0.13747 0.82193 0.14325 0.0
O58 O 0.11084 0.84116 0.08687 0.0
O59 O 0.0854 0.84752 0.10738 0.0
O60 O 0.11921 0.82497 0.1502 0.0
O61 O 0.13664 0.81592 0.12097 0.0
C62 C 0.09322 0.76468 0.09083 0.0
O63 O 0.08052 0.81802 0.14661 0.0
O64 O 0.06147 0.80058 0.11436 0.0
In65 In 0.52121 0.77142 0.43348 0.0
O66 O 0.5406 0.76858 0.39998 0.0
O67 O 0.55915 0.77521 0.4332 0.0
C68 C 0.48066 0.7699 0.40739 0.0
C69 C 0.52429 0.73128 0.45483 0.0
C70 C 0.52748 0.81814 0.45919 0.0
O71 O 0.49935 0.77481 0.3998 0.0
O72 O 0.482 0.76415 0.42762 0.0
O73 O 0.51501 0.80017 0.46504 0.0
O74 O 0.53708 0.81242 0.44119 0.0
C75 C 0.55951 0.77208 0.41102 0.0
O76 O 0.52608 0.75251 0.46635 0.0
O77 O 0.51947 0.72992 0.43291 0.0
In78 In 0.5994 0.31326 0.61344 0.0
O79 O 0.58636 0.2794 0.58213 0.0
O80 O 0.60702 0.27492 0.61051 0.0
C81 C 0.59734 0.35504 0.59366 0.0
C82 C 0.56073 0.30725 0.63396 0.0
C83 C 0.63723 0.3205 0.64471 0.0
O84 O 0.60523 0.33786 0.58306 0.0
O85 O 0.59159 0.35119 0.61346 0.0
O86 O 0.61797 0.31873 0.65094 0.0
O87 O 0.63782 0.31971 0.62262 0.0
C88 C 0.59545 0.26481 0.59141 0.0
O89 O 0.57814 0.32189 0.64364 0.0
O90 O 0.56282 0.29512 0.61418 0.0
In91 In 0.02192 0.27083 0.93373 0.0
O92 O 0.02962 0.25313 0.96646 0.0
O93 O 0.01683 0.22887 0.93493 0.0
C94 C 0.02889 0.31775 0.95902 0.0
C95 C 0.06002 0.27278 0.91075 0.0
C96 C 0.98048 0.26915 0.9096 0.0
O97 O 0.01749 0.2997 0.96588 0.0
O98 O 0.03723 0.31208 0.94003 0.0
O99 O 0.99581 0.26118 0.89966 0.0
O100 O 0.98546 0.27636 0.93156 0.0
C101 C 0.02482 0.23122 0.95614 0.0
O102 O 0.04161 0.27332 0.90051 0.0
O103 O 0.05923 0.27143 0.93229 0.0
In104 In 0.42793 0.04532 0.30883 0.0
O105 O 0.45466 0.04832 0.28462 0.0
O106 O 0.42113 0.03718 0.2692 0.0
C107 C 0.44931 0.04436 0.34899 0.0
C108 C 0.41451 0.08627 0.31147 0.0
C109 C 0.403 1.00215 0.3068 0.0
O110 O 0.45768 0.04131 0.32965 0.0
O111 O 0.43122 0.05082 0.34838 0.0
O112 O 0.39502 0.02084 0.30972 0.0
O113 O 0.42307 1.0053 0.30345 0.0
C114 C 0.44135 0.04189 0.26609 0.0
O115 O 0.40305 0.06726 0.31644 0.0
O116 O 0.43369 0.08506 0.30628 0.0
In117 In 0.29937 0.19856 0.511 0.0
O118 O 0.29865 0.2318 0.54143 0.0
O119 O 0.30545 0.19985 0.55093 0.0
C120 C 0.30269 0.21403 0.46804 0.0
C121 C 0.33649 0.18118 0.5115 0.0
C122 C 0.25849 0.16855 0.50668 0.0
O123 O 0.30293 0.22871 0.48722 0.0
O124 O 0.30085 0.1924 0.47082 0.0
O125 O 0.27608 0.16196 0.51141 0.0
O126 O 0.26131 0.1905 0.50439 0.0
C127 C 0.30315 0.22111 0.55814 0.0
O128 O 0.31771 0.16791 0.50436 0.0
O129 O 0.33675 0.20341 0.51815 0.0
In130 In 0.18156 0.01525 0.77339 0.0
O131 O 0.15064 1.00044 0.74078 0.0
O132 O 0.17495 0.02899 0.73623 0.0
C133 C 0.15968 0.01836 0.81839 0.0
C134 C 0.20676 0.9753 0.77037 0.0
C135 C 0.20874 0.0634 0.78036 0.0
O136 O 0.15044 0.01807 0.79797 0.0
O137 O 0.17949 0.0166 0.81625 0.0
O138 O 0.21362 0.04469 0.76888 0.0
O139 O 0.19084 0.05793 0.78944 0.0
C140 C 0.15696 0.01517 0.72696 0.0
O141 O 0.21389 0.99669 0.7669 0.0
O142 O 0.18685 0.97349 0.77502 0.0
In143 In 0.33354 0.93361 0.0123 0.0
O144 O 0.32679 0.90362 0.03338 0.0
O145 O 0.33552 0.94038 0.05183 0.0
C146 C 0.33868 0.91065 0.96988 0.0
C147 C 0.29959 0.9541 0.00945 0.0
C148 C 0.37346 0.96036 0.01845 0.0
O149 O 0.33547 0.89972 0.98706 0.0
O150 O 0.33745 0.93256 0.97371 0.0
O151 O 0.35676 0.96921 0.01606 0.0
O152 O 0.36992 0.9381 0.01946 0.0
C153 C 0.33061 0.91817 0.05295 0.0
O154 O 0.31933 0.96527 0.0111 0.0
O155 O 0.29641 0.93134 0.00799 0.0
In156 In 0.32614 0.39046 0.03583 0.0
O157 O 0.32789 0.35899 0.05609 0.0
O158 O 0.3173 0.38939 0.07392 0.0
C159 C 0.32294 0.36498 0.99041 0.0
C160 C 0.29048 0.41171 0.03559 0.0
C161 C 0.36883 0.41789 0.04165 0.0
O162 O 0.31344 0.35585 0.00653 0.0
O163 O 0.33355 0.38646 0.99708 0.0
O164 O 0.35209 0.42612 0.0369 0.0
O165 O 0.36411 0.39617 0.04482 0.0
C166 C 0.32048 0.36842 0.07447 0.0
O167 O 0.31013 0.42377 0.03871 0.0
O168 O 0.28878 0.38906 0.03214 0.0
In169 In 0.78661 0.13727 0.03679 0.0
O170 O 0.80821 0.11132 0.04428 0.0
O171 O 0.82226 0.14397 0.03222 0.0
C172 C 0.74479 0.11534 0.03227 0.0
C173 C 0.78658 0.16595 0.07755 0.0
C174 C 0.78535 0.15352 0.99654 0.0
O175 O 0.75933 0.1028 0.03238 0.0
O176 O 0.75164 0.13786 0.03459 0.0
O177 O 0.79062 0.16718 0.01647 0.0
O178 O 0.7813 0.13092 0.99647 0.0
C179 C 0.82508 0.12488 0.0388 0.0
O180 O 0.78806 0.17343 0.05828 0.0
O181 O 0.7866 0.14382 0.07676 0.0
In182 In 0.20487 0.55432 0.23429 0.0
O183 O 0.23402 0.53779 0.23561 0.0
O184 O 0.20171 0.51447 0.22871 0.0
C185 C 0.22674 0.59901 0.24022 0.0
C186 C 0.18377 0.5419 0.19211 0.0
C187 C 0.18941 0.55807 0.27621 0.0
O188 O 0.23616 0.58158 0.23503 0.0
O189 O 0.20616 0.59376 0.24084 0.0
O190 O 0.17979 0.56347 0.25858 0.0
O191 O 0.20636 0.5498 0.27257 0.0
C192 C 0.22229 0.51647 0.23105 0.0
O193 O 0.175 0.53688 0.21034 0.0
O194 O 0.20284 0.55525 0.19531 0.0
In195 In 0.82602 0.89048 0.53656 0.0
O196 O 0.80997 0.85764 0.55242 0.0
O197 O 0.83307 0.88519 0.57542 0.0
C198 C 0.82371 0.86687 0.49076 0.0
C199 C 0.79075 0.91273 0.53751 0.0
C200 C 0.86938 0.91545 0.54137 0.0
O201 O 0.82312 0.85584 0.50802 0.0
O202 O 0.82515 0.88941 0.49651 0.0
O203 O 0.85438 0.9244 0.55095 0.0
O204 O 0.86273 0.89383 0.53055 0.0
C205 C 0.81931 0.86521 0.57307 0.0
O206 O 0.8103 0.92424 0.53738 0.0
O207 O 0.78911 0.89043 0.53703 0.0
In208 In 0.94427 0.07318 0.27622 0.0
O209 O 0.97393 0.08964 0.25336 0.0
O210 O 0.9519 0.05862 0.23605 0.0
C211 C 0.96994 0.07206 0.32077 0.0
C212 C 0.92127 0.11528 0.27556 0.0
C213 C 0.9183 0.02353 0.2733 0.0
O214 O 0.97669 0.06943 0.30039 0.0
O215 O 0.95101 0.07701 0.31924 0.0
O216 O 0.91053 0.04253 0.27759 0.0
O217 O 0.93832 0.02941 0.26974 0.0
C218 C 0.96909 0.07416 0.23427 0.0
O219 O 0.91442 0.09358 0.26432 0.0
O220 O 0.93932 0.11593 0.28757 0.0
In221 In 0.28794 0.63862 0.53703 0.0
O222 O 0.30558 0.60799 0.53401 0.0
O223 O 0.32425 0.64447 0.54514 0.0
C224 C 0.24522 0.6211 0.53285 0.0
C225 C 0.2865 0.66424 0.57902 0.0
C226 C 0.2898 0.65486 0.49661 0.0
O227 O 0.2583 0.60712 0.53501 0.0
O228 O 0.25401 0.6429 0.53281 0.0
O229 O 0.29738 0.66816 0.51629 0.0
O230 O 0.28234 0.63276 0.49709 0.0
C231 C 0.32417 0.62216 0.5405 0.0
O232 O 0.28863 0.67346 0.56067 0.0
O233 O 0.28631 0.64187 0.57668 0.0
In234 In 0.44414 0.57294 0.77652 0.0
O235 O 0.41412 0.59372 0.7661 0.0
O236 O 0.43977 0.61606 0.7881 0.0
C237 C 0.41847 0.52314 0.77276 0.0
C238 C 0.46866 0.57292 0.73425 0.0
C239 C 0.46923 0.57029 0.82103 0.0
O240 O 0.41396 0.54187 0.78483 0.0
O241 O 0.43495 0.52939 0.76155 0.0
O242 O 0.47787 0.57838 0.8037 0.0
O243 O 0.44849 0.56512 0.81659 0.0
C244 C 0.42136 0.61546 0.77688 0.0
O245 O 0.47722 0.581 0.75541 0.0
O246 O 0.44812 0.56496 0.7343 0.0
In247 In 0.70411 0.05235 0.73314 0.0
O248 O 0.73346 0.03593 0.73397 0.0
O249 O 0.70189 0.01266 0.72248 0.0
C250 C 0.72523 0.09725 0.74195 0.0
C251 C 0.6858 0.04757 0.6902 0.0
C252 C 0.68387 0.05016 0.77263 0.0
O253 O 0.73531 0.08032 0.73714 0.0
O254 O 0.70456 0.09134 0.74186 0.0
O255 O 0.67388 0.05053 0.75305 0.0
O256 O 0.70419 0.05077 0.77233 0.0
C257 C 0.72231 0.0147 0.72649 0.0
O258 O 0.67627 0.03792 0.706 0.0
O259 O 0.70458 0.06109 0.6962 0.0
In260 In 0.79968 0.69898 0.01025 0.0
O261 O 0.81787 0.66828 1.00237 0.0
O262 O 0.83671 0.70332 0.01877 0.0
C263 C 0.75913 0.66732 0.00461 0.0
C264 C 0.80423 0.72239 0.05752 0.0
C265 C 0.80435 0.71735 0.96855 0.0
O266 O 0.77684 0.66161 0.01061 0.0
O267 O 0.76172 0.68892 1.00143 0.0
O268 O 0.79573 0.72731 0.98582 0.0
O269 O 0.81106 0.699 0.97255 0.0
C270 C 0.8365 0.68123 0.01102 0.0
O271 O 0.79812 0.73209 0.04076 0.0
O272 O 0.80786 0.70172 0.0504 0.0
In273 In 0.92929 0.54599 0.8077 0.0
O274 O 0.90263 0.56559 0.81748 0.0
O275 O 0.93277 0.58579 0.80892 0.0
C276 C 0.90714 0.50111 0.80086 0.0
C277 C 0.94317 0.54375 0.76525 0.0
C278 C 0.95054 0.54876 0.84857 0.0
O279 O 0.89808 0.51834 0.79793 0.0
O280 O 0.92761 0.50649 0.80673 0.0
O281 O 0.96031 0.55592 0.83161 0.0
O282 O 0.92998 0.54105 0.84497 0.0
C283 C 0.91326 0.58556 0.81361 0.0
O284 O 0.95623 0.54578 0.78349 0.0
O285 O 0.92325 0.54268 0.76863 0.0
In286 In 0.83484 0.43725 0.51284 0.0
O287 O 0.83046 0.40861 0.53488 0.0
O288 O 0.83089 0.44499 0.55182 0.0
C289 C 0.83652 0.41171 0.4706 0.0
C290 C 0.80248 0.45951 0.50744 0.0
C291 C 0.87701 0.45664 0.52233 0.0
O292 O 0.82869 0.40203 0.48731 0.0
O293 O 0.84211 0.43457 0.47474 0.0
O294 O 0.86274 0.46942 0.52289 0.0
O295 O 0.86986 0.43404 0.51752 0.0
C296 C 0.82997 0.42325 0.55368 0.0
O297 O 0.82247 0.47015 0.50898 0.0
O298 O 0.79869 0.43691 0.50713 0.0
In299 In 0.68095 0.51496 0.27315 0.0
O300 O 0.71416 0.4977 0.27447 0.0
O301 O 0.68503 0.47211 0.26722 0.0
C302 C 0.70658 0.56348 0.27794 0.0
C303 C 0.6573 0.51446 0.22641 0.0
C304 C 0.65988 0.51767 0.31856 0.0
O305 O 0.71474 0.54511 0.27915 0.0
O306 O 0.6858 0.55758 0.27466 0.0
O307 O 0.6529 0.50169 0.30003 0.0
O308 O 0.67709 0.53178 0.31438 0.0
C309 C 0.70588 0.47506 0.27008 0.0
O310 O 0.64816 0.51284 0.2454 0.0
O311 O 0.6776 0.51499 0.23059 0.0
Eu312 Eu 0.04424 0.03892 0.0193 0.0
C313 C 0.1167 0.12006 0.0708 0.0
C314 C 0.12497 0.14421 0.04041 0.0
C315 C 0.13396 0.16308 0.08171 0.0
C316 C 0.11648 0.12176 0.04719 0.0
C317 C 0.12586 0.14066 0.08835 0.0
C318 C 0.13346 0.16486 0.05778 0.0
C319 C 0.12056 0.11505 0.11768 0.0
N320 N 0.10923 0.09802 0.07662 0.0
C321 C 0.11197 0.09512 0.09966 0.0
C322 C 0.12737 0.13797 0.11202 0.0
Eu323 Eu 0.0974 0.06418 0.04499 0.0
N324 N 0.10889 0.10129 0.03081 0.0
C325 C 0.1097 0.10218 0.00727 0.0
C326 C 0.12522 0.14516 0.01635 0.0
C327 C 0.11758 0.12401 0.99972 0.0
H328 H 0.10754 0.07726 0.10414 0.0
H329 H 0.11782 0.12445 0.98102 0.0
H330 H 0.1401 0.18218 0.05288 0.0
H331 H 0.1223 0.11261 0.13587 0.0
H332 H 0.10389 0.08631 0.99396 0.0
H333 H 0.02015 0.98054 0.08561 0.0
H334 H 0.13157 0.16202 0.01045 0.0
H335 H 0.03795 0.02148 0.95895 0.0
H336 H 0.04166 0.01462 0.07199 0.0
H337 H 0.02072 0.98627 0.92927 0.0
H338 H 0.14105 0.17905 0.09493 0.0
H339 H 0.99671 0.94675 0.05717 0.0
H340 H 0.98435 0.92737 0.01544 0.0
H341 H 0.13437 0.15333 0.12596 0.0
H342 H 0.98584 0.92814 0.97317 0.0
N343 N 0.0292 1.00322 0.0354 0.0
C344 C 0.0307 1.00139 0.05893 0.0
C345 C 1.00571 0.96239 0.05089 0.0
C346 C 1.00522 0.9632 0.02681 0.0
C347 C 0.01884 0.9814 0.06696 0.0
C348 C 0.01721 0.98408 0.01943 0.0
H349 H 0.99996 0.94939 0.94115 0.0
N350 N 0.03004 1.0044 0.98873 0.0
C351 C 0.02009 0.98533 0.94783 0.0
C352 C 0.01812 0.98444 0.99553 0.0
C353 C 0.03049 1.0052 0.96506 0.0
C354 C 0.00827 0.96466 0.9546 0.0
C355 C 1.00692 0.96409 0.97859 0.0
O356 O 0.02489 0.04944 0.99115 0.0
O357 O 0.07122 0.07218 0.02146 0.0
O358 O 0.07409 0.07258 0.07522 0.0
O359 O 0.03987 0.04949 0.05931 0.0
O360 O 0.0428 0.07774 0.0348 0.0
O361 O 0.01138 0.04382 0.02441 0.0
O362 O 0.12088 0.05074 0.06554 0.0
O363 O 0.07501 0.02721 0.03116 0.0
O364 O 0.06698 0.03854 0.98751 0.0
O365 O 0.10237 0.04741 0.00595 0.0
O366 O 0.08744 0.03464 0.06618 0.0
O367 O 0.13088 0.06536 0.03467 0.0
C368 C 0.06104 0.0887 0.02877 0.0
C369 C 0.98601 0.04565 0.9935 0.0
C370 C 0.95025 0.05523 0.99687 0.0
C371 C 0.97242 0.05954 0.00483 0.0
C372 C 0.94151 0.0371 0.97718 0.0
C373 C 0.97747 0.02749 0.9738 0.0
C374 C 0.95517 0.02333 0.9656 0.0
C375 C 0.05296 0.06322 0.0778 0.0
C376 C 0.00854 0.05046 0.00411 0.0
C377 C 0.9946 0.94376 0.98596 0.0
C378 C 0.99367 0.94337 0.01001 0.0
C379 C 0.0776 0.0174 0.04928 0.0
C380 C 0.15879 0.06313 0.06365 0.0
C381 C 0.17387 0.05035 0.05431 0.0
C382 C 0.1947 0.05382 0.06609 0.0
C383 C 0.2009 0.07077 0.08717 0.0
C384 C 0.16467 0.08001 0.08488 0.0
C385 C 0.18581 0.08388 0.09655 0.0
C386 C 0.08869 0.04047 0.98603 0.0
C387 C 0.13648 0.05545 0.05214 0.0
H388 H 0.97904 0.07355 0.02019 0.0
H389 H 0.92426 0.03372 0.97078 0.0
H390 H 0.98783 0.01652 0.965 0.0
H391 H 0.94844 1.00935 0.95039 0.0
H392 H 0.16916 0.03698 0.03811 0.0
H393 H 0.2171 0.07347 0.09645 0.0
H394 H 0.153 0.08976 0.09261 0.0
H395 H 0.19035 0.09669 0.11303 0.0
Eu396 Eu 0.31541 0.79136 0.25947 0.0
C397 C 0.27945 0.86461 0.33612 0.0
C398 C 0.31207 0.89036 0.35909 0.0
C399 C 0.27723 0.90296 0.36051 0.0
C400 C 0.30161 0.86884 0.34329 0.0
C401 C 0.26691 0.8815 0.34489 0.0
C402 C 0.29979 0.90741 0.36754 0.0
C403 C 0.23445 0.85365 0.3242 0.0
N404 N 0.26986 0.84335 0.32166 0.0
C405 C 0.2475 0.83732 0.31638 0.0
C406 C 0.24421 0.87591 0.33846 0.0
Eu407 Eu 0.29157 0.81385 0.31389 0.0
N408 N 0.31279 0.85154 0.33555 0.0
C409 C 0.33463 0.85485 0.34309 0.0
C410 C 0.33443 0.89384 0.36648 0.0
C411 C 0.34576 0.87599 0.35839 0.0
H412 H 0.23961 0.81956 0.30649 0.0
H413 H 0.36309 0.87845 0.36397 0.0
H414 H 0.3075 0.92388 0.37984 0.0
H415 H 0.2168 0.84879 0.31973 0.0
H416 H 0.34402 0.84165 0.33705 0.0
H417 H 0.23731 0.72843 0.21782 0.0
H418 H 0.34304 0.91009 0.37856 0.0
H419 H 0.36538 0.77813 0.26575 0.0
H420 H 0.25891 0.76328 0.24513 0.0
H421 H 0.38483 0.74771 0.24859 0.0
H422 H 0.26784 0.91603 0.36756 0.0
H423 H 0.25543 0.69854 0.19558 0.0
H424 H 0.28989 0.68435 0.1874 0.0
H425 H 0.23401 0.88832 0.34494 0.0
H426 H 0.32971 0.6891 0.19637 0.0
N427 N 0.29027 0.75497 0.23842 0.0
C428 C 0.26771 0.75121 0.23543 0.0
C429 C 0.26529 0.71407 0.2077 0.0
C430 C 0.28804 0.71696 0.2117 0.0
C431 C 0.25504 0.73094 0.2201 0.0
C432 C 0.30016 0.73743 0.22786 0.0
H433 H 0.36487 0.71197 0.21966 0.0
N434 N 0.33355 0.75874 0.24992 0.0
C435 C 0.3672 0.74482 0.24457 0.0
C436 C 0.32242 0.73947 0.23367 0.0
C437 C 0.35582 0.76177 0.25498 0.0
C438 C 0.35592 0.72483 0.22814 0.0
C439 C 0.33332 0.72196 0.22243 0.0
O440 O 0.34828 0.80994 0.25356 0.0
O441 O 0.31608 0.82135 0.28917 0.0
O442 O 0.27087 0.82092 0.28114 0.0
O443 O 0.28294 0.80042 0.24701 0.0
O444 O 0.31481 0.82991 0.25561 0.0
O445 O 0.32424 0.7916 0.22362 0.0
O446 O 0.26497 0.79384 0.33003 0.0
O447 O 0.29881 0.78235 0.29041 0.0
O448 O 0.33842 0.7881 0.2914 0.0
O449 O 0.32364 0.80232 0.32599 0.0
O450 O 0.26599 0.78133 0.29688 0.0
O451 O 0.29702 0.80786 0.35017 0.0
C452 C 0.31589 0.83816 0.27795 0.0
C453 C 0.35411 0.82154 0.21662 0.0
C454 C 0.35167 0.85146 0.19209 0.0
C455 C 0.34178 0.83585 0.20653 0.0
C456 C 0.37375 0.85252 0.18766 0.0
C457 C 0.37611 0.82272 0.21211 0.0
C458 C 0.38588 0.83817 0.19763 0.0
C459 C 0.26882 0.81229 0.2577 0.0
C460 C 0.34429 0.80396 0.23061 0.0
C461 C 0.32152 0.70242 0.20543 0.0
C462 C 0.29889 0.69982 0.20022 0.0
C463 C 0.27987 0.76924 0.28816 0.0
C464 C 0.26591 0.79681 0.37134 0.0
C465 C 0.27185 0.78277 0.38703 0.0
C466 C 0.2583 0.77646 0.4044 0.0
C467 C 0.23985 0.78673 0.4078 0.0
C468 C 0.24724 0.80678 0.3743 0.0
C469 C 0.23454 0.80215 0.39292 0.0
C470 C 0.33936 0.79354 0.31493 0.0
C471 C 0.27689 0.7957 0.34976 0.0
H472 H 0.32459 0.83452 0.20946 0.0
H473 H 0.38139 0.86389 0.17584 0.0
H474 H 0.38561 0.81135 0.21948 0.0
H475 H 0.40274 0.83873 0.19382 0.0
H476 H 0.28613 0.77486 0.38433 0.0
H477 H 0.22903 0.78193 0.42109 0.0
H478 H 0.2421 0.81727 0.36185 0.0
H479 H 0.21996 0.8095 0.3951 0.0
Eu480 Eu 0.5809 0.0386 0.52773 0.0
C481 C 0.499 0.99341 0.56769 0.0
C482 C 0.48323 0.96105 0.53457 0.0
C483 C 0.4777 0.95503 0.57472 0.0
C484 C 0.49573 0.98469 0.54349 0.0
C485 C 0.48956 0.97883 0.5835 0.0
C486 C 0.47458 0.94615 0.55032 0.0
C487 C 0.50268 0.01298 0.61543 0.0
N488 N 0.51063 0.01647 0.57572 0.0
C489 C 0.51165 0.0268 0.5991 0.0
C490 C 0.49185 0.98879 0.60765 0.0
Eu491 Eu 0.52578 0.03795 0.54644 0.0
N492 N 0.50419 0.99951 0.52862 0.0
C493 C 0.49995 0.9923 0.5047 0.0
C494 C 0.47953 0.9532 0.51004 0.0
C495 C 0.48773 0.969 0.49505 0.0
H496 H 0.52005 0.04554 0.6051 0.0
H497 H 0.48476 0.96318 0.47606 0.0
H498 H 0.4651 0.92788 0.54379 0.0
H499 H 0.50408 0.021 0.63399 0.0
H500 H 0.50635 1.00435 0.49303 0.0
H501 H 0.63327 0.11138 0.59426 0.0
H502 H 0.47012 0.93514 0.50251 0.0
H503 H 0.58554 0.03019 0.46844 0.0
H504 H 0.61125 0.07074 0.57942 0.0
H505 H 0.59848 0.05452 0.43863 0.0
H506 H 0.47051 0.9435 0.58662 0.0
H507 H 0.64168 0.14061 0.56733 0.0
H508 H 0.64031 0.14874 0.52611 0.0
H509 H 0.48485 0.97815 0.62034 0.0
H510 H 0.63093 0.13321 0.48358 0.0
N511 N 0.60496 0.0767 0.54411 0.0
C512 C 0.61378 0.08317 0.56724 0.0
C513 C 0.63147 0.12275 0.5606 0.0
C514 C 0.62401 0.11547 0.53662 0.0
C515 C 0.62677 0.10631 0.57585 0.0
C516 C 0.61075 0.09195 0.5287 0.0
H517 H 0.61589 0.09804 0.45086 0.0
N518 N 0.59405 0.05999 0.49744 0.0
C519 C 0.60017 0.06298 0.45709 0.0
C520 C 0.6052 0.08332 0.50468 0.0
C521 C 0.59277 0.04931 0.47411 0.0
C522 C 0.60995 0.08752 0.46406 0.0
C523 C 0.61312 0.09784 0.48812 0.0
O524 O 0.5927 0.01032 0.50549 0.0
O525 O 0.54632 0.01547 0.52521 0.0
O526 O 0.54425 0.02408 0.57345 0.0
O527 O 0.58007 0.04132 0.56705 0.0
O528 O 0.57205 1.00166 0.53759 0.0
O529 O 0.61334 0.03084 0.53703 0.0
O530 O 0.51066 0.06715 0.56171 0.0
O531 O 0.55731 0.06226 0.53978 0.0
O532 O 0.5575 0.0358 0.49552 0.0
O533 O 0.52773 0.04907 0.51126 0.0
O534 O 0.54495 0.07153 0.5718 0.0
O535 O 0.49297 0.04062 0.53209 0.0
C536 C 0.55128 0.99667 0.53127 0.0
C537 C 0.63029 1.00693 0.50771 0.0
C538 C 0.66156 0.98695 0.50789 0.0
C539 C 0.64513 0.9963 0.5198 0.0
C540 C 0.66314 0.98858 0.484 0.0
C541 C 0.63248 1.00856 0.48388 0.0
C542 C 0.64882 0.99946 0.47218 0.0
C543 C 0.56534 0.03096 0.5798 0.0
C544 C 0.61093 0.013 0.51902 0.0
C545 C 0.62501 0.12175 0.49606 0.0
C546 C 0.63037 0.13057 0.52027 0.0
C547 C 0.55985 0.07863 0.55823 0.0
C548 C 0.47217 0.06247 0.55779 0.0
C549 C 0.45817 0.07506 0.54746 0.0
C550 C 0.44034 0.08142 0.55908 0.0
C551 C 0.4367 0.07449 0.58113 0.0
C552 C 0.46784 0.05534 0.57945 0.0
C553 C 0.45018 0.0613 0.59101 0.0
C554 C 0.53976 0.04476 0.49379 0.0
C555 C 0.49274 0.06008 0.54734 0.0
H556 H 0.64342 0.99455 0.53808 0.0
H557 H 0.67558 0.98146 0.4745 0.0
H558 H 0.62121 0.01625 0.47407 0.0
H559 H 0.65019 1.00055 0.45373 0.0
H560 H 0.46155 0.08032 0.53061 0.0
H561 H 0.42374 0.07969 0.59113 0.0
H562 H 0.47845 0.04586 0.5878 0.0
H563 H 0.44725 0.05622 0.60801 0.0
Eu564 Eu 0.28954 0.29848 0.77781 0.0
C565 C 0.36495 0.26596 0.82278 0.0
C566 C 0.38312 0.30211 0.8505 0.0
C567 C 0.38257 0.26258 0.86064 0.0
C568 C 0.3705 0.29086 0.82882 0.0
C569 C 0.37163 0.25151 0.83829 0.0
C570 C 0.38837 0.28788 0.86672 0.0
C571 C 0.35988 0.2167 0.80701 0.0
N572 N 0.35519 0.25594 0.80072 0.0
C573 C 0.35402 0.23185 0.79219 0.0
C574 C 0.36829 0.22649 0.83036 0.0
Eu575 Eu 0.34313 0.28224 0.77697 0.0
N576 N 0.36556 0.30401 0.81249 0.0
C577 C 0.37473 0.32838 0.81608 0.0
C578 C 0.39124 0.32718 0.85469 0.0
C579 C 0.3875 0.34025 0.83713 0.0
H580 H 0.34789 0.22412 0.77398 0.0
H581 H 0.39441 0.35955 0.83978 0.0
H582 H 0.39777 0.29624 0.88354 0.0
H583 H 0.3581 0.19752 0.80034 0.0
H584 H 0.37269 0.3392 0.80296 0.0
H585 H 0.24807 0.21974 0.71019 0.0
H586 H 0.40118 0.33643 0.87097 0.0
H587 H 0.28227 0.35543 0.78224 0.0
H588 H 0.26655 0.24024 0.74863 0.0
H589 H 0.26968 0.38165 0.75673 0.0
H590 H 0.38757 0.25177 0.87287 0.0
H591 H 0.23933 0.24345 0.68021 0.0
H592 H 0.23833 0.28398 0.66993 0.0
H593 H 0.37315 0.2148 0.84173 0.0
H594 H 0.24412 0.32815 0.6826 0.0
N595 N 0.26942 0.27617 0.74139 0.0
C596 C 0.2631 0.25134 0.73627 0.0
C597 C 0.24759 0.25279 0.69733 0.0
C598 C 0.25269 0.27811 0.70308 0.0
C599 C 0.2524 0.23937 0.71421 0.0
C600 C 0.26358 0.28942 0.72561 0.0
H601 H 0.25532 0.36462 0.71506 0.0
N602 N 0.27624 0.32429 0.75491 0.0
C603 C 0.26909 0.36279 0.74961 0.0
C604 C 0.26709 0.31426 0.7326 0.0
C605 C 0.27626 0.34792 0.76396 0.0
C606 C 0.26104 0.35312 0.7261 0.0
C607 C 0.2595 0.32847 0.71745 0.0
O608 O 0.27338 0.31477 0.80707 0.0
O609 O 0.31759 0.29183 0.80032 0.0
O610 O 0.3184 0.24712 0.78141 0.0
O611 O 0.28511 0.25907 0.78493 0.0
O612 O 0.30794 0.32465 0.80945 0.0
O613 O 0.25621 0.28117 0.78595 0.0
O614 O 0.36006 0.26207 0.75126 0.0
O615 O 0.31517 0.28857 0.75367 0.0
O616 O 0.31373 0.33455 0.77398 0.0
O617 O 0.34729 0.32277 0.77136 0.0
O618 O 0.32545 0.25595 0.7453 0.0
O619 O 0.37403 0.29978 0.76434 0.0
C620 C 0.32053 0.31109 0.81583 0.0
C621 C 0.23447 0.30549 0.80874 0.0
C622 C 0.19943 0.30195 0.82746 0.0
C623 C 0.21839 0.29277 0.8215 0.0
C624 C 0.19716 0.32388 0.82083 0.0
C625 C 0.23124 0.3272 0.80236 0.0
C626 C 0.21286 0.33631 0.80846 0.0
C627 C 0.29698 0.24214 0.78425 0.0
C628 C 0.25561 0.29776 0.80414 0.0
C629 C 0.24979 0.31748 0.69457 0.0
C630 C 0.24647 0.29234 0.68737 0.0
C631 C 0.31301 0.26922 0.73812 0.0
C632 C 0.39837 0.27474 0.7496 0.0
C633 C 0.41203 0.28282 0.73254 0.0
C634 C 0.43247 0.27616 0.73035 0.0
C635 C 0.43902 0.26126 0.74518 0.0
C636 C 0.40538 0.25999 0.76435 0.0
C637 C 0.42554 0.25323 0.76203 0.0
C638 C 0.33541 0.3399 0.77199 0.0
C639 C 0.37621 0.28016 0.75053 0.0
H640 H 0.22063 0.27607 0.82677 0.0
H641 H 0.18303 0.33144 0.82524 0.0
H642 H 0.2432 0.33748 0.79302 0.0
H643 H 0.21079 0.35324 0.80362 0.0
H644 H 0.40674 0.29411 0.72097 0.0
H645 H 0.45462 0.25584 0.7437 0.0
H646 H 0.39516 0.25343 0.77743 0.0
H647 H 0.43073 0.24165 0.7733 0.0
Eu648 Eu 0.06079 0.06261 0.52969 0.0
C649 C 0.08346 0.98594 0.45342 0.0
C650 C 0.04855 0.97065 0.42938 0.0
C651 C 0.08233 0.96517 0.41265 0.0
C652 C 0.0608 0.9829 0.45103 0.0
C653 C 0.09443 0.97692 0.43423 0.0
C654 C 0.05943 0.96195 0.41027 0.0
C655 C 0.12842 0.98932 0.45966 0.0
N656 N 0.0947 0.99662 0.47473 0.0
C657 C 0.11678 0.99726 0.47829 0.0
C658 C 0.11722 0.97925 0.43746 0.0
Eu659 Eu 0.07353 1.00797 0.50632 0.0
N660 N 0.05065 0.9914 0.46988 0.0
C661 C 0.02811 0.98774 0.46802 0.0
C662 C 0.02564 0.96725 0.42756 0.0
C663 C 0.01541 0.97588 0.44696 0.0
H664 H 0.1255 1.00396 0.49569 0.0
H665 H 0.99767 0.97338 0.44576 0.0
H666 H 0.05026 0.95251 0.39362 0.0
H667 H 0.14595 0.99051 0.46258 0.0
H668 H 0.01947 0.99431 0.4824 0.0
H669 H 0.13983 0.09652 0.58488 0.0
H670 H 0.01572 0.95794 0.41129 0.0
H671 H 0.0101 0.06745 0.54357 0.0
H672 H 0.11591 0.07576 0.54953 0.0
H673 H 0.99202 0.08306 0.57782 0.0
H674 H 0.09049 0.95808 0.39783 0.0
H675 H 0.12402 0.11186 0.62107 0.0
H676 H 0.09086 0.11821 0.64122 0.0
H677 H 0.1262 0.97267 0.42314 0.0
H678 H 0.05081 0.11429 0.63944 0.0
N679 N 0.08583 0.07893 0.56449 0.0
C680 C 0.10828 0.0825 0.56465 0.0
C681 C 0.11318 0.10266 0.60538 0.0
C682 C 0.09036 0.09955 0.60518 0.0
C683 C 0.12216 0.09417 0.58498 0.0
C684 C 0.07689 0.08747 0.58424 0.0
H685 H 0.01398 0.10117 0.61607 0.0
N686 N 0.04184 0.07466 0.56264 0.0
C687 C 0.0095 0.08357 0.5797 0.0
C688 C 0.05429 0.08522 0.58329 0.0
C689 C 0.0198 0.07451 0.56042 0.0
C690 C 0.02195 0.09377 0.60123 0.0
C691 C 0.04464 0.09505 0.60316 0.0
O692 O 0.0414 0.0882 0.52164 0.0
O693 O 0.06198 0.03997 0.49301 0.0
O694 O 0.10311 0.03563 0.4995 0.0
O695 O 0.09344 0.07164 0.51423 0.0
O696 O 0.0329 0.05003 0.50038 0.0
O697 O 0.07736 0.09955 0.52529 0.0
O698 O 0.09218 0.98236 0.51604 0.0
O699 O 0.07148 0.03055 0.54279 0.0
O700 O 0.03164 0.03477 0.53775 0.0
O701 O 0.03926 0.99899 0.5188 0.0
O702 O 0.10027 0.01914 0.53776 0.0
O703 O 0.05643 0.97107 0.50941 0.0
C704 C 0.04294 0.04119 0.48321 0.0
C705 C 0.05587 0.12936 0.51737 0.0
C706 C 0.06515 0.16457 0.49834 0.0
C707 C 0.06942 0.14254 0.50313 0.0
C708 C 0.04784 0.17356 0.50842 0.0
C709 C 0.03866 0.1387 0.52727 0.0
C710 C 0.0348 0.16077 0.52293 0.0
C711 C 0.10729 0.05948 0.50423 0.0
C712 C 0.05852 0.10527 0.52103 0.0
C713 C 0.05795 0.10659 0.62408 0.0
C714 C 0.08075 0.10884 0.62508 0.0
C715 C 0.08988 0.02928 0.55386 0.0
C716 C 0.07702 0.94023 0.51321 0.0
C717 C 0.06685 0.92647 0.52898 0.0
C718 C 0.07198 0.90422 0.531 0.0
C719 C 0.08674 0.89519 0.51633 0.0
C720 C 0.09159 0.93107 0.49836 0.0
C721 C 0.09622 0.90842 0.4998 0.0
C722 C 0.0261 0.01103 0.53046 0.0
C723 C 0.07479 0.96542 0.51592 0.0
H724 H 0.08257 0.13532 0.49513 0.0
H725 H 0.04438 0.19051 0.50495 0.0
H726 H 0.0281 0.12882 0.53829 0.0
H727 H 0.02148 0.16783 0.5306 0.0
H728 H 0.05604 0.93384 0.54088 0.0
H729 H 0.09096 0.87801 0.51776 0.0
H730 H 0.09981 0.94167 0.48626 0.0
H731 H 0.10765 0.90142 0.48859 0.0
Eu732 Eu 0.3463 0.81893 0.76034 0.0
C733 C 0.2883 0.74141 0.80281 0.0
C734 C 0.29205 0.70452 0.77737 0.0
C735 C 0.28317 0.70346 0.81767 0.0
C736 C 0.29292 0.72974 0.78123 0.0
C737 C 0.28299 0.72826 0.82111 0.0
C738 C 0.2876 0.6916 0.79582 0.0
C739 C 0.27539 0.76444 0.8441 0.0
N740 N 0.28771 0.76525 0.80551 0.0
C741 C 0.28041 0.77659 0.82535 0.0
C742 C 0.27694 0.74023 0.84209 0.0
Eu743 Eu 0.29686 0.78473 0.77317 0.0
N744 N 0.29701 0.74265 0.7636 0.0
C745 C 0.2993 0.73103 0.7414 0.0
C746 C 0.29488 0.6928 0.75484 0.0
C747 C 0.29816 0.70606 0.73671 0.0
H748 H 0.27901 0.79528 0.82685 0.0
H749 H 0.30011 0.69712 0.71911 0.0
H750 H 0.28703 0.6723 0.79319 0.0
H751 H 0.27019 0.77369 0.86001 0.0
H752 H 0.30236 0.74068 0.72704 0.0
H753 H 0.3355 0.90688 0.8081 0.0
H754 H 0.29413 0.67346 0.75114 0.0
H755 H 0.36842 0.80822 0.70896 0.0
H756 H 0.33778 0.86454 0.80359 0.0
H757 H 0.37845 0.82864 0.67532 0.0
H758 H 0.27926 0.69312 0.83157 0.0
H759 H 0.34116 0.92861 0.77467 0.0
H760 H 0.35128 0.92858 0.73345 0.0
H761 H 0.27282 0.73076 0.85655 0.0
H762 H 0.36293 0.90738 0.69736 0.0
N763 N 0.34383 0.86073 0.76708 0.0
C764 C 0.34031 0.87318 0.78849 0.0
C765 C 0.34202 0.90966 0.77236 0.0
C766 C 0.34697 0.89748 0.75095 0.0
C767 C 0.33891 0.89751 0.79128 0.0
C768 C 0.34779 0.8727 0.74877 0.0
H769 H 0.37318 0.8703 0.67563 0.0
N770 N 0.35609 0.83734 0.72724 0.0
C771 C 0.37143 0.83778 0.68999 0.0
C772 C 0.35417 0.86069 0.72832 0.0
C773 C 0.36563 0.82623 0.70896 0.0
C774 C 0.36841 0.86127 0.69022 0.0
C775 C 0.36013 0.87323 0.70971 0.0
O776 O 0.37927 0.81323 0.75574 0.0
O777 O 0.33337 0.78268 0.77267 0.0
O778 O 0.31747 0.79471 0.80788 0.0
O779 O 0.34395 0.82575 0.79924 0.0
O780 O 0.35324 0.78101 0.74607 0.0
O781 O 0.37451 0.84093 0.78437 0.0
O782 O 0.26514 0.79272 0.78037 0.0
O783 O 0.30944 0.82126 0.76147 0.0
O784 O 0.32803 0.80687 0.72453 0.0
O785 O 0.29809 0.7803 0.73404 0.0
O786 O 0.29201 0.82175 0.79071 0.0
O787 O 0.26703 0.76543 0.74994 0.0
C788 C 0.34339 0.76783 0.76012 0.0
C789 C 0.41041 0.84391 0.77155 0.0
C790 C 0.44911 0.85209 0.78532 0.0
C791 C 0.42713 0.84353 0.78863 0.0
C792 C 0.45446 0.8619 0.76514 0.0
C793 C 0.41566 0.85414 0.75154 0.0
C794 C 0.43771 0.86325 0.74846 0.0
C795 C 0.33389 0.81351 0.81412 0.0
C796 C 0.38847 0.82995 0.77366 0.0
C797 C 0.35851 0.89755 0.71151 0.0
C798 C 0.3519 0.90962 0.73206 0.0
C799 C 0.29977 0.83509 0.77583 0.0
C800 C 0.23173 0.76595 0.76389 0.0
C801 C 0.21584 0.76573 0.74552 0.0
C802 C 0.19346 0.75886 0.74838 0.0
C803 C 0.18695 0.75172 0.76948 0.0
C804 C 0.22514 0.75864 0.78492 0.0
C805 C 0.20276 0.75147 0.78761 0.0
C806 C 0.30979 0.79037 0.71873 0.0
C807 C 0.25453 0.77761 0.76193 0.0
H808 H 0.42314 0.83504 0.80378 0.0
H809 H 0.47151 0.868 0.7621 0.0
H810 H 0.40294 0.85439 0.73805 0.0
H811 H 0.44184 0.87063 0.73279 0.0
H812 H 0.22083 0.77211 0.72955 0.0
H813 H 0.16965 0.74689 0.77208 0.0
H814 H 0.23718 0.75923 0.79945 0.0
H815 H 0.19765 0.74632 0.804 0.0
Eu816 Eu 0.56169 0.05194 0.03639 0.0
C817 C 0.49497 0.06653 0.95783 0.0
C818 C 0.47677 0.02621 0.93696 0.0
C819 C 0.45798 0.05943 0.93783 0.0
C820 C 0.49543 0.04217 0.95032 0.0
C821 C 0.4764 0.07538 0.95099 0.0
C822 C 0.45809 0.03491 0.93102 0.0
C823 C 0.49612 0.11585 0.96854 0.0
N824 N 0.51287 0.0818 0.97079 0.0
C825 C 0.51407 0.10641 0.9749 0.0
C826 C 0.47708 0.10024 0.9568 0.0
Eu827 Eu 0.54398 0.06456 0.97665 0.0
N828 N 0.51394 0.03409 0.95573 0.0
C829 C 0.51462 0.0103 0.94803 0.0
C830 C 0.4774 1.00189 0.92961 0.0
C831 C 0.49639 0.99394 0.93515 0.0
H832 H 0.52894 0.11887 0.9835 0.0
H833 H 0.497 0.97511 0.92953 0.0
H834 H 0.44374 0.02287 0.92074 0.0
H835 H 0.49712 0.13522 0.97241 0.0
H836 H 0.52875 1.00316 0.95207 0.0
H837 H 0.61403 0.13792 0.08538 0.0
H838 H 0.46336 0.98913 0.91951 0.0
H839 H 0.57065 0.9954 0.03246 0.0
H840 H 0.58257 0.11313 0.05996 0.0
H841 H 0.5982 0.97481 0.04676 0.0
H842 H 0.44364 0.06597 0.93252 0.0
H843 H 0.64357 0.11968 0.09984 0.0
H844 H 0.65842 0.08289 0.10176 0.0
H845 H 0.46324 0.10766 0.95164 0.0
H846 H 0.65438 0.03885 0.09102 0.0
N847 N 0.59324 0.07956 0.05875 0.0
C848 C 0.59479 0.10403 0.06571 0.0
C849 C 0.62962 0.1083 0.08835 0.0
C850 C 0.62805 0.08341 0.08165 0.0
C851 C 0.61295 0.11862 0.0803 0.0
C852 C 0.60957 0.0693 0.06649 0.0
H853 H 0.63222 0.99867 0.0706 0.0
N854 N 0.58971 0.03116 0.04553 0.0
C855 C 0.60135 0.99443 0.05017 0.0
C856 C 0.60768 0.04449 0.05983 0.0
C857 C 0.58594 1.0063 0.04168 0.0
C858 C 0.62045 1.00795 0.06368 0.0
C859 C 0.62369 0.0332 0.06897 0.0
O860 O 0.54545 0.021 0.05032 0.0
O861 O 0.53827 0.04118 0.0035 0.0
O862 O 0.52928 0.08533 0.00652 0.0
O863 O 0.55201 0.08777 0.04095 0.0
O864 O 0.52489 0.04292 0.03597 0.0
O865 O 0.5527 0.05741 0.07307 0.0
O866 O 0.55674 0.098 0.964 0.0
O867 O 0.56808 0.07474 0.00898 0.0
O868 O 0.57083 0.02542 0.00662 0.0
O869 O 0.55898 0.03197 0.96892 0.0
O870 O 0.581 0.07427 0.97649 0.0
O871 O 0.54523 0.06357 0.93895 0.0
C872 C 0.52093 0.03813 0.01342 0.0
C873 C 0.53511 0.02241 0.08971 0.0
C874 C 0.51008 0.02028 0.12014 0.0
C875 C 0.52162 0.03332 0.1046 0.0
C876 C 0.51275 0.99673 0.12138 0.0
C877 C 0.53779 0.99892 0.09115 0.0
C878 C 0.52673 0.98622 0.10708 0.0
C879 C 0.53655 0.09451 0.02878 0.0
C880 C 0.54429 0.03411 0.07079 0.0
C881 C 0.64201 0.04725 0.08387 0.0
C882 C 0.64426 0.0723 0.09006 0.0
C883 C 0.58544 0.07826 0.99904 0.0
C884 C 0.56711 0.09651 0.92491 0.0
C885 C 0.58294 0.0845 0.91537 0.0
C886 C 0.59575 0.09405 0.89854 0.0
C887 C 0.59236 0.11534 0.89117 0.0
C888 C 0.56389 0.11769 0.91739 0.0
C889 C 0.57646 0.12703 0.90053 0.0
C890 C 0.56832 0.02017 0.98315 0.0
C891 C 0.55281 0.08709 0.94184 0.0
H892 H 0.51935 0.05138 0.10342 0.0
H893 H 0.50421 0.98663 0.13366 0.0
H894 H 0.54816 0.99025 0.07969 0.0
H895 H 0.52879 0.9681 0.10814 0.0
H896 H 0.58527 0.06794 0.92095 0.0
H897 H 0.60174 0.12265 0.87779 0.0
H898 H 0.55144 0.12686 0.92439 0.0
H899 H 0.57375 0.14325 0.89459 0.0
Eu900 Eu 0.30909 0.30061 0.26895 0.0
C901 C 0.22926 0.22216 0.22444 0.0
C902 C 0.20781 0.21381 0.25709 0.0
C903 C 0.19009 0.20306 0.21703 0.0
C904 C 0.22821 0.22257 0.24854 0.0
C905 C 0.21017 0.2119 0.20848 0.0
C906 C 0.18889 0.20415 0.24126 0.0
C907 C 0.23236 0.21677 0.17617 0.0
N908 N 0.24903 0.23012 0.21638 0.0
C909 C 0.25082 0.22637 0.19245 0.0
C910 C 0.2119 0.20967 0.1842 0.0
Eu911 Eu 0.28046 0.23842 0.2447 0.0
N912 N 0.24702 0.23066 0.26351 0.0
C913 C 0.24596 0.23145 0.28734 0.0
C914 C 0.20697 0.21448 0.28132 0.0
C915 C 0.22609 0.22361 0.29651 0.0
H916 H 0.26668 0.22974 0.18558 0.0
H917 H 0.22559 0.22449 0.31537 0.0
H918 H 0.17327 0.19708 0.24757 0.0
H919 H 0.2341 0.21408 0.15739 0.0
H920 H 0.26001 0.23866 0.29997 0.0
H921 H 0.35857 0.30823 0.19277 0.0
H922 H 0.19165 0.208 0.28849 0.0
H923 H 0.32639 0.31491 0.3264 0.0
H924 H 0.32674 0.2925 0.21199 0.0
H925 H 0.35965 0.33526 0.35245 0.0
H926 H 0.17542 0.19499 0.20499 0.0
H927 H 0.39266 0.33188 0.21657 0.0
H928 H 0.41297 0.34922 0.25627 0.0
H929 H 0.1977 0.20164 0.17149 0.0
H930 H 0.41363 0.35544 0.29951 0.0
N931 N 0.34079 0.30859 0.24721 0.0
C932 C 0.34057 0.30379 0.22307 0.0
C933 C 0.37834 0.3253 0.22532 0.0
C934 C 0.37907 0.32917 0.24993 0.0
C935 C 0.35911 0.31217 0.21186 0.0
C936 C 0.35997 0.32007 0.26053 0.0
H937 H 0.39417 0.34978 0.33536 0.0
N938 N 0.34221 0.31348 0.29464 0.0
C939 C 0.36043 0.33122 0.33353 0.0
C940 C 0.36068 0.3226 0.28489 0.0
C941 C 0.3417 0.3187 0.31864 0.0
C942 C 0.37978 0.33956 0.32381 0.0
C943 C 0.38003 0.33563 0.29925 0.0
O944 O 0.29839 0.32245 0.29913 0.0
O945 O 0.27823 0.27247 0.26741 0.0
O946 O 0.28184 0.26311 0.21605 0.0
O947 O 0.29662 0.30393 0.23268 0.0
O948 O 0.27485 0.30503 0.25863 0.0
O949 O 0.31729 0.33987 0.27354 0.0
O950 O 0.2892 0.21371 0.21518 0.0
O951 O 0.3117 0.266 0.24718 0.0
O952 O 0.31009 0.27722 0.29808 0.0
O953 O 0.2918 0.23696 0.28286 0.0
O954 O 0.31436 0.23223 0.25382 0.0
O955 O 0.27019 0.19944 0.24244 0.0
C956 C 0.2643 0.28429 0.26221 0.0
C957 C 0.29929 0.36417 0.29962 0.0
C958 C 0.28222 0.39522 0.28827 0.0
C959 C 0.28834 0.37306 0.28233 0.0
C960 C 0.28678 0.40844 0.31146 0.0
C961 C 0.30379 0.37729 0.32286 0.0
C962 C 0.29751 0.39939 0.32875 0.0
C963 C 0.28695 0.28665 0.21474 0.0
C964 C 0.30835 0.34277 0.29347 0.0
C965 C 0.39876 0.34523 0.28874 0.0
C966 C 0.39833 0.34184 0.26414 0.0
C967 C 0.32509 0.25376 0.25284 0.0
C968 C 0.28247 0.17081 0.2144 0.0
C969 C 0.29677 0.16204 0.22847 0.0
C970 C 0.2997 0.13818 0.22218 0.0
C971 C 0.28829 0.12338 0.20134 0.0
C972 C 0.27129 0.15603 0.19357 0.0
C973 C 0.27424 0.13238 0.18705 0.0
C974 C 0.3026 0.25428 0.30053 0.0
C975 C 0.27773 0.19467 0.2219 0.0
H976 H 0.28521 0.36322 0.26424 0.0
H977 H 0.28242 0.42589 0.31599 0.0
H978 H 0.31267 0.37072 0.33626 0.0
H979 H 0.30132 0.40969 0.34658 0.0
H980 H 0.30568 0.17398 0.24421 0.0
H981 H 0.2901 0.10487 0.19615 0.0
H982 H 0.26004 0.16266 0.18256 0.0
H983 H 0.26547 0.12096 0.17103 0.0
Eu984 Eu 0.5611 0.56292 0.02917 0.0
C985 C 0.58332 0.48621 0.95421 0.0
C986 C 0.54838 0.47197 0.93012 0.0
C987 C 0.58211 0.46738 0.91281 0.0
C988 C 0.5607 0.48336 0.95197 0.0
C989 C 0.59423 0.47785 0.9347 0.0
C990 C 0.55923 0.46439 0.91054 0.0
C991 C 0.62804 0.48812 0.96041 0.0
N992 N 0.59455 0.4957 0.97575 0.0
C993 C 0.61648 0.49566 0.97927 0.0
C994 C 0.61691 0.47941 0.93795 0.0
Eu995 Eu 0.57388 0.50777 0.00745 0.0
N996 N 0.5506 0.49042 0.97136 0.0
C997 C 0.52804 0.4856 0.97 0.0
C998 C 0.52544 0.46775 0.92871 0.0
C999 C 0.51525 0.47441 0.94881 0.0
H1000 H 0.62519 0.50183 0.99673 0.0
H1001 H 0.49746 0.47105 0.948 0.0
H1002 H 0.55001 0.45569 0.8937 0.0
H1003 H 0.64548 0.48876 0.96329 0.0
H1004 H 0.51938 0.49084 0.98483 0.0
H1005 H 0.64036 0.59587 0.08429 0.0
H1006 H 0.51545 0.45899 0.91233 0.0
H1007 H 0.51083 0.56921 0.04343 0.0
H1008 H 0.61638 0.5774 0.04837 0.0
H1009 H 0.49288 0.58385 0.07812 0.0
H1010 H 0.59022 0.46092 0.89768 0.0
H1011 H 0.62465 0.60918 0.12122 0.0
H1012 H 0.59158 0.61503 0.1418 0.0
H1013 H 0.62584 0.47324 0.92341 0.0
H1014 H 0.5516 0.6117 0.1402 0.0
N1015 N 0.58632 0.57922 0.06393 0.0
C1016 C 0.60878 0.5831 0.06388 0.0
C1017 C 0.61378 0.60086 0.10531 0.0
C1018 C 0.59097 0.59791 0.10522 0.0
C1019 C 0.6227 0.59351 0.0845 0.0
C1020 C 0.57745 0.5868 0.08404 0.0
H1021 H 0.51483 0.60011 0.1167 0.0
N1022 N 0.54241 0.57488 0.06245 0.0
C1023 C 0.51027 0.5839 0.07993 0.0
C1024 C 0.55489 0.58462 0.08325 0.0
C1025 C 0.52049 0.57529 0.06038 0.0
C1026 C 0.52271 0.59307 0.10163 0.0
C1027 C 0.54533 0.59389 0.10345 0.0
O1028 O 0.542 0.58867 0.02129 0.0
O1029 O 0.56224 0.53912 0.99333 0.0
O1030 O 0.60336 0.53498 0.99951 0.0
O1031 O 0.59354 0.57127 0.01296 0.0
O1032 O 0.53331 0.55038 0.99947 0.0
O1033 O 0.57797 0.59959 0.02425 0.0
O1034 O 0.5932 0.48407 0.02008 0.0
O1035 O 0.57195 0.53141 0.04336 0.0
O1036 O 0.53089 0.53563 0.03548 0.0
O1037 O 0.53998 0.49913 0.02111 0.0
O1038 O 0.60127 0.521 0.0377 0.0
O1039 O 0.55788 0.47085 0.01156 0.0
C1040 C 0.54324 0.53988 0.98317 0.0
C1041 C 0.55653 0.62971 0.01759 0.0
C1042 C 0.5659 0.66529 0.99943 0.0
C1043 C 0.56924 0.64251 1.00259 0.0
C1044 C 0.55001 0.67528 0.01141 0.0
C1045 C 0.54063 0.63982 0.02945 0.0
C1046 C 0.53745 0.66257 0.02639 0.0
C1047 C 0.60746 0.55888 0.0034 0.0
C1048 C 0.55917 0.60546 0.02024 0.0
C1049 C 0.55868 0.60448 0.12458 0.0
C1050 C 0.58143 0.60641 0.12548 0.0
C1051 C 0.59074 0.53063 0.05397 0.0
C1052 C 0.57964 0.44181 0.01771 0.0
C1053 C 0.56845 0.42698 0.0321 0.0
C1054 C 0.57278 0.40409 0.03275 0.0
C1055 C 0.58838 0.39591 0.01877 0.0
C1056 C 0.59541 0.4337 0.00392 0.0
C1057 C 0.5997 0.41075 0.00447 0.0
C1058 C 0.52607 0.5117 0.03053 0.0
C1059 C 0.57627 0.46658 0.01998 0.0
H1060 H 0.58141 0.6347 0.9932 0.0
H1061 H 0.54727 0.69285 0.00905 0.0
H1062 H 0.53067 0.63012 0.04105 0.0
H1063 H 0.52517 0.67031 0.03554 0.0
H1064 H 0.55657 0.43342 0.04312 0.0
H1065 H 0.592 0.37827 0.01921 0.0
H1066 H 0.60459 0.44519 0.99313 0.0
H1067 H 0.61197 0.40454 0.99401 0.0
Eu1068 Eu 0.84613 0.31885 0.25864 0.0
C1069 C 0.78896 0.24287 0.30422 0.0
C1070 C 0.79221 0.2054 0.27942 0.0
C1071 C 0.78318 0.20527 0.31978 0.0
C1072 C 0.79332 0.23067 0.28276 0.0
C1073 C 0.78344 0.23016 0.32279 0.0
C1074 C 0.78751 0.19292 0.29813 0.0
C1075 C 0.7764 0.26692 0.34518 0.0
N1076 N 0.78881 0.26681 0.30654 0.0
C1077 C 0.78168 0.27864 0.32619 0.0
C1078 C 0.77755 0.24264 0.34359 0.0
Eu1079 Eu 0.79758 0.28553 0.27367 0.0
N1080 N 0.79743 0.24314 0.26481 0.0
C1081 C 0.79978 0.23095 0.24283 0.0
C1082 C 0.79511 0.19318 0.25714 0.0
C1083 C 0.79865 0.20598 0.23873 0.0
H1084 H 0.78071 0.29744 0.32743 0.0
H1085 H 0.80074 0.19666 0.22133 0.0
H1086 H 0.78668 0.17357 0.29585 0.0
H1087 H 0.77139 0.27659 0.36098 0.0
H1088 H 0.80305 0.24011 0.22818 0.0
H1089 H 0.84186 0.40702 0.31185 0.0
H1090 H 0.79427 0.17381 0.25387 0.0
H1091 H 0.86261 0.30787 0.20408 0.0
H1092 H 0.83725 0.36329 0.30348 0.0
H1093 H 0.87224 0.32942 0.17117 0.0
H1094 H 0.77905 0.19526 0.33387 0.0
H1095 H 0.85278 0.43128 0.28123 0.0
H1096 H 0.86231 0.43267 0.24006 0.0
H1097 H 0.77327 0.23352 0.35825 0.0
H1098 H 0.86925 0.41151 0.20151 0.0
N1099 N 0.84629 0.36135 0.26798 0.0
C1100 C 0.8426 0.373 0.28971 0.0
C1101 C 0.85107 0.41177 0.27733 0.0
C1102 C 0.85467 0.40005 0.25511 0.0
C1103 C 0.84496 0.39816 0.29466 0.0
C1104 C 0.85227 0.37451 0.25089 0.0
H1105 H 0.87261 0.37316 0.17562 0.0
N1106 N 0.8552 0.33833 0.22596 0.0
C1107 C 0.8676 0.33894 0.18728 0.0
C1108 C 0.85638 0.36263 0.22919 0.0
C1109 C 0.86184 0.32671 0.20581 0.0
C1110 C 0.86781 0.36362 0.18987 0.0
C1111 C 0.86272 0.37591 0.21117 0.0
O1112 O 0.8782 0.31324 0.24922 0.0
O1113 O 0.83394 0.28303 0.27202 0.0
O1114 O 0.81926 0.29629 0.30805 0.0
O1115 O 0.84606 0.32601 0.29791 0.0
O1116 O 0.85175 0.28048 0.24367 0.0
O1117 O 0.87578 0.33718 0.28212 0.0
O1118 O 0.76659 0.29463 0.28156 0.0
O1119 O 0.80941 0.32135 0.26035 0.0
O1120 O 0.82527 0.30857 0.22429 0.0
O1121 O 0.79815 0.27907 0.23437 0.0
O1122 O 0.79304 0.32331 0.28997 0.0
O1123 O 0.76671 0.26568 0.25199 0.0
C1124 C 0.84322 0.2679 0.25885 0.0
C1125 C 0.91082 0.34118 0.26715 0.0
C1126 C 0.94882 0.35078 0.28389 0.0
C1127 C 0.92663 0.34121 0.28536 0.0
C1128 C 0.95528 0.36113 0.26431 0.0
C1129 C 0.91719 0.35152 0.24749 0.0
C1130 C 0.93944 0.36163 0.24622 0.0
C1131 C 0.83627 0.31469 0.31363 0.0
C1132 C 0.88862 0.32736 0.26835 0.0
C1133 C 0.86445 0.4011 0.21515 0.0
C1134 C 0.86056 0.41315 0.23711 0.0
C1135 C 0.80003 0.33594 0.27421 0.0
C1136 C 0.73196 0.26935 0.26694 0.0
C1137 C 0.71627 0.26495 0.24728 0.0
C1138 C 0.69375 0.2599 0.25028 0.0
C1139 C 0.68701 0.25945 0.27305 0.0
C1140 C 0.72494 0.26857 0.28959 0.0
C1141 C 0.70254 0.26372 0.29257 0.0
C1142 C 0.8082 0.29047 0.21884 0.0
C1143 C 0.75507 0.27905 0.26398 0.0
H1144 H 0.9218 0.33256 0.30021 0.0
H1145 H 0.97255 0.36802 0.26268 0.0
H1146 H 0.90518 0.35124 0.23302 0.0
H1147 H 0.94448 0.3692 0.2309 0.0
H1148 H 0.72153 0.26623 0.22984 0.0
H1149 H 0.66968 0.2563 0.27577 0.0
H1150 H 0.73674 0.2726 0.30506 0.0
H1151 H 0.69719 0.26376 0.31009 0.0
Eu1152 Eu 0.06163 0.55083 0.53948 0.0
C1153 C 0.99717 0.57273 0.46081 0.0
C1154 C 0.97592 0.53417 0.43932 0.0
C1155 C 0.95962 0.56945 0.44406 0.0
C1156 C 0.99547 0.5484 0.45247 0.0
C1157 C 0.97959 0.58377 0.45579 0.0
C1158 C 0.95776 0.54463 0.43592 0.0
C1159 C 1.00387 0.62266 0.47081 0.0
N1160 N 0.01681 0.58606 0.4717 0.0
C1161 C 0.0208 0.61083 0.4753 0.0
C1162 C 0.98301 0.60904 0.46151 0.0
Eu1163 Eu 0.04495 0.56505 0.47955 0.0
N1164 N 0.01361 0.53919 0.45534 0.0
C1165 C 0.01379 0.5165 0.44335 0.0
C1166 C 0.97557 0.51024 0.42891 0.0
C1167 C 0.99479 0.50156 0.43049 0.0
H1168 H 0.03699 0.62141 0.48241 0.0
H1169 H 0.99512 0.48349 0.42148 0.0
H1170 H 0.94258 0.53394 0.42608 0.0
H1171 H 1.00694 0.64227 0.47445 0.0
H1172 H 0.02859 0.50981 0.44298 0.0
H1173 H 0.11052 0.63404 0.59689 0.0
H1174 H 0.96093 0.49875 0.41865 0.0
H1175 H 0.07051 0.49391 0.53479 0.0
H1176 H 0.07768 0.60871 0.57394 0.0
H1177 H 0.09935 0.47366 0.5467 0.0
H1178 H 0.94585 0.57757 0.44032 0.0
H1179 H 0.14343 0.61753 0.60349 0.0
H1180 H 0.16074 0.58187 0.59951 0.0
H1181 H 0.96997 0.61823 0.45782 0.0
H1182 H 0.15755 0.53823 0.5865 0.0
N1183 N 0.09207 0.57791 0.56388 0.0
C1184 C 0.092 0.60105 0.57493 0.0
C1185 C 0.12917 0.60625 0.59242 0.0
C1186 C 0.12865 0.58205 0.58294 0.0
C1187 C 0.11064 0.61564 0.58871 0.0
C1188 C 0.10968 0.56805 0.5685 0.0
H1189 H 0.13468 0.49791 0.56749 0.0
N1190 N 0.08949 0.52979 0.54779 0.0
C1191 C 0.10222 0.49326 0.55043 0.0
C1192 C 0.10821 0.54337 0.56057 0.0
C1193 C 0.0859 0.50491 0.54377 0.0
C1194 C 0.12212 0.50702 0.5621 0.0
C1195 C 0.12522 0.53228 0.56765 0.0
O1196 O 0.04389 0.51771 0.54935 0.0
O1197 O 0.03829 0.54266 0.50692 0.0
O1198 O 0.03063 0.58716 0.50888 0.0
O1199 O 0.05522 0.5884 0.54168 0.0
O1200 O 0.02464 0.54568 0.53908 0.0
O1201 O 0.0526 0.5523 0.57551 0.0
O1202 O 0.06507 0.59033 0.46157 0.0
O1203 O 0.07037 0.56563 0.50793 0.0
O1204 O 0.07497 0.52792 0.5107 0.0
O1205 O 0.0525 0.52727 0.47653 0.0
O1206 O 0.07491 0.59611 0.49272 0.0
O1207 O 0.05632 0.55199 0.44559 0.0
C1208 C 0.02087 0.5411 0.51647 0.0
C1209 C 0.03297 0.5166 0.58859 0.0
C1210 C 0.00807 0.51509 0.61903 0.0
C1211 C 0.01969 0.52778 0.60341 0.0
C1212 C 0.01033 0.4914 0.62032 0.0
C1213 C 0.03517 0.49294 0.58979 0.0
C1214 C 0.02398 0.48046 0.60581 0.0
C1215 C 0.03845 0.59495 0.53139 0.0
C1216 C 0.0433 0.52908 0.57087 0.0
C1217 C 0.14433 0.54646 0.58109 0.0
C1218 C 0.14612 0.5713 0.58854 0.0
C1219 C 0.08309 0.58533 0.5079 0.0
C1220 C 0.06556 0.5807 0.42064 0.0
C1221 C 0.08115 0.57416 0.40619 0.0
C1222 C 0.08595 0.58544 0.38702 0.0
C1223 C 0.07413 0.60239 0.38125 0.0
C1224 C 0.05324 0.59728 0.41487 0.0
C1225 C 0.0574 0.60788 0.39494 0.0
C1226 C 0.06715 0.51882 0.48853 0.0
C1227 C 0.06637 0.57376 0.44368 0.0
H1228 H 0.01786 0.54603 0.60233 0.0
H1229 H 1.00181 0.48158 0.63279 0.0
H1230 H 0.04548 0.48418 0.57833 0.0
H1231 H 0.0258 0.46228 0.60692 0.0
H1232 H 0.09107 0.56187 0.41112 0.0
H1233 H 0.07811 0.61157 0.36658 0.0
H1234 H 0.04127 0.60278 0.42626 0.0
H1235 H 0.04834 0.62109 0.39069 0.0
Eu1236 Eu 0.78865 0.79813 0.27566 0.0
C1237 C 0.86433 0.76474 0.32362 0.0
C1238 C 0.88007 0.79993 0.35371 0.0
C1239 C 0.88163 0.7598 0.36103 0.0
C1240 C 0.86857 0.7895 0.33125 0.0
C1241 C 0.87146 0.74966 0.33814 0.0
C1242 C 0.88594 0.78492 0.3688 0.0
C1243 C 0.86101 0.71625 0.30523 0.0
N1244 N 0.85503 0.75562 0.3012 0.0
C1245 C 0.85452 0.73199 0.29145 0.0
C1246 C 0.86914 0.72502 0.32884 0.0
Eu1247 Eu 0.84274 0.78288 0.27901 0.0
N1248 N 0.8631 0.80351 0.316 0.0
C1249 C 0.87038 0.82822 0.32164 0.0
C1250 C 0.88626 0.82517 0.35994 0.0
C1251 C 0.8818 0.83933 0.34362 0.0
H1252 H 0.84843 0.72514 0.27308 0.0
H1253 H 0.88702 0.85889 0.34799 0.0
H1254 H 0.89455 0.79262 0.38616 0.0
H1255 H 0.85985 0.69739 0.29759 0.0
H1256 H 0.86724 0.83992 0.30974 0.0
H1257 H 0.75199 0.71967 0.20539 0.0
H1258 H 0.89515 0.83386 0.37695 0.0
H1259 H 0.78118 0.85472 0.28092 0.0
H1260 H 0.77073 0.73982 0.2437 0.0
H1261 H 0.76668 0.88079 0.25653 0.0
H1262 H 0.88701 0.74848 0.37251 0.0
H1263 H 0.73946 0.74346 0.17737 0.0
H1264 H 0.73487 0.78368 0.16907 0.0
H1265 H 0.8744 0.71287 0.33943 0.0
H1266 H 0.73895 0.82748 0.18283 0.0
N1267 N 0.76976 0.77585 0.23858 0.0
C1268 C 0.76538 0.75101 0.23238 0.0
C1269 C 0.74779 0.75269 0.19449 0.0
C1270 C 0.75116 0.77785 0.20122 0.0
C1271 C 0.75473 0.73921 0.21027 0.0
C1272 C 0.76226 0.78907 0.22369 0.0
H1273 H 0.75061 0.86374 0.21538 0.0
N1274 N 0.77457 0.82379 0.25338 0.0
C1275 C 0.76621 0.86202 0.24913 0.0
C1276 C 0.76476 0.81375 0.23131 0.0
C1277 C 0.77448 0.84728 0.26282 0.0
C1278 C 0.75718 0.85234 0.22592 0.0
C1279 C 0.75598 0.82783 0.21687 0.0
O1280 O 0.77227 0.81264 0.30566 0.0
O1281 O 0.81607 0.79306 0.30018 0.0
O1282 O 0.81835 0.74829 0.28573 0.0
O1283 O 0.78424 0.75849 0.28156 0.0
O1284 O 0.80551 0.82565 0.30714 0.0
O1285 O 0.7547 0.78079 0.2822 0.0
O1286 O 0.85979 0.76562 0.25128 0.0
O1287 O 0.81566 0.78815 0.25366 0.0
O1288 O 0.81268 0.83362 0.26978 0.0
O1289 O 0.84698 0.82365 0.27431 0.0
O1290 O 0.82638 0.75571 0.24725 0.0
O1291 O 0.87556 0.80084 0.27075 0.0
C1292 C 0.81814 0.81278 0.31489 0.0
C1293 C 0.73333 0.80409 0.30701 0.0
C1294 C 0.69892 0.80097 0.32703 0.0
C1295 C 0.7174 0.79134 0.31997 0.0
C1296 C 0.69693 0.82331 0.3212 0.0
C1297 C 0.73036 0.82624 0.30151 0.0
C1298 C 0.71243 0.83574 0.30861 0.0
C1299 C 0.79637 0.74245 0.2847 0.0
C1300 C 0.75421 0.79604 0.3015 0.0
C1301 C 0.74564 0.81691 0.19422 0.0
C1302 C 0.74329 0.79197 0.18639 0.0
C1303 C 0.81437 0.76862 0.23855 0.0
C1304 C 0.8985 0.77616 0.25147 0.0
C1305 C 0.91265 0.78557 0.23535 0.0
C1306 C 0.93166 0.77649 0.23054 0.0
C1307 C 0.9364 0.75815 0.24208 0.0
C1308 C 0.9039 0.75814 0.26307 0.0
C1309 C 0.92271 0.7492 0.25834 0.0
C1310 C 0.83476 0.83989 0.27132 0.0
C1311 C 0.87705 0.78321 0.25392 0.0
H1312 H 0.71946 0.77432 0.32464 0.0
H1313 H 0.68316 0.83119 0.32639 0.0
H1314 H 0.74222 0.83658 0.29212 0.0
H1315 H 0.71059 0.853 0.30441 0.0
H1316 H 0.90856 0.7993 0.22609 0.0
H1317 H 0.95083 0.75083 0.23856 0.0
H1318 H 0.89338 0.75062 0.27542 0.0
H1319 H 0.92657 0.73506 0.26714 0.0
Eu1320 Eu 0.81531 0.29545 0.76339 0.0
C1321 C 0.78227 0.36776 0.83704 0.0
C1322 C 0.81455 0.39152 0.8623 0.0
C1323 C 0.78155 0.40752 0.8598 0.0
C1324 C 0.8038 0.37006 0.84649 0.0
C1325 C 0.77087 0.38641 0.84404 0.0
C1326 C 0.80334 0.41011 0.86885 0.0
C1327 C 0.738 0.36085 0.82212 0.0
N1328 N 0.772 0.34687 0.82226 0.0
C1329 C 0.74974 0.3428 0.8161 0.0
C1330 C 0.74867 0.38289 0.83594 0.0
Eu1331 Eu 0.7912 0.31459 0.8183 0.0
N1332 N 0.81414 0.35141 0.84058 0.0
C1333 C 0.83568 0.35402 0.84918 0.0
C1334 C 0.83625 0.39371 0.87142 0.0
C1335 C 0.84691 0.375 0.8646 0.0
H1336 H 0.74051 0.32516 0.8074 0.0
H1337 H 0.86389 0.37671 0.87121 0.0
H1338 H 0.81131 0.42648 0.88115 0.0
H1339 H 0.72051 0.35737 0.81682 0.0
H1340 H 0.84507 0.34067 0.84394 0.0
H1341 H 0.73862 0.23442 0.71714 0.0
H1342 H 0.84498 0.40986 0.88357 0.0
H1343 H 0.86572 0.2842 0.76886 0.0
H1344 H 0.75965 0.26911 0.745 0.0
H1345 H 0.88555 0.25334 0.7531 0.0
H1346 H 0.77296 0.42183 0.86543 0.0
H1347 H 0.75677 0.20271 0.69839 0.0
H1348 H 0.79088 0.18684 0.69392 0.0
H1349 H 0.73939 0.39666 0.84111 0.0
H1350 H 0.83045 0.19143 0.70441 0.0
N1351 N 0.79081 0.25935 0.74153 0.0
C1352 C 0.76856 0.25657 0.73647 0.0
C1353 C 0.76641 0.21835 0.71054 0.0
C1354 C 0.78886 0.22052 0.71636 0.0
C1355 C 0.75617 0.23629 0.72092 0.0
C1356 C 0.80072 0.24122 0.73243 0.0
H1357 H 0.8656 0.21572 0.72669 0.0
N1358 N 0.83389 0.26318 0.75467 0.0
C1359 C 0.86784 0.24992 0.74944 0.0
C1360 C 0.82284 0.24325 0.73912 0.0
C1361 C 0.85631 0.26714 0.75893 0.0
C1362 C 0.85655 0.22883 0.73446 0.0
C1363 C 0.83387 0.22539 0.72885 0.0
O1364 O 0.84767 0.31508 0.75682 0.0
O1365 O 0.81615 0.32423 0.79459 0.0
O1366 O 0.7689 0.31682 0.78417 0.0
O1367 O 0.785 0.30655 0.74916 0.0
O1368 O 0.81486 0.3344 0.76167 0.0
O1369 O 0.82348 0.2951 0.72737 0.0
O1370 O 0.75877 0.29638 0.82635 0.0
O1371 O 0.79089 0.2854 0.78799 0.0
O1372 O 0.83743 0.29036 0.79566 0.0
O1373 O 0.82318 0.30362 0.83121 0.0
O1374 O 0.79144 0.27617 0.82169 0.0
O1375 O 0.78389 0.3167 0.85479 0.0
C1376 C 0.81555 0.34155 0.78417 0.0
C1377 C 0.85373 0.32355 0.71841 0.0
C1378 C 0.85124 0.34519 0.68622 0.0
C1379 C 0.84112 0.3334 0.7033 0.0
C1380 C 0.8739 0.34746 0.6844 0.0
C1381 C 0.87643 0.32612 0.71678 0.0
C1382 C 0.88648 0.33811 0.69982 0.0
C1383 C 0.76896 0.31394 0.76051 0.0
C1384 C 0.84345 0.30794 0.73396 0.0
C1385 C 0.82219 0.20515 0.71256 0.0
C1386 C 0.79971 0.20263 0.70647 0.0
C1387 C 0.7917 0.26873 0.79936 0.0
C1388 C 0.75266 0.29124 0.86588 0.0
C1389 C 0.76355 0.27749 0.87847 0.0
C1390 C 0.75346 0.26716 0.89654 0.0
C1391 C 0.73242 0.2705 0.90175 0.0
C1392 C 0.73155 0.29418 0.87095 0.0
C1393 C 0.72147 0.28382 0.88885 0.0
C1394 C 0.83857 0.29481 0.81936 0.0
C1395 C 0.76353 0.30472 0.84899 0.0
H1396 H 0.82351 0.33122 0.70423 0.0
H1397 H 0.88177 0.35641 0.671 0.0
H1398 H 0.88624 0.31823 0.7282 0.0
H1399 H 0.90393 0.33977 0.69835 0.0
H1400 H 0.77992 0.2753 0.87461 0.0
H1401 H 0.72431 0.26244 0.91552 0.0
H1402 H 0.72307 0.30495 0.86139 0.0
H1403 H 0.70524 0.28625 0.89285 0.0
Eu1404 Eu 0.80763 0.79944 0.76738 0.0
C1405 C 0.72976 0.72137 0.72431 0.0
C1406 C 0.70793 0.71367 0.75684 0.0
C1407 C 0.69018 0.70432 0.71684 0.0
C1408 C 0.72856 0.72168 0.74839 0.0
C1409 C 0.71054 0.71193 0.70831 0.0
C1410 C 0.68885 0.70538 0.74103 0.0
C1411 C 0.73307 0.71452 0.67601 0.0
N1412 N 0.74976 0.72808 0.71623 0.0
C1413 C 0.75159 0.72343 0.69231 0.0
C1414 C 0.7124 0.70901 0.68403 0.0
Eu1415 Eu 0.78101 0.7365 0.7449 0.0
N1416 N 0.74747 0.7282 0.76332 0.0
C1417 C 0.74649 0.72661 0.78675 0.0
C1418 C 0.70704 0.71322 0.7809 0.0
C1419 C 0.72641 0.7197 0.79588 0.0
H1420 H 0.76747 0.72566 0.68541 0.0
H1421 H 0.72596 0.71903 0.81451 0.0
H1422 H 0.67304 0.69898 0.74729 0.0
H1423 H 0.73486 0.71116 0.65726 0.0
H1424 H 0.7608 0.73088 0.79912 0.0
H1425 H 0.86266 0.81192 0.69672 0.0
H1426 H 0.69155 0.70731 0.78799 0.0
H1427 H 0.82087 0.81272 0.82674 0.0
H1428 H 0.82897 0.79605 0.71278 0.0
H1429 H 0.85232 0.83387 0.85492 0.0
H1430 H 0.67541 0.69697 0.70478 0.0
H1431 H 0.89562 0.83383 0.72339 0.0
H1432 H 0.91311 0.85007 0.76439 0.0
H1433 H 0.69811 0.70151 0.67132 0.0
H1434 H 0.91044 0.8556 0.80716 0.0
N1435 N 0.84118 0.80883 0.74903 0.0
C1436 C 0.84246 0.80593 0.7251 0.0
C1437 C 0.88055 0.82682 0.73076 0.0
C1438 C 0.8795 0.82972 0.75515 0.0
C1439 C 0.86199 0.81466 0.71569 0.0
C1440 C 0.85948 0.82006 0.76394 0.0
H1441 H 0.88813 0.84941 0.84085 0.0
N1442 N 0.83882 0.8131 0.79618 0.0
C1443 C 0.85438 0.83033 0.83623 0.0
C1444 C 0.85821 0.82241 0.78811 0.0
C1445 C 0.83662 0.81771 0.81999 0.0
C1446 C 0.8745 0.83919 0.82822 0.0
C1447 C 0.8766 0.83551 0.80397 0.0
O1448 O 0.79575 0.82252 0.7955 0.0
O1449 O 0.77699 0.77072 0.76624 0.0
O1450 O 0.78378 0.7592 0.71468 0.0
O1451 O 0.79638 0.80056 0.72997 0.0
O1452 O 0.77357 0.80205 0.75454 0.0
O1453 O 0.81304 0.83822 0.76727 0.0
O1454 O 0.78968 0.71106 0.71598 0.0
O1455 O 0.8116 0.76485 0.74655 0.0
O1456 O 0.80675 0.77774 0.79764 0.0
O1457 O 0.79347 0.73627 0.78308 0.0
O1458 O 0.81525 0.73206 0.75517 0.0
O1459 O 0.7713 0.69778 0.74426 0.0
C1460 C 0.76309 0.78188 0.75937 0.0
C1461 C 0.80204 0.86568 0.79818 0.0
C1462 C 0.7858 0.90003 0.79607 0.0
C1463 C 0.78637 0.87587 0.78799 0.0
C1464 C 0.8004 0.91366 0.81542 0.0
C1465 C 0.81677 0.87909 0.81734 0.0
C1466 C 0.81578 0.90307 0.8261 0.0
C1467 C 0.78813 0.78243 0.71235 0.0
C1468 C 0.80405 0.84182 0.78708 0.0
C1469 C 0.8963 0.84537 0.79523 0.0
C1470 C 0.89779 0.84232 0.77089 0.0
C1471 C 0.82544 0.75344 0.75293 0.0
C1472 C 0.7814 0.6681 0.71539 0.0
C1473 C 0.79405 0.65747 0.72944 0.0
C1474 C 0.79755 0.6344 0.72095 0.0
C1475 C 0.7879 0.62166 0.6986 0.0
C1476 C 0.77156 0.6554 0.6931 0.0
C1477 C 0.77467 0.6321 0.68481 0.0
C1478 C 0.8019 0.75481 0.80057 0.0
C1479 C 0.77843 0.69249 0.7236 0.0
H1480 H 0.77516 0.86522 0.77305 0.0
H1481 H 0.80047 0.93259 0.82164 0.0
H1482 H 0.82924 0.87124 0.82508 0.0
H1483 H 0.82732 0.91365 0.8407 0.0
H1484 H 0.80205 0.66761 0.74645 0.0
H1485 H 0.79099 0.60399 0.69172 0.0
H1486 H 0.7616 0.66356 0.68211 0.0
H1487 H 0.76723 0.62237 0.66753 0.0
Eu1488 Eu 0.54542 0.53548 0.51649 0.0
C1489 C 0.61754 0.62167 0.57239 0.0
C1490 C 0.62832 0.64595 0.54271 0.0
C1491 C 0.63626 0.6642 0.58424 0.0
C1492 C 0.61831 0.62361 0.5489 0.0
C1493 C 0.62682 0.6419 0.59034 0.0
C1494 C 0.637 0.66622 0.56046 0.0
C1495 C 0.61884 0.61611 0.61918 0.0
N1496 N 0.60889 0.59973 0.57776 0.0
C1497 C 0.6102 0.59657 0.60081 0.0
C1498 C 0.62705 0.63895 0.61394 0.0
Eu1499 Eu 0.59668 0.56619 0.54593 0.0
N1500 N 0.61025 0.60349 0.53214 0.0
C1501 C 0.61236 0.60478 0.50879 0.0
C1502 C 0.62992 0.64719 0.51888 0.0
C1503 C 0.62198 0.62647 0.50188 0.0
H1504 H 0.60469 0.57876 0.60507 0.0
H1505 H 0.62316 0.62715 0.48332 0.0
H1506 H 0.64473 0.68342 0.55597 0.0
H1507 H 0.61951 0.61344 0.63734 0.0
H1508 H 0.606 0.5896 0.49483 0.0
H1509 H 0.52181 0.48208 0.58622 0.0
H1510 H 0.6375 0.66394 0.51345 0.0
H1511 H 0.53817 0.5168 0.45759 0.0
H1512 H 0.53889 0.51739 0.57105 0.0
H1513 H 0.52216 0.47995 0.42849 0.0
H1514 H 0.64345 0.67987 0.59777 0.0
H1515 H 0.50564 0.44363 0.55902 0.0
H1516 H 0.49654 0.42078 0.51776 0.0
H1517 H 0.63407 0.654 0.62817 0.0
H1518 H 0.49693 0.42003 0.47509 0.0
N1519 N 0.53254 0.50064 0.53439 0.0
C1520 C 0.53154 0.50151 0.55828 0.0
C1521 C 0.51313 0.45941 0.55195 0.0
C1522 C 0.51384 0.45838 0.52765 0.0
C1523 C 0.52209 0.48107 0.56731 0.0
C1524 C 0.52388 0.47945 0.51925 0.0
H1525 H 0.50652 0.44179 0.44182 0.0
N1526 N 0.53358 0.49947 0.48755 0.0
C1527 C 0.52292 0.47927 0.44717 0.0
C1528 C 0.5244 0.47888 0.49521 0.0
C1529 C 0.53227 0.50005 0.46382 0.0
C1530 C 0.51409 0.45781 0.45476 0.0
C1531 C 0.5145 0.45746 0.47898 0.0
O1532 O 0.52231 0.54209 0.49014 0.0
O1533 O 0.56546 0.57357 0.53009 0.0
O1534 O 0.57237 0.5729 0.57486 0.0
O1535 O 0.5388 0.55147 0.55517 0.0
O1536 O 0.55443 0.56446 0.49446 0.0
O1537 O 0.51202 0.53844 0.52537 0.0
O1538 O 0.61934 0.55406 0.5688 0.0
O1539 O 0.57665 0.52813 0.53181 0.0
O1540 O 0.56966 0.52768 0.48798 0.0
O1541 O 0.6023 0.55299 0.50579 0.0
O1542 O 0.5874 0.53691 0.56757 0.0
O1543 O 0.62959 0.56361 0.53567 0.0
C1544 C 0.56376 0.58213 0.5111 0.0
C1545 C 0.48511 0.54448 0.49563 0.0
C1546 C 0.45202 0.55899 0.50285 0.0
C1547 C 0.4723 0.55542 0.51132 0.0
C1548 C 0.44434 0.55138 0.47884 0.0
C1549 C 0.47747 0.53694 0.47156 0.0
C1550 C 0.45706 0.54032 0.46324 0.0
C1551 C 0.55073 0.56436 0.57502 0.0
C1552 C 0.50675 0.54169 0.50408 0.0
C1553 C 0.50466 0.43655 0.48731 0.0
C1554 C 0.5044 0.43699 0.51158 0.0
C1555 C 0.57848 0.5193 0.55063 0.0
C1556 C 0.65737 0.56265 0.56558 0.0
C1557 C 0.67215 0.54967 0.55557 0.0
C1558 C 0.69331 0.55304 0.56664 0.0
C1559 C 0.69995 0.56978 0.58781 0.0
C1560 C 0.66382 0.57927 0.58692 0.0
C1561 C 0.68514 0.58282 0.59796 0.0
C1562 C 0.59059 0.53833 0.48656 0.0
C1563 C 0.63477 0.55569 0.55471 0.0
H1564 H 0.47817 0.56146 0.5299 0.0
H1565 H 0.42852 0.55401 0.47225 0.0
H1566 H 0.48725 0.52842 0.45922 0.0
H1567 H 0.45115 0.53444 0.44471 0.0
H1568 H 0.66704 0.53653 0.53928 0.0
H1569 H 0.71637 0.57245 0.59656 0.0
H1570 H 0.6524 0.58909 0.5952 0.0
H1571 H 0.69011 0.59546 0.6145 0.0
Eu1572 Eu 0.08026 0.53736 0.02791 0.0
C1573 C 0.99919 0.49399 0.07034 0.0
C1574 C 0.98355 0.46032 0.03834 0.0
C1575 C 0.97753 0.45644 0.07888 0.0
C1576 C 0.99603 0.48418 0.04636 0.0
C1577 C 0.98955 0.48033 0.08678 0.0
C1578 C 0.97459 0.44645 0.05474 0.0
C1579 C 1.00275 0.51552 0.11755 0.0
N1580 N 0.01089 0.51717 0.07754 0.0
C1581 C 0.01187 0.52842 0.10063 0.0
C1582 C 0.99177 0.49129 0.11064 0.0
Eu1583 Eu 0.02559 0.53746 0.0473 0.0
N1584 N 1.00467 0.49805 0.03081 0.0
C1585 C 1.00102 0.48932 0.00706 0.0
C1586 C 0.98022 0.45115 0.01403 0.0
C1587 C 0.98891 0.46578 0.99832 0.0
H1588 H 0.02021 0.54727 0.10594 0.0
H1589 H 0.98647 0.45889 0.97947 0.0
H1590 H 0.96504 0.42809 0.04889 0.0
H1591 H 1.00408 0.52431 0.13588 0.0
H1592 H 0.00802 0.50007 0.99477 0.0
H1593 H 0.13921 0.60626 0.09235 0.0
H1594 H 0.97086 0.4329 0.00721 0.0
H1595 H 0.08468 0.52969 0.96891 0.0
H1596 H 0.11593 0.56621 0.07721 0.0
H1597 H 0.09599 0.55458 0.93901 0.0
H1598 H 0.97012 0.44567 0.09128 0.0
H1599 H 0.14519 0.63719 0.06685 0.0
H1600 H 0.1406 0.64729 0.02655 0.0
H1601 H 0.9846 0.48138 0.12377 0.0
H1602 H 0.12873 0.63306 0.98424 0.0
N1603 N 0.10592 0.57466 0.0439 0.0
C1604 C 0.11707 0.57966 0.06603 0.0
C1605 C 0.13423 0.61973 0.06022 0.0
C1606 C 0.12472 0.61372 0.03683 0.0
C1607 C 0.13089 0.60235 0.07466 0.0
C1608 C 0.11067 0.59064 0.02898 0.0
H1609 H 0.11266 0.59829 0.95132 0.0
N1610 N 0.0928 0.55939 0.99792 0.0
C1611 C 0.09796 0.56289 0.95752 0.0
C1612 C 0.10387 0.58272 0.00518 0.0
C1613 C 0.09136 0.54891 0.97458 0.0
C1614 C 0.10728 0.58755 0.96454 0.0
C1615 C 0.11111 0.59757 0.98865 0.0
O1616 O 0.0915 0.50915 0.00468 0.0
O1617 O 0.04616 0.51403 0.02742 0.0
O1618 O 0.04528 0.52706 0.07583 0.0
O1619 O 0.08031 0.54448 0.0675 0.0
O1620 O 0.07216 0.5023 0.04186 0.0
O1621 O 0.11157 0.5273 0.03719 0.0
O1622 O 0.00998 0.56662 0.06156 0.0
O1623 O 0.05653 0.56146 0.03857 0.0
O1624 O 0.05569 0.53129 0.99545 0.0
O1625 O 0.0276 0.54744 0.01172 0.0
O1626 O 0.04448 0.57264 0.07042 0.0
O1627 O 0.99234 0.5388 0.03294 0.0
C1628 C 0.05146 0.4961 0.03498 0.0
C1629 C 0.12902 0.50524 0.0073 0.0
C1630 C 0.16156 0.4873 0.00783 0.0
C1631 C 0.14399 0.49464 0.01926 0.0
C1632 C 0.16398 0.49062 0.98448 0.0
C1633 C 0.13195 0.50842 0.98397 0.0
C1634 C 0.14931 0.50114 0.97269 0.0
C1635 C 0.06627 0.53582 0.08177 0.0
C1636 C 0.10927 0.51042 0.01842 0.0
C1637 C 0.12334 0.62131 0.99665 0.0
C1638 C 0.13012 0.6294 0.02075 0.0
C1639 C 0.05915 0.57883 0.05627 0.0
C1640 C 0.97146 0.56147 0.05787 0.0
C1641 C 0.95771 0.57443 0.04763 0.0
C1642 C 0.94001 0.58109 0.0593 0.0
C1643 C 0.9363 0.57422 0.08137 0.0
C1644 C 0.96701 0.55436 0.07951 0.0
C1645 C 0.94953 0.56072 0.09117 0.0
C1646 C 0.0374 0.53938 0.99354 0.0
C1647 C 0.99198 0.55875 0.04741 0.0
H1648 H 0.14178 0.49177 0.03717 0.0
H1649 H 0.17731 0.48506 0.97535 0.0
H1650 H 0.12061 0.51612 0.97426 0.0
H1651 H 0.15131 0.50348 0.95464 0.0
H1652 H 0.96118 0.57968 0.0308 0.0
H1653 H 0.92347 0.57967 0.09142 0.0
H1654 H 0.97737 0.54455 0.08775 0.0
H1655 H 0.94653 0.55567 0.10816 0.0
H1656 H 0.04689 0.23338 0.9998 0.0
H1657 H 0.01566 0.18179 0.93792 0.0
H1658 H 0.05807 0.2009 0.01683 0.0
H1659 H 0.02621 0.14901 0.95515 0.0
H1660 H 0.06164 0.09475 0.98211 0.0
H1661 H 0.05358 0.1288 0.965 0.0
H1662 H 0.04904 0.16729 0.035 0.0
H1663 H 0.05748 0.13335 0.05181 0.0
C1664 C 0.04211 0.21503 0.98985 0.0
C1665 C 0.0302 0.21053 0.96734 0.0
C1666 C 0.04854 0.19615 0.99974 0.0
C1667 C 0.04333 0.17177 0.98761 0.0
C1668 C 0.03113 0.1673 0.96516 0.0
C1669 C 0.02477 0.18624 0.95524 0.0
C1670 C 0.05956 0.1108 0.99389 0.0
C1671 C 0.06078 0.11134 0.01849 0.0
C1672 C 0.05447 0.13034 0.98402 0.0
C1673 C 0.05026 0.15127 0.99832 0.0
C1674 C 0.05225 0.15198 0.02305 0.0
C1675 C 0.05719 0.13238 0.03285 0.0
H1676 H 0.17485 0.80487 0.1338 0.0
H1677 H 0.14579 0.84155 0.19099 0.0
H1678 H 0.20613 0.80441 0.16091 0.0
H1679 H 0.17681 0.84057 0.21862 0.0
H1680 H 0.24276 0.84712 0.26369 0.0
H1681 H 0.21257 0.85156 0.23647 0.0
H1682 H 0.21996 0.78745 0.18906 0.0
H1683 H 0.2508 0.78462 0.21474 0.0
C1684 C 0.17515 0.81298 0.15222 0.0
C1685 C 0.15755 0.82321 0.15999 0.0
C1686 C 0.19315 0.81244 0.16811 0.0
C1687 C 0.1944 0.82205 0.19261 0.0
C1688 C 0.17697 0.83294 0.20017 0.0
C1689 C 0.15891 0.83341 0.18422 0.0
C1690 C 0.23796 0.83405 0.24739 0.0
C1691 C 0.24954 0.8154 0.24182 0.0
C1692 C 0.22039 0.83648 0.23164 0.0
C1693 C 0.21337 0.82002 0.20992 0.0
C1694 C 0.22479 0.80117 0.20487 0.0
C1695 C 0.24258 0.79922 0.22013 0.0
H1696 H 0.55571 0.85834 0.45065 0.0
H1697 H 0.50461 0.83683 0.49493 0.0
H1698 H 0.5584 0.9008 0.46789 0.0
H1699 H 0.50709 0.87963 0.51212 0.0
H1700 H 0.53783 0.95909 0.55407 0.0
H1701 H 0.53091 0.91564 0.53744 0.0
H1702 H 0.53807 0.93266 0.46771 0.0
H1703 H 0.54482 0.976 0.48451 0.0
C1704 C 0.54499 0.86265 0.46408 0.0
C1705 C 0.52984 0.84401 0.47123 0.0
C1706 C 0.5464 0.88714 0.47388 0.0
C1707 C 0.53271 0.89395 0.4912 0.0
C1708 C 0.51794 0.87524 0.49886 0.0
C1709 C 0.51649 0.85064 0.48898 0.0
C1710 C 0.53713 0.95343 0.53508 0.0
C1711 C 0.54118 0.97096 0.52053 0.0
C1712 C 0.5333 0.92849 0.52552 0.0
C1713 C 0.53413 0.92039 0.50117 0.0
C1714 C 0.53753 0.93805 0.48655 0.0
C1715 C 0.54102 0.96294 0.49609 0.0
H1716 H 0.5273 0.26704 0.62873 0.0
H1717 H 0.54641 0.34184 0.66358 0.0
H1718 H 0.49419 0.26189 0.64946 0.0
H1719 H 0.51258 0.33751 0.68305 0.0
H1720 H 0.4686 0.3128 0.73931 0.0
H1721 H 0.49763 0.32202 0.7138 0.0
H1722 H 0.45958 0.26768 0.6568 0.0
H1723 H 0.43097 0.25796 0.68314 0.0
C1724 C 0.52417 0.28251 0.64055 0.0
C1725 C 0.53965 0.30468 0.64494 0.0
C1726 C 0.50501 0.27968 0.65234 0.0
C1727 C 0.50054 0.29917 0.6684 0.0
C1728 C 0.51558 0.32176 0.67157 0.0
C1729 C 0.535 0.32436 0.66029 0.0
C1730 C 0.46634 0.30322 0.72116 0.0
C1731 C 0.44758 0.2848 0.71314 0.0
C1732 C 0.48297 0.30853 0.70636 0.0
C1733 C 0.48134 0.2955 0.68303 0.0
C1734 C 0.46185 0.27783 0.6747 0.0
C1735 C 0.44524 0.27245 0.68964 0.0
H1736 H 0.99673 0.8304 0.63249 0.0
H1737 H 0.04699 0.79254 0.60919 0.0
H1738 H 0.01109 0.86245 0.61027 0.0
H1739 H 0.06142 0.82429 0.58754 0.0
H1740 H 0.09493 0.89163 0.56658 0.0
H1741 H 0.08018 0.86799 0.59591 0.0
H1742 H 0.01398 0.86462 0.56645 0.0
H1743 H 0.02885 0.88894 0.5375 0.0
C1744 C 0.01085 0.82906 0.62267 0.0
C1745 C 0.02068 0.80905 0.62218 0.0
C1746 C 0.01903 0.84728 0.61006 0.0
C1747 C 0.03747 0.84589 0.59743 0.0
C1748 C 0.04738 0.82599 0.59739 0.0
C1749 C 0.03897 0.80766 0.60949 0.0
C1750 C 0.07725 0.88588 0.56651 0.0
C1751 C 0.06296 0.89132 0.5495 0.0
C1752 C 0.06882 0.87254 0.5833 0.0
C1753 C 0.04599 0.86417 0.5831 0.0
C1754 C 0.03165 0.87094 0.56699 0.0
C1755 C 0.04011 0.88456 0.55034 0.0
H1756 H 0.54836 0.84509 0.89747 0.0
H1757 H 0.5719 0.82935 0.82877 0.0
H1758 H 0.51229 0.84578 0.87824 0.0
H1759 H 0.53649 0.83037 0.80987 0.0
H1760 H 0.46841 0.81401 0.77899 0.0
H1761 H 0.49834 0.80678 0.80432 0.0
H1762 H 0.49777 0.87269 0.85312 0.0
H1763 H 0.4672 0.87936 0.82789 0.0
C1764 C 0.54578 0.8417 0.87834 0.0
C1765 C 0.56282 0.8371 0.86456 0.0
C1766 C 0.52524 0.84211 0.8674 0.0
C1767 C 0.52157 0.8378 0.8426 0.0
C1768 C 0.53867 0.83315 0.829 0.0
C1769 C 0.55903 0.83278 0.83985 0.0
C1770 C 0.47469 0.82678 0.79522 0.0
C1771 C 0.4663 0.8476 0.80133 0.0
C1772 C 0.49164 0.82265 0.80973 0.0
C1773 C 0.50062 0.83946 0.83038 0.0
C1774 C 0.49115 0.85949 0.83727 0.0
C1775 C 0.47398 0.86351 0.82278 0.0
H1776 H 0.46372 0.17786 0.1218 0.0
H1777 H 0.53133 0.18902 0.15079 0.0
H1778 H 0.46988 0.14663 0.0898 0.0
H1779 H 0.53761 0.15855 0.11858 0.0
H1780 H 0.54867 0.143 0.04113 0.0
H1781 H 0.53504 0.16744 0.0737 0.0
H1782 H 0.48575 0.10472 0.08095 0.0
H1783 H 0.49954 0.08037 0.04858 0.0
C1784 C 0.47955 0.17282 0.12182 0.0
C1785 C 0.49713 0.18571 0.1384 0.0
C1786 C 0.4831 0.15526 0.10353 0.0
C1787 C 0.50433 0.15107 0.10164 0.0
C1788 C 0.5212 0.16198 0.11972 0.0
C1789 C 0.51752 0.17904 0.13827 0.0
C1790 C 0.53441 0.13486 0.04916 0.0
C1791 C 0.52471 0.11024 0.04236 0.0
C1792 C 0.52684 0.14857 0.06783 0.0
C1793 C 0.50969 0.13757 0.0798 0.0
C1794 C 0.49896 0.11337 0.0718 0.0
C1795 C 0.5066 0.09964 0.05318 0.0
H1796 H 0.168 0.34994 0.32703 0.0
H1797 H 0.18315 0.30459 0.37582 0.0
H1798 H 0.19207 0.33355 0.29971 0.0
H1799 H 0.20544 0.28671 0.34804 0.0
H1800 H 0.26535 0.2853 0.30843 0.0
H1801 H 0.23905 0.29736 0.33402 0.0
H1802 H 0.19515 0.298 0.27299 0.0
H1803 H 0.22281 0.28703 0.24708 0.0
C1804 C 0.17662 0.33655 0.33184 0.0
C1805 C 0.17418 0.32865 0.35344 0.0
C1806 C 0.18996 0.32683 0.3161 0.0
C1807 C 0.20041 0.30864 0.32164 0.0
C1808 C 0.19792 0.30098 0.34342 0.0
C1809 C 0.18527 0.31127 0.3594 0.0
C1810 C 0.24978 0.28727 0.30045 0.0
C1811 C 0.24571 0.2849 0.27594 0.0
C1812 C 0.23465 0.29417 0.31512 0.0
C1813 C 0.21502 0.29866 0.30553 0.0
C1814 C 0.21036 0.29499 0.28081 0.0
C1815 C 0.22586 0.2884 0.26602 0.0
H1816 H 0.99771 0.112 0.21792 0.0
H1817 H 0.97132 0.03527 0.1985 0.0
H1818 H 0.01785 0.11081 0.18233 0.0
H1819 H 0.99187 0.03384 0.1635 0.0
H1820 H 0.04568 0.03215 0.11077 0.0
H1821 H 0.02663 0.03522 0.14662 0.0
H1822 H 0.01831 0.10622 0.13842 0.0
H1823 H 0.03702 0.10272 0.10181 0.0
C1824 C 0.99614 0.09471 0.20627 0.0
C1825 C 0.98236 0.07374 0.2119 0.0
C1826 C 0.00784 0.09401 0.1854 0.0
C1827 C 1.00711 0.07216 0.16906 0.0
C1828 C 0.99355 0.05121 0.17501 0.0
C1829 C 0.98141 0.05204 0.19544 0.0
C1830 C 0.03974 0.04847 0.1162 0.0
C1831 C 0.04321 0.067 0.10233 0.0
C1832 C 0.02854 0.05028 0.13726 0.0
C1833 C 0.02013 0.07091 0.14632 0.0
C1834 C 0.02422 0.08987 0.13285 0.0
C1835 C 0.0352 0.08789 0.11148 0.0
H1836 H 0.25193 0.66868 0.49206 0.0
H1837 H 0.3124 0.66696 0.4598 0.0
H1838 H 0.24335 0.69699 0.46746 0.0
H1839 H 0.3037 0.69525 0.43469 0.0
H1840 H 0.26704 0.73367 0.38394 0.0
H1841 H 0.27398 0.70078 0.40316 0.0
H1842 H 0.26479 0.74136 0.47064 0.0
H1843 H 0.25821 0.77468 0.45146 0.0
C1844 C 0.26297 0.67382 0.47903 0.0
C1845 C 0.28274 0.66591 0.4775 0.0
C1846 C 0.2582 0.69012 0.46524 0.0
C1847 C 0.27313 0.69854 0.44972 0.0
C1848 C 0.29207 0.68901 0.44674 0.0
C1849 C 0.297 0.67287 0.46087 0.0
C1850 C 0.26674 0.73569 0.40295 0.0
C1851 C 0.26214 0.7567 0.41635 0.0
C1852 C 0.27066 0.71687 0.41382 0.0
C1853 C 0.26969 0.71861 0.43819 0.0
C1854 C 0.26521 0.73959 0.45167 0.0
C1855 C 0.26144 0.75855 0.4408 0.0
H1856 H 0.6705 1.0043 0.66354 0.0
H1857 H 0.67539 0.08093 0.66611 0.0
H1858 H 0.63646 0.99518 0.63814 0.0
H1859 H 0.64186 0.07198 0.63904 0.0
H1860 H 0.57131 0.05679 0.62383 0.0
H1861 H 0.60499 0.05913 0.64872 0.0
H1862 H 0.61543 0.99466 0.60373 0.0
H1863 H 0.58089 0.99134 0.58068 0.0
C1864 C 0.66485 0.01906 0.65729 0.0
C1865 C 0.67484 0.04317 0.66679 0.0
C1866 C 0.64528 0.01391 0.64298 0.0
C1867 C 0.63607 0.03296 0.63768 0.0
C1868 C 0.64822 0.05705 0.64396 0.0
C1869 C 0.66766 0.0622 0.65874 0.0
C1870 C 0.5801 0.04225 0.62057 0.0
C1871 C 0.57418 0.02415 0.60049 0.0
C1872 C 0.59969 0.04402 0.63412 0.0
C1873 C 0.61333 0.02787 0.62717 0.0
C1874 C 0.60542 1.00757 0.60927 0.0
C1875 C 0.5855 1.00542 0.59629 0.0
H1876 H 0.28866 0.33429 0.96035 0.0
H1877 H 0.35815 0.36573 0.96559 0.0
H1878 H 0.28972 0.31687 0.91841 0.0
H1879 H 0.35956 0.3476 0.92456 0.0
H1880 H 0.34526 0.3492 0.84577 0.0
H1881 H 0.34655 0.35801 0.88849 0.0
H1882 H 0.30371 0.28825 0.88754 0.0
H1883 H 0.30349 0.279 0.84416 0.0
C1884 C 0.30422 0.33697 0.95267 0.0
C1885 C 0.3233 0.35161 0.96609 0.0
C1886 C 0.30488 0.32692 0.9287 0.0
C1887 C 0.32471 0.33106 0.9179 0.0
C1888 C 0.3439 0.34449 0.93198 0.0
C1889 C 0.34314 0.35484 0.95557 0.0
C1890 C 0.33721 0.33514 0.85474 0.0
C1891 C 0.32544 0.31287 0.84166 0.0
C1892 C 0.33761 0.34032 0.87933 0.0
C1893 C 0.32541 0.3238 0.89172 0.0
C1894 C 0.31349 0.30134 0.87868 0.0
C1895 C 0.31369 0.29583 0.85389 0.0
H1896 H 1.00627 0.05019 0.32734 0.0
H1897 H 0.96262 0.08502 0.36847 0.0
H1898 H 0.02488 0.04335 0.36365 0.0
H1899 H 0.98081 0.07829 0.40459 0.0
H1900 H 0.01954 0.0747 0.47269 0.0
H1901 H 1.00454 0.08253 0.436 0.0
H1902 H 0.03409 0.02827 0.39731 0.0
H1903 H 0.05064 0.02166 0.43489 0.0
C1904 C 1.00055 0.05666 0.34408 0.0
C1905 C 0.9825 0.06845 0.34405 0.0
C1906 C 0.01137 0.05252 0.36542 0.0
C1907 C 1.00514 0.06012 0.38845 0.0
C1908 C 0.98713 0.07207 0.38819 0.0
C1909 C 0.97623 0.07596 0.3669 0.0
C1910 C 0.02316 0.06418 0.45657 0.0
C1911 C 0.03638 0.04682 0.45808 0.0
C1912 C 0.01401 0.06862 0.43478 0.0
C1913 C 0.0168 0.05576 0.41225 0.0
C1914 C 0.03076 0.03887 0.41351 0.0
C1915 C 0.0404 0.03476 0.43561 0.0
H1916 H 0.30881 0.66725 0.62164 0.0
H1917 H 0.2593 0.69472 0.5855 0.0
H1918 H 0.31215 0.70074 0.65522 0.0
H1919 H 0.26249 0.72802 0.61889 0.0
H1920 H 0.26882 0.77304 0.69658 0.0
H1921 H 0.25931 0.73927 0.6631 0.0
H1922 H 0.32832 0.74573 0.65342 0.0
H1923 H 0.3378 0.77914 0.68694 0.0
C1924 C 0.29817 0.68001 0.62135 0.0
C1925 C 0.28414 0.67907 0.60122 0.0
C1926 C 0.30023 0.69919 0.64024 0.0
C1927 C 0.28803 0.71714 0.63902 0.0
C1928 C 0.27222 0.71451 0.61995 0.0
C1929 C 0.27041 0.69558 0.60099 0.0
C1930 C 0.28182 0.76782 0.68661 0.0
C1931 C 0.30401 0.77847 0.69421 0.0
C1932 C 0.27642 0.7484 0.66777 0.0
C1933 C 0.29321 0.73957 0.65653 0.0
C1934 C 0.31521 0.75194 0.66247 0.0
C1935 C 0.3206 0.77144 0.68119 0.0
H1936 H 0.7027 0.06107 0.81822 0.0
H1937 H 0.63993 0.03972 0.77584 0.0
H1938 H 0.68371 0.06548 0.85414 0.0
H1939 H 0.62107 0.04419 0.81145 0.0
H1940 H 0.58881 0.04707 0.87597 0.0
H1941 H 0.61281 0.02995 0.84897 0.0
H1942 H 0.66256 0.09636 0.86855 0.0
H1943 H 0.63872 0.11314 0.89561 0.0
C1944 C 0.68486 0.05685 0.81665 0.0
C1945 C 0.67272 0.0502 0.79434 0.0
C1946 C 0.67403 0.05937 0.83715 0.0
C1947 C 0.65093 0.05502 0.83559 0.0
C1948 C 0.63886 0.04721 0.81327 0.0
C1949 C 0.64966 0.04493 0.79285 0.0
C1950 C 0.60521 0.05755 0.87509 0.0
C1951 C 0.61191 0.0815 0.88742 0.0
C1952 C 0.61886 0.04785 0.8596 0.0
C1953 C 0.63936 0.062 0.8564 0.0
C1954 C 0.6469 0.08499 0.87069 0.0
C1955 C 0.63322 0.09469 0.88602 0.0
H1956 H 0.33568 0.33033 0.08789 0.0
H1957 H 0.2897 0.37603 0.10479 0.0
H1958 H 0.32414 0.3085 0.11964 0.0
H1959 H 0.27697 0.35339 0.13527 0.0
H1960 H 0.27865 0.32939 0.20688 0.0
H1961 H 0.28537 0.34786 0.17248 0.0
H1962 H 0.29851 0.28107 0.13503 0.0
H1963 H 0.29273 0.26299 0.17042 0.0
C1964 C 0.32297 0.33559 0.09831 0.0
C1965 C 0.31387 0.35517 0.09402 0.0
C1966 C 0.31608 0.32285 0.11639 0.0
C1967 C 0.29951 0.32897 0.1304 0.0
C1968 C 0.29013 0.3483 0.12556 0.0
C1969 C 0.29739 0.36135 0.10791 0.0
C1970 C 0.28256 0.31845 0.19114 0.0
C1971 C 0.2852 0.29472 0.19151 0.0
C1972 C 0.28637 0.32906 0.17117 0.0
C1973 C 0.29289 0.31628 0.15068 0.0
C1974 C 0.29407 0.29185 0.15051 0.0
C1975 C 0.29028 0.28121 0.17068 0.0
H1976 H 0.30627 1.00025 0.03086 0.0
H1977 H 0.25485 0.93874 0.99791 0.0
H1978 H 0.27937 0.02344 0.04162 0.0
H1979 H 0.2272 0.96302 0.00776 0.0
H1980 H 0.18918 1.00536 0.0622 0.0
H1981 H 0.21259 0.97982 0.04339 0.0
H1982 H 0.25427 0.04345 0.02574 0.0
H1983 H 0.23155 0.06886 0.04586 0.0
C1984 C 0.2891 0.99191 0.02526 0.0
C1985 C 0.28252 0.96783 0.01333 0.0
C1986 C 0.27366 1.00534 0.03131 0.0
C1987 C 0.25122 0.99525 0.0251 0.0
C1988 C 0.24448 0.97118 0.01274 0.0
C1989 C 0.26014 0.95738 0.00703 0.0
C1990 C 0.20363 0.0137 0.05456 0.0
C1991 C 0.20936 0.03893 0.0561 0.0
C1992 C 0.21667 0.99913 0.04339 0.0
C1993 C 0.23534 1.00972 0.03335 0.0
C1994 C 0.24026 0.03491 0.03388 0.0
C1995 C 0.2275 0.04947 0.04549 0.0
H1996 H 0.74821 0.62413 0.02019 0.0
H1997 H 0.72032 0.67179 0.98275 0.0
H1998 H 0.71201 0.59725 0.01754 0.0
H1999 H 0.68432 0.64437 0.97877 0.0
H2000 H 0.61844 0.60672 0.99961 0.0
H2001 H 0.65463 0.63166 0.99847 0.0
H2002 H 0.68295 0.56851 0.99603 0.0
H2003 H 0.64658 0.54374 0.99827 0.0
C2004 C 0.73435 0.62871 0.0111 0.0
C2005 C 0.73717 0.65026 1.00189 0.0
C2006 C 0.71349 0.61313 0.00936 0.0
C2007 C 0.69481 0.61841 0.99801 0.0
C2008 C 0.69793 0.63973 0.98819 0.0
C2009 C 0.71871 0.65549 0.99031 0.0
C2010 C 0.63233 0.59803 0.99864 0.0
C2011 C 0.62938 0.57307 0.99904 0.0
C2012 C 0.65327 0.61242 0.99779 0.0
C2013 C 0.67215 0.60241 0.99725 0.0
C2014 C 0.66908 0.5772 0.99684 0.0
C2015 C 0.64804 0.56278 0.99775 0.0
H2016 H 0.69175 0.42353 0.26322 0.0
H2017 H 0.75203 0.47755 0.2732 0.0
H2018 H 0.71283 0.39153 0.26152 0.0
H2019 H 0.77325 0.44563 0.27143 0.0
H2020 H 0.81059 0.38097 0.25551 0.0
H2021 H 0.78971 0.41285 0.25479 0.0
H2022 H 0.73406 0.367 0.27682 0.0
H2023 H 0.7555 0.33626 0.27923 0.0
C2024 C 0.70955 0.42894 0.26513 0.0
C2025 C 0.71949 0.45418 0.26857 0.0
C2026 C 0.72203 0.4101 0.26423 0.0
C2027 C 0.7456 0.41477 0.26643 0.0
C2028 C 0.75548 0.44006 0.26945 0.0
C2029 C 0.74299 0.4589 0.27061 0.0
C2030 C 0.79416 0.37747 0.26066 0.0
C2031 C 0.78592 0.35507 0.26815 0.0
C2032 C 0.78167 0.39626 0.26013 0.0
C2033 C 0.75943 0.39391 0.26612 0.0
C2034 C 0.75079 0.37089 0.27216 0.0
C2035 C 0.76352 0.35262 0.27349 0.0
H2036 H 0.90214 0.49778 0.54806 0.0
H2037 H 0.90088 0.43979 0.48924 0.0
H2038 H 0.93526 0.52102 0.53596 0.0
H2039 H 0.93229 0.4639 0.47523 0.0
H2040 H 1.00667 0.49839 0.48896 0.0
H2041 H 0.96878 0.47715 0.48275 0.0
H2042 H 0.94886 0.54425 0.50881 0.0
H2043 H 0.98754 0.56486 0.51729 0.0
C2044 C 0.90924 0.49008 0.53267 0.0
C2045 C 0.89946 0.46724 0.5196 0.0
C2046 C 0.92765 0.50361 0.52515 0.0
C2047 C 0.93585 0.49478 0.50392 0.0
C2048 C 0.92639 0.47133 0.49152 0.0
C2049 C 0.90862 0.45739 0.4997 0.0
C2050 C 0.99402 0.50863 0.49247 0.0
C2051 C 0.99942 0.53269 0.50413 0.0
C2052 C 0.97222 0.49658 0.48874 0.0
C2053 C 0.95595 0.50881 0.49678 0.0
C2054 C 0.96132 0.53419 0.50385 0.0
C2055 C 0.98326 0.54602 0.50853 0.0
H2056 H 0.38175 0.10241 0.33243 0.0
H2057 H 0.42099 0.10799 0.27361 0.0
H2058 H 0.35231 0.11408 0.31097 0.0
H2059 H 0.39206 0.12115 0.25235 0.0
H2060 H 0.32827 0.10934 0.20786 0.0
H2061 H 0.35776 0.10062 0.23228 0.0
H2062 H 0.33719 0.14098 0.29421 0.0
H2063 H 0.30643 0.14721 0.27031 0.0
C2064 C 0.38448 0.10758 0.3154 0.0
C2065 C 0.40337 0.10428 0.30455 0.0
C2066 C 0.36756 0.11405 0.30294 0.0
C2067 C 0.36956 0.11787 0.27962 0.0
C2068 C 0.38973 0.11754 0.26999 0.0
C2069 C 0.4066 0.11079 0.28243 0.0
C2070 C 0.3297 0.11573 0.22678 0.0
C2071 C 0.31539 0.12954 0.23709 0.0
C2072 C 0.34691 0.11124 0.24072 0.0
C2073 C 0.35036 0.12092 0.26509 0.0
C2074 C 0.33519 0.13339 0.27551 0.0
C2075 C 0.31768 0.13726 0.26173 0.0
H2076 H 0.35978 0.15774 0.48006 0.0
H2077 H 0.35462 0.17968 0.55444 0.0
H2078 H 0.38719 0.13434 0.48963 0.0
H2079 H 0.38115 0.15569 0.56395 0.0
H2080 H 0.39625 0.07895 0.56261 0.0
H2081 H 0.37391 0.10559 0.55006 0.0
H2082 H 0.42864 0.14275 0.51842 0.0
H2083 H 0.4518 0.11718 0.53231 0.0
C2084 C 0.36487 0.15787 0.4984 0.0
C2085 C 0.3554 0.17056 0.5166 0.0
C2086 C 0.38044 0.14454 0.50385 0.0
C2087 C 0.38606 0.14316 0.5275 0.0
C2088 C 0.37704 0.15651 0.5456 0.0
C2089 C 0.36202 0.1703 0.5402 0.0
C2090 C 0.40379 0.09294 0.55329 0.0
C2091 C 0.42609 0.09605 0.54896 0.0
C2092 C 0.39086 0.10805 0.54592 0.0
C2093 C 0.39967 0.12628 0.53352 0.0
C2094 C 0.42153 0.12876 0.52799 0.0
C2095 C 0.4347 0.11395 0.53584 0.0
H2096 H 0.75215 0.58138 0.2845 0.0
H2097 H 0.69196 0.60586 0.27576 0.0
H2098 H 0.77331 0.62261 0.28734 0.0
H2099 H 0.71264 0.64696 0.27787 0.0
H2100 H 0.75166 0.72472 0.28622 0.0
H2101 H 0.73114 0.68403 0.28562 0.0
H2102 H 0.7917 0.65835 0.28354 0.0
H2103 H 0.81209 0.69959 0.28483 0.0
C2104 C 0.74329 0.59558 0.28313 0.0
C2105 C 0.72003 0.58963 0.27988 0.0
C2106 C 0.75563 0.6198 0.28465 0.0
C2107 C 0.74548 0.63967 0.2829 0.0
C2108 C 0.72202 0.63338 0.27966 0.0
C2109 C 0.70975 0.60921 0.27827 0.0
C2110 C 0.7608 0.71051 0.28582 0.0
C2111 C 0.78398 0.71634 0.2857 0.0
C2112 C 0.74873 0.68643 0.28525 0.0
C2113 C 0.75896 0.66628 0.28425 0.0
C2114 C 0.78233 0.67231 0.28438 0.0
C2115 C 0.79443 0.69655 0.28514 0.0
H2116 H 0.87005 0.47872 0.77318 0.0
H2117 H 0.91467 0.47147 0.83059 0.0
H2118 H 0.84519 0.44153 0.77773 0.0
H2119 H 0.88913 0.43492 0.83631 0.0
H2120 H 0.85722 0.35443 0.80147 0.0
H2121 H 0.87883 0.39535 0.81327 0.0
H2122 H 0.82005 0.42335 0.80324 0.0
H2123 H 0.79856 0.38173 0.79016 0.0
C2124 C 0.87435 0.46907 0.78682 0.0
C2125 C 0.89404 0.47744 0.80143 0.0
C2126 C 0.85997 0.44824 0.78986 0.0
C2127 C 0.86499 0.43592 0.8079 0.0
C2128 C 0.88488 0.44431 0.82243 0.0
C2129 C 0.89954 0.46485 0.81896 0.0
C2130 C 0.84899 0.36947 0.8023 0.0
C2131 C 0.82665 0.36564 0.79479 0.0
C2132 C 0.86119 0.39279 0.80943 0.0
C2133 C 0.85108 0.41239 0.80871 0.0
C2134 C 0.82815 0.40834 0.8034 0.0
C2135 C 0.81596 0.38485 0.79584 0.0
H2136 H 0.12824 0.8853 0.07094 0.0
H2137 H 0.06185 0.87588 0.09056 0.0
H2138 H 0.12457 0.92319 0.05752 0.0
H2139 H 0.05795 0.91292 0.0764 0.0
H2140 H 0.05363 0.97042 0.02702 0.0
H2141 H 0.05798 0.93124 0.0361 0.0
H2142 H 0.11858 0.9665 0.07883 0.0
H2143 H 0.11287 1.00574 0.07211 0.0
C2144 C 0.11276 0.891 0.07211 0.0
C2145 C 0.09538 0.87717 0.08196 0.0
C2146 C 0.11064 0.91288 0.06444 0.0
C2147 C 0.09084 0.92135 0.06562 0.0
C2148 C 0.07336 0.90711 0.07486 0.0
C2149 C 0.07568 0.88575 0.08311 0.0
C2150 C 0.06752 0.97015 0.03882 0.0
C2151 C 0.08209 0.99207 0.0496 0.0
C2152 C 0.07027 0.94738 0.04383 0.0
C2153 C 0.08856 0.94538 0.05857 0.0
C2154 C 0.10416 0.967 0.06761 0.0
C2155 C 0.10078 0.98975 0.06362 0.0
H2156 H 0.9503 0.29567 0.92582 0.0
H2157 H 0.96184 0.24864 0.8637 0.0
H2158 H 0.91736 0.30175 0.90532 0.0
H2159 H 0.92821 0.25323 0.84321 0.0
H2160 H 0.87106 0.27118 0.80306 0.0
H2161 H 0.90387 0.26594 0.82334 0.0
H2162 H 0.88417 0.29927 0.88932 0.0
H2163 H 0.85197 0.30627 0.86792 0.0
C2164 C 0.94564 0.28625 0.90775 0.0
C2165 C 0.95911 0.27157 0.89668 0.0
C2166 C 0.92629 0.28965 0.8957 0.0
C2167 C 0.919 0.27818 0.87194 0.0
C2168 C 0.93254 0.26312 0.86109 0.0
C2169 C 0.95215 0.26014 0.87305 0.0
C2170 C 0.87379 0.27804 0.82172 0.0
C2171 C 0.85852 0.28986 0.83322 0.0
C2172 C 0.89294 0.27452 0.83391 0.0
C2173 C 0.89787 0.28205 0.8587 0.0
C2174 C 0.88213 0.29335 0.87038 0.0
C2175 C 0.86309 0.29726 0.85797 0.0
H2176 H 0.61973 0.23373 0.60457 0.0
H2177 H 0.56314 0.2339 0.55787 0.0
H2178 H 0.61316 0.18981 0.59386 0.0
H2179 H 0.55608 0.18929 0.54742 0.0
H2180 H 0.55799 0.10677 0.52342 0.0
H2181 H 0.56689 0.15145 0.52862 0.0
H2182 H 0.58853 0.15571 0.60208 0.0
H2183 H 0.5794 0.11163 0.5968 0.0
C2184 C 0.60584 0.22442 0.59189 0.0
C2185 C 0.59199 0.23774 0.58228 0.0
C2186 C 0.60192 0.19895 0.58582 0.0
C2187 C 0.58379 0.18541 0.57001 0.0
C2188 C 0.57028 0.19876 0.5596 0.0
C2189 C 0.57432 0.22449 0.56563 0.0
C2190 C 0.56516 0.11734 0.54051 0.0
C2191 C 0.56851 0.10546 0.55959 0.0
C2192 C 0.57 0.14306 0.54362 0.0
C2193 C 0.57868 0.15772 0.56582 0.0
C2194 C 0.5823 0.14552 0.58459 0.0
C2195 C 0.57705 0.12004 0.5816 0.0
H2196 H 0.56708 0.78187 0.36691 0.0
H2197 H 0.59974 0.76517 0.4281 0.0
H2198 H 0.60104 0.78526 0.34778 0.0
H2199 H 0.63377 0.76732 0.40853 0.0
H2200 H 0.69755 0.80091 0.3749 0.0
H2201 H 0.66445 0.79185 0.39565 0.0
H2202 H 0.62533 0.76568 0.32836 0.0
H2203 H 0.65824 0.77546 0.30804 0.0
C2204 C 0.58146 0.77849 0.37616 0.0
C2205 C 0.58046 0.77317 0.39907 0.0
C2206 C 0.60111 0.78025 0.36507 0.0
C2207 C 0.62056 0.77628 0.37621 0.0
C2208 C 0.61948 0.77079 0.3992 0.0
C2209 C 0.59983 0.76942 0.41048 0.0
C2210 C 0.68195 0.79248 0.36462 0.0
C2211 C 0.6807 0.78858 0.33972 0.0
C2212 C 0.66278 0.78741 0.37654 0.0
C2213 C 0.64169 0.77853 0.36391 0.0
C2214 C 0.64088 0.77318 0.33899 0.0
C2215 C 0.65994 0.77829 0.32718 0.0
H2216 H 0.10402 0.2502 0.3903 0.0
H2217 H 0.12849 0.29448 0.45868 0.0
H2218 H 0.09508 0.21449 0.40863 0.0
H2219 H 0.11891 0.259 0.47719 0.0
H2220 H 0.10757 0.19063 0.5061 0.0
H2221 H 0.12508 0.22046 0.48319 0.0
H2222 H 0.06743 0.20015 0.43245 0.0
H2223 H 0.05048 0.17024 0.45508 0.0
C2224 C 0.10766 0.25224 0.40924 0.0
C2225 C 0.11677 0.27512 0.42311 0.0
C2226 C 0.10244 0.2318 0.41978 0.0
C2227 C 0.10611 0.23383 0.44444 0.0
C2228 C 0.11611 0.25663 0.45814 0.0
C2229 C 0.12144 0.27705 0.44757 0.0
C2230 C 0.0991 0.19211 0.48962 0.0
C2231 C 0.07778 0.17824 0.48221 0.0
C2232 C 0.10894 0.20935 0.47665 0.0
C2233 C 0.09758 0.21294 0.4561 0.0
C2234 C 0.07681 0.19779 0.448 0.0
C2235 C 0.06702 0.18068 0.46097 0.0
H2236 H 0.5655 0.25349 0.22102 0.0
H2237 H 0.5827 0.26962 0.153 0.0
H2238 H 0.60316 0.24986 0.23076 0.0
H2239 H 0.62069 0.26637 0.16306 0.0
H2240 H 0.68738 0.29262 0.22253 0.0
H2241 H 0.65262 0.29161 0.19948 0.0
H2242 H 0.62715 0.21901 0.21113 0.0
H2243 H 0.66168 0.22007 0.23411 0.0
C2244 C 0.57739 0.25649 0.20828 0.0
C2245 C 0.57128 0.26194 0.18636 0.0
C2246 C 0.59882 0.25416 0.21372 0.0
C2247 C 0.61459 0.25753 0.19747 0.0
C2248 C 0.60871 0.26356 0.17574 0.0
C2249 C 0.58708 0.26548 0.1701 0.0
C2250 C 0.67466 0.27611 0.21923 0.0
C2251 C 0.67683 0.25655 0.23033 0.0
C2252 C 0.65485 0.27554 0.20611 0.0
C2253 C 0.63721 0.25543 0.20414 0.0
C2254 C 0.64048 0.23482 0.2128 0.0
C2255 C 0.66017 0.23539 0.22585 0.0
H2256 H 0.62886 0.91876 0.89659 0.0
H2257 H 0.62924 0.89768 0.9652 0.0
H2258 H 0.61249 0.95228 0.91152 0.0
H2259 H 0.61426 0.93256 0.98084 0.0
H2260 H 0.56112 0.97484 0.99295 0.0
H2261 H 0.57982 0.94282 0.978 0.0
H2262 H 0.61571 0.98967 0.935 0.0
H2263 H 0.59604 0.02098 0.94923 0.0
C2264 C 0.62628 0.92192 0.91518 0.0
C2265 C 0.63012 0.90557 0.92975 0.0
C2266 C 0.61685 0.94119 0.92376 0.0
C2267 C 0.61172 0.94491 0.9473 0.0
C2268 C 0.6174 0.92974 0.96242 0.0
C2269 C 0.62637 0.91007 0.95364 0.0
C2270 C 0.573 0.97806 0.98025 0.0
C2271 C 0.57752 1.00018 0.9723 0.0
C2272 C 0.58384 0.9599 0.97183 0.0
C2273 C 0.59965 0.96386 0.95567 0.0
C2274 C 0.60356 0.98591 0.94729 0.0
C2275 C 0.59236 1.00384 0.95537 0.0
H2276 H 0.9645 0.78003 0.7304 0.0
H2277 H 0.92925 0.7336 0.66703 0.0
H2278 H 0.92975 0.78028 0.74773 0.0
H2279 H 0.89501 0.73189 0.68474 0.0
H2280 H 0.83434 0.75187 0.70815 0.0
H2281 H 0.86994 0.7546 0.69298 0.0
H2282 H 0.90031 0.76023 0.764 0.0
H2283 H 0.86448 0.76003 0.77918 0.0
C2284 C 0.9493 0.76963 0.72041 0.0
C2285 C 0.94931 0.75729 0.69733 0.0
C2286 C 0.92942 0.76956 0.73032 0.0
C2287 C 0.90942 0.75652 0.71748 0.0
C2288 C 0.90985 0.74301 0.69484 0.0
C2289 C 0.92953 0.74374 0.68474 0.0
C2290 C 0.84883 0.75429 0.72045 0.0
C2291 C 0.84715 0.75646 0.74475 0.0
C2292 C 0.86918 0.75536 0.71179 0.0
C2293 C 0.88809 0.75722 0.72719 0.0
C2294 C 0.88622 0.75917 0.75165 0.0
C2295 C 0.8658 0.75886 0.76038 0.0
H2296 H 0.17333 1.00941 0.86336 0.0
H2297 H 0.12024 0.03344 0.83054 0.0
H2298 H 0.15698 0.01356 0.9009 0.0
H2299 H 0.10395 0.03837 0.86822 0.0
H2300 H 0.07126 0.04271 0.93974 0.0
H2301 H 0.0869 0.03753 0.90172 0.0
H2302 H 0.14497 0.02354 0.93628 0.0
H2303 H 0.12923 0.02901 0.97409 0.0
C2304 C 0.15814 0.01577 0.86389 0.0
C2305 C 0.14866 0.02093 0.84269 0.0
C2306 C 0.14844 0.01834 0.88612 0.0
C2307 C 0.12846 0.02663 0.88934 0.0
C2308 C 0.119 0.03179 0.86797 0.0
C2309 C 0.12861 0.02894 0.84565 0.0
C2310 C 0.08735 0.03835 0.93945 0.0
C2311 C 0.09843 0.03632 0.96116 0.0
C2312 C 0.09672 0.03542 0.91702 0.0
C2313 C 0.11793 0.02987 0.91421 0.0
C2314 C 0.12882 0.02764 0.93609 0.0
C2315 C 0.11957 0.03092 0.95853 0.0
H2316 H 0.85925 0.40003 0.56875 0.0
H2317 H 0.80391 0.43059 0.5892 0.0
H2318 H 0.85856 0.38132 0.60367 0.0
H2319 H 0.8026 0.41092 0.62424 0.0
H2320 H 0.83743 0.38732 0.69397 0.0
H2321 H 0.82819 0.40917 0.66286 0.0
H2322 H 0.82765 0.34583 0.61011 0.0
H2323 H 0.8375 0.32447 0.64103 0.0
C2324 C 0.84696 0.40265 0.5809 0.0
C2325 C 0.83115 0.4158 0.57633 0.0
C2326 C 0.84647 0.39195 0.60068 0.0
C2327 C 0.82984 0.39387 0.61578 0.0
C2328 C 0.81518 0.40886 0.61237 0.0
C2329 C 0.81593 0.42001 0.59257 0.0
C2330 C 0.83442 0.37794 0.67575 0.0
C2331 C 0.83843 0.35462 0.6695 0.0
C2332 C 0.82913 0.39033 0.65809 0.0
C2333 C 0.82789 0.37924 0.63433 0.0
C2334 C 0.82898 0.35475 0.62844 0.0
C2335 C 0.83447 0.34253 0.64599 0.0
H2336 H 0.4385 0.05533 0.39396 0.0
H2337 H 0.48048 0.01853 0.35127 0.0
H2338 H 0.45845 0.05002 0.42955 0.0
H2339 H 0.50179 0.01536 0.3861 0.0
H2340 H 0.54042 0.01428 0.45297 0.0
H2341 H 0.51353 1.00682 0.4192 0.0
H2342 H 0.4903 0.07084 0.44918 0.0
H2343 H 0.51569 0.07634 0.48382 0.0
C2344 C 0.45216 0.04631 0.39231 0.0
C2345 C 0.45916 0.03885 0.37023 0.0
C2346 C 0.46374 0.04344 0.4126 0.0
C2347 C 0.48283 0.0339 0.41085 0.0
C2348 C 0.48773 0.02351 0.3885 0.0
C2349 C 0.47581 0.0258 0.36834 0.0
C2350 C 0.52977 0.02691 0.45191 0.0
C2351 C 0.52976 0.04562 0.47078 0.0
C2352 C 0.51416 0.02262 0.43263 0.0
C2353 C 0.49907 0.03776 0.43155 0.0
C2354 C 0.50071 0.05794 0.44972 0.0
C2355 C 0.51577 0.06166 0.46928 0.0
H2356 H 0.78387 0.75678 0.08205 0.0
H2357 H 0.83086 0.71289 0.09237 0.0
H2358 H 0.78579 0.77018 0.12522 0.0
H2359 H 0.83352 0.72678 0.13488 0.0
H2360 H 0.81339 0.72712 0.20831 0.0
H2361 H 0.81208 0.71904 0.16578 0.0
H2362 H 0.80578 0.79236 0.16388 0.0
H2363 H 0.80758 0.80072 0.20758 0.0
C2364 C 0.7949 0.7503 0.09344 0.0
C2365 C 0.80695 0.73341 0.08354 0.0
C2366 C 0.79606 0.75804 0.11831 0.0
C2367 C 0.80944 0.74928 0.13404 0.0
C2368 C 0.82238 0.73346 0.1238 0.0
C2369 C 0.82099 0.72554 0.09919 0.0
C2370 C 0.81161 0.7417 0.19904 0.0
C2371 C 0.81049 0.76462 0.21181 0.0
C2372 C 0.81108 0.73706 0.17433 0.0
C2373 C 0.8092 0.75503 0.16084 0.0
C2374 C 0.80729 0.77791 0.17341 0.0
C2375 C 0.8082 0.78275 0.19856 0.0
H2376 H 0.11583 0.98869 0.7005 0.0
H2377 H 0.17055 0.04622 0.69541 0.0
H2378 H 0.0989 0.99264 0.66181 0.0
H2379 H 0.15392 0.05035 0.65736 0.0
H2380 H 0.13145 0.04314 0.57792 0.0
H2381 H 0.14557 0.03993 0.61726 0.0
H2382 H 0.07993 1.00936 0.63195 0.0
H2383 H 0.06566 0.01339 0.59205 0.0
C2384 C 0.1245 1.00227 0.69139 0.0
C2385 C 0.1452 0.01693 0.70219 0.0
C2386 C 0.11453 1.0047 0.66869 0.0
C2387 C 0.12455 0.02182 0.65488 0.0
C2388 C 0.14511 0.03646 0.66599 0.0
C2389 C 0.15491 0.03414 0.68856 0.0
C2390 C 0.11964 0.03628 0.58952 0.0
C2391 C 0.09695 0.02953 0.58087 0.0
C2392 C 0.12797 0.03428 0.61276 0.0
C2393 C 0.11447 0.02442 0.62941 0.0
C2394 C 0.09158 0.0172 0.6207 0.0
C2395 C 0.08311 0.01984 0.59739 0.0
H2396 H 0.84006 0.36501 0.46412 0.0
H2397 H 0.84379 0.42623 0.42856 0.0
H2398 H 0.84708 0.34028 0.42804 0.0
H2399 H 0.84969 0.40112 0.39194 0.0
H2400 H 0.86839 0.35507 0.33112 0.0
H2401 H 0.87348 0.37836 0.37099 0.0
H2402 H 0.82472 0.32261 0.3922 0.0
H2403 H 0.8205 0.2988 0.35274 0.0
C2404 C 0.84216 0.37305 0.44845 0.0
C2405 C 0.8408 0.39721 0.44877 0.0
C2406 C 0.84627 0.35896 0.42787 0.0
C2407 C 0.84864 0.36866 0.40715 0.0
C2408 C 0.84815 0.3932 0.40773 0.0
C2409 C 0.84444 0.40747 0.42852 0.0
C2410 C 0.85908 0.34747 0.3444 0.0
C2411 C 0.84321 0.32551 0.33856 0.0
C2412 C 0.86195 0.36095 0.3672 0.0
C2413 C 0.8491 0.3526 0.38451 0.0
C2414 C 0.83486 0.32957 0.37922 0.0
C2415 C 0.83215 0.31602 0.35647 0.0
H2416 H 0.4825 0.04069 0.25462 0.0
H2417 H 0.4173 0.04115 0.22481 0.0
H2418 H 0.49608 0.04178 0.2161 0.0
H2419 H 0.43109 0.04263 0.18602 0.0
H2420 H 0.46652 1.00368 0.12269 0.0
H2421 H 0.44661 0.01366 0.1569 0.0
H2422 H 0.5023 0.0711 0.18776 0.0
H2423 H 0.52222 0.06089 0.15358 0.0
C2424 C 0.47116 0.04129 0.23982 0.0
C2425 C 0.44899 0.04114 0.24259 0.0
C2426 C 0.47895 0.04219 0.21787 0.0
C2427 C 0.46473 0.0431 0.19835 0.0
C2428 C 0.44238 0.04231 0.20095 0.0
C2429 C 0.43453 0.04131 0.223 0.0
C2430 C 0.47408 0.01899 0.13645 0.0
C2431 C 0.49594 0.03121 0.13605 0.0
C2432 C 0.4627 0.02477 0.1559 0.0
C2433 C 0.47326 0.04266 0.17511 0.0
C2434 C 0.49406 0.05692 0.17324 0.0
C2435 C 0.50538 0.05121 0.15373 0.0
H2436 H 0.83827 0.7201 0.94013 0.0
H2437 H 0.77208 0.73096 0.94281 0.0
H2438 H 0.83895 0.73021 0.90044 0.0
H2439 H 0.77212 0.73976 0.9027 0.0
H2440 H 0.78401 0.77574 0.83837 0.0
H2441 H 0.78536 0.76805 0.87879 0.0
H2442 H 0.82574 0.71619 0.85981 0.0
H2443 H 0.824 0.7239 0.81912 0.0
C2444 C 0.82383 0.72467 0.93221 0.0
C2445 C 0.80523 0.72509 0.94489 0.0
C2446 C 0.82411 0.73025 0.90926 0.0
C2447 C 0.80559 0.7359 0.89793 0.0
C2448 C 0.78696 0.73616 0.91073 0.0
C2449 C 0.78688 0.73107 0.93386 0.0
C2450 C 0.7932 0.76271 0.84285 0.0
C2451 C 0.80371 0.75027 0.82541 0.0
C2452 C 0.79387 0.75812 0.8661 0.0
C2453 C 0.80548 0.74124 0.87296 0.0
C2454 C 0.8166 0.72932 0.85552 0.0
C2455 C 0.8155 0.73357 0.83205 0.0
H2456 H 0.84831 0.12496 1.00168 0.0
H2457 H 0.84893 0.11039 0.07277 0.0
H2458 H 0.88333 0.11347 0.99758 0.0
H2459 H 0.8851 0.09987 0.0693 0.0
H2460 H 0.92306 0.0431 0.02982 0.0
H2461 H 0.89663 0.06564 0.04671 0.0
H2462 H 0.92191 0.12388 0.00989 0.0
H2463 H 0.94779 0.10078 0.99254 0.0
C2464 C 0.85632 0.11964 0.01657 0.0
C2465 C 0.84615 0.11811 0.03736 0.0
C2466 C 0.87652 0.11345 0.01442 0.0
C2467 C 0.88713 0.10609 0.03326 0.0
C2468 C 0.87718 0.10534 0.05449 0.0
C2469 C 0.85658 0.11114 0.05645 0.0
C2470 C 0.92289 0.0608 0.02558 0.0
C2471 C 0.93646 0.06996 0.00923 0.0
C2472 C 0.90814 0.07389 0.03553 0.0
C2473 C 0.90686 0.09619 0.02907 0.0
C2474 C 0.92221 0.10641 0.01465 0.0
C2475 C 0.93686 0.09326 0.00465 0.0
H2476 H 0.40792 0.40621 0.05541 0.0
H2477 H 0.38253 0.46138 0.02722 0.0
H2478 H 0.44551 0.42864 0.05407 0.0
H2479 H 0.41989 0.48329 0.02477 0.0
H2480 H 0.48905 0.5297 0.03995 0.0
H2481 H 0.45217 0.50776 0.04381 0.0
H2482 H 0.47398 0.44023 0.0314 0.0
H2483 H 0.51115 0.46249 0.02843 0.0
C2484 C 0.41034 0.42315 0.0489 0.0
C2485 C 0.39203 0.432 0.04166 0.0
C2486 C 0.43204 0.43602 0.04788 0.0
C2487 C 0.43624 0.4581 0.03932 0.0
C2488 C 0.41777 0.46679 0.03201 0.0
C2489 C 0.39613 0.45407 0.03328 0.0
C2490 C 0.48618 0.51024 0.03842 0.0
C2491 C 0.50346 0.49813 0.03413 0.0
C2492 C 0.46471 0.49743 0.04029 0.0
C2493 C 0.45956 0.4719 0.03787 0.0
C2494 C 0.47697 0.4598 0.03376 0.0
C2495 C 0.49846 0.47265 0.03189 0.0
H2496 H 0.43228 0.66534 0.80133 0.0
H2497 H 0.38226 0.61876 0.75021 0.0
H2498 H 0.41397 0.69942 0.79931 0.0
H2499 H 0.36414 0.65267 0.74789 0.0
H2500 H 0.34335 0.72362 0.73026 0.0
H2501 H 0.35986 0.68929 0.73513 0.0
H2502 H 0.38588 0.72486 0.80577 0.0
H2503 H 0.36777 0.75874 0.80124 0.0
C2504 C 0.41736 0.66192 0.78952 0.0
C2505 C 0.40947 0.63794 0.77597 0.0
C2506 C 0.40648 0.68206 0.78836 0.0
C2507 C 0.38683 0.68032 0.77323 0.0
C2508 C 0.37904 0.65629 0.75974 0.0
C2509 C 0.38971 0.63614 0.76116 0.0
C2510 C 0.35172 0.72408 0.74739 0.0
C2511 C 0.35237 0.7446 0.76556 0.0
C2512 C 0.3618 0.70387 0.75018 0.0
C2513 C 0.37488 0.70267 0.77105 0.0
C2514 C 0.37622 0.72364 0.78919 0.0
C2515 C 0.3653 0.74355 0.78666 0.0
H2516 H 0.2169 0.64828 0.52298 0.0
H2517 H 0.21979 0.57738 0.53805 0.0
H2518 H 0.17749 0.63816 0.52075 0.0
H2519 H 0.1794 0.5673 0.53657 0.0
H2520 H 0.10883 0.55388 0.4968 0.0
H2521 H 0.14818 0.56024 0.50693 0.0
H2522 H 0.14859 0.63202 0.54551 0.0
H2523 H 0.1091 0.62575 0.53419 0.0
C2524 C 0.20905 0.63051 0.52607 0.0
C2525 C 0.22131 0.6136 0.53086 0.0
C2526 C 0.18641 0.62486 0.52512 0.0
C2527 C 0.17547 0.60225 0.52918 0.0
C2528 C 0.18761 0.58499 0.5336 0.0
C2529 C 0.21055 0.59066 0.5344 0.0
C2530 C 0.11734 0.57075 0.50791 0.0
C2531 C 0.10631 0.58935 0.51508 0.0
C2532 C 0.13979 0.57434 0.51379 0.0
C2533 C 0.15137 0.59662 0.52693 0.0
C2534 C 0.14001 0.61482 0.53495 0.0
C2535 C 0.1176 0.61139 0.52854 0.0
H2536 H 0.70242 0.96738 0.71044 0.0
H2537 H 0.76252 0.01498 0.74633 0.0
H2538 H 0.71332 0.93303 0.72472 0.0
H2539 H 0.77293 0.98096 0.76062 0.0
H2540 H 0.75887 0.92953 0.81284 0.0
H2541 H 0.73916 0.95224 0.78968 0.0
H2542 H 0.76124 0.91829 0.72566 0.0
H2543 H 0.78123 0.89599 0.74849 0.0
C2544 C 0.71817 0.97029 0.72074 0.0
C2545 C 0.73152 0.99368 0.72778 0.0
C2546 C 0.7242 0.95083 0.72896 0.0
C2547 C 0.74347 0.95503 0.74413 0.0
C2548 C 0.7578 0.97783 0.74915 0.0
C2549 C 0.75196 0.9971 0.74079 0.0
C2550 C 0.7591 0.92663 0.7938 0.0
C2551 C 0.77163 0.91134 0.78241 0.0
C2552 C 0.74762 0.93917 0.78063 0.0
C2553 C 0.74874 0.93643 0.75613 0.0
C2554 C 0.75993 0.91998 0.74452 0.0
C2555 C 0.77144 0.90752 0.75762 0.0
H2556 H 0.7888 0.95896 0.53204 0.0
H2557 H 0.74826 0.89193 0.54333 0.0
H2558 H 0.7563 0.97637 0.5298 0.0
H2559 H 0.71577 0.9095 0.54177 0.0
H2560 H 0.66187 0.93888 0.50204 0.0
H2561 H 0.6924 0.92086 0.51315 0.0
H2562 H 0.72818 0.99123 0.55032 0.0
H2563 H 0.69755 1.00907 0.53881 0.0
C2564 C 0.77299 0.94805 0.53437 0.0
C2565 C 0.77118 0.924 0.53767 0.0
C2566 C 0.75429 0.95809 0.53328 0.0
C2567 C 0.73323 0.94443 0.5356 0.0
C2568 C 0.73156 0.92054 0.53956 0.0
C2569 C 0.75026 0.91046 0.54053 0.0
C2570 C 0.67604 0.95029 0.51314 0.0
C2571 C 0.67737 0.97533 0.51963 0.0
C2572 C 0.69361 0.94001 0.51954 0.0
C2573 C 0.7131 0.95461 0.5323 0.0
C2574 C 0.71371 0.97946 0.54006 0.0
C2575 C 0.69605 0.98968 0.53378 0.0
H2576 H 0.38566 0.50425 0.80038 0.0
H2577 H 0.42307 0.47941 0.74485 0.0
H2578 H 0.367 0.46232 0.80058 0.0
H2579 H 0.40409 0.43743 0.7444 0.0
H2580 H 0.37556 0.35821 0.7545 0.0
H2581 H 0.3948 0.40005 0.75477 0.0
H2582 H 0.34261 0.42592 0.78959 0.0
H2583 H 0.32353 0.38403 0.78911 0.0
C2584 C 0.38989 0.48996 0.7879 0.0
C2585 C 0.40617 0.49626 0.77245 0.0
C2586 C 0.37889 0.4653 0.7879 0.0
C2587 C 0.38325 0.44501 0.77237 0.0
C2588 C 0.39972 0.45147 0.75702 0.0
C2589 C 0.41078 0.47613 0.75711 0.0
C2590 C 0.36798 0.37271 0.76216 0.0
C2591 C 0.34739 0.36671 0.7715 0.0
C2592 C 0.3792 0.39732 0.76227 0.0
C2593 C 0.37089 0.41786 0.77214 0.0
C2594 C 0.35036 0.41167 0.78176 0.0
C2595 C 0.33899 0.38706 0.7813 0.0
H2596 H 0.22408 0.61968 0.28434 0.0
H2597 H 0.25748 0.6295 0.222 0.0
H2598 H 0.24401 0.65979 0.30466 0.0
H2599 H 0.27678 0.67025 0.24189 0.0
H2600 H 0.31004 0.74116 0.283 0.0
H2601 H 0.30254 0.69698 0.27806 0.0
H2602 H 0.23455 0.69619 0.28996 0.0
H2603 H 0.24173 0.73981 0.29353 0.0
C2604 C 0.23585 0.63058 0.27517 0.0
C2605 C 0.23919 0.62239 0.25169 0.0
C2606 C 0.2474 0.6531 0.28683 0.0
C2607 C 0.26184 0.66769 0.27476 0.0
C2608 C 0.26605 0.65887 0.25162 0.0
C2609 C 0.2548 0.63602 0.24012 0.0
C2610 C 0.29353 0.73138 0.28436 0.0
C2611 C 0.27614 0.74337 0.28725 0.0
C2612 C 0.28942 0.70638 0.2821 0.0
C2613 C 0.26806 0.69356 0.2836 0.0
C2614 C 0.25122 0.70588 0.28891 0.0
C2615 C 0.2552 0.7307 0.2905 0.0
H2616 H 0.52777 0.6864 0.43189 0.0
H2617 H 0.53308 0.72806 0.50226 0.0
H2618 H 0.53823 0.65327 0.4478 0.0
H2619 H 0.54423 0.69477 0.51855 0.0
H2620 H 0.54751 0.61823 0.54002 0.0
H2621 H 0.53771 0.65459 0.52828 0.0
H2622 H 0.56682 0.63962 0.46284 0.0
H2623 H 0.5748 0.60311 0.47376 0.0
C2624 C 0.53113 0.68856 0.45088 0.0
C2625 C 0.5295 0.71025 0.46556 0.0
C2626 C 0.53754 0.66945 0.46018 0.0
C2627 C 0.54279 0.67096 0.48473 0.0
C2628 C 0.54052 0.69248 0.49961 0.0
C2629 C 0.53413 0.71177 0.4902 0.0
C2630 C 0.5522 0.62307 0.52337 0.0
C2631 C 0.56234 0.60763 0.50804 0.0
C2632 C 0.54644 0.64399 0.51646 0.0
C2633 C 0.55073 0.65022 0.49405 0.0
C2634 C 0.56217 0.63544 0.47972 0.0
C2635 C 0.56732 0.61451 0.48629 0.0
H2636 H 0.64084 0.33022 0.69343 0.0
H2637 H 0.67863 0.31312 0.63533 0.0
H2638 H 0.67189 0.33079 0.72143 0.0
H2639 H 0.70939 0.31219 0.66305 0.0
H2640 H 0.76902 0.32497 0.71596 0.0
H2641 H 0.73873 0.32836 0.68927 0.0
H2642 H 0.69395 0.31304 0.74192 0.0
H2643 H 0.72472 0.31056 0.7689 0.0
C2644 C 0.65582 0.3265 0.68656 0.0
C2645 C 0.65703 0.32178 0.6619 0.0
C2646 C 0.67381 0.32655 0.70278 0.0
C2647 C 0.69381 0.32145 0.69514 0.0
C2648 C 0.69487 0.31676 0.6703 0.0
C2649 C 0.67698 0.31713 0.6541 0.0
C2650 C 0.75275 0.32254 0.72205 0.0
C2651 C 0.74974 0.31775 0.74504 0.0
C2652 C 0.73502 0.32422 0.7064 0.0
C2653 C 0.71317 0.32076 0.71271 0.0
C2654 C 0.71022 0.31627 0.73594 0.0
C2655 C 0.72811 0.31488 0.75175 0.0
H2656 H 0.05707 0.35824 0.95067 0.0
H2657 H 1.00635 0.33612 0.99512 0.0
H2658 H 0.06028 0.40055 0.96895 0.0
H2659 H 0.00914 0.37869 0.01316 0.0
H2660 H 0.03815 0.45725 0.05657 0.0
H2661 H 0.0319 0.41405 0.03895 0.0
H2662 H 0.04161 0.43321 0.97038 0.0
H2663 H 0.04776 0.47618 0.98814 0.0
C2664 C 0.04652 0.36239 0.96434 0.0
C2665 C 0.03142 0.3436 0.97131 0.0
C2666 C 0.04822 0.38681 0.97475 0.0
C2667 C 0.03478 0.39342 0.99246 0.0
C2668 C 0.01991 0.37453 0.99974 0.0
C2669 C 0.01827 0.35002 0.98935 0.0
C2670 C 0.03834 0.4521 0.03763 0.0
C2671 C 0.0429 0.47014 0.02368 0.0
C2672 C 0.03484 0.4273 0.02747 0.0
C2673 C 0.03644 0.41981 0.00314 0.0
C2674 C 0.04052 0.43802 0.98918 0.0
C2675 C 0.0437 0.46274 0.99929 0.0
H2676 H 0.01877 0.79134 0.11683 0.0
H2677 H 0.05798 0.8214 0.18343 0.0
H2678 H 0.98531 0.78764 0.13718 0.0
H2679 H 0.02474 0.81706 0.20392 0.0
H2680 H 0.96187 0.81936 0.23658 0.0
H2681 H 0.99186 0.83016 0.21211 0.0
H2682 H 0.96637 0.76342 0.1623 0.0
H2683 H 0.93638 0.7531 0.18669 0.0
C2684 C 0.02026 0.7971 0.13585 0.0
C2685 C 0.04111 0.80641 0.14853 0.0
C2686 C 1.00104 0.79492 0.14757 0.0
C2687 C 1.00214 0.80192 0.17233 0.0
C2688 C 0.02304 0.81177 0.18485 0.0
C2689 C 0.04221 0.81404 0.17312 0.0
C2690 C 0.96242 0.80742 0.22003 0.0
C2691 C 0.94681 0.78547 0.21344 0.0
C2692 C 0.97976 0.8134 0.20613 0.0
C2693 C 0.98191 0.79751 0.1853 0.0
C2694 C 0.96537 0.77623 0.17807 0.0
C2695 C 0.94814 0.77024 0.19204 0.0
H2696 H 0.52124 0.28087 0.09339 0.0
H2697 H 0.51101 0.33919 0.14657 0.0
H2698 H 0.53501 0.30954 0.06864 0.0
H2699 H 0.52372 0.36825 0.12094 0.0
H2700 H 0.57413 0.41379 0.08074 0.0
H2701 H 0.55616 0.38724 0.10631 0.0
H2702 H 0.52544 0.3347 0.04426 0.0
H2703 H 0.54464 0.36063 0.01912 0.0
C2704 C 0.52139 0.29985 0.0995 0.0
C2705 C 0.51493 0.30783 0.1218 0.0
C2706 C 0.52919 0.31636 0.08521 0.0
C2707 C 0.53028 0.34127 0.09259 0.0
C2708 C 0.52331 0.34923 0.11478 0.0
C2709 C 0.51584 0.33263 0.12936 0.0
C2710 C 0.56353 0.39649 0.07277 0.0
C2711 C 0.56101 0.38883 0.04814 0.0
C2712 C 0.55305 0.3814 0.08732 0.0
C2713 C 0.53957 0.35862 0.07738 0.0
C2714 C 0.53624 0.35174 0.05258 0.0
C2715 C 0.5471 0.36655 0.03814 0.0
H2716 H 0.04913 0.34909 0.39703 0.0
H2717 H 0.06571 0.3168 0.32905 0.0
H2718 H 0.01334 0.3516 0.37858 0.0
H2719 H 0.03027 0.31929 0.31085 0.0
H2720 H 0.9601 0.30842 0.28633 0.0
H2721 H 0.98949 0.30134 0.31258 0.0
H2722 H 1.00304 0.3766 0.34686 0.0
H2723 H 0.9735 0.38359 0.32036 0.0
C2724 C 0.04498 0.34223 0.37826 0.0
C2725 C 0.06005 0.33264 0.36441 0.0
C2726 C 0.02463 0.34375 0.36777 0.0
C2727 C 0.01909 0.33541 0.34341 0.0
C2728 C 0.03401 0.32539 0.32977 0.0
C2729 C 0.05433 0.32409 0.34015 0.0
C2730 C 0.96928 0.32331 0.29968 0.0
C2731 C 0.96522 0.34665 0.30113 0.0
C2732 C 0.98591 0.31927 0.31469 0.0
C2733 C 0.99861 0.33852 0.33143 0.0
C2734 C 0.99344 0.36151 0.33403 0.0
C2735 C 0.97686 0.3656 0.31879 0.0
H2736 H 0.96164 0.68771 0.60365 0.0
H2737 H 0.01055 0.67616 0.6543 0.0
H2738 H 0.96638 0.65218 0.57621 0.0
H2739 H 0.01659 0.64222 0.62669 0.0
H2740 H 0.03056 0.58606 0.57461 0.0
H2741 H 0.00914 0.60506 0.60239 0.0
H2742 H 0.99565 0.65053 0.5527 0.0
H2743 H 0.01586 0.62973 0.52402 0.0
C2744 C 0.97289 0.67707 0.60911 0.0
C2745 C 0.9861 0.68476 0.63067 0.0
C2746 C 0.97581 0.65698 0.59338 0.0
C2747 C 0.99242 0.64494 0.59886 0.0
C2748 C 1.00358 0.65092 0.62175 0.0
C2749 C 1.00018 0.67052 0.63768 0.0
C2750 C 0.02282 0.59995 0.56952 0.0
C2751 C 0.02517 0.6069 0.54743 0.0
C2752 C 0.01048 0.61081 0.58545 0.0
C2753 C 1.0009 0.62956 0.57999 0.0
C2754 C 1.00251 0.63585 0.5574 0.0
C2755 C 0.01435 0.6243 0.54106 0.0
H2756 H 0.69949 0.83916 0.87232 0.0
H2757 H 0.64605 0.81849 0.81645 0.0
H2758 H 0.72419 0.82539 0.84461 0.0
H2759 H 0.67023 0.80324 0.78914 0.0
H2760 H 0.72688 0.79508 0.74269 0.0
H2761 H 0.70039 0.81061 0.76709 0.0
H2762 H 0.72909 0.78732 0.82722 0.0
H2763 H 0.75679 0.77481 0.80362 0.0
C2764 C 0.6931 0.83176 0.85409 0.0
C2765 C 0.67087 0.82934 0.84657 0.0
C2766 C 0.7071 0.82358 0.83829 0.0
C2767 C 0.69891 0.81238 0.8149 0.0
C2768 C 0.67701 0.81161 0.80704 0.0
C2769 C 0.66315 0.82025 0.82273 0.0
C2770 C 0.72691 0.79269 0.76096 0.0
C2771 C 0.74325 0.78298 0.77113 0.0
C2772 C 0.7119 0.80166 0.77496 0.0
C2773 C 0.71296 0.80065 0.79922 0.0
C2774 C 0.72823 0.78905 0.80877 0.0
C2775 C 0.7436 0.78092 0.79502 0.0
H2776 H 0.45232 0.55915 0.6864 0.0
H2777 H 0.51435 0.5861 0.72858 0.0
H2778 H 0.47094 0.55828 0.65057 0.0
H2779 H 0.53349 0.5851 0.69266 0.0
H2780 H 0.56855 0.58265 0.62294 0.0
H2781 H 0.55039 0.58515 0.65943 0.0
H2782 H 0.48764 0.55542 0.61841 0.0
H2783 H 0.50595 0.55298 0.58242 0.0
C2784 C 0.47009 0.56492 0.68826 0.0
C2785 C 0.48128 0.57265 0.71133 0.0
C2786 C 0.48121 0.5644 0.6671 0.0
C2787 C 0.50458 0.57148 0.66713 0.0
C2788 C 0.51577 0.57933 0.69044 0.0
C2789 C 0.50455 0.57993 0.71168 0.0
C2790 C 0.55081 0.57677 0.62149 0.0
C2791 C 0.53921 0.56766 0.59866 0.0
C2792 C 0.54003 0.5781 0.64302 0.0
C2793 C 0.51673 0.57049 0.64346 0.0
C2794 C 0.5053 0.56167 0.6204 0.0
C2795 C 0.51607 0.56024 0.59901 0.0
H2796 H 0.80946 0.15995 0.95934 0.0
H2797 H 0.7503 0.17207 0.98986 0.0
H2798 H 0.80564 0.18889 0.93296 0.0
H2799 H 0.74634 0.2006 0.96378 0.0
H2800 H 0.76124 0.27233 0.94405 0.0
H2801 H 0.7711 0.24227 0.96569 0.0
H2802 H 0.77922 0.19772 0.89994 0.0
H2803 H 0.76967 0.22816 0.87825 0.0
C2804 C 0.79526 0.16814 0.95966 0.0
C2805 C 0.78006 0.16394 0.97622 0.0
C2806 C 0.79319 0.18477 0.94487 0.0
C2807 C 0.77608 0.19736 0.94696 0.0
C2808 C 0.75999 0.19154 0.96231 0.0
C2809 C 0.76202 0.175 0.9769 0.0
C2810 C 0.7656 0.25635 0.93434 0.0
C2811 C 0.76424 0.2521 0.90959 0.0
C2812 C 0.77114 0.23918 0.94662 0.0
C2813 C 0.77518 0.21744 0.93428 0.0
C2814 C 0.77596 0.21428 0.90972 0.0
C2815 C 0.77053 0.23162 0.89739 0.0
H2816 H 0.18537 0.56521 0.15472 0.0
H2817 H 0.15538 0.49936 0.17816 0.0
H2818 H 0.1547 0.5581 0.12411 0.0
H2819 H 0.12453 0.49271 0.14849 0.0
H2820 H 0.07044 0.49287 0.09065 0.0
H2821 H 0.10481 0.48876 0.11038 0.0
H2822 H 0.11992 0.56568 0.13932 0.0
H2823 H 0.0862 0.56974 0.11843 0.0
C2824 C 0.17271 0.54871 0.15256 0.0
C2825 C 0.17176 0.53333 0.16908 0.0
C2826 C 0.15519 0.54474 0.13531 0.0
C2827 C 0.13694 0.52561 0.13507 0.0
C2828 C 0.13823 0.50786 0.14874 0.0
C2829 C 0.15574 0.51175 0.1658 0.0
C2830 C 0.08065 0.50853 0.10232 0.0
C2831 C 0.07621 0.5316 0.1032 0.0
C2832 C 0.1005 0.50633 0.11298 0.0
C2833 C 0.11537 0.52715 0.12511 0.0
C2834 C 0.10913 0.5496 0.12893 0.0
C2835 C 0.08952 0.55181 0.11794 0.0
H2836 H 0.79652 0.82594 0.46381 0.0
H2837 H 0.85438 0.88135 0.46217 0.0
H2838 H 0.79783 0.80969 0.42166 0.0
H2839 H 0.85669 0.86451 0.42096 0.0
H2840 H 0.83413 0.85562 0.34298 0.0
H2841 H 0.8368 0.86571 0.38564 0.0
H2842 H 0.81614 0.78975 0.38922 0.0
H2843 H 0.81342 0.77967 0.34561 0.0
C2844 C 0.80974 0.83432 0.45451 0.0
C2845 C 0.82515 0.85516 0.46606 0.0
C2846 C 0.81062 0.82493 0.43042 0.0
C2847 C 0.8272 0.83596 0.41759 0.0
C2848 C 0.84328 0.85591 0.42986 0.0
C2849 C 0.84205 0.86557 0.45356 0.0
C2850 C 0.83072 0.84096 0.35285 0.0
C2851 C 0.82407 0.81686 0.3409 0.0
C2852 C 0.83227 0.84672 0.37747 0.0
C2853 C 0.82686 0.82862 0.39121 0.0
C2854 C 0.82047 0.80423 0.37931 0.0
C2855 C 0.81921 0.79839 0.35436 0.0
H2856 H 0.51478 0.58399 0.83931 0.0
H2857 H 0.45277 0.54579 0.85636 0.0
H2858 H 0.53321 0.57595 0.8752 0.0
H2859 H 0.47056 0.53746 0.89153 0.0
H2860 H 0.50194 0.52342 0.95978 0.0
H2861 H 0.48595 0.52969 0.92285 0.0
H2862 H 0.54946 0.5685 0.90909 0.0
H2863 H 0.56557 0.56117 0.94666 0.0
C2864 C 0.50483 0.57382 0.85057 0.0
C2865 C 0.48173 0.56585 0.84404 0.0
C2866 C 0.51563 0.56902 0.8717 0.0
C2867 C 0.50419 0.55567 0.88785 0.0
C2868 C 0.48106 0.54775 0.88091 0.0
C2869 C 0.47037 0.55269 0.86005 0.0
C2870 C 0.51289 0.53272 0.94872 0.0
C2871 C 0.53556 0.54074 0.95686 0.0
C2872 C 0.5034 0.53684 0.92691 0.0
C2873 C 0.5156 0.55015 0.91137 0.0
C2874 C 0.53862 0.55813 0.91944 0.0
C2875 C 0.54825 0.55359 0.94138 0.0
H2876 H 0.80077 0.1643 0.12263 0.0
H2877 H 0.76712 0.20379 0.08009 0.0
H2878 H 0.80297 0.19665 0.157 0.0
H2879 H 0.76919 0.23584 0.11431 0.0
H2880 H 0.76832 0.27712 0.19362 0.0
H2881 H 0.75856 0.24415 0.15904 0.0
H2882 H 0.82712 0.24101 0.15758 0.0
H2883 H 0.83667 0.27345 0.19176 0.0
C2884 C 0.79341 0.17958 0.12089 0.0
C2885 C 0.78435 0.18219 0.09893 0.0
C2886 C 0.79467 0.19795 0.14033 0.0
C2887 C 0.78656 0.21862 0.1378 0.0
C2888 C 0.77559 0.22001 0.1164 0.0
C2889 C 0.77461 0.20188 0.09694 0.0
C2890 C 0.78126 0.27 0.18509 0.0
C2891 C 0.80327 0.27813 0.19458 0.0
C2892 C 0.77569 0.25106 0.16576 0.0
C2893 C 0.79213 0.23999 0.1564 0.0
C2894 C 0.81425 0.24923 0.16495 0.0
C2895 C 0.8198 0.26828 0.18396 0.0
H2896 H 0.18146 0.6001 0.29759 0.0
H2897 H 0.18137 0.5269 0.30693 0.0
H2898 H 0.16274 0.60676 0.33304 0.0
H2899 H 0.16199 0.53325 0.34257 0.0
H2900 H 0.08958 0.54518 0.35725 0.0
H2901 H 0.1225 0.5376 0.33909 0.0
H2902 H 0.15925 0.60777 0.37591 0.0
H2903 H 0.12593 0.61545 0.39347 0.0
C2904 C 0.1778 0.58566 0.30771 0.0
C2905 C 0.18214 0.56288 0.29961 0.0
C2906 C 0.16742 0.58952 0.32815 0.0
C2907 C 0.16075 0.57039 0.34032 0.0
C2908 C 0.16694 0.54819 0.33334 0.0
C2909 C 0.17784 0.54452 0.31305 0.0
C2910 C 0.10474 0.55892 0.3612 0.0
C2911 C 0.10529 0.58136 0.37546 0.0
C2912 C 0.12366 0.55439 0.35143 0.0
C2913 C 0.14332 0.57221 0.35608 0.0
C2914 C 0.14417 0.59393 0.37191 0.0
C2915 C 0.12517 0.59852 0.38147 0.0
H2916 H 0.77863 0.84117 0.58041 0.0
H2917 H 0.8462 0.86038 0.61081 0.0
H2918 H 0.7682 0.8192 0.61258 0.0
H2919 H 0.83589 0.83736 0.64243 0.0
H2920 H 0.80893 0.76682 0.67427 0.0
H2921 H 0.816 0.78694 0.64012 0.0
H2922 H 0.77267 0.83418 0.66293 0.0
H2923 H 0.76656 0.81495 0.69774 0.0
C2924 C 0.79129 0.84049 0.59386 0.0
C2925 C 0.8133 0.8523 0.59295 0.0
C2926 C 0.78529 0.82796 0.61228 0.0
C2927 C 0.80127 0.82624 0.6298 0.0
C2928 C 0.82327 0.83814 0.62898 0.0
C2929 C 0.82917 0.85137 0.61097 0.0
C2930 C 0.8004 0.78099 0.67159 0.0
C2931 C 0.78704 0.78917 0.68856 0.0
C2932 C 0.80469 0.79273 0.65224 0.0
C2933 C 0.79509 0.81231 0.64902 0.0
C2934 C 0.78037 0.81923 0.665 0.0
C2935 C 0.77671 0.80807 0.68478 0.0
H2936 H 0.8086 0.50516 0.53067 0.0
H2937 H 0.75832 0.44436 0.49424 0.0
H2938 H 0.78082 0.5269 0.54304 0.0
H2939 H 0.72999 0.46705 0.50539 0.0
H2940 H 0.68828 0.50414 0.55859 0.0
H2941 H 0.71353 0.48076 0.54019 0.0
H2942 H 0.75548 0.54741 0.52914 0.0
H2943 H 0.73096 0.57056 0.54892 0.0
C2944 C 0.79154 0.49685 0.52454 0.0
C2945 C 0.78548 0.47336 0.51117 0.0
C2946 C 0.77558 0.50934 0.53158 0.0
C2947 C 0.75322 0.4989 0.52483 0.0
C2948 C 0.74712 0.4755 0.51092 0.0
C2949 C 0.76322 0.46266 0.50433 0.0
C2950 C 0.70308 0.51359 0.55235 0.0
C2951 C 0.7083 0.53901 0.55565 0.0
C2952 C 0.7173 0.50028 0.54153 0.0
C2953 C 0.73663 0.51231 0.53352 0.0
C2954 C 0.74105 0.53771 0.53578 0.0
C2955 C 0.72714 0.55097 0.54708 0.0
H2956 H 0.24759 0.12531 0.52183 0.0
H2957 H 0.21968 0.17352 0.48517 0.0
H2958 H 0.21152 0.0983 0.51884 0.0
H2959 H 0.18374 0.14586 0.48067 0.0
H2960 H 0.11791 0.10733 0.50069 0.0
H2961 H 0.15398 0.13257 0.49979 0.0
H2962 H 0.18279 0.06972 0.49734 0.0
H2963 H 0.14658 0.04473 0.49951 0.0
C2964 C 0.23372 0.12999 0.51287 0.0
C2965 C 0.23647 0.15175 0.50402 0.0
C2966 C 0.21294 0.11431 0.51089 0.0
C2967 C 0.19429 0.11966 0.49958 0.0
C2968 C 0.19734 0.14119 0.49009 0.0
C2969 C 0.21805 0.1571 0.49252 0.0
C2970 C 0.1319 0.0988 0.49979 0.0
C2971 C 0.12916 0.07386 0.50015 0.0
C2972 C 0.15277 0.11334 0.49906 0.0
C2973 C 0.17173 0.1035 0.49858 0.0
C2974 C 0.16885 0.0783 0.49812 0.0
C2975 C 0.1479 0.06374 0.49895 0.0
H2976 H 0.24382 0.96764 0.74559 0.0
H2977 H 0.20238 0.93445 0.79324 0.0
H2978 H 0.26552 0.93602 0.74484 0.0
H2979 H 0.22434 0.90342 0.79319 0.0
H2980 H 0.2776 0.86005 0.80786 0.0
H2981 H 0.25671 0.89121 0.80566 0.0
H2982 H 0.27322 0.89379 0.73466 0.0
H2983 H 0.2943 0.86165 0.73683 0.0
C2984 C 0.23913 0.95377 0.75612 0.0
C2985 C 0.22065 0.95465 0.76955 0.0
C2986 C 0.25186 0.93511 0.75562 0.0
C2987 C 0.24764 0.91611 0.7691 0.0
C2988 C 0.22914 0.91713 0.78253 0.0
C2989 C 0.21608 0.93534 0.7825 0.0
C2990 C 0.27703 0.86691 0.79148 0.0
C2991 C 0.28834 0.85712 0.77264 0.0
C2992 C 0.26452 0.88526 0.79016 0.0
C2993 C 0.26218 0.89601 0.76987 0.0
C2994 C 0.27397 0.8868 0.75094 0.0
C2995 C 0.28642 0.86793 0.75218 0.0
H2996 H 0.38104 0.99424 0.9911 0.0
H2997 H 0.41294 0.95354 0.03396 0.0
H2998 H 0.41625 0.01065 0.97737 0.0
H2999 H 0.44824 0.97066 0.02103 0.0
H3000 H 0.50695 0.99178 0.99363 0.0
H3001 H 0.4684 0.97073 0.98452 0.0
H3002 H 0.44885 0.03944 1.00106 0.0
H3003 H 0.48729 0.06026 0.00936 0.0
C3004 C 0.39572 0.98925 0.9979 0.0
C3005 C 0.39472 0.97306 0.01379 0.0
C3006 C 0.4156 0.99819 0.98969 0.0
C3007 C 0.43456 0.99128 0.99766 0.0
C3008 C 0.43356 0.97543 0.01394 0.0
C3009 C 0.41363 0.96617 0.02182 0.0
C3010 C 0.49428 1.00226 0.99412 0.0
C3011 C 0.49948 0.02732 1.00196 0.0
C3012 C 0.47245 0.99037 0.98886 0.0
C3013 C 0.45598 1.00358 0.99255 0.0
C3014 C 0.46139 0.02899 0.99803 0.0
C3015 C 0.48323 0.04084 0.00318 0.0
H3016 H 0.9113 0.58701 0.76831 0.0
H3017 H 0.88634 0.6139 0.83336 0.0
H3018 H 0.88264 0.59801 0.74581 0.0
H3019 H 0.85876 0.6284 0.81079 0.0
H3020 H 0.79555 0.62092 0.76389 0.0
H3021 H 0.82593 0.61292 0.78791 0.0
H3022 H 0.86825 0.62618 0.73229 0.0
H3023 H 0.8373 0.63143 0.70786 0.0
C3024 C 0.90036 0.5968 0.77778 0.0
C3025 C 0.90109 0.60022 0.80243 0.0
C3026 C 0.88384 0.60318 0.76485 0.0
C3027 C 0.8683 0.61427 0.77637 0.0
C3028 C 0.87014 0.61939 0.80131 0.0
C3029 C 0.88616 0.61175 0.8143 0.0
C3030 C 0.81128 0.6212 0.75676 0.0
C3031 C 0.81423 0.62596 0.73399 0.0
C3032 C 0.82881 0.61727 0.77064 0.0
C3033 C 0.84966 0.61893 0.76213 0.0
C3034 C 0.85238 0.62399 0.73927 0.0
C3035 C 0.8347 0.62699 0.72518 0.0
H3036 H 0.85914 0.65662 0.97964 0.0
H3037 H 0.85513 0.68039 0.05398 0.0
H3038 H 0.8866 0.63334 0.98942 0.0
H3039 H 0.88165 0.65645 0.0637 0.0
H3040 H 0.89599 0.57909 0.06295 0.0
H3041 H 0.8738 0.60579 0.05022 0.0
H3042 H 0.92864 0.64241 0.01836 0.0
H3043 H 0.95167 0.61676 0.03242 0.0
C3044 C 0.86442 0.65711 0.99801 0.0
C3045 C 0.85524 0.67028 0.01613 0.0
C3046 C 0.88005 0.64388 0.00357 0.0
C3047 C 0.88602 0.64305 0.02729 0.0
C3048 C 0.87728 0.65686 0.0453 0.0
C3049 C 0.86224 0.67059 0.03977 0.0
C3050 C 0.9036 0.59298 0.05355 0.0
C3051 C 0.92588 0.59589 0.04919 0.0
C3052 C 0.89075 0.60813 0.04608 0.0
C3053 C 0.89961 0.6262 0.03352 0.0
C3054 C 0.92148 0.62854 0.02803 0.0
C3055 C 0.93457 0.61368 0.03598 0.0
H3056 H 0.2424 0.08071 0.75396 0.0
H3057 H 0.20578 0.10635 0.80997 0.0
H3058 H 0.26281 0.12199 0.75495 0.0
H3059 H 0.22684 0.14767 0.81208 0.0
H3060 H 0.25828 0.22582 0.80413 0.0
H3061 H 0.23787 0.18461 0.80359 0.0
H3062 H 0.28771 0.15666 0.76576 0.0
H3063 H 0.30769 0.19803 0.76613 0.0
C3064 C 0.23883 0.09512 0.76684 0.0
C3065 C 0.2222 0.08951 0.78193 0.0
C3066 C 0.25084 0.11931 0.76757 0.0
C3067 C 0.24722 0.13947 0.78373 0.0
C3068 C 0.23054 0.13362 0.79896 0.0
C3069 C 0.21831 0.10944 0.79794 0.0
C3070 C 0.26501 0.21091 0.79573 0.0
C3071 C 0.28505 0.21596 0.78535 0.0
C3072 C 0.25316 0.18674 0.79548 0.0
C3073 C 0.26047 0.16599 0.78455 0.0
C3074 C 0.2807 0.17124 0.77425 0.0
C3075 C 0.29262 0.19544 0.77471 0.0
H3076 H 0.41227 0.95968 0.28842 0.0
H3077 H 0.36599 0.99165 0.32902 0.0
H3078 H 0.39085 0.91973 0.2889 0.0
H3079 H 0.34463 0.95101 0.33049 0.0
H3080 H 0.29994 0.87919 0.28352 0.0
H3081 H 0.32167 0.92026 0.29914 0.0
H3082 H 0.37877 0.89044 0.31243 0.0
H3083 H 0.3576 0.8502 0.29506 0.0
C3084 C 0.39762 0.95801 0.29778 0.0
C3085 C 0.39031 0.9784 0.30817 0.0
C3086 C 0.38554 0.93517 0.29844 0.0
C3087 C 0.36617 0.93241 0.3099 0.0
C3088 C 0.35942 0.95286 0.32138 0.0
C3089 C 0.37144 0.97589 0.32038 0.0
C3090 C 0.31717 0.88181 0.28974 0.0
C3091 C 0.32755 0.8623 0.28791 0.0
C3092 C 0.3294 0.90497 0.29916 0.0
C3093 C 0.3519 0.90833 0.30667 0.0
C3094 C 0.36159 0.88829 0.30625 0.0
C3095 C 0.34964 0.86547 0.29621 0.0
H3096 H 0.6116 0.37373 0.55326 0.0
H3097 H 0.57477 0.3883 0.61285 0.0
H3098 H 0.60603 0.4115 0.54084 0.0
H3099 H 0.56839 0.42463 0.60025 0.0
H3100 H 0.57859 0.50227 0.59149 0.0
H3101 H 0.58341 0.46372 0.59978 0.0
H3102 H 0.58447 0.43741 0.52525 0.0
H3103 H 0.58021 0.47739 0.51702 0.0
C3104 C 0.60225 0.3848 0.56371 0.0
C3105 C 0.59397 0.37771 0.58441 0.0
C3106 C 0.59887 0.40658 0.55647 0.0
C3107 C 0.587 0.42208 0.56959 0.0
C3108 C 0.57827 0.41428 0.58979 0.0
C3109 C 0.58181 0.39294 0.59705 0.0
C3110 C 0.57965 0.48833 0.57665 0.0
C3111 C 0.5788 0.49335 0.55351 0.0
C3112 C 0.58227 0.46572 0.58145 0.0
C3113 C 0.58415 0.44651 0.56336 0.0
C3114 C 0.5832 0.45138 0.53993 0.0
C3115 C 0.58049 0.47436 0.53508 0.0
H3116 H 0.437 0.75764 0.41798 0.0
H3117 H 0.47571 0.78869 0.36689 0.0
H3118 H 0.40347 0.76275 0.39687 0.0
H3119 H 0.44293 0.79517 0.34658 0.0
H3120 H 0.38106 0.79328 0.30156 0.0
H3121 H 0.41278 0.7858 0.32245 0.0
H3122 H 0.37732 0.7814 0.38431 0.0
H3123 H 0.34458 0.78696 0.36199 0.0
C3124 C 0.43845 0.7656 0.40221 0.0
C3125 C 0.45943 0.77242 0.39421 0.0
C3126 C 0.419 0.76882 0.39001 0.0
C3127 C 0.41957 0.77934 0.36933 0.0
C3128 C 0.44079 0.78637 0.36171 0.0
C3129 C 0.46006 0.78281 0.37367 0.0
C3130 C 0.37957 0.78992 0.3193 0.0
C3131 C 0.35952 0.78997 0.32938 0.0
C3132 C 0.39839 0.78622 0.3319 0.0
C3133 C 0.39859 0.78293 0.35574 0.0
C3134 C 0.37848 0.7834 0.36607 0.0
C3135 C 0.35944 0.78686 0.35322 0.0
H3136 H 0.05693 0.73335 0.06335 0.0
H3137 H 0.12104 0.73451 0.09641 0.0
H3138 H 0.05008 0.68885 0.05231 0.0
H3139 H 0.11485 0.69066 0.08458 0.0
H3140 H 0.08722 0.61136 0.08997 0.0
H3141 H 0.09594 0.65543 0.09535 0.0
H3142 H 0.05661 0.65161 0.02997 0.0
H3143 H 0.04833 0.607 0.02456 0.0
C3144 C 0.06979 0.72422 0.06783 0.0
C3145 C 0.08956 0.73778 0.08097 0.0
C3146 C 0.06588 0.69853 0.06145 0.0
C3147 C 0.08171 0.68551 0.06776 0.0
C3148 C 0.10182 0.69944 0.07989 0.0
C3149 C 0.10553 0.72487 0.08656 0.0
C3150 C 0.08108 0.61986 0.07629 0.0
C3151 C 0.06785 0.6054 0.05637 0.0
C3152 C 0.08598 0.64539 0.0794 0.0
C3153 C 0.07722 0.65776 0.0631 0.0
C3154 C 0.06384 0.64318 0.04303 0.0
C3155 C 0.05935 0.61745 0.03966 0.0
H3156 H 0.09912 0.26212 0.92612 0.0
H3157 H 0.06864 0.28662 0.86829 0.0
H3158 H 0.13318 0.26442 0.90659 0.0
H3159 H 0.10265 0.28982 0.84919 0.0
H3160 H 0.1585 0.27811 0.80803 0.0
H3161 H 0.12547 0.26831 0.82816 0.0
H3162 H 0.1648 0.29052 0.89557 0.0
H3163 H 0.19805 0.29977 0.875 0.0
C3164 C 0.09968 0.26809 0.90925 0.0
C3165 C 0.08093 0.27405 0.89876 0.0
C3166 C 0.11934 0.26952 0.89804 0.0
C3167 C 0.12098 0.27711 0.87598 0.0
C3168 C 0.10217 0.28324 0.86574 0.0
C3169 C 0.08253 0.28158 0.87681 0.0
C3170 C 0.16021 0.2801 0.82712 0.0
C3171 C 0.18104 0.28944 0.83978 0.0
C3172 C 0.14112 0.27493 0.83881 0.0
C3173 C 0.14203 0.27922 0.86372 0.0
C3174 C 0.16315 0.28698 0.87643 0.0
C3175 C 0.18236 0.29215 0.86462 0.0
H3176 H 0.64751 0.77733 0.93799 0.0
H3177 H 0.5808 0.76275 0.90538 0.0
H3178 H 0.63824 0.74124 0.95601 0.0
H3179 H 0.57112 0.72788 0.92425 0.0
H3180 H 0.55711 0.66053 0.95207 0.0
H3181 H 0.57363 0.68847 0.92705 0.0
H3182 H 0.61842 0.72977 0.98702 0.0
H3183 H 0.60237 0.7011 0.01141 0.0
C3184 C 0.63091 0.76635 0.93469 0.0
C3185 C 0.61486 0.77276 0.92041 0.0
C3186 C 0.62554 0.74576 0.94504 0.0
C3187 C 0.6039 0.73156 0.94165 0.0
C3188 C 0.58807 0.73788 0.92686 0.0
C3189 C 0.59356 0.75808 0.91619 0.0
C3190 C 0.57096 0.6752 0.95952 0.0
C3191 C 0.57858 0.67891 0.98348 0.0
C3192 C 0.58027 0.69136 0.94536 0.0
C3193 C 0.59712 0.71171 0.9551 0.0
C3194 C 0.60563 0.7143 0.9788 0.0
C3195 C 0.5964 0.69801 0.99286 0.0
H3196 H 0.06465 0.7216 0.68723 0.0
H3197 H 0.07914 0.79811 0.68538 0.0
H3198 H 0.10337 0.72329 0.69713 0.0
H3199 H 0.11841 0.79977 0.69341 0.0
H3200 H 0.17688 0.79845 0.74671 0.0
H3201 H 0.14287 0.79988 0.7247 0.0
H3202 H 0.13885 0.72673 0.68724 0.0
H3203 H 0.17238 0.72516 0.7107 0.0
C3204 C 0.07632 0.73877 0.68881 0.0
C3205 C 0.06907 0.75987 0.68631 0.0
C3206 C 0.09861 0.73972 0.69399 0.0
C3207 C 0.11426 0.7617 0.69609 0.0
C3208 C 0.1069 0.78265 0.69253 0.0
C3209 C 0.08444 0.7818 0.68804 0.0
C3210 C 0.16885 0.78294 0.73339 0.0
C3211 C 0.17668 0.76153 0.73063 0.0
C3212 C 0.14941 0.78374 0.72056 0.0
C3213 C 0.13757 0.76309 0.70468 0.0
C3214 C 0.14701 0.74263 0.70002 0.0
C3215 C 0.1663 0.74174 0.71318 0.0
H3216 H 0.15349 0.43017 0.426 0.0
H3217 H 0.08916 0.38304 0.42098 0.0
H3218 H 0.13779 0.4651 0.44149 0.0
H3219 H 0.07361 0.4171 0.43649 0.0
H3220 H 0.04801 0.48392 0.45062 0.0
H3221 H 0.0648 0.45366 0.42868 0.0
H3222 H 0.12285 0.47743 0.47883 0.0
H3223 H 0.10679 0.50908 0.49952 0.0
C3224 C 0.13608 0.42745 0.42827 0.0
C3225 C 0.12247 0.40426 0.42313 0.0
C3226 C 0.12712 0.4472 0.43701 0.0
C3227 C 0.10455 0.44365 0.44028 0.0
C3228 C 0.09098 0.42042 0.43399 0.0
C3229 C 0.09991 0.4009 0.42547 0.0
C3230 C 0.06457 0.48323 0.45648 0.0
C3231 C 0.07629 0.49923 0.47633 0.0
C3232 C 0.07409 0.46568 0.44415 0.0
C3233 C 0.09526 0.46354 0.4519 0.0
C3234 C 0.10677 0.47919 0.4721 0.0
C3235 C 0.09738 0.49697 0.48418 0.0
H3236 H 0.43269 0.2264 0.17795 0.0
H3237 H 0.46268 0.29314 0.22589 0.0
H3238 H 0.39811 0.22612 0.19499 0.0
H3239 H 0.42739 0.29342 0.24257 0.0
H3240 H 0.36428 0.26793 0.28008 0.0
H3241 H 0.40095 0.27084 0.26577 0.0
H3242 H 0.37049 0.24973 0.19374 0.0
H3243 H 0.33431 0.24617 0.20818 0.0
C3244 C 0.4318 0.24109 0.19213 0.0
C3245 C 0.45018 0.25993 0.20057 0.0
C3246 C 0.41198 0.24101 0.20178 0.0
C3247 C 0.41003 0.25998 0.21981 0.0
C3248 C 0.42857 0.27855 0.22874 0.0
C3249 C 0.44864 0.27844 0.21923 0.0
C3250 C 0.36573 0.26402 0.26126 0.0
C3251 C 0.34695 0.25698 0.24506 0.0
C3252 C 0.38651 0.26584 0.25308 0.0
C3253 C 0.38846 0.26027 0.2287 0.0
C3254 C 0.36945 0.25365 0.21264 0.0
C3255 C 0.34884 0.25171 0.22081 0.0
H3256 H 0.66905 0.5556 0.35823 0.0
H3257 H 0.62574 0.48568 0.33612 0.0
H3258 H 0.65327 0.56026 0.39605 0.0
H3259 H 0.61014 0.48982 0.37433 0.0
H3260 H 0.57562 0.50411 0.44408 0.0
H3261 H 0.59084 0.49913 0.40586 0.0
H3262 H 0.64521 0.55898 0.43353 0.0
H3263 H 0.62979 0.56378 0.47158 0.0
C3264 C 0.6562 0.5409 0.36126 0.0
C3265 C 0.64921 0.52014 0.34297 0.0
C3266 C 0.64692 0.54354 0.38366 0.0
C3267 C 0.62988 0.52553 0.38993 0.0
C3268 C 0.62285 0.5047 0.37147 0.0
C3269 C 0.63206 0.50216 0.34893 0.0
C3270 C 0.59087 0.51636 0.44228 0.0
C3271 C 0.60101 0.53448 0.46212 0.0
C3272 C 0.59995 0.5134 0.41974 0.0
C3273 C 0.61987 0.52851 0.41497 0.0
C3274 C 0.62994 0.54664 0.43498 0.0
C3275 C 0.62096 0.54942 0.45756 0.0
H3276 H 0.33133 0.87314 0.06105 0.0
H3277 H 0.32768 0.94502 0.09559 0.0
H3278 H 0.3292 0.85939 0.0987 0.0
H3279 H 0.32471 0.93107 0.13328 0.0
H3280 H 0.35977 0.89984 0.19301 0.0
H3281 H 0.34917 0.91841 0.16035 0.0
H3282 H 0.30417 0.85102 0.12873 0.0
H3283 H 0.31541 0.83232 0.16121 0.0
C3284 C 0.32961 0.88582 0.07667 0.0
C3285 C 0.3293 0.90995 0.07553 0.0
C3286 C 0.32813 0.87793 0.09815 0.0
C3287 C 0.32606 0.89401 0.11877 0.0
C3288 C 0.32601 0.91826 0.1176 0.0
C3289 C 0.32775 0.92622 0.09612 0.0
C3290 C 0.34692 0.88942 0.17955 0.0
C3291 C 0.33878 0.86465 0.17906 0.0
C3292 C 0.3408 0.9 0.16088 0.0
C3293 C 0.32646 0.88581 0.14165 0.0
C3294 C 0.31576 0.86207 0.1431 0.0
C3295 C 0.32195 0.85147 0.16177 0.0
H3296 H 0.98967 0.57637 0.8682 0.0
H3297 H 0.93843 0.51539 0.8758 0.0
H3298 H 0.01162 0.56997 0.90218 0.0
H3299 H 0.96064 0.50854 0.90928 0.0
H3300 H 0.99367 0.53499 0.98589 0.0
H3301 H 0.97252 0.53414 0.94946 0.0
H3302 H 0.03113 0.53709 0.91268 0.0
H3303 H 0.05265 0.53745 0.94955 0.0
C3304 C 0.98326 0.56162 0.87719 0.0
C3305 C 0.96259 0.54644 0.86984 0.0
C3306 C 0.99583 0.55776 0.89621 0.0
C3307 C 0.98783 0.5385 0.90768 0.0
C3308 C 0.967 0.52342 0.90043 0.0
C3309 C 0.95432 0.52749 0.8816 0.0
C3310 C 1.00222 0.53531 0.97011 0.0
C3311 C 0.02508 0.5369 0.97067 0.0
C3312 C 0.98996 0.5345 0.94923 0.0
C3313 C 1.00038 0.53565 0.9286 0.0
C3314 C 0.02299 0.53632 0.9287 0.0
C3315 C 0.03529 0.53663 0.94972 0.0
H3316 H 0.29248 0.26352 0.58147 0.0
H3317 H 0.3194 0.20276 0.59438 0.0
H3318 H 0.29365 0.27749 0.62448 0.0
H3319 H 0.32127 0.21684 0.63663 0.0
H3320 H 0.29964 0.22655 0.7087 0.0
H3321 H 0.29742 0.21738 0.66601 0.0
H3322 H 0.31399 0.29392 0.66395 0.0
H3323 H 0.31552 0.30312 0.70758 0.0
C3324 C 0.2988 0.25324 0.5934 0.0
C3325 C 0.30539 0.23166 0.58422 0.0
C3326 C 0.29957 0.26131 0.61817 0.0
C3327 C 0.30698 0.24806 0.63448 0.0
C3328 C 0.31463 0.22723 0.62504 0.0
C3329 C 0.31371 0.21916 0.60054 0.0
C3330 C 0.30236 0.24156 0.69922 0.0
C3331 C 0.30743 0.26559 0.71179 0.0
C3332 C 0.30145 0.23627 0.67452 0.0
C3333 C 0.30607 0.25477 0.66105 0.0
C3334 C 0.31031 0.27904 0.67347 0.0
C3335 C 0.31106 0.2844 0.69855 0.0
H3336 H 0.6752 0.51719 0.18324 0.0
H3337 H 0.61306 0.51676 0.21155 0.0
H3338 H 0.65937 0.52125 0.14511 0.0
H3339 H 0.59675 0.52131 0.17301 0.0
H3340 H 0.56723 0.52614 0.09589 0.0
H3341 H 0.58159 0.52197 0.13558 0.0
H3342 H 0.6469 0.5305 0.11277 0.0
H3343 H 0.63253 0.53404 0.07408 0.0
C3344 C 0.65799 0.51799 0.18156 0.0
C3345 C 0.64598 0.51652 0.20164 0.0
C3346 C 0.64852 0.52057 0.15897 0.0
C3347 C 0.62608 0.52211 0.15429 0.0
C3348 C 0.61392 0.52041 0.17449 0.0
C3349 C 0.62348 0.51772 0.19723 0.0
C3350 C 0.58472 0.52738 0.09936 0.0
C3351 C 0.59837 0.53068 0.08068 0.0
C3352 C 0.59325 0.5248 0.12265 0.0
C3353 C 0.61606 0.52541 0.12902 0.0
C3354 C 0.6294 0.52927 0.11019 0.0
C3355 C 0.62094 0.5316 0.0872 0.0
H3356 H 0.35085 0.86761 0.96052 0.0
H3357 H 0.3404 0.92835 0.92897 0.0
H3358 H 0.35634 0.84614 0.92187 0.0
H3359 H 0.34563 0.90655 0.89022 0.0
H3360 H 0.306 0.83596 0.83685 0.0
H3361 H 0.31446 0.86474 0.87403 0.0
H3362 H 0.37917 0.84909 0.88203 0.0
H3363 H 0.37084 0.8207 0.84384 0.0
C3364 C 0.35003 0.87644 0.94536 0.0
C3365 C 0.34439 0.8991 0.94735 0.0
C3366 C 0.35357 0.86439 0.92346 0.0
C3367 C 0.35123 0.87483 0.90344 0.0
C3368 C 0.34747 0.89836 0.90568 0.0
C3369 C 0.34421 0.91057 0.92766 0.0
C3370 C 0.32179 0.83824 0.84688 0.0
C3371 C 0.33753 0.82566 0.8384 0.0
C3372 C 0.32683 0.85508 0.86768 0.0
C3373 C 0.34753 0.85914 0.88036 0.0
C3374 C 0.36321 0.84621 0.87216 0.0
C3375 C 0.35834 0.82977 0.85085 0.0
H3376 H 0.98443 0.5438 0.75317 0.0
H3377 H 0.91851 0.54325 0.72459 0.0
H3378 H 0.99703 0.54423 0.71415 0.0
H3379 H 0.93129 0.54388 0.68536 0.0
H3380 H 0.96499 0.49875 0.62423 0.0
H3381 H 0.94592 0.51221 0.65804 0.0
H3382 H 1.00178 0.57148 0.68326 0.0
H3383 H 0.02089 0.55785 0.64952 0.0
C3384 C 0.97274 0.54408 0.73858 0.0
C3385 C 0.95062 0.54364 0.74177 0.0
C3386 C 0.97997 0.54466 0.71636 0.0
C3387 C 0.96518 0.54479 0.69703 0.0
C3388 C 0.94298 0.54418 0.70016 0.0
C3389 C 0.93573 0.54365 0.72247 0.0
C3390 C 0.97281 0.51506 0.63669 0.0
C3391 C 0.99451 0.52688 0.63499 0.0
C3392 C 0.96187 0.52291 0.6558 0.0
C3393 C 0.97276 0.54243 0.67338 0.0
C3394 C 0.99332 0.55613 0.66998 0.0
C3395 C 1.0042 0.54836 0.65078 0.0
H3396 H 0.30445 0.25889 0.4549 0.0
H3397 H 0.30423 0.18436 0.42618 0.0
H3398 H 0.30515 0.26843 0.41503 0.0
H3399 H 0.30586 0.19383 0.38676 0.0
H3400 H 0.28701 0.21065 0.31471 0.0
H3401 H 0.28728 0.20167 0.35448 0.0
H3402 H 0.32371 0.27467 0.38225 0.0
H3403 H 0.32292 0.28351 0.34277 0.0
C3404 C 0.3047 0.24456 0.44013 0.0
C3405 C 0.30409 0.2208 0.44394 0.0
C3406 C 0.30527 0.25003 0.4171 0.0
C3407 C 0.30536 0.23193 0.3971 0.0
C3408 C 0.30522 0.20831 0.40122 0.0
C3409 C 0.30449 0.20286 0.42409 0.0
C3410 C 0.2952 0.22483 0.32922 0.0
C3411 C 0.30476 0.24806 0.32499 0.0
C3412 C 0.29547 0.21962 0.3523 0.0
C3413 C 0.30542 0.2374 0.37218 0.0
C3414 C 0.31539 0.26045 0.36784 0.0
C3415 C 0.31506 0.2656 0.34479 0.0
H3416 H 0.36409 0.64714 0.56233 0.0
H3417 H 0.32998 0.57808 0.5208 0.0
H3418 H 0.39863 0.63314 0.56213 0.0
H3419 H 0.36428 0.56441 0.52004 0.0
H3420 H 0.42166 0.53659 0.52766 0.0
H3421 H 0.3923 0.55359 0.54541 0.0
H3422 H 0.42222 0.62374 0.53013 0.0
H3423 H 0.45186 0.60667 0.51303 0.0
C3424 C 0.364 0.62891 0.55339 0.0
C3425 C 0.34452 0.6135 0.54171 0.0
C3426 C 0.38367 0.62096 0.55332 0.0
C3427 C 0.38398 0.59758 0.5415 0.0
C3428 C 0.36436 0.58222 0.53002 0.0
C3429 C 0.34477 0.59007 0.53025 0.0
C3430 C 0.42229 0.55582 0.52905 0.0
C3431 C 0.43848 0.57043 0.51888 0.0
C3432 C 0.40558 0.56552 0.53906 0.0
C3433 C 0.40481 0.58976 0.53855 0.0
C3434 C 0.42245 0.60499 0.53071 0.0
C3435 C 0.43926 0.59527 0.52082 0.0
H3436 H 0.89855 0.90686 0.50928 0.0
H3437 H 0.89257 0.95618 0.57247 0.0
H3438 H 0.93534 0.92994 0.50702 0.0
H3439 H 0.93025 0.9786 0.57146 0.0
H3440 H 0.99289 0.02737 0.55401 0.0
H3441 H 0.95577 1.00517 0.55685 0.0
H3442 H 0.97138 0.93995 0.51892 0.0
H3443 H 0.00783 0.96255 0.51499 0.0
C3444 C 0.90531 0.92246 0.52303 0.0
C3445 C 0.89251 0.92948 0.54113 0.0
C3446 C 0.92672 0.93577 0.52189 0.0
C3447 C 0.93652 0.95637 0.53919 0.0
C3448 C 0.92361 0.96325 0.55747 0.0
C3449 C 0.9019 0.95021 0.55824 0.0
C3450 C 0.98841 1.00834 0.54618 0.0
C3451 C 1.00365 0.99705 0.53412 0.0
C3452 C 0.96693 0.99533 0.54799 0.0
C3453 C 0.95987 0.97042 0.53797 0.0
C3454 C 0.97545 0.9591 0.52643 0.0
C3455 C 0.99677 0.97214 0.52443 0.0
H3456 H 0.88286 0.11898 0.24773 0.0
H3457 H 0.93163 0.16486 0.30065 0.0
H3458 H 0.86494 0.15303 0.24523 0.0
H3459 H 0.91352 0.19905 0.29843 0.0
H3460 H 0.86719 0.25826 0.30004 0.0
H3461 H 0.88535 0.22438 0.30439 0.0
H3462 H 0.86094 0.19005 0.23298 0.0
H3463 H 0.8442 0.22433 0.22838 0.0
C3464 C 0.89008 0.13623 0.25905 0.0
C3465 C 0.90942 0.13778 0.27443 0.0
C3466 C 0.87952 0.15647 0.25753 0.0
C3467 C 0.88701 0.18034 0.27146 0.0
C3468 C 0.90626 0.18183 0.28712 0.0
C3469 C 0.91702 0.16162 0.28839 0.0
C3470 C 0.86513 0.24338 0.28522 0.0
C3471 C 0.85266 0.2448 0.26396 0.0
C3472 C 0.87607 0.22346 0.28766 0.0
C3473 C 0.87516 0.20279 0.26927 0.0
C3474 C 0.86255 0.20437 0.24821 0.0
C3475 C 0.85242 0.2246 0.24554 0.0
H3476 H 0.71646 0.13099 0.00591 0.0
H3477 H 0.72066 0.07879 0.05128 0.0
H3478 H 0.67674 0.12129 0.00457 0.0
H3479 H 0.68006 0.06884 0.0499 0.0
H3480 H 0.60985 0.04412 0.99938 0.0
H3481 H 0.64846 0.05111 0.01379 0.0
H3482 H 0.64968 0.12727 0.03609 0.0
H3483 H 0.61075 0.12008 0.02174 0.0
C3484 C 0.70871 0.11721 0.01542 0.0
C3485 C 0.72128 0.10549 0.02863 0.0
C3486 C 0.6861 0.11198 0.01497 0.0
C3487 C 0.67568 0.09495 0.02777 0.0
C3488 C 0.68807 0.08231 0.04024 0.0
C3489 C 0.71101 0.08765 0.04072 0.0
C3490 C 0.61809 0.06209 0.00821 0.0
C3491 C 0.60743 0.08151 0.01024 0.0
C3492 C 0.64012 0.06605 0.01655 0.0
C3493 C 0.65173 0.08961 0.02611 0.0
C3494 C 0.6408 0.10889 0.02891 0.0
C3495 C 0.61877 0.10488 0.02065 0.0
H3496 H 0.26325 0.51607 0.24809 0.0
H3497 H 0.20242 0.46973 0.2129 0.0
H3498 H 0.27758 0.48074 0.25251 0.0
H3499 H 0.21709 0.43395 0.2168 0.0
H3500 H 0.23921 0.3943 0.27853 0.0
H3501 H 0.22424 0.4195 0.25433 0.0
H3502 H 0.28907 0.44442 0.23296 0.0
H3503 H 0.30395 0.41952 0.25767 0.0
C3504 C 0.25328 0.49826 0.24059 0.0
C3505 C 0.23182 0.49538 0.23031 0.0
C3506 C 0.26153 0.47803 0.24289 0.0
C3507 C 0.24849 0.45467 0.23469 0.0
C3508 C 0.22741 0.45183 0.22316 0.0
C3509 C 0.21906 0.47217 0.22104 0.0
C3510 C 0.24996 0.40467 0.26802 0.0
C3511 C 0.27258 0.40559 0.26996 0.0
C3512 C 0.24145 0.41879 0.254 0.0
C3513 C 0.25565 0.43403 0.24209 0.0
C3514 C 0.27793 0.4329 0.24218 0.0
C3515 C 0.28641 0.41881 0.25625 0.0
H3516 H 0.24865 0.39311 0.04579 0.0
H3517 H 0.28833 0.45607 0.02558 0.0
H3518 H 0.21659 0.41164 0.04495 0.0
H3519 H 0.25633 0.47406 0.02338 0.0
H3520 H 0.20089 0.51068 0.03182 0.0
H3521 H 0.2314 0.4928 0.04307 0.0
H3522 H 0.19029 0.42113 0.01921 0.0
H3523 H 0.15964 0.4394 0.0089 0.0
C3524 C 0.25047 0.41088 0.04103 0.0
C3525 C 0.27103 0.4231 0.03566 0.0
C3526 C 0.23205 0.42151 0.04045 0.0
C3527 C 0.23361 0.44451 0.03409 0.0
C3528 C 0.25435 0.45667 0.02894 0.0
C3529 C 0.27279 0.44625 0.02997 0.0
C3530 C 0.19826 0.49113 0.02973 0.0
C3531 C 0.17793 0.47643 0.01965 0.0
C3532 C 0.21586 0.48077 0.03579 0.0
C3533 C 0.21373 0.45538 0.03152 0.0
C3534 C 0.19278 0.4407 0.02284 0.0
C3535 C 0.17512 0.45113 0.01691 0.0
H3536 H 0.87336 1.00396 0.27729 0.0
H3537 H 0.9341 0.98068 0.26865 0.0
H3538 H 0.8542 0.96212 0.2769 0.0
H3539 H 0.91524 0.93884 0.26788 0.0
H3540 H 0.88005 0.86112 0.27449 0.0
H3541 H 0.89909 0.9029 0.27545 0.0
H3542 H 0.83647 0.92323 0.26793 0.0
H3543 H 0.81766 0.88141 0.26758 0.0
C3544 C 0.88283 0.99 0.2752 0.0
C3545 C 0.9057 0.99673 0.2729 0.0
C3546 C 0.8716 0.96531 0.27485 0.0
C3547 C 0.88241 0.94541 0.27224 0.0
C3548 C 0.90543 0.95242 0.27009 0.0
C3549 C 0.91658 0.97706 0.27039 0.0
C3550 C 0.87012 0.87435 0.27297 0.0
C3551 C 0.84679 0.86673 0.27083 0.0
C3552 C 0.88131 0.89902 0.27344 0.0
C3553 C 0.87006 0.91812 0.27175 0.0
C3554 C 0.84663 0.91031 0.26955 0.0
C3555 C 0.83546 0.88562 0.26915 0.0
H3556 H 0.7636 0.11899 0.72727 0.0
H3557 H 0.71268 0.1305 0.7729 0.0
H3558 H 0.782 0.162 0.73917 0.0
H3559 H 0.73138 0.17244 0.78566 0.0
H3560 H 0.75074 0.24852 0.7831 0.0
H3561 H 0.73626 0.20642 0.76496 0.0
H3562 H 0.80096 0.19117 0.77629 0.0
H3563 H 0.81574 0.23432 0.79319 0.0
C3564 C 0.75657 0.13077 0.73992 0.0
C3565 C 0.73673 0.1221 0.74898 0.0
C3566 C 0.76704 0.15504 0.74673 0.0
C3567 C 0.75773 0.17023 0.76287 0.0
C3568 C 0.7384 0.16107 0.77259 0.0
C3569 C 0.72776 0.13721 0.76539 0.0
C3570 C 0.76178 0.23606 0.78139 0.0
C3571 C 0.78409 0.24388 0.78902 0.0
C3572 C 0.75362 0.21222 0.77112 0.0
C3573 C 0.76757 0.19583 0.76967 0.0
C3574 C 0.7901 0.20376 0.77719 0.0
C3575 C 0.79841 0.22801 0.78704 0.0
loop_
_geom_bond_atom_site_label_1
_geom_bond_atom_site_label_2
_geom_bond_distance
_geom_bond_site_symmetry_2
_ccdc_geom_bond_type
In0 O1 2.294 . S
In0 O2 2.326 . S
In0 O6 2.266 . S
In0 O7 2.326 . S
In0 O8 2.266 . S
In0 O9 2.326 . S
In0 O11 2.294 . S
In0 O12 2.326 . S
O1 In0 2.294 . S
O1 C10 1.240 . S
O2 In0 2.326 . S
O2 C10 1.252 . S
C3 O6 1.252 . S
C3 O7 1.260 . S
C4 O11 1.240 . S
C4 O12 1.252 . S
C5 O8 1.252 . S
C5 O9 1.260 . S
O6 In0 2.266 . S
O6 C3 1.252 . S
O7 In0 2.326 . S
O7 C3 1.260 . S
O8 In0 2.266 . S
O8 C5 1.252 . S
O9 In0 2.326 . S
O9 C5 1.260 . S
C10 O1 1.240 . S
C10 O2 1.252 . S
O11 In0 2.294 . S
O11 C4 1.240 . S
O12 In0 2.326 . S
O12 C4 1.252 . S
In13 O14 2.294 . S
In13 O15 2.326 . S
In13 O19 2.266 1_455 S
In13 O20 2.326 1_455 S
In13 O21 2.262 1_455 S
In13 O22 2.319 1_455 S
In13 O24 2.298 . S
In13 O25 2.333 . S
O14 In13 2.294 . S
O14 C23 1.240 . S
O15 In13 2.326 . S
O15 C23 1.252 . S
C16 O19 1.252 . S
C16 O20 1.260 . S
C17 O24 1.240 . S
C17 O25 1.252 . S
C18 O21 1.252 . S
C18 O22 1.260 . S
O19 In13 2.266 1_655 S
O19 C16 1.252 . S
O20 In13 2.326 1_655 S
O20 C16 1.260 . S
O21 In13 2.262 1_655 S
O21 C18 1.252 . S
O22 In13 2.319 1_655 S
O22 C18 1.260 . S
C23 O14 1.240 . S
C23 O15 1.252 . S
O24 In13 2.298 . S
O24 C17 1.240 . S
O25 In13 2.333 . S
O25 C17 1.252 . S
In26 O27 2.294 . S
In26 O28 2.326 . S
In26 O32 2.266 . S
In26 O33 2.326 . S
In26 O34 2.266 . S
In26 O35 2.326 . S
In26 O37 2.294 . S
In26 O38 2.326 . S
O27 In26 2.294 . S
O27 C36 1.240 . S
O28 In26 2.326 . S
O28 C36 1.252 . S
C29 O32 1.252 . S
C29 O33 1.260 . S
C30 O37 1.240 . S
C30 O38 1.252 . S
C31 O34 1.252 . S
C31 O35 1.260 . S
O32 In26 2.266 . S
O32 C29 1.252 . S
O33 In26 2.326 . S
O33 C29 1.260 . S
O34 In26 2.266 . S
O34 C31 1.252 . S
O35 In26 2.326 . S
O35 C31 1.260 . S
C36 O27 1.240 . S
C36 O28 1.252 . S
O37 In26 2.294 . S
O37 C30 1.240 . S
O38 In26 2.326 . S
O38 C30 1.252 . S
In39 O40 2.294 . S
In39 O41 2.326 . S
In39 O45 2.266 . S
In39 O46 2.326 . S
In39 O47 2.266 . S
In39 O48 2.326 . S
In39 O50 2.294 . S
In39 O51 2.326 . S
O40 In39 2.294 . S
O40 C49 1.240 . S
O41 In39 2.326 . S
O41 C49 1.252 . S
C42 O45 1.252 . S
C42 O46 1.260 . S
C43 O50 1.240 . S
C43 O51 1.252 . S
C44 O47 1.252 . S
C44 O48 1.260 . S
O45 In39 2.266 . S
O45 C42 1.252 . S
O46 In39 2.326 . S
O46 C42 1.260 . S
O47 In39 2.266 . S
O47 C44 1.252 . S
O48 In39 2.326 . S
O48 C44 1.260 . S
C49 O40 1.240 . S
C49 O41 1.252 . S
O50 In39 2.294 . S
O50 C43 1.240 . S
O51 In39 2.326 . S
O51 C43 1.252 . S
In52 O53 2.294 . S
In52 O54 2.326 . S
In52 O58 2.266 . S
In52 O59 2.326 . S
In52 O60 2.266 . S
In52 O61 2.326 . S
In52 O63 2.294 . S
In52 O64 2.326 . S
O53 In52 2.294 . S
O53 C62 1.240 . S
O54 In52 2.326 . S
O54 C62 1.252 . S
C55 O58 1.252 . S
C55 O59 1.260 . S
C56 O63 1.240 . S
C56 O64 1.252 . S
C57 O60 1.252 . S
C57 O61 1.260 . S
O58 In52 2.266 . S
O58 C55 1.252 . S
O59 In52 2.326 . S
O59 C55 1.260 . S
O60 In52 2.266 . S
O60 C57 1.252 . S
O61 In52 2.326 . S
O61 C57 1.260 . S
C62 O53 1.240 . S
C62 O54 1.252 . S
O63 In52 2.294 . S
O63 C56 1.240 . S
O64 In52 2.326 . S
O64 C56 1.252 . S
In65 O66 2.294 . S
In65 O67 2.326 . S
In65 O71 2.266 . S
In65 O72 2.326 . S
In65 O73 2.266 . S
In65 O74 2.326 . S
In65 O76 2.294 . S
In65 O77 2.326 . S
O66 In65 2.294 . S
O66 C75 1.240 . S
O67 In65 2.326 . S
O67 C75 1.252 . S
C68 O71 1.252 . S
C68 O72 1.260 . S
C69 O76 1.240 . S
C69 O77 1.252 . S
C70 O73 1.252 . S
C70 O74 1.260 . S
O71 In65 2.266 . S
O71 C68 1.252 . S
O72 In65 2.326 . S
O72 C68 1.260 . S
O73 In65 2.266 . S
O73 C70 1.252 . S
O74 In65 2.326 . S
O74 C70 1.260 . S
C75 O66 1.240 . S
C75 O67 1.252 . S
O76 In65 2.294 . S
O76 C69 1.240 . S
O77 In65 2.326 . S
O77 C69 1.252 . S
In78 O79 2.294 . S
In78 O80 2.326 . S
In78 O84 2.266 . S
In78 O85 2.326 . S
In78 O86 2.266 . S
In78 O87 2.326 . S
In78 O89 2.294 . S
In78 O90 2.326 . S
O79 In78 2.294 . S
O79 C88 1.240 . S
O80 In78 2.326 . S
O80 C88 1.252 . S
C81 O84 1.252 . S
C81 O85 1.260 . S
C82 O89 1.240 . S
C82 O90 1.252 . S
C83 O86 1.252 . S
C83 O87 1.260 . S
O84 In78 2.266 . S
O84 C81 1.252 . S
O85 In78 2.326 . S
O85 C81 1.260 . S
O86 In78 2.266 . S
O86 C83 1.252 . S
O87 In78 2.326 . S
O87 C83 1.260 . S
C88 O79 1.240 . S
C88 O80 1.252 . S
O89 In78 2.294 . S
O89 C82 1.240 . S
O90 In78 2.326 . S
O90 C82 1.252 . S
In91 O92 2.294 . S
In91 O93 2.326 . S
In91 O97 2.266 . S
In91 O98 2.326 . S
In91 O99 2.266 1_455 S
In91 O100 2.326 1_455 S
In91 O102 2.294 . S
In91 O103 2.326 . S
O92 In91 2.294 . S
O92 C101 1.240 . S
O93 In91 2.326 . S
O93 C101 1.252 . S
C94 O97 1.252 . S
C94 O98 1.260 . S
C95 O102 1.240 . S
C95 O103 1.252 . S
C96 O99 1.252 . S
C96 O100 1.260 . S
O97 In91 2.266 . S
O97 C94 1.252 . S
O98 In91 2.326 . S
O98 C94 1.260 . S
O99 In91 2.266 1_655 S
O99 C96 1.252 . S
O100 In91 2.326 1_655 S
O100 C96 1.260 . S
C101 O92 1.240 . S
C101 O93 1.252 . S
O102 In91 2.294 . S
O102 C95 1.240 . S
O103 In91 2.326 . S
O103 C95 1.252 . S
In104 O105 2.294 . S
In104 O106 2.326 . S
In104 O110 2.266 . S
In104 O111 2.326 . S
In104 O112 2.266 1_545 S
In104 O113 2.326 1_545 S
In104 O115 2.294 . S
In104 O116 2.326 . S
O105 In104 2.294 . S
O105 C114 1.240 . S
O106 In104 2.326 . S
O106 C114 1.252 . S
C107 O110 1.252 . S
C107 O111 1.260 . S
C108 O115 1.240 . S
C108 O116 1.252 . S
C109 O112 1.252 . S
C109 O113 1.260 . S
O110 In104 2.266 . S
O110 C107 1.252 . S
O111 In104 2.326 . S
O111 C107 1.260 . S
O112 In104 2.266 1_565 S
O112 C109 1.252 . S
O113 In104 2.326 1_565 S
O113 C109 1.260 . S
C114 O105 1.240 . S
C114 O106 1.252 . S
O115 In104 2.294 . S
O115 C108 1.240 . S
O116 In104 2.326 . S
O116 C108 1.252 . S
In117 O118 2.294 . S
In117 O119 2.326 . S
In117 O123 2.266 . S
In117 O124 2.326 . S
In117 O125 2.266 . S
In117 O126 2.326 . S
In117 O128 2.294 . S
In117 O129 2.326 . S
O118 In117 2.294 . S
O118 C127 1.240 . S
O119 In117 2.326 . S
O119 C127 1.252 . S
C120 O123 1.252 . S
C120 O124 1.260 . S
C121 O128 1.240 . S
C121 O129 1.252 . S
C122 O125 1.252 . S
C122 O126 1.260 . S
O123 In117 2.266 . S
O123 C120 1.252 . S
O124 In117 2.326 . S
O124 C120 1.260 . S
O125 In117 2.266 . S
O125 C122 1.252 . S
O126 In117 2.326 . S
O126 C122 1.260 . S
C127 O118 1.240 . S
C127 O119 1.252 . S
O128 In117 2.294 . S
O128 C121 1.240 . S
O129 In117 2.326 . S
O129 C121 1.252 . S
In130 O131 2.294 1_545 S
In130 O132 2.326 1_545 S
In130 O136 2.266 . S
In130 O137 2.326 . S
In130 O138 2.264 . S
In130 O139 2.322 . S
In130 O141 2.296 1_545 S
In130 O142 2.330 1_545 S
O131 In130 2.294 1_565 S
O131 C140 1.240 . S
O132 In130 2.326 1_565 S
O132 C140 1.252 . S
C133 O136 1.252 . S
C133 O137 1.260 . S
C134 O141 1.240 . S
C134 O142 1.252 . S
C135 O138 1.252 . S
C135 O139 1.260 . S
O136 In130 2.266 . S
O136 C133 1.252 . S
O137 In130 2.326 . S
O137 C133 1.260 . S
O138 In130 2.264 . S
O138 C135 1.252 . S
O139 In130 2.322 . S
O139 C135 1.260 . S
C140 O131 1.240 . S
C140 O132 1.252 . S
O141 In130 2.296 1_565 S
O141 C134 1.240 . S
O142 In130 2.330 1_565 S
O142 C134 1.252 . S
In143 O144 2.294 . S
In143 O145 2.326 . S
In143 O149 2.266 1_554 S
In143 O150 2.326 1_554 S
In143 O151 2.266 . S
In143 O152 2.326 . S
In143 O154 2.294 . S
In143 O155 2.326 . S
O144 In143 2.294 . S
O144 C153 1.240 . S
O145 In143 2.326 . S
O145 C153 1.252 . S
C146 O149 1.252 . S
C146 O150 1.260 . S
C147 O154 1.240 . S
C147 O155 1.252 . S
C148 O151 1.252 . S
C148 O152 1.260 . S
O149 In143 2.266 1_556 S
O149 C146 1.252 . S
O150 In143 2.326 1_556 S
O150 C146 1.260 . S
O151 In143 2.266 . S
O151 C148 1.252 . S
O152 In143 2.326 . S
O152 C148 1.260 . S
C153 O144 1.240 . S
C153 O145 1.252 . S
O154 In143 2.294 . S
O154 C147 1.240 . S
O155 In143 2.326 . S
O155 C147 1.252 . S
In156 O157 2.294 . S
In156 O158 2.326 . S
In156 O162 2.266 . S
In156 O163 2.274 1_554 S
In156 O164 2.266 . S
In156 O165 2.326 . S
In156 O167 2.294 . S
In156 O168 2.326 . S
O157 In156 2.294 . S
O157 C166 1.240 . S
O158 In156 2.326 . S
O158 C166 1.252 . S
C159 O162 1.252 1_556 S
C159 O163 1.266 . S
C160 O167 1.240 . S
C160 O168 1.252 . S
C161 O164 1.252 . S
C161 O165 1.260 . S
O162 In156 2.266 . S
O162 C159 1.252 1_554 S
O163 In156 2.274 1_556 S
O163 C159 1.266 . S
O164 In156 2.266 . S
O164 C161 1.252 . S
O165 In156 2.326 . S
O165 C161 1.260 . S
C166 O157 1.240 . S
C166 O158 1.252 . S
O167 In156 2.294 . S
O167 C160 1.240 . S
O168 In156 2.326 . S
O168 C160 1.252 . S
In169 O170 2.294 . S
In169 O171 2.326 . S
In169 O175 2.266 . S
In169 O176 2.326 . S
In169 O177 2.266 . S
In169 O178 2.326 1_554 S
In169 O180 2.294 . S
In169 O181 2.326 . S
O170 In169 2.294 . S
O170 C179 1.240 . S
O171 In169 2.326 . S
O171 C179 1.252 . S
C172 O175 1.252 . S
C172 O176 1.260 . S
C173 O180 1.240 . S
C173 O181 1.252 . S
C174 O177 1.252 1_556 S
C174 O178 1.260 . S
O175 In169 2.266 . S
O175 C172 1.252 . S
O176 In169 2.326 . S
O176 C172 1.260 . S
O177 In169 2.266 . S
O177 C174 1.252 1_554 S
O178 In169 2.326 1_556 S
O178 C174 1.260 . S
C179 O170 1.240 . S
C179 O171 1.252 . S
O180 In169 2.294 . S
O180 C173 1.240 . S
O181 In169 2.326 . S
O181 C173 1.252 . S
In182 O183 2.294 . S
In182 O184 2.326 . S
In182 O188 2.266 . S
In182 O189 2.326 . S
In182 O190 2.266 . S
In182 O191 2.326 . S
In182 O193 2.294 . S
In182 O194 2.326 . S
O183 In182 2.294 . S
O183 C192 1.240 . S
O184 In182 2.326 . S
O184 C192 1.252 . S
C185 O188 1.252 . S
C185 O189 1.260 . S
C186 O193 1.240 . S
C186 O194 1.252 . S
C187 O190 1.252 . S
C187 O191 1.260 . S
O188 In182 2.266 . S
O188 C185 1.252 . S
O189 In182 2.326 . S
O189 C185 1.260 . S
O190 In182 2.266 . S
O190 C187 1.252 . S
O191 In182 2.326 . S
O191 C187 1.260 . S
C192 O183 1.240 . S
C192 O184 1.252 . S
O193 In182 2.294 . S
O193 C186 1.240 . S
O194 In182 2.326 . S
O194 C186 1.252 . S
In195 O196 2.294 . S
In195 O197 2.326 . S
In195 O201 2.266 . S
In195 O202 2.326 . S
In195 O203 2.266 . S
In195 O204 2.326 . S
In195 O206 2.294 . S
In195 O207 2.326 . S
O196 In195 2.294 . S
O196 C205 1.240 . S
O197 In195 2.326 . S
O197 C205 1.252 . S
C198 O201 1.252 . S
C198 O202 1.260 . S
C199 O206 1.240 . S
C199 O207 1.252 . S
C200 O203 1.252 . S
C200 O204 1.260 . S
O201 In195 2.266 . S
O201 C198 1.252 . S
O202 In195 2.326 . S
O202 C198 1.260 . S
O203 In195 2.266 . S
O203 C200 1.252 . S
O204 In195 2.326 . S
O204 C200 1.260 . S
C205 O196 1.240 . S
C205 O197 1.252 . S
O206 In195 2.294 . S
O206 C199 1.240 . S
O207 In195 2.326 . S
O207 C199 1.252 . S
In208 O209 2.294 . S
In208 O210 2.326 . S
In208 O214 2.266 . S
In208 O215 2.326 . S
In208 O216 2.266 . S
In208 O217 2.326 . S
In208 O219 2.294 . S
In208 O220 2.326 . S
O209 In208 2.294 . S
O209 C218 1.240 . S
O210 In208 2.326 . S
O210 C218 1.252 . S
C211 O214 1.252 . S
C211 O215 1.260 . S
C212 O219 1.240 . S
C212 O220 1.252 . S
C213 O216 1.252 . S
C213 O217 1.260 . S
O214 In208 2.266 . S
O214 C211 1.252 . S
O215 In208 2.326 . S
O215 C211 1.260 . S
O216 In208 2.266 . S
O216 C213 1.252 . S
O217 In208 2.326 . S
O217 C213 1.260 . S
C218 O209 1.240 . S
C218 O210 1.252 . S
O219 In208 2.294 . S
O219 C212 1.240 . S
O220 In208 2.326 . S
O220 C212 1.252 . S
In221 O222 2.294 . S
In221 O223 2.326 . S
In221 O227 2.266 . S
In221 O228 2.326 . S
In221 O229 2.266 . S
In221 O230 2.326 . S
In221 O232 2.294 . S
In221 O233 2.326 . S
O222 In221 2.294 . S
O222 C231 1.240 . S
O223 In221 2.326 . S
O223 C231 1.252 . S
C224 O227 1.252 . S
C224 O228 1.260 . S
C225 O232 1.240 . S
C225 O233 1.252 . S
C226 O229 1.252 . S
C226 O230 1.260 . S
O227 In221 2.266 . S
O227 C224 1.252 . S
O228 In221 2.326 . S
O228 C224 1.260 . S
O229 In221 2.266 . S
O229 C226 1.252 . S
O230 In221 2.326 . S
O230 C226 1.260 . S
C231 O222 1.240 . S
C231 O223 1.252 . S
O232 In221 2.294 . S
O232 C225 1.240 . S
O233 In221 2.326 . S
O233 C225 1.252 . S
In234 O235 2.294 . S
In234 O236 2.326 . S
In234 O240 2.266 . S
In234 O241 2.326 . S
In234 O242 2.266 . S
In234 O243 2.326 . S
In234 O245 2.294 . S
In234 O246 2.326 . S
O235 In234 2.294 . S
O235 C244 1.240 . S
O236 In234 2.326 . S
O236 C244 1.252 . S
C237 O240 1.252 . S
C237 O241 1.260 . S
C238 O245 1.240 . S
C238 O246 1.252 . S
C239 O242 1.252 . S
C239 O243 1.260 . S
O240 In234 2.266 . S
O240 C237 1.252 . S
O241 In234 2.326 . S
O241 C237 1.260 . S
O242 In234 2.266 . S
O242 C239 1.252 . S
O243 In234 2.326 . S
O243 C239 1.260 . S
C244 O235 1.240 . S
C244 O236 1.252 . S
O245 In234 2.294 . S
O245 C238 1.240 . S
O246 In234 2.326 . S
O246 C238 1.252 . S
In247 O248 2.294 . S
In247 O249 2.326 . S
In247 O253 2.266 . S
In247 O254 2.326 . S
In247 O255 2.266 . S
In247 O256 2.326 . S
In247 O258 2.294 . S
In247 O259 2.326 . S
O248 In247 2.294 . S
O248 C257 1.240 . S
O249 In247 2.326 . S
O249 C257 1.252 . S
C250 O253 1.252 . S
C250 O254 1.260 . S
C251 O258 1.240 . S
C251 O259 1.252 . S
C252 O255 1.252 . S
C252 O256 1.260 . S
O253 In247 2.266 . S
O253 C250 1.252 . S
O254 In247 2.326 . S
O254 C250 1.260 . S
O255 In247 2.266 . S
O255 C252 1.252 . S
O256 In247 2.326 . S
O256 C252 1.260 . S
C257 O248 1.240 . S
C257 O249 1.252 . S
O258 In247 2.294 . S
O258 C251 1.240 . S
O259 In247 2.326 . S
O259 C251 1.252 . S
In260 O261 2.297 . S
In260 O262 2.327 . S
In260 O266 2.265 1_554 S
In260 O267 2.325 1_554 S
In260 O268 2.254 1_554 S
In260 O269 2.309 1_554 S
In260 O271 2.304 . S
In260 O272 2.343 . S
O261 In260 2.297 . S
O261 C270 1.240 . S
O262 In260 2.327 . S
O262 C270 1.252 . S
C263 O266 1.252 . S
C263 O267 1.260 . S
C264 O271 1.240 . S
C264 O272 1.252 . S
C265 O268 1.252 . S
C265 O269 1.260 . S
O266 In260 2.265 1_556 S
O266 C263 1.252 . S
O267 In260 2.325 1_556 S
O267 C263 1.260 . S
O268 In260 2.254 1_556 S
O268 C265 1.252 . S
O269 In260 2.309 1_556 S
O269 C265 1.260 . S
C270 O261 1.240 . S
C270 O262 1.252 . S
O271 In260 2.304 . S
O271 C264 1.240 . S
O272 In260 2.343 . S
O272 C264 1.252 . S
In273 O274 2.294 . S
In273 O275 2.326 . S
In273 O279 2.266 . S
In273 O280 2.326 . S
In273 O281 2.266 . S
In273 O282 2.326 . S
In273 O284 2.294 . S
In273 O285 2.326 . S
O274 In273 2.294 . S
O274 C283 1.240 . S
O275 In273 2.326 . S
O275 C283 1.252 . S
C276 O279 1.252 . S
C276 O280 1.260 . S
C277 O284 1.240 . S
C277 O285 1.252 . S
C278 O281 1.252 . S
C278 O282 1.260 . S
O279 In273 2.266 . S
O279 C276 1.252 . S
O280 In273 2.326 . S
O280 C276 1.260 . S
O281 In273 2.266 . S
O281 C278 1.252 . S
O282 In273 2.326 . S
O282 C278 1.260 . S
C283 O274 1.240 . S
C283 O275 1.252 . S
O284 In273 2.294 . S
O284 C277 1.240 . S
O285 In273 2.326 . S
O285 C277 1.252 . S
In286 O287 2.294 . S
In286 O288 2.326 . S
In286 O292 2.266 . S
In286 O293 2.326 . S
In286 O294 2.266 . S
In286 O295 2.326 . S
In286 O297 2.294 . S
In286 O298 2.326 . S
O287 In286 2.294 . S
O287 C296 1.240 . S
O288 In286 2.326 . S
O288 C296 1.252 . S
C289 O292 1.252 . S
C289 O293 1.260 . S
C290 O297 1.240 . S
C290 O298 1.252 . S
C291 O294 1.252 . S
C291 O295 1.260 . S
O292 In286 2.266 . S
O292 C289 1.252 . S
O293 In286 2.326 . S
O293 C289 1.260 . S
O294 In286 2.266 . S
O294 C291 1.252 . S
O295 In286 2.326 . S
O295 C291 1.260 . S
C296 O287 1.240 . S
C296 O288 1.252 . S
O297 In286 2.294 . S
O297 C290 1.240 . S
O298 In286 2.326 . S
O298 C290 1.252 . S
In299 O300 2.294 . S
In299 O301 2.326 . S
In299 O305 2.266 . S
In299 O306 2.326 . S
In299 O307 2.266 . S
In299 O308 2.326 . S
In299 O310 2.294 . S
In299 O311 2.326 . S
O300 In299 2.294 . S
O300 C309 1.240 . S
O301 In299 2.326 . S
O301 C309 1.252 . S
C302 O305 1.252 . S
C302 O306 1.260 . S
C303 O310 1.240 . S
C303 O311 1.252 . S
C304 O307 1.252 . S
C304 O308 1.260 . S
O305 In299 2.266 . S
O305 C302 1.252 . S
O306 In299 2.326 . S
O306 C302 1.260 . S
O307 In299 2.266 . S
O307 C304 1.252 . S
O308 In299 2.326 . S
O308 C304 1.260 . S
C309 O300 1.240 . S
C309 O301 1.252 . S
O310 In299 2.294 . S
O310 C303 1.240 . S
O311 In299 2.326 . S
O311 C303 1.252 . S
Eu312 N343 2.657 1_545 S
Eu312 N350 2.609 1_544 S
Eu312 O356 2.558 1_554 S
Eu312 O357 2.612 . S
Eu312 O359 2.339 . S
Eu312 O360 2.563 . S
Eu312 O361 2.419 1_455 S
Eu312 O363 2.380 . S
Eu312 O364 2.432 1_554 S
Eu312 C376 2.848 1_455 S
C313 C316 1.429 . S
C313 C317 1.411 . S
C313 N320 1.377 . S
C314 C316 1.420 . S
C314 C318 1.423 . S
C314 C326 1.392 . S
C315 C317 1.420 . S
C315 C318 1.351 . S
C315 H338 0.931 . S
C316 C313 1.429 . S
C316 C314 1.420 . S
C316 N324 1.362 . S
C317 C313 1.411 . S
C317 C315 1.420 . S
C317 C322 1.395 . S
C318 C314 1.423 . S
C318 C315 1.351 . S
C318 H330 0.930 . S
C319 C321 1.400 . S
C319 C322 1.386 . S
C319 H331 0.930 . S
N320 C313 1.377 . S
N320 C321 1.321 . S
N320 Eu323 2.609 . S
C321 C319 1.400 . S
C321 N320 1.321 . S
C321 H328 0.930 . S
C322 C317 1.395 . S
C322 C319 1.386 . S
C322 H341 0.930 . S
Eu323 N320 2.609 . S
Eu323 N324 2.657 . S
Eu323 O357 2.380 . S
Eu323 O358 2.432 . S
Eu323 O362 2.558 . S
Eu323 O363 2.612 . S
Eu323 O365 2.339 . S
Eu323 O366 2.563 . S
Eu323 O367 2.419 . S
Eu323 C387 2.848 . S
N324 C316 1.362 . S
N324 Eu323 2.657 . S
N324 C325 1.334 . S
C325 N324 1.334 . S
C325 C327 1.413 1_554 S
C325 H332 0.929 1_554 S
C326 C314 1.392 . S
C326 C327 1.367 1_554 S
C326 H334 0.930 . S
C327 C325 1.413 1_556 S
C327 C326 1.367 1_556 S
C327 H329 0.930 . S
H328 C321 0.930 . S
H329 C327 0.930 . S
H330 C318 0.930 . S
H331 C319 0.930 . S
H332 C325 0.929 1_556 S
H333 C347 0.930 . S
H334 C326 0.930 . S
H335 C353 0.930 1_545 S
H336 C344 0.929 1_545 S
H337 C351 0.930 . S
H338 C315 0.931 . S
H339 C345 0.924 1_655 S
H340 C378 0.930 . S
H341 C322 0.930 . S
H342 C377 0.931 . S
N343 Eu312 2.657 1_565 S
N343 C344 1.334 . S
N343 C348 1.362 . S
C344 H336 0.929 1_565 S
C344 N343 1.334 . S
C344 C347 1.413 . S
C345 H339 0.924 1_455 S
C345 C346 1.394 1_455 S
C345 C347 1.374 . S
C346 C345 1.394 1_655 S
C346 C348 1.415 1_655 S
C346 C378 1.427 . S
C347 H333 0.930 . S
C347 C344 1.413 . S
C347 C345 1.374 . S
C348 N343 1.362 . S
C348 C346 1.415 1_455 S
C348 C352 1.429 1_554 S
H349 C354 0.930 . S
N350 Eu312 2.609 1_566 S
N350 C352 1.377 . S
N350 C353 1.321 . S
C351 H337 0.930 . S
C351 C353 1.400 . S
C351 C354 1.386 1_455 S
C352 C348 1.429 1_556 S
C352 N350 1.377 . S
C352 C355 1.411 1_455 S
C353 H335 0.930 1_565 S
C353 N350 1.321 . S
C353 C351 1.400 . S
C354 H349 0.930 . S
C354 C351 1.386 1_655 S
C354 C355 1.395 . S
C355 C352 1.411 1_655 S
C355 C354 1.395 . S
C355 C377 1.420 . S
O356 Eu312 2.558 1_556 S
O356 C376 1.257 1_456 S
O357 Eu312 2.612 . S
O357 Eu323 2.380 . S
O357 C368 1.276 . S
O358 Eu323 2.432 . S
O358 C375 1.264 . S
O359 Eu312 2.339 . S
O359 C375 1.254 . S
O360 Eu312 2.563 . S
O360 C368 1.235 . S
O361 Eu312 2.419 1_655 S
O361 C376 1.249 . S
O362 Eu323 2.558 . S
O362 C387 1.257 . S
O363 Eu312 2.380 . S
O363 Eu323 2.612 . S
O363 C379 1.276 . S
O364 Eu312 2.432 1_556 S
O364 C386 1.264 . S
O365 Eu323 2.339 . S
O365 C386 1.254 1_554 S
O366 Eu323 2.563 . S
O366 C379 1.235 . S
O367 Eu323 2.419 . S
O367 C387 1.249 . S
C368 O357 1.276 . S
C368 O360 1.235 . S
C369 C371 1.387 1_556 S
C369 C373 1.402 . S
C369 C376 1.490 1_556 S
C370 C371 1.392 . S
C370 C372 1.386 1_554 S
C371 C369 1.387 1_554 S
C371 C370 1.392 . S
C371 H388 0.930 . S
C372 C370 1.386 1_556 S
C372 C374 1.395 . S
C372 H389 0.930 . S
C373 C369 1.402 . S
C373 C374 1.379 . S
C373 H390 0.930 . S
C374 C372 1.395 . S
C374 C373 1.379 . S
C374 H391 0.930 . S
C375 O358 1.264 . S
C375 O359 1.254 . S
C376 Eu312 2.848 1_655 S
C376 O356 1.257 1_654 S
C376 O361 1.249 . S
C376 C369 1.490 1_554 S
C377 H342 0.931 . S
C377 C355 1.420 . S
C377 C378 1.351 1_556 S
C378 H340 0.930 . S
C378 C346 1.427 . S
C378 C377 1.351 1_554 S
C379 O363 1.276 . S
C379 O366 1.235 . S
C380 C381 1.393 . S
C380 C384 1.395 . S
C380 C387 1.492 . S
C381 C380 1.393 . S
C381 C382 1.392 . S
C381 H392 0.930 . S
C382 C381 1.392 . S
C382 C383 1.386 . S
C383 C382 1.386 . S
C383 C385 1.395 . S
C383 H393 0.930 . S
C384 C380 1.395 . S
C384 C385 1.379 . S
C384 H394 0.930 . S
C385 C383 1.395 . S
C385 C384 1.379 . S
C385 H395 0.930 . S
C386 O364 1.264 . S
C386 O365 1.254 1_556 S
C387 Eu323 2.848 . S
C387 O362 1.257 . S
C387 O367 1.249 . S
C387 C380 1.492 . S
H388 C371 0.930 . S
H389 C372 0.930 . S
H390 C373 0.930 . S
H391 C374 0.930 . S
H392 C381 0.930 . S
H393 C383 0.930 . S
H394 C384 0.930 . S
H395 C385 0.930 . S
Eu396 N427 2.657 . S
Eu396 N434 2.609 . S
Eu396 O440 2.558 . S
Eu396 O441 2.612 . S
Eu396 O443 2.339 . S
Eu396 O444 2.563 . S
Eu396 O445 2.419 . S
Eu396 O447 2.380 . S
Eu396 O448 2.432 . S
Eu396 C460 2.848 . S
C397 C400 1.429 . S
C397 C401 1.411 . S
C397 N404 1.377 . S
C398 C400 1.420 . S
C398 C402 1.423 . S
C398 C410 1.392 . S
C399 C401 1.420 . S
C399 C402 1.351 . S
C399 H422 0.931 . S
C400 C397 1.429 . S
C400 C398 1.420 . S
C400 N408 1.362 . S
C401 C397 1.411 . S
C401 C399 1.420 . S
C401 C406 1.395 . S
C402 C398 1.423 . S
C402 C399 1.351 . S
C402 H414 0.930 . S
C403 C405 1.400 . S
C403 C406 1.386 . S
C403 H415 0.930 . S
N404 C397 1.377 . S
N404 C405 1.321 . S
N404 Eu407 2.609 . S
C405 C403 1.400 . S
C405 N404 1.321 . S
C405 H412 0.930 . S
C406 C401 1.395 . S
C406 C403 1.386 . S
C406 H425 0.930 . S
Eu407 N404 2.609 . S
Eu407 N408 2.657 . S
Eu407 O441 2.380 . S
Eu407 O442 2.432 . S
Eu407 O446 2.558 . S
Eu407 O447 2.612 . S
Eu407 O449 2.339 . S
Eu407 O450 2.563 . S
Eu407 O451 2.419 . S
Eu407 C471 2.848 . S
N408 C400 1.362 . S
N408 Eu407 2.657 . S
N408 C409 1.334 . S
C409 N408 1.334 . S
C409 C411 1.413 . S
C409 H416 0.929 . S
C410 C398 1.392 . S
C410 C411 1.367 . S
C410 H418 0.930 . S
C411 C409 1.413 . S
C411 C410 1.367 . S
C411 H413 0.930 . S
H412 C405 0.930 . S
H413 C411 0.930 . S
H414 C402 0.930 . S
H415 C403 0.930 . S
H416 C409 0.929 . S
H417 C431 0.930 . S
H418 C410 0.930 . S
H419 C437 0.930 . S
H420 C428 0.929 . S
H421 C435 0.930 . S
H422 C399 0.931 . S
H423 C429 0.930 . S
H424 C462 0.930 . S
H425 C406 0.930 . S
H426 C461 0.931 . S
N427 Eu396 2.657 . S
N427 C428 1.334 . S
N427 C432 1.362 . S
C428 H420 0.929 . S
C428 N427 1.334 . S
C428 C431 1.413 . S
C429 H423 0.930 . S
C429 C430 1.392 . S
C429 C431 1.367 . S
C430 C429 1.392 . S
C430 C432 1.420 . S
C430 C462 1.423 . S
C431 H417 0.930 . S
C431 C428 1.413 . S
C431 C429 1.367 . S
C432 N427 1.362 . S
C432 C430 1.420 . S
C432 C436 1.429 . S
H433 C438 0.930 . S
N434 Eu396 2.609 . S
N434 C436 1.377 . S
N434 C437 1.321 . S
C435 H421 0.930 . S
C435 C437 1.400 . S
C435 C438 1.386 . S
C436 C432 1.429 . S
C436 N434 1.377 . S
C436 C439 1.411 . S
C437 H419 0.930 . S
C437 N434 1.321 . S
C437 C435 1.400 . S
C438 H433 0.930 . S
C438 C435 1.386 . S
C438 C439 1.395 . S
C439 C436 1.411 . S
C439 C438 1.395 . S
C439 C461 1.420 . S
O440 Eu396 2.558 . S
O440 C460 1.257 . S
O441 Eu396 2.612 . S
O441 Eu407 2.380 . S
O441 C452 1.276 . S
O442 Eu407 2.432 . S
O442 C459 1.264 . S
O443 Eu396 2.339 . S
O443 C459 1.254 . S
O444 Eu396 2.563 . S
O444 C452 1.235 . S
O445 Eu396 2.419 . S
O445 C460 1.249 . S
O446 Eu407 2.558 . S
O446 C471 1.257 . S
O447 Eu396 2.380 . S
O447 Eu407 2.612 . S
O447 C463 1.276 . S
O448 Eu396 2.432 . S
O448 C470 1.264 . S
O449 Eu407 2.339 . S
O449 C470 1.254 . S
O450 Eu407 2.563 . S
O450 C463 1.235 . S
O451 Eu407 2.419 . S
O451 C471 1.249 . S
C452 O441 1.276 . S
C452 O444 1.235 . S
C453 C455 1.393 . S
C453 C457 1.395 . S
C453 C460 1.492 . S
C454 C455 1.392 . S
C454 C456 1.386 . S
C455 C453 1.393 . S
C455 C454 1.392 . S
C455 H472 0.930 . S
C456 C454 1.386 . S
C456 C458 1.395 . S
C456 H473 0.930 . S
C457 C453 1.395 . S
C457 C458 1.379 . S
C457 H474 0.930 . S
C458 C456 1.395 . S
C458 C457 1.379 . S
C458 H475 0.930 . S
C459 O442 1.264 . S
C459 O443 1.254 . S
C460 Eu396 2.848 . S
C460 O440 1.257 . S
C460 O445 1.249 . S
C460 C453 1.492 . S
C461 H426 0.931 . S
C461 C439 1.420 . S
C461 C462 1.351 . S
C462 H424 0.930 . S
C462 C430 1.423 . S
C462 C461 1.351 . S
C463 O447 1.276 . S
C463 O450 1.235 . S
C464 C465 1.393 . S
C464 C468 1.395 . S
C464 C471 1.492 . S
C465 C464 1.393 . S
C465 C466 1.392 . S
C465 H476 0.930 . S
C466 C465 1.392 . S
C466 C467 1.386 . S
C467 C466 1.386 . S
C467 C469 1.395 . S
C467 H477 0.930 . S
C468 C464 1.395 . S
C468 C469 1.379 . S
C468 H478 0.930 . S
C469 C467 1.395 . S
C469 C468 1.379 . S
C469 H479 0.930 . S
C470 O448 1.264 . S
C470 O449 1.254 . S
C471 Eu407 2.848 . S
C471 O446 1.257 . S
C471 O451 1.249 . S
C471 C464 1.492 . S
H472 C455 0.930 . S
H473 C456 0.930 . S
H474 C457 0.930 . S
H475 C458 0.930 . S
H476 C465 0.930 . S
H477 C467 0.930 . S
H478 C468 0.930 . S
H479 C469 0.930 . S
Eu480 N511 2.657 . S
Eu480 N518 2.609 . S
Eu480 O524 2.558 . S
Eu480 O525 2.612 1_545 S
Eu480 O527 2.339 . S
Eu480 O528 2.563 1_545 S
Eu480 O529 2.419 . S
Eu480 O531 2.380 . S
Eu480 O532 2.432 . S
Eu480 C544 2.848 . S
C481 C484 1.429 . S
C481 C485 1.411 . S
C481 N488 1.377 . S
C482 C484 1.420 . S
C482 C486 1.423 . S
C482 C494 1.392 . S
C483 C485 1.420 . S
C483 C486 1.351 . S
C483 H506 0.931 . S
C484 C481 1.429 . S
C484 C482 1.420 . S
C484 N492 1.362 . S
C485 C481 1.411 . S
C485 C483 1.420 . S
C485 C490 1.395 . S
C486 C482 1.423 . S
C486 C483 1.351 . S
C486 H498 0.930 . S
C487 C489 1.400 1_565 S
C487 C490 1.386 . S
C487 H499 0.930 . S
N488 C481 1.377 . S
N488 C489 1.321 1_565 S
N488 Eu491 2.609 1_565 S
C489 C487 1.400 1_545 S
C489 N488 1.321 1_545 S
C489 H496 0.930 . S
C490 C485 1.395 . S
C490 C487 1.386 . S
C490 H509 0.930 . S
Eu491 N488 2.609 1_545 S
Eu491 N492 2.657 1_545 S
Eu491 O525 2.380 1_545 S
Eu491 O526 2.432 . S
Eu491 O530 2.558 . S
Eu491 O531 2.612 . S
Eu491 O533 2.339 . S
Eu491 O534 2.563 . S
Eu491 O535 2.419 . S
Eu491 C555 2.848 . S
N492 C484 1.362 . S
N492 Eu491 2.657 1_565 S
N492 C493 1.334 . S
C493 N492 1.334 . S
C493 C495 1.413 . S
C493 H500 0.929 . S
C494 C482 1.392 . S
C494 C495 1.367 . S
C494 H502 0.930 . S
C495 C493 1.413 . S
C495 C494 1.367 . S
C495 H497 0.930 . S
H496 C489 0.930 . S
H497 C495 0.930 . S
H498 C486 0.930 . S
H499 C487 0.930 . S
H500 C493 0.929 . S
H501 C515 0.930 . S
H502 C494 0.930 . S
H503 C521 0.930 . S
H504 C512 0.929 . S
H505 C519 0.930 . S
H506 C483 0.931 . S
H507 C513 0.930 . S
H508 C546 0.930 . S
H509 C490 0.930 . S
H510 C545 0.931 . S
N511 Eu480 2.657 . S
N511 C512 1.334 . S
N511 C516 1.362 . S
C512 H504 0.929 . S
C512 N511 1.334 . S
C512 C515 1.413 . S
C513 H507 0.930 . S
C513 C514 1.392 . S
C513 C515 1.367 . S
C514 C513 1.392 . S
C514 C516 1.420 . S
C514 C546 1.423 . S
C515 H501 0.930 . S
C515 C512 1.413 . S
C515 C513 1.367 . S
C516 N511 1.362 . S
C516 C514 1.420 . S
C516 C520 1.429 . S
H517 C522 0.930 . S
N518 Eu480 2.609 . S
N518 C520 1.377 . S
N518 C521 1.321 . S
C519 H505 0.930 . S
C519 C521 1.400 . S
C519 C522 1.386 . S
C520 C516 1.429 . S
C520 N518 1.377 . S
C520 C523 1.411 . S
C521 H503 0.930 . S
C521 N518 1.321 . S
C521 C519 1.400 . S
C522 H517 0.930 . S
C522 C519 1.386 . S
C522 C523 1.395 . S
C523 C520 1.411 . S
C523 C522 1.395 . S
C523 C545 1.420 . S
O524 Eu480 2.558 . S
O524 C544 1.257 . S
O525 Eu480 2.612 1_565 S
O525 Eu491 2.380 1_565 S
O525 C536 1.276 . S
O526 Eu491 2.432 . S
O526 C543 1.264 . S
O527 Eu480 2.339 . S
O527 C543 1.254 . S
O528 Eu480 2.563 1_565 S
O528 C536 1.235 . S
O529 Eu480 2.419 . S
O529 C544 1.249 . S
O530 Eu491 2.558 . S
O530 C555 1.257 . S
O531 Eu480 2.380 . S
O531 Eu491 2.612 . S
O531 C547 1.276 . S
O532 Eu480 2.432 . S
O532 C554 1.264 . S
O533 Eu491 2.339 . S
O533 C554 1.254 . S
O534 Eu491 2.563 . S
O534 C547 1.235 . S
O535 Eu491 2.419 . S
O535 C555 1.249 . S
C536 O525 1.276 . S
C536 O528 1.235 . S
C537 C539 1.393 . S
C537 C541 1.395 . S
C537 C544 1.492 1_565 S
C538 C539 1.392 . S
C538 C540 1.386 . S
C539 C537 1.393 . S
C539 C538 1.392 . S
C539 H556 0.930 . S
C540 C538 1.386 . S
C540 C542 1.395 . S
C540 H557 0.930 . S
C541 C537 1.395 . S
C541 C542 1.379 . S
C541 H558 0.929 1_565 S
C542 C540 1.395 . S
C542 C541 1.379 . S
C542 H559 0.930 . S
C543 O526 1.264 . S
C543 O527 1.254 . S
C544 Eu480 2.848 . S
C544 O524 1.257 . S
C544 O529 1.249 . S
C544 C537 1.492 1_545 S
C545 H510 0.931 . S
C545 C523 1.420 . S
C545 C546 1.351 . S
C546 H508 0.930 . S
C546 C514 1.423 . S
C546 C545 1.351 . S
C547 O531 1.276 . S
C547 O534 1.235 . S
C548 C549 1.393 . S
C548 C552 1.395 . S
C548 C555 1.492 . S
C549 C548 1.393 . S
C549 C550 1.392 . S
C549 H560 0.930 . S
C550 C549 1.392 . S
C550 C551 1.386 . S
C551 C550 1.386 . S
C551 C553 1.395 . S
C551 H561 0.930 . S
C552 C548 1.395 . S
C552 C553 1.379 . S
C552 H562 0.930 . S
C553 C551 1.395 . S
C553 C552 1.379 . S
C553 H563 0.930 . S
C554 O532 1.264 . S
C554 O533 1.254 . S
C555 Eu491 2.848 . S
C555 O530 1.257 . S
C555 O535 1.249 . S
C555 C548 1.492 . S
H556 C539 0.930 . S
H557 C540 0.930 . S
H558 C541 0.929 1_545 S
H559 C542 0.930 . S
H560 C549 0.930 . S
H561 C551 0.930 . S
H562 C552 0.930 . S
H563 C553 0.930 . S
Eu564 N595 2.657 . S
Eu564 N602 2.609 . S
Eu564 O608 2.558 . S
Eu564 O609 2.612 . S
Eu564 O611 2.339 . S
Eu564 O612 2.563 . S
Eu564 O613 2.419 . S
Eu564 O615 2.380 . S
Eu564 O616 2.432 . S
Eu564 C628 2.848 . S
C565 C568 1.429 . S
C565 C569 1.411 . S
C565 N572 1.377 . S
C566 C568 1.420 . S
C566 C570 1.423 . S
C566 C578 1.392 . S
C567 C569 1.420 . S
C567 C570 1.351 . S
C567 H590 0.931 . S
C568 C565 1.429 . S
C568 C566 1.420 . S
C568 N576 1.362 . S
C569 C565 1.411 . S
C569 C567 1.420 . S
C569 C574 1.395 . S
C570 C566 1.423 . S
C570 C567 1.351 . S
C570 H582 0.930 . S
C571 C573 1.400 . S
C571 C574 1.386 . S
C571 H583 0.930 . S
N572 C565 1.377 . S
N572 C573 1.321 . S
N572 Eu575 2.609 . S
C573 C571 1.400 . S
C573 N572 1.321 . S
C573 H580 0.930 . S
C574 C569 1.395 . S
C574 C571 1.386 . S
C574 H593 0.930 . S
Eu575 N572 2.609 . S
Eu575 N576 2.657 . S
Eu575 O609 2.380 . S
Eu575 O610 2.432 . S
Eu575 O614 2.558 . S
Eu575 O615 2.612 . S
Eu575 O617 2.339 . S
Eu575 O618 2.563 . S
Eu575 O619 2.419 . S
Eu575 C639 2.848 . S
N576 C568 1.362 . S
N576 Eu575 2.657 . S
N576 C577 1.334 . S
C577 N576 1.334 . S
C577 C579 1.413 . S
C577 H584 0.929 . S
C578 C566 1.392 . S
C578 C579 1.367 . S
C578 H586 0.930 . S
C579 C577 1.413 . S
C579 C578 1.367 . S
C579 H581 0.930 . S
H580 C573 0.930 . S
H581 C579 0.930 . S
H582 C570 0.930 . S
H583 C571 0.930 . S
H584 C577 0.929 . S
H585 C599 0.930 . S
H586 C578 0.930 . S
H587 C605 0.930 . S
H588 C596 0.929 . S
H589 C603 0.930 . S
H590 C567 0.931 . S
H591 C597 0.930 . S
H592 C630 0.930 . S
H593 C574 0.930 . S
H594 C629 0.931 . S
N595 Eu564 2.657 . S
N595 C596 1.334 . S
N595 C600 1.362 . S
C596 H588 0.929 . S
C596 N595 1.334 . S
C596 C599 1.413 . S
C597 H591 0.930 . S
C597 C598 1.392 . S
C597 C599 1.367 . S
C598 C597 1.392 . S
C598 C600 1.420 . S
C598 C630 1.423 . S
C599 H585 0.930 . S
C599 C596 1.413 . S
C599 C597 1.367 . S
C600 N595 1.362 . S
C600 C598 1.420 . S
C600 C604 1.429 . S
H601 C606 0.930 . S
N602 Eu564 2.609 . S
N602 C604 1.377 . S
N602 C605 1.321 . S
C603 H589 0.930 . S
C603 C605 1.400 . S
C603 C606 1.386 . S
C604 C600 1.429 . S
C604 N602 1.377 . S
C604 C607 1.411 . S
C605 H587 0.930 . S
C605 N602 1.321 . S
C605 C603 1.400 . S
C606 H601 0.930 . S
C606 C603 1.386 . S
C606 C607 1.395 . S
C607 C604 1.411 . S
C607 C606 1.395 . S
C607 C629 1.420 . S
O608 Eu564 2.558 . S
O608 C628 1.257 . S
O609 Eu564 2.612 . S
O609 Eu575 2.380 . S
O609 C620 1.276 . S
O610 Eu575 2.432 . S
O610 C627 1.264 . S
O611 Eu564 2.339 . S
O611 C627 1.254 . S
O612 Eu564 2.563 . S
O612 C620 1.235 . S
O613 Eu564 2.419 . S
O613 C628 1.249 . S
O614 Eu575 2.558 . S
O614 C639 1.257 . S
O615 Eu564 2.380 . S
O615 Eu575 2.612 . S
O615 C631 1.276 . S
O616 Eu564 2.432 . S
O616 C638 1.264 . S
O617 Eu575 2.339 . S
O617 C638 1.254 . S
O618 Eu575 2.563 . S
O618 C631 1.235 . S
O619 Eu575 2.419 . S
O619 C639 1.249 . S
C620 O609 1.276 . S
C620 O612 1.235 . S
C621 C623 1.393 . S
C621 C625 1.395 . S
C621 C628 1.492 . S
C622 C623 1.392 . S
C622 C624 1.386 . S
C623 C621 1.393 . S
C623 C622 1.392 . S
C623 H640 0.930 . S
C624 C622 1.386 . S
C624 C626 1.395 . S
C624 H641 0.930 . S
C625 C621 1.395 . S
C625 C626 1.379 . S
C625 H642 0.930 . S
C626 C624 1.395 . S
C626 C625 1.379 . S
C626 H643 0.930 . S
C627 O610 1.264 . S
C627 O611 1.254 . S
C628 Eu564 2.848 . S
C628 O608 1.257 . S
C628 O613 1.249 . S
C628 C621 1.492 . S
C629 H594 0.931 . S
C629 C607 1.420 . S
C629 C630 1.351 . S
C630 H592 0.930 . S
C630 C598 1.423 . S
C630 C629 1.351 . S
C631 O615 1.276 . S
C631 O618 1.235 . S
C632 C633 1.393 . S
C632 C636 1.395 . S
C632 C639 1.492 . S
C633 C632 1.393 . S
C633 C634 1.392 . S
C633 H644 0.930 . S
C634 C633 1.392 . S
C634 C635 1.386 . S
C635 C634 1.386 . S
C635 C637 1.395 . S
C635 H645 0.930 . S
C636 C632 1.395 . S
C636 C637 1.379 . S
C636 H646 0.930 . S
C637 C635 1.395 . S
C637 C636 1.379 . S
C637 H647 0.930 . S
C638 O616 1.264 . S
C638 O617 1.254 . S
C639 Eu575 2.848 . S
C639 O614 1.257 . S
C639 O619 1.249 . S
C639 C632 1.492 . S
H640 C623 0.930 . S
H641 C624 0.930 . S
H642 C625 0.930 . S
H643 C626 0.930 . S
H644 C633 0.930 . S
H645 C635 0.930 . S
H646 C636 0.930 . S
H647 C637 0.930 . S
Eu648 N679 2.657 . S
Eu648 N686 2.609 . S
Eu648 O692 2.558 . S
Eu648 O693 2.612 . S
Eu648 O695 2.339 . S
Eu648 O696 2.563 . S
Eu648 O697 2.419 . S
Eu648 O699 2.380 . S
Eu648 O700 2.432 . S
Eu648 C712 2.848 . S
C649 C652 1.429 . S
C649 C653 1.411 . S
C649 N656 1.377 . S
C650 C652 1.420 . S
C650 C654 1.423 . S
C650 C662 1.392 . S
C651 C653 1.420 . S
C651 C654 1.351 . S
C651 H674 0.931 . S
C652 C649 1.429 . S
C652 C650 1.420 . S
C652 N660 1.362 . S
C653 C649 1.411 . S
C653 C651 1.420 . S
C653 C658 1.395 . S
C654 C650 1.423 . S
C654 C651 1.351 . S
C654 H666 0.930 . S
C655 C657 1.400 . S
C655 C658 1.386 . S
C655 H667 0.930 . S
N656 C649 1.377 . S
N656 C657 1.321 . S
N656 Eu659 2.609 . S
C657 C655 1.400 . S
C657 N656 1.321 . S
C657 H664 0.930 . S
C658 C653 1.395 . S
C658 C655 1.386 . S
C658 H677 0.930 . S
Eu659 N656 2.609 . S
Eu659 N660 2.657 . S
Eu659 O693 2.380 1_565 S
Eu659 O694 2.432 1_565 S
Eu659 O698 2.558 . S
Eu659 O699 2.612 1_565 S
Eu659 O701 2.339 . S
Eu659 O702 2.563 . S
Eu659 O703 2.419 . S
Eu659 C723 2.848 . S
N660 C652 1.362 . S
N660 Eu659 2.657 . S
N660 C661 1.334 . S
C661 N660 1.334 . S
C661 C663 1.413 . S
C661 H668 0.929 . S
C662 C650 1.392 . S
C662 C663 1.367 . S
C662 H670 0.930 . S
C663 C661 1.413 . S
C663 C662 1.367 . S
C663 H665 0.930 1_455 S
H664 C657 0.930 . S
H665 C663 0.930 1_655 S
H666 C654 0.930 . S
H667 C655 0.930 . S
H668 C661 0.929 . S
H669 C683 0.930 . S
H670 C662 0.930 . S
H671 C689 0.930 . S
H672 C680 0.929 . S
H673 C687 0.930 1_655 S
H674 C651 0.931 . S
H675 C681 0.930 . S
H676 C714 0.930 . S
H677 C658 0.930 . S
H678 C713 0.931 . S
N679 Eu648 2.657 . S
N679 C680 1.334 . S
N679 C684 1.362 . S
C680 H672 0.929 . S
C680 N679 1.334 . S
C680 C683 1.413 . S
C681 H675 0.930 . S
C681 C682 1.392 . S
C681 C683 1.367 . S
C682 C681 1.392 . S
C682 C684 1.420 . S
C682 C714 1.423 . S
C683 H669 0.930 . S
C683 C680 1.413 . S
C683 C681 1.367 . S
C684 N679 1.362 . S
C684 C682 1.420 . S
C684 C688 1.429 . S
H685 C690 0.930 . S
N686 Eu648 2.609 . S
N686 C688 1.377 . S
N686 C689 1.321 . S
C687 H673 0.930 1_455 S
C687 C689 1.400 . S
C687 C690 1.386 . S
C688 C684 1.429 . S
C688 N686 1.377 . S
C688 C691 1.411 . S
C689 H671 0.930 . S
C689 N686 1.321 . S
C689 C687 1.400 . S
C690 H685 0.930 . S
C690 C687 1.386 . S
C690 C691 1.395 . S
C691 C688 1.411 . S
C691 C690 1.395 . S
C691 C713 1.420 . S
O692 Eu648 2.558 . S
O692 C712 1.257 . S
O693 Eu648 2.612 . S
O693 Eu659 2.380 1_545 S
O693 C704 1.276 . S
O694 Eu659 2.432 1_545 S
O694 C711 1.264 . S
O695 Eu648 2.339 . S
O695 C711 1.254 . S
O696 Eu648 2.563 . S
O696 C704 1.235 . S
O697 Eu648 2.419 . S
O697 C712 1.249 . S
O698 Eu659 2.558 . S
O698 C723 1.257 . S
O699 Eu648 2.380 . S
O699 Eu659 2.612 1_545 S
O699 C715 1.276 . S
O700 Eu648 2.432 . S
O700 C722 1.264 . S
O701 Eu659 2.339 . S
O701 C722 1.254 1_565 S
O702 Eu659 2.563 . S
O702 C715 1.235 1_565 S
O703 Eu659 2.419 . S
O703 C723 1.249 . S
C704 O693 1.276 . S
C704 O696 1.235 . S
C705 C707 1.393 . S
C705 C709 1.395 . S
C705 C712 1.492 . S
C706 C707 1.392 . S
C706 C708 1.386 . S
C707 C705 1.393 . S
C707 C706 1.392 . S
C707 H724 0.930 . S
C708 C706 1.386 . S
C708 C710 1.395 . S
C708 H725 0.930 . S
C709 C705 1.395 . S
C709 C710 1.379 . S
C709 H726 0.930 . S
C710 C708 1.395 . S
C710 C709 1.379 . S
C710 H727 0.930 . S
C711 O694 1.264 . S
C711 O695 1.254 . S
C712 Eu648 2.848 . S
C712 O692 1.257 . S
C712 O697 1.249 . S
C712 C705 1.492 . S
C713 H678 0.931 . S
C713 C691 1.420 . S
C713 C714 1.351 . S
C714 H676 0.930 . S
C714 C682 1.423 . S
C714 C713 1.351 . S
C715 O699 1.276 . S
C715 O702 1.235 1_545 S
C716 C717 1.393 . S
C716 C720 1.395 . S
C716 C723 1.492 . S
C717 C716 1.393 . S
C717 C718 1.392 . S
C717 H728 0.930 . S
C718 C717 1.392 . S
C718 C719 1.386 . S
C719 C718 1.386 . S
C719 C721 1.395 . S
C719 H729 0.930 . S
C720 C716 1.395 . S
C720 C721 1.379 . S
C720 H730 0.930 . S
C721 C719 1.395 . S
C721 C720 1.379 . S
C721 H731 0.930 . S
C722 O700 1.264 . S
C722 O701 1.254 1_545 S
C723 Eu659 2.848 . S
C723 O698 1.257 . S
C723 O703 1.249 . S
C723 C716 1.492 . S
H724 C707 0.930 . S
H725 C708 0.930 . S
H726 C709 0.930 . S
H727 C710 0.930 . S
H728 C717 0.930 . S
H729 C719 0.930 . S
H730 C720 0.930 . S
H731 C721 0.930 . S
Eu732 N763 2.657 . S
Eu732 N770 2.609 . S
Eu732 O776 2.558 . S
Eu732 O777 2.612 . S
Eu732 O779 2.339 . S
Eu732 O780 2.563 . S
Eu732 O781 2.419 . S
Eu732 O783 2.380 . S
Eu732 O784 2.432 . S
Eu732 C796 2.848 . S
C733 C736 1.429 . S
C733 C737 1.411 . S
C733 N740 1.377 . S
C734 C736 1.420 . S
C734 C738 1.423 . S
C734 C746 1.392 . S
C735 C737 1.420 . S
C735 C738 1.351 . S
C735 H758 0.931 . S
C736 C733 1.429 . S
C736 C734 1.420 . S
C736 N744 1.362 . S
C737 C733 1.411 . S
C737 C735 1.420 . S
C737 C742 1.395 . S
C738 C734 1.423 . S
C738 C735 1.351 . S
C738 H750 0.930 . S
C739 C741 1.400 . S
C739 C742 1.386 . S
C739 H751 0.930 . S
N740 C733 1.377 . S
N740 C741 1.321 . S
N740 Eu743 2.609 . S
C741 C739 1.400 . S
C741 N740 1.321 . S
C741 H748 0.930 . S
C742 C737 1.395 . S
C742 C739 1.386 . S
C742 H761 0.930 . S
Eu743 N740 2.609 . S
Eu743 N744 2.657 . S
Eu743 O777 2.380 . S
Eu743 O778 2.432 . S
Eu743 O782 2.558 . S
Eu743 O783 2.612 . S
Eu743 O785 2.339 . S
Eu743 O786 2.563 . S
Eu743 O787 2.419 . S
Eu743 C807 2.848 . S
N744 C736 1.362 . S
N744 Eu743 2.657 . S
N744 C745 1.334 . S
C745 N744 1.334 . S
C745 C747 1.413 . S
C745 H752 0.929 . S
C746 C734 1.392 . S
C746 C747 1.367 . S
C746 H754 0.930 . S
C747 C745 1.413 . S
C747 C746 1.367 . S
C747 H749 0.930 . S
H748 C741 0.930 . S
H749 C747 0.930 . S
H750 C738 0.930 . S
H751 C739 0.930 . S
H752 C745 0.929 . S
H753 C767 0.930 . S
H754 C746 0.930 . S
H755 C773 0.930 . S
H756 C764 0.929 . S
H757 C771 0.930 . S
H758 C735 0.931 . S
H759 C765 0.930 . S
H760 C798 0.930 . S
H761 C742 0.930 . S
H762 C797 0.931 . S
N763 Eu732 2.657 . S
N763 C764 1.334 . S
N763 C768 1.362 . S
C764 H756 0.929 . S
C764 N763 1.334 . S
C764 C767 1.413 . S
C765 H759 0.930 . S
C765 C766 1.392 . S
C765 C767 1.367 . S
C766 C765 1.392 . S
C766 C768 1.420 . S
C766 C798 1.423 . S
C767 H753 0.930 . S
C767 C764 1.413 . S
C767 C765 1.367 . S
C768 N763 1.362 . S
C768 C766 1.420 . S
C768 C772 1.429 . S
H769 C774 0.930 . S
N770 Eu732 2.609 . S
N770 C772 1.377 . S
N770 C773 1.321 . S
C771 H757 0.930 . S
C771 C773 1.400 . S
C771 C774 1.386 . S
C772 C768 1.429 . S
C772 N770 1.377 . S
C772 C775 1.411 . S
C773 H755 0.930 . S
C773 N770 1.321 . S
C773 C771 1.400 . S
C774 H769 0.930 . S
C774 C771 1.386 . S
C774 C775 1.395 . S
C775 C772 1.411 . S
C775 C774 1.395 . S
C775 C797 1.420 . S
O776 Eu732 2.558 . S
O776 C796 1.257 . S
O777 Eu732 2.612 . S
O777 Eu743 2.380 . S
O777 C788 1.276 . S
O778 Eu743 2.432 . S
O778 C795 1.264 . S
O779 Eu732 2.339 . S
O779 C795 1.254 . S
O780 Eu732 2.563 . S
O780 C788 1.235 . S
O781 Eu732 2.419 . S
O781 C796 1.249 . S
O782 Eu743 2.558 . S
O782 C807 1.257 . S
O783 Eu732 2.380 . S
O783 Eu743 2.612 . S
O783 C799 1.276 . S
O784 Eu732 2.432 . S
O784 C806 1.264 . S
O785 Eu743 2.339 . S
O785 C806 1.254 . S
O786 Eu743 2.563 . S
O786 C799 1.235 . S
O787 Eu743 2.419 . S
O787 C807 1.249 . S
C788 O777 1.276 . S
C788 O780 1.235 . S
C789 C791 1.393 . S
C789 C793 1.395 . S
C789 C796 1.492 . S
C790 C791 1.392 . S
C790 C792 1.386 . S
C791 C789 1.393 . S
C791 C790 1.392 . S
C791 H808 0.930 . S
C792 C790 1.386 . S
C792 C794 1.395 . S
C792 H809 0.930 . S
C793 C789 1.395 . S
C793 C794 1.379 . S
C793 H810 0.930 . S
C794 C792 1.395 . S
C794 C793 1.379 . S
C794 H811 0.930 . S
C795 O778 1.264 . S
C795 O779 1.254 . S
C796 Eu732 2.848 . S
C796 O776 1.257 . S
C796 O781 1.249 . S
C796 C789 1.492 . S
C797 H762 0.931 . S
C797 C775 1.420 . S
C797 C798 1.351 . S
C798 H760 0.930 . S
C798 C766 1.423 . S
C798 C797 1.351 . S
C799 O783 1.276 . S
C799 O786 1.235 . S
C800 C801 1.393 . S
C800 C804 1.395 . S
C800 C807 1.492 . S
C801 C800 1.393 . S
C801 C802 1.392 . S
C801 H812 0.930 . S
C802 C801 1.392 . S
C802 C803 1.386 . S
C803 C802 1.386 . S
C803 C805 1.395 . S
C803 H813 0.930 . S
C804 C800 1.395 . S
C804 C805 1.379 . S
C804 H814 0.930 . S
C805 C803 1.395 . S
C805 C804 1.379 . S
C805 H815 0.930 . S
C806 O784 1.264 . S
C806 O785 1.254 . S
C807 Eu743 2.848 . S
C807 O782 1.257 . S
C807 O787 1.249 . S
C807 C800 1.492 . S
H808 C791 0.930 . S
H809 C792 0.930 . S
H810 C793 0.930 . S
H811 C794 0.930 . S
H812 C801 0.930 . S
H813 C803 0.930 . S
H814 C804 0.930 . S
H815 C805 0.930 . S
Eu816 N847 2.657 . S
Eu816 N854 2.609 . S
Eu816 O860 2.558 . S
Eu816 O861 2.612 . S
Eu816 O863 2.339 . S
Eu816 O864 2.563 . S
Eu816 O865 2.419 . S
Eu816 O867 2.380 . S
Eu816 O868 2.432 . S
Eu816 C880 2.848 . S
C817 C820 1.429 . S
C817 C821 1.411 . S
C817 N824 1.377 . S
C818 C820 1.420 . S
C818 C822 1.423 . S
C818 C830 1.392 1_545 S
C819 C821 1.420 . S
C819 C822 1.351 . S
C819 H842 0.931 . S
C820 C817 1.429 . S
C820 C818 1.420 . S
C820 N828 1.362 . S
C821 C817 1.411 . S
C821 C819 1.420 . S
C821 C826 1.395 . S
C822 C818 1.423 . S
C822 C819 1.351 . S
C822 H834 0.930 . S
C823 C825 1.400 . S
C823 C826 1.386 . S
C823 H835 0.930 . S
N824 C817 1.377 . S
N824 C825 1.321 . S
N824 Eu827 2.609 . S
C825 C823 1.400 . S
C825 N824 1.321 . S
C825 H832 0.930 . S
C826 C821 1.395 . S
C826 C823 1.386 . S
C826 H845 0.930 . S
Eu827 N824 2.609 . S
Eu827 N828 2.657 . S
Eu827 O861 2.380 1_556 S
Eu827 O862 2.432 1_556 S
Eu827 O866 2.558 . S
Eu827 O867 2.612 1_556 S
Eu827 O869 2.339 . S
Eu827 O870 2.563 . S
Eu827 O871 2.419 . S
Eu827 C891 2.848 . S
N828 C820 1.362 . S
N828 Eu827 2.657 . S
N828 C829 1.334 . S
C829 N828 1.334 . S
C829 C831 1.413 1_545 S
C829 H836 0.929 1_545 S
C830 C818 1.392 1_565 S
C830 C831 1.367 . S
C830 H838 0.930 . S
C831 C829 1.413 1_565 S
C831 C830 1.367 . S
C831 H833 0.930 . S
H832 C825 0.930 . S
H833 C831 0.930 . S
H834 C822 0.930 . S
H835 C823 0.930 . S
H836 C829 0.929 1_565 S
H837 C851 0.930 . S
H838 C830 0.930 . S
H839 C857 0.930 . S
H840 C848 0.929 . S
H841 C855 0.930 . S
H842 C819 0.931 . S
H843 C849 0.930 . S
H844 C882 0.930 . S
H845 C826 0.930 . S
H846 C881 0.931 . S
N847 Eu816 2.657 . S
N847 C848 1.334 . S
N847 C852 1.362 . S
C848 H840 0.929 . S
C848 N847 1.334 . S
C848 C851 1.413 . S
C849 H843 0.930 . S
C849 C850 1.392 . S
C849 C851 1.367 . S
C850 C849 1.392 . S
C850 C852 1.420 . S
C850 C882 1.423 . S
C851 H837 0.930 . S
C851 C848 1.413 . S
C851 C849 1.367 . S
C852 N847 1.362 . S
C852 C850 1.420 . S
C852 C856 1.429 . S
H853 C858 0.930 . S
N854 Eu816 2.609 . S
N854 C856 1.377 . S
N854 C857 1.321 1_545 S
C855 H841 0.930 . S
C855 C857 1.400 . S
C855 C858 1.386 . S
C856 C852 1.429 . S
C856 N854 1.377 . S
C856 C859 1.411 . S
C857 H839 0.930 . S
C857 N854 1.321 1_565 S
C857 C855 1.400 . S
C858 H853 0.930 . S
C858 C855 1.386 . S
C858 C859 1.395 1_565 S
C859 C856 1.411 . S
C859 C858 1.395 1_545 S
C859 C881 1.420 . S
O860 Eu816 2.558 . S
O860 C880 1.257 . S
O861 Eu816 2.612 . S
O861 Eu827 2.380 1_554 S
O861 C872 1.276 . S
O862 Eu827 2.432 1_554 S
O862 C879 1.264 . S
O863 Eu816 2.339 . S
O863 C879 1.254 . S
O864 Eu816 2.563 . S
O864 C872 1.235 . S
O865 Eu816 2.419 . S
O865 C880 1.249 . S
O866 Eu827 2.558 . S
O866 C891 1.257 . S
O867 Eu816 2.380 . S
O867 Eu827 2.612 1_554 S
O867 C883 1.276 . S
O868 Eu816 2.432 . S
O868 C890 1.264 1_554 S
O869 Eu827 2.339 . S
O869 C890 1.254 . S
O870 Eu827 2.563 . S
O870 C883 1.235 1_556 S
O871 Eu827 2.419 . S
O871 C891 1.249 . S
C872 O861 1.276 . S
C872 O864 1.235 . S
C873 C875 1.393 . S
C873 C877 1.395 1_545 S
C873 C880 1.492 . S
C874 C875 1.392 . S
C874 C876 1.395 . S
C875 C873 1.393 . S
C875 C874 1.392 . S
C875 H892 0.930 . S
C876 C874 1.395 . S
C876 C878 1.388 1_545 S
C876 H893 0.927 1_545 S
C877 C873 1.395 1_565 S
C877 C878 1.379 . S
C877 H894 0.930 . S
C878 C876 1.388 1_565 S
C878 C877 1.379 . S
C878 H895 0.930 . S
C879 O862 1.264 . S
C879 O863 1.254 . S
C880 Eu816 2.848 . S
C880 O860 1.257 . S
C880 O865 1.249 . S
C880 C873 1.492 . S
C881 H846 0.931 . S
C881 C859 1.420 . S
C881 C882 1.351 . S
C882 H844 0.930 . S
C882 C850 1.423 . S
C882 C881 1.351 . S
C883 O867 1.276 . S
C883 O870 1.235 1_554 S
C884 C885 1.393 . S
C884 C888 1.395 . S
C884 C891 1.492 . S
C885 C884 1.393 . S
C885 C886 1.392 . S
C885 H896 0.930 . S
C886 C885 1.392 . S
C886 C887 1.386 . S
C887 C886 1.386 . S
C887 C889 1.395 . S
C887 H897 0.930 . S
C888 C884 1.395 . S
C888 C889 1.379 . S
C888 H898 0.930 . S
C889 C887 1.395 . S
C889 C888 1.379 . S
C889 H899 0.930 . S
C890 O868 1.264 1_556 S
C890 O869 1.254 . S
C891 Eu827 2.848 . S
C891 O866 1.257 . S
C891 O871 1.249 . S
C891 C884 1.492 . S
H892 C875 0.930 . S
H893 C876 0.927 1_565 S
H894 C877 0.930 . S
H895 C878 0.930 . S
H896 C885 0.930 . S
H897 C887 0.930 . S
H898 C888 0.930 . S
H899 C889 0.930 . S
Eu900 N931 2.657 . S
Eu900 N938 2.609 . S
Eu900 O944 2.558 . S
Eu900 O945 2.612 . S
Eu900 O947 2.339 . S
Eu900 O948 2.563 . S
Eu900 O949 2.419 . S
Eu900 O951 2.380 . S
Eu900 O952 2.432 . S
Eu900 C964 2.848 . S
C901 C904 1.429 . S
C901 C905 1.411 . S
C901 N908 1.377 . S
C902 C904 1.420 . S
C902 C906 1.423 . S
C902 C914 1.392 . S
C903 C905 1.420 . S
C903 C906 1.351 . S
C903 H926 0.931 . S
C904 C901 1.429 . S
C904 C902 1.420 . S
C904 N912 1.362 . S
C905 C901 1.411 . S
C905 C903 1.420 . S
C905 C910 1.395 . S
C906 C902 1.423 . S
C906 C903 1.351 . S
C906 H918 0.930 . S
C907 C909 1.400 . S
C907 C910 1.386 . S
C907 H919 0.930 . S
N908 C901 1.377 . S
N908 C909 1.321 . S
N908 Eu911 2.609 . S
C909 C907 1.400 . S
C909 N908 1.321 . S
C909 H916 0.930 . S
C910 C905 1.395 . S
C910 C907 1.386 . S
C910 H929 0.930 . S
Eu911 N908 2.609 . S
Eu911 N912 2.657 . S
Eu911 O945 2.380 . S
Eu911 O946 2.432 . S
Eu911 O950 2.558 . S
Eu911 O951 2.612 . S
Eu911 O953 2.339 . S
Eu911 O954 2.563 . S
Eu911 O955 2.419 . S
Eu911 C975 2.848 . S
N912 C904 1.362 . S
N912 Eu911 2.657 . S
N912 C913 1.334 . S
C913 N912 1.334 . S
C913 C915 1.413 . S
C913 H920 0.929 . S
C914 C902 1.392 . S
C914 C915 1.367 . S
C914 H922 0.930 . S
C915 C913 1.413 . S
C915 C914 1.367 . S
C915 H917 0.930 . S
H916 C909 0.930 . S
H917 C915 0.930 . S
H918 C906 0.930 . S
H919 C907 0.930 . S
H920 C913 0.929 . S
H921 C935 0.930 . S
H922 C914 0.930 . S
H923 C941 0.930 . S
H924 C932 0.929 . S
H925 C939 0.930 . S
H926 C903 0.931 . S
H927 C933 0.930 . S
H928 C966 0.930 . S
H929 C910 0.930 . S
H930 C965 0.931 . S
N931 Eu900 2.657 . S
N931 C932 1.334 . S
N931 C936 1.362 . S
C932 H924 0.929 . S
C932 N931 1.334 . S
C932 C935 1.413 . S
C933 H927 0.930 . S
C933 C934 1.392 . S
C933 C935 1.367 . S
C934 C933 1.392 . S
C934 C936 1.420 . S
C934 C966 1.423 . S
C935 H921 0.930 . S
C935 C932 1.413 . S
C935 C933 1.367 . S
C936 N931 1.362 . S
C936 C934 1.420 . S
C936 C940 1.429 . S
H937 C942 0.930 . S
N938 Eu900 2.609 . S
N938 C940 1.377 . S
N938 C941 1.321 . S
C939 H925 0.930 . S
C939 C941 1.400 . S
C939 C942 1.386 . S
C940 C936 1.429 . S
C940 N938 1.377 . S
C940 C943 1.411 . S
C941 H923 0.930 . S
C941 N938 1.321 . S
C941 C939 1.400 . S
C942 H937 0.930 . S
C942 C939 1.386 . S
C942 C943 1.395 . S
C943 C940 1.411 . S
C943 C942 1.395 . S
C943 C965 1.420 . S
O944 Eu900 2.558 . S
O944 C964 1.257 . S
O945 Eu900 2.612 . S
O945 Eu911 2.380 . S
O945 C956 1.276 . S
O946 Eu911 2.432 . S
O946 C963 1.264 . S
O947 Eu900 2.339 . S
O947 C963 1.254 . S
O948 Eu900 2.563 . S
O948 C956 1.235 . S
O949 Eu900 2.419 . S
O949 C964 1.249 . S
O950 Eu911 2.558 . S
O950 C975 1.257 . S
O951 Eu900 2.380 . S
O951 Eu911 2.612 . S
O951 C967 1.276 . S
O952 Eu900 2.432 . S
O952 C974 1.264 . S
O953 Eu911 2.339 . S
O953 C974 1.254 . S
O954 Eu911 2.563 . S
O954 C967 1.235 . S
O955 Eu911 2.419 . S
O955 C975 1.249 . S
C956 O945 1.276 . S
C956 O948 1.235 . S
C957 C959 1.393 . S
C957 C961 1.395 . S
C957 C964 1.492 . S
C958 C959 1.392 . S
C958 C960 1.386 . S
C959 C957 1.393 . S
C959 C958 1.392 . S
C959 H976 0.930 . S
C960 C958 1.386 . S
C960 C962 1.395 . S
C960 H977 0.930 . S
C961 C957 1.395 . S
C961 C962 1.379 . S
C961 H978 0.930 . S
C962 C960 1.395 . S
C962 C961 1.379 . S
C962 H979 0.930 . S
C963 O946 1.264 . S
C963 O947 1.254 . S
C964 Eu900 2.848 . S
C964 O944 1.257 . S
C964 O949 1.249 . S
C964 C957 1.492 . S
C965 H930 0.931 . S
C965 C943 1.420 . S
C965 C966 1.351 . S
C966 H928 0.930 . S
C966 C934 1.423 . S
C966 C965 1.351 . S
C967 O951 1.276 . S
C967 O954 1.235 . S
C968 C969 1.393 . S
C968 C972 1.395 . S
C968 C975 1.492 . S
C969 C968 1.393 . S
C969 C970 1.392 . S
C969 H980 0.930 . S
C970 C969 1.392 . S
C970 C971 1.386 . S
C971 C970 1.386 . S
C971 C973 1.395 . S
C971 H981 0.930 . S
C972 C968 1.395 . S
C972 C973 1.379 . S
C972 H982 0.930 . S
C973 C971 1.395 . S
C973 C972 1.379 . S
C973 H983 0.930 . S
C974 O952 1.264 . S
C974 O953 1.254 . S
C975 Eu911 2.848 . S
C975 O950 1.257 . S
C975 O955 1.249 . S
C975 C968 1.492 . S
H976 C959 0.930 . S
H977 C960 0.930 . S
H978 C961 0.930 . S
H979 C962 0.930 . S
H980 C969 0.930 . S
H981 C971 0.930 . S
H982 C972 0.930 . S
H983 C973 0.930 . S
Eu984 N1015 2.657 . S
Eu984 N1022 2.609 . S
Eu984 O1028 2.558 . S
Eu984 O1029 2.612 1_554 S
Eu984 O1031 2.339 . S
Eu984 O1032 2.563 1_554 S
Eu984 O1033 2.419 . S
Eu984 O1035 2.380 . S
Eu984 O1036 2.432 . S
Eu984 C1048 2.848 . S
C985 C988 1.429 . S
C985 C989 1.411 . S
C985 N992 1.377 . S
C986 C988 1.420 . S
C986 C990 1.423 . S
C986 C998 1.392 . S
C987 C989 1.420 . S
C987 C990 1.351 . S
C987 H1010 0.931 . S
C988 C985 1.429 . S
C988 C986 1.420 . S
C988 N996 1.362 . S
C989 C985 1.411 . S
C989 C987 1.420 . S
C989 C994 1.395 . S
C990 C986 1.423 . S
C990 C987 1.351 . S
C990 H1002 0.930 . S
C991 C993 1.400 . S
C991 C994 1.386 . S
C991 H1003 0.930 . S
N992 C985 1.377 . S
N992 C993 1.321 . S
N992 Eu995 2.609 1_556 S
C993 C991 1.400 . S
C993 N992 1.321 . S
C993 H1000 0.930 . S
C994 C989 1.395 . S
C994 C991 1.386 . S
C994 H1013 0.930 . S
Eu995 N992 2.609 1_554 S
Eu995 N996 2.657 1_554 S
Eu995 O1029 2.380 1_554 S
Eu995 O1030 2.432 . S
Eu995 O1034 2.558 . S
Eu995 O1035 2.612 . S
Eu995 O1037 2.339 . S
Eu995 O1038 2.563 . S
Eu995 O1039 2.419 . S
Eu995 C1059 2.848 . S
N996 C988 1.362 . S
N996 Eu995 2.657 1_556 S
N996 C997 1.334 . S
C997 N996 1.334 . S
C997 C999 1.413 . S
C997 H1004 0.929 . S
C998 C986 1.392 . S
C998 C999 1.367 . S
C998 H1006 0.930 . S
C999 C997 1.413 . S
C999 C998 1.367 . S
C999 H1001 0.930 . S
H1000 C993 0.930 . S
H1001 C999 0.930 . S
H1002 C990 0.930 . S
H1003 C991 0.930 . S
H1004 C997 0.929 . S
H1005 C1019 0.930 . S
H1006 C998 0.930 . S
H1007 C1025 0.930 . S
H1008 C1016 0.929 . S
H1009 C1023 0.930 . S
H1010 C987 0.931 . S
H1011 C1017 0.930 . S
H1012 C1050 0.930 . S
H1013 C994 0.930 . S
H1014 C1049 0.931 . S
N1015 Eu984 2.657 . S
N1015 C1016 1.334 . S
N1015 C1020 1.362 . S
C1016 H1008 0.929 . S
C1016 N1015 1.334 . S
C1016 C1019 1.413 . S
C1017 H1011 0.930 . S
C1017 C1018 1.392 . S
C1017 C1019 1.367 . S
C1018 C1017 1.392 . S
C1018 C1020 1.420 . S
C1018 C1050 1.423 . S
C1019 H1005 0.930 . S
C1019 C1016 1.413 . S
C1019 C1017 1.367 . S
C1020 N1015 1.362 . S
C1020 C1018 1.420 . S
C1020 C1024 1.429 . S
H1021 C1026 0.930 . S
N1022 Eu984 2.609 . S
N1022 C1024 1.377 . S
N1022 C1025 1.321 . S
C1023 H1009 0.930 . S
C1023 C1025 1.400 . S
C1023 C1026 1.386 . S
C1024 C1020 1.429 . S
C1024 N1022 1.377 . S
C1024 C1027 1.411 . S
C1025 H1007 0.930 . S
C1025 N1022 1.321 . S
C1025 C1023 1.400 . S
C1026 H1021 0.930 . S
C1026 C1023 1.386 . S
C1026 C1027 1.395 . S
C1027 C1024 1.411 . S
C1027 C1026 1.395 . S
C1027 C1049 1.420 . S
O1028 Eu984 2.558 . S
O1028 C1048 1.257 . S
O1029 Eu984 2.612 1_556 S
O1029 Eu995 2.380 1_556 S
O1029 C1040 1.276 . S
O1030 Eu995 2.432 . S
O1030 C1047 1.264 . S
O1031 Eu984 2.339 . S
O1031 C1047 1.254 . S
O1032 Eu984 2.563 1_556 S
O1032 C1040 1.235 . S
O1033 Eu984 2.419 . S
O1033 C1048 1.249 . S
O1034 Eu995 2.558 . S
O1034 C1059 1.257 . S
O1035 Eu984 2.380 . S
O1035 Eu995 2.612 . S
O1035 C1051 1.276 . S
O1036 Eu984 2.432 . S
O1036 C1058 1.264 . S
O1037 Eu995 2.339 . S
O1037 C1058 1.254 . S
O1038 Eu995 2.563 . S
O1038 C1051 1.235 . S
O1039 Eu995 2.419 . S
O1039 C1059 1.249 . S
C1040 O1029 1.276 . S
C1040 O1032 1.235 . S
C1041 C1043 1.393 1_554 S
C1041 C1045 1.395 . S
C1041 C1048 1.492 . S
C1042 C1043 1.392 . S
C1042 C1044 1.386 . S
C1043 C1041 1.393 1_556 S
C1043 C1042 1.392 . S
C1043 H1060 0.930 . S
C1044 C1042 1.386 . S
C1044 C1046 1.395 1_556 S
C1044 H1061 0.930 . S
C1045 C1041 1.395 . S
C1045 C1046 1.379 . S
C1045 H1062 0.930 . S
C1046 C1044 1.395 1_554 S
C1046 C1045 1.379 . S
C1046 H1063 0.930 . S
C1047 O1030 1.264 . S
C1047 O1031 1.254 . S
C1048 Eu984 2.848 . S
C1048 O1028 1.257 . S
C1048 O1033 1.249 . S
C1048 C1041 1.492 . S
C1049 H1014 0.931 . S
C1049 C1027 1.420 . S
C1049 C1050 1.351 . S
C1050 H1012 0.930 . S
C1050 C1018 1.423 . S
C1050 C1049 1.351 . S
C1051 O1035 1.276 . S
C1051 O1038 1.235 . S
C1052 C1053 1.393 . S
C1052 C1056 1.395 . S
C1052 C1059 1.492 . S
C1053 C1052 1.393 . S
C1053 C1054 1.392 . S
C1053 H1064 0.930 . S
C1054 C1053 1.392 . S
C1054 C1055 1.386 . S
C1055 C1054 1.386 . S
C1055 C1057 1.395 . S
C1055 H1065 0.930 . S
C1056 C1052 1.395 . S
C1056 C1057 1.379 . S
C1056 H1066 0.911 1_554 S
C1057 C1055 1.395 . S
C1057 C1056 1.379 . S
C1057 H1067 0.930 . S
C1058 O1036 1.264 . S
C1058 O1037 1.254 . S
C1059 Eu995 2.848 . S
C1059 O1034 1.257 . S
C1059 O1039 1.249 . S
C1059 C1052 1.492 . S
H1060 C1043 0.930 . S
H1061 C1044 0.930 . S
H1062 C1045 0.930 . S
H1063 C1046 0.930 . S
H1064 C1053 0.930 . S
H1065 C1055 0.930 . S
H1066 C1056 0.911 1_556 S
H1067 C1057 0.930 . S
Eu1068 N1099 2.657 . S
Eu1068 N1106 2.609 . S
Eu1068 O1112 2.558 . S
Eu1068 O1113 2.612 . S
Eu1068 O1115 2.339 . S
Eu1068 O1116 2.563 . S
Eu1068 O1117 2.419 . S
Eu1068 O1119 2.380 . S
Eu1068 O1120 2.432 . S
Eu1068 C1132 2.848 . S
C1069 C1072 1.429 . S
C1069 C1073 1.411 . S
C1069 N1076 1.377 . S
C1070 C1072 1.420 . S
C1070 C1074 1.423 . S
C1070 C1082 1.392 . S
C1071 C1073 1.420 . S
C1071 C1074 1.351 . S
C1071 H1094 0.931 . S
C1072 C1069 1.429 . S
C1072 C1070 1.420 . S
C1072 N1080 1.362 . S
C1073 C1069 1.411 . S
C1073 C1071 1.420 . S
C1073 C1078 1.395 . S
C1074 C1070 1.423 . S
C1074 C1071 1.351 . S
C1074 H1086 0.930 . S
C1075 C1077 1.400 . S
C1075 C1078 1.386 . S
C1075 H1087 0.930 . S
N1076 C1069 1.377 . S
N1076 C1077 1.321 . S
N1076 Eu1079 2.609 . S
C1077 C1075 1.400 . S
C1077 N1076 1.321 . S
C1077 H1084 0.930 . S
C1078 C1073 1.395 . S
C1078 C1075 1.386 . S
C1078 H1097 0.930 . S
Eu1079 N1076 2.609 . S
Eu1079 N1080 2.657 . S
Eu1079 O1113 2.380 . S
Eu1079 O1114 2.432 . S
Eu1079 O1118 2.558 . S
Eu1079 O1119 2.612 . S
Eu1079 O1121 2.339 . S
Eu1079 O1122 2.563 . S
Eu1079 O1123 2.419 . S
Eu1079 C1143 2.848 . S
N1080 C1072 1.362 . S
N1080 Eu1079 2.657 . S
N1080 C1081 1.334 . S
C1081 N1080 1.334 . S
C1081 C1083 1.413 . S
C1081 H1088 0.929 . S
C1082 C1070 1.392 . S
C1082 C1083 1.367 . S
C1082 H1090 0.930 . S
C1083 C1081 1.413 . S
C1083 C1082 1.367 . S
C1083 H1085 0.930 . S
H1084 C1077 0.930 . S
H1085 C1083 0.930 . S
H1086 C1074 0.930 . S
H1087 C1075 0.930 . S
H1088 C1081 0.929 . S
H1089 C1103 0.930 . S
H1090 C1082 0.930 . S
H1091 C1109 0.930 . S
H1092 C1100 0.929 . S
H1093 C1107 0.930 . S
H1094 C1071 0.931 . S
H1095 C1101 0.930 . S
H1096 C1134 0.930 . S
H1097 C1078 0.930 . S
H1098 C1133 0.931 . S
N1099 Eu1068 2.657 . S
N1099 C1100 1.334 . S
N1099 C1104 1.362 . S
C1100 H1092 0.929 . S
C1100 N1099 1.334 . S
C1100 C1103 1.413 . S
C1101 H1095 0.930 . S
C1101 C1102 1.392 . S
C1101 C1103 1.367 . S
C1102 C1101 1.392 . S
C1102 C1104 1.420 . S
C1102 C1134 1.423 . S
C1103 H1089 0.930 . S
C1103 C1100 1.413 . S
C1103 C1101 1.367 . S
C1104 N1099 1.362 . S
C1104 C1102 1.420 . S
C1104 C1108 1.429 . S
H1105 C1110 0.930 . S
N1106 Eu1068 2.609 . S
N1106 C1108 1.377 . S
N1106 C1109 1.321 . S
C1107 H1093 0.930 . S
C1107 C1109 1.400 . S
C1107 C1110 1.386 . S
C1108 C1104 1.429 . S
C1108 N1106 1.377 . S
C1108 C1111 1.411 . S
C1109 H1091 0.930 . S
C1109 N1106 1.321 . S
C1109 C1107 1.400 . S
C1110 H1105 0.930 . S
C1110 C1107 1.386 . S
C1110 C1111 1.395 . S
C1111 C1108 1.411 . S
C1111 C1110 1.395 . S
C1111 C1133 1.420 . S
O1112 Eu1068 2.558 . S
O1112 C1132 1.257 . S
O1113 Eu1068 2.612 . S
O1113 Eu1079 2.380 . S
O1113 C1124 1.276 . S
O1114 Eu1079 2.432 . S
O1114 C1131 1.264 . S
O1115 Eu1068 2.339 . S
O1115 C1131 1.254 . S
O1116 Eu1068 2.563 . S
O1116 C1124 1.235 . S
O1117 Eu1068 2.419 . S
O1117 C1132 1.249 . S
O1118 Eu1079 2.558 . S
O1118 C1143 1.257 . S
O1119 Eu1068 2.380 . S
O1119 Eu1079 2.612 . S
O1119 C1135 1.276 . S
O1120 Eu1068 2.432 . S
O1120 C1142 1.264 . S
O1121 Eu1079 2.339 . S
O1121 C1142 1.254 . S
O1122 Eu1079 2.563 . S
O1122 C1135 1.235 . S
O1123 Eu1079 2.419 . S
O1123 C1143 1.249 . S
C1124 O1113 1.276 . S
C1124 O1116 1.235 . S
C1125 C1127 1.393 . S
C1125 C1129 1.395 . S
C1125 C1132 1.492 . S
C1126 C1127 1.392 . S
C1126 C1128 1.386 . S
C1127 C1125 1.393 . S
C1127 C1126 1.392 . S
C1127 H1144 0.930 . S
C1128 C1126 1.386 . S
C1128 C1130 1.395 . S
C1128 H1145 0.930 . S
C1129 C1125 1.395 . S
C1129 C1130 1.379 . S
C1129 H1146 0.930 . S
C1130 C1128 1.395 . S
C1130 C1129 1.379 . S
C1130 H1147 0.930 . S
C1131 O1114 1.264 . S
C1131 O1115 1.254 . S
C1132 Eu1068 2.848 . S
C1132 O1112 1.257 . S
C1132 O1117 1.249 . S
C1132 C1125 1.492 . S
C1133 H1098 0.931 . S
C1133 C1111 1.420 . S
C1133 C1134 1.351 . S
C1134 H1096 0.930 . S
C1134 C1102 1.423 . S
C1134 C1133 1.351 . S
C1135 O1119 1.276 . S
C1135 O1122 1.235 . S
C1136 C1137 1.393 . S
C1136 C1140 1.395 . S
C1136 C1143 1.492 . S
C1137 C1136 1.393 . S
C1137 C1138 1.392 . S
C1137 H1148 0.930 . S
C1138 C1137 1.392 . S
C1138 C1139 1.386 . S
C1139 C1138 1.386 . S
C1139 C1141 1.395 . S
C1139 H1149 0.930 . S
C1140 C1136 1.395 . S
C1140 C1141 1.379 . S
C1140 H1150 0.930 . S
C1141 C1139 1.395 . S
C1141 C1140 1.379 . S
C1141 H1151 0.930 . S
C1142 O1120 1.264 . S
C1142 O1121 1.254 . S
C1143 Eu1079 2.848 . S
C1143 O1118 1.257 . S
C1143 O1123 1.249 . S
C1143 C1136 1.492 . S
H1144 C1127 0.930 . S
H1145 C1128 0.930 . S
H1146 C1129 0.930 . S
H1147 C1130 0.930 . S
H1148 C1137 0.930 . S
H1149 C1139 0.930 . S
H1150 C1140 0.930 . S
H1151 C1141 0.930 . S
Eu1152 N1183 2.657 . S
Eu1152 N1190 2.609 . S
Eu1152 O1196 2.558 . S
Eu1152 O1197 2.612 . S
Eu1152 O1199 2.339 . S
Eu1152 O1200 2.563 . S
Eu1152 O1201 2.419 . S
Eu1152 O1203 2.380 . S
Eu1152 O1204 2.432 . S
Eu1152 C1216 2.848 . S
C1153 C1156 1.429 . S
C1153 C1157 1.411 . S
C1153 N1160 1.377 1_655 S
C1154 C1156 1.420 . S
C1154 C1158 1.423 . S
C1154 C1166 1.392 . S
C1155 C1157 1.420 . S
C1155 C1158 1.351 . S
C1155 H1178 0.931 . S
C1156 C1153 1.429 . S
C1156 C1154 1.420 . S
C1156 N1164 1.362 1_655 S
C1157 C1153 1.411 . S
C1157 C1155 1.420 . S
C1157 C1162 1.395 . S
C1158 C1154 1.423 . S
C1158 C1155 1.351 . S
C1158 H1170 0.930 . S
C1159 C1161 1.400 1_655 S
C1159 C1162 1.386 . S
C1159 H1171 0.930 . S
N1160 C1153 1.377 1_455 S
N1160 C1161 1.321 . S
N1160 Eu1163 2.609 . S
C1161 C1159 1.400 1_455 S
C1161 N1160 1.321 . S
C1161 H1168 0.930 . S
C1162 C1157 1.395 . S
C1162 C1159 1.386 . S
C1162 H1181 0.930 . S
Eu1163 N1160 2.609 . S
Eu1163 N1164 2.657 . S
Eu1163 O1197 2.380 . S
Eu1163 O1198 2.432 . S
Eu1163 O1202 2.558 . S
Eu1163 O1203 2.612 . S
Eu1163 O1205 2.339 . S
Eu1163 O1206 2.563 . S
Eu1163 O1207 2.419 . S
Eu1163 C1227 2.848 . S
N1164 C1156 1.362 1_455 S
N1164 Eu1163 2.657 . S
N1164 C1165 1.334 . S
C1165 N1164 1.334 . S
C1165 C1167 1.413 1_455 S
C1165 H1172 0.929 . S
C1166 C1154 1.392 . S
C1166 C1167 1.367 . S
C1166 H1174 0.930 . S
C1167 C1165 1.413 1_655 S
C1167 C1166 1.367 . S
C1167 H1169 0.930 . S
H1168 C1161 0.930 . S
H1169 C1167 0.930 . S
H1170 C1158 0.930 . S
H1171 C1159 0.930 . S
H1172 C1165 0.929 . S
H1173 C1187 0.930 . S
H1174 C1166 0.930 . S
H1175 C1193 0.930 . S
H1176 C1184 0.929 . S
H1177 C1191 0.930 . S
H1178 C1155 0.931 . S
H1179 C1185 0.930 . S
H1180 C1218 0.930 . S
H1181 C1162 0.930 . S
H1182 C1217 0.931 . S
N1183 Eu1152 2.657 . S
N1183 C1184 1.334 . S
N1183 C1188 1.362 . S
C1184 H1176 0.929 . S
C1184 N1183 1.334 . S
C1184 C1187 1.413 . S
C1185 H1179 0.930 . S
C1185 C1186 1.392 . S
C1185 C1187 1.367 . S
C1186 C1185 1.392 . S
C1186 C1188 1.420 . S
C1186 C1218 1.423 . S
C1187 H1173 0.930 . S
C1187 C1184 1.413 . S
C1187 C1185 1.367 . S
C1188 N1183 1.362 . S
C1188 C1186 1.420 . S
C1188 C1192 1.429 . S
H1189 C1194 0.930 . S
N1190 Eu1152 2.609 . S
N1190 C1192 1.377 . S
N1190 C1193 1.321 . S
C1191 H1177 0.930 . S
C1191 C1193 1.400 . S
C1191 C1194 1.386 . S
C1192 C1188 1.429 . S
C1192 N1190 1.377 . S
C1192 C1195 1.411 . S
C1193 H1175 0.930 . S
C1193 N1190 1.321 . S
C1193 C1191 1.400 . S
C1194 H1189 0.930 . S
C1194 C1191 1.386 . S
C1194 C1195 1.395 . S
C1195 C1192 1.411 . S
C1195 C1194 1.395 . S
C1195 C1217 1.420 . S
O1196 Eu1152 2.558 . S
O1196 C1216 1.257 . S
O1197 Eu1152 2.612 . S
O1197 Eu1163 2.380 . S
O1197 C1208 1.276 . S
O1198 Eu1163 2.432 . S
O1198 C1215 1.264 . S
O1199 Eu1152 2.339 . S
O1199 C1215 1.254 . S
O1200 Eu1152 2.563 . S
O1200 C1208 1.235 . S
O1201 Eu1152 2.419 . S
O1201 C1216 1.249 . S
O1202 Eu1163 2.558 . S
O1202 C1227 1.257 . S
O1203 Eu1152 2.380 . S
O1203 Eu1163 2.612 . S
O1203 C1219 1.276 . S
O1204 Eu1152 2.432 . S
O1204 C1226 1.264 . S
O1205 Eu1163 2.339 . S
O1205 C1226 1.254 . S
O1206 Eu1163 2.563 . S
O1206 C1219 1.235 . S
O1207 Eu1163 2.419 . S
O1207 C1227 1.249 . S
C1208 O1197 1.276 . S
C1208 O1200 1.235 . S
C1209 C1211 1.393 . S
C1209 C1213 1.395 . S
C1209 C1216 1.492 . S
C1210 C1211 1.392 1_655 S
C1210 C1212 1.386 . S
C1211 C1209 1.393 . S
C1211 C1210 1.392 1_455 S
C1211 H1228 0.930 . S
C1212 C1210 1.386 . S
C1212 C1214 1.395 1_655 S
C1212 H1229 0.930 . S
C1213 C1209 1.395 . S
C1213 C1214 1.379 . S
C1213 H1230 0.930 . S
C1214 C1212 1.395 1_455 S
C1214 C1213 1.379 . S
C1214 H1231 0.930 . S
C1215 O1198 1.264 . S
C1215 O1199 1.254 . S
C1216 Eu1152 2.848 . S
C1216 O1196 1.257 . S
C1216 O1201 1.249 . S
C1216 C1209 1.492 . S
C1217 H1182 0.931 . S
C1217 C1195 1.420 . S
C1217 C1218 1.351 . S
C1218 H1180 0.930 . S
C1218 C1186 1.423 . S
C1218 C1217 1.351 . S
C1219 O1203 1.276 . S
C1219 O1206 1.235 . S
C1220 C1221 1.393 . S
C1220 C1224 1.395 . S
C1220 C1227 1.492 . S
C1221 C1220 1.393 . S
C1221 C1222 1.392 . S
C1221 H1232 0.930 . S
C1222 C1221 1.392 . S
C1222 C1223 1.386 . S
C1223 C1222 1.386 . S
C1223 C1225 1.395 . S
C1223 H1233 0.930 . S
C1224 C1220 1.395 . S
C1224 C1225 1.379 . S
C1224 H1234 0.930 . S
C1225 C1223 1.395 . S
C1225 C1224 1.379 . S
C1225 H1235 0.930 . S
C1226 O1204 1.264 . S
C1226 O1205 1.254 . S
C1227 Eu1163 2.848 . S
C1227 O1202 1.257 . S
C1227 O1207 1.249 . S
C1227 C1220 1.492 . S
H1228 C1211 0.930 . S
H1229 C1212 0.930 . S
H1230 C1213 0.930 . S
H1231 C1214 0.930 . S
H1232 C1221 0.930 . S
H1233 C1223 0.930 . S
H1234 C1224 0.930 . S
H1235 C1225 0.930 . S
Eu1236 N1267 2.657 . S
Eu1236 N1274 2.609 . S
Eu1236 O1280 2.558 . S
Eu1236 O1281 2.612 . S
Eu1236 O1283 2.339 . S
Eu1236 O1284 2.563 . S
Eu1236 O1285 2.419 . S
Eu1236 O1287 2.380 . S
Eu1236 O1288 2.432 . S
Eu1236 C1300 2.848 . S
C1237 C1240 1.429 . S
C1237 C1241 1.411 . S
C1237 N1244 1.377 . S
C1238 C1240 1.420 . S
C1238 C1242 1.423 . S
C1238 C1250 1.392 . S
C1239 C1241 1.420 . S
C1239 C1242 1.351 . S
C1239 H1262 0.931 . S
C1240 C1237 1.429 . S
C1240 C1238 1.420 . S
C1240 N1248 1.362 . S
C1241 C1237 1.411 . S
C1241 C1239 1.420 . S
C1241 C1246 1.395 . S
C1242 C1238 1.423 . S
C1242 C1239 1.351 . S
C1242 H1254 0.930 . S
C1243 C1245 1.400 . S
C1243 C1246 1.386 . S
C1243 H1255 0.930 . S
N1244 C1237 1.377 . S
N1244 C1245 1.321 . S
N1244 Eu1247 2.609 . S
C1245 C1243 1.400 . S
C1245 N1244 1.321 . S
C1245 H1252 0.930 . S
C1246 C1241 1.395 . S
C1246 C1243 1.386 . S
C1246 H1265 0.930 . S
Eu1247 N1244 2.609 . S
Eu1247 N1248 2.657 . S
Eu1247 O1281 2.380 . S
Eu1247 O1282 2.432 . S
Eu1247 O1286 2.558 . S
Eu1247 O1287 2.612 . S
Eu1247 O1289 2.339 . S
Eu1247 O1290 2.563 . S
Eu1247 O1291 2.419 . S
Eu1247 C1311 2.848 . S
N1248 C1240 1.362 . S
N1248 Eu1247 2.657 . S
N1248 C1249 1.334 . S
C1249 N1248 1.334 . S
C1249 C1251 1.413 . S
C1249 H1256 0.929 . S
C1250 C1238 1.392 . S
C1250 C1251 1.367 . S
C1250 H1258 0.930 . S
C1251 C1249 1.413 . S
C1251 C1250 1.367 . S
C1251 H1253 0.930 . S
H1252 C1245 0.930 . S
H1253 C1251 0.930 . S
H1254 C1242 0.930 . S
H1255 C1243 0.930 . S
H1256 C1249 0.929 . S
H1257 C1271 0.930 . S
H1258 C1250 0.930 . S
H1259 C1277 0.930 . S
H1260 C1268 0.929 . S
H1261 C1275 0.930 . S
H1262 C1239 0.931 . S
H1263 C1269 0.930 . S
H1264 C1302 0.930 . S
H1265 C1246 0.930 . S
H1266 C1301 0.931 . S
N1267 Eu1236 2.657 . S
N1267 C1268 1.334 . S
N1267 C1272 1.362 . S
C1268 H1260 0.929 . S
C1268 N1267 1.334 . S
C1268 C1271 1.413 . S
C1269 H1263 0.930 . S
C1269 C1270 1.392 . S
C1269 C1271 1.367 . S
C1270 C1269 1.392 . S
C1270 C1272 1.420 . S
C1270 C1302 1.423 . S
C1271 H1257 0.930 . S
C1271 C1268 1.413 . S
C1271 C1269 1.367 . S
C1272 N1267 1.362 . S
C1272 C1270 1.420 . S
C1272 C1276 1.429 . S
H1273 C1278 0.930 . S
N1274 Eu1236 2.609 . S
N1274 C1276 1.377 . S
N1274 C1277 1.321 . S
C1275 H1261 0.930 . S
C1275 C1277 1.400 . S
C1275 C1278 1.386 . S
C1276 C1272 1.429 . S
C1276 N1274 1.377 . S
C1276 C1279 1.411 . S
C1277 H1259 0.930 . S
C1277 N1274 1.321 . S
C1277 C1275 1.400 . S
C1278 H1273 0.930 . S
C1278 C1275 1.386 . S
C1278 C1279 1.395 . S
C1279 C1276 1.411 . S
C1279 C1278 1.395 . S
C1279 C1301 1.420 . S
O1280 Eu1236 2.558 . S
O1280 C1300 1.257 . S
O1281 Eu1236 2.612 . S
O1281 Eu1247 2.380 . S
O1281 C1292 1.276 . S
O1282 Eu1247 2.432 . S
O1282 C1299 1.264 . S
O1283 Eu1236 2.339 . S
O1283 C1299 1.254 . S
O1284 Eu1236 2.563 . S
O1284 C1292 1.235 . S
O1285 Eu1236 2.419 . S
O1285 C1300 1.249 . S
O1286 Eu1247 2.558 . S
O1286 C1311 1.257 . S
O1287 Eu1236 2.380 . S
O1287 Eu1247 2.612 . S
O1287 C1303 1.276 . S
O1288 Eu1236 2.432 . S
O1288 C1310 1.264 . S
O1289 Eu1247 2.339 . S
O1289 C1310 1.254 . S
O1290 Eu1247 2.563 . S
O1290 C1303 1.235 . S
O1291 Eu1247 2.419 . S
O1291 C1311 1.249 . S
C1292 O1281 1.276 . S
C1292 O1284 1.235 . S
C1293 C1295 1.393 . S
C1293 C1297 1.395 . S
C1293 C1300 1.492 . S
C1294 C1295 1.392 . S
C1294 C1296 1.386 . S
C1295 C1293 1.393 . S
C1295 C1294 1.392 . S
C1295 H1312 0.930 . S
C1296 C1294 1.386 . S
C1296 C1298 1.395 . S
C1296 H1313 0.930 . S
C1297 C1293 1.395 . S
C1297 C1298 1.379 . S
C1297 H1314 0.930 . S
C1298 C1296 1.395 . S
C1298 C1297 1.379 . S
C1298 H1315 0.930 . S
C1299 O1282 1.264 . S
C1299 O1283 1.254 . S
C1300 Eu1236 2.848 . S
C1300 O1280 1.257 . S
C1300 O1285 1.249 . S
C1300 C1293 1.492 . S
C1301 H1266 0.931 . S
C1301 C1279 1.420 . S
C1301 C1302 1.351 . S
C1302 H1264 0.930 . S
C1302 C1270 1.423 . S
C1302 C1301 1.351 . S
C1303 O1287 1.276 . S
C1303 O1290 1.235 . S
C1304 C1305 1.393 . S
C1304 C1308 1.395 . S
C1304 C1311 1.492 . S
C1305 C1304 1.393 . S
C1305 C1306 1.392 . S
C1305 H1316 0.930 . S
C1306 C1305 1.392 . S
C1306 C1307 1.386 . S
C1307 C1306 1.386 . S
C1307 C1309 1.395 . S
C1307 H1317 0.930 . S
C1308 C1304 1.395 . S
C1308 C1309 1.379 . S
C1308 H1318 0.930 . S
C1309 C1307 1.395 . S
C1309 C1308 1.379 . S
C1309 H1319 0.930 . S
C1310 O1288 1.264 . S
C1310 O1289 1.254 . S
C1311 Eu1247 2.848 . S
C1311 O1286 1.257 . S
C1311 O1291 1.249 . S
C1311 C1304 1.492 . S
H1312 C1295 0.930 . S
H1313 C1296 0.930 . S
H1314 C1297 0.930 . S
H1315 C1298 0.930 . S
H1316 C1305 0.930 . S
H1317 C1307 0.930 . S
H1318 C1308 0.930 . S
H1319 C1309 0.930 . S
Eu1320 N1351 2.657 . S
Eu1320 N1358 2.609 . S
Eu1320 O1364 2.558 . S
Eu1320 O1365 2.612 . S
Eu1320 O1367 2.339 . S
Eu1320 O1368 2.563 . S
Eu1320 O1369 2.419 . S
Eu1320 O1371 2.380 . S
Eu1320 O1372 2.432 . S
Eu1320 C1384 2.848 . S
C1321 C1324 1.429 . S
C1321 C1325 1.411 . S
C1321 N1328 1.377 . S
C1322 C1324 1.420 . S
C1322 C1326 1.423 . S
C1322 C1334 1.392 . S
C1323 C1325 1.420 . S
C1323 C1326 1.351 . S
C1323 H1346 0.931 . S
C1324 C1321 1.429 . S
C1324 C1322 1.420 . S
C1324 N1332 1.362 . S
C1325 C1321 1.411 . S
C1325 C1323 1.420 . S
C1325 C1330 1.395 . S
C1326 C1322 1.423 . S
C1326 C1323 1.351 . S
C1326 H1338 0.930 . S
C1327 C1329 1.400 . S
C1327 C1330 1.386 . S
C1327 H1339 0.930 . S
N1328 C1321 1.377 . S
N1328 C1329 1.321 . S
N1328 Eu1331 2.609 . S
C1329 C1327 1.400 . S
C1329 N1328 1.321 . S
C1329 H1336 0.930 . S
C1330 C1325 1.395 . S
C1330 C1327 1.386 . S
C1330 H1349 0.930 . S
Eu1331 N1328 2.609 . S
Eu1331 N1332 2.657 . S
Eu1331 O1365 2.380 . S
Eu1331 O1366 2.432 . S
Eu1331 O1370 2.558 . S
Eu1331 O1371 2.612 . S
Eu1331 O1373 2.339 . S
Eu1331 O1374 2.563 . S
Eu1331 O1375 2.419 . S
Eu1331 C1395 2.848 . S
N1332 C1324 1.362 . S
N1332 Eu1331 2.657 . S
N1332 C1333 1.334 . S
C1333 N1332 1.334 . S
C1333 C1335 1.413 . S
C1333 H1340 0.929 . S
C1334 C1322 1.392 . S
C1334 C1335 1.367 . S
C1334 H1342 0.930 . S
C1335 C1333 1.413 . S
C1335 C1334 1.367 . S
C1335 H1337 0.930 . S
H1336 C1329 0.930 . S
H1337 C1335 0.930 . S
H1338 C1326 0.930 . S
H1339 C1327 0.930 . S
H1340 C1333 0.929 . S
H1341 C1355 0.930 . S
H1342 C1334 0.930 . S
H1343 C1361 0.930 . S
H1344 C1352 0.929 . S
H1345 C1359 0.930 . S
H1346 C1323 0.931 . S
H1347 C1353 0.930 . S
H1348 C1386 0.930 . S
H1349 C1330 0.930 . S
H1350 C1385 0.931 . S
N1351 Eu1320 2.657 . S
N1351 C1352 1.334 . S
N1351 C1356 1.362 . S
C1352 H1344 0.929 . S
C1352 N1351 1.334 . S
C1352 C1355 1.413 . S
C1353 H1347 0.930 . S
C1353 C1354 1.392 . S
C1353 C1355 1.367 . S
C1354 C1353 1.392 . S
C1354 C1356 1.420 . S
C1354 C1386 1.423 . S
C1355 H1341 0.930 . S
C1355 C1352 1.413 . S
C1355 C1353 1.367 . S
C1356 N1351 1.362 . S
C1356 C1354 1.420 . S
C1356 C1360 1.429 . S
H1357 C1362 0.930 . S
N1358 Eu1320 2.609 . S
N1358 C1360 1.377 . S
N1358 C1361 1.321 . S
C1359 H1345 0.930 . S
C1359 C1361 1.400 . S
C1359 C1362 1.386 . S
C1360 C1356 1.429 . S
C1360 N1358 1.377 . S
C1360 C1363 1.411 . S
C1361 H1343 0.930 . S
C1361 N1358 1.321 . S
C1361 C1359 1.400 . S
C1362 H1357 0.930 . S
C1362 C1359 1.386 . S
C1362 C1363 1.395 . S
C1363 C1360 1.411 . S
C1363 C1362 1.395 . S
C1363 C1385 1.420 . S
O1364 Eu1320 2.558 . S
O1364 C1384 1.257 . S
O1365 Eu1320 2.612 . S
O1365 Eu1331 2.380 . S
O1365 C1376 1.276 . S
O1366 Eu1331 2.432 . S
O1366 C1383 1.264 . S
O1367 Eu1320 2.339 . S
O1367 C1383 1.254 . S
O1368 Eu1320 2.563 . S
O1368 C1376 1.235 . S
O1369 Eu1320 2.419 . S
O1369 C1384 1.249 . S
O1370 Eu1331 2.558 . S
O1370 C1395 1.257 . S
O1371 Eu1320 2.380 . S
O1371 Eu1331 2.612 . S
O1371 C1387 1.276 . S
O1372 Eu1320 2.432 . S
O1372 C1394 1.264 . S
O1373 Eu1331 2.339 . S
O1373 C1394 1.254 . S
O1374 Eu1331 2.563 . S
O1374 C1387 1.235 . S
O1375 Eu1331 2.419 . S
O1375 C1395 1.249 . S
C1376 O1365 1.276 . S
C1376 O1368 1.235 . S
C1377 C1379 1.393 . S
C1377 C1381 1.395 . S
C1377 C1384 1.492 . S
C1378 C1379 1.392 . S
C1378 C1380 1.386 . S
C1379 C1377 1.393 . S
C1379 C1378 1.392 . S
C1379 H1396 0.930 . S
C1380 C1378 1.386 . S
C1380 C1382 1.395 . S
C1380 H1397 0.930 . S
C1381 C1377 1.395 . S
C1381 C1382 1.379 . S
C1381 H1398 0.930 . S
C1382 C1380 1.395 . S
C1382 C1381 1.379 . S
C1382 H1399 0.930 . S
C1383 O1366 1.264 . S
C1383 O1367 1.254 . S
C1384 Eu1320 2.848 . S
C1384 O1364 1.257 . S
C1384 O1369 1.249 . S
C1384 C1377 1.492 . S
C1385 H1350 0.931 . S
C1385 C1363 1.420 . S
C1385 C1386 1.351 . S
C1386 H1348 0.930 . S
C1386 C1354 1.423 . S
C1386 C1385 1.351 . S
C1387 O1371 1.276 . S
C1387 O1374 1.235 . S
C1388 C1389 1.393 . S
C1388 C1392 1.395 . S
C1388 C1395 1.492 . S
C1389 C1388 1.393 . S
C1389 C1390 1.392 . S
C1389 H1400 0.930 . S
C1390 C1389 1.392 . S
C1390 C1391 1.386 . S
C1391 C1390 1.386 . S
C1391 C1393 1.395 . S
C1391 H1401 0.930 . S
C1392 C1388 1.395 . S
C1392 C1393 1.379 . S
C1392 H1402 0.930 . S
C1393 C1391 1.395 . S
C1393 C1392 1.379 . S
C1393 H1403 0.930 . S
C1394 O1372 1.264 . S
C1394 O1373 1.254 . S
C1395 Eu1331 2.848 . S
C1395 O1370 1.257 . S
C1395 O1375 1.249 . S
C1395 C1388 1.492 . S
H1396 C1379 0.930 . S
H1397 C1380 0.930 . S
H1398 C1381 0.930 . S
H1399 C1382 0.930 . S
H1400 C1389 0.930 . S
H1401 C1391 0.930 . S
H1402 C1392 0.930 . S
H1403 C1393 0.930 . S
Eu1404 N1435 2.657 . S
Eu1404 N1442 2.609 . S
Eu1404 O1448 2.558 . S
Eu1404 O1449 2.612 . S
Eu1404 O1451 2.339 . S
Eu1404 O1452 2.563 . S
Eu1404 O1453 2.419 . S
Eu1404 O1455 2.380 . S
Eu1404 O1456 2.432 . S
Eu1404 C1468 2.848 . S
C1405 C1408 1.429 . S
C1405 C1409 1.411 . S
C1405 N1412 1.377 . S
C1406 C1408 1.420 . S
C1406 C1410 1.423 . S
C1406 C1418 1.392 . S
C1407 C1409 1.420 . S
C1407 C1410 1.351 . S
C1407 H1430 0.931 . S
C1408 C1405 1.429 . S
C1408 C1406 1.420 . S
C1408 N1416 1.362 . S
C1409 C1405 1.411 . S
C1409 C1407 1.420 . S
C1409 C1414 1.395 . S
C1410 C1406 1.423 . S
C1410 C1407 1.351 . S
C1410 H1422 0.930 . S
C1411 C1413 1.400 . S
C1411 C1414 1.386 . S
C1411 H1423 0.930 . S
N1412 C1405 1.377 . S
N1412 C1413 1.321 . S
N1412 Eu1415 2.609 . S
C1413 C1411 1.400 . S
C1413 N1412 1.321 . S
C1413 H1420 0.930 . S
C1414 C1409 1.395 . S
C1414 C1411 1.386 . S
C1414 H1433 0.930 . S
Eu1415 N1412 2.609 . S
Eu1415 N1416 2.657 . S
Eu1415 O1449 2.380 . S
Eu1415 O1450 2.432 . S
Eu1415 O1454 2.558 . S
Eu1415 O1455 2.612 . S
Eu1415 O1457 2.339 . S
Eu1415 O1458 2.563 . S
Eu1415 O1459 2.419 . S
Eu1415 C1479 2.848 . S
N1416 C1408 1.362 . S
N1416 Eu1415 2.657 . S
N1416 C1417 1.334 . S
C1417 N1416 1.334 . S
C1417 C1419 1.413 . S
C1417 H1424 0.929 . S
C1418 C1406 1.392 . S
C1418 C1419 1.367 . S
C1418 H1426 0.930 . S
C1419 C1417 1.413 . S
C1419 C1418 1.367 . S
C1419 H1421 0.930 . S
H1420 C1413 0.930 . S
H1421 C1419 0.930 . S
H1422 C1410 0.930 . S
H1423 C1411 0.930 . S
H1424 C1417 0.929 . S
H1425 C1439 0.930 . S
H1426 C1418 0.930 . S
H1427 C1445 0.930 . S
H1428 C1436 0.929 . S
H1429 C1443 0.930 . S
H1430 C1407 0.931 . S
H1431 C1437 0.930 . S
H1432 C1470 0.930 . S
H1433 C1414 0.930 . S
H1434 C1469 0.931 . S
N1435 Eu1404 2.657 . S
N1435 C1436 1.334 . S
N1435 C1440 1.362 . S
C1436 H1428 0.929 . S
C1436 N1435 1.334 . S
C1436 C1439 1.413 . S
C1437 H1431 0.930 . S
C1437 C1438 1.392 . S
C1437 C1439 1.367 . S
C1438 C1437 1.392 . S
C1438 C1440 1.420 . S
C1438 C1470 1.423 . S
C1439 H1425 0.930 . S
C1439 C1436 1.413 . S
C1439 C1437 1.367 . S
C1440 N1435 1.362 . S
C1440 C1438 1.420 . S
C1440 C1444 1.429 . S
H1441 C1446 0.930 . S
N1442 Eu1404 2.609 . S
N1442 C1444 1.377 . S
N1442 C1445 1.321 . S
C1443 H1429 0.930 . S
C1443 C1445 1.400 . S
C1443 C1446 1.386 . S
C1444 C1440 1.429 . S
C1444 N1442 1.377 . S
C1444 C1447 1.411 . S
C1445 H1427 0.930 . S
C1445 N1442 1.321 . S
C1445 C1443 1.400 . S
C1446 H1441 0.930 . S
C1446 C1443 1.386 . S
C1446 C1447 1.395 . S
C1447 C1444 1.411 . S
C1447 C1446 1.395 . S
C1447 C1469 1.420 . S
O1448 Eu1404 2.558 . S
O1448 C1468 1.257 . S
O1449 Eu1404 2.612 . S
O1449 Eu1415 2.380 . S
O1449 C1460 1.276 . S
O1450 Eu1415 2.432 . S
O1450 C1467 1.264 . S
O1451 Eu1404 2.339 . S
O1451 C1467 1.254 . S
O1452 Eu1404 2.563 . S
O1452 C1460 1.235 . S
O1453 Eu1404 2.419 . S
O1453 C1468 1.249 . S
O1454 Eu1415 2.558 . S
O1454 C1479 1.257 . S
O1455 Eu1404 2.380 . S
O1455 Eu1415 2.612 . S
O1455 C1471 1.276 . S
O1456 Eu1404 2.432 . S
O1456 C1478 1.264 . S
O1457 Eu1415 2.339 . S
O1457 C1478 1.254 . S
O1458 Eu1415 2.563 . S
O1458 C1471 1.235 . S
O1459 Eu1415 2.419 . S
O1459 C1479 1.249 . S
C1460 O1449 1.276 . S
C1460 O1452 1.235 . S
C1461 C1463 1.393 . S
C1461 C1465 1.395 . S
C1461 C1468 1.492 . S
C1462 C1463 1.392 . S
C1462 C1464 1.386 . S
C1463 C1461 1.393 . S
C1463 C1462 1.392 . S
C1463 H1480 0.930 . S
C1464 C1462 1.386 . S
C1464 C1466 1.395 . S
C1464 H1481 0.930 . S
C1465 C1461 1.395 . S
C1465 C1466 1.379 . S
C1465 H1482 0.930 . S
C1466 C1464 1.395 . S
C1466 C1465 1.379 . S
C1466 H1483 0.930 . S
C1467 O1450 1.264 . S
C1467 O1451 1.254 . S
C1468 Eu1404 2.848 . S
C1468 O1448 1.257 . S
C1468 O1453 1.249 . S
C1468 C1461 1.492 . S
C1469 H1434 0.931 . S
C1469 C1447 1.420 . S
C1469 C1470 1.351 . S
C1470 H1432 0.930 . S
C1470 C1438 1.423 . S
C1470 C1469 1.351 . S
C1471 O1455 1.276 . S
C1471 O1458 1.235 . S
C1472 C1473 1.393 . S
C1472 C1476 1.395 . S
C1472 C1479 1.492 . S
C1473 C1472 1.393 . S
C1473 C1474 1.392 . S
C1473 H1484 0.930 . S
C1474 C1473 1.392 . S
C1474 C1475 1.386 . S
C1475 C1474 1.386 . S
C1475 C1477 1.395 . S
C1475 H1485 0.930 . S
C1476 C1472 1.395 . S
C1476 C1477 1.379 . S
C1476 H1486 0.930 . S
C1477 C1475 1.395 . S
C1477 C1476 1.379 . S
C1477 H1487 0.930 . S
C1478 O1456 1.264 . S
C1478 O1457 1.254 . S
C1479 Eu1415 2.848 . S
C1479 O1454 1.257 . S
C1479 O1459 1.249 . S
C1479 C1472 1.492 . S
H1480 C1463 0.930 . S
H1481 C1464 0.930 . S
H1482 C1465 0.930 . S
H1483 C1466 0.930 . S
H1484 C1473 0.930 . S
H1485 C1475 0.930 . S
H1486 C1476 0.930 . S
H1487 C1477 0.930 . S
Eu1488 N1519 2.657 . S
Eu1488 N1526 2.609 . S
Eu1488 O1532 2.558 . S
Eu1488 O1533 2.612 . S
Eu1488 O1535 2.339 . S
Eu1488 O1536 2.563 . S
Eu1488 O1537 2.419 . S
Eu1488 O1539 2.380 . S
Eu1488 O1540 2.432 . S
Eu1488 C1552 2.848 . S
C1489 C1492 1.429 . S
C1489 C1493 1.411 . S
C1489 N1496 1.377 . S
C1490 C1492 1.420 . S
C1490 C1494 1.423 . S
C1490 C1502 1.392 . S
C1491 C1493 1.420 . S
C1491 C1494 1.351 . S
C1491 H1514 0.931 . S
C1492 C1489 1.429 . S
C1492 C1490 1.420 . S
C1492 N1500 1.362 . S
C1493 C1489 1.411 . S
C1493 C1491 1.420 . S
C1493 C1498 1.395 . S
C1494 C1490 1.423 . S
C1494 C1491 1.351 . S
C1494 H1506 0.930 . S
C1495 C1497 1.400 . S
C1495 C1498 1.386 . S
C1495 H1507 0.930 . S
N1496 C1489 1.377 . S
N1496 C1497 1.321 . S
N1496 Eu1499 2.609 . S
C1497 C1495 1.400 . S
C1497 N1496 1.321 . S
C1497 H1504 0.930 . S
C1498 C1493 1.395 . S
C1498 C1495 1.386 . S
C1498 H1517 0.930 . S
Eu1499 N1496 2.609 . S
Eu1499 N1500 2.657 . S
Eu1499 O1533 2.380 . S
Eu1499 O1534 2.432 . S
Eu1499 O1538 2.558 . S
Eu1499 O1539 2.612 . S
Eu1499 O1541 2.339 . S
Eu1499 O1542 2.563 . S
Eu1499 O1543 2.419 . S
Eu1499 C1563 2.848 . S
N1500 C1492 1.362 . S
N1500 Eu1499 2.657 . S
N1500 C1501 1.334 . S
C1501 N1500 1.334 . S
C1501 C1503 1.413 . S
C1501 H1508 0.929 . S
C1502 C1490 1.392 . S
C1502 C1503 1.367 . S
C1502 H1510 0.930 . S
C1503 C1501 1.413 . S
C1503 C1502 1.367 . S
C1503 H1505 0.930 . S
H1504 C1497 0.930 . S
H1505 C1503 0.930 . S
H1506 C1494 0.930 . S
H1507 C1495 0.930 . S
H1508 C1501 0.929 . S
H1509 C1523 0.930 . S
H1510 C1502 0.930 . S
H1511 C1529 0.930 . S
H1512 C1520 0.929 . S
H1513 C1527 0.930 . S
H1514 C1491 0.931 . S
H1515 C1521 0.930 . S
H1516 C1554 0.930 . S
H1517 C1498 0.930 . S
H1518 C1553 0.931 . S
N1519 Eu1488 2.657 . S
N1519 C1520 1.334 . S
N1519 C1524 1.362 . S
C1520 H1512 0.929 . S
C1520 N1519 1.334 . S
C1520 C1523 1.413 . S
C1521 H1515 0.930 . S
C1521 C1522 1.392 . S
C1521 C1523 1.367 . S
C1522 C1521 1.392 . S
C1522 C1524 1.420 . S
C1522 C1554 1.423 . S
C1523 H1509 0.930 . S
C1523 C1520 1.413 . S
C1523 C1521 1.367 . S
C1524 N1519 1.362 . S
C1524 C1522 1.420 . S
C1524 C1528 1.429 . S
H1525 C1530 0.930 . S
N1526 Eu1488 2.609 . S
N1526 C1528 1.377 . S
N1526 C1529 1.321 . S
C1527 H1513 0.930 . S
C1527 C1529 1.400 . S
C1527 C1530 1.386 . S
C1528 C1524 1.429 . S
C1528 N1526 1.377 . S
C1528 C1531 1.411 . S
C1529 H1511 0.930 . S
C1529 N1526 1.321 . S
C1529 C1527 1.400 . S
C1530 H1525 0.930 . S
C1530 C1527 1.386 . S
C1530 C1531 1.395 . S
C1531 C1528 1.411 . S
C1531 C1530 1.395 . S
C1531 C1553 1.420 . S
O1532 Eu1488 2.558 . S
O1532 C1552 1.257 . S
O1533 Eu1488 2.612 . S
O1533 Eu1499 2.380 . S
O1533 C1544 1.276 . S
O1534 Eu1499 2.432 . S
O1534 C1551 1.264 . S
O1535 Eu1488 2.339 . S
O1535 C1551 1.254 . S
O1536 Eu1488 2.563 . S
O1536 C1544 1.235 . S
O1537 Eu1488 2.419 . S
O1537 C1552 1.249 . S
O1538 Eu1499 2.558 . S
O1538 C1563 1.257 . S
O1539 Eu1488 2.380 . S
O1539 Eu1499 2.612 . S
O1539 C1555 1.276 . S
O1540 Eu1488 2.432 . S
O1540 C1562 1.264 . S
O1541 Eu1499 2.339 . S
O1541 C1562 1.254 . S
O1542 Eu1499 2.563 . S
O1542 C1555 1.235 . S
O1543 Eu1499 2.419 . S
O1543 C1563 1.249 . S
C1544 O1533 1.276 . S
C1544 O1536 1.235 . S
C1545 C1547 1.393 . S
C1545 C1549 1.395 . S
C1545 C1552 1.492 . S
C1546 C1547 1.392 . S
C1546 C1548 1.386 . S
C1547 C1545 1.393 . S
C1547 C1546 1.392 . S
C1547 H1564 0.930 . S
C1548 C1546 1.386 . S
C1548 C1550 1.395 . S
C1548 H1565 0.930 . S
C1549 C1545 1.395 . S
C1549 C1550 1.379 . S
C1549 H1566 0.930 . S
C1550 C1548 1.395 . S
C1550 C1549 1.379 . S
C1550 H1567 0.930 . S
C1551 O1534 1.264 . S
C1551 O1535 1.254 . S
C1552 Eu1488 2.848 . S
C1552 O1532 1.257 . S
C1552 O1537 1.249 . S
C1552 C1545 1.492 . S
C1553 H1518 0.931 . S
C1553 C1531 1.420 . S
C1553 C1554 1.351 . S
C1554 H1516 0.930 . S
C1554 C1522 1.423 . S
C1554 C1553 1.351 . S
C1555 O1539 1.276 . S
C1555 O1542 1.235 . S
C1556 C1557 1.393 . S
C1556 C1560 1.395 . S
C1556 C1563 1.492 . S
C1557 C1556 1.393 . S
C1557 C1558 1.392 . S
C1557 H1568 0.930 . S
C1558 C1557 1.392 . S
C1558 C1559 1.386 . S
C1559 C1558 1.386 . S
C1559 C1561 1.395 . S
C1559 H1569 0.930 . S
C1560 C1556 1.395 . S
C1560 C1561 1.379 . S
C1560 H1570 0.930 . S
C1561 C1559 1.395 . S
C1561 C1560 1.379 . S
C1561 H1571 0.930 . S
C1562 O1540 1.264 . S
C1562 O1541 1.254 . S
C1563 Eu1499 2.848 . S
C1563 O1538 1.257 . S
C1563 O1543 1.249 . S
C1563 C1556 1.492 . S
H1564 C1547 0.930 . S
H1565 C1548 0.930 . S
H1566 C1549 0.930 . S
H1567 C1550 0.930 . S
H1568 C1557 0.930 . S
H1569 C1559 0.930 . S
H1570 C1560 0.930 . S
H1571 C1561 0.930 . S
Eu1572 N1603 2.657 . S
Eu1572 N1610 2.609 1_554 S
Eu1572 O1616 2.558 1_554 S
Eu1572 O1617 2.612 . S
Eu1572 O1619 2.339 . S
Eu1572 O1620 2.563 . S
Eu1572 O1621 2.419 . S
Eu1572 O1623 2.380 . S
Eu1572 O1624 2.432 1_554 S
Eu1572 C1636 2.848 . S
C1573 C1576 1.429 . S
C1573 C1577 1.411 . S
C1573 N1580 1.367 1_655 S
C1574 C1576 1.420 . S
C1574 C1578 1.423 . S
C1574 C1586 1.392 . S
C1575 C1577 1.420 . S
C1575 C1578 1.351 . S
C1575 H1598 0.931 . S
C1576 C1573 1.429 . S
C1576 C1574 1.420 . S
C1576 N1584 1.362 . S
C1577 C1573 1.411 . S
C1577 C1575 1.420 . S
C1577 C1582 1.395 . S
C1578 C1574 1.423 . S
C1578 C1575 1.351 . S
C1578 H1590 0.930 . S
C1579 C1581 1.400 1_655 S
C1579 C1582 1.386 . S
C1579 H1591 0.930 . S
N1580 C1573 1.367 1_455 S
N1580 C1581 1.323 . S
N1580 Eu1583 2.615 . S
C1581 C1579 1.400 1_455 S
C1581 N1580 1.323 . S
C1581 H1588 0.930 . S
C1582 C1577 1.395 . S
C1582 C1579 1.386 . S
C1582 H1601 0.930 . S
Eu1583 N1580 2.615 . S
Eu1583 N1584 2.657 1_455 S
Eu1583 O1617 2.380 . S
Eu1583 O1618 2.432 . S
Eu1583 O1622 2.558 1_455 S
Eu1583 O1623 2.612 . S
Eu1583 O1625 2.339 . S
Eu1583 O1626 2.563 . S
Eu1583 O1627 2.419 1_455 S
Eu1583 C1647 2.848 1_455 S
N1584 C1576 1.362 . S
N1584 Eu1583 2.657 1_655 S
N1584 C1585 1.334 . S
C1585 N1584 1.334 . S
C1585 C1587 1.413 1_554 S
C1585 H1592 0.929 1_554 S
C1586 C1574 1.392 . S
C1586 C1587 1.367 1_554 S
C1586 H1594 0.942 . S
C1587 C1585 1.413 1_556 S
C1587 C1586 1.367 1_556 S
C1587 H1589 0.930 . S
H1588 C1581 0.930 . S
H1589 C1587 0.930 . S
H1590 C1578 0.930 . S
H1591 C1579 0.930 . S
H1592 C1585 0.929 1_556 S
H1593 C1607 0.930 . S
H1594 C1586 0.942 . S
H1595 C1613 0.930 . S
H1596 C1604 0.929 . S
H1597 C1611 0.930 . S
H1598 C1575 0.931 . S
H1599 C1605 0.930 . S
H1600 C1638 0.930 . S
H1601 C1582 0.930 . S
H1602 C1637 0.931 . S
N1603 Eu1572 2.657 . S
N1603 C1604 1.334 . S
N1603 C1608 1.362 . S
C1604 H1596 0.929 . S
C1604 N1603 1.334 . S
C1604 C1607 1.413 . S
C1605 H1599 0.930 . S
C1605 C1606 1.392 . S
C1605 C1607 1.367 . S
C1606 C1605 1.392 . S
C1606 C1608 1.420 . S
C1606 C1638 1.423 . S
C1607 H1593 0.930 . S
C1607 C1604 1.413 . S
C1607 C1605 1.367 . S
C1608 N1603 1.362 . S
C1608 C1606 1.420 . S
C1608 C1612 1.429 1_554 S
H1609 C1614 0.930 . S
N1610 Eu1572 2.609 1_556 S
N1610 C1612 1.377 . S
N1610 C1613 1.321 . S
C1611 H1597 0.930 . S
C1611 C1613 1.400 . S
C1611 C1614 1.386 . S
C1612 C1608 1.429 1_556 S
C1612 N1610 1.377 . S
C1612 C1615 1.411 . S
C1613 H1595 0.930 . S
C1613 N1610 1.321 . S
C1613 C1611 1.400 . S
C1614 H1609 0.930 . S
C1614 C1611 1.386 . S
C1614 C1615 1.395 . S
C1615 C1612 1.411 . S
C1615 C1614 1.395 . S
C1615 C1637 1.420 . S
O1616 Eu1572 2.558 1_556 S
O1616 C1636 1.257 1_556 S
O1617 Eu1572 2.612 . S
O1617 Eu1583 2.380 . S
O1617 C1628 1.276 . S
O1618 Eu1583 2.432 . S
O1618 C1635 1.264 . S
O1619 Eu1572 2.339 . S
O1619 C1635 1.254 . S
O1620 Eu1572 2.563 . S
O1620 C1628 1.235 . S
O1621 Eu1572 2.419 . S
O1621 C1636 1.249 . S
O1622 Eu1583 2.558 1_655 S
O1622 C1647 1.257 . S
O1623 Eu1572 2.380 . S
O1623 Eu1583 2.612 . S
O1623 C1639 1.276 . S
O1624 Eu1572 2.432 1_556 S
O1624 C1646 1.264 . S
O1625 Eu1583 2.339 . S
O1625 C1646 1.254 1_554 S
O1626 Eu1583 2.563 . S
O1626 C1639 1.235 . S
O1627 Eu1583 2.419 1_655 S
O1627 C1647 1.249 . S
C1628 O1617 1.276 . S
C1628 O1620 1.235 . S
C1629 C1631 1.393 1_556 S
C1629 C1633 1.395 . S
C1629 C1636 1.492 1_556 S
C1630 C1631 1.392 . S
C1630 C1632 1.386 1_554 S
C1631 C1629 1.393 1_554 S
C1631 C1630 1.392 . S
C1631 H1648 0.930 . S
C1632 C1630 1.386 1_556 S
C1632 C1634 1.395 . S
C1632 H1649 0.930 . S
C1633 C1629 1.395 . S
C1633 C1634 1.379 . S
C1633 H1650 0.930 . S
C1634 C1632 1.395 . S
C1634 C1633 1.379 . S
C1634 H1651 0.930 . S
C1635 O1618 1.264 . S
C1635 O1619 1.254 . S
C1636 Eu1572 2.848 . S
C1636 O1616 1.257 1_554 S
C1636 O1621 1.249 . S
C1636 C1629 1.492 1_554 S
C1637 H1602 0.931 . S
C1637 C1615 1.420 . S
C1637 C1638 1.351 1_556 S
C1638 H1600 0.930 . S
C1638 C1606 1.423 . S
C1638 C1637 1.351 1_554 S
C1639 O1623 1.276 . S
C1639 O1626 1.235 . S
C1640 C1641 1.393 . S
C1640 C1644 1.395 . S
C1640 C1647 1.492 . S
C1641 C1640 1.393 . S
C1641 C1642 1.392 . S
C1641 H1652 0.930 . S
C1642 C1641 1.392 . S
C1642 C1643 1.386 . S
C1643 C1642 1.386 . S
C1643 C1645 1.395 . S
C1643 H1653 0.930 . S
C1644 C1640 1.395 . S
C1644 C1645 1.379 . S
C1644 H1654 0.930 . S
C1645 C1643 1.395 . S
C1645 C1644 1.379 . S
C1645 H1655 0.930 . S
C1646 O1624 1.264 . S
C1646 O1625 1.254 1_556 S
C1647 Eu1583 2.848 1_655 S
C1647 O1622 1.257 . S
C1647 O1627 1.249 . S
C1647 C1640 1.492 . S
H1648 C1631 0.930 . S
H1649 C1632 0.930 . S
H1650 C1633 0.930 . S
H1651 C1634 0.930 . S
H1652 C1641 0.930 . S
H1653 C1643 0.930 . S
H1654 C1644 0.930 . S
H1655 C1645 0.930 . S
H1656 C1664 0.959 . S
H1657 C1669 0.950 . S
H1658 C1666 0.950 . S
H1659 C1668 0.950 . S
H1660 C1670 0.956 . S
H1661 C1672 0.950 . S
H1662 C1674 0.950 . S
H1663 C1675 0.950 . S
C1664 H1656 0.959 . S
C1664 C1665 1.386 . S
C1664 C1666 1.391 1_556 S
C1665 C1664 1.386 . S
C1665 C1669 1.393 . S
C1666 H1658 0.950 . S
C1666 C1664 1.391 1_554 S
C1666 C1667 1.400 1_554 S
C1667 C1666 1.400 1_556 S
C1667 C1668 1.398 . S
C1667 C1673 1.467 1_556 S
C1668 H1659 0.950 . S
C1668 C1667 1.398 . S
C1668 C1669 1.391 . S
C1669 H1657 0.950 . S
C1669 C1665 1.393 . S
C1669 C1668 1.391 . S
C1670 H1660 0.956 . S
C1670 C1671 1.368 1_556 S
C1670 C1672 1.403 . S
C1671 C1670 1.368 1_554 S
C1671 C1675 1.393 . S
C1672 H1661 0.950 . S
C1672 C1670 1.403 . S
C1672 C1673 1.388 1_556 S
C1673 C1667 1.467 1_554 S
C1673 C1672 1.388 1_554 S
C1673 C1674 1.436 . S
C1674 H1662 0.950 . S
C1674 C1673 1.436 . S
C1674 C1675 1.391 . S
C1675 H1663 0.950 . S
C1675 C1671 1.393 . S
C1675 C1674 1.391 . S
H1676 C1684 0.950 . S
H1677 C1689 0.950 . S
H1678 C1686 0.950 . S
H1679 C1688 0.950 . S
H1680 C1690 0.950 . S
H1681 C1692 0.950 . S
H1682 C1694 0.950 . S
H1683 C1695 0.950 . S
C1684 H1676 0.950 . S
C1684 C1685 1.386 . S
C1684 C1686 1.391 . S
C1685 C1684 1.386 . S
C1685 C1689 1.393 . S
C1686 H1678 0.950 . S
C1686 C1684 1.391 . S
C1686 C1687 1.400 . S
C1687 C1686 1.400 . S
C1687 C1688 1.398 . S
C1687 C1693 1.491 . S
C1688 H1679 0.950 . S
C1688 C1687 1.398 . S
C1688 C1689 1.391 . S
C1689 H1677 0.950 . S
C1689 C1685 1.393 . S
C1689 C1688 1.391 . S
C1690 H1680 0.950 . S
C1690 C1691 1.386 . S
C1690 C1692 1.391 . S
C1691 C1690 1.386 . S
C1691 C1695 1.393 . S
C1692 H1681 0.950 . S
C1692 C1690 1.391 . S
C1692 C1693 1.400 . S
C1693 C1687 1.491 . S
C1693 C1692 1.400 . S
C1693 C1694 1.398 . S
C1694 H1682 0.950 . S
C1694 C1693 1.398 . S
C1694 C1695 1.391 . S
C1695 H1683 0.950 . S
C1695 C1691 1.393 . S
C1695 C1694 1.391 . S
H1696 C1704 0.950 . S
H1697 C1709 0.950 . S
H1698 C1706 0.950 . S
H1699 C1708 0.950 . S
H1700 C1710 0.950 . S
H1701 C1712 0.950 . S
H1702 C1714 0.950 . S
H1703 C1715 0.950 . S
C1704 H1696 0.950 . S
C1704 C1705 1.386 . S
C1704 C1706 1.391 . S
C1705 C1704 1.386 . S
C1705 C1709 1.393 . S
C1706 H1698 0.950 . S
C1706 C1704 1.391 . S
C1706 C1707 1.400 . S
C1707 C1706 1.400 . S
C1707 C1708 1.398 . S
C1707 C1713 1.491 . S
C1708 H1699 0.950 . S
C1708 C1707 1.398 . S
C1708 C1709 1.391 . S
C1709 H1697 0.950 . S
C1709 C1705 1.393 . S
C1709 C1708 1.391 . S
C1710 H1700 0.950 . S
C1710 C1711 1.386 . S
C1710 C1712 1.391 . S
C1711 C1710 1.386 . S
C1711 C1715 1.393 . S
C1712 H1701 0.950 . S
C1712 C1710 1.391 . S
C1712 C1713 1.400 . S
C1713 C1707 1.491 . S
C1713 C1712 1.400 . S
C1713 C1714 1.398 . S
C1714 H1702 0.950 . S
C1714 C1713 1.398 . S
C1714 C1715 1.391 . S
C1715 H1703 0.950 . S
C1715 C1711 1.393 . S
C1715 C1714 1.391 . S
H1716 C1724 0.950 . S
H1717 C1729 0.950 . S
H1718 C1726 0.950 . S
H1719 C1728 0.950 . S
H1720 C1730 0.950 . S
H1721 C1732 0.950 . S
H1722 C1734 0.950 . S
H1723 C1735 0.950 . S
C1724 H1716 0.950 . S
C1724 C1725 1.386 . S
C1724 C1726 1.391 . S
C1725 C1724 1.386 . S
C1725 C1729 1.393 . S
C1726 H1718 0.950 . S
C1726 C1724 1.391 . S
C1726 C1727 1.400 . S
C1727 C1726 1.400 . S
C1727 C1728 1.398 . S
C1727 C1733 1.491 . S
C1728 H1719 0.950 . S
C1728 C1727 1.398 . S
C1728 C1729 1.391 . S
C1729 H1717 0.950 . S
C1729 C1725 1.393 . S
C1729 C1728 1.391 . S
C1730 H1720 0.950 . S
C1730 C1731 1.386 . S
C1730 C1732 1.391 . S
C1731 C1730 1.386 . S
C1731 C1735 1.393 . S
C1732 H1721 0.950 . S
C1732 C1730 1.391 . S
C1732 C1733 1.400 . S
C1733 C1727 1.491 . S
C1733 C1732 1.400 . S
C1733 C1734 1.398 . S
C1734 H1722 0.950 . S
C1734 C1733 1.398 . S
C1734 C1735 1.391 . S
C1735 H1723 0.950 . S
C1735 C1731 1.393 . S
C1735 C1734 1.391 . S
H1736 C1744 0.952 1_655 S
H1737 C1749 0.950 . S
H1738 C1746 0.950 1_655 S
H1739 C1748 0.950 . S
H1740 C1750 0.950 . S
H1741 C1752 0.950 . S
H1742 C1754 0.950 . S
H1743 C1755 0.950 . S
C1744 H1736 0.952 1_455 S
C1744 C1745 1.384 . S
C1744 C1746 1.391 . S
C1745 C1744 1.384 . S
C1745 C1749 1.393 . S
C1746 H1738 0.950 1_455 S
C1746 C1744 1.391 . S
C1746 C1747 1.400 . S
C1747 C1746 1.400 . S
C1747 C1748 1.398 . S
C1747 C1753 1.491 . S
C1748 H1739 0.950 . S
C1748 C1747 1.398 . S
C1748 C1749 1.391 . S
C1749 H1737 0.950 . S
C1749 C1745 1.393 . S
C1749 C1748 1.391 . S
C1750 H1740 0.950 . S
C1750 C1751 1.386 . S
C1750 C1752 1.391 . S
C1751 C1750 1.386 . S
C1751 C1755 1.393 . S
C1752 H1741 0.950 . S
C1752 C1750 1.391 . S
C1752 C1753 1.400 . S
C1753 C1747 1.491 . S
C1753 C1752 1.400 . S
C1753 C1754 1.398 . S
C1754 H1742 0.950 . S
C1754 C1753 1.398 . S
C1754 C1755 1.391 . S
C1755 H1743 0.950 . S
C1755 C1751 1.393 . S
C1755 C1754 1.391 . S
H1756 C1764 0.950 . S
H1757 C1769 0.950 . S
H1758 C1766 0.950 . S
H1759 C1768 0.950 . S
H1760 C1770 0.950 . S
H1761 C1772 0.950 . S
H1762 C1774 0.950 . S
H1763 C1775 0.950 . S
C1764 H1756 0.950 . S
C1764 C1765 1.386 . S
C1764 C1766 1.391 . S
C1765 C1764 1.386 . S
C1765 C1769 1.393 . S
C1766 H1758 0.950 . S
C1766 C1764 1.391 . S
C1766 C1767 1.400 . S
C1767 C1766 1.400 . S
C1767 C1768 1.398 . S
C1767 C1773 1.491 . S
C1768 H1759 0.950 . S
C1768 C1767 1.398 . S
C1768 C1769 1.391 . S
C1769 H1757 0.950 . S
C1769 C1765 1.393 . S
C1769 C1768 1.391 . S
C1770 H1760 0.950 . S
C1770 C1771 1.386 . S
C1770 C1772 1.391 . S
C1771 C1770 1.386 . S
C1771 C1775 1.393 . S
C1772 H1761 0.950 . S
C1772 C1770 1.391 . S
C1772 C1773 1.400 . S
C1773 C1767 1.491 . S
C1773 C1772 1.400 . S
C1773 C1774 1.398 . S
C1774 H1762 0.950 . S
C1774 C1773 1.398 . S
C1774 C1775 1.391 . S
C1775 H1763 0.950 . S
C1775 C1771 1.393 . S
C1775 C1774 1.391 . S
H1776 C1784 0.950 . S
H1777 C1789 0.950 . S
H1778 C1786 0.950 . S
H1779 C1788 0.950 . S
H1780 C1790 0.950 . S
H1781 C1792 0.950 . S
H1782 C1794 0.950 . S
H1783 C1795 0.950 . S
C1784 H1776 0.950 . S
C1784 C1785 1.386 . S
C1784 C1786 1.391 . S
C1785 C1784 1.386 . S
C1785 C1789 1.393 . S
C1786 H1778 0.950 . S
C1786 C1784 1.391 . S
C1786 C1787 1.400 . S
C1787 C1786 1.400 . S
C1787 C1788 1.398 . S
C1787 C1793 1.491 . S
C1788 H1779 0.950 . S
C1788 C1787 1.398 . S
C1788 C1789 1.391 . S
C1789 H1777 0.950 . S
C1789 C1785 1.393 . S
C1789 C1788 1.391 . S
C1790 H1780 0.950 . S
C1790 C1791 1.386 . S
C1790 C1792 1.391 . S
C1791 C1790 1.386 . S
C1791 C1795 1.393 . S
C1792 H1781 0.950 . S
C1792 C1790 1.391 . S
C1792 C1793 1.400 . S
C1793 C1787 1.491 . S
C1793 C1792 1.400 . S
C1793 C1794 1.398 . S
C1794 H1782 0.950 . S
C1794 C1793 1.398 . S
C1794 C1795 1.391 . S
C1795 H1783 0.950 . S
C1795 C1791 1.393 . S
C1795 C1794 1.391 . S
H1796 C1804 0.950 . S
H1797 C1809 0.950 . S
H1798 C1806 0.950 . S
H1799 C1808 0.950 . S
H1800 C1810 0.950 . S
H1801 C1812 0.950 . S
H1802 C1814 0.950 . S
H1803 C1815 0.950 . S
C1804 H1796 0.950 . S
C1804 C1805 1.386 . S
C1804 C1806 1.391 . S
C1805 C1804 1.386 . S
C1805 C1809 1.393 . S
C1806 H1798 0.950 . S
C1806 C1804 1.391 . S
C1806 C1807 1.400 . S
C1807 C1806 1.400 . S
C1807 C1808 1.398 . S
C1807 C1813 1.491 . S
C1808 H1799 0.950 . S
C1808 C1807 1.398 . S
C1808 C1809 1.391 . S
C1809 H1797 0.950 . S
C1809 C1805 1.393 . S
C1809 C1808 1.391 . S
C1810 H1800 0.950 . S
C1810 C1811 1.386 . S
C1810 C1812 1.391 . S
C1811 C1810 1.386 . S
C1811 C1815 1.393 . S
C1812 H1801 0.950 . S
C1812 C1810 1.391 . S
C1812 C1813 1.400 . S
C1813 C1807 1.491 . S
C1813 C1812 1.400 . S
C1813 C1814 1.398 . S
C1814 H1802 0.950 . S
C1814 C1813 1.398 . S
C1814 C1815 1.391 . S
C1815 H1803 0.950 . S
C1815 C1811 1.393 . S
C1815 C1814 1.391 . S
H1816 C1824 0.950 . S
H1817 C1829 0.950 . S
H1818 C1826 0.950 . S
H1819 C1828 0.950 . S
H1820 C1830 0.950 . S
H1821 C1832 0.950 . S
H1822 C1834 0.950 . S
H1823 C1835 0.950 . S
C1824 H1816 0.950 . S
C1824 C1825 1.386 . S
C1824 C1826 1.391 . S
C1825 C1824 1.386 . S
C1825 C1829 1.393 . S
C1826 H1818 0.950 . S
C1826 C1824 1.391 . S
C1826 C1827 1.406 . S
C1827 C1826 1.406 . S
C1827 C1828 1.400 . S
C1827 C1833 1.483 1_655 S
C1828 H1819 0.950 . S
C1828 C1827 1.400 . S
C1828 C1829 1.391 . S
C1829 H1817 0.950 . S
C1829 C1825 1.393 . S
C1829 C1828 1.391 . S
C1830 H1820 0.950 . S
C1830 C1831 1.386 . S
C1830 C1832 1.391 . S
C1831 C1830 1.386 . S
C1831 C1835 1.393 . S
C1832 H1821 0.950 . S
C1832 C1830 1.391 . S
C1832 C1833 1.400 . S
C1833 C1827 1.483 1_455 S
C1833 C1832 1.400 . S
C1833 C1834 1.398 . S
C1834 H1822 0.950 . S
C1834 C1833 1.398 . S
C1834 C1835 1.391 . S
C1835 H1823 0.950 . S
C1835 C1831 1.393 . S
C1835 C1834 1.391 . S
H1836 C1844 0.950 . S
H1837 C1849 0.950 . S
H1838 C1846 0.950 . S
H1839 C1848 0.950 . S
H1840 C1850 0.950 . S
H1841 C1852 0.950 . S
H1842 C1854 0.950 . S
H1843 C1855 0.950 . S
C1844 H1836 0.950 . S
C1844 C1845 1.386 . S
C1844 C1846 1.391 . S
C1845 C1844 1.386 . S
C1845 C1849 1.393 . S
C1846 H1838 0.950 . S
C1846 C1844 1.391 . S
C1846 C1847 1.400 . S
C1847 C1846 1.400 . S
C1847 C1848 1.398 . S
C1847 C1853 1.491 . S
C1848 H1839 0.950 . S
C1848 C1847 1.398 . S
C1848 C1849 1.391 . S
C1849 H1837 0.950 . S
C1849 C1845 1.393 . S
C1849 C1848 1.391 . S
C1850 H1840 0.950 . S
C1850 C1851 1.386 . S
C1850 C1852 1.391 . S
C1851 C1850 1.386 . S
C1851 C1855 1.393 . S
C1852 H1841 0.950 . S
C1852 C1850 1.391 . S
C1852 C1853 1.400 . S
C1853 C1847 1.491 . S
C1853 C1852 1.400 . S
C1853 C1854 1.398 . S
C1854 H1842 0.950 . S
C1854 C1853 1.398 . S
C1854 C1855 1.391 . S
C1855 H1843 0.950 . S
C1855 C1851 1.393 . S
C1855 C1854 1.391 . S
H1856 C1864 0.963 . S
H1857 C1869 0.950 . S
H1858 C1866 0.950 1_565 S
H1859 C1868 0.950 . S
H1860 C1870 0.950 . S
H1861 C1872 0.950 . S
H1862 C1874 0.950 1_565 S
H1863 C1875 0.952 . S
C1864 H1856 0.963 . S
C1864 C1865 1.386 . S
C1864 C1866 1.391 . S
C1865 C1864 1.386 . S
C1865 C1869 1.393 . S
C1866 H1858 0.950 1_545 S
C1866 C1864 1.391 . S
C1866 C1867 1.400 . S
C1867 C1866 1.400 . S
C1867 C1868 1.398 . S
C1867 C1873 1.491 . S
C1868 H1859 0.950 . S
C1868 C1867 1.398 . S
C1868 C1869 1.391 . S
C1869 H1857 0.950 . S
C1869 C1865 1.393 . S
C1869 C1868 1.391 . S
C1870 H1860 0.950 . S
C1870 C1871 1.386 . S
C1870 C1872 1.391 . S
C1871 C1870 1.386 . S
C1871 C1875 1.390 1_545 S
C1872 H1861 0.950 . S
C1872 C1870 1.391 . S
C1872 C1873 1.400 . S
C1873 C1867 1.491 . S
C1873 C1872 1.400 . S
C1873 C1874 1.398 . S
C1874 H1862 0.950 1_545 S
C1874 C1873 1.398 . S
C1874 C1875 1.391 1_545 S
C1875 H1863 0.952 . S
C1875 C1871 1.390 1_565 S
C1875 C1874 1.391 1_565 S
H1876 C1884 0.950 . S
H1877 C1889 0.950 . S
H1878 C1886 0.950 . S
H1879 C1888 0.950 . S
H1880 C1890 0.950 . S
H1881 C1892 0.950 . S
H1882 C1894 0.950 . S
H1883 C1895 0.950 . S
C1884 H1876 0.950 . S
C1884 C1885 1.386 . S
C1884 C1886 1.391 . S
C1885 C1884 1.386 . S
C1885 C1889 1.393 . S
C1886 H1878 0.950 . S
C1886 C1884 1.391 . S
C1886 C1887 1.400 . S
C1887 C1886 1.400 . S
C1887 C1888 1.398 . S
C1887 C1893 1.491 . S
C1888 H1879 0.950 . S
C1888 C1887 1.398 . S
C1888 C1889 1.391 . S
C1889 H1877 0.950 . S
C1889 C1885 1.393 . S
C1889 C1888 1.391 . S
C1890 H1880 0.950 . S
C1890 C1891 1.386 . S
C1890 C1892 1.391 . S
C1891 C1890 1.386 . S
C1891 C1895 1.393 . S
C1892 H1881 0.950 . S
C1892 C1890 1.391 . S
C1892 C1893 1.400 . S
C1893 C1887 1.491 . S
C1893 C1892 1.400 . S
C1893 C1894 1.398 . S
C1894 H1882 0.950 . S
C1894 C1893 1.398 . S
C1894 C1895 1.391 . S
C1895 H1883 0.950 . S
C1895 C1891 1.393 . S
C1895 C1894 1.391 . S
H1896 C1904 0.950 . S
H1897 C1909 0.950 . S
H1898 C1906 0.950 . S
H1899 C1908 0.950 . S
H1900 C1910 0.950 . S
H1901 C1912 0.950 . S
H1902 C1914 0.950 . S
H1903 C1915 0.950 . S
C1904 H1896 0.950 . S
C1904 C1905 1.386 . S
C1904 C1906 1.391 1_655 S
C1905 C1904 1.386 . S
C1905 C1909 1.393 . S
C1906 H1898 0.950 . S
C1906 C1904 1.391 1_455 S
C1906 C1907 1.400 . S
C1907 C1906 1.400 . S
C1907 C1908 1.398 1_455 S
C1907 C1913 1.491 . S
C1908 H1899 0.950 . S
C1908 C1907 1.398 1_655 S
C1908 C1909 1.391 . S
C1909 H1897 0.950 . S
C1909 C1905 1.393 . S
C1909 C1908 1.391 . S
C1910 H1900 0.950 . S
C1910 C1911 1.386 . S
C1910 C1912 1.391 . S
C1911 C1910 1.386 . S
C1911 C1915 1.393 . S
C1912 H1901 0.950 . S
C1912 C1910 1.391 . S
C1912 C1913 1.400 . S
C1913 C1907 1.491 . S
C1913 C1912 1.400 . S
C1913 C1914 1.398 . S
C1914 H1902 0.950 . S
C1914 C1913 1.398 . S
C1914 C1915 1.391 . S
C1915 H1903 0.950 . S
C1915 C1911 1.393 . S
C1915 C1914 1.391 . S
H1916 C1924 0.950 . S
H1917 C1929 0.950 . S
H1918 C1926 0.950 . S
H1919 C1928 0.950 . S
H1920 C1930 0.950 . S
H1921 C1932 0.950 . S
H1922 C1934 0.950 . S
H1923 C1935 0.950 . S
C1924 H1916 0.950 . S
C1924 C1925 1.386 . S
C1924 C1926 1.391 . S
C1925 C1924 1.386 . S
C1925 C1929 1.393 . S
C1926 H1918 0.950 . S
C1926 C1924 1.391 . S
C1926 C1927 1.400 . S
C1927 C1926 1.400 . S
C1927 C1928 1.398 . S
C1927 C1933 1.491 . S
C1928 H1919 0.950 . S
C1928 C1927 1.398 . S
C1928 C1929 1.391 . S
C1929 H1917 0.950 . S
C1929 C1925 1.393 . S
C1929 C1928 1.391 . S
C1930 H1920 0.950 . S
C1930 C1931 1.386 . S
C1930 C1932 1.391 . S
C1931 C1930 1.386 . S
C1931 C1935 1.393 . S
C1932 H1921 0.950 . S
C1932 C1930 1.391 . S
C1932 C1933 1.400 . S
C1933 C1927 1.491 . S
C1933 C1932 1.400 . S
C1933 C1934 1.398 . S
C1934 H1922 0.950 . S
C1934 C1933 1.398 . S
C1934 C1935 1.391 . S
C1935 H1923 0.950 . S
C1935 C1931 1.393 . S
C1935 C1934 1.391 . S
H1936 C1944 0.950 . S
H1937 C1949 0.950 . S
H1938 C1946 0.950 . S
H1939 C1948 0.950 . S
H1940 C1950 0.950 . S
H1941 C1952 0.950 . S
H1942 C1954 0.950 . S
H1943 C1955 0.950 . S
C1944 H1936 0.950 . S
C1944 C1945 1.386 . S
C1944 C1946 1.391 . S
C1945 C1944 1.386 . S
C1945 C1949 1.393 . S
C1946 H1938 0.950 . S
C1946 C1944 1.391 . S
C1946 C1947 1.400 . S
C1947 C1946 1.400 . S
C1947 C1948 1.398 . S
C1947 C1953 1.491 . S
C1948 H1939 0.950 . S
C1948 C1947 1.398 . S
C1948 C1949 1.391 . S
C1949 H1937 0.950 . S
C1949 C1945 1.393 . S
C1949 C1948 1.391 . S
C1950 H1940 0.950 . S
C1950 C1951 1.386 . S
C1950 C1952 1.391 . S
C1951 C1950 1.386 . S
C1951 C1955 1.393 . S
C1952 H1941 0.950 . S
C1952 C1950 1.391 . S
C1952 C1953 1.400 . S
C1953 C1947 1.491 . S
C1953 C1952 1.400 . S
C1953 C1954 1.398 . S
C1954 H1942 0.950 . S
C1954 C1953 1.398 . S
C1954 C1955 1.391 . S
C1955 H1943 0.950 . S
C1955 C1951 1.393 . S
C1955 C1954 1.391 . S
H1956 C1964 0.950 . S
H1957 C1969 0.950 . S
H1958 C1966 0.950 . S
H1959 C1968 0.950 . S
H1960 C1970 0.950 . S
H1961 C1972 0.950 . S
H1962 C1974 0.950 . S
H1963 C1975 0.950 . S
C1964 H1956 0.950 . S
C1964 C1965 1.386 . S
C1964 C1966 1.391 . S
C1965 C1964 1.386 . S
C1965 C1969 1.393 . S
C1966 H1958 0.950 . S
C1966 C1964 1.391 . S
C1966 C1967 1.400 . S
C1967 C1966 1.400 . S
C1967 C1968 1.398 . S
C1967 C1973 1.491 . S
C1968 H1959 0.950 . S
C1968 C1967 1.398 . S
C1968 C1969 1.391 . S
C1969 H1957 0.950 . S
C1969 C1965 1.393 . S
C1969 C1968 1.391 . S
C1970 H1960 0.950 . S
C1970 C1971 1.386 . S
C1970 C1972 1.391 . S
C1971 C1970 1.386 . S
C1971 C1975 1.393 . S
C1972 H1961 0.950 . S
C1972 C1970 1.391 . S
C1972 C1973 1.400 . S
C1973 C1967 1.491 . S
C1973 C1972 1.400 . S
C1973 C1974 1.398 . S
C1974 H1962 0.950 . S
C1974 C1973 1.398 . S
C1974 C1975 1.391 . S
C1975 H1963 0.950 . S
C1975 C1971 1.393 . S
C1975 C1974 1.391 . S
H1976 C1984 0.950 . S
H1977 C1989 0.950 . S
H1978 C1986 0.950 1_545 S
H1979 C1988 0.950 . S
H1980 C1990 0.950 . S
H1981 C1992 0.950 . S
H1982 C1994 0.950 . S
H1983 C1995 0.950 . S
C1984 H1976 0.950 . S
C1984 C1985 1.386 . S
C1984 C1986 1.391 . S
C1985 C1984 1.386 . S
C1985 C1989 1.393 . S
C1986 H1978 0.950 1_565 S
C1986 C1984 1.391 . S
C1986 C1987 1.400 . S
C1987 C1986 1.400 . S
C1987 C1988 1.398 . S
C1987 C1993 1.491 . S
C1988 H1979 0.950 . S
C1988 C1987 1.398 . S
C1988 C1989 1.391 . S
C1989 H1977 0.950 . S
C1989 C1985 1.393 . S
C1989 C1988 1.391 . S
C1990 H1980 0.950 . S
C1990 C1991 1.386 1_565 S
C1990 C1992 1.391 . S
C1991 C1990 1.386 1_545 S
C1991 C1995 1.393 . S
C1992 H1981 0.950 . S
C1992 C1990 1.391 . S
C1992 C1993 1.400 . S
C1993 C1987 1.491 . S
C1993 C1992 1.400 . S
C1993 C1994 1.398 1_565 S
C1994 H1982 0.950 . S
C1994 C1993 1.398 1_545 S
C1994 C1995 1.391 . S
C1995 H1983 0.950 . S
C1995 C1991 1.393 . S
C1995 C1994 1.391 . S
H1996 C2004 0.950 . S
H1997 C2009 0.950 . S
H1998 C2006 0.950 . S
H1999 C2008 0.950 . S
H2000 C2010 0.950 . S
H2001 C2012 0.950 . S
H2002 C2014 0.950 . S
H2003 C2015 0.950 . S
C2004 H1996 0.950 . S
C2004 C2005 1.386 1_554 S
C2004 C2006 1.391 . S
C2005 C2004 1.386 1_556 S
C2005 C2009 1.393 . S
C2006 H1998 0.950 . S
C2006 C2004 1.391 . S
C2006 C2007 1.400 1_554 S
C2007 C2006 1.400 1_556 S
C2007 C2008 1.398 . S
C2007 C2013 1.491 . S
C2008 H1999 0.950 . S
C2008 C2007 1.398 . S
C2008 C2009 1.391 . S
C2009 H1997 0.950 . S
C2009 C2005 1.393 . S
C2009 C2008 1.391 . S
C2010 H2000 0.950 . S
C2010 C2011 1.386 . S
C2010 C2012 1.391 . S
C2011 C2010 1.386 . S
C2011 C2015 1.393 1_556 S
C2012 H2001 0.950 . S
C2012 C2010 1.391 . S
C2012 C2013 1.400 . S
C2013 C2007 1.491 . S
C2013 C2012 1.400 . S
C2013 C2014 1.398 1_556 S
C2014 H2002 0.950 . S
C2014 C2013 1.398 1_554 S
C2014 C2015 1.391 . S
C2015 H2003 0.950 . S
C2015 C2011 1.393 1_554 S
C2015 C2014 1.391 . S
H2016 C2024 0.950 . S
H2017 C2029 0.950 . S
H2018 C2026 0.950 . S
H2019 C2028 0.950 . S
H2020 C2030 0.950 . S
H2021 C2032 0.950 . S
H2022 C2034 0.950 . S
H2023 C2035 0.950 . S
C2024 H2016 0.950 . S
C2024 C2025 1.386 . S
C2024 C2026 1.391 . S
C2025 C2024 1.386 . S
C2025 C2029 1.393 . S
C2026 H2018 0.950 . S
C2026 C2024 1.391 . S
C2026 C2027 1.400 . S
C2027 C2026 1.400 . S
C2027 C2028 1.398 . S
C2027 C2033 1.491 . S
C2028 H2019 0.950 . S
C2028 C2027 1.398 . S
C2028 C2029 1.391 . S
C2029 H2017 0.950 . S
C2029 C2025 1.393 . S
C2029 C2028 1.391 . S
C2030 H2020 0.950 . S
C2030 C2031 1.386 . S
C2030 C2032 1.391 . S
C2031 C2030 1.386 . S
C2031 C2035 1.393 . S
C2032 H2021 0.950 . S
C2032 C2030 1.391 . S
C2032 C2033 1.400 . S
C2033 C2027 1.491 . S
C2033 C2032 1.400 . S
C2033 C2034 1.398 . S
C2034 H2022 0.950 . S
C2034 C2033 1.398 . S
C2034 C2035 1.391 . S
C2035 H2023 0.950 . S
C2035 C2031 1.393 . S
C2035 C2034 1.391 . S
H2036 C2044 0.950 . S
H2037 C2049 0.950 . S
H2038 C2046 0.950 . S
H2039 C2048 0.950 . S
H2040 C2050 0.950 1_455 S
H2041 C2052 0.950 . S
H2042 C2054 0.950 . S
H2043 C2055 0.950 . S
C2044 H2036 0.950 . S
C2044 C2045 1.386 . S
C2044 C2046 1.391 . S
C2045 C2044 1.386 . S
C2045 C2049 1.393 . S
C2046 H2038 0.950 . S
C2046 C2044 1.391 . S
C2046 C2047 1.400 . S
C2047 C2046 1.400 . S
C2047 C2048 1.398 . S
C2047 C2053 1.491 . S
C2048 H2039 0.950 . S
C2048 C2047 1.398 . S
C2048 C2049 1.391 . S
C2049 H2037 0.950 . S
C2049 C2045 1.393 . S
C2049 C2048 1.391 . S
C2050 H2040 0.950 1_655 S
C2050 C2051 1.386 . S
C2050 C2052 1.391 . S
C2051 C2050 1.386 . S
C2051 C2055 1.393 . S
C2052 H2041 0.950 . S
C2052 C2050 1.391 . S
C2052 C2053 1.400 . S
C2053 C2047 1.491 . S
C2053 C2052 1.400 . S
C2053 C2054 1.398 . S
C2054 H2042 0.950 . S
C2054 C2053 1.398 . S
C2054 C2055 1.391 . S
C2055 H2043 0.950 . S
C2055 C2051 1.393 . S
C2055 C2054 1.391 . S
H2056 C2064 0.950 . S
H2057 C2069 0.950 . S
H2058 C2066 0.950 . S
H2059 C2068 0.950 . S
H2060 C2070 0.950 . S
H2061 C2072 0.950 . S
H2062 C2074 0.950 . S
H2063 C2075 0.950 . S
C2064 H2056 0.950 . S
C2064 C2065 1.386 . S
C2064 C2066 1.391 . S
C2065 C2064 1.386 . S
C2065 C2069 1.393 . S
C2066 H2058 0.950 . S
C2066 C2064 1.391 . S
C2066 C2067 1.400 . S
C2067 C2066 1.400 . S
C2067 C2068 1.398 . S
C2067 C2073 1.491 . S
C2068 H2059 0.950 . S
C2068 C2067 1.398 . S
C2068 C2069 1.391 . S
C2069 H2057 0.950 . S
C2069 C2065 1.393 . S
C2069 C2068 1.391 . S
C2070 H2060 0.950 . S
C2070 C2071 1.386 . S
C2070 C2072 1.391 . S
C2071 C2070 1.386 . S
C2071 C2075 1.393 . S
C2072 H2061 0.950 . S
C2072 C2070 1.391 . S
C2072 C2073 1.400 . S
C2073 C2067 1.491 . S
C2073 C2072 1.400 . S
C2073 C2074 1.398 . S
C2074 H2062 0.950 . S
C2074 C2073 1.398 . S
C2074 C2075 1.391 . S
C2075 H2063 0.950 . S
C2075 C2071 1.393 . S
C2075 C2074 1.391 . S
H2076 C2084 0.950 . S
H2077 C2089 0.950 . S
H2078 C2086 0.950 . S
H2079 C2088 0.950 . S
H2080 C2090 0.950 . S
H2081 C2092 0.950 . S
H2082 C2094 0.950 . S
H2083 C2095 0.950 . S
C2084 H2076 0.950 . S
C2084 C2085 1.386 . S
C2084 C2086 1.391 . S
C2085 C2084 1.386 . S
C2085 C2089 1.393 . S
C2086 H2078 0.950 . S
C2086 C2084 1.391 . S
C2086 C2087 1.400 . S
C2087 C2086 1.400 . S
C2087 C2088 1.398 . S
C2087 C2093 1.491 . S
C2088 H2079 0.950 . S
C2088 C2087 1.398 . S
C2088 C2089 1.391 . S
C2089 H2077 0.950 . S
C2089 C2085 1.393 . S
C2089 C2088 1.391 . S
C2090 H2080 0.950 . S
C2090 C2091 1.386 . S
C2090 C2092 1.391 . S
C2091 C2090 1.386 . S
C2091 C2095 1.393 . S
C2092 H2081 0.950 . S
C2092 C2090 1.391 . S
C2092 C2093 1.400 . S
C2093 C2087 1.491 . S
C2093 C2092 1.400 . S
C2093 C2094 1.398 . S
C2094 H2082 0.950 . S
C2094 C2093 1.398 . S
C2094 C2095 1.391 . S
C2095 H2083 0.950 . S
C2095 C2091 1.393 . S
C2095 C2094 1.391 . S
H2096 C2104 0.950 . S
H2097 C2109 0.950 . S
H2098 C2106 0.950 . S
H2099 C2108 0.950 . S
H2100 C2110 0.950 . S
H2101 C2112 0.950 . S
H2102 C2114 0.950 . S
H2103 C2115 0.950 . S
C2104 H2096 0.950 . S
C2104 C2105 1.386 . S
C2104 C2106 1.391 . S
C2105 C2104 1.386 . S
C2105 C2109 1.393 . S
C2106 H2098 0.950 . S
C2106 C2104 1.391 . S
C2106 C2107 1.400 . S
C2107 C2106 1.400 . S
C2107 C2108 1.398 . S
C2107 C2113 1.491 . S
C2108 H2099 0.950 . S
C2108 C2107 1.398 . S
C2108 C2109 1.391 . S
C2109 H2097 0.950 . S
C2109 C2105 1.393 . S
C2109 C2108 1.391 . S
C2110 H2100 0.950 . S
C2110 C2111 1.386 . S
C2110 C2112 1.391 . S
C2111 C2110 1.386 . S
C2111 C2115 1.393 . S
C2112 H2101 0.950 . S
C2112 C2110 1.391 . S
C2112 C2113 1.400 . S
C2113 C2107 1.491 . S
C2113 C2112 1.400 . S
C2113 C2114 1.398 . S
C2114 H2102 0.950 . S
C2114 C2113 1.398 . S
C2114 C2115 1.391 . S
C2115 H2103 0.950 . S
C2115 C2111 1.393 . S
C2115 C2114 1.391 . S
H2116 C2124 0.950 . S
H2117 C2129 0.950 . S
H2118 C2126 0.950 . S
H2119 C2128 0.950 . S
H2120 C2130 0.950 . S
H2121 C2132 0.950 . S
H2122 C2134 0.950 . S
H2123 C2135 0.950 . S
C2124 H2116 0.950 . S
C2124 C2125 1.386 . S
C2124 C2126 1.391 . S
C2125 C2124 1.386 . S
C2125 C2129 1.393 . S
C2126 H2118 0.950 . S
C2126 C2124 1.391 . S
C2126 C2127 1.400 . S
C2127 C2126 1.400 . S
C2127 C2128 1.398 . S
C2127 C2133 1.491 . S
C2128 H2119 0.950 . S
C2128 C2127 1.398 . S
C2128 C2129 1.391 . S
C2129 H2117 0.950 . S
C2129 C2125 1.393 . S
C2129 C2128 1.391 . S
C2130 H2120 0.950 . S
C2130 C2131 1.386 . S
C2130 C2132 1.391 . S
C2131 C2130 1.386 . S
C2131 C2135 1.393 . S
C2132 H2121 0.950 . S
C2132 C2130 1.391 . S
C2132 C2133 1.400 . S
C2133 C2127 1.491 . S
C2133 C2132 1.400 . S
C2133 C2134 1.398 . S
C2134 H2122 0.950 . S
C2134 C2133 1.398 . S
C2134 C2135 1.391 . S
C2135 H2123 0.950 . S
C2135 C2131 1.393 . S
C2135 C2134 1.391 . S
H2136 C2144 0.950 . S
H2137 C2149 0.950 . S
H2138 C2146 0.950 . S
H2139 C2148 0.950 . S
H2140 C2150 0.950 . S
H2141 C2152 0.950 . S
H2142 C2154 0.950 . S
H2143 C2155 0.950 . S
C2144 H2136 0.950 . S
C2144 C2145 1.386 . S
C2144 C2146 1.391 . S
C2145 C2144 1.386 . S
C2145 C2149 1.393 . S
C2146 H2138 0.950 . S
C2146 C2144 1.391 . S
C2146 C2147 1.400 . S
C2147 C2146 1.400 . S
C2147 C2148 1.398 . S
C2147 C2153 1.491 . S
C2148 H2139 0.950 . S
C2148 C2147 1.398 . S
C2148 C2149 1.391 . S
C2149 H2137 0.950 . S
C2149 C2145 1.393 . S
C2149 C2148 1.391 . S
C2150 H2140 0.950 . S
C2150 C2151 1.386 . S
C2150 C2152 1.391 . S
C2151 C2150 1.386 . S
C2151 C2155 1.393 . S
C2152 H2141 0.950 . S
C2152 C2150 1.391 . S
C2152 C2153 1.400 . S
C2153 C2147 1.491 . S
C2153 C2152 1.400 . S
C2153 C2154 1.398 . S
C2154 H2142 0.950 . S
C2154 C2153 1.398 . S
C2154 C2155 1.391 . S
C2155 H2143 0.950 . S
C2155 C2151 1.393 . S
C2155 C2154 1.391 . S
H2156 C2164 0.950 . S
H2157 C2169 0.950 . S
H2158 C2166 0.950 . S
H2159 C2168 0.950 . S
H2160 C2170 0.950 . S
H2161 C2172 0.950 . S
H2162 C2174 0.950 . S
H2163 C2175 0.950 . S
C2164 H2156 0.950 . S
C2164 C2165 1.386 . S
C2164 C2166 1.391 . S
C2165 C2164 1.386 . S
C2165 C2169 1.393 . S
C2166 H2158 0.950 . S
C2166 C2164 1.391 . S
C2166 C2167 1.400 . S
C2167 C2166 1.400 . S
C2167 C2168 1.398 . S
C2167 C2173 1.491 . S
C2168 H2159 0.950 . S
C2168 C2167 1.398 . S
C2168 C2169 1.391 . S
C2169 H2157 0.950 . S
C2169 C2165 1.393 . S
C2169 C2168 1.391 . S
C2170 H2160 0.950 . S
C2170 C2171 1.386 . S
C2170 C2172 1.391 . S
C2171 C2170 1.386 . S
C2171 C2175 1.393 . S
C2172 H2161 0.950 . S
C2172 C2170 1.391 . S
C2172 C2173 1.400 . S
C2173 C2167 1.491 . S
C2173 C2172 1.400 . S
C2173 C2174 1.398 . S
C2174 H2162 0.950 . S
C2174 C2173 1.398 . S
C2174 C2175 1.391 . S
C2175 H2163 0.950 . S
C2175 C2171 1.393 . S
C2175 C2174 1.391 . S
H2176 C2184 0.950 . S
H2177 C2189 0.950 . S
H2178 C2186 0.950 . S
H2179 C2188 0.950 . S
H2180 C2190 0.950 . S
H2181 C2192 0.950 . S
H2182 C2194 0.950 . S
H2183 C2195 0.950 . S
C2184 H2176 0.950 . S
C2184 C2185 1.386 . S
C2184 C2186 1.391 . S
C2185 C2184 1.386 . S
C2185 C2189 1.393 . S
C2186 H2178 0.950 . S
C2186 C2184 1.391 . S
C2186 C2187 1.400 . S
C2187 C2186 1.400 . S
C2187 C2188 1.398 . S
C2187 C2193 1.491 . S
C2188 H2179 0.950 . S
C2188 C2187 1.398 . S
C2188 C2189 1.391 . S
C2189 H2177 0.950 . S
C2189 C2185 1.393 . S
C2189 C2188 1.391 . S
C2190 H2180 0.950 . S
C2190 C2191 1.386 . S
C2190 C2192 1.391 . S
C2191 C2190 1.386 . S
C2191 C2195 1.393 . S
C2192 H2181 0.950 . S
C2192 C2190 1.391 . S
C2192 C2193 1.400 . S
C2193 C2187 1.491 . S
C2193 C2192 1.400 . S
C2193 C2194 1.398 . S
C2194 H2182 0.950 . S
C2194 C2193 1.398 . S
C2194 C2195 1.391 . S
C2195 H2183 0.950 . S
C2195 C2191 1.393 . S
C2195 C2194 1.391 . S
H2196 C2204 0.950 . S
H2197 C2209 0.950 . S
H2198 C2206 0.950 . S
H2199 C2208 0.950 . S
H2200 C2210 0.950 . S
H2201 C2212 0.950 . S
H2202 C2214 0.950 . S
H2203 C2215 0.950 . S
C2204 H2196 0.950 . S
C2204 C2205 1.386 . S
C2204 C2206 1.391 . S
C2205 C2204 1.386 . S
C2205 C2209 1.393 . S
C2206 H2198 0.950 . S
C2206 C2204 1.391 . S
C2206 C2207 1.400 . S
C2207 C2206 1.400 . S
C2207 C2208 1.398 . S
C2207 C2213 1.491 . S
C2208 H2199 0.950 . S
C2208 C2207 1.398 . S
C2208 C2209 1.391 . S
C2209 H2197 0.950 . S
C2209 C2205 1.393 . S
C2209 C2208 1.391 . S
C2210 H2200 0.950 . S
C2210 C2211 1.386 . S
C2210 C2212 1.391 . S
C2211 C2210 1.386 . S
C2211 C2215 1.393 . S
C2212 H2201 0.950 . S
C2212 C2210 1.391 . S
C2212 C2213 1.400 . S
C2213 C2207 1.491 . S
C2213 C2212 1.400 . S
C2213 C2214 1.398 . S
C2214 H2202 0.950 . S
C2214 C2213 1.398 . S
C2214 C2215 1.391 . S
C2215 H2203 0.950 . S
C2215 C2211 1.393 . S
C2215 C2214 1.391 . S
H2216 C2224 0.950 . S
H2217 C2229 0.950 . S
H2218 C2226 0.950 . S
H2219 C2228 0.950 . S
H2220 C2230 0.950 . S
H2221 C2232 0.950 . S
H2222 C2234 0.950 . S
H2223 C2235 0.950 . S
C2224 H2216 0.950 . S
C2224 C2225 1.386 . S
C2224 C2226 1.391 . S
C2225 C2224 1.386 . S
C2225 C2229 1.393 . S
C2226 H2218 0.950 . S
C2226 C2224 1.391 . S
C2226 C2227 1.400 . S
C2227 C2226 1.400 . S
C2227 C2228 1.398 . S
C2227 C2233 1.491 . S
C2228 H2219 0.950 . S
C2228 C2227 1.398 . S
C2228 C2229 1.391 . S
C2229 H2217 0.950 . S
C2229 C2225 1.393 . S
C2229 C2228 1.391 . S
C2230 H2220 0.950 . S
C2230 C2231 1.386 . S
C2230 C2232 1.391 . S
C2231 C2230 1.386 . S
C2231 C2235 1.393 . S
C2232 H2221 0.950 . S
C2232 C2230 1.391 . S
C2232 C2233 1.400 . S
C2233 C2227 1.491 . S
C2233 C2232 1.400 . S
C2233 C2234 1.398 . S
C2234 H2222 0.950 . S
C2234 C2233 1.398 . S
C2234 C2235 1.391 . S
C2235 H2223 0.950 . S
C2235 C2231 1.393 . S
C2235 C2234 1.391 . S
H2236 C2244 0.950 . S
H2237 C2249 0.950 . S
H2238 C2246 0.950 . S
H2239 C2248 0.950 . S
H2240 C2250 0.950 . S
H2241 C2252 0.950 . S
H2242 C2254 0.950 . S
H2243 C2255 0.950 . S
C2244 H2236 0.950 . S
C2244 C2245 1.386 . S
C2244 C2246 1.391 . S
C2245 C2244 1.386 . S
C2245 C2249 1.393 . S
C2246 H2238 0.950 . S
C2246 C2244 1.391 . S
C2246 C2247 1.400 . S
C2247 C2246 1.400 . S
C2247 C2248 1.398 . S
C2247 C2253 1.491 . S
C2248 H2239 0.950 . S
C2248 C2247 1.398 . S
C2248 C2249 1.391 . S
C2249 H2237 0.950 . S
C2249 C2245 1.393 . S
C2249 C2248 1.391 . S
C2250 H2240 0.950 . S
C2250 C2251 1.386 . S
C2250 C2252 1.391 . S
C2251 C2250 1.386 . S
C2251 C2255 1.393 . S
C2252 H2241 0.950 . S
C2252 C2250 1.391 . S
C2252 C2253 1.400 . S
C2253 C2247 1.491 . S
C2253 C2252 1.400 . S
C2253 C2254 1.398 . S
C2254 H2242 0.950 . S
C2254 C2253 1.398 . S
C2254 C2255 1.391 . S
C2255 H2243 0.950 . S
C2255 C2251 1.393 . S
C2255 C2254 1.391 . S
H2256 C2264 0.950 . S
H2257 C2269 0.950 . S
H2258 C2266 0.950 . S
H2259 C2268 0.950 . S
H2260 C2270 0.974 . S
H2261 C2272 0.950 . S
H2262 C2274 0.950 . S
H2263 C2275 0.950 1_545 S
C2264 H2256 0.950 . S
C2264 C2265 1.386 . S
C2264 C2266 1.391 . S
C2265 C2264 1.386 . S
C2265 C2269 1.393 . S
C2266 H2258 0.950 . S
C2266 C2264 1.391 . S
C2266 C2267 1.400 . S
C2267 C2266 1.400 . S
C2267 C2268 1.398 . S
C2267 C2273 1.491 . S
C2268 H2259 0.950 . S
C2268 C2267 1.398 . S
C2268 C2269 1.391 . S
C2269 H2257 0.950 . S
C2269 C2265 1.393 . S
C2269 C2268 1.391 . S
C2270 H2260 0.974 . S
C2270 C2271 1.386 . S
C2270 C2272 1.391 . S
C2271 C2270 1.386 . S
C2271 C2275 1.393 . S
C2272 H2261 0.950 . S
C2272 C2270 1.391 . S
C2272 C2273 1.400 . S
C2273 C2267 1.491 . S
C2273 C2272 1.400 . S
C2273 C2274 1.398 . S
C2274 H2262 0.950 . S
C2274 C2273 1.398 . S
C2274 C2275 1.391 . S
C2275 H2263 0.950 1_565 S
C2275 C2271 1.393 . S
C2275 C2274 1.391 . S
H2276 C2284 0.950 . S
H2277 C2289 0.950 . S
H2278 C2286 0.950 . S
H2279 C2288 0.950 . S
H2280 C2290 0.950 . S
H2281 C2292 0.950 . S
H2282 C2294 0.950 . S
H2283 C2295 0.950 . S
C2284 H2276 0.950 . S
C2284 C2285 1.386 . S
C2284 C2286 1.391 . S
C2285 C2284 1.386 . S
C2285 C2289 1.393 . S
C2286 H2278 0.950 . S
C2286 C2284 1.391 . S
C2286 C2287 1.400 . S
C2287 C2286 1.400 . S
C2287 C2288 1.398 . S
C2287 C2293 1.491 . S
C2288 H2279 0.950 . S
C2288 C2287 1.398 . S
C2288 C2289 1.391 . S
C2289 H2277 0.950 . S
C2289 C2285 1.393 . S
C2289 C2288 1.391 . S
C2290 H2280 0.950 . S
C2290 C2291 1.386 . S
C2290 C2292 1.391 . S
C2291 C2290 1.386 . S
C2291 C2295 1.393 . S
C2292 H2281 0.950 . S
C2292 C2290 1.391 . S
C2292 C2293 1.400 . S
C2293 C2287 1.491 . S
C2293 C2292 1.400 . S
C2293 C2294 1.398 . S
C2294 H2282 0.950 . S
C2294 C2293 1.398 . S
C2294 C2295 1.391 . S
C2295 H2283 0.950 . S
C2295 C2291 1.393 . S
C2295 C2294 1.391 . S
H2296 C2304 0.950 . S
H2297 C2309 0.950 . S
H2298 C2306 0.941 1_565 S
H2299 C2308 0.950 . S
H2300 C2310 0.950 . S
H2301 C2312 0.950 . S
H2302 C2314 0.950 1_565 S
H2303 C2315 0.950 1_565 S
C2304 H2296 0.950 . S
C2304 C2305 1.386 1_565 S
C2304 C2306 1.391 1_565 S
C2305 C2304 1.386 1_545 S
C2305 C2309 1.393 . S
C2306 H2298 0.941 1_545 S
C2306 C2304 1.391 1_545 S
C2306 C2307 1.409 . S
C2307 C2306 1.409 . S
C2307 C2308 1.398 . S
C2307 C2313 1.491 . S
C2308 H2299 0.950 . S
C2308 C2307 1.398 . S
C2308 C2309 1.391 . S
C2309 H2297 0.950 . S
C2309 C2305 1.393 . S
C2309 C2308 1.391 . S
C2310 H2300 0.950 . S
C2310 C2311 1.386 . S
C2310 C2312 1.391 . S
C2311 C2310 1.386 . S
C2311 C2315 1.393 . S
C2312 H2301 0.950 . S
C2312 C2310 1.391 . S
C2312 C2313 1.400 . S
C2313 C2307 1.491 . S
C2313 C2312 1.400 . S
C2313 C2314 1.398 . S
C2314 H2302 0.950 1_545 S
C2314 C2313 1.398 . S
C2314 C2315 1.391 . S
C2315 H2303 0.950 1_545 S
C2315 C2311 1.393 . S
C2315 C2314 1.391 . S
H2316 C2324 0.950 . S
H2317 C2329 0.950 . S
H2318 C2326 0.950 . S
H2319 C2328 0.950 . S
H2320 C2330 0.950 . S
H2321 C2332 0.950 . S
H2322 C2334 0.950 . S
H2323 C2335 0.950 . S
C2324 H2316 0.950 . S
C2324 C2325 1.386 . S
C2324 C2326 1.391 . S
C2325 C2324 1.386 . S
C2325 C2329 1.393 . S
C2326 H2318 0.950 . S
C2326 C2324 1.391 . S
C2326 C2327 1.400 . S
C2327 C2326 1.400 . S
C2327 C2328 1.398 . S
C2327 C2333 1.491 . S
C2328 H2319 0.950 . S
C2328 C2327 1.398 . S
C2328 C2329 1.391 . S
C2329 H2317 0.950 . S
C2329 C2325 1.393 . S
C2329 C2328 1.391 . S
C2330 H2320 0.950 . S
C2330 C2331 1.386 . S
C2330 C2332 1.391 . S
C2331 C2330 1.386 . S
C2331 C2335 1.393 . S
C2332 H2321 0.950 . S
C2332 C2330 1.391 . S
C2332 C2333 1.400 . S
C2333 C2327 1.491 . S
C2333 C2332 1.400 . S
C2333 C2334 1.398 . S
C2334 H2322 0.950 . S
C2334 C2333 1.398 . S
C2334 C2335 1.391 . S
C2335 H2323 0.950 . S
C2335 C2331 1.393 . S
C2335 C2334 1.391 . S
H2336 C2344 0.950 . S
H2337 C2349 0.972 . S
H2338 C2346 0.950 . S
H2339 C2348 0.950 . S
H2340 C2350 0.950 . S
H2341 C2352 0.950 . S
H2342 C2354 0.950 . S
H2343 C2355 0.950 . S
C2344 H2336 0.950 . S
C2344 C2345 1.386 . S
C2344 C2346 1.391 . S
C2345 C2344 1.386 . S
C2345 C2349 1.393 . S
C2346 H2338 0.950 . S
C2346 C2344 1.391 . S
C2346 C2347 1.400 . S
C2347 C2346 1.400 . S
C2347 C2348 1.398 . S
C2347 C2353 1.491 . S
C2348 H2339 0.950 . S
C2348 C2347 1.398 . S
C2348 C2349 1.391 . S
C2349 H2337 0.972 . S
C2349 C2345 1.393 . S
C2349 C2348 1.391 . S
C2350 H2340 0.950 . S
C2350 C2351 1.386 . S
C2350 C2352 1.391 . S
C2351 C2350 1.386 . S
C2351 C2355 1.393 . S
C2352 H2341 0.950 . S
C2352 C2350 1.391 . S
C2352 C2353 1.400 . S
C2353 C2347 1.491 . S
C2353 C2352 1.400 . S
C2353 C2354 1.398 . S
C2354 H2342 0.950 . S
C2354 C2353 1.398 . S
C2354 C2355 1.391 . S
C2355 H2343 0.950 . S
C2355 C2351 1.393 . S
C2355 C2354 1.391 . S
H2356 C2364 0.950 . S
H2357 C2369 0.950 . S
H2358 C2366 0.950 . S
H2359 C2368 0.950 . S
H2360 C2370 0.950 . S
H2361 C2372 0.950 . S
H2362 C2374 0.950 . S
H2363 C2375 0.950 . S
C2364 H2356 0.950 . S
C2364 C2365 1.386 . S
C2364 C2366 1.391 . S
C2365 C2364 1.386 . S
C2365 C2369 1.393 . S
C2366 H2358 0.950 . S
C2366 C2364 1.391 . S
C2366 C2367 1.400 . S
C2367 C2366 1.400 . S
C2367 C2368 1.398 . S
C2367 C2373 1.491 . S
C2368 H2359 0.950 . S
C2368 C2367 1.398 . S
C2368 C2369 1.391 . S
C2369 H2357 0.950 . S
C2369 C2365 1.393 . S
C2369 C2368 1.391 . S
C2370 H2360 0.950 . S
C2370 C2371 1.386 . S
C2370 C2372 1.391 . S
C2371 C2370 1.386 . S
C2371 C2375 1.393 . S
C2372 H2361 0.950 . S
C2372 C2370 1.391 . S
C2372 C2373 1.400 . S
C2373 C2367 1.491 . S
C2373 C2372 1.400 . S
C2373 C2374 1.398 . S
C2374 H2362 0.950 . S
C2374 C2373 1.398 . S
C2374 C2375 1.391 . S
C2375 H2363 0.950 . S
C2375 C2371 1.393 . S
C2375 C2374 1.391 . S
H2376 C2384 0.950 . S
H2377 C2389 0.950 . S
H2378 C2386 0.950 . S
H2379 C2388 0.950 . S
H2380 C2390 0.950 . S
H2381 C2392 0.950 . S
H2382 C2394 0.950 . S
H2383 C2395 0.950 . S
C2384 H2376 0.950 . S
C2384 C2385 1.386 . S
C2384 C2386 1.391 . S
C2385 C2384 1.386 . S
C2385 C2389 1.393 1_565 S
C2386 H2378 0.950 . S
C2386 C2384 1.391 . S
C2386 C2387 1.392 1_565 S
C2387 C2386 1.392 1_545 S
C2387 C2388 1.402 . S
C2387 C2393 1.495 . S
C2388 H2379 0.950 . S
C2388 C2387 1.402 . S
C2388 C2389 1.391 . S
C2389 H2377 0.950 . S
C2389 C2385 1.393 1_545 S
C2389 C2388 1.391 . S
C2390 H2380 0.950 . S
C2390 C2391 1.386 . S
C2390 C2392 1.391 . S
C2391 C2390 1.386 . S
C2391 C2395 1.393 1_545 S
C2392 H2381 0.950 . S
C2392 C2390 1.391 . S
C2392 C2393 1.400 . S
C2393 C2387 1.495 . S
C2393 C2392 1.400 . S
C2393 C2394 1.398 1_545 S
C2394 H2382 0.950 . S
C2394 C2393 1.398 1_565 S
C2394 C2395 1.391 . S
C2395 H2383 0.950 . S
C2395 C2391 1.393 1_565 S
C2395 C2394 1.391 . S
H2396 C2404 0.950 . S
H2397 C2409 0.950 . S
H2398 C2406 0.950 . S
H2399 C2408 0.950 . S
H2400 C2410 0.950 . S
H2401 C2412 0.950 . S
H2402 C2414 0.950 . S
H2403 C2415 0.950 . S
C2404 H2396 0.950 . S
C2404 C2405 1.386 . S
C2404 C2406 1.391 . S
C2405 C2404 1.386 . S
C2405 C2409 1.393 . S
C2406 H2398 0.950 . S
C2406 C2404 1.391 . S
C2406 C2407 1.400 . S
C2407 C2406 1.400 . S
C2407 C2408 1.398 . S
C2407 C2413 1.491 . S
C2408 H2399 0.950 . S
C2408 C2407 1.398 . S
C2408 C2409 1.391 . S
C2409 H2397 0.950 . S
C2409 C2405 1.393 . S
C2409 C2408 1.391 . S
C2410 H2400 0.950 . S
C2410 C2411 1.386 . S
C2410 C2412 1.391 . S
C2411 C2410 1.386 . S
C2411 C2415 1.393 . S
C2412 H2401 0.950 . S
C2412 C2410 1.391 . S
C2412 C2413 1.400 . S
C2413 C2407 1.491 . S
C2413 C2412 1.400 . S
C2413 C2414 1.398 . S
C2414 H2402 0.950 . S
C2414 C2413 1.398 . S
C2414 C2415 1.391 . S
C2415 H2403 0.950 . S
C2415 C2411 1.393 . S
C2415 C2414 1.391 . S
H2416 C2424 0.950 . S
H2417 C2429 0.950 . S
H2418 C2426 0.950 . S
H2419 C2428 0.950 . S
H2420 C2430 0.950 . S
H2421 C2432 0.950 . S
H2422 C2434 0.950 . S
H2423 C2435 0.950 . S
C2424 H2416 0.950 . S
C2424 C2425 1.386 . S
C2424 C2426 1.391 . S
C2425 C2424 1.386 . S
C2425 C2429 1.393 . S
C2426 H2418 0.950 . S
C2426 C2424 1.391 . S
C2426 C2427 1.400 . S
C2427 C2426 1.400 . S
C2427 C2428 1.398 . S
C2427 C2433 1.491 . S
C2428 H2419 0.950 . S
C2428 C2427 1.398 . S
C2428 C2429 1.391 . S
C2429 H2417 0.950 . S
C2429 C2425 1.393 . S
C2429 C2428 1.391 . S
C2430 H2420 0.950 . S
C2430 C2431 1.386 . S
C2430 C2432 1.391 . S
C2431 C2430 1.386 . S
C2431 C2435 1.393 . S
C2432 H2421 0.950 . S
C2432 C2430 1.391 . S
C2432 C2433 1.400 . S
C2433 C2427 1.491 . S
C2433 C2432 1.400 . S
C2433 C2434 1.398 . S
C2434 H2422 0.950 . S
C2434 C2433 1.398 . S
C2434 C2435 1.391 . S
C2435 H2423 0.950 . S
C2435 C2431 1.393 . S
C2435 C2434 1.391 . S
H2436 C2444 0.950 . S
H2437 C2449 0.950 . S
H2438 C2446 0.950 . S
H2439 C2448 0.950 . S
H2440 C2450 0.950 . S
H2441 C2452 0.950 . S
H2442 C2454 0.950 . S
H2443 C2455 0.950 . S
C2444 H2436 0.950 . S
C2444 C2445 1.386 . S
C2444 C2446 1.391 . S
C2445 C2444 1.386 . S
C2445 C2449 1.393 . S
C2446 H2438 0.950 . S
C2446 C2444 1.391 . S
C2446 C2447 1.400 . S
C2447 C2446 1.400 . S
C2447 C2448 1.398 . S
C2447 C2453 1.491 . S
C2448 H2439 0.950 . S
C2448 C2447 1.398 . S
C2448 C2449 1.391 . S
C2449 H2437 0.950 . S
C2449 C2445 1.393 . S
C2449 C2448 1.391 . S
C2450 H2440 0.950 . S
C2450 C2451 1.386 . S
C2450 C2452 1.391 . S
C2451 C2450 1.386 . S
C2451 C2455 1.393 . S
C2452 H2441 0.950 . S
C2452 C2450 1.391 . S
C2452 C2453 1.400 . S
C2453 C2447 1.491 . S
C2453 C2452 1.400 . S
C2453 C2454 1.398 . S
C2454 H2442 0.950 . S
C2454 C2453 1.398 . S
C2454 C2455 1.391 . S
C2455 H2443 0.950 . S
C2455 C2451 1.393 . S
C2455 C2454 1.391 . S
H2456 C2464 0.950 . S
H2457 C2469 0.950 . S
H2458 C2466 0.950 1_556 S
H2459 C2468 0.950 . S
H2460 C2470 0.950 . S
H2461 C2472 0.950 . S
H2462 C2474 0.950 1_556 S
H2463 C2475 0.950 1_556 S
C2464 H2456 0.950 . S
C2464 C2465 1.386 . S
C2464 C2466 1.391 . S
C2465 C2464 1.386 . S
C2465 C2469 1.393 . S
C2466 H2458 0.950 1_554 S
C2466 C2464 1.391 . S
C2466 C2467 1.400 . S
C2467 C2466 1.400 . S
C2467 C2468 1.398 . S
C2467 C2473 1.491 . S
C2468 H2459 0.950 . S
C2468 C2467 1.398 . S
C2468 C2469 1.391 . S
C2469 H2457 0.950 . S
C2469 C2465 1.393 . S
C2469 C2468 1.391 . S
C2470 H2460 0.950 . S
C2470 C2471 1.386 . S
C2470 C2472 1.391 . S
C2471 C2470 1.386 . S
C2471 C2475 1.393 . S
C2472 H2461 0.950 . S
C2472 C2470 1.391 . S
C2472 C2473 1.400 . S
C2473 C2467 1.491 . S
C2473 C2472 1.400 . S
C2473 C2474 1.398 . S
C2474 H2462 0.950 1_554 S
C2474 C2473 1.398 . S
C2474 C2475 1.391 . S
C2475 H2463 0.950 1_554 S
C2475 C2471 1.393 . S
C2475 C2474 1.391 . S
H2476 C2484 0.950 . S
H2477 C2489 0.950 . S
H2478 C2486 0.950 . S
H2479 C2488 0.950 . S
H2480 C2490 0.950 . S
H2481 C2492 0.950 . S
H2482 C2494 0.950 . S
H2483 C2495 0.950 . S
C2484 H2476 0.950 . S
C2484 C2485 1.386 . S
C2484 C2486 1.391 . S
C2485 C2484 1.386 . S
C2485 C2489 1.393 . S
C2486 H2478 0.950 . S
C2486 C2484 1.391 . S
C2486 C2487 1.400 . S
C2487 C2486 1.400 . S
C2487 C2488 1.398 . S
C2487 C2493 1.491 . S
C2488 H2479 0.950 . S
C2488 C2487 1.398 . S
C2488 C2489 1.391 . S
C2489 H2477 0.950 . S
C2489 C2485 1.393 . S
C2489 C2488 1.391 . S
C2490 H2480 0.950 . S
C2490 C2491 1.386 . S
C2490 C2492 1.391 . S
C2491 C2490 1.386 . S
C2491 C2495 1.393 . S
C2492 H2481 0.950 . S
C2492 C2490 1.391 . S
C2492 C2493 1.400 . S
C2493 C2487 1.491 . S
C2493 C2492 1.400 . S
C2493 C2494 1.398 . S
C2494 H2482 0.950 . S
C2494 C2493 1.398 . S
C2494 C2495 1.391 . S
C2495 H2483 0.950 . S
C2495 C2491 1.393 . S
C2495 C2494 1.391 . S
H2496 C2504 0.950 . S
H2497 C2509 0.950 . S
H2498 C2506 0.950 . S
H2499 C2508 0.950 . S
H2500 C2510 0.950 . S
H2501 C2512 0.950 . S
H2502 C2514 0.950 . S
H2503 C2515 0.950 . S
C2504 H2496 0.950 . S
C2504 C2505 1.386 . S
C2504 C2506 1.391 . S
C2505 C2504 1.386 . S
C2505 C2509 1.393 . S
C2506 H2498 0.950 . S
C2506 C2504 1.391 . S
C2506 C2507 1.400 . S
C2507 C2506 1.400 . S
C2507 C2508 1.398 . S
C2507 C2513 1.491 . S
C2508 H2499 0.950 . S
C2508 C2507 1.398 . S
C2508 C2509 1.391 . S
C2509 H2497 0.950 . S
C2509 C2505 1.393 . S
C2509 C2508 1.391 . S
C2510 H2500 0.950 . S
C2510 C2511 1.386 . S
C2510 C2512 1.391 . S
C2511 C2510 1.386 . S
C2511 C2515 1.393 . S
C2512 H2501 0.950 . S
C2512 C2510 1.391 . S
C2512 C2513 1.400 . S
C2513 C2507 1.491 . S
C2513 C2512 1.400 . S
C2513 C2514 1.398 . S
C2514 H2502 0.950 . S
C2514 C2513 1.398 . S
C2514 C2515 1.391 . S
C2515 H2503 0.950 . S
C2515 C2511 1.393 . S
C2515 C2514 1.391 . S
H2516 C2524 0.950 . S
H2517 C2529 0.950 . S
H2518 C2526 0.950 . S
H2519 C2528 0.950 . S
H2520 C2530 0.950 . S
H2521 C2532 0.950 . S
H2522 C2534 0.950 . S
H2523 C2535 0.950 . S
C2524 H2516 0.950 . S
C2524 C2525 1.386 . S
C2524 C2526 1.391 . S
C2525 C2524 1.386 . S
C2525 C2529 1.393 . S
C2526 H2518 0.950 . S
C2526 C2524 1.391 . S
C2526 C2527 1.400 . S
C2527 C2526 1.400 . S
C2527 C2528 1.398 . S
C2527 C2533 1.491 . S
C2528 H2519 0.950 . S
C2528 C2527 1.398 . S
C2528 C2529 1.391 . S
C2529 H2517 0.950 . S
C2529 C2525 1.393 . S
C2529 C2528 1.391 . S
C2530 H2520 0.950 . S
C2530 C2531 1.386 . S
C2530 C2532 1.391 . S
C2531 C2530 1.386 . S
C2531 C2535 1.393 . S
C2532 H2521 0.950 . S
C2532 C2530 1.391 . S
C2532 C2533 1.400 . S
C2533 C2527 1.491 . S
C2533 C2532 1.400 . S
C2533 C2534 1.398 . S
C2534 H2522 0.950 . S
C2534 C2533 1.398 . S
C2534 C2535 1.391 . S
C2535 H2523 0.950 . S
C2535 C2531 1.393 . S
C2535 C2534 1.391 . S
H2536 C2544 0.950 . S
H2537 C2549 0.950 1_545 S
H2538 C2546 0.950 . S
H2539 C2548 0.950 . S
H2540 C2550 0.950 . S
H2541 C2552 0.950 . S
H2542 C2554 0.950 . S
H2543 C2555 0.950 . S
C2544 H2536 0.950 . S
C2544 C2545 1.386 . S
C2544 C2546 1.391 . S
C2545 C2544 1.386 . S
C2545 C2549 1.393 . S
C2546 H2538 0.950 . S
C2546 C2544 1.391 . S
C2546 C2547 1.400 . S
C2547 C2546 1.400 . S
C2547 C2548 1.398 . S
C2547 C2553 1.491 . S
C2548 H2539 0.950 . S
C2548 C2547 1.398 . S
C2548 C2549 1.391 . S
C2549 H2537 0.950 1_565 S
C2549 C2545 1.393 . S
C2549 C2548 1.391 . S
C2550 H2540 0.950 . S
C2550 C2551 1.386 . S
C2550 C2552 1.391 . S
C2551 C2550 1.386 . S
C2551 C2555 1.393 . S
C2552 H2541 0.950 . S
C2552 C2550 1.391 . S
C2552 C2553 1.400 . S
C2553 C2547 1.491 . S
C2553 C2552 1.400 . S
C2553 C2554 1.398 . S
C2554 H2542 0.950 . S
C2554 C2553 1.398 . S
C2554 C2555 1.391 . S
C2555 H2543 0.950 . S
C2555 C2551 1.393 . S
C2555 C2554 1.391 . S
H2556 C2564 0.950 . S
H2557 C2569 0.950 . S
H2558 C2566 0.950 . S
H2559 C2568 0.950 . S
H2560 C2570 0.950 . S
H2561 C2572 0.950 . S
H2562 C2574 0.950 . S
H2563 C2575 0.950 . S
C2564 H2556 0.950 . S
C2564 C2565 1.386 . S
C2564 C2566 1.391 . S
C2565 C2564 1.386 . S
C2565 C2569 1.393 . S
C2566 H2558 0.950 . S
C2566 C2564 1.391 . S
C2566 C2567 1.400 . S
C2567 C2566 1.400 . S
C2567 C2568 1.398 . S
C2567 C2573 1.491 . S
C2568 H2559 0.950 . S
C2568 C2567 1.398 . S
C2568 C2569 1.391 . S
C2569 H2557 0.950 . S
C2569 C2565 1.393 . S
C2569 C2568 1.391 . S
C2570 H2560 0.950 . S
C2570 C2571 1.386 . S
C2570 C2572 1.391 . S
C2571 C2570 1.386 . S
C2571 C2575 1.393 . S
C2572 H2561 0.950 . S
C2572 C2570 1.391 . S
C2572 C2573 1.400 . S
C2573 C2567 1.491 . S
C2573 C2572 1.400 . S
C2573 C2574 1.398 . S
C2574 H2562 0.950 . S
C2574 C2573 1.398 . S
C2574 C2575 1.391 . S
C2575 H2563 0.950 . S
C2575 C2571 1.393 . S
C2575 C2574 1.391 . S
H2576 C2584 0.950 . S
H2577 C2589 0.950 . S
H2578 C2586 0.950 . S
H2579 C2588 0.950 . S
H2580 C2590 0.950 . S
H2581 C2592 0.950 . S
H2582 C2594 0.950 . S
H2583 C2595 0.950 . S
C2584 H2576 0.950 . S
C2584 C2585 1.386 . S
C2584 C2586 1.391 . S
C2585 C2584 1.386 . S
C2585 C2589 1.393 . S
C2586 H2578 0.950 . S
C2586 C2584 1.391 . S
C2586 C2587 1.400 . S
C2587 C2586 1.400 . S
C2587 C2588 1.398 . S
C2587 C2593 1.491 . S
C2588 H2579 0.950 . S
C2588 C2587 1.398 . S
C2588 C2589 1.391 . S
C2589 H2577 0.950 . S
C2589 C2585 1.393 . S
C2589 C2588 1.391 . S
C2590 H2580 0.950 . S
C2590 C2591 1.386 . S
C2590 C2592 1.391 . S
C2591 C2590 1.386 . S
C2591 C2595 1.393 . S
C2592 H2581 0.950 . S
C2592 C2590 1.391 . S
C2592 C2593 1.400 . S
C2593 C2587 1.491 . S
C2593 C2592 1.400 . S
C2593 C2594 1.398 . S
C2594 H2582 0.950 . S
C2594 C2593 1.398 . S
C2594 C2595 1.391 . S
C2595 H2583 0.950 . S
C2595 C2591 1.393 . S
C2595 C2594 1.391 . S
H2596 C2604 0.950 . S
H2597 C2609 0.950 . S
H2598 C2606 0.950 . S
H2599 C2608 0.950 . S
H2600 C2610 0.950 . S
H2601 C2612 0.950 . S
H2602 C2614 0.950 . S
H2603 C2615 0.950 . S
C2604 H2596 0.950 . S
C2604 C2605 1.386 . S
C2604 C2606 1.391 . S
C2605 C2604 1.386 . S
C2605 C2609 1.393 . S
C2606 H2598 0.950 . S
C2606 C2604 1.391 . S
C2606 C2607 1.400 . S
C2607 C2606 1.400 . S
C2607 C2608 1.398 . S
C2607 C2613 1.491 . S
C2608 H2599 0.950 . S
C2608 C2607 1.398 . S
C2608 C2609 1.391 . S
C2609 H2597 0.950 . S
C2609 C2605 1.393 . S
C2609 C2608 1.391 . S
C2610 H2600 0.950 . S
C2610 C2611 1.386 . S
C2610 C2612 1.391 . S
C2611 C2610 1.386 . S
C2611 C2615 1.393 . S
C2612 H2601 0.950 . S
C2612 C2610 1.391 . S
C2612 C2613 1.400 . S
C2613 C2607 1.491 . S
C2613 C2612 1.400 . S
C2613 C2614 1.398 . S
C2614 H2602 0.950 . S
C2614 C2613 1.398 . S
C2614 C2615 1.391 . S
C2615 H2603 0.950 . S
C2615 C2611 1.393 . S
C2615 C2614 1.391 . S
H2616 C2624 0.950 . S
H2617 C2629 0.950 . S
H2618 C2626 0.950 . S
H2619 C2628 0.950 . S
H2620 C2630 0.950 . S
H2621 C2632 0.950 . S
H2622 C2634 0.950 . S
H2623 C2635 0.950 . S
C2624 H2616 0.950 . S
C2624 C2625 1.386 . S
C2624 C2626 1.391 . S
C2625 C2624 1.386 . S
C2625 C2629 1.393 . S
C2626 H2618 0.950 . S
C2626 C2624 1.391 . S
C2626 C2627 1.400 . S
C2627 C2626 1.400 . S
C2627 C2628 1.398 . S
C2627 C2633 1.491 . S
C2628 H2619 0.950 . S
C2628 C2627 1.398 . S
C2628 C2629 1.391 . S
C2629 H2617 0.950 . S
C2629 C2625 1.393 . S
C2629 C2628 1.391 . S
C2630 H2620 0.950 . S
C2630 C2631 1.386 . S
C2630 C2632 1.391 . S
C2631 C2630 1.386 . S
C2631 C2635 1.393 . S
C2632 H2621 0.950 . S
C2632 C2630 1.391 . S
C2632 C2633 1.400 . S
C2633 C2627 1.491 . S
C2633 C2632 1.400 . S
C2633 C2634 1.398 . S
C2634 H2622 0.950 . S
C2634 C2633 1.398 . S
C2634 C2635 1.391 . S
C2635 H2623 0.950 . S
C2635 C2631 1.393 . S
C2635 C2634 1.391 . S
H2636 C2644 0.950 . S
H2637 C2649 0.950 . S
H2638 C2646 0.950 . S
H2639 C2648 0.950 . S
H2640 C2650 0.950 . S
H2641 C2652 0.950 . S
H2642 C2654 0.950 . S
H2643 C2655 0.950 . S
C2644 H2636 0.950 . S
C2644 C2645 1.386 . S
C2644 C2646 1.391 . S
C2645 C2644 1.386 . S
C2645 C2649 1.393 . S
C2646 H2638 0.950 . S
C2646 C2644 1.391 . S
C2646 C2647 1.400 . S
C2647 C2646 1.400 . S
C2647 C2648 1.398 . S
C2647 C2653 1.491 . S
C2648 H2639 0.950 . S
C2648 C2647 1.398 . S
C2648 C2649 1.391 . S
C2649 H2637 0.950 . S
C2649 C2645 1.393 . S
C2649 C2648 1.391 . S
C2650 H2640 0.950 . S
C2650 C2651 1.386 . S
C2650 C2652 1.391 . S
C2651 C2650 1.386 . S
C2651 C2655 1.393 . S
C2652 H2641 0.950 . S
C2652 C2650 1.391 . S
C2652 C2653 1.400 . S
C2653 C2647 1.491 . S
C2653 C2652 1.400 . S
C2653 C2654 1.398 . S
C2654 H2642 0.950 . S
C2654 C2653 1.398 . S
C2654 C2655 1.391 . S
C2655 H2643 0.950 . S
C2655 C2651 1.393 . S
C2655 C2654 1.391 . S
H2656 C2664 0.950 . S
H2657 C2669 0.950 1_655 S
H2658 C2666 0.950 . S
H2659 C2668 0.950 1_554 S
H2660 C2670 0.950 . S
H2661 C2672 0.950 . S
H2662 C2674 0.950 . S
H2663 C2675 0.951 1_556 S
C2664 H2656 0.950 . S
C2664 C2665 1.386 . S
C2664 C2666 1.391 . S
C2665 C2664 1.386 . S
C2665 C2669 1.393 . S
C2666 H2658 0.950 . S
C2666 C2664 1.391 . S
C2666 C2667 1.400 . S
C2667 C2666 1.400 . S
C2667 C2668 1.398 . S
C2667 C2673 1.491 1_556 S
C2668 H2659 0.950 1_556 S
C2668 C2667 1.398 . S
C2668 C2669 1.391 . S
C2669 H2657 0.950 1_455 S
C2669 C2665 1.393 . S
C2669 C2668 1.391 . S
C2670 H2660 0.950 . S
C2670 C2671 1.386 . S
C2670 C2672 1.391 . S
C2671 C2670 1.386 . S
C2671 C2675 1.393 . S
C2672 H2661 0.950 . S
C2672 C2670 1.391 . S
C2672 C2673 1.400 . S
C2673 C2667 1.491 1_554 S
C2673 C2672 1.400 . S
C2673 C2674 1.398 1_554 S
C2674 H2662 0.950 . S
C2674 C2673 1.398 1_556 S
C2674 C2675 1.391 1_556 S
C2675 H2663 0.951 1_554 S
C2675 C2671 1.393 . S
C2675 C2674 1.391 1_554 S
H2676 C2684 0.950 . S
H2677 C2689 0.950 . S
H2678 C2686 0.950 . S
H2679 C2688 0.950 . S
H2680 C2690 0.950 . S
H2681 C2692 0.950 . S
H2682 C2694 0.950 . S
H2683 C2695 0.950 . S
C2684 H2676 0.950 . S
C2684 C2685 1.386 . S
C2684 C2686 1.391 1_455 S
C2685 C2684 1.386 . S
C2685 C2689 1.393 . S
C2686 H2678 0.950 . S
C2686 C2684 1.391 1_655 S
C2686 C2687 1.400 . S
C2687 C2686 1.400 . S
C2687 C2688 1.398 1_655 S
C2687 C2693 1.491 . S
C2688 H2679 0.950 . S
C2688 C2687 1.398 1_455 S
C2688 C2689 1.391 . S
C2689 H2677 0.950 . S
C2689 C2685 1.393 . S
C2689 C2688 1.391 . S
C2690 H2680 0.950 . S
C2690 C2691 1.386 . S
C2690 C2692 1.391 . S
C2691 C2690 1.386 . S
C2691 C2695 1.393 . S
C2692 H2681 0.950 . S
C2692 C2690 1.391 . S
C2692 C2693 1.400 . S
C2693 C2687 1.491 . S
C2693 C2692 1.400 . S
C2693 C2694 1.398 . S
C2694 H2682 0.950 . S
C2694 C2693 1.398 . S
C2694 C2695 1.391 . S
C2695 H2683 0.950 . S
C2695 C2691 1.393 . S
C2695 C2694 1.391 . S
H2696 C2704 0.950 . S
H2697 C2709 0.950 . S
H2698 C2706 0.950 . S
H2699 C2708 0.950 . S
H2700 C2710 0.950 . S
H2701 C2712 0.950 . S
H2702 C2714 0.950 . S
H2703 C2715 0.950 . S
C2704 H2696 0.950 . S
C2704 C2705 1.386 . S
C2704 C2706 1.391 . S
C2705 C2704 1.386 . S
C2705 C2709 1.393 . S
C2706 H2698 0.950 . S
C2706 C2704 1.391 . S
C2706 C2707 1.400 . S
C2707 C2706 1.400 . S
C2707 C2708 1.398 . S
C2707 C2713 1.491 . S
C2708 H2699 0.950 . S
C2708 C2707 1.398 . S
C2708 C2709 1.391 . S
C2709 H2697 0.950 . S
C2709 C2705 1.393 . S
C2709 C2708 1.391 . S
C2710 H2700 0.950 . S
C2710 C2711 1.386 . S
C2710 C2712 1.391 . S
C2711 C2710 1.386 . S
C2711 C2715 1.393 . S
C2712 H2701 0.950 . S
C2712 C2710 1.391 . S
C2712 C2713 1.400 . S
C2713 C2707 1.491 . S
C2713 C2712 1.400 . S
C2713 C2714 1.398 . S
C2714 H2702 0.950 . S
C2714 C2713 1.398 . S
C2714 C2715 1.391 . S
C2715 H2703 0.950 . S
C2715 C2711 1.393 . S
C2715 C2714 1.391 . S
H2716 C2724 0.950 . S
H2717 C2729 0.950 . S
H2718 C2726 0.950 . S
H2719 C2728 0.950 . S
H2720 C2730 0.950 . S
H2721 C2732 0.950 . S
H2722 C2734 0.950 . S
H2723 C2735 0.950 . S
C2724 H2716 0.950 . S
C2724 C2725 1.386 . S
C2724 C2726 1.391 . S
C2725 C2724 1.386 . S
C2725 C2729 1.393 . S
C2726 H2718 0.950 . S
C2726 C2724 1.391 . S
C2726 C2727 1.400 . S
C2727 C2726 1.400 . S
C2727 C2728 1.398 . S
C2727 C2733 1.491 1_455 S
C2728 H2719 0.950 . S
C2728 C2727 1.398 . S
C2728 C2729 1.391 . S
C2729 H2717 0.950 . S
C2729 C2725 1.393 . S
C2729 C2728 1.391 . S
C2730 H2720 0.950 . S
C2730 C2731 1.386 . S
C2730 C2732 1.391 . S
C2731 C2730 1.386 . S
C2731 C2735 1.393 . S
C2732 H2721 0.950 . S
C2732 C2730 1.391 . S
C2732 C2733 1.400 . S
C2733 C2727 1.491 1_655 S
C2733 C2732 1.400 . S
C2733 C2734 1.398 . S
C2734 H2722 0.950 . S
C2734 C2733 1.398 . S
C2734 C2735 1.391 . S
C2735 H2723 0.950 . S
C2735 C2731 1.393 . S
C2735 C2734 1.391 . S
H2736 C2744 0.950 . S
H2737 C2749 0.950 . S
H2738 C2746 0.950 . S
H2739 C2748 0.950 . S
H2740 C2750 0.950 . S
H2741 C2752 0.950 . S
H2742 C2754 0.988 . S
H2743 C2755 0.941 1_655 S
C2744 H2736 0.950 . S
C2744 C2745 1.386 . S
C2744 C2746 1.391 . S
C2745 C2744 1.386 . S
C2745 C2749 1.393 1_655 S
C2746 H2738 0.950 . S
C2746 C2744 1.391 . S
C2746 C2747 1.400 1_655 S
C2747 C2746 1.400 1_455 S
C2747 C2748 1.398 . S
C2747 C2753 1.491 . S
C2748 H2739 0.950 . S
C2748 C2747 1.398 . S
C2748 C2749 1.391 . S
C2749 H2737 0.950 . S
C2749 C2745 1.393 1_455 S
C2749 C2748 1.391 . S
C2750 H2740 0.950 . S
C2750 C2751 1.386 . S
C2750 C2752 1.391 . S
C2751 C2750 1.386 . S
C2751 C2755 1.393 . S
C2752 H2741 0.950 . S
C2752 C2750 1.391 . S
C2752 C2753 1.400 . S
C2753 C2747 1.491 . S
C2753 C2752 1.400 . S
C2753 C2754 1.384 1_455 S
C2754 H2742 0.988 . S
C2754 C2753 1.384 1_655 S
C2754 C2755 1.369 1_655 S
C2755 H2743 0.941 1_455 S
C2755 C2751 1.393 . S
C2755 C2754 1.369 1_455 S
H2756 C2764 0.950 . S
H2757 C2769 0.950 . S
H2758 C2766 0.950 . S
H2759 C2768 0.950 . S
H2760 C2770 0.950 . S
H2761 C2772 0.950 . S
H2762 C2774 0.950 . S
H2763 C2775 0.950 . S
C2764 H2756 0.950 . S
C2764 C2765 1.386 . S
C2764 C2766 1.391 . S
C2765 C2764 1.386 . S
C2765 C2769 1.393 . S
C2766 H2758 0.950 . S
C2766 C2764 1.391 . S
C2766 C2767 1.400 . S
C2767 C2766 1.400 . S
C2767 C2768 1.398 . S
C2767 C2773 1.491 . S
C2768 H2759 0.950 . S
C2768 C2767 1.398 . S
C2768 C2769 1.391 . S
C2769 H2757 0.950 . S
C2769 C2765 1.393 . S
C2769 C2768 1.391 . S
C2770 H2760 0.950 . S
C2770 C2771 1.386 . S
C2770 C2772 1.391 . S
C2771 C2770 1.386 . S
C2771 C2775 1.393 . S
C2772 H2761 0.950 . S
C2772 C2770 1.391 . S
C2772 C2773 1.400 . S
C2773 C2767 1.491 . S
C2773 C2772 1.400 . S
C2773 C2774 1.398 . S
C2774 H2762 0.950 . S
C2774 C2773 1.398 . S
C2774 C2775 1.391 . S
C2775 H2763 0.950 . S
C2775 C2771 1.393 . S
C2775 C2774 1.391 . S
H2776 C2784 0.950 . S
H2777 C2789 0.950 . S
H2778 C2786 0.950 . S
H2779 C2788 0.950 . S
H2780 C2790 0.950 . S
H2781 C2792 0.950 . S
H2782 C2794 0.950 . S
H2783 C2795 0.950 . S
C2784 H2776 0.950 . S
C2784 C2785 1.386 . S
C2784 C2786 1.391 . S
C2785 C2784 1.386 . S
C2785 C2789 1.393 . S
C2786 H2778 0.950 . S
C2786 C2784 1.391 . S
C2786 C2787 1.400 . S
C2787 C2786 1.400 . S
C2787 C2788 1.398 . S
C2787 C2793 1.491 . S
C2788 H2779 0.950 . S
C2788 C2787 1.398 . S
C2788 C2789 1.391 . S
C2789 H2777 0.950 . S
C2789 C2785 1.393 . S
C2789 C2788 1.391 . S
C2790 H2780 0.950 . S
C2790 C2791 1.386 . S
C2790 C2792 1.391 . S
C2791 C2790 1.386 . S
C2791 C2795 1.393 . S
C2792 H2781 0.950 . S
C2792 C2790 1.391 . S
C2792 C2793 1.400 . S
C2793 C2787 1.491 . S
C2793 C2792 1.400 . S
C2793 C2794 1.398 . S
C2794 H2782 0.950 . S
C2794 C2793 1.398 . S
C2794 C2795 1.391 . S
C2795 H2783 0.950 . S
C2795 C2791 1.393 . S
C2795 C2794 1.391 . S
H2796 C2804 0.950 . S
H2797 C2809 0.956 . S
H2798 C2806 0.950 . S
H2799 C2808 0.950 . S
H2800 C2810 0.950 . S
H2801 C2812 0.950 . S
H2802 C2814 0.950 . S
H2803 C2815 0.950 . S
C2804 H2796 0.950 . S
C2804 C2805 1.386 . S
C2804 C2806 1.391 . S
C2805 C2804 1.386 . S
C2805 C2809 1.393 . S
C2806 H2798 0.950 . S
C2806 C2804 1.391 . S
C2806 C2807 1.400 . S
C2807 C2806 1.400 . S
C2807 C2808 1.398 . S
C2807 C2813 1.491 . S
C2808 H2799 0.950 . S
C2808 C2807 1.398 . S
C2808 C2809 1.391 . S
C2809 H2797 0.956 . S
C2809 C2805 1.393 . S
C2809 C2808 1.391 . S
C2810 H2800 0.950 . S
C2810 C2811 1.386 . S
C2810 C2812 1.391 . S
C2811 C2810 1.386 . S
C2811 C2815 1.393 . S
C2812 H2801 0.950 . S
C2812 C2810 1.391 . S
C2812 C2813 1.400 . S
C2813 C2807 1.491 . S
C2813 C2812 1.400 . S
C2813 C2814 1.398 . S
C2814 H2802 0.950 . S
C2814 C2813 1.398 . S
C2814 C2815 1.391 . S
C2815 H2803 0.950 . S
C2815 C2811 1.393 . S
C2815 C2814 1.391 . S
H2816 C2824 0.950 . S
H2817 C2829 0.950 . S
H2818 C2826 0.950 . S
H2819 C2828 0.950 . S
H2820 C2830 0.950 . S
H2821 C2832 0.950 . S
H2822 C2834 0.950 . S
H2823 C2835 0.950 . S
C2824 H2816 0.950 . S
C2824 C2825 1.386 . S
C2824 C2826 1.391 . S
C2825 C2824 1.386 . S
C2825 C2829 1.393 . S
C2826 H2818 0.950 . S
C2826 C2824 1.391 . S
C2826 C2827 1.400 . S
C2827 C2826 1.400 . S
C2827 C2828 1.398 . S
C2827 C2833 1.491 . S
C2828 H2819 0.950 . S
C2828 C2827 1.398 . S
C2828 C2829 1.391 . S
C2829 H2817 0.950 . S
C2829 C2825 1.393 . S
C2829 C2828 1.391 . S
C2830 H2820 0.950 . S
C2830 C2831 1.386 . S
C2830 C2832 1.391 . S
C2831 C2830 1.386 . S
C2831 C2835 1.393 . S
C2832 H2821 0.950 . S
C2832 C2830 1.391 . S
C2832 C2833 1.400 . S
C2833 C2827 1.491 . S
C2833 C2832 1.400 . S
C2833 C2834 1.398 . S
C2834 H2822 0.950 . S
C2834 C2833 1.398 . S
C2834 C2835 1.391 . S
C2835 H2823 0.950 . S
C2835 C2831 1.393 . S
C2835 C2834 1.391 . S
H2836 C2844 0.950 . S
H2837 C2849 0.950 . S
H2838 C2846 0.950 . S
H2839 C2848 0.950 . S
H2840 C2850 0.950 . S
H2841 C2852 0.950 . S
H2842 C2854 0.950 . S
H2843 C2855 0.950 . S
C2844 H2836 0.950 . S
C2844 C2845 1.386 . S
C2844 C2846 1.391 . S
C2845 C2844 1.386 . S
C2845 C2849 1.393 . S
C2846 H2838 0.950 . S
C2846 C2844 1.391 . S
C2846 C2847 1.400 . S
C2847 C2846 1.400 . S
C2847 C2848 1.398 . S
C2847 C2853 1.491 . S
C2848 H2839 0.950 . S
C2848 C2847 1.398 . S
C2848 C2849 1.391 . S
C2849 H2837 0.950 . S
C2849 C2845 1.393 . S
C2849 C2848 1.391 . S
C2850 H2840 0.950 . S
C2850 C2851 1.386 . S
C2850 C2852 1.391 . S
C2851 C2850 1.386 . S
C2851 C2855 1.393 . S
C2852 H2841 0.950 . S
C2852 C2850 1.391 . S
C2852 C2853 1.400 . S
C2853 C2847 1.491 . S
C2853 C2852 1.400 . S
C2853 C2854 1.398 . S
C2854 H2842 0.950 . S
C2854 C2853 1.398 . S
C2854 C2855 1.391 . S
C2855 H2843 0.950 . S
C2855 C2851 1.393 . S
C2855 C2854 1.391 . S
H2856 C2864 0.950 . S
H2857 C2869 0.950 . S
H2858 C2866 0.950 . S
H2859 C2868 0.950 . S
H2860 C2870 0.950 . S
H2861 C2872 0.950 . S
H2862 C2874 0.950 . S
H2863 C2875 0.950 . S
C2864 H2856 0.950 . S
C2864 C2865 1.386 . S
C2864 C2866 1.391 . S
C2865 C2864 1.386 . S
C2865 C2869 1.393 . S
C2866 H2858 0.950 . S
C2866 C2864 1.391 . S
C2866 C2867 1.400 . S
C2867 C2866 1.400 . S
C2867 C2868 1.398 . S
C2867 C2873 1.491 . S
C2868 H2859 0.950 . S
C2868 C2867 1.398 . S
C2868 C2869 1.391 . S
C2869 H2857 0.950 . S
C2869 C2865 1.393 . S
C2869 C2868 1.391 . S
C2870 H2860 0.950 . S
C2870 C2871 1.386 . S
C2870 C2872 1.391 . S
C2871 C2870 1.386 . S
C2871 C2875 1.393 . S
C2872 H2861 0.950 . S
C2872 C2870 1.391 . S
C2872 C2873 1.400 . S
C2873 C2867 1.491 . S
C2873 C2872 1.400 . S
C2873 C2874 1.398 . S
C2874 H2862 0.950 . S
C2874 C2873 1.398 . S
C2874 C2875 1.391 . S
C2875 H2863 0.950 . S
C2875 C2871 1.393 . S
C2875 C2874 1.391 . S
H2876 C2884 0.950 . S
H2877 C2889 0.950 . S
H2878 C2886 0.950 . S
H2879 C2888 0.950 . S
H2880 C2890 0.950 . S
H2881 C2892 0.950 . S
H2882 C2894 0.950 . S
H2883 C2895 0.950 . S
C2884 H2876 0.950 . S
C2884 C2885 1.386 . S
C2884 C2886 1.391 . S
C2885 C2884 1.386 . S
C2885 C2889 1.393 . S
C2886 H2878 0.950 . S
C2886 C2884 1.391 . S
C2886 C2887 1.400 . S
C2887 C2886 1.400 . S
C2887 C2888 1.398 . S
C2887 C2893 1.491 . S
C2888 H2879 0.950 . S
C2888 C2887 1.398 . S
C2888 C2889 1.391 . S
C2889 H2877 0.950 . S
C2889 C2885 1.393 . S
C2889 C2888 1.391 . S
C2890 H2880 0.950 . S
C2890 C2891 1.386 . S
C2890 C2892 1.391 . S
C2891 C2890 1.386 . S
C2891 C2895 1.393 . S
C2892 H2881 0.950 . S
C2892 C2890 1.391 . S
C2892 C2893 1.400 . S
C2893 C2887 1.491 . S
C2893 C2892 1.400 . S
C2893 C2894 1.398 . S
C2894 H2882 0.950 . S
C2894 C2893 1.398 . S
C2894 C2895 1.391 . S
C2895 H2883 0.950 . S
C2895 C2891 1.393 . S
C2895 C2894 1.391 . S
H2896 C2904 0.950 . S
H2897 C2909 0.950 . S
H2898 C2906 0.950 . S
H2899 C2908 0.950 . S
H2900 C2910 0.950 . S
H2901 C2912 0.950 . S
H2902 C2914 0.950 . S
H2903 C2915 0.950 . S
C2904 H2896 0.950 . S
C2904 C2905 1.386 . S
C2904 C2906 1.391 . S
C2905 C2904 1.386 . S
C2905 C2909 1.393 . S
C2906 H2898 0.950 . S
C2906 C2904 1.391 . S
C2906 C2907 1.400 . S
C2907 C2906 1.400 . S
C2907 C2908 1.398 . S
C2907 C2913 1.491 . S
C2908 H2899 0.950 . S
C2908 C2907 1.398 . S
C2908 C2909 1.391 . S
C2909 H2897 0.950 . S
C2909 C2905 1.393 . S
C2909 C2908 1.391 . S
C2910 H2900 0.950 . S
C2910 C2911 1.386 . S
C2910 C2912 1.391 . S
C2911 C2910 1.386 . S
C2911 C2915 1.393 . S
C2912 H2901 0.950 . S
C2912 C2910 1.391 . S
C2912 C2913 1.400 . S
C2913 C2907 1.491 . S
C2913 C2912 1.400 . S
C2913 C2914 1.398 . S
C2914 H2902 0.950 . S
C2914 C2913 1.398 . S
C2914 C2915 1.391 . S
C2915 H2903 0.950 . S
C2915 C2911 1.393 . S
C2915 C2914 1.391 . S
H2916 C2924 0.950 . S
H2917 C2929 0.950 . S
H2918 C2926 0.950 . S
H2919 C2928 0.950 . S
H2920 C2930 0.950 . S
H2921 C2932 0.950 . S
H2922 C2934 0.950 . S
H2923 C2935 0.950 . S
C2924 H2916 0.950 . S
C2924 C2925 1.386 . S
C2924 C2926 1.391 . S
C2925 C2924 1.386 . S
C2925 C2929 1.393 . S
C2926 H2918 0.950 . S
C2926 C2924 1.391 . S
C2926 C2927 1.400 . S
C2927 C2926 1.400 . S
C2927 C2928 1.398 . S
C2927 C2933 1.491 . S
C2928 H2919 0.950 . S
C2928 C2927 1.398 . S
C2928 C2929 1.391 . S
C2929 H2917 0.950 . S
C2929 C2925 1.393 . S
C2929 C2928 1.391 . S
C2930 H2920 0.950 . S
C2930 C2931 1.386 . S
C2930 C2932 1.391 . S
C2931 C2930 1.386 . S
C2931 C2935 1.393 . S
C2932 H2921 0.950 . S
C2932 C2930 1.391 . S
C2932 C2933 1.400 . S
C2933 C2927 1.491 . S
C2933 C2932 1.400 . S
C2933 C2934 1.398 . S
C2934 H2922 0.950 . S
C2934 C2933 1.398 . S
C2934 C2935 1.391 . S
C2935 H2923 0.950 . S
C2935 C2931 1.393 . S
C2935 C2934 1.391 . S
H2936 C2944 0.950 . S
H2937 C2949 0.950 . S
H2938 C2946 0.950 . S
H2939 C2948 0.950 . S
H2940 C2950 0.950 . S
H2941 C2952 0.950 . S
H2942 C2954 0.950 . S
H2943 C2955 0.950 . S
C2944 H2936 0.950 . S
C2944 C2945 1.386 . S
C2944 C2946 1.391 . S
C2945 C2944 1.386 . S
C2945 C2949 1.393 . S
C2946 H2938 0.950 . S
C2946 C2944 1.391 . S
C2946 C2947 1.400 . S
C2947 C2946 1.400 . S
C2947 C2948 1.398 . S
C2947 C2953 1.491 . S
C2948 H2939 0.950 . S
C2948 C2947 1.398 . S
C2948 C2949 1.391 . S
C2949 H2937 0.950 . S
C2949 C2945 1.393 . S
C2949 C2948 1.391 . S
C2950 H2940 0.950 . S
C2950 C2951 1.386 . S
C2950 C2952 1.391 . S
C2951 C2950 1.386 . S
C2951 C2955 1.393 . S
C2952 H2941 0.950 . S
C2952 C2950 1.391 . S
C2952 C2953 1.400 . S
C2953 C2947 1.491 . S
C2953 C2952 1.400 . S
C2953 C2954 1.398 . S
C2954 H2942 0.950 . S
C2954 C2953 1.398 . S
C2954 C2955 1.391 . S
C2955 H2943 0.950 . S
C2955 C2951 1.393 . S
C2955 C2954 1.391 . S
H2956 C2964 0.950 . S
H2957 C2969 0.950 . S
H2958 C2966 0.950 . S
H2959 C2968 0.950 . S
H2960 C2970 0.950 . S
H2961 C2972 0.950 . S
H2962 C2974 0.950 . S
H2963 C2975 0.950 . S
C2964 H2956 0.950 . S
C2964 C2965 1.386 . S
C2964 C2966 1.391 . S
C2965 C2964 1.386 . S
C2965 C2969 1.393 . S
C2966 H2958 0.950 . S
C2966 C2964 1.391 . S
C2966 C2967 1.400 . S
C2967 C2966 1.400 . S
C2967 C2968 1.398 . S
C2967 C2973 1.491 . S
C2968 H2959 0.950 . S
C2968 C2967 1.398 . S
C2968 C2969 1.391 . S
C2969 H2957 0.950 . S
C2969 C2965 1.393 . S
C2969 C2968 1.391 . S
C2970 H2960 0.950 . S
C2970 C2971 1.386 . S
C2970 C2972 1.391 . S
C2971 C2970 1.386 . S
C2971 C2975 1.393 . S
C2972 H2961 0.950 . S
C2972 C2970 1.391 . S
C2972 C2973 1.400 . S
C2973 C2967 1.491 . S
C2973 C2972 1.400 . S
C2973 C2974 1.398 . S
C2974 H2962 0.950 . S
C2974 C2973 1.398 . S
C2974 C2975 1.391 . S
C2975 H2963 0.950 . S
C2975 C2971 1.393 . S
C2975 C2974 1.391 . S
H2976 C2984 0.950 . S
H2977 C2989 0.950 . S
H2978 C2986 0.950 . S
H2979 C2988 0.950 . S
H2980 C2990 0.950 . S
H2981 C2992 0.950 . S
H2982 C2994 0.950 . S
H2983 C2995 0.950 . S
C2984 H2976 0.950 . S
C2984 C2985 1.386 . S
C2984 C2986 1.391 . S
C2985 C2984 1.386 . S
C2985 C2989 1.393 . S
C2986 H2978 0.950 . S
C2986 C2984 1.391 . S
C2986 C2987 1.400 . S
C2987 C2986 1.400 . S
C2987 C2988 1.398 . S
C2987 C2993 1.491 . S
C2988 H2979 0.950 . S
C2988 C2987 1.398 . S
C2988 C2989 1.391 . S
C2989 H2977 0.950 . S
C2989 C2985 1.393 . S
C2989 C2988 1.391 . S
C2990 H2980 0.950 . S
C2990 C2991 1.386 . S
C2990 C2992 1.391 . S
C2991 C2990 1.386 . S
C2991 C2995 1.393 . S
C2992 H2981 0.950 . S
C2992 C2990 1.391 . S
C2992 C2993 1.400 . S
C2993 C2987 1.491 . S
C2993 C2992 1.400 . S
C2993 C2994 1.398 . S
C2994 H2982 0.950 . S
C2994 C2993 1.398 . S
C2994 C2995 1.391 . S
C2995 H2983 0.950 . S
C2995 C2991 1.393 . S
C2995 C2994 1.391 . S
H2996 C3004 0.950 1_556 S
H2997 C3009 0.950 . S
H2998 C3006 0.939 1_546 S
H2999 C3008 0.950 . S
H3000 C3010 0.950 . S
H3001 C3012 0.950 . S
H3002 C3014 0.950 . S
H3003 C3015 0.950 . S
C3004 H2996 0.950 1_554 S
C3004 C3005 1.386 . S
C3004 C3006 1.396 . S
C3005 C3004 1.386 . S
C3005 C3009 1.393 . S
C3006 H2998 0.939 1_564 S
C3006 C3004 1.396 . S
C3006 C3007 1.407 . S
C3007 C3006 1.407 . S
C3007 C3008 1.398 . S
C3007 C3013 1.508 . S
C3008 H2999 0.950 . S
C3008 C3007 1.398 . S
C3008 C3009 1.391 . S
C3009 H2997 0.950 . S
C3009 C3005 1.393 . S
C3009 C3008 1.391 . S
C3010 H3000 0.950 . S
C3010 C3011 1.386 . S
C3010 C3012 1.391 1_545 S
C3011 C3010 1.386 . S
C3011 C3015 1.393 1_554 S
C3012 H3001 0.950 . S
C3012 C3010 1.391 1_565 S
C3012 C3013 1.419 . S
C3013 C3007 1.508 . S
C3013 C3012 1.419 . S
C3013 C3014 1.363 1_564 S
C3014 H3002 0.950 . S
C3014 C3013 1.363 1_546 S
C3014 C3015 1.391 . S
C3015 H3003 0.950 . S
C3015 C3011 1.393 1_556 S
C3015 C3014 1.391 . S
H3016 C3024 0.950 . S
H3017 C3029 0.950 . S
H3018 C3026 0.950 . S
H3019 C3028 0.950 . S
H3020 C3030 0.950 . S
H3021 C3032 0.950 . S
H3022 C3034 0.950 . S
H3023 C3035 0.950 . S
C3024 H3016 0.950 . S
C3024 C3025 1.386 . S
C3024 C3026 1.391 . S
C3025 C3024 1.386 . S
C3025 C3029 1.393 . S
C3026 H3018 0.950 . S
C3026 C3024 1.391 . S
C3026 C3027 1.400 . S
C3027 C3026 1.400 . S
C3027 C3028 1.398 . S
C3027 C3033 1.491 . S
C3028 H3019 0.950 . S
C3028 C3027 1.398 . S
C3028 C3029 1.391 . S
C3029 H3017 0.950 . S
C3029 C3025 1.393 . S
C3029 C3028 1.391 . S
C3030 H3020 0.950 . S
C3030 C3031 1.386 . S
C3030 C3032 1.391 . S
C3031 C3030 1.386 . S
C3031 C3035 1.393 . S
C3032 H3021 0.950 . S
C3032 C3030 1.391 . S
C3032 C3033 1.400 . S
C3033 C3027 1.491 . S
C3033 C3032 1.400 . S
C3033 C3034 1.398 . S
C3034 H3022 0.950 . S
C3034 C3033 1.398 . S
C3034 C3035 1.391 . S
C3035 H3023 0.950 . S
C3035 C3031 1.393 . S
C3035 C3034 1.391 . S
H3036 C3044 0.950 . S
H3037 C3049 0.950 . S
H3038 C3046 0.925 1_556 S
H3039 C3048 0.950 . S
H3040 C3050 0.950 . S
H3041 C3052 0.950 . S
H3042 C3054 0.950 1_556 S
H3043 C3055 0.950 . S
C3044 H3036 0.950 . S
C3044 C3045 1.386 1_556 S
C3044 C3046 1.378 1_556 S
C3045 C3044 1.386 1_554 S
C3045 C3049 1.393 . S
C3046 H3038 0.925 1_554 S
C3046 C3044 1.378 1_554 S
C3046 C3047 1.440 . S
C3047 C3046 1.440 . S
C3047 C3048 1.398 . S
C3047 C3053 1.491 . S
C3048 H3039 0.950 . S
C3048 C3047 1.398 . S
C3048 C3049 1.391 . S
C3049 H3037 0.950 . S
C3049 C3045 1.393 . S
C3049 C3048 1.391 . S
C3050 H3040 0.950 . S
C3050 C3051 1.386 . S
C3050 C3052 1.391 . S
C3051 C3050 1.386 . S
C3051 C3055 1.393 . S
C3052 H3041 0.950 . S
C3052 C3050 1.391 . S
C3052 C3053 1.400 . S
C3053 C3047 1.491 . S
C3053 C3052 1.400 . S
C3053 C3054 1.398 . S
C3054 H3042 0.950 1_554 S
C3054 C3053 1.398 . S
C3054 C3055 1.391 . S
C3055 H3043 0.950 . S
C3055 C3051 1.393 . S
C3055 C3054 1.391 . S
H3056 C3064 0.950 . S
H3057 C3069 0.950 . S
H3058 C3066 0.950 . S
H3059 C3068 0.950 . S
H3060 C3070 0.950 . S
H3061 C3072 0.950 . S
H3062 C3074 0.950 . S
H3063 C3075 0.950 . S
C3064 H3056 0.950 . S
C3064 C3065 1.386 . S
C3064 C3066 1.391 . S
C3065 C3064 1.386 . S
C3065 C3069 1.393 . S
C3066 H3058 0.950 . S
C3066 C3064 1.391 . S
C3066 C3067 1.400 . S
C3067 C3066 1.400 . S
C3067 C3068 1.398 . S
C3067 C3073 1.491 . S
C3068 H3059 0.950 . S
C3068 C3067 1.398 . S
C3068 C3069 1.391 . S
C3069 H3057 0.950 . S
C3069 C3065 1.393 . S
C3069 C3068 1.391 . S
C3070 H3060 0.950 . S
C3070 C3071 1.386 . S
C3070 C3072 1.391 . S
C3071 C3070 1.386 . S
C3071 C3075 1.393 . S
C3072 H3061 0.950 . S
C3072 C3070 1.391 . S
C3072 C3073 1.400 . S
C3073 C3067 1.491 . S
C3073 C3072 1.400 . S
C3073 C3074 1.398 . S
C3074 H3062 0.950 . S
C3074 C3073 1.398 . S
C3074 C3075 1.391 . S
C3075 H3063 0.950 . S
C3075 C3071 1.393 . S
C3075 C3074 1.391 . S
H3076 C3084 0.950 . S
H3077 C3089 0.950 . S
H3078 C3086 0.950 . S
H3079 C3088 0.950 . S
H3080 C3090 0.950 . S
H3081 C3092 0.950 . S
H3082 C3094 0.950 . S
H3083 C3095 0.950 . S
C3084 H3076 0.950 . S
C3084 C3085 1.386 . S
C3084 C3086 1.391 . S
C3085 C3084 1.386 . S
C3085 C3089 1.393 . S
C3086 H3078 0.950 . S
C3086 C3084 1.391 . S
C3086 C3087 1.400 . S
C3087 C3086 1.400 . S
C3087 C3088 1.398 . S
C3087 C3093 1.491 . S
C3088 H3079 0.950 . S
C3088 C3087 1.398 . S
C3088 C3089 1.391 . S
C3089 H3077 0.950 . S
C3089 C3085 1.393 . S
C3089 C3088 1.391 . S
C3090 H3080 0.950 . S
C3090 C3091 1.386 . S
C3090 C3092 1.391 . S
C3091 C3090 1.386 . S
C3091 C3095 1.393 . S
C3092 H3081 0.950 . S
C3092 C3090 1.391 . S
C3092 C3093 1.400 . S
C3093 C3087 1.491 . S
C3093 C3092 1.400 . S
C3093 C3094 1.398 . S
C3094 H3082 0.950 . S
C3094 C3093 1.398 . S
C3094 C3095 1.391 . S
C3095 H3083 0.950 . S
C3095 C3091 1.393 . S
C3095 C3094 1.391 . S
H3096 C3104 0.950 . S
H3097 C3109 0.950 . S
H3098 C3106 0.950 . S
H3099 C3108 0.950 . S
H3100 C3110 0.950 . S
H3101 C3112 0.950 . S
H3102 C3114 0.950 . S
H3103 C3115 0.950 . S
C3104 H3096 0.950 . S
C3104 C3105 1.386 . S
C3104 C3106 1.391 . S
C3105 C3104 1.386 . S
C3105 C3109 1.393 . S
C3106 H3098 0.950 . S
C3106 C3104 1.391 . S
C3106 C3107 1.400 . S
C3107 C3106 1.400 . S
C3107 C3108 1.398 . S
C3107 C3113 1.491 . S
C3108 H3099 0.950 . S
C3108 C3107 1.398 . S
C3108 C3109 1.391 . S
C3109 H3097 0.950 . S
C3109 C3105 1.393 . S
C3109 C3108 1.391 . S
C3110 H3100 0.950 . S
C3110 C3111 1.386 . S
C3110 C3112 1.391 . S
C3111 C3110 1.386 . S
C3111 C3115 1.393 . S
C3112 H3101 0.950 . S
C3112 C3110 1.391 . S
C3112 C3113 1.400 . S
C3113 C3107 1.491 . S
C3113 C3112 1.400 . S
C3113 C3114 1.398 . S
C3114 H3102 0.950 . S
C3114 C3113 1.398 . S
C3114 C3115 1.391 . S
C3115 H3103 0.950 . S
C3115 C3111 1.393 . S
C3115 C3114 1.391 . S
H3116 C3124 0.950 . S
H3117 C3129 0.950 . S
H3118 C3126 0.950 . S
H3119 C3128 0.950 . S
H3120 C3130 0.950 . S
H3121 C3132 0.950 . S
H3122 C3134 0.950 . S
H3123 C3135 0.950 . S
C3124 H3116 0.950 . S
C3124 C3125 1.386 . S
C3124 C3126 1.391 . S
C3125 C3124 1.386 . S
C3125 C3129 1.393 . S
C3126 H3118 0.950 . S
C3126 C3124 1.391 . S
C3126 C3127 1.400 . S
C3127 C3126 1.400 . S
C3127 C3128 1.398 . S
C3127 C3133 1.491 . S
C3128 H3119 0.950 . S
C3128 C3127 1.398 . S
C3128 C3129 1.391 . S
C3129 H3117 0.950 . S
C3129 C3125 1.393 . S
C3129 C3128 1.391 . S
C3130 H3120 0.950 . S
C3130 C3131 1.386 . S
C3130 C3132 1.391 . S
C3131 C3130 1.386 . S
C3131 C3135 1.393 . S
C3132 H3121 0.950 . S
C3132 C3130 1.391 . S
C3132 C3133 1.400 . S
C3133 C3127 1.491 . S
C3133 C3132 1.400 . S
C3133 C3134 1.398 . S
C3134 H3122 0.950 . S
C3134 C3133 1.398 . S
C3134 C3135 1.391 . S
C3135 H3123 0.950 . S
C3135 C3131 1.393 . S
C3135 C3134 1.391 . S
H3136 C3144 0.950 . S
H3137 C3149 0.950 . S
H3138 C3146 0.950 . S
H3139 C3148 0.950 . S
H3140 C3150 0.950 . S
H3141 C3152 0.950 . S
H3142 C3154 0.950 . S
H3143 C3155 0.950 . S
C3144 H3136 0.950 . S
C3144 C3145 1.386 . S
C3144 C3146 1.391 . S
C3145 C3144 1.386 . S
C3145 C3149 1.393 . S
C3146 H3138 0.950 . S
C3146 C3144 1.391 . S
C3146 C3147 1.400 . S
C3147 C3146 1.400 . S
C3147 C3148 1.398 . S
C3147 C3153 1.491 . S
C3148 H3139 0.950 . S
C3148 C3147 1.398 . S
C3148 C3149 1.391 . S
C3149 H3137 0.950 . S
C3149 C3145 1.393 . S
C3149 C3148 1.391 . S
C3150 H3140 0.950 . S
C3150 C3151 1.386 . S
C3150 C3152 1.391 . S
C3151 C3150 1.386 . S
C3151 C3155 1.393 . S
C3152 H3141 0.950 . S
C3152 C3150 1.391 . S
C3152 C3153 1.400 . S
C3153 C3147 1.491 . S
C3153 C3152 1.400 . S
C3153 C3154 1.398 . S
C3154 H3142 0.950 . S
C3154 C3153 1.398 . S
C3154 C3155 1.391 . S
C3155 H3143 0.950 . S
C3155 C3151 1.393 . S
C3155 C3154 1.391 . S
H3156 C3164 0.950 . S
H3157 C3169 0.950 . S
H3158 C3166 0.950 . S
H3159 C3168 0.950 . S
H3160 C3170 0.950 . S
H3161 C3172 0.950 . S
H3162 C3174 0.950 . S
H3163 C3175 0.950 . S
C3164 H3156 0.950 . S
C3164 C3165 1.386 . S
C3164 C3166 1.391 . S
C3165 C3164 1.386 . S
C3165 C3169 1.393 . S
C3166 H3158 0.950 . S
C3166 C3164 1.391 . S
C3166 C3167 1.400 . S
C3167 C3166 1.400 . S
C3167 C3168 1.398 . S
C3167 C3173 1.491 . S
C3168 H3159 0.950 . S
C3168 C3167 1.398 . S
C3168 C3169 1.391 . S
C3169 H3157 0.950 . S
C3169 C3165 1.393 . S
C3169 C3168 1.391 . S
C3170 H3160 0.950 . S
C3170 C3171 1.386 . S
C3170 C3172 1.391 . S
C3171 C3170 1.386 . S
C3171 C3175 1.393 . S
C3172 H3161 0.950 . S
C3172 C3170 1.391 . S
C3172 C3173 1.400 . S
C3173 C3167 1.491 . S
C3173 C3172 1.400 . S
C3173 C3174 1.398 . S
C3174 H3162 0.950 . S
C3174 C3173 1.398 . S
C3174 C3175 1.391 . S
C3175 H3163 0.950 . S
C3175 C3171 1.393 . S
C3175 C3174 1.391 . S
H3176 C3184 0.950 . S
H3177 C3189 0.950 . S
H3178 C3186 0.950 . S
H3179 C3188 0.950 . S
H3180 C3190 0.950 . S
H3181 C3192 0.950 . S
H3182 C3194 0.950 . S
H3183 C3195 0.950 . S
C3184 H3176 0.950 . S
C3184 C3185 1.386 . S
C3184 C3186 1.391 . S
C3185 C3184 1.386 . S
C3185 C3189 1.393 . S
C3186 H3178 0.950 . S
C3186 C3184 1.391 . S
C3186 C3187 1.400 . S
C3187 C3186 1.400 . S
C3187 C3188 1.398 . S
C3187 C3193 1.491 . S
C3188 H3179 0.950 . S
C3188 C3187 1.398 . S
C3188 C3189 1.391 . S
C3189 H3177 0.950 . S
C3189 C3185 1.393 . S
C3189 C3188 1.391 . S
C3190 H3180 0.950 . S
C3190 C3191 1.386 . S
C3190 C3192 1.391 . S
C3191 C3190 1.386 . S
C3191 C3195 1.393 . S
C3192 H3181 0.950 . S
C3192 C3190 1.391 . S
C3192 C3193 1.400 . S
C3193 C3187 1.491 . S
C3193 C3192 1.400 . S
C3193 C3194 1.398 . S
C3194 H3182 0.950 . S
C3194 C3193 1.398 . S
C3194 C3195 1.391 . S
C3195 H3183 0.950 . S
C3195 C3191 1.393 . S
C3195 C3194 1.391 . S
H3196 C3204 0.950 . S
H3197 C3209 0.950 . S
H3198 C3206 0.950 . S
H3199 C3208 0.950 . S
H3200 C3210 0.950 . S
H3201 C3212 0.950 . S
H3202 C3214 0.950 . S
H3203 C3215 0.950 . S
C3204 H3196 0.950 . S
C3204 C3205 1.386 . S
C3204 C3206 1.391 . S
C3205 C3204 1.386 . S
C3205 C3209 1.393 . S
C3206 H3198 0.950 . S
C3206 C3204 1.391 . S
C3206 C3207 1.400 . S
C3207 C3206 1.400 . S
C3207 C3208 1.398 . S
C3207 C3213 1.491 . S
C3208 H3199 0.950 . S
C3208 C3207 1.398 . S
C3208 C3209 1.391 . S
C3209 H3197 0.950 . S
C3209 C3205 1.393 . S
C3209 C3208 1.391 . S
C3210 H3200 0.950 . S
C3210 C3211 1.386 . S
C3210 C3212 1.391 . S
C3211 C3210 1.386 . S
C3211 C3215 1.393 . S
C3212 H3201 0.950 . S
C3212 C3210 1.391 . S
C3212 C3213 1.400 . S
C3213 C3207 1.491 . S
C3213 C3212 1.400 . S
C3213 C3214 1.398 . S
C3214 H3202 0.950 . S
C3214 C3213 1.398 . S
C3214 C3215 1.391 . S
C3215 H3203 0.950 . S
C3215 C3211 1.393 . S
C3215 C3214 1.391 . S
H3216 C3224 0.950 . S
H3217 C3229 0.950 . S
H3218 C3226 0.950 . S
H3219 C3228 0.950 . S
H3220 C3230 0.950 . S
H3221 C3232 0.950 . S
H3222 C3234 0.950 . S
H3223 C3235 0.950 . S
C3224 H3216 0.950 . S
C3224 C3225 1.386 . S
C3224 C3226 1.391 . S
C3225 C3224 1.386 . S
C3225 C3229 1.393 . S
C3226 H3218 0.950 . S
C3226 C3224 1.391 . S
C3226 C3227 1.400 . S
C3227 C3226 1.400 . S
C3227 C3228 1.398 . S
C3227 C3233 1.491 . S
C3228 H3219 0.950 . S
C3228 C3227 1.398 . S
C3228 C3229 1.391 . S
C3229 H3217 0.950 . S
C3229 C3225 1.393 . S
C3229 C3228 1.391 . S
C3230 H3220 0.950 . S
C3230 C3231 1.386 . S
C3230 C3232 1.391 . S
C3231 C3230 1.386 . S
C3231 C3235 1.393 . S
C3232 H3221 0.950 . S
C3232 C3230 1.391 . S
C3232 C3233 1.400 . S
C3233 C3227 1.491 . S
C3233 C3232 1.400 . S
C3233 C3234 1.398 . S
C3234 H3222 0.950 . S
C3234 C3233 1.398 . S
C3234 C3235 1.391 . S
C3235 H3223 0.950 . S
C3235 C3231 1.393 . S
C3235 C3234 1.391 . S
H3236 C3244 0.950 . S
H3237 C3249 0.950 . S
H3238 C3246 0.950 . S
H3239 C3248 0.950 . S
H3240 C3250 0.950 . S
H3241 C3252 0.950 . S
H3242 C3254 0.950 . S
H3243 C3255 0.950 . S
C3244 H3236 0.950 . S
C3244 C3245 1.386 . S
C3244 C3246 1.391 . S
C3245 C3244 1.386 . S
C3245 C3249 1.393 . S
C3246 H3238 0.950 . S
C3246 C3244 1.391 . S
C3246 C3247 1.400 . S
C3247 C3246 1.400 . S
C3247 C3248 1.398 . S
C3247 C3253 1.491 . S
C3248 H3239 0.950 . S
C3248 C3247 1.398 . S
C3248 C3249 1.391 . S
C3249 H3237 0.950 . S
C3249 C3245 1.393 . S
C3249 C3248 1.391 . S
C3250 H3240 0.950 . S
C3250 C3251 1.386 . S
C3250 C3252 1.391 . S
C3251 C3250 1.386 . S
C3251 C3255 1.393 . S
C3252 H3241 0.950 . S
C3252 C3250 1.391 . S
C3252 C3253 1.400 . S
C3253 C3247 1.491 . S
C3253 C3252 1.400 . S
C3253 C3254 1.398 . S
C3254 H3242 0.950 . S
C3254 C3253 1.398 . S
C3254 C3255 1.391 . S
C3255 H3243 0.950 . S
C3255 C3251 1.393 . S
C3255 C3254 1.391 . S
H3256 C3264 0.950 . S
H3257 C3269 0.950 . S
H3258 C3266 0.950 . S
H3259 C3268 0.950 . S
H3260 C3270 0.950 . S
H3261 C3272 0.950 . S
H3262 C3274 0.950 . S
H3263 C3275 0.950 . S
C3264 H3256 0.950 . S
C3264 C3265 1.386 . S
C3264 C3266 1.391 . S
C3265 C3264 1.386 . S
C3265 C3269 1.393 . S
C3266 H3258 0.950 . S
C3266 C3264 1.391 . S
C3266 C3267 1.400 . S
C3267 C3266 1.400 . S
C3267 C3268 1.398 . S
C3267 C3273 1.491 . S
C3268 H3259 0.950 . S
C3268 C3267 1.398 . S
C3268 C3269 1.391 . S
C3269 H3257 0.950 . S
C3269 C3265 1.393 . S
C3269 C3268 1.391 . S
C3270 H3260 0.950 . S
C3270 C3271 1.386 . S
C3270 C3272 1.391 . S
C3271 C3270 1.386 . S
C3271 C3275 1.393 . S
C3272 H3261 0.950 . S
C3272 C3270 1.391 . S
C3272 C3273 1.400 . S
C3273 C3267 1.491 . S
C3273 C3272 1.400 . S
C3273 C3274 1.398 . S
C3274 H3262 0.950 . S
C3274 C3273 1.398 . S
C3274 C3275 1.391 . S
C3275 H3263 0.950 . S
C3275 C3271 1.393 . S
C3275 C3274 1.391 . S
H3276 C3284 0.950 . S
H3277 C3289 0.950 . S
H3278 C3286 0.950 . S
H3279 C3288 0.950 . S
H3280 C3290 0.950 . S
H3281 C3292 0.950 . S
H3282 C3294 0.950 . S
H3283 C3295 0.950 . S
C3284 H3276 0.950 . S
C3284 C3285 1.386 . S
C3284 C3286 1.391 . S
C3285 C3284 1.386 . S
C3285 C3289 1.393 . S
C3286 H3278 0.950 . S
C3286 C3284 1.391 . S
C3286 C3287 1.400 . S
C3287 C3286 1.400 . S
C3287 C3288 1.398 . S
C3287 C3293 1.491 . S
C3288 H3279 0.950 . S
C3288 C3287 1.398 . S
C3288 C3289 1.391 . S
C3289 H3277 0.950 . S
C3289 C3285 1.393 . S
C3289 C3288 1.391 . S
C3290 H3280 0.950 . S
C3290 C3291 1.386 . S
C3290 C3292 1.391 . S
C3291 C3290 1.386 . S
C3291 C3295 1.393 . S
C3292 H3281 0.950 . S
C3292 C3290 1.391 . S
C3292 C3293 1.400 . S
C3293 C3287 1.491 . S
C3293 C3292 1.400 . S
C3293 C3294 1.398 . S
C3294 H3282 0.950 . S
C3294 C3293 1.398 . S
C3294 C3295 1.391 . S
C3295 H3283 0.950 . S
C3295 C3291 1.393 . S
C3295 C3294 1.391 . S
H3296 C3304 0.950 . S
H3297 C3309 0.950 . S
H3298 C3306 0.950 . S
H3299 C3308 0.950 . S
H3300 C3310 0.950 . S
H3301 C3312 0.950 . S
H3302 C3314 0.950 . S
H3303 C3315 0.950 . S
C3304 H3296 0.950 . S
C3304 C3305 1.386 . S
C3304 C3306 1.391 . S
C3305 C3304 1.386 . S
C3305 C3309 1.393 . S
C3306 H3298 0.950 . S
C3306 C3304 1.391 . S
C3306 C3307 1.400 . S
C3307 C3306 1.400 . S
C3307 C3308 1.398 . S
C3307 C3313 1.491 . S
C3308 H3299 0.950 . S
C3308 C3307 1.398 . S
C3308 C3309 1.391 . S
C3309 H3297 0.950 . S
C3309 C3305 1.393 . S
C3309 C3308 1.391 . S
C3310 H3300 0.950 . S
C3310 C3311 1.386 1_655 S
C3310 C3312 1.391 . S
C3311 C3310 1.386 1_455 S
C3311 C3315 1.393 . S
C3312 H3301 0.950 . S
C3312 C3310 1.391 . S
C3312 C3313 1.400 . S
C3313 C3307 1.491 . S
C3313 C3312 1.400 . S
C3313 C3314 1.398 1_655 S
C3314 H3302 0.950 . S
C3314 C3313 1.398 1_455 S
C3314 C3315 1.391 . S
C3315 H3303 0.950 . S
C3315 C3311 1.393 . S
C3315 C3314 1.391 . S
H3316 C3324 0.950 . S
H3317 C3329 0.950 . S
H3318 C3326 0.950 . S
H3319 C3328 0.950 . S
H3320 C3330 0.950 . S
H3321 C3332 0.950 . S
H3322 C3334 0.950 . S
H3323 C3335 0.950 . S
C3324 H3316 0.950 . S
C3324 C3325 1.386 . S
C3324 C3326 1.391 . S
C3325 C3324 1.386 . S
C3325 C3329 1.393 . S
C3326 H3318 0.950 . S
C3326 C3324 1.391 . S
C3326 C3327 1.400 . S
C3327 C3326 1.400 . S
C3327 C3328 1.398 . S
C3327 C3333 1.491 . S
C3328 H3319 0.950 . S
C3328 C3327 1.398 . S
C3328 C3329 1.391 . S
C3329 H3317 0.950 . S
C3329 C3325 1.393 . S
C3329 C3328 1.391 . S
C3330 H3320 0.950 . S
C3330 C3331 1.386 . S
C3330 C3332 1.391 . S
C3331 C3330 1.386 . S
C3331 C3335 1.393 . S
C3332 H3321 0.950 . S
C3332 C3330 1.391 . S
C3332 C3333 1.400 . S
C3333 C3327 1.491 . S
C3333 C3332 1.400 . S
C3333 C3334 1.398 . S
C3334 H3322 0.950 . S
C3334 C3333 1.398 . S
C3334 C3335 1.391 . S
C3335 H3323 0.950 . S
C3335 C3331 1.393 . S
C3335 C3334 1.391 . S
H3336 C3344 0.950 . S
H3337 C3349 0.950 . S
H3338 C3346 0.950 . S
H3339 C3348 0.950 . S
H3340 C3350 0.950 . S
H3341 C3352 0.950 . S
H3342 C3354 0.950 . S
H3343 C3355 0.950 . S
C3344 H3336 0.950 . S
C3344 C3345 1.386 . S
C3344 C3346 1.391 . S
C3345 C3344 1.386 . S
C3345 C3349 1.393 . S
C3346 H3338 0.950 . S
C3346 C3344 1.391 . S
C3346 C3347 1.400 . S
C3347 C3346 1.400 . S
C3347 C3348 1.398 . S
C3347 C3353 1.491 . S
C3348 H3339 0.950 . S
C3348 C3347 1.398 . S
C3348 C3349 1.391 . S
C3349 H3337 0.950 . S
C3349 C3345 1.393 . S
C3349 C3348 1.391 . S
C3350 H3340 0.950 . S
C3350 C3351 1.386 . S
C3350 C3352 1.391 . S
C3351 C3350 1.386 . S
C3351 C3355 1.393 . S
C3352 H3341 0.950 . S
C3352 C3350 1.391 . S
C3352 C3353 1.400 . S
C3353 C3347 1.491 . S
C3353 C3352 1.400 . S
C3353 C3354 1.398 . S
C3354 H3342 0.950 . S
C3354 C3353 1.398 . S
C3354 C3355 1.391 . S
C3355 H3343 0.950 . S
C3355 C3351 1.393 . S
C3355 C3354 1.391 . S
H3356 C3364 0.950 . S
H3357 C3369 0.950 . S
H3358 C3366 0.950 . S
H3359 C3368 0.950 . S
H3360 C3370 0.950 . S
H3361 C3372 0.950 . S
H3362 C3374 0.950 . S
H3363 C3375 0.950 . S
C3364 H3356 0.950 . S
C3364 C3365 1.386 . S
C3364 C3366 1.391 . S
C3365 C3364 1.386 . S
C3365 C3369 1.393 . S
C3366 H3358 0.950 . S
C3366 C3364 1.391 . S
C3366 C3367 1.400 . S
C3367 C3366 1.400 . S
C3367 C3368 1.398 . S
C3367 C3373 1.491 . S
C3368 H3359 0.950 . S
C3368 C3367 1.398 . S
C3368 C3369 1.391 . S
C3369 H3357 0.950 . S
C3369 C3365 1.393 . S
C3369 C3368 1.391 . S
C3370 H3360 0.950 . S
C3370 C3371 1.386 . S
C3370 C3372 1.391 . S
C3371 C3370 1.386 . S
C3371 C3375 1.393 . S
C3372 H3361 0.950 . S
C3372 C3370 1.391 . S
C3372 C3373 1.400 . S
C3373 C3367 1.491 . S
C3373 C3372 1.400 . S
C3373 C3374 1.398 . S
C3374 H3362 0.950 . S
C3374 C3373 1.398 . S
C3374 C3375 1.391 . S
C3375 H3363 0.950 . S
C3375 C3371 1.393 . S
C3375 C3374 1.391 . S
H3376 C3384 0.950 . S
H3377 C3389 0.950 . S
H3378 C3386 0.950 . S
H3379 C3388 0.950 . S
H3380 C3390 0.950 . S
H3381 C3392 0.950 . S
H3382 C3394 0.950 . S
H3383 C3395 0.950 1_455 S
C3384 H3376 0.950 . S
C3384 C3385 1.386 . S
C3384 C3386 1.391 . S
C3385 C3384 1.386 . S
C3385 C3389 1.393 . S
C3386 H3378 0.950 . S
C3386 C3384 1.391 . S
C3386 C3387 1.400 . S
C3387 C3386 1.400 . S
C3387 C3388 1.398 . S
C3387 C3393 1.491 . S
C3388 H3379 0.950 . S
C3388 C3387 1.398 . S
C3388 C3389 1.391 . S
C3389 H3377 0.950 . S
C3389 C3385 1.393 . S
C3389 C3388 1.391 . S
C3390 H3380 0.950 . S
C3390 C3391 1.386 . S
C3390 C3392 1.391 . S
C3391 C3390 1.386 . S
C3391 C3395 1.393 . S
C3392 H3381 0.950 . S
C3392 C3390 1.391 . S
C3392 C3393 1.400 . S
C3393 C3387 1.491 . S
C3393 C3392 1.400 . S
C3393 C3394 1.398 . S
C3394 H3382 0.950 . S
C3394 C3393 1.398 . S
C3394 C3395 1.391 . S
C3395 H3383 0.950 1_655 S
C3395 C3391 1.393 . S
C3395 C3394 1.391 . S
H3396 C3404 0.950 . S
H3397 C3409 0.950 . S
H3398 C3406 0.950 . S
H3399 C3408 0.950 . S
H3400 C3410 0.950 . S
H3401 C3412 0.950 . S
H3402 C3414 0.950 . S
H3403 C3415 0.950 . S
C3404 H3396 0.950 . S
C3404 C3405 1.386 . S
C3404 C3406 1.391 . S
C3405 C3404 1.386 . S
C3405 C3409 1.393 . S
C3406 H3398 0.950 . S
C3406 C3404 1.391 . S
C3406 C3407 1.400 . S
C3407 C3406 1.400 . S
C3407 C3408 1.398 . S
C3407 C3413 1.491 . S
C3408 H3399 0.950 . S
C3408 C3407 1.398 . S
C3408 C3409 1.391 . S
C3409 H3397 0.950 . S
C3409 C3405 1.393 . S
C3409 C3408 1.391 . S
C3410 H3400 0.950 . S
C3410 C3411 1.386 . S
C3410 C3412 1.391 . S
C3411 C3410 1.386 . S
C3411 C3415 1.393 . S
C3412 H3401 0.950 . S
C3412 C3410 1.391 . S
C3412 C3413 1.400 . S
C3413 C3407 1.491 . S
C3413 C3412 1.400 . S
C3413 C3414 1.398 . S
C3414 H3402 0.950 . S
C3414 C3413 1.398 . S
C3414 C3415 1.391 . S
C3415 H3403 0.950 . S
C3415 C3411 1.393 . S
C3415 C3414 1.391 . S
H3416 C3424 0.950 . S
H3417 C3429 0.950 . S
H3418 C3426 0.950 . S
H3419 C3428 0.950 . S
H3420 C3430 0.950 . S
H3421 C3432 0.950 . S
H3422 C3434 0.950 . S
H3423 C3435 0.950 . S
C3424 H3416 0.950 . S
C3424 C3425 1.386 . S
C3424 C3426 1.391 . S
C3425 C3424 1.386 . S
C3425 C3429 1.393 . S
C3426 H3418 0.950 . S
C3426 C3424 1.391 . S
C3426 C3427 1.400 . S
C3427 C3426 1.400 . S
C3427 C3428 1.398 . S
C3427 C3433 1.491 . S
C3428 H3419 0.950 . S
C3428 C3427 1.398 . S
C3428 C3429 1.391 . S
C3429 H3417 0.950 . S
C3429 C3425 1.393 . S
C3429 C3428 1.391 . S
C3430 H3420 0.950 . S
C3430 C3431 1.386 . S
C3430 C3432 1.391 . S
C3431 C3430 1.386 . S
C3431 C3435 1.393 . S
C3432 H3421 0.950 . S
C3432 C3430 1.391 . S
C3432 C3433 1.400 . S
C3433 C3427 1.491 . S
C3433 C3432 1.400 . S
C3433 C3434 1.398 . S
C3434 H3422 0.950 . S
C3434 C3433 1.398 . S
C3434 C3435 1.391 . S
C3435 H3423 0.950 . S
C3435 C3431 1.393 . S
C3435 C3434 1.391 . S
H3436 C3444 0.950 . S
H3437 C3449 0.950 . S
H3438 C3446 0.950 . S
H3439 C3448 0.950 . S
H3440 C3450 0.950 1_545 S
H3441 C3452 0.950 . S
H3442 C3454 0.950 . S
H3443 C3455 0.950 . S
C3444 H3436 0.950 . S
C3444 C3445 1.386 . S
C3444 C3446 1.391 . S
C3445 C3444 1.386 . S
C3445 C3449 1.393 . S
C3446 H3438 0.950 . S
C3446 C3444 1.391 . S
C3446 C3447 1.400 . S
C3447 C3446 1.400 . S
C3447 C3448 1.398 . S
C3447 C3453 1.491 . S
C3448 H3439 0.950 . S
C3448 C3447 1.398 . S
C3448 C3449 1.391 . S
C3449 H3437 0.950 . S
C3449 C3445 1.393 . S
C3449 C3448 1.391 . S
C3450 H3440 0.950 1_565 S
C3450 C3451 1.386 . S
C3450 C3452 1.391 . S
C3451 C3450 1.386 . S
C3451 C3455 1.393 . S
C3452 H3441 0.950 . S
C3452 C3450 1.391 . S
C3452 C3453 1.400 . S
C3453 C3447 1.491 . S
C3453 C3452 1.400 . S
C3453 C3454 1.398 . S
C3454 H3442 0.950 . S
C3454 C3453 1.398 . S
C3454 C3455 1.391 . S
C3455 H3443 0.950 . S
C3455 C3451 1.393 . S
C3455 C3454 1.391 . S
H3456 C3464 0.950 . S
H3457 C3469 0.950 . S
H3458 C3466 0.950 . S
H3459 C3468 0.950 . S
H3460 C3470 0.950 . S
H3461 C3472 0.950 . S
H3462 C3474 0.950 . S
H3463 C3475 0.950 . S
C3464 H3456 0.950 . S
C3464 C3465 1.386 . S
C3464 C3466 1.391 . S
C3465 C3464 1.386 . S
C3465 C3469 1.393 . S
C3466 H3458 0.950 . S
C3466 C3464 1.391 . S
C3466 C3467 1.400 . S
C3467 C3466 1.400 . S
C3467 C3468 1.398 . S
C3467 C3473 1.491 . S
C3468 H3459 0.950 . S
C3468 C3467 1.398 . S
C3468 C3469 1.391 . S
C3469 H3457 0.950 . S
C3469 C3465 1.393 . S
C3469 C3468 1.391 . S
C3470 H3460 0.950 . S
C3470 C3471 1.386 . S
C3470 C3472 1.391 . S
C3471 C3470 1.386 . S
C3471 C3475 1.393 . S
C3472 H3461 0.950 . S
C3472 C3470 1.391 . S
C3472 C3473 1.400 . S
C3473 C3467 1.491 . S
C3473 C3472 1.400 . S
C3473 C3474 1.398 . S
C3474 H3462 0.950 . S
C3474 C3473 1.398 . S
C3474 C3475 1.391 . S
C3475 H3463 0.950 . S
C3475 C3471 1.393 . S
C3475 C3474 1.391 . S
H3476 C3484 0.950 . S
H3477 C3489 0.950 . S
H3478 C3486 0.950 1_556 S
H3479 C3488 0.950 . S
H3480 C3490 0.950 . S
H3481 C3492 0.950 . S
H3482 C3494 0.950 1_556 S
H3483 C3495 0.935 1_556 S
C3484 H3476 0.950 . S
C3484 C3485 1.386 . S
C3484 C3486 1.391 . S
C3485 C3484 1.386 . S
C3485 C3489 1.393 . S
C3486 H3478 0.950 1_554 S
C3486 C3484 1.391 . S
C3486 C3487 1.400 . S
C3487 C3486 1.400 . S
C3487 C3488 1.398 . S
C3487 C3493 1.491 . S
C3488 H3479 0.950 . S
C3488 C3487 1.398 . S
C3488 C3489 1.391 . S
C3489 H3477 0.950 . S
C3489 C3485 1.393 . S
C3489 C3488 1.391 . S
C3490 H3480 0.950 . S
C3490 C3491 1.386 . S
C3490 C3492 1.391 . S
C3491 C3490 1.386 . S
C3491 C3495 1.409 . S
C3492 H3481 0.950 . S
C3492 C3490 1.391 . S
C3492 C3493 1.400 . S
C3493 C3487 1.491 . S
C3493 C3492 1.400 . S
C3493 C3494 1.398 . S
C3494 H3482 0.950 1_554 S
C3494 C3493 1.398 . S
C3494 C3495 1.390 . S
C3495 H3483 0.935 1_554 S
C3495 C3491 1.409 . S
C3495 C3494 1.390 . S
H3496 C3504 0.950 . S
H3497 C3509 0.950 . S
H3498 C3506 0.950 . S
H3499 C3508 0.950 . S
H3500 C3510 0.950 . S
H3501 C3512 0.950 . S
H3502 C3514 0.950 . S
H3503 C3515 0.950 . S
C3504 H3496 0.950 . S
C3504 C3505 1.386 . S
C3504 C3506 1.391 . S
C3505 C3504 1.386 . S
C3505 C3509 1.393 . S
C3506 H3498 0.950 . S
C3506 C3504 1.391 . S
C3506 C3507 1.400 . S
C3507 C3506 1.400 . S
C3507 C3508 1.398 . S
C3507 C3513 1.491 . S
C3508 H3499 0.950 . S
C3508 C3507 1.398 . S
C3508 C3509 1.391 . S
C3509 H3497 0.950 . S
C3509 C3505 1.393 . S
C3509 C3508 1.391 . S
C3510 H3500 0.950 . S
C3510 C3511 1.386 . S
C3510 C3512 1.391 . S
C3511 C3510 1.386 . S
C3511 C3515 1.393 . S
C3512 H3501 0.950 . S
C3512 C3510 1.391 . S
C3512 C3513 1.400 . S
C3513 C3507 1.491 . S
C3513 C3512 1.400 . S
C3513 C3514 1.398 . S
C3514 H3502 0.950 . S
C3514 C3513 1.398 . S
C3514 C3515 1.391 . S
C3515 H3503 0.950 . S
C3515 C3511 1.393 . S
C3515 C3514 1.391 . S
H3516 C3524 0.950 . S
H3517 C3529 0.950 . S
H3518 C3526 0.950 . S
H3519 C3528 0.950 . S
H3520 C3530 0.950 . S
H3521 C3532 0.950 . S
H3522 C3534 0.950 . S
H3523 C3535 0.950 . S
C3524 H3516 0.950 . S
C3524 C3525 1.386 . S
C3524 C3526 1.391 . S
C3525 C3524 1.386 . S
C3525 C3529 1.393 . S
C3526 H3518 0.950 . S
C3526 C3524 1.391 . S
C3526 C3527 1.400 . S
C3527 C3526 1.400 . S
C3527 C3528 1.398 . S
C3527 C3533 1.491 . S
C3528 H3519 0.950 . S
C3528 C3527 1.398 . S
C3528 C3529 1.391 . S
C3529 H3517 0.950 . S
C3529 C3525 1.393 . S
C3529 C3528 1.391 . S
C3530 H3520 0.950 . S
C3530 C3531 1.386 . S
C3530 C3532 1.391 . S
C3531 C3530 1.386 . S
C3531 C3535 1.393 . S
C3532 H3521 0.950 . S
C3532 C3530 1.391 . S
C3532 C3533 1.400 . S
C3533 C3527 1.491 . S
C3533 C3532 1.400 . S
C3533 C3534 1.398 . S
C3534 H3522 0.950 . S
C3534 C3533 1.398 . S
C3534 C3535 1.391 . S
C3535 H3523 0.950 . S
C3535 C3531 1.393 . S
C3535 C3534 1.391 . S
H3536 C3544 0.950 . S
H3537 C3549 0.950 . S
H3538 C3546 0.950 . S
H3539 C3548 0.950 . S
H3540 C3550 0.950 . S
H3541 C3552 0.950 . S
H3542 C3554 0.950 . S
H3543 C3555 0.950 . S
C3544 H3536 0.950 . S
C3544 C3545 1.386 . S
C3544 C3546 1.391 . S
C3545 C3544 1.386 . S
C3545 C3549 1.393 . S
C3546 H3538 0.950 . S
C3546 C3544 1.391 . S
C3546 C3547 1.400 . S
C3547 C3546 1.400 . S
C3547 C3548 1.398 . S
C3547 C3553 1.491 . S
C3548 H3539 0.950 . S
C3548 C3547 1.398 . S
C3548 C3549 1.391 . S
C3549 H3537 0.950 . S
C3549 C3545 1.393 . S
C3549 C3548 1.391 . S
C3550 H3540 0.950 . S
C3550 C3551 1.386 . S
C3550 C3552 1.391 . S
C3551 C3550 1.386 . S
C3551 C3555 1.393 . S
C3552 H3541 0.950 . S
C3552 C3550 1.391 . S
C3552 C3553 1.400 . S
C3553 C3547 1.491 . S
C3553 C3552 1.400 . S
C3553 C3554 1.398 . S
C3554 H3542 0.950 . S
C3554 C3553 1.398 . S
C3554 C3555 1.391 . S
C3555 H3543 0.950 . S
C3555 C3551 1.393 . S
C3555 C3554 1.391 . S
H3556 C3564 0.950 . S
H3557 C3569 0.950 . S
H3558 C3566 0.950 . S
H3559 C3568 0.950 . S
H3560 C3570 0.950 . S
H3561 C3572 0.950 . S
H3562 C3574 0.950 . S
H3563 C3575 0.950 . S
C3564 H3556 0.950 . S
C3564 C3565 1.386 . S
C3564 C3566 1.391 . S
C3565 C3564 1.386 . S
C3565 C3569 1.393 . S
C3566 H3558 0.950 . S
C3566 C3564 1.391 . S
C3566 C3567 1.400 . S
C3567 C3566 1.400 . S
C3567 C3568 1.398 . S
C3567 C3573 1.491 . S
C3568 H3559 0.950 . S
C3568 C3567 1.398 . S
C3568 C3569 1.391 . S
C3569 H3557 0.950 . S
C3569 C3565 1.393 . S
C3569 C3568 1.391 . S
C3570 H3560 0.950 . S
C3570 C3571 1.386 . S
C3570 C3572 1.391 . S
C3571 C3570 1.386 . S
C3571 C3575 1.393 . S
C3572 H3561 0.950 . S
C3572 C3570 1.391 . S
C3572 C3573 1.400 . S
C3573 C3567 1.491 . S
C3573 C3572 1.400 . S
C3573 C3574 1.398 . S
C3574 H3562 0.950 . S
C3574 C3573 1.398 . S
C3574 C3575 1.391 . S
C3575 H3563 0.950 . S
C3575 C3571 1.393 . S
C3575 C3574 1.391 . S
C1665 C101 1.732 . S
C1671 C368 1.571 . S
C1685 C57 2.176 . S
C1691 C459 2.128 . S
C1705 C70 1.390 . S
C1711 C536 1.287 . S
C1731 C634 1.464 . S
C1725 C82 1.549 . S
C1745 C23 1.605 . S
C1751 C718 1.586 . S
C1771 C790 0.889 . S
C1765 C29 0.906 . S
C1791 C879 0.783 . S
C1785 C49 0.787 . S
C1805 C10 1.564 . S
C1811 C956 1.356 . S
C1831 C375 1.939 . S
C1825 C218 2.032 . S
C1845 C226 0.714 . S
C1851 C466 0.710 . S
C1871 C543 1.202 . S
C1865 C251 1.241 . S
C1891 C620 1.435 . S
C1885 C159 1.535 . S
C1905 C211 2.087 . S
C1911 C704 1.889 . S
C1931 C806 1.096 . S
C1925 C225 1.203 . S
C1951 C886 0.807 . S
C1945 C252 0.777 . S
C1971 C963 1.472 . S
C1965 C166 1.613 . S
C1991 C382 1.411 . S
C1985 C147 1.493 . S
C2005 C263 1.886 . S
C2011 C1047 1.835 1_556 S
C2031 C1135 2.155 . S
C2025 C309 2.370 . S
C2051 C1208 0.619 1_655 S
C2045 C291 0.350 . S
C2065 C108 1.107 . S
C2071 C970 1.140 . S
C2085 C121 1.500 . S
C2091 C550 1.486 . S
C2105 C302 2.181 . S
C2111 C1299 2.114 . S
C2131 C1376 0.743 . S
C2125 C276 0.678 . S
C2151 C379 1.808 1_565 S
C2145 C55 1.931 . S
C2171 C1394 2.358 . S
C2165 C96 2.396 . S
C2185 C88 1.748 . S
C2191 C547 1.683 . S
C2205 C75 1.784 . S
C2211 C1294 1.643 . S
C2231 C706 1.592 . S
C2225 C4 1.666 . S
C2245 C44 1.147 . S
C2251 C1138 1.041 . S
C2271 C890 1.229 1_565 S
C2265 C31 1.185 . S
C2291 C1471 1.517 . S
C2285 C18 1.637 . S
C2311 C386 2.207 . S
C2305 C133 2.306 . S
C2331 C1378 0.834 . S
C2325 C296 0.878 . S
C2345 C107 1.419 . S
C2351 C554 1.381 . S
C2365 C264 1.859 . S
C2371 C1303 1.766 . S
C2385 C140 2.280 . S
C2391 C715 2.129 . S
C2411 C1131 1.282 . S
C2405 C289 1.356 . S
C2425 C114 0.991 . S
C2431 C874 0.940 . S
C2445 C265 1.851 . S
C2451 C1478 1.731 . S
C2465 C179 1.590 . S
C2471 C370 1.466 . S
C2485 C161 2.138 . S
C2491 C1058 2.067 . S
C2505 C244 2.612 . S
C2511 C788 2.458 . S
C2525 C224 0.838 . S
C2531 C1219 0.845 . S
C2551 C1462 0.937 . S
C2545 C257 0.948 1_565 S
C2565 C199 1.584 . S
C2571 C538 1.524 . S
C2591 C638 2.342 . S
C2585 C237 2.445 . S
C2611 C463 0.932 . S
C2605 C185 0.983 . S
C2625 C69 1.721 . S
C2631 C1544 1.545 . S
C2651 C1383 2.141 . S
C2645 C83 2.164 . S
C2665 C94 1.392 . S
C2671 C1628 1.289 . S
C2685 C56 1.551 . S
C2691 C1306 1.471 . S
C2705 C42 1.619 . S
C2711 C1054 1.586 . S
C2731 C1126 0.898 . S
C2725 C3 0.907 . S
C2751 C1215 0.817 . S
C2745 C16 0.771 . S
C2771 C1460 1.311 . S
C2765 C36 1.542 . S
C2791 C1551 1.926 . S
C2785 C238 2.037 . S
C2805 C174 0.734 . S
C2811 C1390 0.743 . S
C2831 C1635 1.213 . S
C2825 C186 1.266 . S
C2851 C1292 1.437 . S
C2845 C198 1.535 . S
C2871 C1040 1.908 . S
C2865 C239 2.094 . S
C2885 C173 1.205 . S
C2891 C1142 1.103 . S
C2911 C1222 0.795 . S
C2905 C187 0.771 . S
C2925 C205 1.605 . S
C2931 C1467 1.463 . S
C2951 C1558 1.410 . S
C2945 C290 1.491 . S
C2965 C122 1.887 . S
C2971 C711 1.836 . S
C2991 C799 2.169 . S
C2985 C134 2.377 . S
C3011 C872 0.587 . S
C3005 C148 0.331 . S
C3031 C1474 1.137 . S
C3025 C283 1.083 . S
C3045 C270 1.499 . S
C3051 C1642 1.484 . S
C3071 C627 2.105 . S
C3065 C135 2.177 . S
C3091 C452 0.692 . S
C3085 C109 0.679 . S
C3105 C81 1.926 . S
C3111 C1555 1.807 . S
C3131 C470 2.359 . S
C3125 C68 2.397 . S
C3145 C62 1.755 . S
C3151 C1639 1.656 . S
C3165 C95 1.781 . S
C3171 C622 1.631 . S
C3185 C30 1.653 . S
C3191 C1042 1.616 . S
C3211 C802 1.019 . S
C3205 C17 1.144 . S
C3225 C5 1.202 . S
C3231 C1226 1.220 . S
C3245 C43 1.640 . S
C3251 C967 1.504 . S
C3271 C1562 2.205 . S
C3265 C304 2.305 . S
C3285 C153 0.872 . S
C3291 C454 0.865 . S
C3311 C1646 1.358 . S
C3305 C278 1.421 . S
C3325 C127 1.859 . S
C3331 C631 1.758 . S
C3345 C303 2.284 . S
C3351 C1051 2.146 . S
C3371 C795 1.267 . S
C3365 C146 1.350 . S
C3385 C277 0.989 . S
C3391 C1210 0.941 . S
C3411 C974 1.715 . S
C3405 C120 1.847 . S
C3431 C1546 1.473 . S
C3425 C231 1.592 . S
C3451 C722 2.061 1_665 S
C3445 C200 2.135 . S
C3465 C212 2.612 . S
C3471 C1124 2.441 . S
C3491 C883 0.826 . S
C3485 C172 0.840 . S
C3505 C192 0.936 . S
C3511 C958 0.941 . S
C3525 C160 1.590 . S
C3531 C1630 1.507 . S
C3551 C1310 2.339 . S
C3545 C213 2.448 1_565 S
C3571 C1387 0.947 . S
C3565 C250 0.984 . S
