# Generated by pormake.
# Topology ant, (3,6)-cn, num edge types: 1
# Building blocks:
#     Node 0, Type 0, BuildingBlock: WUSLED_clean_sbu_0, # of connection points: 3
#     Node 1, Type 0, BuildingBlock: WUSLED_clean_sbu_0, # of connection points: 3
#     Node 2, Type 0, BuildingBlock: WUSLED_clean_sbu_0, # of connection points: 3
#     Node 3, Type 0, BuildingBlock: WUSLED_clean_sbu_0, # of connection points: 3
#     Node 4, Type 0, BuildingBlock: WUSLED_clean_sbu_0, # of connection points: 3
#     Node 5, Type 0, BuildingBlock: WUSLED_clean_sbu_0, # of connection points: 3
#     Node 6, Type 0, BuildingBlock: WUSLED_clean_sbu_0, # of connection points: 3
#     Node 7, Type 0, BuildingBlock: WUSLED_clean_sbu_0, # of connection points: 3
#     Node 8, Type 1, BuildingBlock: MIDCAF_clean_sbu_0, # of connection points: 6
#     Node 9, Type 1, BuildingBlock: MIDCAF_clean_sbu_0, # of connection points: 6
#     Node 10, Type 1, BuildingBlock: MIDCAF_clean_sbu_0, # of connection points: 6
#     Node 11, Type 1, BuildingBlock: MIDCAF_clean_sbu_0, # of connection points: 6
#     Edge 12, Type (0, 1), BuildingBlock: AJUNOK_clean_linker_0, # of connection points: 2
#     Edge 13, Type (0, 1), BuildingBlock: AJUNOK_clean_linker_0, # of connection points: 2
#     Edge 14, Type (0, 1), BuildingBlock: AJUNOK_clean_linker_0, # of connection points: 2
#     Edge 15, Type (0, 1), BuildingBlock: AJUNOK_clean_linker_0, # of connection points: 2
#     Edge 16, Type (0, 1), BuildingBlock: AJUNOK_clean_linker_0, # of connection points: 2
#     Edge 17, Type (0, 1), BuildingBlock: AJUNOK_clean_linker_0, # of connection points: 2
#     Edge 18, Type (0, 1), BuildingBlock: AJUNOK_clean_linker_0, # of connection points: 2
#     Edge 19, Type (0, 1), BuildingBlock: AJUNOK_clean_linker_0, # of connection points: 2
#     Edge 20, Type (0, 1), BuildingBlock: AJUNOK_clean_linker_0, # of connection points: 2
#     Edge 21, Type (0, 1), BuildingBlock: AJUNOK_clean_linker_0, # of connection points: 2
#     Edge 22, Type (0, 1), BuildingBlock: AJUNOK_clean_linker_0, # of connection points: 2
#     Edge 23, Type (0, 1), BuildingBlock: AJUNOK_clean_linker_0, # of connection points: 2
#     Edge 24, Type (0, 1), BuildingBlock: AJUNOK_clean_linker_0, # of connection points: 2
#     Edge 25, Type (0, 1), BuildingBlock: AJUNOK_clean_linker_0, # of connection points: 2
#     Edge 26, Type (0, 1), BuildingBlock: AJUNOK_clean_linker_0, # of connection points: 2
#     Edge 27, Type (0, 1), BuildingBlock: AJUNOK_clean_linker_0, # of connection points: 2
#     Edge 28, Type (0, 1), BuildingBlock: AJUNOK_clean_linker_0, # of connection points: 2
#     Edge 29, Type (0, 1), BuildingBlock: AJUNOK_clean_linker_0, # of connection points: 2
#     Edge 30, Type (0, 1), BuildingBlock: AJUNOK_clean_linker_0, # of connection points: 2
#     Edge 31, Type (0, 1), BuildingBlock: AJUNOK_clean_linker_0, # of connection points: 2
#     Edge 32, Type (0, 1), BuildingBlock: AJUNOK_clean_linker_0, # of connection points: 2
#     Edge 33, Type (0, 1), BuildingBlock: AJUNOK_clean_linker_0, # of connection points: 2
#     Edge 34, Type (0, 1), BuildingBlock: AJUNOK_clean_linker_0, # of connection points: 2
#     Edge 35, Type (0, 1), BuildingBlock: AJUNOK_clean_linker_0, # of connection points: 2
# Relax obj value: 0.097
# Max RMSD: 0.155
# Mean RMSD: 0.100
data_MOF--net-ant--node1-WUSLED_clean_sbu_0--node2-MIDCAF_clean_sbu_0--edge1-AJUNOK_clean_linker_0
_symmetry_space_group_name_H-M    P1
_symmetry_Int_Tables_number       1
_symmetry_cell_setting            triclinic
loop_
_symmetry_equiv_pos_as_xyz
'x, y, z'
_cell_length_a     28.718002
_cell_length_b     28.400236
_cell_length_c     78.857753
_cell_angle_alpha  89.983496
_cell_angle_beta   96.454662
_cell_angle_gamma 90.310233
loop_
_atom_site_label
_atom_site_type_symbol
_atom_site_fract_x
_atom_site_fract_y
_atom_site_fract_z
_atom_type_partial_charge
C0 C 0.21433 0.15313 0.10322 0.0
C1 C 0.20797 0.11592 0.09146 0.0
C2 C 0.22234 0.05876 0.1145 0.0
C3 C 0.21195 0.06919 0.09705 0.0
C4 C 0.23084 0.09625 0.12614 0.0
C5 C 0.2267 0.14306 0.12054 0.0
U6 U 0.18786 0.23956 0.06703 0.0
O7 O 0.21611 0.31021 0.06236 0.0
O8 O 0.14078 0.30053 0.06368 0.0
C9 C 0.17512 0.3307 0.06238 0.0
C10 C 0.20652 0.20216 0.09747 0.0
C11 C 0.17366 0.3761 0.07174 0.0
C12 C 0.12937 0.43643 0.08497 0.0
C13 C 0.13209 0.39145 0.07786 0.0
C14 C 0.20962 0.45196 0.08006 0.0
C15 C 0.1679 0.46746 0.08599 0.0
C16 C 0.21236 0.407 0.07293 0.0
C17 C 0.17455 0.18895 0.02176 0.0
C18 C 0.17967 0.23675 0.99655 0.0
C19 C 0.15864 0.15417 0.99348 0.0
C20 C 0.16183 0.14994 0.01128 0.0
C21 C 0.16868 0.19738 0.98602 0.0
C22 C 0.18247 0.23262 0.01427 0.0
C23 C 0.18201 0.18326 0.04041 0.0
O24 O 0.23894 0.22 0.08882 0.0
O25 O 0.16373 0.21135 0.09053 0.0
O26 O 0.14605 0.19305 0.0487 0.0
O27 O 0.22173 0.20059 0.04779 0.0
H28 H 0.19861 0.12301 0.07801 0.0
H29 H 0.20484 0.04118 0.08778 0.0
H30 H 0.2396 0.08936 0.13963 0.0
H31 H 0.23216 0.17134 0.12978 0.0
H32 H 0.09674 0.44727 0.08943 0.0
H33 H 0.10125 0.36908 0.07689 0.0
H34 H 0.24035 0.47449 0.08103 0.0
H35 H 0.24468 0.3967 0.06812 0.0
H36 H 0.18695 0.27059 0.99104 0.0
H37 H 0.15 0.12346 0.98558 0.0
H38 H 0.15549 0.11598 0.01688 0.0
H39 H 0.19197 0.26321 0.02215 0.0
C40 C 0.22489 0.82978 0.35451 0.0
C41 C 0.25561 0.82633 0.34193 0.0
C42 C 0.32313 0.83366 0.36351 0.0
C43 C 0.30414 0.82822 0.34637 0.0
C44 C 0.29214 0.8392 0.376 0.0
C45 C 0.24343 0.83707 0.37154 0.0
U46 U 0.12547 0.81145 0.31989 0.0
O47 O 0.06551 0.76227 0.31712 0.0
O48 O 0.05344 0.83852 0.31521 0.0
C49 C 0.03451 0.7962 0.31475 0.0
C50 C 0.17396 0.8234 0.34985 0.0
C51 C 0.9909 0.7903 0.32273 0.0
C52 C 0.94608 0.79201 0.34709 0.0
C53 C 0.9889 0.79704 0.34025 0.0
C54 C 0.90729 0.77311 0.31902 0.0
C55 C 0.90472 0.78047 0.3365 0.0
C56 C 0.94994 0.77803 0.31223 0.0
C57 C 0.15907 0.80728 0.27447 0.0
C58 C 0.10664 0.77883 0.25024 0.0
C59 C 0.18197 0.81288 0.24588 0.0
C60 C 0.19153 0.82079 0.2634 0.0
C61 C 0.13981 0.79113 0.23915 0.0
C62 C 0.11619 0.78693 0.2678 0.0
C63 C 0.17121 0.81334 0.29292 0.0
O64 O 0.15265 0.85811 0.34113 0.0
O65 O 0.16169 0.78175 0.34352 0.0
O66 O 0.16712 0.77538 0.30217 0.0
O67 O 0.15458 0.85132 0.29953 0.0
H68 H 0.24203 0.82077 0.32869 0.0
H69 H 0.32685 0.82343 0.33643 0.0
H70 H 0.30554 0.8443 0.38927 0.0
H71 H 0.22031 0.84011 0.38143 0.0
H72 H 0.94511 0.79797 0.36061 0.0
H73 H 0.0202 0.80648 0.34855 0.0
H74 H 0.87631 0.76333 0.31061 0.0
H75 H 0.9509 0.77243 0.29868 0.0
H76 H 0.07368 0.76251 0.24534 0.0
H77 H 0.20831 0.82234 0.23765 0.0
H78 H 0.22473 0.83659 0.26834 0.0
H79 H 0.09056 0.77662 0.27621 0.0
C80 C 0.74778 0.64019 0.60285 0.0
C81 C 0.77279 0.61115 0.59266 0.0
C82 C 0.75936 0.54308 0.6104 0.0
C83 C 0.77869 0.56324 0.59645 0.0
C84 C 0.73595 0.57264 0.62097 0.0
C85 C 0.73036 0.6207 0.61725 0.0
U86 U 0.7104 0.72886 0.5682 0.0
O87 O 0.6615 0.78859 0.56682 0.0
O88 O 0.73518 0.80054 0.5631 0.0
C89 C 0.6942 0.8198 0.56448 0.0
C90 C 0.73658 0.68952 0.59786 0.0
C91 C 0.69363 0.86526 0.5739 0.0
C92 C 0.64959 0.92723 0.58637 0.0
C93 C 0.65178 0.882 0.5794 0.0
C94 C 0.73099 0.94031 0.58255 0.0
C95 C 0.68898 0.9572 0.58784 0.0
C96 C 0.73322 0.89506 0.57558 0.0
C97 C 0.68927 0.6793 0.52264 0.0
C98 C 0.68749 0.72719 0.49711 0.0
C99 C 0.67015 0.6437 0.49461 0.0
C100 C 0.67664 0.63971 0.51244 0.0
C101 C 0.67672 0.68729 0.48682 0.0
C102 C 0.6936 0.72328 0.51488 0.0
C103 C 0.70069 0.67378 0.5412 0.0
O104 O 0.76597 0.71058 0.58864 0.0
O105 O 0.69244 0.69733 0.59222 0.0
O106 O 0.66657 0.68214 0.55055 0.0
O107 O 0.74092 0.69229 0.54759 0.0
H108 H 0.78642 0.62505 0.58141 0.0
H109 H 0.7968 0.5415 0.58803 0.0
H110 H 0.71954 0.55819 0.63155 0.0
H111 H 0.7107 0.64227 0.62523 0.0
H112 H 0.6167 0.93913 0.59033 0.0
H113 H 0.62029 0.86054 0.57799 0.0
H114 H 0.76232 0.96201 0.58387 0.0
H115 H 0.76584 0.88377 0.57124 0.0
H116 H 0.69228 0.76126 0.49135 0.0
H117 H 0.66187 0.61255 0.48691 0.0
H118 H 0.67309 0.60549 0.51825 0.0
H119 H 0.70304 0.75428 0.52253 0.0
C120 C 0.72052 0.3428 0.85054 0.0
C121 C 0.75165 0.34768 0.83811 0.0
C122 C 0.81869 0.34136 0.85996 0.0
C123 C 0.80026 0.34707 0.84277 0.0
C124 C 0.7873 0.33814 0.87241 0.0
C125 C 0.73873 0.33893 0.86774 0.0
U126 U 0.61906 0.32394 0.81605 0.0
O127 O 0.55738 0.27719 0.81472 0.0
O128 O 0.54785 0.35354 0.81146 0.0
C129 C 0.52755 0.312 0.81181 0.0
C130 C 0.66949 0.33786 0.84557 0.0
C131 C 0.48321 0.30887 0.81953 0.0
C132 C 0.43798 0.29362 0.84326 0.0
C133 C 0.48145 0.29839 0.83683 0.0
C134 C 0.39796 0.30949 0.81517 0.0
C135 C 0.39573 0.29934 0.83249 0.0
C136 C 0.44121 0.31432 0.8088 0.0
C137 C 0.64667 0.31158 0.77022 0.0
C138 C 0.59495 0.27364 0.74767 0.0
C139 C 0.66233 0.31848 0.74074 0.0
C140 C 0.6739 0.32924 0.75798 0.0
C141 C 0.62345 0.28962 0.73546 0.0
C142 C 0.60638 0.28472 0.76493 0.0
C143 C 0.66175 0.32002 0.78841 0.0
O144 O 0.64939 0.37223 0.83629 0.0
O145 O 0.65589 0.29592 0.83988 0.0
O146 O 0.65795 0.28377 0.79854 0.0
O147 O 0.64758 0.35969 0.79463 0.0
H148 H 0.73836 0.35023 0.82473 0.0
H149 H 0.82334 0.34851 0.83283 0.0
H150 H 0.80038 0.33349 0.88573 0.0
H151 H 0.71537 0.33494 0.87753 0.0
H152 H 0.43737 0.28593 0.85669 0.0
H153 H 0.51349 0.29371 0.8453 0.0
H154 H 0.36621 0.31313 0.80647 0.0
H155 H 0.44185 0.3218 0.79535 0.0
H156 H 0.56464 0.25162 0.74389 0.0
H157 H 0.68513 0.33088 0.73161 0.0
H158 H 0.70493 0.35021 0.76182 0.0
H159 H 0.58455 0.27124 0.7742 0.0
C160 C 0.09209 0.86851 0.91216 0.0
C161 C 0.09421 0.89738 0.92672 0.0
C162 C 0.10936 0.96621 0.90968 0.0
C163 C 0.1026 0.94586 0.92548 0.0
C164 C 0.10823 0.93691 0.89524 0.0
C165 C 0.09959 0.88855 0.89646 0.0
U166 U 0.08792 0.75963 0.93926 0.0
O167 O 0.03597 0.70207 0.93936 0.0
O168 O 0.10935 0.68635 0.93615 0.0
C169 C 0.06701 0.66947 0.93709 0.0
C170 C 0.08222 0.81763 0.91328 0.0
C171 C 0.05226 0.6303 0.9255 0.0
C172 C 0.03951 0.59537 0.8972 0.0
C173 C 0.0463 0.63535 0.90769 0.0
C174 C 0.04245 0.54575 0.92227 0.0
C175 C 0.0396 0.54987 0.90441 0.0
C176 C 0.04863 0.58552 0.93266 0.0
C177 C 0.12622 0.77326 0.98674 0.0
C178 C 0.11825 0.70981 0.00692 0.0
C179 C 0.1539 0.78405 0.01662 0.0
C180 C 0.14778 0.80126 0.99997 0.0
C181 C 0.13845 0.73849 0.02034 0.0
C182 C 0.11219 0.72711 0.9902 0.0
C183 C 0.11775 0.79311 0.96952 0.0
O184 O 0.11899 0.79099 0.91754 0.0
O185 O 0.04614 0.80653 0.92141 0.0
O186 O 0.07361 0.79447 0.96299 0.0
O187 O 0.14602 0.77829 0.95871 0.0
H188 H 0.08903 0.88246 0.93901 0.0
H189 H 0.10382 0.96742 0.93685 0.0
H190 H 0.11295 0.95163 0.88287 0.0
H191 H 0.09832 0.86688 0.88511 0.0
H192 H 0.03629 0.59993 0.88349 0.0
H193 H 0.04875 0.6698 0.90194 0.0
H194 H 0.04312 0.51148 0.92833 0.0
H195 H 0.05313 0.58097 0.9464 0.0
H196 H 0.1064 0.67448 0.00943 0.0
H197 H 0.16903 0.80715 0.02673 0.0
H198 H 0.15891 0.83688 0.99747 0.0
H199 H 0.0958 0.70492 0.98003 0.0
C200 C 0.5624 0.82649 0.15306 0.0
C201 C 0.53158 0.82524 0.16568 0.0
C202 C 0.46422 0.82759 0.14391 0.0
C203 C 0.48302 0.82583 0.16116 0.0
C204 C 0.4953 0.83123 0.13134 0.0
C205 C 0.54396 0.83047 0.13589 0.0
U206 U 0.66194 0.81053 0.18782 0.0
O207 O 0.72149 0.76152 0.1909 0.0
O208 O 0.73422 0.83785 0.19215 0.0
C209 C 0.7528 0.79557 0.19291 0.0
C210 C 0.61328 0.82063 0.15782 0.0
C211 C 0.79616 0.78908 0.18486 0.0
C212 C 0.84117 0.79199 0.16055 0.0
C213 C 0.79855 0.7975 0.16745 0.0
C214 C 0.87903 0.76928 0.18833 0.0
C215 C 0.88199 0.77827 0.17098 0.0
C216 C 0.83656 0.77469 0.19518 0.0
C217 C 0.62872 0.80875 0.23332 0.0
C218 C 0.68008 0.78003 0.2577 0.0
C219 C 0.6067 0.8177 0.26191 0.0
C220 C 0.59719 0.8245 0.24434 0.0
C221 C 0.64808 0.79513 0.26877 0.0
C222 C 0.67059 0.78705 0.24007 0.0
C223 C 0.6165 0.81383 0.21484 0.0
O224 O 0.63476 0.85591 0.16628 0.0
O225 O 0.62534 0.77939 0.16446 0.0
O226 O 0.62017 0.77539 0.20583 0.0
O227 O 0.63336 0.85147 0.20795 0.0
H228 H 0.5451 0.82219 0.17903 0.0
H229 H 0.46017 0.82265 0.17113 0.0
H230 H 0.48196 0.83343 0.11797 0.0
H231 H 0.56714 0.83174 0.12597 0.0
H232 H 0.84244 0.79924 0.14713 0.0
H233 H 0.76771 0.80861 0.15929 0.0
H234 H 0.90953 0.75781 0.1966 0.0
H235 H 0.8353 0.76781 0.20864 0.0
H236 H 0.71205 0.76231 0.26266 0.0
H237 H 0.58083 0.8286 0.27009 0.0
H238 H 0.56465 0.84114 0.23932 0.0
H239 H 0.69541 0.77477 0.2317 0.0
C240 C 0.60721 0.36131 0.41273 0.0
C241 C 0.62359 0.38978 0.42678 0.0
C242 C 0.6136 0.4598 0.40896 0.0
C243 C 0.62696 0.43881 0.42488 0.0
C244 C 0.59874 0.43087 0.39488 0.0
C245 C 0.59561 0.38212 0.39676 0.0
U246 U 0.59965 0.25405 0.44104 0.0
O247 O 0.54721 0.19688 0.43992 0.0
O248 O 0.62153 0.18058 0.43872 0.0
C249 C 0.57864 0.16405 0.43857 0.0
C250 C 0.59888 0.31052 0.41472 0.0
C251 C 0.56559 0.12515 0.42672 0.0
C252 C 0.55454 0.09123 0.39827 0.0
C253 C 0.56091 0.13083 0.40894 0.0
C254 C 0.55541 0.04086 0.4231 0.0
C255 C 0.55361 0.0456 0.40529 0.0
C256 C 0.56127 0.08022 0.43367 0.0
C257 C 0.62526 0.26382 0.48899 0.0
C258 C 0.66065 0.2075 0.50988 0.0
C259 C 0.59767 0.25778 0.51689 0.0
C260 C 0.59513 0.27836 0.50076 0.0
C261 C 0.63073 0.22254 0.52165 0.0
C262 C 0.6578 0.2278 0.49362 0.0
C263 C 0.62171 0.2862 0.47198 0.0
O264 O 0.6356 0.28534 0.42048 0.0
O265 O 0.5611 0.29984 0.42193 0.0
O266 O 0.57912 0.28894 0.46396 0.0
O267 O 0.65319 0.27365 0.46199 0.0
H268 H 0.63247 0.37422 0.43926 0.0
H269 H 0.63813 0.46038 0.43593 0.0
H270 H 0.58844 0.4462 0.38245 0.0
H271 H 0.58287 0.36078 0.3858 0.0
H272 H 0.55228 0.09616 0.38458 0.0
H273 H 0.56384 0.16546 0.40339 0.0
H274 H 0.55533 1.0064 0.42899 0.0
H275 H 0.56472 0.07527 0.44738 0.0
H276 H 0.68648 0.18048 0.51331 0.0
H277 H 0.57475 0.27053 0.52588 0.0
H278 H 0.56981 0.306 0.49752 0.0
H279 H 0.68135 0.2155 0.4848 0.0
C280 C 0.07554 0.33057 0.65476 0.0
C281 C 0.04911 0.35041 0.66688 0.0
C282 C 0.9763 0.33047 0.64928 0.0
C283 C 1.0001 0.35053 0.66414 0.0
C284 C 1.0029 0.31243 0.63683 0.0
C285 C 0.05206 0.31249 0.63956 0.0
U286 U 0.17713 0.31196 0.68836 0.0
O287 O 0.23673 0.26277 0.69054 0.0
O288 O 0.24938 0.33904 0.69266 0.0
C289 C 0.268 0.29681 0.69285 0.0
C290 C 0.12669 0.3239 0.65883 0.0
C291 C 0.31137 0.29157 0.68469 0.0
C292 C 0.35846 0.30514 0.66141 0.0
C293 C 0.31528 0.30754 0.66809 0.0
C294 C 0.39389 0.27025 0.68775 0.0
C295 C 0.39836 0.28677 0.67123 0.0
C296 C 0.35079 0.27255 0.69438 0.0
C297 C 0.14621 0.30705 0.73419 0.0
C298 C 0.19108 0.26731 0.75794 0.0
C299 C 0.12863 0.32066 0.76315 0.0
C300 C 0.12004 0.32975 0.74568 0.0
C301 C 0.16338 0.28843 0.76939 0.0
C302 C 0.18268 0.2767 0.74045 0.0
C303 C 0.13331 0.31361 0.71578 0.0
O304 O 0.14966 0.35848 0.66723 0.0
O305 O 0.13876 0.28217 0.66501 0.0
O306 O 0.13598 0.27586 0.70631 0.0
O307 O 0.14994 0.35171 0.70912 0.0
H308 H 0.06627 0.36413 0.67881 0.0
H309 H 0.9807 0.36463 0.67398 0.0
H310 H 0.98575 0.29575 0.62543 0.0
H311 H 0.07168 0.2965 0.63013 0.0
H312 H 0.36076 0.31795 0.64859 0.0
H313 H 0.28528 0.32248 0.66044 0.0
H314 H 0.424 0.25685 0.69577 0.0
H315 H 0.34852 0.26045 0.7073 0.0
H316 H 0.21832 0.24266 0.76248 0.0
H317 H 0.10656 0.3371 0.7717 0.0
H318 H 0.09191 0.35339 0.74108 0.0
H319 H 0.20367 0.25922 0.73177 0.0
Zn320 Zn 0.21109 0.70126 0.14804 0.0
Zn321 Zn 0.10215 0.80457 0.1141 0.0
Zn322 Zn 0.16107 0.75822 0.13038 0.0
C323 C 0.13025 0.74349 0.09101 0.0
C324 C 0.17381 0.86637 0.12558 0.0
O325 O 0.13386 0.75363 0.15551 0.0
O326 O 0.19159 0.7159 0.17065 0.0
C327 C 0.17333 0.64654 0.12203 0.0
O328 O 0.1471 0.72392 0.1051 0.0
O329 O 0.11175 0.78358 0.09111 0.0
O330 O 0.12982 0.86608 0.12205 0.0
O331 O 0.19615 0.82712 0.12724 0.0
O332 O 0.18987 0.64091 0.13739 0.0
O333 O 0.16425 0.68859 0.11629 0.0
O334 O 0.23058 0.79369 0.13359 0.0
O335 O 0.27059 0.7298 0.14176 0.0
C336 C 0.26996 0.77223 0.13691 0.0
O337 O 0.09562 0.76626 0.14406 0.0
O338 O 0.04333 0.78433 0.12241 0.0
C339 C 0.15379 0.73852 0.16995 0.0
C340 C 0.05246 0.77258 0.1378 0.0
Zn341 Zn 0.57026 0.70825 0.35862 0.0
Zn342 Zn 0.68492 0.80726 0.39369 0.0
Zn343 Zn 0.62666 0.75999 0.37777 0.0
C344 C 0.61327 0.86785 0.38372 0.0
C345 C 0.73397 0.77721 0.3695 0.0
O346 O 0.62253 0.69029 0.3911 0.0
O347 O 0.5799 0.64913 0.37117 0.0
C348 C 0.516 0.78092 0.36953 0.0
O349 O 0.59204 0.82774 0.38214 0.0
O350 O 0.65734 0.86906 0.38674 0.0
O351 O 0.74352 0.78945 0.38483 0.0
O352 O 0.69075 0.76982 0.36348 0.0
O353 O 0.51187 0.7421 0.36174 0.0
O354 O 0.5568 0.79596 0.37581 0.0
O355 O 0.6517 0.75705 0.35219 0.0
O356 O 0.59646 0.71604 0.33673 0.0
C357 C 0.63362 0.74019 0.33772 0.0
O358 O 0.64645 0.72266 0.40241 0.0
O359 O 0.67878 0.78354 0.4167 0.0
C360 C 0.60294 0.65119 0.38575 0.0
C361 C 0.66442 0.74149 0.41655 0.0
Zn362 Zn 0.61737 0.29983 0.6117 0.0
Zn363 Zn 0.72142 0.19183 0.65138 0.0
Zn364 Zn 0.67533 0.24985 0.63045 0.0
C365 C 0.78286 0.26688 0.64415 0.0
C366 C 0.69401 0.13787 0.62299 0.0
O367 O 0.60837 0.26477 0.64258 0.0
O368 O 0.56495 0.31125 0.62484 0.0
C369 C 0.70152 0.35159 0.61674 0.0
O370 O 0.74549 0.28373 0.63576 0.0
O371 O 0.78149 0.22727 0.65141 0.0
O372 O 0.71144 0.13283 0.63828 0.0
O373 O 0.68094 0.17911 0.61741 0.0
O374 O 0.66059 0.3526 0.60903 0.0
O375 O 0.7152 0.31564 0.62595 0.0
O376 O 0.66034 0.21327 0.60561 0.0
O377 O 0.60538 0.25792 0.59201 0.0
C378 C 0.63189 0.22269 0.59222 0.0
O379 O 0.6428 0.24602 0.65472 0.0
O380 O 0.68787 0.19871 0.67163 0.0
C381 C 0.57026 0.28845 0.63861 0.0
C382 C 0.65326 0.22598 0.66934 0.0
Zn383 Zn 0.06965 0.20617 0.85902 0.0
Zn384 Zn 0.18246 0.31883 0.89236 0.0
Zn385 Zn 0.12201 0.26599 0.87673 0.0
C386 C 0.16544 0.25056 0.91569 0.0
C387 C 0.10258 0.37348 0.88305 0.0
O388 O 0.14816 0.2581 0.85152 0.0
O389 O 0.09441 0.21381 0.83677 0.0
C390 C 0.10827 0.156 0.88671 0.0
O391 O 0.14249 0.23306 0.90213 0.0
O392 O 0.18417 0.29073 0.9152 0.0
O393 O 0.14616 0.37706 0.88731 0.0
O394 O 0.08377 0.33259 0.88005 0.0
O395 O 0.08684 0.1489 0.87209 0.0
O396 O 0.12169 0.19795 0.8914 0.0
O397 O 0.05065 0.2986 0.87321 0.0
O398 O 1.00972 0.23688 0.86278 0.0
C399 C 1.01092 0.27857 0.86837 0.0
O400 O 0.18521 0.27711 0.86217 0.0
O401 O 0.23869 0.31052 0.88078 0.0
C402 C 0.13137 0.23826 0.83741 0.0
C403 C 0.22753 0.29221 0.86636 0.0
C404 C 0.14737 0.51947 0.10972 0.0
C405 C 0.16513 0.51502 0.09389 0.0
C406 C 0.14807 0.56286 0.11824 0.0
C407 C 0.16593 0.60385 0.11121 0.0
H408 H 0.13452 0.48877 0.11594 0.0
H409 H 0.13567 0.56407 0.13071 0.0
S410 S 0.21441 0.61196 0.0697 0.0
N411 N 0.19886 0.55613 0.07106 0.0
N412 N 0.20104 0.63741 0.08734 0.0
C413 C 0.18226 0.60041 0.09513 0.0
C414 C 0.18175 0.55607 0.08644 0.0
C415 C 0.8555 0.74961 0.35844 0.0
C416 C 0.85899 0.77644 0.34364 0.0
C417 C 0.81365 0.74779 0.36604 0.0
C418 C 0.77355 0.77247 0.35913 0.0
H419 H 0.8856 0.7305 0.36435 0.0
H420 H 0.81307 0.72797 0.37776 0.0
S421 S 0.76493 0.8497 0.32108 0.0
N422 N 0.81882 0.82892 0.32251 0.0
N423 N 0.74055 0.82586 0.33706 0.0
C424 C 0.77623 0.79875 0.34421 0.0
C425 C 0.81885 0.80061 0.33641 0.0
C426 C 0.74126 0.46359 0.59774 0.0
C427 C 0.7568 0.49079 0.61221 0.0
C428 C 0.72836 0.41635 0.59925 0.0
C429 C 0.73072 0.3941 0.61526 0.0
H430 H 0.73544 0.47977 0.58525 0.0
H431 H 0.71308 0.39802 0.58789 0.0
S432 S 0.77762 0.4465 0.65671 0.0
N433 N 0.7805 0.48979 0.64283 0.0
N434 N 0.75578 0.40057 0.64559 0.0
C435 C 0.75055 0.41919 0.62964 0.0
C436 C 0.76349 0.46771 0.62814 0.0
C437 C 0.88303 0.291 0.87391 0.0
C438 C 0.86967 0.33184 0.86454 0.0
C439 C 0.92976 0.27621 0.87615 0.0
C440 C 0.96536 0.30195 0.86939 0.0
H441 H 0.85675 0.26862 0.87869 0.0
H442 H 0.93779 0.243 0.88257 0.0
S443 S 0.95032 0.41442 0.84569 0.0
N444 N 0.89677 0.40021 0.84975 0.0
N445 N 0.98497 0.37227 0.85416 0.0
C446 C 0.9533 0.34452 0.86101 0.0
C447 C 0.90535 0.3594 0.8585 0.0
C448 C 0.02157 0.4643 0.89794 0.0
C449 C 0.04444 0.5065 0.89405 0.0
C450 C 0.03662 0.42029 0.89249 0.0
C451 C 0.07499 0.41725 0.88299 0.0
H452 H 0.9943 0.465 0.90637 0.0
H453 H 0.02114 0.38856 0.89711 0.0
S454 S 0.14056 0.51677 0.86641 0.0
N455 N 0.10297 0.54198 0.87788 0.0
N456 N 0.1301 0.45971 0.8674 0.0
C457 C 0.09419 0.45919 0.87727 0.0
C458 C 0.07918 0.50379 0.88284 0.0
C459 C 0.92964 0.74816 0.14854 0.0
C460 C 0.92751 0.77348 0.16375 0.0
C461 C 0.9713 0.74571 0.14086 0.0
C462 C 1.01261 0.76826 0.1481 0.0
H463 H 0.89862 0.73071 0.14237 0.0
H464 H 0.97085 0.72711 0.12885 0.0
S465 S 0.02523 0.84081 0.18738 0.0
N466 N 0.97034 0.82216 0.18566 0.0
N467 N 0.04837 0.8179 0.17101 0.0
C468 C 1.01131 0.79291 0.16345 0.0
C469 C 0.96884 0.79543 0.17132 0.0
C470 C 0.56818 0.53118 0.39978 0.0
C471 C 0.61079 0.51171 0.40688 0.0
C472 C 0.56547 0.57807 0.39449 0.0
C473 C 0.60525 0.60756 0.39604 0.0
H474 H 0.53708 0.50928 0.39751 0.0
H475 H 0.53237 0.5906 0.38818 0.0
S476 S 0.72371 0.5757 0.41611 0.0
N477 N 0.69262 0.52677 0.41706 0.0
N478 N 0.68742 0.6156 0.40696 0.0
C479 C 0.64722 0.58993 0.4045 0.0
C480 C 0.65002 0.54173 0.40994 0.0
C481 C 0.90584 0.30118 0.66203 0.0
C482 C 0.92464 0.32199 0.64809 0.0
C483 C 0.85905 0.28636 0.66082 0.0
C484 C 0.82866 0.29191 0.64567 0.0
H485 H 0.92809 0.29397 0.67375 0.0
H486 H 0.84703 0.26865 0.67171 0.0
S487 S 0.85864 0.3491 0.60603 0.0
N488 N 0.90792 0.35126 0.61905 0.0
N489 N 0.81968 0.32283 0.61677 0.0
C490 C 0.84597 0.31516 0.63192 0.0
C491 C 0.89404 0.33011 0.63311 0.0
C492 C 0.46002 0.32768 0.65653 0.0
C493 C 0.44482 0.28692 0.66446 0.0
C494 C 0.50211 0.32838 0.64913 0.0
C495 C 0.53099 0.28842 0.64934 0.0
H496 H 0.43888 0.35924 0.65585 0.0
H497 H 0.51152 0.36029 0.64276 0.0
S498 S 0.50767 0.17285 0.66866 0.0
N499 N 0.46262 0.20565 0.67242 0.0
N500 N 0.54163 0.20699 0.6583 0.0
C501 C 0.51714 0.24784 0.6577 0.0
C502 C 0.4741 0.24709 0.6653 0.0
C503 C 0.37987 0.84492 0.14789 0.0
C504 C 0.41278 0.82052 0.1392 0.0
C505 C 0.33196 0.83252 0.14582 0.0
C506 C 0.31557 0.79498 0.13513 0.0
H507 H 0.39159 0.87239 0.15693 0.0
H508 H 0.30837 0.85007 0.15353 0.0
S509 S 0.38584 0.72237 0.10851 0.0
N510 N 0.42421 0.7591 0.1186 0.0
N511 N 0.33472 0.73601 0.11484 0.0
C512 C 0.34741 0.77236 0.12563 0.0
C513 C 0.39587 0.78509 0.1276 0.0
C514 C 0.34037 0.25687 0.84987 0.0
C515 C 0.3495 0.29507 0.83932 0.0
C516 C 0.29849 0.25404 0.85749 0.0
C517 C 0.26416 0.28913 0.85475 0.0
H518 H 0.36627 0.2295 0.85258 0.0
H519 H 0.29387 0.22534 0.86621 0.0
S520 S 0.27064 0.3965 0.82848 0.0
N521 N 0.32007 0.36862 0.8265 0.0
N522 N 0.24188 0.36325 0.84103 0.0
C523 C 0.27216 0.3268 0.84395 0.0
C524 C 0.31464 0.32971 0.83613 0.0
C525 C 0.40656 0.85137 0.35827 0.0
C526 C 0.37486 0.82912 0.36819 0.0
C527 C 0.45448 0.83979 0.36011 0.0
C528 C 0.47235 0.8058 0.372 0.0
H529 H 0.39378 0.87599 0.34835 0.0
H530 H 0.47685 0.85482 0.35131 0.0
S531 S 0.40581 0.73992 0.40197 0.0
N532 N 0.36621 0.7735 0.39113 0.0
N533 N 0.45599 0.75244 0.39458 0.0
C534 C 0.44194 0.78587 0.38279 0.0
C535 C 0.39327 0.79743 0.38093 0.0
C536 C 0.66736 1.01067 0.61102 0.0
C537 C 0.68663 1.00516 0.59551 0.0
C538 C 0.66805 0.05443 0.6193 0.0
C539 C 0.68736 0.09477 0.61234 0.0
H540 H 0.65321 0.98053 0.61717 0.0
H541 H 0.65435 0.05647 0.63153 0.0
S542 S 0.74032 0.1001 0.57166 0.0
N543 N 0.72359 0.04463 0.57307 0.0
N544 N 0.72563 0.12656 0.58893 0.0
C545 C 0.70537 0.09026 0.5966 0.0
C546 C 0.7049 0.04555 0.58815 0.0
C547 C 0.24012 0.97224 0.11211 0.0
C548 C 0.21913 1.00913 0.12048 0.0
C549 C 0.22965 0.92474 0.11525 0.0
C550 C 0.19742 0.91275 0.12671 0.0
H551 H 0.26292 0.98025 0.10243 0.0
H552 H 0.24379 0.89763 0.10767 0.0
S553 S 0.13655 0.99507 0.15314 0.0
N554 N 0.16765 0.02955 0.14181 0.0
N555 N 0.1481 0.94071 0.14758 0.0
C556 C 0.17899 0.94896 0.13604 0.0
C557 C 0.1898 0.99707 0.13297 0.0
C558 C 0.53393 0.96089 0.3983 0.0
C559 C 0.55831 1.00252 0.39485 0.0
C560 C 0.54843 0.91668 0.39291 0.0
C561 C 0.58786 0.91286 0.38397 0.0
H562 H 0.50577 0.96213 0.40634 0.0
H563 H 0.53148 0.88531 0.39714 0.0
S564 S 0.6572 1.01113 0.36843 0.0
N565 N 0.61916 0.037 0.37953 0.0
N566 N 0.64545 0.95428 0.36916 0.0
C567 C 0.60871 0.9544 0.37865 0.0
C568 C 0.59415 0.99923 0.38413 0.0
C569 C 0.15127 0.03545 0.89863 0.0
C570 C 0.1156 1.018 0.90783 0.0
C571 C 0.15223 0.08282 0.89361 0.0
C572 C 0.11774 0.11447 0.89768 0.0
H573 H 0.17707 1.01171 0.89443 0.0
H574 H 0.17792 0.09384 0.88533 0.0
S575 S 1.01924 0.08792 0.92271 0.0
N576 N 0.04699 0.0373 0.9219 0.0
N577 N 0.0489 0.12624 0.91231 0.0
C578 C 0.08399 0.09848 0.9079 0.0
C579 C 0.08295 0.05023 0.91306 0.0
C580 C 0.12999 0.19386 0.95578 0.0
C581 C 0.17027 0.20169 0.96738 0.0
C582 C 0.12944 0.20595 0.93843 0.0
C583 C 0.16918 0.22606 0.9323 0.0
H584 H 0.09803 0.18107 0.96033 0.0
H585 H 0.09691 0.20278 0.93011 0.0
S586 S 0.28561 0.24488 0.95693 0.0
N587 N 0.25243 0.22426 0.97106 0.0
N588 N 0.25148 0.24696 0.93864 0.0
C589 C 0.21062 0.23014 0.94353 0.0
C590 C 0.21114 0.21797 0.96104 0.0
C591 C 0.1416 0.81266 0.20847 0.0
C592 C 0.13265 0.77882 0.22076 0.0
C593 C 0.14404 0.79987 0.19143 0.0
C594 C 0.13744 0.7529 0.18613 0.0
H595 H 0.14894 0.84888 0.21223 0.0
H596 H 0.15395 0.82635 0.18259 0.0
S597 S 0.11052 0.65145 0.21288 0.0
N598 N 0.11478 0.69669 0.22614 0.0
N599 N 0.11956 0.67291 0.19405 0.0
C600 C 0.12614 0.71921 0.198 0.0
C601 C 0.12342 0.73216 0.21534 0.0
C602 C 0.63456 0.6829 0.45705 0.0
C603 C 0.67589 0.69137 0.46806 0.0
C604 C 0.63178 0.69496 0.43961 0.0
C605 C 0.67031 0.71566 0.43287 0.0
H606 H 0.60351 0.66969 0.46213 0.0
H607 H 0.59853 0.69132 0.43174 0.0
S608 S 0.78861 0.7364 0.45575 0.0
N609 N 0.75764 0.71518 0.47046 0.0
N610 N 0.75249 0.73784 0.43792 0.0
C611 C 0.71277 0.72023 0.44348 0.0
C612 C 0.71555 0.70812 0.46105 0.0
C613 C 0.61736 0.30397 0.70395 0.0
C614 C 0.61681 0.27218 0.71763 0.0
C615 C 0.62355 0.28809 0.6875 0.0
C616 C 0.63037 0.24004 0.68437 0.0
H617 H 0.61605 0.34154 0.70622 0.0
H618 H 0.62742 0.31394 0.67764 0.0
S619 S 0.62389 0.14209 0.71506 0.0
N620 N 0.61707 0.19004 0.72634 0.0
N621 N 0.62944 0.16041 0.69551 0.0
C622 C 0.62534 0.20768 0.69751 0.0
C623 C 0.61838 0.22372 0.71415 0.0
C624 C 0.18014 0.73203 0.0498 0.0
C625 C 0.1395 0.72386 0.03843 0.0
C626 C 0.17839 0.732 0.06749 0.0
C627 C 0.13611 0.72328 0.07432 0.0
H628 H 0.21261 0.74218 0.04498 0.0
H629 H 0.20923 0.74303 0.07576 0.0
S630 S 0.02156 0.69382 0.0503 0.0
N631 N 0.05697 0.7019 0.03542 0.0
N632 N 0.05414 0.7016 0.06873 0.0
C633 C 0.09647 0.71064 0.06323 0.0
C634 C 0.09809 0.71075 0.04523 0.0
C635 C 0.66264 0.73658 0.29241 0.0
C636 C 0.65511 0.78363 0.28722 0.0
C637 C 0.65954 0.72293 0.30934 0.0
C638 C 0.6499 0.75607 0.32167 0.0
H639 H 0.66765 0.70958 0.28309 0.0
H640 H 0.66213 0.68591 0.31261 0.0
S641 S 0.63181 0.8841 0.31503 0.0
N642 N 0.64147 0.86389 0.2961 0.0
N643 N 0.63506 0.83799 0.32787 0.0
C644 C 0.64509 0.80353 0.3169 0.0
C645 C 0.64799 0.81742 0.29968 0.0
C646 C 0.59677 0.19051 0.54705 0.0
C647 C 0.63636 0.20567 0.53951 0.0
C648 C 0.59746 0.18874 0.56483 0.0
C649 C 0.63775 0.20201 0.57557 0.0
H650 H 0.56395 0.18395 0.53919 0.0
H651 H 0.56495 0.18174 0.57017 0.0
S652 S 0.7518 0.2394 0.56211 0.0
N653 N 0.71823 0.22927 0.54406 0.0
N654 N 0.71915 0.22696 0.57748 0.0
C655 C 0.67881 0.21265 0.56818 0.0
C656 C 0.67822 0.21422 0.55009 0.0
C657 C 0.16917 0.30747 0.80056 0.0
C658 C 0.16653 0.27352 0.78748 0.0
C659 C 0.16188 0.29498 0.81727 0.0
C660 C 0.15131 0.24828 0.82137 0.0
H661 H 0.17438 0.34428 0.79764 0.0
H662 H 0.16073 0.32261 0.82667 0.0
S663 S 0.14518 0.14554 0.79225 0.0
N664 N 0.15656 0.19065 0.78013 0.0
N665 N 0.14272 0.16738 0.81154 0.0
C666 C 0.15169 0.2136 0.80871 0.0
C667 C 0.15947 0.22616 0.79176 0.0
loop_
_geom_bond_atom_site_label_1
_geom_bond_atom_site_label_2
_geom_bond_distance
_geom_bond_site_symmetry_2
_ccdc_geom_bond_type
C0 C1 1.264 . S
C0 C5 1.479 . S
C0 C10 1.465 . S
C1 C0 1.264 . S
C1 C3 1.339 . S
C1 H28 0.931 . S
C2 C3 1.395 . S
C2 C4 1.320 . S
C3 C1 1.339 . S
C3 C2 1.395 . S
C3 H29 0.929 . S
C4 C2 1.320 . S
C4 C5 1.405 . S
C4 H30 0.930 . S
C5 C0 1.479 . S
C5 C4 1.405 . S
C5 H31 0.931 . S
U6 O7 2.454 . S
U6 O8 2.458 . S
U6 C9 2.984 . S
U6 C10 2.847 . S
U6 C23 2.882 . S
U6 O24 2.441 . S
U6 O25 2.420 . S
U6 O26 2.455 . S
U6 O27 2.449 . S
O7 U6 2.454 . S
O7 C9 1.353 . S
O8 U6 2.458 . S
O8 C9 1.286 . S
C9 U6 2.984 . S
C9 O7 1.353 . S
C9 O8 1.286 . S
C9 C11 1.363 . S
C10 C0 1.465 . S
C10 U6 2.847 . S
C10 O24 1.249 . S
C10 O25 1.202 . S
C11 C9 1.363 . S
C11 C13 1.408 . S
C11 C16 1.342 . S
C12 C13 1.310 . S
C12 C15 1.461 . S
C12 H32 0.932 . S
C13 C11 1.408 . S
C13 C12 1.310 . S
C13 H33 0.930 . S
C14 C15 1.474 . S
C14 C16 1.285 . S
C14 H34 0.929 . S
C15 C12 1.461 . S
C15 C14 1.474 . S
C16 C11 1.342 . S
C16 C14 1.285 . S
C16 H35 0.930 . S
C17 C20 1.424 . S
C17 C22 1.245 . S
C17 C23 1.428 . S
C18 C21 1.260 . S
C18 C22 1.477 1_556 S
C18 H36 0.932 . S
C19 C20 1.384 1_556 S
C19 C21 1.479 . S
C19 H37 0.929 . S
C20 C17 1.424 . S
C20 C19 1.384 1_554 S
C20 H38 0.928 . S
C21 C18 1.260 . S
C21 C19 1.479 . S
C22 C17 1.245 . S
C22 C18 1.477 1_554 S
C22 H39 0.932 . S
C23 U6 2.882 . S
C23 C17 1.428 . S
C23 O26 1.301 . S
C23 O27 1.282 . S
O24 U6 2.441 . S
O24 C10 1.249 . S
O25 U6 2.420 . S
O25 C10 1.202 . S
O26 U6 2.455 . S
O26 C23 1.301 . S
O27 U6 2.449 . S
O27 C23 1.282 . S
H28 C1 0.931 . S
H29 C3 0.929 . S
H30 C4 0.930 . S
H31 C5 0.931 . S
H32 C12 0.932 . S
H33 C13 0.930 . S
H34 C14 0.929 . S
H35 C16 0.930 . S
H36 C18 0.932 . S
H37 C19 0.929 . S
H38 C20 0.928 . S
H39 C22 0.932 . S
C40 C41 1.264 . S
C40 C45 1.479 . S
C40 C50 1.465 . S
C41 C40 1.264 . S
C41 C43 1.339 . S
C41 H68 0.931 . S
C42 C43 1.395 . S
C42 C44 1.320 . S
C43 C41 1.339 . S
C43 C42 1.395 . S
C43 H69 0.929 . S
C44 C42 1.320 . S
C44 C45 1.405 . S
C44 H70 0.930 . S
C45 C40 1.479 . S
C45 C44 1.405 . S
C45 H71 0.931 . S
U46 O47 2.454 . S
U46 O48 2.458 . S
U46 C49 2.984 . S
U46 C50 2.847 . S
U46 C63 2.882 . S
U46 O64 2.441 . S
U46 O65 2.420 . S
U46 O66 2.455 . S
U46 O67 2.449 . S
O47 U46 2.454 . S
O47 C49 1.353 . S
O48 U46 2.458 . S
O48 C49 1.286 . S
C49 U46 2.984 . S
C49 O47 1.353 . S
C49 O48 1.286 . S
C49 C51 1.363 1_455 S
C50 C40 1.465 . S
C50 U46 2.847 . S
C50 O64 1.249 . S
C50 O65 1.202 . S
C51 C49 1.363 1_655 S
C51 C53 1.408 . S
C51 C56 1.342 . S
C52 C53 1.310 . S
C52 C55 1.461 . S
C52 H72 0.932 . S
C53 C51 1.408 . S
C53 C52 1.310 . S
C53 H73 0.930 1_655 S
C54 C55 1.474 . S
C54 C56 1.285 . S
C54 H74 0.929 . S
C55 C52 1.461 . S
C55 C54 1.474 . S
C56 C51 1.342 . S
C56 C54 1.285 . S
C56 H75 0.930 . S
C57 C60 1.424 . S
C57 C62 1.245 . S
C57 C63 1.428 . S
C58 C61 1.260 . S
C58 C62 1.477 . S
C58 H76 0.932 . S
C59 C60 1.384 . S
C59 C61 1.479 . S
C59 H77 0.929 . S
C60 C57 1.424 . S
C60 C59 1.384 . S
C60 H78 0.928 . S
C61 C58 1.260 . S
C61 C59 1.479 . S
C62 C57 1.245 . S
C62 C58 1.477 . S
C62 H79 0.932 . S
C63 U46 2.882 . S
C63 C57 1.428 . S
C63 O66 1.301 . S
C63 O67 1.282 . S
O64 U46 2.441 . S
O64 C50 1.249 . S
O65 U46 2.420 . S
O65 C50 1.202 . S
O66 U46 2.455 . S
O66 C63 1.301 . S
O67 U46 2.449 . S
O67 C63 1.282 . S
H68 C41 0.931 . S
H69 C43 0.929 . S
H70 C44 0.930 . S
H71 C45 0.931 . S
H72 C52 0.932 . S
H73 C53 0.930 1_455 S
H74 C54 0.929 . S
H75 C56 0.930 . S
H76 C58 0.932 . S
H77 C59 0.929 . S
H78 C60 0.928 . S
H79 C62 0.932 . S
C80 C81 1.264 . S
C80 C85 1.479 . S
C80 C90 1.465 . S
C81 C80 1.264 . S
C81 C83 1.339 . S
C81 H108 0.931 . S
C82 C83 1.395 . S
C82 C84 1.320 . S
C83 C81 1.339 . S
C83 C82 1.395 . S
C83 H109 0.929 . S
C84 C82 1.320 . S
C84 C85 1.405 . S
C84 H110 0.930 . S
C85 C80 1.479 . S
C85 C84 1.405 . S
C85 H111 0.931 . S
U86 O87 2.454 . S
U86 O88 2.458 . S
U86 C89 2.984 . S
U86 C90 2.847 . S
U86 C103 2.882 . S
U86 O104 2.441 . S
U86 O105 2.420 . S
U86 O106 2.455 . S
U86 O107 2.449 . S
O87 U86 2.454 . S
O87 C89 1.353 . S
O88 U86 2.458 . S
O88 C89 1.286 . S
C89 U86 2.984 . S
C89 O87 1.353 . S
C89 O88 1.286 . S
C89 C91 1.363 . S
C90 C80 1.465 . S
C90 U86 2.847 . S
C90 O104 1.249 . S
C90 O105 1.202 . S
C91 C89 1.363 . S
C91 C93 1.408 . S
C91 C96 1.342 . S
C92 C93 1.310 . S
C92 C95 1.461 . S
C92 H112 0.932 . S
C93 C91 1.408 . S
C93 C92 1.310 . S
C93 H113 0.930 . S
C94 C95 1.474 . S
C94 C96 1.285 . S
C94 H114 0.929 . S
C95 C92 1.461 . S
C95 C94 1.474 . S
C96 C91 1.342 . S
C96 C94 1.285 . S
C96 H115 0.930 . S
C97 C100 1.424 . S
C97 C102 1.245 . S
C97 C103 1.428 . S
C98 C101 1.260 . S
C98 C102 1.477 . S
C98 H116 0.932 . S
C99 C100 1.384 . S
C99 C101 1.479 . S
C99 H117 0.929 . S
C100 C97 1.424 . S
C100 C99 1.384 . S
C100 H118 0.928 . S
C101 C98 1.260 . S
C101 C99 1.479 . S
C102 C97 1.245 . S
C102 C98 1.477 . S
C102 H119 0.932 . S
C103 U86 2.882 . S
C103 C97 1.428 . S
C103 O106 1.301 . S
C103 O107 1.282 . S
O104 U86 2.441 . S
O104 C90 1.249 . S
O105 U86 2.420 . S
O105 C90 1.202 . S
O106 U86 2.455 . S
O106 C103 1.301 . S
O107 U86 2.449 . S
O107 C103 1.282 . S
H108 C81 0.931 . S
H109 C83 0.929 . S
H110 C84 0.930 . S
H111 C85 0.931 . S
H112 C92 0.932 . S
H113 C93 0.930 . S
H114 C94 0.929 . S
H115 C96 0.930 . S
H116 C98 0.932 . S
H117 C99 0.929 . S
H118 C100 0.928 . S
H119 C102 0.932 . S
C120 C121 1.264 . S
C120 C125 1.479 . S
C120 C130 1.465 . S
C121 C120 1.264 . S
C121 C123 1.339 . S
C121 H148 0.931 . S
C122 C123 1.395 . S
C122 C124 1.320 . S
C123 C121 1.339 . S
C123 C122 1.395 . S
C123 H149 0.929 . S
C124 C122 1.320 . S
C124 C125 1.405 . S
C124 H150 0.930 . S
C125 C120 1.479 . S
C125 C124 1.405 . S
C125 H151 0.931 . S
U126 O127 2.454 . S
U126 O128 2.458 . S
U126 C129 2.984 . S
U126 C130 2.847 . S
U126 C143 2.882 . S
U126 O144 2.441 . S
U126 O145 2.420 . S
U126 O146 2.455 . S
U126 O147 2.449 . S
O127 U126 2.454 . S
O127 C129 1.353 . S
O128 U126 2.458 . S
O128 C129 1.286 . S
C129 U126 2.984 . S
C129 O127 1.353 . S
C129 O128 1.286 . S
C129 C131 1.363 . S
C130 C120 1.465 . S
C130 U126 2.847 . S
C130 O144 1.249 . S
C130 O145 1.202 . S
C131 C129 1.363 . S
C131 C133 1.408 . S
C131 C136 1.342 . S
C132 C133 1.310 . S
C132 C135 1.461 . S
C132 H152 0.932 . S
C133 C131 1.408 . S
C133 C132 1.310 . S
C133 H153 0.930 . S
C134 C135 1.474 . S
C134 C136 1.285 . S
C134 H154 0.929 . S
C135 C132 1.461 . S
C135 C134 1.474 . S
C136 C131 1.342 . S
C136 C134 1.285 . S
C136 H155 0.930 . S
C137 C140 1.424 . S
C137 C142 1.245 . S
C137 C143 1.428 . S
C138 C141 1.260 . S
C138 C142 1.477 . S
C138 H156 0.932 . S
C139 C140 1.384 . S
C139 C141 1.479 . S
C139 H157 0.929 . S
C140 C137 1.424 . S
C140 C139 1.384 . S
C140 H158 0.928 . S
C141 C138 1.260 . S
C141 C139 1.479 . S
C142 C137 1.245 . S
C142 C138 1.477 . S
C142 H159 0.932 . S
C143 U126 2.882 . S
C143 C137 1.428 . S
C143 O146 1.301 . S
C143 O147 1.282 . S
O144 U126 2.441 . S
O144 C130 1.249 . S
O145 U126 2.420 . S
O145 C130 1.202 . S
O146 U126 2.455 . S
O146 C143 1.301 . S
O147 U126 2.449 . S
O147 C143 1.282 . S
H148 C121 0.931 . S
H149 C123 0.929 . S
H150 C124 0.930 . S
H151 C125 0.931 . S
H152 C132 0.932 . S
H153 C133 0.930 . S
H154 C134 0.929 . S
H155 C136 0.930 . S
H156 C138 0.932 . S
H157 C139 0.929 . S
H158 C140 0.928 . S
H159 C142 0.932 . S
C160 C161 1.264 . S
C160 C165 1.479 . S
C160 C170 1.465 . S
C161 C160 1.264 . S
C161 C163 1.339 . S
C161 H188 0.931 . S
C162 C163 1.395 . S
C162 C164 1.320 . S
C163 C161 1.339 . S
C163 C162 1.395 . S
C163 H189 0.929 . S
C164 C162 1.320 . S
C164 C165 1.405 . S
C164 H190 0.930 . S
C165 C160 1.479 . S
C165 C164 1.405 . S
C165 H191 0.931 . S
U166 O167 2.454 . S
U166 O168 2.458 . S
U166 C169 2.984 . S
U166 C170 2.847 . S
U166 C183 2.882 . S
U166 O184 2.441 . S
U166 O185 2.420 . S
U166 O186 2.455 . S
U166 O187 2.449 . S
O167 U166 2.454 . S
O167 C169 1.353 . S
O168 U166 2.458 . S
O168 C169 1.286 . S
C169 U166 2.984 . S
C169 O167 1.353 . S
C169 O168 1.286 . S
C169 C171 1.363 . S
C170 C160 1.465 . S
C170 U166 2.847 . S
C170 O184 1.249 . S
C170 O185 1.202 . S
C171 C169 1.363 . S
C171 C173 1.408 . S
C171 C176 1.342 . S
C172 C173 1.310 . S
C172 C175 1.461 . S
C172 H192 0.932 . S
C173 C171 1.408 . S
C173 C172 1.310 . S
C173 H193 0.930 . S
C174 C175 1.474 . S
C174 C176 1.285 . S
C174 H194 0.929 . S
C175 C172 1.461 . S
C175 C174 1.474 . S
C176 C171 1.342 . S
C176 C174 1.285 . S
C176 H195 0.930 . S
C177 C180 1.424 . S
C177 C182 1.245 . S
C177 C183 1.428 . S
C178 C181 1.260 . S
C178 C182 1.477 1_554 S
C178 H196 0.932 . S
C179 C180 1.384 1_554 S
C179 C181 1.479 . S
C179 H197 0.929 . S
C180 C177 1.424 . S
C180 C179 1.384 1_556 S
C180 H198 0.928 . S
C181 C178 1.260 . S
C181 C179 1.479 . S
C182 C177 1.245 . S
C182 C178 1.477 1_556 S
C182 H199 0.932 . S
C183 U166 2.882 . S
C183 C177 1.428 . S
C183 O186 1.301 . S
C183 O187 1.282 . S
O184 U166 2.441 . S
O184 C170 1.249 . S
O185 U166 2.420 . S
O185 C170 1.202 . S
O186 U166 2.455 . S
O186 C183 1.301 . S
O187 U166 2.449 . S
O187 C183 1.282 . S
H188 C161 0.931 . S
H189 C163 0.929 . S
H190 C164 0.930 . S
H191 C165 0.931 . S
H192 C172 0.932 . S
H193 C173 0.930 . S
H194 C174 0.929 . S
H195 C176 0.930 . S
H196 C178 0.932 . S
H197 C179 0.929 . S
H198 C180 0.928 . S
H199 C182 0.932 . S
C200 C201 1.264 . S
C200 C205 1.479 . S
C200 C210 1.465 . S
C201 C200 1.264 . S
C201 C203 1.339 . S
C201 H228 0.931 . S
C202 C203 1.395 . S
C202 C204 1.320 . S
C203 C201 1.339 . S
C203 C202 1.395 . S
C203 H229 0.929 . S
C204 C202 1.320 . S
C204 C205 1.405 . S
C204 H230 0.930 . S
C205 C200 1.479 . S
C205 C204 1.405 . S
C205 H231 0.931 . S
U206 O207 2.454 . S
U206 O208 2.458 . S
U206 C209 2.984 . S
U206 C210 2.847 . S
U206 C223 2.882 . S
U206 O224 2.441 . S
U206 O225 2.420 . S
U206 O226 2.455 . S
U206 O227 2.449 . S
O207 U206 2.454 . S
O207 C209 1.353 . S
O208 U206 2.458 . S
O208 C209 1.286 . S
C209 U206 2.984 . S
C209 O207 1.353 . S
C209 O208 1.286 . S
C209 C211 1.363 . S
C210 C200 1.465 . S
C210 U206 2.847 . S
C210 O224 1.249 . S
C210 O225 1.202 . S
C211 C209 1.363 . S
C211 C213 1.408 . S
C211 C216 1.342 . S
C212 C213 1.310 . S
C212 C215 1.461 . S
C212 H232 0.932 . S
C213 C211 1.408 . S
C213 C212 1.310 . S
C213 H233 0.930 . S
C214 C215 1.474 . S
C214 C216 1.285 . S
C214 H234 0.929 . S
C215 C212 1.461 . S
C215 C214 1.474 . S
C216 C211 1.342 . S
C216 C214 1.285 . S
C216 H235 0.930 . S
C217 C220 1.424 . S
C217 C222 1.245 . S
C217 C223 1.428 . S
C218 C221 1.260 . S
C218 C222 1.477 . S
C218 H236 0.932 . S
C219 C220 1.384 . S
C219 C221 1.479 . S
C219 H237 0.929 . S
C220 C217 1.424 . S
C220 C219 1.384 . S
C220 H238 0.928 . S
C221 C218 1.260 . S
C221 C219 1.479 . S
C222 C217 1.245 . S
C222 C218 1.477 . S
C222 H239 0.932 . S
C223 U206 2.882 . S
C223 C217 1.428 . S
C223 O226 1.301 . S
C223 O227 1.282 . S
O224 U206 2.441 . S
O224 C210 1.249 . S
O225 U206 2.420 . S
O225 C210 1.202 . S
O226 U206 2.455 . S
O226 C223 1.301 . S
O227 U206 2.449 . S
O227 C223 1.282 . S
H228 C201 0.931 . S
H229 C203 0.929 . S
H230 C204 0.930 . S
H231 C205 0.931 . S
H232 C212 0.932 . S
H233 C213 0.930 . S
H234 C214 0.929 . S
H235 C216 0.930 . S
H236 C218 0.932 . S
H237 C219 0.929 . S
H238 C220 0.928 . S
H239 C222 0.932 . S
C240 C241 1.264 . S
C240 C245 1.479 . S
C240 C250 1.465 . S
C241 C240 1.264 . S
C241 C243 1.339 . S
C241 H268 0.931 . S
C242 C243 1.395 . S
C242 C244 1.320 . S
C243 C241 1.339 . S
C243 C242 1.395 . S
C243 H269 0.929 . S
C244 C242 1.320 . S
C244 C245 1.405 . S
C244 H270 0.930 . S
C245 C240 1.479 . S
C245 C244 1.405 . S
C245 H271 0.931 . S
U246 O247 2.454 . S
U246 O248 2.458 . S
U246 C249 2.984 . S
U246 C250 2.847 . S
U246 C263 2.882 . S
U246 O264 2.441 . S
U246 O265 2.420 . S
U246 O266 2.455 . S
U246 O267 2.449 . S
O247 U246 2.454 . S
O247 C249 1.353 . S
O248 U246 2.458 . S
O248 C249 1.286 . S
C249 U246 2.984 . S
C249 O247 1.353 . S
C249 O248 1.286 . S
C249 C251 1.363 . S
C250 C240 1.465 . S
C250 U246 2.847 . S
C250 O264 1.249 . S
C250 O265 1.202 . S
C251 C249 1.363 . S
C251 C253 1.408 . S
C251 C256 1.342 . S
C252 C253 1.310 . S
C252 C255 1.461 . S
C252 H272 0.932 . S
C253 C251 1.408 . S
C253 C252 1.310 . S
C253 H273 0.930 . S
C254 C255 1.474 . S
C254 C256 1.285 . S
C254 H274 0.929 . S
C255 C252 1.461 . S
C255 C254 1.474 . S
C256 C251 1.342 . S
C256 C254 1.285 . S
C256 H275 0.930 . S
C257 C260 1.424 . S
C257 C262 1.245 . S
C257 C263 1.428 . S
C258 C261 1.260 . S
C258 C262 1.477 . S
C258 H276 0.932 . S
C259 C260 1.384 . S
C259 C261 1.479 . S
C259 H277 0.929 . S
C260 C257 1.424 . S
C260 C259 1.384 . S
C260 H278 0.928 . S
C261 C258 1.260 . S
C261 C259 1.479 . S
C262 C257 1.245 . S
C262 C258 1.477 . S
C262 H279 0.932 . S
C263 U246 2.882 . S
C263 C257 1.428 . S
C263 O266 1.301 . S
C263 O267 1.282 . S
O264 U246 2.441 . S
O264 C250 1.249 . S
O265 U246 2.420 . S
O265 C250 1.202 . S
O266 U246 2.455 . S
O266 C263 1.301 . S
O267 U246 2.449 . S
O267 C263 1.282 . S
H268 C241 0.931 . S
H269 C243 0.929 . S
H270 C244 0.930 . S
H271 C245 0.931 . S
H272 C252 0.932 . S
H273 C253 0.930 . S
H274 C254 0.929 . S
H275 C256 0.930 . S
H276 C258 0.932 . S
H277 C259 0.929 . S
H278 C260 0.928 . S
H279 C262 0.932 . S
C280 C281 1.264 1_455 S
C280 C285 1.479 . S
C280 C290 1.465 . S
C281 C280 1.264 1_655 S
C281 C283 1.339 . S
C281 H308 0.931 . S
C282 C283 1.395 . S
C282 C284 1.320 . S
C283 C281 1.339 . S
C283 C282 1.395 . S
C283 H309 0.929 . S
C284 C282 1.320 . S
C284 C285 1.405 1_655 S
C284 H310 0.930 . S
C285 C280 1.479 . S
C285 C284 1.405 1_455 S
C285 H311 0.931 . S
U286 O287 2.454 . S
U286 O288 2.458 . S
U286 C289 2.984 . S
U286 C290 2.847 . S
U286 C303 2.882 . S
U286 O304 2.441 . S
U286 O305 2.420 . S
U286 O306 2.455 . S
U286 O307 2.449 . S
O287 U286 2.454 . S
O287 C289 1.353 . S
O288 U286 2.458 . S
O288 C289 1.286 . S
C289 U286 2.984 . S
C289 O287 1.353 . S
C289 O288 1.286 . S
C289 C291 1.363 . S
C290 C280 1.465 . S
C290 U286 2.847 . S
C290 O304 1.249 . S
C290 O305 1.202 . S
C291 C289 1.363 . S
C291 C293 1.408 . S
C291 C296 1.342 . S
C292 C293 1.310 . S
C292 C295 1.461 . S
C292 H312 0.932 . S
C293 C291 1.408 . S
C293 C292 1.310 . S
C293 H313 0.930 . S
C294 C295 1.474 . S
C294 C296 1.285 . S
C294 H314 0.929 . S
C295 C292 1.461 . S
C295 C294 1.474 . S
C296 C291 1.342 . S
C296 C294 1.285 . S
C296 H315 0.930 . S
C297 C300 1.424 . S
C297 C302 1.245 . S
C297 C303 1.428 . S
C298 C301 1.260 . S
C298 C302 1.477 . S
C298 H316 0.932 . S
C299 C300 1.384 . S
C299 C301 1.479 . S
C299 H317 0.929 . S
C300 C297 1.424 . S
C300 C299 1.384 . S
C300 H318 0.928 . S
C301 C298 1.260 . S
C301 C299 1.479 . S
C302 C297 1.245 . S
C302 C298 1.477 . S
C302 H319 0.932 . S
C303 U286 2.882 . S
C303 C297 1.428 . S
C303 O306 1.301 . S
C303 O307 1.282 . S
O304 U286 2.441 . S
O304 C290 1.249 . S
O305 U286 2.420 . S
O305 C290 1.202 . S
O306 U286 2.455 . S
O306 C303 1.301 . S
O307 U286 2.449 . S
O307 C303 1.282 . S
H308 C281 0.931 . S
H309 C283 0.929 . S
H310 C284 0.930 . S
H311 C285 0.931 . S
H312 C292 0.932 . S
H313 C293 0.930 . S
H314 C294 0.929 . S
H315 C296 0.930 . S
H316 C298 0.932 . S
H317 C299 0.929 . S
H318 C300 0.928 . S
H319 C302 0.932 . S
Zn320 O326 1.920 . S
Zn320 O332 1.898 . S
Zn320 O335 1.905 . S
Zn321 O329 1.905 . S
Zn321 O330 1.898 . S
Zn321 O338 1.920 . S
Zn322 O325 2.080 . S
Zn322 O328 2.114 . S
Zn322 O331 2.120 . S
Zn322 O333 2.120 . S
Zn322 O334 2.114 . S
Zn322 O337 2.080 . S
C323 O328 1.166 . S
C323 O329 1.182 . S
C324 O330 1.167 . S
C324 O331 1.299 . S
O325 Zn322 2.080 . S
O325 C339 1.305 . S
O326 Zn320 1.920 . S
O326 C339 1.234 . S
C327 O332 1.167 . S
C327 O333 1.299 . S
O328 Zn322 2.114 . S
O328 C323 1.166 . S
O329 Zn321 1.905 . S
O329 C323 1.182 . S
O330 Zn321 1.898 . S
O330 C324 1.167 . S
O331 Zn322 2.120 . S
O331 C324 1.299 . S
O332 Zn320 1.898 . S
O332 C327 1.167 . S
O333 Zn322 2.120 . S
O333 C327 1.299 . S
O334 Zn322 2.114 . S
O334 C336 1.166 . S
O335 Zn320 1.905 . S
O335 C336 1.182 . S
C336 O334 1.166 . S
C336 O335 1.182 . S
O337 Zn322 2.080 . S
O337 C340 1.305 . S
O338 Zn321 1.920 . S
O338 C340 1.234 . S
C339 O325 1.305 . S
C339 O326 1.234 . S
C340 O337 1.305 . S
C340 O338 1.234 . S
Zn341 O347 1.920 . S
Zn341 O353 1.898 . S
Zn341 O356 1.905 . S
Zn342 O350 1.905 . S
Zn342 O351 1.898 . S
Zn342 O359 1.920 . S
Zn343 O346 2.080 . S
Zn343 O349 2.114 . S
Zn343 O352 2.120 . S
Zn343 O354 2.120 . S
Zn343 O355 2.114 . S
Zn343 O358 2.080 . S
C344 O349 1.166 . S
C344 O350 1.182 . S
C345 O351 1.167 . S
C345 O352 1.299 . S
O346 Zn343 2.080 . S
O346 C360 1.305 . S
O347 Zn341 1.920 . S
O347 C360 1.234 . S
C348 O353 1.167 . S
C348 O354 1.299 . S
O349 Zn343 2.114 . S
O349 C344 1.166 . S
O350 Zn342 1.905 . S
O350 C344 1.182 . S
O351 Zn342 1.898 . S
O351 C345 1.167 . S
O352 Zn343 2.120 . S
O352 C345 1.299 . S
O353 Zn341 1.898 . S
O353 C348 1.167 . S
O354 Zn343 2.120 . S
O354 C348 1.299 . S
O355 Zn343 2.114 . S
O355 C357 1.166 . S
O356 Zn341 1.905 . S
O356 C357 1.182 . S
C357 O355 1.166 . S
C357 O356 1.182 . S
O358 Zn343 2.080 . S
O358 C361 1.305 . S
O359 Zn342 1.920 . S
O359 C361 1.234 . S
C360 O346 1.305 . S
C360 O347 1.234 . S
C361 O358 1.305 . S
C361 O359 1.234 . S
Zn362 O368 1.920 . S
Zn362 O374 1.898 . S
Zn362 O377 1.905 . S
Zn363 O371 1.905 . S
Zn363 O372 1.898 . S
Zn363 O380 1.920 . S
Zn364 O367 2.080 . S
Zn364 O370 2.114 . S
Zn364 O373 2.120 . S
Zn364 O375 2.120 . S
Zn364 O376 2.114 . S
Zn364 O379 2.080 . S
C365 O370 1.166 . S
C365 O371 1.182 . S
C366 O372 1.167 . S
C366 O373 1.299 . S
O367 Zn364 2.080 . S
O367 C381 1.305 . S
O368 Zn362 1.920 . S
O368 C381 1.234 . S
C369 O374 1.167 . S
C369 O375 1.299 . S
O370 Zn364 2.114 . S
O370 C365 1.166 . S
O371 Zn363 1.905 . S
O371 C365 1.182 . S
O372 Zn363 1.898 . S
O372 C366 1.167 . S
O373 Zn364 2.120 . S
O373 C366 1.299 . S
O374 Zn362 1.898 . S
O374 C369 1.167 . S
O375 Zn364 2.120 . S
O375 C369 1.299 . S
O376 Zn364 2.114 . S
O376 C378 1.166 . S
O377 Zn362 1.905 . S
O377 C378 1.182 . S
C378 O376 1.166 . S
C378 O377 1.182 . S
O379 Zn364 2.080 . S
O379 C382 1.305 . S
O380 Zn363 1.920 . S
O380 C382 1.234 . S
C381 O367 1.305 . S
C381 O368 1.234 . S
C382 O379 1.305 . S
C382 O380 1.234 . S
Zn383 O389 1.920 . S
Zn383 O395 1.898 . S
Zn383 O398 1.905 . S
Zn384 O392 1.905 . S
Zn384 O393 1.898 . S
Zn384 O401 1.920 . S
Zn385 O388 2.080 . S
Zn385 O391 2.114 . S
Zn385 O394 2.120 . S
Zn385 O396 2.120 . S
Zn385 O397 2.114 . S
Zn385 O400 2.080 . S
C386 O391 1.166 . S
C386 O392 1.182 . S
C387 O393 1.167 . S
C387 O394 1.299 . S
O388 Zn385 2.080 . S
O388 C402 1.305 . S
O389 Zn383 1.920 . S
O389 C402 1.234 . S
C390 O395 1.167 . S
C390 O396 1.299 . S
O391 Zn385 2.114 . S
O391 C386 1.166 . S
O392 Zn384 1.905 . S
O392 C386 1.182 . S
O393 Zn384 1.898 . S
O393 C387 1.167 . S
O394 Zn385 2.120 . S
O394 C387 1.299 . S
O395 Zn383 1.898 . S
O395 C390 1.167 . S
O396 Zn385 2.120 . S
O396 C390 1.299 . S
O397 Zn385 2.114 . S
O397 C399 1.166 . S
O398 Zn383 1.905 . S
O398 C399 1.182 . S
C399 O397 1.166 . S
C399 O398 1.182 . S
O400 Zn385 2.080 . S
O400 C403 1.305 . S
O401 Zn384 1.920 . S
O401 C403 1.234 . S
C402 O388 1.305 . S
C402 O389 1.234 . S
C403 O400 1.305 . S
C403 O401 1.234 . S
C404 C405 1.369 . S
C404 C406 1.419 . S
C404 H408 0.930 . S
C405 C404 1.369 . S
C405 C414 1.429 . S
C406 C404 1.419 . S
C406 C407 1.363 . S
C406 H409 0.929 . S
C407 C406 1.363 . S
C407 C413 1.428 . S
H408 C404 0.930 . S
H409 C406 0.929 . S
S410 N411 1.613 . S
S410 N412 1.610 . S
N411 S410 1.613 . S
N411 C414 1.350 . S
N412 S410 1.610 . S
N412 C413 1.351 . S
C413 C407 1.428 . S
C413 N412 1.351 . S
C413 C414 1.434 . S
C414 C405 1.429 . S
C414 N411 1.350 . S
C414 C413 1.434 . S
C415 C416 1.369 . S
C415 C417 1.419 . S
C415 H419 0.930 . S
C416 C415 1.369 . S
C416 C425 1.429 . S
C417 C415 1.419 . S
C417 C418 1.363 . S
C417 H420 0.929 . S
C418 C417 1.363 . S
C418 C424 1.428 . S
H419 C415 0.930 . S
H420 C417 0.929 . S
S421 N422 1.613 . S
S421 N423 1.610 . S
N422 S421 1.613 . S
N422 C425 1.350 . S
N423 S421 1.610 . S
N423 C424 1.351 . S
C424 C418 1.428 . S
C424 N423 1.351 . S
C424 C425 1.434 . S
C425 C416 1.429 . S
C425 N422 1.350 . S
C425 C424 1.434 . S
C426 C427 1.369 . S
C426 C428 1.419 . S
C426 H430 0.930 . S
C427 C426 1.369 . S
C427 C436 1.429 . S
C428 C426 1.419 . S
C428 C429 1.363 . S
C428 H431 0.929 . S
C429 C428 1.363 . S
C429 C435 1.428 . S
H430 C426 0.930 . S
H431 C428 0.929 . S
S432 N433 1.613 . S
S432 N434 1.610 . S
N433 S432 1.613 . S
N433 C436 1.350 . S
N434 S432 1.610 . S
N434 C435 1.351 . S
C435 C429 1.428 . S
C435 N434 1.351 . S
C435 C436 1.434 . S
C436 C427 1.429 . S
C436 N433 1.350 . S
C436 C435 1.434 . S
C437 C438 1.369 . S
C437 C439 1.419 . S
C437 H441 0.930 . S
C438 C437 1.369 . S
C438 C447 1.429 . S
C439 C437 1.419 . S
C439 C440 1.363 . S
C439 H442 0.929 . S
C440 C439 1.363 . S
C440 C446 1.428 . S
H441 C437 0.930 . S
H442 C439 0.929 . S
S443 N444 1.613 . S
S443 N445 1.610 . S
N444 S443 1.613 . S
N444 C447 1.350 . S
N445 S443 1.610 . S
N445 C446 1.351 . S
C446 C440 1.428 . S
C446 N445 1.351 . S
C446 C447 1.434 . S
C447 C438 1.429 . S
C447 N444 1.350 . S
C447 C446 1.434 . S
C448 C449 1.369 . S
C448 C450 1.419 . S
C448 H452 0.930 . S
C449 C448 1.369 . S
C449 C458 1.429 . S
C450 C448 1.419 . S
C450 C451 1.363 . S
C450 H453 0.929 . S
C451 C450 1.363 . S
C451 C457 1.428 . S
H452 C448 0.930 . S
H453 C450 0.929 . S
S454 N455 1.613 . S
S454 N456 1.610 . S
N455 S454 1.613 . S
N455 C458 1.350 . S
N456 S454 1.610 . S
N456 C457 1.351 . S
C457 C451 1.428 . S
C457 N456 1.351 . S
C457 C458 1.434 . S
C458 C449 1.429 . S
C458 N455 1.350 . S
C458 C457 1.434 . S
C459 C460 1.369 . S
C459 C461 1.419 . S
C459 H463 0.930 . S
C460 C459 1.369 . S
C460 C469 1.429 . S
C461 C459 1.419 . S
C461 C462 1.363 . S
C461 H464 0.929 . S
C462 C461 1.363 . S
C462 C468 1.428 . S
H463 C459 0.930 . S
H464 C461 0.929 . S
S465 N466 1.613 . S
S465 N467 1.610 . S
N466 S465 1.613 . S
N466 C469 1.350 . S
N467 S465 1.610 . S
N467 C468 1.351 . S
C468 C462 1.428 . S
C468 N467 1.351 . S
C468 C469 1.434 . S
C469 C460 1.429 . S
C469 N466 1.350 . S
C469 C468 1.434 . S
C470 C471 1.369 . S
C470 C472 1.419 . S
C470 H474 0.930 . S
C471 C470 1.369 . S
C471 C480 1.429 . S
C472 C470 1.419 . S
C472 C473 1.363 . S
C472 H475 0.929 . S
C473 C472 1.363 . S
C473 C479 1.428 . S
H474 C470 0.930 . S
H475 C472 0.929 . S
S476 N477 1.613 . S
S476 N478 1.610 . S
N477 S476 1.613 . S
N477 C480 1.350 . S
N478 S476 1.610 . S
N478 C479 1.351 . S
C479 C473 1.428 . S
C479 N478 1.351 . S
C479 C480 1.434 . S
C480 C471 1.429 . S
C480 N477 1.350 . S
C480 C479 1.434 . S
C481 C482 1.369 . S
C481 C483 1.419 . S
C481 H485 0.930 . S
C482 C481 1.369 . S
C482 C491 1.429 . S
C483 C481 1.419 . S
C483 C484 1.363 . S
C483 H486 0.929 . S
C484 C483 1.363 . S
C484 C490 1.428 . S
H485 C481 0.930 . S
H486 C483 0.929 . S
S487 N488 1.613 . S
S487 N489 1.610 . S
N488 S487 1.613 . S
N488 C491 1.350 . S
N489 S487 1.610 . S
N489 C490 1.351 . S
C490 C484 1.428 . S
C490 N489 1.351 . S
C490 C491 1.434 . S
C491 C482 1.429 . S
C491 N488 1.350 . S
C491 C490 1.434 . S
C492 C493 1.369 . S
C492 C494 1.419 . S
C492 H496 0.930 . S
C493 C492 1.369 . S
C493 C502 1.429 . S
C494 C492 1.419 . S
C494 C495 1.363 . S
C494 H497 0.929 . S
C495 C494 1.363 . S
C495 C501 1.428 . S
H496 C492 0.930 . S
H497 C494 0.929 . S
S498 N499 1.613 . S
S498 N500 1.610 . S
N499 S498 1.613 . S
N499 C502 1.350 . S
N500 S498 1.610 . S
N500 C501 1.351 . S
C501 C495 1.428 . S
C501 N500 1.351 . S
C501 C502 1.434 . S
C502 C493 1.429 . S
C502 N499 1.350 . S
C502 C501 1.434 . S
C503 C504 1.369 . S
C503 C505 1.419 . S
C503 H507 0.930 . S
C504 C503 1.369 . S
C504 C513 1.429 . S
C505 C503 1.419 . S
C505 C506 1.363 . S
C505 H508 0.929 . S
C506 C505 1.363 . S
C506 C512 1.428 . S
H507 C503 0.930 . S
H508 C505 0.929 . S
S509 N510 1.613 . S
S509 N511 1.610 . S
N510 S509 1.613 . S
N510 C513 1.350 . S
N511 S509 1.610 . S
N511 C512 1.351 . S
C512 C506 1.428 . S
C512 N511 1.351 . S
C512 C513 1.434 . S
C513 C504 1.429 . S
C513 N510 1.350 . S
C513 C512 1.434 . S
C514 C515 1.369 . S
C514 C516 1.419 . S
C514 H518 0.930 . S
C515 C514 1.369 . S
C515 C524 1.429 . S
C516 C514 1.419 . S
C516 C517 1.363 . S
C516 H519 0.929 . S
C517 C516 1.363 . S
C517 C523 1.428 . S
H518 C514 0.930 . S
H519 C516 0.929 . S
S520 N521 1.613 . S
S520 N522 1.610 . S
N521 S520 1.613 . S
N521 C524 1.350 . S
N522 S520 1.610 . S
N522 C523 1.351 . S
C523 C517 1.428 . S
C523 N522 1.351 . S
C523 C524 1.434 . S
C524 C515 1.429 . S
C524 N521 1.350 . S
C524 C523 1.434 . S
C525 C526 1.369 . S
C525 C527 1.419 . S
C525 H529 0.930 . S
C526 C525 1.369 . S
C526 C535 1.429 . S
C527 C525 1.419 . S
C527 C528 1.363 . S
C527 H530 0.929 . S
C528 C527 1.363 . S
C528 C534 1.428 . S
H529 C525 0.930 . S
H530 C527 0.929 . S
S531 N532 1.613 . S
S531 N533 1.610 . S
N532 S531 1.613 . S
N532 C535 1.350 . S
N533 S531 1.610 . S
N533 C534 1.351 . S
C534 C528 1.428 . S
C534 N533 1.351 . S
C534 C535 1.434 . S
C535 C526 1.429 . S
C535 N532 1.350 . S
C535 C534 1.434 . S
C536 C537 1.370 . S
C536 C538 1.419 . S
C536 H540 0.930 . S
C537 C536 1.370 . S
C537 C546 1.430 . S
C538 C536 1.419 . S
C538 C539 1.363 . S
C538 H541 0.929 . S
C539 C538 1.363 . S
C539 C545 1.428 . S
H540 C536 0.930 . S
H541 C538 0.929 . S
S542 N543 1.613 . S
S542 N544 1.610 . S
N543 S542 1.613 . S
N543 C546 1.350 . S
N544 S542 1.610 . S
N544 C545 1.351 . S
C545 C539 1.428 . S
C545 N544 1.351 . S
C545 C546 1.434 . S
C546 C537 1.430 . S
C546 N543 1.350 . S
C546 C545 1.434 . S
C547 C548 1.369 . S
C547 C549 1.419 . S
C547 H551 0.930 . S
C548 C547 1.369 . S
C548 C557 1.429 . S
C549 C547 1.419 . S
C549 C550 1.363 . S
C549 H552 0.929 . S
C550 C549 1.363 . S
C550 C556 1.428 . S
H551 C547 0.930 . S
H552 C549 0.929 . S
S553 N554 1.613 1_565 S
S553 N555 1.610 . S
N554 S553 1.613 1_545 S
N554 C557 1.350 1_545 S
N555 S553 1.610 . S
N555 C556 1.351 . S
C556 C550 1.428 . S
C556 N555 1.351 . S
C556 C557 1.434 . S
C557 C548 1.429 . S
C557 N554 1.350 1_565 S
C557 C556 1.434 . S
C558 C559 1.369 . S
C558 C560 1.419 . S
C558 H562 0.930 . S
C559 C558 1.369 . S
C559 C568 1.429 . S
C560 C558 1.419 . S
C560 C561 1.363 . S
C560 H563 0.929 . S
C561 C560 1.363 . S
C561 C567 1.428 . S
H562 C558 0.930 . S
H563 C560 0.929 . S
S564 N565 1.613 . S
S564 N566 1.610 . S
N565 S564 1.613 . S
N565 C568 1.350 . S
N566 S564 1.610 . S
N566 C567 1.351 . S
C567 C561 1.428 . S
C567 N566 1.351 . S
C567 C568 1.434 . S
C568 C559 1.429 . S
C568 N565 1.350 . S
C568 C567 1.434 . S
C569 C570 1.367 1_545 S
C569 C571 1.419 . S
C569 H573 0.930 1_545 S
C570 C569 1.367 1_565 S
C570 C579 1.424 1_565 S
C571 C569 1.419 . S
C571 C572 1.363 . S
C571 H574 0.929 . S
C572 C571 1.363 . S
C572 C578 1.428 . S
H573 C569 0.930 1_565 S
H574 C571 0.929 . S
S575 N576 1.613 . S
S575 N577 1.610 . S
N576 S575 1.613 . S
N576 C579 1.350 . S
N577 S575 1.610 . S
N577 C578 1.351 . S
C578 C572 1.428 . S
C578 N577 1.351 . S
C578 C579 1.434 . S
C579 C570 1.424 1_545 S
C579 N576 1.350 . S
C579 C578 1.434 . S
C580 C581 1.369 . S
C580 C582 1.419 . S
C580 H584 0.930 . S
C581 C580 1.369 . S
C581 C590 1.429 . S
C582 C580 1.419 . S
C582 C583 1.363 . S
C582 H585 0.929 . S
C583 C582 1.363 . S
C583 C589 1.428 . S
H584 C580 0.930 . S
H585 C582 0.929 . S
S586 N587 1.613 . S
S586 N588 1.610 . S
N587 S586 1.613 . S
N587 C590 1.350 . S
N588 S586 1.610 . S
N588 C589 1.351 . S
C589 C583 1.428 . S
C589 N588 1.351 . S
C589 C590 1.434 . S
C590 C581 1.429 . S
C590 N587 1.350 . S
C590 C589 1.434 . S
C591 C592 1.369 . S
C591 C593 1.419 . S
C591 H595 0.930 . S
C592 C591 1.369 . S
C592 C601 1.429 . S
C593 C591 1.419 . S
C593 C594 1.363 . S
C593 H596 0.929 . S
C594 C593 1.363 . S
C594 C600 1.428 . S
H595 C591 0.930 . S
H596 C593 0.929 . S
S597 N598 1.613 . S
S597 N599 1.610 . S
N598 S597 1.613 . S
N598 C601 1.350 . S
N599 S597 1.610 . S
N599 C600 1.351 . S
C600 C594 1.428 . S
C600 N599 1.351 . S
C600 C601 1.434 . S
C601 C592 1.429 . S
C601 N598 1.350 . S
C601 C600 1.434 . S
C602 C603 1.369 . S
C602 C604 1.419 . S
C602 H606 0.930 . S
C603 C602 1.369 . S
C603 C612 1.429 . S
C604 C602 1.419 . S
C604 C605 1.363 . S
C604 H607 0.929 . S
C605 C604 1.363 . S
C605 C611 1.428 . S
H606 C602 0.930 . S
H607 C604 0.929 . S
S608 N609 1.613 . S
S608 N610 1.610 . S
N609 S608 1.613 . S
N609 C612 1.350 . S
N610 S608 1.610 . S
N610 C611 1.351 . S
C611 C605 1.428 . S
C611 N610 1.351 . S
C611 C612 1.434 . S
C612 C603 1.429 . S
C612 N609 1.350 . S
C612 C611 1.434 . S
C613 C614 1.369 . S
C613 C615 1.419 . S
C613 H617 0.930 . S
C614 C613 1.369 . S
C614 C623 1.429 . S
C615 C613 1.419 . S
C615 C616 1.363 . S
C615 H618 0.929 . S
C616 C615 1.363 . S
C616 C622 1.428 . S
H617 C613 0.930 . S
H618 C615 0.929 . S
S619 N620 1.613 . S
S619 N621 1.610 . S
N620 S619 1.613 . S
N620 C623 1.350 . S
N621 S619 1.610 . S
N621 C622 1.351 . S
C622 C616 1.428 . S
C622 N621 1.351 . S
C622 C623 1.434 . S
C623 C614 1.429 . S
C623 N620 1.350 . S
C623 C622 1.434 . S
C624 C625 1.369 . S
C624 C626 1.419 . S
C624 H628 0.930 . S
C625 C624 1.369 . S
C625 C634 1.429 . S
C626 C624 1.419 . S
C626 C627 1.363 . S
C626 H629 0.929 . S
C627 C626 1.363 . S
C627 C633 1.428 . S
H628 C624 0.930 . S
H629 C626 0.929 . S
S630 N631 1.613 . S
S630 N632 1.610 1_655 S
N631 S630 1.613 . S
N631 C634 1.350 1_655 S
N632 S630 1.610 1_455 S
N632 C633 1.351 . S
C633 C627 1.428 . S
C633 N632 1.351 . S
C633 C634 1.434 . S
C634 C625 1.429 . S
C634 N631 1.350 1_455 S
C634 C633 1.434 . S
C635 C636 1.369 . S
C635 C637 1.419 . S
C635 H639 0.930 . S
C636 C635 1.369 . S
C636 C645 1.429 . S
C637 C635 1.419 . S
C637 C638 1.363 . S
C637 H640 0.929 . S
C638 C637 1.363 . S
C638 C644 1.428 . S
H639 C635 0.930 . S
H640 C637 0.929 . S
S641 N642 1.613 . S
S641 N643 1.610 . S
N642 S641 1.613 . S
N642 C645 1.350 . S
N643 S641 1.610 . S
N643 C644 1.351 . S
C644 C638 1.428 . S
C644 N643 1.351 . S
C644 C645 1.434 . S
C645 C636 1.429 . S
C645 N642 1.350 . S
C645 C644 1.434 . S
C646 C647 1.369 . S
C646 C648 1.419 . S
C646 H650 0.930 . S
C647 C646 1.369 . S
C647 C656 1.429 . S
C648 C646 1.419 . S
C648 C649 1.363 . S
C648 H651 0.929 . S
C649 C648 1.363 . S
C649 C655 1.428 . S
H650 C646 0.930 . S
H651 C648 0.929 . S
S652 N653 1.613 . S
S652 N654 1.610 . S
N653 S652 1.613 . S
N653 C656 1.350 . S
N654 S652 1.610 . S
N654 C655 1.351 . S
C655 C649 1.428 . S
C655 N654 1.351 . S
C655 C656 1.434 . S
C656 C647 1.429 . S
C656 N653 1.350 . S
C656 C655 1.434 . S
C657 C658 1.369 . S
C657 C659 1.419 . S
C657 H661 0.930 . S
C658 C657 1.369 . S
C658 C667 1.429 . S
C659 C657 1.419 . S
C659 C660 1.363 . S
C659 H662 0.929 . S
C660 C659 1.363 . S
C660 C666 1.428 . S
H661 C657 0.930 . S
H662 C659 0.929 . S
S663 N664 1.613 . S
S663 N665 1.610 . S
N664 S663 1.613 . S
N664 C667 1.350 . S
N665 S663 1.610 . S
N665 C666 1.351 . S
C666 C660 1.428 . S
C666 N665 1.351 . S
C666 C667 1.434 . S
C667 C658 1.429 . S
C667 N664 1.350 . S
C667 C666 1.434 . S
C407 C327 1.548 . S
C405 C15 1.732 . S
C418 C345 1.348 . S
C416 C55 1.469 . S
C427 C82 1.483 . S
C429 C369 1.509 . S
C440 C399 1.458 1_655 S
C438 C122 1.545 . S
C451 C387 1.524 . S
C449 C175 1.527 . S
C460 C215 1.480 . S
C462 C340 1.372 1_655 S
C471 C242 1.758 . S
C473 C360 1.534 . S
C482 C282 1.551 . S
C484 C365 1.463 . S
C493 C295 1.472 . S
C495 C381 1.368 . S
C504 C202 1.548 . S
C506 C336 1.448 . S
C517 C403 1.359 . S
C515 C135 1.476 . S
C528 C348 1.449 . S
C526 C42 1.540 . S
C537 C95 1.728 1_545 S
C539 C366 1.547 . S
C548 C2 1.480 1_565 S
C550 C324 1.509 . S
C561 C344 1.519 . S
C559 C255 1.521 1_565 S
C572 C390 1.527 . S
C570 C162 1.786 . S
C583 C386 1.337 . S
C581 C21 1.504 . S
C594 C339 1.423 . S
C592 C61 1.445 . S
C603 C101 1.487 . S
C605 C361 1.316 . S
C614 C141 1.461 . S
C616 C382 1.426 . S
C627 C323 1.340 . S
C625 C181 1.578 . S
C636 C221 1.492 . S
C638 C357 1.450 . S
C649 C378 1.358 . S
C647 C261 1.581 . S
C660 C402 1.429 . S
C658 C301 1.465 . S
