# Generated by pormake.
# Topology ssa, (4,4)-cn, num edge types: 1
# Building blocks:
#     Node 0, Type 0, BuildingBlock: ESEHIV_clean_sbu_0, # of connection points: 4
#     Node 1, Type 0, BuildingBlock: ESEHIV_clean_sbu_0, # of connection points: 4
#     Node 2, Type 0, BuildingBlock: ESEHIV_clean_sbu_0, # of connection points: 4
#     Node 3, Type 0, BuildingBlock: ESEHIV_clean_sbu_0, # of connection points: 4
#     Node 4, Type 0, BuildingBlock: ESEHIV_clean_sbu_0, # of connection points: 4
#     Node 5, Type 0, BuildingBlock: ESEHIV_clean_sbu_0, # of connection points: 4
#     Node 6, Type 1, BuildingBlock: NAWXER_clean_sbu_0, # of connection points: 4
#     Node 7, Type 1, BuildingBlock: NAWXER_clean_sbu_0, # of connection points: 4
#     Node 8, Type 1, BuildingBlock: NAWXER_clean_sbu_0, # of connection points: 4
#     Node 9, Type 1, BuildingBlock: NAWXER_clean_sbu_0, # of connection points: 4
#     Node 10, Type 1, BuildingBlock: NAWXER_clean_sbu_0, # of connection points: 4
#     Node 11, Type 1, BuildingBlock: NAWXER_clean_sbu_0, # of connection points: 4
#     Edge 12, Type (0, 1), BuildingBlock: EZIPEK_clean_linker_0, # of connection points: 2
#     Edge 13, Type (0, 1), BuildingBlock: EZIPEK_clean_linker_0, # of connection points: 2
#     Edge 14, Type (0, 1), BuildingBlock: EZIPEK_clean_linker_0, # of connection points: 2
#     Edge 15, Type (0, 1), BuildingBlock: EZIPEK_clean_linker_0, # of connection points: 2
#     Edge 16, Type (0, 1), BuildingBlock: EZIPEK_clean_linker_0, # of connection points: 2
#     Edge 17, Type (0, 1), BuildingBlock: EZIPEK_clean_linker_0, # of connection points: 2
#     Edge 18, Type (0, 1), BuildingBlock: EZIPEK_clean_linker_0, # of connection points: 2
#     Edge 19, Type (0, 1), BuildingBlock: EZIPEK_clean_linker_0, # of connection points: 2
#     Edge 20, Type (0, 1), BuildingBlock: EZIPEK_clean_linker_0, # of connection points: 2
#     Edge 21, Type (0, 1), BuildingBlock: EZIPEK_clean_linker_0, # of connection points: 2
#     Edge 22, Type (0, 1), BuildingBlock: EZIPEK_clean_linker_0, # of connection points: 2
#     Edge 23, Type (0, 1), BuildingBlock: EZIPEK_clean_linker_0, # of connection points: 2
#     Edge 24, Type (0, 1), BuildingBlock: EZIPEK_clean_linker_0, # of connection points: 2
#     Edge 25, Type (0, 1), BuildingBlock: EZIPEK_clean_linker_0, # of connection points: 2
#     Edge 26, Type (0, 1), BuildingBlock: EZIPEK_clean_linker_0, # of connection points: 2
#     Edge 27, Type (0, 1), BuildingBlock: EZIPEK_clean_linker_0, # of connection points: 2
#     Edge 28, Type (0, 1), BuildingBlock: EZIPEK_clean_linker_0, # of connection points: 2
#     Edge 29, Type (0, 1), BuildingBlock: EZIPEK_clean_linker_0, # of connection points: 2
#     Edge 30, Type (0, 1), BuildingBlock: EZIPEK_clean_linker_0, # of connection points: 2
#     Edge 31, Type (0, 1), BuildingBlock: EZIPEK_clean_linker_0, # of connection points: 2
#     Edge 32, Type (0, 1), BuildingBlock: EZIPEK_clean_linker_0, # of connection points: 2
#     Edge 33, Type (0, 1), BuildingBlock: EZIPEK_clean_linker_0, # of connection points: 2
#     Edge 34, Type (0, 1), BuildingBlock: EZIPEK_clean_linker_0, # of connection points: 2
#     Edge 35, Type (0, 1), BuildingBlock: EZIPEK_clean_linker_0, # of connection points: 2
# Relax obj value: 0.020
# Max RMSD: 0.110
# Mean RMSD: 0.058
data_MOF--net-ssa--node1-ESEHIV_clean_sbu_0--node2-NAWXER_clean_sbu_0--edge1-EZIPEK_clean_linker_0
_symmetry_space_group_name_H-M    P1
_symmetry_Int_Tables_number       1
_symmetry_cell_setting            triclinic
loop_
_symmetry_equiv_pos_as_xyz
'x, y, z'
_cell_length_a     32.184449
_cell_length_b     36.434501
_cell_length_c     28.301285
_cell_angle_alpha  87.727871
_cell_angle_beta   92.003982
_cell_angle_gamma 124.14211
loop_
_atom_site_label
_atom_site_type_symbol
_atom_site_fract_x
_atom_site_fract_y
_atom_site_fract_z
_atom_type_partial_charge
Cu0 Cu 1.01249 0.48564 0.0658 0.0
N1 N 0.96071 0.42631 0.05203 0.0
N2 N 0.90852 0.36473 1.01125 0.0
C3 C 0.95382 0.40385 1.01241 0.0
C4 C 0.88677 0.3614 0.0524 0.0
C5 C 0.91921 0.39909 0.07766 0.0
O6 O 1.02143 0.52842 1.01456 0.0
C7 C 0.08736 0.46441 0.08842 0.0
O8 O 0.06713 0.4354 0.05453 0.0
H9 H 0.98034 0.41657 0.9839 0.0
H10 H 0.912 0.40674 0.11165 0.0
N11 N 0.99358 0.50701 0.11366 0.0
N12 N 1.00501 0.56309 0.15482 0.0
C13 C 1.02723 0.54638 0.13305 0.0
C14 C 0.94824 0.49841 0.12391 0.0
C15 C 0.95526 0.53312 0.14942 0.0
C16 C 1.00043 0.52005 0.97357 0.0
O17 O 0.98104 0.481 0.95566 0.0
H18 H 0.06725 0.56453 0.12725 0.0
H19 H 0.9128 0.4715 0.10974 0.0
O20 O 0.07215 0.48969 0.09404 0.0
H21 H 0.84911 0.33472 0.06228 0.0
H22 H 0.92643 0.53759 0.16009 0.0
Cu23 Cu 0.51333 0.99905 0.52251 0.0
N24 N 0.54803 0.9958 0.47271 0.0
N25 N 0.56463 0.96196 0.4197 0.0
C26 C 0.54067 0.95728 0.45984 0.0
C27 C 0.58827 1.00513 0.40662 0.0
C28 C 0.57793 0.02604 0.43951 0.0
O29 O 0.44354 0.95118 0.51079 0.0
C30 C 0.5898 0.02973 0.58609 0.0
O31 O 0.61026 0.05806 0.55027 0.0
H32 H 0.51643 0.92596 0.47847 0.0
H33 H 0.58959 0.06028 0.43824 0.0
N34 N 0.51542 0.0515 0.52582 0.0
N35 N 0.50733 0.10151 0.56012 0.0
C36 C 0.5127 0.06754 0.56693 0.0
C37 C 0.51212 0.07661 0.49165 0.0
C38 C 0.50696 0.10744 0.51276 0.0
C39 C 0.42857 0.95283 0.46886 0.0
O40 O 0.45909 0.98655 0.44091 0.0
H41 H 0.51262 0.05345 0.60129 0.0
H42 H 0.51187 0.07206 0.45411 0.0
O43 O 0.54467 0.99625 0.58136 0.0
H44 H 0.60989 0.02 0.37478 0.0
H45 H 0.5025 0.13185 0.49483 0.0
Cu46 Cu 0.51822 0.5114 1.00719 0.0
N47 N 0.47218 0.46521 0.96661 0.0
N48 N 0.44215 0.40848 0.91742 0.0
C49 C 0.47945 0.43588 0.9475 0.0
C50 C 0.40928 0.42032 0.91779 0.0
C51 C 0.42812 0.4556 0.94789 0.0
O52 O 0.58489 0.5307 0.98797 0.0
C53 C 0.4616 0.4689 0.08777 0.0
O54 O 0.42782 0.43702 0.06041 0.0
H55 H 0.51207 0.43502 0.95414 0.0
H56 H 0.4114 0.47358 0.95465 0.0
N57 N 0.51366 0.56044 1.00481 0.0
N58 N 0.51756 0.6186 0.03345 0.0
C59 C 0.52276 0.58494 0.04307 0.0
C60 C 0.50224 0.57941 0.9695 0.0
C61 C 0.50476 0.61562 0.98719 0.0
C62 C 0.5994 0.50471 0.99254 0.0
O63 O 0.57405 0.4689 1.01966 0.0
H64 H 0.53342 0.57844 0.07749 0.0
H65 H 0.49296 0.56789 0.93359 0.0
O66 O 0.50644 0.49401 0.07345 0.0
H67 H 0.37503 0.40543 0.89677 0.0
H68 H 0.49792 0.63798 0.96776 0.0
Cu69 Cu 0.03609 0.4846 0.53887 0.0
N70 N 0.09091 0.47963 0.53373 0.0
N71 N 0.1616 0.49563 0.50053 0.0
C72 C 0.13459 0.5113 0.51347 0.0
C73 C 0.1346 0.45247 0.51394 0.0
C74 C 0.09088 0.44259 0.53409 0.0
O75 O 0.03798 0.51833 0.4815 0.0
C76 C 0.97101 0.40531 0.58925 0.0
O77 O 1.01419 0.4165 0.60858 0.0
H78 H 0.14372 0.54366 0.50252 0.0
H79 H 0.05897 0.40959 0.5426 0.0
N80 N 0.0423 0.51676 0.59108 0.0
N81 N 1.01322 0.53674 0.64781 0.0
C82 C 1.00165 0.51175 0.60973 0.0
C83 C 0.08149 0.54626 0.61833 0.0
C84 C 0.06355 0.55924 0.65331 0.0
C85 C 0.07205 0.56001 0.48043 0.0
O86 O 0.09829 0.57821 0.51921 0.0
H87 H 0.96387 0.48956 0.59595 0.0
H88 H 0.12009 0.55747 0.61312 0.0
O89 O 0.97174 0.42743 0.5526 0.0
H90 H 0.14269 0.42868 0.50423 0.0
H91 H 0.08534 0.58253 0.68098 0.0
Cu92 Cu 0.51648 0.0162 0.02878 0.0
N93 N 0.52031 0.06861 0.03708 0.0
N94 N 0.52234 0.12803 1.01037 0.0
C95 C 0.50781 0.0864 1.00179 0.0
C96 C 0.542 0.13595 0.05471 0.0
C97 C 0.54135 0.0992 0.07095 0.0
O98 O 0.5102 1.00644 0.95969 0.0
C99 C 0.44841 0.93018 0.07629 0.0
O100 O 0.47483 0.91754 0.05709 0.0
H101 H 0.49083 0.06995 0.96893 0.0
H102 H 0.55762 0.09611 0.1037 0.0
N103 N 0.5748 0.01877 0.04836 0.0
N104 N 0.62154 0.99871 0.08599 0.0
C105 C 0.58192 1.002 0.08876 0.0
C106 C 0.61118 0.02561 1.01938 0.0
C107 C 0.64067 0.01448 0.04281 0.0
C108 C 0.52129 0.02414 0.91765 0.0
O109 O 0.5058 0.99623 0.88284 0.0
H110 H 0.55509 0.98715 0.11702 0.0
H111 H 0.61255 0.03244 0.98179 0.0
O112 O 0.45863 0.96899 0.06644 0.0
H113 H 0.55868 0.16701 0.07266 0.0
H114 H 0.66897 0.01172 0.02707 0.0
Cu115 Cu 0.59985 0.5481 0.51956 0.0
N116 N 0.63756 0.59106 0.47343 0.0
N117 N 0.65696 0.64411 0.41944 0.0
C118 C 0.62742 0.62012 0.45604 0.0
C119 C 0.68689 0.62976 0.41319 0.0
C120 C 0.67475 0.59678 0.44682 0.0
O121 O 0.52945 0.52723 0.5032 0.0
C122 C 0.67265 0.60143 0.58996 0.0
O123 O 0.69845 0.62765 0.5541 0.0
H124 H 0.59749 0.62229 0.4686 0.0
H125 H 0.69054 0.57728 0.45054 0.0
N126 N 0.60904 0.50213 0.51748 0.0
N127 N 0.60976 0.44598 0.55048 0.0
C128 C 0.6143 0.48427 0.55765 0.0
C129 C 0.60312 0.47515 0.48285 0.0
C130 C 0.60281 0.43982 0.50342 0.0
C131 C 0.49567 0.48826 0.48913 0.0
O132 O 0.50368 0.45675 0.49349 0.0
H133 H 0.61582 0.49642 0.59238 0.0
H134 H 0.59503 0.47868 0.44619 0.0
O135 O 0.62615 0.57094 0.58355 0.0
H136 H 0.71408 0.64122 0.38539 0.0
H137 H 0.59402 0.41033 0.4859 0.0
C138 C 0.34261 0.46645 0.35582 0.0
C139 C 0.23213 0.47217 0.22946 0.0
O140 O 0.30075 0.43256 0.34175 0.0
Zn141 Zn 0.2837 0.46396 0.29416 0.0
O142 O 0.35854 0.50462 0.33737 0.0
Zn143 Zn 0.33699 0.53544 0.28623 0.0
O144 O 0.32864 0.57335 0.32751 0.0
O145 O 0.27304 0.50157 0.33972 0.0
O146 O 0.27422 0.50874 0.23769 0.0
O147 O 0.22152 0.43807 0.25443 0.0
O148 O 0.34074 0.48461 0.24394 0.0
O149 O 0.39211 0.55793 0.24287 0.0
C150 C 0.29147 0.54167 0.35025 0.0
C151 C 0.37985 0.52043 0.22816 0.0
C152 C 0.80041 0.27538 0.70573 0.0
C153 C 0.66152 0.1793 0.81694 0.0
O154 O 0.76207 0.27611 0.71282 0.0
Zn155 Zn 0.7294 0.22895 0.76249 0.0
O156 O 0.80591 0.2478 0.72971 0.0
Zn157 Zn 0.76845 0.1993 0.78508 0.0
O158 O 0.75292 0.14498 0.75671 0.0
O159 O 0.70744 0.16912 0.72761 0.0
O160 O 0.69778 0.17408 0.8188 0.0
O161 O 0.66404 0.20889 0.7891 0.0
O162 O 0.77661 0.25823 0.82412 0.0
O163 O 0.81646 0.22568 0.8376 0.0
C164 C 0.71839 0.14025 0.72886 0.0
C165 C 0.80837 0.25461 0.84878 0.0
C166 C 0.55961 0.82908 0.31095 0.0
C167 C 0.5544 0.73894 0.18193 0.0
O168 O 0.60328 0.84012 0.29878 0.0
Zn169 Zn 0.63472 0.81835 0.24986 0.0
O170 O 0.52075 0.7949 0.29334 0.0
Zn171 Zn 0.5551 0.78081 0.2495 0.0
O172 O 0.58783 0.7532 0.29326 0.0
O173 O 0.67029 0.80042 0.28928 0.0
O174 O 0.518 0.73748 0.20041 0.0
O175 O 0.59878 0.76639 0.19837 0.0
O176 O 0.67298 0.87177 0.2107 0.0
O177 O 0.59078 0.83957 0.20685 0.0
C178 C 0.63228 0.76423 0.30494 0.0
C179 C 0.63512 0.87139 0.19537 0.0
C180 C 0.89832 0.58429 0.87008 0.0
C181 C 0.78893 0.59205 0.74718 0.0
O182 O 0.86114 0.54682 0.85581 0.0
Zn183 Zn 0.7991 0.52048 0.80706 0.0
O184 O 0.90334 0.61993 0.85465 0.0
Zn185 Zn 0.84456 0.59158 0.81088 0.0
O186 O 0.78221 0.55849 0.85734 0.0
O187 O 0.7421 0.48615 0.84769 0.0
O188 O 0.82674 0.62482 0.76784 0.0
O189 O 0.77596 0.55259 0.75832 0.0
O190 O 0.81726 0.49077 0.76587 0.0
O191 O 0.86986 0.56399 0.76381 0.0
C192 C 0.74632 0.51863 0.86791 0.0
C193 C 0.85723 0.52577 0.7507 0.0
C194 C 0.29973 0.80596 0.21513 0.0
C195 C 0.18657 0.69577 0.33858 0.0
O196 O 0.26817 0.81323 0.23106 0.0
Zn197 Zn 0.20862 0.78344 0.2822 0.0
O198 O 0.29934 0.7726 0.23116 0.0
Zn199 Zn 0.24574 0.74983 0.27779 0.0
O200 O 0.17907 0.72345 0.23585 0.0
O201 O 0.148 0.76366 0.24451 0.0
O202 O 0.22294 0.69717 0.31973 0.0
O203 O 0.17871 0.72567 0.32708 0.0
O204 O 0.23213 0.82826 0.3301 0.0
O205 O 0.27856 0.80143 0.32779 0.0
C206 C 0.14479 0.73045 0.22707 0.0
C207 C 0.26969 0.82813 0.34547 0.0
C208 C 0.46375 0.2912 0.80692 0.0
C209 C 0.48909 0.19866 0.70553 0.0
O210 O 0.5093 0.30207 0.80786 0.0
Zn211 Zn 0.55221 0.27983 0.77626 0.0
O212 O 0.43062 0.25843 0.78264 0.0
Zn213 Zn 0.47444 0.2426 0.75907 0.0
O214 O 0.49347 0.22156 0.82321 0.0
O215 O 0.57579 0.2611 0.82925 0.0
O216 O 0.44783 0.19335 0.71565 0.0
O217 O 0.52966 0.22901 0.726 0.0
O218 O 0.60077 0.33189 0.73969 0.0
O219 O 0.52234 0.29848 0.71336 0.0
C220 C 0.53338 0.23079 0.8457 0.0
C221 C 0.56915 0.32926 0.70936 0.0
C222 C 0.16718 0.50777 0.13846 0.0
C223 C 0.12613 0.46639 0.12205 0.0
C224 C 0.16151 0.43049 0.1675 0.0
C225 C 0.19636 0.47054 0.19145 0.0
N226 N 0.22176 0.54634 0.20457 0.0
N227 N 0.07857 0.38638 0.1322 0.0
C228 C 0.19641 0.50901 0.17824 0.0
C229 C 0.12164 0.42712 0.13966 0.0
N230 N 0.17963 0.54625 0.11543 0.0
N231 N 0.1674 0.39616 0.16891 0.0
H232 H 0.04673 0.38194 0.11555 0.0
H233 H 0.0725 0.3574 0.1479 0.0
H234 H 0.19867 0.39847 0.18421 0.0
H235 H 0.14484 0.3678 0.14899 0.0
H236 H 0.2121 0.57695 0.12357 0.0
H237 H 0.16123 0.54687 0.08465 0.0
H238 H 0.21843 0.57299 0.19833 0.0
H239 H 0.24076 0.54901 0.23592 0.0
C240 C 0.67122 0.05946 0.62822 0.0
C241 C 0.61912 0.04119 0.63142 0.0
C242 C 0.63431 0.07263 0.71013 0.0
C243 C 0.68643 0.09971 0.70081 0.0
N244 N 0.75586 0.11772 0.65244 0.0
N245 N 0.54972 0.02658 0.67853 0.0
C246 C 0.70551 0.09203 0.66084 0.0
C247 C 0.59999 0.04562 0.67382 0.0
N248 N 0.68753 0.04582 0.59334 0.0
N249 N 0.61791 0.07278 0.75399 0.0
H250 H 0.52267 1.00328 0.65546 0.0
H251 H 0.53474 0.0347 0.70501 0.0
H252 H 0.64265 0.09156 0.78134 0.0
H253 H 0.58091 0.05115 0.76471 0.0
H254 H 0.72448 0.05518 0.59089 0.0
H255 H 0.66258 0.0214 0.56971 0.0
H256 H 0.77146 0.11733 0.621 0.0
H257 H 0.78195 0.14123 0.67613 0.0
C258 C 0.48738 0.64073 0.09809 0.0
C259 C 0.52573 0.65116 0.06667 0.0
C260 C 0.5821 0.72182 0.10624 0.0
C261 C 0.54558 0.70862 0.14227 0.0
N262 N 0.46855 0.64764 0.17749 0.0
N263 N 0.61199 0.69799 0.04451 0.0
C264 C 0.49938 0.66599 0.13944 0.0
C265 C 0.5738 0.69065 0.0719 0.0
N266 N 0.43937 0.60629 0.08845 0.0
N267 N 0.62367 0.76429 0.10282 0.0
H268 H 0.60648 0.67651 1.01799 0.0
H269 H 0.64949 0.72339 0.0505 0.0
H270 H 0.63258 0.78926 0.12575 0.0
H271 H 0.64748 0.77618 0.07396 0.0
H272 H 0.40866 0.59972 0.10749 0.0
H273 H 0.43007 0.58756 0.05819 0.0
H274 H 0.43592 0.61579 0.1774 0.0
H275 H 0.47869 0.66126 0.21097 0.0
C276 C 0.96701 0.51896 0.72255 0.0
C277 C 0.97706 0.53716 0.67584 0.0
C278 C 0.90207 0.53887 0.67578 0.0
C279 C 0.89386 0.52357 0.72341 0.0
N280 N 0.9206 0.5033 0.79468 0.0
N281 N 0.96095 0.57255 0.61134 0.0
C282 C 0.92687 0.51467 0.74755 0.0
C283 C 0.94641 0.54946 0.65346 0.0
N284 N 0.99472 0.50437 0.74233 0.0
N285 N 0.86665 0.54208 0.65166 0.0
H286 H 0.9943 0.58198 0.59518 0.0
H287 H 0.94279 0.58603 0.59486 0.0
H288 H 0.83312 0.53321 0.66703 0.0
H289 H 0.86818 0.54938 0.61556 0.0
H290 H 0.98608 0.48647 0.77421 0.0
H291 H 1.02464 0.50735 0.72537 0.0
H292 H 0.94675 0.50178 0.81582 0.0
H293 H 0.89041 0.49785 0.81373 0.0
C294 C 0.41306 0.91188 0.15936 0.0
C295 C 0.40853 0.89959 0.11135 0.0
C296 C 0.33494 0.82467 0.13223 0.0
C297 C 0.33777 0.83781 0.17952 0.0
N298 N 0.3763 0.89535 0.23732 0.0
N299 N 0.36042 0.84684 0.05047 0.0
C300 C 0.37575 0.88193 0.19269 0.0
C301 C 0.36825 0.85655 0.09745 0.0
N302 N 0.45457 0.95128 0.1739 0.0
N303 N 0.30033 0.78156 0.12048 0.0
H304 H 0.38321 0.86952 0.02407 0.0
H305 H 0.329 0.81801 0.03704 0.0
H306 H 0.27346 0.75801 0.14395 0.0
H307 H 0.30004 0.76828 0.08849 0.0
H308 H 0.46377 0.95972 0.20922 0.0
H309 H 0.48214 0.97463 0.15092 0.0
H310 H 0.39836 0.9283 0.24743 0.0
H311 H 0.35257 0.87385 0.26396 0.0
C312 C 0.6318 0.40039 0.59799 0.0
C313 C 0.59863 0.41358 0.5874 0.0
C314 C 0.55596 0.38051 0.66187 0.0
C315 C 0.58437 0.36209 0.66996 0.0
N316 N 0.64493 0.34897 0.64157 0.0
N317 N 0.5207 0.40537 0.60284 0.0
C318 C 0.62137 0.37055 0.63698 0.0
C319 C 0.55799 0.40014 0.6174 0.0
N320 N 0.67378 0.41733 0.57165 0.0
N321 N 0.52865 0.381 0.6974 0.0
H322 H 0.5198 0.41749 0.56909 0.0
H323 H 0.48814 0.39289 0.62207 0.0
H324 H 0.52901 0.36949 0.73167 0.0
H325 H 0.5109 0.3977 0.69422 0.0
H326 H 0.70216 0.41258 0.58057 0.0
H327 H 0.68176 0.43885 0.54273 0.0
H328 H 0.66831 0.35059 0.61583 0.0
H329 H 0.63798 0.32653 0.66918 0.0
C330 C 0.53067 0.91119 0.35228 0.0
C331 C 0.56091 0.92683 0.39378 0.0
C332 C 0.58095 0.87146 0.38605 0.0
C333 C 0.55572 0.85952 0.3414 0.0
N334 N 0.51373 0.87399 0.27814 0.0
N335 N 0.61879 0.92556 0.44842 0.0
C336 C 0.53207 0.8807 0.32356 0.0
C337 C 0.58699 0.90779 0.41031 0.0
N338 N 0.49977 0.92491 0.34093 0.0
N339 N 0.59801 0.8473 0.40573 0.0
H340 H 0.62366 0.95205 0.46673 0.0
H341 H 0.64303 0.91647 0.45964 0.0
H342 H 0.59332 0.82004 0.3893 0.0
H343 H 0.61266 0.85162 0.43999 0.0
H344 H 0.47284 0.91128 0.31386 0.0
H345 H 0.49792 0.94708 0.3615 0.0
H346 H 0.50126 0.89231 0.26174 0.0
H347 H 0.51502 0.85301 0.25517 0.0
C348 C 0.68084 0.51213 0.9804 0.0
C349 C 0.63811 0.50969 0.96068 0.0
C350 C 0.66313 0.50588 0.88083 0.0
C351 C 0.70739 0.51152 0.90033 0.0
N352 N 0.76118 0.52262 0.96714 0.0
N353 N 0.59162 0.50976 0.89114 0.0
C354 C 0.71699 0.51527 0.94976 0.0
C355 C 0.63013 0.5082 0.91064 0.0
N356 N 0.68681 0.51148 0.02846 0.0
N357 N 0.65214 0.49743 0.8337 0.0
H358 H 0.56433 0.50898 0.91049 0.0
H359 H 0.58838 0.5151 0.85519 0.0
H360 H 0.67622 0.49716 0.81022 0.0
H361 H 0.61751 0.48713 0.81827 0.0
H362 H 0.71351 0.50779 0.04539 0.0
H363 H 0.66359 0.51298 0.05197 0.0
H364 H 0.77374 0.53093 1.00191 0.0
H365 H 0.78676 0.52219 0.94591 0.0
C366 C 0.09771 0.57905 0.39334 0.0
C367 C 0.08648 0.58951 0.43703 0.0
C368 C 0.13698 0.66859 0.41445 0.0
C369 C 0.15089 0.65886 0.37181 0.0
N370 N 0.12933 0.60405 0.31349 0.0
N371 N 0.07751 0.64088 0.47831 0.0
C372 C 0.12667 0.61376 0.35901 0.0
C373 C 0.10031 0.63329 0.4438 0.0
N374 N 0.08184 0.53647 0.38473 0.0
N375 N 0.16021 0.71138 0.4285 0.0
H376 H 0.04931 0.61518 0.49925 0.0
H377 H 0.0822 0.67131 0.48235 0.0
H378 H 0.18686 0.73882 0.40862 0.0
H379 H 0.15591 0.71961 0.46199 0.0
H380 H 0.09272 0.52759 0.35549 0.0
H381 H 0.05836 0.50973 0.40709 0.0
H382 H 0.10837 0.57211 0.30035 0.0
H383 H 0.14839 0.62837 0.28713 0.0
C384 C 0.48135 0.14183 0.94381 0.0
C385 C 0.52352 0.15793 0.97442 0.0
C386 C 0.56726 0.22659 0.92669 0.0
C387 C 0.5296 0.20613 0.89059 0.0
N388 N 0.45681 0.13674 0.86195 0.0
N389 N 0.61287 0.21268 0.98559 0.0
C390 C 0.48793 0.16164 0.89828 0.0
C391 C 0.56839 0.19964 0.96361 0.0
N392 N 0.43523 0.107 0.95787 0.0
N393 N 0.60087 0.27152 0.9272 0.0
H394 H 0.61725 0.19244 1.0092 0.0
H395 H 0.64677 0.24151 0.97542 0.0
H396 H 0.59845 0.29319 0.90399 0.0
H397 H 0.62669 0.28728 0.95488 0.0
H398 H 0.40273 0.09587 0.93759 0.0
H399 H 0.42919 0.09294 0.9919 0.0
H400 H 0.42808 0.10328 0.86642 0.0
H401 H 0.46396 0.14707 0.8266 0.0
C402 C 0.45937 0.47791 0.4068 0.0
C403 C 0.45468 0.48127 0.45599 0.0
C404 C 0.37227 0.46961 0.44033 0.0
C405 C 0.37587 0.4636 0.39166 0.0
N406 N 0.41819 0.45402 0.32992 0.0
N407 N 0.40419 0.47455 0.52077 0.0
C408 C 0.41798 0.46511 0.37546 0.0
C409 C 0.4103 0.47538 0.47313 0.0
N410 N 0.5044 0.48916 0.3896 0.0
N411 N 0.33337 0.47136 0.45483 0.0
H412 H 0.43182 0.47979 0.54539 0.0
H413 H 0.37076 0.46587 0.53602 0.0
H414 H 0.30406 0.4655 0.43215 0.0
H415 H 0.33138 0.48083 0.48845 0.0
H416 H 0.51205 0.49229 0.35368 0.0
H417 H 0.53595 0.49957 0.4111 0.0
H418 H 0.44538 0.45017 0.31697 0.0
H419 H 0.38851 0.44468 0.30614 0.0
C420 C 0.87042 0.29313 0.97128 0.0
C421 C 0.88377 0.33729 0.97067 0.0
C422 C 0.85158 0.329 0.88927 0.0
C423 C 0.83407 0.28322 0.89095 0.0
N424 N 0.81443 0.21966 0.94028 0.0
N425 N 0.87403 0.39288 0.93454 0.0
C426 C 0.8402 0.26464 0.9338 0.0
C427 C 0.87063 0.35398 0.93119 0.0
N428 N 0.88701 0.27856 1.00762 0.0
N429 N 0.85186 0.34951 0.84768 0.0
H430 H 0.8854 0.41083 0.96557 0.0
H431 H 0.86025 0.40462 0.90855 0.0
H432 H 0.83844 0.33352 0.81571 0.0
H433 H 0.86983 0.38377 0.84406 0.0
H434 H 0.88274 0.24801 1.0078 0.0
H435 H 0.90895 0.29882 0.03553 0.0
H436 H 0.81421 0.20455 0.97238 0.0
H437 H 0.78835 0.19728 0.91579 0.0
C438 C 1.00325 0.57041 0.90795 0.0
C439 C 0.98409 0.54835 0.95224 0.0
C440 C 0.9236 0.56956 0.94889 0.0
C441 C 0.9364 0.58409 0.90142 0.0
N442 N 0.98935 0.60022 0.83512 0.0
N443 N 0.9216 0.52247 1.01261 0.0
C444 C 0.97726 0.58588 0.88104 0.0
C445 C 0.94374 0.54754 0.97265 0.0
N446 N 0.04605 0.57618 0.89167 0.0
N447 N 0.89129 0.57618 0.97081 0.0
H448 H 0.93325 0.50383 0.02962 0.0
H449 H 0.8888 0.51675 0.02636 0.0
H450 H 0.87644 0.59242 0.95372 0.0
H451 H 0.88344 0.56983 1.00674 0.0
H452 H 0.06455 0.59494 0.8615 0.0
H453 H 0.06539 0.56498 0.91075 0.0
H454 H 1.01444 0.59749 0.8159 0.0
H455 H 0.97231 0.61329 0.81542 0.0
C456 C 0.35212 0.93063 0.4211 0.0
C457 C 0.37927 0.91732 0.44872 0.0
C458 C 0.32315 0.84219 0.41889 0.0
C459 C 0.30375 0.85818 0.38373 0.0
N460 N 0.30826 0.92168 0.34718 0.0
N461 N 0.39348 0.86021 0.47008 0.0
C462 C 0.31983 0.90337 0.38403 0.0
C463 C 0.3652 0.87287 0.44721 0.0
N464 N 0.35793 0.96987 0.42991 0.0
N465 N 0.30118 0.79769 0.42601 0.0
H466 H 0.42409 0.88084 0.49193 0.0
H467 H 0.3886 0.82989 0.46456 0.0
H468 H 0.27005 0.7737 0.40682 0.0
H469 H 0.3107 0.78453 0.4544 0.0
H470 H 0.33593 0.97955 0.41344 0.0
H471 H 0.38083 0.99015 0.45745 0.0
H472 H 0.32347 0.95555 0.34406 0.0
H473 H 0.28853 0.90456 0.31697 0.0
C474 C 0.44318 0.38021 0.83916 0.0
C475 C 0.44071 0.37549 0.88916 0.0
C476 C 0.45023 0.31327 0.88526 0.0
C477 C 0.4504 0.3168 0.83508 0.0
N478 N 0.43406 0.3461 0.7643 0.0
N479 N 0.4307 0.33194 0.95909 0.0
C480 C 0.44238 0.34769 0.81204 0.0
C481 C 0.44089 0.34024 0.91197 0.0
N482 N 0.44983 0.41734 0.81769 0.0
N483 N 0.45951 0.28448 0.9074 0.0
H484 H 0.42241 0.35051 0.97897 0.0
H485 H 0.42577 0.30442 0.97734 0.0
H486 H 0.46348 0.26234 0.8891 0.0
H487 H 0.46586 0.2841 0.94369 0.0
H488 H 0.45736 0.42496 0.78182 0.0
H489 H 0.45281 0.44277 0.83646 0.0
H490 H 0.42317 0.36497 0.74632 0.0
H491 H 0.4337 0.32308 0.74323 0.0
C492 C 0.24964 0.53734 0.47374 0.0
C493 C 0.19768 0.51493 0.46315 0.0
C494 C 0.21631 0.53377 0.37948 0.0
C495 C 0.26656 0.54831 0.38865 0.0
N496 N 0.33273 0.56495 0.44427 0.0
N497 N 0.13072 0.48538 0.4049 0.0
C498 C 0.28407 0.55123 0.43594 0.0
C499 C 0.18073 0.51175 0.41572 0.0
N500 N 0.26554 0.54461 0.5198 0.0
N501 N 0.2028 0.54066 0.33557 0.0
H502 H 0.10308 0.46873 0.4304 0.0
H503 H 0.11718 0.47698 0.3703 0.0
H504 H 0.22974 0.5592 0.30984 0.0
H505 H 0.16705 0.53297 0.32701 0.0
H506 H 0.30322 0.56381 0.53009 0.0
H507 H 0.24045 0.53361 0.54765 0.0
H508 H 0.34674 0.56331 0.47743 0.0
H509 H 0.35866 0.57662 0.41709 0.0
C510 C 0.53339 0.08355 0.86009 0.0
C511 C 0.54939 0.07317 0.9031 0.0
C512 C 0.62892 0.14716 0.89691 0.0
C513 C 0.61816 0.15027 0.84865 0.0
N514 N 0.55779 0.12269 0.78419 0.0
N515 N 0.6101 0.10124 0.96697 0.0
C516 C 0.56922 0.11953 0.83044 0.0
C517 C 0.59621 0.1072 0.92326 0.0
N518 N 0.48364 0.05874 0.84784 0.0
N519 N 0.67075 0.18274 0.91724 0.0
H520 H 0.58432 0.07553 0.98843 0.0
H521 H 0.64605 0.12117 0.98154 0.0
H522 H 0.6943 0.21248 0.8985 0.0
H523 H 0.67957 0.1846 0.95317 0.0
H524 H 0.46876 0.06645 0.81887 0.0
H525 H 0.45672 0.03345 0.87005 0.0
H526 H 0.52477 0.09804 0.76751 0.0
H527 H 0.58249 0.14889 0.76167 0.0
C528 C 0.67575 0.71888 0.40409 0.0
C529 C 0.65244 0.67464 0.38982 0.0
C530 C 0.61933 0.68999 0.31823 0.0
C531 C 0.63917 0.73343 0.33437 0.0
N532 N 0.67954 0.78723 0.39601 0.0
N533 N 0.59567 0.61532 0.33832 0.0
C534 C 0.66583 0.7475 0.37818 0.0
C535 C 0.62236 0.6594 0.34827 0.0
N536 N 0.70777 0.73339 0.44226 0.0
N537 N 0.59967 0.67858 0.27343 0.0
H538 H 0.59794 0.5923 0.35937 0.0
H539 H 0.56848 0.60103 0.31157 0.0
H540 H 0.59795 0.70032 0.24971 0.0
H541 H 0.58924 0.64897 0.25814 0.0
H542 H 0.73009 0.76642 0.45205 0.0
H543 H 0.71477 0.71259 0.46214 0.0
H544 H 0.69459 0.79739 0.42984 0.0
H545 H 0.67197 0.80865 0.3785 0.0
C546 C 0.53633 0.17202 0.59898 0.0
C547 C 0.50177 0.12554 0.59615 0.0
C548 C 0.46084 0.12587 0.66782 0.0
C549 C 0.49187 0.17297 0.6673 0.0
N550 N 0.55042 0.24079 0.62398 0.0
N551 N 0.4243 0.0594 0.62194 0.0
C552 C 0.52721 0.19607 0.63049 0.0
C553 C 0.46203 0.10273 0.62896 0.0
N554 N 0.57899 0.19307 0.57289 0.0
N555 N 0.4318 0.10308 0.70611 0.0
H556 H 0.42285 0.04216 0.5927 0.0
H557 H 0.39201 0.04219 0.64225 0.0
H558 H 0.43085 0.11872 0.73571 0.0
H559 H 0.41251 0.06875 0.71037 0.0
H560 H 0.60792 0.22634 0.57703 0.0
H561 H 0.58784 0.17618 0.55089 0.0
H562 H 0.57301 0.25843 0.59507 0.0
H563 H 0.54245 0.25934 0.64417 0.0
C564 C 0.46528 0.49594 0.16976 0.0
C565 C 0.44466 0.48689 0.12312 0.0
C566 C 0.3866 0.50694 0.14416 0.0
C567 C 0.40767 0.51661 0.1904 0.0
N568 N 0.47305 0.52932 0.24518 0.0
N569 N 0.39733 0.49769 0.06245 0.0
C570 C 0.44926 0.51427 0.20243 0.0
C571 C 0.40864 0.49641 0.10926 0.0
N572 N 0.49825 0.485 0.18345 0.0
N573 N 0.34489 0.50711 0.13375 0.0
H574 H 0.41567 0.49404 0.03536 0.0
H575 H 0.37405 0.50747 0.05002 0.0
H576 H 0.32986 0.5179 0.15728 0.0
H577 H 0.32369 0.49444 0.10276 0.0
H578 H 0.51062 0.48633 0.21821 0.0
H579 H 0.51057 0.47139 0.16054 0.0
H580 H 0.50629 0.53225 0.25475 0.0
H581 H 0.46158 0.54239 0.2698 0.0
C582 C 0.87846 0.33947 0.5954 0.0
C583 C 0.92393 0.37415 0.61683 0.0
C584 C 0.88913 0.34179 0.69522 0.0
C585 C 0.84208 0.30951 0.67447 0.0
N586 N 0.78963 0.28125 0.60449 0.0
N587 N 0.96368 0.41561 0.68787 0.0
C588 C 0.83587 0.3098 0.62441 0.0
C589 C 0.92655 0.37742 0.66691 0.0
N590 N 0.87663 0.33314 0.54794 0.0
N591 N 0.89902 0.3385 0.74198 0.0
H592 H 0.98972 0.44414 0.6688 0.0
H593 H 0.9647 0.42071 0.72395 0.0
H594 H 0.87333 0.31333 0.76474 0.0
H595 H 0.93476 0.35838 0.75714 0.0
H596 H 0.84648 0.30575 0.53106 0.0
H597 H 0.90702 0.35334 0.52591 0.0
H598 H 0.78137 0.2829 0.56888 0.0
H599 H 0.75856 0.25774 0.62432 0.0
C600 C 0.65834 0.98181 0.15403 0.0
C601 C 0.62783 0.9679 0.11276 0.0
C602 C 0.61438 0.89502 0.12015 0.0
C603 C 0.64015 0.90705 0.16435 0.0
N604 N 0.68218 0.96008 0.22662 0.0
N605 N 0.57155 0.91024 0.05887 0.0
C606 C 0.66156 0.9502 0.18208 0.0
C607 C 0.60458 0.92425 0.09631 0.0
N608 N 0.68426 0.02534 0.16598 0.0
N609 N 0.59976 0.85566 0.10073 0.0
H610 H 0.56379 0.93082 0.03985 0.0
H611 H 0.54865 0.87729 0.04888 0.0
H612 H 0.60555 0.83307 0.11779 0.0
H613 H 0.58596 0.84707 0.06628 0.0
H614 H 0.71117 0.03891 0.19304 0.0
H615 H 0.68115 0.04859 0.14636 0.0
H616 H 0.69314 0.98917 0.24349 0.0
H617 H 0.68547 0.93794 0.24817 0.0
C618 C 0.74037 0.59267 0.62312 0.0
C619 C 0.70109 0.59854 0.63151 0.0
C620 C 0.71844 0.59916 0.71722 0.0
C621 C 0.76116 0.59848 0.70791 0.0
N622 N 0.81816 0.6031 0.6514 0.0
N623 N 0.65581 0.6119 0.6865 0.0
C624 C 0.77377 0.59798 0.66064 0.0
C625 C 0.69082 0.60289 0.67865 0.0
N626 N 0.74401 0.5792 0.57992 0.0
N627 N 0.70361 0.5952 0.76284 0.0
H628 H 0.63483 0.61442 0.65922 0.0
H629 H 0.65011 0.61999 0.71944 0.0
H630 H 0.72387 0.59394 0.79173 0.0
H631 H 0.66973 0.59032 0.77189 0.0
H632 H 0.76855 0.56997 0.57337 0.0
H633 H 0.71864 0.57217 0.55213 0.0
H634 H 0.83181 0.60752 0.61734 0.0
H635 H 0.84365 0.60723 0.67799 0.0
C636 C 0.03324 0.61435 0.22112 0.0
C637 C 0.03017 0.60749 0.17197 0.0
C638 C 0.09296 0.6868 0.15731 0.0
C639 C 0.09726 0.69332 0.20663 0.0
N640 N 0.06236 0.66703 0.28421 0.0
N641 N 0.04564 0.63739 0.09251 0.0
C642 C 0.06379 0.65827 0.23802 0.0
C643 C 0.05625 0.64402 0.13975 0.0
N644 N 1.00975 0.57864 0.25167 0.0
N645 N 0.12556 0.721 0.12774 0.0
H646 H 1.01823 0.60631 0.07927 0.0
H647 H 0.06053 0.66296 0.06712 0.0
H648 H 0.15118 0.75301 0.13989 0.0
H649 H 0.12848 0.71736 0.09195 0.0
H650 H 1.0153 0.58096 0.28819 0.0
H651 H 0.98719 0.5461 0.24014 0.0
H652 H 0.03644 0.64357 0.30828 0.0
H653 H 0.08412 0.69908 0.29723 0.0
loop_
_geom_bond_atom_site_label_1
_geom_bond_atom_site_label_2
_geom_bond_distance
_geom_bond_site_symmetry_2
_ccdc_geom_bond_type
Cu0 N1 1.999 1_554 S
Cu0 O6 1.974 1_554 S
Cu0 N11 1.985 1_655 S
Cu0 O20 1.959 1_655 S
N1 Cu0 1.999 1_556 S
N1 C3 1.263 . S
N1 C5 1.389 1_556 S
N2 C3 1.358 . S
N2 C4 1.400 . S
C3 N1 1.263 . S
C3 N2 1.358 . S
C3 H9 0.930 . S
C4 N2 1.400 . S
C4 C5 1.351 1_556 S
C4 H21 0.930 . S
C5 N1 1.389 1_554 S
C5 C4 1.351 1_554 S
C5 H10 0.930 . S
O6 Cu0 1.974 1_556 S
O6 C16 1.282 . S
C7 O8 1.261 . S
C7 O20 1.251 . S
O8 C7 1.261 . S
H9 C3 0.930 . S
H10 C5 0.930 . S
N11 Cu0 1.985 1_455 S
N11 C13 1.335 . S
N11 C14 1.390 . S
N12 C13 1.345 . S
N12 C15 1.336 . S
C13 N11 1.335 . S
C13 N12 1.345 . S
C13 H18 0.930 . S
C14 N11 1.390 . S
C14 C15 1.346 . S
C14 H19 0.930 1_554 S
C15 N12 1.336 . S
C15 C14 1.346 . S
C15 H22 0.929 . S
C16 O6 1.282 . S
C16 O17 1.216 1_655 S
O17 C16 1.216 1_455 S
H18 C13 0.930 . S
H19 C14 0.930 1_556 S
O20 Cu0 1.959 1_455 S
O20 C7 1.251 . S
H21 C4 0.930 . S
H22 C15 0.929 . S
Cu23 N24 1.999 . S
Cu23 O29 1.974 . S
Cu23 N34 1.985 1_565 S
Cu23 O43 1.959 1_565 S
N24 Cu23 1.999 . S
N24 C26 1.263 . S
N24 C28 1.389 . S
N25 C26 1.358 . S
N25 C27 1.400 . S
C26 N24 1.263 . S
C26 N25 1.358 . S
C26 H32 0.930 . S
C27 N25 1.400 . S
C27 C28 1.351 . S
C27 H44 0.930 . S
C28 N24 1.389 . S
C28 C27 1.351 . S
C28 H33 0.930 . S
O29 Cu23 1.974 . S
O29 C39 1.282 . S
C30 O31 1.261 . S
C30 O43 1.251 . S
O31 C30 1.261 . S
H32 C26 0.930 . S
H33 C28 0.930 . S
N34 Cu23 1.985 1_545 S
N34 C36 1.335 . S
N34 C37 1.390 . S
N35 C36 1.345 . S
N35 C38 1.336 . S
C36 N34 1.335 . S
C36 N35 1.345 . S
C36 H41 0.930 . S
C37 N34 1.390 . S
C37 C38 1.346 . S
C37 H42 0.930 . S
C38 N35 1.336 . S
C38 C37 1.346 . S
C38 H45 0.929 . S
C39 O29 1.282 . S
C39 O40 1.216 1_565 S
O40 C39 1.216 1_545 S
H41 C36 0.930 . S
H42 C37 0.930 . S
O43 Cu23 1.959 1_545 S
O43 C30 1.251 . S
H44 C27 0.930 . S
H45 C38 0.929 . S
Cu46 N47 1.999 . S
Cu46 O52 1.974 . S
Cu46 N57 1.985 1_556 S
Cu46 O66 1.959 1_556 S
N47 Cu46 1.999 . S
N47 C49 1.263 . S
N47 C51 1.389 . S
N48 C49 1.358 . S
N48 C50 1.400 . S
C49 N47 1.263 . S
C49 N48 1.358 . S
C49 H55 0.930 . S
C50 N48 1.400 . S
C50 C51 1.351 . S
C50 H67 0.930 . S
C51 N47 1.389 . S
C51 C50 1.351 . S
C51 H56 0.930 . S
O52 Cu46 1.974 . S
O52 C62 1.282 . S
C53 O54 1.261 . S
C53 O66 1.251 . S
O54 C53 1.261 . S
H55 C49 0.930 . S
H56 C51 0.930 . S
N57 Cu46 1.985 1_554 S
N57 C59 1.335 . S
N57 C60 1.390 . S
N58 C59 1.345 . S
N58 C61 1.336 . S
C59 N57 1.335 . S
C59 N58 1.345 . S
C59 H64 0.930 . S
C60 N57 1.390 . S
C60 C61 1.346 . S
C60 H65 0.930 . S
C61 N58 1.336 . S
C61 C60 1.346 . S
C61 H68 0.929 . S
C62 O52 1.282 . S
C62 O63 1.216 1_556 S
O63 C62 1.216 1_554 S
H64 C59 0.930 . S
H65 C60 0.930 . S
O66 Cu46 1.959 1_554 S
O66 C53 1.251 . S
H67 C50 0.930 . S
H68 C61 0.929 . S
Cu69 N70 1.999 1_655 S
Cu69 O75 1.974 1_655 S
Cu69 N80 1.985 . S
Cu69 O89 1.959 . S
N70 Cu69 1.999 1_455 S
N70 C72 1.263 . S
N70 C74 1.389 1_455 S
N71 C72 1.358 . S
N71 C73 1.400 . S
C72 N70 1.263 . S
C72 N71 1.358 . S
C72 H78 0.930 . S
C73 N71 1.400 . S
C73 C74 1.351 1_455 S
C73 H90 0.930 1_455 S
C74 N70 1.389 1_655 S
C74 C73 1.351 1_655 S
C74 H79 0.930 . S
O75 Cu69 1.974 1_455 S
O75 C85 1.282 . S
C76 O77 1.261 1_655 S
C76 O89 1.251 . S
O77 C76 1.261 1_455 S
H78 C72 0.930 . S
H79 C74 0.930 . S
N80 Cu69 1.985 . S
N80 C82 1.335 . S
N80 C83 1.390 . S
N81 C82 1.345 . S
N81 C84 1.336 . S
C82 N80 1.335 . S
C82 N81 1.345 . S
C82 H87 0.930 . S
C83 N80 1.390 . S
C83 C84 1.346 . S
C83 H88 0.930 1_655 S
C84 N81 1.336 . S
C84 C83 1.346 . S
C84 H91 0.929 . S
C85 O75 1.282 . S
C85 O86 1.216 . S
O86 C85 1.216 . S
H87 C82 0.930 . S
H88 C83 0.930 1_455 S
O89 Cu69 1.959 . S
O89 C76 1.251 . S
H90 C73 0.930 1_655 S
H91 C84 0.929 . S
Cu92 N93 1.999 1_554 S
Cu92 O98 1.974 1_554 S
Cu92 N103 1.985 1_545 S
Cu92 O112 1.959 1_545 S
N93 Cu92 1.999 1_556 S
N93 C95 1.263 . S
N93 C97 1.389 1_556 S
N94 C95 1.358 . S
N94 C96 1.400 . S
C95 N93 1.263 . S
C95 N94 1.358 . S
C95 H101 0.930 . S
C96 N94 1.400 . S
C96 C97 1.351 1_556 S
C96 H113 0.930 . S
C97 N93 1.389 1_554 S
C97 C96 1.351 1_554 S
C97 H102 0.930 . S
O98 Cu92 1.974 1_556 S
O98 C108 1.282 . S
C99 O100 1.261 . S
C99 O112 1.251 . S
O100 C99 1.261 . S
H101 C95 0.930 . S
H102 C97 0.930 . S
N103 Cu92 1.985 1_565 S
N103 C105 1.335 . S
N103 C106 1.390 . S
N104 C105 1.345 . S
N104 C107 1.336 . S
C105 N103 1.335 . S
C105 N104 1.345 . S
C105 H110 0.930 . S
C106 N103 1.390 . S
C106 C107 1.346 . S
C106 H111 0.932 . S
C107 N104 1.336 . S
C107 C106 1.346 . S
C107 H114 0.929 . S
C108 O98 1.282 . S
C108 O109 1.216 . S
O109 C108 1.216 . S
H110 C105 0.930 . S
H111 C106 0.932 . S
O112 Cu92 1.959 1_565 S
O112 C99 1.251 . S
H113 C96 0.930 . S
H114 C107 0.929 . S
Cu115 N116 1.999 . S
Cu115 O121 1.974 . S
Cu115 N126 1.985 . S
Cu115 O135 1.959 . S
N116 Cu115 1.999 . S
N116 C118 1.263 . S
N116 C120 1.389 . S
N117 C118 1.358 . S
N117 C119 1.400 . S
C118 N116 1.263 . S
C118 N117 1.358 . S
C118 H124 0.930 . S
C119 N117 1.400 . S
C119 C120 1.351 . S
C119 H136 0.930 . S
C120 N116 1.389 . S
C120 C119 1.351 . S
C120 H125 0.930 . S
O121 Cu115 1.974 . S
O121 C131 1.282 . S
C122 O123 1.261 . S
C122 O135 1.251 . S
O123 C122 1.261 . S
H124 C118 0.930 . S
H125 C120 0.930 . S
N126 Cu115 1.985 . S
N126 C128 1.335 . S
N126 C129 1.390 . S
N127 C128 1.345 . S
N127 C130 1.336 . S
C128 N126 1.335 . S
C128 N127 1.345 . S
C128 H133 0.930 . S
C129 N126 1.390 . S
C129 C130 1.346 . S
C129 H134 0.930 . S
C130 N127 1.336 . S
C130 C129 1.346 . S
C130 H137 0.929 . S
C131 O121 1.282 . S
C131 O132 1.216 . S
O132 C131 1.216 . S
H133 C128 0.930 . S
H134 C129 0.930 . S
O135 Cu115 1.959 . S
O135 C122 1.251 . S
H136 C119 0.930 . S
H137 C130 0.929 . S
C138 O140 1.247 . S
C138 O142 1.258 . S
C139 O146 1.247 . S
C139 O147 1.258 . S
O140 C138 1.247 . S
O140 Zn141 2.028 . S
Zn141 O140 2.028 . S
Zn141 O145 2.035 . S
Zn141 O147 2.035 . S
Zn141 O148 2.028 . S
O142 C138 1.258 . S
O142 Zn143 2.035 . S
Zn143 O142 2.035 . S
Zn143 O144 2.028 . S
Zn143 O146 2.028 . S
Zn143 O149 2.035 . S
O144 Zn143 2.028 . S
O144 C150 1.247 . S
O145 Zn141 2.035 . S
O145 C150 1.258 . S
O146 C139 1.247 . S
O146 Zn143 2.028 . S
O147 C139 1.258 . S
O147 Zn141 2.035 . S
O148 Zn141 2.028 . S
O148 C151 1.247 . S
O149 Zn143 2.035 . S
O149 C151 1.258 . S
C150 O144 1.247 . S
C150 O145 1.258 . S
C151 O148 1.247 . S
C151 O149 1.258 . S
C152 O154 1.247 . S
C152 O156 1.258 . S
C153 O160 1.247 . S
C153 O161 1.258 . S
O154 C152 1.247 . S
O154 Zn155 2.028 . S
Zn155 O154 2.028 . S
Zn155 O159 2.035 . S
Zn155 O161 2.035 . S
Zn155 O162 2.028 . S
O156 C152 1.258 . S
O156 Zn157 2.035 . S
Zn157 O156 2.035 . S
Zn157 O158 2.028 . S
Zn157 O160 2.028 . S
Zn157 O163 2.035 . S
O158 Zn157 2.028 . S
O158 C164 1.247 . S
O159 Zn155 2.035 . S
O159 C164 1.258 . S
O160 C153 1.247 . S
O160 Zn157 2.028 . S
O161 C153 1.258 . S
O161 Zn155 2.035 . S
O162 Zn155 2.028 . S
O162 C165 1.247 . S
O163 Zn157 2.035 . S
O163 C165 1.258 . S
C164 O158 1.247 . S
C164 O159 1.258 . S
C165 O162 1.247 . S
C165 O163 1.258 . S
C166 O168 1.247 . S
C166 O170 1.258 . S
C167 O174 1.247 . S
C167 O175 1.258 . S
O168 C166 1.247 . S
O168 Zn169 2.028 . S
Zn169 O168 2.028 . S
Zn169 O173 2.035 . S
Zn169 O175 2.035 . S
Zn169 O176 2.028 . S
O170 C166 1.258 . S
O170 Zn171 2.035 . S
Zn171 O170 2.035 . S
Zn171 O172 2.028 . S
Zn171 O174 2.028 . S
Zn171 O177 2.035 . S
O172 Zn171 2.028 . S
O172 C178 1.247 . S
O173 Zn169 2.035 . S
O173 C178 1.258 . S
O174 C167 1.247 . S
O174 Zn171 2.028 . S
O175 C167 1.258 . S
O175 Zn169 2.035 . S
O176 Zn169 2.028 . S
O176 C179 1.247 . S
O177 Zn171 2.035 . S
O177 C179 1.258 . S
C178 O172 1.247 . S
C178 O173 1.258 . S
C179 O176 1.247 . S
C179 O177 1.258 . S
C180 O182 1.247 . S
C180 O184 1.258 . S
C181 O188 1.247 . S
C181 O189 1.258 . S
O182 C180 1.247 . S
O182 Zn183 2.028 . S
Zn183 O182 2.028 . S
Zn183 O187 2.035 . S
Zn183 O189 2.035 . S
Zn183 O190 2.028 . S
O184 C180 1.258 . S
O184 Zn185 2.035 . S
Zn185 O184 2.035 . S
Zn185 O186 2.028 . S
Zn185 O188 2.028 . S
Zn185 O191 2.035 . S
O186 Zn185 2.028 . S
O186 C192 1.247 . S
O187 Zn183 2.035 . S
O187 C192 1.258 . S
O188 C181 1.247 . S
O188 Zn185 2.028 . S
O189 C181 1.258 . S
O189 Zn183 2.035 . S
O190 Zn183 2.028 . S
O190 C193 1.247 . S
O191 Zn185 2.035 . S
O191 C193 1.258 . S
C192 O186 1.247 . S
C192 O187 1.258 . S
C193 O190 1.247 . S
C193 O191 1.258 . S
C194 O196 1.247 . S
C194 O198 1.258 . S
C195 O202 1.247 . S
C195 O203 1.258 . S
O196 C194 1.247 . S
O196 Zn197 2.028 . S
Zn197 O196 2.028 . S
Zn197 O201 2.035 . S
Zn197 O203 2.035 . S
Zn197 O204 2.028 . S
O198 C194 1.258 . S
O198 Zn199 2.035 . S
Zn199 O198 2.035 . S
Zn199 O200 2.028 . S
Zn199 O202 2.028 . S
Zn199 O205 2.035 . S
O200 Zn199 2.028 . S
O200 C206 1.247 . S
O201 Zn197 2.035 . S
O201 C206 1.258 . S
O202 C195 1.247 . S
O202 Zn199 2.028 . S
O203 C195 1.258 . S
O203 Zn197 2.035 . S
O204 Zn197 2.028 . S
O204 C207 1.247 . S
O205 Zn199 2.035 . S
O205 C207 1.258 . S
C206 O200 1.247 . S
C206 O201 1.258 . S
C207 O204 1.247 . S
C207 O205 1.258 . S
C208 O210 1.247 . S
C208 O212 1.258 . S
C209 O216 1.247 . S
C209 O217 1.258 . S
O210 C208 1.247 . S
O210 Zn211 2.028 . S
Zn211 O210 2.028 . S
Zn211 O215 2.035 . S
Zn211 O217 2.035 . S
Zn211 O218 2.028 . S
O212 C208 1.258 . S
O212 Zn213 2.035 . S
Zn213 O212 2.035 . S
Zn213 O214 2.028 . S
Zn213 O216 2.028 . S
Zn213 O219 2.035 . S
O214 Zn213 2.028 . S
O214 C220 1.247 . S
O215 Zn211 2.035 . S
O215 C220 1.258 . S
O216 C209 1.247 . S
O216 Zn213 2.028 . S
O217 C209 1.258 . S
O217 Zn211 2.035 . S
O218 Zn211 2.028 . S
O218 C221 1.247 . S
O219 Zn213 2.035 . S
O219 C221 1.258 . S
C220 O214 1.247 . S
C220 O215 1.258 . S
C221 O218 1.247 . S
C221 O219 1.258 . S
C222 C223 1.363 . S
C222 C228 1.379 . S
C222 N230 1.356 . S
C223 C222 1.363 . S
C223 C229 1.363 . S
C224 C225 1.363 . S
C224 C229 1.379 . S
C224 N231 1.356 . S
C225 C224 1.363 . S
C225 C228 1.363 . S
N226 C228 1.356 . S
N226 H238 0.984 . S
N226 H239 0.985 . S
N227 C229 1.356 . S
N227 H232 0.984 . S
N227 H233 0.985 . S
C228 C222 1.379 . S
C228 C225 1.363 . S
C228 N226 1.356 . S
C229 C223 1.363 . S
C229 C224 1.379 . S
C229 N227 1.356 . S
N230 C222 1.356 . S
N230 H236 0.984 . S
N230 H237 0.984 . S
N231 C224 1.356 . S
N231 H234 0.984 . S
N231 H235 0.985 . S
H232 N227 0.984 . S
H233 N227 0.985 . S
H234 N231 0.984 . S
H235 N231 0.985 . S
H236 N230 0.984 . S
H237 N230 0.984 . S
H238 N226 0.984 . S
H239 N226 0.985 . S
C240 C241 1.363 . S
C240 C246 1.379 . S
C240 N248 1.356 . S
C241 C240 1.363 . S
C241 C247 1.363 . S
C242 C243 1.363 . S
C242 C247 1.379 . S
C242 N249 1.356 . S
C243 C242 1.363 . S
C243 C246 1.363 . S
N244 C246 1.356 . S
N244 H256 0.984 . S
N244 H257 0.985 . S
N245 C247 1.356 . S
N245 H250 0.984 . S
N245 H251 0.985 . S
C246 C240 1.379 . S
C246 C243 1.363 . S
C246 N244 1.356 . S
C247 C241 1.363 . S
C247 C242 1.379 . S
C247 N245 1.356 . S
N248 C240 1.356 . S
N248 H254 0.984 . S
N248 H255 0.984 . S
N249 C242 1.356 . S
N249 H252 0.984 . S
N249 H253 0.985 . S
H250 N245 0.984 . S
H251 N245 0.985 . S
H252 N249 0.984 . S
H253 N249 0.985 . S
H254 N248 0.984 . S
H255 N248 0.984 . S
H256 N244 0.984 . S
H257 N244 0.985 . S
C258 C259 1.363 . S
C258 C264 1.379 . S
C258 N266 1.356 . S
C259 C258 1.363 . S
C259 C265 1.363 . S
C260 C261 1.363 . S
C260 C265 1.379 . S
C260 N267 1.356 . S
C261 C260 1.363 . S
C261 C264 1.363 . S
N262 C264 1.356 . S
N262 H274 0.984 . S
N262 H275 0.985 . S
N263 C265 1.356 . S
N263 H268 0.984 . S
N263 H269 0.985 . S
C264 C258 1.379 . S
C264 C261 1.363 . S
C264 N262 1.356 . S
C265 C259 1.363 . S
C265 C260 1.379 . S
C265 N263 1.356 . S
N266 C258 1.356 . S
N266 H272 0.984 . S
N266 H273 0.984 . S
N267 C260 1.356 . S
N267 H270 0.984 . S
N267 H271 0.985 . S
H268 N263 0.984 . S
H269 N263 0.985 . S
H270 N267 0.984 . S
H271 N267 0.985 . S
H272 N266 0.984 . S
H273 N266 0.984 . S
H274 N262 0.984 . S
H275 N262 0.985 . S
C276 C277 1.363 . S
C276 C282 1.379 . S
C276 N284 1.356 . S
C277 C276 1.363 . S
C277 C283 1.363 . S
C278 C279 1.363 . S
C278 C283 1.379 . S
C278 N285 1.356 . S
C279 C278 1.363 . S
C279 C282 1.363 . S
N280 C282 1.356 . S
N280 H292 0.984 . S
N280 H293 0.985 . S
N281 C283 1.356 . S
N281 H286 0.984 . S
N281 H287 0.985 . S
C282 C276 1.379 . S
C282 C279 1.363 . S
C282 N280 1.356 . S
C283 C277 1.363 . S
C283 C278 1.379 . S
C283 N281 1.356 . S
N284 C276 1.356 . S
N284 H290 0.984 . S
N284 H291 0.984 . S
N285 C278 1.356 . S
N285 H288 0.984 . S
N285 H289 0.985 . S
H286 N281 0.984 . S
H287 N281 0.985 . S
H288 N285 0.984 . S
H289 N285 0.985 . S
H290 N284 0.984 . S
H291 N284 0.984 . S
H292 N280 0.984 . S
H293 N280 0.985 . S
C294 C295 1.363 . S
C294 C300 1.379 . S
C294 N302 1.356 . S
C295 C294 1.363 . S
C295 C301 1.363 . S
C296 C297 1.363 . S
C296 C301 1.379 . S
C296 N303 1.356 . S
C297 C296 1.363 . S
C297 C300 1.363 . S
N298 C300 1.356 . S
N298 H310 0.984 . S
N298 H311 0.985 . S
N299 C301 1.356 . S
N299 H304 0.984 . S
N299 H305 0.985 . S
C300 C294 1.379 . S
C300 C297 1.363 . S
C300 N298 1.356 . S
C301 C295 1.363 . S
C301 C296 1.379 . S
C301 N299 1.356 . S
N302 C294 1.356 . S
N302 H308 0.984 . S
N302 H309 0.984 . S
N303 C296 1.356 . S
N303 H306 0.984 . S
N303 H307 0.985 . S
H304 N299 0.984 . S
H305 N299 0.985 . S
H306 N303 0.984 . S
H307 N303 0.985 . S
H308 N302 0.984 . S
H309 N302 0.984 . S
H310 N298 0.984 . S
H311 N298 0.985 . S
C312 C313 1.363 . S
C312 C318 1.379 . S
C312 N320 1.356 . S
C313 C312 1.363 . S
C313 C319 1.363 . S
C314 C315 1.363 . S
C314 C319 1.379 . S
C314 N321 1.356 . S
C315 C314 1.363 . S
C315 C318 1.363 . S
N316 C318 1.356 . S
N316 H328 0.984 . S
N316 H329 0.985 . S
N317 C319 1.356 . S
N317 H322 0.984 . S
N317 H323 0.985 . S
C318 C312 1.379 . S
C318 C315 1.363 . S
C318 N316 1.356 . S
C319 C313 1.363 . S
C319 C314 1.379 . S
C319 N317 1.356 . S
N320 C312 1.356 . S
N320 H326 0.984 . S
N320 H327 0.984 . S
N321 C314 1.356 . S
N321 H324 0.984 . S
N321 H325 0.985 . S
H322 N317 0.984 . S
H323 N317 0.985 . S
H324 N321 0.984 . S
H325 N321 0.985 . S
H326 N320 0.984 . S
H327 N320 0.984 . S
H328 N316 0.984 . S
H329 N316 0.985 . S
C330 C331 1.363 . S
C330 C336 1.379 . S
C330 N338 1.356 . S
C331 C330 1.363 . S
C331 C337 1.363 . S
C332 C333 1.363 . S
C332 C337 1.379 . S
C332 N339 1.356 . S
C333 C332 1.363 . S
C333 C336 1.363 . S
N334 C336 1.356 . S
N334 H346 0.984 . S
N334 H347 0.985 . S
N335 C337 1.356 . S
N335 H340 0.984 . S
N335 H341 0.985 . S
C336 C330 1.379 . S
C336 C333 1.363 . S
C336 N334 1.356 . S
C337 C331 1.363 . S
C337 C332 1.379 . S
C337 N335 1.356 . S
N338 C330 1.356 . S
N338 H344 0.984 1_565 S
N338 H345 0.984 . S
N339 C332 1.356 . S
N339 H342 0.984 . S
N339 H343 0.985 . S
H340 N335 0.984 . S
H341 N335 0.985 . S
H342 N339 0.984 . S
H343 N339 0.985 . S
H344 N338 0.984 1_545 S
H345 N338 0.984 . S
H346 N334 0.984 . S
H347 N334 0.985 . S
C348 C349 1.363 . S
C348 C354 1.379 . S
C348 N356 1.356 . S
C349 C348 1.363 . S
C349 C355 1.363 . S
C350 C351 1.363 . S
C350 C355 1.379 . S
C350 N357 1.356 . S
C351 C350 1.363 . S
C351 C354 1.363 . S
N352 C354 1.356 . S
N352 H364 0.984 . S
N352 H365 0.985 . S
N353 C355 1.356 . S
N353 H358 0.984 . S
N353 H359 0.985 . S
C354 C348 1.379 . S
C354 C351 1.363 . S
C354 N352 1.356 . S
C355 C349 1.363 . S
C355 C350 1.379 . S
C355 N353 1.356 . S
N356 C348 1.356 . S
N356 H362 0.984 1_556 S
N356 H363 0.990 . S
N357 C350 1.356 . S
N357 H360 0.984 . S
N357 H361 0.985 . S
H358 N353 0.984 . S
H359 N353 0.985 . S
H360 N357 0.984 . S
H361 N357 0.985 . S
H362 N356 0.984 1_554 S
H363 N356 0.990 . S
H364 N352 0.984 . S
H365 N352 0.985 . S
C366 C367 1.363 . S
C366 C372 1.379 . S
C366 N374 1.356 . S
C367 C366 1.363 . S
C367 C373 1.363 . S
C368 C369 1.363 . S
C368 C373 1.379 . S
C368 N375 1.356 . S
C369 C368 1.363 . S
C369 C372 1.363 . S
N370 C372 1.356 . S
N370 H382 0.984 . S
N370 H383 0.985 . S
N371 C373 1.356 . S
N371 H376 0.984 . S
N371 H377 0.985 . S
C372 C366 1.379 . S
C372 C369 1.363 . S
C372 N370 1.356 . S
C373 C367 1.363 . S
C373 C368 1.379 . S
C373 N371 1.356 . S
N374 C366 1.356 . S
N374 H380 0.984 . S
N374 H381 0.984 . S
N375 C368 1.356 . S
N375 H378 0.984 . S
N375 H379 0.985 . S
H376 N371 0.984 . S
H377 N371 0.985 . S
H378 N375 0.984 . S
H379 N375 0.985 . S
H380 N374 0.984 . S
H381 N374 0.984 . S
H382 N370 0.984 . S
H383 N370 0.985 . S
C384 C385 1.363 . S
C384 C390 1.379 . S
C384 N392 1.356 . S
C385 C384 1.363 . S
C385 C391 1.363 . S
C386 C387 1.363 . S
C386 C391 1.379 . S
C386 N393 1.356 . S
C387 C386 1.363 . S
C387 C390 1.363 . S
N388 C390 1.356 . S
N388 H400 0.984 . S
N388 H401 0.985 . S
N389 C391 1.356 . S
N389 H394 0.984 . S
N389 H395 0.985 . S
C390 C384 1.379 . S
C390 C387 1.363 . S
C390 N388 1.356 . S
C391 C385 1.363 . S
C391 C386 1.379 . S
C391 N389 1.356 . S
N392 C384 1.356 . S
N392 H398 0.984 1_545 S
N392 H399 0.984 . S
N393 C386 1.356 . S
N393 H396 0.984 . S
N393 H397 0.985 . S
H394 N389 0.984 . S
H395 N389 0.985 . S
H396 N393 0.984 . S
H397 N393 0.985 . S
H398 N392 0.984 1_565 S
H399 N392 0.984 . S
H400 N388 0.984 . S
H401 N388 0.985 . S
C402 C403 1.363 . S
C402 C408 1.379 . S
C402 N410 1.356 . S
C403 C402 1.363 . S
C403 C409 1.363 . S
C404 C405 1.363 . S
C404 C409 1.379 . S
C404 N411 1.356 . S
C405 C404 1.363 . S
C405 C408 1.363 . S
N406 C408 1.356 . S
N406 H418 0.984 . S
N406 H419 0.985 . S
N407 C409 1.356 . S
N407 H412 0.984 . S
N407 H413 0.985 . S
C408 C402 1.379 . S
C408 C405 1.363 . S
C408 N406 1.356 . S
C409 C403 1.363 . S
C409 C404 1.379 . S
C409 N407 1.356 . S
N410 C402 1.356 . S
N410 H416 0.984 . S
N410 H417 0.984 . S
N411 C404 1.356 . S
N411 H414 0.984 . S
N411 H415 0.985 . S
H412 N407 0.984 . S
H413 N407 0.985 . S
H414 N411 0.984 . S
H415 N411 0.985 . S
H416 N410 0.984 . S
H417 N410 0.984 . S
H418 N406 0.984 . S
H419 N406 0.985 . S
C420 C421 1.363 . S
C420 C426 1.379 . S
C420 N428 1.356 . S
C421 C420 1.363 . S
C421 C427 1.363 . S
C422 C423 1.363 . S
C422 C427 1.379 . S
C422 N429 1.356 . S
C423 C422 1.363 . S
C423 C426 1.363 . S
N424 C426 1.356 . S
N424 H436 0.984 . S
N424 H437 0.985 . S
N425 C427 1.356 . S
N425 H430 0.984 . S
N425 H431 0.985 . S
C426 C420 1.379 . S
C426 C423 1.363 . S
C426 N424 1.356 . S
C427 C421 1.363 . S
C427 C422 1.379 . S
C427 N425 1.356 . S
N428 C420 1.356 . S
N428 H434 0.984 . S
N428 H435 0.984 . S
N429 C422 1.356 . S
N429 H432 0.984 . S
N429 H433 0.985 . S
H430 N425 0.984 . S
H431 N425 0.985 . S
H432 N429 0.984 . S
H433 N429 0.985 . S
H434 N428 0.984 . S
H435 N428 0.984 . S
H436 N424 0.984 . S
H437 N424 0.985 . S
C438 C439 1.363 . S
C438 C444 1.379 . S
C438 N446 1.356 1_655 S
C439 C438 1.363 . S
C439 C445 1.363 . S
C440 C441 1.363 . S
C440 C445 1.379 . S
C440 N447 1.356 . S
C441 C440 1.363 . S
C441 C444 1.363 . S
N442 C444 1.356 . S
N442 H454 0.984 . S
N442 H455 0.985 . S
N443 C445 1.356 . S
N443 H448 0.984 . S
N443 H449 0.985 . S
C444 C438 1.379 . S
C444 C441 1.363 . S
C444 N442 1.356 . S
C445 C439 1.363 . S
C445 C440 1.379 . S
C445 N443 1.356 . S
N446 C438 1.356 1_455 S
N446 H452 0.984 . S
N446 H453 0.984 . S
N447 C440 1.356 . S
N447 H450 0.984 . S
N447 H451 0.985 . S
H448 N443 0.984 . S
H449 N443 0.985 . S
H450 N447 0.984 . S
H451 N447 0.985 . S
H452 N446 0.984 . S
H453 N446 0.984 . S
H454 N442 0.984 . S
H455 N442 0.985 . S
C456 C457 1.363 . S
C456 C462 1.379 . S
C456 N464 1.356 . S
C457 C456 1.363 . S
C457 C463 1.363 . S
C458 C459 1.363 . S
C458 C463 1.379 . S
C458 N465 1.356 . S
C459 C458 1.363 . S
C459 C462 1.363 . S
N460 C462 1.356 . S
N460 H472 0.984 . S
N460 H473 0.985 . S
N461 C463 1.356 . S
N461 H466 0.984 . S
N461 H467 0.985 . S
C462 C456 1.379 . S
C462 C459 1.363 . S
C462 N460 1.356 . S
C463 C457 1.363 . S
C463 C458 1.379 . S
C463 N461 1.356 . S
N464 C456 1.356 . S
N464 H470 0.984 1_565 S
N464 H471 0.984 1_565 S
N465 C458 1.356 . S
N465 H468 0.984 . S
N465 H469 0.985 . S
H466 N461 0.984 . S
H467 N461 0.985 . S
H468 N465 0.984 . S
H469 N465 0.985 . S
H470 N464 0.984 1_545 S
H471 N464 0.984 1_545 S
H472 N460 0.984 . S
H473 N460 0.985 . S
C474 C475 1.363 . S
C474 C480 1.379 . S
C474 N482 1.356 . S
C475 C474 1.363 . S
C475 C481 1.363 . S
C476 C477 1.363 . S
C476 C481 1.379 . S
C476 N483 1.356 . S
C477 C476 1.363 . S
C477 C480 1.363 . S
N478 C480 1.356 . S
N478 H490 0.984 . S
N478 H491 0.985 . S
N479 C481 1.356 . S
N479 H484 0.984 . S
N479 H485 0.985 . S
C480 C474 1.379 . S
C480 C477 1.363 . S
C480 N478 1.356 . S
C481 C475 1.363 . S
C481 C476 1.379 . S
C481 N479 1.356 . S
N482 C474 1.356 . S
N482 H488 0.984 . S
N482 H489 0.984 . S
N483 C476 1.356 . S
N483 H486 0.984 . S
N483 H487 0.985 . S
H484 N479 0.984 . S
H485 N479 0.985 . S
H486 N483 0.984 . S
H487 N483 0.985 . S
H488 N482 0.984 . S
H489 N482 0.984 . S
H490 N478 0.984 . S
H491 N478 0.985 . S
C492 C493 1.363 . S
C492 C498 1.379 . S
C492 N500 1.356 . S
C493 C492 1.363 . S
C493 C499 1.363 . S
C494 C495 1.363 . S
C494 C499 1.379 . S
C494 N501 1.356 . S
C495 C494 1.363 . S
C495 C498 1.363 . S
N496 C498 1.356 . S
N496 H508 0.984 . S
N496 H509 0.985 . S
N497 C499 1.356 . S
N497 H502 0.984 . S
N497 H503 0.985 1_455 S
C498 C492 1.379 . S
C498 C495 1.363 . S
C498 N496 1.356 . S
C499 C493 1.363 . S
C499 C494 1.379 . S
C499 N497 1.356 . S
N500 C492 1.356 . S
N500 H506 0.984 . S
N500 H507 0.984 . S
N501 C494 1.356 . S
N501 H504 0.984 . S
N501 H505 0.985 . S
H502 N497 0.984 . S
H503 N497 0.985 1_655 S
H504 N501 0.984 . S
H505 N501 0.985 . S
H506 N500 0.984 . S
H507 N500 0.984 . S
H508 N496 0.984 . S
H509 N496 0.985 . S
C510 C511 1.363 . S
C510 C516 1.379 . S
C510 N518 1.356 . S
C511 C510 1.363 . S
C511 C517 1.363 . S
C512 C513 1.363 . S
C512 C517 1.379 . S
C512 N519 1.356 . S
C513 C512 1.363 . S
C513 C516 1.363 . S
N514 C516 1.356 . S
N514 H526 0.984 . S
N514 H527 0.985 . S
N515 C517 1.356 . S
N515 H520 0.984 . S
N515 H521 0.985 . S
C516 C510 1.379 . S
C516 C513 1.363 . S
C516 N514 1.356 . S
C517 C511 1.363 . S
C517 C512 1.379 . S
C517 N515 1.356 . S
N518 C510 1.356 . S
N518 H524 0.984 . S
N518 H525 0.984 . S
N519 C512 1.356 . S
N519 H522 0.984 . S
N519 H523 0.985 . S
H520 N515 0.984 . S
H521 N515 0.985 . S
H522 N519 0.984 . S
H523 N519 0.985 . S
H524 N518 0.984 . S
H525 N518 0.984 . S
H526 N514 0.984 . S
H527 N514 0.985 . S
C528 C529 1.363 . S
C528 C534 1.379 . S
C528 N536 1.356 . S
C529 C528 1.363 . S
C529 C535 1.363 . S
C530 C531 1.363 . S
C530 C535 1.379 . S
C530 N537 1.356 . S
C531 C530 1.363 . S
C531 C534 1.363 . S
N532 C534 1.356 . S
N532 H544 0.984 . S
N532 H545 0.985 . S
N533 C535 1.356 . S
N533 H538 0.984 . S
N533 H539 0.985 . S
C534 C528 1.379 . S
C534 C531 1.363 . S
C534 N532 1.356 . S
C535 C529 1.363 . S
C535 C530 1.379 . S
C535 N533 1.356 . S
N536 C528 1.356 . S
N536 H542 0.984 . S
N536 H543 0.984 . S
N537 C530 1.356 . S
N537 H540 0.984 . S
N537 H541 0.985 . S
H538 N533 0.984 . S
H539 N533 0.985 . S
H540 N537 0.984 . S
H541 N537 0.985 . S
H542 N536 0.984 . S
H543 N536 0.984 . S
H544 N532 0.984 . S
H545 N532 0.985 . S
C546 C547 1.363 . S
C546 C552 1.379 . S
C546 N554 1.356 . S
C547 C546 1.363 . S
C547 C553 1.363 . S
C548 C549 1.363 . S
C548 C553 1.379 . S
C548 N555 1.356 . S
C549 C548 1.363 . S
C549 C552 1.363 . S
N550 C552 1.356 . S
N550 H562 0.984 . S
N550 H563 0.985 . S
N551 C553 1.356 . S
N551 H556 0.984 . S
N551 H557 0.985 1_545 S
C552 C546 1.379 . S
C552 C549 1.363 . S
C552 N550 1.356 . S
C553 C547 1.363 . S
C553 C548 1.379 . S
C553 N551 1.356 . S
N554 C546 1.356 . S
N554 H560 0.984 . S
N554 H561 0.984 . S
N555 C548 1.356 . S
N555 H558 0.984 . S
N555 H559 0.985 . S
H556 N551 0.984 . S
H557 N551 0.985 1_565 S
H558 N555 0.984 . S
H559 N555 0.985 . S
H560 N554 0.984 . S
H561 N554 0.984 . S
H562 N550 0.984 . S
H563 N550 0.985 . S
C564 C565 1.363 . S
C564 C570 1.379 . S
C564 N572 1.356 . S
C565 C564 1.363 . S
C565 C571 1.363 . S
C566 C567 1.363 . S
C566 C571 1.379 . S
C566 N573 1.356 . S
C567 C566 1.363 . S
C567 C570 1.363 . S
N568 C570 1.356 . S
N568 H580 0.984 . S
N568 H581 0.985 . S
N569 C571 1.356 . S
N569 H574 0.984 . S
N569 H575 0.985 . S
C570 C564 1.379 . S
C570 C567 1.363 . S
C570 N568 1.356 . S
C571 C565 1.363 . S
C571 C566 1.379 . S
C571 N569 1.356 . S
N572 C564 1.356 . S
N572 H578 0.984 . S
N572 H579 0.984 . S
N573 C566 1.356 . S
N573 H576 0.984 . S
N573 H577 0.985 . S
H574 N569 0.984 . S
H575 N569 0.985 . S
H576 N573 0.984 . S
H577 N573 0.985 . S
H578 N572 0.984 . S
H579 N572 0.984 . S
H580 N568 0.984 . S
H581 N568 0.985 . S
C582 C583 1.363 . S
C582 C588 1.379 . S
C582 N590 1.356 . S
C583 C582 1.363 . S
C583 C589 1.363 . S
C584 C585 1.363 . S
C584 C589 1.379 . S
C584 N591 1.356 . S
C585 C584 1.363 . S
C585 C588 1.363 . S
N586 C588 1.356 . S
N586 H598 0.984 . S
N586 H599 0.985 . S
N587 C589 1.356 . S
N587 H592 0.984 . S
N587 H593 0.985 1_655 S
C588 C582 1.379 . S
C588 C585 1.363 . S
C588 N586 1.356 . S
C589 C583 1.363 . S
C589 C584 1.379 . S
C589 N587 1.356 . S
N590 C582 1.356 . S
N590 H596 0.984 . S
N590 H597 0.984 . S
N591 C584 1.356 . S
N591 H594 0.984 . S
N591 H595 0.985 . S
H592 N587 0.984 . S
H593 N587 0.985 1_455 S
H594 N591 0.984 . S
H595 N591 0.985 . S
H596 N590 0.984 . S
H597 N590 0.984 . S
H598 N586 0.984 . S
H599 N586 0.985 . S
C600 C601 1.363 . S
C600 C606 1.379 . S
C600 N608 1.356 . S
C601 C600 1.363 . S
C601 C607 1.363 . S
C602 C603 1.363 . S
C602 C607 1.379 . S
C602 N609 1.356 . S
C603 C602 1.363 . S
C603 C606 1.363 . S
N604 C606 1.356 . S
N604 H616 0.984 . S
N604 H617 0.985 . S
N605 C607 1.356 . S
N605 H610 0.984 . S
N605 H611 0.985 . S
C606 C600 1.379 . S
C606 C603 1.363 . S
C606 N604 1.356 . S
C607 C601 1.363 . S
C607 C602 1.379 . S
C607 N605 1.356 . S
N608 C600 1.356 . S
N608 H614 0.984 1_565 S
N608 H615 0.984 1_565 S
N609 C602 1.356 . S
N609 H612 0.984 . S
N609 H613 0.985 . S
H610 N605 0.984 . S
H611 N605 0.985 . S
H612 N609 0.984 . S
H613 N609 0.985 . S
H614 N608 0.984 1_545 S
H615 N608 0.984 1_545 S
H616 N604 0.984 . S
H617 N604 0.985 . S
C618 C619 1.363 . S
C618 C624 1.379 . S
C618 N626 1.356 . S
C619 C618 1.363 . S
C619 C625 1.363 . S
C620 C621 1.363 . S
C620 C625 1.379 . S
C620 N627 1.356 . S
C621 C620 1.363 . S
C621 C624 1.363 . S
N622 C624 1.356 . S
N622 H634 0.984 . S
N622 H635 0.985 . S
N623 C625 1.356 . S
N623 H628 0.984 . S
N623 H629 0.985 . S
C624 C618 1.379 . S
C624 C621 1.363 . S
C624 N622 1.356 . S
C625 C619 1.363 . S
C625 C620 1.379 . S
C625 N623 1.356 . S
N626 C618 1.356 . S
N626 H632 0.984 . S
N626 H633 0.984 . S
N627 C620 1.356 . S
N627 H630 0.984 . S
N627 H631 0.985 . S
H628 N623 0.984 . S
H629 N623 0.985 . S
H630 N627 0.984 . S
H631 N627 0.985 . S
H632 N626 0.984 . S
H633 N626 0.984 . S
H634 N622 0.984 . S
H635 N622 0.985 . S
C636 C637 1.363 . S
C636 C642 1.379 . S
C636 N644 1.356 . S
C637 C636 1.363 . S
C637 C643 1.363 . S
C638 C639 1.363 . S
C638 C643 1.379 . S
C638 N645 1.356 . S
C639 C638 1.363 . S
C639 C642 1.363 . S
N640 C642 1.356 . S
N640 H652 0.984 . S
N640 H653 0.985 . S
N641 C643 1.356 . S
N641 H646 0.984 . S
N641 H647 0.985 . S
C642 C636 1.379 . S
C642 C639 1.363 . S
C642 N640 1.356 . S
C643 C637 1.363 . S
C643 C638 1.379 . S
C643 N641 1.356 . S
N644 C636 1.356 . S
N644 H650 0.984 . S
N644 H651 0.984 . S
N645 C638 1.356 . S
N645 H648 0.984 . S
N645 H649 0.985 . S
H646 N641 0.984 . S
H647 N641 0.985 . S
H648 N645 0.984 . S
H649 N645 0.985 . S
H650 N644 0.984 . S
H651 N644 0.984 . S
H652 N640 0.984 . S
H653 N640 0.985 . S
C223 C7 1.818 . S
C225 C139 1.787 . S
C241 C30 1.601 . S
C243 C164 1.570 . S
C261 C167 1.645 . S
C259 N58 1.624 . S
C279 C193 1.445 . S
C277 N81 1.413 . S
C297 C194 1.726 . S
C295 C99 1.762 . S
C315 C221 1.437 . S
C313 N127 1.423 . S
C331 N25 1.648 . S
C333 C166 1.646 . S
C349 C62 1.607 . S
C351 C192 1.571 . S
C369 C195 1.743 . S
C367 C85 1.767 . S
C387 C220 1.448 . S
C385 N94 1.456 . S
C403 C131 1.795 . S
C405 C138 1.750 . S
C423 C165 1.445 . S
C421 N2 1.442 . S
C441 C180 1.754 . S
C439 C16 1.767 . S
C457 C39 1.563 . S
C459 C207 1.551 . S
C477 C208 1.640 . S
C475 N48 1.623 . S
C493 N71 1.415 . S
C495 C150 1.443 . S
C511 C108 1.743 . S
C513 C153 1.729 . S
C529 N117 1.413 . S
C531 C178 1.433 . S
C547 N35 1.615 . S
C549 C209 1.642 . S
C567 C151 1.574 . S
C565 C53 1.592 . S
C583 C76 1.792 . S
C585 C152 1.770 . S
C601 N104 1.411 . S
C603 C179 1.434 . S
C619 C122 1.744 . S
C621 C181 1.723 . S
C637 N12 1.393 . S
C639 C206 1.425 . S
