# Generated by pormake.
# Topology pyr, (3,6)-cn, num edge types: 1
# Building blocks:
#     Node 0, Type 0, BuildingBlock: OLANEW_clean_sbu_2, # of connection points: 3
#     Node 1, Type 0, BuildingBlock: OLANEW_clean_sbu_2, # of connection points: 3
#     Node 2, Type 0, BuildingBlock: OLANEW_clean_sbu_2, # of connection points: 3
#     Node 3, Type 0, BuildingBlock: OLANEW_clean_sbu_2, # of connection points: 3
#     Node 4, Type 0, BuildingBlock: OLANEW_clean_sbu_2, # of connection points: 3
#     Node 5, Type 0, BuildingBlock: OLANEW_clean_sbu_2, # of connection points: 3
#     Node 6, Type 0, BuildingBlock: OLANEW_clean_sbu_2, # of connection points: 3
#     Node 7, Type 0, BuildingBlock: OLANEW_clean_sbu_2, # of connection points: 3
#     Node 8, Type 1, BuildingBlock: VOLQOD_clean_sbu_1, # of connection points: 6
#     Node 9, Type 1, BuildingBlock: VOLQOD_clean_sbu_1, # of connection points: 6
#     Node 10, Type 1, BuildingBlock: VOLQOD_clean_sbu_1, # of connection points: 6
#     Node 11, Type 1, BuildingBlock: VOLQOD_clean_sbu_1, # of connection points: 6
#     Edge 12, Type (0, 1), BuildingBlock: ZUJKAS_clean_linker_0, # of connection points: 2
#     Edge 13, Type (0, 1), BuildingBlock: ZUJKAS_clean_linker_0, # of connection points: 2
#     Edge 14, Type (0, 1), BuildingBlock: ZUJKAS_clean_linker_0, # of connection points: 2
#     Edge 15, Type (0, 1), BuildingBlock: ZUJKAS_clean_linker_0, # of connection points: 2
#     Edge 16, Type (0, 1), BuildingBlock: ZUJKAS_clean_linker_0, # of connection points: 2
#     Edge 17, Type (0, 1), BuildingBlock: ZUJKAS_clean_linker_0, # of connection points: 2
#     Edge 18, Type (0, 1), BuildingBlock: ZUJKAS_clean_linker_0, # of connection points: 2
#     Edge 19, Type (0, 1), BuildingBlock: ZUJKAS_clean_linker_0, # of connection points: 2
#     Edge 20, Type (0, 1), BuildingBlock: ZUJKAS_clean_linker_0, # of connection points: 2
#     Edge 21, Type (0, 1), BuildingBlock: ZUJKAS_clean_linker_0, # of connection points: 2
#     Edge 22, Type (0, 1), BuildingBlock: ZUJKAS_clean_linker_0, # of connection points: 2
#     Edge 23, Type (0, 1), BuildingBlock: ZUJKAS_clean_linker_0, # of connection points: 2
#     Edge 24, Type (0, 1), BuildingBlock: ZUJKAS_clean_linker_0, # of connection points: 2
#     Edge 25, Type (0, 1), BuildingBlock: ZUJKAS_clean_linker_0, # of connection points: 2
#     Edge 26, Type (0, 1), BuildingBlock: ZUJKAS_clean_linker_0, # of connection points: 2
#     Edge 27, Type (0, 1), BuildingBlock: ZUJKAS_clean_linker_0, # of connection points: 2
#     Edge 28, Type (0, 1), BuildingBlock: ZUJKAS_clean_linker_0, # of connection points: 2
#     Edge 29, Type (0, 1), BuildingBlock: ZUJKAS_clean_linker_0, # of connection points: 2
#     Edge 30, Type (0, 1), BuildingBlock: ZUJKAS_clean_linker_0, # of connection points: 2
#     Edge 31, Type (0, 1), BuildingBlock: ZUJKAS_clean_linker_0, # of connection points: 2
#     Edge 32, Type (0, 1), BuildingBlock: ZUJKAS_clean_linker_0, # of connection points: 2
#     Edge 33, Type (0, 1), BuildingBlock: ZUJKAS_clean_linker_0, # of connection points: 2
#     Edge 34, Type (0, 1), BuildingBlock: ZUJKAS_clean_linker_0, # of connection points: 2
#     Edge 35, Type (0, 1), BuildingBlock: ZUJKAS_clean_linker_0, # of connection points: 2
# Relax obj value: 0.087
# Max RMSD: 0.154
# Mean RMSD: 0.135
data_MOF--net-pry--node1-OLANEW_clean_sbu_2--node2-VOLQOD_clean_sbu_1--edge1-ZUJKAS_clean_linker_0
_symmetry_space_group_name_H-M    P1
_symmetry_Int_Tables_number       1
_symmetry_cell_setting            triclinic
loop_
_symmetry_equiv_pos_as_xyz
'x, y, z'
_cell_length_a     49.925704
_cell_length_b     50.174638
_cell_length_c     49.573073
_cell_angle_alpha  94.070628
_cell_angle_beta   89.04595
_cell_angle_gamma 94.975119
loop_
_atom_site_label
_atom_site_type_symbol
_atom_site_fract_x
_atom_site_fract_y
_atom_site_fract_z
_atom_type_partial_charge
O0 O 0.16839 0.14826 0.1332 0.0
Cd1 Cd 0.12471 0.16377 0.14702 0.0
O2 O 0.17679 0.13784 0.17442 0.0
Cd3 Cd 0.13945 0.14883 0.19385 0.0
O4 O 0.11294 0.14177 0.22848 0.0
C5 C 0.10478 0.11744 0.23143 0.0
O6 O 0.11101 0.09903 0.21273 0.0
C7 C 0.18383 0.13903 0.14975 0.0
C8 C 0.11383 0.21119 0.12467 0.0
O9 O 0.12491 0.21166 0.14787 0.0
O10 O 0.10815 0.18831 0.11194 0.0
O11 O 0.42947 0.91346 0.69573 0.0
Cd12 Cd 0.41491 0.89945 0.64968 0.0
O13 O 0.39579 0.88874 0.71301 0.0
Cd14 Cd 0.37332 0.88406 0.67539 0.0
O15 O 0.34071 0.89575 0.6512 0.0
C16 C 0.32246 0.90681 0.66493 0.0
O17 O 0.32458 0.90949 0.6914 0.0
C18 C 0.41759 0.90367 0.71615 0.0
C19 C 0.43248 0.84917 0.63448 0.0
O20 O 0.44611 0.87068 0.62806 0.0
O21 O 0.41044 0.85144 0.64771 0.0
O22 O 0.66531 0.42406 0.93029 0.0
Cd23 Cd 0.61869 0.40712 0.921 0.0
O24 O 0.68169 0.39139 0.90496 0.0
Cd25 Cd 0.64346 0.36684 0.90258 0.0
O26 O 0.61952 0.3308 0.91391 0.0
C27 C 0.60194 0.33156 0.93273 0.0
O28 O 0.59665 0.35489 0.94438 0.0
C29 C 0.68537 0.41336 0.91936 0.0
C30 C 0.60197 0.42421 0.87203 0.0
O31 O 0.59905 0.43831 0.8943 0.0
O32 O 0.6126 0.40194 0.87294 0.0
O33 O 0.91572 0.66243 0.42171 0.0
Cd34 Cd 0.89657 0.61722 0.40737 0.0
O35 O 0.9438 0.64892 0.45057 0.0
Cd36 Cd 0.9233 0.60874 0.44725 0.0
O37 O 0.88494 0.58719 0.45689 0.0
C38 C 0.87318 0.59733 0.47761 0.0
O39 O 0.88545 0.61809 0.49135 0.0
C40 C 0.93479 0.66777 0.43849 0.0
C41 C 0.91425 0.60209 0.35534 0.0
O42 O 0.89218 0.61318 0.35919 0.0
O43 O 0.92782 0.59795 0.37614 0.0
O44 O 0.9312 0.9245 0.91753 0.0
Cd45 Cd 0.91314 0.91054 0.9609 0.0
O46 O 0.92615 0.96737 0.92629 0.0
Cd47 Cd 0.9042 0.96109 0.96401 0.0
O48 O 0.86604 0.96203 0.98594 0.0
C49 C 0.84567 0.9604 0.97069 0.0
O50 O 0.84946 0.9575 0.94438 0.0
C51 C 0.93399 0.94847 0.91049 0.0
C52 C 0.92868 0.85979 0.96952 0.0
O53 O 0.90712 0.86258 0.95672 0.0
O54 O 0.94271 0.88104 0.97861 0.0
O55 O 0.60874 0.08368 0.422 0.0
Cd56 Cd 0.62088 0.10048 0.46817 0.0
O57 O 0.56545 0.0816 0.43151 0.0
Cd58 Cd 0.57103 0.10466 0.47019 0.0
O59 O 0.56829 0.14559 0.48727 0.0
C60 C 0.56344 0.16159 0.46955 0.0
O61 O 0.56112 0.15216 0.4442 0.0
C62 C 0.58451 0.07742 0.41484 0.0
C63 C 0.67219 0.08882 0.4825 0.0
O64 O 0.65168 0.07208 0.48568 0.0
O65 O 0.66845 0.111 0.47238 0.0
O66 O 0.51091 0.65793 0.13367 0.0
Cd67 Cd 0.52088 0.6115 0.13745 0.0
O68 O 0.46873 0.64367 0.12756 0.0
Cd69 Cd 0.42538 0.64321 0.12138 0.0
O70 O 0.38298 0.63284 0.11221 0.0
C71 C 0.37057 0.64573 0.09591 0.0
O72 O 0.38341 0.66624 0.08481 0.0
C73 C 0.48695 0.6631 0.12931 0.0
C74 C 0.51825 0.59677 0.1907 0.0
O75 O 0.54026 0.60705 0.1806 0.0
O76 O 0.49745 0.59357 0.17562 0.0
O77 O 0.09856 0.5048 0.64387 0.0
Cd78 Cd 0.10665 0.50518 0.59522 0.0
O79 O 0.10232 0.46164 0.63989 0.0
Cd80 Cd 0.10495 0.42065 0.6514 0.0
O81 O 0.10217 0.37699 0.65124 0.0
C82 C 0.08135 0.36451 0.6609 0.0
O83 O 0.06233 0.37836 0.67194 0.0
C84 C 0.09856 0.48269 0.65486 0.0
C85 C 0.16089 0.49992 0.5841 0.0
O86 O 0.15208 0.52305 0.58895 0.0
O87 O 0.14392 0.47923 0.5841 0.0
O88 O 0.0039 0.07157 0.59489 0.0
Zn89 Zn 0.98642 0.03415 0.58749 0.0
O90 O 0.00855 0.01307 0.56257 0.0
Zn91 Zn 0.98815 0.00146 0.52984 0.0
Zn92 Zn 0.04163 0.03477 0.55318 0.0
Zn93 Zn 0.01788 0.98142 0.57982 0.0
O94 O 0.98546 0.96123 0.52269 0.0
O95 O 0.00466 0.94736 0.5586 0.0
O96 O 0.9495 0.03687 0.57221 0.0
O97 O 0.9506 0.0131 0.53275 0.0
O98 O 0.00566 0.01777 0.49735 0.0
O99 O 0.04303 0.04027 0.51322 0.0
O100 O 0.07501 0.01722 0.56276 0.0
O101 O 0.98197 0.01777 0.62352 0.0
O102 O 0.0578 0.9809 0.58205 0.0
O103 O 0.00315 0.98065 0.61775 0.0
C104 C 0.02636 0.08345 0.58818 0.0
C105 C 0.99268 0.94239 0.53611 0.0
C106 C 0.02728 0.03257 0.4937 0.0
C107 C 0.93817 0.02724 0.55037 0.0
C108 C 0.078 0.99585 0.57442 0.0
C109 C 0.98963 0.99654 0.63251 0.0
O110 O 0.04294 0.07157 0.57277 0.0
O111 O 0.49751 0.06676 0.03378 0.0
Zn112 Zn 0.48093 0.02942 0.03812 0.0
O113 O 0.50208 0.01073 0.06232 0.0
Zn114 Zn 0.51576 0.9798 0.04227 0.0
Zn115 Zn 0.53241 0.03514 0.07611 0.0
Zn116 Zn 0.47914 0.99843 0.09233 0.0
O117 O 0.50308 0.9458 0.05916 0.0
O118 O 0.47456 0.95774 0.09175 0.0
O119 O 0.4782 0.0104 0.00099 0.0
O120 O 0.50298 0.97609 0.0038 0.0
O121 O 0.55617 0.98253 0.04141 0.0
O122 O 0.56781 0.02094 0.06493 0.0
O123 O 0.53177 0.03868 0.11691 0.0
O124 O 0.44378 0.0332 0.05304 0.0
O125 O 0.49629 0.01158 0.12791 0.0
O126 O 0.44253 0.01303 0.09154 0.0
C127 C 0.51748 0.08103 0.0443 0.0
C128 C 0.4864 0.93974 0.07791 0.0
C129 C 0.57413 0.9999 0.05127 0.0
C130 C 0.48818 0.9896 0.9903 0.0
C131 C 0.51669 0.02758 0.13464 0.0
C132 C 0.43143 0.02628 0.07445 0.0
O133 O 0.53246 0.07177 0.06133 0.0
O134 O 0.54259 0.52273 0.60118 0.0
Zn135 Zn 0.54268 0.53722 0.56419 0.0
O136 O 0.51976 0.51348 0.53923 0.0
Zn137 Zn 0.54165 0.49768 0.51019 0.0
Zn138 Zn 0.50089 0.48496 0.55907 0.0
Zn139 Zn 0.49353 0.5341 0.5232 0.0
O140 O 0.53096 0.50799 0.47343 0.0
O141 O 0.49825 0.53449 0.48289 0.0
O142 O 0.58126 0.54011 0.55073 0.0
O143 O 0.58048 0.51099 0.5148 0.0
O144 O 0.53893 0.45737 0.51018 0.0
O145 O 0.50986 0.44864 0.54343 0.0
O146 O 0.46057 0.4862 0.5578 0.0
O147 O 0.52966 0.57446 0.5686 0.0
O148 O 0.45581 0.51906 0.53103 0.0
O149 O 0.4968 0.57228 0.53865 0.0
C150 C 0.52942 0.5031 0.61171 0.0
C151 C 0.51368 0.52308 0.46586 0.0
C152 C 0.52544 0.44073 0.52447 0.0
C153 C 0.59327 0.52798 0.53121 0.0
C154 C 0.44569 0.50056 0.54535 0.0
C155 C 0.51148 0.58538 0.55665 0.0
O156 O 0.51243 0.48748 0.59801 0.0
O157 O 0.99708 0.51872 0.07027 0.0
Zn158 Zn 0.00341 0.50268 0.03247 0.0
O159 O 0.02738 0.52705 0.01186 0.0
Zn160 Zn 0.0082 0.53767 0.98087 0.0
Zn161 Zn 0.03874 0.55911 0.03499 0.0
Zn162 Zn 0.05905 0.50907 0.999 0.0
O163 O 0.02679 0.52727 0.94592 0.0
O164 O 0.06064 0.50499 0.95809 0.0
O165 O 0.96714 0.49472 0.0146 0.0
O166 O 0.97094 0.51923 0.97896 0.0
O167 O 0.00444 0.57744 0.98306 0.0
O168 O 0.02572 0.5923 0.02082 0.0
O169 O 0.079 0.56462 0.0371 0.0
O170 O 0.01994 0.46777 0.03616 0.0
O171 O 0.09339 0.53016 0.01205 0.0
O172 O 0.05836 0.47222 0.013 0.0
C173 C 0.00694 0.53983 0.08361 0.0
C174 C 0.04679 0.51382 0.93983 0.0
C175 C 0.01235 0.59654 0.00014 0.0
C176 C 0.95729 0.50292 0.99344 0.0
C177 C 0.09809 0.55173 0.02703 0.0
C178 C 0.04173 0.45857 0.02748 0.0
O179 O 0.0237 0.55659 0.07278 0.0
H180 H 0.08623 0.06705 0.24412 0.0
H181 H 0.06946 0.05302 0.28791 0.0
H182 H 0.07759 0.13526 0.32056 0.0
H183 H 0.09415 0.14959 0.2767 0.0
H184 H 0.09911 0.06098 0.33524 0.0
H185 H 0.00243 0.10779 0.34694 0.0
H186 H 0.0195 0.10344 0.31472 0.0
H187 H 0.03077 0.13044 0.33872 0.0
C188 C 0.08405 0.08225 0.26046 0.0
C189 C 0.09161 0.10945 0.25694 0.0
C190 C 0.07449 0.07416 0.28548 0.0
C191 C 0.07213 0.0931 0.30741 0.0
C192 C 0.07884 0.12037 0.30377 0.0
H193 H 0.07182 0.06355 0.47766 0.0
H194 H 0.08246 0.07816 0.43241 0.0
C195 C 0.08841 0.1285 0.27871 0.0
C196 C 0.06472 0.08404 0.33452 0.0
H197 H 0.01861 0.08931 0.38584 0.0
C198 C 0.08145 0.06708 0.34627 0.0
C199 C 0.04158 0.09189 0.34873 0.0
C200 C 0.02236 0.1092 0.3366 0.0
C201 C 0.07586 0.05802 0.37205 0.0
C202 C 0.05314 0.06647 0.38658 0.0
C203 C 0.03616 0.08309 0.37469 0.0
C204 C 0.04653 0.05796 0.41405 0.0
C205 C 0.0941 0.0392 0.38337 0.0
C206 C 0.02257 0.04219 0.41877 0.0
C207 C 0.01638 0.03383 0.4446 0.0
C208 C 0.03399 0.04126 0.46626 0.0
C209 C 0.05788 0.05733 0.46145 0.0
C210 C 0.06405 0.06563 0.43559 0.0
H211 H 0.10663 0.02966 0.36732 0.0
H212 H 0.10781 0.05064 0.39827 0.0
H213 H 0.08228 0.0232 0.39391 0.0
H214 H 0.00877 0.03614 0.40239 0.0
H215 H 0.99776 0.02157 0.44756 0.0
H216 H 0.40164 0.88086 0.76284 0.0
H217 H 0.41595 0.89523 0.80884 0.0
H218 H 0.47068 0.95752 0.77815 0.0
H219 H 0.45697 0.94283 0.73191 0.0
H220 H 0.4929 0.93273 0.81853 0.0
H221 H 0.39176 0.9619 0.84965 0.0
H222 H 0.39148 0.92751 0.8369 0.0
H223 H 0.40071 0.95384 0.8148 0.0
C224 C 0.41685 0.89752 0.76583 0.0
C225 C 0.42798 0.91089 0.74373 0.0
C226 C 0.42488 0.9058 0.79216 0.0
C227 C 0.44386 0.92786 0.79695 0.0
C228 C 0.45582 0.94058 0.77489 0.0
H229 H 0.46463 0.01728 0.95281 0.0
H230 H 0.45554 0.00304 0.90545 0.0
C231 C 0.44797 0.93215 0.74849 0.0
C232 C 0.45086 0.93794 0.82498 0.0
H233 H 0.42357 0.96131 0.88471 0.0
C234 C 0.47779 0.93909 0.833 0.0
C235 C 0.43118 0.94672 0.84365 0.0
C236 C 0.40222 0.94772 0.83578 0.0
C237 C 0.48549 0.94825 0.85939 0.0
C238 C 0.46559 0.95585 0.8784 0.0
C239 C 0.43876 0.9552 0.8702 0.0
C240 C 0.47206 0.96469 0.90689 0.0
C241 C 0.5149 0.95012 0.86648 0.0
C242 C 0.48415 0.94776 0.9235 0.0
C243 C 0.48957 0.95591 0.95054 0.0
C244 C 0.4826 0.98101 0.9616 0.0
C245 C 0.47022 0.99781 0.94497 0.0
C246 C 0.46503 0.98972 0.91788 0.0
H247 H 0.52795 0.95137 0.84816 0.0
H248 H 0.52038 0.96789 0.88057 0.0
H249 H 0.51919 0.93188 0.87647 0.0
H250 H 0.48908 0.92806 0.91566 0.0
H251 H 0.49891 0.94238 0.96284 0.0
H252 H 0.60471 0.39831 0.82175 0.0
H253 H 0.59156 0.41399 0.77871 0.0
H254 H 0.56747 0.48673 0.82009 0.0
H255 H 0.58021 0.47106 0.86335 0.0
H256 H 0.53017 0.46379 0.7824 0.0
H257 H 0.63276 0.47256 0.73748 0.0
H258 H 0.62295 0.44006 0.7492 0.0
H259 H 0.62671 0.46881 0.77307 0.0
C260 C 0.59664 0.41766 0.82173 0.0
C261 C 0.59363 0.4335 0.84598 0.0
C262 C 0.58928 0.42666 0.79708 0.0
C263 C 0.57898 0.45172 0.79615 0.0
C264 C 0.57553 0.46739 0.82035 0.0
H265 H 0.56399 0.53192 0.64748 0.0
H266 H 0.57471 0.52118 0.69321 0.0
C267 C 0.58285 0.4584 0.84504 0.0
C268 C 0.57148 0.46142 0.76997 0.0
H269 H 0.59649 0.47599 0.70771 0.0
C270 C 0.54468 0.46661 0.7661 0.0
C271 C 0.59053 0.46549 0.7489 0.0
C272 C 0.61991 0.46171 0.75238 0.0
C273 C 0.53627 0.47508 0.74144 0.0
C274 C 0.55509 0.47802 0.71998 0.0
C275 C 0.58203 0.4735 0.7241 0.0
C276 C 0.54727 0.48534 0.69291 0.0
C277 C 0.50737 0.48104 0.73869 0.0
C278 C 0.52828 0.46875 0.67755 0.0
C279 C 0.52202 0.47485 0.65144 0.0
C280 C 0.53483 0.49757 0.64003 0.0
C281 C 0.5537 0.51429 0.6556 0.0
C282 C 0.55989 0.50817 0.68174 0.0
H283 H 0.49778 0.48533 0.75874 0.0
H284 H 0.50581 0.49843 0.72631 0.0
H285 H 0.49587 0.46332 0.72853 0.0
H286 H 0.51872 0.4507 0.68553 0.0
H287 H 0.50753 0.46143 0.64001 0.0
H288 H 0.96268 0.5837 0.3404 0.0
H289 H 0.97927 0.573 0.29454 0.0
H290 H 0.90429 0.59228 0.262 0.0
H291 H 0.88778 0.60364 0.30771 0.0
H292 H 0.96048 0.53577 0.25534 0.0
H293 H 0.95867 0.63787 0.21978 0.0
H294 H 0.95488 0.63118 0.25499 0.0
H295 H 0.92673 0.62477 0.23256 0.0
C296 C 0.94972 0.58571 0.32348 0.0
C297 C 0.92398 0.59472 0.32768 0.0
C298 C 0.95924 0.57956 0.2973 0.0
C299 C 0.94321 0.58231 0.27483 0.0
C300 C 0.91726 0.59067 0.279 0.0
H301 H 0.96638 0.51309 0.11142 0.0
H302 H 0.95165 0.52294 0.15802 0.0
C303 C 0.90779 0.59699 0.30516 0.0
C304 C 0.95357 0.57616 0.24708 0.0
H305 H 0.96592 0.60288 0.1862 0.0
C306 C 0.96179 0.55046 0.24024 0.0
C307 C 0.95567 0.5955 0.22754 0.0
C308 C 0.94878 0.62396 0.23411 0.0
C309 C 0.9716 0.54341 0.21423 0.0
C310 C 0.97263 0.56241 0.19437 0.0
C311 C 0.96486 0.58825 0.20136 0.0
C312 C 0.98185 0.55603 0.16623 0.0
C313 C 0.98121 0.51586 0.20846 0.0
C314 C 0.00329 0.57178 0.1551 0.0
C315 C 0.01154 0.56644 0.12834 0.0
C316 C 0.9985 0.5452 0.11214 0.0
C317 C 0.97703 0.52944 0.12337 0.0
C318 C 0.96867 0.53494 0.15009 0.0
H319 H 0.9865 0.50694 0.22735 0.0
H320 H 0.96489 0.50243 0.19853 0.0
H321 H 0.99904 0.5165 0.19476 0.0
H322 H 0.01367 0.58824 0.16716 0.0
H323 H 0.02814 0.57898 0.12036 0.0
H324 H 0.20616 0.1379 0.09863 0.0
H325 H 0.24737 0.11776 0.08338 0.0
H326 H 0.26038 0.09594 0.16439 0.0
H327 H 0.2195 0.11584 0.17982 0.0
H328 H 0.30195 0.12986 0.10446 0.0
H329 H 0.26159 0.02456 0.11606 0.0
H330 H 0.24017 0.05158 0.11415 0.0
H331 H 0.25705 0.04736 0.14508 0.0
C332 C 0.21784 0.1289 0.11321 0.0
C333 C 0.20942 0.12837 0.14041 0.0
C334 C 0.24134 0.11739 0.10446 0.0
C335 C 0.25659 0.10499 0.1227 0.0
C336 C 0.24859 0.10499 0.14992 0.0
H337 H 0.40171 0.02323 0.12136 0.0
H338 H 0.35882 0.04208 0.13175 0.0
C339 C 0.22527 0.11653 0.1587 0.0
C340 C 0.28107 0.09219 0.11355 0.0
H341 H 0.30861 0.03206 0.10819 0.0
C342 C 0.3034 0.10846 0.10499 0.0
C343 C 0.28281 0.06429 0.11446 0.0
C344 C 0.25908 0.04582 0.12271 0.0
C345 C 0.32781 0.09765 0.09807 0.0
C346 C 0.32965 0.06973 0.09917 0.0
C347 C 0.30715 0.05344 0.10739 0.0
C348 C 0.3549 0.05715 0.0923 0.0
C349 C 0.35166 0.11636 0.09057 0.0
C350 C 0.36649 0.0587 0.06644 0.0
C351 C 0.39102 0.04806 0.06047 0.0
C352 C 0.40431 0.03538 0.08017 0.0
C353 C 0.39206 0.03288 0.10573 0.0
C354 C 0.36757 0.04367 0.11172 0.0
H355 H 0.34896 0.13752 0.09751 0.0
H356 H 0.37044 0.11059 0.09938 0.0
H357 H 0.35408 0.11529 0.06824 0.0
H358 H 0.3567 0.06839 0.05094 0.0
H359 H 0.39971 0.05011 0.04048 0.0
H360 H 0.31339 0.90816 0.61057 0.0
H361 H 0.27548 0.92617 0.58923 0.0
H362 H 0.24161 0.94607 0.66794 0.0
H363 H 0.27942 0.92867 0.68934 0.0
H364 H 0.22178 0.91052 0.59232 0.0
H365 H 0.24029 0.01613 0.63216 0.0
H366 H 0.26523 0.99226 0.63347 0.0
H367 H 0.23891 0.99353 0.6587 0.0
C368 C 0.29792 0.91649 0.62331 0.0
C369 C 0.2995 0.91713 0.65166 0.0
C370 C 0.27631 0.92679 0.61109 0.0
C371 C 0.25604 0.93799 0.62702 0.0
C372 C 0.2574 0.93823 0.65527 0.0
H373 H 0.09128 0.95291 0.60066 0.0
H374 H 0.13594 0.93982 0.60937 0.0
C375 C 0.27896 0.92805 0.66747 0.0
C376 C 0.23272 0.94836 0.61434 0.0
H377 H 0.19542 0.00237 0.61648 0.0
C378 C 0.21623 0.93073 0.59724 0.0
C379 C 0.22577 0.97491 0.62031 0.0
C380 C 0.24366 0.99538 0.63693 0.0
C381 C 0.19213 0.93846 0.58728 0.0
C382 C 0.18411 0.96429 0.59508 0.0
C383 C 0.20139 0.98244 0.61082 0.0
C384 C 0.15708 0.97215 0.58883 0.0
C385 C 0.17535 0.91874 0.56877 0.0
C386 C 0.15408 0.99521 0.57507 0.0
C387 C 0.12842 0.003 0.57025 0.0
C388 C 0.10534 0.98791 0.57928 0.0
C389 C 0.10854 0.96493 0.59321 0.0
C390 C 0.1341 0.95725 0.59804 0.0
H391 H 0.18794 0.90426 0.5577 0.0
H392 H 0.16031 0.90711 0.58102 0.0
H393 H 0.16448 0.92913 0.55382 0.0
H394 H 0.1716 0.00715 0.56804 0.0
H395 H 0.1267 0.02081 0.55951 0.0
H396 H 0.70176 0.45367 0.95717 0.0
H397 H 0.74792 0.47015 0.96884 0.0
H398 H 0.77779 0.41684 0.90541 0.0
H399 H 0.73177 0.39973 0.89409 0.0
H400 H 0.80293 0.41325 0.95226 0.0
H401 H 0.80173 0.52026 0.93158 0.0
H402 H 0.77566 0.50929 0.95463 0.0
H403 H 0.77551 0.49513 0.92024 0.0
C404 C 0.71813 0.44572 0.94545 0.0
C405 C 0.71308 0.42537 0.9247 0.0
C406 C 0.74453 0.45526 0.95207 0.0
C407 C 0.76631 0.44496 0.93779 0.0
C408 C 0.76128 0.42509 0.91668 0.0
H409 H 0.93258 0.51002 0.94603 0.0
H410 H 0.8865 0.49524 0.93291 0.0
C411 C 0.73495 0.41538 0.9102 0.0
C412 C 0.79438 0.45366 0.94581 0.0
H413 H 0.83949 0.50852 0.95551 0.0
C414 C 0.81097 0.43408 0.95285 0.0
C415 C 0.80492 0.48079 0.94632 0.0
C416 C 0.78863 0.50255 0.93753 0.0
C417 C 0.83774 0.44087 0.96059 0.0
C418 C 0.84799 0.46811 0.96199 0.0
C419 C 0.83149 0.48768 0.95471 0.0
C420 C 0.87604 0.47669 0.97018 0.0
C421 C 0.85491 0.41872 0.96656 0.0
C422 C 0.88545 0.47131 0.9956 0.0
C423 C 0.91194 0.47952 0.00311 0.0
C424 C 0.92937 0.49362 0.98547 0.0
C425 C 0.91973 0.49922 0.96014 0.0
C426 C 0.89336 0.49082 0.95259 0.0
H427 H 0.84656 0.39896 0.95736 0.0
H428 H 0.87579 0.42281 0.95894 0.0
H429 H 0.85562 0.41727 0.98876 0.0
H430 H 0.87225 0.46098 0.00976 0.0
H431 H 0.91863 0.47512 0.02286 0.0
H432 H 0.83998 0.55786 0.4511 0.0
H433 H 0.79277 0.54469 0.46177 0.0
H434 H 0.79651 0.60139 0.53144 0.0
H435 H 0.84346 0.61486 0.52089 0.0
H436 H 0.76818 0.52483 0.50988 0.0
H437 H 0.7336 0.62307 0.48725 0.0
H438 H 0.76618 0.61285 0.47676 0.0
H439 H 0.76048 0.62513 0.51114 0.0
C440 C 0.8308 0.56741 0.46879 0.0
C441 C 0.8454 0.58758 0.485 0.0
C442 C 0.80385 0.55986 0.47484 0.0
C443 C 0.79109 0.57243 0.4971 0.0
C444 C 0.80588 0.59184 0.51386 0.0
H445 H 0.62771 0.56381 0.56093 0.0
H446 H 0.67609 0.57353 0.55362 0.0
C447 C 0.83275 0.59941 0.50784 0.0
C448 C 0.76217 0.56566 0.5026 0.0
H449 H 0.7015 0.59234 0.50671 0.0
C450 C 0.75355 0.53952 0.50911 0.0
C451 C 0.74321 0.58493 0.50158 0.0
C452 C 0.75121 0.61302 0.49357 0.0
C453 C 0.72643 0.53224 0.51511 0.0
C454 C 0.70748 0.55153 0.51411 0.0
C455 C 0.71613 0.57766 0.5076 0.0
C456 C 0.67843 0.5449 0.51909 0.0
C457 C 0.71836 0.50413 0.52295 0.0
C458 C 0.66374 0.52578 0.50193 0.0
C459 C 0.63615 0.52019 0.506 0.0
C460 C 0.62264 0.53375 0.52726 0.0
C461 C 0.63745 0.55296 0.54441 0.0
C462 C 0.66509 0.55855 0.54028 0.0
H463 H 0.73589 0.49419 0.52968 0.0
H464 H 0.70299 0.50417 0.5394 0.0
H465 H 0.70957 0.49199 0.50516 0.0
H466 H 0.67356 0.51544 0.48511 0.0
H467 H 0.6254 0.50536 0.49232 0.0
H468 H 0.09577 0.21729 0.07387 0.0
H469 H 0.08458 0.25868 0.05509 0.0
H470 H 0.10502 0.30292 0.1308 0.0
H471 H 0.11695 0.26179 0.14946 0.0
H472 H 0.04684 0.29172 0.07065 0.0
H473 H 0.14719 0.34796 0.07799 0.0
H474 H 0.14212 0.31249 0.08245 0.0
H475 H 0.13531 0.33653 0.10987 0.0
C476 C 0.09809 0.23587 0.08646 0.0
C477 C 0.10742 0.23628 0.11311 0.0
C478 C 0.09165 0.2595 0.0757 0.0
C479 C 0.09438 0.284 0.09137 0.0
C480 C 0.10342 0.28441 0.11808 0.0
H481 H 0.01639 0.42754 0.06512 0.0
H482 H 0.02879 0.38466 0.07925 0.0
C483 C 0.11008 0.26083 0.12878 0.0
C484 C 0.08691 0.30894 0.08007 0.0
H485 H 0.11033 0.37332 0.06932 0.0
C486 C 0.06078 0.30951 0.07018 0.0
C487 C 0.10523 0.33202 0.07905 0.0
C488 C 0.1341 0.3322 0.08764 0.0
C489 C 0.05228 0.3327 0.05988 0.0
C490 C 0.07019 0.35619 0.06011 0.0
C491 C 0.0965 0.35541 0.06941 0.0
C492 C 0.06209 0.38184 0.05094 0.0
C493 C 0.02433 0.33164 0.0485 0.0
C494 C 0.07704 0.39489 0.03076 0.0
C495 C 0.07025 0.41964 0.0229 0.0
C496 C 0.0483 0.43184 0.03505 0.0
C497 C 0.03324 0.41861 0.05514 0.0
C498 C 0.04021 0.39398 0.06314 0.0
H499 H 0.01657 0.31076 0.04211 0.0
H500 H 0.01051 0.33945 0.06434 0.0
H501 H 0.02387 0.34406 0.03087 0.0
H502 H 0.09408 0.38596 0.02114 0.0
H503 H 0.08229 0.42924 0.00737 0.0
H504 H 0.56122 0.3253 0.9701 0.0
H505 H 0.54384 0.28381 0.98986 0.0
H506 H 0.59869 0.23959 0.93988 0.0
H507 H 0.61555 0.28069 0.91948 0.0
H508 H 0.55006 0.21299 0.94146 0.0
H509 H 0.58203 0.24696 0.04587 0.0
H510 H 0.55973 0.26829 0.03167 0.0
H511 H 0.5926 0.26525 0.01696 0.0
C512 C 0.56946 0.30671 0.96321 0.0
C513 C 0.58989 0.30634 0.94334 0.0
C514 C 0.55966 0.28305 0.97469 0.0
C515 C 0.57041 0.2587 0.96681 0.0
C516 C 0.59021 0.25818 0.9464 0.0
H517 H 0.56461 0.11297 0.05093 0.0
H518 H 0.57628 0.15657 0.03261 0.0
C519 C 0.59982 0.28172 0.93474 0.0
C520 C 0.5612 0.23366 0.9797 0.0
H521 H 0.55634 0.20499 0.04028 0.0
C522 C 0.5514 0.21125 0.96307 0.0
C523 C 0.56337 0.2313 0.00787 0.0
C524 C 0.57524 0.25413 0.02663 0.0
C525 C 0.54375 0.18654 0.97376 0.0
C526 C 0.54519 0.18438 0.00202 0.0
C527 C 0.55499 0.20677 0.01867 0.0
C528 C 0.53744 0.15878 0.01452 0.0
C529 C 0.53505 0.1628 0.95452 0.0
C530 C 0.51151 0.14592 0.0111 0.0
C531 C 0.50489 0.12091 0.02125 0.0
C532 C 0.52394 0.10846 0.03549 0.0
C533 C 0.5495 0.12198 0.04003 0.0
C534 C 0.5562 0.14689 0.02956 0.0
H535 H 0.54227 0.16585 0.93354 0.0
H536 H 0.54265 0.14412 0.96096 0.0
H537 H 0.51277 0.16004 0.95417 0.0
H538 H 0.49646 0.15507 0.00025 0.0
H539 H 0.48489 0.11121 0.01773 0.0
H540 H 0.97174 0.68681 0.47691 0.0
H541 H 0.98429 0.73367 0.4919 0.0
H542 H 0.93297 0.75946 0.4315 0.0
H543 H 0.92036 0.71271 0.41621 0.0
H544 H 0.98557 0.78954 0.43757 0.0
H545 H 0.92932 0.77914 0.5346 0.0
H546 H 0.95331 0.75494 0.52664 0.0
H547 H 0.9242 0.75512 0.50589 0.0
C548 C 0.96335 0.70243 0.46658 0.0
C549 C 0.94484 0.696 0.44552 0.0
C550 C 0.97045 0.72917 0.47526 0.0
C551 C 0.95919 0.74991 0.46306 0.0
C552 C 0.94174 0.74367 0.44124 0.0
H553 H 0.96535 0.92334 0.49021 0.0
H554 H 0.95787 0.87676 0.47198 0.0
C555 C 0.93455 0.71694 0.43257 0.0
C556 C 0.96466 0.77807 0.47381 0.0
H557 H 0.95392 0.8207 0.5289 0.0
C558 C 0.97868 0.79643 0.45752 0.0
C559 C 0.95555 0.78687 0.49982 0.0
C560 C 0.93956 0.76811 0.51775 0.0
C561 C 0.98425 0.82342 0.46677 0.0
C562 C 0.97499 0.83227 0.49274 0.0
C563 C 0.961 0.81384 0.50901 0.0
C564 C 0.97963 0.86055 0.50357 0.0
C565 C 0.00045 0.84206 0.44889 0.0
C566 C 0.99364 0.86679 0.5278 0.0
C567 C 0.9977 0.89333 0.53845 0.0
C568 C 0.98774 0.91418 0.52509 0.0
C569 C 0.97344 0.90781 0.50093 0.0
C570 C 0.96932 0.88122 0.49036 0.0
H571 H 0.01205 0.83084 0.43323 0.0
H572 H 0.98662 0.85394 0.43838 0.0
H573 H 0.01466 0.85622 0.46098 0.0
H574 H 0.0016 0.8511 0.5384 0.0
H575 H 0.0088 0.89747 0.55708 0.0
H576 H 0.41511 0.8016 0.65499 0.0
H577 H 0.43113 0.75755 0.64335 0.0
H578 H 0.48644 0.79206 0.58495 0.0
H579 H 0.47126 0.8364 0.59733 0.0
H580 H 0.42862 0.72787 0.59799 0.0
H581 H 0.53596 0.75011 0.62406 0.0
H582 H 0.51098 0.77306 0.63348 0.0
H583 H 0.52545 0.77195 0.59993 0.0
C584 C 0.43081 0.79984 0.63979 0.0
C585 C 0.44202 0.82248 0.62716 0.0
C586 C 0.43997 0.77464 0.63316 0.0
C587 C 0.46036 0.77151 0.61362 0.0
C588 C 0.47129 0.79406 0.60067 0.0
H589 H 0.48535 0.61906 0.52751 0.0
H590 H 0.47416 0.66444 0.54136 0.0
C591 C 0.46242 0.81936 0.6076 0.0
C592 C 0.4692 0.74444 0.606 0.0
H593 H 0.52447 0.70885 0.59805 0.0
C594 C 0.44958 0.72371 0.59818 0.0
C595 C 0.4965 0.73883 0.60667 0.0
C596 C 0.51838 0.7596 0.61677 0.0
C597 C 0.45647 0.69769 0.59062 0.0
C598 C 0.48389 0.69243 0.58989 0.0
C599 C 0.5035 0.713 0.59821 0.0
C600 C 0.49252 0.66565 0.58073 0.0
C601 C 0.43416 0.67602 0.58406 0.0
C602 C 0.50787 0.65176 0.59764 0.0
C603 C 0.51483 0.62595 0.58952 0.0
C604 C 0.50637 0.61354 0.56442 0.0
C605 C 0.49181 0.62789 0.54716 0.0
C606 C 0.48523 0.65379 0.55512 0.0
H607 H 0.41482 0.68112 0.59367 0.0
H608 H 0.43117 0.67385 0.56186 0.0
H609 H 0.43906 0.65642 0.59087 0.0
H610 H 0.51392 0.66062 0.61741 0.0
H611 H 0.52608 0.61543 0.60325 0.0
H612 H 0.9548 0.91353 0.87242 0.0
H613 H 0.96751 0.92178 0.8257 0.0
H614 H 0.94806 0.00377 0.83947 0.0
H615 H 0.93591 0.99592 0.8863 0.0
H616 H 0.93419 0.93601 0.78748 0.0
H617 H 0.01999 0.01333 0.80127 0.0
H618 H 0.00708 0.99341 0.8283 0.0
H619 H 0.9905 0.02211 0.81982 0.0
C620 C 0.95366 0.93345 0.86566 0.0
C621 C 0.94435 0.95407 0.88312 0.0
C622 C 0.96089 0.93811 0.83893 0.0
C623 C 0.95902 0.96346 0.82919 0.0
C624 C 0.95026 0.98422 0.84671 0.0
H625 H 0.96701 0.0286 0.6721 0.0
H626 H 0.95935 0.01972 0.71964 0.0
C627 C 0.94318 0.97964 0.87347 0.0
C628 C 0.96423 0.96764 0.80021 0.0
H629 H 0.00067 0.00735 0.75723 0.0
C630 C 0.94892 0.95143 0.78085 0.0
C631 C 0.98339 0.98784 0.79162 0.0
C632 C 0.00137 0.00499 0.81132 0.0
C633 C 0.95182 0.95526 0.75316 0.0
C634 C 0.97067 0.97569 0.74465 0.0
C635 C 0.98613 0.99179 0.76392 0.0
C636 C 0.9747 0.98062 0.71576 0.0
C637 C 0.93431 0.93786 0.73324 0.0
C638 C 0.98589 0.96154 0.69795 0.0
C639 C 0.99035 0.96653 0.67081 0.0
C640 C 0.9837 0.99073 0.66099 0.0
C641 C 0.97227 0.00971 0.67893 0.0
C642 C 0.96795 0.00474 0.70611 0.0
H643 H 0.91715 0.92684 0.74337 0.0
H644 H 0.92632 0.95013 0.71792 0.0
H645 H 0.94651 0.92291 0.72245 0.0
H646 H 0.99151 0.94293 0.70515 0.0
H647 H 0.99925 0.95149 0.6576 0.0
H648 H 0.61982 0.06684 0.37322 0.0
H649 H 0.60908 0.05639 0.32536 0.0
H650 H 0.52453 0.05622 0.34442 0.0
H651 H 0.53491 0.06656 0.39218 0.0
H652 H 0.57149 0.01191 0.29886 0.0
H653 H 0.54307 0.11543 0.28821 0.0
H654 H 0.56367 0.10711 0.3155 0.0
H655 H 0.52804 0.09846 0.31621 0.0
C656 C 0.59893 0.06422 0.3673 0.0
C657 C 0.57824 0.06775 0.38652 0.0
C658 C 0.59285 0.05826 0.33997 0.0
C659 C 0.56606 0.05593 0.33144 0.0
C660 C 0.54535 0.05827 0.35065 0.0
H661 H 0.49305 0.00302 0.17768 0.0
H662 H 0.5059 0.00968 0.2252 0.0
C663 C 0.55135 0.06408 0.37795 0.0
C664 C 0.5597 0.05226 0.30234 0.0
H665 H 0.53511 0.08411 0.25065 0.0
C666 C 0.56359 0.02766 0.28824 0.0
C667 C 0.54969 0.07302 0.28862 0.0
C668 C 0.54601 0.10011 0.30276 0.0
C669 C 0.55716 0.02307 0.26073 0.0
C670 C 0.54647 0.04359 0.24719 0.0
C671 C 0.54313 0.06838 0.26119 0.0
C672 C 0.5386 0.03973 0.21846 0.0
C673 C 0.56204 0.99642 0.24627 0.0
C674 C 0.55234 0.05493 0.19908 0.0
C675 C 0.54506 0.05123 0.17188 0.0
C676 C 0.52369 0.03242 0.16363 0.0
C677 C 0.50962 0.01764 0.18327 0.0
C678 C 0.51703 0.02126 0.21043 0.0
H679 H 0.57564 0.98511 0.25779 0.0
H680 H 0.54258 0.98409 0.24369 0.0
H681 H 0.57088 0.99924 0.22586 0.0
H682 H 0.56893 0.06943 0.20497 0.0
H683 H 0.55628 0.06301 0.15733 0.0
H684 H 0.47487 0.57368 0.2175 0.0
H685 H 0.47287 0.56049 0.26414 0.0
H686 H 0.55661 0.58794 0.2741 0.0
H687 H 0.55877 0.60143 0.22762 0.0
H688 H 0.5034 0.52397 0.2884 0.0
H689 H 0.51924 0.62661 0.33837 0.0
H690 H 0.51013 0.62042 0.30325 0.0
H691 H 0.54429 0.6186 0.31336 0.0
C692 C 0.49285 0.57701 0.22963 0.0
C693 C 0.51695 0.58874 0.21889 0.0
C694 C 0.49167 0.5694 0.25625 0.0
C695 C 0.51449 0.57355 0.27264 0.0
C696 C 0.53864 0.585 0.26192 0.0
H697 H 0.54462 0.50426 0.42361 0.0
H698 H 0.54372 0.51541 0.37643 0.0
C699 C 0.53986 0.59259 0.23531 0.0
C700 C 0.51312 0.56562 0.30088 0.0
H701 H 0.52064 0.5904 0.36648 0.0
C702 C 0.50708 0.53847 0.30551 0.0
C703 C 0.51762 0.58466 0.32312 0.0
C704 C 0.52294 0.61424 0.3194 0.0
C705 C 0.50588 0.52976 0.33184 0.0
C706 C 0.5112 0.54869 0.35403 0.0
C707 C 0.51678 0.5759 0.3494 0.0
C708 C 0.51094 0.54082 0.38229 0.0
C709 C 0.49859 0.50046 0.33572 0.0
C710 C 0.49301 0.55165 0.40128 0.0
C711 C 0.49354 0.54544 0.42829 0.0
C712 C 0.51216 0.52839 0.43689 0.0
C713 C 0.52994 0.51735 0.4177 0.0
C714 C 0.52937 0.52359 0.39067 0.0
H715 H 0.48852 0.48997 0.31764 0.0
H716 H 0.51718 0.49062 0.3392 0.0
H717 H 0.48512 0.49791 0.35357 0.0
H718 H 0.47869 0.56507 0.39523 0.0
H719 H 0.47957 0.55434 0.44247 0.0
H720 H 0.10993 0.52384 0.69255 0.0
H721 H 0.1031 0.52416 0.74141 0.0
H722 H 0.07216 0.44104 0.73336 0.0
H723 H 0.07762 0.44101 0.68424 0.0
H724 H 0.04096 0.47036 0.76599 0.0
H725 H 0.14669 0.49306 0.79732 0.0
H726 H 0.13652 0.51719 0.77541 0.0
H727 H 0.13752 0.4827 0.76285 0.0
C728 C 0.10182 0.50555 0.70117 0.0
C729 C 0.095 0.48216 0.68453 0.0
C730 C 0.09821 0.50569 0.72916 0.0
C731 C 0.08787 0.48241 0.74115 0.0
C732 C 0.08068 0.45909 0.72458 0.0
H733 H 0.08327 0.48016 0.91812 0.0
H734 H 0.09306 0.46958 0.87017 0.0
C735 C 0.08417 0.45898 0.6965 0.0
C736 C 0.08305 0.48307 0.77079 0.0
H737 H 0.11303 0.50146 0.83148 0.0
C738 C 0.0568 0.47681 0.78033 0.0
C739 C 0.10379 0.49101 0.78956 0.0
C740 C 0.13276 0.49608 0.78078 0.0
C741 C 0.05047 0.47949 0.80802 0.0
C742 C 0.07083 0.48933 0.82659 0.0
C743 C 0.09734 0.49434 0.81719 0.0
C744 C 0.06484 0.49553 0.85566 0.0
C745 C 0.02202 0.47179 0.81707 0.0
C746 C 0.04613 0.51402 0.86342 0.0
C747 C 0.0404 0.52001 0.89072 0.0
C748 C 0.05355 0.5079 0.91091 0.0
C749 C 0.07276 0.48983 0.90311 0.0
C750 C 0.07836 0.48372 0.87571 0.0
H751 H 0.01155 0.45687 0.80232 0.0
H752 H 0.02153 0.46329 0.83717 0.0
H753 H 0.01062 0.48987 0.81857 0.0
H754 H 0.03603 0.52398 0.84832 0.0
H755 H 0.0257 0.53422 0.89596 0.0
H756 H 0.83046 0.96853 0.02393 0.0
H757 H 0.78522 0.97533 0.04168 0.0
H758 H 0.75408 0.96544 0.96065 0.0
H759 H 0.799 0.95884 0.94274 0.0
H760 H 0.73895 0.01166 0.99146 0.0
H761 H 0.7197 0.91884 0.0464 0.0
H762 H 0.75059 0.93894 0.05408 0.0
H763 H 0.74578 0.92257 0.02093 0.0
C764 C 0.81393 0.9676 0.00993 0.0
C765 C 0.81833 0.96315 0.98192 0.0
C766 C 0.78811 0.97139 0.02011 0.0
C767 C 0.76633 0.97069 0.00246 0.0
C768 C 0.77065 0.96603 0.97458 0.0
H769 H 0.59517 0.95757 0.02304 0.0
H770 H 0.64249 0.95153 0.01348 0.0
C771 C 0.79635 0.96221 0.96441 0.0
C772 C 0.73909 0.97571 0.01268 0.0
H773 H 0.68604 0.94922 0.04933 0.0
C774 C 0.7274 0.99813 0.00426 0.0
C775 C 0.72411 0.95787 0.02919 0.0
C776 C 0.7355 0.93306 0.03809 0.0
C777 C 0.70094 0.00304 0.01162 0.0
C778 C 0.68594 0.9852 0.02814 0.0
C779 C 0.69771 0.96293 0.03682 0.0
C780 C 0.65747 0.98854 0.03528 0.0
C781 C 0.68895 0.02674 0.0009 0.0
C782 C 0.65029 0.01118 0.05108 0.0
C783 C 0.62322 0.01478 0.05654 0.0
C784 C 0.60287 0.99571 0.04637 0.0
C785 C 0.61027 0.97273 0.0311 0.0
C786 C 0.63731 0.96917 0.02566 0.0
H787 H 0.70113 0.03512 0.98404 0.0
H788 H 0.66817 0.02102 0.99368 0.0
H789 H 0.688 0.04279 0.0174 0.0
H790 H 0.66561 0.02615 0.05902 0.0
H791 H 0.61828 0.03262 0.06852 0.0
H792 H 0.68749 0.04165 0.49922 0.0
H793 H 0.73244 0.03176 0.51209 0.0
H794 H 0.76318 0.11247 0.49719 0.0
H795 H 0.71843 0.12232 0.48362 0.0
H796 H 0.79528 0.07618 0.47529 0.0
H797 H 0.77166 0.05484 0.58163 0.0
H798 H 0.75068 0.03448 0.55781 0.0
H799 H 0.74881 0.07023 0.56091 0.0
C800 C 0.70379 0.05734 0.49877 0.0
C801 C 0.69936 0.08281 0.49047 0.0
C802 C 0.72945 0.0517 0.50634 0.0
C803 C 0.75108 0.07153 0.50612 0.0
C804 C 0.74675 0.09691 0.49767 0.0
H805 H 0.90746 0.06248 0.57895 0.0
H806 H 0.86225 0.07364 0.56827 0.0
C807 C 0.72115 0.10251 0.48992 0.0
C808 C 0.77845 0.06556 0.51375 0.0
H809 H 0.81428 0.04311 0.56438 0.0
C810 C 0.79946 0.06908 0.49482 0.0
C811 C 0.78397 0.05668 0.53939 0.0
C812 C 0.76265 0.05409 0.56121 0.0
C813 C 0.82573 0.06349 0.50063 0.0
C814 C 0.831 0.05347 0.52581 0.0
C815 C 0.81013 0.05047 0.54496 0.0
C816 C 0.85809 0.04611 0.53266 0.0
C817 C 0.84765 0.06881 0.47986 0.0
C818 C 0.87052 0.02652 0.51653 0.0
C819 C 0.8964 0.02023 0.52245 0.0
C820 C 0.91026 0.03315 0.54487 0.0
C821 C 0.8974 0.05218 0.5615 0.0
C822 C 0.87156 0.05859 0.55544 0.0
H823 H 0.8421 0.08347 0.46558 0.0
H824 H 0.86686 0.0766 0.48967 0.0
H825 H 0.85095 0.04982 0.4679 0.0
H826 H 0.86023 0.01612 0.49928 0.0
H827 H 0.90554 0.00526 0.50937 0.0
H828 H 0.33741 0.66979 0.06345 0.0
H829 H 0.29077 0.65508 0.05165 0.0
H830 H 0.29336 0.58725 0.10003 0.0
H831 H 0.33971 0.60201 0.11233 0.0
H832 H 0.27003 0.60781 0.02533 0.0
H833 H 0.22574 0.61991 0.1283 0.0
H834 H 0.25909 0.63404 0.12003 0.0
H835 H 0.25331 0.59914 0.12639 0.0
C836 C 0.328 0.65183 0.07172 0.0
C837 C 0.34224 0.63717 0.08897 0.0
C838 C 0.30137 0.64344 0.06491 0.0
C839 C 0.28848 0.62031 0.07529 0.0
C840 C 0.30272 0.60549 0.09228 0.0
H841 H 0.14425 0.5273 0.01456 0.0
H842 H 0.19047 0.54435 0.02547 0.0
C843 C 0.32928 0.6139 0.09918 0.0
C844 C 0.26034 0.61129 0.06786 0.0
H845 H 0.19791 0.596 0.09458 0.0
C846 C 0.25421 0.60535 0.04043 0.0
C847 C 0.23967 0.60844 0.08758 0.0
C848 C 0.24466 0.61597 0.1172 0.0
C849 C 0.22804 0.59613 0.03223 0.0
C850 C 0.20761 0.59227 0.05205 0.0
C851 C 0.21366 0.59869 0.07943 0.0
C852 C 0.17969 0.582 0.04491 0.0
C853 C 0.22244 0.59106 0.0024 0.0
C854 C 0.15823 0.5972 0.05277 0.0
C855 C 0.13179 0.5874 0.04687 0.0
C856 C 0.12624 0.56213 0.03297 0.0
C857 C 0.1478 0.54692 0.02511 0.0
C858 C 0.17427 0.5567 0.03117 0.0
H859 H 0.23791 0.60194 0.98995 0.0
H860 H 0.22272 0.5693 0.99666 0.0
H861 H 0.20238 0.59724 0.99743 0.0
H862 H 0.16195 0.61673 0.06348 0.0
H863 H 0.11571 0.59968 0.05322 0.0
H864 H 0.18558 0.45396 0.57132 0.0
H865 H 0.23381 0.44964 0.56477 0.0
H866 H 0.24985 0.53524 0.57923 0.0
H867 H 0.20181 0.5398 0.5859 0.0
H868 H 0.27011 0.47475 0.52669 0.0
H869 H 0.29876 0.50317 0.63323 0.0
H870 H 0.26453 0.49298 0.62332 0.0
H871 H 0.27886 0.52644 0.61852 0.0
C872 C 0.19937 0.47187 0.5731 0.0
C873 C 0.18988 0.49722 0.57925 0.0
C874 C 0.22689 0.46935 0.56934 0.0
C875 C 0.24535 0.49207 0.57193 0.0
C876 C 0.23592 0.51742 0.57763 0.0
H877 H 0.40787 0.52507 0.51915 0.0
H878 H 0.35915 0.51967 0.52507 0.0
C879 C 0.20845 0.51998 0.58128 0.0
C880 C 0.2745 0.48947 0.56838 0.0
H881 H 0.33451 0.50201 0.60081 0.0
C882 C 0.2842 0.48046 0.54292 0.0
C883 C 0.29274 0.49656 0.58974 0.0
C884 C 0.28325 0.50509 0.61783 0.0
C885 C 0.31187 0.47939 0.53796 0.0
C886 C 0.3302 0.48781 0.55896 0.0
C887 C 0.3204 0.49578 0.5847 0.0
C888 C 0.35965 0.48974 0.55435 0.0
C889 C 0.32128 0.46939 0.51029 0.0
C890 C 0.37611 0.47495 0.56915 0.0
C891 C 0.40407 0.47804 0.56591 0.0
C892 C 0.41604 0.49622 0.54799 0.0
C893 C 0.39938 0.51086 0.53309 0.0
C894 C 0.37148 0.50767 0.53628 0.0
H895 H 0.30504 0.45688 0.49914 0.0
H896 H 0.32746 0.48681 0.49834 0.0
H897 H 0.33884 0.45744 0.51173 0.0
H898 H 0.36732 0.46115 0.58336 0.0
H899 H 0.41628 0.4665 0.57775 0.0
H900 H 0.97042 0.84707 -0.00011 0.0
H901 H 0.9854 0.80247 0.0049 0.0
H902 H 0.92195 0.76712 0.95248 0.0
H903 H 0.90671 0.81154 0.94739 0.0
H904 H 0.95176 0.75482 0.0234 0.0
H905 H 0.99435 0.74036 0.91948 0.0
H906 H 0.98891 0.77309 0.93518 0.0
H907 H 0.96098 0.75132 0.92215 0.0
C908 C 0.95963 0.82981 0.98944 0.0
C909 C 0.93741 0.83284 0.97318 0.0
C910 C 0.96821 0.80438 0.99234 0.0
C911 C 0.95494 0.78164 0.97882 0.0
C912 C 0.93262 0.78453 0.96281 0.0
H913 H 0.97762 0.61221 0.96333 0.0
H914 H 0.96403 0.6573 0.95878 0.0
C915 C 0.92389 0.8099 0.96004 0.0
C916 C 0.96423 0.75481 0.98166 0.0
H917 H 0.99303 0.70344 0.94668 0.0
C918 C 0.9609 0.74357 0.00672 0.0
C919 C 0.97598 0.74027 0.95976 0.0
C920 C 0.98051 0.75184 0.93262 0.0
C921 C 0.96855 0.7178 0.01034 0.0
C922 C 0.98051 0.70326 0.98846 0.0
C923 C 0.98391 0.71462 0.96342 0.0
C924 C 0.98931 0.67608 0.99102 0.0
C925 C 0.96302 0.70612 0.03731 0.0
C926 C 0.00846 0.67175 0.0103 0.0
C927 C 0.01614 0.64597 0.0131 0.0
C928 C 0.0051 0.62405 0.99639 0.0
C929 C 0.98651 0.62861 0.97656 0.0
C930 C 0.9787 0.65437 0.97392 0.0
H931 H 0.94724 0.71637 0.04901 0.0
H932 H 0.95655 0.68436 0.0347 0.0
H933 H 0.98167 0.70871 0.04942 0.0
H934 H 0.01746 0.68833 0.02322 0.0
H935 H 0.03071 0.64324 0.0284 0.0
H936 H 0.44418 0.68191 0.1039 0.0
H937 H 0.43642 0.72846 0.09809 0.0
H938 H 0.51048 0.75467 0.13931 0.0
H939 H 0.51738 0.70829 0.14689 0.0
H940 H 0.47207 0.78691 0.15421 0.0
H941 H 0.47551 0.77136 0.04217 0.0
H942 H 0.44934 0.75092 0.05797 0.0
H943 H 0.48399 0.74611 0.06391 0.0
C944 C 0.45834 0.6975 0.11259 0.0
C945 C 0.48115 0.69124 0.12633 0.0
C946 C 0.45416 0.72419 0.10871 0.0
C947 C 0.47308 0.74508 0.11788 0.0
C948 C 0.49559 0.73892 0.13203 0.0
H949 H 0.51548 0.89839 0.06001 0.0
H950 H 0.50881 0.85171 0.07073 0.0
C951 C 0.49958 0.71233 0.13621 0.0
C952 C 0.47024 0.77334 0.11205 0.0
H953 H 0.46813 0.81469 0.06045 0.0
C954 C 0.47103 0.793 0.13372 0.0
C955 C 0.46912 0.78126 0.08527 0.0
C956 C 0.46969 0.76138 0.06096 0.0
C957 C 0.47157 0.82041 0.12936 0.0
C958 C 0.4705 0.82831 0.10257 0.0
C959 C 0.4688 0.80858 0.08097 0.0
C960 C 0.47375 0.85691 0.0962 0.0
C961 C 0.47464 0.84063 0.15338 0.0
C962 C 0.45611 0.87547 0.10678 0.0
C963 C 0.4601 0.90246 0.10094 0.0
C964 C 0.48152 0.91122 0.08403 0.0
C965 C 0.49874 0.8924 0.07305 0.0
C966 C 0.49493 0.86563 0.07914 0.0
H967 H 0.48151 0.83159 0.1716 0.0
H968 H 0.48923 0.85777 0.14887 0.0
H969 H 0.45492 0.84851 0.15829 0.0
H970 H 0.43925 0.8691 0.11949 0.0
H971 H 0.44635 0.9164 0.10953 0.0
H972 H 0.03851 0.33183 0.67766 0.0
H973 H 0.03067 0.2832 0.669 0.0
H974 H 0.10715 0.28156 0.62745 0.0
H975 H 0.11535 0.33009 0.6363 0.0
H976 H 0.02749 0.25649 0.61813 0.0
H977 H 0.10875 0.2203 0.67728 0.0
H978 H 0.09847 0.25393 0.68246 0.0
H979 H 0.12025 0.24527 0.65455 0.0
C980 C 0.05385 0.3211 0.66701 0.0
C981 C 0.07755 0.33486 0.65765 0.0
C982 C 0.04932 0.29331 0.66207 0.0
C983 C 0.06845 0.27874 0.64785 0.0
C984 C 0.09236 0.29233 0.63894 0.0
H985 H 0.07175 0.11602 0.57753 0.0
H986 H 0.08177 0.16323 0.59282 0.0
C987 C 0.09693 0.32011 0.64388 0.0
C988 C 0.06251 0.2497 0.6406 0.0
H989 H 0.08549 0.1882 0.64633 0.0
C990 C 0.04003 0.24152 0.62449 0.0
C991 C 0.07902 0.23027 0.64878 0.0
C992 C 0.10284 0.23779 0.66693 0.0
C993 C 0.03388 0.21448 0.61588 0.0
C994 C 0.05042 0.19506 0.62398 0.0
C995 C 0.07288 0.20318 0.64016 0.0
C996 C 0.04475 0.16622 0.61569 0.0
C997 C 0.01012 0.20702 0.5976 0.0
C998 C 0.02083 0.15218 0.62391 0.0
C999 C 0.01499 0.12524 0.61519 0.0
C1000 C 0.03305 0.11177 0.59817 0.0
C1001 C 0.05733 0.12577 0.59052 0.0
C1002 C 0.06313 0.15274 0.59927 0.0
H1003 H 0.00359 0.2247 0.58801 0.0
H1004 H 0.01495 0.19165 0.58143 0.0
H1005 H 0.99297 0.19849 0.60968 0.0
H1006 H 0.00661 0.16211 0.63699 0.0
H1007 H 0.99621 0.11507 0.62167 0.0
H1008 H 0.56734 0.18833 0.51981 0.0
H1009 H 0.56007 0.2355 0.53166 0.0
H1010 H 0.54421 0.24636 0.44809 0.0
H1011 H 0.55124 0.19948 0.43608 0.0
H1012 H 0.58735 0.28254 0.51077 0.0
H1013 H 0.47802 0.27331 0.4895 0.0
H1014 H 0.49658 0.24464 0.49405 0.0
H1015 H 0.49839 0.26008 0.46237 0.0
C1016 C 0.56227 0.20077 0.50398 0.0
C1017 C 0.55972 0.19012 0.47703 0.0
C1018 C 0.55815 0.22767 0.51078 0.0
C1019 C 0.5512 0.24422 0.49079 0.0
C1020 C 0.54906 0.23376 0.46387 0.0
H1021 H 0.55895 0.41634 0.48798 0.0
H1022 H 0.5652 0.36854 0.48123 0.0
C1023 C 0.55323 0.20697 0.45705 0.0
C1024 C 0.54654 0.2726 0.49782 0.0
H1025 H 0.4993 0.31764 0.49558 0.0
C1026 C 0.56807 0.29022 0.50767 0.0
C1027 C 0.52127 0.28243 0.494 0.0
C1028 C 0.49714 0.26412 0.48464 0.0
C1029 C 0.5652 0.31768 0.51303 0.0
C1030 C 0.54024 0.3277 0.50809 0.0
C1031 C 0.51849 0.30992 0.49905 0.0
C1032 C 0.53631 0.35661 0.51206 0.0
C1033 C 0.58885 0.33573 0.52402 0.0
C1034 C 0.51745 0.36561 0.5311 0.0
C1035 C 0.5137 0.39289 0.53495 0.0
C1036 C 0.52864 0.41168 0.51964 0.0
C1037 C 0.54718 0.40247 0.50019 0.0
C1038 C 0.55093 0.37518 0.49642 0.0
H1039 H 0.604 0.32416 0.53305 0.0
H1040 H 0.59876 0.34655 0.50728 0.0
H1041 H 0.58222 0.35087 0.53958 0.0
H1042 H 0.50583 0.35152 0.54322 0.0
H1043 H 0.49922 0.39924 0.55004 0.0
loop_
_geom_bond_atom_site_label_1
_geom_bond_atom_site_label_2
_geom_bond_distance
_geom_bond_site_symmetry_2
_ccdc_geom_bond_type
O0 Cd1 2.300 . S
O0 C7 1.275 . S
Cd1 O0 2.300 . S
Cd1 O9 2.381 . S
Cd1 O10 2.378 . S
O2 Cd3 2.385 . S
O2 C7 1.255 . S
Cd3 O2 2.385 . S
Cd3 O4 2.317 . S
O4 Cd3 2.317 . S
O4 C5 1.232 . S
C5 O4 1.232 . S
C5 O6 1.218 . S
O6 C5 1.218 . S
C7 O0 1.275 . S
C7 O2 1.255 . S
C8 O9 1.258 . S
C8 O10 1.256 . S
O9 Cd1 2.381 . S
O9 C8 1.258 . S
O10 Cd1 2.378 . S
O10 C8 1.256 . S
O11 Cd12 2.300 . S
O11 C18 1.275 . S
Cd12 O11 2.300 . S
Cd12 O20 2.381 . S
Cd12 O21 2.378 . S
O13 Cd14 2.385 . S
O13 C18 1.255 . S
Cd14 O13 2.385 . S
Cd14 O15 2.317 . S
O15 Cd14 2.317 . S
O15 C16 1.232 . S
C16 O15 1.232 . S
C16 O17 1.218 . S
O17 C16 1.218 . S
C18 O11 1.275 . S
C18 O13 1.255 . S
C19 O20 1.258 . S
C19 O21 1.256 . S
O20 Cd12 2.381 . S
O20 C19 1.258 . S
O21 Cd12 2.378 . S
O21 C19 1.256 . S
O22 Cd23 2.300 . S
O22 C29 1.275 . S
Cd23 O22 2.300 . S
Cd23 O31 2.381 . S
Cd23 O32 2.378 . S
O24 Cd25 2.385 . S
O24 C29 1.255 . S
Cd25 O24 2.385 . S
Cd25 O26 2.317 . S
O26 Cd25 2.317 . S
O26 C27 1.232 . S
C27 O26 1.232 . S
C27 O28 1.218 . S
O28 C27 1.218 . S
C29 O22 1.275 . S
C29 O24 1.255 . S
C30 O31 1.258 . S
C30 O32 1.256 . S
O31 Cd23 2.381 . S
O31 C30 1.258 . S
O32 Cd23 2.378 . S
O32 C30 1.256 . S
O33 Cd34 2.300 . S
O33 C40 1.275 . S
Cd34 O33 2.300 . S
Cd34 O42 2.381 . S
Cd34 O43 2.378 . S
O35 Cd36 2.385 . S
O35 C40 1.255 . S
Cd36 O35 2.385 . S
Cd36 O37 2.317 . S
O37 Cd36 2.317 . S
O37 C38 1.232 . S
C38 O37 1.232 . S
C38 O39 1.218 . S
O39 C38 1.218 . S
C40 O33 1.275 . S
C40 O35 1.255 . S
C41 O42 1.258 . S
C41 O43 1.256 . S
O42 Cd34 2.381 . S
O42 C41 1.258 . S
O43 Cd34 2.378 . S
O43 C41 1.256 . S
O44 Cd45 2.300 . S
O44 C51 1.275 . S
Cd45 O44 2.300 . S
Cd45 O53 2.381 . S
Cd45 O54 2.378 . S
O46 Cd47 2.385 . S
O46 C51 1.255 . S
Cd47 O46 2.385 . S
Cd47 O48 2.317 . S
O48 Cd47 2.317 . S
O48 C49 1.232 . S
C49 O48 1.232 . S
C49 O50 1.218 1_565 S
O50 C49 1.218 1_545 S
C51 O44 1.275 . S
C51 O46 1.255 . S
C52 O53 1.258 . S
C52 O54 1.256 . S
O53 Cd45 2.381 . S
O53 C52 1.258 . S
O54 Cd45 2.378 . S
O54 C52 1.256 . S
O55 Cd56 2.300 . S
O55 C62 1.275 . S
Cd56 O55 2.300 . S
Cd56 O64 2.381 . S
Cd56 O65 2.378 . S
O57 Cd58 2.385 . S
O57 C62 1.255 . S
Cd58 O57 2.385 . S
Cd58 O59 2.317 . S
O59 Cd58 2.317 . S
O59 C60 1.232 . S
C60 O59 1.232 . S
C60 O61 1.218 . S
O61 C60 1.218 . S
C62 O55 1.275 . S
C62 O57 1.255 . S
C63 O64 1.258 . S
C63 O65 1.256 . S
O64 Cd56 2.381 . S
O64 C63 1.258 . S
O65 Cd56 2.378 . S
O65 C63 1.256 . S
O66 Cd67 2.300 . S
O66 C73 1.275 . S
Cd67 O66 2.300 . S
Cd67 O75 2.381 . S
Cd67 O76 2.378 . S
O68 Cd69 2.385 . S
O68 C73 1.255 . S
Cd69 O68 2.385 . S
Cd69 O70 2.317 . S
O70 Cd69 2.317 . S
O70 C71 1.232 . S
C71 O70 1.232 . S
C71 O72 1.218 . S
O72 C71 1.218 . S
C73 O66 1.275 . S
C73 O68 1.255 . S
C74 O75 1.258 . S
C74 O76 1.256 . S
O75 Cd67 2.381 . S
O75 C74 1.258 . S
O76 Cd67 2.378 . S
O76 C74 1.256 . S
O77 Cd78 2.300 . S
O77 C84 1.275 . S
Cd78 O77 2.300 . S
Cd78 O86 2.381 . S
Cd78 O87 2.378 . S
O79 Cd80 2.385 . S
O79 C84 1.255 . S
Cd80 O79 2.385 . S
Cd80 O81 2.317 . S
O81 Cd80 2.317 . S
O81 C82 1.232 . S
C82 O81 1.232 . S
C82 O83 1.218 . S
O83 C82 1.218 . S
C84 O77 1.275 . S
C84 O79 1.255 . S
C85 O86 1.258 . S
C85 O87 1.256 . S
O86 Cd78 2.381 . S
O86 C85 1.258 . S
O87 Cd78 2.378 . S
O87 C85 1.256 . S
O88 Zn89 1.968 . S
O88 C104 1.189 1_655 S
Zn89 O88 1.968 . S
Zn89 O90 1.949 1_655 S
Zn89 O96 1.919 . S
Zn89 O101 1.924 . S
O90 Zn89 1.949 1_455 S
O90 Zn91 1.923 1_445 S
O90 Zn92 1.950 . S
O90 Zn93 1.945 1_545 S
Zn91 O90 1.923 1_665 S
Zn91 O94 1.933 . S
Zn91 O97 1.941 1_565 S
Zn91 O98 1.965 1_665 S
Zn92 O90 1.950 . S
Zn92 O99 1.938 . S
Zn92 O100 1.906 . S
Zn92 O110 1.953 . S
Zn93 O90 1.945 1_565 S
Zn93 O95 1.932 1_455 S
Zn93 O102 1.977 . S
Zn93 O103 1.910 1_455 S
O94 Zn91 1.933 . S
O94 C105 1.226 . S
O95 Zn93 1.932 1_655 S
O95 C105 1.307 . S
O96 Zn89 1.919 . S
O96 C107 1.253 . S
O97 Zn91 1.941 1_545 S
O97 C107 1.283 . S
O98 Zn91 1.965 1_445 S
O98 C106 1.303 . S
O99 Zn92 1.938 . S
O99 C106 1.247 . S
O100 Zn92 1.906 . S
O100 C108 1.304 1_545 S
O101 Zn89 1.924 . S
O101 C109 1.311 . S
O102 Zn93 1.977 . S
O102 C108 1.272 . S
O103 Zn93 1.910 1_655 S
O103 C109 1.231 1_565 S
C104 O88 1.189 1_455 S
C104 O110 1.298 . S
C105 O94 1.226 . S
C105 O95 1.307 . S
C106 O98 1.303 . S
C106 O99 1.247 . S
C107 O96 1.253 . S
C107 O97 1.283 . S
C108 O100 1.304 1_565 S
C108 O102 1.272 . S
C109 O101 1.311 . S
C109 O103 1.231 1_545 S
O110 Zn92 1.953 . S
O110 C104 1.298 . S
O111 Zn112 1.953 . S
O111 C127 1.225 . S
Zn112 O111 1.953 . S
Zn112 O113 1.949 . S
Zn112 O119 1.919 . S
Zn112 O124 1.924 . S
O113 Zn112 1.949 . S
O113 Zn114 1.923 1_545 S
O113 Zn115 1.950 . S
O113 Zn116 1.945 . S
Zn114 O113 1.923 1_565 S
Zn114 O117 1.933 . S
Zn114 O120 1.941 . S
Zn114 O121 1.965 . S
Zn115 O113 1.950 . S
Zn115 O122 1.938 . S
Zn115 O123 1.906 . S
Zn115 O133 1.953 . S
Zn116 O113 1.945 . S
Zn116 O118 1.932 1_545 S
Zn116 O125 1.977 . S
Zn116 O126 1.910 . S
O117 Zn114 1.933 . S
O117 C128 1.226 . S
O118 Zn116 1.932 1_565 S
O118 C128 1.307 . S
O119 Zn112 1.919 . S
O119 C130 1.267 1_554 S
O120 Zn114 1.941 . S
O120 C130 1.276 1_564 S
O121 Zn114 1.965 . S
O121 C129 1.303 1_565 S
O122 Zn115 1.938 . S
O122 C129 1.247 . S
O123 Zn115 1.906 . S
O123 C131 1.304 . S
O124 Zn112 1.924 . S
O124 C132 1.311 . S
O125 Zn116 1.977 . S
O125 C131 1.272 . S
O126 Zn116 1.910 . S
O126 C132 1.231 . S
C127 O111 1.225 . S
C127 O133 1.298 . S
C128 O117 1.226 . S
C128 O118 1.307 . S
C129 O121 1.303 1_545 S
C129 O122 1.247 . S
C130 O119 1.267 1_556 S
C130 O120 1.276 1_546 S
C131 O123 1.304 . S
C131 O125 1.272 . S
C132 O124 1.311 . S
C132 O126 1.231 . S
O133 Zn115 1.953 . S
O133 C127 1.298 . S
O134 Zn135 1.953 . S
O134 C150 1.225 . S
Zn135 O134 1.953 . S
Zn135 O136 1.949 . S
Zn135 O142 1.919 . S
Zn135 O147 1.924 . S
O136 Zn135 1.949 . S
O136 Zn137 1.923 . S
O136 Zn138 1.950 . S
O136 Zn139 1.945 . S
Zn137 O136 1.923 . S
Zn137 O140 1.933 . S
Zn137 O143 1.941 . S
Zn137 O144 1.965 . S
Zn138 O136 1.950 . S
Zn138 O145 1.938 . S
Zn138 O146 1.906 . S
Zn138 O156 1.953 . S
Zn139 O136 1.945 . S
Zn139 O141 1.932 . S
Zn139 O148 1.977 . S
Zn139 O149 1.910 . S
O140 Zn137 1.933 . S
O140 C151 1.226 . S
O141 Zn139 1.932 . S
O141 C151 1.307 . S
O142 Zn135 1.919 . S
O142 C153 1.253 . S
O143 Zn137 1.941 . S
O143 C153 1.283 . S
O144 Zn137 1.965 . S
O144 C152 1.303 . S
O145 Zn138 1.938 . S
O145 C152 1.247 . S
O146 Zn138 1.906 . S
O146 C154 1.304 . S
O147 Zn135 1.924 . S
O147 C155 1.311 . S
O148 Zn139 1.977 . S
O148 C154 1.272 . S
O149 Zn139 1.910 . S
O149 C155 1.231 . S
C150 O134 1.225 . S
C150 O156 1.298 . S
C151 O140 1.226 . S
C151 O141 1.307 . S
C152 O144 1.303 . S
C152 O145 1.247 . S
C153 O142 1.253 . S
C153 O143 1.283 . S
C154 O146 1.304 . S
C154 O148 1.272 . S
C155 O147 1.311 . S
C155 O149 1.231 . S
O156 Zn138 1.953 . S
O156 C150 1.298 . S
O157 Zn158 1.953 . S
O157 C173 1.225 1_655 S
Zn158 O157 1.953 . S
Zn158 O159 1.949 1_655 S
Zn158 O165 1.919 . S
Zn158 O170 1.924 1_655 S
O159 Zn158 1.949 1_455 S
O159 Zn160 1.923 1_554 S
O159 Zn161 1.950 . S
O159 Zn162 1.945 1_554 S
Zn160 O159 1.923 1_556 S
Zn160 O163 1.933 . S
Zn160 O166 1.941 1_455 S
Zn160 O167 1.965 . S
Zn161 O159 1.950 . S
Zn161 O168 1.938 . S
Zn161 O169 1.906 . S
Zn161 O179 1.953 . S
Zn162 O159 1.945 1_556 S
Zn162 O164 1.932 . S
Zn162 O171 1.977 1_556 S
Zn162 O172 1.910 1_556 S
O163 Zn160 1.933 . S
O163 C174 1.226 . S
O164 Zn162 1.932 . S
O164 C174 1.307 . S
O165 Zn158 1.919 . S
O165 C176 1.253 1_554 S
O166 Zn160 1.941 1_655 S
O166 C176 1.283 . S
O167 Zn160 1.965 . S
O167 C175 1.313 . S
O168 Zn161 1.938 . S
O168 C175 1.237 1_554 S
O169 Zn161 1.906 . S
O169 C177 1.304 . S
O170 Zn158 1.924 1_455 S
O170 C178 1.311 . S
O171 Zn162 1.977 1_554 S
O171 C177 1.272 . S
O172 Zn162 1.910 1_554 S
O172 C178 1.231 . S
C173 O157 1.225 1_455 S
C173 O179 1.298 . S
C174 O163 1.226 . S
C174 O164 1.307 . S
C175 O167 1.313 . S
C175 O168 1.237 1_556 S
C176 O165 1.253 1_556 S
C176 O166 1.283 . S
C177 O169 1.304 . S
C177 O171 1.272 . S
C178 O170 1.311 . S
C178 O172 1.231 . S
O179 Zn161 1.953 . S
O179 C173 1.298 . S
H180 C188 0.929 . S
H181 C190 0.930 . S
H182 C192 0.930 . S
H183 C195 0.929 . S
H184 C198 0.930 . S
H185 C200 0.960 . S
H186 C200 0.960 . S
H187 C200 0.960 . S
C188 H180 0.929 . S
C188 C189 1.377 . S
C188 C190 1.384 . S
C189 C188 1.377 . S
C189 C195 1.390 . S
C190 H181 0.930 . S
C190 C188 1.384 . S
C190 C191 1.372 . S
C191 C190 1.372 . S
C191 C192 1.400 . S
C191 C196 1.490 . S
C192 H182 0.930 . S
C192 C191 1.400 . S
C192 C195 1.386 . S
H193 C209 0.930 . S
H194 C210 0.931 . S
C195 H183 0.929 . S
C195 C189 1.390 . S
C195 C192 1.386 . S
C196 C191 1.490 . S
C196 C198 1.395 . S
C196 C199 1.403 . S
H197 C203 0.930 . S
C198 H184 0.930 . S
C198 C196 1.395 . S
C198 C201 1.403 . S
C199 C196 1.403 . S
C199 C200 1.524 . S
C199 C203 1.400 . S
C200 H185 0.960 . S
C200 H186 0.960 . S
C200 H187 0.960 . S
C200 C199 1.524 . S
C201 C198 1.403 . S
C201 C202 1.392 . S
C201 C205 1.495 . S
C202 C201 1.392 . S
C202 C203 1.385 . S
C202 C204 1.478 . S
C203 H197 0.930 . S
C203 C199 1.400 . S
C203 C202 1.385 . S
C204 C202 1.478 . S
C204 C206 1.381 . S
C204 C210 1.383 . S
C205 C201 1.495 . S
C205 H211 0.959 . S
C205 H212 0.961 . S
C205 H213 0.960 . S
C206 C204 1.381 . S
C206 C207 1.394 . S
C206 H214 0.930 . S
C207 C206 1.394 . S
C207 C208 1.383 . S
C207 H215 0.929 . S
C208 C207 1.383 . S
C208 C209 1.377 . S
C209 H193 0.930 . S
C209 C208 1.377 . S
C209 C210 1.379 . S
C210 H194 0.931 . S
C210 C204 1.383 . S
C210 C209 1.379 . S
H211 C205 0.959 . S
H212 C205 0.961 . S
H213 C205 0.960 . S
H214 C206 0.930 . S
H215 C207 0.929 . S
H216 C224 0.929 . S
H217 C226 0.930 . S
H218 C228 0.930 . S
H219 C231 0.929 . S
H220 C234 0.930 . S
H221 C236 0.960 . S
H222 C236 0.960 . S
H223 C236 0.960 . S
C224 H216 0.929 . S
C224 C225 1.377 . S
C224 C226 1.384 . S
C225 C224 1.377 . S
C225 C231 1.390 . S
C226 H217 0.930 . S
C226 C224 1.384 . S
C226 C227 1.372 . S
C227 C226 1.372 . S
C227 C228 1.400 . S
C227 C232 1.490 . S
C228 H218 0.930 . S
C228 C227 1.400 . S
C228 C231 1.386 . S
H229 C245 0.921 1_545 S
H230 C246 0.912 1_545 S
C231 H219 0.929 . S
C231 C225 1.390 . S
C231 C228 1.386 . S
C232 C227 1.490 . S
C232 C234 1.395 . S
C232 C235 1.403 . S
H233 C239 0.930 . S
C234 H220 0.930 . S
C234 C232 1.395 . S
C234 C237 1.403 . S
C235 C232 1.403 . S
C235 C236 1.524 . S
C235 C239 1.400 . S
C236 H221 0.960 . S
C236 H222 0.960 . S
C236 H223 0.960 . S
C236 C235 1.524 . S
C237 C234 1.403 . S
C237 C238 1.392 . S
C237 C241 1.495 . S
C238 C237 1.392 . S
C238 C239 1.385 . S
C238 C240 1.478 . S
C239 H233 0.930 . S
C239 C235 1.400 . S
C239 C238 1.385 . S
C240 C238 1.478 . S
C240 C242 1.381 . S
C240 C246 1.383 . S
C241 C237 1.495 . S
C241 H247 0.959 . S
C241 H248 0.961 . S
C241 H249 0.960 . S
C242 C240 1.381 . S
C242 C243 1.394 . S
C242 H250 0.930 . S
C243 C242 1.394 . S
C243 C244 1.383 . S
C243 H251 0.929 . S
C244 C243 1.383 . S
C244 C245 1.383 . S
C245 H229 0.921 1_565 S
C245 C244 1.383 . S
C245 C246 1.382 . S
C246 H230 0.912 1_565 S
C246 C240 1.383 . S
C246 C245 1.382 . S
H247 C241 0.959 . S
H248 C241 0.961 . S
H249 C241 0.960 . S
H250 C242 0.930 . S
H251 C243 0.929 . S
H252 C260 0.929 . S
H253 C262 0.930 . S
H254 C264 0.930 . S
H255 C267 0.929 . S
H256 C270 0.930 . S
H257 C272 0.960 . S
H258 C272 0.960 . S
H259 C272 0.960 . S
C260 H252 0.929 . S
C260 C261 1.377 . S
C260 C262 1.384 . S
C261 C260 1.377 . S
C261 C267 1.390 . S
C262 H253 0.930 . S
C262 C260 1.384 . S
C262 C263 1.372 . S
C263 C262 1.372 . S
C263 C264 1.400 . S
C263 C268 1.490 . S
C264 H254 0.930 . S
C264 C263 1.400 . S
C264 C267 1.386 . S
H265 C281 0.930 . S
H266 C282 0.931 . S
C267 H255 0.929 . S
C267 C261 1.390 . S
C267 C264 1.386 . S
C268 C263 1.490 . S
C268 C270 1.395 . S
C268 C271 1.403 . S
H269 C275 0.930 . S
C270 H256 0.930 . S
C270 C268 1.395 . S
C270 C273 1.403 . S
C271 C268 1.403 . S
C271 C272 1.524 . S
C271 C275 1.400 . S
C272 H257 0.960 . S
C272 H258 0.960 . S
C272 H259 0.960 . S
C272 C271 1.524 . S
C273 C270 1.403 . S
C273 C274 1.392 . S
C273 C277 1.495 . S
C274 C273 1.392 . S
C274 C275 1.385 . S
C274 C276 1.478 . S
C275 H269 0.930 . S
C275 C271 1.400 . S
C275 C274 1.385 . S
C276 C274 1.478 . S
C276 C278 1.381 . S
C276 C282 1.383 . S
C277 C273 1.495 . S
C277 H283 0.959 . S
C277 H284 0.961 . S
C277 H285 0.960 . S
C278 C276 1.381 . S
C278 C279 1.394 . S
C278 H286 0.930 . S
C279 C278 1.394 . S
C279 C280 1.383 . S
C279 H287 0.929 . S
C280 C279 1.383 . S
C280 C281 1.377 . S
C281 H265 0.930 . S
C281 C280 1.377 . S
C281 C282 1.379 . S
C282 H266 0.931 . S
C282 C276 1.383 . S
C282 C281 1.379 . S
H283 C277 0.959 . S
H284 C277 0.961 . S
H285 C277 0.960 . S
H286 C278 0.930 . S
H287 C279 0.929 . S
H288 C296 0.929 . S
H289 C298 0.930 . S
H290 C300 0.930 . S
H291 C303 0.929 . S
H292 C306 0.930 . S
H293 C308 0.960 . S
H294 C308 0.932 1_455 S
H295 C308 0.960 . S
C296 H288 0.929 . S
C296 C297 1.377 . S
C296 C298 1.384 . S
C297 C296 1.377 . S
C297 C303 1.390 . S
C298 H289 0.930 . S
C298 C296 1.384 . S
C298 C299 1.372 . S
C299 C298 1.372 . S
C299 C300 1.400 . S
C299 C304 1.490 . S
C300 H290 0.930 . S
C300 C299 1.400 . S
C300 C303 1.386 . S
H301 C317 0.930 . S
H302 C318 0.931 . S
C303 H291 0.929 . S
C303 C297 1.390 . S
C303 C300 1.386 . S
C304 C299 1.490 . S
C304 C306 1.395 . S
C304 C307 1.403 . S
H305 C311 0.930 . S
C306 H292 0.930 . S
C306 C304 1.395 . S
C306 C309 1.403 . S
C307 C304 1.403 . S
C307 C308 1.524 . S
C307 C311 1.400 . S
C308 H293 0.960 . S
C308 H294 0.932 1_655 S
C308 H295 0.960 . S
C308 C307 1.524 . S
C309 C306 1.403 . S
C309 C310 1.392 . S
C309 C313 1.495 . S
C310 C309 1.392 . S
C310 C311 1.385 . S
C310 C312 1.478 . S
C311 H305 0.930 . S
C311 C307 1.400 . S
C311 C310 1.385 . S
C312 C310 1.478 . S
C312 C314 1.381 1_655 S
C312 C318 1.383 . S
C313 C309 1.495 . S
C313 H319 0.959 . S
C313 H320 0.961 . S
C313 H321 0.960 . S
C314 C312 1.381 1_455 S
C314 C315 1.394 . S
C314 H322 0.930 . S
C315 C314 1.394 . S
C315 C316 1.383 1_455 S
C315 H323 0.929 . S
C316 C315 1.383 1_655 S
C316 C317 1.377 . S
C317 H301 0.930 . S
C317 C316 1.377 . S
C317 C318 1.379 . S
C318 H302 0.931 . S
C318 C312 1.383 . S
C318 C317 1.379 . S
H319 C313 0.959 . S
H320 C313 0.961 . S
H321 C313 0.960 . S
H322 C314 0.930 . S
H323 C315 0.929 . S
H324 C332 0.929 . S
H325 C334 0.930 . S
H326 C336 0.930 . S
H327 C339 0.929 . S
H328 C342 0.930 . S
H329 C344 0.960 . S
H330 C344 0.960 . S
H331 C344 0.960 . S
C332 H324 0.929 . S
C332 C333 1.377 . S
C332 C334 1.384 . S
C333 C332 1.377 . S
C333 C339 1.390 . S
C334 H325 0.930 . S
C334 C332 1.384 . S
C334 C335 1.372 . S
C335 C334 1.372 . S
C335 C336 1.400 . S
C335 C340 1.490 . S
C336 H326 0.930 . S
C336 C335 1.400 . S
C336 C339 1.386 . S
H337 C353 0.930 . S
H338 C354 0.931 . S
C339 H327 0.929 . S
C339 C333 1.390 . S
C339 C336 1.386 . S
C340 C335 1.490 . S
C340 C342 1.395 . S
C340 C343 1.403 . S
H341 C347 0.930 . S
C342 H328 0.930 . S
C342 C340 1.395 . S
C342 C345 1.403 . S
C343 C340 1.403 . S
C343 C344 1.524 . S
C343 C347 1.400 . S
C344 H329 0.960 . S
C344 H330 0.960 . S
C344 H331 0.960 . S
C344 C343 1.524 . S
C345 C342 1.403 . S
C345 C346 1.392 . S
C345 C349 1.495 . S
C346 C345 1.392 . S
C346 C347 1.385 . S
C346 C348 1.478 . S
C347 H341 0.930 . S
C347 C343 1.400 . S
C347 C346 1.385 . S
C348 C346 1.478 . S
C348 C350 1.381 . S
C348 C354 1.383 . S
C349 C345 1.495 . S
C349 H355 0.959 . S
C349 H356 0.961 . S
C349 H357 0.960 . S
C350 C348 1.381 . S
C350 C351 1.394 . S
C350 H358 0.930 . S
C351 C350 1.394 . S
C351 C352 1.383 . S
C351 H359 0.929 . S
C352 C351 1.383 . S
C352 C353 1.377 . S
C353 H337 0.930 . S
C353 C352 1.377 . S
C353 C354 1.379 . S
C354 H338 0.931 . S
C354 C348 1.383 . S
C354 C353 1.379 . S
H355 C349 0.959 . S
H356 C349 0.961 . S
H357 C349 0.960 . S
H358 C350 0.930 . S
H359 C351 0.929 . S
H360 C368 0.929 . S
H361 C370 0.930 . S
H362 C372 0.930 . S
H363 C375 0.929 . S
H364 C378 0.930 . S
H365 C380 0.960 . S
H366 C380 0.960 . S
H367 C380 0.960 . S
C368 H360 0.929 . S
C368 C369 1.377 . S
C368 C370 1.384 . S
C369 C368 1.377 . S
C369 C375 1.390 . S
C370 H361 0.930 . S
C370 C368 1.384 . S
C370 C371 1.372 . S
C371 C370 1.372 . S
C371 C372 1.400 . S
C371 C376 1.490 . S
C372 H362 0.930 . S
C372 C371 1.400 . S
C372 C375 1.386 . S
H373 C389 0.930 . S
H374 C390 0.931 . S
C375 H363 0.929 . S
C375 C369 1.390 . S
C375 C372 1.386 . S
C376 C371 1.490 . S
C376 C378 1.395 . S
C376 C379 1.403 . S
H377 C383 0.930 . S
C378 H364 0.930 . S
C378 C376 1.395 . S
C378 C381 1.403 . S
C379 C376 1.403 . S
C379 C380 1.524 . S
C379 C383 1.400 . S
C380 H365 0.960 . S
C380 H366 0.960 . S
C380 H367 0.960 . S
C380 C379 1.524 . S
C381 C378 1.403 . S
C381 C382 1.392 . S
C381 C385 1.495 . S
C382 C381 1.392 . S
C382 C383 1.385 . S
C382 C384 1.478 . S
C383 H377 0.930 . S
C383 C379 1.400 . S
C383 C382 1.385 . S
C384 C382 1.478 . S
C384 C386 1.381 . S
C384 C390 1.383 . S
C385 C381 1.495 . S
C385 H391 0.959 . S
C385 H392 0.961 . S
C385 H393 0.960 . S
C386 C384 1.381 . S
C386 C387 1.394 . S
C386 H394 0.930 . S
C387 C386 1.394 . S
C387 C388 1.383 . S
C387 H395 0.929 . S
C388 C387 1.383 . S
C388 C389 1.377 . S
C389 H373 0.930 . S
C389 C388 1.377 . S
C389 C390 1.379 . S
C390 H374 0.931 . S
C390 C384 1.383 . S
C390 C389 1.379 . S
H391 C385 0.959 . S
H392 C385 0.961 . S
H393 C385 0.960 . S
H394 C386 0.930 . S
H395 C387 0.929 . S
H396 C404 0.929 . S
H397 C406 0.930 . S
H398 C408 0.930 . S
H399 C411 0.929 . S
H400 C414 0.930 . S
H401 C416 0.960 . S
H402 C416 0.960 . S
H403 C416 0.960 . S
C404 H396 0.929 . S
C404 C405 1.377 . S
C404 C406 1.384 . S
C405 C404 1.377 . S
C405 C411 1.390 . S
C406 H397 0.930 . S
C406 C404 1.384 . S
C406 C407 1.372 . S
C407 C406 1.372 . S
C407 C408 1.400 . S
C407 C412 1.490 . S
C408 H398 0.930 . S
C408 C407 1.400 . S
C408 C411 1.386 . S
H409 C425 0.930 . S
H410 C426 0.931 . S
C411 H399 0.929 . S
C411 C405 1.390 . S
C411 C408 1.386 . S
C412 C407 1.490 . S
C412 C414 1.395 . S
C412 C415 1.403 . S
H413 C419 0.930 . S
C414 H400 0.930 . S
C414 C412 1.395 . S
C414 C417 1.403 . S
C415 C412 1.403 . S
C415 C416 1.524 . S
C415 C419 1.400 . S
C416 H401 0.960 . S
C416 H402 0.960 . S
C416 H403 0.960 . S
C416 C415 1.524 . S
C417 C414 1.403 . S
C417 C418 1.392 . S
C417 C421 1.495 . S
C418 C417 1.392 . S
C418 C419 1.385 . S
C418 C420 1.478 . S
C419 H413 0.930 . S
C419 C415 1.400 . S
C419 C418 1.385 . S
C420 C418 1.478 . S
C420 C422 1.381 . S
C420 C426 1.383 . S
C421 C417 1.495 . S
C421 H427 0.959 . S
C421 H428 0.961 . S
C421 H429 0.960 . S
C422 C420 1.381 . S
C422 C423 1.394 . S
C422 H430 0.954 . S
C423 C422 1.394 . S
C423 C424 1.383 . S
C423 H431 0.929 1_556 S
C424 C423 1.383 . S
C424 C425 1.377 . S
C425 H409 0.930 . S
C425 C424 1.377 . S
C425 C426 1.379 . S
C426 H410 0.931 . S
C426 C420 1.383 . S
C426 C425 1.379 . S
H427 C421 0.959 . S
H428 C421 0.961 . S
H429 C421 0.960 . S
H430 C422 0.954 . S
H431 C423 0.929 1_554 S
H432 C440 0.929 . S
H433 C442 0.930 . S
H434 C444 0.930 . S
H435 C447 0.929 . S
H436 C450 0.930 . S
H437 C452 0.960 . S
H438 C452 0.960 . S
H439 C452 0.960 . S
C440 H432 0.929 . S
C440 C441 1.377 . S
C440 C442 1.384 . S
C441 C440 1.377 . S
C441 C447 1.390 . S
C442 H433 0.930 . S
C442 C440 1.384 . S
C442 C443 1.372 . S
C443 C442 1.372 . S
C443 C444 1.400 . S
C443 C448 1.490 . S
C444 H434 0.930 . S
C444 C443 1.400 . S
C444 C447 1.386 . S
H445 C461 0.930 . S
H446 C462 0.931 . S
C447 H435 0.929 . S
C447 C441 1.390 . S
C447 C444 1.386 . S
C448 C443 1.490 . S
C448 C450 1.395 . S
C448 C451 1.403 . S
H449 C455 0.930 . S
C450 H436 0.930 . S
C450 C448 1.395 . S
C450 C453 1.403 . S
C451 C448 1.403 . S
C451 C452 1.524 . S
C451 C455 1.400 . S
C452 H437 0.960 . S
C452 H438 0.960 . S
C452 H439 0.960 . S
C452 C451 1.524 . S
C453 C450 1.403 . S
C453 C454 1.392 . S
C453 C457 1.495 . S
C454 C453 1.392 . S
C454 C455 1.385 . S
C454 C456 1.478 . S
C455 H449 0.930 . S
C455 C451 1.400 . S
C455 C454 1.385 . S
C456 C454 1.478 . S
C456 C458 1.381 . S
C456 C462 1.383 . S
C457 C453 1.495 . S
C457 H463 0.959 . S
C457 H464 0.961 . S
C457 H465 0.960 . S
C458 C456 1.381 . S
C458 C459 1.394 . S
C458 H466 0.930 . S
C459 C458 1.394 . S
C459 C460 1.383 . S
C459 H467 0.929 . S
C460 C459 1.383 . S
C460 C461 1.377 . S
C461 H445 0.930 . S
C461 C460 1.377 . S
C461 C462 1.379 . S
C462 H446 0.931 . S
C462 C456 1.383 . S
C462 C461 1.379 . S
H463 C457 0.959 . S
H464 C457 0.961 . S
H465 C457 0.960 . S
H466 C458 0.930 . S
H467 C459 0.929 . S
H468 C476 0.929 . S
H469 C478 0.930 . S
H470 C480 0.930 . S
H471 C483 0.929 . S
H472 C486 0.930 . S
H473 C488 0.960 . S
H474 C488 0.960 . S
H475 C488 0.960 . S
C476 H468 0.929 . S
C476 C477 1.377 . S
C476 C478 1.384 . S
C477 C476 1.377 . S
C477 C483 1.390 . S
C478 H469 0.930 . S
C478 C476 1.384 . S
C478 C479 1.372 . S
C479 C478 1.372 . S
C479 C480 1.400 . S
C479 C484 1.490 . S
C480 H470 0.930 . S
C480 C479 1.400 . S
C480 C483 1.386 . S
H481 C497 0.930 . S
H482 C498 0.931 . S
C483 H471 0.929 . S
C483 C477 1.390 . S
C483 C480 1.386 . S
C484 C479 1.490 . S
C484 C486 1.395 . S
C484 C487 1.403 . S
H485 C491 0.930 . S
C486 H472 0.930 . S
C486 C484 1.395 . S
C486 C489 1.403 . S
C487 C484 1.403 . S
C487 C488 1.524 . S
C487 C491 1.400 . S
C488 H473 0.960 . S
C488 H474 0.960 . S
C488 H475 0.960 . S
C488 C487 1.524 . S
C489 C486 1.403 . S
C489 C490 1.392 . S
C489 C493 1.495 . S
C490 C489 1.392 . S
C490 C491 1.385 . S
C490 C492 1.478 . S
C491 H485 0.930 . S
C491 C487 1.400 . S
C491 C490 1.385 . S
C492 C490 1.478 . S
C492 C494 1.381 . S
C492 C498 1.383 . S
C493 C489 1.495 . S
C493 H499 0.959 . S
C493 H500 0.961 . S
C493 H501 0.960 . S
C494 C492 1.381 . S
C494 C495 1.394 . S
C494 H502 0.930 . S
C495 C494 1.394 . S
C495 C496 1.383 . S
C495 H503 0.929 . S
C496 C495 1.383 . S
C496 C497 1.377 . S
C497 H481 0.930 . S
C497 C496 1.377 . S
C497 C498 1.379 . S
C498 H482 0.931 . S
C498 C492 1.383 . S
C498 C497 1.379 . S
H499 C493 0.959 . S
H500 C493 0.961 . S
H501 C493 0.960 . S
H502 C494 0.930 . S
H503 C495 0.929 . S
H504 C512 0.929 . S
H505 C514 0.930 . S
H506 C516 0.930 . S
H507 C519 0.929 . S
H508 C522 0.930 . S
H509 C524 0.960 . S
H510 C524 0.960 . S
H511 C524 0.960 . S
C512 H504 0.929 . S
C512 C513 1.377 . S
C512 C514 1.384 . S
C513 C512 1.377 . S
C513 C519 1.390 . S
C514 H505 0.930 . S
C514 C512 1.384 . S
C514 C515 1.372 . S
C515 C514 1.372 . S
C515 C516 1.400 . S
C515 C520 1.490 . S
C516 H506 0.930 . S
C516 C515 1.400 . S
C516 C519 1.386 . S
H517 C533 0.930 . S
H518 C534 0.931 1_556 S
C519 H507 0.929 . S
C519 C513 1.390 . S
C519 C516 1.386 . S
C520 C515 1.490 . S
C520 C522 1.395 . S
C520 C523 1.403 1_556 S
H521 C527 0.930 . S
C522 H508 0.930 . S
C522 C520 1.395 . S
C522 C525 1.403 . S
C523 C520 1.403 1_554 S
C523 C524 1.524 . S
C523 C527 1.400 . S
C524 H509 0.960 . S
C524 H510 0.960 . S
C524 H511 0.960 . S
C524 C523 1.524 . S
C525 C522 1.403 . S
C525 C526 1.392 1_556 S
C525 C529 1.495 . S
C526 C525 1.392 1_554 S
C526 C527 1.385 . S
C526 C528 1.478 . S
C527 H521 0.930 . S
C527 C523 1.400 . S
C527 C526 1.385 . S
C528 C526 1.478 . S
C528 C530 1.381 . S
C528 C534 1.383 . S
C529 C525 1.495 . S
C529 H535 0.959 . S
C529 H536 0.961 . S
C529 H537 0.960 . S
C530 C528 1.381 . S
C530 C531 1.394 . S
C530 H538 0.930 . S
C531 C530 1.394 . S
C531 C532 1.383 . S
C531 H539 0.929 . S
C532 C531 1.383 . S
C532 C533 1.377 . S
C533 H517 0.930 . S
C533 C532 1.377 . S
C533 C534 1.379 . S
C534 H518 0.931 1_554 S
C534 C528 1.383 . S
C534 C533 1.379 . S
H535 C529 0.959 . S
H536 C529 0.961 . S
H537 C529 0.960 . S
H538 C530 0.930 . S
H539 C531 0.929 . S
H540 C548 0.929 . S
H541 C550 0.930 . S
H542 C552 0.930 . S
H543 C555 0.929 . S
H544 C558 0.930 . S
H545 C560 0.960 . S
H546 C560 0.960 . S
H547 C560 0.960 . S
C548 H540 0.929 . S
C548 C549 1.377 . S
C548 C550 1.384 . S
C549 C548 1.377 . S
C549 C555 1.390 . S
C550 H541 0.930 . S
C550 C548 1.384 . S
C550 C551 1.372 . S
C551 C550 1.372 . S
C551 C552 1.400 . S
C551 C556 1.490 . S
C552 H542 0.930 . S
C552 C551 1.400 . S
C552 C555 1.386 . S
H553 C569 0.930 . S
H554 C570 0.931 . S
C555 H543 0.929 . S
C555 C549 1.390 . S
C555 C552 1.386 . S
C556 C551 1.490 . S
C556 C558 1.395 . S
C556 C559 1.403 . S
H557 C563 0.930 . S
C558 H544 0.930 . S
C558 C556 1.395 . S
C558 C561 1.403 . S
C559 C556 1.403 . S
C559 C560 1.524 . S
C559 C563 1.400 . S
C560 H545 0.960 . S
C560 H546 0.960 . S
C560 H547 0.960 . S
C560 C559 1.524 . S
C561 C558 1.403 . S
C561 C562 1.392 . S
C561 C565 1.495 . S
C562 C561 1.392 . S
C562 C563 1.385 . S
C562 C564 1.478 . S
C563 H557 0.930 . S
C563 C559 1.400 . S
C563 C562 1.385 . S
C564 C562 1.478 . S
C564 C566 1.381 . S
C564 C570 1.383 . S
C565 C561 1.495 . S
C565 H571 0.959 . S
C565 H572 0.961 . S
C565 H573 0.960 . S
C566 C564 1.381 . S
C566 C567 1.394 . S
C566 H574 0.930 1_655 S
C567 C566 1.394 . S
C567 C568 1.383 . S
C567 H575 0.929 1_655 S
C568 C567 1.383 . S
C568 C569 1.377 . S
C569 H553 0.930 . S
C569 C568 1.377 . S
C569 C570 1.379 . S
C570 H554 0.931 . S
C570 C564 1.383 . S
C570 C569 1.379 . S
H571 C565 0.959 . S
H572 C565 0.961 . S
H573 C565 0.960 . S
H574 C566 0.930 1_455 S
H575 C567 0.929 1_455 S
H576 C584 0.929 . S
H577 C586 0.930 . S
H578 C588 0.930 . S
H579 C591 0.929 . S
H580 C594 0.930 . S
H581 C596 0.960 . S
H582 C596 0.960 . S
H583 C596 0.960 . S
C584 H576 0.929 . S
C584 C585 1.377 . S
C584 C586 1.384 . S
C585 C584 1.377 . S
C585 C591 1.390 . S
C586 H577 0.930 . S
C586 C584 1.384 . S
C586 C587 1.372 . S
C587 C586 1.372 . S
C587 C588 1.400 . S
C587 C592 1.490 . S
C588 H578 0.930 . S
C588 C587 1.400 . S
C588 C591 1.386 . S
H589 C605 0.930 . S
H590 C606 0.931 . S
C591 H579 0.929 . S
C591 C585 1.390 . S
C591 C588 1.386 . S
C592 C587 1.490 . S
C592 C594 1.395 . S
C592 C595 1.403 . S
H593 C599 0.930 . S
C594 H580 0.930 . S
C594 C592 1.395 . S
C594 C597 1.403 . S
C595 C592 1.403 . S
C595 C596 1.524 . S
C595 C599 1.400 . S
C596 H581 0.960 . S
C596 H582 0.960 . S
C596 H583 0.960 . S
C596 C595 1.524 . S
C597 C594 1.403 . S
C597 C598 1.392 . S
C597 C601 1.495 . S
C598 C597 1.392 . S
C598 C599 1.385 . S
C598 C600 1.478 . S
C599 H593 0.930 . S
C599 C595 1.400 . S
C599 C598 1.385 . S
C600 C598 1.478 . S
C600 C602 1.381 . S
C600 C606 1.383 . S
C601 C597 1.495 . S
C601 H607 0.959 . S
C601 H608 0.961 . S
C601 H609 0.960 . S
C602 C600 1.381 . S
C602 C603 1.394 . S
C602 H610 0.930 . S
C603 C602 1.394 . S
C603 C604 1.383 . S
C603 H611 0.929 . S
C604 C603 1.383 . S
C604 C605 1.377 . S
C605 H589 0.930 . S
C605 C604 1.377 . S
C605 C606 1.379 . S
C606 H590 0.931 . S
C606 C600 1.383 . S
C606 C605 1.379 . S
H607 C601 0.959 . S
H608 C601 0.961 . S
H609 C601 0.960 . S
H610 C602 0.930 . S
H611 C603 0.929 . S
H612 C620 0.929 . S
H613 C622 0.930 . S
H614 C624 0.930 . S
H615 C627 0.929 . S
H616 C630 0.930 . S
H617 C632 0.960 . S
H618 C632 0.960 . S
H619 C632 0.960 . S
C620 H612 0.929 . S
C620 C621 1.377 . S
C620 C622 1.384 . S
C621 C620 1.377 . S
C621 C627 1.390 . S
C622 H613 0.930 . S
C622 C620 1.384 . S
C622 C623 1.372 . S
C623 C622 1.372 . S
C623 C624 1.400 . S
C623 C628 1.490 . S
C624 H614 0.930 . S
C624 C623 1.400 . S
C624 C627 1.386 . S
H625 C641 0.930 . S
H626 C642 0.931 . S
C627 H615 0.929 . S
C627 C621 1.390 . S
C627 C624 1.386 . S
C628 C623 1.490 . S
C628 C630 1.395 . S
C628 C631 1.403 . S
H629 C635 0.936 . S
C630 H616 0.930 . S
C630 C628 1.395 . S
C630 C633 1.403 . S
C631 C628 1.403 . S
C631 C632 1.524 1_565 S
C631 C635 1.399 1_565 S
C632 H617 0.960 . S
C632 H618 0.960 . S
C632 H619 0.960 . S
C632 C631 1.524 1_545 S
C633 C630 1.403 . S
C633 C634 1.392 . S
C633 C637 1.495 . S
C634 C633 1.392 . S
C634 C635 1.381 1_565 S
C634 C636 1.478 . S
C635 H629 0.936 . S
C635 C631 1.399 1_545 S
C635 C634 1.381 1_545 S
C636 C634 1.478 . S
C636 C638 1.383 1_565 S
C636 C642 1.383 . S
C637 C633 1.495 . S
C637 H643 0.959 1_655 S
C637 H644 0.961 . S
C637 H645 0.960 1_655 S
C638 C636 1.383 1_545 S
C638 C639 1.390 1_655 S
C638 H646 0.930 1_655 S
C639 C638 1.390 1_455 S
C639 C640 1.364 1_445 S
C639 H647 0.949 . S
C640 C639 1.364 1_665 S
C640 C641 1.389 . S
C641 H625 0.930 . S
C641 C640 1.389 . S
C641 C642 1.379 . S
C642 H626 0.931 . S
C642 C636 1.383 . S
C642 C641 1.379 . S
H643 C637 0.959 1_455 S
H644 C637 0.961 . S
H645 C637 0.960 1_455 S
H646 C638 0.930 1_455 S
H647 C639 0.949 . S
H648 C656 0.929 . S
H649 C658 0.930 . S
H650 C660 0.930 . S
H651 C663 0.929 . S
H652 C666 0.930 . S
H653 C668 0.960 . S
H654 C668 0.960 . S
H655 C668 0.960 . S
C656 H648 0.929 . S
C656 C657 1.377 . S
C656 C658 1.384 . S
C657 C656 1.377 . S
C657 C663 1.390 . S
C658 H649 0.930 . S
C658 C656 1.384 . S
C658 C659 1.372 . S
C659 C658 1.372 . S
C659 C660 1.400 . S
C659 C664 1.490 . S
C660 H650 0.930 . S
C660 C659 1.400 . S
C660 C663 1.386 . S
H661 C677 0.930 . S
H662 C678 0.931 . S
C663 H651 0.929 . S
C663 C657 1.390 . S
C663 C660 1.386 . S
C664 C659 1.490 . S
C664 C666 1.395 . S
C664 C667 1.403 . S
H665 C671 0.930 . S
C666 H652 0.930 . S
C666 C664 1.395 . S
C666 C669 1.403 . S
C667 C664 1.403 . S
C667 C668 1.524 . S
C667 C671 1.400 . S
C668 H653 0.960 . S
C668 H654 0.960 . S
C668 H655 0.960 . S
C668 C667 1.524 . S
C669 C666 1.403 . S
C669 C670 1.392 . S
C669 C673 1.531 . S
C670 C669 1.392 . S
C670 C671 1.385 . S
C670 C672 1.478 . S
C671 H665 0.930 . S
C671 C667 1.400 . S
C671 C670 1.385 . S
C672 C670 1.478 . S
C672 C674 1.381 . S
C672 C678 1.383 . S
C673 C669 1.531 . S
C673 H679 0.935 1_545 S
C673 H680 0.961 1_545 S
C673 H681 0.949 1_545 S
C674 C672 1.381 . S
C674 C675 1.394 . S
C674 H682 0.930 . S
C675 C674 1.394 . S
C675 C676 1.383 . S
C675 H683 0.929 . S
C676 C675 1.383 . S
C676 C677 1.377 . S
C677 H661 0.930 . S
C677 C676 1.377 . S
C677 C678 1.379 . S
C678 H662 0.931 . S
C678 C672 1.383 . S
C678 C677 1.379 . S
H679 C673 0.935 1_565 S
H680 C673 0.961 1_565 S
H681 C673 0.949 1_565 S
H682 C674 0.930 . S
H683 C675 0.929 . S
H684 C692 0.929 . S
H685 C694 0.930 . S
H686 C696 0.930 . S
H687 C699 0.929 . S
H688 C702 0.930 . S
H689 C704 0.960 . S
H690 C704 0.960 . S
H691 C704 0.960 . S
C692 H684 0.929 . S
C692 C693 1.377 . S
C692 C694 1.384 . S
C693 C692 1.377 . S
C693 C699 1.390 . S
C694 H685 0.930 . S
C694 C692 1.384 . S
C694 C695 1.372 . S
C695 C694 1.372 . S
C695 C696 1.400 . S
C695 C700 1.490 . S
C696 H686 0.930 . S
C696 C695 1.400 . S
C696 C699 1.386 . S
H697 C713 0.930 . S
H698 C714 0.931 . S
C699 H687 0.929 . S
C699 C693 1.390 . S
C699 C696 1.386 . S
C700 C695 1.490 . S
C700 C702 1.395 . S
C700 C703 1.403 . S
H701 C707 0.930 . S
C702 H688 0.930 . S
C702 C700 1.395 . S
C702 C705 1.403 . S
C703 C700 1.403 . S
C703 C704 1.524 . S
C703 C707 1.400 . S
C704 H689 0.960 . S
C704 H690 0.960 . S
C704 H691 0.960 . S
C704 C703 1.524 . S
C705 C702 1.403 . S
C705 C706 1.392 . S
C705 C709 1.495 . S
C706 C705 1.392 . S
C706 C707 1.385 . S
C706 C708 1.478 . S
C707 H701 0.930 . S
C707 C703 1.400 . S
C707 C706 1.385 . S
C708 C706 1.478 . S
C708 C710 1.381 . S
C708 C714 1.383 . S
C709 C705 1.495 . S
C709 H715 0.959 . S
C709 H716 0.961 . S
C709 H717 0.960 . S
C710 C708 1.381 . S
C710 C711 1.394 . S
C710 H718 0.930 . S
C711 C710 1.394 . S
C711 C712 1.383 . S
C711 H719 0.929 . S
C712 C711 1.383 . S
C712 C713 1.377 . S
C713 H697 0.930 . S
C713 C712 1.377 . S
C713 C714 1.379 . S
C714 H698 0.931 . S
C714 C708 1.383 . S
C714 C713 1.379 . S
H715 C709 0.959 . S
H716 C709 0.961 . S
H717 C709 0.960 . S
H718 C710 0.930 . S
H719 C711 0.929 . S
H720 C728 0.929 . S
H721 C730 0.930 . S
H722 C732 0.930 . S
H723 C735 0.929 . S
H724 C738 0.930 . S
H725 C740 0.960 . S
H726 C740 0.960 . S
H727 C740 0.960 . S
C728 H720 0.929 . S
C728 C729 1.377 . S
C728 C730 1.384 . S
C729 C728 1.377 . S
C729 C735 1.390 . S
C730 H721 0.930 . S
C730 C728 1.384 . S
C730 C731 1.372 . S
C731 C730 1.372 . S
C731 C732 1.400 . S
C731 C736 1.490 . S
C732 H722 0.930 . S
C732 C731 1.400 . S
C732 C735 1.386 . S
H733 C749 0.930 . S
H734 C750 0.931 . S
C735 H723 0.929 . S
C735 C729 1.390 . S
C735 C732 1.386 . S
C736 C731 1.490 . S
C736 C738 1.395 . S
C736 C739 1.403 . S
H737 C743 0.930 . S
C738 H724 0.930 . S
C738 C736 1.395 . S
C738 C741 1.403 . S
C739 C736 1.403 . S
C739 C740 1.524 . S
C739 C743 1.400 . S
C740 H725 0.960 . S
C740 H726 0.960 . S
C740 H727 0.960 . S
C740 C739 1.524 . S
C741 C738 1.403 . S
C741 C742 1.392 . S
C741 C745 1.495 . S
C742 C741 1.392 . S
C742 C743 1.385 . S
C742 C744 1.478 . S
C743 H737 0.930 . S
C743 C739 1.400 . S
C743 C742 1.385 . S
C744 C742 1.478 . S
C744 C746 1.381 . S
C744 C750 1.383 . S
C745 C741 1.495 . S
C745 H751 0.959 . S
C745 H752 0.961 . S
C745 H753 0.960 . S
C746 C744 1.381 . S
C746 C747 1.394 . S
C746 H754 0.930 . S
C747 C746 1.394 . S
C747 C748 1.383 . S
C747 H755 0.929 . S
C748 C747 1.383 . S
C748 C749 1.377 . S
C749 H733 0.930 . S
C749 C748 1.377 . S
C749 C750 1.379 . S
C750 H734 0.931 . S
C750 C744 1.383 . S
C750 C749 1.379 . S
H751 C745 0.959 . S
H752 C745 0.961 . S
H753 C745 0.960 . S
H754 C746 0.930 . S
H755 C747 0.929 . S
H756 C764 0.929 . S
H757 C766 0.930 . S
H758 C768 0.930 . S
H759 C771 0.929 . S
H760 C774 0.930 . S
H761 C776 0.960 . S
H762 C776 0.960 . S
H763 C776 0.960 . S
C764 H756 0.929 . S
C764 C765 1.377 1_554 S
C764 C766 1.384 . S
C765 C764 1.377 1_556 S
C765 C771 1.390 . S
C766 H757 0.930 . S
C766 C764 1.384 . S
C766 C767 1.372 1_554 S
C767 C766 1.372 1_556 S
C767 C768 1.400 . S
C767 C772 1.490 1_556 S
C768 H758 0.930 . S
C768 C767 1.400 . S
C768 C771 1.386 . S
H769 C785 0.930 1_556 S
H770 C786 0.931 1_556 S
C771 H759 0.929 . S
C771 C765 1.390 . S
C771 C768 1.386 . S
C772 C767 1.490 1_554 S
C772 C774 1.395 1_565 S
C772 C775 1.403 1_554 S
H773 C779 0.935 . S
C774 H760 0.930 . S
C774 C772 1.395 1_545 S
C774 C777 1.403 . S
C775 C772 1.403 1_556 S
C775 C776 1.524 . S
C775 C779 1.403 . S
C776 H761 0.960 . S
C776 H762 0.960 . S
C776 H763 0.960 . S
C776 C775 1.524 . S
C777 C774 1.403 . S
C777 C778 1.392 . S
C777 C781 1.495 . S
C778 C777 1.392 . S
C778 C779 1.378 1_544 S
C778 C780 1.478 . S
C779 H773 0.935 . S
C779 C775 1.403 . S
C779 C778 1.378 1_566 S
C780 C778 1.478 . S
C780 C782 1.381 . S
C780 C786 1.383 . S
C781 C777 1.495 . S
C781 H787 0.959 . S
C781 H788 0.961 . S
C781 H789 0.960 . S
C782 C780 1.381 . S
C782 C783 1.394 . S
C782 H790 0.930 . S
C783 C782 1.394 . S
C783 C784 1.383 . S
C783 H791 0.929 . S
C784 C783 1.383 . S
C784 C785 1.377 . S
C785 H769 0.930 1_554 S
C785 C784 1.377 . S
C785 C786 1.379 . S
C786 H770 0.931 1_554 S
C786 C780 1.383 . S
C786 C785 1.379 . S
H787 C781 0.959 . S
H788 C781 0.961 . S
H789 C781 0.960 . S
H790 C782 0.930 . S
H791 C783 0.929 . S
H792 C800 0.929 . S
H793 C802 0.930 . S
H794 C804 0.930 . S
H795 C807 0.929 . S
H796 C810 0.930 . S
H797 C812 0.960 . S
H798 C812 0.960 . S
H799 C812 0.960 . S
C800 H792 0.929 . S
C800 C801 1.377 . S
C800 C802 1.384 . S
C801 C800 1.377 . S
C801 C807 1.390 . S
C802 H793 0.930 . S
C802 C800 1.384 . S
C802 C803 1.372 . S
C803 C802 1.372 . S
C803 C804 1.400 . S
C803 C808 1.490 . S
C804 H794 0.930 . S
C804 C803 1.400 . S
C804 C807 1.386 . S
H805 C821 0.930 . S
H806 C822 0.931 . S
C807 H795 0.929 . S
C807 C801 1.390 . S
C807 C804 1.386 . S
C808 C803 1.490 . S
C808 C810 1.395 . S
C808 C811 1.403 . S
H809 C815 0.930 . S
C810 H796 0.930 . S
C810 C808 1.395 . S
C810 C813 1.403 . S
C811 C808 1.403 . S
C811 C812 1.524 . S
C811 C815 1.400 . S
C812 H797 0.960 . S
C812 H798 0.960 . S
C812 H799 0.960 . S
C812 C811 1.524 . S
C813 C810 1.403 . S
C813 C814 1.392 . S
C813 C817 1.495 . S
C814 C813 1.392 . S
C814 C815 1.385 . S
C814 C816 1.478 . S
C815 H809 0.930 . S
C815 C811 1.400 . S
C815 C814 1.385 . S
C816 C814 1.478 . S
C816 C818 1.381 . S
C816 C822 1.383 . S
C817 C813 1.495 . S
C817 H823 0.959 . S
C817 H824 0.961 . S
C817 H825 0.919 1_545 S
C818 C816 1.381 . S
C818 C819 1.394 1_545 S
C818 H826 0.930 1_545 S
C819 C818 1.394 1_565 S
C819 C820 1.383 1_565 S
C819 H827 0.929 . S
C820 C819 1.383 1_545 S
C820 C821 1.377 . S
C821 H805 0.930 . S
C821 C820 1.377 . S
C821 C822 1.379 . S
C822 H806 0.931 . S
C822 C816 1.383 . S
C822 C821 1.379 . S
H823 C817 0.959 . S
H824 C817 0.961 . S
H825 C817 0.919 1_565 S
H826 C818 0.930 1_565 S
H827 C819 0.929 . S
H828 C836 0.929 . S
H829 C838 0.930 . S
H830 C840 0.930 . S
H831 C843 0.929 . S
H832 C846 0.930 . S
H833 C848 0.960 . S
H834 C848 0.960 . S
H835 C848 0.960 . S
C836 H828 0.929 . S
C836 C837 1.377 . S
C836 C838 1.384 . S
C837 C836 1.377 . S
C837 C843 1.390 . S
C838 H829 0.930 . S
C838 C836 1.384 . S
C838 C839 1.372 . S
C839 C838 1.372 . S
C839 C840 1.400 . S
C839 C844 1.490 . S
C840 H830 0.930 . S
C840 C839 1.400 . S
C840 C843 1.386 . S
H841 C857 0.930 . S
H842 C858 0.931 . S
C843 H831 0.929 . S
C843 C837 1.390 . S
C843 C840 1.386 . S
C844 C839 1.490 . S
C844 C846 1.395 . S
C844 C847 1.403 . S
H845 C851 0.930 . S
C846 H832 0.930 . S
C846 C844 1.395 . S
C846 C849 1.403 . S
C847 C844 1.403 . S
C847 C848 1.524 . S
C847 C851 1.400 . S
C848 H833 0.960 . S
C848 H834 0.960 . S
C848 H835 0.960 . S
C848 C847 1.524 . S
C849 C846 1.403 . S
C849 C850 1.392 . S
C849 C853 1.495 1_554 S
C850 C849 1.392 . S
C850 C851 1.385 . S
C850 C852 1.478 . S
C851 H845 0.930 . S
C851 C847 1.400 . S
C851 C850 1.385 . S
C852 C850 1.478 . S
C852 C854 1.381 . S
C852 C858 1.383 . S
C853 C849 1.495 1_556 S
C853 H859 0.959 . S
C853 H860 0.961 1_556 S
C853 H861 0.960 . S
C854 C852 1.381 . S
C854 C855 1.391 1_554 S
C854 H862 0.930 1_554 S
C855 C854 1.391 1_556 S
C855 C856 1.375 1_556 S
C855 H863 0.941 . S
C856 C855 1.375 1_554 S
C856 C857 1.377 . S
C857 H841 0.930 . S
C857 C856 1.377 . S
C857 C858 1.379 . S
C858 H842 0.931 . S
C858 C852 1.383 . S
C858 C857 1.379 . S
H859 C853 0.959 . S
H860 C853 0.961 1_554 S
H861 C853 0.960 . S
H862 C854 0.930 1_556 S
H863 C855 0.941 . S
H864 C872 0.929 . S
H865 C874 0.930 . S
H866 C876 0.930 . S
H867 C879 0.929 . S
H868 C882 0.930 . S
H869 C884 0.960 . S
H870 C884 0.960 . S
H871 C884 0.960 . S
C872 H864 0.929 . S
C872 C873 1.377 . S
C872 C874 1.384 . S
C873 C872 1.377 . S
C873 C879 1.390 . S
C874 H865 0.930 . S
C874 C872 1.384 . S
C874 C875 1.372 . S
C875 C874 1.372 . S
C875 C876 1.400 . S
C875 C880 1.490 . S
C876 H866 0.930 . S
C876 C875 1.400 . S
C876 C879 1.386 . S
H877 C893 0.930 . S
H878 C894 0.931 . S
C879 H867 0.929 . S
C879 C873 1.390 . S
C879 C876 1.386 . S
C880 C875 1.490 . S
C880 C882 1.395 . S
C880 C883 1.403 . S
H881 C887 0.930 . S
C882 H868 0.930 . S
C882 C880 1.395 . S
C882 C885 1.403 . S
C883 C880 1.403 . S
C883 C884 1.524 . S
C883 C887 1.400 . S
C884 H869 0.960 . S
C884 H870 0.960 . S
C884 H871 0.960 . S
C884 C883 1.524 . S
C885 C882 1.403 . S
C885 C886 1.392 . S
C885 C889 1.495 . S
C886 C885 1.392 . S
C886 C887 1.385 . S
C886 C888 1.478 . S
C887 H881 0.930 . S
C887 C883 1.400 . S
C887 C886 1.385 . S
C888 C886 1.478 . S
C888 C890 1.381 . S
C888 C894 1.383 . S
C889 C885 1.495 . S
C889 H895 0.959 . S
C889 H896 0.961 . S
C889 H897 0.960 . S
C890 C888 1.381 . S
C890 C891 1.394 . S
C890 H898 0.930 . S
C891 C890 1.394 . S
C891 C892 1.383 . S
C891 H899 0.929 . S
C892 C891 1.383 . S
C892 C893 1.377 . S
C893 H877 0.930 . S
C893 C892 1.377 . S
C893 C894 1.379 . S
C894 H878 0.931 . S
C894 C888 1.383 . S
C894 C893 1.379 . S
H895 C889 0.959 . S
H896 C889 0.961 . S
H897 C889 0.960 . S
H898 C890 0.930 . S
H899 C891 0.929 . S
H900 C908 0.929 . S
H901 C910 0.930 1_455 S
H902 C912 0.930 . S
H903 C915 0.929 . S
H904 C918 0.930 . S
H905 C920 0.960 . S
H906 C920 0.960 . S
H907 C920 0.960 . S
C908 H900 0.929 . S
C908 C909 1.377 . S
C908 C910 1.384 . S
C909 C908 1.377 . S
C909 C915 1.390 . S
C910 H901 0.930 1_655 S
C910 C908 1.384 . S
C910 C911 1.372 . S
C911 C910 1.372 . S
C911 C912 1.400 . S
C911 C916 1.490 . S
C912 H902 0.930 . S
C912 C911 1.400 . S
C912 C915 1.386 . S
H913 C929 0.930 . S
H914 C930 0.931 . S
C915 H903 0.929 . S
C915 C909 1.390 . S
C915 C912 1.386 . S
C916 C911 1.490 . S
C916 C918 1.395 1_556 S
C916 C919 1.403 . S
H917 C923 0.930 . S
C918 H904 0.930 . S
C918 C916 1.395 1_554 S
C918 C921 1.403 . S
C919 C916 1.403 . S
C919 C920 1.524 . S
C919 C923 1.400 . S
C920 H905 0.960 . S
C920 H906 0.960 . S
C920 H907 0.960 . S
C920 C919 1.524 . S
C921 C918 1.403 . S
C921 C922 1.392 1_554 S
C921 C925 1.495 . S
C922 C921 1.392 1_556 S
C922 C923 1.385 . S
C922 C924 1.476 1_556 S
C923 H917 0.930 . S
C923 C919 1.400 . S
C923 C922 1.385 . S
C924 C922 1.476 1_554 S
C924 C926 1.383 1_655 S
C924 C930 1.382 1_554 S
C925 C921 1.495 . S
C925 H931 0.959 . S
C925 H932 0.961 . S
C925 H933 0.960 1_655 S
C926 C924 1.383 1_455 S
C926 C927 1.394 . S
C926 H934 0.930 . S
C927 C926 1.394 . S
C927 C928 1.408 . S
C927 H935 0.929 . S
C928 C927 1.408 . S
C928 C929 1.342 1_454 S
C929 H913 0.930 . S
C929 C928 1.342 1_656 S
C929 C930 1.379 . S
C930 H914 0.931 . S
C930 C924 1.382 1_556 S
C930 C929 1.379 . S
H931 C925 0.959 . S
H932 C925 0.961 . S
H933 C925 0.960 1_455 S
H934 C926 0.930 . S
H935 C927 0.929 . S
H936 C944 0.929 . S
H937 C946 0.930 . S
H938 C948 0.930 . S
H939 C951 0.929 . S
H940 C954 0.930 . S
H941 C956 0.960 . S
H942 C956 0.960 . S
H943 C956 0.960 . S
C944 H936 0.929 . S
C944 C945 1.377 . S
C944 C946 1.384 . S
C945 C944 1.377 . S
C945 C951 1.390 . S
C946 H937 0.930 . S
C946 C944 1.384 . S
C946 C947 1.372 . S
C947 C946 1.372 . S
C947 C948 1.400 . S
C947 C952 1.490 . S
C948 H938 0.930 . S
C948 C947 1.400 . S
C948 C951 1.386 . S
H949 C965 0.930 . S
H950 C966 0.931 . S
C951 H939 0.929 . S
C951 C945 1.390 . S
C951 C948 1.386 . S
C952 C947 1.490 . S
C952 C954 1.395 . S
C952 C955 1.403 . S
H953 C959 0.930 . S
C954 H940 0.930 . S
C954 C952 1.395 . S
C954 C957 1.403 . S
C955 C952 1.403 . S
C955 C956 1.524 . S
C955 C959 1.400 . S
C956 H941 0.960 . S
C956 H942 0.960 . S
C956 H943 0.960 . S
C956 C955 1.524 . S
C957 C954 1.403 . S
C957 C958 1.392 . S
C957 C961 1.495 . S
C958 C957 1.392 . S
C958 C959 1.385 . S
C958 C960 1.478 . S
C959 H953 0.930 . S
C959 C955 1.400 . S
C959 C958 1.385 . S
C960 C958 1.478 . S
C960 C962 1.381 . S
C960 C966 1.383 . S
C961 C957 1.495 . S
C961 H967 0.959 . S
C961 H968 0.961 . S
C961 H969 0.960 . S
C962 C960 1.381 . S
C962 C963 1.394 . S
C962 H970 0.930 . S
C963 C962 1.394 . S
C963 C964 1.383 . S
C963 H971 0.929 . S
C964 C963 1.383 . S
C964 C965 1.377 . S
C965 H949 0.930 . S
C965 C964 1.377 . S
C965 C966 1.379 . S
C966 H950 0.931 . S
C966 C960 1.383 . S
C966 C965 1.379 . S
H967 C961 0.959 . S
H968 C961 0.961 . S
H969 C961 0.960 . S
H970 C962 0.930 . S
H971 C963 0.929 . S
H972 C980 0.929 . S
H973 C982 0.930 . S
H974 C984 0.930 . S
H975 C987 0.929 . S
H976 C990 0.930 . S
H977 C992 0.960 . S
H978 C992 0.960 . S
H979 C992 0.960 . S
C980 H972 0.929 . S
C980 C981 1.377 . S
C980 C982 1.384 . S
C981 C980 1.377 . S
C981 C987 1.390 . S
C982 H973 0.930 . S
C982 C980 1.384 . S
C982 C983 1.372 . S
C983 C982 1.372 . S
C983 C984 1.400 . S
C983 C988 1.490 . S
C984 H974 0.930 . S
C984 C983 1.400 . S
C984 C987 1.386 . S
H985 C1001 0.930 . S
H986 C1002 0.931 . S
C987 H975 0.929 . S
C987 C981 1.390 . S
C987 C984 1.386 . S
C988 C983 1.490 . S
C988 C990 1.395 . S
C988 C991 1.403 . S
H989 C995 0.930 . S
C990 H976 0.930 . S
C990 C988 1.395 . S
C990 C993 1.403 . S
C991 C988 1.403 . S
C991 C992 1.524 . S
C991 C995 1.400 . S
C992 H977 0.960 . S
C992 H978 0.960 . S
C992 H979 0.960 . S
C992 C991 1.524 . S
C993 C990 1.403 . S
C993 C994 1.392 . S
C993 C997 1.495 1_455 S
C994 C993 1.392 . S
C994 C995 1.385 . S
C994 C996 1.478 . S
C995 H989 0.930 . S
C995 C991 1.400 . S
C995 C994 1.385 . S
C996 C994 1.478 . S
C996 C998 1.381 . S
C996 C1002 1.383 . S
C997 C993 1.495 1_655 S
C997 H1003 0.959 . S
C997 H1004 0.961 . S
C997 H1005 0.960 . S
C998 C996 1.381 . S
C998 C999 1.394 . S
C998 H1006 0.930 . S
C999 C998 1.394 . S
C999 C1000 1.383 . S
C999 H1007 0.929 . S
C1000 C999 1.383 . S
C1000 C1001 1.377 . S
C1001 H985 0.930 . S
C1001 C1000 1.377 . S
C1001 C1002 1.379 . S
C1002 H986 0.931 . S
C1002 C996 1.383 . S
C1002 C1001 1.379 . S
H1003 C997 0.959 . S
H1004 C997 0.961 . S
H1005 C997 0.960 . S
H1006 C998 0.930 . S
H1007 C999 0.929 . S
H1008 C1016 0.929 . S
H1009 C1018 0.930 . S
H1010 C1020 0.930 . S
H1011 C1023 0.929 . S
H1012 C1026 0.930 . S
H1013 C1028 0.960 . S
H1014 C1028 0.960 . S
H1015 C1028 0.960 . S
C1016 H1008 0.929 . S
C1016 C1017 1.377 . S
C1016 C1018 1.384 . S
C1017 C1016 1.377 . S
C1017 C1023 1.390 . S
C1018 H1009 0.930 . S
C1018 C1016 1.384 . S
C1018 C1019 1.372 . S
C1019 C1018 1.372 . S
C1019 C1020 1.400 . S
C1019 C1024 1.490 . S
C1020 H1010 0.930 . S
C1020 C1019 1.400 . S
C1020 C1023 1.386 . S
H1021 C1037 0.930 . S
H1022 C1038 0.931 . S
C1023 H1011 0.929 . S
C1023 C1017 1.390 . S
C1023 C1020 1.386 . S
C1024 C1019 1.490 . S
C1024 C1026 1.395 . S
C1024 C1027 1.403 . S
H1025 C1031 0.930 . S
C1026 H1012 0.930 . S
C1026 C1024 1.395 . S
C1026 C1029 1.403 . S
C1027 C1024 1.403 . S
C1027 C1028 1.524 . S
C1027 C1031 1.400 . S
C1028 H1013 0.960 . S
C1028 H1014 0.960 . S
C1028 H1015 0.960 . S
C1028 C1027 1.524 . S
C1029 C1026 1.403 . S
C1029 C1030 1.392 . S
C1029 C1033 1.495 . S
C1030 C1029 1.392 . S
C1030 C1031 1.385 . S
C1030 C1032 1.478 . S
C1031 H1025 0.930 . S
C1031 C1027 1.400 . S
C1031 C1030 1.385 . S
C1032 C1030 1.478 . S
C1032 C1034 1.381 . S
C1032 C1038 1.383 . S
C1033 C1029 1.495 . S
C1033 H1039 0.959 . S
C1033 H1040 0.961 . S
C1033 H1041 0.960 . S
C1034 C1032 1.381 . S
C1034 C1035 1.394 . S
C1034 H1042 0.930 . S
C1035 C1034 1.394 . S
C1035 C1036 1.383 . S
C1035 H1043 0.929 . S
C1036 C1035 1.383 . S
C1036 C1037 1.377 . S
C1037 H1021 0.930 . S
C1037 C1036 1.377 . S
C1037 C1038 1.379 . S
C1038 H1022 0.931 . S
C1038 C1032 1.383 . S
C1038 C1037 1.379 . S
H1039 C1033 0.959 . S
H1040 C1033 0.961 . S
H1041 C1033 0.960 . S
H1042 C1034 0.930 . S
H1043 C1035 0.929 . S
C189 C5 1.784 . S
C208 C106 1.906 . S
C225 C18 1.629 . S
C244 C130 1.665 1_565 S
C280 C150 1.184 . S
C261 C30 1.153 . S
C297 C41 1.097 . S
C316 C173 1.093 1_655 S
C352 C132 2.020 . S
C333 C7 1.989 . S
C388 C108 1.957 . S
C369 C16 1.725 . S
C424 C176 1.656 . S
C405 C29 1.589 . S
C460 C153 1.043 . S
C441 C38 1.060 . S
C477 C8 1.529 . S
C496 C178 1.511 . S
C532 C127 1.801 . S
C513 C27 1.518 . S
C549 C40 1.620 . S
C568 C105 1.634 . S
C585 C19 1.019 . S
C604 C155 1.000 . S
C640 C109 1.664 1_565 S
C621 C51 1.654 . S
C657 C62 1.650 . S
C676 C131 1.763 . S
C693 C74 1.603 . S
C712 C151 1.663 . S
C729 C84 1.491 . S
C748 C174 1.616 . S
C765 C49 1.884 . S
C784 C129 1.915 . S
C820 C107 1.462 . S
C801 C63 1.438 . S
C856 C177 1.350 . S
C837 C71 1.102 . S
C892 C154 1.115 . S
C873 C85 1.073 . S
C909 C52 1.939 . S
C928 C175 1.921 1_554 S
C964 C128 1.844 . S
C945 C73 1.708 . S
C1000 C104 1.323 . S
C981 C82 1.028 . S
C1017 C60 1.604 . S
C1036 C152 1.950 . S
