# Generated by pormake.
# Topology gar, (4,6)-cn, num edge types: 1
# Building blocks:
#     Node 0, Type 0, BuildingBlock: QUQFOY_clean_sbu_1, # of connection points: 4
#     Node 1, Type 0, BuildingBlock: QUQFOY_clean_sbu_1, # of connection points: 4
#     Node 2, Type 0, BuildingBlock: QUQFOY_clean_sbu_1, # of connection points: 4
#     Node 3, Type 0, BuildingBlock: QUQFOY_clean_sbu_1, # of connection points: 4
#     Node 4, Type 0, BuildingBlock: QUQFOY_clean_sbu_1, # of connection points: 4
#     Node 5, Type 0, BuildingBlock: QUQFOY_clean_sbu_1, # of connection points: 4
#     Node 6, Type 0, BuildingBlock: QUQFOY_clean_sbu_1, # of connection points: 4
#     Node 7, Type 0, BuildingBlock: QUQFOY_clean_sbu_1, # of connection points: 4
#     Node 8, Type 0, BuildingBlock: QUQFOY_clean_sbu_1, # of connection points: 4
#     Node 9, Type 0, BuildingBlock: QUQFOY_clean_sbu_1, # of connection points: 4
#     Node 10, Type 0, BuildingBlock: QUQFOY_clean_sbu_1, # of connection points: 4
#     Node 11, Type 0, BuildingBlock: QUQFOY_clean_sbu_1, # of connection points: 4
#     Node 12, Type 0, BuildingBlock: QUQFOY_clean_sbu_1, # of connection points: 4
#     Node 13, Type 0, BuildingBlock: QUQFOY_clean_sbu_1, # of connection points: 4
#     Node 14, Type 0, BuildingBlock: QUQFOY_clean_sbu_1, # of connection points: 4
#     Node 15, Type 0, BuildingBlock: QUQFOY_clean_sbu_1, # of connection points: 4
#     Node 16, Type 0, BuildingBlock: QUQFOY_clean_sbu_1, # of connection points: 4
#     Node 17, Type 0, BuildingBlock: QUQFOY_clean_sbu_1, # of connection points: 4
#     Node 18, Type 0, BuildingBlock: QUQFOY_clean_sbu_1, # of connection points: 4
#     Node 19, Type 0, BuildingBlock: QUQFOY_clean_sbu_1, # of connection points: 4
#     Node 20, Type 0, BuildingBlock: QUQFOY_clean_sbu_1, # of connection points: 4
#     Node 21, Type 0, BuildingBlock: QUQFOY_clean_sbu_1, # of connection points: 4
#     Node 22, Type 0, BuildingBlock: QUQFOY_clean_sbu_1, # of connection points: 4
#     Node 23, Type 0, BuildingBlock: QUQFOY_clean_sbu_1, # of connection points: 4
#     Node 24, Type 1, BuildingBlock: BETDIP_clean_sbu_0, # of connection points: 6
#     Node 25, Type 1, BuildingBlock: BETDIP_clean_sbu_0, # of connection points: 6
#     Node 26, Type 1, BuildingBlock: BETDIP_clean_sbu_0, # of connection points: 6
#     Node 27, Type 1, BuildingBlock: BETDIP_clean_sbu_0, # of connection points: 6
#     Node 28, Type 1, BuildingBlock: BETDIP_clean_sbu_0, # of connection points: 6
#     Node 29, Type 1, BuildingBlock: BETDIP_clean_sbu_0, # of connection points: 6
#     Node 30, Type 1, BuildingBlock: BETDIP_clean_sbu_0, # of connection points: 6
#     Node 31, Type 1, BuildingBlock: BETDIP_clean_sbu_0, # of connection points: 6
#     Node 32, Type 1, BuildingBlock: BETDIP_clean_sbu_0, # of connection points: 6
#     Node 33, Type 1, BuildingBlock: BETDIP_clean_sbu_0, # of connection points: 6
#     Node 34, Type 1, BuildingBlock: BETDIP_clean_sbu_0, # of connection points: 6
#     Node 35, Type 1, BuildingBlock: BETDIP_clean_sbu_0, # of connection points: 6
#     Node 36, Type 1, BuildingBlock: BETDIP_clean_sbu_0, # of connection points: 6
#     Node 37, Type 1, BuildingBlock: BETDIP_clean_sbu_0, # of connection points: 6
#     Node 38, Type 1, BuildingBlock: BETDIP_clean_sbu_0, # of connection points: 6
#     Node 39, Type 1, BuildingBlock: BETDIP_clean_sbu_0, # of connection points: 6
#     Edge 40, Type (0, 1), BuildingBlock: EZIPEK_clean_linker_0, # of connection points: 2
#     Edge 41, Type (0, 1), BuildingBlock: EZIPEK_clean_linker_0, # of connection points: 2
#     Edge 42, Type (0, 1), BuildingBlock: EZIPEK_clean_linker_0, # of connection points: 2
#     Edge 43, Type (0, 1), BuildingBlock: EZIPEK_clean_linker_0, # of connection points: 2
#     Edge 44, Type (0, 1), BuildingBlock: EZIPEK_clean_linker_0, # of connection points: 2
#     Edge 45, Type (0, 1), BuildingBlock: EZIPEK_clean_linker_0, # of connection points: 2
#     Edge 46, Type (0, 1), BuildingBlock: EZIPEK_clean_linker_0, # of connection points: 2
#     Edge 47, Type (0, 1), BuildingBlock: EZIPEK_clean_linker_0, # of connection points: 2
#     Edge 48, Type (0, 1), BuildingBlock: EZIPEK_clean_linker_0, # of connection points: 2
#     Edge 49, Type (0, 1), BuildingBlock: EZIPEK_clean_linker_0, # of connection points: 2
#     Edge 50, Type (0, 1), BuildingBlock: EZIPEK_clean_linker_0, # of connection points: 2
#     Edge 51, Type (0, 1), BuildingBlock: EZIPEK_clean_linker_0, # of connection points: 2
#     Edge 52, Type (0, 1), BuildingBlock: EZIPEK_clean_linker_0, # of connection points: 2
#     Edge 53, Type (0, 1), BuildingBlock: EZIPEK_clean_linker_0, # of connection points: 2
#     Edge 54, Type (0, 1), BuildingBlock: EZIPEK_clean_linker_0, # of connection points: 2
#     Edge 55, Type (0, 1), BuildingBlock: EZIPEK_clean_linker_0, # of connection points: 2
#     Edge 56, Type (0, 1), BuildingBlock: EZIPEK_clean_linker_0, # of connection points: 2
#     Edge 57, Type (0, 1), BuildingBlock: EZIPEK_clean_linker_0, # of connection points: 2
#     Edge 58, Type (0, 1), BuildingBlock: EZIPEK_clean_linker_0, # of connection points: 2
#     Edge 59, Type (0, 1), BuildingBlock: EZIPEK_clean_linker_0, # of connection points: 2
#     Edge 60, Type (0, 1), BuildingBlock: EZIPEK_clean_linker_0, # of connection points: 2
#     Edge 61, Type (0, 1), BuildingBlock: EZIPEK_clean_linker_0, # of connection points: 2
#     Edge 62, Type (0, 1), BuildingBlock: EZIPEK_clean_linker_0, # of connection points: 2
#     Edge 63, Type (0, 1), BuildingBlock: EZIPEK_clean_linker_0, # of connection points: 2
#     Edge 64, Type (0, 1), BuildingBlock: EZIPEK_clean_linker_0, # of connection points: 2
#     Edge 65, Type (0, 1), BuildingBlock: EZIPEK_clean_linker_0, # of connection points: 2
#     Edge 66, Type (0, 1), BuildingBlock: EZIPEK_clean_linker_0, # of connection points: 2
#     Edge 67, Type (0, 1), BuildingBlock: EZIPEK_clean_linker_0, # of connection points: 2
#     Edge 68, Type (0, 1), BuildingBlock: EZIPEK_clean_linker_0, # of connection points: 2
#     Edge 69, Type (0, 1), BuildingBlock: EZIPEK_clean_linker_0, # of connection points: 2
#     Edge 70, Type (0, 1), BuildingBlock: EZIPEK_clean_linker_0, # of connection points: 2
#     Edge 71, Type (0, 1), BuildingBlock: EZIPEK_clean_linker_0, # of connection points: 2
#     Edge 72, Type (0, 1), BuildingBlock: EZIPEK_clean_linker_0, # of connection points: 2
#     Edge 73, Type (0, 1), BuildingBlock: EZIPEK_clean_linker_0, # of connection points: 2
#     Edge 74, Type (0, 1), BuildingBlock: EZIPEK_clean_linker_0, # of connection points: 2
#     Edge 75, Type (0, 1), BuildingBlock: EZIPEK_clean_linker_0, # of connection points: 2
#     Edge 76, Type (0, 1), BuildingBlock: EZIPEK_clean_linker_0, # of connection points: 2
#     Edge 77, Type (0, 1), BuildingBlock: EZIPEK_clean_linker_0, # of connection points: 2
#     Edge 78, Type (0, 1), BuildingBlock: EZIPEK_clean_linker_0, # of connection points: 2
#     Edge 79, Type (0, 1), BuildingBlock: EZIPEK_clean_linker_0, # of connection points: 2
#     Edge 80, Type (0, 1), BuildingBlock: EZIPEK_clean_linker_0, # of connection points: 2
#     Edge 81, Type (0, 1), BuildingBlock: EZIPEK_clean_linker_0, # of connection points: 2
#     Edge 82, Type (0, 1), BuildingBlock: EZIPEK_clean_linker_0, # of connection points: 2
#     Edge 83, Type (0, 1), BuildingBlock: EZIPEK_clean_linker_0, # of connection points: 2
#     Edge 84, Type (0, 1), BuildingBlock: EZIPEK_clean_linker_0, # of connection points: 2
#     Edge 85, Type (0, 1), BuildingBlock: EZIPEK_clean_linker_0, # of connection points: 2
#     Edge 86, Type (0, 1), BuildingBlock: EZIPEK_clean_linker_0, # of connection points: 2
#     Edge 87, Type (0, 1), BuildingBlock: EZIPEK_clean_linker_0, # of connection points: 2
#     Edge 88, Type (0, 1), BuildingBlock: EZIPEK_clean_linker_0, # of connection points: 2
#     Edge 89, Type (0, 1), BuildingBlock: EZIPEK_clean_linker_0, # of connection points: 2
#     Edge 90, Type (0, 1), BuildingBlock: EZIPEK_clean_linker_0, # of connection points: 2
#     Edge 91, Type (0, 1), BuildingBlock: EZIPEK_clean_linker_0, # of connection points: 2
#     Edge 92, Type (0, 1), BuildingBlock: EZIPEK_clean_linker_0, # of connection points: 2
#     Edge 93, Type (0, 1), BuildingBlock: EZIPEK_clean_linker_0, # of connection points: 2
#     Edge 94, Type (0, 1), BuildingBlock: EZIPEK_clean_linker_0, # of connection points: 2
#     Edge 95, Type (0, 1), BuildingBlock: EZIPEK_clean_linker_0, # of connection points: 2
#     Edge 96, Type (0, 1), BuildingBlock: EZIPEK_clean_linker_0, # of connection points: 2
#     Edge 97, Type (0, 1), BuildingBlock: EZIPEK_clean_linker_0, # of connection points: 2
#     Edge 98, Type (0, 1), BuildingBlock: EZIPEK_clean_linker_0, # of connection points: 2
#     Edge 99, Type (0, 1), BuildingBlock: EZIPEK_clean_linker_0, # of connection points: 2
#     Edge 100, Type (0, 1), BuildingBlock: EZIPEK_clean_linker_0, # of connection points: 2
#     Edge 101, Type (0, 1), BuildingBlock: EZIPEK_clean_linker_0, # of connection points: 2
#     Edge 102, Type (0, 1), BuildingBlock: EZIPEK_clean_linker_0, # of connection points: 2
#     Edge 103, Type (0, 1), BuildingBlock: EZIPEK_clean_linker_0, # of connection points: 2
#     Edge 104, Type (0, 1), BuildingBlock: EZIPEK_clean_linker_0, # of connection points: 2
#     Edge 105, Type (0, 1), BuildingBlock: EZIPEK_clean_linker_0, # of connection points: 2
#     Edge 106, Type (0, 1), BuildingBlock: EZIPEK_clean_linker_0, # of connection points: 2
#     Edge 107, Type (0, 1), BuildingBlock: EZIPEK_clean_linker_0, # of connection points: 2
#     Edge 108, Type (0, 1), BuildingBlock: EZIPEK_clean_linker_0, # of connection points: 2
#     Edge 109, Type (0, 1), BuildingBlock: EZIPEK_clean_linker_0, # of connection points: 2
#     Edge 110, Type (0, 1), BuildingBlock: EZIPEK_clean_linker_0, # of connection points: 2
#     Edge 111, Type (0, 1), BuildingBlock: EZIPEK_clean_linker_0, # of connection points: 2
#     Edge 112, Type (0, 1), BuildingBlock: EZIPEK_clean_linker_0, # of connection points: 2
#     Edge 113, Type (0, 1), BuildingBlock: EZIPEK_clean_linker_0, # of connection points: 2
#     Edge 114, Type (0, 1), BuildingBlock: EZIPEK_clean_linker_0, # of connection points: 2
#     Edge 115, Type (0, 1), BuildingBlock: EZIPEK_clean_linker_0, # of connection points: 2
#     Edge 116, Type (0, 1), BuildingBlock: EZIPEK_clean_linker_0, # of connection points: 2
#     Edge 117, Type (0, 1), BuildingBlock: EZIPEK_clean_linker_0, # of connection points: 2
#     Edge 118, Type (0, 1), BuildingBlock: EZIPEK_clean_linker_0, # of connection points: 2
#     Edge 119, Type (0, 1), BuildingBlock: EZIPEK_clean_linker_0, # of connection points: 2
#     Edge 120, Type (0, 1), BuildingBlock: EZIPEK_clean_linker_0, # of connection points: 2
#     Edge 121, Type (0, 1), BuildingBlock: EZIPEK_clean_linker_0, # of connection points: 2
#     Edge 122, Type (0, 1), BuildingBlock: EZIPEK_clean_linker_0, # of connection points: 2
#     Edge 123, Type (0, 1), BuildingBlock: EZIPEK_clean_linker_0, # of connection points: 2
#     Edge 124, Type (0, 1), BuildingBlock: EZIPEK_clean_linker_0, # of connection points: 2
#     Edge 125, Type (0, 1), BuildingBlock: EZIPEK_clean_linker_0, # of connection points: 2
#     Edge 126, Type (0, 1), BuildingBlock: EZIPEK_clean_linker_0, # of connection points: 2
#     Edge 127, Type (0, 1), BuildingBlock: EZIPEK_clean_linker_0, # of connection points: 2
#     Edge 128, Type (0, 1), BuildingBlock: EZIPEK_clean_linker_0, # of connection points: 2
#     Edge 129, Type (0, 1), BuildingBlock: EZIPEK_clean_linker_0, # of connection points: 2
#     Edge 130, Type (0, 1), BuildingBlock: EZIPEK_clean_linker_0, # of connection points: 2
#     Edge 131, Type (0, 1), BuildingBlock: EZIPEK_clean_linker_0, # of connection points: 2
#     Edge 132, Type (0, 1), BuildingBlock: EZIPEK_clean_linker_0, # of connection points: 2
#     Edge 133, Type (0, 1), BuildingBlock: EZIPEK_clean_linker_0, # of connection points: 2
#     Edge 134, Type (0, 1), BuildingBlock: EZIPEK_clean_linker_0, # of connection points: 2
#     Edge 135, Type (0, 1), BuildingBlock: EZIPEK_clean_linker_0, # of connection points: 2
# Relax obj value: 0.257
# Max RMSD: 0.377
# Mean RMSD: 0.190
data_MOF--net-gar--node1-QUQFOY_clean_sbu_1--node2-BETDIP_clean_sbu_0--edge1-EZIPEK_clean_linker_0
_symmetry_space_group_name_H-M    P1
_symmetry_Int_Tables_number       1
_symmetry_cell_setting            triclinic
loop_
_symmetry_equiv_pos_as_xyz
'x, y, z'
_cell_length_a     50.608065
_cell_length_b     43.784476
_cell_length_c     41.374626
_cell_angle_alpha  98.736238
_cell_angle_beta   100.53649
_cell_angle_gamma 104.77722
loop_
_atom_site_label
_atom_site_type_symbol
_atom_site_fract_x
_atom_site_fract_y
_atom_site_fract_z
_atom_type_partial_charge
O0 O 0.04712 0.29209 0.43081 0.0
Cd1 Cd 0.0422 0.31989 0.3959 0.0
Cd2 Cd 0.03278 0.35791 0.45609 0.0
O3 O 0.05508 0.32959 0.47662 0.0
O4 O 0.05375 0.29617 0.35894 0.0
O5 O 0.0777 0.34603 0.3864 0.0
C6 C 0.07575 0.32055 0.36469 0.0
C7 C 0.036 0.40572 0.49246 0.0
C8 C 0.05559 0.30207 0.46234 0.0
C9 C 0.98555 0.32538 0.39312 0.0
O10 O 0.99375 0.33732 0.42443 0.0
O11 O 1.00248 0.32016 0.37534 0.0
O12 O 1.02224 0.37811 0.49654 0.0
O13 O 0.04812 0.40645 0.46758 0.0
O14 O 0.06744 0.73514 0.76192 0.0
Cd15 Cd 0.08612 0.76648 0.80757 0.0
Cd16 Cd 0.1017 0.81074 0.77291 0.0
O17 O 0.0891 0.77021 0.73536 0.0
O18 O 0.06533 0.75844 0.84426 0.0
O19 O 0.06819 0.8005 0.82009 0.0
C20 C 0.05802 0.78422 0.84075 0.0
C21 C 0.08542 0.85212 0.75628 0.0
C22 C 0.07463 0.74196 0.73536 0.0
C23 C 0.14831 0.79619 0.81393 0.0
O24 O 0.14159 0.81834 0.80073 0.0
O25 O 0.12942 0.77343 0.8195 0.0
O26 O 0.10552 0.84425 0.74544 0.0
O27 O 0.07597 0.83844 0.7789 0.0
O28 O 0.59152 0.84805 0.93028 0.0
Cd29 Cd 0.5619 0.84831 0.95859 0.0
Cd30 Cd 0.54798 0.88791 0.91786 0.0
O31 O 0.57717 0.87461 0.89261 0.0
O32 O 0.56557 0.81464 0.98458 0.0
O33 O 0.52729 0.80998 0.94593 0.0
C34 C 0.54053 0.79822 0.96816 0.0
C35 C 0.49955 0.86791 0.89776 0.0
C36 C 0.59335 0.8585 0.90353 0.0
C37 C 0.56257 0.91543 0.99129 0.0
O38 O 0.55955 0.92238 0.96233 0.0
O39 O 0.56338 0.88735 0.99481 0.0
O40 O 0.51351 0.89296 0.88869 0.0
O41 O 0.51322 0.85342 0.91644 0.0
O42 O 0.56302 0.21495 0.24702 0.0
Cd43 Cd 0.57399 0.24325 0.29519 0.0
Cd44 Cd 0.59362 0.29157 0.26257 0.0
O45 O 0.57865 0.25468 0.22182 0.0
O46 O 0.54327 0.23632 0.32079 0.0
O47 O 0.55989 0.28095 0.30308 0.0
C48 C 0.5425 0.26515 0.31804 0.0
C49 C 0.58642 0.33894 0.24973 0.0
C50 C 0.56739 0.22513 0.2207 0.0
C51 C 0.63528 0.27322 0.31297 0.0
O52 O 0.63029 0.2911 0.29251 0.0
O53 O 0.61538 0.25273 0.31988 0.0
O54 O 0.60526 0.32766 0.23963 0.0
O55 O 0.573 0.32493 0.26951 0.0
O56 O 0.10165 0.77745 0.19563 0.0
Cd57 Cd 0.10634 0.81743 0.23194 0.0
Cd58 Cd 0.1343 0.8511 0.18577 0.0
O59 O 0.11974 0.80099 0.15748 0.0
O60 O 0.08152 0.79861 0.26137 0.0
O61 O 0.07394 0.83676 0.23509 0.0
C62 C 0.06612 0.81699 0.25406 0.0
C63 C 0.12288 0.899 0.16529 0.0
C64 C 0.10864 0.77524 0.1676 0.0
C65 C 0.16985 0.84502 0.25451 0.0
O66 O 0.16973 0.85475 0.22656 0.0
O67 O 0.14674 0.83293 0.26234 0.0
O68 O 0.14121 0.88615 0.15544 0.0
O69 O 0.11094 0.88499 0.18649 0.0
O70 O 0.58443 0.7936 0.49146 0.0
Cd71 Cd 0.56034 0.78771 0.5278 0.0
Cd72 Cd 0.52231 0.80985 0.46648 0.0
O73 O 0.55673 0.80185 0.4468 0.0
O74 O 0.58005 0.76793 0.5645 0.0
O75 O 0.54183 0.73934 0.52854 0.0
C76 C 0.56194 0.73988 0.55305 0.0
C77 C 0.47543 0.80406 0.43424 0.0
C78 C 0.58015 0.79816 0.4613 0.0
C79 C 0.54695 0.85445 0.53825 0.0
O80 O 0.5348 0.84821 0.5072 0.0
O81 O 0.55621 0.83337 0.55172 0.0
O82 O 0.49718 0.82602 0.43222 0.0
O83 O 0.48022 0.78376 0.45255 0.0
O84 O 0.60398 0.26996 0.69886 0.0
Cd85 Cd 0.61116 0.31018 0.73625 0.0
Cd86 Cd 0.63677 0.34105 0.68731 0.0
O87 O 0.62122 0.29167 0.65913 0.0
O88 O 0.58553 0.29421 0.76645 0.0
O89 O 0.58077 0.33292 0.73963 0.0
C90 C 0.57159 0.314 0.75882 0.0
C91 C 0.62688 0.38891 0.66713 0.0
C92 C 0.60961 0.26672 0.67003 0.0
C93 C 0.67503 0.3365 0.75434 0.0
O94 O 0.67293 0.34565 0.72616 0.0
O95 O 0.6529 0.32454 0.76435 0.0
O96 O 0.647 0.37768 0.66052 0.0
O97 O 0.61203 0.37271 0.68462 0.0
O98 O 0.03815 0.23778 1.00484 0.0
Cd99 Cd 0.03671 0.27332 0.97437 0.0
Cd100 Cd 1.02051 0.3023 0.03335 0.0
O101 O 0.03084 0.26179 0.05198 0.0
O102 O 0.0571 0.2628 0.93753 0.0
O103 O 0.0751 0.30595 0.97808 0.0
C104 C 0.07792 0.28813 0.95175 0.0
C105 C 0.03968 0.35908 0.05798 0.0
C106 C 0.03657 0.23784 0.03547 0.0
C107 C 0.9787 0.28974 0.96584 0.0
O108 O 0.9826 0.29469 0.99777 0.0
O109 O 0.99777 0.28267 0.95197 0.0
O110 O 1.02107 0.3403 0.06936 0.0
O111 O 0.04953 0.34523 0.03497 0.0
O112 O 0.44686 0.08929 0.28172 0.0
Cd113 Cd 0.4147 0.09497 0.3134 0.0
Cd114 Cd 0.47066 0.06241 0.35851 0.0
O115 O 0.4809 0.07157 0.30973 0.0
O116 O 0.38378 0.11961 0.29418 0.0
O117 O 0.41426 0.14267 0.34017 0.0
C118 C 0.39306 0.1448 0.31862 0.0
C119 C 0.50218 0.06522 0.41483 0.0
C120 C 0.46974 0.08006 0.28271 0.0
C121 C 0.40399 0.02431 0.33975 0.0
O122 O 0.43039 0.02899 0.35102 0.0
O123 O 0.39501 0.04649 0.32695 0.0
O124 O 0.49771 0.04242 0.38886 0.0
O125 O 0.49073 0.08767 0.40889 0.0
O126 O 0.30081 0.20798 0.63348 0.0
Cd127 Cd 0.2933 0.1703 0.59288 0.0
Cd128 Cd 0.27032 0.21877 0.55956 0.0
O129 O 0.28506 0.24467 0.61043 0.0
O130 O 0.31515 0.14079 0.61149 0.0
O131 O 0.32553 0.16471 0.57062 0.0
C132 C 0.33153 0.1468 0.5913 0.0
C133 C 0.28088 0.24396 0.51229 0.0
C134 C 0.29569 0.23518 0.63631 0.0
C135 C 0.22898 0.15407 0.56502 0.0
O136 O 0.233 0.1807 0.55468 0.0
O137 O 0.24983 0.1449 0.57824 0.0
O138 O 0.26121 0.24819 0.52687 0.0
O139 O 0.2946 0.22541 0.52429 0.0
O140 O 0.16273 0.07758 0.8192 0.0
Cd141 Cd 0.19128 0.08765 0.86416 0.0
Cd142 Cd 0.1552 0.11494 0.88829 0.0
O143 O 0.13031 0.09521 0.8384 0.0
O144 O 0.21737 0.06266 0.85388 0.0
O145 O 0.19489 0.05617 0.89464 0.0
C146 C 0.21247 0.04871 0.87821 0.0
C147 C 0.13997 0.09907 0.93716 0.0
C148 C 0.13902 0.08302 0.81372 0.0
C149 C 0.21152 0.15915 0.88337 0.0
O150 O 0.18793 0.1581 0.89104 0.0
O151 O 0.21749 0.13326 0.87435 0.0
O152 O 0.13124 0.1201 0.92281 0.0
O153 O 0.15739 0.08704 0.92407 0.0
O154 O 0.23133 0.91494 0.09217 0.0
Cd155 Cd 0.24353 0.93887 0.05502 0.0
Cd156 Cd 0.23682 0.87334 0.03589 0.0
O157 O 0.2083 0.86592 0.06455 0.0
O158 O 0.26757 0.98028 0.08497 0.0
O159 O 0.22829 0.97635 0.04881 0.0
C160 C 0.24945 0.9937 0.0726 0.0
C161 C 0.2332 0.84292 0.98397 0.0
C162 C 0.21485 0.8873 0.09125 0.0
C163 C 0.28923 0.91595 0.04462 0.0
O164 O 0.27856 0.89396 0.05899 0.0
O165 O 0.27377 0.93098 0.03053 0.0
O166 O 0.23679 0.83155 0.01093 0.0
O167 O 0.22841 0.87072 0.98661 0.0
O168 O 0.36026 0.42509 0.18634 0.0
Cd169 Cd 0.36488 0.45823 0.15391 0.0
Cd170 Cd 0.38054 0.40648 0.11929 0.0
O171 O 0.37089 0.38423 0.159 0.0
O172 O 0.34584 0.49118 0.17015 0.0
O173 O 0.32873 0.45663 0.12147 0.0
C174 C 0.32611 0.47958 0.14316 0.0
C175 C 0.36185 0.3831 0.06188 0.0
C176 C 0.36299 0.39666 0.18416 0.0
C177 C 0.42347 0.47205 0.13645 0.0
O178 O 0.41835 0.44172 0.1269 0.0
O179 O 0.40501 0.48362 0.14697 0.0
O180 O 0.38113 0.37418 0.07967 0.0
O181 O 0.35145 0.40352 0.07729 0.0
O182 O 0.85439 0.21038 0.2081 0.0
Cd183 Cd 0.85563 0.16669 0.18135 0.0
Cd184 Cd 0.81353 0.16949 0.13507 0.0
O185 O 0.81321 0.20303 0.17491 0.0
O186 O 0.89238 0.15758 0.18196 0.0
O187 O 0.86492 0.16386 0.13646 0.0
C188 C 0.88661 0.15581 0.14982 0.0
C189 C 0.80179 0.19145 0.09006 0.0
C190 C 0.83208 0.21878 0.20078 0.0
C191 C 0.80713 0.10867 0.15932 0.0
O192 O 0.80121 0.121 0.13405 0.0
O193 O 0.82644 0.12545 0.18456 0.0
O194 O 0.7826 0.17672 0.10349 0.0
O195 O 0.82699 0.18932 0.09889 0.0
O196 O 0.18485 0.53869 0.31219 0.0
Cd197 Cd 0.22313 0.53959 0.3497 0.0
Cd198 Cd 0.17565 0.58063 0.392 0.0
O199 O 0.15642 0.56192 0.33764 0.0
O200 O 0.24834 0.50944 0.32968 0.0
O201 O 0.2321 0.49912 0.37211 0.0
C202 C 0.24648 0.4907 0.3512 0.0
C203 C 0.14945 0.58208 0.44147 0.0
C204 C 0.1628 0.54927 0.31051 0.0
C205 C 0.23663 0.61984 0.37864 0.0
O206 O 0.21408 0.61718 0.39027 0.0
O207 O 0.24329 0.59399 0.36644 0.0
O208 O 0.14958 0.60128 0.4205 0.0
O209 O 0.16363 0.56202 0.43504 0.0
O210 O 0.86095 0.92717 0.68972 0.0
Cd211 Cd 0.86581 0.95781 0.65465 0.0
Cd212 Cd 0.8826 0.9059 0.62387 0.0
O213 O 0.86912 0.88428 0.66255 0.0
O214 O 0.84512 0.99032 0.66648 0.0
O215 O 0.8301 0.95304 0.61966 0.0
C216 C 0.82624 0.97678 0.63904 0.0
C217 C 0.86453 0.88163 0.56669 0.0
C218 C 0.86167 0.89795 0.68744 0.0
C219 C 0.92491 0.97172 0.63868 0.0
O220 O 0.92092 0.94134 0.63185 0.0
O221 O 0.90554 0.98303 0.64686 0.0
O222 O 0.88326 0.87254 0.58526 0.0
O223 O 0.85457 0.90305 0.58112 0.0
O224 O 0.97175 0.02577 0.25028 0.0
Cd225 Cd 0.94474 0.02091 0.28185 0.0
Cd226 Cd 0.99104 1.01818 0.33099 0.0
O227 O 1.00963 0.03236 0.29004 0.0
O228 O 0.91529 0.04047 0.2652 0.0
O229 O 0.94605 0.06008 0.31459 0.0
C230 C 0.92455 0.06145 0.29317 0.0
C231 C 1.01414 0.04117 0.38814 0.0
C232 C 0.9983 0.03303 0.25977 0.0
C233 C 0.93263 0.96454 0.31329 0.0
O234 O 0.95812 0.97609 0.32996 0.0
O235 O 0.92312 0.97781 0.29049 0.0
O236 O 1.02133 0.01886 0.37084 0.0
O237 O 0.99535 0.05234 0.37253 0.0
O238 O 0.35167 0.67759 0.73164 0.0
Cd239 Cd 0.35127 0.63569 0.70224 0.0
Cd240 Cd 0.33144 0.6734 0.64642 0.0
O241 O 0.3622 0.69809 0.68925 0.0
O242 O 0.37852 0.61134 0.71193 0.0
O243 O 0.37559 0.63815 0.67014 0.0
C244 C 0.38538 0.61772 0.68446 0.0
C245 C 0.32138 0.70654 0.61046 0.0
C246 C 0.35693 0.70182 0.71814 0.0
C247 C 0.30115 0.60166 0.64895 0.0
O248 O 0.30696 0.62497 0.63385 0.0
O249 O 0.31356 0.60442 0.67926 0.0
O250 O 0.30793 0.70193 0.63382 0.0
O251 O 0.33979 0.69134 0.60684 0.0
O252 O 0.48106 0.53146 0.75524 0.0
Cd253 Cd 0.45304 0.52768 0.78608 0.0
Cd254 Cd 0.49458 0.5146 0.83088 0.0
O255 O 0.51679 0.5291 0.79328 0.0
O256 O 0.4279 0.55381 0.77237 0.0
O257 O 0.45821 0.56621 0.82198 0.0
C258 C 0.43877 0.57257 0.80156 0.0
C259 C 0.51431 0.53657 0.88878 0.0
C260 C 0.50703 0.53394 0.76425 0.0
C261 C 0.43471 0.46606 0.80961 0.0
O262 O 0.46042 0.47247 0.82491 0.0
O263 O 0.42716 0.48478 0.79163 0.0
O264 O 0.52207 0.51402 0.87271 0.0
O265 O 0.49672 0.54826 0.87169 0.0
O266 O 0.68376 0.03591 0.81152 0.0
Cd267 Cd 0.72228 0.03798 0.84925 0.0
Cd268 Cd 0.67627 0.0791 0.89053 0.0
O269 O 0.65611 0.06058 0.83657 0.0
O270 O 0.74691 1.00767 0.82931 0.0
O271 O 0.7315 0.99871 0.87289 0.0
C272 C 0.74551 0.98994 0.85172 0.0
C273 C 0.65035 0.07897 0.93975 0.0
C274 C 0.66192 0.04686 0.80962 0.0
C275 C 0.73769 0.11781 0.87847 0.0
O276 O 0.71507 0.11564 0.88981 0.0
O277 O 0.74365 0.09168 0.86596 0.0
O278 O 0.6506 0.09909 0.91978 0.0
O279 O 0.66444 0.05899 0.93258 0.0
O280 O 0.8043 0.71714 0.13803 0.0
Cd281 Cd 0.79725 0.67991 0.09713 0.0
Cd282 Cd 0.77452 0.72758 0.06497 0.0
O283 O 0.79025 0.75465 0.11479 0.0
O284 O 0.81947 0.65074 0.11518 0.0
O285 O 0.82875 0.67443 0.07372 0.0
C286 C 0.83512 0.65648 0.09419 0.0
C287 C 0.78399 0.75076 0.01659 0.0
C288 C 0.80004 0.74475 0.14071 0.0
C289 C 0.73353 0.66348 0.07235 0.0
O290 O 0.73729 0.69053 0.06286 0.0
O291 O 0.75447 0.6535 0.08325 0.0
O292 O 0.7656 0.757 0.03241 0.0
O293 O 0.79718 0.7315 0.02802 0.0
O294 O 0.94562 0.59107 0.78308 0.0
Cd295 Cd 0.91274 0.5937 0.81388 0.0
Cd296 Cd 0.97012 0.5666 0.86055 0.0
O297 O 0.9808 0.57578 0.8121 0.0
O298 O 0.88105 0.61711 0.79393 0.0
O299 O 0.91061 0.64059 0.84049 0.0
C300 C 0.88953 0.64225 0.8184 0.0
C301 C 1.00075 0.57287 0.91808 0.0
C302 C 0.96926 0.58352 0.78482 0.0
C303 C 0.90549 0.52279 0.83984 0.0
O304 O 0.93193 0.5298 0.85233 0.0
O305 O 0.89503 0.54381 0.82644 0.0
O306 O 0.99864 0.55024 0.89291 0.0
O307 O 0.98747 0.59345 0.91069 0.0
O308 O 0.76011 0.3834 0.61274 0.0
Cd309 Cd 0.75498 0.42618 0.60375 0.0
Cd310 Cd 0.7592 0.373 0.53514 0.0
O311 O 0.73485 0.35208 0.56496 0.0
O312 O 0.77357 0.45205 0.6499 0.0
O313 O 0.72938 0.44577 0.62566 0.0
C314 C 0.75049 0.45871 0.6511 0.0
C315 C 0.7683 0.33723 0.49477 0.0
C316 C 0.7474 0.35543 0.59523 0.0
C317 C 0.79446 0.44465 0.56002 0.0
O318 O 0.792 0.41523 0.5486 0.0
O319 O 0.777 0.45288 0.57529 0.0
O320 O 0.75036 0.35253 0.48605 0.0
O321 O 0.77975 0.34124 0.52604 0.0
O322 O 0.65747 0.57154 0.31595 0.0
Cd323 Cd 0.68877 0.57911 0.35811 0.0
Cd324 Cd 0.65808 0.61074 0.3898 0.0
O325 O 0.63158 0.59704 0.34072 0.0
O326 O 0.71096 0.54916 0.34639 0.0
O327 O 0.68989 0.5476 0.38876 0.0
C328 C 0.70547 0.53654 0.37144 0.0
C329 C 0.64403 0.5941 0.43856 0.0
C330 C 0.63632 0.58229 0.31417 0.0
C331 C 0.71419 0.65072 0.38187 0.0
O332 O 0.69268 0.65123 0.39379 0.0
O333 O 0.71705 0.62414 0.3682 0.0
O334 O 0.63716 0.61758 0.42713 0.0
O335 O 0.65868 0.5799 0.42243 0.0
Tb336 Tb 0.05227 0.04914 0.08365 0.0
Tb337 Tb 0.10236 0.092 0.12922 0.0
C338 C 1.00062 0.02547 0.0593 0.0
C339 C 0.97882 0.04223 0.0617 0.0
C340 C 0.96126 0.03474 0.08381 0.0
C341 C 0.94571 0.05525 0.09334 0.0
C342 C 0.94725 0.08349 0.08078 0.0
C343 C 0.96313 0.08996 0.05685 0.0
C344 C 0.97881 0.06946 0.04735 0.0
C345 C 0.09531 0.06227 0.05319 0.0
C346 C 0.06191 0.12646 0.0919 0.0
C347 C 0.15318 0.12168 0.15585 0.0
C348 C 0.17709 0.1167 0.14302 0.0
C349 C 0.17192 0.09117 0.11565 0.0
C350 C 0.19407 0.08309 0.10495 0.0
C351 C 0.22187 0.10095 0.12083 0.0
C352 C 0.22706 0.12874 0.14589 0.0
C353 C 0.20464 0.1363 0.15741 0.0
C354 C 0.05954 0.07799 0.15926 0.0
C355 C 0.09309 1.01364 0.11798 0.0
O356 O 1.01328 0.02133 0.08809 0.0
O357 O 1.01845 0.03536 0.04114 0.0
O358 O 0.08924 0.08109 0.07527 0.0
O359 O 0.07558 0.0349 0.04691 0.0
O360 O 0.04384 0.09701 0.08372 0.0
O361 O 0.08756 0.13048 0.10957 0.0
O362 O 0.13676 0.1331 0.13627 0.0
O363 O 0.13889 0.09704 0.16576 0.0
O364 O 0.06595 0.05963 0.13738 0.0
O365 O 0.07878 0.10553 0.1661 0.0
O366 O 0.11102 0.04353 0.12748 0.0
O367 O 0.06742 1.00962 0.09995 0.0
H368 H 0.96085 1.01402 0.0953 0.0
H369 H 0.93324 0.0497 0.11153 0.0
H370 H 0.96422 0.11145 0.04655 0.0
H371 H 0.992 0.07588 0.03014 0.0
H372 H 0.1507 0.07658 0.10339 0.0
H373 H 0.1895 0.06175 0.08534 0.0
H374 H 0.24835 0.14352 0.15759 0.0
H375 H 0.2088 0.15672 0.17794 0.0
Tb376 Tb 0.31928 0.81043 0.32275 0.0
Tb377 Tb 0.31572 0.83407 0.38929 0.0
C378 C 0.30882 0.79798 0.25988 0.0
C379 C 0.29333 0.81377 0.23756 0.0
C380 C 0.27784 0.83267 0.25116 0.0
C381 C 0.26007 0.84492 0.23055 0.0
C382 C 0.25862 0.83996 0.19603 0.0
C383 C 0.2748 0.82188 0.18229 0.0
C384 C 0.29189 0.8085 0.20298 0.0
C385 C 0.361 0.80282 0.36816 0.0
C386 C 0.34271 0.88836 0.35012 0.0
C387 C 0.32408 0.85577 0.45129 0.0
C388 C 0.31927 0.83906 0.47898 0.0
C389 C 0.34224 0.84186 0.50521 0.0
C390 C 0.33972 0.82148 0.52805 0.0
C391 C 0.31411 0.79817 0.52512 0.0
C392 C 0.2906 0.79666 0.50028 0.0
C393 C 0.29319 0.81685 0.47719 0.0
C394 C 0.26862 0.82613 0.34224 0.0
C395 C 0.29251 0.75773 0.36382 0.0
O396 O 0.29338 0.78189 0.27736 0.0
O397 O 0.33328 0.81598 0.27848 0.0
O398 O 0.35065 0.82635 0.36952 0.0
O399 O 0.34913 0.78406 0.33899 0.0
O400 O 0.33851 0.8634 0.3248 0.0
O401 O 0.33472 0.88236 0.37811 0.0
O402 O 0.34331 0.84896 0.43681 0.0
O403 O 0.302 0.85595 0.42937 0.0
O404 O 0.29377 0.83752 0.34091 0.0
O405 O 0.26917 0.81867 0.37147 0.0
O406 O 0.30536 0.78148 0.39046 0.0
O407 O 0.29153 0.76559 0.33374 0.0
H408 H 0.2791 0.83738 0.27779 0.0
H409 H 0.24774 0.85869 0.24149 0.0
H410 H 0.27375 0.81768 0.15554 0.0
H411 H 0.30359 0.79382 0.19202 0.0
H412 H 0.36256 0.85865 0.50694 0.0
H413 H 0.35803 0.82298 0.54716 0.0
H414 H 0.27068 0.77881 0.49778 0.0
H415 H 0.27515 0.814 0.45711 0.0
Tb416 Tb 0.6079 0.06386 0.60783 0.0
Tb417 Tb 0.55025 0.05543 0.62246 0.0
C418 C 0.65884 0.06415 0.61916 0.0
C419 C 0.68091 0.04907 0.6116 0.0
C420 C 0.67668 1.01549 0.60756 0.0
C421 C 0.69949 1.00257 0.6084 0.0
C422 C 0.727 0.0229 0.61337 0.0
C423 C 0.73101 0.05619 0.61563 0.0
C424 C 0.70823 0.0691 0.61479 0.0
C425 C 0.57048 0.06096 0.5495 0.0
C426 C 0.56568 0.99239 0.59373 0.0
C427 C 0.50048 0.05678 0.62423 0.0
C428 C 0.47865 0.07426 0.61695 0.0
C429 C 0.45985 0.06658 0.58515 0.0
C430 C 0.43676 0.07918 0.57975 0.0
C431 C 0.4316 0.09971 0.606 0.0
C432 C 0.45067 0.10805 0.63754 0.0
C433 C 0.47376 0.09543 0.64297 0.0
C434 C 0.59005 0.05046 0.67476 0.0
C435 C 0.59084 0.12724 0.62786 0.0
O436 O 0.63977 0.0477 0.63246 0.0
O437 O 0.6487 0.08098 0.59903 0.0
O438 O 0.56639 0.05877 0.57873 0.0
O439 O 0.59728 0.06463 0.55301 0.0
O440 O 0.5916 1.01106 0.59765 0.0
O441 O 0.54511 1.00469 0.59949 0.0
O442 O 0.50715 0.0411 0.59887 0.0
O443 O 0.52233 0.07005 0.64948 0.0
O444 O 0.59285 0.06975 0.65423 0.0
O445 O 0.56386 0.03322 0.66484 0.0
O446 O 0.56502 0.10823 0.625 0.0
O447 O 0.61189 0.11496 0.6249 0.0
H448 H 0.65597 0.99938 0.60541 0.0
H449 H 0.69585 0.97683 0.60661 0.0
H450 H 0.75198 0.07237 0.61955 0.0
H451 H 0.71222 0.09505 0.6185 0.0
H452 H 0.46244 0.04998 0.56455 0.0
H453 H 0.42249 0.07228 0.55518 0.0
H454 H 0.44729 0.12374 0.65829 0.0
H455 H 0.48731 0.10152 0.66794 0.0
Tb456 Tb 0.29655 0.32555 0.84343 0.0
Tb457 Tb 0.34777 0.2997 0.85146 0.0
C458 C 0.24831 0.33194 0.84569 0.0
C459 C 0.22555 0.3274 0.86469 0.0
C460 C 0.2283 0.31765 0.89575 0.0
C461 C 0.20549 0.31197 0.91159 0.0
C462 C 0.17933 0.31559 0.89658 0.0
C463 C 0.17684 0.32544 0.86563 0.0
C464 C 0.19957 0.33128 0.85001 0.0
C465 C 0.34244 0.36309 0.82963 0.0
C466 C 0.33653 0.33576 0.91656 0.0
C467 C 0.39517 0.29043 0.85012 0.0
C468 C 0.41886 0.29619 0.83253 0.0
C469 C 0.43986 0.32622 0.8407 0.0
C470 C 0.46392 0.33044 0.82749 0.0
C471 C 0.46791 0.30466 0.80611 0.0
C472 C 0.44678 0.27486 0.79731 0.0
C473 C 0.42261 0.27066 0.8104 0.0
C474 C 0.30242 0.26368 0.86694 0.0
C475 C 0.30898 0.2923 0.77751 0.0
O476 O 0.25266 0.30576 0.83065 0.0
O477 O 0.27189 0.35512 0.8585 0.0
O478 O 0.34152 0.34613 0.85177 0.0
O479 O 0.31662 0.3625 0.81742 0.0
O480 O 0.31156 0.33437 0.89842 0.0
O481 O 0.35559 0.32646 0.90285 0.0
O482 O 0.39164 0.31564 0.86821 0.0
O483 O 0.37108 0.26916 0.83455 0.0
O484 O 0.30318 0.27952 0.8439 0.0
O485 O 0.32804 0.26392 0.87886 0.0
O486 O 0.33292 0.29139 0.79619 0.0
O487 O 0.29011 0.30263 0.79077 0.0
H488 H 0.24794 0.31414 0.90757 0.0
H489 H 0.20814 0.30438 0.9354 0.0
H490 H 0.15711 0.3284 0.85333 0.0
H491 H 0.19669 0.33849 0.826 0.0
H492 H 0.43805 0.34643 0.85793 0.0
H493 H 0.47982 0.35366 0.83465 0.0
H494 H 0.44934 0.25458 0.78092 0.0
H495 H 0.40721 0.2471 0.80395 0.0
Tb496 Tb 0.0737 0.10208 0.61032 0.0
Tb497 Tb 0.07726 0.03002 0.59241 0.0
C498 C 0.0856 0.16234 0.62088 0.0
C499 C 0.09179 0.18626 0.60026 0.0
C500 C 0.09938 0.17819 0.56978 0.0
C501 C 0.09863 0.19812 0.54651 0.0
C502 C 0.09 0.22592 0.55359 0.0
C503 C 0.08444 0.23509 0.585 0.0
C504 C 0.08537 0.21532 0.60829 0.0
C505 C 0.02904 0.05834 0.62054 0.0
C506 C 0.05432 0.0626 0.53371 0.0
C507 C 0.06291 0.97006 0.58394 0.0
C508 C 0.05297 0.94989 0.60675 0.0
C509 C 0.04428 0.9637 0.63432 0.0
C510 C 0.0426 0.94874 0.66157 0.0
C511 C 0.04967 0.91985 0.66126 0.0
C512 C 0.0559 0.90457 0.63245 0.0
C513 C 0.05766 0.91965 0.60525 0.0
C514 C 0.12235 0.07303 0.58269 0.0
C515 C 0.09639 0.06973 0.66906 0.0
O516 O 0.10431 0.14696 0.6279 0.0
O517 O 0.05983 0.14307 0.61146 0.0
O518 O 0.05037 0.05458 0.61062 0.0
O519 O 0.03259 0.08919 0.62519 0.0
O520 O 0.06127 0.0911 0.55489 0.0
O521 O 0.05675 0.03571 0.54344 0.0
O522 O 0.04602 0.9861 0.57189 0.0
O523 O 0.0891 0.98808 0.5953 0.0
O524 O 0.10126 0.07757 0.59288 0.0
O525 O 0.11829 0.04201 0.5779 0.0
O526 O 0.08757 0.0411 0.64787 0.0
O527 O 0.09599 0.09694 0.65881 0.0
H528 H 0.10413 0.15559 0.56316 0.0
H529 H 0.10279 0.19076 0.5222 0.0
H530 H 0.07768 0.25648 0.59061 0.0
H531 H 0.07925 0.22163 0.63161 0.0
H532 H 0.04112 0.98731 0.63586 0.0
H533 H 0.03808 0.96089 0.68382 0.0
H534 H 0.06158 0.8823 0.63216 0.0
H535 H 0.06475 0.90895 0.58432 0.0
Tb536 Tb 0.31849 0.77643 0.85047 0.0
Tb537 Tb 0.32154 0.84356 0.83956 0.0
C538 C 0.32269 0.72036 0.84227 0.0
C539 C 0.34351 0.70378 0.83526 0.0
C540 C 0.3349 0.67605 0.80954 0.0
C541 C 0.35325 0.65782 0.80444 0.0
C542 C 0.38043 0.66711 0.82506 0.0
C543 C 0.38959 0.69566 0.84978 0.0
C544 C 0.37125 0.71403 0.85479 0.0
C545 C 0.29769 0.8069 0.89417 0.0
C546 C 0.37807 0.82813 0.86877 0.0
C547 C 0.32964 0.90364 0.84602 0.0
C548 C 0.31436 0.92644 0.85709 0.0
C549 C 0.31499 0.93646 0.89133 0.0
C550 C 0.29826 0.95557 0.90087 0.0
C551 C 0.28143 0.96579 0.87642 0.0
C552 C 0.28158 0.95688 0.84248 0.0
C553 C 0.29789 0.93741 0.83289 0.0
C554 C 0.32242 0.80088 0.78753 0.0
C555 C 0.26259 0.79366 0.82369 0.0
O556 O 0.31164 0.73233 0.8177 0.0
O557 O 0.32841 0.73945 0.87198 0.0
O558 O 0.31807 0.82057 0.88221 0.0
O559 O 0.29185 0.77595 0.88495 0.0
O560 O 0.36319 0.79988 0.87265 0.0
O561 O 0.36628 0.84782 0.85419 0.0
O562 O 0.3414 0.89045 0.86879 0.0
O563 O 0.31695 0.88267 0.81792 0.0
O564 O 0.33384 0.80443 0.81763 0.0
O565 O 0.31159 0.82434 0.78446 0.0
O566 O 0.27675 0.82442 0.83402 0.0
O567 O 0.27542 0.77068 0.82188 0.0
H568 H 0.31368 0.66792 0.79407 0.0
H569 H 0.34594 0.6358 0.78526 0.0
H570 H 0.41053 0.70304 0.86589 0.0
H571 H 0.37849 0.7356 0.87453 0.0
H572 H 0.32773 0.92878 0.91068 0.0
H573 H 0.2984 0.96237 0.92721 0.0
H574 H 0.2688 0.96478 0.82334 0.0
H575 H 0.29727 0.93049 0.80642 0.0
Tb576 Tb 0.5306 0.06529 0.08185 0.0
Tb577 Tb 0.58187 0.07436 0.13295 0.0
C578 C 0.48383 0.03726 0.04228 0.0
C579 C 0.456 0.01959 0.04544 0.0
C580 C 0.45319 1.00188 0.07087 0.0
C581 C 0.42681 0.98298 0.07202 0.0
C582 C 0.40295 0.98203 0.0481 0.0
C583 C 0.40567 1.00013 0.02304 0.0
C584 C 0.43214 0.01874 0.02165 0.0
C585 C 0.55604 0.12578 0.11024 0.0
C586 C 0.52593 0.06875 0.16167 0.0
C587 C 0.62937 0.09228 0.17231 0.0
C588 C 0.65553 0.08343 0.1726 0.0
C589 C 0.6805 0.10767 0.17551 0.0
C590 C 0.7053 0.09966 0.17447 0.0
C591 C 0.70546 0.06732 0.17069 0.0
C592 C 0.68077 0.04303 0.16867 0.0
C593 C 0.65585 0.05101 0.16945 0.0
C594 C 0.55807 1.01355 0.09883 0.0
C595 C 0.58745 0.07786 0.05434 0.0
O596 O 0.50345 0.0233 0.04985 0.0
O597 O 0.49233 0.06844 0.05456 0.0
O598 O 0.55351 0.10202 0.12436 0.0
O599 O 0.54297 0.11604 0.07869 0.0
O600 O 0.51266 0.05924 0.12878 0.0
O601 O 0.55396 0.07882 0.16897 0.0
O602 O 0.62205 0.1078 0.14906 0.0
O603 O 0.60812 0.0698 0.17592 0.0
O604 O 0.56032 0.03937 0.08886 0.0
O605 O 0.57068 0.02168 0.13035 0.0
O606 O 0.60037 0.08244 0.08706 0.0
O607 O 0.55939 0.0705 0.04633 0.0
H608 H 0.4714 1.00225 0.0895 0.0
H609 H 0.42493 0.96916 0.09153 0.0
H610 H 0.38734 0.99961 1.00449 0.0
H611 H 0.43402 0.03215 1.00181 0.0
H612 H 0.68073 0.13275 0.17809 0.0
H613 H 0.72435 0.11864 0.17613 0.0
H614 H 0.68069 1.018 0.16577 0.0
H615 H 0.63686 0.03176 0.16715 0.0
Tb616 Tb 0.29447 0.2975 0.32322 0.0
Tb617 Tb 0.34544 0.33704 0.36606 0.0
C618 C 0.24283 0.26898 0.3032 0.0
C619 C 0.21842 0.28036 0.30701 0.0
C620 C 0.22033 0.30345 0.33561 0.0
C621 C 0.1968 0.31258 0.3408 0.0
C622 C 0.17097 0.29869 0.31761 0.0
C623 C 0.16914 0.27664 0.28828 0.0
C624 C 0.19286 0.26755 0.28296 0.0
C625 C 0.33017 0.32585 0.28883 0.0
C626 C 0.29784 0.3742 0.3524 0.0
C627 C 0.39727 0.36474 0.38775 0.0
C628 C 0.42098 0.3541 0.37915 0.0
C629 C 0.4182 0.33724 0.34644 0.0
C630 C 0.43918 0.32427 0.33855 0.0
C631 C 0.46356 0.32796 0.36303 0.0
C632 C 0.46696 0.34592 0.39553 0.0
C633 C 0.44563 0.35865 0.40363 0.0
C634 C 0.31094 0.30884 0.4015 0.0
C635 C 0.3417 0.26077 0.33189 0.0
O636 O 0.25832 0.26687 0.33127 0.0
O637 O 0.258 0.2824 0.28394 0.0
O638 O 0.32553 0.33786 0.31631 0.0
O639 O 0.31323 0.29656 0.27947 0.0
O640 O 0.28248 0.34439 0.33545 0.0
O641 O 0.32452 0.37746 0.36765 0.0
O642 O 0.38149 0.37201 0.36321 0.0
O643 O 0.38222 0.34678 0.40411 0.0
O644 O 0.31478 0.29626 0.37352 0.0
O645 O 0.32669 0.33863 0.40974 0.0
O646 O 0.35755 0.29095 0.34767 0.0
O647 O 0.31442 0.25699 0.32012 0.0
H648 H 0.23972 0.3135 0.35472 0.0
H649 H 0.19839 0.32929 0.36376 0.0
H650 H 0.14915 0.26542 0.27041 0.0
H651 H 0.19104 0.24978 0.26075 0.0
H652 H 0.39952 0.33357 0.32695 0.0
H653 H 0.43646 0.31135 0.31314 0.0
H654 H 0.48582 0.3495 0.41469 0.0
H655 H 0.44818 0.37158 0.42902 0.0
Tb656 Tb 0.57149 0.60218 0.1112 0.0
Tb657 Tb 0.58206 0.54169 0.09639 0.0
C658 C 0.57009 0.65926 0.11313 0.0
C659 C 0.5559 0.67433 0.08899 0.0
C660 C 0.56753 0.70701 0.08949 0.0
C661 C 0.55622 0.72088 0.06429 0.0
C662 C 0.53322 0.70215 0.03835 0.0
C663 C 0.52084 0.66969 0.03841 0.0
C664 C 0.53223 0.65576 0.06366 0.0
C665 C 0.53105 0.55474 0.12225 0.0
C666 C 0.55312 0.56367 0.03467 0.0
C667 C 0.5876 0.48631 0.09526 0.0
C668 C 0.58192 0.46402 0.11767 0.0
C669 C 0.56125 0.46489 0.13602 0.0
C670 C 0.55822 0.44632 0.16036 0.0
C671 C 0.57576 0.42671 0.16632 0.0
C672 C 0.59593 0.42525 0.14744 0.0
C673 C 0.59903 0.44391 0.12321 0.0
C674 C 0.62203 0.59008 0.08577 0.0
C675 C 0.59245 0.57709 0.17284 0.0
O676 O 0.58983 0.64838 0.10369 0.0
O677 O 0.55377 0.63877 0.12604 0.0
O678 O 0.54337 0.55317 0.09803 0.0
O679 O 0.53972 0.58447 0.13841 0.0
O680 O 0.55608 0.59061 0.05612 0.0
O681 O 0.55989 0.53914 0.04531 0.0
O682 O 0.56561 0.4918 0.07798 0.0
O683 O 0.60798 0.5128 0.10885 0.0
O684 O 0.61013 0.59047 0.11032 0.0
O685 O 0.61232 0.56111 0.06789 0.0
O686 O 0.58489 0.5491 0.15122 0.0
O687 O 0.59564 0.60356 0.16077 0.0
H688 H 0.58586 0.72152 0.10876 0.0
H689 H 0.56592 0.74602 0.06441 0.0
H690 H 0.5031 0.65506 0.01845 0.0
H691 H 0.52307 0.63037 0.06292 0.0
H692 H 0.54795 0.48049 0.13209 0.0
H693 H 0.54253 0.44746 0.17477 0.0
H694 H 0.60956 0.4101 0.15192 0.0
H695 H 0.61521 0.44327 0.10942 0.0
Tb696 Tb 0.80303 0.25798 0.32843 0.0
Tb697 Tb 0.8162 0.32809 0.3622 0.0
C698 C 0.80241 0.2063 0.29221 0.0
C699 C 0.81929 0.18406 0.29633 0.0
C700 C 0.82548 0.16816 0.26794 0.0
C701 C 0.84435 0.15 0.27172 0.0
C702 C 0.85683 0.14719 0.30382 0.0
C703 C 0.85058 0.1629 0.33229 0.0
C704 C 0.832 0.1815 0.32857 0.0
C705 C 0.80497 0.26741 0.39336 0.0
C706 C 0.86659 0.30259 0.35822 0.0
C707 C 0.81871 0.38205 0.39619 0.0
C708 C 0.80015 0.40302 0.39772 0.0
C709 C 0.77185 0.3909 0.39893 0.0
C710 C 0.75428 0.41094 0.39784 0.0
C711 C 0.76479 0.44324 0.39547 0.0
C712 C 0.79323 0.4556 0.39554 0.0
C713 C 0.81078 0.43564 0.39668 0.0
C714 C 0.81392 0.31508 0.29615 0.0
C715 C 0.75307 0.28454 0.33572 0.0
O716 O 0.81671 0.23486 0.28986 0.0
O717 O 0.78547 0.20773 0.31244 0.0
O718 O 0.82013 0.28517 0.37849 0.0
O719 O 0.79009 0.24158 0.37166 0.0
O720 O 0.84889 0.27769 0.33547 0.0
O721 O 0.85762 0.32292 0.37722 0.0
O722 O 0.81107 0.35475 0.40588 0.0
O723 O 0.82803 0.37864 0.36881 0.0
O724 O 0.79829 0.30007 0.31232 0.0
O725 O 0.83107 0.34009 0.31736 0.0
O726 O 0.77125 0.30876 0.35856 0.0
O727 O 0.76148 0.26457 0.31527 0.0
H728 H 0.81619 0.17036 0.24298 0.0
H729 H 0.84934 0.13815 0.2497 0.0
H730 H 0.86018 0.16089 0.35722 0.0
H731 H 0.82791 0.19427 0.3508 0.0
H732 H 0.76314 0.36585 0.39994 0.0
H733 H 0.73237 0.40111 0.39793 0.0
H734 H 0.80166 0.48052 0.39385 0.0
H735 H 0.83256 0.44551 0.39601 0.0
Tb736 Tb 0.03246 0.58247 0.5876 0.0
Tb737 Tb 0.07951 0.57276 0.63301 0.0
C738 C 0.98472 0.5708 0.54947 0.0
C739 C 0.95564 0.55889 0.55264 0.0
C740 C 0.94917 0.53792 0.57445 0.0
C741 C 0.9213 0.52311 0.57422 0.0
C742 C 0.89947 0.52928 0.55248 0.0
C743 C 0.90585 0.55146 0.53182 0.0
C744 C 0.93388 0.56601 0.53172 0.0
C745 C 0.06685 0.63671 0.62775 0.0
C746 C 0.02572 0.57431 0.66453 0.0
C747 C 0.12681 0.57762 0.66855 0.0
C748 C 0.15104 0.56652 0.66396 0.0
C749 C 0.1775 0.58938 0.67324 0.0
C750 C 0.20031 0.58157 0.66388 0.0
C751 C 0.1969 0.55084 0.64494 0.0
C752 C 0.17087 0.52719 0.63726 0.0
C753 C 0.148 0.53492 0.64716 0.0
C754 C 0.04588 0.5186 0.59231 0.0
C755 C 0.08725 0.58514 0.55712 0.0
O756 O 0.99904 0.54989 0.55138 0.0
O757 O 0.99935 0.59975 0.56658 0.0
O758 O 0.05904 0.60926 0.63453 0.0
O759 O 0.05396 0.63419 0.59672 0.0
O760 O 1.01297 0.5726 0.63241 0.0
O761 O 0.05318 0.57702 0.67111 0.0
O762 O 0.12209 0.59864 0.65053 0.0
O763 O 0.10379 0.55564 0.66861 0.0
O764 O 0.05349 0.5462 0.58597 0.0
O765 O 0.05828 0.52089 0.6232 0.0
O766 O 0.09899 0.58278 0.58826 0.0
O767 O 0.06038 0.58525 0.55081 0.0
H768 H 0.9656 0.53209 0.59084 0.0
H769 H 0.91672 0.50624 0.59051 0.0
H770 H 0.88918 0.55666 0.51514 0.0
H771 H 0.93853 0.5821 0.5147 0.0
H772 H 0.18023 0.61377 0.68636 0.0
H773 H 0.22045 0.59996 0.67013 0.0
H774 H 0.16812 0.50332 0.62287 0.0
H775 H 0.12787 0.51664 0.64063 0.0
Tb776 Tb 0.79759 0.8229 0.34948 0.0
Tb777 Tb 0.84854 0.79701 0.35622 0.0
C778 C 0.74929 0.82855 0.35263 0.0
C779 C 0.72625 0.82197 0.37139 0.0
C780 C 0.70158 0.79616 0.35713 0.0
C781 C 0.67823 0.79163 0.37179 0.0
C782 C 0.67869 0.81278 0.40124 0.0
C783 C 0.70347 0.83827 0.41598 0.0
C784 C 0.72687 0.8429 0.40121 0.0
C785 C 0.84356 0.86194 0.33757 0.0
C786 C 0.83744 0.83165 0.42194 0.0
C787 C 0.89469 0.78487 0.35437 0.0
C788 C 0.91848 0.79093 0.33738 0.0
C789 C 0.91454 0.78369 0.30217 0.0
C790 C 0.93776 0.7892 0.28735 0.0
C791 C 0.96534 0.80139 0.30742 0.0
C792 C 0.96918 0.80849 0.34251 0.0
C793 C 0.94604 0.80344 0.35727 0.0
C794 C 0.8031 0.75975 0.36984 0.0
C795 C 0.81114 0.79359 0.2827 0.0
O796 O 0.75369 0.80356 0.33513 0.0
O797 O 0.77284 0.85154 0.36646 0.0
O798 O 0.84265 0.84383 0.35865 0.0
O799 O 0.81778 0.86164 0.32569 0.0
O800 O 0.81214 0.82948 0.40424 0.0
O801 O 0.85675 0.82366 0.4077 0.0
O802 O 0.89238 0.80977 0.37429 0.0
O803 O 0.87015 0.76576 0.33716 0.0
O804 O 0.80394 0.77645 0.34758 0.0
O805 O 0.82867 0.76063 0.38258 0.0
O806 O 0.83508 0.79253 0.30128 0.0
O807 O 0.79186 0.80262 0.29627 0.0
H808 H 0.69999 0.77981 0.33394 0.0
H809 H 0.65952 0.77185 0.35974 0.0
H810 H 0.70451 0.85501 0.43865 0.0
H811 H 0.7452 0.8633 0.41278 0.0
H812 H 0.89359 0.77402 0.28612 0.0
H813 H 0.93425 0.78352 0.26022 0.0
H814 H 0.99017 0.81775 0.35853 0.0
H815 H 0.94972 0.809 0.38443 0.0
Tb816 Tb 0.83392 0.30487 0.83321 0.0
Tb817 Tb 0.82255 0.3323 0.88821 0.0
C818 C 0.83853 0.28558 0.77451 0.0
C819 C 0.82052 0.28397 0.74203 0.0
C820 C 0.80456 0.30572 0.73923 0.0
C821 C 0.7886 0.30561 0.70811 0.0
C822 C 0.78803 0.28346 0.67953 0.0
C823 C 0.80194 0.25979 0.68275 0.0
C824 C 0.81844 0.26027 0.71399 0.0
C825 C 0.87239 0.30222 0.88667 0.0
C826 C 0.85314 0.38405 0.85208 0.0
C827 C 0.81334 0.34722 0.94527 0.0
C828 C 0.80877 0.32817 0.97075 0.0
C829 C 0.8211 0.30307 0.97276 0.0
C830 C 0.81412 0.2821 0.99383 0.0
C831 C 0.79494 0.28614 0.01336 0.0
C832 C 0.78265 0.31131 0.01173 0.0
C833 C 0.78943 0.33221 0.99017 0.0
C834 C 0.78482 0.33494 0.83449 0.0
C835 C 0.79894 0.2547 0.86669 0.0
O836 O 0.82692 0.26659 0.79239 0.0
O837 O 0.85159 0.3145 0.7924 0.0
O838 O 0.86297 0.32607 0.88262 0.0
O839 O 0.86062 0.28008 0.86014 0.0
O840 O 0.84708 0.35744 0.82814 0.0
O841 O 0.84723 0.37948 0.88116 0.0
O842 O 0.83847 0.35384 0.93937 0.0
O843 O 0.79374 0.33669 0.91769 0.0
O844 O 0.79405 0.31103 0.83881 0.0
O845 O 0.79736 0.35786 0.86041 0.0
O846 O 0.81022 0.27977 0.89241 0.0
O847 O 0.80136 0.26127 0.83705 0.0
H848 H 0.80515 0.32347 0.76089 0.0
H849 H 0.77776 0.32388 0.70603 0.0
H850 H 0.80147 0.24244 0.66083 0.0
H851 H 0.8301 0.24279 0.7161 0.0
H852 H 0.83584 0.29939 0.9577 0.0
H853 H 0.82396 0.26291 0.99529 0.0
H854 H 0.76808 0.31477 0.02715 0.0
H855 H 0.77941 0.35119 0.98833 0.0
Tb856 Tb 0.79023 0.79619 0.82435 0.0
Tb857 Tb 0.84381 0.83629 0.86266 0.0
C858 C 0.73763 0.77219 0.81072 0.0
C859 C 0.71594 0.78616 0.82155 0.0
C860 C 0.72061 0.80336 0.85477 0.0
C861 C 0.70022 0.8164 0.86513 0.0
C862 C 0.67472 0.81271 0.84258 0.0
C863 C 0.67021 0.79618 0.80919 0.0
C864 C 0.69063 0.783 0.79879 0.0
C865 C 0.82267 0.82293 0.78602 0.0
C866 C 0.79604 0.87343 0.85223 0.0
C867 C 0.89612 0.86333 0.87869 0.0
C868 C 0.92141 0.85176 0.87914 0.0
C869 C 0.92832 0.84085 0.84885 0.0
C870 C 0.95201 0.83003 0.84905 0.0
C871 C 0.96962 0.83019 0.87947 0.0
C872 C 0.96317 0.84136 0.90987 0.0
C873 C 0.93921 0.85204 0.9097 0.0
C874 C 0.81105 0.81021 0.90162 0.0
C875 C 0.83756 0.75843 0.83107 0.0
O876 O 0.75479 0.76566 0.83451 0.0
O877 O 0.751 0.7861 0.7902 0.0
O878 O 0.82013 0.83596 0.81438 0.0
O879 O 0.80512 0.79398 0.7775 0.0
O880 O 0.7798 0.84276 0.84231 0.0
O881 O 0.82382 0.87739 0.86064 0.0
O882 O 0.88011 0.86031 0.84908 0.0
O883 O 0.88127 0.8558 0.90063 0.0
O884 O 0.81387 0.79694 0.87339 0.0
O885 O 0.8281 0.83943 0.90884 0.0
O886 O 0.85374 0.78828 0.8475 0.0
O887 O 0.81026 0.75536 0.81911 0.0
H888 H 0.74 0.80661 0.87291 0.0
H889 H 0.70419 0.82904 0.89096 0.0
H890 H 0.65068 0.79304 0.79136 0.0
H891 H 0.68659 0.77015 0.77303 0.0
H892 H 0.91546 0.84062 0.82482 0.0
H893 H 0.95671 0.82162 0.82535 0.0
H894 H 0.97662 0.84176 0.93362 0.0
H895 H 0.93465 0.8606 0.93343 0.0
Tb896 Tb 0.56204 0.54319 0.59091 0.0
Tb897 Tb 0.61559 0.58475 0.63669 0.0
C898 C 0.51011 0.51587 0.57423 0.0
C899 C 0.48732 0.52659 0.58523 0.0
C900 C 0.48847 0.55942 0.58981 0.0
C901 C 0.46952 0.57067 0.60509 0.0
C902 C 0.4489 0.54927 0.61571 0.0
C903 C 0.44674 0.51621 0.60994 0.0
C904 C 0.46607 0.50495 0.59496 0.0
C905 C 0.59863 0.55645 0.55202 0.0
C906 C 0.5774 0.62065 0.6 0.0
C907 C 0.66543 0.61079 0.66951 0.0
C908 C 0.68727 0.59668 0.68366 0.0
C909 C 0.70204 0.58345 0.66249 0.0
C910 C 0.71758 0.56351 0.67328 0.0
C911 C 0.71904 0.55683 0.70553 0.0
C912 C 0.70689 0.57264 0.7281 0.0
C913 C 0.69093 0.59247 0.71713 0.0
C914 C 0.5716 0.57413 0.66505 0.0
C915 C 0.60286 0.50626 0.62369 0.0
O916 O 0.52718 0.50885 0.59776 0.0
O917 O 0.52364 0.53332 0.55611 0.0
O918 O 0.60303 0.56576 0.58375 0.0
O919 O 0.57342 0.53676 0.54218 0.0
O920 O 0.55726 0.59321 0.59667 0.0
O921 O 0.60361 0.6218 0.61254 0.0
O922 O 0.65778 0.60501 0.6367 0.0
O923 O 0.64381 0.60697 0.68312 0.0
O924 O 0.57786 0.55449 0.64426 0.0
O925 O 0.5905 0.60171 0.66992 0.0
O926 O 0.6203 0.53547 0.63893 0.0
O927 O 0.57887 0.50318 0.60218 0.0
H928 H 0.50444 0.57668 0.58246 0.0
H929 H 0.47124 0.59621 0.6092 0.0
H930 H 0.43074 0.49946 0.61797 0.0
H931 H 0.46498 0.4796 0.5919 0.0
H932 H 0.70018 0.58672 0.63683 0.0
H933 H 0.72719 0.55173 0.65568 0.0
H934 H 0.7083 0.56806 0.75326 0.0
H935 H 0.68015 0.60292 0.73416 0.0
Tb936 Tb 0.11006 0.57096 0.10563 0.0
Tb937 Tb 0.05251 0.56555 0.12745 0.0
C938 C 0.16074 0.57271 0.1079 0.0
C939 C 0.18238 0.55559 0.11632 0.0
C940 C 0.20646 0.57081 0.14245 0.0
C941 C 0.22901 0.55746 0.14752 0.0
C942 C 0.22811 0.52866 0.12643 0.0
C943 C 0.20383 0.5129 0.10089 0.0
C944 C 0.18124 0.52617 0.09586 0.0
C945 C 0.06993 0.5739 0.05304 0.0
C946 C 0.06679 0.50093 0.09945 0.0
C947 C 1.00211 0.56462 0.12707 0.0
C948 C 0.98014 0.58147 0.11843 0.0
C949 C 0.96062 0.57173 0.08706 0.0
C950 C 0.93767 0.58447 0.08093 0.0
C951 C 0.93344 0.60706 0.10609 0.0
C952 C 0.95324 0.61736 0.1371 0.0
C953 C 0.97616 0.60473 0.14321 0.0
C954 C 0.09289 0.56005 0.17929 0.0
C955 C 0.09381 0.63595 0.1285 0.0
O956 O 0.15257 0.58777 0.13246 0.0
O957 O 0.14 0.55878 0.08152 0.0
O958 O 0.0681 0.57081 0.08295 0.0
O959 O 0.09602 0.57618 0.05304 0.0
O960 O 0.09263 0.51834 0.09983 0.0
O961 O 0.04724 0.51421 0.10729 0.0
O962 O 1.00948 0.54814 0.10275 0.0
O963 O 1.02356 0.57954 0.1524 0.0
O964 O 0.09424 0.56418 0.14958 0.0
O965 O 0.06713 0.55905 0.17989 0.0
O966 O 0.0688 0.618 0.13037 0.0
O967 O 0.11366 0.62281 0.12128 0.0
H968 H 0.20827 0.59367 0.15833 0.0
H969 H 0.2475 0.57006 0.16738 0.0
H970 H 0.20262 0.49066 0.08433 0.0
H971 H 0.16325 0.51382 0.07526 0.0
H972 H 0.9626 0.55356 0.06749 0.0
H973 H 0.92278 0.57608 0.05678 0.0
H974 H 0.95056 0.63469 0.15697 0.0
H975 H 0.99033 0.61251 0.16786 0.0
C976 C 0.03059 0.17676 0.03252 0.0
C977 C 0.04152 0.20925 0.05147 0.0
C978 C 0.06137 0.18646 0.09918 0.0
C979 C 0.05401 0.15491 0.07844 0.0
N980 N 0.03745 0.12365 0.02151 0.0
N981 N 0.07269 0.24444 0.10227 0.0
C982 C 0.04014 0.15109 0.04409 0.0
C983 C 0.05827 0.21387 0.08474 0.0
N984 N 1.01004 0.16976 1.00378 0.0
N985 N 0.07054 0.19035 0.1331 0.0
H986 H 0.07231 0.26496 0.09257 0.0
H987 H 0.08742 0.24921 0.12496 0.0
H988 H 0.07217 0.17113 0.14466 0.0
H989 H 0.07353 0.21188 0.14994 0.0
H990 H 0.99944 0.14618 0.99076 0.0
H991 H 1.00117 0.18698 0.99536 0.0
H992 H 0.03006 0.12095 0.99571 0.0
H993 H 0.04559 0.1052 0.02784 0.0
C994 C 0.21947 0.86813 0.29359 0.0
C995 C 0.19639 0.84114 0.27563 0.0
C996 C 0.22026 0.80485 0.30208 0.0
C997 C 0.24342 0.83168 0.32002 0.0
N998 N 0.26378 0.88943 0.33602 0.0
N999 N 0.1779 0.78327 0.25729 0.0
C1000 C 0.24279 0.86349 0.31629 0.0
C1001 C 0.19765 0.8094 0.27858 0.0
N1002 N 0.21918 0.89818 0.28853 0.0
N1003 N 0.21952 0.77479 0.30803 0.0
H1004 H 0.16131 0.78525 0.23948 0.0
H1005 H 0.17921 0.75973 0.25485 0.0
H1006 H 0.23594 0.77015 0.32383 0.0
H1007 H 0.20188 0.75475 0.2994 0.0
H1008 H 0.236 0.91895 0.29791 0.0
H1009 H 0.20219 0.90225 0.27317 0.0
H1010 H 0.26439 0.91341 0.33663 0.0
H1011 H 0.28013 0.88714 0.35394 0.0
C1012 C 0.54213 0.89884 0.58342 0.0
C1013 C 0.55404 0.88929 0.55638 0.0
C1014 C 0.56962 0.94633 0.55147 0.0
C1015 C 0.55997 0.9565 0.58033 0.0
N1016 N 0.54129 0.94217 0.6274 0.0
N1017 N 0.58545 0.9055 0.5207 0.0
C1018 C 0.54733 0.93264 0.59731 0.0
C1019 C 0.56973 0.9136 0.54236 0.0
N1020 N 0.52511 0.8757 0.59517 0.0
N1021 N 0.57741 0.96756 0.53148 0.0
H1022 H 0.58677 0.88205 0.51412 0.0
H1023 H 0.59953 0.92256 0.51227 0.0
H1024 H 0.57638 0.99125 0.53605 0.0
H1025 H 0.58182 0.96065 0.5083 0.0
H1026 H 0.51318 0.88089 0.61213 0.0
H1027 H 0.52152 0.85107 0.58617 0.0
H1028 H 0.53482 0.92629 0.6427 0.0
H1029 H 0.54504 0.96636 0.63849 0.0
C1030 C 0.5193 0.30889 0.74779 0.0
C1031 C 0.54532 0.31394 0.77102 0.0
C1032 C 0.52025 0.31092 0.81684 0.0
C1033 C 0.49471 0.3085 0.79408 0.0
N1034 N 0.47118 0.31149 0.73904 0.0
N1035 N 0.57119 0.32656 0.82874 0.0
C1036 C 0.49465 0.30941 0.75989 0.0
C1037 C 0.54593 0.31687 0.80587 0.0
N1038 N 0.51765 0.30176 0.71401 0.0
N1039 N 0.51987 0.30635 0.84873 0.0
H1040 H 0.5904 0.33198 0.82182 0.0
H1041 H 0.57316 0.33241 0.8546 0.0
H1042 H 0.5016 0.30183 0.85774 0.0
H1043 H 0.53715 0.30418 0.86527 0.0
H1044 H 0.49873 0.29431 0.69599 0.0
H1045 H 0.53481 0.30028 0.70394 0.0
H1046 H 0.47076 0.3158 0.7149 0.0
H1047 H 0.45281 0.31185 0.74694 0.0
C1048 C 0.09089 0.9047 0.73971 0.0
C1049 C 0.07272 0.87473 0.74096 0.0
C1050 C 0.03555 0.88265 0.69904 0.0
C1051 C 0.05579 0.90845 0.69269 0.0
N1052 N 0.10305 0.94443 0.70621 0.0
N1053 N 0.02729 0.83439 0.722 0.0
C1054 C 0.08342 0.92012 0.7133 0.0
C1055 C 0.04459 0.86381 0.72139 0.0
N1056 N 0.11536 0.9181 0.76372 0.0
N1057 N 1.00795 0.8759 0.68314 0.0
H1058 H 0.03277 0.81978 0.73812 0.0
H1059 H 1.00795 0.8235 0.70512 0.0
H1060 H 1.00108 0.88935 0.66635 0.0
H1061 H 0.99172 0.85918 0.68889 0.0
H1062 H 0.12843 0.9413 0.76584 0.0
H1063 H 0.121 0.90712 0.78357 0.0
H1064 H 0.12444 0.9504 0.71712 0.0
H1065 H 0.09828 0.95734 0.68784 0.0
C1066 C 0.45451 0.87411 0.91047 0.0
C1067 C 0.46846 0.85778 0.89003 0.0
C1068 C 0.42334 0.81912 0.85894 0.0
C1069 C 0.4092 0.83696 0.87766 0.0
N1070 N 0.41059 0.8824 0.91966 0.0
N1071 N 0.4669 0.81706 0.84304 0.0
C1072 C 0.42461 0.86478 0.90295 0.0
C1073 C 0.45308 0.83077 0.8639 0.0
N1074 N 0.46993 0.89779 0.93784 0.0
N1075 N 0.40837 0.79105 0.83639 0.0
H1076 H 0.48868 0.82481 0.84628 0.0
H1077 H 0.45687 0.79964 0.82118 0.0
H1078 H 0.38651 0.78273 0.83012 0.0
H1079 H 0.41753 0.77482 0.82515 0.0
H1080 H 0.4613 0.90804 0.95613 0.0
H1081 H 0.49184 0.90588 0.94369 0.0
H1082 H 0.42023 0.90508 0.93525 0.0
H1083 H 0.38885 0.87503 0.91678 0.0
C1084 C 0.53868 0.1915 0.16487 0.0
C1085 C 0.56436 0.20218 0.18945 0.0
C1086 C 0.58637 0.17353 0.15196 0.0
C1087 C 0.55969 0.15801 0.13044 0.0
N1088 N 0.51026 0.15351 0.11396 0.0
N1089 N 0.61292 0.20349 0.20743 0.0
C1090 C 0.53583 0.16784 0.13575 0.0
C1091 C 0.58841 0.19354 0.18314 0.0
N1092 N 0.51722 0.20415 0.16939 0.0
N1093 N 0.6097 0.16919 0.1421 0.0
H1094 H 0.61544 0.21853 0.23059 0.0
H1095 H 0.63015 0.19502 0.20567 0.0
H1096 H 0.60831 0.15511 0.11876 0.0
H1097 H 0.63016 0.18184 0.1552 0.0
H1098 H 0.49892 0.19998 0.15103 0.0
H1099 H 0.51849 0.22074 0.19101 0.0
H1100 H 0.49144 0.15638 0.11867 0.0
H1101 H 0.50752 0.13767 0.09136 0.0
C1102 C 0.10999 0.33272 0.32788 0.0
C1103 C 0.10037 0.31622 0.35237 0.0
C1104 C 0.13408 0.28521 0.3496 0.0
C1105 C 0.14536 0.30348 0.32725 0.0
N1106 N 0.1467 0.3469 0.29756 0.0
N1107 N 0.10718 0.28226 0.39218 0.0
C1108 C 0.13404 0.32792 0.31698 0.0
C1109 C 0.11347 0.29394 0.36477 0.0
N1110 N 0.09572 0.35221 0.31454 0.0
N1111 N 0.14282 0.25916 0.356 0.0
H1112 H 0.09269 0.28866 0.40475 0.0
H1113 H 0.11835 0.26883 0.40462 0.0
H1114 H 0.15821 0.2521 0.34572 0.0
H1115 H 0.13305 0.2428 0.36907 0.0
H1116 H 0.09987 0.3624 0.29418 0.0
H1117 H 0.07838 0.35656 0.32256 0.0
H1118 H 0.14139 0.36732 0.29212 0.0
H1119 H 0.16382 0.3433 0.28844 0.0
C1120 C 1.00943 0.07007 0.21919 0.0
C1121 C 1.01561 0.04544 0.23562 0.0
C1122 C 0.05316 0.04495 0.20489 0.0
C1123 C 0.04431 0.06627 0.18531 0.0
N1124 N 1.01082 0.09518 0.1708 0.0
N1125 N 0.04076 1.0057 0.23939 0.0
C1126 C 1.02151 0.07765 0.19163 0.0
C1127 C 0.03684 0.0319 0.22721 0.0
N1128 N 0.99306 0.08757 0.23099 0.0
N1129 N 0.07788 0.0382 0.20345 0.0
H1130 H 0.02922 0.99533 0.25545 0.0
H1131 H 0.05361 0.99252 0.23113 0.0
H1132 H 0.09097 0.04803 0.1886 0.0
H1133 H 0.08676 0.02543 0.21946 0.0
H1134 H 0.99004 0.10779 0.22222 0.0
H1135 H 0.98507 0.08424 0.25212 0.0
H1136 H 0.99214 0.10084 0.17162 0.0
H1137 H 1.01923 0.10151 0.15069 0.0
C1138 C 0.32012 0.76217 0.60307 0.0
C1139 C 0.3164 0.72931 0.58866 0.0
C1140 C 0.31084 0.74152 0.53244 0.0
C1141 C 0.31275 0.77387 0.54663 0.0
N1142 N 0.31292 0.81323 0.59423 0.0
N1143 N 0.3011 0.68617 0.53948 0.0
C1144 C 0.31535 0.78362 0.58161 0.0
C1145 C 0.30958 0.7185 0.55326 0.0
N1146 N 0.32981 0.77342 0.63703 0.0
N1147 N 0.31161 0.73305 0.49949 0.0
H1148 H 0.29926 0.66854 0.55399 0.0
H1149 H 0.29312 0.67682 0.51381 0.0
H1150 H 0.31285 0.74915 0.48328 0.0
H1151 H 0.31345 0.71073 0.48896 0.0
H1152 H 0.33579 0.79783 0.64839 0.0
H1153 H 0.33437 0.75888 0.65373 0.0
H1154 H 0.3118 0.82041 0.61901 0.0
H1155 H 0.30934 0.82947 0.57911 0.0
C1156 C 0.61431 0.03378 0.76558 0.0
C1157 C 0.64408 0.04729 0.77445 0.0
C1158 C 0.63927 0.06695 0.7197 0.0
C1159 C 0.6093 0.05245 0.71039 0.0
N1160 N 0.56934 0.03548 0.73474 0.0
N1161 N 0.68502 0.07588 0.75777 0.0
C1162 C 0.59719 0.03928 0.73608 0.0
C1163 C 0.65644 0.06352 0.75073 0.0
N1164 N 0.60202 1.01445 0.78495 0.0
N1165 N 0.65133 0.08675 0.70059 0.0
H1166 H 0.69797 0.07729 0.78093 0.0
H1167 H 0.69626 0.08328 0.74026 0.0
H1168 H 0.63991 0.09206 0.67982 0.0
H1169 H 0.67216 0.1009 0.707 0.0
H1170 H 0.58108 1.00044 0.77787 0.0
H1171 H 0.61347 1.00972 0.8063 0.0
H1172 H 0.55969 0.02872 0.75379 0.0
H1173 H 0.55692 0.04447 0.71795 0.0
C1174 C 0.34756 0.33771 0.01104 0.0
C1175 C 0.35318 0.3711 0.02452 0.0
C1176 C 0.34542 0.38092 0.96683 0.0
C1177 C 0.34308 0.34814 0.95379 0.0
N1178 N 0.34777 0.29686 0.96486 0.0
N1179 N 0.36285 0.42563 0.01496 0.0
C1180 C 0.34602 0.32704 0.97631 0.0
C1181 C 0.35332 0.39306 1.00235 0.0
N1182 N 0.3424 0.31585 0.03114 0.0
N1183 N 0.34062 0.40078 0.94534 0.0
H1184 H 0.36973 0.43584 0.04053 0.0
H1185 H 0.36653 0.44264 1.0 0.0
H1186 H 0.33708 0.39379 0.91931 0.0
H1187 H 0.33847 0.42359 0.95326 0.0
H1188 H 0.33531 0.29096 0.02194 0.0
H1189 H 0.34207 0.32255 0.05633 0.0
H1190 H 0.35304 0.28195 0.98077 0.0
H1191 H 0.34641 0.28773 0.93974 0.0
C1192 C 0.04818 0.07449 0.4424 0.0
C1193 C 1.02343 0.04923 0.42571 0.0
C1194 C 1.01657 0.03721 0.48042 0.0
C1195 C 0.04297 0.05999 0.49687 0.0
N1196 N 0.08566 0.09783 0.49283 0.0
N1197 N 0.9851 1.00445 0.42824 0.0
C1198 C 0.05914 0.07827 0.47773 0.0
C1199 C 1.00787 0.03012 0.44462 0.0
N1200 N 0.06109 0.09504 0.42448 0.0
N1201 N 0.99927 0.02302 0.49916 0.0
H1202 H 0.97723 0.9992 0.40227 0.0
H1203 H 0.97506 0.98703 0.44003 0.0
H1204 H 1.00483 0.02733 0.5253 0.0
H1205 H 0.97849 1.0092 0.48916 0.0
H1206 H 0.07745 0.11602 0.43549 0.0
H1207 H 0.05387 0.09242 0.39862 0.0
H1208 H 0.09971 0.10898 0.47971 0.0
H1209 H 0.09462 0.10095 0.51831 0.0
C1210 C 0.36755 0.76021 0.74528 0.0
C1211 C 0.34752 0.7299 0.73004 0.0
C1212 C 0.30945 0.75109 0.74313 0.0
C1213 C 0.32956 0.7803 0.76083 0.0
N1214 N 0.37616 0.81652 0.77199 0.0
N1215 N 0.29837 0.69826 0.70972 0.0
C1216 C 0.35818 0.78611 0.75953 0.0
C1217 C 0.31835 0.72599 0.72716 0.0
N1218 N 0.39549 0.76362 0.74752 0.0
N1219 N 0.28162 0.74675 0.74222 0.0
H1220 H 0.30264 0.67848 0.69653 0.0
H1221 H 0.30264 0.67848 0.69653 0.0
H1222 H 0.27416 0.76501 0.75297 0.0
H1223 H 0.26617 0.72518 0.73013 0.0
H1224 H 0.41155 0.78397 0.76107 0.0
H1225 H 0.40285 0.74522 0.73685 0.0
H1226 H 0.39703 0.82342 0.77032 0.0
H1227 H 0.36938 0.83578 0.78187 0.0
C1228 C 0.61276 0.05069 0.97103 0.0
C1229 C 0.63435 0.07866 0.96945 0.0
C1230 C 0.62596 0.10593 0.02384 0.0
C1231 C 0.60432 0.07802 0.02543 0.0
N1232 N 0.57606 0.02414 0.99745 0.0
N1233 N 0.66416 0.13129 0.99878 0.0
C1234 C 0.59765 0.05058 0.9981 0.0
C1235 C 0.64139 0.10582 0.99706 0.0
N1236 N 0.60694 0.02351 0.94666 0.0
N1237 N 0.63085 0.1336 0.04717 0.0
H1238 H 0.67571 0.13226 0.98032 0.0
H1239 H 0.67312 0.15025 0.01955 0.0
H1240 H 0.62043 0.13468 0.06663 0.0
H1241 H 0.64347 0.15603 0.04597 0.0
H1242 H 0.5947 1.00082 0.94767 0.0
H1243 H 0.61556 0.02316 0.92563 0.0
H1244 H 0.56709 1.00483 0.97707 0.0
H1245 H 0.56606 0.02178 0.01717 0.0
C1246 C 0.34471 0.34424 0.20479 0.0
C1247 C 0.35723 0.3783 0.21178 0.0
C1248 C 0.35349 0.37943 0.27077 0.0
C1249 C 0.3429 0.3448 0.26427 0.0
N1250 N 0.34186 0.29591 0.22704 0.0
N1251 N 0.38311 0.42519 0.25541 0.0
C1252 C 0.34268 0.32771 0.23191 0.0
C1253 C 0.3644 0.39497 0.24592 0.0
N1254 N 0.33347 0.3274 0.17248 0.0
N1255 N 0.35328 0.39828 0.3001 0.0
H1256 H 0.39355 0.43644 0.23895 0.0
H1257 H 0.39111 0.43716 0.28048 0.0
H1258 H 0.34854 0.38977 0.32089 0.0
H1259 H 0.35678 0.42318 0.30312 0.0
H1260 H 0.32222 0.30296 0.16674 0.0
H1261 H 0.33225 0.33836 0.15183 0.0
H1262 H 0.34349 0.28322 0.20438 0.0
H1263 H 0.34397 0.28383 0.24678 0.0
C1264 C 0.25284 0.03609 0.12238 0.0
C1265 C 0.25165 0.02731 0.08749 0.0
C1266 C 0.2458 0.07956 0.07946 0.0
C1267 C 0.24413 0.08655 0.11344 0.0
N1268 N 0.25935 0.07939 0.16963 0.0
N1269 N 0.25579 0.04393 0.03525 0.0
C1270 C 0.25268 0.06769 0.13576 0.0
C1271 C 0.25122 0.05029 0.06678 0.0
N1272 N 0.25153 1.01369 0.14222 0.0
N1273 N 0.23997 0.09993 0.05912 0.0
H1274 H 0.26008 0.02272 0.02569 0.0
H1275 H 0.2576 0.0606 0.01972 0.0
H1276 H 0.23688 0.12189 0.0688 0.0
H1277 H 0.23742 0.0948 0.03314 0.0
H1278 H 0.2488 1.01811 0.16668 0.0
H1279 H 0.25054 0.98975 0.13365 0.0
H1280 H 0.2678 0.06749 0.187 0.0
H1281 H 0.25973 0.10272 0.18004 0.0
C1282 C 0.69856 0.64528 0.10775 0.0
C1283 C 0.7045 0.64561 0.07537 0.0
C1284 C 0.65522 0.61327 0.04978 0.0
C1285 C 0.64907 0.61346 0.08234 0.0
N1286 N 0.66345 0.6408 0.14086 0.0
N1287 N 0.68701 0.63469 0.0155 0.0
C1288 C 0.67027 0.63275 0.1109 0.0
C1289 C 0.6823 0.63115 0.04641 0.0
N1290 N 0.71998 0.6569 0.13591 0.0
N1291 N 0.63513 0.59587 0.0217 0.0
H1292 H 0.70678 0.6457 0.01186 0.0
H1293 H 0.67114 0.6286 0.99368 0.0
H1294 H 0.61417 0.58609 0.02188 0.0
H1295 H 0.63929 0.59035 0.99813 0.0
H1296 H 0.71757 0.65351 0.15971 0.0
H1297 H 0.74072 0.66772 0.13539 0.0
H1298 H 0.67755 0.65711 0.16159 0.0
H1299 H 0.64296 0.63532 0.14384 0.0
C1300 C 0.712 0.48224 0.35432 0.0
C1301 C 0.71704 0.51009 0.37974 0.0
C1302 C 0.74746 0.48899 0.41805 0.0
C1303 C 0.74594 0.46403 0.39098 0.0
N1304 N 0.7287 0.43804 0.33231 0.0
N1305 N 0.74193 0.54196 0.43502 0.0
C1306 C 0.72852 0.46075 0.35885 0.0
C1307 C 0.7351 0.51385 0.41163 0.0
N1308 N 0.69097 0.476 0.32613 0.0
N1309 N 0.76059 0.48874 0.4499 0.0
H1310 H 0.73378 0.56107 0.4313 0.0
H1311 H 0.75747 0.54748 0.45709 0.0
H1312 H 0.76975 0.47074 0.45526 0.0
H1313 H 0.76007 0.50444 0.47122 0.0
H1314 H 0.68466 0.45466 0.30805 0.0
H1315 H 0.67793 0.49079 0.32242 0.0
H1316 H 0.71907 0.43704 0.30752 0.0
H1317 H 0.74024 0.42155 0.33461 0.0
C1318 C 0.83636 0.49346 0.58497 0.0
C1319 C 0.81915 0.46963 0.5565 0.0
C1320 C 0.85392 0.48663 0.52369 0.0
C1321 C 0.87006 0.51168 0.55157 0.0
N1322 N 0.87272 0.54454 0.60499 0.0
N1323 N 0.80818 0.44925 0.49647 0.0
C1324 C 0.8598 0.51705 0.58088 0.0
C1325 C 0.82684 0.46807 0.52506 0.0
N1326 N 0.83196 0.49213 0.61642 0.0
N1327 N 0.86491 0.47938 0.49668 0.0
H1328 H 0.78774 0.43628 0.49625 0.0
H1329 H 0.81189 0.44928 0.47253 0.0
H1330 H 0.88473 0.49221 0.49466 0.0
H1331 H 0.8553 0.45897 0.47751 0.0
H1332 H 0.81657 0.47377 0.62134 0.0
H1333 H 0.8457 0.50715 0.6382 0.0
H1334 H 0.86455 0.55104 0.62549 0.0
H1335 H 0.88995 0.5624 0.60257 0.0
C1336 C 0.35249 0.17164 0.32899 0.0
C1337 C 0.37976 0.17456 0.32194 0.0
C1338 C 0.38027 0.23208 0.31699 0.0
C1339 C 0.35463 0.23057 0.32794 0.0
N1340 N 0.31852 0.1968 0.34841 0.0
N1341 N 0.42087 0.21183 0.314 0.0
C1342 C 0.34139 0.19957 0.33475 0.0
C1343 C 0.3939 0.20613 0.31762 0.0
N1344 N 0.33663 0.14166 0.33007 0.0
N1345 N 0.39076 0.25737 0.30295 0.0
H1346 H 0.43105 0.19389 0.31292 0.0
H1347 H 0.4337 0.23484 0.31475 0.0
H1348 H 0.38109 0.2755 0.30035 0.0
H1349 H 0.40676 0.25805 0.29016 0.0
H1350 H 0.31548 0.13626 0.33068 0.0
H1351 H 0.34411 0.12152 0.32778 0.0
H1352 H 0.30981 0.17697 0.3581 0.0
H1353 H 0.30968 0.21558 0.35296 0.0
C1354 C 0.3845 0.15649 0.59895 0.0
C1355 C 0.35707 0.13454 0.59308 0.0
C1356 C 0.37866 0.09012 0.59772 0.0
C1357 C 0.4058 0.11162 0.60085 0.0
N1358 N 0.43372 0.1643 0.59828 0.0
N1359 N 0.32802 0.07931 0.58047 0.0
C1360 C 0.40842 0.14452 0.59961 0.0
C1361 C 0.3542 0.10102 0.59072 0.0
N1362 N 0.38803 0.18901 0.60578 0.0
N1363 N 0.37624 0.05946 0.60265 0.0
H1364 H 0.30976 0.0862 0.57447 0.0
H1365 H 0.32456 0.05441 0.57476 0.0
H1366 H 0.39346 0.05054 0.60778 0.0
H1367 H 0.35755 0.04378 0.60455 0.0
H1368 H 0.40764 0.20619 0.61399 0.0
H1369 H 0.37141 0.19892 0.60636 0.0
H1370 H 0.43637 0.18746 0.59357 0.0
H1371 H 0.45162 0.15653 0.59887 0.0
C1372 C 0.73843 0.68537 0.34669 0.0
C1373 C 0.7344 0.68118 0.37906 0.0
C1374 C 0.77102 0.73255 0.40401 0.0
C1375 C 0.77803 0.73395 0.37232 0.0
N1376 N 0.77106 0.70759 0.31438 0.0
N1377 N 0.74884 0.69938 0.4392 0.0
C1378 C 0.76231 0.7094 0.34379 0.0
C1379 C 0.75109 0.70453 0.40794 0.0
N1380 N 0.71905 0.66676 0.31854 0.0
N1381 N 0.78278 0.75844 0.43018 0.0
H1382 H 0.73439 0.67932 0.44303 0.0
H1383 H 0.76271 0.71363 0.46127 0.0
H1384 H 0.79669 0.77951 0.42784 0.0
H1385 H 0.7766 0.76029 0.45289 0.0
H1386 H 0.71938 0.671 0.29448 0.0
H1387 H 0.70096 0.64935 0.31952 0.0
H1388 H 0.76201 0.68816 0.29401 0.0
H1389 H 0.78909 0.72363 0.31132 0.0
C1390 C 0.89178 0.47801 0.87335 0.0
C1391 C 0.8879 0.48825 0.84202 0.0
C1392 C 0.85983 0.43026 0.81592 0.0
C1393 C 0.86607 0.41956 0.84708 0.0
N1394 N 0.89674 0.43498 0.9026 0.0
N1395 N 0.87144 0.47104 0.7821 0.0
C1396 C 0.88431 0.44408 0.87494 0.0
C1397 C 0.87264 0.46344 0.81303 0.0
N1398 N 0.90251 0.50103 0.90233 0.0
N1399 N 0.84115 0.40917 0.78874 0.0
H1400 H 0.87971 0.49447 0.77894 0.0
H1401 H 0.86422 0.45385 0.75967 0.0
H1402 H 0.83215 0.38495 0.78834 0.0
H1403 H 0.8328 0.41628 0.76719 0.0
H1404 H 0.90331 0.4957 0.92614 0.0
H1405 H 0.90765 0.52571 0.90248 0.0
H1406 H 0.91222 0.45114 0.92226 0.0
H1407 H 0.8947 0.41092 0.90385 0.0
C1408 C 0.13624 0.95449 0.14598 0.0
C1409 C 0.11551 0.92843 0.15257 0.0
C1410 C 0.08158 0.96051 0.14087 0.0
C1411 C 0.10113 0.98422 0.12973 0.0
N1412 N 0.1463 0.99822 0.11575 0.0
N1413 N 0.06573 0.90476 0.14644 0.0
C1414 C 0.12824 0.97956 0.13067 0.0
C1415 C 0.08747 0.93102 0.14721 0.0
N1416 N 0.164 0.95658 0.15585 0.0
N1417 N 0.05767 0.96654 0.14734 0.0
H1418 H 0.06835 0.88223 0.14844 0.0
H1419 H 0.04475 0.90431 0.13951 0.0
H1420 H 0.05301 0.98811 0.1454 0.0
H1421 H 0.04425 0.95178 0.15874 0.0
H1422 H 0.18011 0.97645 0.1548 0.0
H1423 H 0.17107 0.94045 0.16874 0.0
H1424 H 0.16517 0.99408 0.11267 0.0
H1425 H 0.14101 1.01543 0.10307 0.0
C1426 C 0.95216 0.31943 0.92814 0.0
C1427 C 0.95163 0.29326 0.9451 0.0
C1428 C 0.89935 0.27771 0.92901 0.0
C1429 C 0.89985 0.3021 0.90959 0.0
N1430 N 0.92773 0.34324 0.88697 0.0
N1431 N 0.92422 0.24502 0.95788 0.0
C1432 C 0.92656 0.32228 0.90835 0.0
C1433 C 0.92502 0.27189 0.94459 0.0
N1434 N 0.97714 0.34239 0.93183 0.0
N1435 N 0.87409 0.26037 0.93327 0.0
H1436 H 0.9423 0.23987 0.96921 0.0
H1437 H 0.90593 0.2264 0.95518 0.0
H1438 H 0.85503 0.26346 0.92206 0.0
H1439 H 0.87207 0.24497 0.9501 0.0
H1440 H 0.97876 0.36407 0.92381 0.0
H1441 H 0.99615 0.34093 0.94533 0.0
H1442 H 0.94633 0.35575 0.88165 0.0
H1443 H 0.90988 0.34638 0.87247 0.0
C1444 C 0.62731 0.21794 0.66628 0.0
C1445 C 0.60705 0.23271 0.65291 0.0
C1446 C 0.57852 0.17918 0.61823 0.0
C1447 C 0.59662 0.16377 0.63581 0.0
N1448 N 0.63557 0.1697 0.6823 0.0
N1449 N 0.56186 0.22674 0.61787 0.0
C1450 C 0.62049 0.18353 0.66115 0.0
C1451 C 0.58224 0.21311 0.62925 0.0
N1452 N 0.65327 0.23695 0.68418 0.0
N1453 N 0.55843 0.16182 0.59016 0.0
H1454 H 0.56456 0.25151 0.62433 0.0
H1455 H 0.54189 0.2133 0.60375 0.0
H1456 H 0.55571 0.13753 0.5805 0.0
H1457 H 0.54642 0.17227 0.57453 0.0
H1458 H 0.66988 0.22774 0.69195 0.0
H1459 H 0.65898 0.26211 0.68804 0.0
H1460 H 0.65143 0.18306 0.70317 0.0
H1461 H 0.63012 0.14498 0.68163 0.0
C1462 C 0.61762 0.77616 0.44102 0.0
C1463 C 0.6041 0.80096 0.44363 0.0
C1464 C 0.63753 0.83168 0.41499 0.0
C1465 C 0.65293 0.80866 0.41591 0.0
N1466 N 0.65981 0.76124 0.43483 0.0
N1467 N 0.6051 0.85548 0.43863 0.0
C1468 C 0.6435 0.78147 0.43027 0.0
C1469 C 0.61505 0.82952 0.43195 0.0
N1470 N 0.60522 0.74697 0.44773 0.0
N1471 N 0.64377 0.85519 0.39699 0.0
H1472 H 0.58925 0.85546 0.45154 0.0
H1473 H 0.61442 0.87811 0.43422 0.0
H1474 H 0.6598 0.85751 0.38407 0.0
H1475 H 0.63138 0.87043 0.39226 0.0
H1476 H 0.61238 0.72681 0.44304 0.0
H1477 H 0.58608 0.74191 0.45485 0.0
H1478 H 0.65574 0.74309 0.44842 0.0
H1479 H 0.67888 0.76442 0.42766 0.0
C1480 C 0.04527 0.25317 0.4871 0.0
C1481 C 0.06517 0.28077 0.48299 0.0
C1482 C 0.10239 0.27091 0.52319 0.0
C1483 C 0.0826 0.24298 0.52677 0.0
N1484 N 0.03692 0.20353 0.50776 0.0
N1485 N 0.11328 0.31256 0.49105 0.0
C1486 C 0.05458 0.23277 0.50716 0.0
C1487 C 0.09398 0.28866 0.49923 0.0
N1488 N 1.01729 0.24745 0.47331 0.0
N1489 N 0.12891 0.28086 0.54335 0.0
H1490 H 0.10774 0.32593 0.47346 0.0
H1491 H 0.1349 0.31739 0.49948 0.0
H1492 H 0.13603 0.26759 0.56016 0.0
H1493 H 0.14336 0.30301 0.54481 0.0
H1494 H 1.00144 0.22999 0.47873 0.0
H1495 H 1.00956 0.26179 0.45829 0.0
H1496 H 1.01735 0.19312 0.49123 0.0
H1497 H 0.04264 0.18826 0.52298 0.0
C1498 C 0.68501 0.30588 0.33533 0.0
C1499 C 0.66504 0.27494 0.32559 0.0
C1500 C 0.70355 0.25034 0.32945 0.0
C1501 C 0.7228 0.28106 0.33235 0.0
N1502 N 0.72995 0.33751 0.33015 0.0
N1503 N 0.65582 0.21705 0.30679 0.0
C1504 C 0.71312 0.30883 0.33341 0.0
C1505 C 0.67433 0.24683 0.32114 0.0
N1506 N 0.67704 0.33248 0.34609 0.0
N1507 N 0.71294 0.22463 0.33533 0.0
H1508 H 0.63426 0.21287 0.29872 0.0
H1509 H 0.66235 0.19677 0.29983 0.0
H1510 H 0.73417 0.22633 0.34267 0.0
H1511 H 0.69954 0.20258 0.33652 0.0
H1512 H 0.69135 0.3553 0.35587 0.0
H1513 H 0.65661 0.3309 0.34865 0.0
H1514 H 0.72274 0.35754 0.32791 0.0
H1515 H 0.74994 0.34025 0.32562 0.0
C1516 C 0.53759 0.93491 0.03383 0.0
C1517 C 0.56225 0.93912 0.02096 0.0
C1518 C 0.58619 0.98735 0.06553 0.0
C1519 C 0.5606 0.98522 0.07604 0.0
N1520 N 0.51176 0.95813 0.07008 0.0
N1521 N 0.60924 0.97031 0.02239 0.0
C1522 C 0.53632 0.95909 0.06035 0.0
C1523 C 0.5864 0.96551 0.03636 0.0
N1524 N 0.51536 0.90778 0.0206 0.0
N1525 N 0.61035 1.01027 0.08354 0.0
H1526 H 0.61053 0.95418 1.00183 0.0
H1527 H 0.6261 0.99126 0.02956 0.0
H1528 H 0.61107 0.02708 0.10463 0.0
H1529 H 0.63017 1.01111 0.07942 0.0
H1530 H 0.49804 0.9014 0.03103 0.0
H1531 H 0.51477 0.89039 1.00002 0.0
H1532 H 0.4923 0.94235 0.05708 0.0
H1533 H 0.51065 0.97439 0.09067 0.0
C1534 C 1.0116 0.77305 0.8589 0.0
C1535 C 0.03776 0.79495 0.85863 0.0
C1536 C 1.02078 0.84064 0.87845 0.0
C1537 C 0.99484 0.81871 0.87856 0.0
N1538 N 0.96938 0.76485 0.88044 0.0
N1539 N 0.07005 0.84852 0.87886 0.0
C1540 C 0.99164 0.78516 0.87281 0.0
C1541 C 0.04323 0.82847 0.87187 0.0
N1542 N 1.00455 0.74125 0.84345 0.0
N1543 N 1.02369 0.873 0.88346 0.0
H1544 H 0.08712 0.84007 0.87576 0.0
H1545 H 0.07576 0.87265 0.89111 0.0
H1546 H 1.00806 0.88281 0.88962 0.0
H1547 H 0.04089 0.88984 0.87962 0.0
H1548 H 0.98456 0.72535 0.83996 0.0
H1549 H 1.01749 0.73114 0.83126 0.0
H1550 H 0.96759 0.74057 0.88023 0.0
H1551 H 0.95419 0.77306 0.8901 0.0
C1552 C 0.12031 0.057 0.97033 0.0
C1553 C 0.13093 0.08991 0.9684 0.0
C1554 C 0.12272 0.10596 0.02508 0.0
C1555 C 0.11177 0.07281 0.02691 0.0
N1556 N 0.11231 1.01845 1.00645 0.0
N1557 N 0.14917 0.14528 0.99834 0.0
C1558 C 0.11422 0.04885 1.00103 0.0
C1559 C 0.13388 0.11425 0.99695 0.0
N1560 N 0.11479 0.03323 0.94239 0.0
N1561 N 0.12319 0.12998 0.05046 0.0
H1562 H 0.15864 0.1522 0.97919 0.0
H1563 H 0.15494 0.16363 0.01973 0.0
H1564 H 0.12312 0.12649 0.07462 0.0
H1565 H 0.12482 0.15361 0.04772 0.0
H1566 H 0.10423 1.00918 0.9413 0.0
H1567 H 0.11817 0.03793 0.91929 0.0
H1568 H 0.11628 1.00071 0.9898 0.0
H1569 H 0.1107 1.01239 0.02958 0.0
C1570 C 0.785 0.32981 0.61242 0.0
C1571 C 0.75608 0.32842 0.60642 0.0
C1572 C 0.74696 0.28465 0.63672 0.0
C1573 C 0.77627 0.28929 0.64649 0.0
N1574 N 0.82275 0.31107 0.63775 0.0
N1575 N 0.70862 0.30084 0.60801 0.0
C1576 C 0.79489 0.30941 0.6316 0.0
C1577 C 0.73673 0.30416 0.6163 0.0
N1578 N 0.80413 0.35165 0.60183 0.0
N1579 N 0.72848 0.26284 0.64808 0.0
H1580 H 0.7002 0.31481 0.5931 0.0
H1581 H 0.69393 0.28368 0.61566 0.0
H1582 H 0.73453 0.24752 0.66313 0.0
H1583 H 0.73453 0.24752 0.66313 0.0
H1584 H 0.79932 0.36856 0.58822 0.0
H1585 H 0.79932 0.36856 0.58822 0.0
H1586 H 0.83718 0.32636 0.62789 0.0
H1587 H 0.83124 0.29645 0.65159 0.0
C1588 C 0.54352 0.09026 0.46791 0.0
C1589 C 0.51878 0.06483 0.45042 0.0
C1590 C 0.52646 0.03726 0.49902 0.0
C1591 C 0.55054 0.06333 0.51706 0.0
N1592 N 0.57812 0.11778 0.52039 0.0
N1593 N 0.4841 1.01682 0.45347 0.0
C1594 C 0.55786 0.09063 0.50182 0.0
C1595 C 0.50964 0.03911 0.46724 0.0
N1596 N 0.55427 0.11364 0.45152 0.0
N1597 N 0.52014 1.00987 0.51154 0.0
H1598 H 0.47128 1.0173 0.43086 0.0
H1599 H 0.47446 0.99961 0.46576 0.0
H1600 H 0.53116 1.00802 0.53467 0.0
H1601 H 0.50536 0.98837 0.49814 0.0
H1602 H 0.57384 0.13073 0.46075 0.0
H1603 H 0.54466 0.11432 0.4272 0.0
H1604 H 0.58254 0.13979 0.51284 0.0
H1605 H 0.58862 0.11927 0.545 0.0
C1606 C 0.77826 0.75131 0.19014 0.0
C1607 C 0.80117 0.76208 0.17522 0.0
C1608 C 0.8269 0.79953 0.22865 0.0
C1609 C 0.80626 0.78454 0.24508 0.0
N1610 N 0.76312 0.74315 0.24122 0.0
N1611 N 0.84829 0.79523 0.18076 0.0
C1612 C 0.78196 0.75985 0.22569 0.0
C1613 C 0.82579 0.78593 0.19461 0.0
N1614 N 0.75277 0.73313 0.17018 0.0
N1615 N 0.84669 0.8278 0.24504 0.0
H1616 H 0.84765 0.78664 0.15559 0.0
H1617 H 0.86795 0.80982 0.19473 0.0
H1618 H 0.84626 0.83971 0.26863 0.0
H1619 H 0.86109 0.84128 0.23378 0.0
H1620 H 0.73455 0.72709 0.17908 0.0
H1621 H 0.74925 0.72691 0.14406 0.0
H1622 H 0.74689 0.72245 0.22876 0.0
H1623 H 0.76498 0.74819 0.26709 0.0
C1624 C 0.12464 0.05024 0.7543 0.0
C1625 C 0.12327 0.07697 0.77757 0.0
C1626 C 0.09785 0.09359 0.72989 0.0
C1627 C 0.10488 0.07127 0.70644 0.0
N1628 N 0.13081 0.03224 0.69876 0.0
N1629 N 0.11317 0.12857 0.7849 0.0
C1630 C 0.11973 0.05043 0.71926 0.0
C1631 C 0.11101 0.09985 0.76476 0.0
N1632 N 0.13039 0.02439 0.76561 0.0
N1633 N 0.0778 0.10804 0.71948 0.0
H1634 H 0.12384 0.1356 0.81004 0.0
H1635 H 0.10691 0.14702 0.77544 0.0
H1636 H 0.06581 0.10249 0.69492 0.0
H1637 H 0.07052 0.12231 0.73627 0.0
H1638 H 0.12979 1.00338 0.74951 0.0
H1639 H 0.13245 0.02253 0.79074 0.0
H1640 H 0.14372 0.01878 0.70778 0.0
H1641 H 0.13021 0.03367 0.67376 0.0
C1642 C 0.80662 0.32726 0.4688 0.0
C1643 C 0.77785 0.3176 0.46995 0.0
C1644 C 0.76999 0.26752 0.42954 0.0
C1645 C 0.7976 0.27941 0.42497 0.0
N1646 N 0.84497 0.31219 0.4496 0.0
N1647 N 0.73147 0.27975 0.45074 0.0
C1648 C 0.81685 0.30671 0.44767 0.0
C1649 C 0.75929 0.28804 0.45013 0.0
N1650 N 0.8236 0.35715 0.48589 0.0
N1651 N 0.75499 0.23592 0.41668 0.0
H1652 H 0.72313 0.29334 0.46685 0.0
H1653 H 0.71629 0.26065 0.43363 0.0
H1654 H 0.76394 0.21894 0.40644 0.0
H1655 H 0.73532 0.22534 0.42073 0.0
H1656 H 0.84386 0.36698 0.48309 0.0
H1657 H 0.81664 0.37361 0.50058 0.0
H1658 H 0.8605 0.33022 0.4675 0.0
H1659 H 0.85281 0.29615 0.43556 0.0
C1660 C 0.49287 0.04947 0.24004 0.0
C1661 C 0.48325 0.07689 0.25059 0.0
C1662 C 0.49723 0.09591 0.19928 0.0
C1663 C 0.50972 0.07053 0.19128 0.0
N1664 N 0.52225 0.02548 0.20932 0.0
N1665 N 0.48177 0.12932 0.24076 0.0
C1666 C 0.50842 0.04827 0.21345 0.0
C1667 C 0.48681 0.10075 0.23003 0.0
N1668 N 0.48554 0.02301 0.25383 0.0
N1669 N 0.495 0.11569 0.17712 0.0
H1670 H 0.47529 0.13438 0.26296 0.0
H1671 H 0.48675 0.14918 0.22962 0.0
H1672 H 0.50232 0.11301 0.15522 0.0
H1673 H 0.48375 0.13251 0.17878 0.0
H1674 H 0.48908 1.00112 0.2452 0.0
H1675 H 0.4729 0.02149 0.2711 0.0
H1676 H 0.52543 1.01111 0.22669 0.0
H1677 H 0.53239 0.02266 0.18974 0.0
C1678 C 0.78887 0.7452 0.95523 0.0
C1679 C 0.78949 0.7652 0.98616 0.0
C1680 C 0.79735 0.81225 0.95848 0.0
C1681 C 0.80001 0.79319 0.92869 0.0
N1682 N 0.78765 0.73889 0.89568 0.0
N1683 N 0.79966 0.81926 0.01834 0.0
C1684 C 0.79306 0.75891 0.92629 0.0
C1685 C 0.79497 0.79906 0.98792 0.0
N1686 N 0.78431 0.71275 0.95336 0.0
N1687 N 0.79474 0.8425 0.95793 0.0
H1688 H 0.79918 0.8111 0.04067 0.0
H1689 H 0.80705 0.84431 0.02204 0.0
H1690 H 0.79322 0.85181 0.93614 0.0
H1691 H 0.78998 0.85644 0.97754 0.0
H1692 H 0.78856 0.6975 0.93441 0.0
H1693 H 0.77739 0.70098 0.97165 0.0
H1694 H 0.77955 0.71391 0.89121 0.0
H1695 H 0.78754 0.74701 0.8735 0.0
C1696 C 0.88754 0.11201 0.1035 0.0
C1697 C 0.90221 0.14062 0.12829 0.0
C1698 C 0.94715 0.13432 0.11867 0.0
C1699 C 0.93229 0.10615 0.09354 0.0
N1700 N 0.88895 0.07364 0.05548 0.0
N1701 N 0.94517 0.18298 0.15403 0.0
C1702 C 0.90265 0.09694 0.08373 0.0
C1703 C 0.93183 0.15304 0.13417 0.0
N1704 N 0.85957 0.09768 0.10048 0.0
N1705 N 0.97577 0.14244 0.12864 0.0
H1706 H 0.93441 0.19732 0.16535 0.0
H1707 H 0.96635 0.19478 0.15682 0.0
H1708 H 0.98775 0.12997 0.11717 0.0
H1709 H 0.98755 0.16032 0.14955 0.0
H1710 H 0.84872 0.07496 0.08551 0.0
H1711 H 0.84762 0.10674 0.11529 0.0
H1712 H 0.86751 0.06815 0.04508 0.0
H1713 H 0.89956 0.06213 0.04052 0.0
C1714 C 0.47068 0.51468 0.16224 0.0
C1715 C 0.45108 0.49363 0.13354 0.0
C1716 C 0.48736 0.50486 0.10075 0.0
C1717 C 0.50531 0.53034 0.12739 0.0
N1718 N 0.5145 0.5569 0.18595 0.0
N1719 N 0.43955 0.47328 0.07362 0.0
C1720 C 0.49698 0.53454 0.15879 0.0
C1721 C 0.45914 0.49008 0.10233 0.0
N1722 N 0.46498 0.5143 0.19326 0.0
N1723 N 0.49745 0.49297 0.07476 0.0
H1724 H 0.41852 0.46286 0.07334 0.0
H1725 H 0.44355 0.47276 0.04973 0.0
H1726 H 0.51847 0.50037 0.07413 0.0
H1727 H 0.48586 0.47255 0.05634 0.0
H1728 H 0.47958 0.5259 0.21575 0.0
H1729 H 0.44623 0.50012 0.19685 0.0
H1730 H 0.50791 0.56535 0.20708 0.0
H1731 H 0.53579 0.56704 0.18764 0.0
C1732 C 0.43738 0.62961 0.80565 0.0
C1733 C 0.42682 0.59863 0.81238 0.0
C1734 C 0.39025 0.61583 0.83469 0.0
C1735 C 0.39799 0.64489 0.82293 0.0
N1736 N 0.42738 0.67887 0.79474 0.0
N1737 N 0.39237 0.56086 0.83138 0.0
C1738 C 0.42134 0.65185 0.808 0.0
C1739 C 0.40311 0.59139 0.82659 0.0
N1740 N 0.46283 0.63779 0.79741 0.0
N1741 N 0.37102 0.61194 0.85418 0.0
H1742 H 0.40181 0.54257 0.82685 0.0
H1743 H 0.37315 0.55304 0.83776 0.0
H1744 H 0.36133 0.62953 0.86092 0.0
H1745 H 0.3666 0.59269 0.86628 0.0
H1746 H 0.4729 0.66102 0.79517 0.0
H1747 H 0.47495 0.62184 0.79553 0.0
H1748 H 0.44219 0.68336 0.78025 0.0
H1749 H 0.41611 0.69574 0.79612 0.0
C1750 C 0.26974 0.54841 0.6517 0.0
C1751 C 0.27664 0.57277 0.63323 0.0
C1752 C 0.22755 0.56089 0.60538 0.0
C1753 C 0.22081 0.54551 0.63179 0.0
N1754 N 0.23358 0.51751 0.67504 0.0
N1755 N 0.26451 0.58622 0.57938 0.0
C1756 C 0.24125 0.53589 0.65259 0.0
C1757 C 0.25626 0.57365 0.60536 0.0
N1758 N 0.2905 0.53798 0.6683 0.0
N1759 N 0.20661 0.56561 0.58255 0.0
H1760 H 0.28561 0.59298 0.5783 0.0
H1761 H 0.25065 0.58658 0.55761 0.0
H1762 H 0.18545 0.55548 0.58208 0.0
H1763 H 0.21008 0.57973 0.5648 0.0
H1764 H 0.28681 0.51915 0.68108 0.0
H1765 H 0.31123 0.54637 0.66613 0.0
H1766 H 0.24786 0.51268 0.69364 0.0
H1767 H 0.21253 0.50768 0.67521 0.0
C1768 C 0.74507 0.92942 0.8296 0.0
C1769 C 0.75838 0.96002 0.8523 0.0
C1770 C 0.79406 0.93306 0.87772 0.0
C1771 C 0.78253 0.90331 0.85271 0.0
N1772 N 0.74683 0.8771 0.80143 0.0
N1773 N 0.79867 0.99069 0.896 0.0
C1774 C 0.75787 0.90273 0.828 0.0
C1775 C 0.78372 0.96149 0.87568 0.0
N1776 N 0.71916 0.92518 0.80971 0.0
N1777 N 0.81398 0.93382 0.9052 0.0
H1778 H 0.79172 1.01118 0.89596 0.0
H1779 H 0.81885 0.99525 0.91068 0.0
H1780 H 0.82089 0.91389 0.90892 0.0
H1781 H 0.8213 0.95281 0.9261 0.0
H1782 H 0.70609 0.90284 0.79583 0.0
H1783 H 0.70956 0.94361 0.80942 0.0
H1784 H 0.73205 0.87695 0.78024 0.0
H1785 H 0.75387 0.85685 0.79879 0.0
C1786 C 0.79281 0.99814 0.60116 0.0
C1787 C 0.80011 0.98717 0.63127 0.0
C1788 C 0.7604 1.0011 0.65015 0.0
C1789 C 0.75185 1.00985 0.61904 0.0
N1790 N 0.75721 1.01171 0.56268 0.0
N1791 N 0.78691 0.97135 0.68081 0.0
C1792 C 0.76729 1.00688 0.59386 0.0
C1793 C 0.78278 0.98675 0.65476 0.0
N1794 N 0.81087 1.00165 0.58021 0.0
N1795 N 0.74777 1.00753 0.67588 0.0
H1796 H 0.8025 0.95975 0.68461 0.0
H1797 H 0.77314 0.96719 0.69662 0.0
H1798 H 0.73134 1.01797 0.67367 0.0
H1799 H 0.75521 1.00518 0.70029 0.0
H1800 H 0.80834 1.01282 0.55984 0.0
H1801 H 0.82975 0.99582 0.58477 0.0
H1802 H 0.76571 1.00659 0.54212 0.0
H1803 H 0.7388 1.01832 0.55661 0.0
C1804 C 0.41122 0.40649 0.80633 0.0
C1805 C 0.41247 0.43934 0.81666 0.0
C1806 C 0.37008 0.42241 0.83913 0.0
C1807 C 0.36814 0.38936 0.82796 0.0
N1808 N 0.38811 0.3499 0.80334 0.0
N1809 N 0.39756 0.47883 0.85021 0.0
C1810 C 0.38937 0.38151 0.81264 0.0
C1811 C 0.39301 0.44734 0.83493 0.0
N1812 N 0.43131 0.39933 0.79097 0.0
N1813 N 0.34986 0.43008 0.85382 0.0
H1814 H 0.41456 0.49754 0.84883 0.0
H1815 H 0.38619 0.48631 0.86679 0.0
H1816 H 0.3347 0.41306 0.8609 0.0
H1817 H 0.34736 0.45312 0.85799 0.0
H1818 H 0.43345 0.37636 0.78456 0.0
H1819 H 0.44676 0.41691 0.78497 0.0
H1820 H 0.39993 0.34115 0.78818 0.0
H1821 H 0.37497 0.33201 0.8115 0.0
C1822 C 0.25752 0.68275 0.40157 0.0
C1823 C 0.25355 0.65484 0.37593 0.0
C1824 C 0.2789 0.69399 0.34481 0.0
C1825 C 0.279 0.72205 0.36797 0.0
N1826 N 0.26094 0.73995 0.41532 0.0
N1827 N 0.25536 0.6376 0.31818 0.0
C1828 C 0.26634 0.71541 0.39555 0.0
C1829 C 0.26294 0.66159 0.34628 0.0
N1830 N 0.25367 0.67838 0.43253 0.0
N1831 N 0.29508 0.69767 0.32186 0.0
H1832 H 0.24261 0.61444 0.31676 0.0
H1833 H 0.25899 0.64182 0.29502 0.0
H1834 H 0.30826 0.7199 0.32092 0.0
H1835 H 0.29804 0.67814 0.30662 0.0
H1836 H 0.25858 0.69742 0.45316 0.0
H1837 H 0.24877 0.65564 0.43857 0.0
H1838 H 0.2496 0.7363 0.43374 0.0
H1839 H 0.26447 0.76313 0.41054 0.0
C1840 C 0.5903 0.70882 0.58805 0.0
C1841 C 0.56479 0.7094 0.56661 0.0
C1842 C 0.54777 0.65017 0.56414 0.0
C1843 C 0.57128 0.65115 0.58987 0.0
N1844 N 0.6089 0.68744 0.63478 0.0
N1845 N 0.5154 0.67945 0.5452 0.0
C1846 C 0.59061 0.68232 0.6045 0.0
C1847 C 0.54233 0.67978 0.55796 0.0
N1848 N 0.61502 0.73211 0.59161 0.0
N1849 N 0.53118 0.62152 0.54406 0.0
H1850 H 0.50941 0.70037 0.5441 0.0
H1851 H 0.49846 0.65869 0.54067 0.0
H1852 H 0.5356 0.59967 0.54479 0.0
H1853 H 0.51518 0.62029 0.52361 0.0
H1854 H 0.63398 0.73099 0.60565 0.0
H1855 H 0.61773 0.74923 0.57671 0.0
H1856 H 0.62212 0.71033 0.64705 0.0
H1857 H 0.60788 0.67018 0.64968 0.0
C1858 C 0.72677 0.3643 0.78424 0.0
C1859 C 0.70344 0.33604 0.77403 0.0
C1860 C 0.7325 0.30698 0.80493 0.0
C1861 C 0.75684 0.33425 0.8123 0.0
N1862 N 0.77718 0.38793 0.80392 0.0
N1863 N 0.68703 0.27812 0.76794 0.0
C1864 C 0.75389 0.36258 0.80042 0.0
C1865 C 0.70723 0.30674 0.78239 0.0
N1866 N 0.72287 0.39331 0.77994 0.0
N1867 N 0.73243 0.282 0.82113 0.0
H1868 H 0.66851 0.27643 0.75097 0.0
H1869 H 0.69005 0.25576 0.77003 0.0
H1870 H 0.74916 0.28179 0.83979 0.0
H1871 H 0.71437 0.26323 0.81914 0.0
H1872 H 0.73809 0.41539 0.79025 0.0
H1873 H 0.70349 0.39566 0.7687 0.0
H1874 H 0.77711 0.40735 0.79218 0.0
H1875 H 0.79715 0.38842 0.81625 0.0
C1876 C 0.04677 0.4153 0.04435 0.0
C1877 C 0.04745 0.39562 0.06884 0.0
C1878 C 0.05687 0.44469 0.11306 0.0
C1879 C 0.05946 0.46458 0.08893 0.0
N1880 N 0.06086 0.4687 0.03179 0.0
N1881 N 0.05846 0.39328 0.12747 0.0
C1882 C 0.05582 0.44981 0.05471 0.0
C1883 C 0.05386 0.41082 0.10348 0.0
N1884 N 0.03557 0.40121 0.01114 0.0
N1885 N 0.05703 0.45802 0.14518 0.0
H1886 H 0.05756 0.36897 0.12161 0.0
H1887 H 0.066 0.40355 0.153 0.0
H1888 H 0.05954 0.48255 0.15322 0.0
H1889 H 0.05233 0.44438 0.16304 0.0
H1890 H 0.03173 0.41427 0.99265 0.0
H1891 H 0.02709 0.37636 1.00236 0.0
H1892 H 0.06184 0.45953 1.00742 0.0
H1893 H 0.06617 0.49384 0.03778 0.0
C1894 C 1.01925 0.78304 0.25904 0.0
C1895 C 0.03944 0.81387 0.26579 0.0
C1896 C 1.00869 0.8373 0.29505 0.0
C1897 C 0.99038 0.80584 0.292 0.0
N1898 N 0.98124 0.74808 0.2761 0.0
N1899 N 0.0552 0.86982 0.29445 0.0
C1900 C 0.99645 0.77851 0.27528 0.0
C1901 C 0.03458 0.84095 0.28476 0.0
N1902 N 1.02121 0.75823 0.23605 0.0
N1903 N 1.00106 0.86379 0.3071 0.0
H1904 H 0.07453 0.87341 0.28791 0.0
H1905 H 0.05414 0.8894 0.31142 0.0
H1906 H 0.98245 0.86208 0.31503 0.0
H1907 H 1.0119 0.88728 0.30649 0.0
H1908 H 1.00555 0.73623 0.22754 0.0
H1909 H 0.03699 0.76075 0.22274 0.0
H1910 H 0.98672 0.72743 0.26759 0.0
H1911 H 0.9647 0.74358 0.28816 0.0
C1912 C 0.59878 0.39601 0.24358 0.0
C1913 C 0.5788 0.3652 0.23579 0.0
C1914 C 0.55269 0.37805 0.18651 0.0
C1915 C 0.57382 0.40798 0.19293 0.0
N1916 N 0.61268 0.44934 0.23081 0.0
N1917 N 0.53313 0.32962 0.20602 0.0
C1918 C 0.5954 0.41833 0.22279 0.0
C1919 C 0.55432 0.35733 0.20952 0.0
N1920 N 0.62146 0.40319 0.27006 0.0
N1921 N 0.53235 0.36847 0.15723 0.0
H1922 H 0.53417 0.31305 0.22142 0.0
H1923 H 0.51355 0.32419 0.18963 0.0
H1924 H 0.53022 0.38321 0.13995 0.0
H1925 H 0.51847 0.3453 0.14895 0.0
H1926 H 0.63857 0.42369 0.27502 0.0
H1927 H 0.62346 0.38784 0.28677 0.0
H1928 H 0.62751 0.4594 0.25343 0.0
H1929 H 0.61066 0.46604 0.2157 0.0
C1930 C 0.93781 0.28657 0.3722 0.0
C1931 C 0.95563 0.31846 0.37763 0.0
C1932 C 0.91508 0.33847 0.36372 0.0
C1933 C 0.89714 0.30746 0.36323 0.0
N1934 N 0.89173 0.25305 0.3722 0.0
N1935 N 0.96217 0.37536 0.38062 0.0
C1936 C 0.90848 0.28155 0.36833 0.0
C1937 C 0.94453 0.34457 0.37377 0.0
N1938 N 0.949 0.26123 0.37149 0.0
N1939 N 0.90408 0.36187 0.35364 0.0
H1940 H 0.98401 0.38055 0.38589 0.0
H1941 H 0.95525 0.39587 0.38289 0.0
H1942 H 0.88264 0.35868 0.34616 0.0
H1943 H 0.91619 0.38349 0.34975 0.0
H1944 H 0.93687 0.23716 0.36433 0.0
H1945 H 0.97054 0.26425 0.37517 0.0
H1946 H 0.89938 0.23448 0.37912 0.0
H1947 H 0.8705 0.24899 0.37199 0.0
C1948 C 0.08766 0.69282 0.7148 0.0
C1949 C 0.07342 0.71574 0.70759 0.0
C1950 C 0.06697 0.69468 0.64742 0.0
C1951 C 0.07453 0.66689 0.65471 0.0
N1952 N 0.09359 0.64098 0.69764 0.0
N1953 N 0.04804 0.73792 0.66662 0.0
C1954 C 0.08527 0.66641 0.68905 0.0
C1955 C 0.06264 0.71655 0.67373 0.0
N1956 N 0.10522 0.69731 0.74566 0.0
N1957 N 0.0656 0.70139 0.61611 0.0
H1958 H 0.0444 0.75413 0.68534 0.0
H1959 H 0.03746 0.73743 0.64235 0.0
H1960 H 0.0726 0.68868 0.59772 0.0
H1961 H 0.06184 0.72245 0.61024 0.0
H1962 H 0.11864 0.68324 0.75082 0.0
H1963 H 0.10909 0.71721 0.76507 0.0
H1964 H 0.09659 0.63687 0.72204 0.0
H1965 H 0.09688 0.62369 0.68034 0.0
C1966 C 0.60713 0.81422 0.87121 0.0
C1967 C 0.61228 0.84784 0.88336 0.0
C1968 C 0.65572 0.85862 0.86267 0.0
C1969 C 0.65235 0.82486 0.85469 0.0
N1970 N 0.62656 0.7705 0.85549 0.0
N1971 N 0.64234 0.90227 0.89292 0.0
C1972 C 0.62839 0.80263 0.85984 0.0
C1973 C 0.63669 0.87018 0.87939 0.0
N1974 N 0.58153 0.79334 0.86985 0.0
N1975 N 0.67689 0.87954 0.8538 0.0
H1976 H 0.62867 0.91153 0.90472 0.0
H1977 H 0.66127 0.91943 0.89439 0.0
H1978 H 0.69119 0.87186 0.84178 0.0
H1979 H 0.67899 0.90408 0.85582 0.0
H1980 H 0.57539 0.76903 0.85814 0.0
H1981 H 0.56528 0.80097 0.87745 0.0
H1982 H 0.61135 0.7537 0.8627 0.0
H1983 H 0.64162 0.7609 0.8473 0.0
C1984 C 0.54536 0.52945 0.73211 0.0
C1985 C 0.52596 0.54561 0.74136 0.0
C1986 C 0.53591 0.57966 0.6999 0.0
C1987 C 0.55627 0.5646 0.6918 0.0
N1988 N 0.58733 0.53388 0.71056 0.0
N1989 N 0.51166 0.59423 0.74246 0.0
C1990 C 0.56303 0.54194 0.71086 0.0
C1991 C 0.5238 0.5731 0.72766 0.0
N1992 N 0.54656 0.50167 0.74265 0.0
N1993 N 0.52764 0.59988 0.68079 0.0
H1994 H 0.50393 0.59132 0.76386 0.0
H1995 H 0.51188 0.6162 0.73555 0.0
H1996 H 0.53608 0.60546 0.66048 0.0
H1997 H 0.51075 0.60881 0.68342 0.0
H1998 H 0.55855 0.48744 0.73412 0.0
H1999 H 0.53377 0.49141 0.75761 0.0
H2000 H 0.59464 0.52002 0.7265 0.0
H2001 H 0.60166 0.54387 0.69713 0.0
C2002 C 0.8126 0.24934 0.08714 0.0
C2003 C 0.79679 0.21676 0.07236 0.0
C2004 C 0.77059 0.23479 0.02717 0.0
C2005 C 0.79067 0.26549 0.03783 0.0
N2006 N 0.83012 0.30347 0.07835 0.0
N2007 N 0.75992 0.17793 0.02894 0.0
C2008 C 0.81121 0.27337 0.06827 0.0
C2009 C 0.77512 0.2093 0.04281 0.0
N2010 N 0.82811 0.25751 0.1196 0.0
N2011 N 0.74736 0.23032 1.00223 0.0
H2012 H 0.76304 0.15866 0.03961 0.0
H2013 H 0.74559 0.17078 1.00573 0.0
H2014 H 0.7438 0.24909 0.99089 0.0
H2015 H 0.73064 0.20921 0.99506 0.0
H2016 H 0.83754 0.28128 0.13265 0.0
H2017 H 0.82931 0.2408 0.13481 0.0
H2018 H 0.84798 0.30932 0.09782 0.0
H2019 H 0.8286 0.32232 0.0661 0.0
C2020 C 0.14189 0.5823 0.27034 0.0
C2021 C 0.14642 0.55213 0.27547 0.0
C2022 C 0.12339 0.53052 0.21387 0.0
C2023 C 0.11518 0.55904 0.21043 0.0
N2024 N 0.1153 0.61149 0.23818 0.0
N2025 N 0.13836 0.49621 0.25062 0.0
C2026 C 0.12403 0.58457 0.2396 0.0
C2027 C 0.13651 0.52602 0.2466 0.0
N2028 N 0.15624 0.60975 0.29401 0.0
N2029 N 0.11897 0.50765 0.18557 0.0
H2030 H 0.14704 0.49184 0.27371 0.0
H2031 H 0.12909 0.47535 0.232 0.0
H2032 H 0.11018 0.51065 0.16188 0.0
H2033 H 0.12648 0.48759 0.18508 0.0
H2034 H 0.15633 0.63282 0.29045 0.0
H2035 H 0.17079 0.61004 0.3155 0.0
H2036 H 0.11756 0.62902 0.25938 0.0
H2037 H 0.10434 0.61538 0.216 0.0
C2038 C 0.84971 0.83522 0.51659 0.0
C2039 C 0.85604 0.86887 0.5295 0.0
C2040 C 0.8477 0.87765 0.47153 0.0
C2041 C 0.84449 0.84454 0.45898 0.0
N2042 N 0.84854 0.79328 0.47055 0.0
N2043 N 0.86733 0.92299 0.51882 0.0
C2044 C 0.84744 0.82379 0.48181 0.0
C2045 C 0.85653 0.89039 0.50687 0.0
N2046 N 0.84456 0.81391 0.53724 0.0
N2047 N 0.84279 0.8972 0.44974 0.0
H2048 H 0.8755 0.93351 0.54422 0.0
H2049 H 0.87099 0.93953 0.50333 0.0
H2050 H 0.83821 0.88952 0.4237 0.0
H2051 H 0.84146 0.92042 0.45752 0.0
H2052 H 0.83708 0.78897 0.52848 0.0
H2053 H 0.8447 0.82116 0.5625 0.0
H2054 H 0.85363 0.7784 0.48659 0.0
H2055 H 0.84687 0.78385 0.44537 0.0
C2056 C 0.51153 0.52295 0.94523 0.0
C2057 C 0.52258 0.54559 0.92635 0.0
C2058 C 0.55168 0.58285 0.97896 0.0
C2059 C 0.54069 0.5599 0.99781 0.0
N2060 N 0.50307 0.51414 0.99929 0.0
N2061 N 0.54834 0.59969 0.92523 0.0
C2062 C 0.51862 0.5316 0.98098 0.0
C2063 C 0.54101 0.57647 0.94328 0.0
N2064 N 0.49403 0.49306 0.92905 0.0
N2065 N 0.57317 0.61004 0.99468 0.0
H2066 H 0.542 0.59537 0.8991 0.0
H2067 H 0.55889 0.62381 0.93616 0.0
H2068 H 0.5813 0.61629 0.02054 0.0
H2069 H 0.58439 0.62556 0.98195 0.0
H2070 H 0.48831 0.47417 0.94132 0.0
H2071 H 0.48639 0.48643 0.90304 0.0
H2072 H 0.48507 0.49487 0.98867 0.0
H2073 H 0.50615 0.5217 0.02515 0.0
C2074 C 0.84973 0.27637 0.23482 0.0
C2075 C 0.82744 0.24724 0.2214 0.0
C2076 C 0.79534 0.27422 0.24303 0.0
C2077 C 0.81854 0.29876 0.26408 0.0
N2078 N 0.86782 0.32747 0.275 0.0
N2079 N 0.77856 0.21792 0.2166 0.0
C2080 C 0.84579 0.30132 0.25836 0.0
C2081 C 0.79984 0.2463 0.22551 0.0
N2082 N 0.87391 0.28111 0.22351 0.0
N2083 N 0.7689 0.27717 0.24094 0.0
H2084 H 0.78135 0.19553 0.20841 0.0
H2085 H 0.75894 0.21584 0.22202 0.0
H2086 H 0.76535 0.29775 0.25358 0.0
H2087 H 0.75125 0.26115 0.2239 0.0
H2088 H 0.88993 0.30285 0.23024 0.0
H2089 H 0.87673 0.26464 0.2044 0.0
H2090 H 0.88875 0.32806 0.27668 0.0
H2091 H 0.86501 0.34892 0.2864 0.0
C2092 C 0.11135 0.55576 0.47349 0.0
C2093 C 0.13362 0.5829 0.47149 0.0
C2094 C 0.12722 0.61061 0.52706 0.0
C2095 C 0.10362 0.58443 0.52769 0.0
N2096 N 0.07214 0.53264 0.4981 0.0
N2097 N 0.16068 0.63776 0.49688 0.0
C2098 C 0.09554 0.55729 0.49983 0.0
C2099 C 0.14076 0.61069 0.49849 0.0
N2100 N 0.10523 0.52786 0.45006 0.0
N2101 N 0.13721 0.63564 0.55435 0.0
H2102 H 0.17204 0.63833 0.47824 0.0
H2103 H 0.16489 0.66016 0.51268 0.0
H2104 H 0.12747 0.63713 0.57444 0.0
H2105 H 0.15602 0.65379 0.55828 0.0
H2106 H 0.0923 0.50581 0.45182 0.0
H2107 H 0.11453 0.52621 0.42962 0.0
H2108 H 0.06257 0.51393 0.47722 0.0
H2109 H 0.06103 0.53186 0.51697 0.0
C2110 C 0.82412 0.87493 0.71807 0.0
C2111 C 0.85182 0.87892 0.71297 0.0
C2112 C 0.85905 0.84323 0.75284 0.0
C2113 C 0.83252 0.84185 0.76039 0.0
N2114 N 0.79017 0.85789 0.75125 0.0
N2115 N 0.89714 0.87046 0.72957 0.0
C2116 C 0.81529 0.85833 0.74339 0.0
C2117 C 0.86963 0.86389 0.73139 0.0
N2118 N 0.80552 0.88527 0.69725 0.0
N2119 N 0.8739 0.82398 0.76548 0.0
H2120 H 0.90574 0.8857 0.71471 0.0
H2121 H 0.91204 0.86321 0.745 0.0
H2122 H 0.86677 0.80894 0.78123 0.0
H2123 H 0.89185 0.82088 0.75822 0.0
H2124 H 0.78424 0.88018 0.69704 0.0
H2125 H 0.81066 0.89658 0.67787 0.0
H2126 H 0.77831 0.87289 0.74373 0.0
H2127 H 0.78182 0.84337 0.76678 0.0
C2128 C 0.72249 0.47337 0.69098 0.0
C2129 C 0.74794 0.48109 0.68021 0.0
C2130 C 0.75971 0.53615 0.71274 0.0
C2131 C 0.73115 0.53073 0.7129 0.0
N2132 N 0.68582 0.49356 0.70825 0.0
N2133 N 0.79307 0.52012 0.68433 0.0
C2134 C 0.7129 0.49887 0.70507 0.0
C2135 C 0.76783 0.51222 0.69313 0.0
N2136 N 0.70749 0.44181 0.68704 0.0
N2137 N 0.77828 0.5652 0.72928 0.0
H2138 H 0.80073 0.50381 0.67074 0.0
H2139 H 0.80626 0.54367 0.68946 0.0
H2140 H 0.77171 0.58294 0.74275 0.0
H2141 H 0.79995 0.5703 0.7323 0.0
H2142 H 0.68978 0.43457 0.69663 0.0
H2143 H 0.71464 0.42285 0.67719 0.0
H2144 H 0.67043 0.47147 0.69891 0.0
H2145 H 0.67863 0.51178 0.71961 0.0
C2146 C 0.18458 0.10588 0.54358 0.0
C2147 C 0.19954 0.13558 0.56632 0.0
C2148 C 0.16346 0.12535 0.5997 0.0
C2149 C 0.14739 0.09672 0.57583 0.0
N2150 N 0.13978 0.06472 0.52023 0.0
N2151 N 0.19798 0.17771 0.6103 0.0
C2152 C 0.15716 0.08847 0.54634 0.0
C2153 C 0.1872 0.14667 0.5924 0.0
N2154 N 0.1966 0.09408 0.51939 0.0
N2155 N 0.15765 0.13115 0.63058 0.0
H2156 H 0.21471 0.19428 0.60523 0.0
H2157 H 0.18833 0.18787 0.62754 0.0
H2158 H 0.14182 0.11516 0.63773 0.0
H2159 H 0.17044 0.14993 0.65016 0.0
H2160 H 0.1883 0.07089 0.50449 0.0
H2161 H 0.21589 0.10684 0.51575 0.0
H2162 H 0.14455 0.05957 0.49694 0.0
H2163 H 0.11922 0.05262 0.52051 0.0
C2164 C 0.25716 0.03902 0.90297 0.0
C2165 C 0.22821 0.0261 0.88754 0.0
C2166 C 0.23366 0.97189 0.87647 0.0
C2167 C 0.26326 0.98579 0.88567 0.0
N2168 N 0.30374 0.03261 0.90742 0.0
N2169 N 0.18797 0.98061 0.86049 0.0
C2170 C 0.27523 0.0193 0.89958 0.0
C2171 C 0.21604 0.99248 0.87514 0.0
N2172 N 0.26725 0.07026 0.92059 0.0
N2173 N 0.22261 0.93904 0.86889 0.0
H2174 H 0.17444 0.99506 0.86034 0.0
H2175 H 0.17831 0.95695 0.84726 0.0
H2176 H 0.23518 0.92349 0.86956 0.0
H2177 H 0.20127 0.92726 0.86476 0.0
H2178 H 0.2877 0.08043 0.93502 0.0
H2179 H 0.25424 0.08506 0.92338 0.0
H2180 H 0.31356 0.05739 0.91384 0.0
H2181 H 0.31774 0.01899 0.90546 0.0
C2182 C 0.33535 0.95317 0.07653 0.0
C2183 C 0.31971 0.92808 0.04864 0.0
C2184 C 0.36071 0.93408 0.02418 0.0
C2185 C 0.37491 0.9623 0.04945 0.0
N2186 N 0.37499 1.00112 0.0977 0.0
N2187 N 0.31617 0.89479 0.99513 0.0
C2188 C 0.36219 0.97235 0.07538 0.0
C2189 C 0.33207 0.91837 0.02229 0.0
N2190 N 0.32446 0.95867 0.10403 0.0
N2191 N 0.37479 0.92207 1.0025 0.0
H2192 H 0.29555 0.88169 0.99394 0.0
H2193 H 0.32286 0.88931 0.97318 0.0
H2194 H 0.3959 0.93291 1.00342 0.0
H2195 H 0.36637 0.9 0.98551 0.0
H2196 H 0.33594 0.97457 0.12647 0.0
H2197 H 0.3047 0.94508 0.10555 0.0
H2198 H 0.36526 1.01143 0.11469 0.0
H2199 H 0.39455 1.01621 0.09749 0.0
C2200 C 0.89158 0.70441 0.82117 0.0
C2201 C 0.87595 0.67187 0.82089 0.0
C2202 C 0.83554 0.69543 0.82799 0.0
C2203 C 0.85061 0.72802 0.82669 0.0
N2204 N 0.89285 0.75949 0.81464 0.0
N2205 N 0.83008 0.63715 0.81807 0.0
C2206 C 0.87868 0.73116 0.82151 0.0
C2207 C 0.84711 0.66788 0.82235 0.0
N2208 N 0.91923 0.70996 0.82037 0.0
N2209 N 0.8103 0.69049 0.8367 0.0
H2210 H 0.83756 0.61702 0.81613 0.0
H2211 H 0.80829 0.63136 0.81381 0.0
H2212 H 0.80082 0.70861 0.84092 0.0
H2213 H 0.79991 0.66917 0.84286 0.0
H2214 H 0.9331 0.73277 0.82331 0.0
H2215 H 0.92884 0.69158 0.81818 0.0
H2216 H 0.91149 0.76304 0.80658 0.0
H2217 H 0.88454 0.77872 0.81344 0.0
C2218 C 0.88755 0.66478 0.09876 0.0
C2219 C 0.86009 0.64352 0.09457 0.0
C2220 C 0.88081 0.59851 0.09909 0.0
C2221 C 0.90791 0.61926 0.10065 0.0
N2222 N 0.93597 0.67082 0.09522 0.0
N2223 N 0.83026 0.58873 0.08357 0.0
C2224 C 0.9109 0.652 0.09841 0.0
C2225 C 0.85666 0.60996 0.09269 0.0
N2226 N 0.89174 0.69743 0.10502 0.0
N2227 N 0.87816 0.56815 0.10508 0.0
H2228 H 0.81216 0.59601 0.07787 0.0
H2229 H 0.82639 0.56375 0.07832 0.0
H2230 H 0.89516 0.55885 0.10999 0.0
H2231 H 0.85954 0.55322 0.10812 0.0
H2232 H 0.9116 0.71418 0.11204 0.0
H2233 H 0.87559 0.70796 0.1064 0.0
H2234 H 0.93869 0.69375 0.08985 0.0
H2235 H 0.95342 0.66235 0.09482 0.0
C2236 C 0.23668 0.19058 0.84672 0.0
C2237 C 0.23091 0.18959 0.87897 0.0
C2238 C 0.26842 0.24074 0.90189 0.0
C2239 C 0.2769 0.239 0.87072 0.0
N2240 N 0.2718 0.20773 0.81547 0.0
N2241 N 0.24265 0.21258 0.93813 0.0
C2242 C 0.26159 0.21284 0.84355 0.0
C2243 C 0.24698 0.21455 0.90678 0.0
N2244 N 0.21809 0.17029 0.81887 0.0
N2245 N 0.28041 0.26773 0.92667 0.0
H2246 H 0.22668 0.19428 0.94233 0.0
H2247 H 0.2559 0.2278 0.96008 0.0
H2248 H 0.296 0.28704 0.92395 0.0
H2249 H 0.27325 0.27214 0.94847 0.0
H2250 H 0.21979 0.17196 0.79444 0.0
H2251 H 0.19934 0.15415 0.82015 0.0
H2252 H 0.26307 0.18708 0.79644 0.0
H2253 H 0.29065 0.22241 0.81266 0.0
C2254 C 0.38975 0.9795 0.37321 0.0
C2255 C 0.38443 0.99114 0.34279 0.0
C2256 C 0.34846 0.9369 0.31858 0.0
C2257 C 0.35686 0.92398 0.3474 0.0
N2258 N 0.39076 0.93375 0.39981 0.0
N2259 N 0.36019 0.97708 0.28438 0.0
C2260 C 0.37883 0.94567 0.37407 0.0
C2261 C 0.36403 0.96875 0.31498 0.0
N2262 N 0.40477 1.00116 0.40215 0.0
N2263 N 0.32472 0.91935 0.29493 0.0
H2264 H 0.37072 0.99954 0.2806 0.0
H2265 H 0.34832 0.96082 0.2623 0.0
H2266 H 0.31242 0.89699 0.29697 0.0
H2267 H 0.31564 0.92843 0.27528 0.0
H2268 H 0.40716 0.99517 0.42573 0.0
H2269 H 0.41199 0.02591 0.40313 0.0
H2270 H 0.40877 0.94728 0.41799 0.0
H2271 H 0.38472 0.90941 0.40095 0.0
C2272 C 0.63144 0.43159 0.6284 0.0
C2273 C 0.62115 0.41935 0.65556 0.0
C2274 C 0.59525 0.46081 0.6568 0.0
C2275 C 0.60902 0.47599 0.63388 0.0
N2276 N 0.64468 0.47795 0.60239 0.0
N2277 N 0.60049 0.43279 0.70241 0.0
C2278 C 0.62873 0.46221 0.62144 0.0
C2279 C 0.60499 0.43683 0.67159 0.0
N2280 N 0.64204 0.41332 0.60736 0.0
N2281 N 0.57259 0.46897 0.66467 0.0
H2282 H 0.61031 0.41958 0.71686 0.0
H2283 H 0.59056 0.44671 0.71583 0.0
H2284 H 0.56467 0.48613 0.65457 0.0
H2285 H 0.56015 0.4563 0.67859 0.0
H2286 H 0.64776 0.42011 0.58596 0.0
H2287 H 0.64143 0.38955 0.60815 0.0
H2288 H 0.66153 0.47108 0.59568 0.0
H2289 H 0.64248 0.4994 0.59578 0.0
C2290 C 0.42493 0.80328 0.43633 0.0
C2291 C 0.44591 0.80347 0.41744 0.0
C2292 C 0.41264 0.80947 0.36854 0.0
C2293 C 0.39064 0.80506 0.38606 0.0
N2294 N 0.37535 0.79339 0.43582 0.0
N2295 N 0.45738 0.80103 0.36324 0.0
C2296 C 0.3967 0.80076 0.41975 0.0
C2297 C 0.43909 0.80509 0.38291 0.0
N2298 N 0.43219 0.80724 0.47051 0.0
N2299 N 0.40871 0.81907 0.33855 0.0
H2300 H 0.47644 0.79677 0.37236 0.0
H2301 H 0.45239 0.79853 0.33722 0.0
H2302 H 0.39019 0.82365 0.32775 0.0
H2303 H 0.42479 0.82589 0.32623 0.0
H2304 H 0.41869 0.81084 0.48597 0.0
H2305 H 0.45257 0.81028 0.48386 0.0
H2306 H 0.37768 0.7863 0.45884 0.0
H2307 H 0.35472 0.7919 0.42486 0.0
C2308 C 0.12946 0.72852 0.16036 0.0
C2309 C 0.10699 0.74148 0.15001 0.0
C2310 C 0.07849 0.6863 0.1193 0.0
C2311 C 0.09927 0.67263 0.13441 0.0
N2312 N 0.14322 0.68213 0.17452 0.0
N2313 N 0.0589 0.73177 0.12151 0.0
C2314 C 0.1246 0.69418 0.15599 0.0
C2315 C 0.0812 0.72004 0.1299 0.0
N2316 N 0.15562 0.74919 0.17478 0.0
N2317 N 0.05656 0.66737 0.09383 0.0
H2318 H 0.06062 0.75635 0.12732 0.0
H2319 H 0.03854 0.717 0.11057 0.0
H2320 H 0.05431 0.64316 0.08433 0.0
H2321 H 0.04229 0.67647 0.07972 0.0
H2322 H 0.1735 0.74152 0.18014 0.0
H2323 H 0.15979 0.77421 0.17817 0.0
H2324 H 0.16045 0.69664 0.19325 0.0
H2325 H 0.13994 0.65757 0.17397 0.0
C2326 C 0.11658 0.32693 0.93309 0.0
C2327 C 0.10459 0.29565 0.93887 0.0
C2328 C 0.14091 0.27697 0.91564 0.0
C2329 C 0.1543 0.30887 0.91264 0.0
N2330 N 0.15778 0.36551 0.92545 0.0
N2331 N 0.11013 0.2431 0.94301 0.0
C2332 C 0.14295 0.33421 0.92345 0.0
C2333 C 0.11811 0.27129 0.93217 0.0
N2334 N 0.10218 0.34937 0.93511 0.0
N2335 N 0.14918 0.25171 0.90158 0.0
H2336 H 0.0945 0.23838 0.9564 0.0
H2337 H 0.12106 0.22591 0.94198 0.0
H2338 H 0.16545 0.25462 0.88902 0.0
H2339 H 0.13822 0.22763 0.89964 0.0
H2340 H 0.10835 0.3713 0.92769 0.0
H2341 H 0.08256 0.34487 0.94098 0.0
H2342 H 0.15219 0.38523 0.93643 0.0
H2343 H 0.17723 0.37183 0.91919 0.0
C2344 C 0.51108 0.76513 0.99941 0.0
C2345 C 0.52772 0.76676 0.97536 0.0
C2346 C 0.53696 0.71608 0.98299 0.0
C2347 C 0.52385 0.71703 0.01044 0.0
N2348 N 0.49097 0.73466 0.03805 0.0
N2349 N 0.54831 0.74008 0.93607 0.0
C2350 C 0.50801 0.73883 0.01603 0.0
C2351 C 0.53765 0.74063 0.96414 0.0
N2352 N 0.49999 0.7898 1.00775 0.0
N2353 N 0.55038 0.69316 0.97672 0.0
H2354 H 0.54879 0.75813 0.92214 0.0
H2355 H 0.55444 0.72084 0.92506 0.0
H2356 H 0.54932 0.67428 0.98953 0.0
H2357 H 0.56303 0.6931 0.95954 0.0
H2358 H 0.49011 0.79201 0.02758 0.0
H2359 H 0.50128 0.80873 0.99498 0.0
H2360 H 0.47751 0.74852 0.04217 0.0
H2361 H 0.48875 0.71531 0.0503 0.0
C2362 C 0.18874 0.79508 0.7865 0.0
C2363 C 0.17705 0.79277 0.81523 0.0
C2364 C 0.21724 0.77648 0.84146 0.0
C2365 C 0.23147 0.78595 0.81645 0.0
N2366 N 0.23121 0.807 0.7659 0.0
N2367 N 0.18251 0.78491 0.8723 0.0
C2368 C 0.21734 0.79612 0.78919 0.0
C2369 C 0.19192 0.78437 0.84339 0.0
N2370 N 0.17226 0.79426 0.75606 0.0
N2371 N 0.22735 0.75901 0.86264 0.0
H2372 H 0.16454 0.79158 0.875 0.0
H2373 H 0.19411 0.78191 0.89454 0.0
H2374 H 0.2435 0.7493 0.85862 0.0
H2375 H 0.21709 0.75009 0.88041 0.0
H2376 H 0.17944 0.7931 0.73397 0.0
H2377 H 0.15064 0.79055 0.75186 0.0
H2378 H 0.22283 0.81824 0.74776 0.0
H2379 H 0.25171 0.80648 0.76603 0.0
C2380 C 1.01383 0.44327 0.52237 0.0
C2381 C 0.03845 0.43547 0.51667 0.0
C2382 C 0.06769 0.4831 0.55882 0.0
C2383 C 0.04315 0.48976 0.56656 0.0
N2384 N 0.99289 0.47418 0.55875 0.0
N2385 N 0.08907 0.4471 0.53099 0.0
C2386 C 1.01617 0.46928 0.54912 0.0
C2387 C 0.06533 0.45516 0.53521 0.0
N2388 N 0.98837 0.42674 0.50119 0.0
N2389 N 0.09399 0.50287 0.57373 0.0
H2390 H 0.08878 0.42597 0.51528 0.0
H2391 H 0.10918 0.46115 0.54428 0.0
H2392 H 0.09839 0.52426 0.59132 0.0
H2393 H 0.09839 0.52426 0.59132 0.0
H2394 H 0.97002 0.43321 0.50177 0.0
H2395 H 0.98598 0.40816 0.48086 0.0
H2396 H 0.97277 0.45826 0.5495 0.0
H2397 H 0.99398 0.49312 0.57808 0.0
C2398 C 0.51465 0.27674 0.36146 0.0
C2399 C 0.52167 0.27989 0.33013 0.0
C2400 C 0.49581 0.31976 0.32535 0.0
C2401 C 0.48522 0.31298 0.35371 0.0
N2402 N 0.47966 0.27839 0.39392 0.0
N2403 N 0.51023 0.29668 0.27744 0.0
C2404 C 0.49321 0.28955 0.37049 0.0
C2405 C 0.50978 0.29922 0.31064 0.0
N2406 N 0.52905 0.26295 0.38333 0.0
N2407 N 0.49294 0.34607 0.31263 0.0
H2408 H 0.51766 0.2795 0.26453 0.0
H2409 H 0.49981 0.30863 0.26185 0.0
H2410 H 0.48393 0.36264 0.3237 0.0
H2411 H 0.50238 0.35319 0.29351 0.0
H2412 H 0.52617 0.26286 0.40763 0.0
H2413 H 0.54597 0.25491 0.37878 0.0
H2414 H 0.48304 0.25909 0.40434 0.0
H2415 H 0.46305 0.28602 0.40031 0.0
C2416 C 0.62015 0.55159 0.46821 0.0
C2417 C 0.63563 0.584 0.46956 0.0
C2418 C 0.63316 0.59791 0.52915 0.0
C2419 C 0.61702 0.56558 0.52748 0.0
N2420 N 0.60508 0.51 0.49916 0.0
N2421 N 0.66265 0.63604 0.50387 0.0
C2422 C 0.61362 0.54198 0.49808 0.0
C2423 C 0.64371 0.60662 0.50078 0.0
N2424 N 0.61029 0.53016 0.43801 0.0
N2425 N 0.6384 0.62054 0.55775 0.0
H2426 H 0.67125 0.64299 0.48412 0.0
H2427 H 0.67178 0.65253 0.52658 0.0
H2428 H 0.6363 0.61404 0.58036 0.0
H2429 H 0.64525 0.64533 0.55912 0.0
H2430 H 0.59623 0.50734 0.4348 0.0
H2431 H 0.61403 0.53615 0.41549 0.0
H2432 H 0.60462 0.49152 0.47978 0.0
H2433 H 0.60187 0.50222 0.52115 0.0
C2434 C 0.20231 0.84408 0.12384 0.0
C2435 C 0.21184 0.87728 0.12361 0.0
C2436 C 0.24462 0.88703 0.1776 0.0
C2437 C 0.23967 0.8531 0.17412 0.0
N2438 N 0.20737 0.79963 0.14881 0.0
N2439 N 0.22974 0.93051 0.15941 0.0
C2440 C 0.2164 0.83177 0.14921 0.0
C2441 C 0.22836 0.89869 0.15374 0.0
N2442 N 0.17996 0.82422 0.09966 0.0
N2443 N 0.26559 0.90845 0.20247 0.0
H2444 H 0.21714 0.94011 0.14336 0.0
H2445 H 0.21714 0.94011 0.14336 0.0
H2446 H 0.27968 0.90153 0.21944 0.0
H2447 H 0.26956 0.9334 0.20498 0.0
H2448 H 0.1727 0.79943 0.09854 0.0
H2449 H 0.16806 0.8333 0.08223 0.0
H2450 H 0.21597 0.78865 0.16709 0.0
H2451 H 0.21597 0.78865 0.16709 0.0
C2452 C 0.0412 0.60058 0.97123 0.0
C2453 C 1.0169 0.57438 0.95438 0.0
C2454 C 1.02452 0.54933 1.00487 0.0
C2455 C 0.04853 0.57586 0.02191 0.0
N2456 N 0.07591 0.62983 0.02308 0.0
N2457 N 0.98264 0.52664 0.95879 0.0
C2458 C 0.0556 0.6023 1.00545 0.0
C2459 C 1.00786 0.5496 0.97236 0.0
N2460 N 0.0515 0.62333 0.9539 0.0
N2461 N 1.01822 0.523 0.01907 0.0
H2462 H 0.97008 0.52594 0.93554 0.0
H2463 H 0.97303 0.50994 0.97161 0.0
H2464 H 0.02893 0.52259 0.04297 0.0
H2465 H 1.00358 0.50108 1.00663 0.0
H2466 H 0.07084 0.64092 0.96267 0.0
H2467 H 0.0417 0.62312 0.92936 0.0
H2468 H 0.08028 0.65137 0.01464 0.0
H2469 H 0.08661 0.63212 0.04781 0.0
C2470 C 0.27809 0.23778 0.68957 0.0
C2471 C 0.29724 0.2525 0.67118 0.0
C2472 C 0.32006 0.29683 0.72071 0.0
C2473 C 0.30305 0.28021 0.74013 0.0
N2474 N 0.26612 0.23439 0.74341 0.0
N2475 N 0.33766 0.29486 0.66965 0.0
C2476 C 0.28189 0.25076 0.7245 0.0
C2477 C 0.31843 0.28189 0.68681 0.0
N2478 N 0.25584 0.21151 0.67335 0.0
N2479 N 0.33702 0.32752 0.7344 0.0
H2480 H 0.3366 0.28493 0.64471 0.0
H2481 H 0.35559 0.31413 0.68062 0.0
H2482 H 0.33767 0.33941 0.75847 0.0
H2483 H 0.34827 0.34229 0.72106 0.0
H2484 H 0.23911 0.20195 0.68372 0.0
H2485 H 0.25298 0.20038 0.64836 0.0
H2486 H 0.2532 0.21074 0.73513 0.0
H2487 H 0.26695 0.24392 0.76833 0.0
C2488 C 0.62197 0.61017 0.26768 0.0
C2489 C 0.61965 0.58122 0.27995 0.0
C2490 C 0.59125 0.55013 0.2241 0.0
C2491 C 0.59726 0.57867 0.21069 0.0
N2492 N 0.60203 0.63578 0.22577 0.0
N2493 N 0.60158 0.52342 0.27038 0.0
C2494 C 0.60795 0.60884 0.23411 0.0
C2495 C 0.60399 0.55114 0.2583 0.0
N2496 N 0.63866 0.63904 0.28745 0.0
N2497 N 0.57082 0.52312 0.20564 0.0
H2498 H 0.60907 0.52348 0.29563 0.0
H2499 H 0.59325 0.50037 0.25531 0.0
H2500 H 0.55761 0.52309 0.18318 0.0
H2501 H 0.56372 0.50243 0.21481 0.0
H2502 H 0.64407 0.66006 0.27817 0.0
H2503 H 0.64898 0.64159 0.31236 0.0
H2504 H 0.60774 0.65782 0.24274 0.0
H2505 H 0.58709 0.63483 0.2044 0.0
C2506 C 0.24862 0.84748 0.93001 0.0
C2507 C 0.24229 0.82887 0.9542 0.0
C2508 C 0.27719 0.80158 0.94347 0.0
C2509 C 0.28445 0.82077 0.91993 0.0
N2510 N 0.27905 0.86622 0.89544 0.0
N2511 N 0.2407 0.77812 0.97036 0.0
C2512 C 0.27077 0.84472 0.91444 0.0
C2513 C 0.25353 0.8027 0.95671 0.0
N2514 N 0.23303 0.86735 0.92097 0.0
N2515 N 0.29368 0.7831 0.95417 0.0
H2516 H 0.22173 0.77715 0.97734 0.0
H2517 H 0.24676 0.7571 0.9705 0.0
H2518 H 0.31233 0.78351 0.94659 0.0
H2519 H 0.2906 0.77059 0.97333 0.0
H2520 H 0.23749 0.88189 0.90372 0.0
H2521 H 0.2142 0.86665 0.92815 0.0
H2522 H 0.29679 0.86768 0.8858 0.0
H2523 H 0.29679 0.86768 0.8858 0.0
C2524 C 0.98917 0.60701 0.73531 0.0
C2525 C 0.98308 0.58122 0.75312 0.0
C2526 C 1.00581 0.55157 0.71374 0.0
C2527 C 1.01 0.57624 0.69441 0.0
N2528 N 1.00257 0.62693 0.68647 0.0
N2529 N 0.98127 0.52563 0.75261 0.0
C2530 C 1.00054 0.60361 0.70513 0.0
C2531 C 0.99047 0.55278 0.74048 0.0
N2532 N 0.98557 0.63584 0.74835 0.0
N2533 N 1.01669 0.52649 0.70671 0.0
H2534 H 0.96932 0.52471 0.77065 0.0
H2535 H 0.98281 0.5031 0.74235 0.0
H2536 H 0.02625 0.52352 0.68662 0.0
H2537 H 1.01801 0.50994 0.7221 0.0
H2538 H 0.99235 0.65694 0.73969 0.0
H2539 H 0.97797 0.63945 0.76996 0.0
H2540 H 0.99338 0.64556 0.68971 0.0
H2541 H 1.01201 0.6265 0.66609 0.0
C2542 C 0.28494 0.29148 0.48115 0.0
C2543 C 0.28755 0.25996 0.48296 0.0
C2544 C 0.3083 0.26161 0.43305 0.0
C2545 C 0.30173 0.29069 0.4283 0.0
N2546 N 0.27776 0.32923 0.44538 0.0
N2547 N 0.29456 0.2119 0.45273 0.0
C2548 C 0.28811 0.30424 0.45157 0.0
C2549 C 0.29708 0.24411 0.45656 0.0
N2550 N 0.2813 0.31048 0.50838 0.0
N2551 N 0.32685 0.25148 0.41717 0.0
H2552 H 0.28463 0.19744 0.46736 0.0
H2553 H 0.29909 0.19889 0.43222 0.0
H2554 H 0.33777 0.26469 0.4024 0.0
H2555 H 0.3341 0.23205 0.42227 0.0
H2556 H 0.28183 0.33456 0.50932 0.0
H2557 H 0.28141 0.30381 0.53149 0.0
H2558 H 0.26531 0.33801 0.45969 0.0
H2559 H 0.27908 0.33882 0.42394 0.0
C2560 C 0.42532 0.59335 0.68524 0.0
C2561 C 0.40087 0.5986 0.66713 0.0
C2562 C 0.40654 0.56886 0.61492 0.0
C2563 C 0.43013 0.56238 0.63347 0.0
N2564 N 0.45669 0.56004 0.68713 0.0
N2565 N 0.3632 0.58177 0.61677 0.0
C2566 C 0.4378 0.57187 0.66892 0.0
C2567 C 0.38999 0.58368 0.63246 0.0
N2568 N 0.43771 0.61026 0.71733 0.0
N2569 N 0.4 0.561 0.58058 0.0
H2570 H 0.34941 0.58997 0.6292 0.0
H2571 H 0.3535 0.56856 0.59246 0.0
H2572 H 0.41076 0.54845 0.5669 0.0
H2573 H 0.38506 0.56872 0.56576 0.0
H2574 H 0.45716 0.6095 0.73024 0.0
H2575 H 0.43011 0.62758 0.72967 0.0
H2576 H 0.45938 0.56234 0.71302 0.0
H2577 H 0.46707 0.54503 0.67613 0.0
C2578 C 0.95146 1.00763 0.60511 0.0
C2579 C 0.95169 0.99385 0.63418 0.0
C2580 C 1.00294 0.02015 0.65308 0.0
C2581 C 1.00299 0.03363 0.62376 0.0
N2582 N 0.97625 0.04459 0.57472 0.0
N2583 N 0.9783 0.98268 0.68306 0.0
C2584 C 0.97691 0.02838 0.6005 0.0
C2585 C 0.97766 0.99884 0.65726 0.0
N2586 N 0.927 0.99959 0.58098 0.0
N2587 N 0.0267 0.0296 0.67828 0.0
H2588 H 0.96023 0.96837 0.68805 0.0
H2589 H 0.99676 0.98166 0.69822 0.0
H2590 H 0.04533 0.04494 0.67616 0.0
H2591 H 0.02755 0.02425 0.70204 0.0
H2592 H 0.92569 1.0051 0.55726 0.0
H2593 H 0.90796 0.98527 0.58371 0.0
H2594 H 0.95788 0.04537 0.55922 0.0
H2595 H 0.99427 0.05917 0.56991 0.0
C2596 C 0.92077 0.1179 0.30209 0.0
C2597 C 0.90903 0.08467 0.30129 0.0
C2598 C 0.86401 0.09338 0.30666 0.0
C2599 C 0.87564 0.12652 0.30707 0.0
N2600 N 0.91577 0.17206 0.31211 0.0
N2601 N 0.87205 0.04155 0.30961 0.0
C2602 C 0.90435 0.13937 0.30712 0.0
C2603 C 0.8814 0.07267 0.30574 0.0
N2604 N 0.94699 0.12854 0.29627 0.0
N2605 N 0.83608 0.08155 0.30587 0.0
H2606 H 0.88406 0.02549 0.30836 0.0
H2607 H 0.85337 0.03224 0.3166 0.0
H2608 H 0.82291 0.09624 0.30797 0.0
H2609 H 0.82542 0.05705 0.30119 0.0
H2610 H 0.95556 0.15169 0.29268 0.0
H2611 H 0.95973 0.11352 0.29299 0.0
H2612 H 0.93715 0.18333 0.31566 0.0
H2613 H 0.90407 0.18829 0.3154 0.0
C2614 C 0.78186 0.07461 0.19346 0.0
C2615 C 0.78684 0.07838 0.16171 0.0
C2616 C 0.73733 0.05344 0.13536 0.0
C2617 C 0.7318 0.05973 0.16773 0.0
N2618 N 0.74758 0.0694 0.22789 0.0
N2619 N 0.77315 0.05525 0.10288 0.0
C2620 C 0.75373 0.06716 0.19701 0.0
C2621 C 0.76571 0.06158 0.13269 0.0
N2622 N 0.80392 0.0783 0.21958 0.0
N2623 N 0.71564 0.04269 0.10749 0.0
H2624 H 0.79426 0.06153 0.10168 0.0
H2625 H 0.75913 0.04191 0.08056 0.0
H2626 H 0.69468 0.03608 0.10907 0.0
H2627 H 0.71828 0.0408 0.08299 0.0
H2628 H 0.80164 0.07438 0.24322 0.0
H2629 H 0.82431 0.08186 0.21602 0.0
H2630 H 0.76273 0.07828 0.25042 0.0
H2631 H 0.7269 0.06295 0.23065 0.0
C2632 C 0.25763 0.43757 0.32174 0.0
C2633 C 0.25994 0.46079 0.35169 0.0
C2634 C 0.28531 0.42602 0.38265 0.0
C2635 C 0.28498 0.40448 0.35243 0.0
N2636 N 0.27428 0.39586 0.29212 0.0
N2637 N 0.28155 0.47781 0.41082 0.0
C2638 C 0.27194 0.4121 0.32185 0.0
C2639 C 0.27522 0.45485 0.38207 0.0
N2640 N 0.24034 0.43857 0.29269 0.0
N2641 N 0.29438 0.41831 0.41264 0.0
H2642 H 0.27542 0.49885 0.41168 0.0
H2643 H 0.29515 0.47764 0.43292 0.0
H2644 H 0.30174 0.39828 0.41426 0.0
H2645 H 0.29225 0.42989 0.43551 0.0
H2646 H 0.2347 0.42064 0.27095 0.0
H2647 H 0.22929 0.4556 0.29128 0.0
H2648 H 0.26866 0.40228 0.26917 0.0
H2649 H 0.28454 0.37803 0.29077 0.0
C2650 C 0.29539 0.50858 0.11228 0.0
C2651 C 0.30058 0.4914 0.13814 0.0
C2652 C 0.25706 0.49645 0.15459 0.0
C2653 C 0.253 0.51558 0.13034 0.0
N2654 N 0.26971 0.54312 0.08861 0.0
N2655 N 0.28752 0.47056 0.18553 0.0
C2656 C 0.27251 0.52239 0.10976 0.0
C2657 C 0.28175 0.4859 0.15982 0.0
N2658 N 0.31234 0.51166 0.09001 0.0
N2659 N 0.23673 0.48747 0.17186 0.0
H2660 H 0.30397 0.46019 0.18867 0.0
H2661 H 0.27692 0.46935 0.20482 0.0
H2662 H 0.2187 0.49515 0.16909 0.0
H2663 H 0.23655 0.47068 0.18718 0.0
H2664 H 0.30792 0.52035 0.06821 0.0
H2665 H 0.33018 0.50367 0.09218 0.0
H2666 H 0.28475 0.55219 0.07567 0.0
H2667 H 0.25309 0.55325 0.08568 0.0
C2668 C 0.8908 0.94633 0.33846 0.0
C2669 C 0.91234 0.93861 0.32389 0.0
C2670 C 0.89184 0.8813 0.32407 0.0
C2671 C 0.86918 0.88854 0.33663 0.0
N2672 N 0.85143 0.9288 0.36416 0.0
N2673 N 0.93659 0.90007 0.30876 0.0
C2674 C 0.86989 0.92138 0.34612 0.0
C2675 C 0.91387 0.90649 0.31866 0.0
N2676 N 0.89051 0.97778 0.34518 0.0
N2677 N 0.89176 0.85002 0.316 0.0
H2678 H 0.95245 0.9176 0.30334 0.0
H2679 H 0.94079 0.87796 0.30781 0.0
H2680 H 0.8781 0.83176 0.3231 0.0
H2681 H 0.90406 0.84209 0.30101 0.0
H2682 H 0.87368 0.985 0.35131 0.0
H2683 H 0.90709 0.99698 0.34373 0.0
H2684 H 0.85206 0.95218 0.37467 0.0
H2685 H 0.83678 0.91134 0.37143 0.0
C2686 C 0.767 0.15915 0.84822 0.0
C2687 C 0.75586 0.15252 0.87681 0.0
C2688 C 0.77041 0.21302 0.89737 0.0
C2689 C 0.78454 0.21938 0.8709 0.0
N2690 N 0.80284 0.19398 0.82747 0.0
N2691 N 0.75553 0.17586 0.93327 0.0
C2692 C 0.78468 0.1911 0.84823 0.0
C2693 C 0.76014 0.18032 0.90265 0.0
N2694 N 0.75974 0.13559 0.8198 0.0
N2695 N 0.76507 0.23781 0.91679 0.0
H2696 H 0.74938 0.15304 0.93887 0.0
H2697 H 0.76151 0.19484 0.95409 0.0
H2698 H 0.76985 0.26127 0.91272 0.0
H2699 H 0.75266 0.23414 0.93415 0.0
H2700 H 0.76492 0.14006 0.79736 0.0
H2701 H 0.74585 0.11283 0.81725 0.0
H2702 H 0.80555 0.17404 0.81262 0.0
H2703 H 0.81792 0.21555 0.82854 0.0
loop_
_geom_bond_atom_site_label_1
_geom_bond_atom_site_label_2
_geom_bond_distance
_geom_bond_site_symmetry_2
_ccdc_geom_bond_type
O0 Cd1 2.223 1_655 S
O0 C8 1.315 . S
Cd1 O0 2.223 1_455 S
Cd1 O4 2.297 . S
Cd1 O5 2.439 . S
Cd1 O11 2.240 1_455 S
Cd2 O3 2.240 1_655 S
Cd2 O10 2.223 . S
Cd2 O12 2.297 . S
Cd2 O13 2.439 1_655 S
O3 Cd2 2.240 1_455 S
O3 C8 1.279 1_455 S
O4 Cd1 2.297 . S
O4 C6 1.247 . S
O5 Cd1 2.439 . S
O5 C6 1.208 . S
C6 O4 1.247 . S
C6 O5 1.208 . S
C7 O12 1.247 1_455 S
C7 O13 1.208 . S
C8 O0 1.315 . S
C8 O3 1.279 1_655 S
C9 O10 1.315 . S
C9 O11 1.279 . S
O10 Cd2 2.223 . S
O10 C9 1.315 . S
O11 Cd1 2.240 1_655 S
O11 C9 1.279 . S
O12 Cd2 2.297 . S
O12 C7 1.247 1_655 S
O13 Cd2 2.439 1_455 S
O13 C7 1.208 . S
O14 Cd15 2.223 . S
O14 C22 1.315 . S
Cd15 O14 2.223 . S
Cd15 O18 2.297 . S
Cd15 O19 2.439 . S
Cd15 O25 2.240 . S
Cd16 O17 2.240 . S
Cd16 O24 2.223 . S
Cd16 O26 2.297 . S
Cd16 O27 2.439 . S
O17 Cd16 2.240 . S
O17 C22 1.279 . S
O18 Cd15 2.297 . S
O18 C20 1.247 . S
O19 Cd15 2.439 . S
O19 C20 1.208 . S
C20 O18 1.247 . S
C20 O19 1.208 . S
C21 O26 1.247 . S
C21 O27 1.208 . S
C22 O14 1.315 . S
C22 O17 1.279 . S
C23 O24 1.315 . S
C23 O25 1.279 . S
O24 Cd16 2.223 . S
O24 C23 1.315 . S
O25 Cd15 2.240 . S
O25 C23 1.279 . S
O26 Cd16 2.297 . S
O26 C21 1.247 . S
O27 Cd16 2.439 . S
O27 C21 1.208 . S
O28 Cd29 2.223 . S
O28 C36 1.315 . S
Cd29 O28 2.223 . S
Cd29 O32 2.297 . S
Cd29 O33 2.439 . S
Cd29 O39 2.240 . S
Cd30 O31 2.240 . S
Cd30 O38 2.223 . S
Cd30 O40 2.297 . S
Cd30 O41 2.439 . S
O31 Cd30 2.240 . S
O31 C36 1.279 . S
O32 Cd29 2.297 . S
O32 C34 1.247 . S
O33 Cd29 2.439 . S
O33 C34 1.208 . S
C34 O32 1.247 . S
C34 O33 1.208 . S
C35 O40 1.247 . S
C35 O41 1.208 . S
C36 O28 1.315 . S
C36 O31 1.279 . S
C37 O38 1.315 . S
C37 O39 1.279 . S
O38 Cd30 2.223 . S
O38 C37 1.315 . S
O39 Cd29 2.240 . S
O39 C37 1.279 . S
O40 Cd30 2.297 . S
O40 C35 1.247 . S
O41 Cd30 2.439 . S
O41 C35 1.208 . S
O42 Cd43 2.223 . S
O42 C50 1.315 . S
Cd43 O42 2.223 . S
Cd43 O46 2.297 . S
Cd43 O47 2.439 . S
Cd43 O53 2.240 . S
Cd44 O45 2.240 . S
Cd44 O52 2.223 . S
Cd44 O54 2.297 . S
Cd44 O55 2.439 . S
O45 Cd44 2.240 . S
O45 C50 1.279 . S
O46 Cd43 2.297 . S
O46 C48 1.247 . S
O47 Cd43 2.439 . S
O47 C48 1.208 . S
C48 O46 1.247 . S
C48 O47 1.208 . S
C49 O54 1.247 . S
C49 O55 1.208 . S
C50 O42 1.315 . S
C50 O45 1.279 . S
C51 O52 1.315 . S
C51 O53 1.279 . S
O52 Cd44 2.223 . S
O52 C51 1.315 . S
O53 Cd43 2.240 . S
O53 C51 1.279 . S
O54 Cd44 2.297 . S
O54 C49 1.247 . S
O55 Cd44 2.439 . S
O55 C49 1.208 . S
O56 Cd57 2.223 . S
O56 C64 1.315 . S
Cd57 O56 2.223 . S
Cd57 O60 2.297 . S
Cd57 O61 2.439 . S
Cd57 O67 2.240 . S
Cd58 O59 2.240 . S
Cd58 O66 2.223 . S
Cd58 O68 2.297 . S
Cd58 O69 2.439 . S
O59 Cd58 2.240 . S
O59 C64 1.279 . S
O60 Cd57 2.297 . S
O60 C62 1.247 . S
O61 Cd57 2.439 . S
O61 C62 1.208 . S
C62 O60 1.247 . S
C62 O61 1.208 . S
C63 O68 1.247 . S
C63 O69 1.208 . S
C64 O56 1.315 . S
C64 O59 1.279 . S
C65 O66 1.315 . S
C65 O67 1.279 . S
O66 Cd58 2.223 . S
O66 C65 1.315 . S
O67 Cd57 2.240 . S
O67 C65 1.279 . S
O68 Cd58 2.297 . S
O68 C63 1.247 . S
O69 Cd58 2.439 . S
O69 C63 1.208 . S
O70 Cd71 2.223 . S
O70 C78 1.315 . S
Cd71 O70 2.223 . S
Cd71 O74 2.297 . S
Cd71 O75 2.439 . S
Cd71 O81 2.240 . S
Cd72 O73 2.240 . S
Cd72 O80 2.223 . S
Cd72 O82 2.297 . S
Cd72 O83 2.439 . S
O73 Cd72 2.240 . S
O73 C78 1.279 . S
O74 Cd71 2.297 . S
O74 C76 1.247 . S
O75 Cd71 2.439 . S
O75 C76 1.208 . S
C76 O74 1.247 . S
C76 O75 1.208 . S
C77 O82 1.247 . S
C77 O83 1.208 . S
C78 O70 1.315 . S
C78 O73 1.279 . S
C79 O80 1.315 . S
C79 O81 1.279 . S
O80 Cd72 2.223 . S
O80 C79 1.315 . S
O81 Cd71 2.240 . S
O81 C79 1.279 . S
O82 Cd72 2.297 . S
O82 C77 1.247 . S
O83 Cd72 2.439 . S
O83 C77 1.208 . S
O84 Cd85 2.223 . S
O84 C92 1.315 . S
Cd85 O84 2.223 . S
Cd85 O88 2.297 . S
Cd85 O89 2.439 . S
Cd85 O95 2.240 . S
Cd86 O87 2.240 . S
Cd86 O94 2.223 . S
Cd86 O96 2.297 . S
Cd86 O97 2.439 . S
O87 Cd86 2.240 . S
O87 C92 1.279 . S
O88 Cd85 2.297 . S
O88 C90 1.247 . S
O89 Cd85 2.439 . S
O89 C90 1.208 . S
C90 O88 1.247 . S
C90 O89 1.208 . S
C91 O96 1.247 . S
C91 O97 1.208 . S
C92 O84 1.315 . S
C92 O87 1.279 . S
C93 O94 1.315 . S
C93 O95 1.279 . S
O94 Cd86 2.223 . S
O94 C93 1.315 . S
O95 Cd85 2.240 . S
O95 C93 1.279 . S
O96 Cd86 2.297 . S
O96 C91 1.247 . S
O97 Cd86 2.439 . S
O97 C91 1.208 . S
O98 Cd99 2.223 1_655 S
O98 C106 1.315 1_655 S
Cd99 O98 2.223 1_455 S
Cd99 O102 2.297 . S
Cd99 O103 2.439 . S
Cd99 O109 2.240 1_455 S
Cd100 O101 2.240 . S
Cd100 O108 2.223 1_455 S
Cd100 O110 2.281 1_455 S
Cd100 O111 2.439 . S
O101 Cd100 2.240 . S
O101 C106 1.279 1_554 S
O102 Cd99 2.297 . S
O102 C104 1.247 . S
O103 Cd99 2.439 . S
O103 C104 1.208 . S
C104 O102 1.247 . S
C104 O103 1.208 . S
C105 O110 1.219 1_455 S
C105 O111 1.208 . S
C106 O98 1.315 1_455 S
C106 O101 1.279 1_556 S
C107 O108 1.315 1_556 S
C107 O109 1.279 . S
O108 Cd100 2.223 1_655 S
O108 C107 1.315 1_554 S
O109 Cd99 2.240 1_655 S
O109 C107 1.279 . S
O110 Cd100 2.281 1_655 S
O110 C105 1.219 1_655 S
O111 Cd100 2.439 . S
O111 C105 1.208 . S
O112 Cd113 2.223 . S
O112 C120 1.315 . S
Cd113 O112 2.223 . S
Cd113 O116 2.297 . S
Cd113 O117 2.439 . S
Cd113 O123 2.240 . S
Cd114 O115 2.240 . S
Cd114 O122 2.223 1_545 S
Cd114 O124 2.297 . S
Cd114 O125 2.439 . S
O115 Cd114 2.240 . S
O115 C120 1.279 . S
O116 Cd113 2.297 . S
O116 C118 1.247 . S
O117 Cd113 2.439 . S
O117 C118 1.208 . S
C118 O116 1.247 . S
C118 O117 1.208 . S
C119 O124 1.247 . S
C119 O125 1.208 . S
C120 O112 1.315 . S
C120 O115 1.279 . S
C121 O122 1.315 . S
C121 O123 1.279 1_565 S
O122 Cd114 2.223 1_565 S
O122 C121 1.315 . S
O123 Cd113 2.240 . S
O123 C121 1.279 1_545 S
O124 Cd114 2.297 . S
O124 C119 1.247 . S
O125 Cd114 2.439 . S
O125 C119 1.208 . S
O126 Cd127 2.223 . S
O126 C134 1.315 . S
Cd127 O126 2.223 . S
Cd127 O130 2.297 . S
Cd127 O131 2.439 . S
Cd127 O137 2.240 . S
Cd128 O129 2.240 . S
Cd128 O136 2.223 . S
Cd128 O138 2.297 . S
Cd128 O139 2.439 . S
O129 Cd128 2.240 . S
O129 C134 1.279 . S
O130 Cd127 2.297 . S
O130 C132 1.247 . S
O131 Cd127 2.439 . S
O131 C132 1.208 . S
C132 O130 1.247 . S
C132 O131 1.208 . S
C133 O138 1.247 . S
C133 O139 1.208 . S
C134 O126 1.315 . S
C134 O129 1.279 . S
C135 O136 1.315 . S
C135 O137 1.279 . S
O136 Cd128 2.223 . S
O136 C135 1.315 . S
O137 Cd127 2.240 . S
O137 C135 1.279 . S
O138 Cd128 2.297 . S
O138 C133 1.247 . S
O139 Cd128 2.439 . S
O139 C133 1.208 . S
O140 Cd141 2.223 . S
O140 C148 1.315 . S
Cd141 O140 2.223 . S
Cd141 O144 2.297 . S
Cd141 O145 2.439 . S
Cd141 O151 2.240 . S
Cd142 O143 2.240 . S
Cd142 O150 2.223 . S
Cd142 O152 2.297 . S
Cd142 O153 2.439 . S
O143 Cd142 2.240 . S
O143 C148 1.279 . S
O144 Cd141 2.297 . S
O144 C146 1.247 . S
O145 Cd141 2.439 . S
O145 C146 1.208 . S
C146 O144 1.247 . S
C146 O145 1.208 . S
C147 O152 1.247 . S
C147 O153 1.208 . S
C148 O140 1.315 . S
C148 O143 1.279 . S
C149 O150 1.315 . S
C149 O151 1.279 . S
O150 Cd142 2.223 . S
O150 C149 1.315 . S
O151 Cd141 2.240 . S
O151 C149 1.279 . S
O152 Cd142 2.297 . S
O152 C147 1.247 . S
O153 Cd142 2.439 . S
O153 C147 1.208 . S
O154 Cd155 2.223 . S
O154 C162 1.315 . S
Cd155 O154 2.223 . S
Cd155 O158 2.297 . S
Cd155 O159 2.439 1_554 S
Cd155 O165 2.243 . S
Cd156 O157 2.240 1_556 S
Cd156 O164 2.223 1_556 S
Cd156 O166 2.297 . S
Cd156 O167 2.439 . S
O157 Cd156 2.240 1_554 S
O157 C162 1.279 . S
O158 Cd155 2.297 . S
O158 C160 1.247 . S
O159 Cd155 2.439 1_556 S
O159 C160 1.208 1_556 S
C160 O158 1.247 . S
C160 O159 1.208 1_554 S
C161 O166 1.247 . S
C161 O167 1.208 . S
C162 O154 1.315 . S
C162 O157 1.279 . S
C163 O164 1.315 . S
C163 O165 1.281 . S
O164 Cd156 2.223 1_554 S
O164 C163 1.315 . S
O165 Cd155 2.243 . S
O165 C163 1.281 . S
O166 Cd156 2.297 . S
O166 C161 1.247 . S
O167 Cd156 2.439 . S
O167 C161 1.208 . S
O168 Cd169 2.223 . S
O168 C176 1.315 . S
Cd169 O168 2.223 . S
Cd169 O172 2.297 . S
Cd169 O173 2.439 . S
Cd169 O179 2.240 . S
Cd170 O171 2.240 . S
Cd170 O178 2.223 . S
Cd170 O180 2.297 . S
Cd170 O181 2.439 . S
O171 Cd170 2.240 . S
O171 C176 1.279 . S
O172 Cd169 2.297 . S
O172 C174 1.247 . S
O173 Cd169 2.439 . S
O173 C174 1.208 . S
C174 O172 1.247 . S
C174 O173 1.208 . S
C175 O180 1.247 . S
C175 O181 1.208 . S
C176 O168 1.315 . S
C176 O171 1.279 . S
C177 O178 1.315 . S
C177 O179 1.279 . S
O178 Cd170 2.223 . S
O178 C177 1.315 . S
O179 Cd169 2.240 . S
O179 C177 1.279 . S
O180 Cd170 2.297 . S
O180 C175 1.247 . S
O181 Cd170 2.439 . S
O181 C175 1.208 . S
O182 Cd183 2.223 . S
O182 C190 1.315 . S
Cd183 O182 2.223 . S
Cd183 O186 2.297 . S
Cd183 O187 2.439 . S
Cd183 O193 2.240 . S
Cd184 O185 2.240 . S
Cd184 O192 2.223 . S
Cd184 O194 2.297 . S
Cd184 O195 2.439 . S
O185 Cd184 2.240 . S
O185 C190 1.279 . S
O186 Cd183 2.297 . S
O186 C188 1.247 . S
O187 Cd183 2.439 . S
O187 C188 1.208 . S
C188 O186 1.247 . S
C188 O187 1.208 . S
C189 O194 1.247 . S
C189 O195 1.208 . S
C190 O182 1.315 . S
C190 O185 1.279 . S
C191 O192 1.315 . S
C191 O193 1.279 . S
O192 Cd184 2.223 . S
O192 C191 1.315 . S
O193 Cd183 2.240 . S
O193 C191 1.279 . S
O194 Cd184 2.297 . S
O194 C189 1.247 . S
O195 Cd184 2.439 . S
O195 C189 1.208 . S
O196 Cd197 2.223 . S
O196 C204 1.315 . S
Cd197 O196 2.223 . S
Cd197 O200 2.297 . S
Cd197 O201 2.439 . S
Cd197 O207 2.240 . S
Cd198 O199 2.240 . S
Cd198 O206 2.223 . S
Cd198 O208 2.297 . S
Cd198 O209 2.439 . S
O199 Cd198 2.240 . S
O199 C204 1.279 . S
O200 Cd197 2.297 . S
O200 C202 1.247 . S
O201 Cd197 2.439 . S
O201 C202 1.208 . S
C202 O200 1.247 . S
C202 O201 1.208 . S
C203 O208 1.247 . S
C203 O209 1.208 . S
C204 O196 1.315 . S
C204 O199 1.279 . S
C205 O206 1.315 . S
C205 O207 1.279 . S
O206 Cd198 2.223 . S
O206 C205 1.315 . S
O207 Cd197 2.240 . S
O207 C205 1.279 . S
O208 Cd198 2.297 . S
O208 C203 1.247 . S
O209 Cd198 2.439 . S
O209 C203 1.208 . S
O210 Cd211 2.223 . S
O210 C218 1.315 . S
Cd211 O210 2.223 . S
Cd211 O214 2.297 . S
Cd211 O215 2.439 . S
Cd211 O221 2.240 . S
Cd212 O213 2.240 . S
Cd212 O220 2.223 . S
Cd212 O222 2.297 . S
Cd212 O223 2.439 . S
O213 Cd212 2.240 . S
O213 C218 1.279 . S
O214 Cd211 2.297 . S
O214 C216 1.247 . S
O215 Cd211 2.439 . S
O215 C216 1.208 . S
C216 O214 1.247 . S
C216 O215 1.208 . S
C217 O222 1.247 . S
C217 O223 1.208 . S
C218 O210 1.315 . S
C218 O213 1.279 . S
C219 O220 1.315 . S
C219 O221 1.279 . S
O220 Cd212 2.223 . S
O220 C219 1.315 . S
O221 Cd211 2.240 . S
O221 C219 1.279 . S
O222 Cd212 2.297 . S
O222 C217 1.247 . S
O223 Cd212 2.439 . S
O223 C217 1.208 . S
O224 Cd225 2.223 . S
O224 C232 1.315 . S
Cd225 O224 2.223 . S
Cd225 O228 2.297 1_565 S
Cd225 O229 2.439 1_565 S
Cd225 O235 2.240 . S
Cd226 O227 2.240 1_565 S
Cd226 O234 2.223 . S
Cd226 O236 2.297 . S
Cd226 O237 2.439 1_565 S
O227 Cd226 2.240 1_545 S
O227 C232 1.279 1_545 S
O228 Cd225 2.297 1_545 S
O228 C230 1.247 . S
O229 Cd225 2.439 1_545 S
O229 C230 1.208 . S
C230 O228 1.247 . S
C230 O229 1.208 . S
C231 O236 1.247 1_545 S
C231 O237 1.208 . S
C232 O224 1.315 . S
C232 O227 1.279 1_565 S
C233 O234 1.315 . S
C233 O235 1.279 . S
O234 Cd226 2.223 . S
O234 C233 1.315 . S
O235 Cd225 2.240 . S
O235 C233 1.279 . S
O236 Cd226 2.297 . S
O236 C231 1.247 1_565 S
O237 Cd226 2.439 1_545 S
O237 C231 1.208 . S
O238 Cd239 2.223 . S
O238 C246 1.315 . S
Cd239 O238 2.223 . S
Cd239 O242 2.297 . S
Cd239 O243 2.439 . S
Cd239 O249 2.240 . S
Cd240 O241 2.240 . S
Cd240 O248 2.223 . S
Cd240 O250 2.297 . S
Cd240 O251 2.439 . S
O241 Cd240 2.240 . S
O241 C246 1.279 . S
O242 Cd239 2.297 . S
O242 C244 1.247 . S
O243 Cd239 2.439 . S
O243 C244 1.208 . S
C244 O242 1.247 . S
C244 O243 1.208 . S
C245 O250 1.247 . S
C245 O251 1.208 . S
C246 O238 1.315 . S
C246 O241 1.279 . S
C247 O248 1.315 . S
C247 O249 1.279 . S
O248 Cd240 2.223 . S
O248 C247 1.315 . S
O249 Cd239 2.240 . S
O249 C247 1.279 . S
O250 Cd240 2.297 . S
O250 C245 1.247 . S
O251 Cd240 2.439 . S
O251 C245 1.208 . S
O252 Cd253 2.223 . S
O252 C260 1.315 . S
Cd253 O252 2.223 . S
Cd253 O256 2.297 . S
Cd253 O257 2.439 . S
Cd253 O263 2.240 . S
Cd254 O255 2.240 . S
Cd254 O262 2.223 . S
Cd254 O264 2.297 . S
Cd254 O265 2.439 . S
O255 Cd254 2.240 . S
O255 C260 1.279 . S
O256 Cd253 2.297 . S
O256 C258 1.247 . S
O257 Cd253 2.439 . S
O257 C258 1.208 . S
C258 O256 1.247 . S
C258 O257 1.208 . S
C259 O264 1.247 . S
C259 O265 1.208 . S
C260 O252 1.315 . S
C260 O255 1.279 . S
C261 O262 1.315 . S
C261 O263 1.279 . S
O262 Cd254 2.223 . S
O262 C261 1.315 . S
O263 Cd253 2.240 . S
O263 C261 1.279 . S
O264 Cd254 2.297 . S
O264 C259 1.247 . S
O265 Cd254 2.439 . S
O265 C259 1.208 . S
O266 Cd267 2.223 . S
O266 C274 1.315 . S
Cd267 O266 2.223 . S
Cd267 O270 2.297 1_545 S
Cd267 O271 2.439 1_545 S
Cd267 O277 2.240 . S
Cd268 O269 2.240 . S
Cd268 O276 2.223 . S
Cd268 O278 2.297 . S
Cd268 O279 2.439 . S
O269 Cd268 2.240 . S
O269 C274 1.279 . S
O270 Cd267 2.297 1_565 S
O270 C272 1.247 . S
O271 Cd267 2.439 1_565 S
O271 C272 1.208 . S
C272 O270 1.247 . S
C272 O271 1.208 . S
C273 O278 1.247 . S
C273 O279 1.208 . S
C274 O266 1.315 . S
C274 O269 1.279 . S
C275 O276 1.315 . S
C275 O277 1.279 . S
O276 Cd268 2.223 . S
O276 C275 1.315 . S
O277 Cd267 2.240 . S
O277 C275 1.279 . S
O278 Cd268 2.297 . S
O278 C273 1.247 . S
O279 Cd268 2.439 . S
O279 C273 1.208 . S
O280 Cd281 2.223 . S
O280 C288 1.315 . S
Cd281 O280 2.223 . S
Cd281 O284 2.297 . S
Cd281 O285 2.439 . S
Cd281 O291 2.240 . S
Cd282 O283 2.240 . S
Cd282 O290 2.223 . S
Cd282 O292 2.297 . S
Cd282 O293 2.439 . S
O283 Cd282 2.240 . S
O283 C288 1.279 . S
O284 Cd281 2.297 . S
O284 C286 1.247 . S
O285 Cd281 2.439 . S
O285 C286 1.208 . S
C286 O284 1.247 . S
C286 O285 1.208 . S
C287 O292 1.247 . S
C287 O293 1.208 . S
C288 O280 1.315 . S
C288 O283 1.279 . S
C289 O290 1.315 . S
C289 O291 1.279 . S
O290 Cd282 2.223 . S
O290 C289 1.315 . S
O291 Cd281 2.240 . S
O291 C289 1.279 . S
O292 Cd282 2.297 . S
O292 C287 1.247 . S
O293 Cd282 2.439 . S
O293 C287 1.208 . S
O294 Cd295 2.223 . S
O294 C302 1.315 . S
Cd295 O294 2.223 . S
Cd295 O298 2.297 . S
Cd295 O299 2.439 . S
Cd295 O305 2.240 . S
Cd296 O297 2.240 . S
Cd296 O304 2.223 . S
Cd296 O306 2.297 . S
Cd296 O307 2.439 . S
O297 Cd296 2.240 . S
O297 C302 1.279 . S
O298 Cd295 2.297 . S
O298 C300 1.247 . S
O299 Cd295 2.439 . S
O299 C300 1.208 . S
C300 O298 1.247 . S
C300 O299 1.208 . S
C301 O306 1.247 . S
C301 O307 1.208 . S
C302 O294 1.315 . S
C302 O297 1.279 . S
C303 O304 1.315 . S
C303 O305 1.279 . S
O304 Cd296 2.223 . S
O304 C303 1.315 . S
O305 Cd295 2.240 . S
O305 C303 1.279 . S
O306 Cd296 2.297 . S
O306 C301 1.247 . S
O307 Cd296 2.439 . S
O307 C301 1.208 . S
O308 Cd309 2.223 . S
O308 C316 1.315 . S
Cd309 O308 2.223 . S
Cd309 O312 2.297 . S
Cd309 O313 2.439 . S
Cd309 O319 2.240 . S
Cd310 O311 2.240 . S
Cd310 O318 2.223 . S
Cd310 O320 2.297 . S
Cd310 O321 2.439 . S
O311 Cd310 2.240 . S
O311 C316 1.279 . S
O312 Cd309 2.297 . S
O312 C314 1.247 . S
O313 Cd309 2.439 . S
O313 C314 1.208 . S
C314 O312 1.247 . S
C314 O313 1.208 . S
C315 O320 1.247 . S
C315 O321 1.208 . S
C316 O308 1.315 . S
C316 O311 1.279 . S
C317 O318 1.315 . S
C317 O319 1.279 . S
O318 Cd310 2.223 . S
O318 C317 1.315 . S
O319 Cd309 2.240 . S
O319 C317 1.279 . S
O320 Cd310 2.297 . S
O320 C315 1.247 . S
O321 Cd310 2.439 . S
O321 C315 1.208 . S
O322 Cd323 2.223 . S
O322 C330 1.315 . S
Cd323 O322 2.223 . S
Cd323 O326 2.297 . S
Cd323 O327 2.439 . S
Cd323 O333 2.240 . S
Cd324 O325 2.240 . S
Cd324 O332 2.223 . S
Cd324 O334 2.297 . S
Cd324 O335 2.439 . S
O325 Cd324 2.240 . S
O325 C330 1.279 . S
O326 Cd323 2.297 . S
O326 C328 1.247 . S
O327 Cd323 2.439 . S
O327 C328 1.208 . S
C328 O326 1.247 . S
C328 O327 1.208 . S
C329 O334 1.247 . S
C329 O335 1.208 . S
C330 O322 1.315 . S
C330 O325 1.279 . S
C331 O332 1.315 . S
C331 O333 1.279 . S
O332 Cd324 2.223 . S
O332 C331 1.315 . S
O333 Cd323 2.240 . S
O333 C331 1.279 . S
O334 Cd324 2.297 . S
O334 C329 1.247 . S
O335 Cd324 2.439 . S
O335 C329 1.208 . S
Tb336 C338 2.809 1_455 S
Tb336 O356 2.484 1_455 S
Tb336 O357 2.440 1_455 S
Tb336 O358 2.658 . S
Tb336 O359 2.409 . S
Tb336 O360 2.378 . S
Tb336 O364 2.325 . S
Tb336 O367 2.341 1_545 S
Tb337 C347 2.809 . S
Tb337 O358 2.325 . S
Tb337 O361 2.341 . S
Tb337 O362 2.484 . S
Tb337 O363 2.440 . S
Tb337 O364 2.658 . S
Tb337 O365 2.409 . S
Tb337 O366 2.378 . S
C338 Tb336 2.809 1_655 S
C338 C339 1.514 . S
C338 O356 1.248 . S
C338 O357 1.266 . S
C339 C338 1.514 . S
C339 C340 1.359 . S
C339 C344 1.348 . S
C340 C339 1.359 . S
C340 C341 1.380 . S
C340 H368 0.929 . S
C341 C340 1.380 . S
C341 C342 1.347 . S
C341 H369 0.931 . S
C342 C341 1.347 . S
C342 C343 1.369 . S
C343 C342 1.369 . S
C343 C344 1.408 . S
C343 H370 0.930 . S
C344 C339 1.348 . S
C344 C343 1.408 . S
C344 H371 0.930 . S
C345 O358 1.281 . S
C345 O359 1.254 . S
C346 O360 1.236 . S
C346 O361 1.266 . S
C347 Tb337 2.809 . S
C347 C348 1.514 . S
C347 O362 1.248 . S
C347 O363 1.266 . S
C348 C347 1.514 . S
C348 C349 1.361 . S
C348 C353 1.348 . S
C349 C348 1.361 . S
C349 C350 1.376 1_545 S
C349 H372 0.932 1_545 S
C350 C349 1.376 1_565 S
C350 C351 1.347 . S
C350 H373 0.931 . S
C351 C350 1.347 . S
C351 C352 1.356 1_565 S
C352 C351 1.356 1_545 S
C352 C353 1.432 . S
C352 H374 0.921 . S
C353 C348 1.348 . S
C353 C352 1.432 . S
C353 H375 0.930 . S
C354 O364 1.281 . S
C354 O365 1.254 . S
C355 O366 1.236 1_565 S
C355 O367 1.266 . S
O356 Tb336 2.484 1_655 S
O356 C338 1.248 . S
O357 Tb336 2.440 1_655 S
O357 C338 1.266 . S
O358 Tb336 2.658 . S
O358 Tb337 2.325 . S
O358 C345 1.281 . S
O359 Tb336 2.409 . S
O359 C345 1.254 . S
O360 Tb336 2.378 . S
O360 C346 1.236 . S
O361 Tb337 2.341 . S
O361 C346 1.266 . S
O362 Tb337 2.484 . S
O362 C347 1.248 . S
O363 Tb337 2.440 . S
O363 C347 1.266 . S
O364 Tb336 2.325 . S
O364 Tb337 2.658 . S
O364 C354 1.281 . S
O365 Tb337 2.409 . S
O365 C354 1.254 . S
O366 Tb337 2.378 . S
O366 C355 1.236 1_545 S
O367 Tb336 2.341 1_565 S
O367 C355 1.266 . S
H368 C340 0.929 . S
H369 C341 0.931 . S
H370 C343 0.930 . S
H371 C344 0.930 . S
H372 C349 0.932 1_565 S
H373 C350 0.931 . S
H374 C352 0.921 . S
H375 C353 0.930 . S
Tb376 C378 2.809 . S
Tb376 O396 2.484 . S
Tb376 O397 2.440 . S
Tb376 O398 2.658 . S
Tb376 O399 2.409 . S
Tb376 O400 2.378 . S
Tb376 O404 2.325 . S
Tb376 O407 2.341 . S
Tb377 C387 2.809 . S
Tb377 O398 2.325 . S
Tb377 O401 2.341 . S
Tb377 O402 2.484 . S
Tb377 O403 2.440 . S
Tb377 O404 2.658 . S
Tb377 O405 2.409 . S
Tb377 O406 2.378 . S
C378 Tb376 2.809 . S
C378 C379 1.514 . S
C378 O396 1.248 . S
C378 O397 1.266 . S
C379 C378 1.514 . S
C379 C380 1.359 . S
C379 C384 1.348 . S
C380 C379 1.359 . S
C380 C381 1.380 . S
C380 H408 0.929 . S
C381 C380 1.380 . S
C381 C382 1.347 . S
C381 H409 0.931 . S
C382 C381 1.347 . S
C382 C383 1.369 . S
C383 C382 1.369 . S
C383 C384 1.408 . S
C383 H410 0.930 . S
C384 C379 1.348 . S
C384 C383 1.408 . S
C384 H411 0.930 . S
C385 O398 1.281 . S
C385 O399 1.254 . S
C386 O400 1.236 . S
C386 O401 1.266 . S
C387 Tb377 2.809 . S
C387 C388 1.514 . S
C387 O402 1.248 . S
C387 O403 1.266 . S
C388 C387 1.514 . S
C388 C389 1.359 . S
C388 C393 1.348 . S
C389 C388 1.359 . S
C389 C390 1.380 . S
C389 H412 0.929 . S
C390 C389 1.380 . S
C390 C391 1.347 . S
C390 H413 0.931 . S
C391 C390 1.347 . S
C391 C392 1.369 . S
C392 C391 1.369 . S
C392 C393 1.408 . S
C392 H414 0.930 . S
C393 C388 1.348 . S
C393 C392 1.408 . S
C393 H415 0.930 . S
C394 O404 1.281 . S
C394 O405 1.254 . S
C395 O406 1.236 . S
C395 O407 1.266 . S
O396 Tb376 2.484 . S
O396 C378 1.248 . S
O397 Tb376 2.440 . S
O397 C378 1.266 . S
O398 Tb376 2.658 . S
O398 Tb377 2.325 . S
O398 C385 1.281 . S
O399 Tb376 2.409 . S
O399 C385 1.254 . S
O400 Tb376 2.378 . S
O400 C386 1.236 . S
O401 Tb377 2.341 . S
O401 C386 1.266 . S
O402 Tb377 2.484 . S
O402 C387 1.248 . S
O403 Tb377 2.440 . S
O403 C387 1.266 . S
O404 Tb376 2.325 . S
O404 Tb377 2.658 . S
O404 C394 1.281 . S
O405 Tb377 2.409 . S
O405 C394 1.254 . S
O406 Tb377 2.378 . S
O406 C395 1.236 . S
O407 Tb376 2.341 . S
O407 C395 1.266 . S
H408 C380 0.929 . S
H409 C381 0.931 . S
H410 C383 0.930 . S
H411 C384 0.930 . S
H412 C389 0.929 . S
H413 C390 0.931 . S
H414 C392 0.930 . S
H415 C393 0.930 . S
Tb416 C418 2.809 . S
Tb416 O436 2.484 . S
Tb416 O437 2.440 . S
Tb416 O438 2.658 . S
Tb416 O439 2.409 . S
Tb416 O440 2.378 . S
Tb416 O444 2.325 . S
Tb416 O447 2.341 . S
Tb417 C427 2.809 . S
Tb417 O438 2.325 . S
Tb417 O441 2.341 1_545 S
Tb417 O442 2.484 . S
Tb417 O443 2.440 . S
Tb417 O444 2.658 . S
Tb417 O445 2.409 . S
Tb417 O446 2.378 . S
C418 Tb416 2.809 . S
C418 C419 1.514 . S
C418 O436 1.248 . S
C418 O437 1.266 . S
C419 C418 1.514 . S
C419 C420 1.359 1_545 S
C419 C424 1.348 1_545 S
C420 C419 1.359 1_565 S
C420 C421 1.380 . S
C420 H448 0.929 . S
C421 C420 1.380 . S
C421 C422 1.347 . S
C421 H449 0.931 . S
C422 C421 1.347 . S
C422 C423 1.369 . S
C423 C422 1.369 . S
C423 C424 1.417 . S
C423 H450 0.930 . S
C424 C419 1.348 1_565 S
C424 C423 1.417 . S
C424 H451 0.922 1_565 S
C425 O438 1.281 . S
C425 O439 1.254 . S
C426 O440 1.236 1_565 S
C426 O441 1.266 . S
C427 Tb417 2.809 . S
C427 C428 1.514 . S
C427 O442 1.248 . S
C427 O443 1.266 . S
C428 C427 1.514 . S
C428 C429 1.359 . S
C428 C433 1.348 . S
C429 C428 1.359 . S
C429 C430 1.380 . S
C429 H452 0.929 . S
C430 C429 1.380 . S
C430 C431 1.347 . S
C430 H453 0.931 . S
C431 C430 1.347 . S
C431 C432 1.369 . S
C432 C431 1.369 . S
C432 C433 1.408 . S
C432 H454 0.930 . S
C433 C428 1.348 . S
C433 C432 1.408 . S
C433 H455 0.930 . S
C434 O444 1.281 . S
C434 O445 1.254 . S
C435 O446 1.236 . S
C435 O447 1.266 . S
O436 Tb416 2.484 . S
O436 C418 1.248 . S
O437 Tb416 2.440 . S
O437 C418 1.266 . S
O438 Tb416 2.658 . S
O438 Tb417 2.325 . S
O438 C425 1.281 . S
O439 Tb416 2.409 . S
O439 C425 1.254 . S
O440 Tb416 2.378 . S
O440 C426 1.236 1_545 S
O441 Tb417 2.341 1_565 S
O441 C426 1.266 . S
O442 Tb417 2.484 . S
O442 C427 1.248 . S
O443 Tb417 2.440 . S
O443 C427 1.266 . S
O444 Tb416 2.325 . S
O444 Tb417 2.658 . S
O444 C434 1.281 . S
O445 Tb417 2.409 . S
O445 C434 1.254 . S
O446 Tb417 2.378 . S
O446 C435 1.236 . S
O447 Tb416 2.341 . S
O447 C435 1.266 . S
H448 C420 0.929 . S
H449 C421 0.931 . S
H450 C423 0.930 . S
H451 C424 0.922 1_545 S
H452 C429 0.929 . S
H453 C430 0.931 . S
H454 C432 0.930 . S
H455 C433 0.930 . S
Tb456 C458 2.809 . S
Tb456 O476 2.484 . S
Tb456 O477 2.440 . S
Tb456 O478 2.658 . S
Tb456 O479 2.409 . S
Tb456 O480 2.378 . S
Tb456 O484 2.325 . S
Tb456 O487 2.341 . S
Tb457 C467 2.809 . S
Tb457 O478 2.325 . S
Tb457 O481 2.341 . S
Tb457 O482 2.484 . S
Tb457 O483 2.440 . S
Tb457 O484 2.658 . S
Tb457 O485 2.409 . S
Tb457 O486 2.378 . S
C458 Tb456 2.809 . S
C458 C459 1.514 . S
C458 O476 1.248 . S
C458 O477 1.266 . S
C459 C458 1.514 . S
C459 C460 1.359 . S
C459 C464 1.348 . S
C460 C459 1.359 . S
C460 C461 1.380 . S
C460 H488 0.929 . S
C461 C460 1.380 . S
C461 C462 1.347 . S
C461 H489 0.931 . S
C462 C461 1.347 . S
C462 C463 1.369 . S
C463 C462 1.369 . S
C463 C464 1.408 . S
C463 H490 0.930 . S
C464 C459 1.348 . S
C464 C463 1.408 . S
C464 H491 0.930 . S
C465 O478 1.281 . S
C465 O479 1.254 . S
C466 O480 1.236 . S
C466 O481 1.266 . S
C467 Tb457 2.809 . S
C467 C468 1.514 . S
C467 O482 1.248 . S
C467 O483 1.266 . S
C468 C467 1.514 . S
C468 C469 1.359 . S
C468 C473 1.348 . S
C469 C468 1.359 . S
C469 C470 1.380 . S
C469 H492 0.929 . S
C470 C469 1.380 . S
C470 C471 1.347 . S
C470 H493 0.931 . S
C471 C470 1.347 . S
C471 C472 1.369 . S
C472 C471 1.369 . S
C472 C473 1.408 . S
C472 H494 0.930 . S
C473 C468 1.348 . S
C473 C472 1.408 . S
C473 H495 0.930 . S
C474 O484 1.281 . S
C474 O485 1.254 . S
C475 O486 1.236 . S
C475 O487 1.266 . S
O476 Tb456 2.484 . S
O476 C458 1.248 . S
O477 Tb456 2.440 . S
O477 C458 1.266 . S
O478 Tb456 2.658 . S
O478 Tb457 2.325 . S
O478 C465 1.281 . S
O479 Tb456 2.409 . S
O479 C465 1.254 . S
O480 Tb456 2.378 . S
O480 C466 1.236 . S
O481 Tb457 2.341 . S
O481 C466 1.266 . S
O482 Tb457 2.484 . S
O482 C467 1.248 . S
O483 Tb457 2.440 . S
O483 C467 1.266 . S
O484 Tb456 2.325 . S
O484 Tb457 2.658 . S
O484 C474 1.281 . S
O485 Tb457 2.409 . S
O485 C474 1.254 . S
O486 Tb457 2.378 . S
O486 C475 1.236 . S
O487 Tb456 2.341 . S
O487 C475 1.266 . S
H488 C460 0.929 . S
H489 C461 0.931 . S
H490 C463 0.930 . S
H491 C464 0.930 . S
H492 C469 0.929 . S
H493 C470 0.931 . S
H494 C472 0.930 . S
H495 C473 0.930 . S
Tb496 C498 2.809 . S
Tb496 O516 2.484 . S
Tb496 O517 2.440 . S
Tb496 O518 2.658 . S
Tb496 O519 2.409 1_455 S
Tb496 O520 2.378 . S
Tb496 O524 2.325 . S
Tb496 O527 2.341 . S
Tb497 C507 2.809 1_545 S
Tb497 O518 2.325 . S
Tb497 O521 2.341 . S
Tb497 O522 2.484 1_545 S
Tb497 O523 2.440 1_545 S
Tb497 O524 2.658 . S
Tb497 O525 2.409 . S
Tb497 O526 2.378 . S
C498 Tb496 2.809 . S
C498 C499 1.514 . S
C498 O516 1.248 . S
C498 O517 1.266 . S
C499 C498 1.514 . S
C499 C500 1.359 . S
C499 C504 1.348 . S
C500 C499 1.359 . S
C500 C501 1.380 . S
C500 H528 0.929 . S
C501 C500 1.380 . S
C501 C502 1.347 . S
C501 H529 0.931 . S
C502 C501 1.347 . S
C502 C503 1.369 1_455 S
C503 C502 1.369 1_655 S
C503 C504 1.408 1_655 S
C503 H530 0.930 . S
C504 C499 1.348 . S
C504 C503 1.408 1_455 S
C504 H531 0.930 1_455 S
C505 O518 1.281 . S
C505 O519 1.254 1_455 S
C506 O520 1.236 . S
C506 O521 1.266 . S
C507 Tb497 2.809 1_565 S
C507 C508 1.514 . S
C507 O522 1.248 . S
C507 O523 1.266 . S
C508 C507 1.514 . S
C508 C509 1.359 . S
C508 C513 1.348 . S
C509 C508 1.359 . S
C509 C510 1.380 . S
C509 H532 0.929 . S
C510 C509 1.380 . S
C510 C511 1.347 . S
C510 H533 0.931 . S
C511 C510 1.347 . S
C511 C512 1.369 . S
C512 C511 1.369 . S
C512 C513 1.408 . S
C512 H534 0.930 . S
C513 C508 1.348 . S
C513 C512 1.408 . S
C513 H535 0.930 . S
C514 O524 1.281 . S
C514 O525 1.254 . S
C515 O526 1.236 . S
C515 O527 1.266 . S
O516 Tb496 2.484 . S
O516 C498 1.248 . S
O517 Tb496 2.440 . S
O517 C498 1.266 . S
O518 Tb496 2.658 . S
O518 Tb497 2.325 . S
O518 C505 1.281 . S
O519 Tb496 2.409 1_655 S
O519 C505 1.254 1_655 S
O520 Tb496 2.378 . S
O520 C506 1.236 . S
O521 Tb497 2.341 . S
O521 C506 1.266 . S
O522 Tb497 2.484 1_565 S
O522 C507 1.248 . S
O523 Tb497 2.440 1_565 S
O523 C507 1.266 . S
O524 Tb496 2.325 . S
O524 Tb497 2.658 . S
O524 C514 1.281 . S
O525 Tb497 2.409 . S
O525 C514 1.254 . S
O526 Tb497 2.378 . S
O526 C515 1.236 . S
O527 Tb496 2.341 . S
O527 C515 1.266 . S
H528 C500 0.929 . S
H529 C501 0.931 . S
H530 C503 0.930 . S
H531 C504 0.930 1_655 S
H532 C509 0.929 . S
H533 C510 0.931 . S
H534 C512 0.930 . S
H535 C513 0.930 . S
Tb536 C538 2.809 . S
Tb536 O556 2.484 . S
Tb536 O557 2.440 . S
Tb536 O558 2.658 . S
Tb536 O559 2.409 . S
Tb536 O560 2.378 . S
Tb536 O564 2.325 . S
Tb536 O567 2.341 . S
Tb537 C547 2.809 . S
Tb537 O558 2.325 . S
Tb537 O561 2.341 . S
Tb537 O562 2.484 . S
Tb537 O563 2.440 . S
Tb537 O564 2.658 . S
Tb537 O565 2.409 . S
Tb537 O566 2.378 . S
C538 Tb536 2.809 . S
C538 C539 1.514 . S
C538 O556 1.248 . S
C538 O557 1.266 . S
C539 C538 1.514 . S
C539 C540 1.359 . S
C539 C544 1.348 . S
C540 C539 1.359 . S
C540 C541 1.380 . S
C540 H568 0.929 . S
C541 C540 1.380 . S
C541 C542 1.347 . S
C541 H569 0.931 . S
C542 C541 1.347 . S
C542 C543 1.369 . S
C543 C542 1.369 . S
C543 C544 1.408 . S
C543 H570 0.930 . S
C544 C539 1.348 . S
C544 C543 1.408 . S
C544 H571 0.930 . S
C545 O558 1.281 . S
C545 O559 1.254 . S
C546 O560 1.236 . S
C546 O561 1.266 . S
C547 Tb537 2.809 . S
C547 C548 1.514 . S
C547 O562 1.248 . S
C547 O563 1.266 . S
C548 C547 1.514 . S
C548 C549 1.359 . S
C548 C553 1.348 . S
C549 C548 1.359 . S
C549 C550 1.380 . S
C549 H572 0.929 . S
C550 C549 1.380 . S
C550 C551 1.347 . S
C550 H573 0.931 . S
C551 C550 1.347 . S
C551 C552 1.369 . S
C552 C551 1.369 . S
C552 C553 1.408 . S
C552 H574 0.930 . S
C553 C548 1.348 . S
C553 C552 1.408 . S
C553 H575 0.930 . S
C554 O564 1.281 . S
C554 O565 1.254 . S
C555 O566 1.236 . S
C555 O567 1.266 . S
O556 Tb536 2.484 . S
O556 C538 1.248 . S
O557 Tb536 2.440 . S
O557 C538 1.266 . S
O558 Tb536 2.658 . S
O558 Tb537 2.325 . S
O558 C545 1.281 . S
O559 Tb536 2.409 . S
O559 C545 1.254 . S
O560 Tb536 2.378 . S
O560 C546 1.236 . S
O561 Tb537 2.341 . S
O561 C546 1.266 . S
O562 Tb537 2.484 . S
O562 C547 1.248 . S
O563 Tb537 2.440 . S
O563 C547 1.266 . S
O564 Tb536 2.325 . S
O564 Tb537 2.658 . S
O564 C554 1.281 . S
O565 Tb537 2.409 . S
O565 C554 1.254 . S
O566 Tb537 2.378 . S
O566 C555 1.236 . S
O567 Tb536 2.341 . S
O567 C555 1.266 . S
H568 C540 0.929 . S
H569 C541 0.931 . S
H570 C543 0.930 . S
H571 C544 0.930 . S
H572 C549 0.929 . S
H573 C550 0.931 . S
H574 C552 0.930 . S
H575 C553 0.930 . S
Tb576 C578 2.809 . S
Tb576 O596 2.484 1_545 S
Tb576 O597 2.440 . S
Tb576 O598 2.658 . S
Tb576 O599 2.409 . S
Tb576 O600 2.378 . S
Tb576 O604 2.325 . S
Tb576 O607 2.341 . S
Tb577 C587 2.809 . S
Tb577 O598 2.325 . S
Tb577 O601 2.341 . S
Tb577 O602 2.484 . S
Tb577 O603 2.440 . S
Tb577 O604 2.658 . S
Tb577 O605 2.409 1_545 S
Tb577 O606 2.378 . S
C578 Tb576 2.809 . S
C578 C579 1.514 1_545 S
C578 O596 1.248 1_545 S
C578 O597 1.266 . S
C579 C578 1.514 1_565 S
C579 C580 1.359 . S
C579 C584 1.348 1_565 S
C580 C579 1.359 . S
C580 C581 1.380 . S
C580 H608 0.929 . S
C581 C580 1.380 . S
C581 C582 1.347 . S
C581 H609 0.931 . S
C582 C581 1.347 . S
C582 C583 1.369 1_565 S
C583 C582 1.369 1_545 S
C583 C584 1.408 . S
C583 H610 0.930 . S
C584 C579 1.348 1_545 S
C584 C583 1.408 . S
C584 H611 0.930 . S
C585 O598 1.281 . S
C585 O599 1.254 . S
C586 O600 1.236 . S
C586 O601 1.266 . S
C587 Tb577 2.809 . S
C587 C588 1.514 . S
C587 O602 1.248 . S
C587 O603 1.266 . S
C588 C587 1.514 . S
C588 C589 1.359 . S
C588 C593 1.348 . S
C589 C588 1.359 . S
C589 C590 1.380 . S
C589 H612 0.929 . S
C590 C589 1.380 . S
C590 C591 1.347 . S
C590 H613 0.931 . S
C591 C590 1.347 . S
C591 C592 1.369 . S
C592 C591 1.369 . S
C592 C593 1.408 . S
C592 H614 0.930 . S
C593 C588 1.348 . S
C593 C592 1.408 . S
C593 H615 0.930 . S
C594 O604 1.281 1_565 S
C594 O605 1.254 . S
C595 O606 1.236 . S
C595 O607 1.266 . S
O596 Tb576 2.484 1_565 S
O596 C578 1.248 1_565 S
O597 Tb576 2.440 . S
O597 C578 1.266 . S
O598 Tb576 2.658 . S
O598 Tb577 2.325 . S
O598 C585 1.281 . S
O599 Tb576 2.409 . S
O599 C585 1.254 . S
O600 Tb576 2.378 . S
O600 C586 1.236 . S
O601 Tb577 2.341 . S
O601 C586 1.266 . S
O602 Tb577 2.484 . S
O602 C587 1.248 . S
O603 Tb577 2.440 . S
O603 C587 1.266 . S
O604 Tb576 2.325 . S
O604 Tb577 2.658 . S
O604 C594 1.281 1_545 S
O605 Tb577 2.409 1_565 S
O605 C594 1.254 . S
O606 Tb577 2.378 . S
O606 C595 1.236 . S
O607 Tb576 2.341 . S
O607 C595 1.266 . S
H608 C580 0.929 . S
H609 C581 0.931 . S
H610 C583 0.930 . S
H611 C584 0.930 . S
H612 C589 0.929 . S
H613 C590 0.931 . S
H614 C592 0.930 . S
H615 C593 0.930 . S
Tb616 C618 2.809 . S
Tb616 O636 2.484 . S
Tb616 O637 2.440 . S
Tb616 O638 2.658 . S
Tb616 O639 2.409 . S
Tb616 O640 2.378 . S
Tb616 O644 2.325 . S
Tb616 O647 2.341 . S
Tb617 C627 2.809 . S
Tb617 O638 2.325 . S
Tb617 O641 2.341 . S
Tb617 O642 2.484 . S
Tb617 O643 2.440 . S
Tb617 O644 2.658 . S
Tb617 O645 2.409 . S
Tb617 O646 2.378 . S
C618 Tb616 2.809 . S
C618 C619 1.514 . S
C618 O636 1.248 . S
C618 O637 1.266 . S
C619 C618 1.514 . S
C619 C620 1.359 . S
C619 C624 1.348 . S
C620 C619 1.359 . S
C620 C621 1.380 . S
C620 H648 0.929 . S
C621 C620 1.380 . S
C621 C622 1.347 . S
C621 H649 0.931 . S
C622 C621 1.347 . S
C622 C623 1.369 . S
C623 C622 1.369 . S
C623 C624 1.408 . S
C623 H650 0.930 . S
C624 C619 1.348 . S
C624 C623 1.408 . S
C624 H651 0.930 . S
C625 O638 1.281 . S
C625 O639 1.254 . S
C626 O640 1.236 . S
C626 O641 1.266 . S
C627 Tb617 2.809 . S
C627 C628 1.514 . S
C627 O642 1.248 . S
C627 O643 1.266 . S
C628 C627 1.514 . S
C628 C629 1.359 . S
C628 C633 1.348 . S
C629 C628 1.359 . S
C629 C630 1.380 . S
C629 H652 0.929 . S
C630 C629 1.380 . S
C630 C631 1.347 . S
C630 H653 0.931 . S
C631 C630 1.347 . S
C631 C632 1.369 . S
C632 C631 1.369 . S
C632 C633 1.408 . S
C632 H654 0.930 . S
C633 C628 1.348 . S
C633 C632 1.408 . S
C633 H655 0.930 . S
C634 O644 1.281 . S
C634 O645 1.254 . S
C635 O646 1.236 . S
C635 O647 1.266 . S
O636 Tb616 2.484 . S
O636 C618 1.248 . S
O637 Tb616 2.440 . S
O637 C618 1.266 . S
O638 Tb616 2.658 . S
O638 Tb617 2.325 . S
O638 C625 1.281 . S
O639 Tb616 2.409 . S
O639 C625 1.254 . S
O640 Tb616 2.378 . S
O640 C626 1.236 . S
O641 Tb617 2.341 . S
O641 C626 1.266 . S
O642 Tb617 2.484 . S
O642 C627 1.248 . S
O643 Tb617 2.440 . S
O643 C627 1.266 . S
O644 Tb616 2.325 . S
O644 Tb617 2.658 . S
O644 C634 1.281 . S
O645 Tb617 2.409 . S
O645 C634 1.254 . S
O646 Tb617 2.378 . S
O646 C635 1.236 . S
O647 Tb616 2.341 . S
O647 C635 1.266 . S
H648 C620 0.929 . S
H649 C621 0.931 . S
H650 C623 0.930 . S
H651 C624 0.930 . S
H652 C629 0.929 . S
H653 C630 0.931 . S
H654 C632 0.930 . S
H655 C633 0.930 . S
Tb656 C658 2.809 . S
Tb656 O676 2.484 . S
Tb656 O677 2.440 . S
Tb656 O678 2.658 . S
Tb656 O679 2.409 . S
Tb656 O680 2.378 . S
Tb656 O684 2.325 . S
Tb656 O687 2.341 . S
Tb657 C667 2.809 . S
Tb657 O678 2.325 . S
Tb657 O681 2.341 . S
Tb657 O682 2.484 . S
Tb657 O683 2.440 . S
Tb657 O684 2.658 . S
Tb657 O685 2.409 . S
Tb657 O686 2.378 . S
C658 Tb656 2.809 . S
C658 C659 1.514 . S
C658 O676 1.248 . S
C658 O677 1.266 . S
C659 C658 1.514 . S
C659 C660 1.359 . S
C659 C664 1.348 . S
C660 C659 1.359 . S
C660 C661 1.380 . S
C660 H688 0.929 . S
C661 C660 1.380 . S
C661 C662 1.347 . S
C661 H689 0.931 . S
C662 C661 1.347 . S
C662 C663 1.369 . S
C663 C662 1.369 . S
C663 C664 1.408 . S
C663 H690 0.930 . S
C664 C659 1.348 . S
C664 C663 1.408 . S
C664 H691 0.930 . S
C665 O678 1.281 . S
C665 O679 1.254 . S
C666 O680 1.236 . S
C666 O681 1.266 . S
C667 Tb657 2.809 . S
C667 C668 1.514 . S
C667 O682 1.248 . S
C667 O683 1.266 . S
C668 C667 1.514 . S
C668 C669 1.359 . S
C668 C673 1.348 . S
C669 C668 1.359 . S
C669 C670 1.380 . S
C669 H692 0.929 . S
C670 C669 1.380 . S
C670 C671 1.347 . S
C670 H693 0.931 . S
C671 C670 1.347 . S
C671 C672 1.369 . S
C672 C671 1.369 . S
C672 C673 1.408 . S
C672 H694 0.930 . S
C673 C668 1.348 . S
C673 C672 1.408 . S
C673 H695 0.930 . S
C674 O684 1.281 . S
C674 O685 1.254 . S
C675 O686 1.236 . S
C675 O687 1.266 . S
O676 Tb656 2.484 . S
O676 C658 1.248 . S
O677 Tb656 2.440 . S
O677 C658 1.266 . S
O678 Tb656 2.658 . S
O678 Tb657 2.325 . S
O678 C665 1.281 . S
O679 Tb656 2.409 . S
O679 C665 1.254 . S
O680 Tb656 2.378 . S
O680 C666 1.236 . S
O681 Tb657 2.341 . S
O681 C666 1.266 . S
O682 Tb657 2.484 . S
O682 C667 1.248 . S
O683 Tb657 2.440 . S
O683 C667 1.266 . S
O684 Tb656 2.325 . S
O684 Tb657 2.658 . S
O684 C674 1.281 . S
O685 Tb657 2.409 . S
O685 C674 1.254 . S
O686 Tb657 2.378 . S
O686 C675 1.236 . S
O687 Tb656 2.341 . S
O687 C675 1.266 . S
H688 C660 0.929 . S
H689 C661 0.931 . S
H690 C663 0.930 . S
H691 C664 0.930 . S
H692 C669 0.929 . S
H693 C670 0.931 . S
H694 C672 0.930 . S
H695 C673 0.930 . S
Tb696 C698 2.809 . S
Tb696 O716 2.484 . S
Tb696 O717 2.440 . S
Tb696 O718 2.658 . S
Tb696 O719 2.409 . S
Tb696 O720 2.378 . S
Tb696 O724 2.325 . S
Tb696 O727 2.341 . S
Tb697 C707 2.809 . S
Tb697 O718 2.325 . S
Tb697 O721 2.341 . S
Tb697 O722 2.484 . S
Tb697 O723 2.440 . S
Tb697 O724 2.658 . S
Tb697 O725 2.409 . S
Tb697 O726 2.378 . S
C698 Tb696 2.809 . S
C698 C699 1.514 . S
C698 O716 1.248 . S
C698 O717 1.266 . S
C699 C698 1.514 . S
C699 C700 1.359 . S
C699 C704 1.348 . S
C700 C699 1.359 . S
C700 C701 1.380 . S
C700 H728 0.929 . S
C701 C700 1.380 . S
C701 C702 1.347 . S
C701 H729 0.931 . S
C702 C701 1.347 . S
C702 C703 1.369 . S
C703 C702 1.369 . S
C703 C704 1.408 . S
C703 H730 0.930 . S
C704 C699 1.348 . S
C704 C703 1.408 . S
C704 H731 0.930 . S
C705 O718 1.281 . S
C705 O719 1.254 . S
C706 O720 1.236 . S
C706 O721 1.266 . S
C707 Tb697 2.809 . S
C707 C708 1.514 . S
C707 O722 1.248 . S
C707 O723 1.266 . S
C708 C707 1.514 . S
C708 C709 1.359 . S
C708 C713 1.348 . S
C709 C708 1.359 . S
C709 C710 1.380 . S
C709 H732 0.929 . S
C710 C709 1.380 . S
C710 C711 1.347 . S
C710 H733 0.931 . S
C711 C710 1.347 . S
C711 C712 1.369 . S
C712 C711 1.369 . S
C712 C713 1.408 . S
C712 H734 0.930 . S
C713 C708 1.348 . S
C713 C712 1.408 . S
C713 H735 0.930 . S
C714 O724 1.281 . S
C714 O725 1.254 . S
C715 O726 1.236 . S
C715 O727 1.266 . S
O716 Tb696 2.484 . S
O716 C698 1.248 . S
O717 Tb696 2.440 . S
O717 C698 1.266 . S
O718 Tb696 2.658 . S
O718 Tb697 2.325 . S
O718 C705 1.281 . S
O719 Tb696 2.409 . S
O719 C705 1.254 . S
O720 Tb696 2.378 . S
O720 C706 1.236 . S
O721 Tb697 2.341 . S
O721 C706 1.266 . S
O722 Tb697 2.484 . S
O722 C707 1.248 . S
O723 Tb697 2.440 . S
O723 C707 1.266 . S
O724 Tb696 2.325 . S
O724 Tb697 2.658 . S
O724 C714 1.281 . S
O725 Tb697 2.409 . S
O725 C714 1.254 . S
O726 Tb697 2.378 . S
O726 C715 1.236 . S
O727 Tb696 2.341 . S
O727 C715 1.266 . S
H728 C700 0.929 . S
H729 C701 0.931 . S
H730 C703 0.930 . S
H731 C704 0.930 . S
H732 C709 0.929 . S
H733 C710 0.931 . S
H734 C712 0.930 . S
H735 C713 0.930 . S
Tb736 C738 2.809 1_455 S
Tb736 O756 2.484 1_455 S
Tb736 O757 2.440 1_455 S
Tb736 O758 2.658 . S
Tb736 O759 2.409 . S
Tb736 O760 2.378 1_455 S
Tb736 O764 2.325 . S
Tb736 O767 2.341 . S
Tb737 C747 2.809 . S
Tb737 O758 2.325 . S
Tb737 O761 2.341 . S
Tb737 O762 2.484 . S
Tb737 O763 2.440 . S
Tb737 O764 2.658 . S
Tb737 O765 2.409 . S
Tb737 O766 2.378 . S
C738 Tb736 2.809 1_655 S
C738 C739 1.514 . S
C738 O756 1.248 . S
C738 O757 1.266 . S
C739 C738 1.514 . S
C739 C740 1.359 . S
C739 C744 1.348 . S
C740 C739 1.359 . S
C740 C741 1.380 . S
C740 H768 0.929 . S
C741 C740 1.380 . S
C741 C742 1.347 . S
C741 H769 0.931 . S
C742 C741 1.347 . S
C742 C743 1.369 . S
C743 C742 1.369 . S
C743 C744 1.408 . S
C743 H770 0.930 . S
C744 C739 1.348 . S
C744 C743 1.408 . S
C744 H771 0.930 . S
C745 O758 1.281 . S
C745 O759 1.254 . S
C746 O760 1.236 1_455 S
C746 O761 1.266 . S
C747 Tb737 2.809 . S
C747 C748 1.514 . S
C747 O762 1.248 . S
C747 O763 1.266 . S
C748 C747 1.514 . S
C748 C749 1.359 . S
C748 C753 1.348 . S
C749 C748 1.359 . S
C749 C750 1.380 . S
C749 H772 0.929 . S
C750 C749 1.380 . S
C750 C751 1.347 . S
C750 H773 0.931 . S
C751 C750 1.347 . S
C751 C752 1.369 . S
C752 C751 1.369 . S
C752 C753 1.408 . S
C752 H774 0.930 . S
C753 C748 1.348 . S
C753 C752 1.408 . S
C753 H775 0.930 . S
C754 O764 1.281 . S
C754 O765 1.254 . S
C755 O766 1.236 . S
C755 O767 1.266 . S
O756 Tb736 2.484 1_655 S
O756 C738 1.248 . S
O757 Tb736 2.440 1_655 S
O757 C738 1.266 . S
O758 Tb736 2.658 . S
O758 Tb737 2.325 . S
O758 C745 1.281 . S
O759 Tb736 2.409 . S
O759 C745 1.254 . S
O760 Tb736 2.378 1_655 S
O760 C746 1.236 1_655 S
O761 Tb737 2.341 . S
O761 C746 1.266 . S
O762 Tb737 2.484 . S
O762 C747 1.248 . S
O763 Tb737 2.440 . S
O763 C747 1.266 . S
O764 Tb736 2.325 . S
O764 Tb737 2.658 . S
O764 C754 1.281 . S
O765 Tb737 2.409 . S
O765 C754 1.254 . S
O766 Tb737 2.378 . S
O766 C755 1.236 . S
O767 Tb736 2.341 . S
O767 C755 1.266 . S
H768 C740 0.929 . S
H769 C741 0.931 . S
H770 C743 0.930 . S
H771 C744 0.930 . S
H772 C749 0.929 . S
H773 C750 0.931 . S
H774 C752 0.930 . S
H775 C753 0.930 . S
Tb776 C778 2.809 . S
Tb776 O796 2.484 . S
Tb776 O797 2.440 . S
Tb776 O798 2.658 . S
Tb776 O799 2.409 . S
Tb776 O800 2.378 . S
Tb776 O804 2.325 . S
Tb776 O807 2.341 . S
Tb777 C787 2.809 . S
Tb777 O798 2.325 . S
Tb777 O801 2.341 . S
Tb777 O802 2.484 . S
Tb777 O803 2.440 . S
Tb777 O804 2.658 . S
Tb777 O805 2.409 . S
Tb777 O806 2.378 . S
C778 Tb776 2.809 . S
C778 C779 1.514 . S
C778 O796 1.248 . S
C778 O797 1.266 . S
C779 C778 1.514 . S
C779 C780 1.359 . S
C779 C784 1.348 . S
C780 C779 1.359 . S
C780 C781 1.380 . S
C780 H808 0.929 . S
C781 C780 1.380 . S
C781 C782 1.347 . S
C781 H809 0.931 . S
C782 C781 1.347 . S
C782 C783 1.369 . S
C783 C782 1.369 . S
C783 C784 1.408 . S
C783 H810 0.930 . S
C784 C779 1.348 . S
C784 C783 1.408 . S
C784 H811 0.930 . S
C785 O798 1.281 . S
C785 O799 1.254 . S
C786 O800 1.236 . S
C786 O801 1.266 . S
C787 Tb777 2.809 . S
C787 C788 1.514 . S
C787 O802 1.248 . S
C787 O803 1.266 . S
C788 C787 1.514 . S
C788 C789 1.359 . S
C788 C793 1.348 . S
C789 C788 1.359 . S
C789 C790 1.380 . S
C789 H812 0.929 . S
C790 C789 1.380 . S
C790 C791 1.347 . S
C790 H813 0.931 . S
C791 C790 1.347 . S
C791 C792 1.369 . S
C792 C791 1.369 . S
C792 C793 1.408 . S
C792 H814 0.930 . S
C793 C788 1.348 . S
C793 C792 1.408 . S
C793 H815 0.930 . S
C794 O804 1.281 . S
C794 O805 1.254 . S
C795 O806 1.236 . S
C795 O807 1.266 . S
O796 Tb776 2.484 . S
O796 C778 1.248 . S
O797 Tb776 2.440 . S
O797 C778 1.266 . S
O798 Tb776 2.658 . S
O798 Tb777 2.325 . S
O798 C785 1.281 . S
O799 Tb776 2.409 . S
O799 C785 1.254 . S
O800 Tb776 2.378 . S
O800 C786 1.236 . S
O801 Tb777 2.341 . S
O801 C786 1.266 . S
O802 Tb777 2.484 . S
O802 C787 1.248 . S
O803 Tb777 2.440 . S
O803 C787 1.266 . S
O804 Tb776 2.325 . S
O804 Tb777 2.658 . S
O804 C794 1.281 . S
O805 Tb777 2.409 . S
O805 C794 1.254 . S
O806 Tb777 2.378 . S
O806 C795 1.236 . S
O807 Tb776 2.341 . S
O807 C795 1.266 . S
H808 C780 0.929 . S
H809 C781 0.931 . S
H810 C783 0.930 . S
H811 C784 0.930 . S
H812 C789 0.929 . S
H813 C790 0.931 . S
H814 C792 0.930 . S
H815 C793 0.930 . S
Tb816 C818 2.809 . S
Tb816 O836 2.484 . S
Tb816 O837 2.440 . S
Tb816 O838 2.658 . S
Tb816 O839 2.409 . S
Tb816 O840 2.378 . S
Tb816 O844 2.325 . S
Tb816 O847 2.341 . S
Tb817 C827 2.809 . S
Tb817 O838 2.325 . S
Tb817 O841 2.341 . S
Tb817 O842 2.484 . S
Tb817 O843 2.440 . S
Tb817 O844 2.658 . S
Tb817 O845 2.409 . S
Tb817 O846 2.378 . S
C818 Tb816 2.809 . S
C818 C819 1.514 . S
C818 O836 1.248 . S
C818 O837 1.266 . S
C819 C818 1.514 . S
C819 C820 1.359 . S
C819 C824 1.348 . S
C820 C819 1.359 . S
C820 C821 1.380 . S
C820 H848 0.929 . S
C821 C820 1.380 . S
C821 C822 1.347 . S
C821 H849 0.931 . S
C822 C821 1.347 . S
C822 C823 1.369 . S
C823 C822 1.369 . S
C823 C824 1.408 . S
C823 H850 0.930 . S
C824 C819 1.348 . S
C824 C823 1.408 . S
C824 H851 0.930 . S
C825 O838 1.281 . S
C825 O839 1.254 . S
C826 O840 1.236 . S
C826 O841 1.266 . S
C827 Tb817 2.809 . S
C827 C828 1.514 . S
C827 O842 1.248 . S
C827 O843 1.266 . S
C828 C827 1.514 . S
C828 C829 1.359 . S
C828 C833 1.348 . S
C829 C828 1.359 . S
C829 C830 1.380 1_556 S
C829 H852 0.929 . S
C830 C829 1.380 1_554 S
C830 C831 1.347 . S
C830 H853 0.931 . S
C831 C830 1.347 . S
C831 C832 1.369 . S
C832 C831 1.369 . S
C832 C833 1.408 1_554 S
C832 H854 0.930 . S
C833 C828 1.348 . S
C833 C832 1.408 1_556 S
C833 H855 0.930 . S
C834 O844 1.281 . S
C834 O845 1.254 . S
C835 O846 1.236 . S
C835 O847 1.266 . S
O836 Tb816 2.484 . S
O836 C818 1.248 . S
O837 Tb816 2.440 . S
O837 C818 1.266 . S
O838 Tb816 2.658 . S
O838 Tb817 2.325 . S
O838 C825 1.281 . S
O839 Tb816 2.409 . S
O839 C825 1.254 . S
O840 Tb816 2.378 . S
O840 C826 1.236 . S
O841 Tb817 2.341 . S
O841 C826 1.266 . S
O842 Tb817 2.484 . S
O842 C827 1.248 . S
O843 Tb817 2.440 . S
O843 C827 1.266 . S
O844 Tb816 2.325 . S
O844 Tb817 2.658 . S
O844 C834 1.281 . S
O845 Tb817 2.409 . S
O845 C834 1.254 . S
O846 Tb817 2.378 . S
O846 C835 1.236 . S
O847 Tb816 2.341 . S
O847 C835 1.266 . S
H848 C820 0.929 . S
H849 C821 0.931 . S
H850 C823 0.930 . S
H851 C824 0.930 . S
H852 C829 0.929 . S
H853 C830 0.931 . S
H854 C832 0.930 . S
H855 C833 0.930 . S
Tb856 C858 2.809 . S
Tb856 O876 2.484 . S
Tb856 O877 2.440 . S
Tb856 O878 2.658 . S
Tb856 O879 2.409 . S
Tb856 O880 2.378 . S
Tb856 O884 2.325 . S
Tb856 O887 2.341 . S
Tb857 C867 2.809 . S
Tb857 O878 2.325 . S
Tb857 O881 2.341 . S
Tb857 O882 2.484 . S
Tb857 O883 2.440 . S
Tb857 O884 2.658 . S
Tb857 O885 2.409 . S
Tb857 O886 2.378 . S
C858 Tb856 2.809 . S
C858 C859 1.514 . S
C858 O876 1.248 . S
C858 O877 1.266 . S
C859 C858 1.514 . S
C859 C860 1.359 . S
C859 C864 1.348 . S
C860 C859 1.359 . S
C860 C861 1.380 . S
C860 H888 0.929 . S
C861 C860 1.380 . S
C861 C862 1.347 . S
C861 H889 0.931 . S
C862 C861 1.347 . S
C862 C863 1.369 . S
C863 C862 1.369 . S
C863 C864 1.408 . S
C863 H890 0.930 . S
C864 C859 1.348 . S
C864 C863 1.408 . S
C864 H891 0.930 . S
C865 O878 1.281 . S
C865 O879 1.254 . S
C866 O880 1.236 . S
C866 O881 1.266 . S
C867 Tb857 2.809 . S
C867 C868 1.514 . S
C867 O882 1.248 . S
C867 O883 1.266 . S
C868 C867 1.514 . S
C868 C869 1.359 . S
C868 C873 1.348 . S
C869 C868 1.359 . S
C869 C870 1.380 . S
C869 H892 0.929 . S
C870 C869 1.380 . S
C870 C871 1.347 . S
C870 H893 0.931 . S
C871 C870 1.347 . S
C871 C872 1.369 . S
C872 C871 1.369 . S
C872 C873 1.408 . S
C872 H894 0.930 . S
C873 C868 1.348 . S
C873 C872 1.408 . S
C873 H895 0.930 . S
C874 O884 1.281 . S
C874 O885 1.254 . S
C875 O886 1.236 . S
C875 O887 1.266 . S
O876 Tb856 2.484 . S
O876 C858 1.248 . S
O877 Tb856 2.440 . S
O877 C858 1.266 . S
O878 Tb856 2.658 . S
O878 Tb857 2.325 . S
O878 C865 1.281 . S
O879 Tb856 2.409 . S
O879 C865 1.254 . S
O880 Tb856 2.378 . S
O880 C866 1.236 . S
O881 Tb857 2.341 . S
O881 C866 1.266 . S
O882 Tb857 2.484 . S
O882 C867 1.248 . S
O883 Tb857 2.440 . S
O883 C867 1.266 . S
O884 Tb856 2.325 . S
O884 Tb857 2.658 . S
O884 C874 1.281 . S
O885 Tb857 2.409 . S
O885 C874 1.254 . S
O886 Tb857 2.378 . S
O886 C875 1.236 . S
O887 Tb856 2.341 . S
O887 C875 1.266 . S
H888 C860 0.929 . S
H889 C861 0.931 . S
H890 C863 0.930 . S
H891 C864 0.930 . S
H892 C869 0.929 . S
H893 C870 0.931 . S
H894 C872 0.930 . S
H895 C873 0.930 . S
Tb896 C898 2.809 . S
Tb896 O916 2.484 . S
Tb896 O917 2.440 . S
Tb896 O918 2.658 . S
Tb896 O919 2.409 . S
Tb896 O920 2.378 . S
Tb896 O924 2.325 . S
Tb896 O927 2.341 . S
Tb897 C907 2.809 . S
Tb897 O918 2.325 . S
Tb897 O921 2.341 . S
Tb897 O922 2.484 . S
Tb897 O923 2.440 . S
Tb897 O924 2.658 . S
Tb897 O925 2.409 . S
Tb897 O926 2.378 . S
C898 Tb896 2.809 . S
C898 C899 1.514 . S
C898 O916 1.248 . S
C898 O917 1.266 . S
C899 C898 1.514 . S
C899 C900 1.359 . S
C899 C904 1.348 . S
C900 C899 1.359 . S
C900 C901 1.380 . S
C900 H928 0.929 . S
C901 C900 1.380 . S
C901 C902 1.347 . S
C901 H929 0.931 . S
C902 C901 1.347 . S
C902 C903 1.369 . S
C903 C902 1.369 . S
C903 C904 1.408 . S
C903 H930 0.930 . S
C904 C899 1.348 . S
C904 C903 1.408 . S
C904 H931 0.930 . S
C905 O918 1.281 . S
C905 O919 1.254 . S
C906 O920 1.236 . S
C906 O921 1.266 . S
C907 Tb897 2.809 . S
C907 C908 1.514 . S
C907 O922 1.248 . S
C907 O923 1.266 . S
C908 C907 1.514 . S
C908 C909 1.359 . S
C908 C913 1.348 . S
C909 C908 1.359 . S
C909 C910 1.380 . S
C909 H932 0.929 . S
C910 C909 1.380 . S
C910 C911 1.347 . S
C910 H933 0.931 . S
C911 C910 1.347 . S
C911 C912 1.369 . S
C912 C911 1.369 . S
C912 C913 1.408 . S
C912 H934 0.930 . S
C913 C908 1.348 . S
C913 C912 1.408 . S
C913 H935 0.930 . S
C914 O924 1.281 . S
C914 O925 1.254 . S
C915 O926 1.236 . S
C915 O927 1.266 . S
O916 Tb896 2.484 . S
O916 C898 1.248 . S
O917 Tb896 2.440 . S
O917 C898 1.266 . S
O918 Tb896 2.658 . S
O918 Tb897 2.325 . S
O918 C905 1.281 . S
O919 Tb896 2.409 . S
O919 C905 1.254 . S
O920 Tb896 2.378 . S
O920 C906 1.236 . S
O921 Tb897 2.341 . S
O921 C906 1.266 . S
O922 Tb897 2.484 . S
O922 C907 1.248 . S
O923 Tb897 2.440 . S
O923 C907 1.266 . S
O924 Tb896 2.325 . S
O924 Tb897 2.658 . S
O924 C914 1.281 . S
O925 Tb897 2.409 . S
O925 C914 1.254 . S
O926 Tb897 2.378 . S
O926 C915 1.236 . S
O927 Tb896 2.341 . S
O927 C915 1.266 . S
H928 C900 0.929 . S
H929 C901 0.931 . S
H930 C903 0.930 . S
H931 C904 0.930 . S
H932 C909 0.929 . S
H933 C910 0.931 . S
H934 C912 0.930 . S
H935 C913 0.930 . S
Tb936 C938 2.809 . S
Tb936 O956 2.484 . S
Tb936 O957 2.440 . S
Tb936 O958 2.658 . S
Tb936 O959 2.409 . S
Tb936 O960 2.378 . S
Tb936 O964 2.325 . S
Tb936 O967 2.341 . S
Tb937 C947 2.809 1_455 S
Tb937 O958 2.325 . S
Tb937 O961 2.341 . S
Tb937 O962 2.484 1_455 S
Tb937 O963 2.440 1_455 S
Tb937 O964 2.658 . S
Tb937 O965 2.409 . S
Tb937 O966 2.378 . S
C938 Tb936 2.809 . S
C938 C939 1.514 . S
C938 O956 1.248 . S
C938 O957 1.266 . S
C939 C938 1.514 . S
C939 C940 1.359 . S
C939 C944 1.348 . S
C940 C939 1.359 . S
C940 C941 1.380 . S
C940 H968 0.929 . S
C941 C940 1.380 . S
C941 C942 1.347 . S
C941 H969 0.931 . S
C942 C941 1.347 . S
C942 C943 1.369 . S
C943 C942 1.369 . S
C943 C944 1.408 . S
C943 H970 0.930 . S
C944 C939 1.348 . S
C944 C943 1.408 . S
C944 H971 0.930 . S
C945 O958 1.281 . S
C945 O959 1.254 . S
C946 O960 1.236 . S
C946 O961 1.266 . S
C947 Tb937 2.809 1_655 S
C947 C948 1.514 . S
C947 O962 1.248 . S
C947 O963 1.266 . S
C948 C947 1.514 . S
C948 C949 1.359 . S
C948 C953 1.348 . S
C949 C948 1.359 . S
C949 C950 1.380 . S
C949 H972 0.929 . S
C950 C949 1.380 . S
C950 C951 1.347 . S
C950 H973 0.931 . S
C951 C950 1.347 . S
C951 C952 1.369 . S
C952 C951 1.369 . S
C952 C953 1.408 . S
C952 H974 0.930 . S
C953 C948 1.348 . S
C953 C952 1.408 . S
C953 H975 0.930 . S
C954 O964 1.281 . S
C954 O965 1.254 . S
C955 O966 1.236 . S
C955 O967 1.266 . S
O956 Tb936 2.484 . S
O956 C938 1.248 . S
O957 Tb936 2.440 . S
O957 C938 1.266 . S
O958 Tb936 2.658 . S
O958 Tb937 2.325 . S
O958 C945 1.281 . S
O959 Tb936 2.409 . S
O959 C945 1.254 . S
O960 Tb936 2.378 . S
O960 C946 1.236 . S
O961 Tb937 2.341 . S
O961 C946 1.266 . S
O962 Tb937 2.484 1_655 S
O962 C947 1.248 . S
O963 Tb937 2.440 1_655 S
O963 C947 1.266 . S
O964 Tb936 2.325 . S
O964 Tb937 2.658 . S
O964 C954 1.281 . S
O965 Tb937 2.409 . S
O965 C954 1.254 . S
O966 Tb937 2.378 . S
O966 C955 1.236 . S
O967 Tb936 2.341 . S
O967 C955 1.266 . S
H968 C940 0.929 . S
H969 C941 0.931 . S
H970 C943 0.930 . S
H971 C944 0.930 . S
H972 C949 0.929 . S
H973 C950 0.931 . S
H974 C952 0.930 . S
H975 C953 0.930 . S
C976 C977 1.363 . S
C976 C982 1.379 . S
C976 N984 1.356 1_455 S
C977 C976 1.363 . S
C977 C983 1.363 . S
C978 C979 1.363 . S
C978 C983 1.379 . S
C978 N985 1.356 . S
C979 C978 1.363 . S
C979 C982 1.363 . S
N980 C982 1.356 . S
N980 H992 0.984 1_455 S
N980 H993 0.985 . S
N981 C983 1.356 . S
N981 H986 0.984 . S
N981 H987 0.985 . S
C982 C976 1.379 . S
C982 C979 1.363 . S
C982 N980 1.356 . S
C983 C977 1.363 . S
C983 C978 1.379 . S
C983 N981 1.356 . S
N984 C976 1.356 1_655 S
N984 H990 0.984 1_554 S
N984 H991 0.984 1_554 S
N985 C978 1.356 . S
N985 H988 0.984 . S
N985 H989 0.985 . S
H986 N981 0.984 . S
H987 N981 0.985 . S
H988 N985 0.984 . S
H989 N985 0.985 . S
H990 N984 0.984 1_556 S
H991 N984 0.984 1_556 S
H992 N980 0.984 1_655 S
H993 N980 0.985 . S
C994 C995 1.363 . S
C994 C1000 1.379 . S
C994 N1002 1.356 . S
C995 C994 1.363 . S
C995 C1001 1.363 . S
C996 C997 1.363 . S
C996 C1001 1.379 . S
C996 N1003 1.356 . S
C997 C996 1.363 . S
C997 C1000 1.363 . S
N998 C1000 1.356 . S
N998 H1010 0.984 . S
N998 H1011 0.985 . S
N999 C1001 1.356 . S
N999 H1004 0.984 . S
N999 H1005 0.985 . S
C1000 C994 1.379 . S
C1000 C997 1.363 . S
C1000 N998 1.356 . S
C1001 C995 1.363 . S
C1001 C996 1.379 . S
C1001 N999 1.356 . S
N1002 C994 1.356 . S
N1002 H1008 0.984 . S
N1002 H1009 0.984 . S
N1003 C996 1.356 . S
N1003 H1006 0.984 . S
N1003 H1007 0.985 . S
H1004 N999 0.984 . S
H1005 N999 0.985 . S
H1006 N1003 0.984 . S
H1007 N1003 0.985 . S
H1008 N1002 0.984 . S
H1009 N1002 0.984 . S
H1010 N998 0.984 . S
H1011 N998 0.985 . S
C1012 C1013 1.363 . S
C1012 C1018 1.379 . S
C1012 N1020 1.356 . S
C1013 C1012 1.363 . S
C1013 C1019 1.363 . S
C1014 C1015 1.363 . S
C1014 C1019 1.379 . S
C1014 N1021 1.356 . S
C1015 C1014 1.363 . S
C1015 C1018 1.363 . S
N1016 C1018 1.356 . S
N1016 H1028 0.984 . S
N1016 H1029 0.985 . S
N1017 C1019 1.356 . S
N1017 H1022 0.984 . S
N1017 H1023 0.985 . S
C1018 C1012 1.379 . S
C1018 C1015 1.363 . S
C1018 N1016 1.356 . S
C1019 C1013 1.363 . S
C1019 C1014 1.379 . S
C1019 N1017 1.356 . S
N1020 C1012 1.356 . S
N1020 H1026 0.984 . S
N1020 H1027 0.984 . S
N1021 C1014 1.356 . S
N1021 H1024 0.984 . S
N1021 H1025 0.985 . S
H1022 N1017 0.984 . S
H1023 N1017 0.985 . S
H1024 N1021 0.984 . S
H1025 N1021 0.985 . S
H1026 N1020 0.984 . S
H1027 N1020 0.984 . S
H1028 N1016 0.984 . S
H1029 N1016 0.985 . S
C1030 C1031 1.363 . S
C1030 C1036 1.379 . S
C1030 N1038 1.356 . S
C1031 C1030 1.363 . S
C1031 C1037 1.363 . S
C1032 C1033 1.363 . S
C1032 C1037 1.379 . S
C1032 N1039 1.356 . S
C1033 C1032 1.363 . S
C1033 C1036 1.363 . S
N1034 C1036 1.356 . S
N1034 H1046 0.984 . S
N1034 H1047 0.985 . S
N1035 C1037 1.356 . S
N1035 H1040 0.984 . S
N1035 H1041 0.985 . S
C1036 C1030 1.379 . S
C1036 C1033 1.363 . S
C1036 N1034 1.356 . S
C1037 C1031 1.363 . S
C1037 C1032 1.379 . S
C1037 N1035 1.356 . S
N1038 C1030 1.356 . S
N1038 H1044 0.984 . S
N1038 H1045 0.984 . S
N1039 C1032 1.356 . S
N1039 H1042 0.984 . S
N1039 H1043 0.985 . S
H1040 N1035 0.984 . S
H1041 N1035 0.985 . S
H1042 N1039 0.984 . S
H1043 N1039 0.985 . S
H1044 N1038 0.984 . S
H1045 N1038 0.984 . S
H1046 N1034 0.984 . S
H1047 N1034 0.985 . S
C1048 C1049 1.363 . S
C1048 C1054 1.379 . S
C1048 N1056 1.356 . S
C1049 C1048 1.363 . S
C1049 C1055 1.363 . S
C1050 C1051 1.363 . S
C1050 C1055 1.379 . S
C1050 N1057 1.356 . S
C1051 C1050 1.363 . S
C1051 C1054 1.363 . S
N1052 C1054 1.356 . S
N1052 H1064 0.984 . S
N1052 H1065 0.985 . S
N1053 C1055 1.356 . S
N1053 H1058 0.984 . S
N1053 H1059 0.985 . S
C1054 C1048 1.379 . S
C1054 C1051 1.363 . S
C1054 N1052 1.356 . S
C1055 C1049 1.363 . S
C1055 C1050 1.379 . S
C1055 N1053 1.356 . S
N1056 C1048 1.356 . S
N1056 H1062 0.984 . S
N1056 H1063 0.984 . S
N1057 C1050 1.356 . S
N1057 H1060 0.984 . S
N1057 H1061 0.985 . S
H1058 N1053 0.984 . S
H1059 N1053 0.985 . S
H1060 N1057 0.984 . S
H1061 N1057 0.985 . S
H1062 N1056 0.984 . S
H1063 N1056 0.984 . S
H1064 N1052 0.984 . S
H1065 N1052 0.985 . S
C1066 C1067 1.363 . S
C1066 C1072 1.379 . S
C1066 N1074 1.356 . S
C1067 C1066 1.363 . S
C1067 C1073 1.363 . S
C1068 C1069 1.363 . S
C1068 C1073 1.379 . S
C1068 N1075 1.356 . S
C1069 C1068 1.363 . S
C1069 C1072 1.363 . S
N1070 C1072 1.356 . S
N1070 H1082 0.984 . S
N1070 H1083 0.985 . S
N1071 C1073 1.356 . S
N1071 H1076 0.984 . S
N1071 H1077 0.985 . S
C1072 C1066 1.379 . S
C1072 C1069 1.363 . S
C1072 N1070 1.356 . S
C1073 C1067 1.363 . S
C1073 C1068 1.379 . S
C1073 N1071 1.356 . S
N1074 C1066 1.356 . S
N1074 H1080 0.984 . S
N1074 H1081 0.984 . S
N1075 C1068 1.356 . S
N1075 H1078 0.984 . S
N1075 H1079 0.985 . S
H1076 N1071 0.984 . S
H1077 N1071 0.985 . S
H1078 N1075 0.984 . S
H1079 N1075 0.985 . S
H1080 N1074 0.984 . S
H1081 N1074 0.984 . S
H1082 N1070 0.984 . S
H1083 N1070 0.985 . S
C1084 C1085 1.363 . S
C1084 C1090 1.379 . S
C1084 N1092 1.356 . S
C1085 C1084 1.363 . S
C1085 C1091 1.363 . S
C1086 C1087 1.363 . S
C1086 C1091 1.379 . S
C1086 N1093 1.356 . S
C1087 C1086 1.363 . S
C1087 C1090 1.363 . S
N1088 C1090 1.356 . S
N1088 H1100 0.984 . S
N1088 H1101 0.985 . S
N1089 C1091 1.356 . S
N1089 H1094 0.984 . S
N1089 H1095 0.985 . S
C1090 C1084 1.379 . S
C1090 C1087 1.363 . S
C1090 N1088 1.356 . S
C1091 C1085 1.363 . S
C1091 C1086 1.379 . S
C1091 N1089 1.356 . S
N1092 C1084 1.356 . S
N1092 H1098 0.984 . S
N1092 H1099 0.984 . S
N1093 C1086 1.356 . S
N1093 H1096 0.984 . S
N1093 H1097 0.985 . S
H1094 N1089 0.984 . S
H1095 N1089 0.985 . S
H1096 N1093 0.984 . S
H1097 N1093 0.985 . S
H1098 N1092 0.984 . S
H1099 N1092 0.984 . S
H1100 N1088 0.984 . S
H1101 N1088 0.985 . S
C1102 C1103 1.363 . S
C1102 C1108 1.379 . S
C1102 N1110 1.356 . S
C1103 C1102 1.363 . S
C1103 C1109 1.363 . S
C1104 C1105 1.363 . S
C1104 C1109 1.379 . S
C1104 N1111 1.356 . S
C1105 C1104 1.363 . S
C1105 C1108 1.363 . S
N1106 C1108 1.356 . S
N1106 H1118 0.984 . S
N1106 H1119 0.985 . S
N1107 C1109 1.356 . S
N1107 H1112 0.984 . S
N1107 H1113 0.985 . S
C1108 C1102 1.379 . S
C1108 C1105 1.363 . S
C1108 N1106 1.356 . S
C1109 C1103 1.363 . S
C1109 C1104 1.379 . S
C1109 N1107 1.356 . S
N1110 C1102 1.356 . S
N1110 H1116 0.984 . S
N1110 H1117 0.984 . S
N1111 C1104 1.356 . S
N1111 H1114 0.984 . S
N1111 H1115 0.985 . S
H1112 N1107 0.984 . S
H1113 N1107 0.985 . S
H1114 N1111 0.984 . S
H1115 N1111 0.985 . S
H1116 N1110 0.984 . S
H1117 N1110 0.984 . S
H1118 N1106 0.984 . S
H1119 N1106 0.985 . S
C1120 C1121 1.363 . S
C1120 C1126 1.379 . S
C1120 N1128 1.356 . S
C1121 C1120 1.363 . S
C1121 C1127 1.361 . S
C1122 C1123 1.363 . S
C1122 C1127 1.380 1_455 S
C1122 N1129 1.356 . S
C1123 C1122 1.363 . S
C1123 C1126 1.363 1_455 S
N1124 C1126 1.356 . S
N1124 H1136 0.984 . S
N1124 H1137 0.985 1_655 S
N1125 C1127 1.356 1_565 S
N1125 H1130 0.984 . S
N1125 H1131 0.985 1_655 S
C1126 C1120 1.379 . S
C1126 C1123 1.363 1_655 S
C1126 N1124 1.356 . S
C1127 C1121 1.361 . S
C1127 C1122 1.380 1_655 S
C1127 N1125 1.356 1_545 S
N1128 C1120 1.356 . S
N1128 H1134 0.984 . S
N1128 H1135 0.984 . S
N1129 C1122 1.356 . S
N1129 H1132 0.984 . S
N1129 H1133 1.006 . S
H1130 N1125 0.984 . S
H1131 N1125 0.985 1_455 S
H1132 N1129 0.984 . S
H1133 N1129 1.006 . S
H1134 N1128 0.984 . S
H1135 N1128 0.984 . S
H1136 N1124 0.984 . S
H1137 N1124 0.985 1_455 S
C1138 C1139 1.363 . S
C1138 C1144 1.379 . S
C1138 N1146 1.356 . S
C1139 C1138 1.363 . S
C1139 C1145 1.363 . S
C1140 C1141 1.363 . S
C1140 C1145 1.379 . S
C1140 N1147 1.356 . S
C1141 C1140 1.363 . S
C1141 C1144 1.363 . S
N1142 C1144 1.356 . S
N1142 H1154 0.984 . S
N1142 H1155 0.985 . S
N1143 C1145 1.356 . S
N1143 H1148 0.984 . S
N1143 H1149 0.985 . S
C1144 C1138 1.379 . S
C1144 C1141 1.363 . S
C1144 N1142 1.356 . S
C1145 C1139 1.363 . S
C1145 C1140 1.379 . S
C1145 N1143 1.356 . S
N1146 C1138 1.356 . S
N1146 H1152 0.984 . S
N1146 H1153 0.984 . S
N1147 C1140 1.356 . S
N1147 H1150 0.984 . S
N1147 H1151 0.985 . S
H1148 N1143 0.984 . S
H1149 N1143 0.985 . S
H1150 N1147 0.984 . S
H1151 N1147 0.985 . S
H1152 N1146 0.984 . S
H1153 N1146 0.984 . S
H1154 N1142 0.984 . S
H1155 N1142 0.985 . S
C1156 C1157 1.363 . S
C1156 C1162 1.379 . S
C1156 N1164 1.356 . S
C1157 C1156 1.363 . S
C1157 C1163 1.363 . S
C1158 C1159 1.363 . S
C1158 C1163 1.379 . S
C1158 N1165 1.356 . S
C1159 C1158 1.363 . S
C1159 C1162 1.363 . S
N1160 C1162 1.356 . S
N1160 H1172 0.984 . S
N1160 H1173 0.985 . S
N1161 C1163 1.356 . S
N1161 H1166 0.984 . S
N1161 H1167 0.985 . S
C1162 C1156 1.379 . S
C1162 C1159 1.363 . S
C1162 N1160 1.356 . S
C1163 C1157 1.363 . S
C1163 C1158 1.379 . S
C1163 N1161 1.356 . S
N1164 C1156 1.356 . S
N1164 H1170 0.984 . S
N1164 H1171 0.984 . S
N1165 C1158 1.356 . S
N1165 H1168 0.984 . S
N1165 H1169 0.985 . S
H1166 N1161 0.984 . S
H1167 N1161 0.985 . S
H1168 N1165 0.984 . S
H1169 N1165 0.985 . S
H1170 N1164 0.984 . S
H1171 N1164 0.984 . S
H1172 N1160 0.984 . S
H1173 N1160 0.985 . S
C1174 C1175 1.363 . S
C1174 C1180 1.379 . S
C1174 N1182 1.356 1_556 S
C1175 C1174 1.363 . S
C1175 C1181 1.363 . S
C1176 C1177 1.363 . S
C1176 C1181 1.379 . S
C1176 N1183 1.356 . S
C1177 C1176 1.363 . S
C1177 C1180 1.363 . S
N1178 C1180 1.356 . S
N1178 H1190 0.984 . S
N1178 H1191 0.985 . S
N1179 C1181 1.356 . S
N1179 H1184 0.984 1_556 S
N1179 H1185 0.985 . S
C1180 C1174 1.379 . S
C1180 C1177 1.363 . S
C1180 N1178 1.356 . S
C1181 C1175 1.363 . S
C1181 C1176 1.379 . S
C1181 N1179 1.356 . S
N1182 C1174 1.356 1_554 S
N1182 H1188 0.984 . S
N1182 H1189 0.984 . S
N1183 C1176 1.356 . S
N1183 H1186 0.984 . S
N1183 H1187 0.985 . S
H1184 N1179 0.984 1_554 S
H1185 N1179 0.985 . S
H1186 N1183 0.984 . S
H1187 N1183 0.985 . S
H1188 N1182 0.984 . S
H1189 N1182 0.984 . S
H1190 N1178 0.984 . S
H1191 N1178 0.985 . S
C1192 C1193 1.363 1_455 S
C1192 C1198 1.379 . S
C1192 N1200 1.356 1_455 S
C1193 C1192 1.363 1_655 S
C1193 C1199 1.363 1_545 S
C1194 C1195 1.372 . S
C1194 C1199 1.369 1_445 S
C1194 N1201 1.360 1_545 S
C1195 C1194 1.372 . S
C1195 C1198 1.363 . S
N1196 C1198 1.356 . S
N1196 H1208 0.984 . S
N1196 H1209 0.985 . S
N1197 C1199 1.356 . S
N1197 H1202 0.984 . S
N1197 H1203 0.985 . S
C1198 C1192 1.379 . S
C1198 C1195 1.363 . S
C1198 N1196 1.356 . S
C1199 C1193 1.363 1_565 S
C1199 C1194 1.369 1_665 S
C1199 N1197 1.356 . S
N1200 C1192 1.356 1_655 S
N1200 H1206 0.984 1_655 S
N1200 H1207 0.984 . S
N1201 C1194 1.360 1_565 S
N1201 H1204 0.984 1_565 S
N1201 H1205 0.985 1_455 S
H1202 N1197 0.984 . S
H1203 N1197 0.985 . S
H1204 N1201 0.984 1_545 S
H1205 N1201 0.985 1_655 S
H1206 N1200 0.984 1_455 S
H1207 N1200 0.984 . S
H1208 N1196 0.984 . S
H1209 N1196 0.985 . S
C1210 C1211 1.363 . S
C1210 C1216 1.379 . S
C1210 N1218 1.356 . S
C1211 C1210 1.363 . S
C1211 C1217 1.363 . S
C1212 C1213 1.363 . S
C1212 C1217 1.379 . S
C1212 N1219 1.356 . S
C1213 C1212 1.363 . S
C1213 C1216 1.363 . S
N1214 C1216 1.356 . S
N1214 H1226 0.984 . S
N1214 H1227 0.985 . S
N1215 C1217 1.356 . S
N1215 H1220 0.984 . S
N1215 H1221 0.985 . S
C1216 C1210 1.379 . S
C1216 C1213 1.363 . S
C1216 N1214 1.356 . S
C1217 C1211 1.363 . S
C1217 C1212 1.379 . S
C1217 N1215 1.356 . S
N1218 C1210 1.356 . S
N1218 H1224 0.984 . S
N1218 H1225 0.984 . S
N1219 C1212 1.356 . S
N1219 H1222 0.984 . S
N1219 H1223 0.985 . S
H1220 N1215 0.984 . S
H1221 N1215 0.985 . S
H1222 N1219 0.984 . S
H1223 N1219 0.985 . S
H1224 N1218 0.984 . S
H1225 N1218 0.984 . S
H1226 N1214 0.984 . S
H1227 N1214 0.985 . S
C1228 C1229 1.363 . S
C1228 C1234 1.379 1_556 S
C1228 N1236 1.356 . S
C1229 C1228 1.363 . S
C1229 C1235 1.363 1_556 S
C1230 C1231 1.363 . S
C1230 C1235 1.379 . S
C1230 N1237 1.356 . S
C1231 C1230 1.363 . S
C1231 C1234 1.363 . S
N1232 C1234 1.356 . S
N1232 H1244 0.984 1_544 S
N1232 H1245 0.985 . S
N1233 C1235 1.356 . S
N1233 H1238 0.984 1_554 S
N1233 H1239 0.985 . S
C1234 C1228 1.379 1_554 S
C1234 C1231 1.363 . S
C1234 N1232 1.356 . S
C1235 C1229 1.363 1_554 S
C1235 C1230 1.379 . S
C1235 N1233 1.356 . S
N1236 C1228 1.356 . S
N1236 H1242 0.984 1_545 S
N1236 H1243 0.984 . S
N1237 C1230 1.356 . S
N1237 H1240 0.984 . S
N1237 H1241 0.985 . S
H1238 N1233 0.984 1_556 S
H1239 N1233 0.985 . S
H1240 N1237 0.984 . S
H1241 N1237 0.985 . S
H1242 N1236 0.984 1_565 S
H1243 N1236 0.984 . S
H1244 N1232 0.984 1_566 S
H1245 N1232 0.985 . S
C1246 C1247 1.363 . S
C1246 C1252 1.379 . S
C1246 N1254 1.356 . S
C1247 C1246 1.363 . S
C1247 C1253 1.363 . S
C1248 C1249 1.363 . S
C1248 C1253 1.379 . S
C1248 N1255 1.356 . S
C1249 C1248 1.363 . S
C1249 C1252 1.363 . S
N1250 C1252 1.356 . S
N1250 H1262 0.984 . S
N1250 H1263 0.985 . S
N1251 C1253 1.356 . S
N1251 H1256 0.984 . S
N1251 H1257 0.985 . S
C1252 C1246 1.379 . S
C1252 C1249 1.363 . S
C1252 N1250 1.356 . S
C1253 C1247 1.363 . S
C1253 C1248 1.379 . S
C1253 N1251 1.356 . S
N1254 C1246 1.356 . S
N1254 H1260 0.984 . S
N1254 H1261 0.984 . S
N1255 C1248 1.356 . S
N1255 H1258 0.984 . S
N1255 H1259 0.985 . S
H1256 N1251 0.984 . S
H1257 N1251 0.985 . S
H1258 N1255 0.984 . S
H1259 N1255 0.985 . S
H1260 N1254 0.984 . S
H1261 N1254 0.984 . S
H1262 N1250 0.984 . S
H1263 N1250 0.985 . S
C1264 C1265 1.363 . S
C1264 C1270 1.379 . S
C1264 N1272 1.356 . S
C1265 C1264 1.363 . S
C1265 C1271 1.363 . S
C1266 C1267 1.363 . S
C1266 C1271 1.379 . S
C1266 N1273 1.356 . S
C1267 C1266 1.363 . S
C1267 C1270 1.363 . S
N1268 C1270 1.356 . S
N1268 H1280 0.984 . S
N1268 H1281 0.985 . S
N1269 C1271 1.356 . S
N1269 H1274 0.984 . S
N1269 H1275 0.985 . S
C1270 C1264 1.379 . S
C1270 C1267 1.363 . S
C1270 N1268 1.356 . S
C1271 C1265 1.363 . S
C1271 C1266 1.379 . S
C1271 N1269 1.356 . S
N1272 C1264 1.356 . S
N1272 H1278 0.984 . S
N1272 H1279 0.984 . S
N1273 C1266 1.356 . S
N1273 H1276 0.984 . S
N1273 H1277 0.985 . S
H1274 N1269 0.984 . S
H1275 N1269 0.985 . S
H1276 N1273 0.984 . S
H1277 N1273 0.985 . S
H1278 N1272 0.984 . S
H1279 N1272 0.984 . S
H1280 N1268 0.984 . S
H1281 N1268 0.985 . S
C1282 C1283 1.363 . S
C1282 C1288 1.379 . S
C1282 N1290 1.356 . S
C1283 C1282 1.363 . S
C1283 C1289 1.363 . S
C1284 C1285 1.363 . S
C1284 C1289 1.379 . S
C1284 N1291 1.356 . S
C1285 C1284 1.363 . S
C1285 C1288 1.363 . S
N1286 C1288 1.356 . S
N1286 H1298 0.984 . S
N1286 H1299 0.985 . S
N1287 C1289 1.356 . S
N1287 H1292 0.984 . S
N1287 H1293 0.985 . S
C1288 C1282 1.379 . S
C1288 C1285 1.363 . S
C1288 N1286 1.356 . S
C1289 C1283 1.363 . S
C1289 C1284 1.379 . S
C1289 N1287 1.356 . S
N1290 C1282 1.356 . S
N1290 H1296 0.984 . S
N1290 H1297 0.984 . S
N1291 C1284 1.356 . S
N1291 H1294 0.984 . S
N1291 H1295 0.985 . S
H1292 N1287 0.984 . S
H1293 N1287 0.985 . S
H1294 N1291 0.984 . S
H1295 N1291 0.985 . S
H1296 N1290 0.984 . S
H1297 N1290 0.984 . S
H1298 N1286 0.984 . S
H1299 N1286 0.985 . S
C1300 C1301 1.363 . S
C1300 C1306 1.379 . S
C1300 N1308 1.356 . S
C1301 C1300 1.363 . S
C1301 C1307 1.363 . S
C1302 C1303 1.363 . S
C1302 C1307 1.379 . S
C1302 N1309 1.356 . S
C1303 C1302 1.363 . S
C1303 C1306 1.363 . S
N1304 C1306 1.356 . S
N1304 H1316 0.984 . S
N1304 H1317 0.985 . S
N1305 C1307 1.356 . S
N1305 H1310 0.984 . S
N1305 H1311 0.985 . S
C1306 C1300 1.379 . S
C1306 C1303 1.363 . S
C1306 N1304 1.356 . S
C1307 C1301 1.363 . S
C1307 C1302 1.379 . S
C1307 N1305 1.356 . S
N1308 C1300 1.356 . S
N1308 H1314 0.984 . S
N1308 H1315 0.984 . S
N1309 C1302 1.356 . S
N1309 H1312 0.984 . S
N1309 H1313 0.985 . S
H1310 N1305 0.984 . S
H1311 N1305 0.985 . S
H1312 N1309 0.984 . S
H1313 N1309 0.985 . S
H1314 N1308 0.984 . S
H1315 N1308 0.984 . S
H1316 N1304 0.984 . S
H1317 N1304 0.985 . S
C1318 C1319 1.363 . S
C1318 C1324 1.379 . S
C1318 N1326 1.356 . S
C1319 C1318 1.363 . S
C1319 C1325 1.363 . S
C1320 C1321 1.363 . S
C1320 C1325 1.379 . S
C1320 N1327 1.356 . S
C1321 C1320 1.363 . S
C1321 C1324 1.363 . S
N1322 C1324 1.356 . S
N1322 H1334 0.984 . S
N1322 H1335 0.985 . S
N1323 C1325 1.356 . S
N1323 H1328 0.984 . S
N1323 H1329 0.985 . S
C1324 C1318 1.379 . S
C1324 C1321 1.363 . S
C1324 N1322 1.356 . S
C1325 C1319 1.363 . S
C1325 C1320 1.379 . S
C1325 N1323 1.356 . S
N1326 C1318 1.356 . S
N1326 H1332 0.984 . S
N1326 H1333 0.984 . S
N1327 C1320 1.356 . S
N1327 H1330 0.984 . S
N1327 H1331 0.985 . S
H1328 N1323 0.984 . S
H1329 N1323 0.985 . S
H1330 N1327 0.984 . S
H1331 N1327 0.985 . S
H1332 N1326 0.984 . S
H1333 N1326 0.984 . S
H1334 N1322 0.984 . S
H1335 N1322 0.985 . S
C1336 C1337 1.363 . S
C1336 C1342 1.379 . S
C1336 N1344 1.356 . S
C1337 C1336 1.363 . S
C1337 C1343 1.363 . S
C1338 C1339 1.363 . S
C1338 C1343 1.379 . S
C1338 N1345 1.356 . S
C1339 C1338 1.363 . S
C1339 C1342 1.363 . S
N1340 C1342 1.356 . S
N1340 H1352 0.984 . S
N1340 H1353 0.985 . S
N1341 C1343 1.356 . S
N1341 H1346 0.984 . S
N1341 H1347 0.985 . S
C1342 C1336 1.379 . S
C1342 C1339 1.363 . S
C1342 N1340 1.356 . S
C1343 C1337 1.363 . S
C1343 C1338 1.379 . S
C1343 N1341 1.356 . S
N1344 C1336 1.356 . S
N1344 H1350 0.984 . S
N1344 H1351 0.984 . S
N1345 C1338 1.356 . S
N1345 H1348 0.984 . S
N1345 H1349 0.985 . S
H1346 N1341 0.984 . S
H1347 N1341 0.985 . S
H1348 N1345 0.984 . S
H1349 N1345 0.985 . S
H1350 N1344 0.984 . S
H1351 N1344 0.984 . S
H1352 N1340 0.984 . S
H1353 N1340 0.985 . S
C1354 C1355 1.363 . S
C1354 C1360 1.379 . S
C1354 N1362 1.356 . S
C1355 C1354 1.363 . S
C1355 C1361 1.363 . S
C1356 C1357 1.363 . S
C1356 C1361 1.379 . S
C1356 N1363 1.356 . S
C1357 C1356 1.363 . S
C1357 C1360 1.363 . S
N1358 C1360 1.356 . S
N1358 H1370 0.984 . S
N1358 H1371 0.985 . S
N1359 C1361 1.356 . S
N1359 H1364 0.984 . S
N1359 H1365 0.985 . S
C1360 C1354 1.379 . S
C1360 C1357 1.363 . S
C1360 N1358 1.356 . S
C1361 C1355 1.363 . S
C1361 C1356 1.379 . S
C1361 N1359 1.356 . S
N1362 C1354 1.356 . S
N1362 H1368 0.984 . S
N1362 H1369 0.984 . S
N1363 C1356 1.356 . S
N1363 H1366 0.984 . S
N1363 H1367 0.985 . S
H1364 N1359 0.984 . S
H1365 N1359 0.985 . S
H1366 N1363 0.984 . S
H1367 N1363 0.985 . S
H1368 N1362 0.984 . S
H1369 N1362 0.984 . S
H1370 N1358 0.984 . S
H1371 N1358 0.985 . S
C1372 C1373 1.363 . S
C1372 C1378 1.379 . S
C1372 N1380 1.356 . S
C1373 C1372 1.363 . S
C1373 C1379 1.363 . S
C1374 C1375 1.363 . S
C1374 C1379 1.379 . S
C1374 N1381 1.356 . S
C1375 C1374 1.363 . S
C1375 C1378 1.363 . S
N1376 C1378 1.356 . S
N1376 H1388 0.984 . S
N1376 H1389 0.985 . S
N1377 C1379 1.356 . S
N1377 H1382 0.984 . S
N1377 H1383 0.985 . S
C1378 C1372 1.379 . S
C1378 C1375 1.363 . S
C1378 N1376 1.356 . S
C1379 C1373 1.363 . S
C1379 C1374 1.379 . S
C1379 N1377 1.356 . S
N1380 C1372 1.356 . S
N1380 H1386 0.984 . S
N1380 H1387 0.984 . S
N1381 C1374 1.356 . S
N1381 H1384 0.984 . S
N1381 H1385 0.985 . S
H1382 N1377 0.984 . S
H1383 N1377 0.985 . S
H1384 N1381 0.984 . S
H1385 N1381 0.985 . S
H1386 N1380 0.984 . S
H1387 N1380 0.984 . S
H1388 N1376 0.984 . S
H1389 N1376 0.985 . S
C1390 C1391 1.363 . S
C1390 C1396 1.379 . S
C1390 N1398 1.356 . S
C1391 C1390 1.363 . S
C1391 C1397 1.363 . S
C1392 C1393 1.363 . S
C1392 C1397 1.379 . S
C1392 N1399 1.356 . S
C1393 C1392 1.363 . S
C1393 C1396 1.363 . S
N1394 C1396 1.356 . S
N1394 H1406 0.984 . S
N1394 H1407 0.985 . S
N1395 C1397 1.356 . S
N1395 H1400 0.984 . S
N1395 H1401 0.985 . S
C1396 C1390 1.379 . S
C1396 C1393 1.363 . S
C1396 N1394 1.356 . S
C1397 C1391 1.363 . S
C1397 C1392 1.379 . S
C1397 N1395 1.356 . S
N1398 C1390 1.356 . S
N1398 H1404 0.984 . S
N1398 H1405 0.984 . S
N1399 C1392 1.356 . S
N1399 H1402 0.984 . S
N1399 H1403 0.985 . S
H1400 N1395 0.984 . S
H1401 N1395 0.985 . S
H1402 N1399 0.984 . S
H1403 N1399 0.985 . S
H1404 N1398 0.984 . S
H1405 N1398 0.984 . S
H1406 N1394 0.984 . S
H1407 N1394 0.985 . S
C1408 C1409 1.363 . S
C1408 C1414 1.379 . S
C1408 N1416 1.356 . S
C1409 C1408 1.363 . S
C1409 C1415 1.363 . S
C1410 C1411 1.363 . S
C1410 C1415 1.379 . S
C1410 N1417 1.356 . S
C1411 C1410 1.363 . S
C1411 C1414 1.363 . S
N1412 C1414 1.356 . S
N1412 H1424 0.984 . S
N1412 H1425 0.985 . S
N1413 C1415 1.356 . S
N1413 H1418 0.984 . S
N1413 H1419 0.985 . S
C1414 C1408 1.379 . S
C1414 C1411 1.363 . S
C1414 N1412 1.356 . S
C1415 C1409 1.363 . S
C1415 C1410 1.379 . S
C1415 N1413 1.356 . S
N1416 C1408 1.356 . S
N1416 H1422 0.984 . S
N1416 H1423 0.984 . S
N1417 C1410 1.356 . S
N1417 H1420 0.984 . S
N1417 H1421 0.985 . S
H1418 N1413 0.984 . S
H1419 N1413 0.985 . S
H1420 N1417 0.984 . S
H1421 N1417 0.985 . S
H1422 N1416 0.984 . S
H1423 N1416 0.984 . S
H1424 N1412 0.984 . S
H1425 N1412 0.985 . S
C1426 C1427 1.363 . S
C1426 C1432 1.379 . S
C1426 N1434 1.356 . S
C1427 C1426 1.363 . S
C1427 C1433 1.363 . S
C1428 C1429 1.363 . S
C1428 C1433 1.379 . S
C1428 N1435 1.356 . S
C1429 C1428 1.363 . S
C1429 C1432 1.363 . S
N1430 C1432 1.356 . S
N1430 H1442 0.984 . S
N1430 H1443 0.985 . S
N1431 C1433 1.356 . S
N1431 H1436 0.984 . S
N1431 H1437 0.985 . S
C1432 C1426 1.379 . S
C1432 C1429 1.363 . S
C1432 N1430 1.356 . S
C1433 C1427 1.363 . S
C1433 C1428 1.379 . S
C1433 N1431 1.356 . S
N1434 C1426 1.356 . S
N1434 H1440 0.984 . S
N1434 H1441 0.984 . S
N1435 C1428 1.356 . S
N1435 H1438 0.984 . S
N1435 H1439 0.985 . S
H1436 N1431 0.984 . S
H1437 N1431 0.985 . S
H1438 N1435 0.984 . S
H1439 N1435 0.985 . S
H1440 N1434 0.984 . S
H1441 N1434 0.984 . S
H1442 N1430 0.984 . S
H1443 N1430 0.985 . S
C1444 C1445 1.363 . S
C1444 C1450 1.379 . S
C1444 N1452 1.356 . S
C1445 C1444 1.363 . S
C1445 C1451 1.363 . S
C1446 C1447 1.363 . S
C1446 C1451 1.379 . S
C1446 N1453 1.356 . S
C1447 C1446 1.363 . S
C1447 C1450 1.363 . S
N1448 C1450 1.356 . S
N1448 H1460 0.984 . S
N1448 H1461 0.985 . S
N1449 C1451 1.356 . S
N1449 H1454 0.984 . S
N1449 H1455 0.985 . S
C1450 C1444 1.379 . S
C1450 C1447 1.363 . S
C1450 N1448 1.356 . S
C1451 C1445 1.363 . S
C1451 C1446 1.379 . S
C1451 N1449 1.356 . S
N1452 C1444 1.356 . S
N1452 H1458 0.984 . S
N1452 H1459 0.984 . S
N1453 C1446 1.356 . S
N1453 H1456 0.984 . S
N1453 H1457 0.985 . S
H1454 N1449 0.984 . S
H1455 N1449 0.985 . S
H1456 N1453 0.984 . S
H1457 N1453 0.985 . S
H1458 N1452 0.984 . S
H1459 N1452 0.984 . S
H1460 N1448 0.984 . S
H1461 N1448 0.985 . S
C1462 C1463 1.363 . S
C1462 C1468 1.379 . S
C1462 N1470 1.356 . S
C1463 C1462 1.363 . S
C1463 C1469 1.363 . S
C1464 C1465 1.363 . S
C1464 C1469 1.379 . S
C1464 N1471 1.356 . S
C1465 C1464 1.363 . S
C1465 C1468 1.363 . S
N1466 C1468 1.356 . S
N1466 H1478 0.984 . S
N1466 H1479 0.985 . S
N1467 C1469 1.356 . S
N1467 H1472 0.984 . S
N1467 H1473 0.985 . S
C1468 C1462 1.379 . S
C1468 C1465 1.363 . S
C1468 N1466 1.356 . S
C1469 C1463 1.363 . S
C1469 C1464 1.379 . S
C1469 N1467 1.356 . S
N1470 C1462 1.356 . S
N1470 H1476 0.984 . S
N1470 H1477 0.984 . S
N1471 C1464 1.356 . S
N1471 H1474 0.984 . S
N1471 H1475 0.985 . S
H1472 N1467 0.984 . S
H1473 N1467 0.985 . S
H1474 N1471 0.984 . S
H1475 N1471 0.985 . S
H1476 N1470 0.984 . S
H1477 N1470 0.984 . S
H1478 N1466 0.984 . S
H1479 N1466 0.985 . S
C1480 C1481 1.363 . S
C1480 C1486 1.379 . S
C1480 N1488 1.356 . S
C1481 C1480 1.363 . S
C1481 C1487 1.363 1_655 S
C1482 C1483 1.363 . S
C1482 C1487 1.379 . S
C1482 N1489 1.356 . S
C1483 C1482 1.363 . S
C1483 C1486 1.363 1_455 S
N1484 C1486 1.356 . S
N1484 H1496 0.984 . S
N1484 H1497 0.985 . S
N1485 C1487 1.356 . S
N1485 H1490 0.984 . S
N1485 H1491 0.985 . S
C1486 C1480 1.379 . S
C1486 C1483 1.363 1_655 S
C1486 N1484 1.356 . S
C1487 C1481 1.363 1_455 S
C1487 C1482 1.379 . S
C1487 N1485 1.356 . S
N1488 C1480 1.356 . S
N1488 H1494 0.984 . S
N1488 H1495 0.984 . S
N1489 C1482 1.356 . S
N1489 H1492 0.984 . S
N1489 H1493 0.985 . S
H1490 N1485 0.984 . S
H1491 N1485 0.985 . S
H1492 N1489 0.984 . S
H1493 N1489 0.985 . S
H1494 N1488 0.984 . S
H1495 N1488 0.984 . S
H1496 N1484 0.984 . S
H1497 N1484 0.985 . S
C1498 C1499 1.363 . S
C1498 C1504 1.379 . S
C1498 N1506 1.356 . S
C1499 C1498 1.363 . S
C1499 C1505 1.363 . S
C1500 C1501 1.363 . S
C1500 C1505 1.379 . S
C1500 N1507 1.356 . S
C1501 C1500 1.363 . S
C1501 C1504 1.363 . S
N1502 C1504 1.356 . S
N1502 H1514 0.984 . S
N1502 H1515 0.985 . S
N1503 C1505 1.356 . S
N1503 H1508 0.984 . S
N1503 H1509 0.985 . S
C1504 C1498 1.379 . S
C1504 C1501 1.363 . S
C1504 N1502 1.356 . S
C1505 C1499 1.363 . S
C1505 C1500 1.379 . S
C1505 N1503 1.356 . S
N1506 C1498 1.356 . S
N1506 H1512 0.984 . S
N1506 H1513 0.984 . S
N1507 C1500 1.356 . S
N1507 H1510 0.984 . S
N1507 H1511 0.985 . S
H1508 N1503 0.984 . S
H1509 N1503 0.985 . S
H1510 N1507 0.984 . S
H1511 N1507 0.985 . S
H1512 N1506 0.984 . S
H1513 N1506 0.984 . S
H1514 N1502 0.984 . S
H1515 N1502 0.985 . S
C1516 C1517 1.363 1_554 S
C1516 C1522 1.379 . S
C1516 N1524 1.356 1_554 S
C1517 C1516 1.363 1_556 S
C1517 C1523 1.363 . S
C1518 C1519 1.363 . S
C1518 C1523 1.379 1_554 S
C1518 N1525 1.356 . S
C1519 C1518 1.363 . S
C1519 C1522 1.363 . S
N1520 C1522 1.356 . S
N1520 H1532 0.984 . S
N1520 H1533 0.985 . S
N1521 C1523 1.356 . S
N1521 H1526 0.984 . S
N1521 H1527 0.985 . S
C1522 C1516 1.379 . S
C1522 C1519 1.363 . S
C1522 N1520 1.356 . S
C1523 C1517 1.363 . S
C1523 C1518 1.379 1_556 S
C1523 N1521 1.356 . S
N1524 C1516 1.356 1_556 S
N1524 H1530 0.984 . S
N1524 H1531 0.984 . S
N1525 C1518 1.356 . S
N1525 H1528 0.979 1_565 S
N1525 H1529 0.985 1_565 S
H1526 N1521 0.984 . S
H1527 N1521 0.985 . S
H1528 N1525 0.979 1_545 S
H1529 N1525 0.985 1_545 S
H1530 N1524 0.984 . S
H1531 N1524 0.984 . S
H1532 N1520 0.984 . S
H1533 N1520 0.985 . S
C1534 C1535 1.370 . S
C1534 C1540 1.379 . S
C1534 N1542 1.356 . S
C1535 C1534 1.370 . S
C1535 C1541 1.364 1_655 S
C1536 C1537 1.363 . S
C1536 C1541 1.379 1_655 S
C1536 N1543 1.356 . S
C1537 C1536 1.363 . S
C1537 C1540 1.363 . S
N1538 C1540 1.356 . S
N1538 H1550 0.984 . S
N1538 H1551 0.985 . S
N1539 C1541 1.356 . S
N1539 H1544 0.984 . S
N1539 H1545 0.985 . S
C1540 C1534 1.379 . S
C1540 C1537 1.363 . S
C1540 N1538 1.356 . S
C1541 C1535 1.364 1_455 S
C1541 C1536 1.379 1_455 S
C1541 N1539 1.356 . S
N1542 C1534 1.356 . S
N1542 H1548 0.984 . S
N1542 H1549 0.984 . S
N1543 C1536 1.356 . S
N1543 H1546 0.984 . S
N1543 H1547 0.985 1_655 S
H1544 N1539 0.984 . S
H1545 N1539 0.985 . S
H1546 N1543 0.984 . S
H1547 N1543 0.985 1_455 S
H1548 N1542 0.984 . S
H1549 N1542 0.984 . S
H1550 N1538 0.984 . S
H1551 N1538 0.985 . S
C1552 C1553 1.363 . S
C1552 C1558 1.352 1_556 S
C1552 N1560 1.356 . S
C1553 C1552 1.363 . S
C1553 C1559 1.363 . S
C1554 C1555 1.363 . S
C1554 C1559 1.379 1_554 S
C1554 N1561 1.356 . S
C1555 C1554 1.363 . S
C1555 C1558 1.376 . S
N1556 C1558 1.377 . S
N1556 H1568 0.984 . S
N1556 H1569 0.985 . S
N1557 C1559 1.356 . S
N1557 H1562 0.984 . S
N1557 H1563 0.985 . S
C1558 C1552 1.352 1_554 S
C1558 C1555 1.376 . S
C1558 N1556 1.377 . S
C1559 C1553 1.363 . S
C1559 C1554 1.379 1_556 S
C1559 N1557 1.356 . S
N1560 C1552 1.356 . S
N1560 H1566 0.984 . S
N1560 H1567 0.984 . S
N1561 C1554 1.356 . S
N1561 H1564 0.984 . S
N1561 H1565 0.985 . S
H1562 N1557 0.984 . S
H1563 N1557 0.985 . S
H1564 N1561 0.984 . S
H1565 N1561 0.985 . S
H1566 N1560 0.984 . S
H1567 N1560 0.984 . S
H1568 N1556 0.984 . S
H1569 N1556 0.985 . S
C1570 C1571 1.363 . S
C1570 C1576 1.379 . S
C1570 N1578 1.356 . S
C1571 C1570 1.363 . S
C1571 C1577 1.363 . S
C1572 C1573 1.363 . S
C1572 C1577 1.379 . S
C1572 N1579 1.356 . S
C1573 C1572 1.363 . S
C1573 C1576 1.363 . S
N1574 C1576 1.356 . S
N1574 H1586 0.984 . S
N1574 H1587 0.985 . S
N1575 C1577 1.356 . S
N1575 H1580 0.984 . S
N1575 H1581 0.985 . S
C1576 C1570 1.379 . S
C1576 C1573 1.363 . S
C1576 N1574 1.356 . S
C1577 C1571 1.363 . S
C1577 C1572 1.379 . S
C1577 N1575 1.356 . S
N1578 C1570 1.356 . S
N1578 H1584 0.984 . S
N1578 H1585 0.984 . S
N1579 C1572 1.356 . S
N1579 H1582 0.984 . S
N1579 H1583 0.985 . S
H1580 N1575 0.984 . S
H1581 N1575 0.985 . S
H1582 N1579 0.984 . S
H1583 N1579 0.985 . S
H1584 N1578 0.984 . S
H1585 N1578 0.984 . S
H1586 N1574 0.984 . S
H1587 N1574 0.985 . S
C1588 C1589 1.363 . S
C1588 C1594 1.379 . S
C1588 N1596 1.356 . S
C1589 C1588 1.363 . S
C1589 C1595 1.363 . S
C1590 C1591 1.363 . S
C1590 C1595 1.379 . S
C1590 N1597 1.356 . S
C1591 C1590 1.363 . S
C1591 C1594 1.363 . S
N1592 C1594 1.356 . S
N1592 H1604 0.984 . S
N1592 H1605 0.985 . S
N1593 C1595 1.356 . S
N1593 H1598 0.984 . S
N1593 H1599 0.985 . S
C1594 C1588 1.379 . S
C1594 C1591 1.363 . S
C1594 N1592 1.356 . S
C1595 C1589 1.363 . S
C1595 C1590 1.379 . S
C1595 N1593 1.356 . S
N1596 C1588 1.356 . S
N1596 H1602 0.984 . S
N1596 H1603 0.984 . S
N1597 C1590 1.356 . S
N1597 H1600 0.984 . S
N1597 H1601 0.985 . S
H1598 N1593 0.984 . S
H1599 N1593 0.985 . S
H1600 N1597 0.984 . S
H1601 N1597 0.985 . S
H1602 N1596 0.984 . S
H1603 N1596 0.984 . S
H1604 N1592 0.984 . S
H1605 N1592 0.985 . S
C1606 C1607 1.363 . S
C1606 C1612 1.379 . S
C1606 N1614 1.356 . S
C1607 C1606 1.363 . S
C1607 C1613 1.363 . S
C1608 C1609 1.363 . S
C1608 C1613 1.379 . S
C1608 N1615 1.356 . S
C1609 C1608 1.363 . S
C1609 C1612 1.363 . S
N1610 C1612 1.356 . S
N1610 H1622 0.984 . S
N1610 H1623 0.985 . S
N1611 C1613 1.356 . S
N1611 H1616 0.984 . S
N1611 H1617 0.985 . S
C1612 C1606 1.379 . S
C1612 C1609 1.363 . S
C1612 N1610 1.356 . S
C1613 C1607 1.363 . S
C1613 C1608 1.379 . S
C1613 N1611 1.356 . S
N1614 C1606 1.356 . S
N1614 H1620 0.984 . S
N1614 H1621 0.984 . S
N1615 C1608 1.356 . S
N1615 H1618 0.984 . S
N1615 H1619 0.985 . S
H1616 N1611 0.984 . S
H1617 N1611 0.985 . S
H1618 N1615 0.984 . S
H1619 N1615 0.985 . S
H1620 N1614 0.984 . S
H1621 N1614 0.984 . S
H1622 N1610 0.984 . S
H1623 N1610 0.985 . S
C1624 C1625 1.363 . S
C1624 C1630 1.379 . S
C1624 N1632 1.356 . S
C1625 C1624 1.363 . S
C1625 C1631 1.363 . S
C1626 C1627 1.363 . S
C1626 C1631 1.379 . S
C1626 N1633 1.356 . S
C1627 C1626 1.363 . S
C1627 C1630 1.363 . S
N1628 C1630 1.356 . S
N1628 H1640 0.984 . S
N1628 H1641 0.985 . S
N1629 C1631 1.356 . S
N1629 H1634 0.984 . S
N1629 H1635 0.985 . S
C1630 C1624 1.379 . S
C1630 C1627 1.363 . S
C1630 N1628 1.356 . S
C1631 C1625 1.363 . S
C1631 C1626 1.379 . S
C1631 N1629 1.356 . S
N1632 C1624 1.356 . S
N1632 H1638 0.984 . S
N1632 H1639 0.984 . S
N1633 C1626 1.356 . S
N1633 H1636 0.984 . S
N1633 H1637 0.985 . S
H1634 N1629 0.984 . S
H1635 N1629 0.985 . S
H1636 N1633 0.984 . S
H1637 N1633 0.985 . S
H1638 N1632 0.984 . S
H1639 N1632 0.984 . S
H1640 N1628 0.984 . S
H1641 N1628 0.985 . S
C1642 C1643 1.363 . S
C1642 C1648 1.379 . S
C1642 N1650 1.356 . S
C1643 C1642 1.363 . S
C1643 C1649 1.363 . S
C1644 C1645 1.363 . S
C1644 C1649 1.379 . S
C1644 N1651 1.356 . S
C1645 C1644 1.363 . S
C1645 C1648 1.363 . S
N1646 C1648 1.356 . S
N1646 H1658 0.984 . S
N1646 H1659 0.985 . S
N1647 C1649 1.356 . S
N1647 H1652 0.984 . S
N1647 H1653 0.985 . S
C1648 C1642 1.379 . S
C1648 C1645 1.363 . S
C1648 N1646 1.356 . S
C1649 C1643 1.363 . S
C1649 C1644 1.379 . S
C1649 N1647 1.356 . S
N1650 C1642 1.356 . S
N1650 H1656 0.984 . S
N1650 H1657 0.984 . S
N1651 C1644 1.356 . S
N1651 H1654 0.984 . S
N1651 H1655 0.985 . S
H1652 N1647 0.984 . S
H1653 N1647 0.985 . S
H1654 N1651 0.984 . S
H1655 N1651 0.985 . S
H1656 N1650 0.984 . S
H1657 N1650 0.984 . S
H1658 N1646 0.984 . S
H1659 N1646 0.985 . S
C1660 C1661 1.363 . S
C1660 C1666 1.379 . S
C1660 N1668 1.356 . S
C1661 C1660 1.363 . S
C1661 C1667 1.363 . S
C1662 C1663 1.363 . S
C1662 C1667 1.379 . S
C1662 N1669 1.356 . S
C1663 C1662 1.363 . S
C1663 C1666 1.363 . S
N1664 C1666 1.356 1_565 S
N1664 H1676 0.984 . S
N1664 H1677 0.985 . S
N1665 C1667 1.356 . S
N1665 H1670 0.984 . S
N1665 H1671 0.985 . S
C1666 C1660 1.379 . S
C1666 C1663 1.363 . S
C1666 N1664 1.356 1_545 S
C1667 C1661 1.363 . S
C1667 C1662 1.379 . S
C1667 N1665 1.356 . S
N1668 C1660 1.356 . S
N1668 H1674 0.984 1_545 S
N1668 H1675 0.984 . S
N1669 C1662 1.356 . S
N1669 H1672 0.984 . S
N1669 H1673 0.985 . S
H1670 N1665 0.984 . S
H1671 N1665 0.985 . S
H1672 N1669 0.984 . S
H1673 N1669 0.985 . S
H1674 N1668 0.984 1_565 S
H1675 N1668 0.984 . S
H1676 N1664 0.984 . S
H1677 N1664 0.985 . S
C1678 C1679 1.363 . S
C1678 C1684 1.379 . S
C1678 N1686 1.356 . S
C1679 C1678 1.363 . S
C1679 C1685 1.363 . S
C1680 C1681 1.363 . S
C1680 C1685 1.379 . S
C1680 N1687 1.356 . S
C1681 C1680 1.363 . S
C1681 C1684 1.363 . S
N1682 C1684 1.356 . S
N1682 H1694 0.984 . S
N1682 H1695 0.985 . S
N1683 C1685 1.356 1_554 S
N1683 H1688 0.984 . S
N1683 H1689 0.985 . S
C1684 C1678 1.379 . S
C1684 C1681 1.363 . S
C1684 N1682 1.356 . S
C1685 C1679 1.363 . S
C1685 C1680 1.379 . S
C1685 N1683 1.356 1_556 S
N1686 C1678 1.356 . S
N1686 H1692 0.984 . S
N1686 H1693 0.984 . S
N1687 C1680 1.356 . S
N1687 H1690 0.984 . S
N1687 H1691 0.985 . S
H1688 N1683 0.984 . S
H1689 N1683 0.985 . S
H1690 N1687 0.984 . S
H1691 N1687 0.985 . S
H1692 N1686 0.984 . S
H1693 N1686 0.984 . S
H1694 N1682 0.984 . S
H1695 N1682 0.985 . S
C1696 C1697 1.363 . S
C1696 C1702 1.379 . S
C1696 N1704 1.356 . S
C1697 C1696 1.363 . S
C1697 C1703 1.363 . S
C1698 C1699 1.363 . S
C1698 C1703 1.379 . S
C1698 N1705 1.356 . S
C1699 C1698 1.363 . S
C1699 C1702 1.363 . S
N1700 C1702 1.356 . S
N1700 H1712 0.984 . S
N1700 H1713 0.985 . S
N1701 C1703 1.356 . S
N1701 H1706 0.984 . S
N1701 H1707 0.985 . S
C1702 C1696 1.379 . S
C1702 C1699 1.363 . S
C1702 N1700 1.356 . S
C1703 C1697 1.363 . S
C1703 C1698 1.379 . S
C1703 N1701 1.356 . S
N1704 C1696 1.356 . S
N1704 H1710 0.984 . S
N1704 H1711 0.984 . S
N1705 C1698 1.356 . S
N1705 H1708 0.984 . S
N1705 H1709 0.985 . S
H1706 N1701 0.984 . S
H1707 N1701 0.985 . S
H1708 N1705 0.984 . S
H1709 N1705 0.985 . S
H1710 N1704 0.984 . S
H1711 N1704 0.984 . S
H1712 N1700 0.984 . S
H1713 N1700 0.985 . S
C1714 C1715 1.363 . S
C1714 C1720 1.379 . S
C1714 N1722 1.356 . S
C1715 C1714 1.363 . S
C1715 C1721 1.363 . S
C1716 C1717 1.363 . S
C1716 C1721 1.379 . S
C1716 N1723 1.356 . S
C1717 C1716 1.363 . S
C1717 C1720 1.363 . S
N1718 C1720 1.356 . S
N1718 H1730 0.984 . S
N1718 H1731 0.985 . S
N1719 C1721 1.356 . S
N1719 H1724 0.984 . S
N1719 H1725 0.985 . S
C1720 C1714 1.379 . S
C1720 C1717 1.363 . S
C1720 N1718 1.356 . S
C1721 C1715 1.363 . S
C1721 C1716 1.379 . S
C1721 N1719 1.356 . S
N1722 C1714 1.356 . S
N1722 H1728 0.984 . S
N1722 H1729 0.984 . S
N1723 C1716 1.356 . S
N1723 H1726 0.984 . S
N1723 H1727 0.985 . S
H1724 N1719 0.984 . S
H1725 N1719 0.985 . S
H1726 N1723 0.984 . S
H1727 N1723 0.985 . S
H1728 N1722 0.984 . S
H1729 N1722 0.984 . S
H1730 N1718 0.984 . S
H1731 N1718 0.985 . S
C1732 C1733 1.363 . S
C1732 C1738 1.379 . S
C1732 N1740 1.356 . S
C1733 C1732 1.363 . S
C1733 C1739 1.363 . S
C1734 C1735 1.363 . S
C1734 C1739 1.379 . S
C1734 N1741 1.356 . S
C1735 C1734 1.363 . S
C1735 C1738 1.363 . S
N1736 C1738 1.356 . S
N1736 H1748 0.984 . S
N1736 H1749 0.985 . S
N1737 C1739 1.356 . S
N1737 H1742 0.984 . S
N1737 H1743 0.985 . S
C1738 C1732 1.379 . S
C1738 C1735 1.363 . S
C1738 N1736 1.356 . S
C1739 C1733 1.363 . S
C1739 C1734 1.379 . S
C1739 N1737 1.356 . S
N1740 C1732 1.356 . S
N1740 H1746 0.984 . S
N1740 H1747 0.984 . S
N1741 C1734 1.356 . S
N1741 H1744 0.984 . S
N1741 H1745 0.985 . S
H1742 N1737 0.984 . S
H1743 N1737 0.985 . S
H1744 N1741 0.984 . S
H1745 N1741 0.985 . S
H1746 N1740 0.984 . S
H1747 N1740 0.984 . S
H1748 N1736 0.984 . S
H1749 N1736 0.985 . S
C1750 C1751 1.363 . S
C1750 C1756 1.379 . S
C1750 N1758 1.356 . S
C1751 C1750 1.363 . S
C1751 C1757 1.363 . S
C1752 C1753 1.363 . S
C1752 C1757 1.379 . S
C1752 N1759 1.356 . S
C1753 C1752 1.363 . S
C1753 C1756 1.363 . S
N1754 C1756 1.356 . S
N1754 H1766 0.984 . S
N1754 H1767 0.985 . S
N1755 C1757 1.356 . S
N1755 H1760 0.984 . S
N1755 H1761 0.985 . S
C1756 C1750 1.379 . S
C1756 C1753 1.363 . S
C1756 N1754 1.356 . S
C1757 C1751 1.363 . S
C1757 C1752 1.379 . S
C1757 N1755 1.356 . S
N1758 C1750 1.356 . S
N1758 H1764 0.984 . S
N1758 H1765 0.984 . S
N1759 C1752 1.356 . S
N1759 H1762 0.984 . S
N1759 H1763 0.985 . S
H1760 N1755 0.984 . S
H1761 N1755 0.985 . S
H1762 N1759 0.984 . S
H1763 N1759 0.985 . S
H1764 N1758 0.984 . S
H1765 N1758 0.984 . S
H1766 N1754 0.984 . S
H1767 N1754 0.985 . S
C1768 C1769 1.363 . S
C1768 C1774 1.379 . S
C1768 N1776 1.356 . S
C1769 C1768 1.363 . S
C1769 C1775 1.363 . S
C1770 C1771 1.363 . S
C1770 C1775 1.379 . S
C1770 N1777 1.356 . S
C1771 C1770 1.363 . S
C1771 C1774 1.363 . S
N1772 C1774 1.356 . S
N1772 H1784 0.984 . S
N1772 H1785 0.985 . S
N1773 C1775 1.356 . S
N1773 H1778 0.984 . S
N1773 H1779 0.985 . S
C1774 C1768 1.379 . S
C1774 C1771 1.363 . S
C1774 N1772 1.356 . S
C1775 C1769 1.363 . S
C1775 C1770 1.379 . S
C1775 N1773 1.356 . S
N1776 C1768 1.356 . S
N1776 H1782 0.984 . S
N1776 H1783 0.984 . S
N1777 C1770 1.356 . S
N1777 H1780 0.984 . S
N1777 H1781 0.985 . S
H1778 N1773 0.984 . S
H1779 N1773 0.985 . S
H1780 N1777 0.984 . S
H1781 N1777 0.985 . S
H1782 N1776 0.984 . S
H1783 N1776 0.984 . S
H1784 N1772 0.984 . S
H1785 N1772 0.985 . S
C1786 C1787 1.363 . S
C1786 C1792 1.379 . S
C1786 N1794 1.356 . S
C1787 C1786 1.363 . S
C1787 C1793 1.363 . S
C1788 C1789 1.363 . S
C1788 C1793 1.379 . S
C1788 N1795 1.356 . S
C1789 C1788 1.363 . S
C1789 C1792 1.363 . S
N1790 C1792 1.356 . S
N1790 H1802 0.984 . S
N1790 H1803 0.985 . S
N1791 C1793 1.356 . S
N1791 H1796 0.984 . S
N1791 H1797 0.985 . S
C1792 C1786 1.379 . S
C1792 C1789 1.363 . S
C1792 N1790 1.356 . S
C1793 C1787 1.363 . S
C1793 C1788 1.379 . S
C1793 N1791 1.356 . S
N1794 C1786 1.356 . S
N1794 H1800 0.984 . S
N1794 H1801 0.984 . S
N1795 C1788 1.356 . S
N1795 H1798 0.984 . S
N1795 H1799 0.985 1_565 S
H1796 N1791 0.984 . S
H1797 N1791 0.985 . S
H1798 N1795 0.984 . S
H1799 N1795 0.985 1_545 S
H1800 N1794 0.984 . S
H1801 N1794 0.984 . S
H1802 N1790 0.984 . S
H1803 N1790 0.985 . S
C1804 C1805 1.363 . S
C1804 C1810 1.379 . S
C1804 N1812 1.356 . S
C1805 C1804 1.363 . S
C1805 C1811 1.363 . S
C1806 C1807 1.363 . S
C1806 C1811 1.379 . S
C1806 N1813 1.356 . S
C1807 C1806 1.363 . S
C1807 C1810 1.363 . S
N1808 C1810 1.356 . S
N1808 H1820 0.984 . S
N1808 H1821 0.985 . S
N1809 C1811 1.356 . S
N1809 H1814 0.984 . S
N1809 H1815 0.985 . S
C1810 C1804 1.379 . S
C1810 C1807 1.363 . S
C1810 N1808 1.356 . S
C1811 C1805 1.363 . S
C1811 C1806 1.379 . S
C1811 N1809 1.356 . S
N1812 C1804 1.356 . S
N1812 H1818 0.984 . S
N1812 H1819 0.984 . S
N1813 C1806 1.356 . S
N1813 H1816 0.984 . S
N1813 H1817 0.985 . S
H1814 N1809 0.984 . S
H1815 N1809 0.985 . S
H1816 N1813 0.984 . S
H1817 N1813 0.985 . S
H1818 N1812 0.984 . S
H1819 N1812 0.984 . S
H1820 N1808 0.984 . S
H1821 N1808 0.985 . S
C1822 C1823 1.363 . S
C1822 C1828 1.379 . S
C1822 N1830 1.356 . S
C1823 C1822 1.363 . S
C1823 C1829 1.363 . S
C1824 C1825 1.363 . S
C1824 C1829 1.379 . S
C1824 N1831 1.356 . S
C1825 C1824 1.363 . S
C1825 C1828 1.363 . S
N1826 C1828 1.356 . S
N1826 H1838 0.984 . S
N1826 H1839 0.985 . S
N1827 C1829 1.356 . S
N1827 H1832 0.984 . S
N1827 H1833 0.985 . S
C1828 C1822 1.379 . S
C1828 C1825 1.363 . S
C1828 N1826 1.356 . S
C1829 C1823 1.363 . S
C1829 C1824 1.379 . S
C1829 N1827 1.356 . S
N1830 C1822 1.356 . S
N1830 H1836 0.984 . S
N1830 H1837 0.984 . S
N1831 C1824 1.356 . S
N1831 H1834 0.984 . S
N1831 H1835 0.985 . S
H1832 N1827 0.984 . S
H1833 N1827 0.985 . S
H1834 N1831 0.984 . S
H1835 N1831 0.985 . S
H1836 N1830 0.984 . S
H1837 N1830 0.984 . S
H1838 N1826 0.984 . S
H1839 N1826 0.985 . S
C1840 C1841 1.363 . S
C1840 C1846 1.379 . S
C1840 N1848 1.356 . S
C1841 C1840 1.363 . S
C1841 C1847 1.363 . S
C1842 C1843 1.363 . S
C1842 C1847 1.379 . S
C1842 N1849 1.356 . S
C1843 C1842 1.363 . S
C1843 C1846 1.363 . S
N1844 C1846 1.356 . S
N1844 H1856 0.984 . S
N1844 H1857 0.985 . S
N1845 C1847 1.356 . S
N1845 H1850 0.984 . S
N1845 H1851 0.985 . S
C1846 C1840 1.379 . S
C1846 C1843 1.363 . S
C1846 N1844 1.356 . S
C1847 C1841 1.363 . S
C1847 C1842 1.379 . S
C1847 N1845 1.356 . S
N1848 C1840 1.356 . S
N1848 H1854 0.984 . S
N1848 H1855 0.984 . S
N1849 C1842 1.356 . S
N1849 H1852 0.984 . S
N1849 H1853 0.985 . S
H1850 N1845 0.984 . S
H1851 N1845 0.985 . S
H1852 N1849 0.984 . S
H1853 N1849 0.985 . S
H1854 N1848 0.984 . S
H1855 N1848 0.984 . S
H1856 N1844 0.984 . S
H1857 N1844 0.985 . S
C1858 C1859 1.363 . S
C1858 C1864 1.379 . S
C1858 N1866 1.356 . S
C1859 C1858 1.363 . S
C1859 C1865 1.363 . S
C1860 C1861 1.363 . S
C1860 C1865 1.379 . S
C1860 N1867 1.356 . S
C1861 C1860 1.363 . S
C1861 C1864 1.363 . S
N1862 C1864 1.356 . S
N1862 H1874 0.984 . S
N1862 H1875 0.985 . S
N1863 C1865 1.356 . S
N1863 H1868 0.984 . S
N1863 H1869 0.985 . S
C1864 C1858 1.379 . S
C1864 C1861 1.363 . S
C1864 N1862 1.356 . S
C1865 C1859 1.363 . S
C1865 C1860 1.379 . S
C1865 N1863 1.356 . S
N1866 C1858 1.356 . S
N1866 H1872 0.984 . S
N1866 H1873 0.984 . S
N1867 C1860 1.356 . S
N1867 H1870 0.984 . S
N1867 H1871 0.985 . S
H1868 N1863 0.984 . S
H1869 N1863 0.985 . S
H1870 N1867 0.984 . S
H1871 N1867 0.985 . S
H1872 N1866 0.984 . S
H1873 N1866 0.984 . S
H1874 N1862 0.984 . S
H1875 N1862 0.985 . S
C1876 C1877 1.363 . S
C1876 C1882 1.379 . S
C1876 N1884 1.356 . S
C1877 C1876 1.363 . S
C1877 C1883 1.363 . S
C1878 C1879 1.363 . S
C1878 C1883 1.379 . S
C1878 N1885 1.356 . S
C1879 C1878 1.363 . S
C1879 C1882 1.363 . S
N1880 C1882 1.356 . S
N1880 H1892 0.984 . S
N1880 H1893 0.985 . S
N1881 C1883 1.356 1_655 S
N1881 H1886 0.984 . S
N1881 H1887 0.985 . S
C1882 C1876 1.379 . S
C1882 C1879 1.363 . S
C1882 N1880 1.356 . S
C1883 C1877 1.363 . S
C1883 C1878 1.379 . S
C1883 N1881 1.356 1_455 S
N1884 C1876 1.356 . S
N1884 H1890 0.984 . S
N1884 H1891 0.984 . S
N1885 C1878 1.356 . S
N1885 H1888 0.984 . S
N1885 H1889 0.985 1_455 S
H1886 N1881 0.984 . S
H1887 N1881 0.985 . S
H1888 N1885 0.984 . S
H1889 N1885 0.985 1_655 S
H1890 N1884 0.984 . S
H1891 N1884 0.984 . S
H1892 N1880 0.984 . S
H1893 N1880 0.985 . S
C1894 C1895 1.363 . S
C1894 C1900 1.379 . S
C1894 N1902 1.356 . S
C1895 C1894 1.363 . S
C1895 C1901 1.363 . S
C1896 C1897 1.363 . S
C1896 C1901 1.379 . S
C1896 N1903 1.356 . S
C1897 C1896 1.363 . S
C1897 C1900 1.363 . S
N1898 C1900 1.356 . S
N1898 H1910 0.984 . S
N1898 H1911 0.985 . S
N1899 C1901 1.358 . S
N1899 H1904 0.981 1_655 S
N1899 H1905 0.986 . S
C1900 C1894 1.379 . S
C1900 C1897 1.363 . S
C1900 N1898 1.356 . S
C1901 C1895 1.363 . S
C1901 C1896 1.379 . S
C1901 N1899 1.358 . S
N1902 C1894 1.356 . S
N1902 H1908 0.984 . S
N1902 H1909 0.984 1_655 S
N1903 C1896 1.356 . S
N1903 H1906 0.984 . S
N1903 H1907 0.985 . S
H1904 N1899 0.981 1_455 S
H1905 N1899 0.986 . S
H1906 N1903 0.984 . S
H1907 N1903 0.985 . S
H1908 N1902 0.984 . S
H1909 N1902 0.984 1_455 S
H1910 N1898 0.984 . S
H1911 N1898 0.985 . S
C1912 C1913 1.363 . S
C1912 C1918 1.379 . S
C1912 N1920 1.356 . S
C1913 C1912 1.363 . S
C1913 C1919 1.363 . S
C1914 C1915 1.363 . S
C1914 C1919 1.379 . S
C1914 N1921 1.356 . S
C1915 C1914 1.363 . S
C1915 C1918 1.363 . S
N1916 C1918 1.356 . S
N1916 H1928 0.984 . S
N1916 H1929 0.985 . S
N1917 C1919 1.356 . S
N1917 H1922 0.984 . S
N1917 H1923 0.985 . S
C1918 C1912 1.379 . S
C1918 C1915 1.363 . S
C1918 N1916 1.356 . S
C1919 C1913 1.363 . S
C1919 C1914 1.379 . S
C1919 N1917 1.356 . S
N1920 C1912 1.356 . S
N1920 H1926 0.984 . S
N1920 H1927 0.984 . S
N1921 C1914 1.356 . S
N1921 H1924 0.984 . S
N1921 H1925 0.985 . S
H1922 N1917 0.984 . S
H1923 N1917 0.985 . S
H1924 N1921 0.984 . S
H1925 N1921 0.985 . S
H1926 N1920 0.984 . S
H1927 N1920 0.984 . S
H1928 N1916 0.984 . S
H1929 N1916 0.985 . S
C1930 C1931 1.363 . S
C1930 C1936 1.379 . S
C1930 N1938 1.356 . S
C1931 C1930 1.363 . S
C1931 C1937 1.363 . S
C1932 C1933 1.363 . S
C1932 C1937 1.379 . S
C1932 N1939 1.356 . S
C1933 C1932 1.363 . S
C1933 C1936 1.363 . S
N1934 C1936 1.356 . S
N1934 H1946 0.984 . S
N1934 H1947 0.985 . S
N1935 C1937 1.356 . S
N1935 H1940 0.984 . S
N1935 H1941 0.985 . S
C1936 C1930 1.379 . S
C1936 C1933 1.363 . S
C1936 N1934 1.356 . S
C1937 C1931 1.363 . S
C1937 C1932 1.379 . S
C1937 N1935 1.356 . S
N1938 C1930 1.356 . S
N1938 H1944 0.984 . S
N1938 H1945 0.984 . S
N1939 C1932 1.356 . S
N1939 H1942 0.984 . S
N1939 H1943 0.985 . S
H1940 N1935 0.984 . S
H1941 N1935 0.985 . S
H1942 N1939 0.984 . S
H1943 N1939 0.985 . S
H1944 N1938 0.984 . S
H1945 N1938 0.984 . S
H1946 N1934 0.984 . S
H1947 N1934 0.985 . S
C1948 C1949 1.363 . S
C1948 C1954 1.379 . S
C1948 N1956 1.356 . S
C1949 C1948 1.363 . S
C1949 C1955 1.363 . S
C1950 C1951 1.363 . S
C1950 C1955 1.379 . S
C1950 N1957 1.356 . S
C1951 C1950 1.363 . S
C1951 C1954 1.363 . S
N1952 C1954 1.356 . S
N1952 H1964 0.984 . S
N1952 H1965 0.985 . S
N1953 C1955 1.356 . S
N1953 H1958 0.984 . S
N1953 H1959 0.985 . S
C1954 C1948 1.379 . S
C1954 C1951 1.363 . S
C1954 N1952 1.356 . S
C1955 C1949 1.363 . S
C1955 C1950 1.379 . S
C1955 N1953 1.356 . S
N1956 C1948 1.356 . S
N1956 H1962 0.984 . S
N1956 H1963 0.984 . S
N1957 C1950 1.356 . S
N1957 H1960 0.984 . S
N1957 H1961 0.985 . S
H1958 N1953 0.984 . S
H1959 N1953 0.985 . S
H1960 N1957 0.984 . S
H1961 N1957 0.985 . S
H1962 N1956 0.984 . S
H1963 N1956 0.984 . S
H1964 N1952 0.984 . S
H1965 N1952 0.985 . S
C1966 C1967 1.363 . S
C1966 C1972 1.379 . S
C1966 N1974 1.356 . S
C1967 C1966 1.363 . S
C1967 C1973 1.363 . S
C1968 C1969 1.363 . S
C1968 C1973 1.379 . S
C1968 N1975 1.356 . S
C1969 C1968 1.363 . S
C1969 C1972 1.363 . S
N1970 C1972 1.356 . S
N1970 H1982 0.984 . S
N1970 H1983 0.985 . S
N1971 C1973 1.356 . S
N1971 H1976 0.984 . S
N1971 H1977 0.985 . S
C1972 C1966 1.379 . S
C1972 C1969 1.363 . S
C1972 N1970 1.356 . S
C1973 C1967 1.363 . S
C1973 C1968 1.379 . S
C1973 N1971 1.356 . S
N1974 C1966 1.356 . S
N1974 H1980 0.984 . S
N1974 H1981 0.984 . S
N1975 C1968 1.356 . S
N1975 H1978 0.984 . S
N1975 H1979 0.985 . S
H1976 N1971 0.984 . S
H1977 N1971 0.985 . S
H1978 N1975 0.984 . S
H1979 N1975 0.985 . S
H1980 N1974 0.984 . S
H1981 N1974 0.984 . S
H1982 N1970 0.984 . S
H1983 N1970 0.985 . S
C1984 C1985 1.363 . S
C1984 C1990 1.379 . S
C1984 N1992 1.356 . S
C1985 C1984 1.363 . S
C1985 C1991 1.363 . S
C1986 C1987 1.363 . S
C1986 C1991 1.379 . S
C1986 N1993 1.356 . S
C1987 C1986 1.363 . S
C1987 C1990 1.363 . S
N1988 C1990 1.356 . S
N1988 H2000 0.984 . S
N1988 H2001 0.985 . S
N1989 C1991 1.356 . S
N1989 H1994 0.984 . S
N1989 H1995 0.985 . S
C1990 C1984 1.379 . S
C1990 C1987 1.363 . S
C1990 N1988 1.356 . S
C1991 C1985 1.363 . S
C1991 C1986 1.379 . S
C1991 N1989 1.356 . S
N1992 C1984 1.356 . S
N1992 H1998 0.984 . S
N1992 H1999 0.984 . S
N1993 C1986 1.356 . S
N1993 H1996 0.984 . S
N1993 H1997 0.985 . S
H1994 N1989 0.984 . S
H1995 N1989 0.985 . S
H1996 N1993 0.984 . S
H1997 N1993 0.985 . S
H1998 N1992 0.984 . S
H1999 N1992 0.984 . S
H2000 N1988 0.984 . S
H2001 N1988 0.985 . S
C2002 C2003 1.363 . S
C2002 C2008 1.379 . S
C2002 N2010 1.356 . S
C2003 C2002 1.363 . S
C2003 C2009 1.363 . S
C2004 C2005 1.363 . S
C2004 C2009 1.379 . S
C2004 N2011 1.356 . S
C2005 C2004 1.363 . S
C2005 C2008 1.363 . S
N2006 C2008 1.356 . S
N2006 H2018 0.984 . S
N2006 H2019 0.985 . S
N2007 C2009 1.356 . S
N2007 H2012 0.984 . S
N2007 H2013 0.985 . S
C2008 C2002 1.379 . S
C2008 C2005 1.363 . S
C2008 N2006 1.356 . S
C2009 C2003 1.363 . S
C2009 C2004 1.379 . S
C2009 N2007 1.356 . S
N2010 C2002 1.356 . S
N2010 H2016 0.984 . S
N2010 H2017 0.984 . S
N2011 C2004 1.356 . S
N2011 H2014 0.984 . S
N2011 H2015 0.985 . S
H2012 N2007 0.984 . S
H2013 N2007 0.985 . S
H2014 N2011 0.984 . S
H2015 N2011 0.985 . S
H2016 N2010 0.984 . S
H2017 N2010 0.984 . S
H2018 N2006 0.984 . S
H2019 N2006 0.985 . S
C2020 C2021 1.363 . S
C2020 C2026 1.379 . S
C2020 N2028 1.356 . S
C2021 C2020 1.363 . S
C2021 C2027 1.363 . S
C2022 C2023 1.363 . S
C2022 C2027 1.379 . S
C2022 N2029 1.356 . S
C2023 C2022 1.363 . S
C2023 C2026 1.363 . S
N2024 C2026 1.356 . S
N2024 H2036 0.984 . S
N2024 H2037 0.985 . S
N2025 C2027 1.356 . S
N2025 H2030 0.984 . S
N2025 H2031 0.985 . S
C2026 C2020 1.379 . S
C2026 C2023 1.363 . S
C2026 N2024 1.356 . S
C2027 C2021 1.363 . S
C2027 C2022 1.379 . S
C2027 N2025 1.356 . S
N2028 C2020 1.356 . S
N2028 H2034 0.984 . S
N2028 H2035 0.984 . S
N2029 C2022 1.356 . S
N2029 H2032 0.984 . S
N2029 H2033 0.985 . S
H2030 N2025 0.984 . S
H2031 N2025 0.985 . S
H2032 N2029 0.984 . S
H2033 N2029 0.985 . S
H2034 N2028 0.984 . S
H2035 N2028 0.984 . S
H2036 N2024 0.984 . S
H2037 N2024 0.985 . S
C2038 C2039 1.363 . S
C2038 C2044 1.379 . S
C2038 N2046 1.356 . S
C2039 C2038 1.363 . S
C2039 C2045 1.363 . S
C2040 C2041 1.363 . S
C2040 C2045 1.379 . S
C2040 N2047 1.356 . S
C2041 C2040 1.363 . S
C2041 C2044 1.363 . S
N2042 C2044 1.356 . S
N2042 H2054 0.984 . S
N2042 H2055 0.985 . S
N2043 C2045 1.356 . S
N2043 H2048 0.984 . S
N2043 H2049 0.985 . S
C2044 C2038 1.379 . S
C2044 C2041 1.363 . S
C2044 N2042 1.356 . S
C2045 C2039 1.363 . S
C2045 C2040 1.379 . S
C2045 N2043 1.356 . S
N2046 C2038 1.356 . S
N2046 H2052 0.984 . S
N2046 H2053 0.984 . S
N2047 C2040 1.356 . S
N2047 H2050 0.984 . S
N2047 H2051 0.985 . S
H2048 N2043 0.984 . S
H2049 N2043 0.985 . S
H2050 N2047 0.984 . S
H2051 N2047 0.985 . S
H2052 N2046 0.984 . S
H2053 N2046 0.984 . S
H2054 N2042 0.984 . S
H2055 N2042 0.985 . S
C2056 C2057 1.363 . S
C2056 C2062 1.379 . S
C2056 N2064 1.356 . S
C2057 C2056 1.363 . S
C2057 C2063 1.363 . S
C2058 C2059 1.363 1_556 S
C2058 C2063 1.379 . S
C2058 N2065 1.357 . S
C2059 C2058 1.363 1_554 S
C2059 C2062 1.363 1_554 S
N2060 C2062 1.356 1_554 S
N2060 H2072 0.984 . S
N2060 H2073 0.985 . S
N2061 C2063 1.356 . S
N2061 H2066 0.984 . S
N2061 H2067 0.985 . S
C2062 C2056 1.379 . S
C2062 C2059 1.363 1_556 S
C2062 N2060 1.356 1_556 S
C2063 C2057 1.363 . S
C2063 C2058 1.379 . S
C2063 N2061 1.356 . S
N2064 C2056 1.356 . S
N2064 H2070 0.984 . S
N2064 H2071 0.984 . S
N2065 C2058 1.357 . S
N2065 H2068 0.983 1_556 S
N2065 H2069 0.985 . S
H2066 N2061 0.984 . S
H2067 N2061 0.985 . S
H2068 N2065 0.983 1_554 S
H2069 N2065 0.985 . S
H2070 N2064 0.984 . S
H2071 N2064 0.984 . S
H2072 N2060 0.984 . S
H2073 N2060 0.985 . S
C2074 C2075 1.363 . S
C2074 C2080 1.379 . S
C2074 N2082 1.356 . S
C2075 C2074 1.363 . S
C2075 C2081 1.363 . S
C2076 C2077 1.363 . S
C2076 C2081 1.379 . S
C2076 N2083 1.356 . S
C2077 C2076 1.363 . S
C2077 C2080 1.363 . S
N2078 C2080 1.356 . S
N2078 H2090 0.984 . S
N2078 H2091 0.985 . S
N2079 C2081 1.356 . S
N2079 H2084 0.984 . S
N2079 H2085 0.985 . S
C2080 C2074 1.379 . S
C2080 C2077 1.363 . S
C2080 N2078 1.356 . S
C2081 C2075 1.363 . S
C2081 C2076 1.379 . S
C2081 N2079 1.356 . S
N2082 C2074 1.356 . S
N2082 H2088 0.984 . S
N2082 H2089 0.984 . S
N2083 C2076 1.356 . S
N2083 H2086 0.984 . S
N2083 H2087 0.985 . S
H2084 N2079 0.984 . S
H2085 N2079 0.985 . S
H2086 N2083 0.984 . S
H2087 N2083 0.985 . S
H2088 N2082 0.984 . S
H2089 N2082 0.984 . S
H2090 N2078 0.984 . S
H2091 N2078 0.985 . S
C2092 C2093 1.363 . S
C2092 C2098 1.379 . S
C2092 N2100 1.356 . S
C2093 C2092 1.363 . S
C2093 C2099 1.363 . S
C2094 C2095 1.363 . S
C2094 C2099 1.379 . S
C2094 N2101 1.356 . S
C2095 C2094 1.363 . S
C2095 C2098 1.363 . S
N2096 C2098 1.356 . S
N2096 H2108 0.984 . S
N2096 H2109 0.985 . S
N2097 C2099 1.356 . S
N2097 H2102 0.984 . S
N2097 H2103 0.985 . S
C2098 C2092 1.379 . S
C2098 C2095 1.363 . S
C2098 N2096 1.356 . S
C2099 C2093 1.363 . S
C2099 C2094 1.379 . S
C2099 N2097 1.356 . S
N2100 C2092 1.356 . S
N2100 H2106 0.984 . S
N2100 H2107 0.984 . S
N2101 C2094 1.356 . S
N2101 H2104 0.984 . S
N2101 H2105 0.985 . S
H2102 N2097 0.984 . S
H2103 N2097 0.985 . S
H2104 N2101 0.984 . S
H2105 N2101 0.985 . S
H2106 N2100 0.984 . S
H2107 N2100 0.984 . S
H2108 N2096 0.984 . S
H2109 N2096 0.985 . S
C2110 C2111 1.363 . S
C2110 C2116 1.379 . S
C2110 N2118 1.356 . S
C2111 C2110 1.363 . S
C2111 C2117 1.363 . S
C2112 C2113 1.363 . S
C2112 C2117 1.379 . S
C2112 N2119 1.356 . S
C2113 C2112 1.363 . S
C2113 C2116 1.363 . S
N2114 C2116 1.356 . S
N2114 H2126 0.984 . S
N2114 H2127 0.985 . S
N2115 C2117 1.356 . S
N2115 H2120 0.984 . S
N2115 H2121 0.985 . S
C2116 C2110 1.379 . S
C2116 C2113 1.363 . S
C2116 N2114 1.356 . S
C2117 C2111 1.363 . S
C2117 C2112 1.379 . S
C2117 N2115 1.356 . S
N2118 C2110 1.356 . S
N2118 H2124 0.984 . S
N2118 H2125 0.984 . S
N2119 C2112 1.356 . S
N2119 H2122 0.984 . S
N2119 H2123 0.985 . S
H2120 N2115 0.984 . S
H2121 N2115 0.985 . S
H2122 N2119 0.984 . S
H2123 N2119 0.985 . S
H2124 N2118 0.984 . S
H2125 N2118 0.984 . S
H2126 N2114 0.984 . S
H2127 N2114 0.985 . S
C2128 C2129 1.363 . S
C2128 C2134 1.379 . S
C2128 N2136 1.356 . S
C2129 C2128 1.363 . S
C2129 C2135 1.363 . S
C2130 C2131 1.363 . S
C2130 C2135 1.379 . S
C2130 N2137 1.356 . S
C2131 C2130 1.363 . S
C2131 C2134 1.363 . S
N2132 C2134 1.356 . S
N2132 H2144 0.984 . S
N2132 H2145 0.985 . S
N2133 C2135 1.356 . S
N2133 H2138 0.984 . S
N2133 H2139 0.985 . S
C2134 C2128 1.379 . S
C2134 C2131 1.363 . S
C2134 N2132 1.356 . S
C2135 C2129 1.363 . S
C2135 C2130 1.379 . S
C2135 N2133 1.356 . S
N2136 C2128 1.356 . S
N2136 H2142 0.984 . S
N2136 H2143 0.984 . S
N2137 C2130 1.356 . S
N2137 H2140 0.984 . S
N2137 H2141 0.985 . S
H2138 N2133 0.984 . S
H2139 N2133 0.985 . S
H2140 N2137 0.984 . S
H2141 N2137 0.985 . S
H2142 N2136 0.984 . S
H2143 N2136 0.984 . S
H2144 N2132 0.984 . S
H2145 N2132 0.985 . S
C2146 C2147 1.363 . S
C2146 C2152 1.379 . S
C2146 N2154 1.356 . S
C2147 C2146 1.363 . S
C2147 C2153 1.363 . S
C2148 C2149 1.363 . S
C2148 C2153 1.379 . S
C2148 N2155 1.356 . S
C2149 C2148 1.363 . S
C2149 C2152 1.363 . S
N2150 C2152 1.356 . S
N2150 H2162 0.984 . S
N2150 H2163 0.985 . S
N2151 C2153 1.356 . S
N2151 H2156 0.984 . S
N2151 H2157 0.985 . S
C2152 C2146 1.379 . S
C2152 C2149 1.363 . S
C2152 N2150 1.356 . S
C2153 C2147 1.363 . S
C2153 C2148 1.379 . S
C2153 N2151 1.356 . S
N2154 C2146 1.356 . S
N2154 H2160 0.984 . S
N2154 H2161 0.984 . S
N2155 C2148 1.356 . S
N2155 H2158 0.984 . S
N2155 H2159 0.985 . S
H2156 N2151 0.984 . S
H2157 N2151 0.985 . S
H2158 N2155 0.984 . S
H2159 N2155 0.985 . S
H2160 N2154 0.984 . S
H2161 N2154 0.984 . S
H2162 N2150 0.984 . S
H2163 N2150 0.985 . S
C2164 C2165 1.363 . S
C2164 C2170 1.379 . S
C2164 N2172 1.356 1_565 S
C2165 C2164 1.363 . S
C2165 C2171 1.363 . S
C2166 C2167 1.363 . S
C2166 C2171 1.379 . S
C2166 N2173 1.356 . S
C2167 C2166 1.363 . S
C2167 C2170 1.363 . S
N2168 C2170 1.356 . S
N2168 H2180 0.984 . S
N2168 H2181 0.985 . S
N2169 C2171 1.356 . S
N2169 H2174 0.984 . S
N2169 H2175 0.985 . S
C2170 C2164 1.379 . S
C2170 C2167 1.363 . S
C2170 N2168 1.356 . S
C2171 C2165 1.363 . S
C2171 C2166 1.379 . S
C2171 N2169 1.356 . S
N2172 C2164 1.356 1_545 S
N2172 H2178 0.984 . S
N2172 H2179 0.984 . S
N2173 C2166 1.356 . S
N2173 H2176 0.984 . S
N2173 H2177 0.985 . S
H2174 N2169 0.984 . S
H2175 N2169 0.985 . S
H2176 N2173 0.984 . S
H2177 N2173 0.985 . S
H2178 N2172 0.984 . S
H2179 N2172 0.984 . S
H2180 N2168 0.984 . S
H2181 N2168 0.985 . S
C2182 C2183 1.363 . S
C2182 C2188 1.379 . S
C2182 N2190 1.356 . S
C2183 C2182 1.363 . S
C2183 C2189 1.363 . S
C2184 C2185 1.363 . S
C2184 C2189 1.379 . S
C2184 N2191 1.356 . S
C2185 C2184 1.363 . S
C2185 C2188 1.363 . S
N2186 C2188 1.356 . S
N2186 H2198 0.984 . S
N2186 H2199 0.985 . S
N2187 C2189 1.356 1_556 S
N2187 H2192 0.984 . S
N2187 H2193 0.985 . S
C2188 C2182 1.379 . S
C2188 C2185 1.363 . S
C2188 N2186 1.356 . S
C2189 C2183 1.363 . S
C2189 C2184 1.379 . S
C2189 N2187 1.356 1_554 S
N2190 C2182 1.356 . S
N2190 H2196 0.984 . S
N2190 H2197 0.984 . S
N2191 C2184 1.356 . S
N2191 H2194 0.984 . S
N2191 H2195 0.985 1_554 S
H2192 N2187 0.984 . S
H2193 N2187 0.985 . S
H2194 N2191 0.984 . S
H2195 N2191 0.985 1_556 S
H2196 N2190 0.984 . S
H2197 N2190 0.984 . S
H2198 N2186 0.984 . S
H2199 N2186 0.985 . S
C2200 C2201 1.363 . S
C2200 C2206 1.379 . S
C2200 N2208 1.356 . S
C2201 C2200 1.363 . S
C2201 C2207 1.363 . S
C2202 C2203 1.363 . S
C2202 C2207 1.379 . S
C2202 N2209 1.356 . S
C2203 C2202 1.363 . S
C2203 C2206 1.363 . S
N2204 C2206 1.356 . S
N2204 H2216 0.984 . S
N2204 H2217 0.985 . S
N2205 C2207 1.356 . S
N2205 H2210 0.984 . S
N2205 H2211 0.985 . S
C2206 C2200 1.379 . S
C2206 C2203 1.363 . S
C2206 N2204 1.356 . S
C2207 C2201 1.363 . S
C2207 C2202 1.379 . S
C2207 N2205 1.356 . S
N2208 C2200 1.356 . S
N2208 H2214 0.984 . S
N2208 H2215 0.984 . S
N2209 C2202 1.356 . S
N2209 H2212 0.984 . S
N2209 H2213 0.985 . S
H2210 N2205 0.984 . S
H2211 N2205 0.985 . S
H2212 N2209 0.984 . S
H2213 N2209 0.985 . S
H2214 N2208 0.984 . S
H2215 N2208 0.984 . S
H2216 N2204 0.984 . S
H2217 N2204 0.985 . S
C2218 C2219 1.363 . S
C2218 C2224 1.379 . S
C2218 N2226 1.356 . S
C2219 C2218 1.363 . S
C2219 C2225 1.363 . S
C2220 C2221 1.363 . S
C2220 C2225 1.379 . S
C2220 N2227 1.356 . S
C2221 C2220 1.363 . S
C2221 C2224 1.363 . S
N2222 C2224 1.356 . S
N2222 H2234 0.984 . S
N2222 H2235 0.985 . S
N2223 C2225 1.356 . S
N2223 H2228 0.984 . S
N2223 H2229 0.985 . S
C2224 C2218 1.379 . S
C2224 C2221 1.363 . S
C2224 N2222 1.356 . S
C2225 C2219 1.363 . S
C2225 C2220 1.379 . S
C2225 N2223 1.356 . S
N2226 C2218 1.356 . S
N2226 H2232 0.984 . S
N2226 H2233 0.984 . S
N2227 C2220 1.356 . S
N2227 H2230 0.984 . S
N2227 H2231 0.985 . S
H2228 N2223 0.984 . S
H2229 N2223 0.985 . S
H2230 N2227 0.984 . S
H2231 N2227 0.985 . S
H2232 N2226 0.984 . S
H2233 N2226 0.984 . S
H2234 N2222 0.984 . S
H2235 N2222 0.985 . S
C2236 C2237 1.363 . S
C2236 C2242 1.379 . S
C2236 N2244 1.356 . S
C2237 C2236 1.363 . S
C2237 C2243 1.363 . S
C2238 C2239 1.363 . S
C2238 C2243 1.379 . S
C2238 N2245 1.356 . S
C2239 C2238 1.363 . S
C2239 C2242 1.363 . S
N2240 C2242 1.356 . S
N2240 H2252 0.984 . S
N2240 H2253 0.985 . S
N2241 C2243 1.356 . S
N2241 H2246 0.984 . S
N2241 H2247 0.985 . S
C2242 C2236 1.379 . S
C2242 C2239 1.363 . S
C2242 N2240 1.356 . S
C2243 C2237 1.363 . S
C2243 C2238 1.379 . S
C2243 N2241 1.356 . S
N2244 C2236 1.356 . S
N2244 H2250 0.984 . S
N2244 H2251 0.984 . S
N2245 C2238 1.356 . S
N2245 H2248 0.984 . S
N2245 H2249 0.985 . S
H2246 N2241 0.984 . S
H2247 N2241 0.985 . S
H2248 N2245 0.984 . S
H2249 N2245 0.985 . S
H2250 N2244 0.984 . S
H2251 N2244 0.984 . S
H2252 N2240 0.984 . S
H2253 N2240 0.985 . S
C2254 C2255 1.363 . S
C2254 C2260 1.379 . S
C2254 N2262 1.356 . S
C2255 C2254 1.363 . S
C2255 C2261 1.363 . S
C2256 C2257 1.363 . S
C2256 C2261 1.379 . S
C2256 N2263 1.356 . S
C2257 C2256 1.363 . S
C2257 C2260 1.363 . S
N2258 C2260 1.356 . S
N2258 H2270 0.984 . S
N2258 H2271 0.985 . S
N2259 C2261 1.356 . S
N2259 H2264 0.984 . S
N2259 H2265 0.985 . S
C2260 C2254 1.379 . S
C2260 C2257 1.363 . S
C2260 N2258 1.356 . S
C2261 C2255 1.363 . S
C2261 C2256 1.379 . S
C2261 N2259 1.356 . S
N2262 C2254 1.356 . S
N2262 H2268 0.984 . S
N2262 H2269 0.984 . S
N2263 C2256 1.356 . S
N2263 H2266 0.984 . S
N2263 H2267 0.985 . S
H2264 N2259 0.984 . S
H2265 N2259 0.985 . S
H2266 N2263 0.984 . S
H2267 N2263 0.985 . S
H2268 N2262 0.984 . S
H2269 N2262 0.984 . S
H2270 N2258 0.984 . S
H2271 N2258 0.985 . S
C2272 C2273 1.363 . S
C2272 C2278 1.379 . S
C2272 N2280 1.356 . S
C2273 C2272 1.363 . S
C2273 C2279 1.363 . S
C2274 C2275 1.363 . S
C2274 C2279 1.379 . S
C2274 N2281 1.356 . S
C2275 C2274 1.363 . S
C2275 C2278 1.363 . S
N2276 C2278 1.356 . S
N2276 H2288 0.984 . S
N2276 H2289 0.985 . S
N2277 C2279 1.356 . S
N2277 H2282 0.984 . S
N2277 H2283 0.985 . S
C2278 C2272 1.379 . S
C2278 C2275 1.363 . S
C2278 N2276 1.356 . S
C2279 C2273 1.363 . S
C2279 C2274 1.379 . S
C2279 N2277 1.356 . S
N2280 C2272 1.356 . S
N2280 H2286 0.984 . S
N2280 H2287 0.984 . S
N2281 C2274 1.356 . S
N2281 H2284 0.984 . S
N2281 H2285 0.985 . S
H2282 N2277 0.984 . S
H2283 N2277 0.985 . S
H2284 N2281 0.984 . S
H2285 N2281 0.985 . S
H2286 N2280 0.984 . S
H2287 N2280 0.984 . S
H2288 N2276 0.984 . S
H2289 N2276 0.985 . S
C2290 C2291 1.363 . S
C2290 C2296 1.379 . S
C2290 N2298 1.356 . S
C2291 C2290 1.363 . S
C2291 C2297 1.363 . S
C2292 C2293 1.363 . S
C2292 C2297 1.379 . S
C2292 N2299 1.356 . S
C2293 C2292 1.363 . S
C2293 C2296 1.363 . S
N2294 C2296 1.356 . S
N2294 H2306 0.984 . S
N2294 H2307 0.985 . S
N2295 C2297 1.356 . S
N2295 H2300 0.984 . S
N2295 H2301 0.985 . S
C2296 C2290 1.379 . S
C2296 C2293 1.363 . S
C2296 N2294 1.356 . S
C2297 C2291 1.363 . S
C2297 C2292 1.379 . S
C2297 N2295 1.356 . S
N2298 C2290 1.356 . S
N2298 H2304 0.984 . S
N2298 H2305 0.984 . S
N2299 C2292 1.356 . S
N2299 H2302 0.984 . S
N2299 H2303 0.985 . S
H2300 N2295 0.984 . S
H2301 N2295 0.985 . S
H2302 N2299 0.984 . S
H2303 N2299 0.985 . S
H2304 N2298 0.984 . S
H2305 N2298 0.984 . S
H2306 N2294 0.984 . S
H2307 N2294 0.985 . S
C2308 C2309 1.363 . S
C2308 C2314 1.379 . S
C2308 N2316 1.356 . S
C2309 C2308 1.363 . S
C2309 C2315 1.363 . S
C2310 C2311 1.363 . S
C2310 C2315 1.379 . S
C2310 N2317 1.356 . S
C2311 C2310 1.363 . S
C2311 C2314 1.363 . S
N2312 C2314 1.356 . S
N2312 H2324 0.984 . S
N2312 H2325 0.985 . S
N2313 C2315 1.356 . S
N2313 H2318 0.984 . S
N2313 H2319 0.985 . S
C2314 C2308 1.379 . S
C2314 C2311 1.363 . S
C2314 N2312 1.356 . S
C2315 C2309 1.363 . S
C2315 C2310 1.379 . S
C2315 N2313 1.356 . S
N2316 C2308 1.356 . S
N2316 H2322 0.984 . S
N2316 H2323 0.984 . S
N2317 C2310 1.356 . S
N2317 H2320 0.984 . S
N2317 H2321 0.985 . S
H2318 N2313 0.984 . S
H2319 N2313 0.985 . S
H2320 N2317 0.984 . S
H2321 N2317 0.985 . S
H2322 N2316 0.984 . S
H2323 N2316 0.984 . S
H2324 N2312 0.984 . S
H2325 N2312 0.985 . S
C2326 C2327 1.363 . S
C2326 C2332 1.379 . S
C2326 N2334 1.356 . S
C2327 C2326 1.363 . S
C2327 C2333 1.363 . S
C2328 C2329 1.363 . S
C2328 C2333 1.379 . S
C2328 N2335 1.356 . S
C2329 C2328 1.363 . S
C2329 C2332 1.363 . S
N2330 C2332 1.356 . S
N2330 H2342 0.984 . S
N2330 H2343 0.985 . S
N2331 C2333 1.356 . S
N2331 H2336 0.984 . S
N2331 H2337 0.985 . S
C2332 C2326 1.379 . S
C2332 C2329 1.363 . S
C2332 N2330 1.356 . S
C2333 C2327 1.363 . S
C2333 C2328 1.379 . S
C2333 N2331 1.356 . S
N2334 C2326 1.356 . S
N2334 H2340 0.984 . S
N2334 H2341 0.984 . S
N2335 C2328 1.356 . S
N2335 H2338 0.984 . S
N2335 H2339 0.985 . S
H2336 N2331 0.984 . S
H2337 N2331 0.985 . S
H2338 N2335 0.984 . S
H2339 N2335 0.985 . S
H2340 N2334 0.984 . S
H2341 N2334 0.984 . S
H2342 N2330 0.984 . S
H2343 N2330 0.985 . S
C2344 C2345 1.363 . S
C2344 C2350 1.379 1_556 S
C2344 N2352 1.356 . S
C2345 C2344 1.363 . S
C2345 C2351 1.363 . S
C2346 C2347 1.363 1_556 S
C2346 C2351 1.379 . S
C2346 N2353 1.356 . S
C2347 C2346 1.363 1_554 S
C2347 C2350 1.363 . S
N2348 C2350 1.356 . S
N2348 H2360 0.984 . S
N2348 H2361 0.985 . S
N2349 C2351 1.356 . S
N2349 H2354 0.984 . S
N2349 H2355 0.985 . S
C2350 C2344 1.379 1_554 S
C2350 C2347 1.363 . S
C2350 N2348 1.356 . S
C2351 C2345 1.363 . S
C2351 C2346 1.379 . S
C2351 N2349 1.356 . S
N2352 C2344 1.356 . S
N2352 H2358 0.984 1_556 S
N2352 H2359 0.984 . S
N2353 C2346 1.356 . S
N2353 H2356 0.984 . S
N2353 H2357 0.985 . S
H2354 N2349 0.984 . S
H2355 N2349 0.985 . S
H2356 N2353 0.984 . S
H2357 N2353 0.985 . S
H2358 N2352 0.984 1_554 S
H2359 N2352 0.984 . S
H2360 N2348 0.984 . S
H2361 N2348 0.985 . S
C2362 C2363 1.363 . S
C2362 C2368 1.379 . S
C2362 N2370 1.356 . S
C2363 C2362 1.363 . S
C2363 C2369 1.363 . S
C2364 C2365 1.363 . S
C2364 C2369 1.379 . S
C2364 N2371 1.356 . S
C2365 C2364 1.363 . S
C2365 C2368 1.363 . S
N2366 C2368 1.356 . S
N2366 H2378 0.984 . S
N2366 H2379 0.985 . S
N2367 C2369 1.356 . S
N2367 H2372 0.984 . S
N2367 H2373 0.985 . S
C2368 C2362 1.379 . S
C2368 C2365 1.363 . S
C2368 N2366 1.356 . S
C2369 C2363 1.363 . S
C2369 C2364 1.379 . S
C2369 N2367 1.356 . S
N2370 C2362 1.356 . S
N2370 H2376 0.984 . S
N2370 H2377 0.984 . S
N2371 C2364 1.356 . S
N2371 H2374 0.984 . S
N2371 H2375 0.985 . S
H2372 N2367 0.984 . S
H2373 N2367 0.985 . S
H2374 N2371 0.984 . S
H2375 N2371 0.985 . S
H2376 N2370 0.984 . S
H2377 N2370 0.984 . S
H2378 N2366 0.984 . S
H2379 N2366 0.985 . S
C2380 C2381 1.376 . S
C2380 C2386 1.377 . S
C2380 N2388 1.349 1_455 S
C2381 C2380 1.376 . S
C2381 C2387 1.363 . S
C2382 C2383 1.363 . S
C2382 C2387 1.379 . S
C2382 N2389 1.356 . S
C2383 C2382 1.363 . S
C2383 C2386 1.363 . S
N2384 C2386 1.365 . S
N2384 H2396 0.974 1_455 S
N2384 H2397 0.986 . S
N2385 C2387 1.356 . S
N2385 H2390 0.984 . S
N2385 H2391 0.985 . S
C2386 C2380 1.377 . S
C2386 C2383 1.363 . S
C2386 N2384 1.365 . S
C2387 C2381 1.363 . S
C2387 C2382 1.379 . S
C2387 N2385 1.356 . S
N2388 C2380 1.349 1_655 S
N2388 H2394 0.984 . S
N2388 H2395 0.984 . S
N2389 C2382 1.356 . S
N2389 H2392 0.984 . S
N2389 H2393 0.985 . S
H2390 N2385 0.984 . S
H2391 N2385 0.985 . S
H2392 N2389 0.984 . S
H2393 N2389 0.985 . S
H2394 N2388 0.984 . S
H2395 N2388 0.984 . S
H2396 N2384 0.974 1_655 S
H2397 N2384 0.986 . S
C2398 C2399 1.363 . S
C2398 C2404 1.379 . S
C2398 N2406 1.356 . S
C2399 C2398 1.363 . S
C2399 C2405 1.363 . S
C2400 C2401 1.363 . S
C2400 C2405 1.379 . S
C2400 N2407 1.356 . S
C2401 C2400 1.363 . S
C2401 C2404 1.363 . S
N2402 C2404 1.356 . S
N2402 H2414 0.984 . S
N2402 H2415 0.985 . S
N2403 C2405 1.356 . S
N2403 H2408 0.984 . S
N2403 H2409 0.985 . S
C2404 C2398 1.379 . S
C2404 C2401 1.363 . S
C2404 N2402 1.356 . S
C2405 C2399 1.363 . S
C2405 C2400 1.379 . S
C2405 N2403 1.356 . S
N2406 C2398 1.356 . S
N2406 H2412 0.984 . S
N2406 H2413 0.984 . S
N2407 C2400 1.356 . S
N2407 H2410 0.984 . S
N2407 H2411 0.985 . S
H2408 N2403 0.984 . S
H2409 N2403 0.985 . S
H2410 N2407 0.984 . S
H2411 N2407 0.985 . S
H2412 N2406 0.984 . S
H2413 N2406 0.984 . S
H2414 N2402 0.984 . S
H2415 N2402 0.985 . S
C2416 C2417 1.363 . S
C2416 C2422 1.379 . S
C2416 N2424 1.356 . S
C2417 C2416 1.363 . S
C2417 C2423 1.363 . S
C2418 C2419 1.363 . S
C2418 C2423 1.379 . S
C2418 N2425 1.356 . S
C2419 C2418 1.363 . S
C2419 C2422 1.363 . S
N2420 C2422 1.356 . S
N2420 H2432 0.984 . S
N2420 H2433 0.985 . S
N2421 C2423 1.356 . S
N2421 H2426 0.984 . S
N2421 H2427 0.985 . S
C2422 C2416 1.379 . S
C2422 C2419 1.363 . S
C2422 N2420 1.356 . S
C2423 C2417 1.363 . S
C2423 C2418 1.379 . S
C2423 N2421 1.356 . S
N2424 C2416 1.356 . S
N2424 H2430 0.984 . S
N2424 H2431 0.984 . S
N2425 C2418 1.356 . S
N2425 H2428 0.984 . S
N2425 H2429 0.985 . S
H2426 N2421 0.984 . S
H2427 N2421 0.985 . S
H2428 N2425 0.984 . S
H2429 N2425 0.985 . S
H2430 N2424 0.984 . S
H2431 N2424 0.984 . S
H2432 N2420 0.984 . S
H2433 N2420 0.985 . S
C2434 C2435 1.363 . S
C2434 C2440 1.379 . S
C2434 N2442 1.356 . S
C2435 C2434 1.363 . S
C2435 C2441 1.363 . S
C2436 C2437 1.363 . S
C2436 C2441 1.379 . S
C2436 N2443 1.356 . S
C2437 C2436 1.363 . S
C2437 C2440 1.363 . S
N2438 C2440 1.356 . S
N2438 H2450 0.984 . S
N2438 H2451 0.985 . S
N2439 C2441 1.356 . S
N2439 H2444 0.984 . S
N2439 H2445 0.985 . S
C2440 C2434 1.379 . S
C2440 C2437 1.363 . S
C2440 N2438 1.356 . S
C2441 C2435 1.363 . S
C2441 C2436 1.379 . S
C2441 N2439 1.356 . S
N2442 C2434 1.356 . S
N2442 H2448 0.984 . S
N2442 H2449 0.984 . S
N2443 C2436 1.356 . S
N2443 H2446 0.984 . S
N2443 H2447 0.985 . S
H2444 N2439 0.984 . S
H2445 N2439 0.985 . S
H2446 N2443 0.984 . S
H2447 N2443 0.985 . S
H2448 N2442 0.984 . S
H2449 N2442 0.984 . S
H2450 N2438 0.984 . S
H2451 N2438 0.985 . S
C2452 C2453 1.363 . S
C2452 C2458 1.379 1_655 S
C2452 N2460 1.356 . S
C2453 C2452 1.363 . S
C2453 C2459 1.363 . S
C2454 C2455 1.361 1_656 S
C2454 C2459 1.401 . S
C2454 N2461 1.332 1_556 S
C2455 C2454 1.361 1_454 S
C2455 C2458 1.363 1_554 S
N2456 C2458 1.356 1_554 S
N2456 H2468 0.984 . S
N2456 H2469 0.985 . S
N2457 C2459 1.356 . S
N2457 H2462 0.984 . S
N2457 H2463 0.985 . S
C2458 C2452 1.379 1_455 S
C2458 C2455 1.363 1_556 S
C2458 N2456 1.356 1_556 S
C2459 C2453 1.363 . S
C2459 C2454 1.401 . S
C2459 N2457 1.356 . S
N2460 C2452 1.356 . S
N2460 H2466 0.984 1_655 S
N2460 H2467 0.984 . S
N2461 C2454 1.332 1_554 S
N2461 H2464 0.984 . S
N2461 H2465 0.985 . S
H2462 N2457 0.984 . S
H2463 N2457 0.985 . S
H2464 N2461 0.984 . S
H2465 N2461 0.985 . S
H2466 N2460 0.984 1_455 S
H2467 N2460 0.984 . S
H2468 N2456 0.984 . S
H2469 N2456 0.985 . S
C2470 C2471 1.363 . S
C2470 C2476 1.379 . S
C2470 N2478 1.356 . S
C2471 C2470 1.363 . S
C2471 C2477 1.363 . S
C2472 C2473 1.363 . S
C2472 C2477 1.379 . S
C2472 N2479 1.356 . S
C2473 C2472 1.363 . S
C2473 C2476 1.363 . S
N2474 C2476 1.356 . S
N2474 H2486 0.984 . S
N2474 H2487 0.985 . S
N2475 C2477 1.356 . S
N2475 H2480 0.984 . S
N2475 H2481 0.985 . S
C2476 C2470 1.379 . S
C2476 C2473 1.363 . S
C2476 N2474 1.356 . S
C2477 C2471 1.363 . S
C2477 C2472 1.379 . S
C2477 N2475 1.356 . S
N2478 C2470 1.356 . S
N2478 H2484 0.984 . S
N2478 H2485 0.984 . S
N2479 C2472 1.356 . S
N2479 H2482 0.984 . S
N2479 H2483 0.985 . S
H2480 N2475 0.984 . S
H2481 N2475 0.985 . S
H2482 N2479 0.984 . S
H2483 N2479 0.985 . S
H2484 N2478 0.984 . S
H2485 N2478 0.984 . S
H2486 N2474 0.984 . S
H2487 N2474 0.985 . S
C2488 C2489 1.363 . S
C2488 C2494 1.379 . S
C2488 N2496 1.356 . S
C2489 C2488 1.363 . S
C2489 C2495 1.363 . S
C2490 C2491 1.363 . S
C2490 C2495 1.379 . S
C2490 N2497 1.356 . S
C2491 C2490 1.363 . S
C2491 C2494 1.363 . S
N2492 C2494 1.356 . S
N2492 H2504 0.984 . S
N2492 H2505 0.985 . S
N2493 C2495 1.356 . S
N2493 H2498 0.984 . S
N2493 H2499 0.985 . S
C2494 C2488 1.379 . S
C2494 C2491 1.363 . S
C2494 N2492 1.356 . S
C2495 C2489 1.363 . S
C2495 C2490 1.379 . S
C2495 N2493 1.356 . S
N2496 C2488 1.356 . S
N2496 H2502 0.984 . S
N2496 H2503 0.984 . S
N2497 C2490 1.356 . S
N2497 H2500 0.984 . S
N2497 H2501 0.985 . S
H2498 N2493 0.984 . S
H2499 N2493 0.985 . S
H2500 N2497 0.984 . S
H2501 N2497 0.985 . S
H2502 N2496 0.984 . S
H2503 N2496 0.984 . S
H2504 N2492 0.984 . S
H2505 N2492 0.985 . S
C2506 C2507 1.363 . S
C2506 C2512 1.379 . S
C2506 N2514 1.356 . S
C2507 C2506 1.363 . S
C2507 C2513 1.363 . S
C2508 C2509 1.363 . S
C2508 C2513 1.379 . S
C2508 N2515 1.356 . S
C2509 C2508 1.363 . S
C2509 C2512 1.363 . S
N2510 C2512 1.356 . S
N2510 H2522 0.984 . S
N2510 H2523 0.985 . S
N2511 C2513 1.356 . S
N2511 H2516 0.984 . S
N2511 H2517 0.985 . S
C2512 C2506 1.379 . S
C2512 C2509 1.363 . S
C2512 N2510 1.356 . S
C2513 C2507 1.363 . S
C2513 C2508 1.379 . S
C2513 N2511 1.356 . S
N2514 C2506 1.356 . S
N2514 H2520 0.984 . S
N2514 H2521 0.984 . S
N2515 C2508 1.356 . S
N2515 H2518 0.984 . S
N2515 H2519 0.985 . S
H2516 N2511 0.984 . S
H2517 N2511 0.985 . S
H2518 N2515 0.984 . S
H2519 N2515 0.985 . S
H2520 N2514 0.984 . S
H2521 N2514 0.984 . S
H2522 N2510 0.984 . S
H2523 N2510 0.985 . S
C2524 C2525 1.363 . S
C2524 C2530 1.379 . S
C2524 N2532 1.356 . S
C2525 C2524 1.363 . S
C2525 C2531 1.363 . S
C2526 C2527 1.363 . S
C2526 C2531 1.379 . S
C2526 N2533 1.356 . S
C2527 C2526 1.363 . S
C2527 C2530 1.363 . S
N2528 C2530 1.356 . S
N2528 H2540 0.984 . S
N2528 H2541 0.988 . S
N2529 C2531 1.356 . S
N2529 H2534 0.984 . S
N2529 H2535 0.985 . S
C2530 C2524 1.379 . S
C2530 C2527 1.363 . S
C2530 N2528 1.356 . S
C2531 C2525 1.363 . S
C2531 C2526 1.379 . S
C2531 N2529 1.356 . S
N2532 C2524 1.356 . S
N2532 H2538 0.984 . S
N2532 H2539 0.984 . S
N2533 C2526 1.356 . S
N2533 H2536 0.984 . S
N2533 H2537 0.985 . S
H2534 N2529 0.984 . S
H2535 N2529 0.985 . S
H2536 N2533 0.984 . S
H2537 N2533 0.985 . S
H2538 N2532 0.984 . S
H2539 N2532 0.984 . S
H2540 N2528 0.984 . S
H2541 N2528 0.988 . S
C2542 C2543 1.363 . S
C2542 C2548 1.379 . S
C2542 N2550 1.356 . S
C2543 C2542 1.363 . S
C2543 C2549 1.363 . S
C2544 C2545 1.363 . S
C2544 C2549 1.379 . S
C2544 N2551 1.356 . S
C2545 C2544 1.363 . S
C2545 C2548 1.363 . S
N2546 C2548 1.356 . S
N2546 H2558 0.984 . S
N2546 H2559 0.985 . S
N2547 C2549 1.356 . S
N2547 H2552 0.984 . S
N2547 H2553 0.985 . S
C2548 C2542 1.379 . S
C2548 C2545 1.363 . S
C2548 N2546 1.356 . S
C2549 C2543 1.363 . S
C2549 C2544 1.379 . S
C2549 N2547 1.356 . S
N2550 C2542 1.356 . S
N2550 H2556 0.984 . S
N2550 H2557 0.984 . S
N2551 C2544 1.356 . S
N2551 H2554 0.984 . S
N2551 H2555 0.985 . S
H2552 N2547 0.984 . S
H2553 N2547 0.985 . S
H2554 N2551 0.984 . S
H2555 N2551 0.985 . S
H2556 N2550 0.984 . S
H2557 N2550 0.984 . S
H2558 N2546 0.984 . S
H2559 N2546 0.985 . S
C2560 C2561 1.363 . S
C2560 C2566 1.379 . S
C2560 N2568 1.356 . S
C2561 C2560 1.363 . S
C2561 C2567 1.363 . S
C2562 C2563 1.363 . S
C2562 C2567 1.379 . S
C2562 N2569 1.356 . S
C2563 C2562 1.363 . S
C2563 C2566 1.363 . S
N2564 C2566 1.356 . S
N2564 H2576 0.984 . S
N2564 H2577 0.985 . S
N2565 C2567 1.356 . S
N2565 H2570 0.984 . S
N2565 H2571 0.985 . S
C2566 C2560 1.379 . S
C2566 C2563 1.363 . S
C2566 N2564 1.356 . S
C2567 C2561 1.363 . S
C2567 C2562 1.379 . S
C2567 N2565 1.356 . S
N2568 C2560 1.356 . S
N2568 H2574 0.984 . S
N2568 H2575 0.984 . S
N2569 C2562 1.356 . S
N2569 H2572 0.984 . S
N2569 H2573 0.985 . S
H2570 N2565 0.984 . S
H2571 N2565 0.985 . S
H2572 N2569 0.984 . S
H2573 N2569 0.985 . S
H2574 N2568 0.984 . S
H2575 N2568 0.984 . S
H2576 N2564 0.984 . S
H2577 N2564 0.985 . S
C2578 C2579 1.363 . S
C2578 C2584 1.379 . S
C2578 N2586 1.356 . S
C2579 C2578 1.363 . S
C2579 C2585 1.363 . S
C2580 C2581 1.363 . S
C2580 C2585 1.379 . S
C2580 N2587 1.356 1_565 S
C2581 C2580 1.363 . S
C2581 C2584 1.363 . S
N2582 C2584 1.356 . S
N2582 H2594 0.984 . S
N2582 H2595 0.985 . S
N2583 C2585 1.356 . S
N2583 H2588 0.984 . S
N2583 H2589 0.985 . S
C2584 C2578 1.379 . S
C2584 C2581 1.363 . S
C2584 N2582 1.356 . S
C2585 C2579 1.363 . S
C2585 C2580 1.379 . S
C2585 N2583 1.356 . S
N2586 C2578 1.356 . S
N2586 H2592 0.984 . S
N2586 H2593 0.984 . S
N2587 C2580 1.356 1_545 S
N2587 H2590 0.984 . S
N2587 H2591 0.985 . S
H2588 N2583 0.984 . S
H2589 N2583 0.985 . S
H2590 N2587 0.984 . S
H2591 N2587 0.985 . S
H2592 N2586 0.984 . S
H2593 N2586 0.984 . S
H2594 N2582 0.984 . S
H2595 N2582 0.985 . S
C2596 C2597 1.363 . S
C2596 C2602 1.379 . S
C2596 N2604 1.356 . S
C2597 C2596 1.363 . S
C2597 C2603 1.363 . S
C2598 C2599 1.363 . S
C2598 C2603 1.379 . S
C2598 N2605 1.356 . S
C2599 C2598 1.363 . S
C2599 C2602 1.363 . S
N2600 C2602 1.356 . S
N2600 H2612 0.984 . S
N2600 H2613 0.985 . S
N2601 C2603 1.356 . S
N2601 H2606 0.984 . S
N2601 H2607 0.985 . S
C2602 C2596 1.379 . S
C2602 C2599 1.363 . S
C2602 N2600 1.356 . S
C2603 C2597 1.363 . S
C2603 C2598 1.379 . S
C2603 N2601 1.356 . S
N2604 C2596 1.356 . S
N2604 H2610 0.984 . S
N2604 H2611 0.984 . S
N2605 C2598 1.356 . S
N2605 H2608 0.984 . S
N2605 H2609 0.985 . S
H2606 N2601 0.984 . S
H2607 N2601 0.985 . S
H2608 N2605 0.984 . S
H2609 N2605 0.985 . S
H2610 N2604 0.984 . S
H2611 N2604 0.984 . S
H2612 N2600 0.984 . S
H2613 N2600 0.985 . S
C2614 C2615 1.363 . S
C2614 C2620 1.379 . S
C2614 N2622 1.356 . S
C2615 C2614 1.363 . S
C2615 C2621 1.363 . S
C2616 C2617 1.363 . S
C2616 C2621 1.379 . S
C2616 N2623 1.356 . S
C2617 C2616 1.363 . S
C2617 C2620 1.363 . S
N2618 C2620 1.356 . S
N2618 H2630 0.984 . S
N2618 H2631 0.985 . S
N2619 C2621 1.356 . S
N2619 H2624 0.984 . S
N2619 H2625 0.985 . S
C2620 C2614 1.379 . S
C2620 C2617 1.363 . S
C2620 N2618 1.356 . S
C2621 C2615 1.363 . S
C2621 C2616 1.379 . S
C2621 N2619 1.356 . S
N2622 C2614 1.356 . S
N2622 H2628 0.984 . S
N2622 H2629 0.984 . S
N2623 C2616 1.356 . S
N2623 H2626 0.984 . S
N2623 H2627 0.985 . S
H2624 N2619 0.984 . S
H2625 N2619 0.985 . S
H2626 N2623 0.984 . S
H2627 N2623 0.985 . S
H2628 N2622 0.984 . S
H2629 N2622 0.984 . S
H2630 N2618 0.984 . S
H2631 N2618 0.985 . S
C2632 C2633 1.363 . S
C2632 C2638 1.379 . S
C2632 N2640 1.356 . S
C2633 C2632 1.363 . S
C2633 C2639 1.363 . S
C2634 C2635 1.363 . S
C2634 C2639 1.379 . S
C2634 N2641 1.356 . S
C2635 C2634 1.363 . S
C2635 C2638 1.363 . S
N2636 C2638 1.356 . S
N2636 H2648 0.984 . S
N2636 H2649 0.985 . S
N2637 C2639 1.356 . S
N2637 H2642 0.984 . S
N2637 H2643 0.985 . S
C2638 C2632 1.379 . S
C2638 C2635 1.363 . S
C2638 N2636 1.356 . S
C2639 C2633 1.363 . S
C2639 C2634 1.379 . S
C2639 N2637 1.356 . S
N2640 C2632 1.356 . S
N2640 H2646 0.984 . S
N2640 H2647 0.984 . S
N2641 C2634 1.356 . S
N2641 H2644 0.984 . S
N2641 H2645 0.985 . S
H2642 N2637 0.984 . S
H2643 N2637 0.985 . S
H2644 N2641 0.984 . S
H2645 N2641 0.985 . S
H2646 N2640 0.984 . S
H2647 N2640 0.984 . S
H2648 N2636 0.984 . S
H2649 N2636 0.985 . S
C2650 C2651 1.363 . S
C2650 C2656 1.379 . S
C2650 N2658 1.356 . S
C2651 C2650 1.363 . S
C2651 C2657 1.363 . S
C2652 C2653 1.363 . S
C2652 C2657 1.379 . S
C2652 N2659 1.356 . S
C2653 C2652 1.363 . S
C2653 C2656 1.363 . S
N2654 C2656 1.356 . S
N2654 H2666 0.984 . S
N2654 H2667 0.985 . S
N2655 C2657 1.356 . S
N2655 H2660 0.984 . S
N2655 H2661 0.985 . S
C2656 C2650 1.379 . S
C2656 C2653 1.363 . S
C2656 N2654 1.356 . S
C2657 C2651 1.363 . S
C2657 C2652 1.379 . S
C2657 N2655 1.356 . S
N2658 C2650 1.356 . S
N2658 H2664 0.984 . S
N2658 H2665 0.984 . S
N2659 C2652 1.356 . S
N2659 H2662 0.984 . S
N2659 H2663 0.985 . S
H2660 N2655 0.984 . S
H2661 N2655 0.985 . S
H2662 N2659 0.984 . S
H2663 N2659 0.985 . S
H2664 N2658 0.984 . S
H2665 N2658 0.984 . S
H2666 N2654 0.984 . S
H2667 N2654 0.985 . S
C2668 C2669 1.363 . S
C2668 C2674 1.379 . S
C2668 N2676 1.356 . S
C2669 C2668 1.363 . S
C2669 C2675 1.363 . S
C2670 C2671 1.363 . S
C2670 C2675 1.379 . S
C2670 N2677 1.356 . S
C2671 C2670 1.363 . S
C2671 C2674 1.363 . S
N2672 C2674 1.356 . S
N2672 H2684 0.984 . S
N2672 H2685 0.985 . S
N2673 C2675 1.356 . S
N2673 H2678 0.984 . S
N2673 H2679 0.985 . S
C2674 C2668 1.379 . S
C2674 C2671 1.363 . S
C2674 N2672 1.356 . S
C2675 C2669 1.363 . S
C2675 C2670 1.379 . S
C2675 N2673 1.356 . S
N2676 C2668 1.356 . S
N2676 H2682 0.984 . S
N2676 H2683 0.984 . S
N2677 C2670 1.356 . S
N2677 H2680 0.984 . S
N2677 H2681 0.985 . S
H2678 N2673 0.984 . S
H2679 N2673 0.985 . S
H2680 N2677 0.984 . S
H2681 N2677 0.985 . S
H2682 N2676 0.984 . S
H2683 N2676 0.984 . S
H2684 N2672 0.984 . S
H2685 N2672 0.985 . S
C2686 C2687 1.363 . S
C2686 C2692 1.379 . S
C2686 N2694 1.356 . S
C2687 C2686 1.363 . S
C2687 C2693 1.363 . S
C2688 C2689 1.363 . S
C2688 C2693 1.379 . S
C2688 N2695 1.356 . S
C2689 C2688 1.363 . S
C2689 C2692 1.363 . S
N2690 C2692 1.356 . S
N2690 H2702 0.984 . S
N2690 H2703 0.985 . S
N2691 C2693 1.356 . S
N2691 H2696 0.984 . S
N2691 H2697 0.985 . S
C2692 C2686 1.379 . S
C2692 C2689 1.363 . S
C2692 N2690 1.356 . S
C2693 C2687 1.363 . S
C2693 C2688 1.379 . S
C2693 N2691 1.356 . S
N2694 C2686 1.356 . S
N2694 H2700 0.984 . S
N2694 H2701 0.984 . S
N2695 C2688 1.356 . S
N2695 H2698 0.984 . S
N2695 H2699 0.985 . S
H2696 N2691 0.984 . S
H2697 N2691 0.985 . S
H2698 N2695 0.984 . S
H2699 N2695 0.985 . S
H2700 N2694 0.984 . S
H2701 N2694 0.984 . S
H2702 N2690 0.984 . S
H2703 N2690 0.985 . S
C977 C106 2.778 1_554 S
C979 C346 2.671 . S
C995 C65 2.031 . S
C997 C394 2.014 . S
C1013 C79 1.773 . S
C1015 C426 1.755 . S
C1033 C471 1.519 . S
C1031 C90 1.574 . S
C1049 C21 0.788 . S
C1051 C511 0.792 . S
C1069 C546 1.235 . S
C1067 C35 1.238 . S
C1087 C585 1.450 . S
C1085 C50 1.444 . S
C1103 C6 1.327 . S
C1105 C622 1.381 . S
C1123 C354 2.549 . S
C1121 C232 2.478 1_545 S
C1139 C245 0.781 . S
C1141 C391 0.777 . S
C1159 C434 2.405 . S
C1157 C274 2.420 . S
C1177 C466 1.172 . S
C1175 C175 1.166 1_556 S
C1193 C231 1.315 . S
C1195 C506 1.301 . S
C1213 C554 0.750 . S
C1211 C246 0.750 . S
C1231 C595 2.083 . S
C1229 C273 2.033 . S
C1249 C625 2.331 . S
C1247 C176 2.279 . S
C1267 C351 2.200 . S
C1265 C160 2.068 . S
C1283 C289 2.131 . S
C1285 C674 2.119 . S
C1303 C711 1.367 . S
C1301 C328 1.321 . S
C1321 C742 1.389 . S
C1319 C317 1.527 . S
C1337 C118 2.640 . S
C1339 C635 2.692 . S
C1355 C132 1.458 . S
C1357 C431 1.457 . S
C1373 C331 1.831 . S
C1375 C794 1.844 . S
C1393 C826 2.018 . S
C1391 C303 1.982 . S
C1411 C355 2.234 . S
C1409 C63 2.294 . S
C1429 C825 2.470 . S
C1427 C107 2.416 . S
C1445 C92 1.578 . S
C1447 C435 1.598 . S
C1463 C78 1.834 . S
C1465 C782 1.777 . S
C1483 C502 1.199 . S
C1481 C8 1.166 . S
C1499 C51 1.229 . S
C1501 C715 1.308 . S
C1519 C594 1.665 . S
C1517 C37 1.670 . S
C1537 C871 1.397 . S
C1535 C20 1.380 1_655 S
C1555 C345 2.210 . S
C1553 C147 2.131 . S
C1573 C822 0.922 . S
C1571 C316 0.955 . S
C1589 C119 2.243 . S
C1591 C425 2.333 . S
C1607 C288 1.276 . S
C1609 C795 1.283 . S
C1625 C148 1.567 . S
C1627 C515 1.569 . S
C1645 C705 0.663 . S
C1643 C315 0.711 . S
C1661 C120 2.496 . S
C1663 C586 2.359 . S
C1679 C287 1.992 1_556 S
C1681 C874 2.026 . S
C1697 C188 1.977 . S
C1699 C342 2.010 . S
C1715 C177 2.447 . S
C1717 C665 2.474 . S
C1733 C258 1.242 . S
C1735 C542 1.303 . S
C1751 C247 1.288 . S
C1753 C751 1.208 . S
C1771 C866 2.608 . S
C1769 C272 2.608 . S
C1787 C216 1.449 . S
C1789 C422 1.415 . S
C1807 C465 2.088 . S
C1805 C261 2.003 . S
C1825 C395 2.181 . S
C1823 C205 2.185 . S
C1841 C76 2.366 . S
C1843 C906 2.313 . S
C1861 C834 2.076 . S
C1859 C93 2.092 . S
C1877 C105 1.423 . S
C1879 C946 1.413 . S
C1895 C62 1.571 1_655 S
C1897 C791 1.525 . S
C1913 C49 0.778 . S
C1915 C671 0.780 . S
C1933 C706 1.520 . S
C1931 C9 1.518 . S
C1951 C745 1.383 . S
C1949 C22 1.378 . S
C1969 C862 1.659 . S
C1967 C36 1.647 . S
C1987 C914 2.488 . S
C1985 C260 2.425 . S
C2003 C189 0.727 . S
C2005 C831 0.732 . S
C2023 C954 2.350 . S
C2021 C204 2.364 . S
C2041 C786 1.021 . S
C2039 C217 1.024 . S
C2059 C666 1.419 . S
C2057 C259 1.422 . S
C2075 C190 0.735 . S
C2077 C714 0.733 . S
C2095 C755 2.262 . S
C2093 C203 2.210 . S
C2111 C218 2.347 . S
C2113 C865 2.409 . S
C2131 C911 2.221 . S
C2129 C314 2.083 . S
C2147 C135 2.187 . S
C2149 C514 2.166 . S
C2167 C551 1.378 . S
C2165 C146 1.325 1_565 S
C2185 C582 1.303 . S
C2183 C163 1.412 . S
C2203 C875 2.731 . S
C2201 C300 2.688 . S
C2219 C286 1.429 . S
C2221 C951 1.432 . S
C2239 C474 1.830 . S
C2237 C149 1.809 . S
C2257 C386 1.974 . S
C2255 C121 1.957 . S
C2273 C91 2.270 . S
C2275 C915 2.226 . S
C2293 C385 2.041 . S
C2291 C77 1.948 . S
C2309 C64 1.559 . S
C2311 C955 1.591 . S
C2327 C104 1.661 . S
C2329 C462 1.599 . S
C2345 C34 0.893 . S
C2347 C662 0.913 . S
C2365 C555 1.318 . S
C2363 C23 1.222 . S
C2381 C7 1.190 . S
C2383 C754 1.319 . S
C2399 C48 1.377 . S
C2401 C631 1.394 . S
C2419 C905 2.142 . S
C2417 C329 2.071 . S
C2435 C162 0.923 . S
C2437 C382 0.903 . S
C2455 C945 2.310 . S
C2453 C301 2.232 . S
C2471 C134 1.288 . S
C2473 C475 1.303 . S
C2489 C330 1.576 . S
C2491 C675 1.578 . S
C2509 C545 0.664 . S
C2507 C161 0.700 . S
C2525 C302 2.435 . S
C2527 C746 2.317 1_655 S
C2545 C634 1.983 . S
C2543 C133 1.958 . S
C2563 C902 2.070 . S
C2561 C244 2.033 . S
C2581 C505 2.471 1_665 S
C2579 C219 2.426 . S
C2597 C230 1.144 . S
C2599 C702 1.181 . S
C2617 C591 1.327 . S
C2615 C191 1.435 . S
C2633 C202 2.805 . S
C2635 C626 2.818 . S
C2651 C174 1.548 . S
C2653 C942 1.529 . S
C2671 C785 2.119 . S
C2669 C233 2.018 . S
C2689 C835 2.127 . S
C2687 C275 2.152 . S
