# Generated by pormake.
# Topology fgl, (4,4)-cn, num edge types: 1
# Building blocks:
#     Node 0, Type 0, BuildingBlock: ESEHIV_clean_sbu_0, # of connection points: 4
#     Node 1, Type 0, BuildingBlock: ESEHIV_clean_sbu_0, # of connection points: 4
#     Node 2, Type 0, BuildingBlock: ESEHIV_clean_sbu_0, # of connection points: 4
#     Node 3, Type 0, BuildingBlock: ESEHIV_clean_sbu_0, # of connection points: 4
#     Node 4, Type 0, BuildingBlock: ESEHIV_clean_sbu_0, # of connection points: 4
#     Node 5, Type 0, BuildingBlock: ESEHIV_clean_sbu_0, # of connection points: 4
#     Node 6, Type 0, BuildingBlock: ESEHIV_clean_sbu_0, # of connection points: 4
#     Node 7, Type 0, BuildingBlock: ESEHIV_clean_sbu_0, # of connection points: 4
#     Node 8, Type 0, BuildingBlock: ESEHIV_clean_sbu_0, # of connection points: 4
#     Node 9, Type 0, BuildingBlock: ESEHIV_clean_sbu_0, # of connection points: 4
#     Node 10, Type 0, BuildingBlock: ESEHIV_clean_sbu_0, # of connection points: 4
#     Node 11, Type 0, BuildingBlock: ESEHIV_clean_sbu_0, # of connection points: 4
#     Node 12, Type 0, BuildingBlock: ESEHIV_clean_sbu_0, # of connection points: 4
#     Node 13, Type 0, BuildingBlock: ESEHIV_clean_sbu_0, # of connection points: 4
#     Node 14, Type 0, BuildingBlock: ESEHIV_clean_sbu_0, # of connection points: 4
#     Node 15, Type 0, BuildingBlock: ESEHIV_clean_sbu_0, # of connection points: 4
#     Node 16, Type 0, BuildingBlock: ESEHIV_clean_sbu_0, # of connection points: 4
#     Node 17, Type 0, BuildingBlock: ESEHIV_clean_sbu_0, # of connection points: 4
#     Node 18, Type 1, BuildingBlock: NAHDIM_clean_sbu_0, # of connection points: 4
#     Node 19, Type 1, BuildingBlock: NAHDIM_clean_sbu_0, # of connection points: 4
#     Node 20, Type 1, BuildingBlock: NAHDIM_clean_sbu_0, # of connection points: 4
#     Node 21, Type 1, BuildingBlock: NAHDIM_clean_sbu_0, # of connection points: 4
#     Node 22, Type 1, BuildingBlock: NAHDIM_clean_sbu_0, # of connection points: 4
#     Node 23, Type 1, BuildingBlock: NAHDIM_clean_sbu_0, # of connection points: 4
#     Node 24, Type 1, BuildingBlock: NAHDIM_clean_sbu_0, # of connection points: 4
#     Node 25, Type 1, BuildingBlock: NAHDIM_clean_sbu_0, # of connection points: 4
#     Node 26, Type 1, BuildingBlock: NAHDIM_clean_sbu_0, # of connection points: 4
#     Node 27, Type 1, BuildingBlock: NAHDIM_clean_sbu_0, # of connection points: 4
#     Node 28, Type 1, BuildingBlock: NAHDIM_clean_sbu_0, # of connection points: 4
#     Node 29, Type 1, BuildingBlock: NAHDIM_clean_sbu_0, # of connection points: 4
#     Node 30, Type 1, BuildingBlock: NAHDIM_clean_sbu_0, # of connection points: 4
#     Node 31, Type 1, BuildingBlock: NAHDIM_clean_sbu_0, # of connection points: 4
#     Node 32, Type 1, BuildingBlock: NAHDIM_clean_sbu_0, # of connection points: 4
#     Node 33, Type 1, BuildingBlock: NAHDIM_clean_sbu_0, # of connection points: 4
#     Node 34, Type 1, BuildingBlock: NAHDIM_clean_sbu_0, # of connection points: 4
#     Node 35, Type 1, BuildingBlock: NAHDIM_clean_sbu_0, # of connection points: 4
#     Edge 36, Type (0, 1), BuildingBlock: KIFKEQ_clean_linker_1, # of connection points: 2
#     Edge 37, Type (0, 1), BuildingBlock: KIFKEQ_clean_linker_1, # of connection points: 2
#     Edge 38, Type (0, 1), BuildingBlock: KIFKEQ_clean_linker_1, # of connection points: 2
#     Edge 39, Type (0, 1), BuildingBlock: KIFKEQ_clean_linker_1, # of connection points: 2
#     Edge 40, Type (0, 1), BuildingBlock: KIFKEQ_clean_linker_1, # of connection points: 2
#     Edge 41, Type (0, 1), BuildingBlock: KIFKEQ_clean_linker_1, # of connection points: 2
#     Edge 42, Type (0, 1), BuildingBlock: KIFKEQ_clean_linker_1, # of connection points: 2
#     Edge 43, Type (0, 1), BuildingBlock: KIFKEQ_clean_linker_1, # of connection points: 2
#     Edge 44, Type (0, 1), BuildingBlock: KIFKEQ_clean_linker_1, # of connection points: 2
#     Edge 45, Type (0, 1), BuildingBlock: KIFKEQ_clean_linker_1, # of connection points: 2
#     Edge 46, Type (0, 1), BuildingBlock: KIFKEQ_clean_linker_1, # of connection points: 2
#     Edge 47, Type (0, 1), BuildingBlock: KIFKEQ_clean_linker_1, # of connection points: 2
#     Edge 48, Type (0, 1), BuildingBlock: KIFKEQ_clean_linker_1, # of connection points: 2
#     Edge 49, Type (0, 1), BuildingBlock: KIFKEQ_clean_linker_1, # of connection points: 2
#     Edge 50, Type (0, 1), BuildingBlock: KIFKEQ_clean_linker_1, # of connection points: 2
#     Edge 51, Type (0, 1), BuildingBlock: KIFKEQ_clean_linker_1, # of connection points: 2
#     Edge 52, Type (0, 1), BuildingBlock: KIFKEQ_clean_linker_1, # of connection points: 2
#     Edge 53, Type (0, 1), BuildingBlock: KIFKEQ_clean_linker_1, # of connection points: 2
#     Edge 54, Type (0, 1), BuildingBlock: KIFKEQ_clean_linker_1, # of connection points: 2
#     Edge 55, Type (0, 1), BuildingBlock: KIFKEQ_clean_linker_1, # of connection points: 2
#     Edge 56, Type (0, 1), BuildingBlock: KIFKEQ_clean_linker_1, # of connection points: 2
#     Edge 57, Type (0, 1), BuildingBlock: KIFKEQ_clean_linker_1, # of connection points: 2
#     Edge 58, Type (0, 1), BuildingBlock: KIFKEQ_clean_linker_1, # of connection points: 2
#     Edge 59, Type (0, 1), BuildingBlock: KIFKEQ_clean_linker_1, # of connection points: 2
#     Edge 60, Type (0, 1), BuildingBlock: KIFKEQ_clean_linker_1, # of connection points: 2
#     Edge 61, Type (0, 1), BuildingBlock: KIFKEQ_clean_linker_1, # of connection points: 2
#     Edge 62, Type (0, 1), BuildingBlock: KIFKEQ_clean_linker_1, # of connection points: 2
#     Edge 63, Type (0, 1), BuildingBlock: KIFKEQ_clean_linker_1, # of connection points: 2
#     Edge 64, Type (0, 1), BuildingBlock: KIFKEQ_clean_linker_1, # of connection points: 2
#     Edge 65, Type (0, 1), BuildingBlock: KIFKEQ_clean_linker_1, # of connection points: 2
#     Edge 66, Type (0, 1), BuildingBlock: KIFKEQ_clean_linker_1, # of connection points: 2
#     Edge 67, Type (0, 1), BuildingBlock: KIFKEQ_clean_linker_1, # of connection points: 2
#     Edge 68, Type (0, 1), BuildingBlock: KIFKEQ_clean_linker_1, # of connection points: 2
#     Edge 69, Type (0, 1), BuildingBlock: KIFKEQ_clean_linker_1, # of connection points: 2
#     Edge 70, Type (0, 1), BuildingBlock: KIFKEQ_clean_linker_1, # of connection points: 2
#     Edge 71, Type (0, 1), BuildingBlock: KIFKEQ_clean_linker_1, # of connection points: 2
#     Edge 72, Type (0, 1), BuildingBlock: KIFKEQ_clean_linker_1, # of connection points: 2
#     Edge 73, Type (0, 1), BuildingBlock: KIFKEQ_clean_linker_1, # of connection points: 2
#     Edge 74, Type (0, 1), BuildingBlock: KIFKEQ_clean_linker_1, # of connection points: 2
#     Edge 75, Type (0, 1), BuildingBlock: KIFKEQ_clean_linker_1, # of connection points: 2
#     Edge 76, Type (0, 1), BuildingBlock: KIFKEQ_clean_linker_1, # of connection points: 2
#     Edge 77, Type (0, 1), BuildingBlock: KIFKEQ_clean_linker_1, # of connection points: 2
#     Edge 78, Type (0, 1), BuildingBlock: KIFKEQ_clean_linker_1, # of connection points: 2
#     Edge 79, Type (0, 1), BuildingBlock: KIFKEQ_clean_linker_1, # of connection points: 2
#     Edge 80, Type (0, 1), BuildingBlock: KIFKEQ_clean_linker_1, # of connection points: 2
#     Edge 81, Type (0, 1), BuildingBlock: KIFKEQ_clean_linker_1, # of connection points: 2
#     Edge 82, Type (0, 1), BuildingBlock: KIFKEQ_clean_linker_1, # of connection points: 2
#     Edge 83, Type (0, 1), BuildingBlock: KIFKEQ_clean_linker_1, # of connection points: 2
#     Edge 84, Type (0, 1), BuildingBlock: KIFKEQ_clean_linker_1, # of connection points: 2
#     Edge 85, Type (0, 1), BuildingBlock: KIFKEQ_clean_linker_1, # of connection points: 2
#     Edge 86, Type (0, 1), BuildingBlock: KIFKEQ_clean_linker_1, # of connection points: 2
#     Edge 87, Type (0, 1), BuildingBlock: KIFKEQ_clean_linker_1, # of connection points: 2
#     Edge 88, Type (0, 1), BuildingBlock: KIFKEQ_clean_linker_1, # of connection points: 2
#     Edge 89, Type (0, 1), BuildingBlock: KIFKEQ_clean_linker_1, # of connection points: 2
#     Edge 90, Type (0, 1), BuildingBlock: KIFKEQ_clean_linker_1, # of connection points: 2
#     Edge 91, Type (0, 1), BuildingBlock: KIFKEQ_clean_linker_1, # of connection points: 2
#     Edge 92, Type (0, 1), BuildingBlock: KIFKEQ_clean_linker_1, # of connection points: 2
#     Edge 93, Type (0, 1), BuildingBlock: KIFKEQ_clean_linker_1, # of connection points: 2
#     Edge 94, Type (0, 1), BuildingBlock: KIFKEQ_clean_linker_1, # of connection points: 2
#     Edge 95, Type (0, 1), BuildingBlock: KIFKEQ_clean_linker_1, # of connection points: 2
#     Edge 96, Type (0, 1), BuildingBlock: KIFKEQ_clean_linker_1, # of connection points: 2
#     Edge 97, Type (0, 1), BuildingBlock: KIFKEQ_clean_linker_1, # of connection points: 2
#     Edge 98, Type (0, 1), BuildingBlock: KIFKEQ_clean_linker_1, # of connection points: 2
#     Edge 99, Type (0, 1), BuildingBlock: KIFKEQ_clean_linker_1, # of connection points: 2
#     Edge 100, Type (0, 1), BuildingBlock: KIFKEQ_clean_linker_1, # of connection points: 2
#     Edge 101, Type (0, 1), BuildingBlock: KIFKEQ_clean_linker_1, # of connection points: 2
#     Edge 102, Type (0, 1), BuildingBlock: KIFKEQ_clean_linker_1, # of connection points: 2
#     Edge 103, Type (0, 1), BuildingBlock: KIFKEQ_clean_linker_1, # of connection points: 2
#     Edge 104, Type (0, 1), BuildingBlock: KIFKEQ_clean_linker_1, # of connection points: 2
#     Edge 105, Type (0, 1), BuildingBlock: KIFKEQ_clean_linker_1, # of connection points: 2
#     Edge 106, Type (0, 1), BuildingBlock: KIFKEQ_clean_linker_1, # of connection points: 2
#     Edge 107, Type (0, 1), BuildingBlock: KIFKEQ_clean_linker_1, # of connection points: 2
# Relax obj value: 0.035
# Max RMSD: 0.151
# Mean RMSD: 0.109
data_MOF--net-fgl--node1-ESEHIV_clean_sbu_0--node2-NAHDIM_clean_sbu_0--edge1-KIFKEQ_clean_linker_1
_symmetry_space_group_name_H-M    P1
_symmetry_Int_Tables_number       1
_symmetry_cell_setting            triclinic
loop_
_symmetry_equiv_pos_as_xyz
'x, y, z'
_cell_length_a     75.50134
_cell_length_b     76.587605
_cell_length_c     51.489015
_cell_angle_alpha  88.631298
_cell_angle_beta   90.612611
_cell_angle_gamma 119.56441
loop_
_atom_site_label
_atom_site_type_symbol
_atom_site_fract_x
_atom_site_fract_y
_atom_site_fract_z
_atom_type_partial_charge
Cu0 Cu 0.03039 0.54039 1.00824 0.0
N1 N 0.04745 0.56186 0.02924 0.0
N2 N 0.05695 0.58498 0.06006 0.0
C3 C 0.04118 0.56956 0.048 0.0
C4 C 0.0738 0.58698 0.0483 0.0
C5 C 0.06789 0.57272 0.02932 0.0
O6 O 1.00748 0.54414 0.99988 0.0
C7 C 1.00842 0.49865 0.02091 0.0
O8 O 0.9979 0.49701 0.99972 0.0
H9 H 0.02531 0.56367 0.05291 0.0
H10 H 0.07778 0.57043 0.01649 0.0
N11 N 0.04357 0.54042 0.97753 0.0
N12 N 0.05017 0.52973 0.94059 0.0
C13 C 0.04043 0.52435 0.96378 0.0
C14 C 0.05583 0.55653 0.96267 0.0
C15 C 0.05999 0.55002 0.93999 0.0
C16 C 0.99884 0.54059 0.9778 0.0
O17 O 1.00365 0.53142 0.96032 0.0
H18 H 0.03073 0.50903 0.97037 0.0
H19 H 0.06066 0.5719 0.96752 0.0
O20 O 0.02234 0.51585 0.02781 0.0
H21 H 0.08932 0.59807 0.05282 0.0
H22 H 0.06876 0.55954 0.92381 0.0
Cu23 Cu 0.52459 0.55854 1.0095 0.0
N24 N 0.52796 0.56813 0.97329 0.0
N25 N 0.5418 0.58224 0.93477 0.0
C26 C 0.54536 0.57849 0.95958 0.0
C27 C 0.5213 0.57372 0.93307 0.0
C28 C 0.51287 0.56511 0.95679 0.0
O29 O 0.54539 0.5869 0.02124 0.0
C30 C 0.50574 0.51534 0.99816 0.0
O31 O 0.52361 0.51777 1.00504 0.0
H32 H 0.56026 0.58324 0.96772 0.0
H33 H 0.49683 0.55701 0.96163 0.0
N34 N 0.52104 0.54881 0.04556 0.0
N35 N 0.50655 0.53473 0.08364 0.0
C36 C 0.5037 0.54034 0.05956 0.0
C37 C 0.53529 0.54845 0.06109 0.0
C38 C 0.52641 0.53984 0.08463 0.0
C39 C 0.56435 0.59283 0.02345 0.0
O40 O 0.57102 0.5805 0.01753 0.0
H41 H 0.48934 0.53831 0.0522 0.0
H42 H 0.55091 0.55371 0.05555 0.0
O43 O 0.50289 0.53042 0.9982 0.0
H44 H 0.51281 0.57339 0.91587 0.0
H45 H 0.5339 0.53705 0.10094 0.0
Cu46 Cu 0.52376 0.07018 0.0439 0.0
N47 N 0.51539 0.08338 0.01994 0.0
N48 N 0.49768 0.08759 0.98776 0.0
C49 C 0.49983 0.07429 1.0032 0.0
C50 C 0.51253 0.10585 0.995 0.0
C51 C 0.52338 0.1032 0.01498 0.0
O52 O 0.49931 0.04855 0.05993 0.0
C53 C 0.55763 0.0776 0.01617 0.0
O54 O 0.55921 0.09545 0.01663 0.0
H55 H 0.4906 0.0582 1.0018 0.0
H56 H 0.53638 0.1149 0.02488 0.0
N57 N 0.53842 0.08697 0.07089 0.0
N58 N 0.55818 0.09724 0.10612 0.0
C59 C 0.5511 0.08405 0.08659 0.0
C60 C 0.53732 0.10252 0.08072 0.0
C61 C 0.54957 0.10894 0.10246 0.0
C62 C 0.48556 0.03273 0.04936 0.0
O63 O 0.48869 0.02808 0.02612 0.0
H64 H 0.55425 0.07184 0.08433 0.0
H65 H 0.5278 0.10834 0.07316 0.0
O66 O 0.54216 0.06287 0.02694 0.0
H67 H 0.51536 0.12005 0.98649 0.0
H68 H 0.55167 0.12107 0.11479 0.0
Cu69 Cu 0.54303 0.08033 0.53399 0.0
N70 N 0.56488 0.10089 0.51611 0.0
N71 N 0.59081 0.11488 0.48812 0.0
C72 C 0.57761 0.098 0.50114 0.0
C73 C 0.5862 0.12903 0.49524 0.0
C74 C 0.57018 0.12034 0.51268 0.0
O75 O 0.54822 0.0577 0.53449 0.0
C76 C 0.51602 0.08119 0.49494 0.0
O77 O 0.53131 0.08653 0.47884 0.0
H78 H 0.57638 0.08345 0.49872 0.0
H79 H 0.56245 0.12744 0.52143 0.0
N80 N 0.54274 0.08776 0.56795 0.0
N81 N 0.52981 0.0885 0.60643 0.0
C82 C 0.52575 0.08288 0.58146 0.0
C83 C 0.55824 0.09697 0.58474 0.0
C84 C 0.5503 0.0975 0.60856 0.0
C85 C 0.54454 0.04574 0.55388 0.0
O86 O 0.53321 0.04586 0.57297 0.0
H87 H 0.51067 0.07501 0.57307 0.0
H88 H 0.57407 0.10231 0.58018 0.0
O89 O 0.51756 0.07614 0.51826 0.0
H90 H 0.59352 0.14438 0.48793 0.0
H91 H 0.5589 0.10336 0.62624 0.0
Cu92 Cu 0.03661 0.56302 0.51619 0.0
N93 N 0.05419 0.55752 0.53643 0.0
N94 N 0.06338 0.54146 0.56598 0.0
C95 C 0.04777 0.54241 0.55425 0.0
C96 C 0.08036 0.55665 0.55505 0.0
C97 C 0.07465 0.56644 0.53672 0.0
O98 O 1.01212 0.53676 0.51436 0.0
C99 C 0.04936 0.60114 0.53371 0.0
O100 O 0.06661 0.60272 0.52587 0.0
H101 H 0.03186 0.53239 0.55868 0.0
H102 H 0.08469 0.57905 0.52438 0.0
N103 N 0.04648 0.57231 0.48244 0.0
N104 N 0.04875 0.58662 0.44325 0.0
C105 C 0.04274 0.58517 0.4682 0.0
C106 C 0.05536 0.56554 0.466 0.0
C107 C 0.05671 0.57429 0.44177 0.0
C108 C 1.00387 0.52832 0.49313 0.0
O109 O 1.00808 0.5393 0.47171 0.0
H110 H 0.03461 0.59234 0.47561 0.0
H111 H 0.05958 0.55427 0.47097 0.0
O112 O 0.03321 0.5841 0.5322 0.0
H113 H 0.0958 0.56021 0.55961 0.0
H114 H 0.06261 0.57143 0.42428 0.0
Cu115 Cu 0.53454 0.54328 0.51811 0.0
N116 N 0.55855 0.54623 0.50461 0.0
N117 N 0.58997 0.56149 0.48827 0.0
C118 C 0.57541 0.56387 0.49987 0.0
C119 C 0.58194 0.54147 0.48579 0.0
C120 C 0.5625 0.53206 0.49599 0.0
O121 O 0.54196 0.56594 0.54061 0.0
C122 C 0.52158 0.5453 0.46634 0.0
O123 O 0.54106 0.55442 0.46059 0.0
H124 H 0.57653 0.57821 0.50377 0.0
H125 H 0.55182 0.51611 0.49654 0.0
N126 N 0.52163 0.51938 0.53719 0.0
N127 N 0.49617 0.49055 0.55262 0.0
C128 C 0.5018 0.5058 0.53523 0.0
C129 C 0.52899 0.51252 0.55637 0.0
C130 C 0.5132 0.4947 0.56608 0.0
C131 C 0.5336 0.56438 0.56253 0.0
O132 O 0.51754 0.5473 0.56931 0.0
H133 H 0.4915 0.5076 0.52209 0.0
H134 H 0.54454 0.52023 0.56324 0.0
O135 O 0.51606 0.54094 0.48999 0.0
H136 H 0.58946 0.53415 0.47703 0.0
H137 H 0.5141 0.4857 0.58203 0.0
Cu138 Cu 0.71075 0.89628 0.35044 0.0
N139 N 0.72045 0.92117 0.33368 0.0
N140 N 0.72123 0.94974 0.32168 0.0
C141 C 0.71216 0.933 0.33676 0.0
C142 C 0.73581 0.9484 0.3084 0.0
C143 C 0.73534 0.93073 0.31593 0.0
O144 O 0.69596 0.89747 0.38123 0.0
C145 C 0.70832 0.8734 0.3085 0.0
O146 O 0.728 0.88547 0.31076 0.0
H147 H 0.6993 0.92909 0.34939 0.0
H148 H 0.74506 0.92523 0.30881 0.0
N149 N 0.73194 0.89251 0.3631 0.0
N150 N 0.74701 0.87576 0.37903 0.0
C151 C 0.7292 0.87499 0.3731 0.0
C152 C 0.75221 0.90495 0.3627 0.0
C153 C 0.76158 0.89461 0.3725 0.0
C154 C 0.70767 0.91032 0.39779 0.0
O155 O 0.72729 0.92039 0.39283 0.0
H156 H 0.71439 0.86168 0.3749 0.0
H157 H 0.75964 0.92027 0.35531 0.0
O158 O 0.69638 0.87525 0.3243 0.0
H159 H 0.74611 0.95942 0.2944 0.0
H160 H 0.77782 0.90045 0.37441 0.0
Cu161 Cu 0.20174 0.89735 0.35724 0.0
N162 N 0.19943 0.87286 0.34754 0.0
N163 N 0.18367 0.84133 0.33326 0.0
C164 C 0.1818 0.85534 0.34647 0.0
C165 C 0.20344 0.8503 0.32609 0.0
C166 C 0.21314 0.86974 0.335 0.0
O167 O 0.17949 0.89125 0.38112 0.0
C168 C 0.19998 0.90606 0.30329 0.0
O169 O 0.18971 0.88649 0.30079 0.0
H170 H 0.16747 0.85339 0.35332 0.0
H171 H 0.22868 0.8812 0.33099 0.0
N172 N 0.22573 0.91294 0.37556 0.0
N173 N 0.25163 0.94059 0.39226 0.0
C174 C 0.23581 0.93316 0.37551 0.0
C175 C 0.23545 0.90726 0.39291 0.0
C176 C 0.25147 0.92431 0.40327 0.0
C177 C 0.16056 0.8821 0.37585 0.0
O178 O 0.15474 0.87887 0.35146 0.0
H179 H 0.23111 0.9422 0.36406 0.0
H180 H 0.23094 0.89185 0.39806 0.0
O181 O 0.20396 0.91332 0.326 0.0
H182 H 0.2102 0.84365 0.31421 0.0
H183 H 0.26208 0.92466 0.41782 0.0
Cu184 Cu 0.20314 0.43404 0.35904 0.0
N185 N 0.19779 0.44872 0.3339 0.0
N186 N 0.18128 0.45354 0.30075 0.0
C187 C 0.18107 0.44048 0.31892 0.0
C188 C 0.1989 0.47077 0.30445 0.0
C189 C 0.20906 0.46778 0.32502 0.0
O190 O 0.1767 0.41385 0.37279 0.0
C191 C 0.23785 0.43802 0.33781 0.0
O192 O 0.2423 0.45669 0.34112 0.0
H193 H 0.16941 0.42485 0.3206 0.0
H194 H 0.22386 0.47855 0.33233 0.0
N195 N 0.218 0.44929 0.38716 0.0
N196 N 0.23456 0.45496 0.42483 0.0
C197 C 0.22267 0.44111 0.40755 0.0
C198 C 0.22714 0.46911 0.39163 0.0
C199 C 0.23754 0.47269 0.41492 0.0
C200 C 0.16805 0.42138 0.38611 0.0
O201 O 0.17748 0.44093 0.38897 0.0
H202 H 0.21803 0.4253 0.40912 0.0
H203 H 0.22662 0.4802 0.37878 0.0
O204 O 0.21996 0.42407 0.34375 0.0
H205 H 0.20422 0.48443 0.29285 0.0
H206 H 0.24666 0.48714 0.42375 0.0
Cu207 Cu 0.20697 0.39499 0.86591 0.0
N208 N 0.22955 0.41565 0.84911 0.0
N209 N 0.251 0.4301 0.81581 0.0
C210 C 0.23157 0.41757 0.82317 0.0
C211 C 0.26147 0.43691 0.83818 0.0
C212 C 0.24819 0.4279 0.8587 0.0
O213 O 0.21324 0.37334 0.87302 0.0
C214 C 0.16476 0.37727 0.84827 0.0
O215 O 0.1595 0.36563 0.86918 0.0
H216 H 0.21927 0.40852 0.8101 0.0
H217 H 0.25226 0.4289 0.879 0.0
N218 N 0.20398 0.40371 0.89817 0.0
N219 N 0.18962 0.40694 0.93405 0.0
C220 C 0.18711 0.40245 0.9086 0.0
C221 C 0.21766 0.40937 0.91757 0.0
C222 C 0.20889 0.41145 0.93969 0.0
C223 C 0.2246 0.36998 0.85819 0.0
O224 O 0.22889 0.37834 0.83487 0.0
H225 H 0.17289 0.39712 0.89826 0.0
H226 H 0.23256 0.41072 0.91612 0.0
O227 O 0.18356 0.38912 0.84356 0.0
H228 H 0.27783 0.44618 0.8397 0.0
H229 H 0.2159 0.4152 0.95869 0.0
Cu230 Cu 0.70382 0.89196 0.84816 0.0
N231 N 0.71346 0.877 0.83099 0.0
N232 N 0.71186 0.85141 0.80899 0.0
C233 C 0.70184 0.86102 0.81628 0.0
C234 C 0.73074 0.86211 0.81907 0.0
C235 C 0.73167 0.87787 0.83266 0.0
O236 O 0.69182 0.87811 0.88152 0.0
C237 C 0.6935 0.90255 0.80045 0.0
O238 O 0.71016 0.90237 0.79387 0.0
H239 H 0.68605 0.85615 0.81193 0.0
H240 H 0.74444 0.88861 0.84384 0.0
N241 N 0.72471 0.9171 0.85768 0.0
N242 N 0.73717 0.94826 0.87232 0.0
C243 C 0.72227 0.93331 0.85865 0.0
C244 C 0.74182 0.92189 0.87117 0.0
C245 C 0.74961 0.94117 0.88012 0.0
C246 C 0.68492 0.85936 0.88585 0.0
O247 O 0.68169 0.84762 0.86613 0.0
H248 H 0.70871 0.93334 0.85166 0.0
H249 H 0.7473 0.91158 0.87608 0.0
O250 O 0.68689 0.89767 0.82377 0.0
H251 H 0.74269 0.85824 0.81796 0.0
H252 H 0.76271 0.94886 0.89265 0.0
Cu253 Cu 0.19184 0.88199 0.83955 0.0
N254 N 0.18334 0.88664 0.80713 0.0
N255 N 0.16904 0.88035 0.76768 0.0
C256 C 0.17255 0.87249 0.78959 0.0
C257 C 0.17803 0.90031 0.7717 0.0
C258 C 0.18684 0.90413 0.79605 0.0
O259 O 0.17176 0.85546 0.85199 0.0
C260 C 0.22676 0.88398 0.81546 0.0
O261 O 0.21527 0.8771 0.79474 0.0
H262 H 0.1678 0.85677 0.79275 0.0
H263 H 0.19526 0.91862 0.805 0.0
N264 N 0.19435 0.90078 0.86379 0.0
N265 N 0.20655 0.9205 0.89832 0.0
C266 C 0.20754 0.90657 0.88373 0.0
C267 C 0.18451 0.91132 0.86569 0.0
C268 C 0.19199 0.92349 0.88704 0.0
C269 C 0.15327 0.85144 0.85106 0.0
O270 O 0.14912 0.86536 0.84269 0.0
H271 H 0.21749 0.90039 0.88758 0.0
H272 H 0.17282 0.91028 0.85246 0.0
O273 O 0.21891 0.88532 0.83652 0.0
H274 H 0.17813 0.91138 0.75817 0.0
H275 H 0.18724 0.93389 0.8935 0.0
Cu276 Cu 0.33604 0.20704 0.70243 0.0
N277 N 0.31616 0.21372 0.69286 0.0
N278 N 0.30364 0.23289 0.6772 0.0
C279 C 0.31955 0.22946 0.67742 0.0
C280 C 0.28938 0.21825 0.69251 0.0
C281 C 0.29716 0.20644 0.70215 0.0
O282 O 0.35246 0.22513 0.73024 0.0
C283 C 0.36416 0.20317 0.66787 0.0
O284 O 0.37336 0.20151 0.68882 0.0
H285 H 0.33388 0.23882 0.66758 0.0
H286 H 0.28984 0.19414 0.71604 0.0
N287 N 0.32374 0.18124 0.71729 0.0
N288 N 0.31956 0.1513 0.72998 0.0
C289 C 0.32832 0.1667 0.71256 0.0
C290 C 0.31155 0.17478 0.7383 0.0
C291 C 0.30885 0.15629 0.7461 0.0
C292 C 0.35766 0.24368 0.73131 0.0
O293 O 0.35547 0.25276 0.7106 0.0
H294 H 0.33901 0.16802 0.69783 0.0
H295 H 0.30608 0.18347 0.74827 0.0
O296 O 0.34962 0.20696 0.67023 0.0
H297 H 0.27497 0.21699 0.69787 0.0
H298 H 0.3004 0.14767 0.76302 0.0
Cu299 Cu 0.86085 0.2023 0.67749 0.0
N300 N 0.88286 0.20701 0.65644 0.0
N301 N 0.90671 0.22336 0.62604 0.0
C302 C 0.89154 0.22296 0.64004 0.0
C303 C 0.90764 0.20688 0.63391 0.0
C304 C 0.89296 0.19686 0.65287 0.0
O305 O 0.86718 0.22965 0.68639 0.0
C306 C 0.83343 0.16732 0.65482 0.0
O307 O 0.84852 0.16426 0.66157 0.0
H308 H 0.88641 0.23386 0.63798 0.0
H309 H 0.8898 0.18311 0.66306 0.0
N310 N 0.85868 0.18818 0.70851 0.0
N311 N 0.84382 0.17139 0.74524 0.0
C312 C 0.84225 0.18115 0.72398 0.0
C313 C 0.87122 0.18264 0.72025 0.0
C314 C 0.8621 0.17235 0.74309 0.0
C315 C 0.88187 0.23813 0.70255 0.0
O316 O 0.88955 0.22751 0.71295 0.0
H317 H 0.82945 0.18343 0.71977 0.0
H318 H 0.88591 0.18591 0.71283 0.0
O319 O 0.83539 0.18459 0.65901 0.0
H320 H 0.91819 0.20245 0.62658 0.0
H321 H 0.86831 0.16588 0.75683 0.0
Cu322 Cu 0.85425 0.68611 0.66611 0.0
N323 N 0.84168 0.66946 0.63829 0.0
N324 N 0.82483 0.66075 0.60079 0.0
C325 C 0.82645 0.66902 0.6241 0.0
C326 C 0.83939 0.65543 0.60045 0.0
C327 C 0.84972 0.66073 0.62374 0.0
O328 O 0.8353 0.69278 0.68223 0.0
C329 C 0.89282 0.72281 0.66499 0.0
O330 O 0.8906 0.72355 0.69014 0.0
H331 H 0.8183 0.67671 0.62936 0.0
H332 H 0.86341 0.66018 0.62861 0.0
N333 N 0.86113 0.67253 0.69095 0.0
N334 N 0.87902 0.66722 0.7219 0.0
C335 C 0.87978 0.67804 0.70037 0.0
C336 C 0.84805 0.6574 0.7065 0.0
C337 C 0.859 0.65406 0.72558 0.0
C338 C 0.82842 0.70343 0.6718 0.0
O339 O 0.83555 0.71228 0.64914 0.0
H340 H 0.8935 0.69034 0.69221 0.0
H341 H 0.83165 0.65022 0.70503 0.0
O342 O 0.87864 0.70894 0.65204 0.0
H343 H 0.84341 0.64976 0.58375 0.0
H344 H 0.85248 0.64369 0.74189 0.0
Cu345 Cu 0.84824 0.70331 0.14788 0.0
N346 N 0.849 0.69368 0.11526 0.0
N347 N 0.86236 0.69017 0.07859 0.0
C348 C 0.86618 0.69898 0.10192 0.0
C349 C 0.84189 0.67892 0.07719 0.0
C350 C 0.83368 0.68113 0.09986 0.0
O351 O 0.87474 0.71125 0.16453 0.0
C352 C 0.82006 0.71579 0.13852 0.0
O353 O 0.80915 0.69629 0.13575 0.0
H354 H 0.88118 0.70946 0.10908 0.0
H355 H 0.81768 0.67415 0.1046 0.0
N356 N 0.8293 0.68311 0.16975 0.0
N357 N 0.8122 0.67004 0.2066 0.0
C358 C 0.82767 0.68618 0.19491 0.0
C359 C 0.81443 0.6642 0.16526 0.0
C360 C 0.80365 0.65614 0.18807 0.0
C361 C 0.87754 0.69627 0.16897 0.0
O362 O 0.86353 0.67852 0.16116 0.0
H363 H 0.83718 0.70037 0.20419 0.0
H364 H 0.81131 0.65697 0.1467 0.0
O365 O 0.83903 0.72334 0.14369 0.0
H366 H 0.83342 0.66964 0.06108 0.0
H367 H 0.79047 0.64139 0.19075 0.0
Cu368 Cu 0.37451 0.22849 0.19527 0.0
N369 N 0.38415 0.21212 0.18223 0.0
N370 N 0.38151 0.1839 0.16642 0.0
C371 C 0.3731 0.1959 0.16764 0.0
C372 C 0.39892 0.19344 0.18034 0.0
C373 C 0.40045 0.21076 0.19011 0.0
O374 O 0.36176 0.21662 0.22909 0.0
C375 C 0.36658 0.23751 0.14552 0.0
O376 O 0.38353 0.23706 0.14175 0.0
H377 H 0.3584 0.19239 0.15981 0.0
H378 H 0.41177 0.22078 0.20363 0.0
N379 N 0.3955 0.25403 0.20293 0.0
N380 N 0.40875 0.28532 0.21727 0.0
C381 C 0.39292 0.26642 0.21852 0.0
C382 C 0.41368 0.26537 0.19137 0.0
C383 C 0.42192 0.28477 0.20019 0.0
C384 C 0.35409 0.19795 0.2347 0.0
O385 O 0.35008 0.18531 0.21583 0.0
H386 H 0.37892 0.26196 0.22901 0.0
H387 H 0.41992 0.26022 0.17649 0.0
O388 O 0.3586 0.23321 0.16821 0.0
H389 H 0.40911 0.18767 0.18492 0.0
H390 H 0.43607 0.29759 0.19376 0.0
Cu391 Cu 0.86704 0.24272 0.17946 0.0
N392 N 0.85831 0.24501 0.14613 0.0
N393 N 0.84162 0.23471 0.10856 0.0
C394 C 0.84694 0.22921 0.13107 0.0
C395 C 0.84988 0.25485 0.10954 0.0
C396 C 0.86025 0.26119 0.13279 0.0
O397 O 0.84515 0.21899 0.19568 0.0
C398 C 0.89763 0.23517 0.15864 0.0
O399 O 0.8848 0.22607 0.13968 0.0
H400 H 0.84218 0.21385 0.13694 0.0
H401 H 0.86832 0.27641 0.13965 0.0
N402 N 0.87278 0.26454 0.20008 0.0
N403 N 0.88637 0.2853 0.23332 0.0
C404 C 0.88638 0.27055 0.21955 0.0
C405 C 0.86378 0.27591 0.20139 0.0
C406 C 0.87212 0.28874 0.222 0.0
C407 C 0.82777 0.21784 0.19459 0.0
O408 O 0.82619 0.23269 0.18366 0.0
H409 H 0.89545 0.26351 0.22425 0.0
H410 H 0.85163 0.27456 0.18879 0.0
O411 O 0.89209 0.24171 0.17758 0.0
H412 H 0.84855 0.2643 0.09457 0.0
H413 H 0.86785 0.29953 0.22835 0.0
C414 C 0.04695 0.65994 0.21315 0.0
O415 O 0.05472 0.65855 0.23555 0.0
O416 O 1.00943 0.68805 0.23562 0.0
Zn417 Zn 0.03241 0.68162 0.2442 0.0
O418 O 0.02709 0.66177 0.27453 0.0
C419 C 0.05819 0.72124 0.26524 0.0
O420 O 0.0405 0.71959 0.27093 0.0
O421 O 0.03707 0.66944 0.21194 0.0
C422 C 0.02686 0.66564 0.29842 0.0
O423 O 0.02794 0.68268 0.30461 0.0
C424 C 0.99364 0.68364 0.24907 0.0
O425 O 0.99094 0.6739 0.27133 0.0
O426 O 0.05855 0.70717 0.25303 0.0
C427 C 0.41974 0.46989 0.326 0.0
O428 O 0.40356 0.47172 0.32152 0.0
O429 O 0.37516 0.43631 0.2926 0.0
Zn430 Zn 0.40378 0.44275 0.2828 0.0
O431 O 0.41392 0.46069 0.2507 0.0
C432 C 0.39291 0.39992 0.281 0.0
O433 O 0.37569 0.39601 0.29204 0.0
O434 O 0.42285 0.45813 0.31212 0.0
C435 C 0.41155 0.45349 0.22812 0.0
O436 O 0.4009 0.43394 0.22547 0.0
C437 C 0.35881 0.42687 0.27958 0.0
O438 O 0.35939 0.41969 0.25688 0.0
O439 O 0.40623 0.41805 0.27606 0.0
C440 C 0.678 0.05449 0.3101 0.0
O441 O 0.68679 0.07013 0.32517 0.0
O442 O 0.65377 0.08415 0.32398 0.0
Zn443 Zn 0.66281 0.0787 0.28991 0.0
O444 O 0.69049 0.10107 0.28027 0.0
C445 C 0.6426 0.09265 0.25588 0.0
O446 O 0.65403 0.10895 0.269 0.0
O447 O 0.66554 0.05393 0.2929 0.0
C448 C 0.69671 0.10081 0.25756 0.0
O449 O 0.68477 0.08639 0.2419 0.0
C450 C 0.66117 0.10177 0.33279 0.0
O451 O 0.67546 0.11701 0.31957 0.0
O452 O 0.6433 0.07674 0.26153 0.0
C453 C 0.04281 0.44213 0.79224 0.0
O454 O 0.05997 0.44454 0.78271 0.0
O455 O 0.03442 0.43104 0.71912 0.0
Zn456 Zn 0.02797 0.41317 0.75199 0.0
O457 O 0.04975 0.40581 0.76306 0.0
C458 C 0.99516 0.37899 0.72508 0.0
O459 O 1.00748 0.38728 0.70516 0.0
O460 O 0.02611 0.42916 0.78209 0.0
C461 C 0.06161 0.40203 0.74991 0.0
O462 O 0.06087 0.40258 0.72442 0.0
C463 C 0.05184 0.44444 0.71085 0.0
O464 O 0.06823 0.44712 0.72334 0.0
O465 O 1.00056 0.38731 0.74711 0.0
C466 C 0.61614 0.65594 0.70593 0.0
O467 O 0.60741 0.65557 0.72803 0.0
O468 O 0.63733 0.65548 0.76789 0.0
Zn469 Zn 0.65313 0.67346 0.73726 0.0
O470 O 0.6791 0.67288 0.72975 0.0
C471 C 0.65235 0.71188 0.73995 0.0
O472 O 0.63471 0.70284 0.728 0.0
O473 O 0.6354 0.66358 0.70516 0.0
C474 C 0.69545 0.68377 0.74215 0.0
O475 O 0.69499 0.69424 0.76171 0.0
C476 C 0.64173 0.66047 0.79148 0.0
O477 O 0.65791 0.67769 0.79671 0.0
O478 O 0.6617 0.70226 0.74513 0.0
C479 C 0.42608 0.05908 0.74632 0.0
O480 O 0.4269 0.07369 0.76009 0.0
O481 O 0.40952 0.04413 0.81359 0.0
Zn482 Zn 0.39312 0.03671 0.78068 0.0
O483 O 0.3812 0.05492 0.77542 0.0
C484 C 0.36883 0.99439 0.79737 0.0
O485 O 0.38367 0.99842 0.81391 0.0
O486 O 0.41223 0.04115 0.75128 0.0
C487 C 0.36959 0.0526 0.7562 0.0
O488 O 0.36557 0.03822 0.73982 0.0
C489 C 0.40245 0.04508 0.83546 0.0
O490 O 0.38324 0.04034 0.83727 0.0
O491 O 0.37009 1.00812 0.78185 0.0
C492 C 0.67279 0.96644 0.554 0.0
O493 O 0.65445 0.95776 0.5642 0.0
O494 O 0.65645 0.99833 0.58732 0.0
Zn495 Zn 0.68145 0.99524 0.59595 0.0
O496 O 0.6778 0.97718 0.62836 0.0
C497 C 0.70507 0.03758 0.61244 0.0
O498 O 0.68738 0.03411 0.6214 0.0
O499 O 0.68674 0.98244 0.56422 0.0
C500 C 0.67737 0.9817 0.65198 0.0
O501 O 0.67881 0.99907 0.65707 0.0
C502 C 0.64297 0.99704 0.60312 0.0
O503 O 0.64411 0.99271 0.62768 0.0
O504 O 0.70618 0.02347 0.60116 0.0
C505 C 0.08971 0.80555 0.61022 0.0
O506 O 0.0807 0.81337 0.59601 0.0
O507 O 0.03964 0.76873 0.58744 0.0
Zn508 Zn 0.06734 0.77433 0.57498 0.0
O509 O 0.07736 0.79353 0.54357 0.0
C510 C 0.05324 0.73132 0.57809 0.0
O511 O 0.04077 0.73168 0.5954 0.0
O512 O 0.08671 0.78817 0.60476 0.0
C513 C 0.07558 0.78797 0.52013 0.0
O514 O 0.06605 0.76869 0.5153 0.0
C515 C 0.02892 0.77617 0.57874 0.0
O516 O 0.03545 0.78867 0.55867 0.0
O517 O 0.06613 0.74773 0.56696 0.0
C518 C 0.30915 0.36344 0.63094 0.0
O519 O 0.32152 0.37887 0.64497 0.0
O520 O 0.3009 0.40569 0.63609 0.0
Zn521 Zn 0.30912 0.39566 0.60538 0.0
O522 O 0.33941 0.41065 0.60098 0.0
C523 C 0.3002 0.41888 0.57103 0.0
O524 O 0.31226 0.43224 0.5878 0.0
O525 O 0.30056 0.36646 0.61134 0.0
C526 C 0.3473 0.40443 0.58448 0.0
O527 O 0.33534 0.38876 0.57056 0.0
C528 C 0.31312 0.41784 0.6526 0.0
O529 O 0.33274 0.42436 0.65048 0.0
O530 O 0.29631 0.4008 0.57398 0.0
C531 C 0.69836 0.79931 0.14518 0.0
O532 O 0.71632 0.80544 0.13468 0.0
O533 O 0.68862 0.78731 0.06886 0.0
Zn534 Zn 0.68791 0.77197 0.10263 0.0
O535 O 0.71365 0.76968 0.10971 0.0
C536 C 0.66678 0.7343 0.07793 0.0
O537 O 0.68329 0.74405 0.06365 0.0
O538 O 0.68287 0.78481 0.13468 0.0
C539 C 0.72911 0.77432 0.09542 0.0
O540 O 0.73022 0.78238 0.07227 0.0
C541 C 0.69992 0.80573 0.06235 0.0
O542 O 0.7142 0.8177 0.07836 0.0
O543 O 0.66466 0.74317 0.09732 0.0
C544 C 0.28743 0.97484 0.06246 0.0
O545 O 0.29371 0.96365 0.07476 0.0
O546 O 0.29219 0.98369 0.13434 0.0
Zn547 Zn 0.30999 1.00022 0.10372 0.0
O548 O 0.334 0.99585 0.09676 0.0
C549 C 0.31201 0.03758 0.12014 0.0
O550 O 0.29304 0.02576 0.12737 0.0
O551 O 0.29241 0.99201 0.07135 0.0
C552 C 0.34645 0.99576 0.11354 0.0
O553 O 0.34339 0.99736 0.13822 0.0
C554 C 0.2958 0.98888 0.15797 0.0
O555 O 0.31258 1.00543 0.16375 0.0
O556 O 0.32173 0.02998 0.10961 0.0
C557 C 0.07783 0.37881 0.06066 0.0
O558 O 0.05896 0.37209 0.05295 0.0
O559 O 0.0756 0.38695 0.14543 0.0
Zn560 Zn 0.06122 0.37778 0.11126 0.0
O561 O 0.04947 0.39545 0.10124 0.0
C562 C 0.03896 0.33584 0.12876 0.0
O563 O 0.05442 0.34085 0.14459 0.0
O564 O 0.08206 0.38178 0.08465 0.0
C565 C 0.0317 0.3894 0.09218 0.0
O566 O 0.01946 0.37011 0.08897 0.0
C567 C 0.08722 0.40572 0.14803 0.0
O568 O 0.08887 0.41798 0.12873 0.0
O569 O 0.03903 0.34899 0.11319 0.0
C570 C 0.35921 0.30494 0.90386 0.0
O571 O 0.34489 0.29331 0.92046 0.0
O572 O 0.34072 0.33972 0.93296 0.0
Zn573 Zn 0.36498 0.3355 0.94129 0.0
O574 O 0.36098 0.31705 0.97313 0.0
C575 C 0.38798 0.37594 0.96153 0.0
O576 O 0.37008 0.37079 0.9715 0.0
O577 O 0.37014 0.32353 0.90879 0.0
C578 C 0.35014 0.31425 0.9933 0.0
O579 O 0.33939 0.32343 0.99477 0.0
C580 C 0.32176 0.32702 0.93419 0.0
O581 O 0.31588 0.30871 0.94294 0.0
O582 O 0.38979 0.36325 0.94782 0.0
C583 C 0.752 0.13847 0.97225 0.0
O584 O 0.74718 0.14522 0.95119 0.0
O585 O 0.70051 0.09596 0.94729 0.0
Zn586 Zn 0.72998 0.10222 0.94455 0.0
O587 O 0.74416 0.1174 0.91147 0.0
C588 C 0.71745 0.06073 0.93495 0.0
O589 O 0.70058 0.06047 0.92771 0.0
O590 O 0.746 0.11978 0.97448 0.0
C591 C 0.7408 0.10906 0.88952 0.0
O592 O 0.72598 0.09047 0.88739 0.0
C593 C 0.69049 0.08635 0.96746 0.0
O594 O 0.69953 0.08078 0.9851 0.0
O595 O 0.73182 0.07671 0.94439 0.0
C596 C 0.97602 0.65403 0.93404 0.0
O597 O 0.95966 0.65554 0.93791 0.0
O598 O 0.97552 0.69837 0.94643 0.0
Zn599 Zn 0.99137 0.69457 0.91792 0.0
O600 O 0.01978 0.7181 0.91435 0.0
C601 C 0.97842 0.70381 0.86824 0.0
O602 O 0.99061 0.72268 0.87402 0.0
O603 O 0.99221 0.6693 0.92587 0.0
C604 C 0.03001 0.71911 0.89437 0.0
O605 O 0.02192 0.70464 0.87745 0.0
C606 C 0.96376 0.70559 0.94233 0.0
O607 O 0.96267 0.71214 0.9189 0.0
O608 O 0.97651 0.68998 0.88402 0.0
C609 C 0.38335 0.14944 0.49807 0.0
O610 O 0.40172 0.15423 0.49017 0.0
O611 O 0.37501 0.13919 0.41944 0.0
Zn612 Zn 0.37219 0.12324 0.4534 0.0
O613 O 0.39608 0.11827 0.4604 0.0
C614 C 0.34894 0.08636 0.42836 0.0
O615 O 0.36431 0.09615 0.41227 0.0
O616 O 0.36807 0.13664 0.48523 0.0
C617 C 0.41181 0.12351 0.44646 0.0
O618 O 0.41441 0.13435 0.4252 0.0
C619 C 0.3653 0.14875 0.41581 0.0
O620 O 0.35444 0.14958 0.43501 0.0
O621 O 0.34813 0.09519 0.44859 0.0
C622 C 0.96444 0.33254 0.40052 0.0
O623 O 0.97538 0.32437 0.40831 0.0
O624 O 0.9716 0.33731 0.4751 0.0
Zn625 Zn 0.9835 0.35732 0.44479 0.0
O626 O 1.01136 0.36174 0.43462 0.0
C627 C 0.97608 0.3868 0.47148 0.0
O628 O 0.96368 0.37141 0.48623 0.0
O629 O 0.96512 0.34679 0.41346 0.0
C630 C 0.02536 0.36537 0.45109 0.0
O631 O 0.02175 0.36622 0.4758 0.0
C632 C 0.97579 0.32328 0.47922 0.0
O633 O 0.98838 0.32157 0.46345 0.0
O634 O 0.98596 0.38419 0.45352 0.0
C635 C 0.77287 0.69856 0.37739 0.0
O636 O 0.78045 0.69642 0.39954 0.0
O637 O 0.77009 0.71222 0.43974 0.0
Zn638 Zn 0.75321 0.71394 0.41037 0.0
O639 O 0.75631 0.74159 0.40624 0.0
C640 C 0.7216 0.67515 0.42046 0.0
O641 O 0.73714 0.67224 0.41685 0.0
O642 O 0.76129 0.70625 0.37717 0.0
C643 C 0.75004 0.74908 0.4232 0.0
O644 O 0.74121 0.73856 0.44435 0.0
C645 C 0.76321 0.7081 0.46281 0.0
O646 O 0.74578 0.70715 0.46809 0.0
O647 O 0.72432 0.69288 0.41815 0.0
H648 H 0.0207 0.49627 0.07004 0.0
H649 H 0.9921 0.46053 1.00264 0.0
H650 H 0.02294 0.46836 0.09016 0.0
H651 H 0.99495 0.43273 0.02242 0.0
H652 H 0.99524 0.38235 0.07116 0.0
H653 H 0.98572 0.40731 0.05691 0.0
H654 H 0.04469 0.45476 0.08087 0.0
H655 H 0.05394 0.43005 0.09556 0.0
C656 C 0.01469 0.48235 0.05965 0.0
C657 C 1.00648 0.48066 0.03463 0.0
C658 C 0.01607 0.46639 0.07111 0.0
C659 C 1.00952 0.44847 0.05767 0.0
C660 C 1.00007 0.4463 0.03334 0.0
C661 C 0.99848 0.46225 0.02196 0.0
C662 C 1.00607 0.39812 0.07357 0.0
C663 C 0.02536 0.40422 0.08444 0.0
C664 C 1.00064 0.4124 0.06532 0.0
C665 C 0.01439 0.43302 0.06786 0.0
C666 C 0.03355 0.43901 0.07909 0.0
C667 C 0.03894 0.42481 0.08733 0.0
H668 H 0.60566 0.6102 0.02851 0.0
H669 H 0.55601 0.62217 0.03918 0.0
H670 H 0.62965 0.64381 0.0429 0.0
H671 H 0.5802 0.65609 0.05331 0.0
H672 H 0.62928 0.70953 0.10067 0.0
H673 H 0.60414 0.67527 0.08846 0.0
H674 H 0.64388 0.678 0.02692 0.0
H675 H 0.66888 0.71178 0.03919 0.0
C676 C 0.59982 0.62 0.03387 0.0
C677 C 0.57885 0.61342 0.03252 0.0
C678 C 0.61364 0.63937 0.04204 0.0
C679 C 0.60694 0.6528 0.04915 0.0
C680 C 0.58592 0.64614 0.0482 0.0
C681 C 0.57205 0.62672 0.03991 0.0
C682 C 0.63264 0.70277 0.08459 0.0
C683 C 0.65118 0.71345 0.07102 0.0
C684 C 0.61817 0.68317 0.07748 0.0
C685 C 0.62199 0.67376 0.05677 0.0
C686 C 0.64051 0.68455 0.04323 0.0
C687 C 0.65485 0.70406 0.05022 0.0
H688 H 0.47405 0.0393 0.09662 0.0
H689 H 0.45011 1.00272 0.02875 0.0
H690 H 0.43973 0.0268 0.11274 0.0
H691 H 0.41557 0.98967 0.04535 0.0
H692 H 0.35979 0.99756 0.06378 0.0
H693 H 0.39271 1.00264 0.04986 0.0
H694 H 0.40905 0.99976 0.1299 0.0
H695 H 0.37628 0.99528 0.14388 0.0
C696 C 0.46148 0.02822 0.08538 0.0
C697 C 0.4649 0.02219 0.06122 0.0
C698 C 0.4417 0.02093 0.09474 0.0
C699 C 0.42475 1.00732 0.08028 0.0
C700 C 0.42822 1.00041 0.0568 0.0
C701 C 0.44806 1.00775 0.04738 0.0
C702 C 0.37029 0.99777 0.07843 0.0
C703 C 0.36544 0.99624 0.10499 0.0
C704 C 0.38918 1.00055 0.07041 0.0
C705 C 0.4037 1.00178 0.08873 0.0
C706 C 0.39843 0.99927 0.11525 0.0
C707 C 0.37956 0.99659 0.12327 0.0
H708 H 0.50591 0.08839 0.44616 0.0
H709 H 0.48729 0.08179 0.52644 0.0
H710 H 0.48008 0.09738 0.4342 0.0
H711 H 0.46203 0.09156 0.51474 0.0
H712 H 0.4075 0.0954 0.48354 0.0
H713 H 0.43104 0.08321 0.49429 0.0
H714 H 0.47339 0.12417 0.43681 0.0
H715 H 0.44944 0.13573 0.42539 0.0
C716 C 0.49623 0.08875 0.46127 0.0
C717 C 0.49872 0.08435 0.48727 0.0
C718 C 0.48151 0.09414 0.45445 0.0
C719 C 0.469 0.0955 0.47349 0.0
C720 C 0.47113 0.0905 0.49941 0.0
C721 C 0.48571 0.08491 0.50618 0.0
C722 C 0.42185 0.10183 0.4732 0.0
C723 C 0.42655 0.11658 0.45359 0.0
C724 C 0.43544 0.09488 0.47946 0.0
C725 C 0.45424 0.10262 0.46647 0.0
C726 C 0.45896 0.1175 0.44695 0.0
C727 C 0.44526 0.1243 0.44052 0.0
H728 H 0.99852 0.50098 0.53207 0.0
H729 H 0.98853 0.50544 0.44995 0.0
H730 H 0.98984 0.46605 0.52711 0.0
H731 H 0.9797 0.4705 0.44512 0.0
H732 H 0.99692 0.42065 0.44106 0.0
H733 H 1.00025 0.45359 0.44697 0.0
H734 H 0.9631 0.43157 0.51611 0.0
H735 H 0.95984 0.39851 0.51032 0.0
C736 C 0.99399 0.49441 0.51308 0.0
C737 C 0.99442 0.50615 0.49136 0.0
C738 C 0.98901 0.47435 0.51024 0.0
C739 C 0.98441 0.46558 0.48563 0.0
C740 C 0.98359 0.47693 0.46425 0.0
C741 C 0.98848 0.49694 0.46709 0.0
C742 C 0.98943 0.42278 0.45752 0.0
C743 C 0.97813 0.4069 0.47522 0.0
C744 C 0.99119 0.44165 0.46079 0.0
C745 C 0.98182 0.4452 0.48191 0.0
C746 C 0.97058 0.42936 0.4997 0.0
C747 C 0.96868 0.4104 0.49632 0.0
H748 H 0.61189 0.59891 0.50713 0.0
H749 H 0.61178 0.55997 0.44772 0.0
H750 H 0.64342 0.62635 0.48952 0.0
H751 H 0.64343 0.58745 0.43013 0.0
H752 H 0.7113 0.63579 0.42568 0.0
H753 H 0.67947 0.608 0.44199 0.0
H754 H 0.65518 0.64818 0.45032 0.0
H755 H 0.68722 0.67616 0.43435 0.0
C756 C 0.61854 0.59623 0.49023 0.0
C757 C 0.60926 0.57727 0.47874 0.0
C758 C 0.63658 0.61196 0.48011 0.0
C759 C 0.64579 0.6091 0.45831 0.0
C760 C 0.63675 0.59006 0.44709 0.0
C761 C 0.61866 0.5743 0.45721 0.0
C762 C 0.69915 0.63871 0.43086 0.0
C763 C 0.70179 0.6582 0.42881 0.0
C764 C 0.68088 0.62275 0.44008 0.0
C765 C 0.66487 0.62592 0.44752 0.0
C766 C 0.66737 0.64534 0.44506 0.0
C767 C 0.68565 0.66133 0.43575 0.0
H768 H 0.98276 0.55732 1.00943 0.0
H769 H 0.99069 0.54872 0.9286 0.0
H770 H 0.9729 0.58221 0.99673 0.0
H771 H 0.98091 0.57371 0.91601 0.0
H772 H 1.00285 0.64298 0.91642 0.0
H773 H 1.00264 0.61145 0.92498 0.0
H774 H 0.9479 0.58982 0.97074 0.0
H775 H 0.94794 0.62142 0.96198 0.0
C776 C 0.98183 0.56032 0.98894 0.0
C777 C 0.98782 0.55131 0.97003 0.0
C778 C 0.97612 0.57452 0.98168 0.0
C779 C 0.97648 0.58006 0.95543 0.0
C780 C 0.98078 0.56983 0.93641 0.0
C781 C 0.98625 0.55545 0.94364 0.0
C782 C 0.99069 0.63147 0.92817 0.0
C783 C 0.97549 0.6347 0.93868 0.0
C784 C 0.99044 0.61334 0.93282 0.0
C785 C 0.97515 0.59818 0.94834 0.0
C786 C 0.95981 0.60128 0.95865 0.0
C787 C 0.95987 0.61934 0.95365 0.0
H788 H 0.5066 0.47998 0.99617 0.0
H789 H 0.46641 0.50458 0.98486 0.0
H790 H 0.47859 0.44656 0.98673 0.0
H791 H 0.4385 0.47124 0.975 0.0
H792 H 0.38822 0.40626 0.98875 0.0
H793 H 0.41663 0.4396 0.99668 0.0
H794 H 0.45622 0.42565 0.95254 0.0
H795 H 0.4277 0.392 0.94491 0.0
C796 C 0.49183 0.47831 0.9915 0.0
C797 C 0.48881 0.49505 0.99138 0.0
C798 C 0.47576 0.45911 0.98593 0.0
C799 C 0.45618 0.45608 0.98016 0.0
C800 C 0.45325 0.47288 0.97973 0.0
C801 C 0.46932 0.49208 0.98524 0.0
C802 C 0.40296 0.41023 0.98069 0.0
C803 C 0.4056 0.39634 0.96616 0.0
C804 C 0.41928 0.42948 0.98511 0.0
C805 C 0.43879 0.43547 0.97518 0.0
C806 C 0.44148 0.42155 0.96071 0.0
C807 C 0.42509 0.40226 0.95622 0.0
H808 H 0.56579 0.0463 0.02192 0.0
H809 H 0.58835 0.10491 0.98567 0.0
H810 H 0.59633 0.04576 1.0073 0.0
H811 H 0.61871 0.10458 0.97171 0.0
H812 H 0.66677 0.09527 0.9351 0.0
H813 H 0.63272 0.09002 0.94361 0.0
H814 H 0.63233 0.06291 0.0183 0.0
H815 H 0.66607 0.06769 1.00954 0.0
C816 C 0.5771 0.05892 1.01058 0.0
C817 C 0.57467 0.07568 1.00511 0.0
C818 C 0.59468 0.0587 1.00237 0.0
C819 C 0.61008 0.07517 0.98838 0.0
C820 C 0.60714 0.09151 0.98211 0.0
C821 C 0.58972 0.09176 0.99035 0.0
C822 C 0.65935 0.08803 0.95323 0.0
C823 C 0.66928 0.08209 0.97172 0.0
C824 C 0.63983 0.08507 0.95817 0.0
C825 C 0.62977 0.07615 0.98175 0.0
C826 C 0.63945 0.0696 0.99982 0.0
C827 C 0.65893 0.07252 0.99487 0.0
H828 H 0.57808 0.05132 0.52678 0.0
H829 H 0.53789 0.016 0.58948 0.0
H830 H 0.60052 0.03784 0.53744 0.0
H831 H 0.55985 1.00179 0.59951 0.0
H832 H 0.61637 1.00228 0.6331 0.0
H833 H 0.59135 0.01172 0.61924 0.0
H834 H 0.6073 1.01099 0.53905 0.0
H835 H 0.63302 1.0023 0.55314 0.0
C836 C 0.57374 0.04027 0.54244 0.0
C837 C 0.55621 0.03486 0.55739 0.0
C838 C 0.58664 0.03245 0.54856 0.0
C839 C 0.58227 0.01885 0.56963 0.0
C840 C 0.56409 0.01261 0.5836 0.0
C841 C 0.55133 0.02061 0.57768 0.0
C842 C 0.61449 1.00401 0.61249 0.0
C843 C 0.62681 1.00159 0.59427 0.0
C844 C 0.59996 1.0093 0.60446 0.0
C845 C 0.59712 0.01213 0.57793 0.0
C846 C 0.60918 1.00928 0.55966 0.0
C847 C 0.62389 1.00417 0.56773 0.0
H848 H 0.01626 0.60592 0.54446 0.0
H849 H 0.082 0.63806 0.54161 0.0
H850 H 0.01663 0.63715 0.55499 0.0
H851 H 0.08237 0.66888 0.55245 0.0
H852 H 0.07629 0.72475 0.54296 0.0
H853 H 0.07442 0.69297 0.53269 0.0
H854 H 0.0259 0.66217 0.58863 0.0
H855 H 0.0275 0.69389 0.59855 0.0
C856 C 0.03076 0.61956 0.54633 0.0
C857 C 0.04907 0.61946 0.54206 0.0
C858 C 0.031 0.63746 0.55241 0.0
C859 C 0.04954 0.65564 0.5543 0.0
C860 C 0.06779 0.65533 0.5506 0.0
C861 C 0.06756 0.63754 0.54456 0.0
C862 C 0.06521 0.71122 0.55307 0.0
C863 C 0.05212 0.71195 0.57167 0.0
C864 C 0.06419 0.69297 0.54727 0.0
C865 C 0.05007 0.67495 0.55993 0.0
C866 C 0.03682 0.67566 0.57831 0.0
C867 C 0.03785 0.69393 0.58413 0.0
H868 H 0.47963 0.47258 0.59888 0.0
H869 H 0.46626 0.47288 0.51721 0.0
H870 H 0.44369 0.44897 0.60758 0.0
H871 H 0.43036 0.44974 0.52589 0.0
H872 H 0.36875 0.39737 0.54777 0.0
H873 H 0.40553 0.41537 0.54089 0.0
H874 H 0.41295 0.4529 0.60604 0.0
H875 H 0.37627 0.43484 0.61311 0.0
C876 C 0.46908 0.46733 0.58276 0.0
C877 C 0.47568 0.47471 0.55741 0.0
C878 C 0.4485 0.45399 0.58775 0.0
C879 C 0.4342 0.44767 0.56745 0.0
C880 C 0.44102 0.45424 0.54193 0.0
C881 C 0.46153 0.46763 0.53698 0.0
C882 C 0.37825 0.40937 0.56073 0.0
C883 C 0.3696 0.41478 0.58087 0.0
C884 C 0.39929 0.41969 0.55675 0.0
C885 C 0.41211 0.43552 0.57294 0.0
C886 C 0.40349 0.44059 0.59346 0.0
C887 C 0.38246 0.43036 0.59736 0.0
H888 H 0.77923 0.87002 0.37077 0.0
H889 H 0.72054 0.84391 0.4084 0.0
H890 H 0.78213 0.84065 0.38376 0.0
H891 H 0.72303 0.81433 0.42048 0.0
H892 H 0.73933 0.76986 0.45603 0.0
H893 H 0.74086 0.80205 0.44777 0.0
H894 H 0.76614 0.80559 0.37166 0.0
H895 H 0.76505 0.77365 0.38014 0.0
C896 C 0.76705 0.85813 0.38203 0.0
C897 C 0.74958 0.85925 0.38836 0.0
C898 C 0.7686 0.8412 0.38923 0.0
C899 C 0.75275 0.82507 0.40302 0.0
C900 C 0.73561 0.82652 0.41007 0.0
C901 C 0.73405 0.8434 0.40286 0.0
C902 C 0.74534 0.77757 0.4376 0.0
C903 C 0.75193 0.76911 0.41867 0.0
C904 C 0.74615 0.79599 0.43283 0.0
C905 C 0.75352 0.80636 0.409 0.0
C906 C 0.7606 0.79814 0.39034 0.0
C907 C 0.75983 0.77973 0.39513 0.0
H908 H 0.27175 0.95623 0.43735 0.0
H909 H 0.26235 0.97255 0.35966 0.0
H910 H 0.2946 0.99164 0.44644 0.0
H911 H 0.28473 1.00787 0.36893 0.0
H912 H 0.34483 0.06545 0.38454 0.0
H913 H 0.32105 0.03033 0.37635 0.0
H914 H 0.29441 0.02376 0.45225 0.0
H915 H 0.31849 0.05912 0.46063 0.0
C916 C 0.27458 0.96734 0.42219 0.0
C917 C 0.26522 0.9615 0.39774 0.0
C918 C 0.28749 0.98766 0.42751 0.0
C919 C 0.29149 1.00261 0.40843 0.0
C920 C 0.28212 0.99675 0.38401 0.0
C921 C 0.26913 0.97648 0.37876 0.0
C922 C 0.33387 0.0566 0.3995 0.0
C923 C 0.33359 0.06515 0.42326 0.0
C924 C 0.32014 0.03644 0.39472 0.0
C925 C 0.3058 0.0242 0.41361 0.0
C926 C 0.3054 0.03273 0.43737 0.0
C927 C 0.31909 0.05302 0.4421 0.0
H928 H 0.15325 0.43062 0.42785 0.0
H929 H 0.13652 0.38497 0.37035 0.0
H930 H 0.11864 0.41381 0.44428 0.0
H931 H 0.10139 0.36783 0.38707 0.0
H932 H 0.0384 0.36594 0.40136 0.0
H933 H 0.07289 0.37584 0.38705 0.0
H934 H 0.09294 0.38361 0.4669 0.0
H935 H 0.05862 0.37404 0.48121 0.0
C936 C 0.14218 0.41677 0.41894 0.0
C937 C 0.14758 0.40916 0.39773 0.0
C938 C 0.12233 0.40704 0.42851 0.0
C939 C 0.10722 0.38947 0.41701 0.0
C940 C 0.1127 0.38142 0.39624 0.0
C941 C 0.13279 0.39111 0.38681 0.0
C942 C 0.05012 0.36957 0.41589 0.0
C943 C 0.04579 0.36949 0.44243 0.0
C944 C 0.06986 0.37507 0.40767 0.0
C945 C 0.08571 0.38066 0.42581 0.0
C946 C 0.08114 0.37967 0.4524 0.0
C947 C 0.06143 0.37416 0.46061 0.0
H948 H 0.17027 0.39903 0.80301 0.0
H949 H 0.12353 0.35897 0.8568 0.0
H950 H 0.1451 0.40398 0.77877 0.0
H951 H 0.0983 0.36374 0.83234 0.0
H952 H 0.0656 0.39766 0.80229 0.0
H953 H 0.08984 0.39031 0.8247 0.0
H954 H 0.11511 0.38786 0.75093 0.0
H955 H 0.09095 0.39545 0.72844 0.0
C956 C 0.15458 0.39106 0.80952 0.0
C957 C 0.149 0.37863 0.83197 0.0
C958 C 0.1401 0.39385 0.79551 0.0
C959 C 0.11963 0.38437 0.80363 0.0
C960 C 0.11396 0.37153 0.8257 0.0
C961 C 0.12842 0.36865 0.83963 0.0
C962 C 0.07628 0.39551 0.79078 0.0
C963 C 0.07627 0.39719 0.76349 0.0
C964 C 0.09012 0.39115 0.80367 0.0
C965 C 0.10446 0.38842 0.78968 0.0
C966 C 0.10444 0.39005 0.76238 0.0
C967 C 0.09049 0.39431 0.74946 0.0
H968 H 0.73211 0.83702 0.78129 0.0
H969 H 0.67217 0.82211 0.80823 0.0
H970 H 0.71792 0.80388 0.7623 0.0
H971 H 0.65807 0.78919 0.78926 0.0
H972 H 0.63618 0.73691 0.73417 0.0
H973 H 0.65088 0.77155 0.7483 0.0
H974 H 0.70342 0.76924 0.77806 0.0
H975 H 0.68897 0.73487 0.76362 0.0
C976 C 0.71593 0.82673 0.78315 0.0
C977 C 0.70334 0.83231 0.79633 0.0
C978 C 0.70779 0.80773 0.77227 0.0
C979 C 0.68685 0.79386 0.7743 0.0
C980 C 0.6742 0.7996 0.78697 0.0
C981 C 0.68233 0.81856 0.79786 0.0
C982 C 0.65091 0.74383 0.74361 0.0
C983 C 0.66134 0.73308 0.74783 0.0
C984 C 0.6593 0.76366 0.7518 0.0
C985 C 0.67833 0.77317 0.76432 0.0
C986 C 0.68887 0.76248 0.76816 0.0
C987 C 0.68049 0.74269 0.76005 0.0
H988 H 0.25504 0.90192 0.85375 0.0
H989 H 0.24942 0.8901 0.77153 0.0
H990 H 0.29114 0.92542 0.84806 0.0
H991 H 0.28573 0.91342 0.76596 0.0
H992 H 0.33674 0.98067 0.76386 0.0
H993 H 0.30413 0.95001 0.76772 0.0
H994 H 0.32541 0.9324 0.83633 0.0
H995 H 0.35813 0.9634 0.83268 0.0
C996 C 0.2616 0.90391 0.83456 0.0
C997 C 0.24924 0.89439 0.81301 0.0
C998 C 0.28237 0.91734 0.83133 0.0
C999 C 0.29126 0.92154 0.80648 0.0
C1000 C 0.27924 0.91078 0.78528 0.0
C1001 C 0.25845 0.89731 0.78851 0.0
C1002 C 0.3346 0.97017 0.7796 0.0
C1003 C 0.34997 0.97461 0.79814 0.0
C1004 C 0.31594 0.95246 0.78168 0.0
C1005 C 0.31214 0.93875 0.80237 0.0
C1006 C 0.32781 0.94276 0.8203 0.0
C1007 C 0.34657 0.96048 0.81816 0.0
H1008 H 0.7066 0.96224 0.36034 0.0
H1009 H 0.7235 0.97242 0.27928 0.0
H1010 H 0.69566 0.98731 0.35731 0.0
H1011 H 0.7128 0.99784 0.27629 0.0
H1012 H 0.66883 0.02402 0.27638 0.0
H1013 H 0.67987 0.99889 0.27893 0.0
H1014 H 0.71151 0.0243 0.35052 0.0
H1015 H 0.70048 0.0493 0.3481 0.0
C1016 C 0.70797 0.96985 0.34186 0.0
C1017 C 0.71583 0.96532 0.32001 0.0
C1018 C 0.70185 0.98431 0.34018 0.0
C1019 C 0.70333 0.99449 0.31656 0.0
C1020 C 0.71131 0.99008 0.2947 0.0
C1021 C 0.71763 0.97572 0.29645 0.0
C1022 C 0.67804 0.02416 0.29274 0.0
C1023 C 0.68374 0.03862 0.31208 0.0
C1024 C 0.6845 1.00989 0.29406 0.0
C1025 C 0.69659 1.00968 0.31489 0.0
C1026 C 0.70207 0.02399 0.33435 0.0
C1027 C 0.69578 0.03835 0.33291 0.0
H1028 H 0.18115 0.82213 0.28843 0.0
H1029 H 0.14822 0.81774 0.35853 0.0
H1030 H 0.15127 0.79255 0.27179 0.0
H1031 H 0.11843 0.78817 0.34206 0.0
H1032 H 0.06229 0.75341 0.29192 0.0
H1033 H 0.0933 0.78138 0.3087 0.0
H1034 H 0.12857 0.75643 0.27706 0.0
H1035 H 0.09745 0.7285 0.25976 0.0
C1036 C 0.16769 0.81463 0.30053 0.0
C1037 C 0.16704 0.82243 0.32474 0.0
C1038 C 0.15052 0.79768 0.29096 0.0
C1039 C 0.13231 0.78812 0.3054 0.0
C1040 C 0.13201 0.79542 0.33011 0.0
C1041 C 0.14912 0.81235 0.33962 0.0
C1042 C 0.07664 0.75387 0.28843 0.0
C1043 C 0.07733 0.73866 0.27449 0.0
C1044 C 0.09445 0.76986 0.29827 0.0
C1045 C 0.11346 0.77109 0.29449 0.0
C1046 C 0.11422 0.75604 0.28021 0.0
C1047 C 0.09636 0.73999 0.27035 0.0
H1048 H 0.23501 0.40218 0.32281 0.0
H1049 H 0.27797 0.46507 0.33339 0.0
H1050 H 0.26322 0.39686 0.30941 0.0
H1051 H 0.30558 0.45974 0.32034 0.0
H1052 H 0.35318 0.44138 0.32478 0.0
H1053 H 0.32269 0.44141 0.33946 0.0
H1054 H 0.2902 0.40867 0.27176 0.0
H1055 H 0.32087 0.4085 0.2569 0.0
C1056 C 0.25037 0.4148 0.32229 0.0
C1057 C 0.2542 0.43402 0.32921 0.0
C1058 C 0.26646 0.41178 0.31457 0.0
C1059 C 0.28663 0.42786 0.31412 0.0
C1060 C 0.29029 0.44699 0.3209 0.0
C1061 C 0.27435 0.45003 0.32823 0.0
C1062 C 0.33954 0.434 0.31305 0.0
C1063 C 0.33959 0.42517 0.28945 0.0
C1064 C 0.32205 0.43405 0.32149 0.0
C1065 C 0.30412 0.42522 0.30663 0.0
C1066 C 0.30378 0.41551 0.28366 0.0
C1067 C 0.32139 0.41555 0.27509 0.0
H1068 H 0.25468 0.36641 0.83409 0.0
H1069 H 0.22139 0.35218 0.90641 0.0
H1070 H 0.27719 0.35523 0.85296 0.0
H1071 H 0.24403 0.34083 0.92526 0.0
H1072 H 0.2801 0.30588 0.93942 0.0
H1073 H 0.25518 0.31443 0.92108 0.0
H1074 H 0.30406 0.36899 0.88762 0.0
H1075 H 0.3289 0.3606 0.90596 0.0
C1076 C 0.25193 0.36062 0.85391 0.0
C1077 C 0.2362 0.3603 0.86873 0.0
C1078 C 0.26498 0.35436 0.8648 0.0
C1079 C 0.26259 0.34739 0.89072 0.0
C1080 C 0.24627 0.3461 0.90521 0.0
C1081 C 0.23329 0.35261 0.89439 0.0
C1082 C 0.28553 0.31975 0.92824 0.0
C1083 C 0.30654 0.33252 0.92414 0.0
C1084 C 0.27124 0.32466 0.91781 0.0
C1085 C 0.27762 0.3423 0.9027 0.0
C1086 C 0.29862 0.35514 0.89885 0.0
C1087 C 0.31288 0.35038 0.90954 0.0
H1088 H 0.75254 0.96815 0.91734 0.0
H1089 H 0.72122 0.96855 0.84686 0.0
H1090 H 0.74842 0.99556 0.93383 0.0
H1091 H 0.71705 0.99586 0.86333 0.0
H1092 H 0.69047 0.02545 0.91262 0.0
H1093 H 0.69674 0.99909 0.89771 0.0
H1094 H 0.75829 0.03134 0.92689 0.0
H1095 H 0.75195 0.05774 0.94218 0.0
C1096 C 0.74512 0.97431 0.90515 0.0
C1097 C 0.73703 0.96601 0.88085 0.0
C1098 C 0.74269 0.98998 0.91466 0.0
C1099 C 0.73212 0.99766 0.90008 0.0
C1100 C 0.72483 0.98994 0.87533 0.0
C1101 C 0.72727 0.97433 0.86584 0.0
C1102 C 0.7053 0.02689 0.91611 0.0
C1103 C 0.72073 0.04378 0.9285 0.0
C1104 C 0.70895 0.01184 0.90734 0.0
C1105 C 0.72811 0.01326 0.91076 0.0
C1106 C 0.74335 0.02978 0.924 0.0
C1107 C 0.73971 0.04491 0.93274 0.0
H1108 H 0.15375 0.82331 0.88465 0.0
H1109 H 0.11479 0.83397 0.83235 0.0
H1110 H 0.12492 0.79006 0.89612 0.0
H1111 H 0.08641 0.80079 0.84328 0.0
H1112 H 0.04931 0.73161 0.84768 0.0
H1113 H 0.08049 0.76296 0.83758 0.0
H1114 H 0.08695 0.77877 0.91834 0.0
H1115 H 0.0554 0.74752 0.92854 0.0
C1116 C 0.13912 0.81849 0.87551 0.0
C1117 C 0.13644 0.8312 0.85771 0.0
C1118 C 0.12269 0.79958 0.88212 0.0
C1119 C 0.10358 0.79297 0.87046 0.0
C1120 C 0.10106 0.80555 0.85237 0.0
C1121 C 0.11726 0.82454 0.84626 0.0
C1122 C 0.05747 0.74163 0.86336 0.0
C1123 C 0.04985 0.73718 0.88888 0.0
C1124 C 0.07527 0.75955 0.85755 0.0
C1125 C 0.08601 0.77316 0.87721 0.0
C1126 C 0.07894 0.76839 0.90291 0.0
C1127 C 0.06088 0.75061 0.90868 0.0
H1128 H 0.33093 0.1344 0.69267 0.0
H1129 H 0.31826 0.13126 0.77481 0.0
H1130 H 0.34199 0.10959 0.69901 0.0
H1131 H 0.32855 0.10595 0.78094 0.0
H1132 H 0.37467 0.08344 0.7867 0.0
H1133 H 0.36074 0.10587 0.78 0.0
H1134 H 0.3304 0.07439 0.71047 0.0
H1135 H 0.34464 0.0521 0.71691 0.0
C1136 C 0.33032 0.1283 0.71203 0.0
C1137 C 0.32386 0.13499 0.73324 0.0
C1138 C 0.33647 0.11392 0.71562 0.0
C1139 C 0.33631 0.10591 0.74052 0.0
C1140 C 0.32915 0.11206 0.76157 0.0
C1141 C 0.32299 0.1264 0.75797 0.0
C1142 C 0.365 0.08126 0.77 0.0
C1143 C 0.3608 0.066 0.75232 0.0
C1144 C 0.35688 0.09403 0.76627 0.0
C1145 C 0.34439 0.09188 0.74475 0.0
C1146 C 0.34012 0.07656 0.7271 0.0
C1147 C 0.34822 0.06374 0.73087 0.0
H1148 H 0.88835 0.26933 0.66888 0.0
H1149 H 0.90119 0.25635 0.74655 0.0
H1150 H 0.91324 0.30499 0.67445 0.0
H1151 H 0.9261 0.29146 0.752 0.0
H1152 H 0.96536 0.35765 0.76155 0.0
H1153 H 0.93433 0.32541 0.75648 0.0
H1154 H 0.9499 0.32445 0.67624 0.0
H1155 H 0.98053 0.35684 0.68114 0.0
C1156 C 0.89601 0.27418 0.68738 0.0
C1157 C 0.89276 0.26004 0.70729 0.0
C1158 C 0.91052 0.29456 0.69048 0.0
C1159 C 0.92194 0.30121 0.71362 0.0
C1160 C 0.91758 0.28713 0.73402 0.0
C1161 C 0.90327 0.26689 0.73086 0.0
C1162 C 0.96207 0.35065 0.74277 0.0
C1163 C 0.97561 0.35983 0.72185 0.0
C1164 C 0.94427 0.33209 0.73984 0.0
C1165 C 0.93952 0.32213 0.71594 0.0
C1166 C 0.95278 0.33167 0.69483 0.0
C1167 C 0.97053 0.35024 0.69774 0.0
H1168 H 0.81395 0.69229 0.72131 0.0
H1169 H 0.80174 0.71325 0.64827 0.0
H1170 H 0.78206 0.68789 0.73893 0.0
H1171 H 0.76979 0.70876 0.66594 0.0
H1172 H 0.70346 0.67194 0.69608 0.0
H1173 H 0.7364 0.67831 0.67972 0.0
H1174 H 0.76508 0.70806 0.75079 0.0
H1175 H 0.73215 0.70179 0.7672 0.0
C1176 C 0.80458 0.69618 0.70911 0.0
C1177 C 0.81037 0.70309 0.68337 0.0
C1178 C 0.78634 0.6937 0.71924 0.0
C1179 C 0.77336 0.69782 0.70374 0.0
C1180 C 0.77939 0.70523 0.67822 0.0
C1181 C 0.79777 0.70798 0.6682 0.0
C1182 C 0.71675 0.67972 0.70831 0.0
C1183 C 0.71516 0.68634 0.73297 0.0
C1184 C 0.73564 0.68353 0.69882 0.0
C1185 C 0.75333 0.69381 0.7139 0.0
C1186 C 0.75169 0.70005 0.73878 0.0
C1187 C 0.73283 0.69647 0.74814 0.0
H1188 H 0.78067 0.70293 0.14957 0.0
H1189 H 0.83499 0.75532 0.1215 0.0
H1190 H 0.76096 0.71958 0.14114 0.0
H1191 H 0.81496 0.77236 0.11298 0.0
H1192 H 0.76314 0.77993 0.06904 0.0
H1193 H 0.7873 0.76881 0.08219 0.0
H1194 H 0.7555 0.74653 0.15514 0.0
H1195 H 0.73126 0.75732 0.14195 0.0
C1196 C 0.7885 0.7182 0.14187 0.0
C1197 C 0.80944 0.72777 0.13616 0.0
C1198 C 0.77715 0.72783 0.13717 0.0
C1199 C 0.78629 0.74736 0.12639 0.0
C1200 C 0.8074 0.75725 0.12118 0.0
C1201 C 0.81893 0.7476 0.12626 0.0
C1202 C 0.7614 0.77283 0.088 0.0
C1203 C 0.74502 0.76931 0.10426 0.0
C1204 C 0.77538 0.76659 0.09562 0.0
C1205 C 0.7733 0.75659 0.11965 0.0
C1206 C 0.75742 0.75387 0.13632 0.0
C1207 C 0.7435 0.76012 0.12875 0.0
H1208 H 0.39936 0.16089 0.15891 0.0
H1209 H 0.34186 0.16019 0.15152 0.0
H1210 H 0.38268 0.12583 0.14695 0.0
H1211 H 0.32566 0.12571 0.13828 0.0
H1212 H 0.29749 0.05788 0.14781 0.0
H1213 H 0.3147 0.09348 0.15734 0.0
H1214 H 0.36685 0.10255 0.11274 0.0
H1215 H 0.34984 0.06674 0.10391 0.0
C1216 C 0.38325 0.15345 0.15462 0.0
C1217 C 0.37209 0.16364 0.15667 0.0
C1218 C 0.3737 0.1333 0.14743 0.0
C1219 C 0.35273 0.12279 0.14188 0.0
C1220 C 0.34173 0.13314 0.14296 0.0
C1221 C 0.35122 0.1532 0.1503 0.0
C1222 C 0.3126 0.06746 0.13995 0.0
C1223 C 0.32227 0.05943 0.12511 0.0
C1224 C 0.32245 0.08795 0.14529 0.0
C1225 C 0.34219 0.10099 0.13576 0.0
C1226 C 0.35179 0.09295 0.12071 0.0
C1227 C 0.34197 0.07242 0.1155 0.0
H1228 H 0.9278 0.25308 0.19457 0.0
H1229 H 0.91722 0.23359 0.11503 0.0
H1230 H 0.96409 0.27263 0.18595 0.0
H1231 H 0.95375 0.25298 0.10653 0.0
H1232 H 1.00647 0.31982 0.09597 0.0
H1233 H 0.97391 0.28964 0.10295 0.0
H1234 H 0.99694 0.27615 0.1733 0.0
H1235 H 0.02967 0.30669 0.16645 0.0
C1236 C 0.93328 0.25246 0.17544 0.0
C1237 C 0.91958 0.24217 0.15531 0.0
C1238 C 0.95416 0.26358 0.17054 0.0
C1239 C 0.96176 0.26465 0.14542 0.0
C1240 C 0.94827 0.25272 0.12597 0.0
C1241 C 0.92735 0.24153 0.13089 0.0
C1242 C 1.00476 0.31026 0.1127 0.0
C1243 C 0.02053 0.31584 0.13091 0.0
C1244 C 0.98612 0.2928 0.11656 0.0
C1245 C 0.98279 0.28053 0.13877 0.0
C1246 C 0.999 0.28541 0.15613 0.0
C1247 C 0.01775 0.30288 0.15218 0.0
H1248 H 0.33645 0.26981 0.66946 0.0
H1249 H 0.27085 0.23665 0.66318 0.0
H1250 H 0.33646 0.30045 0.65664 0.0
H1251 H 0.27089 0.2678 0.65091 0.0
H1252 H 0.28525 0.32791 0.60605 0.0
H1253 H 0.28298 0.29532 0.61546 0.0
H1254 H 0.32482 0.3212 0.67936 0.0
H1255 H 0.32721 0.35351 0.67003 0.0
C1256 C 0.32201 0.26893 0.66495 0.0
C1257 C 0.30362 0.25068 0.66739 0.0
C1258 C 0.32203 0.28661 0.65791 0.0
C1259 C 0.30367 0.28656 0.6531 0.0
C1260 C 0.28527 0.26826 0.6545 0.0
C1261 C 0.28525 0.25048 0.6617 0.0
C1262 C 0.29386 0.32657 0.62217 0.0
C1263 C 0.30653 0.34334 0.63717 0.0
C1264 C 0.2925 0.30792 0.62759 0.0
C1265 C 0.30392 0.30581 0.64793 0.0
C1266 C 0.31615 0.32247 0.66325 0.0
C1267 C 0.31741 0.34097 0.65797 0.0
H1268 H 0.82834 0.13128 0.64068 0.0
H1269 H 0.79527 0.16367 0.64656 0.0
H1270 H 0.79751 0.10136 0.6289 0.0
H1271 H 0.76396 0.1334 0.63359 0.0
H1272 H 0.70896 0.06852 0.64214 0.0
H1273 H 0.73934 0.10077 0.64952 0.0
H1274 H 0.77312 0.08486 0.597 0.0
H1275 H 0.74293 0.05232 0.5905 0.0
C1276 C 0.81448 0.13215 0.63908 0.0
C1277 C 0.81439 0.15001 0.64472 0.0
C1278 C 0.79668 0.11486 0.63202 0.0
C1279 C 0.77804 0.11474 0.63012 0.0
C1280 C 0.77794 0.13277 0.63511 0.0
C1281 C 0.79593 0.15022 0.64231 0.0
C1282 C 0.72287 0.07191 0.63211 0.0
C1283 C 0.7235 0.05765 0.61593 0.0
C1284 C 0.74032 0.09056 0.63618 0.0
C1285 C 0.7589 0.09558 0.62404 0.0
C1286 C 0.7593 0.0815 0.6072 0.0
C1287 C 0.74191 0.06279 0.60334 0.0
H1288 H 0.90139 0.72829 0.61308 0.0
H1289 H 0.92984 0.74506 0.68847 0.0
H1290 H 0.93484 0.74382 0.59257 0.0
H1291 H 0.96336 0.76072 0.66785 0.0
H1292 H 0.01415 0.75541 0.62449 0.0
H1293 H 0.98188 0.74606 0.64553 0.0
H1294 H 0.9671 0.77576 0.58368 0.0
H1295 H 0.99953 0.78514 0.56242 0.0
C1296 C 0.91479 0.73564 0.62524 0.0
C1297 C 0.91294 0.7353 0.65244 0.0
C1298 C 0.93397 0.74461 0.61346 0.0
C1299 C 0.95175 0.75332 0.6286 0.0
C1300 C 0.94992 0.75389 0.65569 0.0
C1301 C 0.93072 0.74507 0.66748 0.0
C1302 C 1.00409 0.76004 0.61537 0.0
C1303 C 1.0094 0.77095 0.59167 0.0
C1304 C 0.98566 0.75483 0.62759 0.0
C1305 C 0.97197 0.76025 0.61635 0.0
C1306 C 0.9773 0.7713 0.59276 0.0
C1307 C 0.99588 0.77669 0.58061 0.0
H1308 H 0.87823 0.66692 0.19811 0.0
H1309 H 0.91709 0.72824 0.17225 0.0
H1310 H 0.90699 0.66639 0.21864 0.0
H1311 H 0.94641 0.72772 0.19314 0.0
H1312 H 0.99413 0.70407 0.20399 0.0
H1313 H 0.96711 0.70999 0.18682 0.0
H1314 H 0.93073 0.68072 0.25493 0.0
H1315 H 0.95749 0.67467 0.27196 0.0
C1316 C 0.89296 0.68043 0.19701 0.0
C1317 C 0.89533 0.69762 0.18347 0.0
C1318 C 0.90949 0.68015 0.20898 0.0
C1319 C 0.92908 0.69701 0.20766 0.0
C1320 C 0.93153 0.71444 0.19444 0.0
C1321 C 0.91475 0.71481 0.18267 0.0
C1322 C 0.98043 0.69904 0.21541 0.0
C1323 C 0.97795 0.68865 0.23926 0.0
C1324 C 0.965 0.70258 0.20563 0.0
C1325 C 0.94665 0.69572 0.21937 0.0
C1326 C 0.94452 0.68599 0.24363 0.0
C1327 C 0.95993 0.68254 0.25343 0.0
H1328 H 0.39247 0.28662 0.26312 0.0
H1329 H 0.42615 0.32323 0.197 0.0
H1330 H 0.39 0.31475 0.28023 0.0
H1331 H 0.42343 0.35134 0.21377 0.0
H1332 H 0.42765 0.40292 0.2605 0.0
H1333 H 0.43339 0.37581 0.24708 0.0
H1334 H 0.37199 0.33242 0.2702 0.0
H1335 H 0.36646 0.35948 0.28428 0.0
C1336 C 0.39939 0.30073 0.25228 0.0
C1337 C 0.40939 0.30266 0.22864 0.0
C1338 C 0.3979 0.31684 0.26201 0.0
C1339 C 0.40628 0.33529 0.24825 0.0
C1340 C 0.41696 0.33744 0.22505 0.0
C1341 C 0.41854 0.32132 0.2154 0.0
C1342 C 0.4154 0.38758 0.26286 0.0
C1343 C 0.39658 0.38339 0.27348 0.0
C1344 C 0.41867 0.37203 0.25501 0.0
C1345 C 0.40317 0.35189 0.25751 0.0
C1346 C 0.38441 0.34771 0.26836 0.0
C1347 C 0.38117 0.36326 0.2763 0.0
H1348 H 0.82499 0.18911 0.22972 0.0
H1349 H 0.78886 0.20591 0.18048 0.0
H1350 H 0.79372 0.15952 0.24541 0.0
H1351 H 0.75794 0.17639 0.19579 0.0
H1352 H 0.71046 0.11007 0.20772 0.0
H1353 H 0.74314 0.13752 0.19256 0.0
H1354 H 0.76123 0.15485 0.27181 0.0
H1355 H 0.72839 0.12751 0.28713 0.0
C1356 C 0.81042 0.18642 0.22219 0.0
C1357 C 0.8093 0.1998 0.20399 0.0
C1358 C 0.79261 0.1696 0.2312 0.0
C1359 C 0.77355 0.16575 0.22166 0.0
C1360 C 0.7725 0.17898 0.20324 0.0
C1361 C 0.79018 0.19592 0.19463 0.0
C1362 C 0.72144 0.11963 0.22194 0.0
C1363 C 0.71684 0.11676 0.24858 0.0
C1364 C 0.74009 0.13532 0.21325 0.0
C1365 C 0.75458 0.14821 0.23107 0.0
C1366 C 0.7503 0.14498 0.25776 0.0
C1367 C 0.73149 0.12947 0.26645 0.0
H1368 H 0.07695 0.53873 0.90093 0.0
H1369 H 0.02059 0.491 0.93273 0.0
H1370 H 0.0744 0.51752 0.86514 0.0
H1371 H 0.01855 0.46942 0.8975 0.0
H1372 H 1.01082 0.44361 0.81533 0.0
H1373 H 1.01236 0.46457 0.85138 0.0
H1374 H 0.07749 0.48887 0.85592 0.0
H1375 H 0.07603 0.46847 0.81972 0.0
C1376 C 0.06402 0.52372 0.90039 0.0
C1377 C 0.049 0.51671 0.91988 0.0
C1378 C 0.06266 0.51141 0.87993 0.0
C1379 C 0.04629 0.49166 0.87836 0.0
C1380 C 0.03127 0.48459 0.89787 0.0
C1381 C 0.03261 0.49693 0.91835 0.0
C1382 C 0.02545 0.45344 0.82405 0.0
C1383 C 0.0433 0.4544 0.81449 0.0
C1384 C 0.02633 0.46539 0.84483 0.0
C1385 C 0.04508 0.47855 0.85657 0.0
C1386 C 0.06283 0.47926 0.84712 0.0
C1387 C 0.06196 0.46741 0.82638 0.0
H1388 H 0.53561 0.59698 0.88888 0.0
H1389 H 0.58199 0.5924 0.93377 0.0
H1390 H 0.56014 0.61468 0.85455 0.0
H1391 H 0.60661 0.61059 0.89938 0.0
H1392 H 0.6481 0.66471 0.84398 0.0
H1393 H 0.62428 0.64517 0.87879 0.0
H1394 H 0.58011 0.60803 0.82184 0.0
H1395 H 0.60383 0.62754 0.78702 0.0
C1396 C 0.55091 0.59951 0.89151 0.0
C1397 C 0.55658 0.593 0.91436 0.0
C1398 C 0.56503 0.60974 0.87169 0.0
C1399 C 0.5853 0.61397 0.87416 0.0
C1400 C 0.59112 0.60769 0.89698 0.0
C1401 C 0.57693 0.59726 0.91677 0.0
C1402 C 0.63336 0.65229 0.83887 0.0
C1403 C 0.62786 0.64775 0.81269 0.0
C1404 C 0.61976 0.64103 0.85884 0.0
C1405 C 0.60027 0.62513 0.85307 0.0
C1406 C 0.59493 0.62036 0.82691 0.0
C1407 C 0.60858 0.63147 0.80696 0.0
H1408 H 0.45965 0.05571 0.98555 0.0
H1409 H 0.50291 0.10876 0.94286 0.0
H1410 H 0.43612 0.04614 0.94895 0.0
H1411 H 0.4792 0.09939 0.90637 0.0
H1412 H 0.44365 0.06057 0.8366 0.0
H1413 H 0.46611 0.07201 0.87417 0.0
H1414 H 0.41456 0.05692 0.92382 0.0
H1415 H 0.39195 0.04531 0.88617 0.0
C1416 C 0.46408 0.06537 0.96838 0.0
C1417 C 0.4832 0.0829 0.96699 0.0
C1418 C 0.45053 0.06 0.94753 0.0
C1419 C 0.45586 0.07197 0.92476 0.0
C1420 C 0.47477 0.08977 0.92359 0.0
C1421 C 0.48826 0.09523 0.94455 0.0
C1422 C 0.43707 0.05968 0.85551 0.0
C1423 C 0.41599 0.05197 0.8584 0.0
C1424 C 0.44998 0.0664 0.877 0.0
C1425 C 0.44211 0.06545 0.90191 0.0
C1426 C 0.42103 0.05772 0.90486 0.0
C1427 C 0.40811 0.05113 0.88329 0.0
H1428 H 0.53602 0.10837 0.6516 0.0
H1429 H 0.49017 0.05913 0.60767 0.0
H1430 H 0.51122 0.10105 0.68602 0.0
H1431 H 0.46529 0.05254 0.64125 0.0
H1432 H 0.43123 0.03221 0.7179 0.0
H1433 H 0.45686 0.03943 0.68476 0.0
H1434 H 0.48092 0.10305 0.69486 0.0
H1435 H 0.45565 0.09582 0.72854 0.0
C1436 C 0.5207 0.09603 0.64923 0.0
C1437 C 0.51516 0.08442 0.62675 0.0
C1438 C 0.50641 0.09197 0.66884 0.0
C1439 C 0.48624 0.07621 0.6664 0.0
C1440 C 0.48073 0.06463 0.64394 0.0
C1441 C 0.495 0.06863 0.62443 0.0
C1442 C 0.44198 0.04774 0.71304 0.0
C1443 C 0.44138 0.06344 0.72583 0.0
C1444 C 0.45663 0.05189 0.69395 0.0
C1445 C 0.47094 0.07183 0.6871 0.0
C1446 C 0.47032 0.08753 0.69991 0.0
C1447 C 0.45573 0.08338 0.7191 0.0
H1448 H 0.09064 0.5474 0.6043 0.0
H1449 H 0.03307 0.50297 0.57291 0.0
H1450 H 0.08791 0.52368 0.6386 0.0
H1451 H 0.03049 0.479 0.60667 0.0
H1452 H 0.02125 0.44775 0.68607 0.0
H1453 H 0.02424 0.47098 0.65106 0.0
H1454 H 0.08933 0.49436 0.64895 0.0
H1455 H 0.08635 0.47164 0.68471 0.0
C1456 C 0.07751 0.53247 0.60453 0.0
C1457 C 0.06204 0.52717 0.58589 0.0
C1458 C 0.07594 0.51878 0.6242 0.0
C1459 C 0.05893 0.49928 0.62565 0.0
C1460 C 0.04361 0.49393 0.60669 0.0
C1461 C 0.0451 0.5077 0.5872 0.0
C1462 C 0.0362 0.45779 0.67808 0.0
C1463 C 0.05356 0.45781 0.68833 0.0
C1464 C 0.03793 0.4711 0.6578 0.0
C1465 C 0.05706 0.48472 0.64697 0.0
C1466 C 0.07437 0.48445 0.65698 0.0
C1467 C 0.07265 0.47125 0.67743 0.0
H1468 H 0.56709 0.60164 0.55536 0.0
H1469 H 0.52342 0.56345 0.61352 0.0
H1470 H 0.58618 0.62625 0.58841 0.0
H1471 H 0.5428 0.58766 0.64662 0.0
H1472 H 0.57489 0.63942 0.70027 0.0
H1473 H 0.55388 0.6199 0.66413 0.0
H1474 H 0.60786 0.62903 0.62393 0.0
H1475 H 0.62884 0.64905 0.65963 0.0
C1476 C 0.56144 0.59857 0.57514 0.0
C1477 C 0.54376 0.5805 0.58178 0.0
C1478 C 0.57249 0.61262 0.59416 0.0
C1479 C 0.56619 0.60891 0.62031 0.0
C1480 C 0.54803 0.5912 0.62669 0.0
C1481 C 0.53693 0.57722 0.60767 0.0
C1482 C 0.58229 0.63747 0.68357 0.0
C1483 C 0.60355 0.64571 0.68295 0.0
C1484 C 0.57022 0.62616 0.66288 0.0
C1485 C 0.57911 0.6227 0.64112 0.0
C1486 C 0.60045 0.63155 0.64015 0.0
C1487 C 0.61252 0.64296 0.66076 0.0
H1488 H 0.0251 0.59024 0.0733 0.0
H1489 H 0.08658 0.60629 0.09527 0.0
H1490 H 0.02305 0.60874 0.10985 0.0
H1491 H 0.08482 0.62548 0.13114 0.0
H1492 H 0.06608 0.63766 0.21006 0.0
H1493 H 0.06868 0.62015 0.17274 0.0
H1494 H 0.03559 0.64211 0.12609 0.0
H1495 H 0.03259 0.65932 0.16371 0.0
C1496 C 0.03821 0.59769 0.08586 0.0
C1497 C 0.05598 0.59658 0.08127 0.0
C1498 C 0.03711 0.60856 0.10669 0.0
C1499 C 0.05375 0.61863 0.12356 0.0
C1500 C 0.0716 0.61772 0.1188 0.0
C1501 C 0.07269 0.60686 0.09797 0.0
C1502 C 0.05939 0.63883 0.19185 0.0
C1503 C 0.0491 0.64991 0.18996 0.0
C1504 C 0.061 0.62886 0.17034 0.0
C1505 C 0.05237 0.62968 0.1463 0.0
C1506 C 0.0422 0.64091 0.14435 0.0
C1507 C 0.04059 0.65089 0.1659 0.0
H1508 H 0.51311 0.53666 0.13551 0.0
H1509 H 0.46592 0.5098 0.07762 0.0
H1510 H 0.48838 0.51796 0.16955 0.0
H1511 H 0.44095 0.49148 0.11185 0.0
H1512 H 0.41163 0.44268 0.17787 0.0
H1513 H 0.43336 0.46358 0.14232 0.0
H1514 H 0.45872 0.51512 0.19182 0.0
H1515 H 0.43724 0.49416 0.22755 0.0
C1516 C 0.49743 0.52683 0.13005 0.0
C1517 C 0.49154 0.52464 0.10381 0.0
C1518 C 0.48318 0.51629 0.14961 0.0
C1519 C 0.46266 0.50323 0.14345 0.0
C1520 C 0.45666 0.50131 0.11723 0.0
C1521 C 0.47094 0.51195 0.09764 0.0
C1522 C 0.42165 0.45852 0.18111 0.0
C1523 C 0.42282 0.46669 0.20566 0.0
C1524 C 0.43405 0.47054 0.16065 0.0
C1525 C 0.44792 0.49099 0.16428 0.0
C1526 C 0.44845 0.49934 0.18851 0.0
C1527 C 0.43603 0.48734 0.20895 0.0
H1528 H 0.58494 0.08329 0.10633 0.0
H1529 H 0.56026 0.11162 0.15447 0.0
H1530 H 0.605 0.08196 0.14288 0.0
H1531 H 0.5805 0.11045 0.19096 0.0
H1532 H 0.6364 0.12368 0.24117 0.0
H1533 H 0.61626 0.12518 0.20482 0.0
H1534 H 0.59946 0.06439 0.18539 0.0
H1535 H 0.61985 0.06293 0.22164 0.0
C1536 C 0.58369 0.08914 0.12472 0.0
C1537 C 0.57086 0.09746 0.12743 0.0
C1538 C 0.59519 0.08837 0.14568 0.0
C1539 C 0.59424 0.09598 0.16986 0.0
C1540 C 0.58171 0.10463 0.1725 0.0
C1541 C 0.57014 0.10534 0.15154 0.0
C1542 C 0.62839 0.1106 0.2292 0.0
C1543 C 0.62976 0.09318 0.23429 0.0
C1544 C 0.61676 0.11144 0.20844 0.0
C1545 C 0.6063 0.09493 0.1922 0.0
C1546 C 0.60756 0.07745 0.19737 0.0
C1547 C 0.61913 0.07657 0.21823 0.0
H1548 H 0.60259 0.139 0.44496 0.0
H1549 H 0.61048 0.09357 0.48621 0.0
H1550 H 0.62208 0.13735 0.40843 0.0
H1551 H 0.62988 0.09188 0.4498 0.0
H1552 H 0.63407 0.07343 0.36661 0.0
H1553 H 0.61974 0.07876 0.40574 0.0
H1554 H 0.65582 0.14295 0.39351 0.0
H1555 H 0.6701 0.13764 0.35404 0.0
C1556 C 0.60886 0.129 0.44646 0.0
C1557 C 0.60475 0.1162 0.46829 0.0
C1558 C 0.62 0.12803 0.42554 0.0
C1559 C 0.62724 0.11426 0.4261 0.0
C1560 C 0.62411 0.10232 0.44856 0.0
C1561 C 0.61302 0.1033 0.46941 0.0
C1562 C 0.63905 0.08869 0.37229 0.0
C1563 C 0.65319 0.10511 0.35717 0.0
C1564 C 0.63094 0.09175 0.39483 0.0
C1565 C 0.63672 0.11128 0.40276 0.0
C1566 C 0.65099 0.12773 0.38779 0.0
C1567 C 0.65922 0.12467 0.36526 0.0
H1568 H 0.05099 0.62287 0.44552 0.0
H1569 H 0.03873 0.57497 0.39348 0.0
H1570 H 0.0451 0.64128 0.41039 0.0
H1571 H 0.03171 0.59268 0.35848 0.0
H1572 H 0.03944 0.63787 0.294 0.0
H1573 H 0.04488 0.61889 0.32867 0.0
H1574 H 0.02146 0.6438 0.38446 0.0
H1575 H 0.01725 0.66365 0.34985 0.0
C1576 C 0.04682 0.61621 0.42655 0.0
C1577 C 0.04543 0.59754 0.42224 0.0
C1578 C 0.04325 0.62667 0.40634 0.0
C1579 C 0.03775 0.61856 0.38131 0.0
C1580 C 0.03627 0.59974 0.37717 0.0
C1581 C 0.04024 0.58948 0.39728 0.0
C1582 C 0.0353 0.63915 0.31366 0.0
C1583 C 0.02795 0.65233 0.31914 0.0
C1584 C 0.03835 0.62816 0.33367 0.0
C1585 C 0.03379 0.62975 0.35971 0.0
C1586 C 0.02573 0.64246 0.36492 0.0
C1587 C 0.02306 0.65373 0.34498 0.0
H1588 H 0.52847 0.54707 0.41411 0.0
H1589 H 0.47995 0.52449 0.47085 0.0
H1590 H 0.50366 0.52978 0.38001 0.0
H1591 H 0.45514 0.50716 0.43661 0.0
H1592 H 0.4155 0.49292 0.36259 0.0
H1593 H 0.43989 0.51288 0.39602 0.0
H1594 H 0.4815 0.49374 0.36929 0.0
H1595 H 0.45721 0.47385 0.33584 0.0
C1596 C 0.5125 0.53865 0.4193 0.0
C1597 C 0.50623 0.5371 0.44528 0.0
C1598 C 0.4983 0.52861 0.39975 0.0
C1599 C 0.47748 0.51692 0.40567 0.0
C1600 C 0.47108 0.51611 0.43143 0.0
C1601 C 0.48531 0.52603 0.45105 0.0
C1602 C 0.42986 0.49297 0.36383 0.0
C1603 C 0.4344 0.48178 0.34653 0.0
C1604 C 0.44378 0.50435 0.38305 0.0
C1605 C 0.46265 0.50496 0.38521 0.0
C1606 C 0.4672 0.4938 0.36789 0.0
C1607 C 0.45321 0.48228 0.34884 0.0
H1608 H 0.6757 0.86065 0.27429 0.0
H1609 H 0.7261 0.85184 0.29605 0.0
H1610 H 0.67066 0.84103 0.23479 0.0
H1611 H 0.721 0.83231 0.25744 0.0
H1612 H 0.72941 0.8293 0.17161 0.0
H1613 H 0.72825 0.84444 0.21184 0.0
H1614 H 0.66295 0.8067 0.21485 0.0
H1615 H 0.66405 0.7913 0.17384 0.0
C1616 C 0.68525 0.85402 0.27108 0.0
C1617 C 0.7014 0.85791 0.28817 0.0
C1618 C 0.68244 0.84287 0.24843 0.0
C1619 C 0.69574 0.83549 0.24261 0.0
C1620 C 0.7108 0.83817 0.26088 0.0
C1621 C 0.71363 0.84927 0.28317 0.0
C1622 C 0.71471 0.82413 0.18064 0.0
C1623 C 0.69684 0.80888 0.16942 0.0
C1624 C 0.71407 0.8328 0.20392 0.0
C1625 C 0.69554 0.82661 0.2169 0.0
C1626 C 0.67748 0.8118 0.20539 0.0
C1627 C 0.67813 0.80294 0.18195 0.0
H1628 H 0.22397 0.94712 0.30106 0.0
H1629 H 0.2011 0.89449 0.2538 0.0
H1630 H 0.24577 0.96764 0.26528 0.0
H1631 H 0.2234 0.91475 0.21853 0.0
H1632 H 0.25661 0.95826 0.15208 0.0
H1633 H 0.23159 0.93953 0.1859 0.0
H1634 H 0.27604 0.97357 0.2445 0.0
H1635 H 0.30072 0.99278 0.21062 0.0
C1636 C 0.2234 0.93995 0.28295 0.0
C1637 C 0.21079 0.91912 0.28041 0.0
C1638 C 0.23611 0.95169 0.26249 0.0
C1639 C 0.23666 0.94289 0.239 0.0
C1640 C 0.22334 0.92219 0.23613 0.0
C1641 C 0.21053 0.9105 0.25648 0.0
C1642 C 0.26104 0.96174 0.17219 0.0
C1643 C 0.28072 0.977 0.1786 0.0
C1644 C 0.24668 0.95093 0.19166 0.0
C1645 C 0.25167 0.95497 0.2181 0.0
C1646 C 0.27141 0.97024 0.22443 0.0
C1647 C 0.2857 0.98117 0.20496 0.0
H1648 H 0.14102 0.4268 0.30279 0.0
H1649 H 0.18845 0.46969 0.25201 0.0
H1650 H 0.11696 0.41619 0.26679 0.0
H1651 H 0.16448 0.45899 0.21587 0.0
H1652 H 0.11253 0.44497 0.15998 0.0
H1653 H 0.13412 0.45803 0.19817 0.0
H1654 H 0.11179 0.39744 0.22765 0.0
H1655 H 0.08987 0.38442 0.1898 0.0
C1656 C 0.14628 0.43398 0.28392 0.0
C1657 C 0.16667 0.44894 0.28017 0.0
C1658 C 0.13252 0.42789 0.26329 0.0
C1659 C 0.13884 0.43658 0.23839 0.0
C1660 C 0.15905 0.45212 0.23486 0.0
C1661 C 0.17281 0.45827 0.25556 0.0
C1662 C 0.11212 0.43444 0.1747 0.0
C1663 C 0.09954 0.41365 0.17181 0.0
C1664 C 0.12458 0.44193 0.19653 0.0
C1665 C 0.12474 0.42879 0.21593 0.0
C1666 C 0.11184 0.408 0.21325 0.0
C1667 C 0.09936 0.40052 0.19146 0.0
H1668 H 0.18695 0.3959 0.98477 0.0
H1669 H 0.15669 0.41133 0.92431 0.0
H1670 H 0.15982 0.38951 0.0149 0.0
H1671 H 0.12949 0.40522 0.95472 0.0
H1672 H 0.07408 0.37043 1.00883 0.0
H1673 H 0.10136 0.37803 0.97789 0.0
H1674 H 0.14588 0.40624 0.03864 0.0
H1675 H 0.11871 0.39811 0.0696 0.0
C1676 C 0.17468 0.3983 0.97803 0.0
C1677 C 0.17403 0.40423 0.95218 0.0
C1678 C 0.15907 0.39461 0.99533 0.0
C1679 C 0.14248 0.39691 0.98727 0.0
C1680 C 0.1419 0.40304 0.96145 0.0
C1681 C 0.1575 0.40661 0.94407 0.0
C1682 C 0.0897 0.37823 0.01554 0.0
C1683 C 0.09422 0.38353 0.04169 0.0
C1684 C 0.10534 0.38272 0.99778 0.0
C1685 C 0.12581 0.39269 1.0058 0.0
C1686 C 0.13028 0.39822 0.0319 0.0
C1687 C 0.11468 0.39362 0.04964 0.0
H1688 H 0.67321 0.82071 0.90092 0.0
H1689 H 0.69521 0.87977 0.93195 0.0
H1690 H 0.67616 0.80813 0.94351 0.0
H1691 H 0.69754 0.86697 0.97505 0.0
H1692 H 0.723 0.84331 0.04029 0.0
H1693 H 0.71773 0.85615 0.99884 0.0
H1694 H 0.66346 0.79924 0.98612 0.0
H1695 H 0.66915 0.78625 0.02711 0.0
C1696 C 0.67832 0.83098 0.91695 0.0
C1697 C 0.684 0.85132 0.91283 0.0
C1698 C 0.67994 0.8237 0.94156 0.0
C1699 C 0.68721 0.83648 0.96296 0.0
C1700 C 0.69223 0.8567 0.95904 0.0
C1701 C 0.69067 0.86402 0.93432 0.0
C1702 C 0.70994 0.83352 0.02865 0.0
C1703 C 0.69659 0.81367 0.03708 0.0
C1704 C 0.7068 0.84096 1.00489 0.0
C1705 C 0.69013 0.82881 0.98889 0.0
C1706 C 0.67666 0.80902 0.99755 0.0
C1707 C 0.67987 0.80155 0.02121 0.0
H1708 H 0.19707 0.93764 0.93766 0.0
H1709 H 0.24352 0.92494 0.91097 0.0
H1710 H 0.21667 0.95178 0.97726 0.0
H1711 H 0.26279 0.93873 0.95048 0.0
H1712 H 0.27787 0.94065 0.03667 0.0
H1713 H 0.25836 0.92858 0.99685 0.0
H1714 H 0.24971 0.98026 0.99347 0.0
H1715 H 0.26926 0.99241 0.03369 0.0
C1716 C 0.2115 0.93801 0.94005 0.0
C1717 C 0.21852 0.92986 0.92117 0.0
C1718 C 0.22273 0.94611 0.96277 0.0
C1719 C 0.24117 0.94616 0.96715 0.0
C1720 C 0.24843 0.93852 0.94797 0.0
C1721 C 0.2373 0.93054 0.92528 0.0
C1722 C 0.27182 0.94948 0.02753 0.0
C1723 C 0.27521 0.96755 0.03837 0.0
C1724 C 0.26072 0.9426 1.00458 0.0
C1725 C 0.2526 0.95353 0.99188 0.0
C1726 C 0.25569 0.97145 1.00287 0.0
C1727 C 0.26696 0.97845 0.02583 0.0
H1728 H 0.72927 0.9264 0.44143 0.0
H1729 H 0.66972 0.90616 0.40826 0.0
H1730 H 0.72012 0.93904 0.47867 0.0
H1731 H 0.66052 0.91939 0.44575 0.0
H1732 H 0.64666 0.93166 0.52917 0.0
H1733 H 0.65363 0.91667 0.4921 0.0
H1734 H 0.71522 0.96635 0.48889 0.0
H1735 H 0.70839 0.98103 0.52629 0.0
C1736 C 0.71411 0.92458 0.44213 0.0
C1737 C 0.70027 0.91533 0.4217 0.0
C1738 C 0.70891 0.93204 0.46349 0.0
C1739 C 0.68971 0.93071 0.46516 0.0
C1740 C 0.67546 0.9207 0.44523 0.0
C1741 C 0.68068 0.91305 0.42373 0.0
C1742 C 0.66172 0.93941 0.52058 0.0
C1743 C 0.67701 0.95755 0.53095 0.0
C1744 C 0.66566 0.93082 0.49914 0.0
C1745 C 0.68504 0.94012 0.48744 0.0
C1746 C 0.70021 0.95845 0.49761 0.0
C1747 C 0.69628 0.96699 0.51905 0.0
H1748 H 0.16766 0.88522 0.4282 0.0
H1749 H 0.11998 0.85415 0.37195 0.0
H1750 H 0.14531 0.86359 0.46267 0.0
H1751 H 0.09737 0.83272 0.40667 0.0
H1752 H 0.07651 0.78109 0.46835 0.0
H1753 H 0.09502 0.80548 0.43379 0.0
H1754 H 0.11534 0.85352 0.48852 0.0
H1755 H 0.09715 0.82903 0.52327 0.0
C1756 C 0.15225 0.87405 0.42322 0.0
C1757 C 0.14571 0.87138 0.3972 0.0
C1758 C 0.13936 0.86166 0.44309 0.0
C1759 C 0.11954 0.84622 0.43751 0.0
C1760 C 0.11264 0.84421 0.41165 0.0
C1761 C 0.12556 0.85666 0.39174 0.0
C1762 C 0.08477 0.79686 0.47302 0.0
C1763 C 0.08544 0.80304 0.49868 0.0
C1764 C 0.0953 0.81091 0.4531 0.0
C1765 C 0.10678 0.83153 0.45829 0.0
C1766 C 0.10692 0.83776 0.48384 0.0
C1767 C 0.09639 0.8237 0.50377 0.0
H1768 H 0.27165 0.47941 0.44546 0.0
H1769 H 0.21727 0.42197 0.45594 0.0
H1770 H 0.28784 0.47116 0.48143 0.0
H1771 H 0.23318 0.41377 0.49201 0.0
H1772 H 0.27581 0.3956 0.53193 0.0
H1773 H 0.25985 0.40531 0.49743 0.0
H1774 H 0.28692 0.46512 0.52801 0.0
H1775 H 0.30329 0.45556 0.56212 0.0
C1776 C 0.26305 0.4652 0.45578 0.0
C1777 C 0.2433 0.45124 0.44778 0.0
C1778 C 0.2723 0.46044 0.47634 0.0
C1779 C 0.26189 0.44168 0.48935 0.0
C1780 C 0.24181 0.42812 0.48198 0.0
C1781 C 0.23266 0.43284 0.4614 0.0
C1782 C 0.2784 0.41083 0.53125 0.0
C1783 C 0.2908 0.42479 0.54977 0.0
C1784 C 0.26914 0.41636 0.51159 0.0
C1785 C 0.27201 0.43596 0.51008 0.0
C1786 C 0.28456 0.44997 0.52848 0.0
C1787 C 0.29387 0.44445 0.5481 0.0
H1788 H 0.28666 0.46028 0.79646 0.0
H1789 H 0.23507 0.40284 0.77751 0.0
H1790 H 0.30255 0.46079 0.75502 0.0
H1791 H 0.25069 0.40343 0.73672 0.0
H1792 H 0.27525 0.4134 0.65718 0.0
H1793 H 0.26054 0.42009 0.69483 0.0
H1794 H 0.31765 0.44194 0.7357 0.0
H1795 H 0.33261 0.43577 0.69759 0.0
C1796 C 0.27863 0.44789 0.78344 0.0
C1797 C 0.25953 0.43159 0.79038 0.0
C1798 C 0.28773 0.44818 0.75976 0.0
C1799 C 0.27784 0.4322 0.74254 0.0
C1800 C 0.25854 0.41621 0.74923 0.0
C1801 C 0.24952 0.41591 0.77277 0.0
C1802 C 0.28475 0.41982 0.6741 0.0
C1803 C 0.30499 0.42375 0.6746 0.0
C1804 C 0.27631 0.42363 0.69568 0.0
C1805 C 0.28784 0.43128 0.71838 0.0
C1806 C 0.30841 0.43618 0.71844 0.0
C1807 C 0.31694 0.43251 0.69669 0.0
H1808 H 0.67997 0.8887 0.75229 0.0
H1809 H 0.68875 0.93548 0.8043 0.0
H1810 H 0.6726 0.90573 0.71682 0.0
H1811 H 0.68293 0.95357 0.76858 0.0
H1812 H 0.66454 0.98042 0.70186 0.0
H1813 H 0.66396 0.95915 0.73812 0.0
H1814 H 0.68859 0.93174 0.68806 0.0
H1815 H 0.68781 0.95212 0.65164 0.0
C1816 C 0.67993 0.90252 0.75617 0.0
C1817 C 0.68455 0.91058 0.78112 0.0
C1818 C 0.67612 0.91259 0.73568 0.0
C1819 C 0.67755 0.93144 0.73929 0.0
C1820 C 0.68137 0.93905 0.76473 0.0
C1821 C 0.68467 0.92866 0.7854 0.0
C1822 C 0.66963 0.96967 0.69859 0.0
C1823 C 0.67621 0.96799 0.67379 0.0
C1824 C 0.66947 0.95751 0.71953 0.0
C1825 C 0.6763 0.94355 0.71648 0.0
C1826 C 0.68273 0.94183 0.69145 0.0
C1827 C 0.68246 0.95369 0.6704 0.0
H1828 H 0.17282 0.89538 0.71841 0.0
H1829 H 0.14053 0.84086 0.76473 0.0
H1830 H 0.15452 0.87731 0.67994 0.0
H1831 H 0.12237 0.82281 0.72622 0.0
H1832 H 0.10771 0.7927 0.64686 0.0
H1833 H 0.12764 0.81088 0.68462 0.0
H1834 H 0.12002 0.86151 0.66237 0.0
H1835 H 0.10041 0.84354 0.62462 0.0
C1836 C 0.16175 0.8796 0.72049 0.0
C1837 C 0.15821 0.86965 0.7448 0.0
C1838 C 0.15127 0.86921 0.69838 0.0
C1839 C 0.13699 0.84859 0.69996 0.0
C1840 C 0.13351 0.8386 0.72421 0.0
C1841 C 0.14394 0.849 0.74634 0.0
C1842 C 0.11039 0.80775 0.64997 0.0
C1843 C 0.10244 0.81664 0.63271 0.0
C1844 C 0.1217 0.81812 0.67169 0.0
C1845 C 0.12542 0.83766 0.67655 0.0
C1846 C 0.11767 0.8466 0.65907 0.0
C1847 C 0.10631 0.83622 0.63747 0.0
H1848 H 0.39256 0.19215 0.65576 0.0
H1849 H 0.3451 0.20103 0.62137 0.0
H1850 H 0.39719 0.17984 0.61455 0.0
H1851 H 0.34992 0.18897 0.58007 0.0
H1852 H 0.34778 0.14367 0.52037 0.0
H1853 H 0.34387 0.15777 0.56061 0.0
H1854 H 0.40916 0.1899 0.57035 0.0
H1855 H 0.41305 0.17564 0.53049 0.0
C1856 C 0.38329 0.19174 0.63934 0.0
C1857 C 0.36845 0.19762 0.64202 0.0
C1858 C 0.38597 0.18471 0.61562 0.0
C1859 C 0.37386 0.18327 0.59389 0.0
C1860 C 0.35932 0.18955 0.59643 0.0
C1861 C 0.35668 0.19666 0.62012 0.0
C1862 C 0.3613 0.15378 0.53106 0.0
C1863 C 0.38073 0.15843 0.52213 0.0
C1864 C 0.35908 0.16198 0.5541 0.0
C1865 C 0.3762 0.17498 0.56888 0.0
C1866 C 0.39561 0.17975 0.55976 0.0
C1867 C 0.39783 0.17163 0.53674 0.0
H1868 H 0.92197 0.21723 0.5819 0.0
H1869 H 0.91818 0.2628 0.6252 0.0
H1870 H 0.93928 0.24157 0.54659 0.0
H1871 H 0.93586 0.28727 0.59041 0.0
H1872 H 0.94563 0.31936 0.51193 0.0
H1873 H 0.92989 0.29529 0.5477 0.0
H1874 H 0.96964 0.27095 0.53309 0.0
H1875 H 0.98488 0.29461 0.49673 0.0
C1876 C 0.92515 0.23254 0.58403 0.0
C1877 C 0.91854 0.23805 0.6062 0.0
C1878 C 0.93509 0.24653 0.56382 0.0
C1879 C 0.93883 0.26641 0.56544 0.0
C1880 C 0.93281 0.27201 0.5881 0.0
C1881 C 0.92274 0.25801 0.60814 0.0
C1882 C 0.95103 0.30889 0.51636 0.0
C1883 C 0.9665 0.30892 0.50141 0.0
C1884 C 0.94209 0.29514 0.53703 0.0
C1885 C 0.9485 0.28114 0.54345 0.0
C1886 C 0.96408 0.28127 0.52854 0.0
C1887 C 0.97292 0.29495 0.50775 0.0
H1888 H 0.78635 0.65387 0.59936 0.0
H1889 H 0.84081 0.67526 0.55342 0.0
H1890 H 0.77084 0.66419 0.56478 0.0
H1891 H 0.82604 0.68664 0.51939 0.0
H1892 H 0.78889 0.69336 0.45441 0.0
H1893 H 0.80229 0.67904 0.48637 0.0
H1894 H 0.77354 0.69389 0.54768 0.0
H1895 H 0.75919 0.70712 0.51541 0.0
C1896 C 0.79483 0.66056 0.58162 0.0
C1897 C 0.81462 0.66364 0.57886 0.0
C1898 C 0.78614 0.66676 0.56197 0.0
C1899 C 0.79729 0.67659 0.53938 0.0
C1900 C 0.81685 0.67892 0.53628 0.0
C1901 C 0.82535 0.67236 0.55574 0.0
C1902 C 0.78557 0.69368 0.47475 0.0
C1903 C 0.77303 0.70139 0.48246 0.0
C1904 C 0.79327 0.68548 0.49312 0.0
C1905 C 0.78893 0.68514 0.51969 0.0
C1906 C 0.77679 0.69337 0.52738 0.0
C1907 C 0.76876 0.70121 0.50893 0.0
H1908 H 0.77327 0.65287 0.2235 0.0
H1909 H 0.83584 0.68604 0.24841 0.0
H1910 H 0.76207 0.65666 0.26652 0.0
H1911 H 0.82485 0.69009 0.29108 0.0
H1912 H 0.79826 0.68313 0.37106 0.0
H1913 H 0.80611 0.67207 0.33094 0.0
H1914 H 0.76531 0.68686 0.28883 0.0
H1915 H 0.75726 0.69775 0.32898 0.0
C1916 C 0.78455 0.66056 0.23838 0.0
C1917 C 0.80539 0.6693 0.23272 0.0
C1918 C 0.7782 0.66291 0.26284 0.0
C1919 C 0.79261 0.67381 0.28204 0.0
C1920 C 0.81338 0.6815 0.27675 0.0
C1921 C 0.8197 0.67932 0.25231 0.0
C1922 C 0.79088 0.68394 0.35328 0.0
C1923 C 0.77728 0.6915 0.35314 0.0
C1924 C 0.79539 0.6776 0.33033 0.0
C1925 C 0.78631 0.67859 0.30679 0.0
C1926 C 0.77233 0.68567 0.30675 0.0
C1927 C 0.76789 0.69211 0.3297 0.0
H1928 H 0.34383 0.16012 0.25209 0.0
H1929 H 0.36381 0.21986 0.27957 0.0
H1930 H 0.34711 0.14923 0.29577 0.0
H1931 H 0.36705 0.20882 0.32355 0.0
H1932 H 0.35021 0.17389 0.40338 0.0
H1933 H 0.34677 0.18607 0.36039 0.0
H1934 H 0.37526 0.15523 0.32603 0.0
H1935 H 0.37869 0.143 0.36904 0.0
C1936 C 0.3487 0.17093 0.26748 0.0
C1937 C 0.35355 0.19093 0.26215 0.0
C1938 C 0.35079 0.16469 0.29256 0.0
C1939 C 0.35761 0.17818 0.31318 0.0
C1940 C 0.36172 0.198 0.30814 0.0
C1941 C 0.35983 0.20433 0.28291 0.0
C1942 C 0.35589 0.1698 0.3867 0.0
C1943 C 0.3647 0.1574 0.38975 0.0
C1944 C 0.35397 0.17687 0.36202 0.0
C1945 C 0.36058 0.17153 0.33967 0.0
C1946 C 0.36972 0.15942 0.34277 0.0
C1947 C 0.37185 0.15253 0.36748 0.0
H1948 H 0.92376 0.29084 0.24477 0.0
H1949 H 0.87547 0.29952 0.27444 0.0
H1950 H 0.94244 0.30287 0.2852 0.0
H1951 H 0.89407 0.3114 0.31522 0.0
H1952 H 0.94283 0.34839 0.3763 0.0
H1953 H 0.92424 0.3382 0.33533 0.0
H1954 H 0.93965 0.29109 0.32943 0.0
H1955 H 0.95857 0.30154 0.3699 0.0
C1956 C 0.9171 0.29527 0.26 0.0
C1957 C 0.89804 0.29404 0.25648 0.0
C1958 C 0.92778 0.30212 0.28323 0.0
C1959 C 0.91964 0.30784 0.30365 0.0
C1960 C 0.90086 0.30724 0.29985 0.0
C1961 C 0.89019 0.30045 0.27647 0.0
C1962 C 0.9422 0.33582 0.36628 0.0
C1963 C 0.95228 0.32584 0.37633 0.0
C1964 C 0.93146 0.32993 0.34283 0.0
C1965 C 0.93057 0.31392 0.32894 0.0
C1966 C 0.94036 0.30375 0.3393 0.0
C1967 C 0.95111 0.30965 0.36265 0.0
H1968 H 0.35878 0.2282 0.77969 0.0
H1969 H 0.36684 0.28229 0.74095 0.0
H1970 H 0.36178 0.24351 0.82171 0.0
H1971 H 0.36938 0.2974 0.78287 0.0
H1972 H 0.38558 0.32472 0.86321 0.0
H1973 H 0.38842 0.31071 0.82227 0.0
H1974 H 0.34107 0.25204 0.84773 0.0
H1975 H 0.33855 0.2659 0.88861 0.0
C1976 C 0.36145 0.24344 0.78007 0.0
C1977 C 0.36247 0.25392 0.75681 0.0
C1978 C 0.36298 0.25219 0.80423 0.0
C1979 C 0.36558 0.27166 0.80584 0.0
C1980 C 0.36755 0.28246 0.78253 0.0
C1981 C 0.36601 0.27372 0.75839 0.0
C1982 C 0.3759 0.3088 0.86014 0.0
C1983 C 0.3618 0.29648 0.87928 0.0
C1984 C 0.37744 0.30076 0.83657 0.0
C1985 C 0.36498 0.28018 0.83154 0.0
C1986 C 0.35117 0.26786 0.85094 0.0
C1987 C 0.34961 0.27588 0.87441 0.0
H1988 H 0.85084 0.16702 0.79613 0.0
H1989 H 0.80295 0.1547 0.74076 0.0
H1990 H 0.82549 0.15229 0.83092 0.0
H1991 H 0.77775 0.14044 0.77545 0.0
H1992 H 0.7376 0.09596 0.83986 0.0
H1993 H 0.7626 0.11092 0.80497 0.0
H1994 H 0.80156 0.15985 0.8546 0.0
H1995 H 0.77663 0.14483 0.88966 0.0
C1996 C 0.83492 0.1611 0.79138 0.0
C1997 C 0.82893 0.16211 0.76571 0.0
C1998 C 0.82042 0.15286 0.81132 0.0
C1999 C 0.79961 0.14529 0.80596 0.0
C2000 C 0.79363 0.14604 0.78022 0.0
C2001 C 0.8081 0.15439 0.76037 0.0
C2002 C 0.75141 0.11001 0.84329 0.0
C2003 C 0.75509 0.11918 0.86758 0.0
C2004 C 0.76573 0.1186 0.82326 0.0
C2005 C 0.78413 0.13651 0.82706 0.0
C2006 C 0.78766 0.14589 0.85119 0.0
C2007 C 0.77327 0.13737 0.87118 0.0
H2008 H 0.9168 0.70063 0.72304 0.0
H2009 H 0.87907 0.64332 0.76188 0.0
H2010 H 0.94277 0.70888 0.75573 0.0
H2011 H 0.90455 0.65228 0.79552 0.0
H2012 H 0.95903 0.66739 0.84524 0.0
H2013 H 0.93724 0.65801 0.80705 0.0
H2014 H 0.94764 0.71873 0.79958 0.0
H2015 H 0.97014 0.72824 0.83711 0.0
C2016 C 0.91394 0.68964 0.73833 0.0
C2017 C 0.89546 0.67133 0.7398 0.0
C2018 C 0.92886 0.69457 0.75738 0.0
C2019 C 0.92567 0.68143 0.77854 0.0
C2020 C 0.90763 0.66277 0.77945 0.0
C2021 C 0.89281 0.65773 0.76024 0.0
C2022 C 0.95678 0.67876 0.83529 0.0
C2023 C 0.96618 0.69852 0.84424 0.0
C2024 C 0.9442 0.67336 0.81346 0.0
C2025 C 0.94052 0.68755 0.8003 0.0
C2026 C 0.95034 0.70746 0.80896 0.0
C2027 C 0.96315 0.71291 0.8306 0.0
H2028 H 0.85657 0.68559 0.02655 0.0
H2029 H 0.90181 0.70036 0.0867 0.0
H2030 H 0.88168 0.68993 0.99396 0.0
H2031 H 0.92709 0.70553 0.05406 0.0
H2032 H 0.95959 0.68982 0.99154 0.0
H2033 H 0.93512 0.68627 0.02457 0.0
H2034 H 0.91244 0.71628 0.97333 0.0
H2035 H 0.93663 0.71946 0.94004 0.0
C2036 C 0.87184 0.68973 0.03285 0.0
C2037 C 0.87715 0.69264 0.05927 0.0
C2038 C 0.88631 0.69248 0.01413 0.0
C2039 C 0.90642 0.69817 0.0214 0.0
C2040 C 0.9117 0.70099 0.04782 0.0
C2041 C 0.89724 0.69824 0.06652 0.0
C2042 C 0.94949 0.6958 0.98737 0.0
C2043 C 0.95002 0.70487 0.96312 0.0
C2044 C 0.9355 0.69382 1.00635 0.0
C2045 C 0.92176 0.70091 1.00154 0.0
C2046 C 0.92259 0.71036 0.97749 0.0
C2047 C 0.93656 0.71232 0.95848 0.0
H2048 H 0.3671 0.2305 0.09441 0.0
H2049 H 0.34948 0.26202 0.14733 0.0
H2050 H 0.36072 0.24713 0.05768 0.0
H2051 H 0.34398 0.27964 0.11048 0.0
H2052 H 0.32537 0.30104 0.03643 0.0
H2053 H 0.32603 0.28036 0.07288 0.0
H2054 H 0.37661 0.27846 0.03725 0.0
H2055 H 0.37533 0.29832 1.00055 0.0
C2056 C 0.36161 0.24088 0.09815 0.0
C2057 C 0.35877 0.24492 0.12378 0.0
C2058 C 0.35822 0.25068 0.07704 0.0
C2059 C 0.3523 0.26523 0.08086 0.0
C2060 C 0.34844 0.26852 0.10657 0.0
C2061 C 0.35153 0.25838 0.12779 0.0
C2062 C 0.33655 0.29608 0.03632 0.0
C2063 C 0.35025 0.30132 0.01541 0.0
C2064 C 0.33701 0.28429 0.05738 0.0
C2065 C 0.3513 0.2775 0.05822 0.0
C2066 C 0.36502 0.28286 0.03724 0.0
C2067 C 0.36441 0.29445 0.01614 0.0
H2068 H 0.83943 0.19984 0.09502 0.0
H2069 H 0.8156 0.23952 0.07639 0.0
H2070 H 0.81762 0.17669 0.06218 0.0
H2071 H 0.79334 0.21615 0.04376 0.0
H2072 H 0.77135 0.17942 0.96987 0.0
H2073 H 0.79322 0.2029 1.00236 0.0
H2074 H 0.78297 0.15317 0.05346 0.0
H2075 H 0.76161 0.12965 0.02049 0.0
C2076 C 0.82938 0.20353 0.08402 0.0
C2077 C 0.82919 0.22148 0.08837 0.0
C2078 C 0.81679 0.19021 0.06523 0.0
C2079 C 0.80354 0.19441 0.05038 0.0
C2080 C 0.80351 0.21251 0.05457 0.0
C2081 C 0.81626 0.22593 0.07327 0.0
C2082 C 0.77373 0.17347 0.98805 0.0
C2083 C 0.76477 0.15264 0.99254 0.0
C2084 C 0.7862 0.18697 1.00679 0.0
C2085 C 0.78993 0.18 0.03059 0.0
C2086 C 0.78074 0.15912 0.03519 0.0
C2087 C 0.76838 0.14561 0.01635 0.0
loop_
_geom_bond_atom_site_label_1
_geom_bond_atom_site_label_2
_geom_bond_distance
_geom_bond_site_symmetry_2
_ccdc_geom_bond_type
Cu0 N1 2.017 . S
Cu0 O6 1.967 1_554 S
Cu0 N11 1.967 1_554 S
Cu0 O20 1.966 . S
N1 Cu0 2.017 . S
N1 C3 1.263 . S
N1 C5 1.389 . S
N2 C3 1.358 . S
N2 C4 1.400 . S
C3 N1 1.263 . S
C3 N2 1.358 . S
C3 H9 0.930 . S
C4 N2 1.400 . S
C4 C5 1.351 . S
C4 H21 0.930 . S
C5 N1 1.389 . S
C5 C4 1.351 . S
C5 H10 0.930 . S
O6 Cu0 1.967 1_556 S
O6 C16 1.282 . S
C7 O8 1.261 . S
C7 O20 1.251 . S
O8 C7 1.261 . S
H9 C3 0.930 . S
H10 C5 0.930 . S
N11 Cu0 1.967 1_556 S
N11 C13 1.335 . S
N11 C14 1.390 . S
N12 C13 1.345 . S
N12 C15 1.336 . S
C13 N11 1.335 . S
C13 N12 1.345 . S
C13 H18 0.930 . S
C14 N11 1.390 . S
C14 C15 1.346 . S
C14 H19 0.930 . S
C15 N12 1.336 . S
C15 C14 1.346 . S
C15 H22 0.929 . S
C16 O6 1.282 . S
C16 O17 1.216 . S
O17 C16 1.216 . S
H18 C13 0.930 . S
H19 C14 0.930 . S
O20 Cu0 1.966 . S
O20 C7 1.251 . S
H21 C4 0.930 . S
H22 C15 0.929 . S
Cu23 N24 1.999 1_554 S
Cu23 O29 1.974 . S
Cu23 N34 1.985 . S
Cu23 O43 1.959 1_554 S
N24 Cu23 1.999 1_556 S
N24 C26 1.263 . S
N24 C28 1.389 . S
N25 C26 1.358 . S
N25 C27 1.400 . S
C26 N24 1.263 . S
C26 N25 1.358 . S
C26 H32 0.930 . S
C27 N25 1.400 . S
C27 C28 1.351 . S
C27 H44 0.930 . S
C28 N24 1.389 . S
C28 C27 1.351 . S
C28 H33 0.930 . S
O29 Cu23 1.974 . S
O29 C39 1.282 . S
C30 O31 1.261 . S
C30 O43 1.251 . S
O31 C30 1.261 . S
H32 C26 0.930 . S
H33 C28 0.930 . S
N34 Cu23 1.985 . S
N34 C36 1.335 . S
N34 C37 1.390 . S
N35 C36 1.345 . S
N35 C38 1.336 . S
C36 N34 1.335 . S
C36 N35 1.345 . S
C36 H41 0.930 . S
C37 N34 1.390 . S
C37 C38 1.346 . S
C37 H42 0.930 . S
C38 N35 1.336 . S
C38 C37 1.346 . S
C38 H45 0.929 . S
C39 O29 1.282 . S
C39 O40 1.216 . S
O40 C39 1.216 . S
H41 C36 0.930 . S
H42 C37 0.930 . S
O43 Cu23 1.959 1_556 S
O43 C30 1.251 . S
H44 C27 0.930 . S
H45 C38 0.929 . S
Cu46 N47 1.999 1_554 S
Cu46 O52 1.983 1_545 S
Cu46 N57 1.985 . S
Cu46 O66 1.959 1_554 S
N47 Cu46 1.999 1_556 S
N47 C49 1.263 . S
N47 C51 1.389 1_545 S
N48 C49 1.358 . S
N48 C50 1.400 1_545 S
C49 N47 1.263 . S
C49 N48 1.358 . S
C49 H55 0.930 . S
C50 N48 1.400 1_565 S
C50 C51 1.351 . S
C50 H67 0.930 . S
C51 N47 1.389 1_565 S
C51 C50 1.351 . S
C51 H56 0.930 . S
O52 Cu46 1.983 1_565 S
O52 C62 1.255 1_565 S
C53 O54 1.261 . S
C53 O66 1.251 . S
O54 C53 1.261 . S
H55 C49 0.930 . S
H56 C51 0.930 . S
N57 Cu46 1.985 . S
N57 C59 1.335 . S
N57 C60 1.390 . S
N58 C59 1.345 . S
N58 C61 1.336 . S
C59 N57 1.335 . S
C59 N58 1.345 . S
C59 H64 0.930 . S
C60 N57 1.390 . S
C60 C61 1.346 . S
C60 H65 0.930 . S
C61 N58 1.336 . S
C61 C60 1.346 . S
C61 H68 0.929 . S
C62 O52 1.255 1_545 S
C62 O63 1.216 . S
O63 C62 1.216 . S
H64 C59 0.930 . S
H65 C60 0.930 . S
O66 Cu46 1.959 1_556 S
O66 C53 1.251 . S
H67 C50 0.930 . S
H68 C61 0.929 . S
Cu69 N70 1.999 . S
Cu69 O75 1.974 . S
Cu69 N80 1.985 . S
Cu69 O89 1.959 . S
N70 Cu69 1.999 . S
N70 C72 1.263 . S
N70 C74 1.389 . S
N71 C72 1.358 . S
N71 C73 1.400 . S
C72 N70 1.263 . S
C72 N71 1.358 . S
C72 H78 0.930 . S
C73 N71 1.400 . S
C73 C74 1.351 . S
C73 H90 0.930 . S
C74 N70 1.389 . S
C74 C73 1.351 . S
C74 H79 0.930 . S
O75 Cu69 1.974 . S
O75 C85 1.282 . S
C76 O77 1.261 . S
C76 O89 1.251 . S
O77 C76 1.261 . S
H78 C72 0.930 . S
H79 C74 0.930 . S
N80 Cu69 1.985 . S
N80 C82 1.335 . S
N80 C83 1.390 . S
N81 C82 1.345 . S
N81 C84 1.336 . S
C82 N80 1.335 . S
C82 N81 1.345 . S
C82 H87 0.930 . S
C83 N80 1.390 . S
C83 C84 1.346 . S
C83 H88 0.930 . S
C84 N81 1.336 . S
C84 C83 1.346 . S
C84 H91 0.929 . S
C85 O75 1.282 . S
C85 O86 1.216 . S
O86 C85 1.216 . S
H87 C82 0.930 . S
H88 C83 0.930 . S
O89 Cu69 1.959 . S
O89 C76 1.251 . S
H90 C73 0.930 . S
H91 C84 0.929 . S
Cu92 N93 1.999 . S
Cu92 O98 1.974 . S
Cu92 N103 1.985 . S
Cu92 O112 1.959 . S
N93 Cu92 1.999 . S
N93 C95 1.263 . S
N93 C97 1.389 . S
N94 C95 1.358 . S
N94 C96 1.400 . S
C95 N93 1.263 . S
C95 N94 1.358 . S
C95 H101 0.930 . S
C96 N94 1.400 . S
C96 C97 1.351 . S
C96 H113 0.930 . S
C97 N93 1.389 . S
C97 C96 1.351 . S
C97 H102 0.930 . S
O98 Cu92 1.974 . S
O98 C108 1.282 . S
C99 O100 1.261 . S
C99 O112 1.251 . S
O100 C99 1.261 . S
H101 C95 0.930 . S
H102 C97 0.930 . S
N103 Cu92 1.985 . S
N103 C105 1.335 . S
N103 C106 1.390 . S
N104 C105 1.345 . S
N104 C107 1.336 . S
C105 N103 1.335 . S
C105 N104 1.345 . S
C105 H110 0.930 . S
C106 N103 1.390 . S
C106 C107 1.346 . S
C106 H111 0.930 . S
C107 N104 1.336 . S
C107 C106 1.346 . S
C107 H114 0.929 . S
C108 O98 1.282 . S
C108 O109 1.216 . S
O109 C108 1.216 . S
H110 C105 0.930 . S
H111 C106 0.930 . S
O112 Cu92 1.959 . S
O112 C99 1.251 . S
H113 C96 0.930 . S
H114 C107 0.929 . S
Cu115 N116 1.999 . S
Cu115 O121 1.974 . S
Cu115 N126 1.985 . S
Cu115 O135 1.959 . S
N116 Cu115 1.999 . S
N116 C118 1.263 . S
N116 C120 1.389 . S
N117 C118 1.358 . S
N117 C119 1.400 . S
C118 N116 1.263 . S
C118 N117 1.358 . S
C118 H124 0.930 . S
C119 N117 1.400 . S
C119 C120 1.351 . S
C119 H136 0.930 . S
C120 N116 1.389 . S
C120 C119 1.351 . S
C120 H125 0.930 . S
O121 Cu115 1.974 . S
O121 C131 1.282 . S
C122 O123 1.261 . S
C122 O135 1.251 . S
O123 C122 1.261 . S
H124 C118 0.930 . S
H125 C120 0.930 . S
N126 Cu115 1.985 . S
N126 C128 1.335 . S
N126 C129 1.390 . S
N127 C128 1.345 . S
N127 C130 1.336 . S
C128 N126 1.335 . S
C128 N127 1.345 . S
C128 H133 0.930 . S
C129 N126 1.390 . S
C129 C130 1.346 . S
C129 H134 0.930 . S
C130 N127 1.336 . S
C130 C129 1.346 . S
C130 H137 0.929 . S
C131 O121 1.282 . S
C131 O132 1.216 . S
O132 C131 1.216 . S
H133 C128 0.930 . S
H134 C129 0.930 . S
O135 Cu115 1.959 . S
O135 C122 1.251 . S
H136 C119 0.930 . S
H137 C130 0.929 . S
Cu138 N139 1.999 . S
Cu138 O144 1.974 . S
Cu138 N149 1.985 . S
Cu138 O158 1.959 . S
N139 Cu138 1.999 . S
N139 C141 1.263 . S
N139 C143 1.389 . S
N140 C141 1.358 . S
N140 C142 1.400 . S
C141 N139 1.263 . S
C141 N140 1.358 . S
C141 H147 0.930 . S
C142 N140 1.400 . S
C142 C143 1.351 . S
C142 H159 0.930 . S
C143 N139 1.389 . S
C143 C142 1.351 . S
C143 H148 0.930 . S
O144 Cu138 1.974 . S
O144 C154 1.282 . S
C145 O146 1.261 . S
C145 O158 1.251 . S
O146 C145 1.261 . S
H147 C141 0.930 . S
H148 C143 0.930 . S
N149 Cu138 1.985 . S
N149 C151 1.335 . S
N149 C152 1.390 . S
N150 C151 1.345 . S
N150 C153 1.336 . S
C151 N149 1.335 . S
C151 N150 1.345 . S
C151 H156 0.930 . S
C152 N149 1.390 . S
C152 C153 1.346 . S
C152 H157 0.930 . S
C153 N150 1.336 . S
C153 C152 1.346 . S
C153 H160 0.929 . S
C154 O144 1.282 . S
C154 O155 1.216 . S
O155 C154 1.216 . S
H156 C151 0.930 . S
H157 C152 0.930 . S
O158 Cu138 1.959 . S
O158 C145 1.251 . S
H159 C142 0.930 . S
H160 C153 0.929 . S
Cu161 N162 1.999 . S
Cu161 O167 1.974 . S
Cu161 N172 1.985 . S
Cu161 O181 1.959 . S
N162 Cu161 1.999 . S
N162 C164 1.263 . S
N162 C166 1.389 . S
N163 C164 1.358 . S
N163 C165 1.400 . S
C164 N162 1.263 . S
C164 N163 1.358 . S
C164 H170 0.930 . S
C165 N163 1.400 . S
C165 C166 1.351 . S
C165 H182 0.930 . S
C166 N162 1.389 . S
C166 C165 1.351 . S
C166 H171 0.930 . S
O167 Cu161 1.974 . S
O167 C177 1.282 . S
C168 O169 1.261 . S
C168 O181 1.251 . S
O169 C168 1.261 . S
H170 C164 0.930 . S
H171 C166 0.930 . S
N172 Cu161 1.985 . S
N172 C174 1.335 . S
N172 C175 1.390 . S
N173 C174 1.345 . S
N173 C176 1.336 . S
C174 N172 1.335 . S
C174 N173 1.345 . S
C174 H179 0.930 . S
C175 N172 1.390 . S
C175 C176 1.346 . S
C175 H180 0.930 . S
C176 N173 1.336 . S
C176 C175 1.346 . S
C176 H183 0.929 . S
C177 O167 1.282 . S
C177 O178 1.216 . S
O178 C177 1.216 . S
H179 C174 0.930 . S
H180 C175 0.930 . S
O181 Cu161 1.959 . S
O181 C168 1.251 . S
H182 C165 0.930 . S
H183 C176 0.929 . S
Cu184 N185 1.999 . S
Cu184 O190 1.974 . S
Cu184 N195 1.985 . S
Cu184 O204 1.959 . S
N185 Cu184 1.999 . S
N185 C187 1.263 . S
N185 C189 1.389 . S
N186 C187 1.358 . S
N186 C188 1.400 . S
C187 N185 1.263 . S
C187 N186 1.358 . S
C187 H193 0.930 . S
C188 N186 1.400 . S
C188 C189 1.351 . S
C188 H205 0.930 . S
C189 N185 1.389 . S
C189 C188 1.351 . S
C189 H194 0.930 . S
O190 Cu184 1.974 . S
O190 C200 1.282 . S
C191 O192 1.261 . S
C191 O204 1.251 . S
O192 C191 1.261 . S
H193 C187 0.930 . S
H194 C189 0.930 . S
N195 Cu184 1.985 . S
N195 C197 1.335 . S
N195 C198 1.390 . S
N196 C197 1.345 . S
N196 C199 1.336 . S
C197 N195 1.335 . S
C197 N196 1.345 . S
C197 H202 0.930 . S
C198 N195 1.390 . S
C198 C199 1.346 . S
C198 H203 0.930 . S
C199 N196 1.336 . S
C199 C198 1.346 . S
C199 H206 0.929 . S
C200 O190 1.282 . S
C200 O201 1.216 . S
O201 C200 1.216 . S
H202 C197 0.930 . S
H203 C198 0.930 . S
O204 Cu184 1.959 . S
O204 C191 1.251 . S
H205 C188 0.930 . S
H206 C199 0.929 . S
Cu207 N208 1.999 . S
Cu207 O213 1.974 . S
Cu207 N218 1.985 . S
Cu207 O227 1.959 . S
N208 Cu207 1.999 . S
N208 C210 1.263 . S
N208 C212 1.389 . S
N209 C210 1.358 . S
N209 C211 1.400 . S
C210 N208 1.263 . S
C210 N209 1.358 . S
C210 H216 0.930 . S
C211 N209 1.400 . S
C211 C212 1.351 . S
C211 H228 0.930 . S
C212 N208 1.389 . S
C212 C211 1.351 . S
C212 H217 0.930 . S
O213 Cu207 1.974 . S
O213 C223 1.282 . S
C214 O215 1.261 . S
C214 O227 1.251 . S
O215 C214 1.261 . S
H216 C210 0.930 . S
H217 C212 0.930 . S
N218 Cu207 1.985 . S
N218 C220 1.335 . S
N218 C221 1.390 . S
N219 C220 1.345 . S
N219 C222 1.336 . S
C220 N218 1.335 . S
C220 N219 1.345 . S
C220 H225 0.930 . S
C221 N218 1.390 . S
C221 C222 1.346 . S
C221 H226 0.930 . S
C222 N219 1.336 . S
C222 C221 1.346 . S
C222 H229 0.929 . S
C223 O213 1.282 . S
C223 O224 1.216 . S
O224 C223 1.216 . S
H225 C220 0.930 . S
H226 C221 0.930 . S
O227 Cu207 1.959 . S
O227 C214 1.251 . S
H228 C211 0.930 . S
H229 C222 0.929 . S
Cu230 N231 1.999 . S
Cu230 O236 1.974 . S
Cu230 N241 1.985 . S
Cu230 O250 1.959 . S
N231 Cu230 1.999 . S
N231 C233 1.263 . S
N231 C235 1.389 . S
N232 C233 1.358 . S
N232 C234 1.400 . S
C233 N231 1.263 . S
C233 N232 1.358 . S
C233 H239 0.930 . S
C234 N232 1.400 . S
C234 C235 1.351 . S
C234 H251 0.930 . S
C235 N231 1.389 . S
C235 C234 1.351 . S
C235 H240 0.930 . S
O236 Cu230 1.974 . S
O236 C246 1.282 . S
C237 O238 1.261 . S
C237 O250 1.251 . S
O238 C237 1.261 . S
H239 C233 0.930 . S
H240 C235 0.930 . S
N241 Cu230 1.985 . S
N241 C243 1.335 . S
N241 C244 1.390 . S
N242 C243 1.345 . S
N242 C245 1.336 . S
C243 N241 1.335 . S
C243 N242 1.345 . S
C243 H248 0.930 . S
C244 N241 1.390 . S
C244 C245 1.346 . S
C244 H249 0.930 . S
C245 N242 1.336 . S
C245 C244 1.346 . S
C245 H252 0.929 . S
C246 O236 1.282 . S
C246 O247 1.216 . S
O247 C246 1.216 . S
H248 C243 0.930 . S
H249 C244 0.930 . S
O250 Cu230 1.959 . S
O250 C237 1.251 . S
H251 C234 0.930 . S
H252 C245 0.929 . S
Cu253 N254 1.999 . S
Cu253 O259 1.974 . S
Cu253 N264 1.985 . S
Cu253 O273 1.959 . S
N254 Cu253 1.999 . S
N254 C256 1.263 . S
N254 C258 1.389 . S
N255 C256 1.358 . S
N255 C257 1.400 . S
C256 N254 1.263 . S
C256 N255 1.358 . S
C256 H262 0.930 . S
C257 N255 1.400 . S
C257 C258 1.351 . S
C257 H274 0.930 . S
C258 N254 1.389 . S
C258 C257 1.351 . S
C258 H263 0.930 . S
O259 Cu253 1.974 . S
O259 C269 1.282 . S
C260 O261 1.261 . S
C260 O273 1.251 . S
O261 C260 1.261 . S
H262 C256 0.930 . S
H263 C258 0.930 . S
N264 Cu253 1.985 . S
N264 C266 1.335 . S
N264 C267 1.390 . S
N265 C266 1.345 . S
N265 C268 1.336 . S
C266 N264 1.335 . S
C266 N265 1.345 . S
C266 H271 0.930 . S
C267 N264 1.390 . S
C267 C268 1.346 . S
C267 H272 0.930 . S
C268 N265 1.336 . S
C268 C267 1.346 . S
C268 H275 0.929 . S
C269 O259 1.282 . S
C269 O270 1.216 . S
O270 C269 1.216 . S
H271 C266 0.930 . S
H272 C267 0.930 . S
O273 Cu253 1.959 . S
O273 C260 1.251 . S
H274 C257 0.930 . S
H275 C268 0.929 . S
Cu276 N277 1.999 . S
Cu276 O282 1.974 . S
Cu276 N287 1.985 . S
Cu276 O296 1.959 . S
N277 Cu276 1.999 . S
N277 C279 1.263 . S
N277 C281 1.389 . S
N278 C279 1.358 . S
N278 C280 1.400 . S
C279 N277 1.263 . S
C279 N278 1.358 . S
C279 H285 0.930 . S
C280 N278 1.400 . S
C280 C281 1.351 . S
C280 H297 0.930 . S
C281 N277 1.389 . S
C281 C280 1.351 . S
C281 H286 0.930 . S
O282 Cu276 1.974 . S
O282 C292 1.282 . S
C283 O284 1.261 . S
C283 O296 1.251 . S
O284 C283 1.261 . S
H285 C279 0.930 . S
H286 C281 0.930 . S
N287 Cu276 1.985 . S
N287 C289 1.335 . S
N287 C290 1.390 . S
N288 C289 1.345 . S
N288 C291 1.336 . S
C289 N287 1.335 . S
C289 N288 1.345 . S
C289 H294 0.930 . S
C290 N287 1.390 . S
C290 C291 1.346 . S
C290 H295 0.930 . S
C291 N288 1.336 . S
C291 C290 1.346 . S
C291 H298 0.929 . S
C292 O282 1.282 . S
C292 O293 1.216 . S
O293 C292 1.216 . S
H294 C289 0.930 . S
H295 C290 0.930 . S
O296 Cu276 1.959 . S
O296 C283 1.251 . S
H297 C280 0.930 . S
H298 C291 0.929 . S
Cu299 N300 1.999 . S
Cu299 O305 1.974 . S
Cu299 N310 1.985 . S
Cu299 O319 1.959 . S
N300 Cu299 1.999 . S
N300 C302 1.263 . S
N300 C304 1.389 . S
N301 C302 1.358 . S
N301 C303 1.400 . S
C302 N300 1.263 . S
C302 N301 1.358 . S
C302 H308 0.930 . S
C303 N301 1.400 . S
C303 C304 1.351 . S
C303 H320 0.930 . S
C304 N300 1.389 . S
C304 C303 1.351 . S
C304 H309 0.930 . S
O305 Cu299 1.974 . S
O305 C315 1.282 . S
C306 O307 1.261 . S
C306 O319 1.251 . S
O307 C306 1.261 . S
H308 C302 0.930 . S
H309 C304 0.930 . S
N310 Cu299 1.985 . S
N310 C312 1.335 . S
N310 C313 1.390 . S
N311 C312 1.345 . S
N311 C314 1.336 . S
C312 N310 1.335 . S
C312 N311 1.345 . S
C312 H317 0.930 . S
C313 N310 1.390 . S
C313 C314 1.346 . S
C313 H318 0.930 . S
C314 N311 1.336 . S
C314 C313 1.346 . S
C314 H321 0.929 . S
C315 O305 1.282 . S
C315 O316 1.216 . S
O316 C315 1.216 . S
H317 C312 0.930 . S
H318 C313 0.930 . S
O319 Cu299 1.959 . S
O319 C306 1.251 . S
H320 C303 0.930 . S
H321 C314 0.929 . S
Cu322 N323 1.999 . S
Cu322 O328 1.974 . S
Cu322 N333 1.985 . S
Cu322 O342 1.959 . S
N323 Cu322 1.999 . S
N323 C325 1.263 . S
N323 C327 1.389 . S
N324 C325 1.358 . S
N324 C326 1.400 . S
C325 N323 1.263 . S
C325 N324 1.358 . S
C325 H331 0.930 . S
C326 N324 1.400 . S
C326 C327 1.351 . S
C326 H343 0.930 . S
C327 N323 1.389 . S
C327 C326 1.351 . S
C327 H332 0.930 . S
O328 Cu322 1.974 . S
O328 C338 1.282 . S
C329 O330 1.261 . S
C329 O342 1.251 . S
O330 C329 1.261 . S
H331 C325 0.930 . S
H332 C327 0.930 . S
N333 Cu322 1.985 . S
N333 C335 1.335 . S
N333 C336 1.390 . S
N334 C335 1.345 . S
N334 C337 1.336 . S
C335 N333 1.335 . S
C335 N334 1.345 . S
C335 H340 0.930 . S
C336 N333 1.390 . S
C336 C337 1.346 . S
C336 H341 0.930 . S
C337 N334 1.336 . S
C337 C336 1.346 . S
C337 H344 0.929 . S
C338 O328 1.282 . S
C338 O339 1.216 . S
O339 C338 1.216 . S
H340 C335 0.930 . S
H341 C336 0.930 . S
O342 Cu322 1.959 . S
O342 C329 1.251 . S
H343 C326 0.930 . S
H344 C337 0.929 . S
Cu345 N346 1.999 . S
Cu345 O351 1.974 . S
Cu345 N356 1.985 . S
Cu345 O365 1.959 . S
N346 Cu345 1.999 . S
N346 C348 1.263 . S
N346 C350 1.389 . S
N347 C348 1.358 . S
N347 C349 1.400 . S
C348 N346 1.263 . S
C348 N347 1.358 . S
C348 H354 0.930 . S
C349 N347 1.400 . S
C349 C350 1.351 . S
C349 H366 0.930 . S
C350 N346 1.389 . S
C350 C349 1.351 . S
C350 H355 0.930 . S
O351 Cu345 1.974 . S
O351 C361 1.282 . S
C352 O353 1.261 . S
C352 O365 1.251 . S
O353 C352 1.261 . S
H354 C348 0.930 . S
H355 C350 0.930 . S
N356 Cu345 1.985 . S
N356 C358 1.335 . S
N356 C359 1.390 . S
N357 C358 1.345 . S
N357 C360 1.336 . S
C358 N356 1.335 . S
C358 N357 1.345 . S
C358 H363 0.930 . S
C359 N356 1.390 . S
C359 C360 1.346 . S
C359 H364 0.930 . S
C360 N357 1.336 . S
C360 C359 1.346 . S
C360 H367 0.929 . S
C361 O351 1.282 . S
C361 O362 1.216 . S
O362 C361 1.216 . S
H363 C358 0.930 . S
H364 C359 0.930 . S
O365 Cu345 1.959 . S
O365 C352 1.251 . S
H366 C349 0.930 . S
H367 C360 0.929 . S
Cu368 N369 1.999 . S
Cu368 O374 1.974 . S
Cu368 N379 1.985 . S
Cu368 O388 1.959 . S
N369 Cu368 1.999 . S
N369 C371 1.263 . S
N369 C373 1.389 . S
N370 C371 1.358 . S
N370 C372 1.400 . S
C371 N369 1.263 . S
C371 N370 1.358 . S
C371 H377 0.930 . S
C372 N370 1.400 . S
C372 C373 1.351 . S
C372 H389 0.930 . S
C373 N369 1.389 . S
C373 C372 1.351 . S
C373 H378 0.930 . S
O374 Cu368 1.974 . S
O374 C384 1.282 . S
C375 O376 1.261 . S
C375 O388 1.251 . S
O376 C375 1.261 . S
H377 C371 0.930 . S
H378 C373 0.930 . S
N379 Cu368 1.985 . S
N379 C381 1.335 . S
N379 C382 1.390 . S
N380 C381 1.345 . S
N380 C383 1.336 . S
C381 N379 1.335 . S
C381 N380 1.345 . S
C381 H386 0.930 . S
C382 N379 1.390 . S
C382 C383 1.346 . S
C382 H387 0.930 . S
C383 N380 1.336 . S
C383 C382 1.346 . S
C383 H390 0.929 . S
C384 O374 1.282 . S
C384 O385 1.216 . S
O385 C384 1.216 . S
H386 C381 0.930 . S
H387 C382 0.930 . S
O388 Cu368 1.959 . S
O388 C375 1.251 . S
H389 C372 0.930 . S
H390 C383 0.929 . S
Cu391 N392 1.999 . S
Cu391 O397 1.974 . S
Cu391 N402 1.985 . S
Cu391 O411 1.959 . S
N392 Cu391 1.999 . S
N392 C394 1.263 . S
N392 C396 1.389 . S
N393 C394 1.358 . S
N393 C395 1.400 . S
C394 N392 1.263 . S
C394 N393 1.358 . S
C394 H400 0.930 . S
C395 N393 1.400 . S
C395 C396 1.351 . S
C395 H412 0.930 . S
C396 N392 1.389 . S
C396 C395 1.351 . S
C396 H401 0.930 . S
O397 Cu391 1.974 . S
O397 C407 1.282 . S
C398 O399 1.261 . S
C398 O411 1.251 . S
O399 C398 1.261 . S
H400 C394 0.930 . S
H401 C396 0.930 . S
N402 Cu391 1.985 . S
N402 C404 1.335 . S
N402 C405 1.390 . S
N403 C404 1.345 . S
N403 C406 1.336 . S
C404 N402 1.335 . S
C404 N403 1.345 . S
C404 H409 0.930 . S
C405 N402 1.390 . S
C405 C406 1.346 . S
C405 H410 0.930 . S
C406 N403 1.336 . S
C406 C405 1.346 . S
C406 H413 0.929 . S
C407 O397 1.282 . S
C407 O408 1.216 . S
O408 C407 1.216 . S
H409 C404 0.930 . S
H410 C405 0.930 . S
O411 Cu391 1.959 . S
O411 C398 1.251 . S
H412 C395 0.930 . S
H413 C406 0.929 . S
C414 O415 1.160 . S
C414 O421 1.185 . S
O415 C414 1.160 . S
O416 Zn417 1.899 1_655 S
O416 C424 1.284 . S
Zn417 O416 1.899 1_455 S
Zn417 O418 2.032 . S
Zn417 O421 2.086 . S
Zn417 O426 1.977 . S
O418 Zn417 2.032 . S
O418 C422 1.278 . S
C419 O420 1.203 . S
C419 O426 1.267 . S
O420 C419 1.203 . S
O421 C414 1.185 . S
O421 Zn417 2.086 . S
C422 O418 1.278 . S
C422 O423 1.211 . S
O423 C422 1.211 . S
C424 O416 1.284 . S
C424 O425 1.273 . S
O425 C424 1.273 . S
O426 Zn417 1.977 . S
O426 C419 1.267 . S
C427 O428 1.160 . S
C427 O434 1.185 . S
O428 C427 1.160 . S
O429 Zn430 1.899 . S
O429 C437 1.284 . S
Zn430 O429 1.899 . S
Zn430 O431 2.032 . S
Zn430 O434 2.086 . S
Zn430 O439 1.977 . S
O431 Zn430 2.032 . S
O431 C435 1.278 . S
C432 O433 1.203 . S
C432 O439 1.267 . S
O433 C432 1.203 . S
O434 C427 1.185 . S
O434 Zn430 2.086 . S
C435 O431 1.278 . S
C435 O436 1.211 . S
O436 C435 1.211 . S
C437 O429 1.284 . S
C437 O438 1.273 . S
O438 C437 1.273 . S
O439 Zn430 1.977 . S
O439 C432 1.267 . S
C440 O441 1.160 . S
C440 O447 1.185 . S
O441 C440 1.160 . S
O442 Zn443 1.899 . S
O442 C450 1.284 . S
Zn443 O442 1.899 . S
Zn443 O444 2.032 . S
Zn443 O447 2.086 . S
Zn443 O452 1.977 . S
O444 Zn443 2.032 . S
O444 C448 1.278 . S
C445 O446 1.203 . S
C445 O452 1.267 . S
O446 C445 1.203 . S
O447 C440 1.185 . S
O447 Zn443 2.086 . S
C448 O444 1.278 . S
C448 O449 1.211 . S
O449 C448 1.211 . S
C450 O442 1.284 . S
C450 O451 1.273 . S
O451 C450 1.273 . S
O452 Zn443 1.977 . S
O452 C445 1.267 . S
C453 O454 1.160 . S
C453 O460 1.185 . S
O454 C453 1.160 . S
O455 Zn456 1.899 . S
O455 C463 1.284 . S
Zn456 O455 1.899 . S
Zn456 O457 2.032 . S
Zn456 O460 2.086 . S
Zn456 O465 1.977 1_455 S
O457 Zn456 2.032 . S
O457 C461 1.278 . S
C458 O459 1.203 . S
C458 O465 1.267 . S
O459 C458 1.203 . S
O460 C453 1.185 . S
O460 Zn456 2.086 . S
C461 O457 1.278 . S
C461 O462 1.211 . S
O462 C461 1.211 . S
C463 O455 1.284 . S
C463 O464 1.273 . S
O464 C463 1.273 . S
O465 Zn456 1.977 1_655 S
O465 C458 1.267 . S
C466 O467 1.160 . S
C466 O473 1.185 . S
O467 C466 1.160 . S
O468 Zn469 1.899 . S
O468 C476 1.284 . S
Zn469 O468 1.899 . S
Zn469 O470 2.032 . S
Zn469 O473 2.086 . S
Zn469 O478 1.977 . S
O470 Zn469 2.032 . S
O470 C474 1.278 . S
C471 O472 1.203 . S
C471 O478 1.267 . S
O472 C471 1.203 . S
O473 C466 1.185 . S
O473 Zn469 2.086 . S
C474 O470 1.278 . S
C474 O475 1.211 . S
O475 C474 1.211 . S
C476 O468 1.284 . S
C476 O477 1.273 . S
O477 C476 1.273 . S
O478 Zn469 1.977 . S
O478 C471 1.267 . S
C479 O480 1.160 . S
C479 O486 1.185 . S
O480 C479 1.160 . S
O481 Zn482 1.899 . S
O481 C489 1.284 . S
Zn482 O481 1.899 . S
Zn482 O483 2.032 . S
Zn482 O486 2.086 . S
Zn482 O491 1.969 1_545 S
O483 Zn482 2.032 . S
O483 C487 1.278 . S
C484 O485 1.203 . S
C484 O491 1.267 . S
O485 C484 1.203 . S
O486 C479 1.185 . S
O486 Zn482 2.086 . S
C487 O483 1.278 . S
C487 O488 1.211 . S
O488 C487 1.211 . S
C489 O481 1.284 . S
C489 O490 1.273 . S
O490 C489 1.273 . S
O491 Zn482 1.969 1_565 S
O491 C484 1.267 . S
C492 O493 1.160 . S
C492 O499 1.185 . S
O493 C492 1.160 . S
O494 Zn495 1.899 . S
O494 C502 1.289 1_545 S
Zn495 O494 1.899 . S
Zn495 O496 2.032 1_545 S
Zn495 O499 2.086 1_545 S
Zn495 O504 1.977 . S
O496 Zn495 2.032 1_565 S
O496 C500 1.278 . S
C497 O498 1.203 . S
C497 O504 1.267 . S
O498 C497 1.203 . S
O499 C492 1.185 . S
O499 Zn495 2.086 1_565 S
C500 O496 1.278 . S
C500 O501 1.211 . S
O501 C500 1.211 . S
C502 O494 1.289 1_565 S
C502 O503 1.281 . S
O503 C502 1.281 . S
O504 Zn495 1.977 . S
O504 C497 1.267 . S
C505 O506 1.160 . S
C505 O512 1.185 . S
O506 C505 1.160 . S
O507 Zn508 1.899 . S
O507 C515 1.284 . S
Zn508 O507 1.899 . S
Zn508 O509 2.032 . S
Zn508 O512 2.086 . S
Zn508 O517 1.977 . S
O509 Zn508 2.032 . S
O509 C513 1.278 . S
C510 O511 1.203 . S
C510 O517 1.267 . S
O511 C510 1.203 . S
O512 C505 1.185 . S
O512 Zn508 2.086 . S
C513 O509 1.278 . S
C513 O514 1.211 . S
O514 C513 1.211 . S
C515 O507 1.284 . S
C515 O516 1.273 . S
O516 C515 1.273 . S
O517 Zn508 1.977 . S
O517 C510 1.267 . S
C518 O519 1.160 . S
C518 O525 1.185 . S
O519 C518 1.160 . S
O520 Zn521 1.899 . S
O520 C528 1.284 . S
Zn521 O520 1.899 . S
Zn521 O522 2.032 . S
Zn521 O525 2.086 . S
Zn521 O530 1.977 . S
O522 Zn521 2.032 . S
O522 C526 1.278 . S
C523 O524 1.203 . S
C523 O530 1.267 . S
O524 C523 1.203 . S
O525 C518 1.185 . S
O525 Zn521 2.086 . S
C526 O522 1.278 . S
C526 O527 1.211 . S
O527 C526 1.211 . S
C528 O520 1.284 . S
C528 O529 1.273 . S
O529 C528 1.273 . S
O530 Zn521 1.977 . S
O530 C523 1.267 . S
C531 O532 1.160 . S
C531 O538 1.185 . S
O532 C531 1.160 . S
O533 Zn534 1.899 . S
O533 C541 1.284 . S
Zn534 O533 1.899 . S
Zn534 O535 2.032 . S
Zn534 O538 2.086 . S
Zn534 O543 1.977 . S
O535 Zn534 2.032 . S
O535 C539 1.278 . S
C536 O537 1.203 . S
C536 O543 1.267 . S
O537 C536 1.203 . S
O538 C531 1.185 . S
O538 Zn534 2.086 . S
C539 O535 1.278 . S
C539 O540 1.211 . S
O540 C539 1.211 . S
C541 O533 1.284 . S
C541 O542 1.273 . S
O542 C541 1.273 . S
O543 Zn534 1.977 . S
O543 C536 1.267 . S
C544 O545 1.160 . S
C544 O551 1.185 . S
O545 C544 1.160 . S
O546 Zn547 1.899 . S
O546 C554 1.284 . S
Zn547 O546 1.899 . S
Zn547 O548 2.032 . S
Zn547 O551 2.086 . S
Zn547 O556 1.977 1_565 S
O548 Zn547 2.032 . S
O548 C552 1.278 . S
C549 O550 1.203 . S
C549 O556 1.267 . S
O550 C549 1.203 . S
O551 C544 1.185 . S
O551 Zn547 2.086 . S
C552 O548 1.278 . S
C552 O553 1.211 1_565 S
O553 C552 1.211 1_545 S
C554 O546 1.284 . S
C554 O555 1.273 . S
O555 C554 1.273 . S
O556 Zn547 1.977 1_545 S
O556 C549 1.267 . S
C557 O558 1.160 . S
C557 O564 1.185 . S
O558 C557 1.160 . S
O559 Zn560 1.899 . S
O559 C567 1.284 . S
Zn560 O559 1.899 . S
Zn560 O561 2.032 . S
Zn560 O564 2.086 . S
Zn560 O569 1.977 . S
O561 Zn560 2.032 . S
O561 C565 1.278 . S
C562 O563 1.203 . S
C562 O569 1.267 . S
O563 C562 1.203 . S
O564 C557 1.185 . S
O564 Zn560 2.086 . S
C565 O561 1.278 . S
C565 O566 1.211 . S
O566 C565 1.211 . S
C567 O559 1.284 . S
C567 O568 1.273 . S
O568 C567 1.273 . S
O569 Zn560 1.977 . S
O569 C562 1.267 . S
C570 O571 1.160 . S
C570 O577 1.185 . S
O571 C570 1.160 . S
O572 Zn573 1.899 . S
O572 C580 1.284 . S
Zn573 O572 1.899 . S
Zn573 O574 2.032 . S
Zn573 O577 2.086 . S
Zn573 O582 1.977 . S
O574 Zn573 2.032 . S
O574 C578 1.278 . S
C575 O576 1.203 . S
C575 O582 1.267 . S
O576 C575 1.203 . S
O577 C570 1.185 . S
O577 Zn573 2.086 . S
C578 O574 1.278 . S
C578 O579 1.211 . S
O579 C578 1.211 . S
C580 O572 1.284 . S
C580 O581 1.273 . S
O581 C580 1.273 . S
O582 Zn573 1.977 . S
O582 C575 1.267 . S
C583 O584 1.160 . S
C583 O590 1.185 . S
O584 C583 1.160 . S
O585 Zn586 1.899 . S
O585 C593 1.284 . S
Zn586 O585 1.899 . S
Zn586 O587 2.032 . S
Zn586 O590 2.086 . S
Zn586 O595 1.977 . S
O587 Zn586 2.032 . S
O587 C591 1.278 . S
C588 O589 1.203 . S
C588 O595 1.267 . S
O589 C588 1.203 . S
O590 C583 1.185 . S
O590 Zn586 2.086 . S
C591 O587 1.278 . S
C591 O592 1.211 . S
O592 C591 1.211 . S
C593 O585 1.284 . S
C593 O594 1.273 . S
O594 C593 1.273 . S
O595 Zn586 1.977 . S
O595 C588 1.267 . S
C596 O597 1.160 . S
C596 O603 1.185 . S
O597 C596 1.160 . S
O598 Zn599 1.899 . S
O598 C606 1.284 . S
Zn599 O598 1.899 . S
Zn599 O600 2.032 1_655 S
Zn599 O603 2.086 . S
Zn599 O608 1.977 . S
O600 Zn599 2.032 1_455 S
O600 C604 1.278 . S
C601 O602 1.203 . S
C601 O608 1.267 . S
O602 C601 1.203 . S
O603 C596 1.185 . S
O603 Zn599 2.086 . S
C604 O600 1.278 . S
C604 O605 1.211 1_455 S
O605 C604 1.211 1_655 S
C606 O598 1.284 . S
C606 O607 1.273 . S
O607 C606 1.273 . S
O608 Zn599 1.977 . S
O608 C601 1.267 . S
C609 O610 1.160 . S
C609 O616 1.185 . S
O610 C609 1.160 . S
O611 Zn612 1.899 . S
O611 C619 1.284 . S
Zn612 O611 1.899 . S
Zn612 O613 2.032 . S
Zn612 O616 2.086 . S
Zn612 O621 1.977 . S
O613 Zn612 2.032 . S
O613 C617 1.278 . S
C614 O615 1.203 . S
C614 O621 1.267 . S
O615 C614 1.203 . S
O616 C609 1.185 . S
O616 Zn612 2.086 . S
C617 O613 1.278 . S
C617 O618 1.211 . S
O618 C617 1.211 . S
C619 O611 1.284 . S
C619 O620 1.273 . S
O620 C619 1.273 . S
O621 Zn612 1.977 . S
O621 C614 1.267 . S
C622 O623 1.160 . S
C622 O629 1.185 . S
O623 C622 1.160 . S
O624 Zn625 1.899 . S
O624 C632 1.284 . S
Zn625 O624 1.899 . S
Zn625 O626 2.032 . S
Zn625 O629 2.086 . S
Zn625 O634 1.977 . S
O626 Zn625 2.032 . S
O626 C630 1.278 1_655 S
C627 O628 1.203 . S
C627 O634 1.267 . S
O628 C627 1.203 . S
O629 C622 1.185 . S
O629 Zn625 2.086 . S
C630 O626 1.278 1_455 S
C630 O631 1.211 . S
O631 C630 1.211 . S
C632 O624 1.284 . S
C632 O633 1.273 . S
O633 C632 1.273 . S
O634 Zn625 1.977 . S
O634 C627 1.267 . S
C635 O636 1.160 . S
C635 O642 1.185 . S
O636 C635 1.160 . S
O637 Zn638 1.899 . S
O637 C645 1.284 . S
Zn638 O637 1.899 . S
Zn638 O639 2.032 . S
Zn638 O642 2.086 . S
Zn638 O647 1.977 . S
O639 Zn638 2.032 . S
O639 C643 1.278 . S
C640 O641 1.203 . S
C640 O647 1.267 . S
O641 C640 1.203 . S
O642 C635 1.185 . S
O642 Zn638 2.086 . S
C643 O639 1.278 . S
C643 O644 1.211 . S
O644 C643 1.211 . S
C645 O637 1.284 . S
C645 O646 1.273 . S
O646 C645 1.273 . S
O647 Zn638 1.977 . S
O647 C640 1.267 . S
H648 C656 0.950 . S
H649 C661 0.950 . S
H650 C658 0.950 . S
H651 C660 0.950 . S
H652 C662 0.950 . S
H653 C664 0.950 . S
H654 C666 0.950 . S
H655 C667 0.950 . S
C656 H648 0.950 . S
C656 C657 1.386 . S
C656 C658 1.391 . S
C657 C656 1.386 . S
C657 C661 1.393 . S
C658 H650 0.950 . S
C658 C656 1.391 . S
C658 C659 1.400 . S
C659 C658 1.400 . S
C659 C660 1.398 . S
C659 C665 1.491 . S
C660 H651 0.950 . S
C660 C659 1.398 . S
C660 C661 1.391 . S
C661 H649 0.950 . S
C661 C657 1.393 . S
C661 C660 1.391 . S
C662 H652 0.950 . S
C662 C663 1.386 . S
C662 C664 1.391 . S
C663 C662 1.386 . S
C663 C667 1.393 . S
C664 H653 0.950 . S
C664 C662 1.391 . S
C664 C665 1.400 . S
C665 C659 1.491 . S
C665 C664 1.400 . S
C665 C666 1.398 . S
C666 H654 0.950 . S
C666 C665 1.398 . S
C666 C667 1.391 . S
C667 H655 0.950 . S
C667 C663 1.393 . S
C667 C666 1.391 . S
H668 C676 0.950 . S
H669 C681 0.950 . S
H670 C678 0.950 . S
H671 C680 0.950 . S
H672 C682 0.950 . S
H673 C684 0.950 . S
H674 C686 0.950 . S
H675 C687 0.950 . S
C676 H668 0.950 . S
C676 C677 1.386 . S
C676 C678 1.391 . S
C677 C676 1.386 . S
C677 C681 1.393 . S
C678 H670 0.950 . S
C678 C676 1.391 . S
C678 C679 1.400 . S
C679 C678 1.400 . S
C679 C680 1.398 . S
C679 C685 1.491 . S
C680 H671 0.950 . S
C680 C679 1.398 . S
C680 C681 1.391 . S
C681 H669 0.950 . S
C681 C677 1.393 . S
C681 C680 1.391 . S
C682 H672 0.950 . S
C682 C683 1.386 . S
C682 C684 1.391 . S
C683 C682 1.386 . S
C683 C687 1.393 . S
C684 H673 0.950 . S
C684 C682 1.391 . S
C684 C685 1.400 . S
C685 C679 1.491 . S
C685 C684 1.400 . S
C685 C686 1.398 . S
C686 H674 0.950 . S
C686 C685 1.398 . S
C686 C687 1.391 . S
C687 H675 0.950 . S
C687 C683 1.393 . S
C687 C686 1.391 . S
H688 C696 0.950 . S
H689 C701 0.950 . S
H690 C698 0.950 . S
H691 C700 0.950 . S
H692 C702 0.950 . S
H693 C704 0.950 . S
H694 C706 0.950 . S
H695 C707 0.950 . S
C696 H688 0.950 . S
C696 C697 1.386 . S
C696 C698 1.391 . S
C697 C696 1.386 . S
C697 C701 1.393 1_545 S
C698 H690 0.950 . S
C698 C696 1.391 . S
C698 C699 1.400 . S
C699 C698 1.400 . S
C699 C700 1.398 1_545 S
C699 C705 1.491 1_545 S
C700 H691 0.950 . S
C700 C699 1.398 1_565 S
C700 C701 1.391 . S
C701 H689 0.950 . S
C701 C697 1.393 1_565 S
C701 C700 1.391 . S
C702 H692 0.950 . S
C702 C703 1.386 . S
C702 C704 1.391 . S
C703 C702 1.386 . S
C703 C707 1.393 1_565 S
C704 H693 0.950 . S
C704 C702 1.391 . S
C704 C705 1.400 . S
C705 C699 1.491 1_565 S
C705 C704 1.400 . S
C705 C706 1.398 1_565 S
C706 H694 0.950 . S
C706 C705 1.398 1_545 S
C706 C707 1.391 . S
C707 H695 0.950 . S
C707 C703 1.393 1_545 S
C707 C706 1.391 . S
H708 C716 0.950 . S
H709 C721 0.950 . S
H710 C718 0.950 . S
H711 C720 0.950 . S
H712 C722 0.950 . S
H713 C724 0.950 . S
H714 C726 0.950 . S
H715 C727 0.950 . S
C716 H708 0.950 . S
C716 C717 1.386 . S
C716 C718 1.391 . S
C717 C716 1.386 . S
C717 C721 1.393 . S
C718 H710 0.950 . S
C718 C716 1.391 . S
C718 C719 1.400 . S
C719 C718 1.400 . S
C719 C720 1.398 . S
C719 C725 1.491 . S
C720 H711 0.950 . S
C720 C719 1.398 . S
C720 C721 1.391 . S
C721 H709 0.950 . S
C721 C717 1.393 . S
C721 C720 1.391 . S
C722 H712 0.950 . S
C722 C723 1.386 . S
C722 C724 1.391 . S
C723 C722 1.386 . S
C723 C727 1.393 . S
C724 H713 0.950 . S
C724 C722 1.391 . S
C724 C725 1.400 . S
C725 C719 1.491 . S
C725 C724 1.400 . S
C725 C726 1.398 . S
C726 H714 0.950 . S
C726 C725 1.398 . S
C726 C727 1.391 . S
C727 H715 0.950 . S
C727 C723 1.393 . S
C727 C726 1.391 . S
H728 C736 0.950 . S
H729 C741 0.913 1_655 S
H730 C738 0.950 . S
H731 C740 0.950 . S
H732 C742 0.950 . S
H733 C744 0.950 . S
H734 C746 0.950 . S
H735 C747 0.950 . S
C736 H728 0.950 . S
C736 C737 1.386 . S
C736 C738 1.391 . S
C737 C736 1.386 . S
C737 C741 1.424 . S
C738 H730 0.950 . S
C738 C736 1.391 . S
C738 C739 1.400 . S
C739 C738 1.400 . S
C739 C740 1.398 1_455 S
C739 C745 1.491 1_455 S
C740 H731 0.950 . S
C740 C739 1.398 1_655 S
C740 C741 1.397 1_655 S
C741 H729 0.913 1_455 S
C741 C737 1.424 . S
C741 C740 1.397 1_455 S
C742 H732 0.950 . S
C742 C743 1.386 . S
C742 C744 1.391 . S
C743 C742 1.386 . S
C743 C747 1.393 1_655 S
C744 H733 0.950 . S
C744 C742 1.391 . S
C744 C745 1.400 . S
C745 C739 1.491 1_655 S
C745 C744 1.400 . S
C745 C746 1.398 1_655 S
C746 H734 0.950 . S
C746 C745 1.398 1_455 S
C746 C747 1.391 . S
C747 H735 0.950 . S
C747 C743 1.393 1_455 S
C747 C746 1.391 . S
H748 C756 0.950 . S
H749 C761 0.950 . S
H750 C758 0.950 . S
H751 C760 0.950 . S
H752 C762 0.950 . S
H753 C764 0.950 . S
H754 C766 0.950 . S
H755 C767 0.950 . S
C756 H748 0.950 . S
C756 C757 1.386 . S
C756 C758 1.391 . S
C757 C756 1.386 . S
C757 C761 1.393 . S
C758 H750 0.950 . S
C758 C756 1.391 . S
C758 C759 1.400 . S
C759 C758 1.400 . S
C759 C760 1.398 . S
C759 C765 1.491 . S
C760 H751 0.950 . S
C760 C759 1.398 . S
C760 C761 1.391 . S
C761 H749 0.950 . S
C761 C757 1.393 . S
C761 C760 1.391 . S
C762 H752 0.950 . S
C762 C763 1.386 . S
C762 C764 1.391 . S
C763 C762 1.386 . S
C763 C767 1.393 . S
C764 H753 0.950 . S
C764 C762 1.391 . S
C764 C765 1.400 . S
C765 C759 1.491 . S
C765 C764 1.400 . S
C765 C766 1.398 . S
C766 H754 0.950 . S
C766 C765 1.398 . S
C766 C767 1.391 . S
C767 H755 0.950 . S
C767 C763 1.393 . S
C767 C766 1.391 . S
H768 C776 0.951 . S
H769 C781 0.950 . S
H770 C778 0.950 . S
H771 C780 0.950 . S
H772 C782 0.950 . S
H773 C784 0.950 . S
H774 C786 0.950 . S
H775 C787 0.950 . S
C776 H768 0.951 . S
C776 C777 1.386 . S
C776 C778 1.391 . S
C777 C776 1.386 . S
C777 C781 1.393 . S
C778 H770 0.950 . S
C778 C776 1.391 . S
C778 C779 1.400 . S
C779 C778 1.400 . S
C779 C780 1.398 . S
C779 C785 1.491 . S
C780 H771 0.950 . S
C780 C779 1.398 . S
C780 C781 1.391 . S
C781 H769 0.950 . S
C781 C777 1.393 . S
C781 C780 1.391 . S
C782 H772 0.950 . S
C782 C783 1.386 . S
C782 C784 1.391 . S
C783 C782 1.386 . S
C783 C787 1.393 1_655 S
C784 H773 0.950 . S
C784 C782 1.391 . S
C784 C785 1.400 1_655 S
C785 C779 1.491 . S
C785 C784 1.400 1_455 S
C785 C786 1.398 . S
C786 H774 0.950 . S
C786 C785 1.398 . S
C786 C787 1.391 . S
C787 H775 0.950 . S
C787 C783 1.393 1_455 S
C787 C786 1.391 . S
H788 C796 0.950 1_554 S
H789 C801 0.950 . S
H790 C798 0.950 . S
H791 C800 0.950 . S
H792 C802 0.950 . S
H793 C804 0.950 . S
H794 C806 0.950 . S
H795 C807 0.950 . S
C796 H788 0.950 1_556 S
C796 C797 1.386 . S
C796 C798 1.391 . S
C797 C796 1.386 . S
C797 C801 1.393 . S
C798 H790 0.950 . S
C798 C796 1.391 . S
C798 C799 1.400 . S
C799 C798 1.400 . S
C799 C800 1.398 . S
C799 C805 1.491 . S
C800 H791 0.950 . S
C800 C799 1.398 . S
C800 C801 1.391 . S
C801 H789 0.950 . S
C801 C797 1.393 . S
C801 C800 1.391 . S
C802 H792 0.950 . S
C802 C803 1.386 . S
C802 C804 1.391 . S
C803 C802 1.386 . S
C803 C807 1.393 . S
C804 H793 0.950 . S
C804 C802 1.391 . S
C804 C805 1.400 . S
C805 C799 1.491 . S
C805 C804 1.400 . S
C805 C806 1.398 . S
C806 H794 0.950 . S
C806 C805 1.398 . S
C806 C807 1.391 . S
C807 H795 0.950 . S
C807 C803 1.393 . S
C807 C806 1.391 . S
H808 C816 0.950 . S
H809 C821 0.950 . S
H810 C818 0.950 . S
H811 C820 0.950 . S
H812 C822 0.950 . S
H813 C824 0.950 . S
H814 C826 0.950 . S
H815 C827 0.950 . S
C816 H808 0.950 . S
C816 C817 1.386 . S
C816 C818 1.391 . S
C817 C816 1.386 . S
C817 C821 1.393 . S
C818 H810 0.950 . S
C818 C816 1.391 . S
C818 C819 1.400 . S
C819 C818 1.400 . S
C819 C820 1.398 . S
C819 C825 1.491 . S
C820 H811 0.950 . S
C820 C819 1.398 . S
C820 C821 1.391 . S
C821 H809 0.950 . S
C821 C817 1.393 . S
C821 C820 1.391 . S
C822 H812 0.950 . S
C822 C823 1.386 . S
C822 C824 1.391 . S
C823 C822 1.386 . S
C823 C827 1.393 . S
C824 H813 0.950 . S
C824 C822 1.391 . S
C824 C825 1.400 . S
C825 C819 1.491 . S
C825 C824 1.400 . S
C825 C826 1.398 . S
C826 H814 0.950 . S
C826 C825 1.398 . S
C826 C827 1.391 . S
C827 H815 0.950 . S
C827 C823 1.393 . S
C827 C826 1.391 . S
H828 C836 0.950 . S
H829 C841 0.950 1_565 S
H830 C838 0.950 . S
H831 C840 0.950 1_565 S
H832 C842 0.950 . S
H833 C844 0.950 . S
H834 C846 0.950 . S
H835 C847 0.950 . S
C836 H828 0.950 . S
C836 C837 1.386 . S
C836 C838 1.391 . S
C837 C836 1.386 . S
C837 C841 1.393 . S
C838 H830 0.950 . S
C838 C836 1.391 . S
C838 C839 1.400 . S
C839 C838 1.400 . S
C839 C840 1.398 . S
C839 C845 1.491 . S
C840 H831 0.950 1_545 S
C840 C839 1.398 . S
C840 C841 1.391 . S
C841 H829 0.950 1_545 S
C841 C837 1.393 . S
C841 C840 1.391 . S
C842 H832 0.950 . S
C842 C843 1.386 1_565 S
C842 C844 1.391 . S
C843 C842 1.386 1_545 S
C843 C847 1.393 . S
C844 H833 0.950 . S
C844 C842 1.391 . S
C844 C845 1.400 1_565 S
C845 C839 1.491 . S
C845 C844 1.400 1_545 S
C845 C846 1.398 . S
C846 H834 0.950 . S
C846 C845 1.398 . S
C846 C847 1.391 . S
C847 H835 0.950 . S
C847 C843 1.393 . S
C847 C846 1.391 . S
H848 C856 0.950 . S
H849 C861 0.950 . S
H850 C858 0.950 . S
H851 C860 0.950 . S
H852 C862 0.950 . S
H853 C864 0.950 . S
H854 C866 0.950 . S
H855 C867 0.950 . S
C856 H848 0.950 . S
C856 C857 1.386 . S
C856 C858 1.391 . S
C857 C856 1.386 . S
C857 C861 1.393 . S
C858 H850 0.950 . S
C858 C856 1.391 . S
C858 C859 1.400 . S
C859 C858 1.400 . S
C859 C860 1.398 . S
C859 C865 1.491 . S
C860 H851 0.950 . S
C860 C859 1.398 . S
C860 C861 1.391 . S
C861 H849 0.950 . S
C861 C857 1.393 . S
C861 C860 1.391 . S
C862 H852 0.950 . S
C862 C863 1.386 . S
C862 C864 1.391 . S
C863 C862 1.386 . S
C863 C867 1.393 . S
C864 H853 0.950 . S
C864 C862 1.391 . S
C864 C865 1.400 . S
C865 C859 1.491 . S
C865 C864 1.400 . S
C865 C866 1.398 . S
C866 H854 0.950 . S
C866 C865 1.398 . S
C866 C867 1.391 . S
C867 H855 0.950 . S
C867 C863 1.393 . S
C867 C866 1.391 . S
H868 C876 0.950 . S
H869 C881 0.950 . S
H870 C878 0.950 . S
H871 C880 0.950 . S
H872 C882 0.950 . S
H873 C884 0.950 . S
H874 C886 0.950 . S
H875 C887 0.950 . S
C876 H868 0.950 . S
C876 C877 1.386 . S
C876 C878 1.391 . S
C877 C876 1.386 . S
C877 C881 1.393 . S
C878 H870 0.950 . S
C878 C876 1.391 . S
C878 C879 1.400 . S
C879 C878 1.400 . S
C879 C880 1.398 . S
C879 C885 1.491 . S
C880 H871 0.950 . S
C880 C879 1.398 . S
C880 C881 1.391 . S
C881 H869 0.950 . S
C881 C877 1.393 . S
C881 C880 1.391 . S
C882 H872 0.950 . S
C882 C883 1.386 . S
C882 C884 1.391 . S
C883 C882 1.386 . S
C883 C887 1.393 . S
C884 H873 0.950 . S
C884 C882 1.391 . S
C884 C885 1.400 . S
C885 C879 1.491 . S
C885 C884 1.400 . S
C885 C886 1.398 . S
C886 H874 0.950 . S
C886 C885 1.398 . S
C886 C887 1.391 . S
C887 H875 0.950 . S
C887 C883 1.393 . S
C887 C886 1.391 . S
H888 C896 0.950 . S
H889 C901 0.950 . S
H890 C898 0.950 . S
H891 C900 0.950 . S
H892 C902 0.950 . S
H893 C904 0.950 . S
H894 C906 0.950 . S
H895 C907 0.950 . S
C896 H888 0.950 . S
C896 C897 1.386 . S
C896 C898 1.391 . S
C897 C896 1.386 . S
C897 C901 1.393 . S
C898 H890 0.950 . S
C898 C896 1.391 . S
C898 C899 1.400 . S
C899 C898 1.400 . S
C899 C900 1.398 . S
C899 C905 1.491 . S
C900 H891 0.950 . S
C900 C899 1.398 . S
C900 C901 1.391 . S
C901 H889 0.950 . S
C901 C897 1.393 . S
C901 C900 1.391 . S
C902 H892 0.950 . S
C902 C903 1.386 . S
C902 C904 1.391 . S
C903 C902 1.386 . S
C903 C907 1.393 . S
C904 H893 0.950 . S
C904 C902 1.391 . S
C904 C905 1.400 . S
C905 C899 1.491 . S
C905 C904 1.400 . S
C905 C906 1.398 . S
C906 H894 0.950 . S
C906 C905 1.398 . S
C906 C907 1.391 . S
C907 H895 0.950 . S
C907 C903 1.393 . S
C907 C906 1.391 . S
H908 C916 0.950 . S
H909 C921 0.950 . S
H910 C918 0.950 . S
H911 C920 0.934 1_545 S
H912 C922 0.950 . S
H913 C924 0.950 . S
H914 C926 0.950 . S
H915 C927 0.950 . S
C916 H908 0.950 . S
C916 C917 1.386 . S
C916 C918 1.391 . S
C917 C916 1.386 . S
C917 C921 1.393 . S
C918 H910 0.950 . S
C918 C916 1.391 . S
C918 C919 1.400 . S
C919 C918 1.400 . S
C919 C920 1.398 . S
C919 C925 1.491 1_565 S
C920 H911 0.934 1_565 S
C920 C919 1.398 . S
C920 C921 1.391 . S
C921 H909 0.950 . S
C921 C917 1.393 . S
C921 C920 1.391 . S
C922 H912 0.950 . S
C922 C923 1.386 . S
C922 C924 1.391 . S
C923 C922 1.386 . S
C923 C927 1.393 . S
C924 H913 0.950 . S
C924 C922 1.391 . S
C924 C925 1.400 . S
C925 C919 1.491 1_545 S
C925 C924 1.400 . S
C925 C926 1.398 . S
C926 H914 0.950 . S
C926 C925 1.398 . S
C926 C927 1.391 . S
C927 H915 0.950 . S
C927 C923 1.393 . S
C927 C926 1.391 . S
H928 C936 0.950 . S
H929 C941 0.950 . S
H930 C938 0.950 . S
H931 C940 0.950 . S
H932 C942 0.950 . S
H933 C944 0.950 . S
H934 C946 0.950 . S
H935 C947 0.950 . S
C936 H928 0.950 . S
C936 C937 1.386 . S
C936 C938 1.391 . S
C937 C936 1.386 . S
C937 C941 1.393 . S
C938 H930 0.950 . S
C938 C936 1.391 . S
C938 C939 1.400 . S
C939 C938 1.400 . S
C939 C940 1.398 . S
C939 C945 1.491 . S
C940 H931 0.950 . S
C940 C939 1.398 . S
C940 C941 1.391 . S
C941 H929 0.950 . S
C941 C937 1.393 . S
C941 C940 1.391 . S
C942 H932 0.950 . S
C942 C943 1.386 . S
C942 C944 1.391 . S
C943 C942 1.386 . S
C943 C947 1.393 . S
C944 H933 0.950 . S
C944 C942 1.391 . S
C944 C945 1.400 . S
C945 C939 1.491 . S
C945 C944 1.400 . S
C945 C946 1.398 . S
C946 H934 0.950 . S
C946 C945 1.398 . S
C946 C947 1.391 . S
C947 H935 0.950 . S
C947 C943 1.393 . S
C947 C946 1.391 . S
H948 C956 0.950 . S
H949 C961 0.950 . S
H950 C958 0.950 . S
H951 C960 0.950 . S
H952 C962 0.950 . S
H953 C964 0.950 . S
H954 C966 0.950 . S
H955 C967 0.950 . S
C956 H948 0.950 . S
C956 C957 1.386 . S
C956 C958 1.391 . S
C957 C956 1.386 . S
C957 C961 1.393 . S
C958 H950 0.950 . S
C958 C956 1.391 . S
C958 C959 1.400 . S
C959 C958 1.400 . S
C959 C960 1.398 . S
C959 C965 1.491 . S
C960 H951 0.950 . S
C960 C959 1.398 . S
C960 C961 1.391 . S
C961 H949 0.950 . S
C961 C957 1.393 . S
C961 C960 1.391 . S
C962 H952 0.950 . S
C962 C963 1.386 . S
C962 C964 1.391 . S
C963 C962 1.386 . S
C963 C967 1.393 . S
C964 H953 0.950 . S
C964 C962 1.391 . S
C964 C965 1.400 . S
C965 C959 1.491 . S
C965 C964 1.400 . S
C965 C966 1.398 . S
C966 H954 0.950 . S
C966 C965 1.398 . S
C966 C967 1.391 . S
C967 H955 0.950 . S
C967 C963 1.393 . S
C967 C966 1.391 . S
H968 C976 0.950 . S
H969 C981 0.950 . S
H970 C978 0.950 . S
H971 C980 0.950 . S
H972 C982 0.950 . S
H973 C984 0.950 . S
H974 C986 0.950 . S
H975 C987 0.950 . S
C976 H968 0.950 . S
C976 C977 1.386 . S
C976 C978 1.391 . S
C977 C976 1.386 . S
C977 C981 1.393 . S
C978 H970 0.950 . S
C978 C976 1.391 . S
C978 C979 1.400 . S
C979 C978 1.400 . S
C979 C980 1.398 . S
C979 C985 1.491 . S
C980 H971 0.950 . S
C980 C979 1.398 . S
C980 C981 1.391 . S
C981 H969 0.950 . S
C981 C977 1.393 . S
C981 C980 1.391 . S
C982 H972 0.950 . S
C982 C983 1.386 . S
C982 C984 1.391 . S
C983 C982 1.386 . S
C983 C987 1.393 . S
C984 H973 0.950 . S
C984 C982 1.391 . S
C984 C985 1.400 . S
C985 C979 1.491 . S
C985 C984 1.400 . S
C985 C986 1.398 . S
C986 H974 0.950 . S
C986 C985 1.398 . S
C986 C987 1.391 . S
C987 H975 0.950 . S
C987 C983 1.393 . S
C987 C986 1.391 . S
H988 C996 0.950 . S
H989 C1001 0.950 . S
H990 C998 0.950 . S
H991 C1000 0.950 . S
H992 C1002 0.950 . S
H993 C1004 0.950 . S
H994 C1006 0.950 . S
H995 C1007 0.950 . S
C996 H988 0.950 . S
C996 C997 1.386 . S
C996 C998 1.391 . S
C997 C996 1.386 . S
C997 C1001 1.393 . S
C998 H990 0.950 . S
C998 C996 1.391 . S
C998 C999 1.400 . S
C999 C998 1.400 . S
C999 C1000 1.398 . S
C999 C1005 1.491 . S
C1000 H991 0.950 . S
C1000 C999 1.398 . S
C1000 C1001 1.391 . S
C1001 H989 0.950 . S
C1001 C997 1.393 . S
C1001 C1000 1.391 . S
C1002 H992 0.950 . S
C1002 C1003 1.386 . S
C1002 C1004 1.391 . S
C1003 C1002 1.386 . S
C1003 C1007 1.393 . S
C1004 H993 0.950 . S
C1004 C1002 1.391 . S
C1004 C1005 1.400 . S
C1005 C999 1.491 . S
C1005 C1004 1.400 . S
C1005 C1006 1.398 . S
C1006 H994 0.950 . S
C1006 C1005 1.398 . S
C1006 C1007 1.391 . S
C1007 H995 0.950 . S
C1007 C1003 1.393 . S
C1007 C1006 1.391 . S
H1008 C1016 0.950 . S
H1009 C1021 0.950 . S
H1010 C1018 0.950 . S
H1011 C1020 0.950 . S
H1012 C1022 0.950 . S
H1013 C1024 0.950 . S
H1014 C1026 0.950 . S
H1015 C1027 0.950 . S
C1016 H1008 0.950 . S
C1016 C1017 1.386 . S
C1016 C1018 1.391 . S
C1017 C1016 1.386 . S
C1017 C1021 1.393 . S
C1018 H1010 0.950 . S
C1018 C1016 1.391 . S
C1018 C1019 1.400 . S
C1019 C1018 1.400 . S
C1019 C1020 1.398 . S
C1019 C1025 1.491 . S
C1020 H1011 0.950 . S
C1020 C1019 1.398 . S
C1020 C1021 1.391 . S
C1021 H1009 0.950 . S
C1021 C1017 1.393 . S
C1021 C1020 1.391 . S
C1022 H1012 0.950 . S
C1022 C1023 1.386 . S
C1022 C1024 1.391 1_545 S
C1023 C1022 1.386 . S
C1023 C1027 1.393 . S
C1024 H1013 0.950 . S
C1024 C1022 1.391 1_565 S
C1024 C1025 1.400 . S
C1025 C1019 1.491 . S
C1025 C1024 1.400 . S
C1025 C1026 1.398 . S
C1026 H1014 0.950 . S
C1026 C1025 1.398 . S
C1026 C1027 1.391 1_565 S
C1027 H1015 0.950 . S
C1027 C1023 1.393 . S
C1027 C1026 1.391 1_545 S
H1028 C1036 0.950 . S
H1029 C1041 0.950 . S
H1030 C1038 0.950 . S
H1031 C1040 0.950 . S
H1032 C1042 0.950 . S
H1033 C1044 0.950 . S
H1034 C1046 0.950 . S
H1035 C1047 0.950 . S
C1036 H1028 0.950 . S
C1036 C1037 1.386 . S
C1036 C1038 1.391 . S
C1037 C1036 1.386 . S
C1037 C1041 1.393 . S
C1038 H1030 0.950 . S
C1038 C1036 1.391 . S
C1038 C1039 1.400 . S
C1039 C1038 1.400 . S
C1039 C1040 1.398 . S
C1039 C1045 1.491 . S
C1040 H1031 0.950 . S
C1040 C1039 1.398 . S
C1040 C1041 1.391 . S
C1041 H1029 0.950 . S
C1041 C1037 1.393 . S
C1041 C1040 1.391 . S
C1042 H1032 0.950 . S
C1042 C1043 1.386 . S
C1042 C1044 1.391 . S
C1043 C1042 1.386 . S
C1043 C1047 1.393 . S
C1044 H1033 0.950 . S
C1044 C1042 1.391 . S
C1044 C1045 1.400 . S
C1045 C1039 1.491 . S
C1045 C1044 1.400 . S
C1045 C1046 1.398 . S
C1046 H1034 0.950 . S
C1046 C1045 1.398 . S
C1046 C1047 1.391 . S
C1047 H1035 0.950 . S
C1047 C1043 1.393 . S
C1047 C1046 1.391 . S
H1048 C1056 0.950 . S
H1049 C1061 0.950 . S
H1050 C1058 0.950 . S
H1051 C1060 0.950 . S
H1052 C1062 0.950 . S
H1053 C1064 0.950 . S
H1054 C1066 0.950 . S
H1055 C1067 0.950 . S
C1056 H1048 0.950 . S
C1056 C1057 1.386 . S
C1056 C1058 1.391 . S
C1057 C1056 1.386 . S
C1057 C1061 1.393 . S
C1058 H1050 0.950 . S
C1058 C1056 1.391 . S
C1058 C1059 1.400 . S
C1059 C1058 1.400 . S
C1059 C1060 1.398 . S
C1059 C1065 1.491 . S
C1060 H1051 0.950 . S
C1060 C1059 1.398 . S
C1060 C1061 1.391 . S
C1061 H1049 0.950 . S
C1061 C1057 1.393 . S
C1061 C1060 1.391 . S
C1062 H1052 0.950 . S
C1062 C1063 1.386 . S
C1062 C1064 1.391 . S
C1063 C1062 1.386 . S
C1063 C1067 1.393 . S
C1064 H1053 0.950 . S
C1064 C1062 1.391 . S
C1064 C1065 1.400 . S
C1065 C1059 1.491 . S
C1065 C1064 1.400 . S
C1065 C1066 1.398 . S
C1066 H1054 0.950 . S
C1066 C1065 1.398 . S
C1066 C1067 1.391 . S
C1067 H1055 0.950 . S
C1067 C1063 1.393 . S
C1067 C1066 1.391 . S
H1068 C1076 0.950 . S
H1069 C1081 0.950 . S
H1070 C1078 0.950 . S
H1071 C1080 0.950 . S
H1072 C1082 0.950 . S
H1073 C1084 0.950 . S
H1074 C1086 0.950 . S
H1075 C1087 0.950 . S
C1076 H1068 0.950 . S
C1076 C1077 1.386 . S
C1076 C1078 1.391 . S
C1077 C1076 1.386 . S
C1077 C1081 1.393 . S
C1078 H1070 0.950 . S
C1078 C1076 1.391 . S
C1078 C1079 1.400 . S
C1079 C1078 1.400 . S
C1079 C1080 1.398 . S
C1079 C1085 1.491 . S
C1080 H1071 0.950 . S
C1080 C1079 1.398 . S
C1080 C1081 1.391 . S
C1081 H1069 0.950 . S
C1081 C1077 1.393 . S
C1081 C1080 1.391 . S
C1082 H1072 0.950 . S
C1082 C1083 1.386 . S
C1082 C1084 1.391 . S
C1083 C1082 1.386 . S
C1083 C1087 1.393 . S
C1084 H1073 0.950 . S
C1084 C1082 1.391 . S
C1084 C1085 1.400 . S
C1085 C1079 1.491 . S
C1085 C1084 1.400 . S
C1085 C1086 1.398 . S
C1086 H1074 0.950 . S
C1086 C1085 1.398 . S
C1086 C1087 1.391 . S
C1087 H1075 0.950 . S
C1087 C1083 1.393 . S
C1087 C1086 1.391 . S
H1088 C1096 0.950 . S
H1089 C1101 0.950 . S
H1090 C1098 0.950 1_545 S
H1091 C1100 0.950 . S
H1092 C1102 0.950 . S
H1093 C1104 0.950 1_565 S
H1094 C1106 0.950 . S
H1095 C1107 0.950 . S
C1096 H1088 0.950 . S
C1096 C1097 1.386 . S
C1096 C1098 1.391 . S
C1097 C1096 1.386 . S
C1097 C1101 1.393 . S
C1098 H1090 0.950 1_565 S
C1098 C1096 1.391 . S
C1098 C1099 1.400 . S
C1099 C1098 1.400 . S
C1099 C1100 1.398 . S
C1099 C1105 1.491 1_565 S
C1100 H1091 0.950 . S
C1100 C1099 1.398 . S
C1100 C1101 1.391 . S
C1101 H1089 0.950 . S
C1101 C1097 1.393 . S
C1101 C1100 1.391 . S
C1102 H1092 0.950 . S
C1102 C1103 1.386 . S
C1102 C1104 1.391 . S
C1103 C1102 1.386 . S
C1103 C1107 1.393 . S
C1104 H1093 0.950 1_545 S
C1104 C1102 1.391 . S
C1104 C1105 1.400 . S
C1105 C1099 1.491 1_545 S
C1105 C1104 1.400 . S
C1105 C1106 1.398 . S
C1106 H1094 0.950 . S
C1106 C1105 1.398 . S
C1106 C1107 1.391 . S
C1107 H1095 0.950 . S
C1107 C1103 1.393 . S
C1107 C1106 1.391 . S
H1108 C1116 0.950 . S
H1109 C1121 0.950 . S
H1110 C1118 0.950 . S
H1111 C1120 0.950 . S
H1112 C1122 0.950 . S
H1113 C1124 0.950 . S
H1114 C1126 0.950 . S
H1115 C1127 0.950 . S
C1116 H1108 0.950 . S
C1116 C1117 1.386 . S
C1116 C1118 1.391 . S
C1117 C1116 1.386 . S
C1117 C1121 1.393 . S
C1118 H1110 0.950 . S
C1118 C1116 1.391 . S
C1118 C1119 1.400 . S
C1119 C1118 1.400 . S
C1119 C1120 1.398 . S
C1119 C1125 1.491 . S
C1120 H1111 0.950 . S
C1120 C1119 1.398 . S
C1120 C1121 1.391 . S
C1121 H1109 0.950 . S
C1121 C1117 1.393 . S
C1121 C1120 1.391 . S
C1122 H1112 0.950 . S
C1122 C1123 1.386 . S
C1122 C1124 1.391 . S
C1123 C1122 1.386 . S
C1123 C1127 1.393 . S
C1124 H1113 0.950 . S
C1124 C1122 1.391 . S
C1124 C1125 1.400 . S
C1125 C1119 1.491 . S
C1125 C1124 1.400 . S
C1125 C1126 1.398 . S
C1126 H1114 0.950 . S
C1126 C1125 1.398 . S
C1126 C1127 1.391 . S
C1127 H1115 0.950 . S
C1127 C1123 1.393 . S
C1127 C1126 1.391 . S
H1128 C1136 0.950 . S
H1129 C1141 0.950 . S
H1130 C1138 0.950 . S
H1131 C1140 0.950 . S
H1132 C1142 0.950 . S
H1133 C1144 0.950 . S
H1134 C1146 0.950 . S
H1135 C1147 0.950 . S
C1136 H1128 0.950 . S
C1136 C1137 1.386 . S
C1136 C1138 1.391 . S
C1137 C1136 1.386 . S
C1137 C1141 1.393 . S
C1138 H1130 0.950 . S
C1138 C1136 1.391 . S
C1138 C1139 1.400 . S
C1139 C1138 1.400 . S
C1139 C1140 1.398 . S
C1139 C1145 1.491 . S
C1140 H1131 0.950 . S
C1140 C1139 1.398 . S
C1140 C1141 1.391 . S
C1141 H1129 0.950 . S
C1141 C1137 1.393 . S
C1141 C1140 1.391 . S
C1142 H1132 0.950 . S
C1142 C1143 1.386 . S
C1142 C1144 1.391 . S
C1143 C1142 1.386 . S
C1143 C1147 1.393 . S
C1144 H1133 0.950 . S
C1144 C1142 1.391 . S
C1144 C1145 1.400 . S
C1145 C1139 1.491 . S
C1145 C1144 1.400 . S
C1145 C1146 1.398 . S
C1146 H1134 0.950 . S
C1146 C1145 1.398 . S
C1146 C1147 1.391 . S
C1147 H1135 0.950 . S
C1147 C1143 1.393 . S
C1147 C1146 1.391 . S
H1148 C1156 0.950 . S
H1149 C1161 0.950 . S
H1150 C1158 0.950 . S
H1151 C1160 0.950 . S
H1152 C1162 0.950 . S
H1153 C1164 0.950 . S
H1154 C1166 0.950 . S
H1155 C1167 0.950 . S
C1156 H1148 0.950 . S
C1156 C1157 1.386 . S
C1156 C1158 1.391 . S
C1157 C1156 1.386 . S
C1157 C1161 1.393 . S
C1158 H1150 0.950 . S
C1158 C1156 1.391 . S
C1158 C1159 1.400 . S
C1159 C1158 1.400 . S
C1159 C1160 1.398 . S
C1159 C1165 1.491 . S
C1160 H1151 0.950 . S
C1160 C1159 1.398 . S
C1160 C1161 1.391 . S
C1161 H1149 0.950 . S
C1161 C1157 1.393 . S
C1161 C1160 1.391 . S
C1162 H1152 0.950 . S
C1162 C1163 1.386 . S
C1162 C1164 1.391 . S
C1163 C1162 1.386 . S
C1163 C1167 1.393 . S
C1164 H1153 0.950 . S
C1164 C1162 1.391 . S
C1164 C1165 1.400 . S
C1165 C1159 1.491 . S
C1165 C1164 1.400 . S
C1165 C1166 1.398 . S
C1166 H1154 0.950 . S
C1166 C1165 1.398 . S
C1166 C1167 1.391 . S
C1167 H1155 0.950 . S
C1167 C1163 1.393 . S
C1167 C1166 1.391 . S
H1168 C1176 0.950 . S
H1169 C1181 0.950 . S
H1170 C1178 0.950 . S
H1171 C1180 0.950 . S
H1172 C1182 0.950 . S
H1173 C1184 0.950 . S
H1174 C1186 0.950 . S
H1175 C1187 0.950 . S
C1176 H1168 0.950 . S
C1176 C1177 1.386 . S
C1176 C1178 1.391 . S
C1177 C1176 1.386 . S
C1177 C1181 1.393 . S
C1178 H1170 0.950 . S
C1178 C1176 1.391 . S
C1178 C1179 1.400 . S
C1179 C1178 1.400 . S
C1179 C1180 1.398 . S
C1179 C1185 1.491 . S
C1180 H1171 0.950 . S
C1180 C1179 1.398 . S
C1180 C1181 1.391 . S
C1181 H1169 0.950 . S
C1181 C1177 1.393 . S
C1181 C1180 1.391 . S
C1182 H1172 0.950 . S
C1182 C1183 1.386 . S
C1182 C1184 1.391 . S
C1183 C1182 1.386 . S
C1183 C1187 1.393 . S
C1184 H1173 0.950 . S
C1184 C1182 1.391 . S
C1184 C1185 1.400 . S
C1185 C1179 1.491 . S
C1185 C1184 1.400 . S
C1185 C1186 1.398 . S
C1186 H1174 0.950 . S
C1186 C1185 1.398 . S
C1186 C1187 1.391 . S
C1187 H1175 0.950 . S
C1187 C1183 1.393 . S
C1187 C1186 1.391 . S
H1188 C1196 0.950 . S
H1189 C1201 0.950 . S
H1190 C1198 0.950 . S
H1191 C1200 0.950 . S
H1192 C1202 0.950 . S
H1193 C1204 0.950 . S
H1194 C1206 0.950 . S
H1195 C1207 0.950 . S
C1196 H1188 0.950 . S
C1196 C1197 1.386 . S
C1196 C1198 1.391 . S
C1197 C1196 1.386 . S
C1197 C1201 1.393 . S
C1198 H1190 0.950 . S
C1198 C1196 1.391 . S
C1198 C1199 1.400 . S
C1199 C1198 1.400 . S
C1199 C1200 1.398 . S
C1199 C1205 1.491 . S
C1200 H1191 0.950 . S
C1200 C1199 1.398 . S
C1200 C1201 1.391 . S
C1201 H1189 0.950 . S
C1201 C1197 1.393 . S
C1201 C1200 1.391 . S
C1202 H1192 0.950 . S
C1202 C1203 1.386 . S
C1202 C1204 1.391 . S
C1203 C1202 1.386 . S
C1203 C1207 1.393 . S
C1204 H1193 0.950 . S
C1204 C1202 1.391 . S
C1204 C1205 1.400 . S
C1205 C1199 1.491 . S
C1205 C1204 1.400 . S
C1205 C1206 1.398 . S
C1206 H1194 0.950 . S
C1206 C1205 1.398 . S
C1206 C1207 1.391 . S
C1207 H1195 0.950 . S
C1207 C1203 1.393 . S
C1207 C1206 1.391 . S
H1208 C1216 0.950 . S
H1209 C1221 0.950 . S
H1210 C1218 0.950 . S
H1211 C1220 0.950 . S
H1212 C1222 0.950 . S
H1213 C1224 0.950 . S
H1214 C1226 0.950 . S
H1215 C1227 0.950 . S
C1216 H1208 0.950 . S
C1216 C1217 1.386 . S
C1216 C1218 1.391 . S
C1217 C1216 1.386 . S
C1217 C1221 1.393 . S
C1218 H1210 0.950 . S
C1218 C1216 1.391 . S
C1218 C1219 1.400 . S
C1219 C1218 1.400 . S
C1219 C1220 1.398 . S
C1219 C1225 1.491 . S
C1220 H1211 0.950 . S
C1220 C1219 1.398 . S
C1220 C1221 1.391 . S
C1221 H1209 0.950 . S
C1221 C1217 1.393 . S
C1221 C1220 1.391 . S
C1222 H1212 0.950 . S
C1222 C1223 1.386 . S
C1222 C1224 1.391 . S
C1223 C1222 1.386 . S
C1223 C1227 1.393 . S
C1224 H1213 0.950 . S
C1224 C1222 1.391 . S
C1224 C1225 1.400 . S
C1225 C1219 1.491 . S
C1225 C1224 1.400 . S
C1225 C1226 1.398 . S
C1226 H1214 0.950 . S
C1226 C1225 1.398 . S
C1226 C1227 1.391 . S
C1227 H1215 0.950 . S
C1227 C1223 1.393 . S
C1227 C1226 1.391 . S
H1228 C1236 0.950 . S
H1229 C1241 0.950 . S
H1230 C1238 0.950 . S
H1231 C1240 0.950 . S
H1232 C1242 0.950 . S
H1233 C1244 0.950 . S
H1234 C1246 0.950 . S
H1235 C1247 0.950 . S
C1236 H1228 0.950 . S
C1236 C1237 1.386 . S
C1236 C1238 1.391 . S
C1237 C1236 1.386 . S
C1237 C1241 1.393 . S
C1238 H1230 0.950 . S
C1238 C1236 1.391 . S
C1238 C1239 1.400 . S
C1239 C1238 1.400 . S
C1239 C1240 1.398 . S
C1239 C1245 1.491 . S
C1240 H1231 0.950 . S
C1240 C1239 1.398 . S
C1240 C1241 1.391 . S
C1241 H1229 0.950 . S
C1241 C1237 1.393 . S
C1241 C1240 1.391 . S
C1242 H1232 0.950 . S
C1242 C1243 1.386 . S
C1242 C1244 1.391 . S
C1243 C1242 1.386 . S
C1243 C1247 1.393 . S
C1244 H1233 0.950 . S
C1244 C1242 1.391 . S
C1244 C1245 1.400 . S
C1245 C1239 1.491 . S
C1245 C1244 1.400 . S
C1245 C1246 1.398 . S
C1246 H1234 0.950 . S
C1246 C1245 1.398 . S
C1246 C1247 1.391 . S
C1247 H1235 0.950 . S
C1247 C1243 1.393 . S
C1247 C1246 1.391 . S
H1248 C1256 0.950 . S
H1249 C1261 0.950 . S
H1250 C1258 0.950 . S
H1251 C1260 0.950 . S
H1252 C1262 0.950 . S
H1253 C1264 0.950 . S
H1254 C1266 0.950 . S
H1255 C1267 0.950 . S
C1256 H1248 0.950 . S
C1256 C1257 1.386 . S
C1256 C1258 1.391 . S
C1257 C1256 1.386 . S
C1257 C1261 1.393 . S
C1258 H1250 0.950 . S
C1258 C1256 1.391 . S
C1258 C1259 1.400 . S
C1259 C1258 1.400 . S
C1259 C1260 1.398 . S
C1259 C1265 1.491 . S
C1260 H1251 0.950 . S
C1260 C1259 1.398 . S
C1260 C1261 1.391 . S
C1261 H1249 0.950 . S
C1261 C1257 1.393 . S
C1261 C1260 1.391 . S
C1262 H1252 0.950 . S
C1262 C1263 1.386 . S
C1262 C1264 1.391 . S
C1263 C1262 1.386 . S
C1263 C1267 1.393 . S
C1264 H1253 0.950 . S
C1264 C1262 1.391 . S
C1264 C1265 1.400 . S
C1265 C1259 1.491 . S
C1265 C1264 1.400 . S
C1265 C1266 1.398 . S
C1266 H1254 0.950 . S
C1266 C1265 1.398 . S
C1266 C1267 1.391 . S
C1267 H1255 0.950 . S
C1267 C1263 1.393 . S
C1267 C1266 1.391 . S
H1268 C1276 0.950 . S
H1269 C1281 0.950 . S
H1270 C1278 0.950 . S
H1271 C1280 0.950 . S
H1272 C1282 0.950 . S
H1273 C1284 0.950 . S
H1274 C1286 0.950 . S
H1275 C1287 0.950 . S
C1276 H1268 0.950 . S
C1276 C1277 1.386 . S
C1276 C1278 1.391 . S
C1277 C1276 1.386 . S
C1277 C1281 1.393 . S
C1278 H1270 0.950 . S
C1278 C1276 1.391 . S
C1278 C1279 1.400 . S
C1279 C1278 1.400 . S
C1279 C1280 1.398 . S
C1279 C1285 1.491 . S
C1280 H1271 0.950 . S
C1280 C1279 1.398 . S
C1280 C1281 1.391 . S
C1281 H1269 0.950 . S
C1281 C1277 1.393 . S
C1281 C1280 1.391 . S
C1282 H1272 0.950 . S
C1282 C1283 1.386 . S
C1282 C1284 1.391 . S
C1283 C1282 1.386 . S
C1283 C1287 1.393 . S
C1284 H1273 0.950 . S
C1284 C1282 1.391 . S
C1284 C1285 1.400 . S
C1285 C1279 1.491 . S
C1285 C1284 1.400 . S
C1285 C1286 1.398 . S
C1286 H1274 0.950 . S
C1286 C1285 1.398 . S
C1286 C1287 1.391 . S
C1287 H1275 0.950 . S
C1287 C1283 1.393 . S
C1287 C1286 1.391 . S
H1288 C1296 0.950 . S
H1289 C1301 0.950 . S
H1290 C1298 0.950 . S
H1291 C1300 0.950 . S
H1292 C1302 0.950 1_455 S
H1293 C1304 0.950 . S
H1294 C1306 0.950 . S
H1295 C1307 0.950 . S
C1296 H1288 0.950 . S
C1296 C1297 1.386 . S
C1296 C1298 1.391 . S
C1297 C1296 1.386 . S
C1297 C1301 1.393 . S
C1298 H1290 0.950 . S
C1298 C1296 1.391 . S
C1298 C1299 1.400 . S
C1299 C1298 1.400 . S
C1299 C1300 1.398 . S
C1299 C1305 1.491 . S
C1300 H1291 0.950 . S
C1300 C1299 1.398 . S
C1300 C1301 1.391 . S
C1301 H1289 0.950 . S
C1301 C1297 1.393 . S
C1301 C1300 1.391 . S
C1302 H1292 0.950 1_655 S
C1302 C1303 1.386 . S
C1302 C1304 1.391 . S
C1303 C1302 1.386 . S
C1303 C1307 1.393 . S
C1304 H1293 0.950 . S
C1304 C1302 1.391 . S
C1304 C1305 1.400 . S
C1305 C1299 1.491 . S
C1305 C1304 1.400 . S
C1305 C1306 1.398 . S
C1306 H1294 0.950 . S
C1306 C1305 1.398 . S
C1306 C1307 1.391 . S
C1307 H1295 0.950 . S
C1307 C1303 1.393 . S
C1307 C1306 1.391 . S
H1308 C1316 0.950 . S
H1309 C1321 0.950 . S
H1310 C1318 0.950 . S
H1311 C1320 0.950 . S
H1312 C1322 0.950 . S
H1313 C1324 0.950 . S
H1314 C1326 0.950 . S
H1315 C1327 0.950 . S
C1316 H1308 0.950 . S
C1316 C1317 1.386 . S
C1316 C1318 1.391 . S
C1317 C1316 1.386 . S
C1317 C1321 1.393 . S
C1318 H1310 0.950 . S
C1318 C1316 1.391 . S
C1318 C1319 1.400 . S
C1319 C1318 1.400 . S
C1319 C1320 1.398 . S
C1319 C1325 1.491 . S
C1320 H1311 0.950 . S
C1320 C1319 1.398 . S
C1320 C1321 1.391 . S
C1321 H1309 0.950 . S
C1321 C1317 1.393 . S
C1321 C1320 1.391 . S
C1322 H1312 0.950 . S
C1322 C1323 1.386 . S
C1322 C1324 1.391 . S
C1323 C1322 1.386 . S
C1323 C1327 1.393 . S
C1324 H1313 0.950 . S
C1324 C1322 1.391 . S
C1324 C1325 1.400 . S
C1325 C1319 1.491 . S
C1325 C1324 1.400 . S
C1325 C1326 1.398 . S
C1326 H1314 0.950 . S
C1326 C1325 1.398 . S
C1326 C1327 1.391 . S
C1327 H1315 0.950 . S
C1327 C1323 1.393 . S
C1327 C1326 1.391 . S
H1328 C1336 0.950 . S
H1329 C1341 0.950 . S
H1330 C1338 0.950 . S
H1331 C1340 0.950 . S
H1332 C1342 0.950 . S
H1333 C1344 0.950 . S
H1334 C1346 0.950 . S
H1335 C1347 0.950 . S
C1336 H1328 0.950 . S
C1336 C1337 1.386 . S
C1336 C1338 1.391 . S
C1337 C1336 1.386 . S
C1337 C1341 1.393 . S
C1338 H1330 0.950 . S
C1338 C1336 1.391 . S
C1338 C1339 1.400 . S
C1339 C1338 1.400 . S
C1339 C1340 1.398 . S
C1339 C1345 1.491 . S
C1340 H1331 0.950 . S
C1340 C1339 1.398 . S
C1340 C1341 1.391 . S
C1341 H1329 0.950 . S
C1341 C1337 1.393 . S
C1341 C1340 1.391 . S
C1342 H1332 0.950 . S
C1342 C1343 1.386 . S
C1342 C1344 1.391 . S
C1343 C1342 1.386 . S
C1343 C1347 1.393 . S
C1344 H1333 0.950 . S
C1344 C1342 1.391 . S
C1344 C1345 1.400 . S
C1345 C1339 1.491 . S
C1345 C1344 1.400 . S
C1345 C1346 1.398 . S
C1346 H1334 0.950 . S
C1346 C1345 1.398 . S
C1346 C1347 1.391 . S
C1347 H1335 0.950 . S
C1347 C1343 1.393 . S
C1347 C1346 1.391 . S
H1348 C1356 0.950 . S
H1349 C1361 0.950 . S
H1350 C1358 0.950 . S
H1351 C1360 0.950 . S
H1352 C1362 0.950 . S
H1353 C1364 0.950 . S
H1354 C1366 0.950 . S
H1355 C1367 0.950 . S
C1356 H1348 0.950 . S
C1356 C1357 1.386 . S
C1356 C1358 1.391 . S
C1357 C1356 1.386 . S
C1357 C1361 1.393 . S
C1358 H1350 0.950 . S
C1358 C1356 1.391 . S
C1358 C1359 1.400 . S
C1359 C1358 1.400 . S
C1359 C1360 1.398 . S
C1359 C1365 1.491 . S
C1360 H1351 0.950 . S
C1360 C1359 1.398 . S
C1360 C1361 1.391 . S
C1361 H1349 0.950 . S
C1361 C1357 1.393 . S
C1361 C1360 1.391 . S
C1362 H1352 0.950 . S
C1362 C1363 1.386 . S
C1362 C1364 1.391 . S
C1363 C1362 1.386 . S
C1363 C1367 1.393 . S
C1364 H1353 0.950 . S
C1364 C1362 1.391 . S
C1364 C1365 1.400 . S
C1365 C1359 1.491 . S
C1365 C1364 1.400 . S
C1365 C1366 1.398 . S
C1366 H1354 0.950 . S
C1366 C1365 1.398 . S
C1366 C1367 1.391 . S
C1367 H1355 0.950 . S
C1367 C1363 1.393 . S
C1367 C1366 1.391 . S
H1368 C1376 0.950 . S
H1369 C1381 0.950 . S
H1370 C1378 0.950 . S
H1371 C1380 0.950 . S
H1372 C1382 0.950 1_655 S
H1373 C1384 0.950 . S
H1374 C1386 0.950 . S
H1375 C1387 0.950 . S
C1376 H1368 0.950 . S
C1376 C1377 1.386 . S
C1376 C1378 1.391 . S
C1377 C1376 1.386 . S
C1377 C1381 1.393 . S
C1378 H1370 0.950 . S
C1378 C1376 1.391 . S
C1378 C1379 1.400 . S
C1379 C1378 1.400 . S
C1379 C1380 1.398 . S
C1379 C1385 1.491 . S
C1380 H1371 0.950 . S
C1380 C1379 1.398 . S
C1380 C1381 1.391 . S
C1381 H1369 0.950 . S
C1381 C1377 1.393 . S
C1381 C1380 1.391 . S
C1382 H1372 0.950 1_455 S
C1382 C1383 1.386 . S
C1382 C1384 1.391 . S
C1383 C1382 1.386 . S
C1383 C1387 1.393 . S
C1384 H1373 0.950 . S
C1384 C1382 1.391 . S
C1384 C1385 1.400 . S
C1385 C1379 1.491 . S
C1385 C1384 1.400 . S
C1385 C1386 1.398 . S
C1386 H1374 0.950 . S
C1386 C1385 1.398 . S
C1386 C1387 1.391 . S
C1387 H1375 0.950 . S
C1387 C1383 1.393 . S
C1387 C1386 1.391 . S
H1388 C1396 0.950 . S
H1389 C1401 0.950 . S
H1390 C1398 0.950 . S
H1391 C1400 0.950 . S
H1392 C1402 0.950 . S
H1393 C1404 0.950 . S
H1394 C1406 0.950 . S
H1395 C1407 0.950 . S
C1396 H1388 0.950 . S
C1396 C1397 1.386 . S
C1396 C1398 1.391 . S
C1397 C1396 1.386 . S
C1397 C1401 1.393 . S
C1398 H1390 0.950 . S
C1398 C1396 1.391 . S
C1398 C1399 1.400 . S
C1399 C1398 1.400 . S
C1399 C1400 1.398 . S
C1399 C1405 1.491 . S
C1400 H1391 0.950 . S
C1400 C1399 1.398 . S
C1400 C1401 1.391 . S
C1401 H1389 0.950 . S
C1401 C1397 1.393 . S
C1401 C1400 1.391 . S
C1402 H1392 0.950 . S
C1402 C1403 1.386 . S
C1402 C1404 1.391 . S
C1403 C1402 1.386 . S
C1403 C1407 1.393 . S
C1404 H1393 0.950 . S
C1404 C1402 1.391 . S
C1404 C1405 1.400 . S
C1405 C1399 1.491 . S
C1405 C1404 1.400 . S
C1405 C1406 1.398 . S
C1406 H1394 0.950 . S
C1406 C1405 1.398 . S
C1406 C1407 1.391 . S
C1407 H1395 0.950 . S
C1407 C1403 1.393 . S
C1407 C1406 1.391 . S
H1408 C1416 0.950 . S
H1409 C1421 0.950 . S
H1410 C1418 0.950 . S
H1411 C1420 0.950 . S
H1412 C1422 0.950 . S
H1413 C1424 0.950 . S
H1414 C1426 0.950 . S
H1415 C1427 0.950 . S
C1416 H1408 0.950 . S
C1416 C1417 1.386 . S
C1416 C1418 1.391 . S
C1417 C1416 1.386 . S
C1417 C1421 1.393 . S
C1418 H1410 0.950 . S
C1418 C1416 1.391 . S
C1418 C1419 1.400 . S
C1419 C1418 1.400 . S
C1419 C1420 1.398 . S
C1419 C1425 1.491 . S
C1420 H1411 0.950 . S
C1420 C1419 1.398 . S
C1420 C1421 1.391 . S
C1421 H1409 0.950 . S
C1421 C1417 1.393 . S
C1421 C1420 1.391 . S
C1422 H1412 0.950 . S
C1422 C1423 1.386 . S
C1422 C1424 1.391 . S
C1423 C1422 1.386 . S
C1423 C1427 1.393 . S
C1424 H1413 0.950 . S
C1424 C1422 1.391 . S
C1424 C1425 1.400 . S
C1425 C1419 1.491 . S
C1425 C1424 1.400 . S
C1425 C1426 1.398 . S
C1426 H1414 0.950 . S
C1426 C1425 1.398 . S
C1426 C1427 1.391 . S
C1427 H1415 0.950 . S
C1427 C1423 1.393 . S
C1427 C1426 1.391 . S
H1428 C1436 0.950 . S
H1429 C1441 0.950 . S
H1430 C1438 0.950 . S
H1431 C1440 0.950 . S
H1432 C1442 0.950 1_565 S
H1433 C1444 0.950 . S
H1434 C1446 0.950 . S
H1435 C1447 0.950 . S
C1436 H1428 0.950 . S
C1436 C1437 1.386 . S
C1436 C1438 1.391 . S
C1437 C1436 1.386 . S
C1437 C1441 1.393 . S
C1438 H1430 0.950 . S
C1438 C1436 1.391 . S
C1438 C1439 1.400 . S
C1439 C1438 1.400 . S
C1439 C1440 1.398 . S
C1439 C1445 1.491 . S
C1440 H1431 0.950 . S
C1440 C1439 1.398 . S
C1440 C1441 1.391 . S
C1441 H1429 0.950 . S
C1441 C1437 1.393 . S
C1441 C1440 1.391 . S
C1442 H1432 0.950 1_545 S
C1442 C1443 1.386 . S
C1442 C1444 1.391 . S
C1443 C1442 1.386 . S
C1443 C1447 1.393 . S
C1444 H1433 0.950 . S
C1444 C1442 1.391 . S
C1444 C1445 1.400 . S
C1445 C1439 1.491 . S
C1445 C1444 1.400 . S
C1445 C1446 1.398 . S
C1446 H1434 0.950 . S
C1446 C1445 1.398 . S
C1446 C1447 1.391 . S
C1447 H1435 0.950 . S
C1447 C1443 1.393 . S
C1447 C1446 1.391 . S
H1448 C1456 0.950 . S
H1449 C1461 0.950 1_655 S
H1450 C1458 0.950 . S
H1451 C1460 0.950 1_655 S
H1452 C1462 0.950 1_655 S
H1453 C1464 0.950 1_655 S
H1454 C1466 0.950 . S
H1455 C1467 0.950 . S
C1456 H1448 0.950 . S
C1456 C1457 1.386 . S
C1456 C1458 1.391 . S
C1457 C1456 1.386 . S
C1457 C1461 1.393 . S
C1458 H1450 0.950 . S
C1458 C1456 1.391 . S
C1458 C1459 1.400 . S
C1459 C1458 1.400 . S
C1459 C1460 1.398 . S
C1459 C1465 1.491 . S
C1460 H1451 0.950 1_455 S
C1460 C1459 1.398 . S
C1460 C1461 1.391 . S
C1461 H1449 0.950 1_455 S
C1461 C1457 1.393 . S
C1461 C1460 1.391 . S
C1462 H1452 0.950 1_455 S
C1462 C1463 1.386 . S
C1462 C1464 1.391 . S
C1463 C1462 1.386 . S
C1463 C1467 1.393 . S
C1464 H1453 0.950 1_455 S
C1464 C1462 1.391 . S
C1464 C1465 1.400 . S
C1465 C1459 1.491 . S
C1465 C1464 1.400 . S
C1465 C1466 1.398 . S
C1466 H1454 0.950 . S
C1466 C1465 1.398 . S
C1466 C1467 1.391 . S
C1467 H1455 0.950 . S
C1467 C1463 1.393 . S
C1467 C1466 1.391 . S
H1468 C1476 0.950 . S
H1469 C1481 0.950 . S
H1470 C1478 0.950 . S
H1471 C1480 0.950 . S
H1472 C1482 0.950 . S
H1473 C1484 0.950 . S
H1474 C1486 0.950 . S
H1475 C1487 0.950 . S
C1476 H1468 0.950 . S
C1476 C1477 1.386 . S
C1476 C1478 1.391 . S
C1477 C1476 1.386 . S
C1477 C1481 1.393 . S
C1478 H1470 0.950 . S
C1478 C1476 1.391 . S
C1478 C1479 1.400 . S
C1479 C1478 1.400 . S
C1479 C1480 1.398 . S
C1479 C1485 1.491 . S
C1480 H1471 0.950 . S
C1480 C1479 1.398 . S
C1480 C1481 1.391 . S
C1481 H1469 0.950 . S
C1481 C1477 1.393 . S
C1481 C1480 1.391 . S
C1482 H1472 0.950 . S
C1482 C1483 1.386 . S
C1482 C1484 1.391 . S
C1483 C1482 1.386 . S
C1483 C1487 1.393 . S
C1484 H1473 0.950 . S
C1484 C1482 1.391 . S
C1484 C1485 1.400 . S
C1485 C1479 1.491 . S
C1485 C1484 1.400 . S
C1485 C1486 1.398 . S
C1486 H1474 0.950 . S
C1486 C1485 1.398 . S
C1486 C1487 1.391 . S
C1487 H1475 0.950 . S
C1487 C1483 1.393 . S
C1487 C1486 1.391 . S
H1488 C1496 0.950 . S
H1489 C1501 0.950 . S
H1490 C1498 0.950 . S
H1491 C1500 0.950 . S
H1492 C1502 0.950 . S
H1493 C1504 0.950 . S
H1494 C1506 0.950 . S
H1495 C1507 0.950 . S
C1496 H1488 0.950 . S
C1496 C1497 1.386 . S
C1496 C1498 1.391 . S
C1497 C1496 1.386 . S
C1497 C1501 1.393 . S
C1498 H1490 0.950 . S
C1498 C1496 1.391 . S
C1498 C1499 1.400 . S
C1499 C1498 1.400 . S
C1499 C1500 1.398 . S
C1499 C1505 1.491 . S
C1500 H1491 0.950 . S
C1500 C1499 1.398 . S
C1500 C1501 1.391 . S
C1501 H1489 0.950 . S
C1501 C1497 1.393 . S
C1501 C1500 1.391 . S
C1502 H1492 0.950 . S
C1502 C1503 1.386 . S
C1502 C1504 1.391 . S
C1503 C1502 1.386 . S
C1503 C1507 1.393 . S
C1504 H1493 0.950 . S
C1504 C1502 1.391 . S
C1504 C1505 1.400 . S
C1505 C1499 1.491 . S
C1505 C1504 1.400 . S
C1505 C1506 1.398 . S
C1506 H1494 0.950 . S
C1506 C1505 1.398 . S
C1506 C1507 1.391 . S
C1507 H1495 0.950 . S
C1507 C1503 1.393 . S
C1507 C1506 1.391 . S
H1508 C1516 0.950 . S
H1509 C1521 0.950 . S
H1510 C1518 0.950 . S
H1511 C1520 0.950 . S
H1512 C1522 0.950 . S
H1513 C1524 0.950 . S
H1514 C1526 0.950 . S
H1515 C1527 0.950 . S
C1516 H1508 0.950 . S
C1516 C1517 1.386 . S
C1516 C1518 1.391 . S
C1517 C1516 1.386 . S
C1517 C1521 1.393 . S
C1518 H1510 0.950 . S
C1518 C1516 1.391 . S
C1518 C1519 1.400 . S
C1519 C1518 1.400 . S
C1519 C1520 1.398 . S
C1519 C1525 1.491 . S
C1520 H1511 0.950 . S
C1520 C1519 1.398 . S
C1520 C1521 1.391 . S
C1521 H1509 0.950 . S
C1521 C1517 1.393 . S
C1521 C1520 1.391 . S
C1522 H1512 0.950 . S
C1522 C1523 1.386 . S
C1522 C1524 1.391 . S
C1523 C1522 1.386 . S
C1523 C1527 1.393 . S
C1524 H1513 0.950 . S
C1524 C1522 1.391 . S
C1524 C1525 1.400 . S
C1525 C1519 1.491 . S
C1525 C1524 1.400 . S
C1525 C1526 1.398 . S
C1526 H1514 0.950 . S
C1526 C1525 1.398 . S
C1526 C1527 1.391 . S
C1527 H1515 0.950 . S
C1527 C1523 1.393 . S
C1527 C1526 1.391 . S
H1528 C1536 0.950 . S
H1529 C1541 0.950 . S
H1530 C1538 0.950 . S
H1531 C1540 0.950 . S
H1532 C1542 0.950 . S
H1533 C1544 0.950 . S
H1534 C1546 0.950 . S
H1535 C1547 0.950 . S
C1536 H1528 0.950 . S
C1536 C1537 1.386 . S
C1536 C1538 1.391 . S
C1537 C1536 1.386 . S
C1537 C1541 1.393 . S
C1538 H1530 0.950 . S
C1538 C1536 1.391 . S
C1538 C1539 1.400 . S
C1539 C1538 1.400 . S
C1539 C1540 1.398 . S
C1539 C1545 1.491 . S
C1540 H1531 0.950 . S
C1540 C1539 1.398 . S
C1540 C1541 1.391 . S
C1541 H1529 0.950 . S
C1541 C1537 1.393 . S
C1541 C1540 1.391 . S
C1542 H1532 0.950 . S
C1542 C1543 1.386 . S
C1542 C1544 1.391 . S
C1543 C1542 1.386 . S
C1543 C1547 1.393 . S
C1544 H1533 0.950 . S
C1544 C1542 1.391 . S
C1544 C1545 1.400 . S
C1545 C1539 1.491 . S
C1545 C1544 1.400 . S
C1545 C1546 1.398 . S
C1546 H1534 0.950 . S
C1546 C1545 1.398 . S
C1546 C1547 1.391 . S
C1547 H1535 0.950 . S
C1547 C1543 1.393 . S
C1547 C1546 1.391 . S
H1548 C1556 0.950 . S
H1549 C1561 0.950 . S
H1550 C1558 0.950 . S
H1551 C1560 0.950 . S
H1552 C1562 0.950 . S
H1553 C1564 0.950 . S
H1554 C1566 0.950 . S
H1555 C1567 0.950 . S
C1556 H1548 0.950 . S
C1556 C1557 1.386 . S
C1556 C1558 1.391 . S
C1557 C1556 1.386 . S
C1557 C1561 1.393 . S
C1558 H1550 0.950 . S
C1558 C1556 1.391 . S
C1558 C1559 1.400 . S
C1559 C1558 1.400 . S
C1559 C1560 1.398 . S
C1559 C1565 1.491 . S
C1560 H1551 0.950 . S
C1560 C1559 1.398 . S
C1560 C1561 1.391 . S
C1561 H1549 0.950 . S
C1561 C1557 1.393 . S
C1561 C1560 1.391 . S
C1562 H1552 0.950 . S
C1562 C1563 1.386 . S
C1562 C1564 1.391 . S
C1563 C1562 1.386 . S
C1563 C1567 1.393 . S
C1564 H1553 0.950 . S
C1564 C1562 1.391 . S
C1564 C1565 1.400 . S
C1565 C1559 1.491 . S
C1565 C1564 1.400 . S
C1565 C1566 1.398 . S
C1566 H1554 0.950 . S
C1566 C1565 1.398 . S
C1566 C1567 1.391 . S
C1567 H1555 0.950 . S
C1567 C1563 1.393 . S
C1567 C1566 1.391 . S
H1568 C1576 0.950 . S
H1569 C1581 0.950 . S
H1570 C1578 0.950 . S
H1571 C1580 0.950 . S
H1572 C1582 0.950 . S
H1573 C1584 0.950 . S
H1574 C1586 0.950 . S
H1575 C1587 0.950 . S
C1576 H1568 0.950 . S
C1576 C1577 1.386 . S
C1576 C1578 1.391 . S
C1577 C1576 1.386 . S
C1577 C1581 1.393 . S
C1578 H1570 0.950 . S
C1578 C1576 1.391 . S
C1578 C1579 1.400 . S
C1579 C1578 1.400 . S
C1579 C1580 1.398 . S
C1579 C1585 1.491 . S
C1580 H1571 0.950 . S
C1580 C1579 1.398 . S
C1580 C1581 1.391 . S
C1581 H1569 0.950 . S
C1581 C1577 1.393 . S
C1581 C1580 1.391 . S
C1582 H1572 0.950 . S
C1582 C1583 1.386 . S
C1582 C1584 1.391 . S
C1583 C1582 1.386 . S
C1583 C1587 1.393 . S
C1584 H1573 0.950 . S
C1584 C1582 1.391 . S
C1584 C1585 1.400 . S
C1585 C1579 1.491 . S
C1585 C1584 1.400 . S
C1585 C1586 1.398 . S
C1586 H1574 0.950 . S
C1586 C1585 1.398 . S
C1586 C1587 1.391 . S
C1587 H1575 0.950 . S
C1587 C1583 1.393 . S
C1587 C1586 1.391 . S
H1588 C1596 0.950 . S
H1589 C1601 0.950 . S
H1590 C1598 0.950 . S
H1591 C1600 0.950 . S
H1592 C1602 0.950 . S
H1593 C1604 0.950 . S
H1594 C1606 0.950 . S
H1595 C1607 0.950 . S
C1596 H1588 0.950 . S
C1596 C1597 1.386 . S
C1596 C1598 1.391 . S
C1597 C1596 1.386 . S
C1597 C1601 1.393 . S
C1598 H1590 0.950 . S
C1598 C1596 1.391 . S
C1598 C1599 1.400 . S
C1599 C1598 1.400 . S
C1599 C1600 1.398 . S
C1599 C1605 1.491 . S
C1600 H1591 0.950 . S
C1600 C1599 1.398 . S
C1600 C1601 1.391 . S
C1601 H1589 0.950 . S
C1601 C1597 1.393 . S
C1601 C1600 1.391 . S
C1602 H1592 0.950 . S
C1602 C1603 1.386 . S
C1602 C1604 1.391 . S
C1603 C1602 1.386 . S
C1603 C1607 1.393 . S
C1604 H1593 0.950 . S
C1604 C1602 1.391 . S
C1604 C1605 1.400 . S
C1605 C1599 1.491 . S
C1605 C1604 1.400 . S
C1605 C1606 1.398 . S
C1606 H1594 0.950 . S
C1606 C1605 1.398 . S
C1606 C1607 1.391 . S
C1607 H1595 0.950 . S
C1607 C1603 1.393 . S
C1607 C1606 1.391 . S
H1608 C1616 0.950 . S
H1609 C1621 0.950 . S
H1610 C1618 0.950 . S
H1611 C1620 0.950 . S
H1612 C1622 0.950 . S
H1613 C1624 0.950 . S
H1614 C1626 0.950 . S
H1615 C1627 0.950 . S
C1616 H1608 0.950 . S
C1616 C1617 1.386 . S
C1616 C1618 1.391 . S
C1617 C1616 1.386 . S
C1617 C1621 1.393 . S
C1618 H1610 0.950 . S
C1618 C1616 1.391 . S
C1618 C1619 1.400 . S
C1619 C1618 1.400 . S
C1619 C1620 1.398 . S
C1619 C1625 1.491 . S
C1620 H1611 0.950 . S
C1620 C1619 1.398 . S
C1620 C1621 1.391 . S
C1621 H1609 0.950 . S
C1621 C1617 1.393 . S
C1621 C1620 1.391 . S
C1622 H1612 0.950 . S
C1622 C1623 1.386 . S
C1622 C1624 1.391 . S
C1623 C1622 1.386 . S
C1623 C1627 1.393 . S
C1624 H1613 0.950 . S
C1624 C1622 1.391 . S
C1624 C1625 1.400 . S
C1625 C1619 1.491 . S
C1625 C1624 1.400 . S
C1625 C1626 1.398 . S
C1626 H1614 0.950 . S
C1626 C1625 1.398 . S
C1626 C1627 1.391 . S
C1627 H1615 0.950 . S
C1627 C1623 1.393 . S
C1627 C1626 1.391 . S
H1628 C1636 0.950 . S
H1629 C1641 0.950 . S
H1630 C1638 0.950 . S
H1631 C1640 0.950 . S
H1632 C1642 0.950 . S
H1633 C1644 0.950 . S
H1634 C1646 0.950 . S
H1635 C1647 0.950 . S
C1636 H1628 0.950 . S
C1636 C1637 1.386 . S
C1636 C1638 1.391 . S
C1637 C1636 1.386 . S
C1637 C1641 1.393 . S
C1638 H1630 0.950 . S
C1638 C1636 1.391 . S
C1638 C1639 1.400 . S
C1639 C1638 1.400 . S
C1639 C1640 1.398 . S
C1639 C1645 1.491 . S
C1640 H1631 0.950 . S
C1640 C1639 1.398 . S
C1640 C1641 1.391 . S
C1641 H1629 0.950 . S
C1641 C1637 1.393 . S
C1641 C1640 1.391 . S
C1642 H1632 0.950 . S
C1642 C1643 1.386 . S
C1642 C1644 1.391 . S
C1643 C1642 1.386 . S
C1643 C1647 1.393 . S
C1644 H1633 0.950 . S
C1644 C1642 1.391 . S
C1644 C1645 1.400 . S
C1645 C1639 1.491 . S
C1645 C1644 1.400 . S
C1645 C1646 1.398 . S
C1646 H1634 0.950 . S
C1646 C1645 1.398 . S
C1646 C1647 1.391 . S
C1647 H1635 0.950 . S
C1647 C1643 1.393 . S
C1647 C1646 1.391 . S
H1648 C1656 0.950 . S
H1649 C1661 0.950 . S
H1650 C1658 0.950 . S
H1651 C1660 0.950 . S
H1652 C1662 0.950 . S
H1653 C1664 0.950 . S
H1654 C1666 0.950 . S
H1655 C1667 0.950 . S
C1656 H1648 0.950 . S
C1656 C1657 1.386 . S
C1656 C1658 1.391 . S
C1657 C1656 1.386 . S
C1657 C1661 1.393 . S
C1658 H1650 0.950 . S
C1658 C1656 1.391 . S
C1658 C1659 1.400 . S
C1659 C1658 1.400 . S
C1659 C1660 1.398 . S
C1659 C1665 1.491 . S
C1660 H1651 0.950 . S
C1660 C1659 1.398 . S
C1660 C1661 1.391 . S
C1661 H1649 0.950 . S
C1661 C1657 1.393 . S
C1661 C1660 1.391 . S
C1662 H1652 0.950 . S
C1662 C1663 1.386 . S
C1662 C1664 1.391 . S
C1663 C1662 1.386 . S
C1663 C1667 1.393 . S
C1664 H1653 0.950 . S
C1664 C1662 1.391 . S
C1664 C1665 1.400 . S
C1665 C1659 1.491 . S
C1665 C1664 1.400 . S
C1665 C1666 1.398 . S
C1666 H1654 0.950 . S
C1666 C1665 1.398 . S
C1666 C1667 1.391 . S
C1667 H1655 0.950 . S
C1667 C1663 1.393 . S
C1667 C1666 1.391 . S
H1668 C1676 0.950 . S
H1669 C1681 0.950 . S
H1670 C1678 0.950 . S
H1671 C1680 0.950 . S
H1672 C1682 0.950 . S
H1673 C1684 0.950 . S
H1674 C1686 0.950 . S
H1675 C1687 0.950 . S
C1676 H1668 0.950 . S
C1676 C1677 1.386 . S
C1676 C1678 1.391 . S
C1677 C1676 1.386 . S
C1677 C1681 1.393 . S
C1678 H1670 0.950 . S
C1678 C1676 1.391 . S
C1678 C1679 1.400 . S
C1679 C1678 1.400 . S
C1679 C1680 1.398 . S
C1679 C1685 1.491 . S
C1680 H1671 0.950 . S
C1680 C1679 1.398 . S
C1680 C1681 1.391 . S
C1681 H1669 0.950 . S
C1681 C1677 1.393 . S
C1681 C1680 1.391 . S
C1682 H1672 0.950 . S
C1682 C1683 1.386 . S
C1682 C1684 1.391 1_554 S
C1683 C1682 1.386 . S
C1683 C1687 1.393 . S
C1684 H1673 0.950 . S
C1684 C1682 1.391 1_556 S
C1684 C1685 1.400 . S
C1685 C1679 1.491 . S
C1685 C1684 1.400 . S
C1685 C1686 1.398 1_556 S
C1686 H1674 0.950 . S
C1686 C1685 1.398 1_554 S
C1686 C1687 1.391 . S
C1687 H1675 0.950 . S
C1687 C1683 1.393 . S
C1687 C1686 1.391 . S
H1688 C1696 0.950 . S
H1689 C1701 0.950 . S
H1690 C1698 0.950 . S
H1691 C1700 0.950 . S
H1692 C1702 0.950 . S
H1693 C1704 0.950 . S
H1694 C1706 0.950 . S
H1695 C1707 0.950 . S
C1696 H1688 0.950 . S
C1696 C1697 1.386 . S
C1696 C1698 1.391 . S
C1697 C1696 1.386 . S
C1697 C1701 1.393 . S
C1698 H1690 0.950 . S
C1698 C1696 1.391 . S
C1698 C1699 1.400 . S
C1699 C1698 1.400 . S
C1699 C1700 1.398 . S
C1699 C1705 1.491 . S
C1700 H1691 0.950 . S
C1700 C1699 1.398 . S
C1700 C1701 1.391 . S
C1701 H1689 0.950 . S
C1701 C1697 1.393 . S
C1701 C1700 1.391 . S
C1702 H1692 0.950 . S
C1702 C1703 1.386 . S
C1702 C1704 1.391 1_554 S
C1703 C1702 1.386 . S
C1703 C1707 1.393 . S
C1704 H1693 0.950 . S
C1704 C1702 1.391 1_556 S
C1704 C1705 1.400 . S
C1705 C1699 1.491 . S
C1705 C1704 1.400 . S
C1705 C1706 1.398 . S
C1706 H1694 0.950 . S
C1706 C1705 1.398 . S
C1706 C1707 1.391 1_556 S
C1707 H1695 0.950 . S
C1707 C1703 1.393 . S
C1707 C1706 1.391 1_554 S
H1708 C1716 0.950 . S
H1709 C1721 0.950 . S
H1710 C1718 0.950 . S
H1711 C1720 0.950 . S
H1712 C1722 0.950 . S
H1713 C1724 0.950 . S
H1714 C1726 0.950 . S
H1715 C1727 0.950 . S
C1716 H1708 0.950 . S
C1716 C1717 1.386 . S
C1716 C1718 1.391 . S
C1717 C1716 1.386 . S
C1717 C1721 1.393 . S
C1718 H1710 0.950 . S
C1718 C1716 1.391 . S
C1718 C1719 1.400 . S
C1719 C1718 1.400 . S
C1719 C1720 1.398 . S
C1719 C1725 1.491 . S
C1720 H1711 0.950 . S
C1720 C1719 1.398 . S
C1720 C1721 1.391 . S
C1721 H1709 0.950 . S
C1721 C1717 1.393 . S
C1721 C1720 1.391 . S
C1722 H1712 0.950 . S
C1722 C1723 1.386 . S
C1722 C1724 1.391 . S
C1723 C1722 1.386 . S
C1723 C1727 1.393 . S
C1724 H1713 0.950 . S
C1724 C1722 1.391 . S
C1724 C1725 1.400 1_554 S
C1725 C1719 1.491 . S
C1725 C1724 1.400 1_556 S
C1725 C1726 1.398 . S
C1726 H1714 0.950 . S
C1726 C1725 1.398 . S
C1726 C1727 1.391 1_556 S
C1727 H1715 0.950 . S
C1727 C1723 1.393 . S
C1727 C1726 1.391 1_554 S
H1728 C1736 0.950 . S
H1729 C1741 0.950 . S
H1730 C1738 0.950 . S
H1731 C1740 0.950 . S
H1732 C1742 0.950 . S
H1733 C1744 0.950 . S
H1734 C1746 0.950 . S
H1735 C1747 0.950 . S
C1736 H1728 0.950 . S
C1736 C1737 1.386 . S
C1736 C1738 1.391 . S
C1737 C1736 1.386 . S
C1737 C1741 1.393 . S
C1738 H1730 0.950 . S
C1738 C1736 1.391 . S
C1738 C1739 1.400 . S
C1739 C1738 1.400 . S
C1739 C1740 1.398 . S
C1739 C1745 1.491 . S
C1740 H1731 0.950 . S
C1740 C1739 1.398 . S
C1740 C1741 1.391 . S
C1741 H1729 0.950 . S
C1741 C1737 1.393 . S
C1741 C1740 1.391 . S
C1742 H1732 0.950 . S
C1742 C1743 1.386 . S
C1742 C1744 1.391 . S
C1743 C1742 1.386 . S
C1743 C1747 1.393 . S
C1744 H1733 0.950 . S
C1744 C1742 1.391 . S
C1744 C1745 1.400 . S
C1745 C1739 1.491 . S
C1745 C1744 1.400 . S
C1745 C1746 1.398 . S
C1746 H1734 0.950 . S
C1746 C1745 1.398 . S
C1746 C1747 1.391 . S
C1747 H1735 0.950 . S
C1747 C1743 1.393 . S
C1747 C1746 1.391 . S
H1748 C1756 0.950 . S
H1749 C1761 0.950 . S
H1750 C1758 0.950 . S
H1751 C1760 0.950 . S
H1752 C1762 0.950 . S
H1753 C1764 0.950 . S
H1754 C1766 0.950 . S
H1755 C1767 0.950 . S
C1756 H1748 0.950 . S
C1756 C1757 1.386 . S
C1756 C1758 1.391 . S
C1757 C1756 1.386 . S
C1757 C1761 1.393 . S
C1758 H1750 0.950 . S
C1758 C1756 1.391 . S
C1758 C1759 1.400 . S
C1759 C1758 1.400 . S
C1759 C1760 1.398 . S
C1759 C1765 1.491 . S
C1760 H1751 0.950 . S
C1760 C1759 1.398 . S
C1760 C1761 1.391 . S
C1761 H1749 0.950 . S
C1761 C1757 1.393 . S
C1761 C1760 1.391 . S
C1762 H1752 0.950 . S
C1762 C1763 1.386 . S
C1762 C1764 1.391 . S
C1763 C1762 1.386 . S
C1763 C1767 1.393 . S
C1764 H1753 0.950 . S
C1764 C1762 1.391 . S
C1764 C1765 1.400 . S
C1765 C1759 1.491 . S
C1765 C1764 1.400 . S
C1765 C1766 1.398 . S
C1766 H1754 0.950 . S
C1766 C1765 1.398 . S
C1766 C1767 1.391 . S
C1767 H1755 0.950 . S
C1767 C1763 1.393 . S
C1767 C1766 1.391 . S
H1768 C1776 0.950 . S
H1769 C1781 0.950 . S
H1770 C1778 0.950 . S
H1771 C1780 0.950 . S
H1772 C1782 0.950 . S
H1773 C1784 0.950 . S
H1774 C1786 0.950 . S
H1775 C1787 0.950 . S
C1776 H1768 0.950 . S
C1776 C1777 1.386 . S
C1776 C1778 1.391 . S
C1777 C1776 1.386 . S
C1777 C1781 1.393 . S
C1778 H1770 0.950 . S
C1778 C1776 1.391 . S
C1778 C1779 1.400 . S
C1779 C1778 1.400 . S
C1779 C1780 1.398 . S
C1779 C1785 1.491 . S
C1780 H1771 0.950 . S
C1780 C1779 1.398 . S
C1780 C1781 1.391 . S
C1781 H1769 0.950 . S
C1781 C1777 1.393 . S
C1781 C1780 1.391 . S
C1782 H1772 0.950 . S
C1782 C1783 1.386 . S
C1782 C1784 1.391 . S
C1783 C1782 1.386 . S
C1783 C1787 1.393 . S
C1784 H1773 0.950 . S
C1784 C1782 1.391 . S
C1784 C1785 1.400 . S
C1785 C1779 1.491 . S
C1785 C1784 1.400 . S
C1785 C1786 1.398 . S
C1786 H1774 0.950 . S
C1786 C1785 1.398 . S
C1786 C1787 1.391 . S
C1787 H1775 0.950 . S
C1787 C1783 1.393 . S
C1787 C1786 1.391 . S
H1788 C1796 0.950 . S
H1789 C1801 0.950 . S
H1790 C1798 0.950 . S
H1791 C1800 0.950 . S
H1792 C1802 0.950 . S
H1793 C1804 0.950 . S
H1794 C1806 0.950 . S
H1795 C1807 0.950 . S
C1796 H1788 0.950 . S
C1796 C1797 1.386 . S
C1796 C1798 1.391 . S
C1797 C1796 1.386 . S
C1797 C1801 1.393 . S
C1798 H1790 0.950 . S
C1798 C1796 1.391 . S
C1798 C1799 1.400 . S
C1799 C1798 1.400 . S
C1799 C1800 1.398 . S
C1799 C1805 1.491 . S
C1800 H1791 0.950 . S
C1800 C1799 1.398 . S
C1800 C1801 1.391 . S
C1801 H1789 0.950 . S
C1801 C1797 1.393 . S
C1801 C1800 1.391 . S
C1802 H1792 0.950 . S
C1802 C1803 1.386 . S
C1802 C1804 1.391 . S
C1803 C1802 1.386 . S
C1803 C1807 1.393 . S
C1804 H1793 0.950 . S
C1804 C1802 1.391 . S
C1804 C1805 1.400 . S
C1805 C1799 1.491 . S
C1805 C1804 1.400 . S
C1805 C1806 1.398 . S
C1806 H1794 0.950 . S
C1806 C1805 1.398 . S
C1806 C1807 1.391 . S
C1807 H1795 0.950 . S
C1807 C1803 1.393 . S
C1807 C1806 1.391 . S
H1808 C1816 0.950 . S
H1809 C1821 0.950 . S
H1810 C1818 0.950 . S
H1811 C1820 0.950 . S
H1812 C1822 0.950 . S
H1813 C1824 0.950 . S
H1814 C1826 0.950 . S
H1815 C1827 0.950 . S
C1816 H1808 0.950 . S
C1816 C1817 1.386 . S
C1816 C1818 1.391 . S
C1817 C1816 1.386 . S
C1817 C1821 1.393 . S
C1818 H1810 0.950 . S
C1818 C1816 1.391 . S
C1818 C1819 1.400 . S
C1819 C1818 1.400 . S
C1819 C1820 1.398 . S
C1819 C1825 1.491 . S
C1820 H1811 0.950 . S
C1820 C1819 1.398 . S
C1820 C1821 1.391 . S
C1821 H1809 0.950 . S
C1821 C1817 1.393 . S
C1821 C1820 1.391 . S
C1822 H1812 0.950 . S
C1822 C1823 1.386 . S
C1822 C1824 1.391 . S
C1823 C1822 1.386 . S
C1823 C1827 1.393 . S
C1824 H1813 0.950 . S
C1824 C1822 1.391 . S
C1824 C1825 1.400 . S
C1825 C1819 1.491 . S
C1825 C1824 1.400 . S
C1825 C1826 1.398 . S
C1826 H1814 0.950 . S
C1826 C1825 1.398 . S
C1826 C1827 1.391 . S
C1827 H1815 0.950 . S
C1827 C1823 1.393 . S
C1827 C1826 1.391 . S
H1828 C1836 0.950 . S
H1829 C1841 0.950 . S
H1830 C1838 0.950 . S
H1831 C1840 0.950 . S
H1832 C1842 0.950 . S
H1833 C1844 0.950 . S
H1834 C1846 0.950 . S
H1835 C1847 0.950 . S
C1836 H1828 0.950 . S
C1836 C1837 1.386 . S
C1836 C1838 1.391 . S
C1837 C1836 1.386 . S
C1837 C1841 1.393 . S
C1838 H1830 0.950 . S
C1838 C1836 1.391 . S
C1838 C1839 1.400 . S
C1839 C1838 1.400 . S
C1839 C1840 1.398 . S
C1839 C1845 1.491 . S
C1840 H1831 0.950 . S
C1840 C1839 1.398 . S
C1840 C1841 1.391 . S
C1841 H1829 0.950 . S
C1841 C1837 1.393 . S
C1841 C1840 1.391 . S
C1842 H1832 0.950 . S
C1842 C1843 1.386 . S
C1842 C1844 1.391 . S
C1843 C1842 1.386 . S
C1843 C1847 1.393 . S
C1844 H1833 0.950 . S
C1844 C1842 1.391 . S
C1844 C1845 1.400 . S
C1845 C1839 1.491 . S
C1845 C1844 1.400 . S
C1845 C1846 1.398 . S
C1846 H1834 0.950 . S
C1846 C1845 1.398 . S
C1846 C1847 1.391 . S
C1847 H1835 0.950 . S
C1847 C1843 1.393 . S
C1847 C1846 1.391 . S
H1848 C1856 0.950 . S
H1849 C1861 0.950 . S
H1850 C1858 0.950 . S
H1851 C1860 0.950 . S
H1852 C1862 0.950 . S
H1853 C1864 0.950 . S
H1854 C1866 0.950 . S
H1855 C1867 0.950 . S
C1856 H1848 0.950 . S
C1856 C1857 1.386 . S
C1856 C1858 1.391 . S
C1857 C1856 1.386 . S
C1857 C1861 1.393 . S
C1858 H1850 0.950 . S
C1858 C1856 1.391 . S
C1858 C1859 1.400 . S
C1859 C1858 1.400 . S
C1859 C1860 1.398 . S
C1859 C1865 1.491 . S
C1860 H1851 0.950 . S
C1860 C1859 1.398 . S
C1860 C1861 1.391 . S
C1861 H1849 0.950 . S
C1861 C1857 1.393 . S
C1861 C1860 1.391 . S
C1862 H1852 0.950 . S
C1862 C1863 1.386 . S
C1862 C1864 1.391 . S
C1863 C1862 1.386 . S
C1863 C1867 1.393 . S
C1864 H1853 0.950 . S
C1864 C1862 1.391 . S
C1864 C1865 1.400 . S
C1865 C1859 1.491 . S
C1865 C1864 1.400 . S
C1865 C1866 1.398 . S
C1866 H1854 0.950 . S
C1866 C1865 1.398 . S
C1866 C1867 1.391 . S
C1867 H1855 0.950 . S
C1867 C1863 1.393 . S
C1867 C1866 1.391 . S
H1868 C1876 0.950 . S
H1869 C1881 0.950 . S
H1870 C1878 0.950 . S
H1871 C1880 0.950 . S
H1872 C1882 0.950 . S
H1873 C1884 0.950 . S
H1874 C1886 0.950 . S
H1875 C1887 0.950 . S
C1876 H1868 0.950 . S
C1876 C1877 1.386 . S
C1876 C1878 1.391 . S
C1877 C1876 1.386 . S
C1877 C1881 1.393 . S
C1878 H1870 0.950 . S
C1878 C1876 1.391 . S
C1878 C1879 1.400 . S
C1879 C1878 1.400 . S
C1879 C1880 1.398 . S
C1879 C1885 1.491 . S
C1880 H1871 0.950 . S
C1880 C1879 1.398 . S
C1880 C1881 1.391 . S
C1881 H1869 0.950 . S
C1881 C1877 1.393 . S
C1881 C1880 1.391 . S
C1882 H1872 0.950 . S
C1882 C1883 1.386 . S
C1882 C1884 1.391 . S
C1883 C1882 1.386 . S
C1883 C1887 1.393 . S
C1884 H1873 0.950 . S
C1884 C1882 1.391 . S
C1884 C1885 1.400 . S
C1885 C1879 1.491 . S
C1885 C1884 1.400 . S
C1885 C1886 1.398 . S
C1886 H1874 0.950 . S
C1886 C1885 1.398 . S
C1886 C1887 1.391 . S
C1887 H1875 0.950 . S
C1887 C1883 1.393 . S
C1887 C1886 1.391 . S
H1888 C1896 0.950 . S
H1889 C1901 0.950 . S
H1890 C1898 0.950 . S
H1891 C1900 0.950 . S
H1892 C1902 0.950 . S
H1893 C1904 0.950 . S
H1894 C1906 0.950 . S
H1895 C1907 0.950 . S
C1896 H1888 0.950 . S
C1896 C1897 1.386 . S
C1896 C1898 1.391 . S
C1897 C1896 1.386 . S
C1897 C1901 1.393 . S
C1898 H1890 0.950 . S
C1898 C1896 1.391 . S
C1898 C1899 1.400 . S
C1899 C1898 1.400 . S
C1899 C1900 1.398 . S
C1899 C1905 1.491 . S
C1900 H1891 0.950 . S
C1900 C1899 1.398 . S
C1900 C1901 1.391 . S
C1901 H1889 0.950 . S
C1901 C1897 1.393 . S
C1901 C1900 1.391 . S
C1902 H1892 0.950 . S
C1902 C1903 1.386 . S
C1902 C1904 1.391 . S
C1903 C1902 1.386 . S
C1903 C1907 1.393 . S
C1904 H1893 0.950 . S
C1904 C1902 1.391 . S
C1904 C1905 1.400 . S
C1905 C1899 1.491 . S
C1905 C1904 1.400 . S
C1905 C1906 1.398 . S
C1906 H1894 0.950 . S
C1906 C1905 1.398 . S
C1906 C1907 1.391 . S
C1907 H1895 0.950 . S
C1907 C1903 1.393 . S
C1907 C1906 1.391 . S
H1908 C1916 0.950 . S
H1909 C1921 0.950 . S
H1910 C1918 0.950 . S
H1911 C1920 0.950 . S
H1912 C1922 0.950 . S
H1913 C1924 0.950 . S
H1914 C1926 0.950 . S
H1915 C1927 0.950 . S
C1916 H1908 0.950 . S
C1916 C1917 1.386 . S
C1916 C1918 1.391 . S
C1917 C1916 1.386 . S
C1917 C1921 1.393 . S
C1918 H1910 0.950 . S
C1918 C1916 1.391 . S
C1918 C1919 1.400 . S
C1919 C1918 1.400 . S
C1919 C1920 1.398 . S
C1919 C1925 1.491 . S
C1920 H1911 0.950 . S
C1920 C1919 1.398 . S
C1920 C1921 1.391 . S
C1921 H1909 0.950 . S
C1921 C1917 1.393 . S
C1921 C1920 1.391 . S
C1922 H1912 0.950 . S
C1922 C1923 1.386 . S
C1922 C1924 1.391 . S
C1923 C1922 1.386 . S
C1923 C1927 1.393 . S
C1924 H1913 0.950 . S
C1924 C1922 1.391 . S
C1924 C1925 1.400 . S
C1925 C1919 1.491 . S
C1925 C1924 1.400 . S
C1925 C1926 1.398 . S
C1926 H1914 0.950 . S
C1926 C1925 1.398 . S
C1926 C1927 1.391 . S
C1927 H1915 0.950 . S
C1927 C1923 1.393 . S
C1927 C1926 1.391 . S
H1928 C1936 0.950 . S
H1929 C1941 0.950 . S
H1930 C1938 0.950 . S
H1931 C1940 0.950 . S
H1932 C1942 0.950 . S
H1933 C1944 0.950 . S
H1934 C1946 0.950 . S
H1935 C1947 0.950 . S
C1936 H1928 0.950 . S
C1936 C1937 1.386 . S
C1936 C1938 1.391 . S
C1937 C1936 1.386 . S
C1937 C1941 1.393 . S
C1938 H1930 0.950 . S
C1938 C1936 1.391 . S
C1938 C1939 1.400 . S
C1939 C1938 1.400 . S
C1939 C1940 1.398 . S
C1939 C1945 1.491 . S
C1940 H1931 0.950 . S
C1940 C1939 1.398 . S
C1940 C1941 1.391 . S
C1941 H1929 0.950 . S
C1941 C1937 1.393 . S
C1941 C1940 1.391 . S
C1942 H1932 0.950 . S
C1942 C1943 1.386 . S
C1942 C1944 1.391 . S
C1943 C1942 1.386 . S
C1943 C1947 1.393 . S
C1944 H1933 0.950 . S
C1944 C1942 1.391 . S
C1944 C1945 1.400 . S
C1945 C1939 1.491 . S
C1945 C1944 1.400 . S
C1945 C1946 1.398 . S
C1946 H1934 0.950 . S
C1946 C1945 1.398 . S
C1946 C1947 1.391 . S
C1947 H1935 0.950 . S
C1947 C1943 1.393 . S
C1947 C1946 1.391 . S
H1948 C1956 0.950 . S
H1949 C1961 0.950 . S
H1950 C1958 0.950 . S
H1951 C1960 0.950 . S
H1952 C1962 0.950 . S
H1953 C1964 0.950 . S
H1954 C1966 0.950 . S
H1955 C1967 0.950 . S
C1956 H1948 0.950 . S
C1956 C1957 1.386 . S
C1956 C1958 1.391 . S
C1957 C1956 1.386 . S
C1957 C1961 1.393 . S
C1958 H1950 0.950 . S
C1958 C1956 1.391 . S
C1958 C1959 1.400 . S
C1959 C1958 1.400 . S
C1959 C1960 1.398 . S
C1959 C1965 1.491 . S
C1960 H1951 0.950 . S
C1960 C1959 1.398 . S
C1960 C1961 1.391 . S
C1961 H1949 0.950 . S
C1961 C1957 1.393 . S
C1961 C1960 1.391 . S
C1962 H1952 0.950 . S
C1962 C1963 1.386 . S
C1962 C1964 1.391 . S
C1963 C1962 1.386 . S
C1963 C1967 1.393 . S
C1964 H1953 0.950 . S
C1964 C1962 1.391 . S
C1964 C1965 1.400 . S
C1965 C1959 1.491 . S
C1965 C1964 1.400 . S
C1965 C1966 1.398 . S
C1966 H1954 0.950 . S
C1966 C1965 1.398 . S
C1966 C1967 1.391 . S
C1967 H1955 0.950 . S
C1967 C1963 1.393 . S
C1967 C1966 1.391 . S
H1968 C1976 0.950 . S
H1969 C1981 0.950 . S
H1970 C1978 0.950 . S
H1971 C1980 0.950 . S
H1972 C1982 0.950 . S
H1973 C1984 0.950 . S
H1974 C1986 0.950 . S
H1975 C1987 0.950 . S
C1976 H1968 0.950 . S
C1976 C1977 1.386 . S
C1976 C1978 1.391 . S
C1977 C1976 1.386 . S
C1977 C1981 1.393 . S
C1978 H1970 0.950 . S
C1978 C1976 1.391 . S
C1978 C1979 1.400 . S
C1979 C1978 1.400 . S
C1979 C1980 1.398 . S
C1979 C1985 1.491 . S
C1980 H1971 0.950 . S
C1980 C1979 1.398 . S
C1980 C1981 1.391 . S
C1981 H1969 0.950 . S
C1981 C1977 1.393 . S
C1981 C1980 1.391 . S
C1982 H1972 0.950 . S
C1982 C1983 1.386 . S
C1982 C1984 1.391 . S
C1983 C1982 1.386 . S
C1983 C1987 1.393 . S
C1984 H1973 0.950 . S
C1984 C1982 1.391 . S
C1984 C1985 1.400 . S
C1985 C1979 1.491 . S
C1985 C1984 1.400 . S
C1985 C1986 1.398 . S
C1986 H1974 0.950 . S
C1986 C1985 1.398 . S
C1986 C1987 1.391 . S
C1987 H1975 0.950 . S
C1987 C1983 1.393 . S
C1987 C1986 1.391 . S
H1988 C1996 0.950 . S
H1989 C2001 0.950 . S
H1990 C1998 0.950 . S
H1991 C2000 0.950 . S
H1992 C2002 0.950 . S
H1993 C2004 0.950 . S
H1994 C2006 0.950 . S
H1995 C2007 0.950 . S
C1996 H1988 0.950 . S
C1996 C1997 1.386 . S
C1996 C1998 1.391 . S
C1997 C1996 1.386 . S
C1997 C2001 1.393 . S
C1998 H1990 0.950 . S
C1998 C1996 1.391 . S
C1998 C1999 1.400 . S
C1999 C1998 1.400 . S
C1999 C2000 1.398 . S
C1999 C2005 1.491 . S
C2000 H1991 0.950 . S
C2000 C1999 1.398 . S
C2000 C2001 1.391 . S
C2001 H1989 0.950 . S
C2001 C1997 1.393 . S
C2001 C2000 1.391 . S
C2002 H1992 0.950 . S
C2002 C2003 1.386 . S
C2002 C2004 1.391 . S
C2003 C2002 1.386 . S
C2003 C2007 1.393 . S
C2004 H1993 0.950 . S
C2004 C2002 1.391 . S
C2004 C2005 1.400 . S
C2005 C1999 1.491 . S
C2005 C2004 1.400 . S
C2005 C2006 1.398 . S
C2006 H1994 0.950 . S
C2006 C2005 1.398 . S
C2006 C2007 1.391 . S
C2007 H1995 0.950 . S
C2007 C2003 1.393 . S
C2007 C2006 1.391 . S
H2008 C2016 0.950 . S
H2009 C2021 0.950 . S
H2010 C2018 0.950 . S
H2011 C2020 0.950 . S
H2012 C2022 0.950 . S
H2013 C2024 0.950 . S
H2014 C2026 0.950 . S
H2015 C2027 0.950 . S
C2016 H2008 0.950 . S
C2016 C2017 1.386 . S
C2016 C2018 1.391 . S
C2017 C2016 1.386 . S
C2017 C2021 1.393 . S
C2018 H2010 0.950 . S
C2018 C2016 1.391 . S
C2018 C2019 1.400 . S
C2019 C2018 1.400 . S
C2019 C2020 1.398 . S
C2019 C2025 1.491 . S
C2020 H2011 0.950 . S
C2020 C2019 1.398 . S
C2020 C2021 1.391 . S
C2021 H2009 0.950 . S
C2021 C2017 1.393 . S
C2021 C2020 1.391 . S
C2022 H2012 0.950 . S
C2022 C2023 1.386 . S
C2022 C2024 1.391 . S
C2023 C2022 1.386 . S
C2023 C2027 1.393 . S
C2024 H2013 0.950 . S
C2024 C2022 1.391 . S
C2024 C2025 1.400 . S
C2025 C2019 1.491 . S
C2025 C2024 1.400 . S
C2025 C2026 1.398 . S
C2026 H2014 0.950 . S
C2026 C2025 1.398 . S
C2026 C2027 1.391 . S
C2027 H2015 0.950 . S
C2027 C2023 1.393 . S
C2027 C2026 1.391 . S
H2028 C2036 0.950 . S
H2029 C2041 0.950 . S
H2030 C2038 0.950 . S
H2031 C2040 0.950 . S
H2032 C2042 0.950 . S
H2033 C2044 0.950 . S
H2034 C2046 0.950 . S
H2035 C2047 0.950 . S
C2036 H2028 0.950 . S
C2036 C2037 1.386 . S
C2036 C2038 1.391 . S
C2037 C2036 1.386 . S
C2037 C2041 1.393 . S
C2038 H2030 0.950 . S
C2038 C2036 1.391 . S
C2038 C2039 1.400 . S
C2039 C2038 1.400 . S
C2039 C2040 1.398 . S
C2039 C2045 1.491 . S
C2040 H2031 0.950 . S
C2040 C2039 1.398 . S
C2040 C2041 1.391 . S
C2041 H2029 0.950 . S
C2041 C2037 1.393 . S
C2041 C2040 1.391 . S
C2042 H2032 0.950 . S
C2042 C2043 1.386 . S
C2042 C2044 1.391 1_556 S
C2043 C2042 1.386 . S
C2043 C2047 1.393 . S
C2044 H2033 0.950 . S
C2044 C2042 1.391 1_554 S
C2044 C2045 1.400 . S
C2045 C2039 1.491 . S
C2045 C2044 1.400 . S
C2045 C2046 1.398 1_554 S
C2046 H2034 0.950 . S
C2046 C2045 1.398 1_556 S
C2046 C2047 1.391 . S
C2047 H2035 0.950 . S
C2047 C2043 1.393 . S
C2047 C2046 1.391 . S
H2048 C2056 0.950 . S
H2049 C2061 0.950 . S
H2050 C2058 0.950 . S
H2051 C2060 0.950 . S
H2052 C2062 0.950 . S
H2053 C2064 0.950 . S
H2054 C2066 0.950 . S
H2055 C2067 0.950 1_556 S
C2056 H2048 0.950 . S
C2056 C2057 1.386 . S
C2056 C2058 1.391 . S
C2057 C2056 1.386 . S
C2057 C2061 1.393 . S
C2058 H2050 0.950 . S
C2058 C2056 1.391 . S
C2058 C2059 1.400 . S
C2059 C2058 1.400 . S
C2059 C2060 1.398 . S
C2059 C2065 1.491 . S
C2060 H2051 0.950 . S
C2060 C2059 1.398 . S
C2060 C2061 1.391 . S
C2061 H2049 0.950 . S
C2061 C2057 1.393 . S
C2061 C2060 1.391 . S
C2062 H2052 0.950 . S
C2062 C2063 1.386 1_554 S
C2062 C2064 1.391 . S
C2063 C2062 1.386 1_556 S
C2063 C2067 1.393 1_556 S
C2064 H2053 0.950 . S
C2064 C2062 1.391 . S
C2064 C2065 1.400 . S
C2065 C2059 1.491 . S
C2065 C2064 1.400 . S
C2065 C2066 1.398 . S
C2066 H2054 0.950 . S
C2066 C2065 1.398 . S
C2066 C2067 1.391 . S
C2067 H2055 0.950 1_554 S
C2067 C2063 1.393 1_554 S
C2067 C2066 1.391 . S
H2068 C2076 0.950 . S
H2069 C2081 0.950 . S
H2070 C2078 0.950 . S
H2071 C2080 0.950 . S
H2072 C2082 0.950 . S
H2073 C2084 0.950 . S
H2074 C2086 0.950 . S
H2075 C2087 0.950 . S
C2076 H2068 0.950 . S
C2076 C2077 1.386 . S
C2076 C2078 1.391 . S
C2077 C2076 1.386 . S
C2077 C2081 1.393 . S
C2078 H2070 0.950 . S
C2078 C2076 1.391 . S
C2078 C2079 1.400 . S
C2079 C2078 1.400 . S
C2079 C2080 1.398 . S
C2079 C2085 1.491 . S
C2080 H2071 0.950 . S
C2080 C2079 1.398 . S
C2080 C2081 1.391 . S
C2081 H2069 0.950 . S
C2081 C2077 1.393 . S
C2081 C2080 1.391 . S
C2082 H2072 0.950 . S
C2082 C2083 1.386 . S
C2082 C2084 1.391 1_556 S
C2083 C2082 1.386 . S
C2083 C2087 1.393 1_556 S
C2084 H2073 0.950 . S
C2084 C2082 1.391 1_554 S
C2084 C2085 1.400 . S
C2085 C2079 1.491 . S
C2085 C2084 1.400 . S
C2085 C2086 1.398 . S
C2086 H2074 0.950 . S
C2086 C2085 1.398 . S
C2086 C2087 1.391 . S
C2087 H2075 0.950 . S
C2087 C2083 1.393 1_554 S
C2087 C2086 1.391 . S
C657 C7 1.345 . S
C663 C565 1.313 . S
C683 C536 1.721 . S
C677 C39 1.755 . S
C703 C552 1.505 . S
C697 C62 1.523 . S
C717 C76 1.696 . S
C723 C617 1.638 . S
C737 C108 1.341 . S
C743 C627 1.316 . S
C757 N117 1.220 . S
C763 C640 1.202 . S
C783 C596 1.333 . S
C777 C16 1.361 . S
C797 C30 1.812 . S
C803 C575 1.772 . S
C823 C593 1.501 . S
C817 C53 1.497 . S
C837 C85 1.773 . S
C843 C502 1.759 1_545 S
C863 C510 1.563 . S
C857 C99 1.610 . S
C877 N127 1.186 . S
C883 C526 1.186 . S
C897 N150 1.088 . S
C903 C643 1.076 . S
C923 C614 1.485 . S
C917 N173 1.500 . S
C943 C630 1.372 . S
C937 C200 1.378 . S
C957 C214 1.512 . S
C963 C461 1.479 . S
C977 N232 1.393 . S
C983 C471 1.379 . S
C997 C260 1.346 . S
C1003 C484 1.311 . S
C1023 C440 1.194 . S
C1017 N140 1.188 . S
C1037 N163 1.240 . S
C1043 C419 1.256 . S
C1063 C437 1.592 . S
C1057 C191 1.582 . S
C1083 C580 1.858 . S
C1077 C223 1.859 . S
C1103 C588 1.367 . S
C1097 N242 1.345 . S
C1123 C604 1.376 . S
C1117 C269 1.415 . S
C1137 N288 1.237 . S
C1143 C487 1.223 . S
C1157 C315 1.479 . S
C1163 C458 1.448 . S
C1177 C338 1.587 . S
C1183 C474 1.571 . S
C1197 C352 1.697 . S
C1203 C539 1.634 . S
C1223 C549 1.428 . S
C1217 N370 1.440 . S
C1243 C562 1.387 1_655 S
C1237 C398 1.408 . S
C1263 C518 1.150 . S
C1257 N278 1.140 . S
C1277 C306 1.728 . S
C1283 C497 1.686 . S
C1297 C329 1.586 . S
C1303 C515 1.595 1_655 S
C1323 C424 1.507 . S
C1317 C361 1.506 . S
C1337 N380 1.372 . S
C1343 C432 1.404 . S
C1363 C448 1.322 . S
C1357 C407 1.372 . S
C1383 C453 1.345 . S
C1377 N12 1.355 . S
C1397 N25 1.512 . S
C1403 C476 1.531 . S
C1423 C489 1.252 . S
C1417 N48 1.234 . S
C1443 C479 1.236 . S
C1437 N81 1.253 . S
C1463 C463 1.489 . S
C1457 N94 1.460 . S
C1483 C466 1.445 . S
C1477 C131 1.452 . S
C1503 C414 1.335 . S
C1497 N2 1.345 . S
C1517 N35 1.443 . S
C1523 C435 1.418 . S
C1537 N58 1.206 . S
C1543 C445 1.239 . S
C1563 C450 1.247 . S
C1557 N71 1.213 . S
C1583 C422 1.298 . S
C1577 N104 1.310 . S
C1603 C427 1.459 . S
C1597 C122 1.495 . S
C1617 C145 1.968 . S
C1623 C531 1.941 . S
C1637 C168 1.660 . S
C1643 C554 1.677 . S
C1657 N186 1.342 . S
C1663 C567 1.355 . S
C1683 C557 1.217 . S
C1677 N219 1.215 . S
C1703 C541 1.747 . S
C1697 C246 1.744 . S
C1723 C544 1.379 . S
C1717 N265 1.359 . S
C1743 C492 1.818 . S
C1737 C154 1.852 . S
C1757 C177 1.759 . S
C1763 C513 1.721 . S
C1777 N196 1.182 . S
C1783 C523 1.206 . S
C1797 N209 1.063 . S
C1803 C528 1.103 . S
C1817 C237 1.794 . S
C1823 C500 1.744 . S
C1843 C505 1.312 . S
C1837 N255 1.318 . S
C1857 C283 1.717 . S
C1863 C609 1.682 . S
C1877 N301 1.382 . S
C1883 C632 1.406 . S
C1897 N324 1.223 . S
C1903 C645 1.238 . S
C1923 C635 1.072 . S
C1917 N357 1.057 . S
C1943 C619 1.733 . S
C1937 C384 1.735 . S
C1957 N403 1.218 . S
C1963 C622 1.191 . S
C1977 C292 1.807 . S
C1983 C570 1.753 . S
C2003 C591 1.273 . S
C1997 N311 1.300 . S
C2017 N334 1.299 . S
C2023 C601 1.332 . S
C2037 N347 1.255 . S
C2043 C606 1.290 . S
C2063 C578 1.796 . S
C2057 C375 1.848 . S
C2077 N393 1.271 . S
C2083 C583 1.275 . S
