# Generated by pormake.
# Topology tsx, (6,3)-cn, num edge types: 1
# Building blocks:
#     Node 0, Type 0, BuildingBlock: LEVNOQ01_clean_sbu_1, # of connection points: 6
#     Node 1, Type 0, BuildingBlock: LEVNOQ01_clean_sbu_1, # of connection points: 6
#     Node 2, Type 1, BuildingBlock: WUSLED_clean_sbu_0, # of connection points: 3
#     Node 3, Type 1, BuildingBlock: WUSLED_clean_sbu_0, # of connection points: 3
#     Node 4, Type 1, BuildingBlock: WUSLED_clean_sbu_0, # of connection points: 3
#     Node 5, Type 1, BuildingBlock: WUSLED_clean_sbu_0, # of connection points: 3
#     Edge 6, Type (0, 1), BuildingBlock: XUDNAN_clean_linker_2, # of connection points: 2
#     Edge 7, Type (0, 1), BuildingBlock: XUDNAN_clean_linker_2, # of connection points: 2
#     Edge 8, Type (0, 1), BuildingBlock: XUDNAN_clean_linker_2, # of connection points: 2
#     Edge 9, Type (0, 1), BuildingBlock: XUDNAN_clean_linker_2, # of connection points: 2
#     Edge 10, Type (0, 1), BuildingBlock: XUDNAN_clean_linker_2, # of connection points: 2
#     Edge 11, Type (0, 1), BuildingBlock: XUDNAN_clean_linker_2, # of connection points: 2
#     Edge 12, Type (0, 1), BuildingBlock: XUDNAN_clean_linker_2, # of connection points: 2
#     Edge 13, Type (0, 1), BuildingBlock: XUDNAN_clean_linker_2, # of connection points: 2
#     Edge 14, Type (0, 1), BuildingBlock: XUDNAN_clean_linker_2, # of connection points: 2
#     Edge 15, Type (0, 1), BuildingBlock: XUDNAN_clean_linker_2, # of connection points: 2
#     Edge 16, Type (0, 1), BuildingBlock: XUDNAN_clean_linker_2, # of connection points: 2
#     Edge 17, Type (0, 1), BuildingBlock: XUDNAN_clean_linker_2, # of connection points: 2
# Relax obj value: 0.123
# Max RMSD: 0.154
# Mean RMSD: 0.115
data_MOF--net-tsx--node1-LEVNOQ01_clean_sbu_1--node2-WUSLED_clean_sbu_0--edge1-XUDNAN_clean_linker_2
_symmetry_space_group_name_H-M    P1
_symmetry_Int_Tables_number       1
_symmetry_cell_setting            triclinic
loop_
_symmetry_equiv_pos_as_xyz
'x, y, z'
_cell_length_a     23.890415
_cell_length_b     28.891592
_cell_length_c     47.071178
_cell_angle_alpha  97.541674
_cell_angle_beta   90.774797
_cell_angle_gamma 90.661806
loop_
_atom_site_label
_atom_site_type_symbol
_atom_site_fract_x
_atom_site_fract_y
_atom_site_fract_z
_atom_type_partial_charge
O0 O 0.13409 0.04802 0.08502 0.0
Mg1 Mg 0.17652 0.04582 0.04615 0.0
O2 O 0.05312 0.02521 0.06362 0.0
Mg3 Mg 0.05866 0.03221 0.01442 0.0
O4 O 0.13397 0.08415 0.01983 0.0
O5 O 0.21977 0.10353 0.03704 0.0
O6 O 0.07001 0.04329 0.96561 0.0
O7 O 1.00556 0.10008 0.02253 0.0
Mg8 Mg 0.96736 0.01754 0.9794 0.0
O9 O 0.98018 0.97738 0.01163 0.0
O10 O 0.00714 0.99975 0.94034 0.0
O11 O 0.9379 0.08607 0.99017 0.0
O12 O 0.9051 0.97211 0.98188 0.0
C13 C 0.16349 0.95172 0.01142 0.0
C14 C 0.08362 0.0345 0.08626 0.0
C15 C 0.176 0.11345 0.02277 0.0
C16 C 0.05057 0.02492 0.94134 0.0
C17 C 0.96214 0.11317 0.00991 0.0
C18 C 0.9324 0.95749 1.00268 0.0
O19 O 0.19736 0.97921 0.02637 0.0
O20 O 0.11405 0.96458 1.0055 0.0
O21 O 0.63842 0.54963 0.58385 0.0
Mg22 Mg 0.67453 0.54035 0.54347 0.0
O23 O 0.55318 0.53508 0.56527 0.0
Mg24 Mg 0.56039 0.52953 0.51473 0.0
O25 O 0.63773 0.58149 0.5166 0.0
O26 O 0.72579 0.59183 0.53387 0.0
O27 O 0.56809 0.52411 0.46483 0.0
O28 O 0.51136 0.60213 0.51764 0.0
Mg29 Mg 0.45314 0.52886 0.49232 0.0
O30 O 0.48304 0.47588 0.51319 0.0
O31 O 0.48235 0.53963 0.45152 0.0
O32 O 0.42165 0.58615 0.51827 0.0
O33 O 0.40041 0.47382 0.48939 0.0
C34 C 0.66117 0.44491 0.51555 0.0
C35 C 0.58642 0.54375 0.58691 0.0
C36 C 0.68429 0.60592 0.51955 0.0
C37 C 0.53311 0.53236 0.4455 0.0
C38 C 0.46092 0.61589 0.52134 0.0
C39 C 0.43505 0.45527 0.50571 0.0
O40 O 0.6976 0.47345 0.52721 0.0
O41 O 0.61158 0.45851 0.51064 0.0
C42 C 0.96901 0.09428 0.47967 0.0
C43 C 0.94456 0.10818 0.45494 0.0
C44 C 0.88294 0.16104 0.48401 0.0
C45 C 0.90225 0.14132 0.45705 0.0
C46 C 0.90827 0.14741 0.50882 0.0
C47 C 0.95127 0.11459 0.50662 0.0
U48 U 0.05396 0.01528 0.42952 0.0
O49 O 0.07473 0.94061 0.42673 0.0
O50 O 0.14179 0.99375 0.42829 0.0
C51 C 0.12893 0.9493 0.42814 0.0
C52 C 0.01189 0.05788 0.47679 0.0
C53 C 0.16265 0.92296 0.44697 0.0
C54 C 0.23522 0.92011 0.48352 0.0
C55 C 0.19672 0.94559 0.46931 0.0
C56 C 0.20351 0.84877 0.45468 0.0
C57 C 0.23953 0.87169 0.4759 0.0
C58 C 0.1656 0.87425 0.44023 0.0
C59 C 0.02394 0.03285 0.35063 0.0
C60 C 0.03796 0.98032 0.30665 0.0
C61 C 0.02226 0.06265 0.30484 0.0
C62 C 0.01831 0.07008 0.33459 0.0
C63 C 0.03175 0.01769 0.29052 0.0
C64 C 0.03434 0.98789 0.33658 0.0
C65 C 0.01659 0.04218 0.38175 0.0
O66 O 0.99365 0.01694 0.46445 0.0
O67 O 0.05983 0.07049 0.46653 0.0
O68 O 0.05919 0.06248 0.39656 0.0
O69 O 0.99238 0.00908 0.3941 0.0
H70 H 0.9582 0.09325 0.43389 0.0
H71 H 0.88513 0.15177 0.43749 0.0
H72 H 0.89451 0.16164 0.52996 0.0
H73 H 0.97053 0.10502 0.52588 0.0
H74 H 0.26277 0.93834 0.49985 0.0
H75 H 0.19524 0.9831 0.47503 0.0
H76 H 0.20666 0.81147 0.4483 0.0
H77 H 0.14018 0.8561 0.42292 0.0
H78 H 0.04582 0.94541 0.29614 0.0
H79 H 0.01659 0.09199 0.29298 0.0
H80 H 0.01004 0.10496 0.34509 0.0
H81 H 0.03909 0.95871 0.34866 0.0
C82 C 0.9135 0.99175 0.54865 0.0
C83 C 0.87613 0.97793 0.56884 0.0
C84 C 0.83829 0.91637 0.53324 0.0
C85 C 0.83851 0.94075 0.56112 0.0
C86 C 0.87566 0.93033 0.51309 0.0
C87 C 0.91274 0.9679 0.52072 0.0
U88 U 1.00115 0.06607 0.60554 0.0
O89 O 0.02248 0.14134 0.61177 0.0
O90 O 0.08909 0.08906 0.60613 0.0
C91 C 0.07649 0.13361 0.60964 0.0
C92 C 0.95478 0.02965 0.55674 0.0
C93 C 0.11026 0.16499 0.59413 0.0
C94 C 0.17919 0.17774 0.55815 0.0
C95 C 0.13876 0.14909 0.56881 0.0
C96 C 0.16098 0.23885 0.59716 0.0
C97 C 0.19199 0.22219 0.57293 0.0
C98 C 0.12039 0.2106 0.60757 0.0
C99 C 0.98918 0.04253 0.68309 0.0
C100 C 0.03822 0.08966 0.72255 0.0
C101 C 0.98996 0.01835 0.7305 0.0
C102 C 0.97339 0.01088 0.70169 0.0
C103 C 0.02295 0.05762 0.74128 0.0
C104 C 0.02159 0.08208 0.69363 0.0
C105 C 0.9726 0.03303 0.6527 0.0
O106 O 0.93575 0.06716 0.57233 0.0
O107 O 1.00347 0.01633 0.56589 0.0
O108 O 0.0115 0.01438 0.63553 0.0
O109 O 0.94527 0.06647 0.64233 0.0
H110 H 0.87655 0.99549 0.59064 0.0
H111 H 0.81069 0.93017 0.57715 0.0
H112 H 0.87627 0.91205 0.49148 0.0
H113 H 0.94142 0.97788 0.50494 0.0
H114 H 0.2026 0.16424 0.53938 0.0
H115 H 0.13169 0.11396 0.55807 0.0
H116 H 0.1697 0.2732 0.60871 0.0
H117 H 0.09899 0.22355 0.62712 0.0
H118 H 0.06383 0.12008 0.7301 0.0
H119 H 0.97645 0.99346 0.74439 0.0
H120 H 0.94833 0.98022 0.6939 0.0
H121 H 0.03436 0.10681 0.67946 0.0
C122 C 0.4623 0.59456 0.97732 0.0
C123 C 0.45202 0.61774 0.95341 0.0
C124 C 0.38119 0.66523 0.97946 0.0
C125 C 0.4121 0.65276 0.95449 0.0
C126 C 0.39207 0.64231 1.00358 0.0
C127 C 0.43225 0.60711 1.00247 0.0
U128 U 0.54364 0.50922 0.92884 0.0
O129 O 0.56517 0.43521 0.9291 0.0
O130 O 0.63161 0.48826 0.92802 0.0
C131 C 0.61931 0.44432 0.93003 0.0
C132 C 0.50261 0.55615 0.97511 0.0
C133 C 0.65379 0.42083 0.9501 0.0
C134 C 0.73514 0.42054 0.98182 0.0
C135 C 0.69626 0.44497 0.96722 0.0
C136 C 0.68766 0.3478 0.96404 0.0
C137 C 0.73211 0.3716 0.97974 0.0
C138 C 0.6491 0.37217 0.94924 0.0
C139 C 0.51786 0.52074 0.84852 0.0
C140 C 0.57992 0.52055 0.808 0.0
C141 C 0.47949 0.5157 0.80008 0.0
C142 C 0.47171 0.51659 0.82954 0.0
C143 C 0.53353 0.5194 0.78929 0.0
C144 C 0.5722 0.52081 0.83742 0.0
C145 C 0.50796 0.53164 0.87953 0.0
O146 O 0.48214 0.51544 0.96358 0.0
O147 O 0.5514 0.56612 0.96465 0.0
O148 O 0.54857 0.55408 0.89488 0.0
O149 O 0.48366 0.49912 0.89232 0.0
H150 H 0.4747 0.6085 0.93374 0.0
H151 H 0.4057 0.67026 0.93574 0.0
H152 H 0.36876 0.65091 0.02309 0.0
H153 H 0.43934 0.58934 0.02106 0.0
H154 H 0.76872 0.43976 0.99397 0.0
H155 H 0.70106 0.4825 0.9684 0.0
H156 H 0.68459 0.31005 0.96178 0.0
H157 H 0.61717 0.35265 0.93598 0.0
H158 H 0.62194 0.52373 0.80003 0.0
H159 H 0.4432 0.51548 0.786 0.0
H160 H 0.42947 0.51679 0.83766 0.0
H161 H 0.60858 0.52378 0.85156 0.0
C162 C 0.40403 0.4717 0.08384 0.0
C163 C 0.38663 0.43036 0.09386 0.0
C164 C 0.32805 0.40995 0.05146 0.0
C165 C 0.34903 0.3998 0.07785 0.0
C166 C 0.34596 0.45093 0.04097 0.0
C167 C 0.38387 0.48182 0.05714 0.0
U168 U 0.51616 0.57123 0.10572 0.0
O169 O 0.50803 0.62131 0.07451 0.0
O170 O 0.5728 0.5678 0.06901 0.0
C171 C 0.55369 0.60663 0.06101 0.0
C172 C 0.4406 0.50389 0.10285 0.0
C173 C 0.59684 0.64275 0.05855 0.0
C174 C 0.66655 0.6775 0.03039 0.0
C175 C 0.62362 0.6447 0.03244 0.0
C176 C 0.65627 0.70697 0.0806 0.0
C177 C 0.68351 0.70913 0.05446 0.0
C178 C 0.61358 0.67402 0.08264 0.0
C179 C 0.55318 0.59223 0.18572 0.0
C180 C 0.57328 0.61223 0.23659 0.0
C181 C 0.52946 0.53772 0.21899 0.0
C182 C 0.52992 0.54945 0.19108 0.0
C183 C 0.55187 0.56874 0.24199 0.0
C184 C 0.57409 0.62377 0.20866 0.0
C185 C 0.5589 0.60327 0.15628 0.0
O186 O 0.428 0.54845 0.10614 0.0
O187 O 0.4947 0.49624 0.10167 0.0
O188 O 0.51497 0.62165 0.14519 0.0
O189 O 0.58243 0.57073 0.1384 0.0
H190 H 0.40151 0.42203 0.11442 0.0
H191 H 0.33578 0.36831 0.08623 0.0
H192 H 0.33029 0.45916 0.02055 0.0
H193 H 0.39681 0.51362 0.04905 0.0
H194 H 0.68703 0.67754 0.01002 0.0
H195 H 0.61177 0.6205 0.0137 0.0
H196 H 0.66748 0.73107 0.09947 0.0
H197 H 0.59374 0.67283 0.1031 0.0
H198 H 0.59117 0.6367 0.25382 0.0
H199 H 0.51197 0.50425 0.22256 0.0
H200 H 0.51326 0.52475 0.17361 0.0
H201 H 0.59227 0.65691 0.20488 0.0
H202 H 0.25704 0.15368 0.99481 0.0
H203 H 0.09448 0.17829 0.03249 0.0
H204 H 0.10786 0.26323 0.03222 0.0
H205 H 0.32574 0.2324 0.03551 0.0
H206 H 0.37279 0.25267 0.01002 0.0
H207 H 0.34299 0.19511 1.00308 0.0
H208 H 0.30205 0.21295 0.95457 0.0
H209 H 0.33281 0.27077 0.96104 0.0
H210 H 0.25887 0.26343 0.95342 0.0
H211 H 0.1504 0.3432 0.0416 0.0
H212 H 0.21508 0.40953 0.05712 0.0
H213 H 0.35082 0.33393 0.01351 0.0
C214 C 0.223 0.17698 1.00129 0.0
C215 C 0.17413 0.15972 0.01292 0.0
C216 C 0.13116 0.19087 0.02244 0.0
C217 C 0.1388 0.23924 0.02258 0.0
C218 C 0.18935 0.25562 0.01273 0.0
C219 C 0.23021 0.22517 1.0015 0.0
C220 C 0.28419 0.25098 0.99673 0.0
C221 C 0.33428 0.23165 0.01229 0.0
C222 C 0.29511 0.24945 0.96453 0.0
C223 C 0.26959 0.29987 0.00996 0.0
C224 C 0.21406 0.30231 0.01809 0.0
C225 C 0.19317 0.34218 0.0343 0.0
C226 C 0.23009 0.37973 0.04302 0.0
C227 C 0.28723 0.37703 0.03568 0.0
C228 C 0.30673 0.33725 0.01831 0.0
H229 H 0.23309 0.90173 0.041 0.0
H230 H 0.13714 0.89356 0.96162 0.0
H231 H 0.17834 0.81603 0.94559 0.0
H232 H 0.35627 0.85398 0.01329 0.0
H233 H 0.37155 0.82177 0.04271 0.0
H234 H 0.33081 0.874 0.04861 0.0
H235 H 0.25058 0.82814 0.06937 0.0
H236 H 0.29131 0.77569 0.06374 0.0
H237 H 0.22177 0.77637 0.04848 0.0
H238 H 0.23764 0.74284 0.93696 0.0
H239 H 0.30507 0.67871 0.93716 0.0
H240 H 0.36037 0.73578 0.02295 0.0
C241 C 0.22022 0.8834 0.02034 0.0
C242 C 0.18226 0.90357 1.0024 0.0
C243 C 0.16598 0.87847 0.97568 0.0
C244 C 0.18926 0.83458 0.96645 0.0
C245 C 0.22766 0.81617 0.98451 0.0
C246 C 0.24223 0.8396 0.0111 0.0
C247 C 0.28522 0.81322 0.02633 0.0
C248 C 0.33914 0.84249 0.03311 0.0
C249 C 0.26075 0.79742 0.05359 0.0
C250 C 0.29461 0.77202 1.00368 0.0
C251 C 0.26072 0.77404 0.97981 0.0
C252 C 0.26385 0.74073 0.95567 0.0
C253 C 0.30262 0.70463 0.95592 0.0
C254 C 0.33806 0.70212 0.9801 0.0
C255 C 0.33332 0.73617 1.00434 0.0
H256 H 0.84929 0.89914 0.97965 0.0
H257 H 0.95735 0.92675 0.05492 0.0
H258 H 0.90717 0.86436 0.07663 0.0
H259 H 0.72442 0.88115 0.0153 0.0
H260 H 0.69859 0.83577 0.98819 0.0
H261 H 0.74532 0.88025 0.97857 0.0
H262 H 0.81353 0.81667 0.95647 0.0
H263 H 0.76687 0.77191 0.96593 0.0
H264 H 0.83887 0.77391 0.97801 0.0
H265 H 0.83988 0.80005 0.09037 0.0
H266 H 0.76634 0.74028 0.09423 0.0
H267 H 0.70331 0.75871 0.0096 0.0
C268 C 0.86297 0.89213 1.00067 0.0
C269 C 0.90724 0.91806 0.01566 0.0
C270 C 0.92372 0.90725 0.04301 0.0
C271 C 0.89531 0.87197 0.05548 0.0
C272 C 0.85099 0.84774 0.04015 0.0
C273 C 0.83543 0.85736 0.01322 0.0
C274 C 0.78607 0.82761 1.00106 0.0
C275 C 0.73564 0.85802 0.99547 0.0
C276 C 0.80233 0.79563 0.97376 0.0
C277 C 0.7753 0.79985 0.02549 0.0
C278 C 0.81311 0.81161 0.04787 0.0
C279 C 0.81031 0.79066 0.07288 0.0
C280 C 0.76803 0.75694 0.07495 0.0
C281 C 0.72883 0.7445 0.05219 0.0
C282 C 0.73297 0.76654 0.02722 0.0
H283 H 0.86128 0.1447 0.02964 0.0
H284 H 0.01934 0.18902 0.99777 0.0
H285 H 0.98096 0.26715 0.9944 0.0
H286 H 0.77657 0.19135 0.98566 0.0
H287 H 0.7225 0.21177 0.01041 0.0
H288 H 0.76572 0.1641 0.01754 0.0
H289 H 0.79508 0.20851 0.06697 0.0
H290 H 0.75092 0.25628 0.06028 0.0
H291 H 0.82397 0.26678 0.06914 0.0
H292 H 0.92057 0.33356 0.98544 0.0
H293 H 0.84407 0.3842 0.97294 0.0
H294 H 0.72403 0.29741 0.01062 0.0
C295 C 0.88833 0.1718 0.02335 0.0
C296 C 0.94378 0.16182 0.01498 0.0
C297 C 0.9777 0.19701 1.00559 0.0
C298 C 0.95599 0.24129 1.00337 0.0
C299 C 0.90048 0.24985 0.01102 0.0
C300 C 0.86738 0.21639 0.02141 0.0
C301 C 0.80756 0.23271 0.0253 0.0
C302 C 0.76568 0.19792 0.00871 0.0
C303 C 0.79355 0.24159 0.05732 0.0
C304 C 0.81086 0.27823 0.01267 0.0
C305 C 0.86522 0.28831 1.00554 0.0
C306 C 0.87814 0.32675 0.99168 0.0
C307 C 0.8344 0.35537 0.98469 0.0
C308 C 0.77825 0.34499 0.99111 0.0
C309 C 0.76664 0.30634 0.0057 0.0
H310 H 0.77733 0.64535 0.50039 0.0
H311 H 0.60482 0.67318 0.52254 0.0
H312 H 0.62213 0.75775 0.52191 0.0
H313 H 0.83286 0.73326 0.54611 0.0
H314 H 0.88954 0.74829 0.524 0.0
H315 H 0.86076 0.69004 0.51905 0.0
H316 H 0.83977 0.69581 0.46551 0.0
H317 H 0.86977 0.7539 0.47006 0.0
H318 H 0.7996 0.74397 0.45582 0.0
H319 H 0.66435 0.83938 0.52963 0.0
H320 H 0.72462 0.91033 0.53934 0.0
H321 H 0.86945 0.82863 0.51157 0.0
C322 C 0.74258 0.66912 0.50369 0.0
C323 C 0.68921 0.65286 0.51066 0.0
C324 C 0.64516 0.68491 0.51591 0.0
C325 C 0.65502 0.73303 0.51602 0.0
C326 C 0.70911 0.74823 0.51056 0.0
C327 C 0.75187 0.71699 0.50386 0.0
C328 C 0.80758 0.74192 0.50211 0.0
C329 C 0.85014 0.72751 0.52413 0.0
C330 C 0.83051 0.7334 0.47155 0.0
C331 C 0.79008 0.79206 0.50984 0.0
C332 C 0.73314 0.79515 0.51461 0.0
C333 C 0.70863 0.83747 0.52512 0.0
C334 C 0.74311 0.87748 0.53076 0.0
C335 C 0.80133 0.8749 0.52568 0.0
C336 C 0.82477 0.83172 0.51481 0.0
H337 H 0.74152 0.40143 0.5426 0.0
H338 H 0.6201 0.37766 0.47274 0.0
H339 H 0.65927 0.29868 0.45873 0.0
H340 H 0.85479 0.35158 0.50655 0.0
H341 H 0.8836 0.3263 0.5365 0.0
H342 H 0.84153 0.37771 0.54272 0.0
H343 H 0.7747 0.33565 0.57426 0.0
H344 H 0.81691 0.28408 0.56833 0.0
H345 H 0.74306 0.28045 0.55987 0.0
H346 H 0.71896 0.22503 0.45027 0.0
H347 H 0.7902 0.16356 0.44866 0.0
H348 H 0.8729 0.23913 0.52376 0.0
C349 C 0.72248 0.37943 0.52456 0.0
C350 C 0.67793 0.39563 0.50864 0.0
C351 C 0.65401 0.36571 0.48531 0.0
C352 C 0.67612 0.32094 0.47722 0.0
C353 C 0.72133 0.30668 0.49301 0.0
C354 C 0.74362 0.33501 0.51643 0.0
C355 C 0.79365 0.31313 0.52919 0.0
C356 C 0.84649 0.34401 0.52868 0.0
C357 C 0.78133 0.30271 0.55972 0.0
C358 C 0.79779 0.26862 0.50863 0.0
C359 C 0.75537 0.26505 0.48813 0.0
C360 C 0.75203 0.22746 0.46635 0.0
C361 C 0.79312 0.1929 0.46548 0.0
C362 C 0.83755 0.19634 0.48606 0.0
C363 C 0.8392 0.23471 0.508 0.0
H364 H 0.35651 0.39179 0.48247 0.0
H365 H 0.47048 0.42293 0.55517 0.0
H366 H 0.42618 0.35969 0.57815 0.0
H367 H 0.23867 0.37445 0.51972 0.0
H368 H 0.20974 0.32682 0.49513 0.0
H369 H 0.256 0.36869 0.48227 0.0
H370 H 0.32161 0.30247 0.46138 0.0
H371 H 0.27504 0.26013 0.47381 0.0
H372 H 0.34798 0.26205 0.48426 0.0
H373 H 0.35961 0.30297 0.59636 0.0
H374 H 0.2809 0.25206 0.60703 0.0
H375 H 0.2118 0.25562 0.52178 0.0
C376 C 0.37324 0.38445 0.50288 0.0
C377 C 0.41701 0.41219 0.51707 0.0
C378 C 0.43748 0.40176 0.54381 0.0
C379 C 0.4124 0.36602 0.55703 0.0
C380 C 0.36779 0.34056 0.54292 0.0
C381 C 0.34914 0.34869 0.51615 0.0
C382 C 0.29813 0.31872 0.50636 0.0
C383 C 0.24768 0.34899 0.50055 0.0
C384 C 0.31151 0.28376 0.47989 0.0
C385 C 0.28914 0.29406 0.53244 0.0
C386 C 0.33012 0.30687 0.55317 0.0
C387 C 0.32813 0.29188 0.58007 0.0
C388 C 0.28317 0.26324 0.58599 0.0
C389 C 0.2408 0.24974 0.56513 0.0
C390 C 0.24431 0.26477 0.53786 0.0
H391 H 0.3656 0.6575 0.54229 0.0
H392 H 0.51985 0.68475 0.49971 0.0
H393 H 0.48428 0.76125 0.49061 0.0
H394 H 0.27868 0.69417 0.49447 0.0
H395 H 0.22744 0.72134 0.51881 0.0
H396 H 0.2698 0.67527 0.52918 0.0
H397 H 0.30457 0.72877 0.57459 0.0
H398 H 0.26131 0.77502 0.56469 0.0
H399 H 0.33525 0.78501 0.57117 0.0
H400 H 0.42576 0.82728 0.47823 0.0
H401 H 0.34979 0.8778 0.46433 0.0
H402 H 0.23139 0.80542 0.51227 0.0
C403 C 0.3928 0.68053 0.53218 0.0
C404 C 0.44621 0.66571 0.52244 0.0
C405 C 0.47996 0.69611 0.50848 0.0
C406 C 0.45971 0.73952 0.50293 0.0
C407 C 0.40578 0.75215 0.51166 0.0
C408 C 0.37305 0.72378 0.52638 0.0
C409 C 0.31418 0.74245 0.53024 0.0
C410 C 0.26998 0.70614 0.51739 0.0
C411 C 0.30318 0.75878 0.56206 0.0
C412 C 0.31757 0.7836 0.51344 0.0
C413 C 0.37126 0.78956 0.50373 0.0
C414 C 0.38396 0.82362 0.4863 0.0
C415 C 0.34069 0.85208 0.47849 0.0
C416 C 0.28534 0.84565 0.48761 0.0
C417 C 0.27373 0.81131 0.50548 0.0
H418 H 0.11272 0.08356 0.13751 0.0
H419 H 0.00814 0.968 0.09882 0.0
H420 H 0.98414 0.9494 0.14723 0.0
H421 H 0.16898 0.03 0.1939 0.0
H422 H 0.16772 0.08163 0.21993 0.0
H423 H 0.17406 0.08704 0.18245 0.0
H424 H 0.08646 0.13948 0.18456 0.0
H425 H 0.08042 0.1349 0.22219 0.0
H426 H 0.02195 0.1188 0.19819 0.0
H427 H 0.97786 0.94068 0.20039 0.0
H428 H 0.98021 0.94837 0.25346 0.0
H429 H 0.08799 0.07074 0.25609 0.0
C430 C 0.08412 0.05472 0.13923 0.0
C431 C 0.06215 0.02717 0.11455 0.0
C432 C 0.02481 0.9898 0.11755 0.0
C433 C 0.0114 0.97881 0.14491 0.0
C434 C 0.03512 0.00603 0.16886 0.0
C435 C 0.06983 0.04377 0.1662 0.0
C436 C 0.08975 0.06786 0.19506 0.0
C437 C 0.15393 0.06651 0.19799 0.0
C438 C 0.06835 0.11823 0.20031 0.0
C439 C 0.06169 0.03733 0.21449 0.0
C440 C 0.03055 1.00168 0.19909 0.0
C441 C 1.00171 0.96871 0.21264 0.0
C442 C 1.00366 0.9731 0.24273 0.0
C443 C 0.03396 0.01032 0.25881 0.0
C444 C 0.06387 0.0423 0.24436 0.0
H445 H 0.0754 0.9712 0.89153 0.0
H446 H 0.06126 0.11462 0.93072 0.0
H447 H 0.06439 0.14109 0.88282 0.0
H448 H 0.17009 0.99979 0.83049 0.0
H449 H 0.13752 0.95359 0.80618 0.0
H450 H 0.14526 0.94757 0.84368 0.0
H451 H 0.03856 0.93174 0.84605 0.0
H452 H 0.03014 0.93862 0.80889 0.0
H453 H 0.9903 0.97417 0.83554 0.0
H454 H 0.04907 0.14937 0.83041 0.0
H455 H 0.02691 0.13964 0.77847 0.0
H456 H 0.05838 0.99125 0.77372 0.0
C457 C 0.07571 0.00828 0.88999 0.0
C458 C 0.06907 0.04102 0.9146 0.0
C459 C 0.06787 0.08923 0.91203 0.0
C460 C 0.06925 0.10449 0.88491 0.0
C461 C 0.07352 0.0711 0.86079 0.0
C462 C 0.07855 0.02408 0.86319 0.0
C463 C 0.07879 0.99492 0.83404 0.0
C464 C 0.13633 0.97265 0.82826 0.0
C465 C 0.03162 0.95771 0.83098 0.0
C466 C 0.06838 0.03227 0.81498 0.0
C467 C 0.0664 0.07613 0.83066 0.0
C468 C 0.05225 0.11537 0.81783 0.0
C469 C 0.03973 0.10952 0.78829 0.0
C470 C 0.04101 0.06469 0.77195 0.0
C471 C 0.0567 0.02595 0.78557 0.0
H472 H 0.54069 0.47831 0.6175 0.0
H473 H 0.5914 0.6237 0.6228 0.0
H474 H 0.57915 0.63343 0.67518 0.0
H475 H 0.43661 0.49339 0.67701 0.0
H476 H 0.45625 0.4395 0.68963 0.0
H477 H 0.46136 0.44547 0.65211 0.0
H478 H 0.56575 0.42271 0.65359 0.0
H479 H 0.56136 0.41765 0.69121 0.0
H480 H 0.61292 0.4561 0.67884 0.0
H481 H 0.57464 0.62541 0.72645 0.0
H482 H 0.56672 0.60228 0.77493 0.0
H483 H 0.5163 0.4624 0.73801 0.0
C484 C 0.54674 0.51253 0.62969 0.0
C485 C 0.56553 0.55071 0.6163 0.0
C486 C 0.57574 0.59452 0.63282 0.0
C487 C 0.56925 0.60025 0.66252 0.0
C488 C 0.55265 0.5617 0.67536 0.0
C489 C 0.5406 0.51881 0.65959 0.0
C490 C 0.52716 0.48253 0.67921 0.0
C491 C 0.46674 0.46415 0.67419 0.0
C492 C 0.56931 0.44239 0.67548 0.0
C493 C 0.53424 0.5117 0.70834 0.0
C494 C 0.54937 0.55716 0.70546 0.0
C495 C 0.56183 0.59019 0.72905 0.0
C496 C 0.55766 0.57672 0.75641 0.0
C497 C 0.54079 0.53082 0.75995 0.0
C498 C 0.52888 0.49782 0.73567 0.0
H499 H 0.51703 0.60071 0.41196 0.0
H500 H 0.58446 0.46213 0.41169 0.0
H501 H 0.59813 0.45641 0.35917 0.0
H502 H 0.44234 0.5826 0.34773 0.0
H503 H 0.45951 0.63804 0.33616 0.0
H504 H 0.45876 0.63257 0.37379 0.0
H505 H 0.56112 0.6633 0.3796 0.0
H506 H 0.56194 0.66962 0.34203 0.0
H507 H 0.61446 0.63521 0.35699 0.0
H508 H 0.59438 0.46308 0.30616 0.0
H509 H 0.58571 0.48519 0.25732 0.0
H510 H 0.52557 0.62145 0.29284 0.0
C511 C 0.53581 0.56964 0.40083 0.0
C512 C 0.55006 0.53188 0.41558 0.0
C513 C 0.57415 0.49156 0.4006 0.0
C514 C 0.58166 0.48797 0.37084 0.0
C515 C 0.56602 0.52549 0.35672 0.0
C516 C 0.54493 0.56604 0.37134 0.0
C517 C 0.53164 0.60138 0.35121 0.0
C518 C 0.46936 0.61437 0.3523 0.0
C519 C 0.56955 0.64495 0.35786 0.0
C520 C 0.54615 0.57364 0.32278 0.0
C521 C 0.56591 0.52997 0.3264 0.0
C522 C 0.57977 0.49743 0.30311 0.0
C523 C 0.57421 0.51014 0.27546 0.0
C524 C 0.55519 0.55508 0.2713 0.0
C525 C 0.54094 0.58708 0.29537 0.0
loop_
_geom_bond_atom_site_label_1
_geom_bond_atom_site_label_2
_geom_bond_distance
_geom_bond_site_symmetry_2
_ccdc_geom_bond_type
O0 Mg1 1.990 . S
O0 C14 1.253 . S
Mg1 O0 1.990 . S
Mg1 O4 2.180 . S
Mg1 O5 2.117 . S
Mg1 O19 2.030 1_545 S
O2 Mg3 2.072 . S
O2 C14 1.260 . S
Mg3 O2 2.072 . S
Mg3 O4 2.099 . S
Mg3 O6 2.079 1_554 S
Mg3 O7 2.072 . S
Mg3 O9 2.099 1_444 S
Mg3 O20 2.079 1_544 S
O4 Mg1 2.180 . S
O4 Mg3 2.099 . S
O4 C15 1.279 . S
O5 Mg1 2.117 . S
O5 C15 1.250 . S
O6 Mg3 2.079 1_556 S
O6 C16 1.264 . S
O7 Mg3 2.072 . S
O7 C17 1.260 1_455 S
Mg8 O9 2.180 1_545 S
Mg8 O10 2.030 . S
Mg8 O11 1.990 . S
Mg8 O12 2.134 1_545 S
O9 Mg3 2.099 1_666 S
O9 Mg8 2.180 1_565 S
O9 C18 1.279 1_556 S
O10 Mg8 2.030 . S
O10 C16 1.248 1_655 S
O11 Mg8 1.990 . S
O11 C17 1.253 1_556 S
O12 Mg8 2.134 1_565 S
O12 C18 1.244 1_556 S
C13 O19 1.248 . S
C13 O20 1.257 1_554 S
C14 O0 1.253 . S
C14 O2 1.260 . S
C15 O4 1.279 . S
C15 O5 1.250 . S
C16 O6 1.264 . S
C16 O10 1.248 1_455 S
C17 O7 1.260 1_655 S
C17 O11 1.253 1_554 S
C18 O9 1.279 1_554 S
C18 O12 1.244 1_554 S
O19 Mg1 2.030 1_565 S
O19 C13 1.248 . S
O20 Mg3 2.079 1_566 S
O20 C13 1.257 1_556 S
O21 Mg22 1.990 . S
O21 C35 1.253 . S
Mg22 O21 1.990 . S
Mg22 O25 2.180 . S
Mg22 O26 2.117 . S
Mg22 O40 2.030 . S
O23 Mg24 2.072 . S
O23 C35 1.260 . S
Mg24 O23 2.072 . S
Mg24 O25 2.099 . S
Mg24 O27 2.079 . S
Mg24 O28 2.072 . S
Mg24 O30 2.099 . S
Mg24 O41 2.079 . S
O25 Mg22 2.180 . S
O25 Mg24 2.099 . S
O25 C36 1.279 . S
O26 Mg22 2.117 . S
O26 C36 1.250 . S
O27 Mg24 2.079 . S
O27 C37 1.264 . S
O28 Mg24 2.072 . S
O28 C38 1.260 . S
Mg29 O30 2.180 . S
Mg29 O31 2.030 . S
Mg29 O32 1.990 . S
Mg29 O33 2.117 . S
O30 Mg24 2.099 . S
O30 Mg29 2.180 . S
O30 C39 1.279 . S
O31 Mg29 2.030 . S
O31 C37 1.248 . S
O32 Mg29 1.990 . S
O32 C38 1.253 . S
O33 Mg29 2.117 . S
O33 C39 1.250 . S
C34 O40 1.248 . S
C34 O41 1.264 . S
C35 O21 1.253 . S
C35 O23 1.260 . S
C36 O25 1.279 . S
C36 O26 1.250 . S
C37 O27 1.264 . S
C37 O31 1.248 . S
C38 O28 1.260 . S
C38 O32 1.253 . S
C39 O30 1.279 . S
C39 O33 1.250 . S
O40 Mg22 2.030 . S
O40 C34 1.248 . S
O41 Mg24 2.079 . S
O41 C34 1.264 . S
C42 C43 1.264 . S
C42 C47 1.479 . S
C42 C52 1.465 1_655 S
C43 C42 1.264 . S
C43 C45 1.339 . S
C43 H70 0.931 . S
C44 C45 1.395 . S
C44 C46 1.320 . S
C45 C43 1.339 . S
C45 C44 1.395 . S
C45 H71 0.929 . S
C46 C44 1.320 . S
C46 C47 1.405 . S
C46 H72 0.930 . S
C47 C42 1.479 . S
C47 C46 1.405 . S
C47 H73 0.931 . S
U48 O49 2.454 1_545 S
U48 O50 2.458 1_545 S
U48 C51 2.984 1_545 S
U48 C52 2.847 . S
U48 C65 2.882 . S
U48 O66 2.441 . S
U48 O67 2.420 . S
U48 O68 2.455 1_545 S
U48 O69 2.449 . S
O49 U48 2.454 1_565 S
O49 C51 1.353 . S
O50 U48 2.458 1_565 S
O50 C51 1.286 . S
C51 U48 2.984 1_565 S
C51 O49 1.353 . S
C51 O50 1.286 . S
C51 C53 1.363 . S
C52 C42 1.465 1_455 S
C52 U48 2.847 . S
C52 O66 1.249 . S
C52 O67 1.202 . S
C53 C51 1.363 . S
C53 C55 1.408 . S
C53 C58 1.342 . S
C54 C55 1.310 . S
C54 C57 1.461 . S
C54 H74 0.932 . S
C55 C53 1.408 . S
C55 C54 1.310 . S
C55 H75 0.930 . S
C56 C57 1.474 . S
C56 C58 1.285 . S
C56 H76 0.929 . S
C57 C54 1.461 . S
C57 C56 1.474 . S
C58 C53 1.342 . S
C58 C56 1.285 . S
C58 H77 0.930 . S
C59 C62 1.424 . S
C59 C64 1.245 1_545 S
C59 C65 1.428 . S
C60 C63 1.260 . S
C60 C64 1.477 . S
C60 H78 0.932 . S
C61 C62 1.384 . S
C61 C63 1.479 1_545 S
C61 H79 0.929 . S
C62 C59 1.424 . S
C62 C61 1.384 . S
C62 H80 0.928 . S
C63 C60 1.260 . S
C63 C61 1.479 1_565 S
C64 C59 1.245 1_565 S
C64 C60 1.477 . S
C64 H81 0.932 . S
C65 U48 2.882 . S
C65 C59 1.428 . S
C65 O68 1.301 1_545 S
C65 O69 1.282 . S
O66 U48 2.441 . S
O66 C52 1.249 . S
O67 U48 2.420 . S
O67 C52 1.202 . S
O68 U48 2.455 1_565 S
O68 C65 1.301 1_565 S
O69 U48 2.449 . S
O69 C65 1.282 . S
H70 C43 0.931 . S
H71 C45 0.929 . S
H72 C46 0.930 . S
H73 C47 0.931 . S
H74 C54 0.932 . S
H75 C55 0.930 . S
H76 C56 0.929 . S
H77 C58 0.930 . S
H78 C60 0.932 . S
H79 C61 0.929 . S
H80 C62 0.928 . S
H81 C64 0.932 . S
C82 C83 1.264 . S
C82 C87 1.479 . S
C82 C92 1.465 . S
C83 C82 1.264 . S
C83 C85 1.339 . S
C83 H110 0.931 . S
C84 C85 1.395 . S
C84 C86 1.320 . S
C85 C83 1.339 . S
C85 C84 1.395 . S
C85 H111 0.929 . S
C86 C84 1.320 . S
C86 C87 1.405 . S
C86 H112 0.930 . S
C87 C82 1.479 . S
C87 C86 1.405 . S
C87 H113 0.931 . S
U88 O89 2.454 . S
U88 O90 2.458 . S
U88 C91 2.984 . S
U88 C92 2.847 1_445 S
U88 C105 2.882 . S
U88 O106 2.441 1_455 S
U88 O107 2.420 1_445 S
U88 O108 2.455 . S
U88 O109 2.449 . S
O89 U88 2.454 . S
O89 C91 1.353 . S
O90 U88 2.458 . S
O90 C91 1.286 . S
C91 U88 2.984 . S
C91 O89 1.353 . S
C91 O90 1.286 . S
C91 C93 1.363 . S
C92 C82 1.465 . S
C92 U88 2.847 1_665 S
C92 O106 1.249 1_565 S
C92 O107 1.202 . S
C93 C91 1.363 . S
C93 C95 1.408 . S
C93 C98 1.342 . S
C94 C95 1.310 . S
C94 C97 1.461 . S
C94 H114 0.932 . S
C95 C93 1.408 . S
C95 C94 1.310 . S
C95 H115 0.930 . S
C96 C97 1.474 . S
C96 C98 1.285 . S
C96 H116 0.929 . S
C97 C94 1.461 . S
C97 C96 1.474 . S
C98 C93 1.342 . S
C98 C96 1.285 . S
C98 H117 0.930 . S
C99 C102 1.424 1_455 S
C99 C104 1.245 . S
C99 C105 1.428 . S
C100 C103 1.260 . S
C100 C104 1.477 . S
C100 H118 0.932 . S
C101 C102 1.384 . S
C101 C103 1.479 1_655 S
C101 H119 0.929 . S
C102 C99 1.424 1_655 S
C102 C101 1.384 . S
C102 H120 0.928 . S
C103 C100 1.260 . S
C103 C101 1.479 1_455 S
C104 C99 1.245 . S
C104 C100 1.477 . S
C104 H121 0.932 . S
C105 U88 2.882 . S
C105 C99 1.428 . S
C105 O108 1.301 . S
C105 O109 1.282 . S
O106 U88 2.441 1_655 S
O106 C92 1.249 1_545 S
O107 U88 2.420 1_665 S
O107 C92 1.202 . S
O108 U88 2.455 . S
O108 C105 1.301 . S
O109 U88 2.449 . S
O109 C105 1.282 . S
H110 C83 0.931 . S
H111 C85 0.929 . S
H112 C86 0.930 . S
H113 C87 0.931 . S
H114 C94 0.932 . S
H115 C95 0.930 . S
H116 C96 0.929 . S
H117 C98 0.930 . S
H118 C100 0.932 . S
H119 C101 0.929 . S
H120 C102 0.928 . S
H121 C104 0.932 . S
C122 C123 1.264 . S
C122 C127 1.479 1_556 S
C122 C132 1.465 . S
C123 C122 1.264 . S
C123 C125 1.339 . S
C123 H150 0.931 . S
C124 C125 1.395 . S
C124 C126 1.320 1_556 S
C125 C123 1.339 . S
C125 C124 1.395 . S
C125 H151 0.929 . S
C126 C124 1.320 1_554 S
C126 C127 1.405 . S
C126 H152 0.930 . S
C127 C122 1.479 1_554 S
C127 C126 1.405 . S
C127 H153 0.931 . S
U128 O129 2.454 . S
U128 O130 2.458 . S
U128 C131 2.984 . S
U128 C132 2.847 . S
U128 C145 2.882 . S
U128 O146 2.441 . S
U128 O147 2.420 . S
U128 O148 2.455 . S
U128 O149 2.449 . S
O129 U128 2.454 . S
O129 C131 1.353 . S
O130 U128 2.458 . S
O130 C131 1.286 . S
C131 U128 2.984 . S
C131 O129 1.353 . S
C131 O130 1.286 . S
C131 C133 1.363 . S
C132 C122 1.465 . S
C132 U128 2.847 . S
C132 O146 1.249 . S
C132 O147 1.202 . S
C133 C131 1.363 . S
C133 C135 1.408 . S
C133 C138 1.342 . S
C134 C135 1.310 1_554 S
C134 C137 1.461 1_554 S
C134 H154 0.932 . S
C135 C133 1.408 . S
C135 C134 1.310 1_556 S
C135 H155 0.930 1_556 S
C136 C137 1.474 . S
C136 C138 1.285 . S
C136 H156 0.929 . S
C137 C134 1.461 1_556 S
C137 C136 1.474 . S
C138 C133 1.342 . S
C138 C136 1.285 . S
C138 H157 0.930 . S
C139 C142 1.424 . S
C139 C144 1.245 . S
C139 C145 1.428 . S
C140 C143 1.260 . S
C140 C144 1.477 . S
C140 H158 0.932 . S
C141 C142 1.384 . S
C141 C143 1.479 . S
C141 H159 0.929 . S
C142 C139 1.424 . S
C142 C141 1.384 . S
C142 H160 0.928 . S
C143 C140 1.260 . S
C143 C141 1.479 . S
C144 C139 1.245 . S
C144 C140 1.477 . S
C144 H161 0.932 . S
C145 U128 2.882 . S
C145 C139 1.428 . S
C145 O148 1.301 . S
C145 O149 1.282 . S
O146 U128 2.441 . S
O146 C132 1.249 . S
O147 U128 2.420 . S
O147 C132 1.202 . S
O148 U128 2.455 . S
O148 C145 1.301 . S
O149 U128 2.449 . S
O149 C145 1.282 . S
H150 C123 0.931 . S
H151 C125 0.929 . S
H152 C126 0.930 . S
H153 C127 0.931 . S
H154 C134 0.932 . S
H155 C135 0.930 1_554 S
H156 C136 0.929 . S
H157 C138 0.930 . S
H158 C140 0.932 . S
H159 C141 0.929 . S
H160 C142 0.928 . S
H161 C144 0.932 . S
C162 C163 1.264 . S
C162 C167 1.479 . S
C162 C172 1.465 . S
C163 C162 1.264 . S
C163 C165 1.339 . S
C163 H190 0.931 . S
C164 C165 1.395 . S
C164 C166 1.320 . S
C165 C163 1.339 . S
C165 C164 1.395 . S
C165 H191 0.929 . S
C166 C164 1.320 . S
C166 C167 1.405 . S
C166 H192 0.930 1_554 S
C167 C162 1.479 . S
C167 C166 1.405 . S
C167 H193 0.931 . S
U168 O169 2.454 . S
U168 O170 2.458 . S
U168 C171 2.984 . S
U168 C172 2.847 . S
U168 C185 2.882 . S
U168 O186 2.441 . S
U168 O187 2.420 . S
U168 O188 2.455 . S
U168 O189 2.449 . S
O169 U168 2.454 . S
O169 C171 1.353 . S
O170 U168 2.458 . S
O170 C171 1.286 . S
C171 U168 2.984 . S
C171 O169 1.353 . S
C171 O170 1.286 . S
C171 C173 1.363 . S
C172 C162 1.465 . S
C172 U168 2.847 . S
C172 O186 1.249 . S
C172 O187 1.202 . S
C173 C171 1.363 . S
C173 C175 1.408 . S
C173 C178 1.342 . S
C174 C175 1.310 . S
C174 C177 1.461 . S
C174 H194 0.932 1_554 S
C175 C173 1.408 . S
C175 C174 1.310 . S
C175 H195 0.930 . S
C176 C177 1.474 . S
C176 C178 1.285 . S
C176 H196 0.929 . S
C177 C174 1.461 . S
C177 C176 1.474 . S
C178 C173 1.342 . S
C178 C176 1.285 . S
C178 H197 0.930 . S
C179 C182 1.424 . S
C179 C184 1.245 . S
C179 C185 1.428 . S
C180 C183 1.260 . S
C180 C184 1.477 . S
C180 H198 0.932 . S
C181 C182 1.384 . S
C181 C183 1.479 . S
C181 H199 0.929 . S
C182 C179 1.424 . S
C182 C181 1.384 . S
C182 H200 0.928 . S
C183 C180 1.260 . S
C183 C181 1.479 . S
C184 C179 1.245 . S
C184 C180 1.477 . S
C184 H201 0.932 . S
C185 U168 2.882 . S
C185 C179 1.428 . S
C185 O188 1.301 . S
C185 O189 1.282 . S
O186 U168 2.441 . S
O186 C172 1.249 . S
O187 U168 2.420 . S
O187 C172 1.202 . S
O188 U168 2.455 . S
O188 C185 1.301 . S
O189 U168 2.449 . S
O189 C185 1.282 . S
H190 C163 0.931 . S
H191 C165 0.929 . S
H192 C166 0.930 1_556 S
H193 C167 0.931 . S
H194 C174 0.932 1_556 S
H195 C175 0.930 . S
H196 C176 0.929 . S
H197 C178 0.930 . S
H198 C180 0.932 . S
H199 C181 0.929 . S
H200 C182 0.928 . S
H201 C184 0.932 . S
H202 C214 0.930 . S
H203 C216 0.930 . S
H204 C217 0.930 . S
H205 C221 0.975 . S
H206 C221 0.959 . S
H207 C221 0.961 . S
H208 C222 0.960 . S
H209 C222 0.961 . S
H210 C222 0.959 . S
H211 C225 0.929 . S
H212 C226 0.931 . S
H213 C228 0.930 . S
C214 H202 0.930 . S
C214 C215 1.399 1_556 S
C214 C219 1.398 1_556 S
C215 C214 1.399 1_554 S
C215 C216 1.376 . S
C216 H203 0.930 . S
C216 C215 1.376 . S
C216 C217 1.388 . S
C217 H204 0.930 . S
C217 C216 1.388 . S
C217 C218 1.390 . S
C218 C217 1.390 . S
C218 C219 1.416 . S
C218 C224 1.465 . S
C219 C214 1.398 1_554 S
C219 C218 1.416 . S
C219 C220 1.498 1_554 S
C220 C219 1.498 1_556 S
C220 C221 1.502 . S
C220 C222 1.561 . S
C220 C223 1.526 1_556 S
C221 H205 0.975 . S
C221 H206 0.959 . S
C221 H207 0.961 . S
C221 C220 1.502 . S
C222 H208 0.960 . S
C222 H209 0.961 . S
C222 H210 0.959 . S
C222 C220 1.561 . S
C223 C220 1.526 1_554 S
C223 C224 1.396 . S
C223 C228 1.390 1_554 S
C224 C218 1.465 . S
C224 C223 1.396 . S
C224 C225 1.399 . S
C225 H211 0.929 . S
C225 C224 1.399 . S
C225 C226 1.385 . S
C226 H212 0.931 . S
C226 C225 1.385 . S
C226 C227 1.389 . S
C227 C226 1.389 . S
C227 C228 1.387 1_554 S
C228 H213 0.930 . S
C228 C223 1.390 1_556 S
C228 C227 1.387 1_556 S
H229 C241 0.930 . S
H230 C243 0.930 . S
H231 C244 0.930 . S
H232 C248 0.959 . S
H233 C248 0.959 . S
H234 C248 0.961 . S
H235 C249 0.960 . S
H236 C249 0.961 . S
H237 C249 0.959 . S
H238 C252 0.929 . S
H239 C253 0.931 . S
H240 C255 0.930 . S
C241 H229 0.930 . S
C241 C242 1.399 . S
C241 C246 1.399 . S
C242 C241 1.399 . S
C242 C243 1.376 1_554 S
C243 H230 0.930 . S
C243 C242 1.376 1_556 S
C243 C244 1.388 . S
C244 H231 0.930 . S
C244 C243 1.388 . S
C244 C245 1.390 . S
C245 C244 1.390 . S
C245 C246 1.394 1_556 S
C245 C251 1.465 . S
C246 C241 1.399 . S
C246 C245 1.394 1_554 S
C246 C247 1.516 . S
C247 C246 1.516 . S
C247 C248 1.502 . S
C247 C249 1.561 . S
C247 C250 1.526 . S
C248 H232 0.959 . S
C248 H233 0.959 . S
C248 H234 0.961 . S
C248 C247 1.502 . S
C249 H235 0.960 . S
C249 H236 0.961 . S
C249 H237 0.959 . S
C249 C247 1.561 . S
C250 C247 1.526 . S
C250 C251 1.396 1_554 S
C250 C255 1.390 . S
C251 C245 1.465 . S
C251 C250 1.396 1_556 S
C251 C252 1.399 . S
C252 H238 0.929 . S
C252 C251 1.399 . S
C252 C253 1.385 . S
C253 H239 0.931 . S
C253 C252 1.385 . S
C253 C254 1.389 1_556 S
C254 C253 1.389 1_554 S
C254 C255 1.387 . S
C255 H240 0.930 . S
C255 C250 1.390 . S
C255 C254 1.387 . S
H256 C268 0.930 . S
H257 C270 0.930 . S
H258 C271 0.930 . S
H259 C275 0.959 . S
H260 C275 0.959 . S
H261 C275 0.961 . S
H262 C276 0.960 . S
H263 C276 0.961 . S
H264 C276 0.959 . S
H265 C279 0.929 . S
H266 C280 0.931 . S
H267 C282 0.930 1_556 S
C268 H256 0.930 . S
C268 C269 1.399 1_556 S
C268 C273 1.399 1_556 S
C269 C268 1.399 1_554 S
C269 C270 1.376 . S
C270 H257 0.930 . S
C270 C269 1.376 . S
C270 C271 1.388 . S
C271 H258 0.930 . S
C271 C270 1.388 . S
C271 C272 1.390 . S
C272 C271 1.390 . S
C272 C273 1.394 . S
C272 C278 1.465 . S
C273 C268 1.399 1_554 S
C273 C272 1.394 . S
C273 C274 1.516 1_554 S
C274 C273 1.516 1_556 S
C274 C275 1.502 . S
C274 C276 1.561 . S
C274 C277 1.526 1_556 S
C275 H259 0.959 . S
C275 H260 0.959 . S
C275 H261 0.961 . S
C275 C274 1.502 . S
C276 H262 0.960 . S
C276 H263 0.961 . S
C276 H264 0.959 . S
C276 C274 1.561 . S
C277 C274 1.526 1_554 S
C277 C278 1.396 . S
C277 C282 1.390 . S
C278 C272 1.465 . S
C278 C277 1.396 . S
C278 C279 1.399 . S
C279 H265 0.929 . S
C279 C278 1.399 . S
C279 C280 1.385 . S
C280 H266 0.931 . S
C280 C279 1.385 . S
C280 C281 1.389 . S
C281 C280 1.389 . S
C281 C282 1.387 . S
C282 H267 0.930 1_554 S
C282 C277 1.390 . S
C282 C281 1.387 . S
H283 C295 0.930 . S
H284 C297 0.930 . S
H285 C298 0.930 . S
H286 C302 0.959 . S
H287 C302 0.959 . S
H288 C302 0.961 . S
H289 C303 0.960 . S
H290 C303 0.961 . S
H291 C303 0.959 . S
H292 C306 0.929 . S
H293 C307 0.931 . S
H294 C309 0.930 . S
C295 H283 0.930 . S
C295 C296 1.399 . S
C295 C300 1.399 . S
C296 C295 1.399 . S
C296 C297 1.376 1_554 S
C297 H284 0.930 . S
C297 C296 1.376 1_556 S
C297 C298 1.388 . S
C298 H285 0.930 . S
C298 C297 1.388 . S
C298 C299 1.390 . S
C299 C298 1.390 . S
C299 C300 1.394 1_556 S
C299 C305 1.465 . S
C300 C295 1.399 . S
C300 C299 1.394 1_554 S
C300 C301 1.516 . S
C301 C300 1.516 . S
C301 C302 1.502 . S
C301 C303 1.561 . S
C301 C304 1.526 . S
C302 H286 0.959 . S
C302 H287 0.959 . S
C302 H288 0.961 . S
C302 C301 1.502 . S
C303 H289 0.960 . S
C303 H290 0.961 . S
C303 H291 0.959 . S
C303 C301 1.561 . S
C304 C301 1.526 . S
C304 C305 1.396 1_554 S
C304 C309 1.390 . S
C305 C299 1.465 . S
C305 C304 1.396 1_556 S
C305 C306 1.399 . S
C306 H292 0.929 . S
C306 C305 1.399 . S
C306 C307 1.385 . S
C307 H293 0.931 . S
C307 C306 1.385 . S
C307 C308 1.389 . S
C308 C307 1.389 . S
C308 C309 1.387 1_556 S
C309 H294 0.930 . S
C309 C304 1.390 . S
C309 C308 1.387 1_554 S
H310 C322 0.930 . S
H311 C324 0.930 . S
H312 C325 0.930 . S
H313 C329 0.959 . S
H314 C329 0.959 . S
H315 C329 0.961 . S
H316 C330 0.960 . S
H317 C330 0.961 . S
H318 C330 0.959 . S
H319 C333 0.929 . S
H320 C334 0.931 . S
H321 C336 0.930 . S
C322 H310 0.930 . S
C322 C323 1.399 . S
C322 C327 1.399 . S
C323 C322 1.399 . S
C323 C324 1.376 . S
C324 H311 0.930 . S
C324 C323 1.376 . S
C324 C325 1.388 . S
C325 H312 0.930 . S
C325 C324 1.388 . S
C325 C326 1.390 . S
C326 C325 1.390 . S
C326 C327 1.394 . S
C326 C332 1.465 . S
C327 C322 1.399 . S
C327 C326 1.394 . S
C327 C328 1.516 . S
C328 C327 1.516 . S
C328 C329 1.502 . S
C328 C330 1.561 . S
C328 C331 1.526 . S
C329 H313 0.959 . S
C329 H314 0.959 . S
C329 H315 0.961 . S
C329 C328 1.502 . S
C330 H316 0.960 . S
C330 H317 0.961 . S
C330 H318 0.959 . S
C330 C328 1.561 . S
C331 C328 1.526 . S
C331 C332 1.396 . S
C331 C336 1.390 . S
C332 C326 1.465 . S
C332 C331 1.396 . S
C332 C333 1.399 . S
C333 H319 0.929 . S
C333 C332 1.399 . S
C333 C334 1.385 . S
C334 H320 0.931 . S
C334 C333 1.385 . S
C334 C335 1.389 . S
C335 C334 1.389 . S
C335 C336 1.387 . S
C336 H321 0.930 . S
C336 C331 1.390 . S
C336 C335 1.387 . S
H337 C349 0.930 . S
H338 C351 0.930 . S
H339 C352 0.930 . S
H340 C356 0.959 . S
H341 C356 0.959 . S
H342 C356 0.961 . S
H343 C357 0.960 . S
H344 C357 0.961 . S
H345 C357 0.959 . S
H346 C360 0.929 . S
H347 C361 0.931 . S
H348 C363 0.930 . S
C349 H337 0.930 . S
C349 C350 1.399 . S
C349 C354 1.399 . S
C350 C349 1.399 . S
C350 C351 1.376 . S
C351 H338 0.930 . S
C351 C350 1.376 . S
C351 C352 1.388 . S
C352 H339 0.930 . S
C352 C351 1.388 . S
C352 C353 1.390 . S
C353 C352 1.390 . S
C353 C354 1.394 . S
C353 C359 1.465 . S
C354 C349 1.399 . S
C354 C353 1.394 . S
C354 C355 1.516 . S
C355 C354 1.516 . S
C355 C356 1.502 . S
C355 C357 1.561 . S
C355 C358 1.526 . S
C356 H340 0.959 . S
C356 H341 0.959 . S
C356 H342 0.961 . S
C356 C355 1.502 . S
C357 H343 0.960 . S
C357 H344 0.961 . S
C357 H345 0.959 . S
C357 C355 1.561 . S
C358 C355 1.526 . S
C358 C359 1.396 . S
C358 C363 1.390 . S
C359 C353 1.465 . S
C359 C358 1.396 . S
C359 C360 1.399 . S
C360 H346 0.929 . S
C360 C359 1.399 . S
C360 C361 1.385 . S
C361 H347 0.931 . S
C361 C360 1.385 . S
C361 C362 1.389 . S
C362 C361 1.389 . S
C362 C363 1.387 . S
C363 H348 0.930 . S
C363 C358 1.390 . S
C363 C362 1.387 . S
H364 C376 0.930 . S
H365 C378 0.930 . S
H366 C379 0.930 . S
H367 C383 0.959 . S
H368 C383 0.959 . S
H369 C383 0.961 . S
H370 C384 0.960 . S
H371 C384 0.961 . S
H372 C384 0.959 . S
H373 C387 0.929 . S
H374 C388 0.931 . S
H375 C390 0.930 . S
C376 H364 0.930 . S
C376 C377 1.399 . S
C376 C381 1.399 . S
C377 C376 1.399 . S
C377 C378 1.376 . S
C378 H365 0.930 . S
C378 C377 1.376 . S
C378 C379 1.388 . S
C379 H366 0.930 . S
C379 C378 1.388 . S
C379 C380 1.390 . S
C380 C379 1.390 . S
C380 C381 1.394 . S
C380 C386 1.465 . S
C381 C376 1.399 . S
C381 C380 1.394 . S
C381 C382 1.516 . S
C382 C381 1.516 . S
C382 C383 1.502 . S
C382 C384 1.561 . S
C382 C385 1.526 . S
C383 H367 0.959 . S
C383 H368 0.959 . S
C383 H369 0.961 . S
C383 C382 1.502 . S
C384 H370 0.960 . S
C384 H371 0.961 . S
C384 H372 0.959 . S
C384 C382 1.561 . S
C385 C382 1.526 . S
C385 C386 1.396 . S
C385 C390 1.390 . S
C386 C380 1.465 . S
C386 C385 1.396 . S
C386 C387 1.399 . S
C387 H373 0.929 . S
C387 C386 1.399 . S
C387 C388 1.385 . S
C388 H374 0.931 . S
C388 C387 1.385 . S
C388 C389 1.389 . S
C389 C388 1.389 . S
C389 C390 1.387 . S
C390 H375 0.930 . S
C390 C385 1.390 . S
C390 C389 1.387 . S
H391 C403 0.930 . S
H392 C405 0.930 . S
H393 C406 0.930 . S
H394 C410 0.959 . S
H395 C410 0.959 . S
H396 C410 0.961 . S
H397 C411 0.960 . S
H398 C411 0.961 . S
H399 C411 0.959 . S
H400 C414 0.929 . S
H401 C415 0.931 . S
H402 C417 0.930 . S
C403 H391 0.930 . S
C403 C404 1.399 . S
C403 C408 1.399 . S
C404 C403 1.399 . S
C404 C405 1.376 . S
C405 H392 0.930 . S
C405 C404 1.376 . S
C405 C406 1.388 . S
C406 H393 0.930 . S
C406 C405 1.388 . S
C406 C407 1.390 . S
C407 C406 1.390 . S
C407 C408 1.394 . S
C407 C413 1.465 . S
C408 C403 1.399 . S
C408 C407 1.394 . S
C408 C409 1.516 . S
C409 C408 1.516 . S
C409 C410 1.502 . S
C409 C411 1.561 . S
C409 C412 1.526 . S
C410 H394 0.959 . S
C410 H395 0.959 . S
C410 H396 0.961 . S
C410 C409 1.502 . S
C411 H397 0.960 . S
C411 H398 0.961 . S
C411 H399 0.959 . S
C411 C409 1.561 . S
C412 C409 1.526 . S
C412 C413 1.396 . S
C412 C417 1.390 . S
C413 C407 1.465 . S
C413 C412 1.396 . S
C413 C414 1.399 . S
C414 H400 0.929 . S
C414 C413 1.399 . S
C414 C415 1.385 . S
C415 H401 0.931 . S
C415 C414 1.385 . S
C415 C416 1.389 . S
C416 C415 1.389 . S
C416 C417 1.387 . S
C417 H402 0.930 . S
C417 C412 1.390 . S
C417 C416 1.387 . S
H418 C430 0.930 . S
H419 C432 0.930 1_655 S
H420 C433 0.930 1_655 S
H421 C437 0.959 . S
H422 C437 0.959 . S
H423 C437 0.961 . S
H424 C438 0.960 . S
H425 C438 0.961 . S
H426 C438 0.959 . S
H427 C441 0.929 1_655 S
H428 C442 0.931 . S
H429 C444 0.930 . S
C430 H418 0.930 . S
C430 C431 1.399 . S
C430 C435 1.399 . S
C431 C430 1.399 . S
C431 C432 1.376 1_545 S
C432 H419 0.930 1_455 S
C432 C431 1.376 1_565 S
C432 C433 1.388 . S
C433 H420 0.930 1_455 S
C433 C432 1.388 . S
C433 C434 1.390 . S
C434 C433 1.390 . S
C434 C435 1.394 1_565 S
C434 C440 1.465 . S
C435 C430 1.399 . S
C435 C434 1.394 1_545 S
C435 C436 1.516 . S
C436 C435 1.516 . S
C436 C437 1.502 . S
C436 C438 1.561 . S
C436 C439 1.526 . S
C437 H421 0.959 . S
C437 H422 0.959 . S
C437 H423 0.961 . S
C437 C436 1.502 . S
C438 H424 0.960 . S
C438 H425 0.961 . S
C438 H426 0.959 . S
C438 C436 1.561 . S
C439 C436 1.526 . S
C439 C440 1.396 1_545 S
C439 C444 1.390 . S
C440 C434 1.465 . S
C440 C439 1.396 1_565 S
C440 C441 1.399 . S
C441 H427 0.929 1_455 S
C441 C440 1.399 . S
C441 C442 1.385 . S
C442 H428 0.931 . S
C442 C441 1.385 . S
C442 C443 1.389 . S
C443 C442 1.389 . S
C443 C444 1.387 1_565 S
C444 H429 0.930 . S
C444 C439 1.390 . S
C444 C443 1.387 1_545 S
H445 C457 0.915 1_565 S
H446 C459 0.930 . S
H447 C460 0.930 . S
H448 C464 0.959 . S
H449 C464 0.964 . S
H450 C464 0.961 1_565 S
H451 C465 0.960 . S
H452 C465 0.961 . S
H453 C465 0.959 1_655 S
H454 C468 0.929 . S
H455 C469 0.931 . S
H456 C471 0.930 . S
C457 H445 0.915 1_545 S
C457 C458 1.399 . S
C457 C462 1.399 . S
C458 C457 1.399 . S
C458 C459 1.376 1_455 S
C459 H446 0.930 . S
C459 C458 1.376 1_655 S
C459 C460 1.388 . S
C460 H447 0.930 . S
C460 C459 1.388 . S
C460 C461 1.390 1_655 S
C461 C460 1.390 1_455 S
C461 C462 1.394 . S
C461 C467 1.465 . S
C462 C457 1.399 . S
C462 C461 1.394 . S
C462 C463 1.516 . S
C463 C462 1.516 . S
C463 C464 1.502 . S
C463 C465 1.561 1_545 S
C463 C466 1.526 . S
C464 H448 0.959 . S
C464 H449 0.964 . S
C464 H450 0.961 1_545 S
C464 C463 1.502 . S
C465 H451 0.960 . S
C465 H452 0.961 . S
C465 H453 0.959 1_455 S
C465 C463 1.561 1_565 S
C466 C463 1.526 . S
C466 C467 1.396 . S
C466 C471 1.390 . S
C467 C461 1.465 . S
C467 C466 1.396 . S
C467 C468 1.399 1_455 S
C468 H454 0.929 . S
C468 C467 1.399 1_655 S
C468 C469 1.385 . S
C469 H455 0.931 . S
C469 C468 1.385 . S
C469 C470 1.389 1_655 S
C470 C469 1.389 1_455 S
C470 C471 1.387 . S
C471 H456 0.930 . S
C471 C466 1.390 . S
C471 C470 1.387 . S
H472 C484 0.930 . S
H473 C486 0.930 . S
H474 C487 0.930 . S
H475 C491 0.959 . S
H476 C491 0.959 . S
H477 C491 0.961 . S
H478 C492 0.960 . S
H479 C492 0.961 . S
H480 C492 0.959 . S
H481 C495 0.929 . S
H482 C496 0.931 . S
H483 C498 0.930 . S
C484 H472 0.930 . S
C484 C485 1.399 . S
C484 C489 1.399 . S
C485 C484 1.399 . S
C485 C486 1.376 . S
C486 H473 0.930 . S
C486 C485 1.376 . S
C486 C487 1.388 . S
C487 H474 0.930 . S
C487 C486 1.388 . S
C487 C488 1.390 . S
C488 C487 1.390 . S
C488 C489 1.394 . S
C488 C494 1.465 . S
C489 C484 1.399 . S
C489 C488 1.394 . S
C489 C490 1.516 . S
C490 C489 1.516 . S
C490 C491 1.502 . S
C490 C492 1.561 . S
C490 C493 1.526 . S
C491 H475 0.959 . S
C491 H476 0.959 . S
C491 H477 0.961 . S
C491 C490 1.502 . S
C492 H478 0.960 . S
C492 H479 0.961 . S
C492 H480 0.959 . S
C492 C490 1.561 . S
C493 C490 1.526 . S
C493 C494 1.396 . S
C493 C498 1.390 . S
C494 C488 1.465 . S
C494 C493 1.396 . S
C494 C495 1.399 . S
C495 H481 0.929 . S
C495 C494 1.399 . S
C495 C496 1.385 . S
C496 H482 0.931 . S
C496 C495 1.385 . S
C496 C497 1.389 . S
C497 C496 1.389 . S
C497 C498 1.387 . S
C498 H483 0.930 . S
C498 C493 1.390 . S
C498 C497 1.387 . S
H499 C511 0.930 . S
H500 C513 0.930 . S
H501 C514 0.930 . S
H502 C518 0.959 . S
H503 C518 0.959 . S
H504 C518 0.961 . S
H505 C519 0.960 . S
H506 C519 0.961 . S
H507 C519 0.959 . S
H508 C522 0.929 . S
H509 C523 0.931 . S
H510 C525 0.930 . S
C511 H499 0.930 . S
C511 C512 1.399 . S
C511 C516 1.399 . S
C512 C511 1.399 . S
C512 C513 1.376 . S
C513 H500 0.930 . S
C513 C512 1.376 . S
C513 C514 1.388 . S
C514 H501 0.930 . S
C514 C513 1.388 . S
C514 C515 1.390 . S
C515 C514 1.390 . S
C515 C516 1.394 . S
C515 C521 1.465 . S
C516 C511 1.399 . S
C516 C515 1.394 . S
C516 C517 1.516 . S
C517 C516 1.516 . S
C517 C518 1.502 . S
C517 C519 1.561 . S
C517 C520 1.526 . S
C518 H502 0.959 . S
C518 H503 0.959 . S
C518 H504 0.961 . S
C518 C517 1.502 . S
C519 H505 0.960 . S
C519 H506 0.961 . S
C519 H507 0.959 . S
C519 C517 1.561 . S
C520 C517 1.526 . S
C520 C521 1.396 . S
C520 C525 1.390 . S
C521 C515 1.465 . S
C521 C520 1.396 . S
C521 C522 1.399 . S
C522 H508 0.929 . S
C522 C521 1.399 . S
C522 C523 1.385 . S
C523 H509 0.931 . S
C523 C522 1.385 . S
C523 C524 1.389 . S
C524 C523 1.389 . S
C524 C525 1.387 . S
C525 H510 0.930 . S
C525 C520 1.390 . S
C525 C524 1.387 . S
C227 C164 1.517 . S
C215 C15 1.433 . S
C242 C13 1.604 . S
C254 C124 1.545 1_554 S
C269 C18 1.390 . S
C281 C177 1.486 . S
C296 C17 1.389 . S
C308 C137 1.376 . S
C323 C36 1.470 . S
C335 C84 1.546 . S
C350 C34 1.605 . S
C362 C44 1.554 . S
C389 C97 1.486 . S
C377 C39 1.387 . S
C416 C57 1.376 . S
C404 C38 1.394 . S
C431 C14 1.548 . S
C443 C63 1.563 . S
C458 C16 1.339 . S
C470 C103 1.434 . S
C497 C143 1.520 . S
C485 C35 1.476 . S
C512 C37 1.402 . S
C524 C183 1.370 . S
