# Generated by pormake.
# Topology gar, (4,6)-cn, num edge types: 1
# Building blocks:
#     Node 0, Type 0, BuildingBlock: QUQFOY_clean_sbu_1, # of connection points: 4
#     Node 1, Type 0, BuildingBlock: QUQFOY_clean_sbu_1, # of connection points: 4
#     Node 2, Type 0, BuildingBlock: QUQFOY_clean_sbu_1, # of connection points: 4
#     Node 3, Type 0, BuildingBlock: QUQFOY_clean_sbu_1, # of connection points: 4
#     Node 4, Type 0, BuildingBlock: QUQFOY_clean_sbu_1, # of connection points: 4
#     Node 5, Type 0, BuildingBlock: QUQFOY_clean_sbu_1, # of connection points: 4
#     Node 6, Type 0, BuildingBlock: QUQFOY_clean_sbu_1, # of connection points: 4
#     Node 7, Type 0, BuildingBlock: QUQFOY_clean_sbu_1, # of connection points: 4
#     Node 8, Type 0, BuildingBlock: QUQFOY_clean_sbu_1, # of connection points: 4
#     Node 9, Type 0, BuildingBlock: QUQFOY_clean_sbu_1, # of connection points: 4
#     Node 10, Type 0, BuildingBlock: QUQFOY_clean_sbu_1, # of connection points: 4
#     Node 11, Type 0, BuildingBlock: QUQFOY_clean_sbu_1, # of connection points: 4
#     Node 12, Type 0, BuildingBlock: QUQFOY_clean_sbu_1, # of connection points: 4
#     Node 13, Type 0, BuildingBlock: QUQFOY_clean_sbu_1, # of connection points: 4
#     Node 14, Type 0, BuildingBlock: QUQFOY_clean_sbu_1, # of connection points: 4
#     Node 15, Type 0, BuildingBlock: QUQFOY_clean_sbu_1, # of connection points: 4
#     Node 16, Type 0, BuildingBlock: QUQFOY_clean_sbu_1, # of connection points: 4
#     Node 17, Type 0, BuildingBlock: QUQFOY_clean_sbu_1, # of connection points: 4
#     Node 18, Type 0, BuildingBlock: QUQFOY_clean_sbu_1, # of connection points: 4
#     Node 19, Type 0, BuildingBlock: QUQFOY_clean_sbu_1, # of connection points: 4
#     Node 20, Type 0, BuildingBlock: QUQFOY_clean_sbu_1, # of connection points: 4
#     Node 21, Type 0, BuildingBlock: QUQFOY_clean_sbu_1, # of connection points: 4
#     Node 22, Type 0, BuildingBlock: QUQFOY_clean_sbu_1, # of connection points: 4
#     Node 23, Type 0, BuildingBlock: QUQFOY_clean_sbu_1, # of connection points: 4
#     Node 24, Type 1, BuildingBlock: BETGAK_clean_sbu_0, # of connection points: 6
#     Node 25, Type 1, BuildingBlock: BETGAK_clean_sbu_0, # of connection points: 6
#     Node 26, Type 1, BuildingBlock: BETGAK_clean_sbu_0, # of connection points: 6
#     Node 27, Type 1, BuildingBlock: BETGAK_clean_sbu_0, # of connection points: 6
#     Node 28, Type 1, BuildingBlock: BETGAK_clean_sbu_0, # of connection points: 6
#     Node 29, Type 1, BuildingBlock: BETGAK_clean_sbu_0, # of connection points: 6
#     Node 30, Type 1, BuildingBlock: BETGAK_clean_sbu_0, # of connection points: 6
#     Node 31, Type 1, BuildingBlock: BETGAK_clean_sbu_0, # of connection points: 6
#     Node 32, Type 1, BuildingBlock: BETGAK_clean_sbu_0, # of connection points: 6
#     Node 33, Type 1, BuildingBlock: BETGAK_clean_sbu_0, # of connection points: 6
#     Node 34, Type 1, BuildingBlock: BETGAK_clean_sbu_0, # of connection points: 6
#     Node 35, Type 1, BuildingBlock: BETGAK_clean_sbu_0, # of connection points: 6
#     Node 36, Type 1, BuildingBlock: BETGAK_clean_sbu_0, # of connection points: 6
#     Node 37, Type 1, BuildingBlock: BETGAK_clean_sbu_0, # of connection points: 6
#     Node 38, Type 1, BuildingBlock: BETGAK_clean_sbu_0, # of connection points: 6
#     Node 39, Type 1, BuildingBlock: BETGAK_clean_sbu_0, # of connection points: 6
#     Edge 40, Type (0, 1), BuildingBlock: KIFKEQ_clean_linker_1, # of connection points: 2
#     Edge 41, Type (0, 1), BuildingBlock: KIFKEQ_clean_linker_1, # of connection points: 2
#     Edge 42, Type (0, 1), BuildingBlock: KIFKEQ_clean_linker_1, # of connection points: 2
#     Edge 43, Type (0, 1), BuildingBlock: KIFKEQ_clean_linker_1, # of connection points: 2
#     Edge 44, Type (0, 1), BuildingBlock: KIFKEQ_clean_linker_1, # of connection points: 2
#     Edge 45, Type (0, 1), BuildingBlock: KIFKEQ_clean_linker_1, # of connection points: 2
#     Edge 46, Type (0, 1), BuildingBlock: KIFKEQ_clean_linker_1, # of connection points: 2
#     Edge 47, Type (0, 1), BuildingBlock: KIFKEQ_clean_linker_1, # of connection points: 2
#     Edge 48, Type (0, 1), BuildingBlock: KIFKEQ_clean_linker_1, # of connection points: 2
#     Edge 49, Type (0, 1), BuildingBlock: KIFKEQ_clean_linker_1, # of connection points: 2
#     Edge 50, Type (0, 1), BuildingBlock: KIFKEQ_clean_linker_1, # of connection points: 2
#     Edge 51, Type (0, 1), BuildingBlock: KIFKEQ_clean_linker_1, # of connection points: 2
#     Edge 52, Type (0, 1), BuildingBlock: KIFKEQ_clean_linker_1, # of connection points: 2
#     Edge 53, Type (0, 1), BuildingBlock: KIFKEQ_clean_linker_1, # of connection points: 2
#     Edge 54, Type (0, 1), BuildingBlock: KIFKEQ_clean_linker_1, # of connection points: 2
#     Edge 55, Type (0, 1), BuildingBlock: KIFKEQ_clean_linker_1, # of connection points: 2
#     Edge 56, Type (0, 1), BuildingBlock: KIFKEQ_clean_linker_1, # of connection points: 2
#     Edge 57, Type (0, 1), BuildingBlock: KIFKEQ_clean_linker_1, # of connection points: 2
#     Edge 58, Type (0, 1), BuildingBlock: KIFKEQ_clean_linker_1, # of connection points: 2
#     Edge 59, Type (0, 1), BuildingBlock: KIFKEQ_clean_linker_1, # of connection points: 2
#     Edge 60, Type (0, 1), BuildingBlock: KIFKEQ_clean_linker_1, # of connection points: 2
#     Edge 61, Type (0, 1), BuildingBlock: KIFKEQ_clean_linker_1, # of connection points: 2
#     Edge 62, Type (0, 1), BuildingBlock: KIFKEQ_clean_linker_1, # of connection points: 2
#     Edge 63, Type (0, 1), BuildingBlock: KIFKEQ_clean_linker_1, # of connection points: 2
#     Edge 64, Type (0, 1), BuildingBlock: KIFKEQ_clean_linker_1, # of connection points: 2
#     Edge 65, Type (0, 1), BuildingBlock: KIFKEQ_clean_linker_1, # of connection points: 2
#     Edge 66, Type (0, 1), BuildingBlock: KIFKEQ_clean_linker_1, # of connection points: 2
#     Edge 67, Type (0, 1), BuildingBlock: KIFKEQ_clean_linker_1, # of connection points: 2
#     Edge 68, Type (0, 1), BuildingBlock: KIFKEQ_clean_linker_1, # of connection points: 2
#     Edge 69, Type (0, 1), BuildingBlock: KIFKEQ_clean_linker_1, # of connection points: 2
#     Edge 70, Type (0, 1), BuildingBlock: KIFKEQ_clean_linker_1, # of connection points: 2
#     Edge 71, Type (0, 1), BuildingBlock: KIFKEQ_clean_linker_1, # of connection points: 2
#     Edge 72, Type (0, 1), BuildingBlock: KIFKEQ_clean_linker_1, # of connection points: 2
#     Edge 73, Type (0, 1), BuildingBlock: KIFKEQ_clean_linker_1, # of connection points: 2
#     Edge 74, Type (0, 1), BuildingBlock: KIFKEQ_clean_linker_1, # of connection points: 2
#     Edge 75, Type (0, 1), BuildingBlock: KIFKEQ_clean_linker_1, # of connection points: 2
#     Edge 76, Type (0, 1), BuildingBlock: KIFKEQ_clean_linker_1, # of connection points: 2
#     Edge 77, Type (0, 1), BuildingBlock: KIFKEQ_clean_linker_1, # of connection points: 2
#     Edge 78, Type (0, 1), BuildingBlock: KIFKEQ_clean_linker_1, # of connection points: 2
#     Edge 79, Type (0, 1), BuildingBlock: KIFKEQ_clean_linker_1, # of connection points: 2
#     Edge 80, Type (0, 1), BuildingBlock: KIFKEQ_clean_linker_1, # of connection points: 2
#     Edge 81, Type (0, 1), BuildingBlock: KIFKEQ_clean_linker_1, # of connection points: 2
#     Edge 82, Type (0, 1), BuildingBlock: KIFKEQ_clean_linker_1, # of connection points: 2
#     Edge 83, Type (0, 1), BuildingBlock: KIFKEQ_clean_linker_1, # of connection points: 2
#     Edge 84, Type (0, 1), BuildingBlock: KIFKEQ_clean_linker_1, # of connection points: 2
#     Edge 85, Type (0, 1), BuildingBlock: KIFKEQ_clean_linker_1, # of connection points: 2
#     Edge 86, Type (0, 1), BuildingBlock: KIFKEQ_clean_linker_1, # of connection points: 2
#     Edge 87, Type (0, 1), BuildingBlock: KIFKEQ_clean_linker_1, # of connection points: 2
#     Edge 88, Type (0, 1), BuildingBlock: KIFKEQ_clean_linker_1, # of connection points: 2
#     Edge 89, Type (0, 1), BuildingBlock: KIFKEQ_clean_linker_1, # of connection points: 2
#     Edge 90, Type (0, 1), BuildingBlock: KIFKEQ_clean_linker_1, # of connection points: 2
#     Edge 91, Type (0, 1), BuildingBlock: KIFKEQ_clean_linker_1, # of connection points: 2
#     Edge 92, Type (0, 1), BuildingBlock: KIFKEQ_clean_linker_1, # of connection points: 2
#     Edge 93, Type (0, 1), BuildingBlock: KIFKEQ_clean_linker_1, # of connection points: 2
#     Edge 94, Type (0, 1), BuildingBlock: KIFKEQ_clean_linker_1, # of connection points: 2
#     Edge 95, Type (0, 1), BuildingBlock: KIFKEQ_clean_linker_1, # of connection points: 2
#     Edge 96, Type (0, 1), BuildingBlock: KIFKEQ_clean_linker_1, # of connection points: 2
#     Edge 97, Type (0, 1), BuildingBlock: KIFKEQ_clean_linker_1, # of connection points: 2
#     Edge 98, Type (0, 1), BuildingBlock: KIFKEQ_clean_linker_1, # of connection points: 2
#     Edge 99, Type (0, 1), BuildingBlock: KIFKEQ_clean_linker_1, # of connection points: 2
#     Edge 100, Type (0, 1), BuildingBlock: KIFKEQ_clean_linker_1, # of connection points: 2
#     Edge 101, Type (0, 1), BuildingBlock: KIFKEQ_clean_linker_1, # of connection points: 2
#     Edge 102, Type (0, 1), BuildingBlock: KIFKEQ_clean_linker_1, # of connection points: 2
#     Edge 103, Type (0, 1), BuildingBlock: KIFKEQ_clean_linker_1, # of connection points: 2
#     Edge 104, Type (0, 1), BuildingBlock: KIFKEQ_clean_linker_1, # of connection points: 2
#     Edge 105, Type (0, 1), BuildingBlock: KIFKEQ_clean_linker_1, # of connection points: 2
#     Edge 106, Type (0, 1), BuildingBlock: KIFKEQ_clean_linker_1, # of connection points: 2
#     Edge 107, Type (0, 1), BuildingBlock: KIFKEQ_clean_linker_1, # of connection points: 2
#     Edge 108, Type (0, 1), BuildingBlock: KIFKEQ_clean_linker_1, # of connection points: 2
#     Edge 109, Type (0, 1), BuildingBlock: KIFKEQ_clean_linker_1, # of connection points: 2
#     Edge 110, Type (0, 1), BuildingBlock: KIFKEQ_clean_linker_1, # of connection points: 2
#     Edge 111, Type (0, 1), BuildingBlock: KIFKEQ_clean_linker_1, # of connection points: 2
#     Edge 112, Type (0, 1), BuildingBlock: KIFKEQ_clean_linker_1, # of connection points: 2
#     Edge 113, Type (0, 1), BuildingBlock: KIFKEQ_clean_linker_1, # of connection points: 2
#     Edge 114, Type (0, 1), BuildingBlock: KIFKEQ_clean_linker_1, # of connection points: 2
#     Edge 115, Type (0, 1), BuildingBlock: KIFKEQ_clean_linker_1, # of connection points: 2
#     Edge 116, Type (0, 1), BuildingBlock: KIFKEQ_clean_linker_1, # of connection points: 2
#     Edge 117, Type (0, 1), BuildingBlock: KIFKEQ_clean_linker_1, # of connection points: 2
#     Edge 118, Type (0, 1), BuildingBlock: KIFKEQ_clean_linker_1, # of connection points: 2
#     Edge 119, Type (0, 1), BuildingBlock: KIFKEQ_clean_linker_1, # of connection points: 2
#     Edge 120, Type (0, 1), BuildingBlock: KIFKEQ_clean_linker_1, # of connection points: 2
#     Edge 121, Type (0, 1), BuildingBlock: KIFKEQ_clean_linker_1, # of connection points: 2
#     Edge 122, Type (0, 1), BuildingBlock: KIFKEQ_clean_linker_1, # of connection points: 2
#     Edge 123, Type (0, 1), BuildingBlock: KIFKEQ_clean_linker_1, # of connection points: 2
#     Edge 124, Type (0, 1), BuildingBlock: KIFKEQ_clean_linker_1, # of connection points: 2
#     Edge 125, Type (0, 1), BuildingBlock: KIFKEQ_clean_linker_1, # of connection points: 2
#     Edge 126, Type (0, 1), BuildingBlock: KIFKEQ_clean_linker_1, # of connection points: 2
#     Edge 127, Type (0, 1), BuildingBlock: KIFKEQ_clean_linker_1, # of connection points: 2
#     Edge 128, Type (0, 1), BuildingBlock: KIFKEQ_clean_linker_1, # of connection points: 2
#     Edge 129, Type (0, 1), BuildingBlock: KIFKEQ_clean_linker_1, # of connection points: 2
#     Edge 130, Type (0, 1), BuildingBlock: KIFKEQ_clean_linker_1, # of connection points: 2
#     Edge 131, Type (0, 1), BuildingBlock: KIFKEQ_clean_linker_1, # of connection points: 2
#     Edge 132, Type (0, 1), BuildingBlock: KIFKEQ_clean_linker_1, # of connection points: 2
#     Edge 133, Type (0, 1), BuildingBlock: KIFKEQ_clean_linker_1, # of connection points: 2
#     Edge 134, Type (0, 1), BuildingBlock: KIFKEQ_clean_linker_1, # of connection points: 2
#     Edge 135, Type (0, 1), BuildingBlock: KIFKEQ_clean_linker_1, # of connection points: 2
# Relax obj value: 0.209
# Max RMSD: 0.319
# Mean RMSD: 0.184
data_MOF--net-gar--node1-QUQFOY_clean_sbu_1--node2-BETGAK_clean_sbu_0--edge1-KIFKEQ_clean_linker_1
_symmetry_space_group_name_H-M    P1
_symmetry_Int_Tables_number       1
_symmetry_cell_setting            triclinic
loop_
_symmetry_equiv_pos_as_xyz
'x, y, z'
_cell_length_a     64.811236
_cell_length_b     58.848049
_cell_length_c     58.888476
_cell_angle_alpha  98.978777
_cell_angle_beta   95.54576
_cell_angle_gamma 105.04178
loop_
_atom_site_label
_atom_site_type_symbol
_atom_site_fract_x
_atom_site_fract_y
_atom_site_fract_z
_atom_type_partial_charge
O0 O 0.11889 0.30159 0.40724 0.0
Cd1 Cd 0.12635 0.32649 0.38651 0.0
Cd2 Cd 0.11479 0.35295 0.42346 0.0
O3 O 0.11985 0.32648 0.43965 0.0
O4 O 0.13594 0.30786 0.361 0.0
O5 O 0.15723 0.34111 0.38333 0.0
C6 C 0.15452 0.32341 0.3663 0.0
C7 C 0.11805 0.38925 0.44746 0.0
C8 C 0.11831 0.30561 0.4289 0.0
C9 C 0.08584 0.33835 0.37777 0.0
O10 O 0.08757 0.3439 0.39966 0.0
O11 O 0.10138 0.33389 0.36823 0.0
O12 O 0.10416 0.36994 0.44937 0.0
O13 O 0.13099 0.38806 0.43229 0.0
O14 O 0.99998 0.71477 0.66857 0.0
Cd15 Cd 1.00335 0.74485 0.69276 0.0
Cd16 Cd 1.01281 0.76447 0.65817 0.0
O17 O 0.99407 0.73254 0.63963 0.0
O18 O 0.98204 0.73946 0.71375 0.0
O19 O 0.98416 0.76567 0.68975 0.0
C20 C 0.97495 0.75566 0.70565 0.0
C21 C 0.01954 0.79569 0.63829 0.0
C22 C 0.99524 0.71376 0.64699 0.0
C23 C 0.04761 0.76526 0.69698 0.0
O24 O 0.04186 0.76557 0.67589 0.0
O25 O 0.03354 0.7597 0.71012 0.0
O26 O 0.02585 0.77698 0.63236 0.0
O27 O 1.00775 0.79605 0.6547 0.0
O28 O 0.65945 0.83538 0.89967 0.0
Cd29 Cd 0.63569 0.83631 0.9203 0.0
Cd30 Cd 0.61718 0.84947 0.88454 0.0
O31 O 0.64137 0.84166 0.86883 0.0
O32 O 0.63983 0.81599 0.94309 0.0
O33 O 0.61059 0.80725 0.91674 0.0
C34 C 0.62126 0.80167 0.93368 0.0
C35 C 0.58306 0.83415 0.86485 0.0
C36 C 0.65768 0.83694 0.87836 0.0
C37 C 0.62694 0.88401 0.92863 0.0
O38 O 0.622 0.88095 0.90681 0.0
O39 O 0.63248 0.86796 0.93784 0.0
O40 O 0.59687 0.85095 0.85824 0.0
O41 O 0.58878 0.8256 0.88257 0.0
O42 O 0.50428 0.20348 0.16393 0.0
Cd43 Cd 0.50589 0.23509 0.1849 0.0
Cd44 Cd 0.52125 0.25207 0.15095 0.0
O45 O 0.50694 0.21858 0.13214 0.0
O46 O 0.48474 0.2288 0.20607 0.0
O47 O 0.48441 0.25329 0.18082 0.0
C48 C 0.47638 0.24388 0.1976 0.0
C49 C 0.52733 0.28401 0.13216 0.0
C50 C 0.50404 0.20069 0.14213 0.0
C51 C 0.5508 0.25763 0.19537 0.0
O52 O 0.54856 0.25689 0.17366 0.0
O53 O 0.53446 0.25126 0.20538 0.0
O54 O 0.53629 0.26711 0.12746 0.0
O55 O 0.51314 0.28172 0.14622 0.0
O56 O 0.08934 0.77914 0.12121 0.0
Cd57 Cd 0.09431 0.80665 0.14879 0.0
Cd58 Cd 0.1172 0.83234 0.1177 0.0
O59 O 0.10931 0.79728 0.09733 0.0
O60 O 0.07409 0.78999 0.16862 0.0
O61 O 0.07039 0.82205 0.15558 0.0
C62 C 0.06304 0.80501 0.16659 0.0
C63 C 0.10776 0.8654 0.10311 0.0
C64 C 0.09755 0.77826 0.10252 0.0
C65 C 0.14294 0.82772 0.16279 0.0
O66 O 0.14316 0.83733 0.14469 0.0
O67 O 0.12508 0.81573 0.16777 0.0
O68 O 0.12415 0.85822 0.09758 0.0
O69 O 0.09659 0.85398 0.11697 0.0
O70 O 0.5664 0.77952 0.42327 0.0
Cd71 Cd 0.54866 0.7754 0.45079 0.0
Cd72 Cd 0.5213 0.79405 0.40694 0.0
O73 O 0.54891 0.78875 0.39294 0.0
O74 O 0.56648 0.76177 0.47323 0.0
O75 O 0.53403 0.74142 0.45582 0.0
C76 C 0.55116 0.74201 0.46937 0.0
C77 C 0.48788 0.79346 0.38399 0.0
C78 C 0.56558 0.78427 0.4028 0.0
C79 C 0.53704 0.82313 0.45907 0.0
O80 O 0.52891 0.81869 0.43771 0.0
O81 O 0.5444 0.80788 0.4682 0.0
O82 O 0.50538 0.81048 0.38549 0.0
O83 O 0.48943 0.77608 0.39441 0.0
O84 O 0.60104 0.27393 0.62647 0.0
Cd85 Cd 0.60463 0.30069 0.65447 0.0
Cd86 Cd 0.6266 0.32874 0.62409 0.0
O87 O 0.61801 0.29448 0.60202 0.0
O88 O 0.58283 0.28448 0.67334 0.0
O89 O 0.58033 0.31618 0.6589 0.0
C90 C 0.57197 0.29943 0.66985 0.0
C91 C 0.61623 0.36196 0.61016 0.0
C92 C 0.60776 0.27461 0.60701 0.0
C93 C 0.65339 0.3223 0.66869 0.0
O94 O 0.65327 0.33224 0.65071 0.0
O95 O 0.63554 0.31035 0.67385 0.0
O96 O 0.63295 0.35548 0.60461 0.0
O97 O 0.6055 0.35012 0.62405 0.0
O98 O 0.03561 0.23717 0.93142 0.0
Cd99 Cd 0.03529 0.26342 0.91084 0.0
Cd100 Cd 0.01938 0.28311 0.95163 0.0
O101 O 0.0281 0.2544 0.96443 0.0
O102 O 0.05339 0.25513 0.88631 0.0
O103 O 0.06391 0.28891 0.91194 0.0
C104 C 0.06809 0.27485 0.89496 0.0
C105 C 0.0315 0.32314 0.97215 0.0
C106 C 0.0336 0.23723 0.95278 0.0
C107 C 0.99038 0.27355 0.90479 0.0
O108 O 0.99205 0.27799 0.92691 0.0
O109 O 1.00582 0.26811 0.89514 0.0
O110 O 0.01641 0.30738 0.97851 0.0
O111 O 0.04072 0.31583 0.95503 0.0
O112 O 0.45914 0.04972 0.27811 0.0
Cd113 Cd 0.44673 0.05779 0.30812 0.0
Cd114 Cd 0.4797 0.04558 0.31816 0.0
O115 O 0.49327 0.06026 0.29284 0.0
O116 O 0.41842 0.05835 0.29357 0.0
O117 O 0.44264 0.09035 0.31485 0.0
C118 C 0.42428 0.0809 0.30178 0.0
C119 C 0.49388 0.04961 0.35496 0.0
C120 C 0.47882 0.05431 0.2753 0.0
C121 C 0.43979 1.01191 0.31617 0.0
O122 O 0.45707 1.01382 0.30749 0.0
O123 O 0.43514 0.03063 0.32496 0.0
O124 O 0.50056 0.03742 0.33847 0.0
O125 O 0.4807 0.06194 0.3501 0.0
O126 O 0.31112 0.20512 0.55418 0.0
Cd127 Cd 0.30954 0.17759 0.5275 0.0
Cd128 Cd 0.29213 0.21133 0.50252 0.0
O129 O 0.30129 0.23245 0.53695 0.0
O130 O 0.32503 0.15763 0.54395 0.0
O131 O 0.33678 0.17333 0.51454 0.0
C132 C 0.33964 0.16131 0.53056 0.0
C133 C 0.29868 0.22671 0.4668 0.0
C134 C 0.30737 0.22538 0.55538 0.0
C135 C 0.26167 0.16235 0.50812 0.0
O136 O 0.26443 0.18225 0.50096 0.0
O137 O 0.27774 0.15648 0.51733 0.0
O138 O 0.28439 0.23157 0.47912 0.0
O139 O 0.30987 0.21375 0.47492 0.0
O140 O 0.18001 1.01651 0.74204 0.0
Cd141 Cd 0.20799 1.0158 0.76612 0.0
Cd142 Cd 0.17181 0.04443 0.79947 0.0
O143 O 0.15709 0.03244 0.76192 0.0
O144 O 0.22946 0.99574 0.75156 0.0
O145 O 0.21172 0.9835 0.77832 0.0
C146 C 0.22529 0.97961 0.76444 0.0
C147 C 0.15275 0.04363 0.83672 0.0
C148 C 0.16274 0.02391 0.74235 0.0
C149 C 0.21943 0.07382 0.78937 0.0
O150 O 0.20198 0.07178 0.79895 0.0
O151 O 0.22392 0.05502 0.77838 0.0
O152 O 0.15206 0.05857 0.82287 0.0
O153 O 0.1635 0.02879 0.8297 0.0
O154 O 0.33023 0.94094 0.04298 0.0
Cd155 Cd 0.32452 0.96083 0.01916 0.0
Cd156 Cd 0.32668 0.92179 0.99497 0.0
O157 O 0.31458 0.90576 0.02094 0.0
O158 O 0.31398 0.98556 0.03684 0.0
O159 O 0.29383 0.95768 1.00748 0.0
C160 C 0.29556 0.97553 0.0241 0.0
C161 C 0.32333 0.89896 0.9584 0.0
C162 C 0.32302 0.91843 0.04069 0.0
C163 C 0.36505 0.96585 1.00791 0.0
O164 O 0.35753 0.94328 1.00451 0.0
O165 O 0.35233 0.97896 1.00908 0.0
O166 O 0.33438 0.89532 0.97607 0.0
O167 O 0.31283 0.91478 0.96166 0.0
O168 O 0.33508 0.39821 0.0898 0.0
Cd169 Cd 0.33815 0.42026 0.06468 0.0
Cd170 Cd 0.35098 0.38025 0.04074 0.0
O171 O 0.34109 0.36576 0.07028 0.0
O172 O 0.32244 0.44524 0.07393 0.0
O173 O 0.31028 0.41672 0.04297 0.0
C174 C 0.30761 0.43497 0.05644 0.0
C175 C 0.34118 0.36013 1.00114 0.0
C176 C 0.33615 0.37669 0.08868 0.0
C177 C 0.38449 0.42969 0.05227 0.0
O178 O 0.38012 0.40711 0.04549 0.0
O179 O 0.36985 0.43883 0.05949 0.0
O180 O 0.35509 0.35499 0.01521 0.0
O181 O 0.33151 0.37537 1.0099 0.0
O182 O 0.81156 0.15532 0.08411 0.0
Cd183 Cd 0.80723 0.13254 0.05266 0.0
Cd184 Cd 0.80404 0.16957 0.04048 0.0
O185 O 0.82508 0.18683 0.06908 0.0
O186 O 0.8262 0.11163 0.05336 0.0
O187 O 0.82911 0.14028 0.03193 0.0
C188 C 0.83613 0.12362 0.03907 0.0
C189 C 0.8002 0.18492 1.00781 0.0
C190 C 0.82096 0.17753 0.08669 0.0
C191 C 0.76469 0.13133 0.04038 0.0
O192 O 0.77377 0.15357 0.04615 0.0
O193 O 0.77603 0.1168 0.03756 0.0
O194 O 0.7968 0.19543 0.02737 0.0
O195 O 0.80869 0.16733 1.00739 0.0
O196 O 0.18968 0.55385 0.23057 0.0
Cd197 Cd 0.20591 0.55894 0.26327 0.0
Cd198 Cd 0.16989 0.55783 0.27143 0.0
O199 O 0.16254 0.53127 0.24323 0.0
O200 O 0.23184 0.54807 0.26489 0.0
O201 O 0.20079 0.52989 0.27647 0.0
C202 C 0.22053 0.531 0.27375 0.0
C203 C 0.16217 0.55766 0.30775 0.0
C204 C 0.17101 0.53912 0.22645 0.0
C205 C 0.19857 0.60301 0.27729 0.0
O206 O 0.18041 0.59177 0.26548 0.0
O207 O 0.21087 0.59129 0.2844 0.0
O208 O 0.14728 0.55675 0.29104 0.0
O209 O 0.18079 0.5557 0.30311 0.0
O210 O 0.83553 0.89831 0.59271 0.0
Cd211 Cd 0.83897 0.91876 0.56629 0.0
Cd212 Cd 0.85242 0.87975 0.54587 0.0
O213 O 0.84157 0.86525 0.57504 0.0
O214 O 0.82265 0.94277 0.57573 0.0
O215 O 0.81207 0.9159 0.54337 0.0
C216 C 0.80857 0.93319 0.55747 0.0
C217 C 0.84053 0.86165 0.50615 0.0
C218 C 0.83636 0.87689 0.59277 0.0
C219 C 0.88568 0.9286 0.55537 0.0
O220 O 0.88216 0.9059 0.55066 0.0
O221 O 0.87038 0.93751 0.56085 0.0
O222 O 0.85313 0.8537 0.51922 0.0
O223 O 0.83339 0.87875 0.51597 0.0
O224 O 0.95261 0.06732 0.22733 0.0
Cd225 Cd 0.92673 0.06841 0.25041 0.0
Cd226 Cd 0.96857 0.04757 0.27944 0.0
O227 O 0.97946 0.05629 0.24594 0.0
O228 O 0.90356 0.08654 0.23823 0.0
O229 O 0.92536 0.10273 0.26985 0.0
C230 C 0.90989 0.10469 0.2553 0.0
C231 C 0.99026 0.05214 0.31873 0.0
C232 C 0.9712 0.06248 0.22756 0.0
C233 C 0.91853 1.01545 0.26746 0.0
O234 O 0.93878 0.02002 0.27476 0.0
O235 O 0.91125 0.03167 0.25906 0.0
O236 O 0.98959 0.03538 0.30141 0.0
O237 O 0.98006 0.06735 0.31382 0.0
O238 O 0.31236 0.65723 0.57435 0.0
Cd239 Cd 0.3084 0.63288 0.54414 0.0
Cd240 Cd 0.30324 0.66801 0.53002 0.0
O241 O 0.32355 0.68851 0.55828 0.0
O242 O 0.32718 0.61202 0.54727 0.0
O243 O 0.33065 0.63857 0.52349 0.0
C244 C 0.33736 0.62254 0.53226 0.0
C245 C 0.30091 0.68012 0.4953 0.0
C246 C 0.32014 0.67972 0.57631 0.0
C247 C 0.26525 0.62895 0.53386 0.0
O248 O 0.2735 0.65137 0.53694 0.0
O249 O 0.27705 0.6149 0.53133 0.0
O250 O 0.2956 0.69145 0.51327 0.0
O251 O 0.30903 0.6626 0.49724 0.0
O252 O 0.45534 0.57037 0.73178 0.0
Cd253 Cd 0.42772 0.57094 0.75255 0.0
Cd254 Cd 0.46959 0.5483 0.78366 0.0
O255 O 0.48068 0.55702 0.75049 0.0
O256 O 0.40598 0.58974 0.73769 0.0
O257 O 0.42356 0.60432 0.77182 0.0
C258 C 0.41004 0.60706 0.75547 0.0
C259 C 0.49117 0.55124 0.8229 0.0
C260 C 0.47344 0.56437 0.73235 0.0
C261 C 0.41928 0.51703 0.76882 0.0
O262 O 0.43927 0.52169 0.77736 0.0
O263 O 0.41225 0.53331 0.76004 0.0
O264 O 0.49076 0.53533 0.80491 0.0
O265 O 0.48068 0.56643 0.8187 0.0
O266 O 0.6881 0.05547 0.72775 0.0
Cd267 Cd 0.7043 0.06242 0.76054 0.0
Cd268 Cd 0.66816 0.06208 0.7675 0.0
O269 O 0.66062 0.034 0.74079 0.0
O270 O 0.73002 0.05131 0.75997 0.0
O271 O 0.7011 0.03529 0.77634 0.0
C272 C 0.71994 0.03537 0.77091 0.0
C273 C 0.66056 0.0631 0.80391 0.0
C274 C 0.66972 0.04025 0.72378 0.0
C275 C 0.69721 0.1069 0.77226 0.0
O276 O 0.6792 0.09553 0.76021 0.0
O277 O 0.70945 0.09541 0.77998 0.0
O278 O 0.64572 0.06225 0.78717 0.0
O279 O 0.67905 0.06071 0.79929 0.0
O280 O 0.81348 0.71208 0.05942 0.0
Cd281 Cd 0.81025 0.68267 0.03423 0.0
Cd282 Cd 0.78914 0.71443 1.00879 0.0
O283 O 0.79685 0.73538 0.04319 0.0
O284 O 0.82633 0.66416 0.05211 0.0
O285 O 0.83654 0.67651 0.02049 0.0
C286 C 0.84 0.66609 0.03761 0.0
C287 C 0.79629 0.73025 0.97363 0.0
C288 C 0.80669 0.7306 0.06104 0.0
C289 C 0.76182 0.66461 0.01522 0.0
O290 O 0.76334 0.68341 1.00638 0.0
O291 O 0.77841 0.66101 0.026 0.0
O292 O 0.78036 0.73299 0.98431 0.0
O293 O 0.80864 0.71918 0.98309 0.0
O294 O 0.95639 0.54979 0.78668 0.0
Cd295 Cd 0.94289 0.55995 0.81504 0.0
Cd296 Cd 0.97638 0.55194 0.82915 0.0
O297 O 0.99037 0.56264 0.80207 0.0
O298 O 0.91656 0.56174 0.79727 0.0
O299 O 0.93915 0.59265 0.82165 0.0
C300 C 0.92198 0.58405 0.8065 0.0
C301 C 0.99136 0.56106 0.86641 0.0
C302 C 0.97616 0.55417 0.78434 0.0
C303 C 0.93614 0.51564 0.8262 0.0
O304 O 0.95505 0.51872 0.82116 0.0
O305 O 0.92901 0.53352 0.83132 0.0
O306 O 0.99786 0.54707 0.85136 0.0
O307 O 0.97753 0.57193 0.85977 0.0
O308 O 0.82739 0.43259 0.5515 0.0
Cd309 Cd 0.82491 0.45281 0.52708 0.0
Cd310 Cd 0.8315 0.41411 0.50381 0.0
O311 O 0.81919 0.39726 0.52892 0.0
O312 O 0.81452 0.47681 0.5458 0.0
O313 O 0.79603 0.45352 0.51289 0.0
C314 C 0.79712 0.46947 0.53106 0.0
C315 C 0.82923 0.39048 0.46801 0.0
C316 C 0.82264 0.41005 0.54897 0.0
C317 C 0.86742 0.46028 0.51785 0.0
O318 O 0.86141 0.4376 0.51352 0.0
O319 O 0.85366 0.47199 0.5201 0.0
O320 O 0.84061 0.38806 0.48608 0.0
O321 O 0.81828 0.40594 0.47041 0.0
O322 O 0.68166 0.51364 0.24859 0.0
Cd323 Cd 0.7101 0.51406 0.27283 0.0
Cd324 Cd 0.67279 0.54111 0.30487 0.0
O325 O 0.6577 0.52837 0.26754 0.0
O326 O 0.72859 0.49128 0.25617 0.0
O327 O 0.7175 0.48495 0.28838 0.0
C328 C 0.72776 0.47813 0.27197 0.0
C329 C 0.65476 0.54031 0.34286 0.0
C330 C 0.66398 0.52025 0.24822 0.0
C331 C 0.71994 0.57212 0.29434 0.0
O332 O 0.70194 0.5692 0.30298 0.0
O333 O 0.72579 0.55365 0.28457 0.0
O334 O 0.65205 0.55373 0.328 0.0
O335 O 0.66701 0.52695 0.33651 0.0
La336 La 0.04707 0.0391 0.02036 0.0
La337 La 0.08665 0.06763 0.04976 0.0
C338 C 1.00729 0.02285 1.00641 0.0
C339 C 0.99027 0.03501 1.00783 0.0
C340 C 0.97489 0.03152 0.9883 0.0
C341 C 0.96009 0.04498 0.98833 0.0
C342 C 0.96025 0.06197 1.00805 0.0
C343 C 0.97588 0.0656 0.02756 0.0
C344 C 0.99092 0.05241 0.02734 0.0
C345 C 0.07751 0.0416 0.99112 0.0
C346 C 0.06084 0.09626 0.02352 0.0
C347 C 0.12634 0.08381 0.06421 0.0
C348 C 0.14371 0.07226 0.06134 0.0
C349 C 0.15849 0.07346 0.08076 0.0
C350 C 0.17326 0.05994 0.07928 0.0
C351 C 0.17379 0.04523 0.05817 0.0
C352 C 0.15886 0.04411 0.0387 0.0
C353 C 0.14381 0.05727 0.04035 0.0
C354 C 0.05616 0.06552 0.07922 0.0
C355 C 0.07397 1.01022 0.04453 0.0
O356 O 0.02139 0.03108 0.99326 0.0
O357 O 0.01647 0.01959 0.02597 0.0
O358 O 0.05776 0.02839 0.98671 0.0
O359 O 0.08036 0.05099 1.01302 0.0
O360 O 0.0457 0.07558 0.01729 0.0
O361 O 0.07906 0.09782 0.03663 0.0
O362 O 0.11225 0.07368 0.07654 0.0
O363 O 0.11712 0.08888 0.04559 0.0
O364 O 0.07617 0.07789 0.08341 0.0
O365 O 0.05315 0.0559 0.0573 0.0
O366 O 0.08915 0.03092 0.05015 0.0
O367 O 0.05499 1.00896 0.0332 0.0
H368 H 0.97466 0.01876 0.97281 0.0
H369 H 0.94861 0.04218 0.97283 0.0
H370 H 0.97637 0.07838 0.04312 0.0
H371 H 1.00321 0.05607 0.04228 0.0
H372 H 0.15819 0.08434 0.0973 0.0
H373 H 0.18403 0.06084 0.09483 0.0
H374 H 0.15887 0.0333 0.02205 0.0
H375 H 0.13209 0.05546 0.02528 0.0
La376 La 0.32283 0.80254 0.25679 0.0
La377 La 0.3022 0.81193 0.29414 0.0
C378 C 0.3422 0.80207 0.22192 0.0
C379 C 0.34927 0.81973 0.2077 0.0
C380 C 0.3659 0.81807 0.19467 0.0
C381 C 0.37125 0.83346 0.17917 0.0
C382 C 0.36004 0.85057 0.17689 0.0
C383 C 0.34478 0.85363 0.19154 0.0
C384 C 0.33931 0.83812 0.20685 0.0
C385 C 0.34372 0.79477 0.295 0.0
C386 C 0.33147 0.85497 0.28174 0.0
C387 C 0.28344 0.81233 0.32967 0.0
C388 C 0.27636 0.79425 0.3436 0.0
C389 C 0.26137 0.79667 0.35873 0.0
C390 C 0.25514 0.77955 0.37252 0.0
C391 C 0.26359 0.75977 0.37078 0.0
C392 C 0.27777 0.75688 0.35476 0.0
C393 C 0.28432 0.77417 0.34146 0.0
C394 C 0.28199 0.82031 0.25595 0.0
C395 C 0.29408 0.7594 0.26848 0.0
O396 O 0.35199 0.80798 0.24319 0.0
O397 O 0.32132 0.79359 0.22073 0.0
O398 O 0.33858 0.78065 0.27502 0.0
O399 O 0.33572 0.81218 0.2937 0.0
O400 O 0.32824 0.8411 0.26128 0.0
O401 O 0.32482 0.84627 0.29966 0.0
O402 O 0.27338 0.80697 0.3085 0.0
O403 O 0.3043 0.82032 0.33039 0.0
O404 O 0.28662 0.83416 0.27608 0.0
O405 O 0.28947 0.80258 0.25736 0.0
O406 O 0.29715 0.77336 0.28888 0.0
O407 O 0.30015 0.76806 0.2504 0.0
H408 H 0.37396 0.80419 0.19566 0.0
H409 H 0.38302 0.83097 0.16784 0.0
H410 H 0.33578 0.86657 0.18971 0.0
H411 H 0.32652 0.83968 0.21701 0.0
H412 H 0.25501 0.81207 0.36034 0.0
H413 H 0.24444 0.78216 0.38511 0.0
H414 H 0.28496 0.74211 0.35367 0.0
H415 H 0.29621 0.77225 0.33022 0.0
La416 La 0.59812 0.05001 0.54162 0.0
La417 La 0.5497 0.04511 0.54657 0.0
C418 C 0.63602 0.04561 0.54719 0.0
C419 C 0.64847 0.02751 0.54388 0.0
C420 C 0.65789 0.02348 0.52353 0.0
C421 C 0.67266 1.00967 0.52222 0.0
C422 C 0.6786 0.99993 0.54134 0.0
C423 C 0.66835 1.00292 0.56114 0.0
C424 C 0.65349 1.01647 0.56239 0.0
C425 C 0.57396 0.05335 0.5055 0.0
C426 C 0.563 0.99767 0.53215 0.0
C427 C 0.51147 0.0483 0.54592 0.0
C428 C 0.49857 0.06591 0.54762 0.0
C429 C 0.48767 0.06876 0.56693 0.0
C430 C 0.47301 0.08255 0.56771 0.0
C431 C 0.46873 0.09383 0.54911 0.0
C432 C 0.48044 0.09195 0.53027 0.0
C433 C 0.49512 0.07807 0.52947 0.0
C434 C 0.57476 0.04283 0.58268 0.0
C435 C 0.5842 0.09732 0.5526 0.0
O436 O 0.62759 0.0517 0.52872 0.0
O437 O 0.62329 0.04429 0.56324 0.0
O438 O 0.5947 0.06291 0.50916 0.0
O439 O 0.56822 0.03988 0.51959 0.0
O440 O 0.58347 1.01091 0.53568 0.0
O441 O 0.54657 1.00722 0.53355 0.0
O442 O 0.52401 0.0484 0.56475 0.0
O443 O 0.52035 0.04433 0.52714 0.0
O444 O 0.5547 0.03043 0.57766 0.0
O445 O 0.5797 0.05635 0.56851 0.0
O446 O 0.56374 0.08385 0.54768 0.0
O447 O 0.60067 0.08777 0.55413 0.0
H448 H 0.65459 0.03186 0.509 0.0
H449 H 0.68038 1.0078 0.50678 0.0
H450 H 0.67247 0.99547 0.57609 0.0
H451 H 0.64671 0.0192 0.57836 0.0
H452 H 0.48994 0.0596 0.58118 0.0
H453 H 0.46465 0.08393 0.5827 0.0
H454 H 0.47751 0.10026 0.51558 0.0
H455 H 0.50316 0.07622 0.51429 0.0
La456 La 0.29496 0.29807 0.7754 0.0
La457 La 0.34136 0.28969 0.77802 0.0
C458 C 0.25508 0.28991 0.77869 0.0
C459 C 0.2403 0.29375 0.796 0.0
C460 C 0.23165 0.31346 0.79768 0.0
C461 C 0.21555 0.31517 0.81173 0.0
C462 C 0.20744 0.29708 0.82435 0.0
C463 C 0.21671 0.27783 0.82322 0.0
C464 C 0.23282 0.27619 0.80929 0.0
C465 C 0.32545 0.34054 0.77537 0.0
C466 C 0.32466 0.3071 0.82485 0.0
C467 C 0.38091 0.29448 0.77496 0.0
C468 C 0.39531 0.29008 0.75753 0.0
C469 C 0.4039 0.27033 0.75651 0.0
C470 C 0.42031 0.26843 0.74301 0.0
C471 C 0.42868 0.28643 0.73052 0.0
C472 C 0.41914 0.30533 0.73043 0.0
C473 C 0.40271 0.30716 0.74376 0.0
C474 C 0.30978 0.24815 0.77884 0.0
C475 C 0.3126 0.28214 0.7284 0.0
O476 O 0.26612 0.30837 0.77091 0.0
O477 O 0.2665 0.27505 0.78202 0.0
O478 O 0.30469 0.33693 0.77431 0.0
O479 O 0.32799 0.3197 0.77664 0.0
O480 O 0.30533 0.30412 0.81297 0.0
O481 O 0.34151 0.3043 0.81468 0.0
O482 O 0.36829 0.27593 0.78111 0.0
O483 O 0.37128 0.31121 0.77307 0.0
O484 O 0.3305 0.25125 0.78218 0.0
O485 O 0.30861 0.26871 0.77519 0.0
O486 O 0.33166 0.2844 0.74049 0.0
O487 O 0.29555 0.28486 0.73838 0.0
H488 H 0.2369 0.32729 0.78763 0.0
H489 H 0.20924 0.33054 0.81239 0.0
H490 H 0.21087 0.2633 0.83227 0.0
H491 H 0.23886 0.26059 0.80831 0.0
H492 H 0.39864 0.2569 0.76698 0.0
H493 H 0.42733 0.25366 0.74348 0.0
H494 H 0.42499 0.31928 0.7207 0.0
H495 H 0.39651 0.3226 0.74403 0.0
La496 La 0.07255 0.07165 0.54403 0.0
La497 La 0.07869 0.02555 0.52402 0.0
C498 C 0.07916 0.1162 0.55295 0.0
C499 C 0.07837 0.13312 0.53731 0.0
C500 C 0.06527 0.14851 0.54088 0.0
C501 C 0.06422 0.16458 0.52606 0.0
C502 C 0.0764 0.16555 0.50758 0.0
C503 C 0.08875 0.14937 0.50339 0.0
C504 C 0.08968 0.1332 0.5181 0.0
C505 C 0.03574 0.03859 0.54543 0.0
C506 C 0.05645 0.05007 0.48879 0.0
C507 C 0.08174 0.98373 0.51533 0.0
C508 C 0.07875 0.96634 0.53052 0.0
C509 C 0.08876 0.94789 0.52804 0.0
C510 C 0.08553 0.93143 0.54292 0.0
C511 C 0.07225 0.93351 0.56016 0.0
C512 C 0.06321 0.95271 0.56328 0.0
C513 C 0.06649 0.96906 0.54859 0.0
C514 C 0.10918 0.06344 0.51835 0.0
C515 C 0.09027 0.04395 0.58053 0.0
O516 O 0.06066 0.10115 0.55382 0.0
O517 O 0.09464 0.10579 0.55171 0.0
O518 O 0.0399 0.06125 0.55341 0.0
O519 O 0.05248 0.035 0.53776 0.0
O520 O 0.06375 0.06964 0.50548 0.0
O521 O 0.05813 0.02925 0.49345 0.0
O522 O 0.0984 1.00239 0.52275 0.0
O523 O 0.06426 0.98963 0.5087 0.0
O524 O 0.10063 0.04447 0.50263 0.0
O525 O 0.10045 0.06048 0.53634 0.0
O526 O 0.08617 0.02589 0.56237 0.0
O527 O 0.08681 0.06466 0.57735 0.0
H528 H 0.05602 0.14825 0.55525 0.0
H529 H 0.05433 0.17667 0.52939 0.0
H530 H 0.09844 0.1499 0.48937 0.0
H531 H 0.09951 0.12106 0.51461 0.0
H532 H 0.09867 0.94602 0.51445 0.0
H533 H 0.09257 0.91657 0.54039 0.0
H534 H 0.05308 0.95462 0.57667 0.0
H535 H 0.05913 0.98361 0.55108 0.0
La536 La 0.33878 0.8118 0.76095 0.0
La537 La 0.29827 0.77667 0.76454 0.0
C538 C 0.37675 0.83832 0.76957 0.0
C539 C 0.39753 0.83415 0.77665 0.0
C540 C 0.41451 0.84041 0.7637 0.0
C541 C 0.43454 0.83712 0.77069 0.0
C542 C 0.43764 0.8276 0.79068 0.0
C543 C 0.42063 0.82079 0.80333 0.0
C544 C 0.40062 0.82389 0.7963 0.0
C545 C 0.31566 0.78816 0.72152 0.0
C546 C 0.33944 0.7555 0.7646 0.0
C547 C 0.26033 0.75036 0.75475 0.0
C548 C 0.23949 0.75527 0.74964 0.0
C549 C 0.22497 0.75299 0.76588 0.0
C550 C 0.20523 0.75785 0.76133 0.0
C551 C 0.1997 0.76475 0.74036 0.0
C552 C 0.2143 0.76738 0.72426 0.0
C553 C 0.23409 0.76273 0.72886 0.0
C554 C 0.32099 0.79894 0.80464 0.0
C555 C 0.29764 0.83288 0.76047 0.0
O556 O 0.36728 0.82789 0.7485 0.0
O557 O 0.36327 0.83652 0.78483 0.0
O558 O 0.32657 0.81057 0.7245 0.0
O559 O 0.31907 0.78049 0.73973 0.0
O560 O 0.35052 0.77858 0.76524 0.0
O561 O 0.31798 0.75028 0.76346 0.0
O562 O 0.27017 0.75836 0.77613 0.0
O563 O 0.27352 0.75417 0.73934 0.0
O564 O 0.30966 0.77663 0.80033 0.0
O565 O 0.3183 0.80787 0.78687 0.0
O566 O 0.28656 0.8099 0.76023 0.0
O567 O 0.31906 0.83799 0.76144 0.0
H568 H 0.41233 0.84815 0.74841 0.0
H569 H 0.44773 0.84255 0.76092 0.0
H570 H 0.42299 0.81356 0.81891 0.0
H571 H 0.38773 0.8186 0.80647 0.0
H572 H 0.22884 0.74733 0.78203 0.0
H573 H 0.19402 0.75551 0.77386 0.0
H574 H 0.21033 0.77287 0.70804 0.0
H575 H 0.24502 0.76487 0.71605 0.0
La576 La 0.57168 0.03909 0.06146 0.0
La577 La 0.56101 0.04599 1.01388 0.0
C578 C 0.57037 0.03175 0.10187 0.0
C579 C 0.55185 0.0199 0.11225 0.0
C580 C 0.55001 0.99681 0.11683 0.0
C581 C 0.53231 0.98508 0.12627 0.0
C582 C 0.51647 0.99653 0.13177 0.0
C583 C 0.51762 0.01897 0.12569 0.0
C584 C 0.53516 0.03055 0.11599 0.0
C585 C 0.58548 1.0128 0.02994 0.0
C586 C 0.52487 1.01462 0.03278 0.0
C587 C 0.5624 0.05328 0.97346 0.0
C588 C 0.58027 0.06864 0.96458 0.0
C589 C 0.57966 0.09164 0.96141 0.0
C590 C 0.59693 0.10662 0.95376 0.0
C591 C 0.61486 0.0986 0.94863 0.0
C592 C 0.61594 0.07613 0.95323 0.0
C593 C 0.59885 0.06135 0.96112 0.0
C594 C 0.54746 0.07242 0.04549 0.0
C595 C 0.60745 0.07213 0.04277 0.0
O596 O 0.5758 0.0176 0.08558 0.0
O597 O 0.57043 0.05249 0.09626 0.0
O598 O 0.59606 0.02262 0.05033 0.0
O599 O 0.56733 0.01693 0.02788 0.0
O600 O 0.53657 0.02389 0.05339 0.0
O601 O 0.53323 1.01684 1.0135 0.0
O602 O 0.55326 0.06473 0.98844 0.0
O603 O 0.56573 0.03402 0.97989 0.0
O604 O 0.53672 0.06273 0.02513 0.0
O605 O 0.56553 0.06816 0.04738 0.0
O606 O 0.59551 0.06374 0.02226 0.0
O607 O 0.6005 0.06726 0.06218 0.0
H608 H 0.56247 0.98801 0.11352 0.0
H609 H 0.53172 0.96776 0.13071 0.0
H610 H 0.50588 0.02849 0.13005 0.0
H611 H 0.53586 0.04809 0.11206 0.0
H612 H 0.56571 0.09794 0.96455 0.0
H613 H 0.59573 0.12393 0.95067 0.0
H614 H 0.62926 0.06905 0.94918 0.0
H615 H 0.60008 0.04396 0.96395 0.0
La616 La 0.32705 0.32131 0.28412 0.0
La617 La 0.30233 0.26661 0.26204 0.0
C618 C 0.33977 0.36571 0.28956 0.0
C619 C 0.32607 0.38191 0.29145 0.0
C620 C 0.33089 0.40093 0.3104 0.0
C621 C 0.31685 0.41507 0.31366 0.0
C622 C 0.29785 0.41031 0.29799 0.0
C623 C 0.29257 0.39076 0.2795 0.0
C624 C 0.30658 0.37658 0.27627 0.0
C625 C 0.32222 0.29335 0.31664 0.0
C626 C 0.27602 0.30123 0.28115 0.0
C627 C 0.28927 0.22205 0.25604 0.0
C628 C 0.30251 0.2054 0.25604 0.0
C629 C 0.29865 0.18599 0.23756 0.0
C630 C 0.31332 0.17238 0.23548 0.0
C631 C 0.33197 0.17806 0.25195 0.0
C632 C 0.33565 0.19748 0.27047 0.0
C633 C 0.3212 0.21115 0.27234 0.0
C634 C 0.30653 0.29459 0.22948 0.0
C635 C 0.35353 0.28669 0.26612 0.0
O636 O 0.34029 0.35425 0.30682 0.0
O637 O 0.33744 0.3517 0.26933 0.0
O638 O 0.33054 0.31636 0.32066 0.0
O639 O 0.31848 0.2876 0.29464 0.0
O640 O 0.29312 0.32001 0.28323 0.0
O641 O 0.27608 0.2788 0.27404 0.0
O642 O 0.29128 0.23378 0.23891 0.0
O643 O 0.28996 0.236 0.27598 0.0
O644 O 0.29721 0.27178 0.22567 0.0
O645 O 0.31174 0.30023 0.25134 0.0
O646 O 0.33637 0.26794 0.26403 0.0
O647 O 0.35346 0.30922 0.27248 0.0
H648 H 0.34544 0.40472 0.32274 0.0
H649 H 0.32102 0.43005 0.32814 0.0
H650 H 0.27805 0.38696 0.26713 0.0
H651 H 0.30208 0.36144 0.26196 0.0
H652 H 0.28465 0.18183 0.22439 0.0
H653 H 0.31022 0.15765 0.22091 0.0
H654 H 0.34963 0.20208 0.28372 0.0
H655 H 0.32499 0.22658 0.28625 0.0
La656 La 0.57355 0.56581 0.0481 0.0
La657 La 0.57985 0.52245 0.02888 0.0
C658 C 0.57366 0.6091 0.05529 0.0
C659 C 0.57558 0.62655 0.03963 0.0
C660 C 0.55907 0.6375 0.03598 0.0
C661 C 0.56046 0.65365 0.02077 0.0
C662 C 0.57854 0.65935 1.00912 0.0
C663 C 0.5949 0.64801 1.01255 0.0
C664 C 0.59338 0.63167 0.02751 0.0
C665 C 0.54071 0.52942 0.05269 0.0
C666 C 0.55969 0.54616 0.99189 0.0
C667 C 0.58287 0.48051 0.02017 0.0
C668 C 0.58143 0.46335 0.0356 0.0
C669 C 0.59293 0.44622 0.03301 0.0
C670 C 0.59107 0.42968 0.0478 0.0
C671 C 0.57773 0.4304 0.06514 0.0
C672 C 0.56733 0.44847 0.06854 0.0
C673 C 0.56912 0.46482 0.05381 0.0
C674 C 0.61135 0.55957 0.02349 0.0
C675 C 0.59263 0.54014 0.08495 0.0
O676 O 0.55601 0.59138 0.05078 0.0
O677 O 0.5907 0.60184 0.06008 0.0
O678 O 0.54956 0.5485 0.06834 0.0
O679 O 0.55039 0.53118 0.03504 0.0
O680 O 0.56549 0.56499 1.00945 0.0
O681 O 0.56227 0.52559 0.99612 0.0
O682 O 0.59957 0.49927 0.02615 0.0
O683 O 0.56501 0.48623 0.01503 0.0
O684 O 0.60239 0.54073 1.00778 0.0
O685 O 0.60265 0.55711 0.04158 0.0
O686 O 0.586 0.52162 0.06723 0.0
O687 O 0.591 0.56127 0.08099 0.0
H688 H 0.54505 0.63351 0.04486 0.0
H689 H 0.54738 0.6617 0.0182 0.0
H690 H 0.60921 0.65217 1.00415 0.0
H691 H 0.60626 0.62323 0.02965 0.0
H692 H 0.60284 0.44531 0.01928 0.0
H693 H 0.59906 0.41565 0.04497 0.0
H694 H 0.55703 0.44922 0.08192 0.0
H695 H 0.56035 0.47817 0.05628 0.0
La696 La 0.84064 0.31043 0.27249 0.0
La697 La 0.79859 0.27386 0.26892 0.0
C698 C 0.8781 0.33634 0.28787 0.0
C699 C 0.89926 0.33169 0.29182 0.0
C700 C 0.91222 0.33108 0.27404 0.0
C701 C 0.9322 0.32653 0.27811 0.0
C702 C 0.93945 0.32252 0.29996 0.0
C703 C 0.92643 0.32299 0.31763 0.0
C704 C 0.90659 0.32765 0.31364 0.0
C705 C 0.82196 0.29012 0.23026 0.0
C706 C 0.84012 0.25304 0.27048 0.0
C707 C 0.76138 0.24634 0.25567 0.0
C708 C 0.73961 0.24944 0.25305 0.0
C709 C 0.72657 0.24529 0.27053 0.0
C710 C 0.70629 0.24929 0.26858 0.0
C711 C 0.69883 0.25744 0.24911 0.0
C712 C 0.71162 0.2611 0.23141 0.0
C713 C 0.73183 0.25704 0.2333 0.0
C714 C 0.81765 0.29434 0.31096 0.0
C715 C 0.79894 0.33095 0.26892 0.0
O716 O 0.8693 0.33339 0.26622 0.0
O717 O 0.86413 0.32744 0.30109 0.0
O718 O 0.83413 0.31207 0.23582 0.0
O719 O 0.82266 0.28046 0.24767 0.0
O720 O 0.85158 0.27641 0.27515 0.0
O721 O 0.81864 0.24792 0.26581 0.0
O722 O 0.77122 0.25043 0.27702 0.0
O723 O 0.77418 0.25554 0.24148 0.0
O724 O 0.80648 0.27203 0.30558 0.0
O725 O 0.81638 0.30398 0.29363 0.0
O726 O 0.78756 0.30751 0.26464 0.0
O727 O 0.82044 0.33635 0.27414 0.0
H728 H 0.90701 0.33422 0.25706 0.0
H729 H 0.94203 0.3263 0.26425 0.0
H730 H 0.93188 0.32052 0.33482 0.0
H731 H 0.89707 0.32824 0.32776 0.0
H732 H 0.73214 0.23921 0.28583 0.0
H733 H 0.69656 0.24632 0.28237 0.0
H734 H 0.7059 0.26691 0.21601 0.0
H735 H 0.74137 0.26005 0.21937 0.0
La736 La 0.07328 0.55959 0.56718 0.0
La737 La 0.06164 0.56509 0.51997 0.0
C738 C 0.07431 0.55325 0.60822 0.0
C739 C 0.05776 0.53897 0.61953 0.0
C740 C 0.05989 0.51726 0.62507 0.0
C741 C 0.04438 0.50363 0.63601 0.0
C742 C 0.02675 0.51179 0.64196 0.0
C743 C 0.02398 0.53277 0.63505 0.0
C744 C 0.03932 0.54621 0.6239 0.0
C745 C 0.08357 0.53026 0.53474 0.0
C746 C 0.0259 0.53485 0.54085 0.0
C747 C 0.06164 0.57122 0.47904 0.0
C748 C 0.0794 0.58451 0.46856 0.0
C749 C 0.07772 0.60506 0.46015 0.0
C750 C 0.09466 0.61807 0.45045 0.0
C751 C 0.11328 0.61031 0.44848 0.0
C752 C 0.11554 0.59083 0.45869 0.0
C753 C 0.09879 0.57812 0.46871 0.0
C754 C 0.04966 0.59367 0.5509 0.0
C755 C 0.10911 0.58941 0.54671 0.0
O756 O 0.08169 0.54081 0.59228 0.0
O757 O 0.07057 0.57226 0.60172 0.0
O758 O 0.09569 0.54034 0.55427 0.0
O759 O 0.06616 0.53574 0.53421 0.0
O760 O 0.03806 0.54489 0.56106 0.0
O761 O 0.03342 0.53686 0.52108 0.0
O762 O 0.05488 0.58458 0.49481 0.0
O763 O 0.06362 0.55144 0.48543 0.0
O764 O 0.03832 0.58272 0.53115 0.0
O765 O 0.06766 0.58905 0.55299 0.0
O766 O 0.09678 0.57912 0.5267 0.0
O767 O 0.10176 0.58778 0.56654 0.0
H768 H 0.07379 0.51108 0.62138 0.0
H769 H 0.04678 0.48744 0.64098 0.0
H770 H 1.01079 0.53984 0.6397 0.0
H771 H 0.03699 0.56262 0.6194 0.0
H772 H 0.06315 0.61079 0.46072 0.0
H773 H 0.09262 0.63329 0.44317 0.0
H774 H 0.1295 0.58409 0.45743 0.0
H775 H 0.10087 0.56286 0.4759 0.0
La776 La 0.79234 0.79934 0.28144 0.0
La777 La 0.83846 0.79163 0.28388 0.0
C778 C 0.75232 0.79181 0.28383 0.0
C779 C 0.73718 0.79551 0.3007 0.0
C780 C 0.72941 0.81586 0.30304 0.0
C781 C 0.71297 0.81758 0.31659 0.0
C782 C 0.70357 0.79882 0.32792 0.0
C783 C 0.71194 0.77885 0.32606 0.0
C784 C 0.72845 0.77726 0.31274 0.0
C785 C 0.82263 0.84191 0.28068 0.0
C786 C 0.82191 0.80907 0.33067 0.0
C787 C 0.87813 0.79854 0.28085 0.0
C788 C 0.89201 0.79315 0.26329 0.0
C789 C 0.9008 0.7736 0.26296 0.0
C790 C 0.91664 0.77102 0.24888 0.0
C791 C 0.92407 0.78812 0.23518 0.0
C792 C 0.91439 0.80676 0.23446 0.0
C793 C 0.89852 0.80923 0.24829 0.0
C794 C 0.8086 0.74884 0.28412 0.0
C795 C 0.80979 0.7836 0.23436 0.0
O796 O 0.76396 0.81044 0.27686 0.0
O797 O 0.7633 0.77654 0.28706 0.0
O798 O 0.80191 0.83833 0.28002 0.0
O799 O 0.82501 0.82114 0.28217 0.0
O800 O 0.80238 0.80546 0.31908 0.0
O801 O 0.83876 0.80666 0.32039 0.0
O802 O 0.86693 0.7809 0.28955 0.0
O803 O 0.8671 0.81354 0.27682 0.0
O804 O 0.82933 0.75279 0.28499 0.0
O805 O 0.80576 0.76953 0.28296 0.0
O806 O 0.82876 0.78587 0.24653 0.0
O807 O 0.79272 0.78615 0.24431 0.0
H808 H 0.73563 0.83022 0.29391 0.0
H809 H 0.70746 0.83352 0.31785 0.0
H810 H 0.70514 0.76374 0.334 0.0
H811 H 0.7338 0.76117 0.31118 0.0
H812 H 0.89618 0.76094 0.27435 0.0
H813 H 0.92402 0.75658 0.24979 0.0
H814 H 0.91988 0.82012 0.22398 0.0
H815 H 0.89216 0.8245 0.24804 0.0
La816 La 0.83649 0.29802 0.76047 0.0
La817 La 0.81442 0.30686 0.80414 0.0
C818 C 0.84714 0.29441 0.7209 0.0
C819 C 0.85198 0.3124 0.70653 0.0
C820 C 0.87203 0.31721 0.69855 0.0
C821 C 0.87869 0.33683 0.68798 0.0
C822 C 0.86511 0.35149 0.68481 0.0
C823 C 0.84531 0.34706 0.69354 0.0
C824 C 0.83886 0.32773 0.70453 0.0
C825 C 0.86244 0.29424 0.79744 0.0
C826 C 0.8422 0.35023 0.78677 0.0
C827 C 0.80388 0.31163 0.84394 0.0
C828 C 0.79495 0.29346 0.85717 0.0
C829 C 0.77559 0.29353 0.86585 0.0
C830 C 0.76509 0.27451 0.87566 0.0
C831 C 0.77401 0.25537 0.87715 0.0
C832 C 0.79317 0.25513 0.86793 0.0
C833 C 0.80349 0.27397 0.85785 0.0
C834 C 0.78888 0.30962 0.76603 0.0
C835 C 0.80842 0.25464 0.7774 0.0
O836 O 0.86092 0.29991 0.73994 0.0
O837 O 0.82701 0.28675 0.72448 0.0
O838 O 0.86545 0.2913 0.77608 0.0
O839 O 0.84419 0.29885 0.79748 0.0
O840 O 0.84235 0.33652 0.76683 0.0
O841 O 0.83435 0.34197 0.80456 0.0
O842 O 0.791 0.31056 0.82517 0.0
O843 O 0.82395 0.31436 0.84027 0.0
O844 O 0.78434 0.31172 0.7869 0.0
O845 O 0.80732 0.30576 0.7676 0.0
O846 O 0.80774 0.26833 0.7972 0.0
O847 O 0.81667 0.26272 0.75971 0.0
H848 H 0.8827 0.30605 0.70092 0.0
H849 H 0.89409 0.34006 0.68155 0.0
H850 H 0.83434 0.35784 0.69098 0.0
H851 H 0.82371 0.32487 0.7115 0.0
H852 H 0.76843 0.3081 0.86466 0.0
H853 H 0.75027 0.275 0.88255 0.0
H854 H 0.80067 0.24085 0.86926 0.0
H855 H 0.81806 0.27319 0.85053 0.0
La856 La 0.8221 0.82348 0.79404 0.0
La857 La 0.79879 0.77351 0.76821 0.0
C858 C 0.83291 0.86739 0.80997 0.0
C859 C 0.81998 0.88379 0.80706 0.0
C860 C 0.8212 0.90295 0.82498 0.0
C861 C 0.80734 0.91729 0.82274 0.0
C862 C 0.79231 0.91236 0.80259 0.0
C863 C 0.79073 0.89284 0.78498 0.0
C864 C 0.80447 0.87857 0.78721 0.0
C865 C 0.82077 0.78987 0.81994 0.0
C866 C 0.77043 0.80491 0.78504 0.0
C867 C 0.78665 0.72875 0.75967 0.0
C868 C 0.80074 0.71327 0.76136 0.0
C869 C 0.79679 0.69163 0.74565 0.0
C870 C 0.81145 0.67798 0.74663 0.0
C871 C 0.83016 0.68625 0.76313 0.0
C872 C 0.83461 0.70859 0.77779 0.0
C873 C 0.81984 0.72175 0.77724 0.0
C874 C 0.80414 0.80278 0.73722 0.0
C875 C 0.84901 0.79379 0.77111 0.0
O876 O 0.82488 0.85128 0.82209 0.0
O877 O 0.83895 0.85813 0.79089 0.0
O878 O 0.83725 0.80803 0.82025 0.0
O879 O 0.80596 0.7908 0.80461 0.0
O880 O 0.78806 0.82326 0.79026 0.0
O881 O 0.77051 0.78301 0.77632 0.0
O882 O 0.79021 0.74158 0.74356 0.0
O883 O 0.78509 0.74152 0.77939 0.0
O884 O 0.79416 0.78018 0.73242 0.0
O885 O 0.80963 0.80795 0.75902 0.0
O886 O 0.83281 0.77511 0.77189 0.0
O887 O 0.84793 0.81584 0.77697 0.0
H888 H 0.83278 0.90675 0.84059 0.0
H889 H 0.80874 0.93257 0.8363 0.0
H890 H 0.77915 0.88897 0.76934 0.0
H891 H 0.80295 0.86346 0.77341 0.0
H892 H 0.78237 0.68525 0.73288 0.0
H893 H 0.80783 0.66072 0.73519 0.0
H894 H 0.84918 0.71544 0.79036 0.0
H895 H 0.82333 0.7385 0.78943 0.0
La896 La 0.55069 0.53501 0.52798 0.0
La897 La 0.59072 0.56204 0.55778 0.0
C898 C 0.51077 0.51952 0.5143 0.0
C899 C 0.49372 0.53165 0.51528 0.0
C900 C 0.47694 0.52545 0.49668 0.0
C901 C 0.46156 0.53813 0.49615 0.0
C902 C 0.46269 0.55721 0.51429 0.0
C903 C 0.47983 0.5638 0.53272 0.0
C904 C 0.49531 0.55113 0.53318 0.0
C905 C 0.58057 0.53729 0.49813 0.0
C906 C 0.56659 0.59214 0.53208 0.0
C907 C 0.62992 0.57824 0.57436 0.0
C908 C 0.64761 0.56784 0.57011 0.0
C909 C 0.66477 0.57141 0.5879 0.0
C910 C 0.68021 0.55892 0.58491 0.0
C911 C 0.67854 0.54294 0.56407 0.0
C912 C 0.66131 0.53923 0.54638 0.0
C913 C 0.64579 0.55144 0.54947 0.0
C914 C 0.55906 0.56097 0.58596 0.0
C915 C 0.57757 0.50481 0.551 0.0
O916 O 0.52493 0.5274 0.50106 0.0
O917 O 0.51987 0.51657 0.53404 0.0
O918 O 0.56044 0.52535 0.494 0.0
O919 O 0.58431 0.54646 0.52027 0.0
O920 O 0.5502 0.57239 0.5271 0.0
O921 O 0.58516 0.59215 0.54335 0.0
O922 O 0.6155 0.56537 0.58463 0.0
O923 O 0.62114 0.58541 0.55681 0.0
O924 O 0.57919 0.57254 0.59131 0.0
O925 O 0.55722 0.55185 0.56425 0.0
O926 O 0.59308 0.5252 0.55623 0.0
O927 O 0.55836 0.50423 0.54052 0.0
H928 H 0.4759 0.51098 0.48238 0.0
H929 H 0.44874 0.53302 0.48152 0.0
H930 H 0.48103 0.5784 0.54694 0.0
H931 H 0.50854 0.55662 0.5474 0.0
H932 H 0.66598 0.58348 0.60418 0.0
H933 H 0.69354 0.56191 0.59866 0.0
H934 H 0.65982 0.52678 0.53026 0.0
H935 H 0.63215 0.54778 0.53596 0.0
La936 La 0.09738 0.55316 0.04972 0.0
La937 La 0.04856 0.54859 0.05227 0.0
C938 C 0.13493 0.54799 0.05735 0.0
C939 C 0.14782 0.5305 0.05213 0.0
C940 C 0.15883 0.53027 0.03265 0.0
C941 C 0.1736 0.51664 0.02969 0.0
C942 C 0.178 0.50291 0.04619 0.0
C943 C 0.16622 0.5023 0.06512 0.0
C944 C 0.15145 0.51595 0.06808 0.0
C945 C 0.07415 0.55371 1.01146 0.0
C946 C 0.06168 0.50079 0.03901 0.0
C947 C 1.01066 0.55307 0.04705 0.0
C948 C 0.99786 0.57033 0.05306 0.0
C949 C 0.98283 0.56584 0.06865 0.0
C950 C 0.96794 0.57926 0.07145 0.0
C951 C 0.96756 0.59747 0.05859 0.0
C952 C 0.98349 0.60292 0.04407 0.0
C953 C 0.9984 0.58949 0.04127 0.0
C954 C 0.07253 0.54932 0.09071 0.0
C955 C 0.08336 0.6009 0.0597 0.0
O956 O 0.12855 0.55775 0.04039 0.0
O957 O 0.12027 0.5433 0.07114 0.0
O958 O 0.09474 0.56422 0.0161 0.0
O959 O 0.06813 0.54174 0.02662 0.0
O960 O 0.08225 0.51393 0.04394 0.0
O961 O 0.04545 0.51075 0.03886 0.0
O962 O 0.01821 0.54389 0.06382 0.0
O963 O 0.02435 0.55769 0.03227 0.0
O964 O 0.05219 0.53787 0.08602 0.0
O965 O 0.07803 0.56092 0.07522 0.0
O966 O 0.06295 0.5874 0.0552 0.0
O967 O 0.09993 0.59142 0.06111 0.0
H968 H 0.15662 0.54128 0.02001 0.0
H969 H 0.18193 0.5173 0.01463 0.0
H970 H 0.16916 0.4922 0.07835 0.0
H971 H 0.14349 0.51581 0.08344 0.0
H972 H 0.98195 0.55124 0.07801 0.0
H973 H 0.95625 0.57484 0.08316 0.0
H974 H 0.9837 0.6167 0.0338 0.0
H975 H 1.00969 0.59348 0.02907 0.0
H976 H 0.04079 0.19537 0.93166 0.0
H977 H 0.03732 0.23335 0.99939 0.0
H978 H 0.04828 0.16287 0.94906 0.0
H979 H 0.04488 0.2006 0.0169 0.0
H980 H 0.07851 0.14488 0.04178 0.0
H981 H 0.07263 0.17917 0.02557 0.0
H982 H 0.03005 0.13041 0.96731 0.0
H983 H 0.03562 0.09648 0.9836 0.0
C984 C 0.04155 0.19686 0.95031 0.0
C985 C 0.03815 0.21717 0.96394 0.0
C986 C 0.04581 0.17802 0.96035 0.0
C987 C 0.04708 0.17872 0.98452 0.0
C988 C 0.04415 0.19926 0.99828 0.0
C989 C 0.03962 0.21806 0.98817 0.0
C990 C 0.06783 0.14149 0.02556 0.0
C991 C 0.0574 0.11772 0.01421 0.0
C992 C 0.06437 0.16122 0.01626 0.0
C993 C 0.05081 0.15783 0.99498 0.0
C994 C 0.0407 0.13401 0.98358 0.0
C995 C 0.04377 0.1144 0.99309 0.0
H996 H 0.18461 0.85471 0.16161 0.0
H997 H 0.14872 0.80018 0.19522 0.0
H998 H 0.21839 0.85209 0.18218 0.0
H999 H 0.18239 0.79745 0.21553 0.0
H1000 H 0.24862 0.78213 0.23115 0.0
H1001 H 0.21527 0.78405 0.20863 0.0
H1002 H 0.23874 0.8612 0.22179 0.0
H1003 H 0.27167 0.8592 0.24441 0.0
C1004 C 0.18385 0.84231 0.1735 0.0
C1005 C 0.16373 0.82786 0.17677 0.0
C1006 C 0.20329 0.84076 0.18533 0.0
C1007 C 0.20331 0.82442 0.20052 0.0
C1008 C 0.18319 0.81002 0.20381 0.0
C1009 C 0.16376 0.81183 0.19229 0.0
C1010 C 0.2468 0.79945 0.22882 0.0
C1011 C 0.26301 0.82052 0.23936 0.0
C1012 C 0.22755 0.8006 0.21614 0.0
C1013 C 0.22414 0.82283 0.21328 0.0
C1014 C 0.24072 0.84376 0.2233 0.0
C1015 C 0.25967 0.84262 0.2363 0.0
H1016 H 0.53433 0.86192 0.44068 0.0
H1017 H 0.54634 0.84108 0.50685 0.0
H1018 H 0.54028 0.90292 0.46003 0.0
H1019 H 0.55201 0.88297 0.52647 0.0
H1020 H 0.53469 0.95987 0.54537 0.0
H1021 H 0.52849 0.91672 0.53017 0.0
H1022 H 0.57519 0.93406 0.48357 0.0
H1023 H 0.58179 0.97667 0.49911 0.0
C1024 C 0.53798 0.86593 0.45946 0.0
C1025 C 0.53973 0.8479 0.47215 0.0
C1026 C 0.54151 0.88962 0.47053 0.0
C1027 C 0.54664 0.89623 0.49474 0.0
C1028 C 0.54796 0.87833 0.50774 0.0
C1029 C 0.54478 0.85439 0.49652 0.0
C1030 C 0.54364 0.95433 0.53196 0.0
C1031 C 0.55872 0.97158 0.5234 0.0
C1032 C 0.54025 0.92971 0.52343 0.0
C1033 C 0.55141 0.92201 0.50573 0.0
C1034 C 0.56639 0.93939 0.49723 0.0
C1035 C 0.57018 0.96379 0.50614 0.0
H1036 H 0.54796 0.33159 0.67187 0.0
H1037 H 0.54648 0.2608 0.68414 0.0
H1038 H 0.51248 0.32715 0.68414 0.0
H1039 H 0.51107 0.25644 0.69677 0.0
H1040 H 0.43913 0.25008 0.70229 0.0
H1041 H 0.47285 0.2523 0.6858 0.0
H1042 H 0.49749 0.32662 0.71948 0.0
H1043 H 0.46398 0.32447 0.7353 0.0
C1044 C 0.54011 0.3151 0.67726 0.0
C1045 C 0.5503 0.29676 0.67739 0.0
C1046 C 0.51974 0.31255 0.68439 0.0
C1047 C 0.5089 0.29152 0.69176 0.0
C1048 C 0.51882 0.27286 0.69119 0.0
C1049 C 0.53928 0.27549 0.68419 0.0
C1050 C 0.45178 0.26687 0.70603 0.0
C1051 C 0.44876 0.2872 0.71985 0.0
C1052 C 0.47113 0.26815 0.69666 0.0
C1053 C 0.48793 0.28975 0.70108 0.0
C1054 C 0.48481 0.30988 0.7151 0.0
C1055 C 0.46555 0.30864 0.72426 0.0
H1056 H 1.00389 0.83455 0.63927 0.0
H1057 H 0.05335 0.80414 0.61425 0.0
H1058 H 0.01815 0.86983 0.62236 0.0
H1059 H 0.06735 0.8391 0.59732 0.0
H1060 H 0.09778 0.91569 0.58787 0.0
H1061 H 0.08547 0.88314 0.60921 0.0
H1062 H 0.01929 0.87581 0.58154 0.0
H1063 H 0.03155 0.90836 0.56082 0.0
C1064 C 0.01773 0.83543 0.63015 0.0
C1065 C 0.02734 0.81662 0.62776 0.0
C1066 C 0.02587 0.8555 0.62054 0.0
C1067 C 0.04382 0.85703 0.60866 0.0
C1068 C 0.05364 0.83839 0.60663 0.0
C1069 C 0.04541 0.81829 0.61603 0.0
C1070 C 0.08066 0.90701 0.58655 0.0
C1071 C 0.0655 0.9143 0.57302 0.0
C1072 C 0.07364 0.88856 0.59865 0.0
C1073 C 0.05145 0.87728 0.59708 0.0
C1074 C 0.03642 0.88465 0.58342 0.0
C1075 C 0.0434 0.90308 0.57152 0.0
H1076 H 0.56854 0.81949 0.81896 0.0
H1077 H 0.54823 0.83457 0.886 0.0
H1078 H 0.53206 0.81535 0.79987 0.0
H1079 H 0.51195 0.83112 0.86701 0.0
H1080 H 0.46612 0.86119 0.82287 0.0
H1081 H 0.50104 0.85917 0.841 0.0
H1082 H 0.49165 0.78994 0.79751 0.0
H1083 H 0.45655 0.79212 0.77934 0.0
C1084 C 0.55604 0.82131 0.8295 0.0
C1085 C 0.56077 0.82702 0.85377 0.0
C1086 C 0.53533 0.81899 0.81867 0.0
C1087 C 0.51945 0.82308 0.83208 0.0
C1088 C 0.52406 0.82793 0.85642 0.0
C1089 C 0.54461 0.82966 0.86723 0.0
C1090 C 0.47171 0.84568 0.81719 0.0
C1091 C 0.45909 0.82684 0.79985 0.0
C1092 C 0.49144 0.84441 0.8276 0.0
C1093 C 0.4987 0.82426 0.82074 0.0
C1094 C 0.48623 0.80561 0.80297 0.0
C1095 C 0.46637 0.80685 0.79262 0.0
H1096 H 0.49037 0.18091 0.09643 0.0
H1097 H 0.52464 0.17149 0.15939 0.0
H1098 H 0.50066 0.14774 0.07443 0.0
H1099 H 0.53514 0.13869 0.13743 0.0
H1100 H 0.57206 0.10666 0.08146 0.0
H1101 H 0.55965 0.13639 0.10637 0.0
H1102 H 0.4942 0.10307 0.07224 0.0
H1103 H 0.50661 0.0738 0.04724 0.0
C1104 C 0.49962 0.17133 0.10556 0.0
C1105 C 0.50633 0.17826 0.12956 0.0
C1106 C 0.50557 0.15252 0.09306 0.0
C1107 C 0.51865 0.1408 0.10437 0.0
C1108 C 0.52505 0.14751 0.12841 0.0
C1109 C 0.51874 0.16596 0.14096 0.0
C1110 C 0.55502 0.10561 0.07963 0.0
C1111 C 0.54024 0.08834 0.06243 0.0
C1112 C 0.54794 0.12249 0.0938 0.0
C1113 C 0.52602 0.122 0.09092 0.0
C1114 C 0.51121 0.10399 0.07441 0.0
C1115 C 0.51828 0.08728 0.06024 0.0
H1116 H 0.19775 0.34406 0.37908 0.0
H1117 H 0.15044 0.29634 0.32362 0.0
H1118 H 0.22657 0.33854 0.35683 0.0
H1119 H 0.17903 0.29152 0.3011 0.0
H1120 H 0.23776 0.26789 0.28081 0.0
H1121 H 0.20827 0.2734 0.30146 0.0
H1122 H 0.24059 0.34914 0.32198 0.0
H1123 H 0.27046 0.34362 0.30193 0.0
C1124 C 0.19355 0.33266 0.36204 0.0
C1125 C 0.17197 0.32073 0.35298 0.0
C1126 C 0.20997 0.32956 0.34928 0.0
C1127 C 0.20498 0.31476 0.32717 0.0
C1128 C 0.18335 0.30283 0.31819 0.0
C1129 C 0.167 0.3057 0.33103 0.0
C1130 C 0.23848 0.2858 0.28943 0.0
C1131 C 0.25652 0.3053 0.28982 0.0
C1132 C 0.22155 0.28894 0.30125 0.0
C1133 C 0.22229 0.31166 0.31353 0.0
C1134 C 0.23983 0.33134 0.31302 0.0
C1135 C 0.2568 0.32821 0.30127 0.0
H1136 H 0.95632 0.06393 0.18093 0.0
H1137 H 1.01407 0.06196 0.22209 0.0
H1138 H 0.97463 0.06352 0.14624 0.0
H1139 H 0.03245 0.06179 0.18767 0.0
H1140 H 0.06927 0.08031 0.12624 0.0
H1141 H 0.04995 0.07965 0.15955 0.0
H1142 H 0.99005 0.04608 0.11402 0.0
H1143 H 1.00988 0.04647 0.08014 0.0
C1144 C 0.97299 0.06355 0.18292 0.0
C1145 C 0.98321 0.0631 0.20536 0.0
C1146 C 0.98371 0.06313 0.16251 0.0
C1147 C 1.00564 0.06265 0.16296 0.0
C1148 C 0.01586 0.06242 0.18551 0.0
C1149 C 1.00505 0.06243 0.20579 0.0
C1150 C 0.05193 0.07259 0.12287 0.0
C1151 C 0.04176 0.06352 0.09944 0.0
C1152 C 0.04056 0.07209 0.14258 0.0
C1153 C 0.0178 0.06275 0.14071 0.0
C1154 C 1.00738 0.05371 0.1172 0.0
C1155 C 0.01896 0.05385 0.09727 0.0
H1156 H 0.3261 0.71023 0.47253 0.0
H1157 H 0.26206 0.66344 0.46955 0.0
H1158 H 0.31294 0.72727 0.44046 0.0
H1159 H 0.24885 0.68038 0.43747 0.0
H1160 H 0.25056 0.71106 0.36438 0.0
H1161 H 0.25864 0.68734 0.39313 0.0
H1162 H 0.28242 0.75201 0.44513 0.0
H1163 H 0.27413 0.77555 0.41674 0.0
C1164 C 0.30945 0.70308 0.46435 0.0
C1165 C 0.29504 0.68549 0.47288 0.0
C1166 C 0.3019 0.71288 0.44634 0.0
C1167 C 0.27993 0.7051 0.43695 0.0
C1168 C 0.26585 0.68638 0.44451 0.0
C1169 C 0.27339 0.6767 0.46261 0.0
C1170 C 0.25671 0.71992 0.38222 0.0
C1171 C 0.26168 0.74495 0.38858 0.0
C1172 C 0.26146 0.70649 0.39846 0.0
C1173 C 0.27153 0.71816 0.4209 0.0
C1174 C 0.2749 0.74288 0.4277 0.0
C1175 C 0.26986 0.75622 0.41164 0.0
H1176 H 0.62638 0.03001 0.71628 0.0
H1177 H 0.68326 0.04587 0.68211 0.0
H1178 H 0.60438 0.03238 0.68173 0.0
H1179 H 0.66072 0.04718 0.64673 0.0
H1180 H 0.61369 0.07435 0.60001 0.0
H1181 H 0.63804 0.07289 0.63381 0.0
H1182 H 0.59272 1.00774 0.64298 0.0
H1183 H 0.5684 1.00945 0.60957 0.0
C1184 C 0.63407 0.03312 0.70107 0.0
C1185 C 0.65641 0.03709 0.70155 0.0
C1186 C 0.62148 0.03465 0.68138 0.0
C1187 C 0.63091 0.03957 0.66164 0.0
C1188 C 0.65321 0.04337 0.66189 0.0
C1189 C 0.66596 0.04223 0.68187 0.0
C1190 C 0.60913 0.0597 0.60928 0.0
C1191 C 0.5894 0.0419 0.60244 0.0
C1192 C 0.62301 0.05882 0.62841 0.0
C1193 C 0.61711 0.04021 0.6408 0.0
C1194 C 0.59742 0.02239 0.63374 0.0
C1195 C 0.58358 0.02331 0.61471 0.0
H1196 H 0.36664 0.33812 0.97626 0.0
H1197 H 0.30854 0.36059 0.96775 0.0
H1198 H 0.36286 0.32475 0.93432 0.0
H1199 H 0.30483 0.34753 0.92575 0.0
H1200 H 0.29288 0.30342 0.85269 0.0
H1201 H 0.2965 0.31455 0.89473 0.0
H1202 H 0.36586 0.33792 0.89832 0.0
H1203 H 0.36218 0.32596 0.85613 0.0
C1204 C 0.35291 0.34002 0.96546 0.0
C1205 C 0.33783 0.35037 0.97555 0.0
C1206 C 0.35086 0.33257 0.94126 0.0
C1207 C 0.33355 0.33502 0.92629 0.0
C1208 C 0.31827 0.34501 0.9365 0.0
C1209 C 0.32043 0.35265 0.9607 0.0
C1210 C 0.30895 0.31095 0.86238 0.0
C1211 C 0.32722 0.31383 0.85081 0.0
C1212 C 0.31103 0.3175 0.88665 0.0
C1213 C 0.33148 0.32739 0.90027 0.0
C1214 C 0.34981 0.33011 0.88867 0.0
C1215 C 0.34772 0.32334 0.86435 0.0
H1216 H 0.97545 0.02233 0.34912 0.0
H1217 H 0.02838 0.08265 0.34557 0.0
H1218 H 0.99057 0.02252 0.38887 0.0
H1219 H 0.04423 0.08247 0.3852 0.0
H1220 H 0.06088 0.08914 0.4657 0.0
H1221 H 0.04594 0.09004 0.42599 0.0
H1222 H 1.01504 1.01412 0.41516 0.0
H1223 H 0.02994 1.01342 0.4546 0.0
C1224 C 0.99051 0.03559 0.3567 0.0
C1225 C 1.00045 0.05245 0.34359 0.0
C1226 C 0.99945 0.03565 0.37982 0.0
C1227 C 0.01907 0.05245 0.39121 0.0
C1228 C 0.02905 0.06932 0.37791 0.0
C1229 C 0.01994 0.06938 0.3548 0.0
C1230 C 0.05079 0.07261 0.45495 0.0
C1231 C 0.04677 0.05121 0.46407 0.0
C1232 C 0.04221 0.07304 0.43175 0.0
C1233 C 0.02882 0.05217 0.41642 0.0
C1234 C 0.02481 0.03087 0.42576 0.0
C1235 C 0.03362 0.03039 0.44875 0.0
H1236 H 0.3338 0.72867 0.58673 0.0
H1237 H 0.30258 0.66621 0.61367 0.0
H1238 H 0.3276 0.75438 0.62034 0.0
H1239 H 0.29446 0.69147 0.64575 0.0
H1240 H 0.31079 0.74086 0.71492 0.0
H1241 H 0.31033 0.71481 0.6795 0.0
H1242 H 0.30496 0.77069 0.64111 0.0
H1243 H 0.30799 0.79814 0.67793 0.0
C1244 C 0.32577 0.72046 0.59993 0.0
C1245 C 0.3192 0.69546 0.59788 0.0
C1246 C 0.32169 0.73517 0.61892 0.0
C1247 C 0.31056 0.72512 0.63595 0.0
C1248 C 0.30366 0.70004 0.63349 0.0
C1249 C 0.30834 0.68544 0.615 0.0
C1250 C 0.30928 0.74766 0.69896 0.0
C1251 C 0.31 0.77171 0.69913 0.0
C1252 C 0.30872 0.73246 0.67838 0.0
C1253 C 0.30787 0.74058 0.65722 0.0
C1254 C 0.3064 0.76408 0.65717 0.0
C1255 C 0.30783 0.77972 0.67811 0.0
H1256 H 0.69182 0.08859 0.83931 0.0
H1257 H 0.62297 0.05652 0.82154 0.0
H1258 H 0.68638 0.10922 0.87665 0.0
H1259 H 0.61756 0.07639 0.85895 0.0
H1260 H 0.60438 0.11981 0.91288 0.0
H1261 H 0.62077 0.11791 0.87786 0.0
H1262 H 0.67383 0.09928 0.91321 0.0
H1263 H 0.65826 0.10304 0.9491 0.0
C1264 C 0.6756 0.08549 0.8437 0.0
C1265 C 0.65774 0.071 0.82778 0.0
C1266 C 0.67251 0.09754 0.86484 0.0
C1267 C 0.65155 0.09505 0.87026 0.0
C1268 C 0.63385 0.07945 0.85477 0.0
C1269 C 0.63691 0.06768 0.8336 0.0
C1270 C 0.62024 0.1169 0.91383 0.0
C1271 C 0.62946 0.11015 0.9334 0.0
C1272 C 0.62947 0.11546 0.89354 0.0
C1273 C 0.64776 0.10701 0.89265 0.0
C1274 C 0.65934 0.1052 0.91335 0.0
C1275 C 0.65035 0.10723 0.93387 0.0
H1276 H 0.32004 0.39231 0.12804 0.0
H1277 H 0.34273 0.33379 0.09679 0.0
H1278 H 0.31365 0.37368 0.16179 0.0
H1279 H 0.3373 0.31555 0.13096 0.0
H1280 H 0.30726 0.27549 0.18492 0.0
H1281 H 0.31398 0.29464 0.15186 0.0
H1282 H 0.3261 0.36392 0.19618 0.0
H1283 H 0.31799 0.34417 0.22924 0.0
C1284 C 0.32383 0.37549 0.12836 0.0
C1285 C 0.33194 0.36469 0.10938 0.0
C1286 C 0.32032 0.36479 0.14802 0.0
C1287 C 0.32493 0.34289 0.14969 0.0
C1288 C 0.33308 0.33212 0.13061 0.0
C1289 C 0.33637 0.34272 0.11084 0.0
C1290 C 0.31143 0.29488 0.18779 0.0
C1291 C 0.31238 0.30817 0.21018 0.0
C1292 C 0.31555 0.30602 0.16861 0.0
C1293 C 0.3209 0.33114 0.17082 0.0
C1294 C 0.32194 0.34456 0.19333 0.0
C1295 C 0.31768 0.33326 0.21264 0.0
H1296 H 0.25401 0.94884 0.02188 0.0
H1297 H 0.29568 0.0212 0.03874 0.0
H1298 H 0.2238 0.96319 0.03375 0.0
H1299 H 0.26555 0.03594 0.04878 0.0
H1300 H 0.21524 0.05892 0.08103 0.0
H1301 H 0.24323 0.03933 0.07577 0.0
H1302 H 0.19922 0.98334 0.02351 0.0
H1303 H 0.17033 1.00141 0.03096 0.0
C1304 C 0.25649 0.96788 0.02766 0.0
C1305 C 0.27694 0.98405 0.02922 0.0
C1306 C 0.23925 0.97614 0.03447 0.0
C1307 C 0.24213 1.00078 0.04238 0.0
C1308 C 0.2627 1.01681 0.0435 0.0
C1309 C 0.27997 1.00847 0.03737 0.0
C1310 C 0.2112 0.04202 0.06896 0.0
C1311 C 0.19046 0.03205 0.05616 0.0
C1312 C 0.2275 0.03099 0.06554 0.0
C1313 C 0.2238 1.01013 0.04862 0.0
C1314 C 0.2028 0.99942 0.03665 0.0
C1315 C 0.18626 1.0101 0.0406 0.0
H1316 H 0.72495 0.65535 0.98389 0.0
H1317 H 0.74887 0.63738 0.0477 0.0
H1318 H 0.6886 0.63096 0.98623 0.0
H1319 H 0.71251 0.61331 0.05025 0.0
H1320 H 0.63969 0.59258 0.05895 0.0
H1321 H 0.67599 0.6177 0.05683 0.0
H1322 H 0.66809 0.58869 0.98354 0.0
H1323 H 0.63206 0.5638 0.98568 0.0
C1324 C 0.72249 0.64606 0.99833 0.0
C1325 C 0.73996 0.64815 0.01543 0.0
C1326 C 0.70162 0.63205 0.9997 0.0
C1327 C 0.69747 0.62015 0.0185 0.0
C1328 C 0.71497 0.62231 0.03563 0.0
C1329 C 0.73591 0.6359 0.034 0.0
C1330 C 0.64569 0.59171 0.04238 0.0
C1331 C 0.63292 0.57615 0.02249 0.0
C1332 C 0.66657 0.60598 0.04118 0.0
C1333 C 0.6751 0.60528 0.01998 0.0
C1334 C 0.66208 0.58998 1.00009 0.0
C1335 C 0.64139 0.57561 1.00135 0.0
H1336 H 0.73061 0.44296 0.23421 0.0
H1337 H 0.74878 0.46197 0.30822 0.0
H1338 H 0.74588 0.40858 0.2334 0.0
H1339 H 0.7651 0.42845 0.30728 0.0
H1340 H 0.81257 0.3784 0.29402 0.0
H1341 H 0.79597 0.41159 0.29495 0.0
H1342 H 0.74306 0.36664 0.24445 0.0
H1343 H 0.75926 0.33296 0.24437 0.0
C1344 C 0.73797 0.44018 0.25047 0.0
C1345 C 0.73799 0.45625 0.27132 0.0
C1346 C 0.74686 0.41996 0.25001 0.0
C1347 C 0.75727 0.4147 0.27025 0.0
C1348 C 0.7576 0.43105 0.29102 0.0
C1349 C 0.74799 0.4507 0.29159 0.0
C1350 C 0.7973 0.3752 0.28308 0.0
C1351 C 0.78773 0.35199 0.26915 0.0
C1352 C 0.78753 0.39468 0.28367 0.0
C1353 C 0.76769 0.3929 0.26977 0.0
C1354 C 0.75823 0.36974 0.25554 0.0
C1355 C 0.76767 0.34995 0.25554 0.0
H1356 H 0.88766 0.50849 0.52439 0.0
H1357 H 0.89947 0.43914 0.52275 0.0
H1358 H 0.92679 0.52753 0.53247 0.0
H1359 H 0.93791 0.4581 0.53097 0.0
H1360 H 1.00133 0.49743 0.50896 0.0
H1361 H 0.96231 0.48077 0.50469 0.0
H1362 H 0.95988 0.53085 0.56572 0.0
H1363 H 0.99925 0.54754 0.57015 0.0
C1364 C 0.89854 0.4974 0.52577 0.0
C1365 C 0.8906 0.47235 0.52249 0.0
C1366 C 0.92076 0.50825 0.53057 0.0
C1367 C 0.93505 0.49409 0.53211 0.0
C1368 C 0.92706 0.46923 0.5295 0.0
C1369 C 0.90507 0.45845 0.52468 0.0
C1370 C 0.99246 0.50466 0.52158 0.0
C1371 C 1.00304 0.52341 0.54 0.0
C1372 C 0.97026 0.49523 0.51912 0.0
C1373 C 0.95837 0.50467 0.53491 0.0
C1374 C 0.9689 0.52348 0.55338 0.0
C1375 C 0.99127 0.5327 0.55607 0.0
H1376 H 0.38126 0.07366 0.29999 0.0
H1377 H 0.43892 0.11928 0.28267 0.0
H1378 H 0.35957 0.09595 0.28192 0.0
H1379 H 0.41733 0.14034 0.26265 0.0
H1380 H 0.3759 0.19267 0.26179 0.0
H1381 H 0.39889 0.16814 0.27137 0.0
H1382 H 0.34528 0.10441 0.24763 0.0
H1383 H 0.32172 0.12931 0.2404 0.0
C1384 C 0.38917 0.08862 0.29233 0.0
C1385 C 0.41161 0.09559 0.29332 0.0
C1386 C 0.3768 0.10102 0.2815 0.0
C1387 C 0.38671 0.11997 0.27075 0.0
C1388 C 0.40923 0.12629 0.27125 0.0
C1389 C 0.42162 0.11442 0.2828 0.0
C1390 C 0.36906 0.1734 0.25853 0.0
C1391 C 0.34688 0.16295 0.25116 0.0
C1392 C 0.38233 0.15924 0.26368 0.0
C1393 C 0.37379 0.13429 0.26085 0.0
C1394 C 0.35216 0.12366 0.2508 0.0
C1395 C 0.33873 0.1379 0.24623 0.0
H1396 H 0.3722 0.16304 0.50355 0.0
H1397 H 0.35188 0.14049 0.56611 0.0
H1398 H 0.40397 0.14851 0.5095 0.0
H1399 H 0.38394 0.12684 0.57261 0.0
H1400 H 0.42892 0.07884 0.56256 0.0
H1401 H 0.39891 0.09618 0.55915 0.0
H1402 H 0.43799 0.1537 0.53119 0.0
H1403 H 0.46803 0.13588 0.53422 0.0
C1404 C 0.37454 0.15507 0.51863 0.0
C1405 C 0.35924 0.15266 0.53413 0.0
C1406 C 0.39294 0.14692 0.52222 0.0
C1407 C 0.39668 0.13627 0.54151 0.0
C1408 C 0.38154 0.13438 0.55726 0.0
C1409 C 0.3631 0.14234 0.55357 0.0
C1410 C 0.43129 0.09538 0.556 0.0
C1411 C 0.45097 0.10585 0.5486 0.0
C1412 C 0.41397 0.10543 0.55405 0.0
C1413 C 0.41576 0.1264 0.54475 0.0
C1414 C 0.4357 0.13727 0.53795 0.0
C1415 C 0.45302 0.12709 0.53976 0.0
H1416 H 0.76074 0.58981 0.28042 0.0
H1417 H 0.70912 0.6152 0.30566 0.0
H1418 H 0.77989 0.63062 0.27733 0.0
H1419 H 0.72827 0.65611 0.30287 0.0
H1420 H 0.76225 0.73024 0.28292 0.0
H1421 H 0.7415 0.68923 0.28521 0.0
H1422 H 0.80063 0.6686 0.29138 0.0
H1423 H 0.82075 0.70861 0.28867 0.0
C1424 C 0.75341 0.60401 0.28564 0.0
C1425 C 0.73312 0.59828 0.29368 0.0
C1426 C 0.76462 0.628 0.28393 0.0
C1427 C 0.75625 0.64797 0.28995 0.0
C1428 C 0.73581 0.64209 0.2978 0.0
C1429 C 0.72471 0.61814 0.29967 0.0
C1430 C 0.7709 0.71704 0.28473 0.0
C1431 C 0.79367 0.7237 0.28552 0.0
C1432 C 0.75885 0.69306 0.28616 0.0
C1433 C 0.76883 0.67431 0.28837 0.0
C1434 C 0.79155 0.68134 0.28921 0.0
C1435 C 0.80341 0.70499 0.28781 0.0
H1436 H 0.94452 0.47427 0.83209 0.0
H1437 H 0.89521 0.50398 0.80446 0.0
H1438 H 0.9202 0.43385 0.81855 0.0
H1439 H 0.8711 0.46348 0.79056 0.0
H1440 H 0.85204 0.37775 0.75385 0.0
H1441 H 0.87481 0.41943 0.76122 0.0
H1442 H 0.87967 0.42061 0.83507 0.0
H1443 H 0.85708 0.37975 0.82812 0.0
C1444 C 0.92846 0.47204 0.82324 0.0
C1445 C 0.92126 0.49188 0.81995 0.0
C1446 C 0.91481 0.44916 0.81528 0.0
C1447 C 0.89412 0.4461 0.8036 0.0
C1448 C 0.88715 0.46583 0.79951 0.0
C1449 C 0.90066 0.48875 0.80785 0.0
C1450 C 0.85782 0.38712 0.7716 0.0
C1451 C 0.85312 0.37564 0.79042 0.0
C1452 C 0.87069 0.41073 0.77573 0.0
C1453 C 0.87898 0.4225 0.79861 0.0
C1454 C 0.87346 0.41142 0.81732 0.0
C1455 C 0.86047 0.38817 0.81328 0.0
H1456 H 0.07157 0.88191 0.10703 0.0
H1457 H 0.13116 0.89609 0.07801 0.0
H1458 H 0.06306 0.91568 0.09236 0.0
H1459 H 0.12268 0.9296 0.06324 0.0
H1460 H 0.11305 1.00394 0.06076 0.0
H1461 H 0.1205 0.96942 0.07436 0.0
H1462 H 0.0527 0.9315 0.05881 0.0
H1463 H 0.04524 0.9663 0.04529 0.0
C1464 C 0.0829 0.89217 0.09751 0.0
C1465 C 0.10217 0.88607 0.09391 0.0
C1466 C 0.07793 0.91158 0.0889 0.0
C1467 C 0.09215 0.92583 0.07654 0.0
C1468 C 0.11135 0.91957 0.0729 0.0
C1469 C 0.11621 0.90008 0.08131 0.0
C1470 C 0.09966 0.98824 0.0601 0.0
C1471 C 0.07849 0.98817 0.05175 0.0
C1472 C 0.10398 0.96821 0.06785 0.0
C1473 C 0.0873 0.94725 0.06783 0.0
C1474 C 0.06608 0.94717 0.05943 0.0
C1475 C 0.06178 0.96718 0.05143 0.0
H1476 H 0.95707 0.2914 0.91902 0.0
H1477 H 0.97843 0.26102 0.85735 0.0
H1478 H 0.92635 0.29695 0.89547 0.0
H1479 H 0.94742 0.2646 0.83395 0.0
H1480 H 0.89954 0.28505 0.78958 0.0
H1481 H 0.92859 0.28138 0.81462 0.0
H1482 H 0.89475 0.29247 0.87343 0.0
H1483 H 0.86512 0.29801 0.84717 0.0
C1484 C 0.95514 0.28564 0.90037 0.0
C1485 C 0.97059 0.27581 0.89026 0.0
C1486 C 0.93721 0.28875 0.88663 0.0
C1487 C 0.9337 0.28185 0.86212 0.0
C1488 C 0.94908 0.27135 0.85234 0.0
C1489 C 0.96715 0.26877 0.86598 0.0
C1490 C 0.89789 0.2868 0.80786 0.0
C1491 C 0.87941 0.29176 0.8159 0.0
C1492 C 0.91498 0.2842 0.82265 0.0
C1493 C 0.91469 0.28568 0.84672 0.0
C1494 C 0.89616 0.29093 0.85516 0.0
C1495 C 0.87884 0.29403 0.84002 0.0
H1496 H 0.63706 0.24993 0.61048 0.0
H1497 H 0.57522 0.24578 0.57345 0.0
H1498 H 0.63193 0.20761 0.59592 0.0
H1499 H 0.57037 0.20354 0.55726 0.0
H1500 H 0.55481 0.12334 0.55652 0.0
H1501 H 0.56152 0.1664 0.5664 0.0
H1502 H 0.63011 0.17518 0.56857 0.0
H1503 H 0.6233 0.13188 0.56001 0.0
C1504 C 0.62275 0.24007 0.59828 0.0
C1505 C 0.60681 0.25128 0.59262 0.0
C1506 C 0.6197 0.21563 0.58988 0.0
C1507 C 0.60061 0.20159 0.57534 0.0
C1508 C 0.58511 0.2133 0.56877 0.0
C1509 C 0.58803 0.23774 0.57759 0.0
C1510 C 0.57135 0.13443 0.5591 0.0
C1511 C 0.5885 0.12395 0.55755 0.0
C1512 C 0.57525 0.15938 0.56456 0.0
C1513 C 0.59643 0.17481 0.56833 0.0
C1514 C 0.61356 0.16422 0.56629 0.0
C1515 C 0.60966 0.13922 0.56116 0.0
H1516 H 0.60427 0.7792 0.42067 0.0
H1517 H 0.57266 0.79479 0.35943 0.0
H1518 H 0.63756 0.78558 0.40471 0.0
H1519 H 0.60579 0.79928 0.34219 0.0
H1520 H 0.67092 0.82004 0.31882 0.0
H1521 H 0.63904 0.8184 0.33741 0.0
H1522 H 0.6593 0.77415 0.3823 0.0
H1523 H 0.69225 0.77852 0.36581 0.0
C1524 C 0.60427 0.78358 0.40347 0.0
C1525 C 0.5855 0.78631 0.39137 0.0
C1526 C 0.62361 0.78705 0.39403 0.0
C1527 C 0.62494 0.79279 0.37174 0.0
C1528 C 0.60599 0.79529 0.3595 0.0
C1529 C 0.58667 0.79233 0.36925 0.0
C1530 C 0.66893 0.81052 0.33312 0.0
C1531 C 0.6844 0.7992 0.34044 0.0
C1532 C 0.65014 0.80907 0.34357 0.0
C1533 C 0.64579 0.79573 0.36138 0.0
C1534 C 0.6616 0.7849 0.36898 0.0
C1535 C 0.68063 0.78696 0.35902 0.0
H1536 H 0.09361 0.30228 0.46321 0.0
H1537 H 0.12812 0.26318 0.42022 0.0
H1538 H 0.07953 0.26724 0.47998 0.0
H1539 H 0.11517 0.22835 0.43809 0.0
H1540 H 0.07548 0.16334 0.46064 0.0
H1541 H 0.08401 0.19725 0.44057 0.0
H1542 H 0.09188 0.24594 0.50599 0.0
H1543 H 0.08281 0.21233 0.52562 0.0
C1544 C 0.09862 0.2863 0.45783 0.0
C1545 C 0.11219 0.28538 0.44077 0.0
C1546 C 0.0905 0.26622 0.46735 0.0
C1547 C 0.09628 0.24503 0.46042 0.0
C1548 C 0.11009 0.24426 0.44348 0.0
C1549 C 0.11779 0.26423 0.43352 0.0
C1550 C 0.07872 0.18134 0.47053 0.0
C1551 C 0.07847 0.18529 0.49463 0.0
C1552 C 0.08373 0.20072 0.45913 0.0
C1553 C 0.08879 0.22428 0.47173 0.0
C1554 C 0.08772 0.22805 0.49567 0.0
C1555 C 0.08251 0.20876 0.50696 0.0
H1556 H 0.58809 0.27861 0.18055 0.0
H1557 H 0.56261 0.25022 0.23876 0.0
H1558 H 0.62438 0.28225 0.19821 0.0
H1559 H 0.59929 0.25456 0.25688 0.0
H1560 H 0.66096 0.22726 0.25451 0.0
H1561 H 0.62495 0.23208 0.24602 0.0
H1562 H 0.65293 0.30195 0.23021 0.0
H1563 H 0.68892 0.2968 0.23823 0.0
C1564 C 0.59031 0.27365 0.1974 0.0
C1565 C 0.57259 0.26381 0.20818 0.0
C1566 C 0.61112 0.27597 0.20762 0.0
C1567 C 0.61457 0.2686 0.22886 0.0
C1568 C 0.59695 0.26014 0.24036 0.0
C1569 C 0.57604 0.25781 0.2301 0.0
C1570 C 0.65934 0.24382 0.24971 0.0
C1571 C 0.67748 0.26161 0.24681 0.0
C1572 C 0.63881 0.24666 0.24498 0.0
C1573 C 0.63624 0.2674 0.23748 0.0
C1574 C 0.65452 0.2857 0.23575 0.0
C1575 C 0.67502 0.28277 0.24029 0.0
H1576 H 0.61373 0.92054 0.91444 0.0
H1577 H 0.63109 0.89391 0.97593 0.0
H1578 H 0.60352 0.95228 0.93845 0.0
H1579 H 0.62058 0.92551 0.9998 0.0
H1580 H 0.62235 1.00009 0.03603 0.0
H1581 H 0.63327 0.96964 1.01114 0.0
H1582 H 0.57459 0.95542 0.96313 0.0
H1583 H 0.56363 0.98624 0.9882 0.0
C1584 C 0.6156 0.92161 0.93308 0.0
C1585 C 0.62337 0.90483 0.94334 0.0
C1586 C 0.60952 0.93961 0.94675 0.0
C1587 C 0.61121 0.94122 0.97088 0.0
C1588 C 0.61935 0.92477 0.98121 0.0
C1589 C 0.62542 0.90674 0.96756 0.0
C1590 C 0.61181 0.99054 0.02011 0.0
C1591 C 0.59214 0.99535 1.01396 0.0
C1592 C 0.61801 0.97305 1.00597 0.0
C1593 C 0.6047 0.96015 0.98537 0.0
C1594 C 0.58518 0.96529 0.97891 0.0
C1595 C 0.5789 0.9828 0.99319 0.0
H1596 H 0.9623 0.79603 0.70214 0.0
H1597 H 0.94675 0.73057 0.72959 0.0
H1598 H 0.93189 0.80696 0.71819 0.0
H1599 H 0.91701 0.7416 0.74578 0.0
H1600 H 0.85163 0.75239 0.74615 0.0
H1601 H 0.88219 0.74489 0.72897 0.0
H1602 H 0.92002 0.81768 0.75749 0.0
H1603 H 0.88887 0.8256 0.77434 0.0
C1604 C 0.95237 0.78403 0.71153 0.0
C1605 C 0.95673 0.76245 0.71463 0.0
C1606 C 0.9352 0.79036 0.72084 0.0
C1607 C 0.92216 0.77502 0.73305 0.0
C1608 C 0.92668 0.75357 0.73616 0.0
C1609 C 0.94377 0.74734 0.72701 0.0
C1610 C 0.86648 0.7668 0.74897 0.0
C1611 C 0.86806 0.78946 0.76189 0.0
C1612 C 0.88394 0.7625 0.73907 0.0
C1613 C 0.90344 0.78065 0.74217 0.0
C1614 C 0.90504 0.80348 0.7548 0.0
C1615 C 0.88737 0.8079 0.76457 0.0
H1616 H 0.1507 1.01307 0.86949 0.0
H1617 H 0.12997 0.07445 0.85787 0.0
H1618 H 0.1351 1.0135 0.90564 0.0
H1619 H 0.11395 0.07487 0.89392 0.0
H1620 H 0.09189 0.0799 0.96761 0.0
H1621 H 0.10892 0.08061 0.93214 0.0
H1622 H 0.11178 1.00821 0.93176 0.0
H1623 H 0.09487 1.00789 0.96706 0.0
C1624 C 0.14276 0.02678 0.87442 0.0
C1625 C 0.1421 0.04373 0.85977 0.0
C1626 C 0.13344 0.02702 0.89568 0.0
C1627 C 0.12269 0.04428 0.90416 0.0
C1628 C 0.12197 0.06119 0.88931 0.0
C1629 C 0.13127 0.0609 0.86799 0.0
C1630 C 0.09681 0.06433 0.96052 0.0
C1631 C 0.09257 0.04424 0.97177 0.0
C1632 C 0.10644 0.0645 0.9394 0.0
C1633 C 0.11249 0.0445 0.92776 0.0
C1634 C 0.10823 0.02448 0.93926 0.0
C1635 C 0.09842 0.02428 0.96018 0.0
H1636 H 0.85813 0.39588 0.55333 0.0
H1637 H 0.80542 0.40709 0.58886 0.0
H1638 H 0.87689 0.39085 0.58916 0.0
H1639 H 0.82318 0.39993 0.62457 0.0
H1640 H 0.8594 0.3964 0.68843 0.0
H1641 H 0.85311 0.4153 0.65529 0.0
H1642 H 0.87229 0.36077 0.61096 0.0
H1643 H 0.87886 0.34259 0.64354 0.0
C1644 C 0.85021 0.39618 0.56874 0.0
C1645 C 0.83009 0.40082 0.56851 0.0
C1646 C 0.86105 0.39372 0.58926 0.0
C1647 C 0.85155 0.39507 0.60966 0.0
C1648 C 0.83114 0.39935 0.60923 0.0
C1649 C 0.82063 0.40266 0.58878 0.0
C1650 C 0.86306 0.38918 0.6717 0.0
C1651 C 0.86915 0.36782 0.66834 0.0
C1652 C 0.85932 0.39982 0.65278 0.0
C1653 C 0.86157 0.38903 0.63048 0.0
C1654 C 0.87045 0.3696 0.62789 0.0
C1655 C 0.8743 0.35914 0.64671 0.0
H1656 H 0.49895 0.08351 0.39371 0.0
H1657 H 0.50204 1.01141 0.36955 0.0
H1658 H 0.51469 0.08208 0.43264 0.0
H1659 H 0.5167 1.00945 0.40854 0.0
H1660 H 0.57778 0.03414 0.46241 0.0
H1661 H 0.55297 0.02998 0.4272 0.0
H1662 H 0.51366 0.06517 0.46744 0.0
H1663 H 0.53966 0.07083 0.50226 0.0
C1664 C 0.50261 0.06725 0.39695 0.0
C1665 C 0.50029 0.04798 0.37879 0.0
C1666 C 0.51132 0.06628 0.41917 0.0
C1667 C 0.51735 0.04584 0.4233 0.0
C1668 C 0.51279 0.02566 0.40553 0.0
C1669 C 0.50455 0.02683 0.38332 0.0
C1670 C 0.56392 0.04113 0.46345 0.0
C1671 C 0.56019 0.05258 0.48459 0.0
C1672 C 0.54951 0.03834 0.44357 0.0
C1673 C 0.53121 0.04689 0.44478 0.0
C1674 C 0.5276 0.05836 0.46613 0.0
C1675 C 0.54221 0.06139 0.48596 0.0
H1676 H 0.77886 0.75462 0.07995 0.0
H1677 H 0.8378 0.73599 0.09717 0.0
H1678 H 0.7788 0.76926 0.12142 0.0
H1679 H 0.83736 0.74931 0.13795 0.0
H1680 H 0.8433 0.7892 0.20932 0.0
H1681 H 0.84272 0.78083 0.16785 0.0
H1682 H 0.77299 0.75731 0.15799 0.0
H1683 H 0.77363 0.76698 0.20023 0.0
C1684 C 0.79209 0.75421 0.09248 0.0
C1685 C 0.8085 0.7444 0.08509 0.0
C1686 C 0.79185 0.76217 0.11636 0.0
C1687 C 0.80808 0.7606 0.13342 0.0
C1688 C 0.82476 0.75146 0.1257 0.0
C1689 C 0.82501 0.74366 0.10208 0.0
C1690 C 0.82773 0.78226 0.19847 0.0
C1691 C 0.8085 0.77856 0.20841 0.0
C1692 C 0.8274 0.77727 0.17442 0.0
C1693 C 0.80783 0.76788 0.15915 0.0
C1694 C 0.78844 0.76463 0.16898 0.0
C1695 C 0.78878 0.77002 0.19329 0.0
H1696 H 0.1802 0.04098 0.70512 0.0
H1697 H 0.11801 1.0123 0.72514 0.0
H1698 H 0.16273 0.04639 0.66826 0.0
H1699 H 0.10041 1.0165 0.68745 0.0
H1700 H 0.08035 1.00469 0.60319 0.0
H1701 H 0.096 1.00004 0.6415 0.0
H1702 H 0.13872 0.07137 0.65164 0.0
H1703 H 0.12225 0.07645 0.61399 0.0
C1704 C 0.16273 0.03545 0.70168 0.0
C1705 C 0.15088 0.02594 0.71876 0.0
C1706 C 0.15257 0.03873 0.68027 0.0
C1707 C 0.12982 0.03191 0.67407 0.0
C1708 C 0.11787 0.022 0.69096 0.0
C1709 C 0.12808 0.01956 0.71288 0.0
C1710 C 0.09294 0.01956 0.61358 0.0
C1711 C 0.0997 0.04106 0.60486 0.0
C1712 C 0.10201 1.01689 0.63587 0.0
C1713 C 0.119 0.03519 0.65038 0.0
C1714 C 0.12587 0.0566 0.6415 0.0
C1715 C 0.11624 0.0596 0.61964 0.0
H1716 H 0.85099 0.35712 0.45862 0.0
H1717 H 0.80874 0.3926 0.4261 0.0
H1718 H 0.85234 0.33436 0.42075 0.0
H1719 H 0.81004 0.36966 0.38829 0.0
H1720 H 0.83226 0.34249 0.32304 0.0
H1721 H 0.83823 0.36651 0.3618 0.0
H1722 H 0.82426 0.30205 0.39081 0.0
H1723 H 0.81832 0.27776 0.35171 0.0
C1724 C 0.84193 0.35999 0.44341 0.0
C1725 C 0.82959 0.37647 0.44525 0.0
C1726 C 0.84275 0.34699 0.42182 0.0
C1727 C 0.83137 0.3504 0.40179 0.0
C1728 C 0.81919 0.367 0.40357 0.0
C1729 C 0.81828 0.37993 0.42517 0.0
C1730 C 0.83087 0.33341 0.3377 0.0
C1731 C 0.82453 0.30829 0.33452 0.0
C1732 C 0.83419 0.34718 0.35981 0.0
C1733 C 0.83133 0.33603 0.37906 0.0
C1734 C 0.82651 0.31096 0.3761 0.0
C1735 C 0.82304 0.29711 0.35385 0.0
H1736 H 0.49218 1.01504 0.27055 0.0
H1737 H 0.47215 0.06436 0.23238 0.0
H1738 H 0.4919 0.98853 0.23437 0.0
H1739 H 0.47364 0.03905 0.1959 0.0
H1740 H 0.47395 0.99554 0.13267 0.0
H1741 H 0.45912 1.0027 0.16879 0.0
H1742 H 0.51425 0.98934 0.20626 0.0
H1743 H 0.52834 0.98154 0.17073 0.0
C1744 C 0.48855 0.02054 0.25423 0.0
C1745 C 0.48316 0.04205 0.25385 0.0
C1746 C 0.48803 1.00525 0.23358 0.0
C1747 C 0.48274 1.0116 0.21222 0.0
C1748 C 0.4773 0.03328 0.21202 0.0
C1749 C 0.47712 0.04819 0.23276 0.0
C1750 C 0.48219 0.99291 0.14854 0.0
C1751 C 0.50263 0.98888 0.1491 0.0
C1752 C 0.47387 0.99727 0.16922 0.0
C1753 C 0.48607 0.99777 0.19045 0.0
C1754 C 0.50447 0.98938 0.1903 0.0
C1755 C 0.5126 0.98478 0.1697 0.0
H1756 H 0.83328 0.73854 0.95281 0.0
H1757 H 0.76739 0.74162 0.94283 0.0
H1758 H 0.83882 0.75181 0.91598 0.0
H1759 H 0.77283 0.75497 0.90598 0.0
H1760 H 0.78367 0.75913 0.82986 0.0
H1761 H 0.77767 0.7447 0.8663 0.0
H1762 H 0.84306 0.78419 0.89622 0.0
H1763 H 0.8491 0.79781 0.85985 0.0
C1764 C 0.81992 0.74205 0.94278 0.0
C1765 C 0.79988 0.73894 0.95106 0.0
C1766 C 0.82312 0.74987 0.92156 0.0
C1767 C 0.80631 0.7546 0.90752 0.0
C1768 C 0.78621 0.75136 0.91584 0.0
C1769 C 0.78311 0.74385 0.93724 0.0
C1770 C 0.79683 0.76446 0.84413 0.0
C1771 C 0.81697 0.77947 0.84158 0.0
C1772 C 0.79335 0.75638 0.86526 0.0
C1773 C 0.80986 0.76305 0.88463 0.0
C1774 C 0.82996 0.77807 0.88188 0.0
C1775 C 0.83343 0.78603 0.86084 0.0
H1776 H 0.87183 0.1262 0.06749 0.0
H1777 H 0.84428 0.11131 0.99524 0.0
H1778 H 0.9042 0.11591 0.05665 0.0
H1779 H 0.87653 0.10026 0.98425 0.0
H1780 H 0.91768 0.0443 0.98998 0.0
H1781 H 0.88929 0.06395 0.99421 0.0
H1782 H 0.9359 0.12811 0.03286 0.0
H1783 H 0.96477 0.1088 0.02791 0.0
C1784 C 0.87292 0.12088 0.04928 0.0
C1785 C 0.85582 0.11919 0.03212 0.0
C1786 C 0.89142 0.11527 0.04307 0.0
C1787 C 0.89274 0.1074 0.01965 0.0
C1788 C 0.87579 0.1064 1.0024 0.0
C1789 C 0.85747 0.11261 1.00862 0.0
C1790 C 0.92209 0.06285 0.99873 0.0
C1791 C 0.9435 0.07493 1.00871 0.0
C1792 C 0.90579 0.07407 1.00113 0.0
C1793 C 0.91054 0.09747 1.01378 0.0
C1794 C 0.93197 0.10997 0.02307 0.0
C1795 C 0.94837 0.09885 0.0204 0.0
H1796 H 0.41733 0.41613 0.03286 0.0
H1797 H 0.40314 0.47819 0.07002 0.0
H1798 H 0.45409 0.43976 0.03252 0.0
H1799 H 0.44007 0.50216 0.06934 0.0
H1800 H 0.51415 0.5325 0.08589 0.0
H1801 H 0.47681 0.50955 0.08517 0.0
H1802 H 0.47748 0.46973 0.01727 0.0
H1803 H 0.51511 0.49262 0.01827 0.0
C1804 C 0.42197 0.4349 0.04093 0.0
C1805 C 0.407 0.44504 0.05159 0.0
C1806 C 0.44321 0.44863 0.04055 0.0
C1807 C 0.45049 0.47311 0.05092 0.0
C1808 C 0.43543 0.48335 0.06142 0.0
C1809 C 0.41406 0.46959 0.06169 0.0
C1810 C 0.5064 0.51877 0.0708 0.0
C1811 C 0.51788 0.51443 0.05219 0.0
C1812 C 0.48475 0.50567 0.07028 0.0
C1813 C 0.47369 0.48757 0.05115 0.0
C1814 C 0.48526 0.48319 0.03252 0.0
C1815 C 0.50694 0.49642 0.03301 0.0
H1816 H 0.38786 0.62376 0.72037 0.0
H1817 H 0.40832 0.64204 0.79404 0.0
H1818 H 0.37234 0.65784 0.72249 0.0
H1819 H 0.39249 0.67591 0.79635 0.0
H1820 H 0.34769 0.72847 0.79865 0.0
H1821 H 0.36395 0.6949 0.79676 0.0
H1822 H 0.37287 0.69904 0.72592 0.0
H1823 H 0.35697 0.73289 0.72815 0.0
C1824 C 0.38914 0.63485 0.73723 0.0
C1825 C 0.39982 0.62905 0.75696 0.0
C1826 C 0.38011 0.65501 0.73849 0.0
C1827 C 0.38057 0.67088 0.75968 0.0
C1828 C 0.3911 0.66489 0.77945 0.0
C1829 C 0.40051 0.645 0.77811 0.0
C1830 C 0.35328 0.72258 0.78262 0.0
C1831 C 0.35089 0.73463 0.76375 0.0
C1832 C 0.36286 0.70284 0.78147 0.0
C1833 C 0.37035 0.69303 0.76112 0.0
C1834 C 0.36764 0.705 0.74214 0.0
C1835 C 0.35846 0.72505 0.74347 0.0
H1836 H 0.24793 0.64448 0.57031 0.0
H1837 H 0.23283 0.59505 0.5047 0.0
H1838 H 0.20991 0.63443 0.57505 0.0
H1839 H 0.19439 0.58553 0.50884 0.0
H1840 H 0.13118 0.55816 0.53546 0.0
H1841 H 0.16947 0.56625 0.53303 0.0
H1842 H 0.17747 0.6418 0.55701 0.0
H1843 H 0.13865 0.63324 0.55944 0.0
C1844 C 0.23631 0.63133 0.55699 0.0
C1845 C 0.24292 0.62035 0.53722 0.0
C1846 C 0.21465 0.62579 0.55958 0.0
C1847 C 0.1993 0.60948 0.5422 0.0
C1848 C 0.20603 0.59802 0.5226 0.0
C1849 C 0.22786 0.60334 0.5202 0.0
C1850 C 0.14112 0.57647 0.53978 0.0
C1851 C 0.13222 0.59522 0.54684 0.0
C1852 C 0.16298 0.5811 0.53851 0.0
C1853 C 0.17629 0.60465 0.54443 0.0
C1854 C 0.16746 0.62344 0.55235 0.0
C1855 C 0.14542 0.61869 0.55366 0.0
H1856 H 0.72924 0.02486 0.81291 0.0
H1857 H 0.73025 1.00377 0.73959 0.0
H1858 H 0.74569 0.99344 0.82101 0.0
H1859 H 0.74494 0.97114 0.74715 0.0
H1860 H 0.79736 0.93928 0.77005 0.0
H1861 H 0.77855 0.9686 0.76267 0.0
H1862 H 0.74056 0.95154 0.81755 0.0
H1863 H 0.76068 0.92303 0.82573 0.0
C1864 C 0.73283 1.01318 0.79862 0.0
C1865 C 0.72913 1.01658 0.7758 0.0
C1866 C 0.74192 0.99512 0.80313 0.0
C1867 C 0.74674 0.98 0.7847 0.0
C1868 C 0.74198 0.98296 0.76174 0.0
C1869 C 0.73357 1.00146 0.75736 0.0
C1870 C 0.78495 0.94191 0.78044 0.0
C1871 C 0.78026 0.92925 0.79836 0.0
C1872 C 0.77404 0.95844 0.77613 0.0
C1873 C 0.75791 0.96213 0.78937 0.0
C1874 C 0.75309 0.94919 0.80726 0.0
C1875 C 0.76441 0.93291 0.81188 0.0
H1876 H 0.78273 0.93051 0.5163 0.0
H1877 H 0.78898 0.95354 0.59041 0.0
H1878 H 0.75127 0.94598 0.51107 0.0
H1879 H 0.75698 0.96717 0.58565 0.0
H1880 H 0.71415 1.01336 0.57369 0.0
H1881 H 0.7448 0.99719 0.57604 0.0
H1882 H 0.71554 0.94509 0.51332 0.0
H1883 H 0.68527 0.96285 0.51034 0.0
C1884 C 0.77726 0.93869 0.53149 0.0
C1885 C 0.78869 0.94128 0.55374 0.0
C1886 C 0.75905 0.94744 0.52855 0.0
C1887 C 0.75152 0.95852 0.54787 0.0
C1888 C 0.76253 0.95987 0.57013 0.0
C1889 C 0.78093 0.95179 0.57297 0.0
C1890 C 0.71423 0.9984 0.56043 0.0
C1891 C 0.69713 0.98922 0.54204 0.0
C1892 C 0.73182 0.98883 0.56184 0.0
C1893 C 0.73278 0.96921 0.54522 0.0
C1894 C 0.71569 0.96019 0.52649 0.0
C1895 C 0.6982 0.97025 0.5248 0.0
H1896 H 0.43162 0.47901 0.78307 0.0
H1897 H 0.37398 0.49428 0.75501 0.0
H1898 H 0.41117 0.4385 0.78423 0.0
H1899 H 0.35324 0.45318 0.75568 0.0
H1900 H 0.31427 0.3815 0.77121 0.0
H1901 H 0.33518 0.42148 0.76942 0.0
H1902 H 0.39329 0.39869 0.77395 0.0
H1903 H 0.37184 0.35812 0.77635 0.0
C1904 C 0.41445 0.47395 0.77704 0.0
C1905 C 0.40496 0.49111 0.76906 0.0
C1906 C 0.40245 0.44998 0.77757 0.0
C1907 C 0.37987 0.44112 0.77019 0.0
C1908 C 0.37031 0.45829 0.76204 0.0
C1909 C 0.38242 0.48242 0.76147 0.0
C1910 C 0.33156 0.38466 0.77185 0.0
C1911 C 0.34079 0.36553 0.774 0.0
C1912 C 0.34387 0.40823 0.7706 0.0
C1913 C 0.3666 0.41476 0.77133 0.0
C1914 C 0.37605 0.39554 0.77346 0.0
C1915 C 0.36355 0.37167 0.77475 0.0
H1916 H 0.219 0.63975 0.31227 0.0
H1917 H 0.2022 0.61931 0.23779 0.0
H1918 H 0.24374 0.6773 0.30783 0.0
H1919 H 0.2283 0.65544 0.23296 0.0
H1920 H 0.26129 0.73454 0.23548 0.0
H1921 H 0.23632 0.69628 0.23681 0.0
H1922 H 0.27765 0.68985 0.29654 0.0
H1923 H 0.30148 0.72933 0.29622 0.0
C1924 C 0.22037 0.64372 0.29502 0.0
C1925 C 0.20859 0.62736 0.27537 0.0
C1926 C 0.23486 0.66476 0.29238 0.0
C1927 C 0.23829 0.66903 0.27 0.0
C1928 C 0.22582 0.65285 0.25041 0.0
C1929 C 0.21078 0.6323 0.25312 0.0
C1930 C 0.26509 0.72456 0.24853 0.0
C1931 C 0.28277 0.7345 0.26597 0.0
C1932 C 0.2509 0.70269 0.24932 0.0
C1933 C 0.25474 0.69038 0.26718 0.0
C1934 C 0.27382 0.69944 0.28318 0.0
C1935 C 0.28758 0.72171 0.28285 0.0
H1936 H 0.58592 0.73722 0.49749 0.0
H1937 H 0.52181 0.69767 0.46382 0.0
H1938 H 0.58964 0.70253 0.51343 0.0
H1939 H 0.52573 0.6625 0.47844 0.0
H1940 H 0.52942 0.60422 0.51893 0.0
H1941 H 0.52583 0.64019 0.50552 0.0
H1942 H 0.59539 0.66653 0.51194 0.0
H1943 H 0.5987 0.63127 0.52693 0.0
C1944 C 0.57255 0.72107 0.49343 0.0
C1945 C 0.55344 0.72056 0.47945 0.0
C1946 C 0.57475 0.70079 0.50243 0.0
C1947 C 0.558 0.67901 0.49761 0.0
C1948 C 0.53898 0.67865 0.48337 0.0
C1949 C 0.53672 0.69899 0.47464 0.0
C1950 C 0.54396 0.6178 0.51765 0.0
C1951 C 0.56434 0.61466 0.52419 0.0
C1952 C 0.54195 0.63859 0.50959 0.0
C1953 C 0.56026 0.6569 0.50714 0.0
C1954 C 0.5807 0.65356 0.51375 0.0
C1955 C 0.58267 0.63302 0.52232 0.0
H1956 H 0.6592 0.29576 0.70214 0.0
H1957 H 0.69588 0.3474 0.66626 0.0
H1958 H 0.69241 0.29222 0.72226 0.0
H1959 H 0.72948 0.3437 0.68635 0.0
H1960 H 0.78623 0.34719 0.74439 0.0
H1961 H 0.75442 0.35108 0.72084 0.0
H1962 H 0.72198 0.27695 0.72019 0.0
H1963 H 0.75359 0.27356 0.74415 0.0
C1964 C 0.67436 0.30659 0.69857 0.0
C1965 C 0.67446 0.32203 0.68243 0.0
C1966 C 0.69369 0.30429 0.71003 0.0
C1967 C 0.71419 0.31738 0.70605 0.0
C1968 C 0.71431 0.33325 0.69023 0.0
C1969 C 0.69487 0.33541 0.67857 0.0
C1970 C 0.77264 0.33145 0.73838 0.0
C1971 C 0.77304 0.30976 0.74553 0.0
C1972 C 0.75411 0.33373 0.72498 0.0
C1973 C 0.73503 0.31447 0.71847 0.0
C1974 C 0.73587 0.29251 0.72496 0.0
C1975 C 0.75435 0.29031 0.73835 0.0
H1976 H 0.02015 0.3432 1.01269 0.0
H1977 H 0.05432 0.36179 0.95585 0.0
H1978 H 0.02714 0.38569 0.02923 0.0
H1979 H 0.06068 0.40418 0.97186 0.0
H1980 H 0.0881 0.47755 0.01809 0.0
H1981 H 0.08106 0.43506 1.00268 0.0
H1982 H 0.01774 0.42177 0.024 0.0
H1983 H 0.02499 0.46464 0.03968 0.0
C1984 C 0.02919 0.35635 1.00372 0.0
C1985 C 0.03686 0.34901 0.98303 0.0
C1986 C 0.03303 0.38078 1.01311 0.0
C1987 C 0.04452 0.39858 1.00198 0.0
C1988 C 0.05215 0.39114 0.98125 0.0
C1989 C 0.04848 0.36674 0.972 0.0
C1990 C 0.07272 0.46558 0.01971 0.0
C1991 C 0.05717 0.47455 0.03029 0.0
C1992 C 0.06857 0.44113 1.0106 0.0
C1993 C 0.04878 0.42475 1.01195 0.0
C1994 C 0.03324 0.43371 0.02277 0.0
C1995 C 0.03732 0.45833 0.03166 0.0
H1996 H 0.03698 0.76406 0.1759 0.0
H1997 H 0.04162 0.83879 0.17731 0.0
H1998 H 1.00263 0.75872 0.19114 0.0
H1999 H 1.00725 0.8335 0.19252 0.0
H2000 H 0.9615 0.82297 0.2463 0.0
H2001 H 0.99451 0.82627 0.22893 0.0
H2002 H 0.96443 0.75877 0.18222 0.0
H2003 H 0.93132 0.75528 0.20033 0.0
C2004 C 0.03069 0.77938 0.17957 0.0
C2005 C 0.04215 0.80196 0.17572 0.0
C2006 C 1.01088 0.77624 0.18805 0.0
C2007 C 1.00225 0.79571 0.19322 0.0
C2008 C 1.01359 0.81819 0.18902 0.0
C2009 C 0.03325 0.82125 0.18024 0.0
C2010 C 0.96197 0.80888 0.23228 0.0
C2011 C 0.94393 0.78899 0.2245 0.0
C2012 C 0.98081 0.81081 0.22222 0.0
C2013 C 0.98205 0.79298 0.20395 0.0
C2014 C 0.96403 0.77278 0.19634 0.0
C2015 C 0.94511 0.77076 0.20662 0.0
H2016 H 0.50948 0.32133 0.13421 0.0
H2017 H 0.5629 0.29704 0.11127 0.0
H2018 H 0.5235 0.35895 0.121 0.0
H2019 H 0.57661 0.33435 0.09784 0.0
H2020 H 0.6039 0.41288 0.09265 0.0
H2021 H 0.59232 0.37832 0.11175 0.0
H2022 H 0.52616 0.36822 0.08192 0.0
H2023 H 0.53765 0.40267 0.06356 0.0
C2024 C 0.5241 0.32399 0.12626 0.0
C2025 C 0.53488 0.30619 0.12336 0.0
C2026 C 0.53214 0.34546 0.1188 0.0
C2027 C 0.55109 0.34939 0.10845 0.0
C2028 C 0.5621 0.3318 0.106 0.0
C2029 C 0.55402 0.31033 0.11334 0.0
C2030 C 0.58694 0.4032 0.09046 0.0
C2031 C 0.57154 0.41026 0.07702 0.0
C2032 C 0.58033 0.38359 0.10127 0.0
C2033 C 0.55833 0.37092 0.09846 0.0
C2034 C 0.54311 0.37809 0.08486 0.0
C2035 C 0.54966 0.39764 0.07429 0.0
H2036 H 0.07737 0.33428 0.33066 0.0
H2037 H 0.04725 0.33443 0.39313 0.0
H2038 H 0.04192 0.32646 0.30743 0.0
H2039 H 1.01221 0.32656 0.37 0.0
H2040 H 0.9511 0.29018 0.32311 0.0
H2041 H 0.98769 0.29167 0.33919 0.0
H2042 H 1.01345 0.35062 0.30515 0.0
H2043 H 0.97688 0.34937 0.28927 0.0
C2044 C 0.06323 0.33267 0.33938 0.0
C2045 C 0.065 0.335 0.36366 0.0
C2046 C 0.04306 0.32817 0.32613 0.0
C2047 C 0.02449 0.32556 0.337 0.0
C2048 C 0.02632 0.32804 0.36124 0.0
C2049 C 0.0464 0.33283 0.37446 0.0
C2050 C 0.96462 0.30314 0.31873 0.0
C2051 C 0.96126 0.31988 0.30526 0.0
C2052 C 0.98546 0.30396 0.32787 0.0
C2053 C 1.00317 0.32144 0.32354 0.0
C2054 C 0.99996 0.3369 0.30854 0.0
C2055 C 0.97908 0.33615 0.29946 0.0
H2056 H 1.00413 0.71435 0.60294 0.0
H2057 H 0.99647 0.66977 0.65518 0.0
H2058 H 0.02054 0.68737 0.58076 0.0
H2059 H 1.01229 0.64211 0.63227 0.0
H2060 H 0.0628 0.61278 0.5973 0.0
H2061 H 0.04859 0.64211 0.62063 0.0
H2062 H 1.00974 0.64723 0.55866 0.0
H2063 H 0.02381 0.61852 0.53581 0.0
C2064 C 1.00521 0.69833 0.6093 0.0
C2065 C 0.99888 0.69408 0.63077 0.0
C2066 C 1.01485 0.68302 0.59669 0.0
C2067 C 0.01792 0.66289 0.60502 0.0
C2068 C 1.01054 0.65786 0.62581 0.0
C2069 C 1.00109 0.67337 0.63861 0.0
C2070 C 0.05141 0.62046 0.58884 0.0
C2071 C 0.04406 0.61323 0.56498 0.0
C2072 C 0.0432 0.63703 0.60209 0.0
C2073 C 0.02791 0.64666 0.59139 0.0
C2074 C 0.02154 0.64018 0.56734 0.0
C2075 C 0.0295 0.62361 0.55429 0.0
H2076 H 0.65703 0.83712 0.83223 0.0
H2077 H 0.69489 0.82593 0.89204 0.0
H2078 H 0.68315 0.82813 0.80788 0.0
H2079 H 0.72114 0.81704 0.86739 0.0
H2080 H 0.74765 0.77589 0.80997 0.0
H2081 H 0.71988 0.78358 0.83272 0.0
H2082 H 0.72318 0.84851 0.80584 0.0
H2083 H 0.75157 0.84107 0.7834 0.0
C2084 C 0.67101 0.83292 0.84023 0.0
C2085 C 0.67401 0.83233 0.86409 0.0
C2086 C 0.6859 0.82782 0.82626 0.0
C2087 C 0.704 0.82199 0.83587 0.0
C2088 C 0.70711 0.82135 0.85967 0.0
C2089 C 0.69221 0.82655 0.87373 0.0
C2090 C 0.742 0.79147 0.80846 0.0
C2091 C 0.75129 0.80778 0.79476 0.0
C2092 C 0.72641 0.796 0.8217 0.0
C2093 C 0.71965 0.81665 0.82102 0.0
C2094 C 0.72825 0.83244 0.80651 0.0
C2095 C 0.74429 0.8282 0.79367 0.0
H2096 H 0.46993 0.58621 0.69294 0.0
H2097 H 0.50574 0.54218 0.72064 0.0
H2098 H 0.48837 0.5848 0.65846 0.0
H2099 H 0.52407 0.54054 0.6862 0.0
H2100 H 0.54693 0.52644 0.61371 0.0
H2101 H 0.52747 0.52744 0.64745 0.0
H2102 H 0.51696 0.59451 0.63665 0.0
H2103 H 0.53644 0.59323 0.60292 0.0
C2104 C 0.48176 0.57618 0.69196 0.0
C2105 C 0.48587 0.56442 0.71056 0.0
C2106 C 0.49265 0.57539 0.67175 0.0
C2107 C 0.50823 0.56238 0.66833 0.0
C2108 C 0.51231 0.55063 0.68702 0.0
C2109 C 0.50167 0.55176 0.70737 0.0
C2110 C 0.53993 0.54112 0.61795 0.0
C2111 C 0.5428 0.55912 0.60408 0.0
C2112 C 0.52887 0.542 0.638 0.0
C2113 C 0.51994 0.56108 0.64587 0.0
C2114 C 0.52279 0.57905 0.63183 0.0
C2115 C 0.53405 0.57825 0.61192 0.0
H2116 H 0.8141 0.1802 0.96552 0.0
H2117 H 0.7647 0.19997 1.00188 0.0
H2118 H 0.79816 0.18973 0.93015 0.0
H2119 H 0.748 0.20798 0.96645 0.0
H2120 H 0.7614 0.26504 0.91905 0.0
H2121 H 0.76077 0.24119 0.94864 0.0
H2122 H 0.76838 0.1826 0.8989 0.0
H2123 H 0.76911 0.20698 0.86879 0.0
C2124 C 0.79972 0.18632 0.96577 0.0
C2125 C 0.79104 0.19027 0.98639 0.0
C2126 C 0.79031 0.19127 0.94551 0.0
C2127 C 0.77184 0.19966 0.94562 0.0
C2128 C 0.76241 0.20193 0.96598 0.0
C2129 C 0.77212 0.19764 0.98628 0.0
C2130 C 0.76182 0.24667 0.91402 0.0
C2131 C 0.76582 0.23801 0.89181 0.0
C2132 C 0.76147 0.2329 0.93108 0.0
C2133 C 0.76505 0.21022 0.92616 0.0
C2134 C 0.76611 0.20029 0.90318 0.0
C2135 C 0.76647 0.21416 0.88602 0.0
H2136 H 0.12969 0.53993 0.22529 0.0
H2137 H 0.18079 0.54238 0.18286 0.0
H2138 H 0.10664 0.54635 0.1935 0.0
H2139 H 0.15704 0.5477 0.15025 0.0
H2140 H 0.1134 0.57781 0.10459 0.0
H2141 H 0.13819 0.57678 0.13817 0.0
H2142 H 0.08828 0.52103 0.15672 0.0
H2143 H 0.06362 0.52217 0.12333 0.0
C2144 C 0.13572 0.54102 0.20884 0.0
C2145 C 0.15665 0.53965 0.20605 0.0
C2146 C 0.1226 0.54495 0.19077 0.0
C2147 C 0.12998 0.54705 0.16942 0.0
C2148 C 0.15106 0.54613 0.16665 0.0
C2149 C 0.16444 0.54266 0.18502 0.0
C2150 C 0.10784 0.56538 0.11594 0.0
C2151 C 0.08686 0.54975 0.11141 0.0
C2152 C 0.12197 0.56478 0.13501 0.0
C2153 C 0.1151 0.54873 0.14981 0.0
C2154 C 0.09387 0.53369 0.1456 0.0
C2155 C 0.07981 0.53423 0.12652 0.0
H2156 H 0.84082 0.81794 0.48179 0.0
H2157 H 0.83078 0.88568 0.4722 0.0
H2158 H 0.83623 0.80482 0.4395 0.0
H2159 H 0.82687 0.87283 0.42998 0.0
H2160 H 0.84886 0.84983 0.35796 0.0
H2161 H 0.85244 0.86224 0.40035 0.0
H2162 H 0.80568 0.79611 0.40379 0.0
H2163 H 0.80152 0.78423 0.36133 0.0
C2164 C 0.83751 0.82998 0.47067 0.0
C2165 C 0.83601 0.85281 0.48045 0.0
C2166 C 0.83489 0.82246 0.44643 0.0
C2167 C 0.83131 0.83782 0.43132 0.0
C2168 C 0.82976 0.86062 0.4411 0.0
C2169 C 0.8318 0.86789 0.46531 0.0
C2170 C 0.83939 0.83799 0.36783 0.0
C2171 C 0.82489 0.8161 0.3564 0.0
C2172 C 0.84135 0.84511 0.39206 0.0
C2173 C 0.82931 0.83019 0.4055 0.0
C2174 C 0.8152 0.808 0.39401 0.0
C2175 C 0.81278 0.80122 0.36972 0.0
H2176 H 0.51555 0.52174 0.83739 0.0
H2177 H 0.49229 0.58082 0.8654 0.0
H2178 H 0.5322 0.52117 0.87625 0.0
H2179 H 0.50829 0.57996 0.90445 0.0
H2180 H 0.5494 0.5846 0.97479 0.0
H2181 H 0.53439 0.58638 0.93553 0.0
H2182 H 0.53309 0.51266 0.91256 0.0
H2183 H 0.5485 0.51128 0.95153 0.0
C2184 C 0.51388 0.53472 0.85179 0.0
C2185 C 0.50233 0.5514 0.8475 0.0
C2186 C 0.52344 0.53429 0.87459 0.0
C2187 C 0.52198 0.55045 0.89466 0.0
C2188 C 0.51048 0.56722 0.89019 0.0
C2189 C 0.501 0.56768 0.86738 0.0
C2190 C 0.54601 0.56872 0.9614 0.0
C2191 C 0.55043 0.54778 0.96709 0.0
C2192 C 0.53708 0.56963 0.93847 0.0
C2193 C 0.53203 0.54967 0.91973 0.0
C2194 C 0.53666 0.5288 0.92558 0.0
C2195 C 0.54554 0.52791 0.94846 0.0
H2196 H 0.8078 0.21735 0.09041 0.0
H2197 H 0.83126 0.17163 0.13093 0.0
H2198 H 0.8046 0.24289 0.12589 0.0
H2199 H 0.82863 0.19784 0.16678 0.0
H2200 H 0.85407 0.27501 0.21455 0.0
H2201 H 0.85125 0.24397 0.18071 0.0
H2202 H 0.78387 0.23969 0.16319 0.0
H2203 H 0.78669 0.27061 0.19768 0.0
C2204 C 0.81259 0.21305 0.107 0.0
C2205 C 0.82055 0.19319 0.10824 0.0
C2206 C 0.81034 0.22733 0.12716 0.0
C2207 C 0.81643 0.22218 0.14877 0.0
C2208 C 0.82392 0.202 0.15009 0.0
C2209 C 0.82565 0.18729 0.12981 0.0
C2210 C 0.83884 0.26778 0.20308 0.0
C2211 C 0.82079 0.27558 0.20779 0.0
C2212 C 0.8371 0.24976 0.18418 0.0
C2213 C 0.81734 0.23956 0.16971 0.0
C2214 C 0.79924 0.24749 0.17429 0.0
C2215 C 0.80091 0.26529 0.19357 0.0
H2216 H 0.12546 0.5469 0.32681 0.0
H2217 H 0.19237 0.5886 0.34115 0.0
H2218 H 0.11847 0.56909 0.36235 0.0
H2219 H 0.18524 0.61146 0.3765 0.0
H2220 H 0.15706 0.6162 0.45028 0.0
H2221 H 0.17317 0.6061 0.41569 0.0
H2222 H 0.11771 0.61196 0.37258 0.0
H2223 H 0.10103 0.62041 0.40653 0.0
C2224 C 0.1387 0.56049 0.33788 0.0
C2225 C 0.15938 0.56603 0.33152 0.0
C2226 C 0.13469 0.5735 0.3579 0.0
C2227 C 0.15122 0.59254 0.37156 0.0
C2228 C 0.17226 0.59704 0.36604 0.0
C2229 C 0.17635 0.58376 0.34609 0.0
C2230 C 0.14867 0.61618 0.43344 0.0
C2231 C 0.12729 0.61774 0.43107 0.0
C2232 C 0.15794 0.61048 0.41369 0.0
C2233 C 0.14604 0.60707 0.39165 0.0
C2234 C 0.12674 0.61362 0.38953 0.0
C2235 C 0.11735 0.61888 0.40914 0.0
H2236 H 0.83926 0.83288 0.60219 0.0
H2237 H 0.82238 0.8961 0.63205 0.0
H2238 H 0.83205 0.8162 0.63691 0.0
H2239 H 0.81626 0.8803 0.66714 0.0
H2240 H 0.79095 0.84025 0.7239 0.0
H2241 H 0.79761 0.85708 0.68905 0.0
H2242 H 0.84065 0.81324 0.6739 0.0
H2243 H 0.83259 0.79558 0.70788 0.0
C2244 C 0.83409 0.84334 0.61619 0.0
C2245 C 0.83154 0.866 0.61402 0.0
C2246 C 0.83014 0.83385 0.63651 0.0
C2247 C 0.82363 0.8467 0.65565 0.0
C2248 C 0.82091 0.8693 0.65318 0.0
C2249 C 0.82467 0.87865 0.63285 0.0
C2250 C 0.80218 0.83466 0.71332 0.0
C2251 C 0.81162 0.81698 0.71905 0.0
C2252 C 0.80608 0.8443 0.69308 0.0
C2253 C 0.81978 0.83679 0.6779 0.0
C2254 C 0.82963 0.81945 0.6843 0.0
C2255 C 0.82537 0.80954 0.70424 0.0
H2256 H 0.76552 0.47389 0.49965 0.0
H2257 H 0.78729 0.48455 0.57325 0.0
H2258 H 0.73542 0.49021 0.50814 0.0
H2259 H 0.75725 0.50073 0.58173 0.0
H2260 H 0.68819 0.50835 0.5853 0.0
H2261 H 0.71616 0.48813 0.57702 0.0
H2262 H 0.73461 0.53182 0.52572 0.0
H2263 H 0.7065 0.55144 0.53368 0.0
C2264 C 0.76372 0.47958 0.51758 0.0
C2265 C 0.7787 0.47838 0.5358 0.0
C2266 C 0.74664 0.48892 0.52244 0.0
C2267 C 0.74421 0.49674 0.54556 0.0
C2268 C 0.75879 0.4947 0.56378 0.0
C2269 C 0.77603 0.48573 0.55892 0.0
C2270 C 0.69836 0.51351 0.57234 0.0
C2271 C 0.69546 0.53122 0.56 0.0
C2272 C 0.71423 0.50205 0.56762 0.0
C2273 C 0.72726 0.50836 0.55059 0.0
C2274 C 0.72441 0.52633 0.53855 0.0
C2275 C 0.70854 0.53761 0.54316 0.0
H2276 H 0.24847 0.12817 0.53462 0.0
H2277 H 0.22356 0.16284 0.48322 0.0
H2278 H 0.21166 0.10618 0.538 0.0
H2279 H 0.18672 0.14063 0.48645 0.0
H2280 H 0.12626 0.07519 0.48001 0.0
H2281 H 0.16262 0.0991 0.4774 0.0
H2282 H 0.17785 0.11279 0.55211 0.0
H2283 H 0.14116 0.08897 0.55467 0.0
C2284 C 0.23519 0.1309 0.52376 0.0
C2285 C 0.23917 0.14719 0.50841 0.0
C2286 C 0.21399 0.11846 0.52594 0.0
C2287 C 0.19606 0.12158 0.51257 0.0
C2288 C 0.20005 0.13758 0.49694 0.0
C2289 C 0.22124 0.15033 0.49505 0.0
C2290 C 0.13727 0.08355 0.49592 0.0
C2291 C 0.13073 0.08018 0.51753 0.0
C2292 C 0.15816 0.09733 0.49443 0.0
C2293 C 0.17336 0.10789 0.5145 0.0
C2294 C 0.16671 0.10479 0.53624 0.0
C2295 C 0.1456 0.09131 0.53774 0.0
H2296 H 0.2097 0.93352 0.77569 0.0
H2297 H 0.2649 0.97444 0.75068 0.0
H2298 H 0.22554 0.89973 0.77416 0.0
H2299 H 0.28106 0.941 0.74954 0.0
H2300 H 0.31563 0.88236 0.76226 0.0
H2301 H 0.29917 0.91538 0.76299 0.0
H2302 H 0.2365 0.86589 0.75929 0.0
H2303 H 0.25322 0.83277 0.75875 0.0
C2304 C 0.22533 0.93566 0.76992 0.0
C2305 C 0.23556 0.95776 0.76341 0.0
C2306 C 0.23464 0.91573 0.76889 0.0
C2307 C 0.25524 0.91638 0.7618 0.0
C2308 C 0.26547 0.93864 0.7554 0.0
C2309 C 0.25593 0.95834 0.75593 0.0
C2310 C 0.29827 0.87813 0.76151 0.0
C2311 C 0.2863 0.85384 0.76041 0.0
C2312 C 0.28852 0.89761 0.76184 0.0
C2313 C 0.26587 0.8946 0.76121 0.0
C2314 C 0.25385 0.8702 0.7601 0.0
C2315 C 0.26364 0.85064 0.75966 0.0
H2316 H 0.38977 1.01178 1.00866 0.0
H2317 H 0.39293 0.94274 0.02303 0.0
H2318 H 0.42925 0.02694 0.01899 0.0
H2319 H 0.43163 0.95783 0.03335 0.0
H2320 H 0.50046 0.997 0.06467 0.0
H2321 H 0.46123 0.98958 0.06295 0.0
H2322 H 0.458 1.01245 0.99678 0.0
H2323 H 0.49674 0.01944 0.99822 0.0
C2324 C 0.39883 0.99999 0.0141 0.0
C2325 C 0.38844 0.97599 0.01445 0.0
C2326 C 0.42123 1.00864 0.02013 0.0
C2327 C 0.43323 0.99347 0.02701 0.0
C2328 C 0.42266 0.9699 0.02838 0.0
C2329 C 0.40053 0.96121 0.02206 0.0
C2330 C 0.49124 1.00017 0.04972 0.0
C2331 C 0.50138 1.008 0.03125 0.0
C2332 C 0.469 0.99627 0.04888 0.0
C2333 C 0.45686 1.00074 0.02984 0.0
C2334 C 0.46714 1.00922 1.01176 0.0
C2335 C 0.48919 1.01265 1.01236 0.0
H2336 H 0.88916 0.57171 0.77067 0.0
H2337 H 0.92622 0.63051 0.82509 0.0
H2338 H 0.86762 0.59691 0.758 0.0
H2339 H 0.90474 0.65572 0.81213 0.0
H2340 H 0.84192 0.67656 0.80459 0.0
H2341 H 0.86527 0.6521 0.81362 0.0
H2342 H 0.87184 0.63558 0.74099 0.0
H2343 H 0.8482 0.66056 0.73181 0.0
C2344 C 0.89273 0.59004 0.77987 0.0
C2345 C 0.90918 0.59924 0.799 0.0
C2346 C 0.88059 0.60443 0.77241 0.0
C2347 C 0.8847 0.62808 0.78411 0.0
C2348 C 0.90135 0.6374 0.80297 0.0
C2349 C 0.91355 0.62305 0.81038 0.0
C2350 C 0.84853 0.66792 0.79057 0.0
C2351 C 0.84369 0.67063 0.7676 0.0
C2352 C 0.86186 0.654 0.79574 0.0
C2353 C 0.87053 0.64248 0.77802 0.0
C2354 C 0.86529 0.64453 0.75486 0.0
C2355 C 0.85186 0.65865 0.74964 0.0
H2356 H 0.87785 0.68834 0.06623 0.0
H2357 H 0.84514 0.6235 0.01727 0.0
H2358 H 0.90918 0.67285 0.07332 0.0
H2359 H 0.87627 0.60787 0.02423 0.0
H2360 H 0.92467 0.57621 0.05877 0.0
H2361 H 0.89457 0.59357 0.05515 0.0
H2362 H 0.93876 0.66209 0.05373 0.0
H2363 H 0.96914 0.64478 0.05793 0.0
C2364 C 0.87749 0.67082 0.05688 0.0
C2365 C 0.85923 0.65715 0.04104 0.0
C2366 C 0.89541 0.66196 0.0609 0.0
C2367 C 0.89529 0.63904 0.04942 0.0
C2368 C 0.87688 0.62545 0.03359 0.0
C2369 C 0.8591 0.63443 0.02942 0.0
C2370 C 0.92812 0.59509 0.05813 0.0
C2371 C 0.94946 0.60901 0.05857 0.0
C2372 C 0.91075 0.605 0.05573 0.0
C2373 C 0.91412 0.62917 0.05377 0.0
C2374 C 0.93552 0.6434 0.05516 0.0
C2375 C 0.95295 0.63342 0.05739 0.0
H2376 H 0.23352 0.11496 0.82438 0.0
H2377 H 0.23617 0.09238 0.75196 0.0
H2378 H 0.25313 0.15619 0.82217 0.0
H2379 H 0.25499 0.13381 0.74941 0.0
H2380 H 0.27372 0.21729 0.74787 0.0
H2381 H 0.25282 0.17629 0.75008 0.0
H2382 H 0.28821 0.18333 0.81771 0.0
H2383 H 0.30931 0.22366 0.81508 0.0
C2384 C 0.23837 0.11858 0.80792 0.0
C2385 C 0.23336 0.09947 0.78854 0.0
C2386 C 0.24973 0.1426 0.80658 0.0
C2387 C 0.25605 0.14928 0.78554 0.0
C2388 C 0.25066 0.13017 0.76605 0.0
C2389 C 0.23994 0.10599 0.76758 0.0
C2390 C 0.2767 0.21046 0.76354 0.0
C2391 C 0.29307 0.22488 0.78164 0.0
C2392 C 0.26482 0.18645 0.7647 0.0
C2393 C 0.26836 0.1756 0.78419 0.0
C2394 C 0.28437 0.19038 0.80242 0.0
C2395 C 0.29656 0.21398 0.80097 0.0
H2396 H 0.44613 0.96821 0.31428 0.0
H2397 H 0.39708 1.00492 0.30432 0.0
H2398 H 0.41857 0.92962 0.30204 0.0
H2399 H 0.36971 0.96631 0.29165 0.0
H2400 H 0.33819 0.88407 0.24992 0.0
H2401 H 0.36519 0.92336 0.25596 0.0
H2402 H 0.3828 0.91809 0.3272 0.0
H2403 H 0.35589 0.87963 0.32158 0.0
C2404 C 0.42946 0.9679 0.30951 0.0
C2405 C 0.42338 0.98916 0.31078 0.0
C2406 C 0.41394 0.94608 0.30228 0.0
C2407 C 0.39243 0.94555 0.29585 0.0
C2408 C 0.3864 0.96673 0.29641 0.0
C2409 C 0.40185 0.98856 0.30408 0.0
C2410 C 0.3477 0.89163 0.26687 0.0
C2411 C 0.34513 0.87922 0.28535 0.0
C2412 C 0.36301 0.91378 0.27024 0.0
C2413 C 0.3759 0.923 0.29187 0.0
C2414 C 0.37296 0.91084 0.31036 0.0
C2415 C 0.35749 0.88912 0.30719 0.0
H2416 H 0.57852 0.37601 0.61282 0.0
H2417 H 0.63883 0.3939 0.58559 0.0
H2418 H 0.56847 0.40881 0.59765 0.0
H2419 H 0.62885 0.42636 0.57031 0.0
H2420 H 0.61677 0.49903 0.56706 0.0
H2421 H 0.62504 0.46505 0.58064 0.0
H2422 H 0.55768 0.42541 0.56477 0.0
H2423 H 0.54932 0.45997 0.55134 0.0
C2424 C 0.58971 0.3869 0.60363 0.0
C2425 C 0.60968 0.38214 0.60076 0.0
C2426 C 0.58384 0.40576 0.59469 0.0
C2427 C 0.59779 0.42082 0.58271 0.0
C2428 C 0.61765 0.41578 0.5797 0.0
C2429 C 0.6234 0.39687 0.58843 0.0
C2430 C 0.6036 0.48309 0.56626 0.0
C2431 C 0.58229 0.48259 0.55786 0.0
C2432 C 0.60842 0.4633 0.57402 0.0
C2433 C 0.59218 0.44195 0.57392 0.0
C2434 C 0.57078 0.44136 0.56545 0.0
C2435 C 0.56596 0.46124 0.55748 0.0
H2436 H 0.47778 0.83112 0.36697 0.0
H2437 H 0.44944 0.75787 0.37306 0.0
H2438 H 0.4431 0.83246 0.34737 0.0
H2439 H 0.41486 0.7592 0.35384 0.0
H2440 H 0.36251 0.7588 0.29632 0.0
H2441 H 0.39675 0.75936 0.31742 0.0
H2442 H 0.40589 0.83292 0.35006 0.0
H2443 H 0.37134 0.83242 0.32812 0.0
C2444 C 0.46419 0.81523 0.36409 0.0
C2445 C 0.46667 0.79427 0.37152 0.0
C2446 C 0.44413 0.81608 0.35299 0.0
C2447 C 0.42584 0.79592 0.34871 0.0
C2448 C 0.42842 0.77506 0.35632 0.0
C2449 C 0.44837 0.77428 0.36753 0.0
C2450 C 0.37162 0.7751 0.30818 0.0
C2451 C 0.36385 0.79547 0.31056 0.0
C2452 C 0.39141 0.7754 0.32048 0.0
C2453 C 0.4044 0.7961 0.33582 0.0
C2454 C 0.39659 0.8166 0.33839 0.0
C2455 C 0.37659 0.81627 0.32599 0.0
H2456 H 0.061 0.74189 0.08711 0.0
H2457 H 0.13009 0.75933 0.09055 0.0
H2458 H 0.05815 0.69982 0.0747 0.0
H2459 H 0.12784 0.71694 0.0803 0.0
H2460 H 0.11793 0.63704 0.05305 0.0
H2461 H 0.12141 0.67999 0.05919 0.0
H2462 H 0.0608 0.66713 0.08697 0.0
H2463 H 0.05678 0.6247 0.07894 0.0
C2464 C 0.07561 0.73665 0.08476 0.0
C2465 C 0.09571 0.75399 0.08933 0.0
C2466 C 0.07412 0.71227 0.07824 0.0
C2467 C 0.09281 0.70421 0.07709 0.0
C2468 C 0.11292 0.72189 0.0807 0.0
C2469 C 0.1143 0.74642 0.0865 0.0
C2470 C 0.10538 0.64357 0.06037 0.0
C2471 C 0.08695 0.62736 0.06517 0.0
C2472 C 0.10735 0.66835 0.06405 0.0
C2473 C 0.09118 0.67769 0.07319 0.0
C2474 C 0.07327 0.66122 0.07892 0.0
C2475 C 0.07105 0.63659 0.07462 0.0
H2476 H 0.09255 0.24433 0.88557 0.0
H2477 H 0.09204 0.3174 0.88544 0.0
H2478 H 0.12742 0.25216 0.87118 0.0
H2479 H 0.12674 0.32513 0.87017 0.0
H2480 H 0.17238 0.31384 0.81335 0.0
H2481 H 0.14026 0.31084 0.83238 0.0
H2482 H 0.16658 0.27691 0.88344 0.0
H2483 H 0.19916 0.28069 0.86505 0.0
C2484 C 0.09989 0.26207 0.88235 0.0
C2485 C 0.08947 0.2802 0.88649 0.0
C2486 C 0.11996 0.26662 0.87426 0.0
C2487 C 0.12993 0.28927 0.86945 0.0
C2488 C 0.1195 0.30746 0.87361 0.0
C2489 C 0.09966 0.30308 0.8824 0.0
C2490 C 0.1717 0.30627 0.82896 0.0
C2491 C 0.18855 0.29732 0.83738 0.0
C2492 C 0.15313 0.30447 0.83984 0.0
C2493 C 0.15067 0.29341 0.85933 0.0
C2494 C 0.16774 0.28516 0.86823 0.0
C2495 C 0.18644 0.28725 0.85755 0.0
H2496 H 0.64443 0.77376 0.94925 0.0
H2497 H 0.57934 0.77934 0.93662 0.0
H2498 H 0.63114 0.73703 0.96422 0.0
H2499 H 0.56604 0.74276 0.95236 0.0
H2500 H 0.567 0.70116 0.01684 0.0
H2501 H 0.57461 0.7338 0.99529 0.0
H2502 H 0.60445 0.69341 0.94766 0.0
H2503 H 0.59599 0.6601 0.96846 0.0
C2504 C 0.62727 0.76705 0.94969 0.0
C2505 C 0.61286 0.77924 0.94189 0.0
C2506 C 0.61968 0.74601 0.95806 0.0
C2507 C 0.59761 0.73715 0.95926 0.0
C2508 C 0.58313 0.74931 0.95145 0.0
C2509 C 0.59069 0.77008 0.94247 0.0
C2510 C 0.57457 0.69883 1.00137 0.0
C2511 C 0.58103 0.67803 0.99451 0.0
C2512 C 0.57897 0.71758 0.9891 0.0
C2513 C 0.59016 0.71602 0.96997 0.0
C2514 C 0.59592 0.69499 0.96252 0.0
C2515 C 0.59122 0.67606 0.97454 0.0
H2516 H 0.0666 0.76411 0.74021 0.0
H2517 H 0.08047 0.77539 0.67171 0.0
H2518 H 0.10445 0.76619 0.7515 0.0
H2519 H 0.11797 0.77773 0.6831 0.0
H2520 H 0.17209 0.74429 0.70079 0.0
H2521 H 0.13549 0.74691 0.69145 0.0
H2522 H 0.14204 0.79386 0.75759 0.0
H2523 H 0.1788 0.79091 0.76708 0.0
C2524 C 0.07775 0.76738 0.72774 0.0
C2525 C 0.07059 0.76935 0.70507 0.0
C2526 C 0.09935 0.76867 0.73421 0.0
C2527 C 0.11393 0.77188 0.71804 0.0
C2528 C 0.10692 0.77488 0.69574 0.0
C2529 C 0.08546 0.77365 0.68931 0.0
C2530 C 0.16577 0.7554 0.71316 0.0
C2531 C 0.17811 0.76752 0.73455 0.0
C2532 C 0.1449 0.75691 0.70785 0.0
C2533 C 0.13611 0.77071 0.7238 0.0
C2534 C 0.14849 0.78297 0.74516 0.0
C2535 C 0.16941 0.78135 0.75053 0.0
H2536 H 0.11034 0.39759 0.49172 0.0
H2537 H 0.12235 0.43132 0.43243 0.0
H2538 H 0.10154 0.43264 0.51145 0.0
H2539 H 0.11237 0.46606 0.45155 0.0
H2540 H 0.11157 0.5329 0.50345 0.0
H2541 H 0.12211 0.49962 0.48239 0.0
H2542 H 0.0723 0.44979 0.50816 0.0
H2543 H 0.063 0.48344 0.53049 0.0
C2544 C 0.11135 0.41274 0.4831 0.0
C2545 C 0.11715 0.41203 0.46075 0.0
C2546 C 0.10597 0.43262 0.49418 0.0
C2547 C 0.10578 0.4519 0.48285 0.0
C2548 C 0.11249 0.45156 0.4608 0.0
C2549 C 0.11832 0.4318 0.4499 0.0
C2550 C 0.10318 0.5148 0.50478 0.0
C2551 C 0.08711 0.51045 0.51904 0.0
C2552 C 0.10892 0.49574 0.49244 0.0
C2553 C 0.0984 0.47207 0.49405 0.0
C2554 C 0.08119 0.46785 0.50717 0.0
C2555 C 0.07565 0.48696 0.51968 0.0
H2556 H 0.4508 0.26986 0.18106 0.0
H2557 H 0.46291 0.23446 0.238 0.0
H2558 H 0.42199 0.28184 0.19947 0.0
H2559 H 0.43486 0.24696 0.25651 0.0
H2560 H 0.36541 0.24566 0.26514 0.0
H2561 H 0.39578 0.23625 0.24854 0.0
H2562 H 0.41668 0.30806 0.23454 0.0
H2563 H 0.38594 0.31735 0.25077 0.0
C2564 C 0.44735 0.26473 0.19748 0.0
C2565 C 0.45885 0.25101 0.20799 0.0
C2566 C 0.43106 0.27173 0.20808 0.0
C2567 C 0.42624 0.2652 0.22934 0.0
C2568 C 0.43802 0.25185 0.23993 0.0
C2569 C 0.45407 0.24471 0.2293 0.0
C2570 C 0.3766 0.25947 0.25871 0.0
C2571 C 0.37338 0.28216 0.25918 0.0
C2572 C 0.39401 0.25415 0.24931 0.0
C2573 C 0.40846 0.27143 0.24019 0.0
C2574 C 0.4056 0.29437 0.24124 0.0
C2575 C 0.38821 0.29975 0.25079 0.0
H2576 H 0.62082 0.55869 0.35708 0.0
H2577 H 0.66494 0.52243 0.3833 0.0
H2578 H 0.60505 0.55918 0.39332 0.0
H2579 H 0.64944 0.52327 0.41988 0.0
H2580 H 0.62579 0.54207 0.49349 0.0
H2581 H 0.64321 0.54272 0.45789 0.0
H2582 H 0.5829 0.53982 0.41829 0.0
H2583 H 0.56581 0.53888 0.45329 0.0
C2584 C 0.62738 0.55077 0.37047 0.0
C2585 C 0.64456 0.54048 0.36622 0.0
C2586 C 0.61808 0.55095 0.39175 0.0
C2587 C 0.6255 0.54131 0.41075 0.0
C2588 C 0.64286 0.53123 0.40655 0.0
C2589 C 0.65187 0.5306 0.38504 0.0
C2590 C 0.6162 0.54199 0.47739 0.0
C2591 C 0.59398 0.54082 0.47733 0.0
C2592 C 0.62628 0.54207 0.45642 0.0
C2593 C 0.61498 0.54143 0.43406 0.0
C2594 C 0.59293 0.54067 0.43437 0.0
C2595 C 0.58288 0.54011 0.455 0.0
H2596 H 0.30086 0.87741 0.05372 0.0
H2597 H 0.36079 0.93411 0.06881 0.0
H2598 H 0.31293 0.86026 0.08628 0.0
H2599 H 0.373 0.91677 0.10054 0.0
H2600 H 0.36864 0.89765 0.17399 0.0
H2601 H 0.36076 0.91333 0.13901 0.0
H2602 H 0.3418 0.84141 0.09842 0.0
H2603 H 0.3496 0.8259 0.13332 0.0
C2604 C 0.31656 0.88602 0.06394 0.0
C2605 C 0.32966 0.9073 0.05943 0.0
C2606 C 0.32353 0.87622 0.08231 0.0
C2607 C 0.34377 0.88748 0.09588 0.0
C2608 C 0.35716 0.90816 0.0906 0.0
C2609 C 0.35011 0.91806 0.07258 0.0
C2610 C 0.36339 0.88546 0.15741 0.0
C2611 C 0.36003 0.86079 0.15597 0.0
C2612 C 0.35883 0.89428 0.13753 0.0
C2613 C 0.35059 0.87842 0.11622 0.0
C2614 C 0.34801 0.85386 0.11473 0.0
C2615 C 0.35278 0.8451 0.13452 0.0
H2616 H 1.00891 0.60069 0.90007 0.0
H2617 H 0.98871 0.52337 0.8868 0.0
H2618 H 0.02614 0.60084 0.93917 0.0
H2619 H 1.00581 0.5233 0.92528 0.0
H2620 H 0.0324 0.52848 0.99803 0.0
H2621 H 1.00749 0.53369 0.96691 0.0
H2622 H 0.05906 0.58825 0.94922 0.0
H2623 H 0.08357 0.58419 0.98151 0.0
C2624 C 1.00775 0.58387 0.90586 0.0
C2625 C 0.99803 0.56205 0.89077 0.0
C2626 C 0.0176 0.5839 0.92798 0.0
C2627 C 0.01744 0.56209 0.935 0.0
C2628 C 1.00605 0.54036 0.92038 0.0
C2629 C 0.99649 0.54036 0.89835 0.0
C2630 C 0.03821 0.54197 0.9878 0.0
C2631 C 0.05966 0.55627 0.99222 0.0
C2632 C 0.02402 0.54487 0.97001 0.0
C2633 C 0.03133 0.56159 0.95596 0.0
C2634 C 0.05289 0.57576 0.9603 0.0
C2635 C 0.06698 0.57317 0.97843 0.0
H2636 H 0.33118 0.2703 0.58021 0.0
H2637 H 0.28129 0.20718 0.58467 0.0
H2638 H 0.33167 0.28601 0.62167 0.0
H2639 H 0.28173 0.22245 0.62561 0.0
H2640 H 0.27584 0.26271 0.69603 0.0
H2641 H 0.27344 0.25194 0.65379 0.0
H2642 H 0.34284 0.2773 0.65957 0.0
H2643 H 0.34521 0.28813 0.7016 0.0
C2644 C 0.31998 0.26009 0.58988 0.0
C2645 C 0.30595 0.23768 0.57908 0.0
C2646 C 0.3204 0.26889 0.61373 0.0
C2647 C 0.30668 0.25556 0.62721 0.0
C2648 C 0.29228 0.2335 0.61597 0.0
C2649 C 0.29204 0.22469 0.59241 0.0
C2650 C 0.29057 0.26619 0.68829 0.0
C2651 C 0.3107 0.27626 0.70241 0.0
C2652 C 0.28923 0.25988 0.664 0.0
C2653 C 0.30796 0.26374 0.65302 0.0
C2654 C 0.32802 0.2743 0.66716 0.0
C2655 C 0.32938 0.28031 0.69142 0.0
H2656 H 0.68119 0.52889 0.20784 0.0
H2657 H 0.61981 0.51592 0.23289 0.0
H2658 H 0.66433 0.5341 0.17062 0.0
H2659 H 0.60263 0.51996 0.19495 0.0
H2660 H 0.57776 0.50488 0.11142 0.0
H2661 H 0.59324 0.50018 0.14981 0.0
H2662 H 0.64602 0.56284 0.15236 0.0
H2663 H 0.62987 0.56828 0.1147 0.0
C2664 C 0.66397 0.52672 0.2055 0.0
C2665 C 0.65223 0.52166 0.22417 0.0
C2666 C 0.65417 0.52993 0.18382 0.0
C2667 C 0.63175 0.52753 0.17891 0.0
C2668 C 0.61982 0.52195 0.19736 0.0
C2669 C 0.62981 0.51958 0.21946 0.0
C2670 C 0.59259 0.51788 0.12014 0.0
C2671 C 0.60221 0.53713 0.10928 0.0
C2672 C 0.60158 0.51518 0.14251 0.0
C2673 C 0.62127 0.53098 0.155 0.0
C2674 C 0.63101 0.55002 0.1439 0.0
C2675 C 0.62157 0.55325 0.122 0.0
H2676 H 0.29478 0.89238 0.91905 0.0
H2677 H 0.35326 0.87688 0.94537 0.0
H2678 H 0.29545 0.86949 0.88072 0.0
H2679 H 0.35397 0.85437 0.90719 0.0
H2680 H 0.35581 0.8344 0.82789 0.0
H2681 H 0.35713 0.86142 0.86464 0.0
H2682 H 0.29113 0.82374 0.8683 0.0
H2683 H 0.28995 0.79679 0.83194 0.0
C2684 C 0.30779 0.88423 0.91658 0.0
C2685 C 0.32375 0.88602 0.93514 0.0
C2686 C 0.30818 0.87121 0.89477 0.0
C2687 C 0.32476 0.86026 0.89123 0.0
C2688 C 0.34113 0.86282 0.90956 0.0
C2689 C 0.34056 0.87546 0.93139 0.0
C2690 C 0.34176 0.83188 0.83678 0.0
C2691 C 0.32296 0.81344 0.82758 0.0
C2692 C 0.34246 0.84728 0.85761 0.0
C2693 C 0.32414 0.84464 0.86901 0.0
C2694 C 0.30534 0.82621 0.85964 0.0
C2695 C 0.30479 0.81062 0.83913 0.0
H2696 H 0.01593 0.56172 0.77041 0.0
H2697 H 0.94893 0.52097 0.74999 0.0
H2698 H 0.02504 0.54037 0.73563 0.0
H2699 H 0.95818 0.49899 0.71605 0.0
H2700 H 0.98358 0.50471 0.64401 0.0
H2701 H 0.96903 0.50917 0.68034 0.0
H2702 H 0.02726 0.50134 0.71672 0.0
H2703 H 0.04234 0.49842 0.68074 0.0
C2704 C 1.00323 0.54824 0.75851 0.0
C2705 C 0.98176 0.54333 0.76262 0.0
C2706 C 1.00844 0.53566 0.7389 0.0
C2707 C 0.99228 0.51775 0.72337 0.0
C2708 C 0.97088 0.51273 0.72768 0.0
C2709 C 0.96563 0.52554 0.74701 0.0
C2710 C 0.99291 0.503 0.65963 0.0
C2711 C 1.01439 0.50228 0.65975 0.0
C2712 C 0.98455 0.50546 0.68045 0.0
C2713 C 0.99749 0.5066 0.70139 0.0
C2714 C 0.01733 0.50133 0.70082 0.0
C2715 C 0.0258 0.49925 0.68007 0.0
H2716 H 0.32724 0.21938 0.43588 0.0
H2717 H 0.27643 0.25334 0.44528 0.0
H2718 H 0.33126 0.23309 0.39886 0.0
H2719 H 0.27997 0.26648 0.40831 0.0
H2720 H 0.30667 0.31 0.35463 0.0
H2721 H 0.30118 0.29372 0.38962 0.0
H2722 H 0.31761 0.23045 0.35863 0.0
H2723 H 0.32361 0.24748 0.32333 0.0
C2724 C 0.31685 0.22972 0.4301 0.0
C2725 C 0.30155 0.23526 0.44396 0.0
C2726 C 0.31903 0.23747 0.4086 0.0
C2727 C 0.30602 0.25112 0.4001 0.0
C2728 C 0.29067 0.25646 0.41403 0.0
C2729 C 0.28852 0.24875 0.43543 0.0
C2730 C 0.3087 0.29234 0.35496 0.0
C2731 C 0.31512 0.27992 0.33568 0.0
C2732 C 0.30549 0.28287 0.37525 0.0
C2733 C 0.30876 0.26048 0.37745 0.0
C2734 C 0.31495 0.24776 0.35797 0.0
C2735 C 0.31802 0.2573 0.33739 0.0
H2736 H 0.34076 0.59164 0.49483 0.0
H2737 H 0.37714 0.64064 0.5564 0.0
H2738 H 0.37268 0.5784 0.48733 0.0
H2739 H 0.40903 0.62717 0.54951 0.0
H2740 H 0.46631 0.60536 0.52429 0.0
H2741 H 0.4368 0.62425 0.52535 0.0
H2742 H 0.39052 0.55429 0.50656 0.0
H2743 H 0.41973 0.5357 0.50516 0.0
C2744 C 0.35579 0.59977 0.50647 0.0
C2745 C 0.35685 0.61694 0.52613 0.0
C2746 C 0.37396 0.59216 0.50235 0.0
C2747 C 0.39329 0.60157 0.51799 0.0
C2748 C 0.39446 0.61974 0.53705 0.0
C2749 C 0.37628 0.62732 0.54112 0.0
C2750 C 0.44979 0.59415 0.52031 0.0
C2751 C 0.44525 0.5691 0.51449 0.0
C2752 C 0.43295 0.60491 0.52088 0.0
C2753 C 0.41135 0.59076 0.51578 0.0
C2754 C 0.40695 0.56575 0.50993 0.0
C2755 C 0.42369 0.55507 0.50923 0.0
H2756 H 0.89947 0.97804 0.56127 0.0
H2757 H 0.92209 0.91548 0.54546 0.0
H2758 H 0.93475 1.00342 0.55856 0.0
H2759 H 0.957 0.94037 0.54117 0.0
H2760 H 0.02499 0.99003 0.54734 0.0
H2761 H 0.98981 0.9641 0.55039 0.0
H2762 H 0.96149 0.02207 0.54278 0.0
H2763 H 0.99691 0.04798 0.54198 0.0
C2764 C 0.91199 0.96962 0.55709 0.0
C2765 C 0.90767 0.94455 0.55375 0.0
C2766 C 0.93252 0.9843 0.55516 0.0
C2767 C 0.94963 0.97455 0.54943 0.0
C2768 C 0.94503 0.94929 0.546 0.0
C2769 C 0.92461 0.9347 0.54826 0.0
C2770 C 1.01118 0.99709 0.54632 0.0
C2771 C 1.01398 0.02119 0.54458 0.0
C2772 C 0.99063 0.9821 0.54794 0.0
C2773 C 0.97191 0.99045 0.54717 0.0
C2774 C 0.97493 1.01449 0.54439 0.0
C2775 C 0.9955 0.02955 0.54354 0.0
H2776 H 0.92368 0.14977 0.28612 0.0
H2777 H 0.87284 0.11117 0.23053 0.0
H2778 H 0.90827 0.18397 0.2899 0.0
H2779 H 0.8573 0.14513 0.23426 0.0
H2780 H 0.82193 0.20367 0.25377 0.0
H2781 H 0.83785 0.17015 0.25055 0.0
H2782 H 0.8999 0.21874 0.28029 0.0
H2783 H 0.88376 0.25247 0.28339 0.0
C2784 C 0.90915 0.14827 0.27457 0.0
C2785 C 0.89993 0.12671 0.25792 0.0
C2786 C 0.90013 0.16841 0.27668 0.0
C2787 C 0.88096 0.16851 0.26255 0.0
C2788 C 0.87174 0.14679 0.24601 0.0
C2789 C 0.88091 0.12682 0.24369 0.0
C2790 C 0.83904 0.20758 0.25971 0.0
C2791 C 0.85107 0.23179 0.26891 0.0
C2792 C 0.84846 0.18784 0.25769 0.0
C2793 C 0.87074 0.19052 0.26494 0.0
C2794 C 0.88279 0.21479 0.27441 0.0
C2795 C 0.87337 0.23466 0.27616 0.0
H2796 H 0.73885 0.15563 0.05978 0.0
H2797 H 0.73789 0.08879 0.01634 0.0
H2798 H 0.70007 0.14193 0.05852 0.0
H2799 H 0.69859 0.07524 0.01457 0.0
H2800 H 0.63774 0.04974 0.04891 0.0
H2801 H 0.67578 0.06426 0.04498 0.0
H2802 H 0.66571 0.13116 0.03171 0.0
H2803 H 0.6274 0.11629 0.03563 0.0
C2804 C 0.73025 0.1381 0.04968 0.0
C2805 C 0.74125 0.12303 0.03841 0.0
C2806 C 0.70806 0.13039 0.04883 0.0
C2807 C 0.69651 0.10759 0.0365 0.0
C2808 C 0.70736 0.09281 0.02446 0.0
C2809 C 0.72969 0.10046 0.0255 0.0
C2810 C 0.64387 0.06767 0.04552 0.0
C2811 C 0.63024 0.08233 0.04308 0.0
C2812 C 0.66541 0.07577 0.04285 0.0
C2813 C 0.67348 0.09869 0.03787 0.0
C2814 C 0.65974 0.11342 0.0356 0.0
C2815 C 0.63806 0.10512 0.03797 0.0
H2816 H 0.20431 0.48313 0.26144 0.0
H2817 H 0.25773 0.53923 0.30197 0.0
H2818 H 0.22201 0.45312 0.27042 0.0
H2819 H 0.27454 0.50948 0.31322 0.0
H2820 H 0.31342 0.45732 0.29938 0.0
H2821 H 0.29339 0.4861 0.29591 0.0
H2822 H 0.23377 0.43146 0.29572 0.0
H2823 H 0.25423 0.40204 0.29745 0.0
C2824 C 0.21967 0.48881 0.27274 0.0
C2825 C 0.23006 0.51313 0.2808 0.0
C2826 C 0.2297 0.47172 0.27815 0.0
C2827 C 0.24988 0.47886 0.29234 0.0
C2828 C 0.25941 0.50335 0.30158 0.0
C2829 C 0.2498 0.5204 0.29536 0.0
C2830 C 0.29606 0.45161 0.299 0.0
C2831 C 0.2853 0.42771 0.29891 0.0
C2832 C 0.28451 0.46814 0.29718 0.0
C2833 C 0.26192 0.46126 0.29585 0.0
C2834 C 0.25114 0.43732 0.29645 0.0
C2835 C 0.26277 0.42055 0.29766 0.0
H2836 H 0.26585 0.40898 0.03796 0.0
H2837 H 0.30513 0.48093 0.06646 0.0
H2838 H 0.23374 0.42373 0.03375 0.0
H2839 H 0.27337 0.49571 0.06186 0.0
H2840 H 0.21725 0.51906 0.03139 0.0
H2841 H 0.24732 0.50145 0.03152 0.0
H2842 H 0.21019 0.44205 0.05837 0.0
H2843 H 0.17968 0.4594 0.05771 0.0
C2844 C 0.26768 0.42798 0.04304 0.0
C2845 C 0.28813 0.44379 0.05246 0.0
C2846 C 0.24924 0.43642 0.0408 0.0
C2847 C 0.25087 0.46099 0.04735 0.0
C2848 C 0.27143 0.47674 0.05638 0.0
C2849 C 0.28968 0.46825 0.05913 0.0
C2850 C 0.2152 0.50203 0.03695 0.0
C2851 C 0.19585 0.49084 0.04464 0.0
C2852 C 0.23266 0.49203 0.03728 0.0
C2853 C 0.23141 0.47041 0.04521 0.0
C2854 C 0.21181 0.45868 0.0521 0.0
C2855 C 0.19434 0.4688 0.05193 0.0
H2856 H 0.93067 0.97729 0.28188 0.0
H2857 H 0.87297 0.99396 0.25629 0.0
H2858 H 0.90965 0.93747 0.2848 0.0
H2859 H 0.85165 0.95365 0.25869 0.0
H2860 H 0.81212 0.88332 0.27636 0.0
H2861 H 0.83355 0.92272 0.27325 0.0
H2862 H 0.89071 0.89809 0.27652 0.0
H2863 H 0.86882 0.85834 0.28035 0.0
C2864 C 0.91338 0.97267 0.27676 0.0
C2865 C 0.90403 0.98998 0.26889 0.0
C2866 C 0.90102 0.94912 0.27833 0.0
C2867 C 0.87823 0.9409 0.27218 0.0
C2868 C 0.86886 0.95826 0.26416 0.0
C2869 C 0.88131 0.98193 0.26257 0.0
C2870 C 0.8293 0.88599 0.27646 0.0
C2871 C 0.83814 0.86659 0.27865 0.0
C2872 C 0.84192 0.90919 0.27442 0.0
C2873 C 0.86458 0.91502 0.27434 0.0
C2874 C 0.87359 0.89552 0.27659 0.0
C2875 C 0.8608 0.87208 0.2787 0.0
H2876 H 0.70912 0.12052 0.73359 0.0
H2877 H 0.71038 0.14549 0.80671 0.0
H2878 H 0.73972 0.15422 0.73281 0.0
H2879 H 0.73974 0.18076 0.80576 0.0
H2880 H 0.80529 0.22445 0.80795 0.0
H2881 H 0.77666 0.18728 0.80426 0.0
H2882 H 0.75346 0.1946 0.73496 0.0
H2883 H 0.78306 0.23018 0.73805 0.0
C2884 C 0.71518 0.13421 0.74912 0.0
C2885 C 0.70752 0.13102 0.77012 0.0
C2886 C 0.73284 0.15331 0.7488 0.0
C2887 C 0.74247 0.16975 0.76938 0.0
C2888 C 0.73315 0.1678 0.78984 0.0
C2889 C 0.71598 0.14818 0.79031 0.0
C2890 C 0.79445 0.21739 0.79171 0.0
C2891 C 0.79589 0.22993 0.77339 0.0
C2892 C 0.77791 0.1965 0.78969 0.0
C2893 C 0.76232 0.18869 0.76969 0.0
C2894 C 0.76515 0.20017 0.7506 0.0
C2895 C 0.78211 0.22053 0.75234 0.0
loop_
_geom_bond_atom_site_label_1
_geom_bond_atom_site_label_2
_geom_bond_distance
_geom_bond_site_symmetry_2
_ccdc_geom_bond_type
O0 Cd1 2.223 . S
O0 C8 1.315 . S
Cd1 O0 2.223 . S
Cd1 O4 2.297 . S
Cd1 O5 2.439 . S
Cd1 O11 2.240 . S
Cd2 O3 2.240 . S
Cd2 O10 2.223 . S
Cd2 O12 2.297 . S
Cd2 O13 2.439 . S
O3 Cd2 2.240 . S
O3 C8 1.279 . S
O4 Cd1 2.297 . S
O4 C6 1.247 . S
O5 Cd1 2.439 . S
O5 C6 1.208 . S
C6 O4 1.247 . S
C6 O5 1.208 . S
C7 O12 1.247 . S
C7 O13 1.208 . S
C8 O0 1.315 . S
C8 O3 1.279 . S
C9 O10 1.315 . S
C9 O11 1.279 . S
O10 Cd2 2.223 . S
O10 C9 1.315 . S
O11 Cd1 2.240 . S
O11 C9 1.279 . S
O12 Cd2 2.297 . S
O12 C7 1.247 . S
O13 Cd2 2.439 . S
O13 C7 1.208 . S
O14 Cd15 2.223 . S
O14 C22 1.315 . S
Cd15 O14 2.223 . S
Cd15 O18 2.297 . S
Cd15 O19 2.439 . S
Cd15 O25 2.240 1_655 S
Cd16 O17 2.240 1_455 S
Cd16 O24 2.223 . S
Cd16 O26 2.297 . S
Cd16 O27 2.450 . S
O17 Cd16 2.240 1_655 S
O17 C22 1.279 . S
O18 Cd15 2.297 . S
O18 C20 1.247 . S
O19 Cd15 2.439 . S
O19 C20 1.208 . S
C20 O18 1.247 . S
C20 O19 1.208 . S
C21 O26 1.247 . S
C21 O27 1.221 . S
C22 O14 1.315 . S
C22 O17 1.279 . S
C23 O24 1.315 . S
C23 O25 1.279 . S
O24 Cd16 2.223 . S
O24 C23 1.315 . S
O25 Cd15 2.240 1_455 S
O25 C23 1.279 . S
O26 Cd16 2.297 . S
O26 C21 1.247 . S
O27 Cd16 2.450 . S
O27 C21 1.221 . S
O28 Cd29 2.223 . S
O28 C36 1.315 . S
Cd29 O28 2.223 . S
Cd29 O32 2.297 . S
Cd29 O33 2.439 . S
Cd29 O39 2.240 . S
Cd30 O31 2.240 . S
Cd30 O38 2.223 . S
Cd30 O40 2.297 . S
Cd30 O41 2.439 . S
O31 Cd30 2.240 . S
O31 C36 1.279 . S
O32 Cd29 2.297 . S
O32 C34 1.247 . S
O33 Cd29 2.439 . S
O33 C34 1.208 . S
C34 O32 1.247 . S
C34 O33 1.208 . S
C35 O40 1.247 . S
C35 O41 1.208 . S
C36 O28 1.315 . S
C36 O31 1.279 . S
C37 O38 1.315 . S
C37 O39 1.279 . S
O38 Cd30 2.223 . S
O38 C37 1.315 . S
O39 Cd29 2.240 . S
O39 C37 1.279 . S
O40 Cd30 2.297 . S
O40 C35 1.247 . S
O41 Cd30 2.439 . S
O41 C35 1.208 . S
O42 Cd43 2.223 . S
O42 C50 1.315 . S
Cd43 O42 2.223 . S
Cd43 O46 2.297 . S
Cd43 O47 2.439 . S
Cd43 O53 2.240 . S
Cd44 O45 2.240 . S
Cd44 O52 2.223 . S
Cd44 O54 2.297 . S
Cd44 O55 2.439 . S
O45 Cd44 2.240 . S
O45 C50 1.279 . S
O46 Cd43 2.297 . S
O46 C48 1.247 . S
O47 Cd43 2.439 . S
O47 C48 1.208 . S
C48 O46 1.247 . S
C48 O47 1.208 . S
C49 O54 1.247 . S
C49 O55 1.208 . S
C50 O42 1.315 . S
C50 O45 1.279 . S
C51 O52 1.315 . S
C51 O53 1.279 . S
O52 Cd44 2.223 . S
O52 C51 1.315 . S
O53 Cd43 2.240 . S
O53 C51 1.279 . S
O54 Cd44 2.297 . S
O54 C49 1.247 . S
O55 Cd44 2.439 . S
O55 C49 1.208 . S
O56 Cd57 2.223 . S
O56 C64 1.315 . S
Cd57 O56 2.223 . S
Cd57 O60 2.297 . S
Cd57 O61 2.439 . S
Cd57 O67 2.240 . S
Cd58 O59 2.240 . S
Cd58 O66 2.223 . S
Cd58 O68 2.297 . S
Cd58 O69 2.439 . S
O59 Cd58 2.240 . S
O59 C64 1.279 . S
O60 Cd57 2.297 . S
O60 C62 1.247 . S
O61 Cd57 2.439 . S
O61 C62 1.208 . S
C62 O60 1.247 . S
C62 O61 1.208 . S
C63 O68 1.247 . S
C63 O69 1.208 . S
C64 O56 1.315 . S
C64 O59 1.279 . S
C65 O66 1.315 . S
C65 O67 1.279 . S
O66 Cd58 2.223 . S
O66 C65 1.315 . S
O67 Cd57 2.240 . S
O67 C65 1.279 . S
O68 Cd58 2.297 . S
O68 C63 1.247 . S
O69 Cd58 2.439 . S
O69 C63 1.208 . S
O70 Cd71 2.223 . S
O70 C78 1.315 . S
Cd71 O70 2.223 . S
Cd71 O74 2.297 . S
Cd71 O75 2.439 . S
Cd71 O81 2.240 . S
Cd72 O73 2.240 . S
Cd72 O80 2.223 . S
Cd72 O82 2.297 . S
Cd72 O83 2.439 . S
O73 Cd72 2.240 . S
O73 C78 1.279 . S
O74 Cd71 2.297 . S
O74 C76 1.247 . S
O75 Cd71 2.439 . S
O75 C76 1.208 . S
C76 O74 1.247 . S
C76 O75 1.208 . S
C77 O82 1.247 . S
C77 O83 1.208 . S
C78 O70 1.315 . S
C78 O73 1.279 . S
C79 O80 1.315 . S
C79 O81 1.279 . S
O80 Cd72 2.223 . S
O80 C79 1.315 . S
O81 Cd71 2.240 . S
O81 C79 1.279 . S
O82 Cd72 2.297 . S
O82 C77 1.247 . S
O83 Cd72 2.439 . S
O83 C77 1.208 . S
O84 Cd85 2.223 . S
O84 C92 1.315 . S
Cd85 O84 2.223 . S
Cd85 O88 2.297 . S
Cd85 O89 2.439 . S
Cd85 O95 2.240 . S
Cd86 O87 2.240 . S
Cd86 O94 2.223 . S
Cd86 O96 2.297 . S
Cd86 O97 2.439 . S
O87 Cd86 2.240 . S
O87 C92 1.279 . S
O88 Cd85 2.297 . S
O88 C90 1.247 . S
O89 Cd85 2.439 . S
O89 C90 1.208 . S
C90 O88 1.247 . S
C90 O89 1.208 . S
C91 O96 1.247 . S
C91 O97 1.208 . S
C92 O84 1.315 . S
C92 O87 1.279 . S
C93 O94 1.315 . S
C93 O95 1.279 . S
O94 Cd86 2.223 . S
O94 C93 1.315 . S
O95 Cd85 2.240 . S
O95 C93 1.279 . S
O96 Cd86 2.297 . S
O96 C91 1.247 . S
O97 Cd86 2.439 . S
O97 C91 1.208 . S
O98 Cd99 2.223 . S
O98 C106 1.315 . S
Cd99 O98 2.223 . S
Cd99 O102 2.297 . S
Cd99 O103 2.439 . S
Cd99 O109 2.240 . S
Cd100 O101 2.240 . S
Cd100 O108 2.223 1_455 S
Cd100 O110 2.297 . S
Cd100 O111 2.439 . S
O101 Cd100 2.240 . S
O101 C106 1.279 . S
O102 Cd99 2.297 . S
O102 C104 1.247 . S
O103 Cd99 2.439 . S
O103 C104 1.208 . S
C104 O102 1.247 . S
C104 O103 1.208 . S
C105 O110 1.247 . S
C105 O111 1.208 . S
C106 O98 1.315 . S
C106 O101 1.279 . S
C107 O108 1.315 . S
C107 O109 1.279 1_655 S
O108 Cd100 2.223 1_655 S
O108 C107 1.315 . S
O109 Cd99 2.240 . S
O109 C107 1.279 1_455 S
O110 Cd100 2.297 . S
O110 C105 1.247 . S
O111 Cd100 2.439 . S
O111 C105 1.208 . S
O112 Cd113 2.223 1_565 S
O112 C120 1.315 1_565 S
Cd113 O112 2.223 1_545 S
Cd113 O116 2.297 . S
Cd113 O117 2.439 . S
Cd113 O123 2.240 1_545 S
Cd114 O115 2.216 1_565 S
Cd114 O122 2.253 . S
Cd114 O124 2.314 . S
Cd114 O125 2.423 1_565 S
O115 Cd114 2.216 1_545 S
O115 C120 1.279 . S
O116 Cd113 2.297 . S
O116 C118 1.247 . S
O117 Cd113 2.439 . S
O117 C118 1.208 . S
C118 O116 1.247 . S
C118 O117 1.208 . S
C119 O124 1.247 1_545 S
C119 O125 1.208 . S
C120 O112 1.315 1_545 S
C120 O115 1.279 . S
C121 O122 1.315 . S
C121 O123 1.279 . S
O122 Cd114 2.253 . S
O122 C121 1.315 . S
O123 Cd113 2.240 1_565 S
O123 C121 1.279 . S
O124 Cd114 2.314 . S
O124 C119 1.247 1_565 S
O125 Cd114 2.423 1_545 S
O125 C119 1.208 . S
O126 Cd127 2.223 . S
O126 C134 1.315 . S
Cd127 O126 2.223 . S
Cd127 O130 2.297 . S
Cd127 O131 2.439 . S
Cd127 O137 2.240 . S
Cd128 O129 2.240 . S
Cd128 O136 2.223 . S
Cd128 O138 2.297 . S
Cd128 O139 2.439 . S
O129 Cd128 2.240 . S
O129 C134 1.279 . S
O130 Cd127 2.297 . S
O130 C132 1.247 . S
O131 Cd127 2.439 . S
O131 C132 1.208 . S
C132 O130 1.247 . S
C132 O131 1.208 . S
C133 O138 1.247 . S
C133 O139 1.208 . S
C134 O126 1.315 . S
C134 O129 1.279 . S
C135 O136 1.315 . S
C135 O137 1.279 . S
O136 Cd128 2.223 . S
O136 C135 1.315 . S
O137 Cd127 2.240 . S
O137 C135 1.279 . S
O138 Cd128 2.297 . S
O138 C133 1.247 . S
O139 Cd128 2.439 . S
O139 C133 1.208 . S
O140 Cd141 2.223 1_545 S
O140 C148 1.315 1_545 S
Cd141 O140 2.223 1_565 S
Cd141 O144 2.297 . S
Cd141 O145 2.439 . S
Cd141 O151 2.240 1_565 S
Cd142 O143 2.240 1_545 S
Cd142 O150 2.223 . S
Cd142 O152 2.297 . S
Cd142 O153 2.439 1_545 S
O143 Cd142 2.240 1_565 S
O143 C148 1.279 . S
O144 Cd141 2.297 . S
O144 C146 1.247 . S
O145 Cd141 2.439 . S
O145 C146 1.208 . S
C146 O144 1.247 . S
C146 O145 1.208 . S
C147 O152 1.247 . S
C147 O153 1.208 1_545 S
C148 O140 1.315 1_565 S
C148 O143 1.279 . S
C149 O150 1.315 . S
C149 O151 1.279 . S
O150 Cd142 2.223 . S
O150 C149 1.315 . S
O151 Cd141 2.240 1_545 S
O151 C149 1.279 . S
O152 Cd142 2.297 . S
O152 C147 1.247 . S
O153 Cd142 2.439 1_565 S
O153 C147 1.208 1_565 S
O154 Cd155 2.223 . S
O154 C162 1.315 . S
Cd155 O154 2.223 . S
Cd155 O158 2.297 . S
Cd155 O159 2.439 1_554 S
Cd155 O165 2.215 1_554 S
Cd156 O157 2.240 1_556 S
Cd156 O164 2.223 1_556 S
Cd156 O166 2.297 . S
Cd156 O167 2.439 . S
O157 Cd156 2.240 1_554 S
O157 C162 1.279 . S
O158 Cd155 2.297 . S
O158 C160 1.247 . S
O159 Cd155 2.439 1_556 S
O159 C160 1.208 1_556 S
C160 O158 1.247 . S
C160 O159 1.208 1_554 S
C161 O166 1.247 . S
C161 O167 1.208 . S
C162 O154 1.315 . S
C162 O157 1.279 . S
C163 O164 1.315 . S
C163 O165 1.265 1_554 S
O164 Cd156 2.223 1_554 S
O164 C163 1.315 . S
O165 Cd155 2.215 1_556 S
O165 C163 1.265 1_556 S
O166 Cd156 2.297 . S
O166 C161 1.247 . S
O167 Cd156 2.439 . S
O167 C161 1.208 . S
O168 Cd169 2.223 . S
O168 C176 1.315 . S
Cd169 O168 2.223 . S
Cd169 O172 2.297 . S
Cd169 O173 2.439 . S
Cd169 O179 2.240 . S
Cd170 O171 2.240 . S
Cd170 O178 2.223 . S
Cd170 O180 2.297 1_554 S
Cd170 O181 2.439 1_554 S
O171 Cd170 2.240 . S
O171 C176 1.279 . S
O172 Cd169 2.297 . S
O172 C174 1.247 . S
O173 Cd169 2.439 . S
O173 C174 1.208 . S
C174 O172 1.247 . S
C174 O173 1.208 . S
C175 O180 1.247 . S
C175 O181 1.208 . S
C176 O168 1.315 . S
C176 O171 1.279 . S
C177 O178 1.315 . S
C177 O179 1.279 . S
O178 Cd170 2.223 . S
O178 C177 1.315 . S
O179 Cd169 2.240 . S
O179 C177 1.279 . S
O180 Cd170 2.297 1_556 S
O180 C175 1.247 . S
O181 Cd170 2.439 1_556 S
O181 C175 1.208 . S
O182 Cd183 2.223 . S
O182 C190 1.315 . S
Cd183 O182 2.223 . S
Cd183 O186 2.297 . S
Cd183 O187 2.439 . S
Cd183 O193 2.240 . S
Cd184 O185 2.240 . S
Cd184 O192 2.223 . S
Cd184 O194 2.297 1_554 S
Cd184 O195 2.439 1_554 S
O185 Cd184 2.240 . S
O185 C190 1.279 . S
O186 Cd183 2.297 . S
O186 C188 1.247 . S
O187 Cd183 2.439 . S
O187 C188 1.208 . S
C188 O186 1.247 . S
C188 O187 1.208 . S
C189 O194 1.247 . S
C189 O195 1.208 . S
C190 O182 1.315 . S
C190 O185 1.279 . S
C191 O192 1.315 . S
C191 O193 1.279 . S
O192 Cd184 2.223 . S
O192 C191 1.315 . S
O193 Cd183 2.240 . S
O193 C191 1.279 . S
O194 Cd184 2.297 1_556 S
O194 C189 1.247 . S
O195 Cd184 2.439 1_556 S
O195 C189 1.208 . S
O196 Cd197 2.223 . S
O196 C204 1.315 . S
Cd197 O196 2.223 . S
Cd197 O200 2.297 . S
Cd197 O201 2.439 . S
Cd197 O207 2.240 . S
Cd198 O199 2.240 . S
Cd198 O206 2.223 . S
Cd198 O208 2.297 . S
Cd198 O209 2.439 . S
O199 Cd198 2.240 . S
O199 C204 1.279 . S
O200 Cd197 2.297 . S
O200 C202 1.247 . S
O201 Cd197 2.439 . S
O201 C202 1.208 . S
C202 O200 1.247 . S
C202 O201 1.208 . S
C203 O208 1.247 . S
C203 O209 1.208 . S
C204 O196 1.315 . S
C204 O199 1.279 . S
C205 O206 1.315 . S
C205 O207 1.279 . S
O206 Cd198 2.223 . S
O206 C205 1.315 . S
O207 Cd197 2.240 . S
O207 C205 1.279 . S
O208 Cd198 2.297 . S
O208 C203 1.247 . S
O209 Cd198 2.439 . S
O209 C203 1.208 . S
O210 Cd211 2.223 . S
O210 C218 1.315 . S
Cd211 O210 2.223 . S
Cd211 O214 2.297 . S
Cd211 O215 2.439 . S
Cd211 O221 2.240 . S
Cd212 O213 2.240 . S
Cd212 O220 2.223 . S
Cd212 O222 2.297 . S
Cd212 O223 2.439 . S
O213 Cd212 2.240 . S
O213 C218 1.279 . S
O214 Cd211 2.297 . S
O214 C216 1.247 . S
O215 Cd211 2.439 . S
O215 C216 1.208 . S
C216 O214 1.247 . S
C216 O215 1.208 . S
C217 O222 1.247 . S
C217 O223 1.208 . S
C218 O210 1.315 . S
C218 O213 1.279 . S
C219 O220 1.315 . S
C219 O221 1.279 . S
O220 Cd212 2.223 . S
O220 C219 1.315 . S
O221 Cd211 2.240 . S
O221 C219 1.279 . S
O222 Cd212 2.297 . S
O222 C217 1.247 . S
O223 Cd212 2.439 . S
O223 C217 1.208 . S
O224 Cd225 2.223 . S
O224 C232 1.315 . S
Cd225 O224 2.223 . S
Cd225 O228 2.297 . S
Cd225 O229 2.439 . S
Cd225 O235 2.240 . S
Cd226 O227 2.240 . S
Cd226 O234 2.223 . S
Cd226 O236 2.297 . S
Cd226 O237 2.439 . S
O227 Cd226 2.240 . S
O227 C232 1.279 . S
O228 Cd225 2.297 . S
O228 C230 1.247 . S
O229 Cd225 2.439 . S
O229 C230 1.208 . S
C230 O228 1.247 . S
C230 O229 1.208 . S
C231 O236 1.247 . S
C231 O237 1.208 . S
C232 O224 1.315 . S
C232 O227 1.279 . S
C233 O234 1.315 . S
C233 O235 1.279 . S
O234 Cd226 2.223 . S
O234 C233 1.315 . S
O235 Cd225 2.240 . S
O235 C233 1.279 . S
O236 Cd226 2.297 . S
O236 C231 1.247 . S
O237 Cd226 2.439 . S
O237 C231 1.208 . S
O238 Cd239 2.223 . S
O238 C246 1.315 . S
Cd239 O238 2.223 . S
Cd239 O242 2.297 . S
Cd239 O243 2.439 . S
Cd239 O249 2.240 . S
Cd240 O241 2.240 . S
Cd240 O248 2.223 . S
Cd240 O250 2.297 . S
Cd240 O251 2.439 . S
O241 Cd240 2.240 . S
O241 C246 1.279 . S
O242 Cd239 2.297 . S
O242 C244 1.247 . S
O243 Cd239 2.439 . S
O243 C244 1.208 . S
C244 O242 1.247 . S
C244 O243 1.208 . S
C245 O250 1.247 . S
C245 O251 1.208 . S
C246 O238 1.315 . S
C246 O241 1.279 . S
C247 O248 1.315 . S
C247 O249 1.279 . S
O248 Cd240 2.223 . S
O248 C247 1.315 . S
O249 Cd239 2.240 . S
O249 C247 1.279 . S
O250 Cd240 2.297 . S
O250 C245 1.247 . S
O251 Cd240 2.439 . S
O251 C245 1.208 . S
O252 Cd253 2.223 . S
O252 C260 1.315 . S
Cd253 O252 2.223 . S
Cd253 O256 2.297 . S
Cd253 O257 2.439 . S
Cd253 O263 2.240 . S
Cd254 O255 2.240 . S
Cd254 O262 2.223 . S
Cd254 O264 2.297 . S
Cd254 O265 2.439 . S
O255 Cd254 2.240 . S
O255 C260 1.279 . S
O256 Cd253 2.297 . S
O256 C258 1.247 . S
O257 Cd253 2.439 . S
O257 C258 1.208 . S
C258 O256 1.247 . S
C258 O257 1.208 . S
C259 O264 1.247 . S
C259 O265 1.208 . S
C260 O252 1.315 . S
C260 O255 1.279 . S
C261 O262 1.315 . S
C261 O263 1.279 . S
O262 Cd254 2.223 . S
O262 C261 1.315 . S
O263 Cd253 2.240 . S
O263 C261 1.279 . S
O264 Cd254 2.297 . S
O264 C259 1.247 . S
O265 Cd254 2.439 . S
O265 C259 1.208 . S
O266 Cd267 2.223 . S
O266 C274 1.315 . S
Cd267 O266 2.223 . S
Cd267 O270 2.297 . S
Cd267 O271 2.439 . S
Cd267 O277 2.240 . S
Cd268 O269 2.240 . S
Cd268 O276 2.223 . S
Cd268 O278 2.297 . S
Cd268 O279 2.439 . S
O269 Cd268 2.240 . S
O269 C274 1.279 . S
O270 Cd267 2.297 . S
O270 C272 1.247 . S
O271 Cd267 2.439 . S
O271 C272 1.208 . S
C272 O270 1.247 . S
C272 O271 1.208 . S
C273 O278 1.247 . S
C273 O279 1.208 . S
C274 O266 1.315 . S
C274 O269 1.279 . S
C275 O276 1.315 . S
C275 O277 1.279 . S
O276 Cd268 2.223 . S
O276 C275 1.315 . S
O277 Cd267 2.240 . S
O277 C275 1.279 . S
O278 Cd268 2.297 . S
O278 C273 1.247 . S
O279 Cd268 2.439 . S
O279 C273 1.208 . S
O280 Cd281 2.223 . S
O280 C288 1.315 . S
Cd281 O280 2.223 . S
Cd281 O284 2.297 . S
Cd281 O285 2.439 . S
Cd281 O291 2.240 . S
Cd282 O283 2.240 . S
Cd282 O290 2.223 . S
Cd282 O292 2.297 1_554 S
Cd282 O293 2.439 1_554 S
O283 Cd282 2.240 . S
O283 C288 1.279 . S
O284 Cd281 2.297 . S
O284 C286 1.247 . S
O285 Cd281 2.439 . S
O285 C286 1.208 . S
C286 O284 1.247 . S
C286 O285 1.208 . S
C287 O292 1.247 . S
C287 O293 1.208 . S
C288 O280 1.315 . S
C288 O283 1.279 . S
C289 O290 1.315 . S
C289 O291 1.279 . S
O290 Cd282 2.223 . S
O290 C289 1.315 . S
O291 Cd281 2.240 . S
O291 C289 1.279 . S
O292 Cd282 2.297 1_556 S
O292 C287 1.247 . S
O293 Cd282 2.439 1_556 S
O293 C287 1.208 . S
O294 Cd295 2.223 . S
O294 C302 1.315 . S
Cd295 O294 2.223 . S
Cd295 O298 2.297 . S
Cd295 O299 2.439 . S
Cd295 O305 2.240 . S
Cd296 O297 2.240 . S
Cd296 O304 2.223 . S
Cd296 O306 2.297 . S
Cd296 O307 2.439 . S
O297 Cd296 2.240 . S
O297 C302 1.279 . S
O298 Cd295 2.297 . S
O298 C300 1.247 . S
O299 Cd295 2.439 . S
O299 C300 1.208 . S
C300 O298 1.247 . S
C300 O299 1.208 . S
C301 O306 1.247 . S
C301 O307 1.208 . S
C302 O294 1.315 . S
C302 O297 1.279 . S
C303 O304 1.315 . S
C303 O305 1.279 . S
O304 Cd296 2.223 . S
O304 C303 1.315 . S
O305 Cd295 2.240 . S
O305 C303 1.279 . S
O306 Cd296 2.297 . S
O306 C301 1.247 . S
O307 Cd296 2.439 . S
O307 C301 1.208 . S
O308 Cd309 2.223 . S
O308 C316 1.315 . S
Cd309 O308 2.223 . S
Cd309 O312 2.297 . S
Cd309 O313 2.439 . S
Cd309 O319 2.240 . S
Cd310 O311 2.240 . S
Cd310 O318 2.223 . S
Cd310 O320 2.297 . S
Cd310 O321 2.439 . S
O311 Cd310 2.240 . S
O311 C316 1.279 . S
O312 Cd309 2.297 . S
O312 C314 1.247 . S
O313 Cd309 2.439 . S
O313 C314 1.208 . S
C314 O312 1.247 . S
C314 O313 1.208 . S
C315 O320 1.247 . S
C315 O321 1.208 . S
C316 O308 1.315 . S
C316 O311 1.279 . S
C317 O318 1.315 . S
C317 O319 1.279 . S
O318 Cd310 2.223 . S
O318 C317 1.315 . S
O319 Cd309 2.240 . S
O319 C317 1.279 . S
O320 Cd310 2.297 . S
O320 C315 1.247 . S
O321 Cd310 2.439 . S
O321 C315 1.208 . S
O322 Cd323 2.223 . S
O322 C330 1.315 . S
Cd323 O322 2.223 . S
Cd323 O326 2.297 . S
Cd323 O327 2.439 . S
Cd323 O333 2.240 . S
Cd324 O325 2.240 . S
Cd324 O332 2.223 . S
Cd324 O334 2.297 . S
Cd324 O335 2.439 . S
O325 Cd324 2.240 . S
O325 C330 1.279 . S
O326 Cd323 2.297 . S
O326 C328 1.247 . S
O327 Cd323 2.439 . S
O327 C328 1.208 . S
C328 O326 1.247 . S
C328 O327 1.208 . S
C329 O334 1.247 . S
C329 O335 1.208 . S
C330 O322 1.315 . S
C330 O325 1.279 . S
C331 O332 1.315 . S
C331 O333 1.279 . S
O332 Cd324 2.223 . S
O332 C331 1.315 . S
O333 Cd323 2.240 . S
O333 C331 1.279 . S
O334 Cd324 2.297 . S
O334 C329 1.247 . S
O335 Cd324 2.439 . S
O335 C329 1.208 . S
La336 C338 2.928 1_455 S
La336 O356 2.521 1_454 S
La336 O357 2.628 1_455 S
La336 O358 2.554 1_554 S
La336 O359 2.752 1_554 S
La336 O360 2.470 . S
La336 O365 2.482 . S
La336 O367 2.503 1_545 S
La337 C347 2.928 . S
La337 O359 2.473 1_554 S
La337 O361 2.503 . S
La337 O362 2.521 . S
La337 O363 2.628 . S
La337 O364 2.554 . S
La337 O365 2.757 . S
La337 O366 2.470 . S
C338 La336 2.928 1_655 S
C338 C339 1.503 1_554 S
C338 O356 1.261 1_554 S
C338 O357 1.243 . S
C339 C338 1.503 1_556 S
C339 C340 1.394 . S
C339 C344 1.373 1_556 S
C340 C339 1.394 . S
C340 C341 1.380 . S
C340 H368 0.930 . S
C341 C340 1.380 . S
C341 C342 1.376 . S
C341 H369 0.930 . S
C342 C341 1.376 . S
C342 C343 1.370 1_556 S
C343 C342 1.370 1_554 S
C343 C344 1.396 . S
C343 H370 0.929 . S
C344 C339 1.373 1_554 S
C344 C343 1.396 . S
C344 H371 0.929 . S
C345 O358 1.240 . S
C345 O359 1.301 . S
C346 O360 1.258 . S
C346 O361 1.256 . S
C347 La337 2.928 . S
C347 C348 1.503 . S
C347 O362 1.261 . S
C347 O363 1.243 . S
C348 C347 1.503 . S
C348 C349 1.394 . S
C348 C353 1.373 . S
C349 C348 1.394 . S
C349 C350 1.380 . S
C349 H372 0.930 . S
C350 C349 1.380 . S
C350 C351 1.376 . S
C350 H373 0.930 . S
C351 C350 1.376 . S
C351 C352 1.370 . S
C352 C351 1.370 . S
C352 C353 1.396 . S
C352 H374 0.929 1_545 S
C353 C348 1.373 . S
C353 C352 1.396 . S
C353 H375 0.929 . S
C354 O364 1.240 . S
C354 O365 1.289 . S
C355 O366 1.258 1_565 S
C355 O367 1.256 . S
O356 La336 2.521 1_656 S
O356 C338 1.261 1_556 S
O357 La336 2.628 1_655 S
O357 C338 1.243 . S
O358 La336 2.554 1_556 S
O358 C345 1.240 . S
O359 La336 2.752 1_556 S
O359 La337 2.473 1_556 S
O359 C345 1.301 . S
O360 La336 2.470 . S
O360 C346 1.258 . S
O361 La337 2.503 . S
O361 C346 1.256 . S
O362 La337 2.521 . S
O362 C347 1.261 . S
O363 La337 2.628 . S
O363 C347 1.243 . S
O364 La337 2.554 . S
O364 C354 1.240 . S
O365 La336 2.482 . S
O365 La337 2.757 . S
O365 C354 1.289 . S
O366 La337 2.470 . S
O366 C355 1.258 1_545 S
O367 La336 2.503 1_565 S
O367 C355 1.256 . S
H368 C340 0.930 . S
H369 C341 0.930 . S
H370 C343 0.929 . S
H371 C344 0.929 . S
H372 C349 0.930 . S
H373 C350 0.930 . S
H374 C352 0.929 1_565 S
H375 C353 0.929 . S
La376 C378 2.928 . S
La376 O396 2.521 . S
La376 O397 2.628 . S
La376 O398 2.554 . S
La376 O399 2.757 . S
La376 O400 2.470 . S
La376 O405 2.482 . S
La376 O407 2.503 . S
La377 C387 2.928 . S
La377 O399 2.482 . S
La377 O401 2.503 . S
La377 O402 2.521 . S
La377 O403 2.628 . S
La377 O404 2.554 . S
La377 O405 2.757 . S
La377 O406 2.470 . S
C378 La376 2.928 . S
C378 C379 1.503 . S
C378 O396 1.261 . S
C378 O397 1.243 . S
C379 C378 1.503 . S
C379 C380 1.394 . S
C379 C384 1.373 . S
C380 C379 1.394 . S
C380 C381 1.380 . S
C380 H408 0.930 . S
C381 C380 1.380 . S
C381 C382 1.376 . S
C381 H409 0.930 . S
C382 C381 1.376 . S
C382 C383 1.370 . S
C383 C382 1.370 . S
C383 C384 1.396 . S
C383 H410 0.929 . S
C384 C379 1.373 . S
C384 C383 1.396 . S
C384 H411 0.929 . S
C385 O398 1.240 . S
C385 O399 1.289 . S
C386 O400 1.258 . S
C386 O401 1.256 . S
C387 La377 2.928 . S
C387 C388 1.503 . S
C387 O402 1.261 . S
C387 O403 1.243 . S
C388 C387 1.503 . S
C388 C389 1.394 . S
C388 C393 1.373 . S
C389 C388 1.394 . S
C389 C390 1.380 . S
C389 H412 0.930 . S
C390 C389 1.380 . S
C390 C391 1.376 . S
C390 H413 0.930 . S
C391 C390 1.376 . S
C391 C392 1.370 . S
C392 C391 1.370 . S
C392 C393 1.396 . S
C392 H414 0.929 . S
C393 C388 1.373 . S
C393 C392 1.396 . S
C393 H415 0.929 . S
C394 O404 1.240 . S
C394 O405 1.289 . S
C395 O406 1.258 . S
C395 O407 1.256 . S
O396 La376 2.521 . S
O396 C378 1.261 . S
O397 La376 2.628 . S
O397 C378 1.243 . S
O398 La376 2.554 . S
O398 C385 1.240 . S
O399 La376 2.757 . S
O399 La377 2.482 . S
O399 C385 1.289 . S
O400 La376 2.470 . S
O400 C386 1.258 . S
O401 La377 2.503 . S
O401 C386 1.256 . S
O402 La377 2.521 . S
O402 C387 1.261 . S
O403 La377 2.628 . S
O403 C387 1.243 . S
O404 La377 2.554 . S
O404 C394 1.240 . S
O405 La376 2.482 . S
O405 La377 2.757 . S
O405 C394 1.289 . S
O406 La377 2.470 . S
O406 C395 1.258 . S
O407 La376 2.503 . S
O407 C395 1.256 . S
H408 C380 0.930 . S
H409 C381 0.930 . S
H410 C383 0.929 . S
H411 C384 0.929 . S
H412 C389 0.930 . S
H413 C390 0.930 . S
H414 C392 0.929 . S
H415 C393 0.929 . S
La416 C418 2.928 . S
La416 O436 2.521 . S
La416 O437 2.628 . S
La416 O438 2.554 . S
La416 O439 2.757 . S
La416 O440 2.470 1_545 S
La416 O445 2.482 . S
La416 O447 2.503 . S
La417 C427 2.928 . S
La417 O439 2.482 . S
La417 O441 2.503 1_545 S
La417 O442 2.521 . S
La417 O443 2.628 . S
La417 O444 2.554 . S
La417 O445 2.757 . S
La417 O446 2.470 . S
C418 La416 2.928 . S
C418 C419 1.503 1_545 S
C418 O436 1.261 . S
C418 O437 1.243 . S
C419 C418 1.503 1_565 S
C419 C420 1.394 . S
C419 C424 1.373 . S
C420 C419 1.394 . S
C420 C421 1.380 . S
C420 H448 0.930 1_565 S
C421 C420 1.380 . S
C421 C422 1.376 . S
C421 H449 0.930 . S
C422 C421 1.376 . S
C422 C423 1.370 . S
C423 C422 1.370 . S
C423 C424 1.396 . S
C423 H450 0.929 . S
C424 C419 1.373 . S
C424 C423 1.396 . S
C424 H451 0.929 . S
C425 O438 1.240 . S
C425 O439 1.289 . S
C426 O440 1.258 . S
C426 O441 1.256 . S
C427 La417 2.928 . S
C427 C428 1.503 . S
C427 O442 1.261 . S
C427 O443 1.243 . S
C428 C427 1.503 . S
C428 C429 1.394 . S
C428 C433 1.373 . S
C429 C428 1.394 . S
C429 C430 1.380 . S
C429 H452 0.930 . S
C430 C429 1.380 . S
C430 C431 1.376 . S
C430 H453 0.930 . S
C431 C430 1.376 . S
C431 C432 1.370 . S
C432 C431 1.370 . S
C432 C433 1.396 . S
C432 H454 0.929 . S
C433 C428 1.373 . S
C433 C432 1.396 . S
C433 H455 0.929 . S
C434 O444 1.240 . S
C434 O445 1.289 . S
C435 O446 1.258 . S
C435 O447 1.256 . S
O436 La416 2.521 . S
O436 C418 1.261 . S
O437 La416 2.628 . S
O437 C418 1.243 . S
O438 La416 2.554 . S
O438 C425 1.240 . S
O439 La416 2.757 . S
O439 La417 2.482 . S
O439 C425 1.289 . S
O440 La416 2.470 1_565 S
O440 C426 1.258 . S
O441 La417 2.503 1_565 S
O441 C426 1.256 . S
O442 La417 2.521 . S
O442 C427 1.261 . S
O443 La417 2.628 . S
O443 C427 1.243 . S
O444 La417 2.554 . S
O444 C434 1.240 . S
O445 La416 2.482 . S
O445 La417 2.757 . S
O445 C434 1.289 . S
O446 La417 2.470 . S
O446 C435 1.258 . S
O447 La416 2.503 . S
O447 C435 1.256 . S
H448 C420 0.930 1_545 S
H449 C421 0.930 . S
H450 C423 0.929 . S
H451 C424 0.929 . S
H452 C429 0.930 . S
H453 C430 0.930 . S
H454 C432 0.929 . S
H455 C433 0.929 . S
La456 C458 2.928 . S
La456 O476 2.521 . S
La456 O477 2.628 . S
La456 O478 2.554 . S
La456 O479 2.757 . S
La456 O480 2.470 . S
La456 O485 2.482 . S
La456 O487 2.503 . S
La457 C467 2.928 . S
La457 O479 2.482 . S
La457 O481 2.503 . S
La457 O482 2.521 . S
La457 O483 2.628 . S
La457 O484 2.554 . S
La457 O485 2.757 . S
La457 O486 2.470 . S
C458 La456 2.928 . S
C458 C459 1.503 . S
C458 O476 1.261 . S
C458 O477 1.243 . S
C459 C458 1.503 . S
C459 C460 1.394 . S
C459 C464 1.373 . S
C460 C459 1.394 . S
C460 C461 1.380 . S
C460 H488 0.930 . S
C461 C460 1.380 . S
C461 C462 1.376 . S
C461 H489 0.930 . S
C462 C461 1.376 . S
C462 C463 1.370 . S
C463 C462 1.370 . S
C463 C464 1.396 . S
C463 H490 0.929 . S
C464 C459 1.373 . S
C464 C463 1.396 . S
C464 H491 0.929 . S
C465 O478 1.240 . S
C465 O479 1.289 . S
C466 O480 1.258 . S
C466 O481 1.256 . S
C467 La457 2.928 . S
C467 C468 1.503 . S
C467 O482 1.261 . S
C467 O483 1.243 . S
C468 C467 1.503 . S
C468 C469 1.394 . S
C468 C473 1.373 . S
C469 C468 1.394 . S
C469 C470 1.380 . S
C469 H492 0.930 . S
C470 C469 1.380 . S
C470 C471 1.376 . S
C470 H493 0.930 . S
C471 C470 1.376 . S
C471 C472 1.370 . S
C472 C471 1.370 . S
C472 C473 1.396 . S
C472 H494 0.929 . S
C473 C468 1.373 . S
C473 C472 1.396 . S
C473 H495 0.929 . S
C474 O484 1.240 . S
C474 O485 1.289 . S
C475 O486 1.258 . S
C475 O487 1.256 . S
O476 La456 2.521 . S
O476 C458 1.261 . S
O477 La456 2.628 . S
O477 C458 1.243 . S
O478 La456 2.554 . S
O478 C465 1.240 . S
O479 La456 2.757 . S
O479 La457 2.482 . S
O479 C465 1.289 . S
O480 La456 2.470 . S
O480 C466 1.258 . S
O481 La457 2.503 . S
O481 C466 1.256 . S
O482 La457 2.521 . S
O482 C467 1.261 . S
O483 La457 2.628 . S
O483 C467 1.243 . S
O484 La457 2.554 . S
O484 C474 1.240 . S
O485 La456 2.482 . S
O485 La457 2.757 . S
O485 C474 1.289 . S
O486 La457 2.470 . S
O486 C475 1.258 . S
O487 La456 2.503 . S
O487 C475 1.256 . S
H488 C460 0.930 . S
H489 C461 0.930 . S
H490 C463 0.929 . S
H491 C464 0.929 . S
H492 C469 0.930 . S
H493 C470 0.930 . S
H494 C472 0.929 . S
H495 C473 0.929 . S
La496 C498 2.928 . S
La496 O516 2.521 . S
La496 O517 2.628 . S
La496 O518 2.554 . S
La496 O519 2.757 . S
La496 O520 2.470 . S
La496 O525 2.482 . S
La496 O527 2.503 . S
La497 C507 2.882 1_545 S
La497 O519 2.512 . S
La497 O521 2.535 . S
La497 O522 2.474 1_545 S
La497 O523 2.590 1_545 S
La497 O524 2.567 . S
La497 O525 2.803 . S
La497 O526 2.479 . S
C498 La496 2.928 . S
C498 C499 1.503 . S
C498 O516 1.261 . S
C498 O517 1.243 . S
C499 C498 1.503 . S
C499 C500 1.394 . S
C499 C504 1.373 . S
C500 C499 1.394 . S
C500 C501 1.380 . S
C500 H528 0.930 . S
C501 C500 1.380 . S
C501 C502 1.376 . S
C501 H529 0.930 . S
C502 C501 1.376 . S
C502 C503 1.370 . S
C503 C502 1.370 . S
C503 C504 1.396 . S
C503 H530 0.929 . S
C504 C499 1.373 . S
C504 C503 1.396 . S
C504 H531 0.929 . S
C505 O518 1.240 . S
C505 O519 1.289 . S
C506 O520 1.258 . S
C506 O521 1.256 . S
C507 La497 2.882 1_565 S
C507 C508 1.503 . S
C507 O522 1.261 . S
C507 O523 1.243 . S
C508 C507 1.503 . S
C508 C509 1.394 . S
C508 C513 1.373 . S
C509 C508 1.394 . S
C509 C510 1.380 . S
C509 H532 0.930 . S
C510 C509 1.380 . S
C510 C511 1.376 . S
C510 H533 0.930 . S
C511 C510 1.376 . S
C511 C512 1.370 . S
C512 C511 1.370 . S
C512 C513 1.396 . S
C512 H534 0.929 . S
C513 C508 1.373 . S
C513 C512 1.396 . S
C513 H535 0.929 . S
C514 O524 1.240 . S
C514 O525 1.289 . S
C515 O526 1.258 . S
C515 O527 1.256 . S
O516 La496 2.521 . S
O516 C498 1.261 . S
O517 La496 2.628 . S
O517 C498 1.243 . S
O518 La496 2.554 . S
O518 C505 1.240 . S
O519 La496 2.757 . S
O519 La497 2.512 . S
O519 C505 1.289 . S
O520 La496 2.470 . S
O520 C506 1.258 . S
O521 La497 2.535 . S
O521 C506 1.256 . S
O522 La497 2.474 1_565 S
O522 C507 1.261 . S
O523 La497 2.590 1_565 S
O523 C507 1.243 . S
O524 La497 2.567 . S
O524 C514 1.240 . S
O525 La496 2.482 . S
O525 La497 2.803 . S
O525 C514 1.289 . S
O526 La497 2.479 . S
O526 C515 1.258 . S
O527 La496 2.503 . S
O527 C515 1.256 . S
H528 C500 0.930 . S
H529 C501 0.930 . S
H530 C503 0.929 . S
H531 C504 0.929 . S
H532 C509 0.930 . S
H533 C510 0.930 . S
H534 C512 0.929 . S
H535 C513 0.929 . S
La536 C538 2.928 . S
La536 O556 2.521 . S
La536 O557 2.628 . S
La536 O558 2.554 . S
La536 O559 2.757 . S
La536 O560 2.470 . S
La536 O565 2.482 . S
La536 O567 2.503 . S
La537 C547 2.928 . S
La537 O559 2.482 . S
La537 O561 2.503 . S
La537 O562 2.521 . S
La537 O563 2.628 . S
La537 O564 2.554 . S
La537 O565 2.757 . S
La537 O566 2.470 . S
C538 La536 2.928 . S
C538 C539 1.503 . S
C538 O556 1.261 . S
C538 O557 1.243 . S
C539 C538 1.503 . S
C539 C540 1.394 . S
C539 C544 1.373 . S
C540 C539 1.394 . S
C540 C541 1.380 . S
C540 H568 0.930 . S
C541 C540 1.380 . S
C541 C542 1.376 . S
C541 H569 0.930 . S
C542 C541 1.376 . S
C542 C543 1.370 . S
C543 C542 1.370 . S
C543 C544 1.396 . S
C543 H570 0.929 . S
C544 C539 1.373 . S
C544 C543 1.396 . S
C544 H571 0.929 . S
C545 O558 1.240 . S
C545 O559 1.289 . S
C546 O560 1.258 . S
C546 O561 1.256 . S
C547 La537 2.928 . S
C547 C548 1.503 . S
C547 O562 1.261 . S
C547 O563 1.243 . S
C548 C547 1.503 . S
C548 C549 1.394 . S
C548 C553 1.373 . S
C549 C548 1.394 . S
C549 C550 1.380 . S
C549 H572 0.930 . S
C550 C549 1.380 . S
C550 C551 1.376 . S
C550 H573 0.930 . S
C551 C550 1.376 . S
C551 C552 1.370 . S
C552 C551 1.370 . S
C552 C553 1.396 . S
C552 H574 0.929 . S
C553 C548 1.373 . S
C553 C552 1.396 . S
C553 H575 0.929 . S
C554 O564 1.240 . S
C554 O565 1.289 . S
C555 O566 1.258 . S
C555 O567 1.256 . S
O556 La536 2.521 . S
O556 C538 1.261 . S
O557 La536 2.628 . S
O557 C538 1.243 . S
O558 La536 2.554 . S
O558 C545 1.240 . S
O559 La536 2.757 . S
O559 La537 2.482 . S
O559 C545 1.289 . S
O560 La536 2.470 . S
O560 C546 1.258 . S
O561 La537 2.503 . S
O561 C546 1.256 . S
O562 La537 2.521 . S
O562 C547 1.261 . S
O563 La537 2.628 . S
O563 C547 1.243 . S
O564 La537 2.554 . S
O564 C554 1.240 . S
O565 La536 2.482 . S
O565 La537 2.757 . S
O565 C554 1.289 . S
O566 La537 2.470 . S
O566 C555 1.258 . S
O567 La536 2.503 . S
O567 C555 1.256 . S
H568 C540 0.930 . S
H569 C541 0.930 . S
H570 C543 0.929 . S
H571 C544 0.929 . S
H572 C549 0.930 . S
H573 C550 0.930 . S
H574 C552 0.929 . S
H575 C553 0.929 . S
La576 C578 2.928 . S
La576 O596 2.527 . S
La576 O597 2.628 . S
La576 O598 2.554 1_545 S
La576 O599 2.757 . S
La576 O600 2.470 . S
La576 O605 2.482 . S
La576 O607 2.503 . S
La577 C587 2.928 . S
La577 O599 2.482 1_556 S
La577 O601 2.503 1_556 S
La577 O602 2.521 . S
La577 O603 2.628 . S
La577 O604 2.554 1_556 S
La577 O605 2.757 1_556 S
La577 O606 2.470 1_556 S
C578 La576 2.928 . S
C578 C579 1.503 . S
C578 O596 1.268 . S
C578 O597 1.243 . S
C579 C578 1.503 . S
C579 C580 1.394 1_545 S
C579 C584 1.373 . S
C580 C579 1.394 1_565 S
C580 C581 1.380 . S
C580 H608 0.930 . S
C581 C580 1.380 . S
C581 C582 1.376 . S
C581 H609 0.930 . S
C582 C581 1.376 . S
C582 C583 1.370 1_565 S
C583 C582 1.370 1_545 S
C583 C584 1.396 . S
C583 H610 0.929 . S
C584 C579 1.373 . S
C584 C583 1.396 . S
C584 H611 0.929 . S
C585 O598 1.240 . S
C585 O599 1.289 1_565 S
C586 O600 1.258 . S
C586 O601 1.256 . S
C587 La577 2.928 . S
C587 C588 1.503 . S
C587 O602 1.261 . S
C587 O603 1.243 . S
C588 C587 1.503 . S
C588 C589 1.394 . S
C588 C593 1.373 . S
C589 C588 1.394 . S
C589 C590 1.380 . S
C589 H612 0.930 . S
C590 C589 1.380 . S
C590 C591 1.376 . S
C590 H613 0.930 . S
C591 C590 1.376 . S
C591 C592 1.370 . S
C592 C591 1.370 . S
C592 C593 1.396 . S
C592 H614 0.929 . S
C593 C588 1.373 . S
C593 C592 1.396 . S
C593 H615 0.929 . S
C594 O604 1.240 . S
C594 O605 1.289 . S
C595 O606 1.258 . S
C595 O607 1.256 . S
O596 La576 2.527 . S
O596 C578 1.268 . S
O597 La576 2.628 . S
O597 C578 1.243 . S
O598 La576 2.554 1_565 S
O598 C585 1.240 . S
O599 La576 2.757 . S
O599 La577 2.482 1_554 S
O599 C585 1.289 1_545 S
O600 La576 2.470 . S
O600 C586 1.258 . S
O601 La577 2.503 1_554 S
O601 C586 1.256 . S
O602 La577 2.521 . S
O602 C587 1.261 . S
O603 La577 2.628 . S
O603 C587 1.243 . S
O604 La577 2.554 1_554 S
O604 C594 1.240 . S
O605 La576 2.482 . S
O605 La577 2.757 1_554 S
O605 C594 1.289 . S
O606 La577 2.470 1_554 S
O606 C595 1.258 . S
O607 La576 2.503 . S
O607 C595 1.256 . S
H608 C580 0.930 . S
H609 C581 0.930 . S
H610 C583 0.929 . S
H611 C584 0.929 . S
H612 C589 0.930 . S
H613 C590 0.930 . S
H614 C592 0.929 . S
H615 C593 0.929 . S
La616 C618 2.928 . S
La616 O636 2.521 . S
La616 O637 2.628 . S
La616 O638 2.554 . S
La616 O639 2.757 . S
La616 O640 2.470 . S
La616 O645 2.482 . S
La616 O647 2.503 . S
La617 C627 2.928 . S
La617 O639 2.482 . S
La617 O641 2.503 . S
La617 O642 2.521 . S
La617 O643 2.628 . S
La617 O644 2.554 . S
La617 O645 2.757 . S
La617 O646 2.470 . S
C618 La616 2.928 . S
C618 C619 1.503 . S
C618 O636 1.261 . S
C618 O637 1.243 . S
C619 C618 1.503 . S
C619 C620 1.394 . S
C619 C624 1.373 . S
C620 C619 1.394 . S
C620 C621 1.380 . S
C620 H648 0.930 . S
C621 C620 1.380 . S
C621 C622 1.376 . S
C621 H649 0.930 . S
C622 C621 1.376 . S
C622 C623 1.370 . S
C623 C622 1.370 . S
C623 C624 1.396 . S
C623 H650 0.929 . S
C624 C619 1.373 . S
C624 C623 1.396 . S
C624 H651 0.929 . S
C625 O638 1.240 . S
C625 O639 1.289 . S
C626 O640 1.258 . S
C626 O641 1.256 . S
C627 La617 2.928 . S
C627 C628 1.503 . S
C627 O642 1.261 . S
C627 O643 1.243 . S
C628 C627 1.503 . S
C628 C629 1.394 . S
C628 C633 1.373 . S
C629 C628 1.394 . S
C629 C630 1.380 . S
C629 H652 0.930 . S
C630 C629 1.380 . S
C630 C631 1.376 . S
C630 H653 0.930 . S
C631 C630 1.376 . S
C631 C632 1.370 . S
C632 C631 1.370 . S
C632 C633 1.396 . S
C632 H654 0.929 . S
C633 C628 1.373 . S
C633 C632 1.396 . S
C633 H655 0.929 . S
C634 O644 1.240 . S
C634 O645 1.289 . S
C635 O646 1.258 . S
C635 O647 1.256 . S
O636 La616 2.521 . S
O636 C618 1.261 . S
O637 La616 2.628 . S
O637 C618 1.243 . S
O638 La616 2.554 . S
O638 C625 1.240 . S
O639 La616 2.757 . S
O639 La617 2.482 . S
O639 C625 1.289 . S
O640 La616 2.470 . S
O640 C626 1.258 . S
O641 La617 2.503 . S
O641 C626 1.256 . S
O642 La617 2.521 . S
O642 C627 1.261 . S
O643 La617 2.628 . S
O643 C627 1.243 . S
O644 La617 2.554 . S
O644 C634 1.240 . S
O645 La616 2.482 . S
O645 La617 2.757 . S
O645 C634 1.289 . S
O646 La617 2.470 . S
O646 C635 1.258 . S
O647 La616 2.503 . S
O647 C635 1.256 . S
H648 C620 0.930 . S
H649 C621 0.930 . S
H650 C623 0.929 . S
H651 C624 0.929 . S
H652 C629 0.930 . S
H653 C630 0.930 . S
H654 C632 0.929 . S
H655 C633 0.929 . S
La656 C658 2.928 . S
La656 O676 2.521 . S
La656 O677 2.628 . S
La656 O678 2.554 . S
La656 O679 2.757 . S
La656 O680 2.470 1_554 S
La656 O685 2.482 . S
La656 O687 2.503 . S
La657 C667 2.928 . S
La657 O679 2.482 . S
La657 O681 2.503 1_554 S
La657 O682 2.521 . S
La657 O683 2.628 . S
La657 O684 2.554 . S
La657 O685 2.757 . S
La657 O686 2.470 . S
C658 La656 2.928 . S
C658 C659 1.533 . S
C658 O676 1.261 . S
C658 O677 1.243 . S
C659 C658 1.533 . S
C659 C660 1.405 . S
C659 C664 1.334 1_554 S
C660 C659 1.405 . S
C660 C661 1.380 1_554 S
C660 H688 0.930 . S
C661 C660 1.380 1_556 S
C661 C662 1.376 . S
C661 H689 0.930 . S
C662 C661 1.376 . S
C662 C663 1.370 . S
C663 C662 1.370 . S
C663 C664 1.396 . S
C663 H690 0.929 . S
C664 C659 1.334 1_556 S
C664 C663 1.396 . S
C664 H691 0.929 . S
C665 O678 1.240 . S
C665 O679 1.289 . S
C666 O680 1.258 . S
C666 O681 1.256 . S
C667 La657 2.928 . S
C667 C668 1.503 . S
C667 O682 1.261 . S
C667 O683 1.243 . S
C668 C667 1.503 . S
C668 C669 1.394 . S
C668 C673 1.373 . S
C669 C668 1.394 . S
C669 C670 1.380 . S
C669 H692 0.930 . S
C670 C669 1.380 . S
C670 C671 1.376 . S
C670 H693 0.930 . S
C671 C670 1.376 . S
C671 C672 1.370 . S
C672 C671 1.370 . S
C672 C673 1.396 . S
C672 H694 0.929 . S
C673 C668 1.373 . S
C673 C672 1.396 . S
C673 H695 0.929 . S
C674 O684 1.240 . S
C674 O685 1.289 . S
C675 O686 1.258 . S
C675 O687 1.256 . S
O676 La656 2.521 . S
O676 C658 1.261 . S
O677 La656 2.628 . S
O677 C658 1.243 . S
O678 La656 2.554 . S
O678 C665 1.240 . S
O679 La656 2.757 . S
O679 La657 2.482 . S
O679 C665 1.289 . S
O680 La656 2.470 1_556 S
O680 C666 1.258 . S
O681 La657 2.503 1_556 S
O681 C666 1.256 . S
O682 La657 2.521 . S
O682 C667 1.261 . S
O683 La657 2.628 . S
O683 C667 1.243 . S
O684 La657 2.554 . S
O684 C674 1.240 . S
O685 La656 2.482 . S
O685 La657 2.757 . S
O685 C674 1.289 . S
O686 La657 2.470 . S
O686 C675 1.258 . S
O687 La656 2.503 . S
O687 C675 1.256 . S
H688 C660 0.930 . S
H689 C661 0.930 . S
H690 C663 0.929 . S
H691 C664 0.929 . S
H692 C669 0.930 . S
H693 C670 0.930 . S
H694 C672 0.929 . S
H695 C673 0.929 . S
La696 C698 2.928 . S
La696 O716 2.521 . S
La696 O717 2.628 . S
La696 O718 2.554 . S
La696 O719 2.757 . S
La696 O720 2.470 . S
La696 O725 2.482 . S
La696 O727 2.503 . S
La697 C707 2.928 . S
La697 O719 2.482 . S
La697 O721 2.503 . S
La697 O722 2.521 . S
La697 O723 2.628 . S
La697 O724 2.554 . S
La697 O725 2.757 . S
La697 O726 2.470 . S
C698 La696 2.928 . S
C698 C699 1.503 . S
C698 O716 1.261 . S
C698 O717 1.243 . S
C699 C698 1.503 . S
C699 C700 1.394 . S
C699 C704 1.373 . S
C700 C699 1.394 . S
C700 C701 1.380 . S
C700 H728 0.930 . S
C701 C700 1.380 . S
C701 C702 1.376 . S
C701 H729 0.930 . S
C702 C701 1.376 . S
C702 C703 1.370 . S
C703 C702 1.370 . S
C703 C704 1.396 . S
C703 H730 0.929 . S
C704 C699 1.373 . S
C704 C703 1.396 . S
C704 H731 0.929 . S
C705 O718 1.240 . S
C705 O719 1.289 . S
C706 O720 1.258 . S
C706 O721 1.256 . S
C707 La697 2.928 . S
C707 C708 1.503 . S
C707 O722 1.261 . S
C707 O723 1.243 . S
C708 C707 1.503 . S
C708 C709 1.394 . S
C708 C713 1.373 . S
C709 C708 1.394 . S
C709 C710 1.380 . S
C709 H732 0.930 . S
C710 C709 1.380 . S
C710 C711 1.376 . S
C710 H733 0.930 . S
C711 C710 1.376 . S
C711 C712 1.370 . S
C712 C711 1.370 . S
C712 C713 1.396 . S
C712 H734 0.929 . S
C713 C708 1.373 . S
C713 C712 1.396 . S
C713 H735 0.929 . S
C714 O724 1.240 . S
C714 O725 1.289 . S
C715 O726 1.258 . S
C715 O727 1.256 . S
O716 La696 2.521 . S
O716 C698 1.261 . S
O717 La696 2.628 . S
O717 C698 1.243 . S
O718 La696 2.554 . S
O718 C705 1.240 . S
O719 La696 2.757 . S
O719 La697 2.482 . S
O719 C705 1.289 . S
O720 La696 2.470 . S
O720 C706 1.258 . S
O721 La697 2.503 . S
O721 C706 1.256 . S
O722 La697 2.521 . S
O722 C707 1.261 . S
O723 La697 2.628 . S
O723 C707 1.243 . S
O724 La697 2.554 . S
O724 C714 1.240 . S
O725 La696 2.482 . S
O725 La697 2.757 . S
O725 C714 1.289 . S
O726 La697 2.470 . S
O726 C715 1.258 . S
O727 La696 2.503 . S
O727 C715 1.256 . S
H728 C700 0.930 . S
H729 C701 0.930 . S
H730 C703 0.929 . S
H731 C704 0.929 . S
H732 C709 0.930 . S
H733 C710 0.930 . S
H734 C712 0.929 . S
H735 C713 0.929 . S
La736 C738 2.928 . S
La736 O756 2.521 . S
La736 O757 2.628 . S
La736 O758 2.554 . S
La736 O759 2.757 . S
La736 O760 2.470 . S
La736 O765 2.482 . S
La736 O767 2.503 . S
La737 C747 2.928 . S
La737 O759 2.482 . S
La737 O761 2.503 . S
La737 O762 2.521 . S
La737 O763 2.628 . S
La737 O764 2.554 . S
La737 O765 2.757 . S
La737 O766 2.470 . S
C738 La736 2.928 . S
C738 C739 1.503 . S
C738 O756 1.261 . S
C738 O757 1.243 . S
C739 C738 1.503 . S
C739 C740 1.394 . S
C739 C744 1.373 . S
C740 C739 1.394 . S
C740 C741 1.380 . S
C740 H768 0.930 . S
C741 C740 1.380 . S
C741 C742 1.376 1_455 S
C741 H769 0.930 . S
C742 C741 1.376 1_655 S
C742 C743 1.370 . S
C743 C742 1.370 . S
C743 C744 1.396 1_655 S
C743 H770 0.929 . S
C744 C739 1.373 . S
C744 C743 1.396 1_455 S
C744 H771 0.929 . S
C745 O758 1.240 . S
C745 O759 1.289 . S
C746 O760 1.258 . S
C746 O761 1.256 . S
C747 La737 2.928 . S
C747 C748 1.503 . S
C747 O762 1.261 . S
C747 O763 1.243 . S
C748 C747 1.503 . S
C748 C749 1.394 . S
C748 C753 1.373 . S
C749 C748 1.394 . S
C749 C750 1.380 . S
C749 H772 0.930 . S
C750 C749 1.380 . S
C750 C751 1.376 . S
C750 H773 0.930 . S
C751 C750 1.376 . S
C751 C752 1.370 . S
C752 C751 1.370 . S
C752 C753 1.396 . S
C752 H774 0.929 . S
C753 C748 1.373 . S
C753 C752 1.396 . S
C753 H775 0.929 . S
C754 O764 1.240 . S
C754 O765 1.289 . S
C755 O766 1.258 . S
C755 O767 1.256 . S
O756 La736 2.521 . S
O756 C738 1.261 . S
O757 La736 2.628 . S
O757 C738 1.243 . S
O758 La736 2.554 . S
O758 C745 1.240 . S
O759 La736 2.757 . S
O759 La737 2.482 . S
O759 C745 1.289 . S
O760 La736 2.470 . S
O760 C746 1.258 . S
O761 La737 2.503 . S
O761 C746 1.256 . S
O762 La737 2.521 . S
O762 C747 1.261 . S
O763 La737 2.628 . S
O763 C747 1.243 . S
O764 La737 2.554 . S
O764 C754 1.240 . S
O765 La736 2.482 . S
O765 La737 2.757 . S
O765 C754 1.289 . S
O766 La737 2.470 . S
O766 C755 1.258 . S
O767 La736 2.503 . S
O767 C755 1.256 . S
H768 C740 0.930 . S
H769 C741 0.930 . S
H770 C743 0.929 . S
H771 C744 0.929 . S
H772 C749 0.930 . S
H773 C750 0.930 . S
H774 C752 0.929 . S
H775 C753 0.929 . S
La776 C778 2.928 . S
La776 O796 2.521 . S
La776 O797 2.628 . S
La776 O798 2.554 . S
La776 O799 2.757 . S
La776 O800 2.470 . S
La776 O805 2.482 . S
La776 O807 2.503 . S
La777 C787 2.928 . S
La777 O799 2.482 . S
La777 O801 2.503 . S
La777 O802 2.521 . S
La777 O803 2.628 . S
La777 O804 2.554 . S
La777 O805 2.757 . S
La777 O806 2.470 . S
C778 La776 2.928 . S
C778 C779 1.503 . S
C778 O796 1.261 . S
C778 O797 1.243 . S
C779 C778 1.503 . S
C779 C780 1.394 . S
C779 C784 1.373 . S
C780 C779 1.394 . S
C780 C781 1.380 . S
C780 H808 0.930 . S
C781 C780 1.380 . S
C781 C782 1.376 . S
C781 H809 0.930 . S
C782 C781 1.376 . S
C782 C783 1.370 . S
C783 C782 1.370 . S
C783 C784 1.396 . S
C783 H810 0.929 . S
C784 C779 1.373 . S
C784 C783 1.396 . S
C784 H811 0.929 . S
C785 O798 1.240 . S
C785 O799 1.289 . S
C786 O800 1.258 . S
C786 O801 1.256 . S
C787 La777 2.928 . S
C787 C788 1.503 . S
C787 O802 1.261 . S
C787 O803 1.243 . S
C788 C787 1.503 . S
C788 C789 1.394 . S
C788 C793 1.373 . S
C789 C788 1.394 . S
C789 C790 1.380 . S
C789 H812 0.930 . S
C790 C789 1.380 . S
C790 C791 1.376 . S
C790 H813 0.930 . S
C791 C790 1.376 . S
C791 C792 1.370 . S
C792 C791 1.370 . S
C792 C793 1.396 . S
C792 H814 0.929 . S
C793 C788 1.373 . S
C793 C792 1.396 . S
C793 H815 0.929 . S
C794 O804 1.240 . S
C794 O805 1.289 . S
C795 O806 1.258 . S
C795 O807 1.256 . S
O796 La776 2.521 . S
O796 C778 1.261 . S
O797 La776 2.628 . S
O797 C778 1.243 . S
O798 La776 2.554 . S
O798 C785 1.240 . S
O799 La776 2.757 . S
O799 La777 2.482 . S
O799 C785 1.289 . S
O800 La776 2.470 . S
O800 C786 1.258 . S
O801 La777 2.503 . S
O801 C786 1.256 . S
O802 La777 2.521 . S
O802 C787 1.261 . S
O803 La777 2.628 . S
O803 C787 1.243 . S
O804 La777 2.554 . S
O804 C794 1.240 . S
O805 La776 2.482 . S
O805 La777 2.757 . S
O805 C794 1.289 . S
O806 La777 2.470 . S
O806 C795 1.258 . S
O807 La776 2.503 . S
O807 C795 1.256 . S
H808 C780 0.930 . S
H809 C781 0.930 . S
H810 C783 0.929 . S
H811 C784 0.929 . S
H812 C789 0.930 . S
H813 C790 0.930 . S
H814 C792 0.929 . S
H815 C793 0.929 . S
La816 C818 2.928 . S
La816 O836 2.521 . S
La816 O837 2.628 . S
La816 O838 2.554 . S
La816 O839 2.757 . S
La816 O840 2.470 . S
La816 O845 2.482 . S
La816 O847 2.503 . S
La817 C827 2.928 . S
La817 O839 2.482 . S
La817 O841 2.503 . S
La817 O842 2.521 . S
La817 O843 2.628 . S
La817 O844 2.554 . S
La817 O845 2.757 . S
La817 O846 2.470 . S
C818 La816 2.928 . S
C818 C819 1.503 . S
C818 O836 1.261 . S
C818 O837 1.243 . S
C819 C818 1.503 . S
C819 C820 1.394 . S
C819 C824 1.373 . S
C820 C819 1.394 . S
C820 C821 1.380 . S
C820 H848 0.930 . S
C821 C820 1.380 . S
C821 C822 1.376 . S
C821 H849 0.930 . S
C822 C821 1.376 . S
C822 C823 1.370 . S
C823 C822 1.370 . S
C823 C824 1.396 . S
C823 H850 0.929 . S
C824 C819 1.373 . S
C824 C823 1.396 . S
C824 H851 0.929 . S
C825 O838 1.240 . S
C825 O839 1.289 . S
C826 O840 1.258 . S
C826 O841 1.256 . S
C827 La817 2.928 . S
C827 C828 1.503 . S
C827 O842 1.261 . S
C827 O843 1.243 . S
C828 C827 1.503 . S
C828 C829 1.394 . S
C828 C833 1.373 . S
C829 C828 1.394 . S
C829 C830 1.380 . S
C829 H852 0.930 . S
C830 C829 1.380 . S
C830 C831 1.376 . S
C830 H853 0.930 . S
C831 C830 1.376 . S
C831 C832 1.370 . S
C832 C831 1.370 . S
C832 C833 1.396 . S
C832 H854 0.929 . S
C833 C828 1.373 . S
C833 C832 1.396 . S
C833 H855 0.929 . S
C834 O844 1.240 . S
C834 O845 1.289 . S
C835 O846 1.258 . S
C835 O847 1.256 . S
O836 La816 2.521 . S
O836 C818 1.261 . S
O837 La816 2.628 . S
O837 C818 1.243 . S
O838 La816 2.554 . S
O838 C825 1.240 . S
O839 La816 2.757 . S
O839 La817 2.482 . S
O839 C825 1.289 . S
O840 La816 2.470 . S
O840 C826 1.258 . S
O841 La817 2.503 . S
O841 C826 1.256 . S
O842 La817 2.521 . S
O842 C827 1.261 . S
O843 La817 2.628 . S
O843 C827 1.243 . S
O844 La817 2.554 . S
O844 C834 1.240 . S
O845 La816 2.482 . S
O845 La817 2.757 . S
O845 C834 1.289 . S
O846 La817 2.470 . S
O846 C835 1.258 . S
O847 La816 2.503 . S
O847 C835 1.256 . S
H848 C820 0.930 . S
H849 C821 0.930 . S
H850 C823 0.929 . S
H851 C824 0.929 . S
H852 C829 0.930 . S
H853 C830 0.930 . S
H854 C832 0.929 . S
H855 C833 0.929 . S
La856 C858 2.928 . S
La856 O876 2.521 . S
La856 O877 2.628 . S
La856 O878 2.554 . S
La856 O879 2.757 . S
La856 O880 2.470 . S
La856 O885 2.482 . S
La856 O887 2.503 . S
La857 C867 2.928 . S
La857 O879 2.482 . S
La857 O881 2.503 . S
La857 O882 2.521 . S
La857 O883 2.628 . S
La857 O884 2.554 . S
La857 O885 2.757 . S
La857 O886 2.470 . S
C858 La856 2.928 . S
C858 C859 1.503 . S
C858 O876 1.261 . S
C858 O877 1.243 . S
C859 C858 1.503 . S
C859 C860 1.394 . S
C859 C864 1.373 . S
C860 C859 1.394 . S
C860 C861 1.380 . S
C860 H888 0.930 . S
C861 C860 1.380 . S
C861 C862 1.376 . S
C861 H889 0.930 . S
C862 C861 1.376 . S
C862 C863 1.370 . S
C863 C862 1.370 . S
C863 C864 1.396 . S
C863 H890 0.929 . S
C864 C859 1.373 . S
C864 C863 1.396 . S
C864 H891 0.929 . S
C865 O878 1.240 . S
C865 O879 1.289 . S
C866 O880 1.258 . S
C866 O881 1.256 . S
C867 La857 2.928 . S
C867 C868 1.503 . S
C867 O882 1.261 . S
C867 O883 1.243 . S
C868 C867 1.503 . S
C868 C869 1.394 . S
C868 C873 1.373 . S
C869 C868 1.394 . S
C869 C870 1.380 . S
C869 H892 0.930 . S
C870 C869 1.380 . S
C870 C871 1.376 . S
C870 H893 0.930 . S
C871 C870 1.376 . S
C871 C872 1.370 . S
C872 C871 1.370 . S
C872 C873 1.396 . S
C872 H894 0.929 . S
C873 C868 1.373 . S
C873 C872 1.396 . S
C873 H895 0.929 . S
C874 O884 1.240 . S
C874 O885 1.289 . S
C875 O886 1.258 . S
C875 O887 1.256 . S
O876 La856 2.521 . S
O876 C858 1.261 . S
O877 La856 2.628 . S
O877 C858 1.243 . S
O878 La856 2.554 . S
O878 C865 1.240 . S
O879 La856 2.757 . S
O879 La857 2.482 . S
O879 C865 1.289 . S
O880 La856 2.470 . S
O880 C866 1.258 . S
O881 La857 2.503 . S
O881 C866 1.256 . S
O882 La857 2.521 . S
O882 C867 1.261 . S
O883 La857 2.628 . S
O883 C867 1.243 . S
O884 La857 2.554 . S
O884 C874 1.240 . S
O885 La856 2.482 . S
O885 La857 2.757 . S
O885 C874 1.289 . S
O886 La857 2.470 . S
O886 C875 1.258 . S
O887 La856 2.503 . S
O887 C875 1.256 . S
H888 C860 0.930 . S
H889 C861 0.930 . S
H890 C863 0.929 . S
H891 C864 0.929 . S
H892 C869 0.930 . S
H893 C870 0.930 . S
H894 C872 0.929 . S
H895 C873 0.929 . S
La896 C898 2.928 . S
La896 O916 2.521 . S
La896 O917 2.628 . S
La896 O918 2.554 . S
La896 O919 2.757 . S
La896 O920 2.470 . S
La896 O925 2.482 . S
La896 O927 2.503 . S
La897 C907 2.928 . S
La897 O919 2.482 . S
La897 O921 2.503 . S
La897 O922 2.521 . S
La897 O923 2.628 . S
La897 O924 2.554 . S
La897 O925 2.757 . S
La897 O926 2.470 . S
C898 La896 2.928 . S
C898 C899 1.503 . S
C898 O916 1.261 . S
C898 O917 1.243 . S
C899 C898 1.503 . S
C899 C900 1.394 . S
C899 C904 1.373 . S
C900 C899 1.394 . S
C900 C901 1.380 . S
C900 H928 0.930 . S
C901 C900 1.380 . S
C901 C902 1.376 . S
C901 H929 0.930 . S
C902 C901 1.376 . S
C902 C903 1.370 . S
C903 C902 1.370 . S
C903 C904 1.396 . S
C903 H930 0.929 . S
C904 C899 1.373 . S
C904 C903 1.396 . S
C904 H931 0.929 . S
C905 O918 1.240 . S
C905 O919 1.289 . S
C906 O920 1.258 . S
C906 O921 1.256 . S
C907 La897 2.928 . S
C907 C908 1.503 . S
C907 O922 1.261 . S
C907 O923 1.243 . S
C908 C907 1.503 . S
C908 C909 1.394 . S
C908 C913 1.373 . S
C909 C908 1.394 . S
C909 C910 1.380 . S
C909 H932 0.930 . S
C910 C909 1.380 . S
C910 C911 1.376 . S
C910 H933 0.930 . S
C911 C910 1.376 . S
C911 C912 1.370 . S
C912 C911 1.370 . S
C912 C913 1.396 . S
C912 H934 0.929 . S
C913 C908 1.373 . S
C913 C912 1.396 . S
C913 H935 0.929 . S
C914 O924 1.240 . S
C914 O925 1.289 . S
C915 O926 1.258 . S
C915 O927 1.256 . S
O916 La896 2.521 . S
O916 C898 1.261 . S
O917 La896 2.628 . S
O917 C898 1.243 . S
O918 La896 2.554 . S
O918 C905 1.240 . S
O919 La896 2.757 . S
O919 La897 2.482 . S
O919 C905 1.289 . S
O920 La896 2.470 . S
O920 C906 1.258 . S
O921 La897 2.503 . S
O921 C906 1.256 . S
O922 La897 2.521 . S
O922 C907 1.261 . S
O923 La897 2.628 . S
O923 C907 1.243 . S
O924 La897 2.554 . S
O924 C914 1.240 . S
O925 La896 2.482 . S
O925 La897 2.757 . S
O925 C914 1.289 . S
O926 La897 2.470 . S
O926 C915 1.258 . S
O927 La896 2.503 . S
O927 C915 1.256 . S
H928 C900 0.930 . S
H929 C901 0.930 . S
H930 C903 0.929 . S
H931 C904 0.929 . S
H932 C909 0.930 . S
H933 C910 0.930 . S
H934 C912 0.929 . S
H935 C913 0.929 . S
La936 C938 2.928 . S
La936 O956 2.521 . S
La936 O957 2.628 . S
La936 O958 2.554 1_554 S
La936 O959 2.757 . S
La936 O960 2.470 . S
La936 O965 2.482 . S
La936 O967 2.503 . S
La937 C947 2.928 1_455 S
La937 O959 2.482 . S
La937 O961 2.503 . S
La937 O962 2.497 1_455 S
La937 O963 2.628 . S
La937 O964 2.554 . S
La937 O965 2.757 . S
La937 O966 2.470 . S
C938 La936 2.928 . S
C938 C939 1.503 . S
C938 O956 1.261 . S
C938 O957 1.243 . S
C939 C938 1.503 . S
C939 C940 1.418 . S
C939 C944 1.373 . S
C940 C939 1.418 . S
C940 C941 1.376 1_554 S
C940 H968 0.911 1_554 S
C941 C940 1.376 1_556 S
C941 C942 1.376 1_556 S
C941 H969 0.930 . S
C942 C941 1.376 1_554 S
C942 C943 1.370 . S
C943 C942 1.370 . S
C943 C944 1.396 . S
C943 H970 0.929 . S
C944 C939 1.373 . S
C944 C943 1.396 . S
C944 H971 0.929 . S
C945 O958 1.240 . S
C945 O959 1.289 1_556 S
C946 O960 1.258 . S
C946 O961 1.256 . S
C947 La937 2.928 1_655 S
C947 C948 1.503 . S
C947 O962 1.271 . S
C947 O963 1.243 1_655 S
C948 C947 1.503 . S
C948 C949 1.394 . S
C948 C953 1.373 . S
C949 C948 1.394 . S
C949 C950 1.380 . S
C949 H972 0.930 . S
C950 C949 1.380 . S
C950 C951 1.376 . S
C950 H973 0.930 . S
C951 C950 1.376 . S
C951 C952 1.370 . S
C952 C951 1.370 . S
C952 C953 1.396 . S
C952 H974 0.929 . S
C953 C948 1.373 . S
C953 C952 1.396 . S
C953 H975 0.929 . S
C954 O964 1.240 . S
C954 O965 1.289 . S
C955 O966 1.258 . S
C955 O967 1.256 . S
O956 La936 2.521 . S
O956 C938 1.261 . S
O957 La936 2.628 . S
O957 C938 1.243 . S
O958 La936 2.554 1_556 S
O958 C945 1.240 . S
O959 La936 2.757 . S
O959 La937 2.482 . S
O959 C945 1.289 1_554 S
O960 La936 2.470 . S
O960 C946 1.258 . S
O961 La937 2.503 . S
O961 C946 1.256 . S
O962 La937 2.497 1_655 S
O962 C947 1.271 . S
O963 La937 2.628 . S
O963 C947 1.243 1_455 S
O964 La937 2.554 . S
O964 C954 1.240 . S
O965 La936 2.482 . S
O965 La937 2.757 . S
O965 C954 1.289 . S
O966 La937 2.470 . S
O966 C955 1.258 . S
O967 La936 2.503 . S
O967 C955 1.256 . S
H968 C940 0.911 1_556 S
H969 C941 0.930 . S
H970 C943 0.929 . S
H971 C944 0.929 . S
H972 C949 0.930 . S
H973 C950 0.930 . S
H974 C952 0.929 . S
H975 C953 0.929 . S
H976 C984 0.950 . S
H977 C989 0.950 . S
H978 C986 0.950 . S
H979 C988 0.950 . S
H980 C990 0.950 . S
H981 C992 0.950 . S
H982 C994 0.950 . S
H983 C995 0.950 . S
C984 H976 0.950 . S
C984 C985 1.386 . S
C984 C986 1.391 . S
C985 C984 1.386 . S
C985 C989 1.393 . S
C986 H978 0.950 . S
C986 C984 1.391 . S
C986 C987 1.400 . S
C987 C986 1.400 . S
C987 C988 1.398 . S
C987 C993 1.491 . S
C988 H979 0.950 . S
C988 C987 1.398 . S
C988 C989 1.391 . S
C989 H977 0.950 . S
C989 C985 1.393 . S
C989 C988 1.391 . S
C990 H980 0.950 . S
C990 C991 1.386 . S
C990 C992 1.391 . S
C991 C990 1.386 . S
C991 C995 1.393 1_554 S
C992 H981 0.950 . S
C992 C990 1.391 . S
C992 C993 1.400 1_554 S
C993 C987 1.491 . S
C993 C992 1.400 1_556 S
C993 C994 1.398 . S
C994 H982 0.950 . S
C994 C993 1.398 . S
C994 C995 1.391 . S
C995 H983 0.950 . S
C995 C991 1.393 1_556 S
C995 C994 1.391 . S
H996 C1004 0.950 . S
H997 C1009 0.950 . S
H998 C1006 0.950 . S
H999 C1008 0.950 . S
H1000 C1010 0.950 . S
H1001 C1012 0.950 . S
H1002 C1014 0.950 . S
H1003 C1015 0.950 . S
C1004 H996 0.950 . S
C1004 C1005 1.386 . S
C1004 C1006 1.391 . S
C1005 C1004 1.386 . S
C1005 C1009 1.393 . S
C1006 H998 0.950 . S
C1006 C1004 1.391 . S
C1006 C1007 1.400 . S
C1007 C1006 1.400 . S
C1007 C1008 1.398 . S
C1007 C1013 1.491 . S
C1008 H999 0.950 . S
C1008 C1007 1.398 . S
C1008 C1009 1.391 . S
C1009 H997 0.950 . S
C1009 C1005 1.393 . S
C1009 C1008 1.391 . S
C1010 H1000 0.950 . S
C1010 C1011 1.386 . S
C1010 C1012 1.391 . S
C1011 C1010 1.386 . S
C1011 C1015 1.393 . S
C1012 H1001 0.950 . S
C1012 C1010 1.391 . S
C1012 C1013 1.400 . S
C1013 C1007 1.491 . S
C1013 C1012 1.400 . S
C1013 C1014 1.398 . S
C1014 H1002 0.950 . S
C1014 C1013 1.398 . S
C1014 C1015 1.391 . S
C1015 H1003 0.950 . S
C1015 C1011 1.393 . S
C1015 C1014 1.391 . S
H1016 C1024 0.950 . S
H1017 C1029 0.950 . S
H1018 C1026 0.950 . S
H1019 C1028 0.950 . S
H1020 C1030 0.950 . S
H1021 C1032 0.950 . S
H1022 C1034 0.950 . S
H1023 C1035 0.950 . S
C1024 H1016 0.950 . S
C1024 C1025 1.386 . S
C1024 C1026 1.391 . S
C1025 C1024 1.386 . S
C1025 C1029 1.393 . S
C1026 H1018 0.950 . S
C1026 C1024 1.391 . S
C1026 C1027 1.400 . S
C1027 C1026 1.400 . S
C1027 C1028 1.398 . S
C1027 C1033 1.491 . S
C1028 H1019 0.950 . S
C1028 C1027 1.398 . S
C1028 C1029 1.391 . S
C1029 H1017 0.950 . S
C1029 C1025 1.393 . S
C1029 C1028 1.391 . S
C1030 H1020 0.950 . S
C1030 C1031 1.386 . S
C1030 C1032 1.391 . S
C1031 C1030 1.386 . S
C1031 C1035 1.393 . S
C1032 H1021 0.950 . S
C1032 C1030 1.391 . S
C1032 C1033 1.400 . S
C1033 C1027 1.491 . S
C1033 C1032 1.400 . S
C1033 C1034 1.398 . S
C1034 H1022 0.950 . S
C1034 C1033 1.398 . S
C1034 C1035 1.391 . S
C1035 H1023 0.950 . S
C1035 C1031 1.393 . S
C1035 C1034 1.391 . S
H1036 C1044 0.950 . S
H1037 C1049 0.950 . S
H1038 C1046 0.950 . S
H1039 C1048 0.950 . S
H1040 C1050 0.950 . S
H1041 C1052 0.950 . S
H1042 C1054 0.950 . S
H1043 C1055 0.950 . S
C1044 H1036 0.950 . S
C1044 C1045 1.386 . S
C1044 C1046 1.391 . S
C1045 C1044 1.386 . S
C1045 C1049 1.393 . S
C1046 H1038 0.950 . S
C1046 C1044 1.391 . S
C1046 C1047 1.400 . S
C1047 C1046 1.400 . S
C1047 C1048 1.398 . S
C1047 C1053 1.491 . S
C1048 H1039 0.950 . S
C1048 C1047 1.398 . S
C1048 C1049 1.391 . S
C1049 H1037 0.950 . S
C1049 C1045 1.393 . S
C1049 C1048 1.391 . S
C1050 H1040 0.950 . S
C1050 C1051 1.386 . S
C1050 C1052 1.391 . S
C1051 C1050 1.386 . S
C1051 C1055 1.393 . S
C1052 H1041 0.950 . S
C1052 C1050 1.391 . S
C1052 C1053 1.400 . S
C1053 C1047 1.491 . S
C1053 C1052 1.400 . S
C1053 C1054 1.398 . S
C1054 H1042 0.950 . S
C1054 C1053 1.398 . S
C1054 C1055 1.391 . S
C1055 H1043 0.950 . S
C1055 C1051 1.393 . S
C1055 C1054 1.391 . S
H1056 C1064 0.950 1_655 S
H1057 C1069 0.950 . S
H1058 C1066 0.950 . S
H1059 C1068 0.950 . S
H1060 C1070 0.950 . S
H1061 C1072 0.950 . S
H1062 C1074 0.950 . S
H1063 C1075 0.950 . S
C1064 H1056 0.950 1_455 S
C1064 C1065 1.386 . S
C1064 C1066 1.391 . S
C1065 C1064 1.386 . S
C1065 C1069 1.393 . S
C1066 H1058 0.950 . S
C1066 C1064 1.391 . S
C1066 C1067 1.400 . S
C1067 C1066 1.400 . S
C1067 C1068 1.398 . S
C1067 C1073 1.491 . S
C1068 H1059 0.950 . S
C1068 C1067 1.398 . S
C1068 C1069 1.391 . S
C1069 H1057 0.950 . S
C1069 C1065 1.393 . S
C1069 C1068 1.391 . S
C1070 H1060 0.950 . S
C1070 C1071 1.386 . S
C1070 C1072 1.391 . S
C1071 C1070 1.386 . S
C1071 C1075 1.393 . S
C1072 H1061 0.950 . S
C1072 C1070 1.391 . S
C1072 C1073 1.400 . S
C1073 C1067 1.491 . S
C1073 C1072 1.400 . S
C1073 C1074 1.398 . S
C1074 H1062 0.950 . S
C1074 C1073 1.398 . S
C1074 C1075 1.391 . S
C1075 H1063 0.950 . S
C1075 C1071 1.393 . S
C1075 C1074 1.391 . S
H1076 C1084 0.950 . S
H1077 C1089 0.950 . S
H1078 C1086 0.950 . S
H1079 C1088 0.950 . S
H1080 C1090 0.950 . S
H1081 C1092 0.950 . S
H1082 C1094 0.950 . S
H1083 C1095 0.950 . S
C1084 H1076 0.950 . S
C1084 C1085 1.386 . S
C1084 C1086 1.391 . S
C1085 C1084 1.386 . S
C1085 C1089 1.393 . S
C1086 H1078 0.950 . S
C1086 C1084 1.391 . S
C1086 C1087 1.400 . S
C1087 C1086 1.400 . S
C1087 C1088 1.398 . S
C1087 C1093 1.491 . S
C1088 H1079 0.950 . S
C1088 C1087 1.398 . S
C1088 C1089 1.391 . S
C1089 H1077 0.950 . S
C1089 C1085 1.393 . S
C1089 C1088 1.391 . S
C1090 H1080 0.950 . S
C1090 C1091 1.386 . S
C1090 C1092 1.391 . S
C1091 C1090 1.386 . S
C1091 C1095 1.393 . S
C1092 H1081 0.950 . S
C1092 C1090 1.391 . S
C1092 C1093 1.400 . S
C1093 C1087 1.491 . S
C1093 C1092 1.400 . S
C1093 C1094 1.398 . S
C1094 H1082 0.950 . S
C1094 C1093 1.398 . S
C1094 C1095 1.391 . S
C1095 H1083 0.950 . S
C1095 C1091 1.393 . S
C1095 C1094 1.391 . S
H1096 C1104 0.950 . S
H1097 C1109 0.950 . S
H1098 C1106 0.950 . S
H1099 C1108 0.950 . S
H1100 C1110 0.950 . S
H1101 C1112 0.950 . S
H1102 C1114 0.950 . S
H1103 C1115 0.950 . S
C1104 H1096 0.950 . S
C1104 C1105 1.386 . S
C1104 C1106 1.391 . S
C1105 C1104 1.386 . S
C1105 C1109 1.393 . S
C1106 H1098 0.950 . S
C1106 C1104 1.391 . S
C1106 C1107 1.400 . S
C1107 C1106 1.400 . S
C1107 C1108 1.398 . S
C1107 C1113 1.491 . S
C1108 H1099 0.950 . S
C1108 C1107 1.398 . S
C1108 C1109 1.391 . S
C1109 H1097 0.950 . S
C1109 C1105 1.393 . S
C1109 C1108 1.391 . S
C1110 H1100 0.950 . S
C1110 C1111 1.386 . S
C1110 C1112 1.391 . S
C1111 C1110 1.386 . S
C1111 C1115 1.393 . S
C1112 H1101 0.950 . S
C1112 C1110 1.391 . S
C1112 C1113 1.400 . S
C1113 C1107 1.491 . S
C1113 C1112 1.400 . S
C1113 C1114 1.398 . S
C1114 H1102 0.950 . S
C1114 C1113 1.398 . S
C1114 C1115 1.391 . S
C1115 H1103 0.950 . S
C1115 C1111 1.393 . S
C1115 C1114 1.391 . S
H1116 C1124 0.950 . S
H1117 C1129 0.950 . S
H1118 C1126 0.950 . S
H1119 C1128 0.950 . S
H1120 C1130 0.950 . S
H1121 C1132 0.950 . S
H1122 C1134 0.950 . S
H1123 C1135 0.950 . S
C1124 H1116 0.950 . S
C1124 C1125 1.386 . S
C1124 C1126 1.391 . S
C1125 C1124 1.386 . S
C1125 C1129 1.393 . S
C1126 H1118 0.950 . S
C1126 C1124 1.391 . S
C1126 C1127 1.400 . S
C1127 C1126 1.400 . S
C1127 C1128 1.398 . S
C1127 C1133 1.491 . S
C1128 H1119 0.950 . S
C1128 C1127 1.398 . S
C1128 C1129 1.391 . S
C1129 H1117 0.950 . S
C1129 C1125 1.393 . S
C1129 C1128 1.391 . S
C1130 H1120 0.950 . S
C1130 C1131 1.386 . S
C1130 C1132 1.391 . S
C1131 C1130 1.386 . S
C1131 C1135 1.393 . S
C1132 H1121 0.950 . S
C1132 C1130 1.391 . S
C1132 C1133 1.400 . S
C1133 C1127 1.491 . S
C1133 C1132 1.400 . S
C1133 C1134 1.398 . S
C1134 H1122 0.950 . S
C1134 C1133 1.398 . S
C1134 C1135 1.391 . S
C1135 H1123 0.950 . S
C1135 C1131 1.393 . S
C1135 C1134 1.391 . S
H1136 C1144 0.950 . S
H1137 C1149 0.950 1_455 S
H1138 C1146 0.950 . S
H1139 C1148 0.950 . S
H1140 C1150 0.950 . S
H1141 C1152 0.950 . S
H1142 C1154 0.950 . S
H1143 C1155 0.951 . S
C1144 H1136 0.950 . S
C1144 C1145 1.386 . S
C1144 C1146 1.391 . S
C1145 C1144 1.386 . S
C1145 C1149 1.393 . S
C1146 H1138 0.950 . S
C1146 C1144 1.391 . S
C1146 C1147 1.400 . S
C1147 C1146 1.400 . S
C1147 C1148 1.398 1_655 S
C1147 C1153 1.491 1_655 S
C1148 H1139 0.950 . S
C1148 C1147 1.398 1_455 S
C1148 C1149 1.391 1_455 S
C1149 H1137 0.950 1_655 S
C1149 C1145 1.393 . S
C1149 C1148 1.391 1_655 S
C1150 H1140 0.950 . S
C1150 C1151 1.386 . S
C1150 C1152 1.391 . S
C1151 C1150 1.386 . S
C1151 C1155 1.393 . S
C1152 H1141 0.950 . S
C1152 C1150 1.391 . S
C1152 C1153 1.400 . S
C1153 C1147 1.491 1_455 S
C1153 C1152 1.400 . S
C1153 C1154 1.398 1_455 S
C1154 H1142 0.950 . S
C1154 C1153 1.398 1_655 S
C1154 C1155 1.391 1_655 S
C1155 H1143 0.951 . S
C1155 C1151 1.393 . S
C1155 C1154 1.391 1_455 S
H1156 C1164 0.950 . S
H1157 C1169 0.950 . S
H1158 C1166 0.950 . S
H1159 C1168 0.950 . S
H1160 C1170 0.950 . S
H1161 C1172 0.950 . S
H1162 C1174 0.950 . S
H1163 C1175 0.950 . S
C1164 H1156 0.950 . S
C1164 C1165 1.386 . S
C1164 C1166 1.391 . S
C1165 C1164 1.386 . S
C1165 C1169 1.393 . S
C1166 H1158 0.950 . S
C1166 C1164 1.391 . S
C1166 C1167 1.400 . S
C1167 C1166 1.400 . S
C1167 C1168 1.398 . S
C1167 C1173 1.491 . S
C1168 H1159 0.950 . S
C1168 C1167 1.398 . S
C1168 C1169 1.391 . S
C1169 H1157 0.950 . S
C1169 C1165 1.393 . S
C1169 C1168 1.391 . S
C1170 H1160 0.950 . S
C1170 C1171 1.386 . S
C1170 C1172 1.391 . S
C1171 C1170 1.386 . S
C1171 C1175 1.393 . S
C1172 H1161 0.950 . S
C1172 C1170 1.391 . S
C1172 C1173 1.400 . S
C1173 C1167 1.491 . S
C1173 C1172 1.400 . S
C1173 C1174 1.398 . S
C1174 H1162 0.950 . S
C1174 C1173 1.398 . S
C1174 C1175 1.391 . S
C1175 H1163 0.950 . S
C1175 C1171 1.393 . S
C1175 C1174 1.391 . S
H1176 C1184 0.950 . S
H1177 C1189 0.950 . S
H1178 C1186 0.950 . S
H1179 C1188 0.950 . S
H1180 C1190 0.950 . S
H1181 C1192 0.950 . S
H1182 C1194 0.950 . S
H1183 C1195 0.950 . S
C1184 H1176 0.950 . S
C1184 C1185 1.386 . S
C1184 C1186 1.391 . S
C1185 C1184 1.386 . S
C1185 C1189 1.393 . S
C1186 H1178 0.950 . S
C1186 C1184 1.391 . S
C1186 C1187 1.400 . S
C1187 C1186 1.400 . S
C1187 C1188 1.398 . S
C1187 C1193 1.491 . S
C1188 H1179 0.950 . S
C1188 C1187 1.398 . S
C1188 C1189 1.391 . S
C1189 H1177 0.950 . S
C1189 C1185 1.393 . S
C1189 C1188 1.391 . S
C1190 H1180 0.950 . S
C1190 C1191 1.386 . S
C1190 C1192 1.391 . S
C1191 C1190 1.386 . S
C1191 C1195 1.393 . S
C1192 H1181 0.950 . S
C1192 C1190 1.391 . S
C1192 C1193 1.400 . S
C1193 C1187 1.491 . S
C1193 C1192 1.400 . S
C1193 C1194 1.398 . S
C1194 H1182 0.950 . S
C1194 C1193 1.398 . S
C1194 C1195 1.391 . S
C1195 H1183 0.950 . S
C1195 C1191 1.393 . S
C1195 C1194 1.391 . S
H1196 C1204 0.950 . S
H1197 C1209 0.950 . S
H1198 C1206 0.950 . S
H1199 C1208 0.950 . S
H1200 C1210 0.950 . S
H1201 C1212 0.950 . S
H1202 C1214 0.950 . S
H1203 C1215 0.950 . S
C1204 H1196 0.950 . S
C1204 C1205 1.386 . S
C1204 C1206 1.391 . S
C1205 C1204 1.386 . S
C1205 C1209 1.393 . S
C1206 H1198 0.950 . S
C1206 C1204 1.391 . S
C1206 C1207 1.400 . S
C1207 C1206 1.400 . S
C1207 C1208 1.398 . S
C1207 C1213 1.491 . S
C1208 H1199 0.950 . S
C1208 C1207 1.398 . S
C1208 C1209 1.391 . S
C1209 H1197 0.950 . S
C1209 C1205 1.393 . S
C1209 C1208 1.391 . S
C1210 H1200 0.950 . S
C1210 C1211 1.386 . S
C1210 C1212 1.391 . S
C1211 C1210 1.386 . S
C1211 C1215 1.393 . S
C1212 H1201 0.950 . S
C1212 C1210 1.391 . S
C1212 C1213 1.400 . S
C1213 C1207 1.491 . S
C1213 C1212 1.400 . S
C1213 C1214 1.398 . S
C1214 H1202 0.950 . S
C1214 C1213 1.398 . S
C1214 C1215 1.391 . S
C1215 H1203 0.950 . S
C1215 C1211 1.393 . S
C1215 C1214 1.391 . S
H1216 C1224 0.950 . S
H1217 C1229 0.950 . S
H1218 C1226 0.950 . S
H1219 C1228 0.950 . S
H1220 C1230 0.950 . S
H1221 C1232 0.950 . S
H1222 C1234 0.950 1_655 S
H1223 C1235 0.950 . S
C1224 H1216 0.950 . S
C1224 C1225 1.386 . S
C1224 C1226 1.391 . S
C1225 C1224 1.386 . S
C1225 C1229 1.393 1_655 S
C1226 H1218 0.950 . S
C1226 C1224 1.391 . S
C1226 C1227 1.400 1_655 S
C1227 C1226 1.400 1_455 S
C1227 C1228 1.398 . S
C1227 C1233 1.491 . S
C1228 H1219 0.950 . S
C1228 C1227 1.398 . S
C1228 C1229 1.391 . S
C1229 H1217 0.950 . S
C1229 C1225 1.393 1_455 S
C1229 C1228 1.391 . S
C1230 H1220 0.950 . S
C1230 C1231 1.386 . S
C1230 C1232 1.391 . S
C1231 C1230 1.386 . S
C1231 C1235 1.393 . S
C1232 H1221 0.950 . S
C1232 C1230 1.391 . S
C1232 C1233 1.400 . S
C1233 C1227 1.491 . S
C1233 C1232 1.400 . S
C1233 C1234 1.398 . S
C1234 H1222 0.950 1_455 S
C1234 C1233 1.398 . S
C1234 C1235 1.391 . S
C1235 H1223 0.950 . S
C1235 C1231 1.393 . S
C1235 C1234 1.391 . S
H1236 C1244 0.950 . S
H1237 C1249 0.950 . S
H1238 C1246 0.950 . S
H1239 C1248 0.950 . S
H1240 C1250 0.950 . S
H1241 C1252 0.950 . S
H1242 C1254 0.950 . S
H1243 C1255 0.950 . S
C1244 H1236 0.950 . S
C1244 C1245 1.386 . S
C1244 C1246 1.391 . S
C1245 C1244 1.386 . S
C1245 C1249 1.393 . S
C1246 H1238 0.950 . S
C1246 C1244 1.391 . S
C1246 C1247 1.400 . S
C1247 C1246 1.400 . S
C1247 C1248 1.398 . S
C1247 C1253 1.491 . S
C1248 H1239 0.950 . S
C1248 C1247 1.398 . S
C1248 C1249 1.391 . S
C1249 H1237 0.950 . S
C1249 C1245 1.393 . S
C1249 C1248 1.391 . S
C1250 H1240 0.950 . S
C1250 C1251 1.386 . S
C1250 C1252 1.391 . S
C1251 C1250 1.386 . S
C1251 C1255 1.393 . S
C1252 H1241 0.950 . S
C1252 C1250 1.391 . S
C1252 C1253 1.400 . S
C1253 C1247 1.491 . S
C1253 C1252 1.400 . S
C1253 C1254 1.398 . S
C1254 H1242 0.950 . S
C1254 C1253 1.398 . S
C1254 C1255 1.391 . S
C1255 H1243 0.950 . S
C1255 C1251 1.393 . S
C1255 C1254 1.391 . S
H1256 C1264 0.950 . S
H1257 C1269 0.950 . S
H1258 C1266 0.950 . S
H1259 C1268 0.950 . S
H1260 C1270 0.950 . S
H1261 C1272 0.950 . S
H1262 C1274 0.950 . S
H1263 C1275 0.950 . S
C1264 H1256 0.950 . S
C1264 C1265 1.386 . S
C1264 C1266 1.391 . S
C1265 C1264 1.386 . S
C1265 C1269 1.393 . S
C1266 H1258 0.950 . S
C1266 C1264 1.391 . S
C1266 C1267 1.400 . S
C1267 C1266 1.400 . S
C1267 C1268 1.398 . S
C1267 C1273 1.491 . S
C1268 H1259 0.950 . S
C1268 C1267 1.398 . S
C1268 C1269 1.391 . S
C1269 H1257 0.950 . S
C1269 C1265 1.393 . S
C1269 C1268 1.391 . S
C1270 H1260 0.950 . S
C1270 C1271 1.386 . S
C1270 C1272 1.391 . S
C1271 C1270 1.386 . S
C1271 C1275 1.393 . S
C1272 H1261 0.950 . S
C1272 C1270 1.391 . S
C1272 C1273 1.400 . S
C1273 C1267 1.491 . S
C1273 C1272 1.400 . S
C1273 C1274 1.398 . S
C1274 H1262 0.950 . S
C1274 C1273 1.398 . S
C1274 C1275 1.391 . S
C1275 H1263 0.950 . S
C1275 C1271 1.393 . S
C1275 C1274 1.391 . S
H1276 C1284 0.950 . S
H1277 C1289 0.950 . S
H1278 C1286 0.950 . S
H1279 C1288 0.950 . S
H1280 C1290 0.950 . S
H1281 C1292 0.950 . S
H1282 C1294 0.950 . S
H1283 C1295 0.950 . S
C1284 H1276 0.950 . S
C1284 C1285 1.386 . S
C1284 C1286 1.391 . S
C1285 C1284 1.386 . S
C1285 C1289 1.393 . S
C1286 H1278 0.950 . S
C1286 C1284 1.391 . S
C1286 C1287 1.400 . S
C1287 C1286 1.400 . S
C1287 C1288 1.398 . S
C1287 C1293 1.491 . S
C1288 H1279 0.950 . S
C1288 C1287 1.398 . S
C1288 C1289 1.391 . S
C1289 H1277 0.950 . S
C1289 C1285 1.393 . S
C1289 C1288 1.391 . S
C1290 H1280 0.950 . S
C1290 C1291 1.386 . S
C1290 C1292 1.391 . S
C1291 C1290 1.386 . S
C1291 C1295 1.393 . S
C1292 H1281 0.950 . S
C1292 C1290 1.391 . S
C1292 C1293 1.400 . S
C1293 C1287 1.491 . S
C1293 C1292 1.400 . S
C1293 C1294 1.398 . S
C1294 H1282 0.950 . S
C1294 C1293 1.398 . S
C1294 C1295 1.391 . S
C1295 H1283 0.950 . S
C1295 C1291 1.393 . S
C1295 C1294 1.391 . S
H1296 C1304 0.950 . S
H1297 C1309 0.950 . S
H1298 C1306 0.950 . S
H1299 C1308 0.950 . S
H1300 C1310 0.950 . S
H1301 C1312 0.950 . S
H1302 C1314 0.950 . S
H1303 C1315 0.950 . S
C1304 H1296 0.950 . S
C1304 C1305 1.386 . S
C1304 C1306 1.391 . S
C1305 C1304 1.386 . S
C1305 C1309 1.393 . S
C1306 H1298 0.950 . S
C1306 C1304 1.391 . S
C1306 C1307 1.400 . S
C1307 C1306 1.400 . S
C1307 C1308 1.398 . S
C1307 C1313 1.491 . S
C1308 H1299 0.950 . S
C1308 C1307 1.398 . S
C1308 C1309 1.391 . S
C1309 H1297 0.950 . S
C1309 C1305 1.393 . S
C1309 C1308 1.391 . S
C1310 H1300 0.950 . S
C1310 C1311 1.397 . S
C1310 C1312 1.391 . S
C1311 C1310 1.397 . S
C1311 C1315 1.357 1_545 S
C1312 H1301 0.950 . S
C1312 C1310 1.391 . S
C1312 C1313 1.400 1_545 S
C1313 C1307 1.491 . S
C1313 C1312 1.400 1_565 S
C1313 C1314 1.398 . S
C1314 H1302 0.950 . S
C1314 C1313 1.398 . S
C1314 C1315 1.391 . S
C1315 H1303 0.950 . S
C1315 C1311 1.357 1_565 S
C1315 C1314 1.391 . S
H1316 C1324 0.950 . S
H1317 C1329 0.950 . S
H1318 C1326 0.950 . S
H1319 C1328 0.950 . S
H1320 C1330 0.950 . S
H1321 C1332 0.950 . S
H1322 C1334 0.950 . S
H1323 C1335 0.950 . S
C1324 H1316 0.950 . S
C1324 C1325 1.386 1_556 S
C1324 C1326 1.391 . S
C1325 C1324 1.386 1_554 S
C1325 C1329 1.393 . S
C1326 H1318 0.950 . S
C1326 C1324 1.391 . S
C1326 C1327 1.400 1_556 S
C1327 C1326 1.400 1_554 S
C1327 C1328 1.398 . S
C1327 C1333 1.491 . S
C1328 H1319 0.950 . S
C1328 C1327 1.398 . S
C1328 C1329 1.391 . S
C1329 H1317 0.950 . S
C1329 C1325 1.393 . S
C1329 C1328 1.391 . S
C1330 H1320 0.950 . S
C1330 C1331 1.386 . S
C1330 C1332 1.391 . S
C1331 C1330 1.386 . S
C1331 C1335 1.393 1_554 S
C1332 H1321 0.950 . S
C1332 C1330 1.391 . S
C1332 C1333 1.400 . S
C1333 C1327 1.491 . S
C1333 C1332 1.400 . S
C1333 C1334 1.398 1_554 S
C1334 H1322 0.950 . S
C1334 C1333 1.398 1_556 S
C1334 C1335 1.391 . S
C1335 H1323 0.950 . S
C1335 C1331 1.393 1_556 S
C1335 C1334 1.391 . S
H1336 C1344 0.950 . S
H1337 C1349 0.950 . S
H1338 C1346 0.950 . S
H1339 C1348 0.950 . S
H1340 C1350 0.950 . S
H1341 C1352 0.950 . S
H1342 C1354 0.950 . S
H1343 C1355 0.950 . S
C1344 H1336 0.950 . S
C1344 C1345 1.386 . S
C1344 C1346 1.391 . S
C1345 C1344 1.386 . S
C1345 C1349 1.393 . S
C1346 H1338 0.950 . S
C1346 C1344 1.391 . S
C1346 C1347 1.400 . S
C1347 C1346 1.400 . S
C1347 C1348 1.398 . S
C1347 C1353 1.491 . S
C1348 H1339 0.950 . S
C1348 C1347 1.398 . S
C1348 C1349 1.391 . S
C1349 H1337 0.950 . S
C1349 C1345 1.393 . S
C1349 C1348 1.391 . S
C1350 H1340 0.950 . S
C1350 C1351 1.386 . S
C1350 C1352 1.391 . S
C1351 C1350 1.386 . S
C1351 C1355 1.393 . S
C1352 H1341 0.950 . S
C1352 C1350 1.391 . S
C1352 C1353 1.400 . S
C1353 C1347 1.491 . S
C1353 C1352 1.400 . S
C1353 C1354 1.398 . S
C1354 H1342 0.950 . S
C1354 C1353 1.398 . S
C1354 C1355 1.391 . S
C1355 H1343 0.950 . S
C1355 C1351 1.393 . S
C1355 C1354 1.391 . S
H1356 C1364 0.950 . S
H1357 C1369 0.950 . S
H1358 C1366 0.950 . S
H1359 C1368 0.950 . S
H1360 C1370 0.908 1_455 S
H1361 C1372 0.950 . S
H1362 C1374 0.950 . S
H1363 C1375 0.950 . S
C1364 H1356 0.950 . S
C1364 C1365 1.386 . S
C1364 C1366 1.391 . S
C1365 C1364 1.386 . S
C1365 C1369 1.393 . S
C1366 H1358 0.950 . S
C1366 C1364 1.391 . S
C1366 C1367 1.400 . S
C1367 C1366 1.400 . S
C1367 C1368 1.398 . S
C1367 C1373 1.491 . S
C1368 H1359 0.950 . S
C1368 C1367 1.398 . S
C1368 C1369 1.391 . S
C1369 H1357 0.950 . S
C1369 C1365 1.393 . S
C1369 C1368 1.391 . S
C1370 H1360 0.908 1_655 S
C1370 C1371 1.386 . S
C1370 C1372 1.391 . S
C1371 C1370 1.386 . S
C1371 C1375 1.393 . S
C1372 H1361 0.950 . S
C1372 C1370 1.391 . S
C1372 C1373 1.400 . S
C1373 C1367 1.491 . S
C1373 C1372 1.400 . S
C1373 C1374 1.398 . S
C1374 H1362 0.950 . S
C1374 C1373 1.398 . S
C1374 C1375 1.391 . S
C1375 H1363 0.950 . S
C1375 C1371 1.393 . S
C1375 C1374 1.391 . S
H1376 C1384 0.950 . S
H1377 C1389 0.950 . S
H1378 C1386 0.950 . S
H1379 C1388 0.950 . S
H1380 C1390 0.950 . S
H1381 C1392 0.950 . S
H1382 C1394 0.950 . S
H1383 C1395 0.950 . S
C1384 H1376 0.950 . S
C1384 C1385 1.386 . S
C1384 C1386 1.391 . S
C1385 C1384 1.386 . S
C1385 C1389 1.393 . S
C1386 H1378 0.950 . S
C1386 C1384 1.391 . S
C1386 C1387 1.400 . S
C1387 C1386 1.400 . S
C1387 C1388 1.398 . S
C1387 C1393 1.491 . S
C1388 H1379 0.950 . S
C1388 C1387 1.398 . S
C1388 C1389 1.391 . S
C1389 H1377 0.950 . S
C1389 C1385 1.393 . S
C1389 C1388 1.391 . S
C1390 H1380 0.950 . S
C1390 C1391 1.386 . S
C1390 C1392 1.391 . S
C1391 C1390 1.386 . S
C1391 C1395 1.393 . S
C1392 H1381 0.950 . S
C1392 C1390 1.391 . S
C1392 C1393 1.400 . S
C1393 C1387 1.491 . S
C1393 C1392 1.400 . S
C1393 C1394 1.398 . S
C1394 H1382 0.950 . S
C1394 C1393 1.398 . S
C1394 C1395 1.391 . S
C1395 H1383 0.950 . S
C1395 C1391 1.393 . S
C1395 C1394 1.391 . S
H1396 C1404 0.950 . S
H1397 C1409 0.950 . S
H1398 C1406 0.950 . S
H1399 C1408 0.950 . S
H1400 C1410 0.950 . S
H1401 C1412 0.950 . S
H1402 C1414 0.950 . S
H1403 C1415 0.950 . S
C1404 H1396 0.950 . S
C1404 C1405 1.386 . S
C1404 C1406 1.391 . S
C1405 C1404 1.386 . S
C1405 C1409 1.393 . S
C1406 H1398 0.950 . S
C1406 C1404 1.391 . S
C1406 C1407 1.400 . S
C1407 C1406 1.400 . S
C1407 C1408 1.398 . S
C1407 C1413 1.491 . S
C1408 H1399 0.950 . S
C1408 C1407 1.398 . S
C1408 C1409 1.391 . S
C1409 H1397 0.950 . S
C1409 C1405 1.393 . S
C1409 C1408 1.391 . S
C1410 H1400 0.950 . S
C1410 C1411 1.386 . S
C1410 C1412 1.391 . S
C1411 C1410 1.386 . S
C1411 C1415 1.393 . S
C1412 H1401 0.950 . S
C1412 C1410 1.391 . S
C1412 C1413 1.400 . S
C1413 C1407 1.491 . S
C1413 C1412 1.400 . S
C1413 C1414 1.398 . S
C1414 H1402 0.950 . S
C1414 C1413 1.398 . S
C1414 C1415 1.391 . S
C1415 H1403 0.950 . S
C1415 C1411 1.393 . S
C1415 C1414 1.391 . S
H1416 C1424 0.950 . S
H1417 C1429 0.950 . S
H1418 C1426 0.950 . S
H1419 C1428 0.950 . S
H1420 C1430 0.950 . S
H1421 C1432 0.950 . S
H1422 C1434 0.950 . S
H1423 C1435 0.950 . S
C1424 H1416 0.950 . S
C1424 C1425 1.386 . S
C1424 C1426 1.391 . S
C1425 C1424 1.386 . S
C1425 C1429 1.393 . S
C1426 H1418 0.950 . S
C1426 C1424 1.391 . S
C1426 C1427 1.400 . S
C1427 C1426 1.400 . S
C1427 C1428 1.398 . S
C1427 C1433 1.491 . S
C1428 H1419 0.950 . S
C1428 C1427 1.398 . S
C1428 C1429 1.391 . S
C1429 H1417 0.950 . S
C1429 C1425 1.393 . S
C1429 C1428 1.391 . S
C1430 H1420 0.950 . S
C1430 C1431 1.386 . S
C1430 C1432 1.391 . S
C1431 C1430 1.386 . S
C1431 C1435 1.393 . S
C1432 H1421 0.950 . S
C1432 C1430 1.391 . S
C1432 C1433 1.400 . S
C1433 C1427 1.491 . S
C1433 C1432 1.400 . S
C1433 C1434 1.398 . S
C1434 H1422 0.950 . S
C1434 C1433 1.398 . S
C1434 C1435 1.391 . S
C1435 H1423 0.950 . S
C1435 C1431 1.393 . S
C1435 C1434 1.391 . S
H1436 C1444 0.950 . S
H1437 C1449 0.950 . S
H1438 C1446 0.950 . S
H1439 C1448 0.950 . S
H1440 C1450 0.950 . S
H1441 C1452 0.950 . S
H1442 C1454 0.950 . S
H1443 C1455 0.950 . S
C1444 H1436 0.950 . S
C1444 C1445 1.386 . S
C1444 C1446 1.391 . S
C1445 C1444 1.386 . S
C1445 C1449 1.393 . S
C1446 H1438 0.950 . S
C1446 C1444 1.391 . S
C1446 C1447 1.400 . S
C1447 C1446 1.400 . S
C1447 C1448 1.398 . S
C1447 C1453 1.491 . S
C1448 H1439 0.950 . S
C1448 C1447 1.398 . S
C1448 C1449 1.391 . S
C1449 H1437 0.950 . S
C1449 C1445 1.393 . S
C1449 C1448 1.391 . S
C1450 H1440 0.950 . S
C1450 C1451 1.386 . S
C1450 C1452 1.391 . S
C1451 C1450 1.386 . S
C1451 C1455 1.393 . S
C1452 H1441 0.950 . S
C1452 C1450 1.391 . S
C1452 C1453 1.400 . S
C1453 C1447 1.491 . S
C1453 C1452 1.400 . S
C1453 C1454 1.398 . S
C1454 H1442 0.950 . S
C1454 C1453 1.398 . S
C1454 C1455 1.391 . S
C1455 H1443 0.950 . S
C1455 C1451 1.393 . S
C1455 C1454 1.391 . S
H1456 C1464 0.950 . S
H1457 C1469 0.950 . S
H1458 C1466 0.950 . S
H1459 C1468 0.950 . S
H1460 C1470 0.950 . S
H1461 C1472 0.950 . S
H1462 C1474 0.950 . S
H1463 C1475 0.950 . S
C1464 H1456 0.950 . S
C1464 C1465 1.386 . S
C1464 C1466 1.391 . S
C1465 C1464 1.386 . S
C1465 C1469 1.393 . S
C1466 H1458 0.950 . S
C1466 C1464 1.391 . S
C1466 C1467 1.400 . S
C1467 C1466 1.400 . S
C1467 C1468 1.398 . S
C1467 C1473 1.491 . S
C1468 H1459 0.950 . S
C1468 C1467 1.398 . S
C1468 C1469 1.391 . S
C1469 H1457 0.950 . S
C1469 C1465 1.393 . S
C1469 C1468 1.391 . S
C1470 H1460 0.950 . S
C1470 C1471 1.386 . S
C1470 C1472 1.391 . S
C1471 C1470 1.386 . S
C1471 C1475 1.393 . S
C1472 H1461 0.950 . S
C1472 C1470 1.391 . S
C1472 C1473 1.400 . S
C1473 C1467 1.491 . S
C1473 C1472 1.400 . S
C1473 C1474 1.398 . S
C1474 H1462 0.950 . S
C1474 C1473 1.398 . S
C1474 C1475 1.391 . S
C1475 H1463 0.950 . S
C1475 C1471 1.393 . S
C1475 C1474 1.391 . S
H1476 C1484 0.950 . S
H1477 C1489 0.950 . S
H1478 C1486 0.950 . S
H1479 C1488 0.950 . S
H1480 C1490 0.950 . S
H1481 C1492 0.950 . S
H1482 C1494 0.950 . S
H1483 C1495 0.950 . S
C1484 H1476 0.950 . S
C1484 C1485 1.386 . S
C1484 C1486 1.391 . S
C1485 C1484 1.386 . S
C1485 C1489 1.393 . S
C1486 H1478 0.950 . S
C1486 C1484 1.391 . S
C1486 C1487 1.400 . S
C1487 C1486 1.400 . S
C1487 C1488 1.398 . S
C1487 C1493 1.491 . S
C1488 H1479 0.950 . S
C1488 C1487 1.398 . S
C1488 C1489 1.391 . S
C1489 H1477 0.950 . S
C1489 C1485 1.393 . S
C1489 C1488 1.391 . S
C1490 H1480 0.950 . S
C1490 C1491 1.386 . S
C1490 C1492 1.391 . S
C1491 C1490 1.386 . S
C1491 C1495 1.393 . S
C1492 H1481 0.950 . S
C1492 C1490 1.391 . S
C1492 C1493 1.400 . S
C1493 C1487 1.491 . S
C1493 C1492 1.400 . S
C1493 C1494 1.398 . S
C1494 H1482 0.950 . S
C1494 C1493 1.398 . S
C1494 C1495 1.391 . S
C1495 H1483 0.950 . S
C1495 C1491 1.393 . S
C1495 C1494 1.391 . S
H1496 C1504 0.950 . S
H1497 C1509 0.950 . S
H1498 C1506 0.950 . S
H1499 C1508 0.950 . S
H1500 C1510 0.950 . S
H1501 C1512 0.950 . S
H1502 C1514 0.950 . S
H1503 C1515 0.950 . S
C1504 H1496 0.950 . S
C1504 C1505 1.386 . S
C1504 C1506 1.391 . S
C1505 C1504 1.386 . S
C1505 C1509 1.393 . S
C1506 H1498 0.950 . S
C1506 C1504 1.391 . S
C1506 C1507 1.400 . S
C1507 C1506 1.400 . S
C1507 C1508 1.398 . S
C1507 C1513 1.491 . S
C1508 H1499 0.950 . S
C1508 C1507 1.398 . S
C1508 C1509 1.391 . S
C1509 H1497 0.950 . S
C1509 C1505 1.393 . S
C1509 C1508 1.391 . S
C1510 H1500 0.950 . S
C1510 C1511 1.386 . S
C1510 C1512 1.391 . S
C1511 C1510 1.386 . S
C1511 C1515 1.393 . S
C1512 H1501 0.950 . S
C1512 C1510 1.391 . S
C1512 C1513 1.400 . S
C1513 C1507 1.491 . S
C1513 C1512 1.400 . S
C1513 C1514 1.398 . S
C1514 H1502 0.950 . S
C1514 C1513 1.398 . S
C1514 C1515 1.391 . S
C1515 H1503 0.950 . S
C1515 C1511 1.393 . S
C1515 C1514 1.391 . S
H1516 C1524 0.950 . S
H1517 C1529 0.950 . S
H1518 C1526 0.950 . S
H1519 C1528 0.950 . S
H1520 C1530 0.950 . S
H1521 C1532 0.950 . S
H1522 C1534 0.950 . S
H1523 C1535 0.950 . S
C1524 H1516 0.950 . S
C1524 C1525 1.386 . S
C1524 C1526 1.391 . S
C1525 C1524 1.386 . S
C1525 C1529 1.393 . S
C1526 H1518 0.950 . S
C1526 C1524 1.391 . S
C1526 C1527 1.400 . S
C1527 C1526 1.400 . S
C1527 C1528 1.398 . S
C1527 C1533 1.491 . S
C1528 H1519 0.950 . S
C1528 C1527 1.398 . S
C1528 C1529 1.391 . S
C1529 H1517 0.950 . S
C1529 C1525 1.393 . S
C1529 C1528 1.391 . S
C1530 H1520 0.950 . S
C1530 C1531 1.386 . S
C1530 C1532 1.391 . S
C1531 C1530 1.386 . S
C1531 C1535 1.393 . S
C1532 H1521 0.950 . S
C1532 C1530 1.391 . S
C1532 C1533 1.400 . S
C1533 C1527 1.491 . S
C1533 C1532 1.400 . S
C1533 C1534 1.398 . S
C1534 H1522 0.950 . S
C1534 C1533 1.398 . S
C1534 C1535 1.391 . S
C1535 H1523 0.950 . S
C1535 C1531 1.393 . S
C1535 C1534 1.391 . S
H1536 C1544 0.950 . S
H1537 C1549 0.950 . S
H1538 C1546 0.950 . S
H1539 C1548 0.950 . S
H1540 C1550 0.950 . S
H1541 C1552 0.950 . S
H1542 C1554 0.950 . S
H1543 C1555 0.950 . S
C1544 H1536 0.950 . S
C1544 C1545 1.386 . S
C1544 C1546 1.391 . S
C1545 C1544 1.386 . S
C1545 C1549 1.393 . S
C1546 H1538 0.950 . S
C1546 C1544 1.391 . S
C1546 C1547 1.400 . S
C1547 C1546 1.400 . S
C1547 C1548 1.398 . S
C1547 C1553 1.491 . S
C1548 H1539 0.950 . S
C1548 C1547 1.398 . S
C1548 C1549 1.391 . S
C1549 H1537 0.950 . S
C1549 C1545 1.393 . S
C1549 C1548 1.391 . S
C1550 H1540 0.950 . S
C1550 C1551 1.386 . S
C1550 C1552 1.391 . S
C1551 C1550 1.386 . S
C1551 C1555 1.393 . S
C1552 H1541 0.950 . S
C1552 C1550 1.391 . S
C1552 C1553 1.400 . S
C1553 C1547 1.491 . S
C1553 C1552 1.400 . S
C1553 C1554 1.398 . S
C1554 H1542 0.950 . S
C1554 C1553 1.398 . S
C1554 C1555 1.391 . S
C1555 H1543 0.950 . S
C1555 C1551 1.393 . S
C1555 C1554 1.391 . S
H1556 C1564 0.950 . S
H1557 C1569 0.950 . S
H1558 C1566 0.950 . S
H1559 C1568 0.950 . S
H1560 C1570 0.950 . S
H1561 C1572 0.950 . S
H1562 C1574 0.950 . S
H1563 C1575 0.950 . S
C1564 H1556 0.950 . S
C1564 C1565 1.386 . S
C1564 C1566 1.391 . S
C1565 C1564 1.386 . S
C1565 C1569 1.393 . S
C1566 H1558 0.950 . S
C1566 C1564 1.391 . S
C1566 C1567 1.400 . S
C1567 C1566 1.400 . S
C1567 C1568 1.398 . S
C1567 C1573 1.491 . S
C1568 H1559 0.950 . S
C1568 C1567 1.398 . S
C1568 C1569 1.391 . S
C1569 H1557 0.950 . S
C1569 C1565 1.393 . S
C1569 C1568 1.391 . S
C1570 H1560 0.950 . S
C1570 C1571 1.386 . S
C1570 C1572 1.391 . S
C1571 C1570 1.386 . S
C1571 C1575 1.393 . S
C1572 H1561 0.950 . S
C1572 C1570 1.391 . S
C1572 C1573 1.400 . S
C1573 C1567 1.491 . S
C1573 C1572 1.400 . S
C1573 C1574 1.398 . S
C1574 H1562 0.950 . S
C1574 C1573 1.398 . S
C1574 C1575 1.391 . S
C1575 H1563 0.950 . S
C1575 C1571 1.393 . S
C1575 C1574 1.391 . S
H1576 C1584 0.950 . S
H1577 C1589 0.950 . S
H1578 C1586 0.950 . S
H1579 C1588 0.950 . S
H1580 C1590 0.950 . S
H1581 C1592 0.950 . S
H1582 C1594 0.950 . S
H1583 C1595 0.950 . S
C1584 H1576 0.950 . S
C1584 C1585 1.386 . S
C1584 C1586 1.391 . S
C1585 C1584 1.386 . S
C1585 C1589 1.393 . S
C1586 H1578 0.950 . S
C1586 C1584 1.391 . S
C1586 C1587 1.400 . S
C1587 C1586 1.400 . S
C1587 C1588 1.398 . S
C1587 C1593 1.491 . S
C1588 H1579 0.950 . S
C1588 C1587 1.398 . S
C1588 C1589 1.391 . S
C1589 H1577 0.950 . S
C1589 C1585 1.393 . S
C1589 C1588 1.391 . S
C1590 H1580 0.950 . S
C1590 C1591 1.386 1_554 S
C1590 C1592 1.391 1_554 S
C1591 C1590 1.386 1_556 S
C1591 C1595 1.393 . S
C1592 H1581 0.950 . S
C1592 C1590 1.391 1_556 S
C1592 C1593 1.400 . S
C1593 C1587 1.491 . S
C1593 C1592 1.400 . S
C1593 C1594 1.398 . S
C1594 H1582 0.950 . S
C1594 C1593 1.398 . S
C1594 C1595 1.391 . S
C1595 H1583 0.950 . S
C1595 C1591 1.393 . S
C1595 C1594 1.391 . S
H1596 C1604 0.950 . S
H1597 C1609 0.950 . S
H1598 C1606 0.950 . S
H1599 C1608 0.950 . S
H1600 C1610 0.950 . S
H1601 C1612 0.950 . S
H1602 C1614 0.950 . S
H1603 C1615 0.950 . S
C1604 H1596 0.950 . S
C1604 C1605 1.386 . S
C1604 C1606 1.391 . S
C1605 C1604 1.386 . S
C1605 C1609 1.393 . S
C1606 H1598 0.950 . S
C1606 C1604 1.391 . S
C1606 C1607 1.400 . S
C1607 C1606 1.400 . S
C1607 C1608 1.398 . S
C1607 C1613 1.491 . S
C1608 H1599 0.950 . S
C1608 C1607 1.398 . S
C1608 C1609 1.391 . S
C1609 H1597 0.950 . S
C1609 C1605 1.393 . S
C1609 C1608 1.391 . S
C1610 H1600 0.950 . S
C1610 C1611 1.386 . S
C1610 C1612 1.391 . S
C1611 C1610 1.386 . S
C1611 C1615 1.393 . S
C1612 H1601 0.950 . S
C1612 C1610 1.391 . S
C1612 C1613 1.400 . S
C1613 C1607 1.491 . S
C1613 C1612 1.400 . S
C1613 C1614 1.398 . S
C1614 H1602 0.950 . S
C1614 C1613 1.398 . S
C1614 C1615 1.391 . S
C1615 H1603 0.950 . S
C1615 C1611 1.393 . S
C1615 C1614 1.391 . S
H1616 C1624 0.950 . S
H1617 C1629 0.950 . S
H1618 C1626 0.950 . S
H1619 C1628 0.950 . S
H1620 C1630 0.950 . S
H1621 C1632 0.950 . S
H1622 C1634 0.974 . S
H1623 C1635 0.950 1_565 S
C1624 H1616 0.950 . S
C1624 C1625 1.386 1_565 S
C1624 C1626 1.391 . S
C1625 C1624 1.386 1_545 S
C1625 C1629 1.393 . S
C1626 H1618 0.950 . S
C1626 C1624 1.391 . S
C1626 C1627 1.400 1_565 S
C1627 C1626 1.400 1_545 S
C1627 C1628 1.398 . S
C1627 C1633 1.491 . S
C1628 H1619 0.950 . S
C1628 C1627 1.398 . S
C1628 C1629 1.391 . S
C1629 H1617 0.950 . S
C1629 C1625 1.393 . S
C1629 C1628 1.391 . S
C1630 H1620 0.950 . S
C1630 C1631 1.386 . S
C1630 C1632 1.391 . S
C1631 C1630 1.386 . S
C1631 C1635 1.393 . S
C1632 H1621 0.950 . S
C1632 C1630 1.391 . S
C1632 C1633 1.400 . S
C1633 C1627 1.491 . S
C1633 C1632 1.400 . S
C1633 C1634 1.377 1_545 S
C1634 H1622 0.974 . S
C1634 C1633 1.377 1_565 S
C1634 C1635 1.389 1_565 S
C1635 H1623 0.950 1_545 S
C1635 C1631 1.393 . S
C1635 C1634 1.389 1_545 S
H1636 C1644 0.950 . S
H1637 C1649 0.950 . S
H1638 C1646 0.950 . S
H1639 C1648 0.950 . S
H1640 C1650 0.950 . S
H1641 C1652 0.950 . S
H1642 C1654 0.950 . S
H1643 C1655 0.950 . S
C1644 H1636 0.950 . S
C1644 C1645 1.386 . S
C1644 C1646 1.391 . S
C1645 C1644 1.386 . S
C1645 C1649 1.393 . S
C1646 H1638 0.950 . S
C1646 C1644 1.391 . S
C1646 C1647 1.400 . S
C1647 C1646 1.400 . S
C1647 C1648 1.398 . S
C1647 C1653 1.491 . S
C1648 H1639 0.950 . S
C1648 C1647 1.398 . S
C1648 C1649 1.391 . S
C1649 H1637 0.950 . S
C1649 C1645 1.393 . S
C1649 C1648 1.391 . S
C1650 H1640 0.950 . S
C1650 C1651 1.386 . S
C1650 C1652 1.391 . S
C1651 C1650 1.386 . S
C1651 C1655 1.393 . S
C1652 H1641 0.950 . S
C1652 C1650 1.391 . S
C1652 C1653 1.400 . S
C1653 C1647 1.491 . S
C1653 C1652 1.400 . S
C1653 C1654 1.398 . S
C1654 H1642 0.950 . S
C1654 C1653 1.398 . S
C1654 C1655 1.391 . S
C1655 H1643 0.950 . S
C1655 C1651 1.393 . S
C1655 C1654 1.391 . S
H1656 C1664 0.950 . S
H1657 C1669 0.950 . S
H1658 C1666 0.950 . S
H1659 C1668 0.910 1_565 S
H1660 C1670 0.950 . S
H1661 C1672 0.950 1_565 S
H1662 C1674 0.950 . S
H1663 C1675 0.950 . S
C1664 H1656 0.950 . S
C1664 C1665 1.386 . S
C1664 C1666 1.391 . S
C1665 C1664 1.386 . S
C1665 C1669 1.393 1_545 S
C1666 H1658 0.950 . S
C1666 C1664 1.391 . S
C1666 C1667 1.400 . S
C1667 C1666 1.400 . S
C1667 C1668 1.429 . S
C1667 C1673 1.491 . S
C1668 H1659 0.910 1_545 S
C1668 C1667 1.429 . S
C1668 C1669 1.401 1_545 S
C1669 H1657 0.950 . S
C1669 C1665 1.393 1_565 S
C1669 C1668 1.401 1_565 S
C1670 H1660 0.950 . S
C1670 C1671 1.386 . S
C1670 C1672 1.391 . S
C1671 C1670 1.386 . S
C1671 C1675 1.393 . S
C1672 H1661 0.950 1_545 S
C1672 C1670 1.391 . S
C1672 C1673 1.400 . S
C1673 C1667 1.491 . S
C1673 C1672 1.400 . S
C1673 C1674 1.398 . S
C1674 H1662 0.950 . S
C1674 C1673 1.398 . S
C1674 C1675 1.391 . S
C1675 H1663 0.950 . S
C1675 C1671 1.393 . S
C1675 C1674 1.391 . S
H1676 C1684 0.950 . S
H1677 C1689 0.950 . S
H1678 C1686 0.950 . S
H1679 C1688 0.950 . S
H1680 C1690 0.950 . S
H1681 C1692 0.950 . S
H1682 C1694 0.950 . S
H1683 C1695 0.950 . S
C1684 H1676 0.950 . S
C1684 C1685 1.386 . S
C1684 C1686 1.391 . S
C1685 C1684 1.386 . S
C1685 C1689 1.393 . S
C1686 H1678 0.950 . S
C1686 C1684 1.391 . S
C1686 C1687 1.400 . S
C1687 C1686 1.400 . S
C1687 C1688 1.398 . S
C1687 C1693 1.491 . S
C1688 H1679 0.950 . S
C1688 C1687 1.398 . S
C1688 C1689 1.391 . S
C1689 H1677 0.950 . S
C1689 C1685 1.393 . S
C1689 C1688 1.391 . S
C1690 H1680 0.950 . S
C1690 C1691 1.386 . S
C1690 C1692 1.391 . S
C1691 C1690 1.386 . S
C1691 C1695 1.393 . S
C1692 H1681 0.950 . S
C1692 C1690 1.391 . S
C1692 C1693 1.400 . S
C1693 C1687 1.491 . S
C1693 C1692 1.400 . S
C1693 C1694 1.398 . S
C1694 H1682 0.950 . S
C1694 C1693 1.398 . S
C1694 C1695 1.391 . S
C1695 H1683 0.950 . S
C1695 C1691 1.393 . S
C1695 C1694 1.391 . S
H1696 C1704 0.950 . S
H1697 C1709 0.950 . S
H1698 C1706 0.950 . S
H1699 C1708 0.950 . S
H1700 C1710 0.947 1_565 S
H1701 C1712 0.950 1_565 S
H1702 C1714 0.950 . S
H1703 C1715 0.950 . S
C1704 H1696 0.950 . S
C1704 C1705 1.402 . S
C1704 C1706 1.391 . S
C1705 C1704 1.402 . S
C1705 C1709 1.388 1_545 S
C1706 H1698 0.950 . S
C1706 C1704 1.391 . S
C1706 C1707 1.400 . S
C1707 C1706 1.400 . S
C1707 C1708 1.398 1_545 S
C1707 C1713 1.491 . S
C1708 H1699 0.950 . S
C1708 C1707 1.398 1_565 S
C1708 C1709 1.391 . S
C1709 H1697 0.950 . S
C1709 C1705 1.388 1_565 S
C1709 C1708 1.391 . S
C1710 H1700 0.947 1_545 S
C1710 C1711 1.386 . S
C1710 C1712 1.391 . S
C1711 C1710 1.386 . S
C1711 C1715 1.393 . S
C1712 H1701 0.950 1_545 S
C1712 C1710 1.391 . S
C1712 C1713 1.400 . S
C1713 C1707 1.491 . S
C1713 C1712 1.400 . S
C1713 C1714 1.398 . S
C1714 H1702 0.950 . S
C1714 C1713 1.398 . S
C1714 C1715 1.391 . S
C1715 H1703 0.950 . S
C1715 C1711 1.393 . S
C1715 C1714 1.391 . S
H1716 C1724 0.950 . S
H1717 C1729 0.950 . S
H1718 C1726 0.950 . S
H1719 C1728 0.950 . S
H1720 C1730 0.950 . S
H1721 C1732 0.950 . S
H1722 C1734 0.950 . S
H1723 C1735 0.950 . S
C1724 H1716 0.950 . S
C1724 C1725 1.386 . S
C1724 C1726 1.391 . S
C1725 C1724 1.386 . S
C1725 C1729 1.393 . S
C1726 H1718 0.950 . S
C1726 C1724 1.391 . S
C1726 C1727 1.400 . S
C1727 C1726 1.400 . S
C1727 C1728 1.398 . S
C1727 C1733 1.491 . S
C1728 H1719 0.950 . S
C1728 C1727 1.398 . S
C1728 C1729 1.391 . S
C1729 H1717 0.950 . S
C1729 C1725 1.393 . S
C1729 C1728 1.391 . S
C1730 H1720 0.950 . S
C1730 C1731 1.386 . S
C1730 C1732 1.391 . S
C1731 C1730 1.386 . S
C1731 C1735 1.393 . S
C1732 H1721 0.950 . S
C1732 C1730 1.391 . S
C1732 C1733 1.400 . S
C1733 C1727 1.491 . S
C1733 C1732 1.400 . S
C1733 C1734 1.398 . S
C1734 H1722 0.950 . S
C1734 C1733 1.398 . S
C1734 C1735 1.391 . S
C1735 H1723 0.950 . S
C1735 C1731 1.393 . S
C1735 C1734 1.391 . S
H1736 C1744 0.950 . S
H1737 C1749 0.950 . S
H1738 C1746 0.950 . S
H1739 C1748 0.950 . S
H1740 C1750 0.950 1_545 S
H1741 C1752 0.950 . S
H1742 C1754 0.950 . S
H1743 C1755 0.950 . S
C1744 H1736 0.950 . S
C1744 C1745 1.383 1_565 S
C1744 C1746 1.391 . S
C1745 C1744 1.383 1_545 S
C1745 C1749 1.395 . S
C1746 H1738 0.950 . S
C1746 C1744 1.391 . S
C1746 C1747 1.400 . S
C1747 C1746 1.400 . S
C1747 C1748 1.398 1_565 S
C1747 C1753 1.491 . S
C1748 H1739 0.950 . S
C1748 C1747 1.398 1_545 S
C1748 C1749 1.391 . S
C1749 H1737 0.950 . S
C1749 C1745 1.395 . S
C1749 C1748 1.391 . S
C1750 H1740 0.950 1_565 S
C1750 C1751 1.386 . S
C1750 C1752 1.391 1_565 S
C1751 C1750 1.386 . S
C1751 C1755 1.393 . S
C1752 H1741 0.950 . S
C1752 C1750 1.391 1_545 S
C1752 C1753 1.400 1_545 S
C1753 C1747 1.491 . S
C1753 C1752 1.400 1_565 S
C1753 C1754 1.398 . S
C1754 H1742 0.950 . S
C1754 C1753 1.398 . S
C1754 C1755 1.391 . S
C1755 H1743 0.950 . S
C1755 C1751 1.393 . S
C1755 C1754 1.391 . S
H1756 C1764 0.950 . S
H1757 C1769 0.950 . S
H1758 C1766 0.950 . S
H1759 C1768 0.950 . S
H1760 C1770 0.950 . S
H1761 C1772 0.950 . S
H1762 C1774 0.950 . S
H1763 C1775 0.950 . S
C1764 H1756 0.950 . S
C1764 C1765 1.386 . S
C1764 C1766 1.391 . S
C1765 C1764 1.386 . S
C1765 C1769 1.393 . S
C1766 H1758 0.950 . S
C1766 C1764 1.391 . S
C1766 C1767 1.400 . S
C1767 C1766 1.400 . S
C1767 C1768 1.398 . S
C1767 C1773 1.491 . S
C1768 H1759 0.950 . S
C1768 C1767 1.398 . S
C1768 C1769 1.391 . S
C1769 H1757 0.950 . S
C1769 C1765 1.393 . S
C1769 C1768 1.391 . S
C1770 H1760 0.950 . S
C1770 C1771 1.386 . S
C1770 C1772 1.391 . S
C1771 C1770 1.386 . S
C1771 C1775 1.393 . S
C1772 H1761 0.950 . S
C1772 C1770 1.391 . S
C1772 C1773 1.400 . S
C1773 C1767 1.491 . S
C1773 C1772 1.400 . S
C1773 C1774 1.398 . S
C1774 H1762 0.950 . S
C1774 C1773 1.398 . S
C1774 C1775 1.391 . S
C1775 H1763 0.950 . S
C1775 C1771 1.393 . S
C1775 C1774 1.391 . S
H1776 C1784 0.950 . S
H1777 C1789 0.950 1_556 S
H1778 C1786 0.950 . S
H1779 C1788 0.950 . S
H1780 C1790 0.950 . S
H1781 C1792 0.950 . S
H1782 C1794 0.950 . S
H1783 C1795 0.950 . S
C1784 H1776 0.950 . S
C1784 C1785 1.386 . S
C1784 C1786 1.391 . S
C1785 C1784 1.386 . S
C1785 C1789 1.393 . S
C1786 H1778 0.950 . S
C1786 C1784 1.391 . S
C1786 C1787 1.400 . S
C1787 C1786 1.400 . S
C1787 C1788 1.398 1_554 S
C1787 C1793 1.509 . S
C1788 H1779 0.950 . S
C1788 C1787 1.398 1_556 S
C1788 C1789 1.391 1_556 S
C1789 H1777 0.950 1_554 S
C1789 C1785 1.393 . S
C1789 C1788 1.391 1_554 S
C1790 H1780 0.950 . S
C1790 C1791 1.386 . S
C1790 C1792 1.391 . S
C1791 C1790 1.386 . S
C1791 C1795 1.393 1_556 S
C1792 H1781 0.950 . S
C1792 C1790 1.391 . S
C1792 C1793 1.364 1_556 S
C1793 C1787 1.509 . S
C1793 C1792 1.364 1_554 S
C1793 C1794 1.416 . S
C1794 H1782 0.950 . S
C1794 C1793 1.416 . S
C1794 C1795 1.391 . S
C1795 H1783 0.950 . S
C1795 C1791 1.393 1_554 S
C1795 C1794 1.391 . S
H1796 C1804 0.950 . S
H1797 C1809 0.950 . S
H1798 C1806 0.950 . S
H1799 C1808 0.950 . S
H1800 C1810 0.950 . S
H1801 C1812 0.950 . S
H1802 C1814 0.950 . S
H1803 C1815 0.950 . S
C1804 H1796 0.950 . S
C1804 C1805 1.386 . S
C1804 C1806 1.391 . S
C1805 C1804 1.386 . S
C1805 C1809 1.393 . S
C1806 H1798 0.950 . S
C1806 C1804 1.391 . S
C1806 C1807 1.400 . S
C1807 C1806 1.400 . S
C1807 C1808 1.398 . S
C1807 C1813 1.491 . S
C1808 H1799 0.950 . S
C1808 C1807 1.398 . S
C1808 C1809 1.391 . S
C1809 H1797 0.950 . S
C1809 C1805 1.393 . S
C1809 C1808 1.391 . S
C1810 H1800 0.950 . S
C1810 C1811 1.386 . S
C1810 C1812 1.391 . S
C1811 C1810 1.386 . S
C1811 C1815 1.393 . S
C1812 H1801 0.950 . S
C1812 C1810 1.391 . S
C1812 C1813 1.400 . S
C1813 C1807 1.491 . S
C1813 C1812 1.400 . S
C1813 C1814 1.398 . S
C1814 H1802 0.950 . S
C1814 C1813 1.398 . S
C1814 C1815 1.391 . S
C1815 H1803 0.950 . S
C1815 C1811 1.393 . S
C1815 C1814 1.391 . S
H1816 C1824 0.950 . S
H1817 C1829 0.950 . S
H1818 C1826 0.950 . S
H1819 C1828 0.950 . S
H1820 C1830 0.950 . S
H1821 C1832 0.950 . S
H1822 C1834 0.950 . S
H1823 C1835 0.950 . S
C1824 H1816 0.950 . S
C1824 C1825 1.386 . S
C1824 C1826 1.391 . S
C1825 C1824 1.386 . S
C1825 C1829 1.393 . S
C1826 H1818 0.950 . S
C1826 C1824 1.391 . S
C1826 C1827 1.400 . S
C1827 C1826 1.400 . S
C1827 C1828 1.398 . S
C1827 C1833 1.491 . S
C1828 H1819 0.950 . S
C1828 C1827 1.398 . S
C1828 C1829 1.391 . S
C1829 H1817 0.950 . S
C1829 C1825 1.393 . S
C1829 C1828 1.391 . S
C1830 H1820 0.950 . S
C1830 C1831 1.386 . S
C1830 C1832 1.391 . S
C1831 C1830 1.386 . S
C1831 C1835 1.393 . S
C1832 H1821 0.950 . S
C1832 C1830 1.391 . S
C1832 C1833 1.400 . S
C1833 C1827 1.491 . S
C1833 C1832 1.400 . S
C1833 C1834 1.398 . S
C1834 H1822 0.950 . S
C1834 C1833 1.398 . S
C1834 C1835 1.391 . S
C1835 H1823 0.950 . S
C1835 C1831 1.393 . S
C1835 C1834 1.391 . S
H1836 C1844 0.950 . S
H1837 C1849 0.950 . S
H1838 C1846 0.950 . S
H1839 C1848 0.950 . S
H1840 C1850 0.950 . S
H1841 C1852 0.950 . S
H1842 C1854 0.950 . S
H1843 C1855 0.950 . S
C1844 H1836 0.950 . S
C1844 C1845 1.386 . S
C1844 C1846 1.391 . S
C1845 C1844 1.386 . S
C1845 C1849 1.393 . S
C1846 H1838 0.950 . S
C1846 C1844 1.391 . S
C1846 C1847 1.400 . S
C1847 C1846 1.400 . S
C1847 C1848 1.398 . S
C1847 C1853 1.491 . S
C1848 H1839 0.950 . S
C1848 C1847 1.398 . S
C1848 C1849 1.391 . S
C1849 H1837 0.950 . S
C1849 C1845 1.393 . S
C1849 C1848 1.391 . S
C1850 H1840 0.950 . S
C1850 C1851 1.386 . S
C1850 C1852 1.391 . S
C1851 C1850 1.386 . S
C1851 C1855 1.393 . S
C1852 H1841 0.950 . S
C1852 C1850 1.391 . S
C1852 C1853 1.400 . S
C1853 C1847 1.491 . S
C1853 C1852 1.400 . S
C1853 C1854 1.398 . S
C1854 H1842 0.950 . S
C1854 C1853 1.398 . S
C1854 C1855 1.391 . S
C1855 H1843 0.950 . S
C1855 C1851 1.393 . S
C1855 C1854 1.391 . S
H1856 C1864 0.950 1_545 S
H1857 C1869 0.950 . S
H1858 C1866 0.950 . S
H1859 C1868 0.950 . S
H1860 C1870 0.950 . S
H1861 C1872 0.950 . S
H1862 C1874 0.950 . S
H1863 C1875 0.950 . S
C1864 H1856 0.950 1_565 S
C1864 C1865 1.386 . S
C1864 C1866 1.391 . S
C1865 C1864 1.386 . S
C1865 C1869 1.393 . S
C1866 H1858 0.950 . S
C1866 C1864 1.391 . S
C1866 C1867 1.400 . S
C1867 C1866 1.400 . S
C1867 C1868 1.398 . S
C1867 C1873 1.491 . S
C1868 H1859 0.950 . S
C1868 C1867 1.398 . S
C1868 C1869 1.391 . S
C1869 H1857 0.950 . S
C1869 C1865 1.393 . S
C1869 C1868 1.391 . S
C1870 H1860 0.950 . S
C1870 C1871 1.386 . S
C1870 C1872 1.391 . S
C1871 C1870 1.386 . S
C1871 C1875 1.393 . S
C1872 H1861 0.950 . S
C1872 C1870 1.391 . S
C1872 C1873 1.400 . S
C1873 C1867 1.491 . S
C1873 C1872 1.400 . S
C1873 C1874 1.398 . S
C1874 H1862 0.950 . S
C1874 C1873 1.398 . S
C1874 C1875 1.391 . S
C1875 H1863 0.950 . S
C1875 C1871 1.393 . S
C1875 C1874 1.391 . S
H1876 C1884 0.950 . S
H1877 C1889 0.950 . S
H1878 C1886 0.950 . S
H1879 C1888 0.950 . S
H1880 C1890 0.950 . S
H1881 C1892 0.950 . S
H1882 C1894 0.950 . S
H1883 C1895 0.950 . S
C1884 H1876 0.950 . S
C1884 C1885 1.386 . S
C1884 C1886 1.391 . S
C1885 C1884 1.386 . S
C1885 C1889 1.393 . S
C1886 H1878 0.950 . S
C1886 C1884 1.391 . S
C1886 C1887 1.400 . S
C1887 C1886 1.400 . S
C1887 C1888 1.398 . S
C1887 C1893 1.491 . S
C1888 H1879 0.950 . S
C1888 C1887 1.398 . S
C1888 C1889 1.391 . S
C1889 H1877 0.950 . S
C1889 C1885 1.393 . S
C1889 C1888 1.391 . S
C1890 H1880 0.950 . S
C1890 C1891 1.386 . S
C1890 C1892 1.391 . S
C1891 C1890 1.386 . S
C1891 C1895 1.393 . S
C1892 H1881 0.950 . S
C1892 C1890 1.391 . S
C1892 C1893 1.400 . S
C1893 C1887 1.491 . S
C1893 C1892 1.400 . S
C1893 C1894 1.398 . S
C1894 H1882 0.950 . S
C1894 C1893 1.398 . S
C1894 C1895 1.391 . S
C1895 H1883 0.950 . S
C1895 C1891 1.393 . S
C1895 C1894 1.391 . S
H1896 C1904 0.950 . S
H1897 C1909 0.950 . S
H1898 C1906 0.950 . S
H1899 C1908 0.950 . S
H1900 C1910 0.950 . S
H1901 C1912 0.950 . S
H1902 C1914 0.950 . S
H1903 C1915 0.950 . S
C1904 H1896 0.950 . S
C1904 C1905 1.386 . S
C1904 C1906 1.391 . S
C1905 C1904 1.386 . S
C1905 C1909 1.393 . S
C1906 H1898 0.950 . S
C1906 C1904 1.391 . S
C1906 C1907 1.400 . S
C1907 C1906 1.400 . S
C1907 C1908 1.398 . S
C1907 C1913 1.491 . S
C1908 H1899 0.950 . S
C1908 C1907 1.398 . S
C1908 C1909 1.391 . S
C1909 H1897 0.950 . S
C1909 C1905 1.393 . S
C1909 C1908 1.391 . S
C1910 H1900 0.950 . S
C1910 C1911 1.386 . S
C1910 C1912 1.391 . S
C1911 C1910 1.386 . S
C1911 C1915 1.393 . S
C1912 H1901 0.950 . S
C1912 C1910 1.391 . S
C1912 C1913 1.400 . S
C1913 C1907 1.491 . S
C1913 C1912 1.400 . S
C1913 C1914 1.398 . S
C1914 H1902 0.950 . S
C1914 C1913 1.398 . S
C1914 C1915 1.391 . S
C1915 H1903 0.950 . S
C1915 C1911 1.393 . S
C1915 C1914 1.391 . S
H1916 C1924 0.950 . S
H1917 C1929 0.950 . S
H1918 C1926 0.950 . S
H1919 C1928 0.950 . S
H1920 C1930 0.950 . S
H1921 C1932 0.950 . S
H1922 C1934 0.950 . S
H1923 C1935 0.950 . S
C1924 H1916 0.950 . S
C1924 C1925 1.386 . S
C1924 C1926 1.391 . S
C1925 C1924 1.386 . S
C1925 C1929 1.393 . S
C1926 H1918 0.950 . S
C1926 C1924 1.391 . S
C1926 C1927 1.400 . S
C1927 C1926 1.400 . S
C1927 C1928 1.398 . S
C1927 C1933 1.491 . S
C1928 H1919 0.950 . S
C1928 C1927 1.398 . S
C1928 C1929 1.391 . S
C1929 H1917 0.950 . S
C1929 C1925 1.393 . S
C1929 C1928 1.391 . S
C1930 H1920 0.950 . S
C1930 C1931 1.386 . S
C1930 C1932 1.391 . S
C1931 C1930 1.386 . S
C1931 C1935 1.393 . S
C1932 H1921 0.950 . S
C1932 C1930 1.391 . S
C1932 C1933 1.400 . S
C1933 C1927 1.491 . S
C1933 C1932 1.400 . S
C1933 C1934 1.398 . S
C1934 H1922 0.950 . S
C1934 C1933 1.398 . S
C1934 C1935 1.391 . S
C1935 H1923 0.950 . S
C1935 C1931 1.393 . S
C1935 C1934 1.391 . S
H1936 C1944 0.950 . S
H1937 C1949 0.950 . S
H1938 C1946 0.950 . S
H1939 C1948 0.950 . S
H1940 C1950 0.950 . S
H1941 C1952 0.950 . S
H1942 C1954 0.950 . S
H1943 C1955 0.950 . S
C1944 H1936 0.950 . S
C1944 C1945 1.386 . S
C1944 C1946 1.391 . S
C1945 C1944 1.386 . S
C1945 C1949 1.393 . S
C1946 H1938 0.950 . S
C1946 C1944 1.391 . S
C1946 C1947 1.400 . S
C1947 C1946 1.400 . S
C1947 C1948 1.398 . S
C1947 C1953 1.491 . S
C1948 H1939 0.950 . S
C1948 C1947 1.398 . S
C1948 C1949 1.391 . S
C1949 H1937 0.950 . S
C1949 C1945 1.393 . S
C1949 C1948 1.391 . S
C1950 H1940 0.950 . S
C1950 C1951 1.386 . S
C1950 C1952 1.391 . S
C1951 C1950 1.386 . S
C1951 C1955 1.393 . S
C1952 H1941 0.950 . S
C1952 C1950 1.391 . S
C1952 C1953 1.400 . S
C1953 C1947 1.491 . S
C1953 C1952 1.400 . S
C1953 C1954 1.398 . S
C1954 H1942 0.950 . S
C1954 C1953 1.398 . S
C1954 C1955 1.391 . S
C1955 H1943 0.950 . S
C1955 C1951 1.393 . S
C1955 C1954 1.391 . S
H1956 C1964 0.950 . S
H1957 C1969 0.950 . S
H1958 C1966 0.950 . S
H1959 C1968 0.950 . S
H1960 C1970 0.950 . S
H1961 C1972 0.950 . S
H1962 C1974 0.950 . S
H1963 C1975 0.950 . S
C1964 H1956 0.950 . S
C1964 C1965 1.386 . S
C1964 C1966 1.391 . S
C1965 C1964 1.386 . S
C1965 C1969 1.393 . S
C1966 H1958 0.950 . S
C1966 C1964 1.391 . S
C1966 C1967 1.400 . S
C1967 C1966 1.400 . S
C1967 C1968 1.398 . S
C1967 C1973 1.491 . S
C1968 H1959 0.950 . S
C1968 C1967 1.398 . S
C1968 C1969 1.391 . S
C1969 H1957 0.950 . S
C1969 C1965 1.393 . S
C1969 C1968 1.391 . S
C1970 H1960 0.950 . S
C1970 C1971 1.386 . S
C1970 C1972 1.391 . S
C1971 C1970 1.386 . S
C1971 C1975 1.393 . S
C1972 H1961 0.950 . S
C1972 C1970 1.391 . S
C1972 C1973 1.400 . S
C1973 C1967 1.491 . S
C1973 C1972 1.400 . S
C1973 C1974 1.398 . S
C1974 H1962 0.950 . S
C1974 C1973 1.398 . S
C1974 C1975 1.391 . S
C1975 H1963 0.950 . S
C1975 C1971 1.393 . S
C1975 C1974 1.391 . S
H1976 C1984 0.950 . S
H1977 C1989 0.950 . S
H1978 C1986 0.950 1_554 S
H1979 C1988 0.950 . S
H1980 C1990 0.969 . S
H1981 C1992 0.950 . S
H1982 C1994 0.950 . S
H1983 C1995 0.950 . S
C1984 H1976 0.950 . S
C1984 C1985 1.386 . S
C1984 C1986 1.391 . S
C1985 C1984 1.386 . S
C1985 C1989 1.393 . S
C1986 H1978 0.950 1_556 S
C1986 C1984 1.391 . S
C1986 C1987 1.400 . S
C1987 C1986 1.400 . S
C1987 C1988 1.398 . S
C1987 C1993 1.495 . S
C1988 H1979 0.950 . S
C1988 C1987 1.398 . S
C1988 C1989 1.391 . S
C1989 H1977 0.950 . S
C1989 C1985 1.393 . S
C1989 C1988 1.391 . S
C1990 H1980 0.969 . S
C1990 C1991 1.386 . S
C1990 C1992 1.391 1_554 S
C1991 C1990 1.386 . S
C1991 C1995 1.393 . S
C1992 H1981 0.950 . S
C1992 C1990 1.391 1_556 S
C1992 C1993 1.406 . S
C1993 C1987 1.495 . S
C1993 C1992 1.406 . S
C1993 C1994 1.387 1_556 S
C1994 H1982 0.950 . S
C1994 C1993 1.387 1_554 S
C1994 C1995 1.391 . S
C1995 H1983 0.950 . S
C1995 C1991 1.393 . S
C1995 C1994 1.391 . S
H1996 C2004 0.950 . S
H1997 C2009 0.950 . S
H1998 C2006 0.950 . S
H1999 C2008 0.962 . S
H2000 C2010 0.950 . S
H2001 C2012 0.950 . S
H2002 C2014 0.950 . S
H2003 C2015 0.950 . S
C2004 H1996 0.950 . S
C2004 C2005 1.386 . S
C2004 C2006 1.391 1_455 S
C2005 C2004 1.386 . S
C2005 C2009 1.393 . S
C2006 H1998 0.950 . S
C2006 C2004 1.391 1_655 S
C2006 C2007 1.400 . S
C2007 C2006 1.400 . S
C2007 C2008 1.419 . S
C2007 C2013 1.491 . S
C2008 H1999 0.962 . S
C2008 C2007 1.419 . S
C2008 C2009 1.359 1_655 S
C2009 H1997 0.950 . S
C2009 C2005 1.393 . S
C2009 C2008 1.359 1_455 S
C2010 H2000 0.950 . S
C2010 C2011 1.386 . S
C2010 C2012 1.391 . S
C2011 C2010 1.386 . S
C2011 C2015 1.393 . S
C2012 H2001 0.950 . S
C2012 C2010 1.391 . S
C2012 C2013 1.400 . S
C2013 C2007 1.491 . S
C2013 C2012 1.400 . S
C2013 C2014 1.398 . S
C2014 H2002 0.950 . S
C2014 C2013 1.398 . S
C2014 C2015 1.391 . S
C2015 H2003 0.950 . S
C2015 C2011 1.393 . S
C2015 C2014 1.391 . S
H2016 C2024 0.950 . S
H2017 C2029 0.950 . S
H2018 C2026 0.950 . S
H2019 C2028 0.950 . S
H2020 C2030 0.950 . S
H2021 C2032 0.950 . S
H2022 C2034 0.950 . S
H2023 C2035 0.950 . S
C2024 H2016 0.950 . S
C2024 C2025 1.386 . S
C2024 C2026 1.391 . S
C2025 C2024 1.386 . S
C2025 C2029 1.393 . S
C2026 H2018 0.950 . S
C2026 C2024 1.391 . S
C2026 C2027 1.400 . S
C2027 C2026 1.400 . S
C2027 C2028 1.398 . S
C2027 C2033 1.491 . S
C2028 H2019 0.950 . S
C2028 C2027 1.398 . S
C2028 C2029 1.391 . S
C2029 H2017 0.950 . S
C2029 C2025 1.393 . S
C2029 C2028 1.391 . S
C2030 H2020 0.950 . S
C2030 C2031 1.386 . S
C2030 C2032 1.391 . S
C2031 C2030 1.386 . S
C2031 C2035 1.393 . S
C2032 H2021 0.950 . S
C2032 C2030 1.391 . S
C2032 C2033 1.400 . S
C2033 C2027 1.491 . S
C2033 C2032 1.400 . S
C2033 C2034 1.398 . S
C2034 H2022 0.950 . S
C2034 C2033 1.398 . S
C2034 C2035 1.391 . S
C2035 H2023 0.950 . S
C2035 C2031 1.393 . S
C2035 C2034 1.391 . S
H2036 C2044 0.950 . S
H2037 C2049 0.950 . S
H2038 C2046 0.950 . S
H2039 C2048 0.981 . S
H2040 C2050 0.950 . S
H2041 C2052 0.950 . S
H2042 C2054 0.950 1_455 S
H2043 C2055 0.950 . S
C2044 H2036 0.950 . S
C2044 C2045 1.386 . S
C2044 C2046 1.391 . S
C2045 C2044 1.386 . S
C2045 C2049 1.393 . S
C2046 H2038 0.950 . S
C2046 C2044 1.391 . S
C2046 C2047 1.400 . S
C2047 C2046 1.400 . S
C2047 C2048 1.398 . S
C2047 C2053 1.491 1_455 S
C2048 H2039 0.981 . S
C2048 C2047 1.398 . S
C2048 C2049 1.391 . S
C2049 H2037 0.950 . S
C2049 C2045 1.393 . S
C2049 C2048 1.391 . S
C2050 H2040 0.950 . S
C2050 C2051 1.386 . S
C2050 C2052 1.391 . S
C2051 C2050 1.386 . S
C2051 C2055 1.393 . S
C2052 H2041 0.950 . S
C2052 C2050 1.391 . S
C2052 C2053 1.400 . S
C2053 C2047 1.491 1_655 S
C2053 C2052 1.400 . S
C2053 C2054 1.398 . S
C2054 H2042 0.950 1_655 S
C2054 C2053 1.398 . S
C2054 C2055 1.391 . S
C2055 H2043 0.950 . S
C2055 C2051 1.393 . S
C2055 C2054 1.391 . S
H2056 C2064 0.950 1_655 S
H2057 C2069 0.950 . S
H2058 C2066 0.950 . S
H2059 C2068 0.950 . S
H2060 C2070 0.950 . S
H2061 C2072 0.950 . S
H2062 C2074 0.950 . S
H2063 C2075 0.950 . S
C2064 H2056 0.950 1_455 S
C2064 C2065 1.386 1_455 S
C2064 C2066 1.391 . S
C2065 C2064 1.386 1_655 S
C2065 C2069 1.393 1_655 S
C2066 H2058 0.950 . S
C2066 C2064 1.391 . S
C2066 C2067 1.400 . S
C2067 C2066 1.400 . S
C2067 C2068 1.398 . S
C2067 C2073 1.491 . S
C2068 H2059 0.950 . S
C2068 C2067 1.398 . S
C2068 C2069 1.391 . S
C2069 H2057 0.950 . S
C2069 C2065 1.393 1_455 S
C2069 C2068 1.391 . S
C2070 H2060 0.950 . S
C2070 C2071 1.386 . S
C2070 C2072 1.391 . S
C2071 C2070 1.386 . S
C2071 C2075 1.393 . S
C2072 H2061 0.950 . S
C2072 C2070 1.391 . S
C2072 C2073 1.400 . S
C2073 C2067 1.491 . S
C2073 C2072 1.400 . S
C2073 C2074 1.398 . S
C2074 H2062 0.950 . S
C2074 C2073 1.398 . S
C2074 C2075 1.391 . S
C2075 H2063 0.950 . S
C2075 C2071 1.393 . S
C2075 C2074 1.391 . S
H2076 C2084 0.950 . S
H2077 C2089 0.950 . S
H2078 C2086 0.950 . S
H2079 C2088 0.950 . S
H2080 C2090 0.950 . S
H2081 C2092 0.950 . S
H2082 C2094 0.950 . S
H2083 C2095 0.950 . S
C2084 H2076 0.950 . S
C2084 C2085 1.386 . S
C2084 C2086 1.391 . S
C2085 C2084 1.386 . S
C2085 C2089 1.393 . S
C2086 H2078 0.950 . S
C2086 C2084 1.391 . S
C2086 C2087 1.400 . S
C2087 C2086 1.400 . S
C2087 C2088 1.398 . S
C2087 C2093 1.491 . S
C2088 H2079 0.950 . S
C2088 C2087 1.398 . S
C2088 C2089 1.391 . S
C2089 H2077 0.950 . S
C2089 C2085 1.393 . S
C2089 C2088 1.391 . S
C2090 H2080 0.950 . S
C2090 C2091 1.386 . S
C2090 C2092 1.391 . S
C2091 C2090 1.386 . S
C2091 C2095 1.393 . S
C2092 H2081 0.950 . S
C2092 C2090 1.391 . S
C2092 C2093 1.400 . S
C2093 C2087 1.491 . S
C2093 C2092 1.400 . S
C2093 C2094 1.398 . S
C2094 H2082 0.950 . S
C2094 C2093 1.398 . S
C2094 C2095 1.391 . S
C2095 H2083 0.950 . S
C2095 C2091 1.393 . S
C2095 C2094 1.391 . S
H2096 C2104 0.950 . S
H2097 C2109 0.950 . S
H2098 C2106 0.950 . S
H2099 C2108 0.950 . S
H2100 C2110 0.950 . S
H2101 C2112 0.950 . S
H2102 C2114 0.950 . S
H2103 C2115 0.950 . S
C2104 H2096 0.950 . S
C2104 C2105 1.386 . S
C2104 C2106 1.391 . S
C2105 C2104 1.386 . S
C2105 C2109 1.393 . S
C2106 H2098 0.950 . S
C2106 C2104 1.391 . S
C2106 C2107 1.400 . S
C2107 C2106 1.400 . S
C2107 C2108 1.398 . S
C2107 C2113 1.491 . S
C2108 H2099 0.950 . S
C2108 C2107 1.398 . S
C2108 C2109 1.391 . S
C2109 H2097 0.950 . S
C2109 C2105 1.393 . S
C2109 C2108 1.391 . S
C2110 H2100 0.950 . S
C2110 C2111 1.386 . S
C2110 C2112 1.391 . S
C2111 C2110 1.386 . S
C2111 C2115 1.393 . S
C2112 H2101 0.950 . S
C2112 C2110 1.391 . S
C2112 C2113 1.400 . S
C2113 C2107 1.491 . S
C2113 C2112 1.400 . S
C2113 C2114 1.398 . S
C2114 H2102 0.950 . S
C2114 C2113 1.398 . S
C2114 C2115 1.391 . S
C2115 H2103 0.950 . S
C2115 C2111 1.393 . S
C2115 C2114 1.391 . S
H2116 C2124 0.950 . S
H2117 C2129 0.950 . S
H2118 C2126 0.950 . S
H2119 C2128 0.950 . S
H2120 C2130 0.950 . S
H2121 C2132 0.950 . S
H2122 C2134 0.950 . S
H2123 C2135 0.950 . S
C2124 H2116 0.950 . S
C2124 C2125 1.386 . S
C2124 C2126 1.391 . S
C2125 C2124 1.386 . S
C2125 C2129 1.393 . S
C2126 H2118 0.950 . S
C2126 C2124 1.391 . S
C2126 C2127 1.400 . S
C2127 C2126 1.400 . S
C2127 C2128 1.398 . S
C2127 C2133 1.491 . S
C2128 H2119 0.950 . S
C2128 C2127 1.398 . S
C2128 C2129 1.391 . S
C2129 H2117 0.950 . S
C2129 C2125 1.393 . S
C2129 C2128 1.391 . S
C2130 H2120 0.950 . S
C2130 C2131 1.386 . S
C2130 C2132 1.391 . S
C2131 C2130 1.386 . S
C2131 C2135 1.393 . S
C2132 H2121 0.950 . S
C2132 C2130 1.391 . S
C2132 C2133 1.400 . S
C2133 C2127 1.491 . S
C2133 C2132 1.400 . S
C2133 C2134 1.398 . S
C2134 H2122 0.950 . S
C2134 C2133 1.398 . S
C2134 C2135 1.391 . S
C2135 H2123 0.950 . S
C2135 C2131 1.393 . S
C2135 C2134 1.391 . S
H2136 C2144 0.950 . S
H2137 C2149 0.950 . S
H2138 C2146 0.950 . S
H2139 C2148 0.950 . S
H2140 C2150 0.950 . S
H2141 C2152 0.950 . S
H2142 C2154 0.950 . S
H2143 C2155 0.950 . S
C2144 H2136 0.950 . S
C2144 C2145 1.386 . S
C2144 C2146 1.391 . S
C2145 C2144 1.386 . S
C2145 C2149 1.393 . S
C2146 H2138 0.950 . S
C2146 C2144 1.391 . S
C2146 C2147 1.400 . S
C2147 C2146 1.400 . S
C2147 C2148 1.398 . S
C2147 C2153 1.491 . S
C2148 H2139 0.950 . S
C2148 C2147 1.398 . S
C2148 C2149 1.391 . S
C2149 H2137 0.950 . S
C2149 C2145 1.393 . S
C2149 C2148 1.391 . S
C2150 H2140 0.950 . S
C2150 C2151 1.386 . S
C2150 C2152 1.391 . S
C2151 C2150 1.386 . S
C2151 C2155 1.393 . S
C2152 H2141 0.950 . S
C2152 C2150 1.391 . S
C2152 C2153 1.400 . S
C2153 C2147 1.491 . S
C2153 C2152 1.400 . S
C2153 C2154 1.398 . S
C2154 H2142 0.950 . S
C2154 C2153 1.398 . S
C2154 C2155 1.391 . S
C2155 H2143 0.950 . S
C2155 C2151 1.393 . S
C2155 C2154 1.391 . S
H2156 C2164 0.950 . S
H2157 C2169 0.950 . S
H2158 C2166 0.950 . S
H2159 C2168 0.950 . S
H2160 C2170 0.950 . S
H2161 C2172 0.950 . S
H2162 C2174 0.950 . S
H2163 C2175 0.950 . S
C2164 H2156 0.950 . S
C2164 C2165 1.386 . S
C2164 C2166 1.391 . S
C2165 C2164 1.386 . S
C2165 C2169 1.393 . S
C2166 H2158 0.950 . S
C2166 C2164 1.391 . S
C2166 C2167 1.400 . S
C2167 C2166 1.400 . S
C2167 C2168 1.398 . S
C2167 C2173 1.491 . S
C2168 H2159 0.950 . S
C2168 C2167 1.398 . S
C2168 C2169 1.391 . S
C2169 H2157 0.950 . S
C2169 C2165 1.393 . S
C2169 C2168 1.391 . S
C2170 H2160 0.950 . S
C2170 C2171 1.386 . S
C2170 C2172 1.391 . S
C2171 C2170 1.386 . S
C2171 C2175 1.393 . S
C2172 H2161 0.950 . S
C2172 C2170 1.391 . S
C2172 C2173 1.400 . S
C2173 C2167 1.491 . S
C2173 C2172 1.400 . S
C2173 C2174 1.398 . S
C2174 H2162 0.950 . S
C2174 C2173 1.398 . S
C2174 C2175 1.391 . S
C2175 H2163 0.950 . S
C2175 C2171 1.393 . S
C2175 C2174 1.391 . S
H2176 C2184 0.950 . S
H2177 C2189 0.950 . S
H2178 C2186 0.950 . S
H2179 C2188 0.950 . S
H2180 C2190 0.950 . S
H2181 C2192 0.950 . S
H2182 C2194 0.950 . S
H2183 C2195 0.950 . S
C2184 H2176 0.950 . S
C2184 C2185 1.386 . S
C2184 C2186 1.391 . S
C2185 C2184 1.386 . S
C2185 C2189 1.393 . S
C2186 H2178 0.950 . S
C2186 C2184 1.391 . S
C2186 C2187 1.400 . S
C2187 C2186 1.400 . S
C2187 C2188 1.398 . S
C2187 C2193 1.491 . S
C2188 H2179 0.950 . S
C2188 C2187 1.398 . S
C2188 C2189 1.391 . S
C2189 H2177 0.950 . S
C2189 C2185 1.393 . S
C2189 C2188 1.391 . S
C2190 H2180 0.950 . S
C2190 C2191 1.386 . S
C2190 C2192 1.391 . S
C2191 C2190 1.386 . S
C2191 C2195 1.393 . S
C2192 H2181 0.950 . S
C2192 C2190 1.391 . S
C2192 C2193 1.400 . S
C2193 C2187 1.491 . S
C2193 C2192 1.400 . S
C2193 C2194 1.398 . S
C2194 H2182 0.950 . S
C2194 C2193 1.398 . S
C2194 C2195 1.391 . S
C2195 H2183 0.950 . S
C2195 C2191 1.393 . S
C2195 C2194 1.391 . S
H2196 C2204 0.950 . S
H2197 C2209 0.950 . S
H2198 C2206 0.950 . S
H2199 C2208 0.950 . S
H2200 C2210 0.950 . S
H2201 C2212 0.950 . S
H2202 C2214 0.950 . S
H2203 C2215 0.950 . S
C2204 H2196 0.950 . S
C2204 C2205 1.386 . S
C2204 C2206 1.391 . S
C2205 C2204 1.386 . S
C2205 C2209 1.393 . S
C2206 H2198 0.950 . S
C2206 C2204 1.391 . S
C2206 C2207 1.400 . S
C2207 C2206 1.400 . S
C2207 C2208 1.398 . S
C2207 C2213 1.491 . S
C2208 H2199 0.950 . S
C2208 C2207 1.398 . S
C2208 C2209 1.391 . S
C2209 H2197 0.950 . S
C2209 C2205 1.393 . S
C2209 C2208 1.391 . S
C2210 H2200 0.950 . S
C2210 C2211 1.386 . S
C2210 C2212 1.391 . S
C2211 C2210 1.386 . S
C2211 C2215 1.393 . S
C2212 H2201 0.950 . S
C2212 C2210 1.391 . S
C2212 C2213 1.400 . S
C2213 C2207 1.491 . S
C2213 C2212 1.400 . S
C2213 C2214 1.398 . S
C2214 H2202 0.950 . S
C2214 C2213 1.398 . S
C2214 C2215 1.391 . S
C2215 H2203 0.950 . S
C2215 C2211 1.393 . S
C2215 C2214 1.391 . S
H2216 C2224 0.950 . S
H2217 C2229 0.950 . S
H2218 C2226 0.950 . S
H2219 C2228 0.950 . S
H2220 C2230 0.950 . S
H2221 C2232 0.950 . S
H2222 C2234 0.950 . S
H2223 C2235 0.950 . S
C2224 H2216 0.950 . S
C2224 C2225 1.386 . S
C2224 C2226 1.391 . S
C2225 C2224 1.386 . S
C2225 C2229 1.393 . S
C2226 H2218 0.950 . S
C2226 C2224 1.391 . S
C2226 C2227 1.400 . S
C2227 C2226 1.400 . S
C2227 C2228 1.398 . S
C2227 C2233 1.491 . S
C2228 H2219 0.950 . S
C2228 C2227 1.398 . S
C2228 C2229 1.391 . S
C2229 H2217 0.950 . S
C2229 C2225 1.393 . S
C2229 C2228 1.391 . S
C2230 H2220 0.950 . S
C2230 C2231 1.386 . S
C2230 C2232 1.391 . S
C2231 C2230 1.386 . S
C2231 C2235 1.393 . S
C2232 H2221 0.950 . S
C2232 C2230 1.391 . S
C2232 C2233 1.400 . S
C2233 C2227 1.491 . S
C2233 C2232 1.400 . S
C2233 C2234 1.398 . S
C2234 H2222 0.950 . S
C2234 C2233 1.398 . S
C2234 C2235 1.391 . S
C2235 H2223 0.950 . S
C2235 C2231 1.393 . S
C2235 C2234 1.391 . S
H2236 C2244 0.950 . S
H2237 C2249 0.950 . S
H2238 C2246 0.950 . S
H2239 C2248 0.950 . S
H2240 C2250 0.950 . S
H2241 C2252 0.950 . S
H2242 C2254 0.950 . S
H2243 C2255 0.950 . S
C2244 H2236 0.950 . S
C2244 C2245 1.386 . S
C2244 C2246 1.391 . S
C2245 C2244 1.386 . S
C2245 C2249 1.393 . S
C2246 H2238 0.950 . S
C2246 C2244 1.391 . S
C2246 C2247 1.400 . S
C2247 C2246 1.400 . S
C2247 C2248 1.398 . S
C2247 C2253 1.491 . S
C2248 H2239 0.950 . S
C2248 C2247 1.398 . S
C2248 C2249 1.391 . S
C2249 H2237 0.950 . S
C2249 C2245 1.393 . S
C2249 C2248 1.391 . S
C2250 H2240 0.950 . S
C2250 C2251 1.386 . S
C2250 C2252 1.391 . S
C2251 C2250 1.386 . S
C2251 C2255 1.393 . S
C2252 H2241 0.950 . S
C2252 C2250 1.391 . S
C2252 C2253 1.400 . S
C2253 C2247 1.491 . S
C2253 C2252 1.400 . S
C2253 C2254 1.398 . S
C2254 H2242 0.950 . S
C2254 C2253 1.398 . S
C2254 C2255 1.391 . S
C2255 H2243 0.950 . S
C2255 C2251 1.393 . S
C2255 C2254 1.391 . S
H2256 C2264 0.950 . S
H2257 C2269 0.950 . S
H2258 C2266 0.950 . S
H2259 C2268 0.950 . S
H2260 C2270 0.950 . S
H2261 C2272 0.950 . S
H2262 C2274 0.950 . S
H2263 C2275 0.950 . S
C2264 H2256 0.950 . S
C2264 C2265 1.386 . S
C2264 C2266 1.391 . S
C2265 C2264 1.386 . S
C2265 C2269 1.393 . S
C2266 H2258 0.950 . S
C2266 C2264 1.391 . S
C2266 C2267 1.400 . S
C2267 C2266 1.400 . S
C2267 C2268 1.398 . S
C2267 C2273 1.491 . S
C2268 H2259 0.950 . S
C2268 C2267 1.398 . S
C2268 C2269 1.391 . S
C2269 H2257 0.950 . S
C2269 C2265 1.393 . S
C2269 C2268 1.391 . S
C2270 H2260 0.950 . S
C2270 C2271 1.386 . S
C2270 C2272 1.391 . S
C2271 C2270 1.386 . S
C2271 C2275 1.393 . S
C2272 H2261 0.950 . S
C2272 C2270 1.391 . S
C2272 C2273 1.400 . S
C2273 C2267 1.491 . S
C2273 C2272 1.400 . S
C2273 C2274 1.398 . S
C2274 H2262 0.950 . S
C2274 C2273 1.398 . S
C2274 C2275 1.391 . S
C2275 H2263 0.950 . S
C2275 C2271 1.393 . S
C2275 C2274 1.391 . S
H2276 C2284 0.950 . S
H2277 C2289 0.950 . S
H2278 C2286 0.950 . S
H2279 C2288 0.950 . S
H2280 C2290 0.950 . S
H2281 C2292 0.950 . S
H2282 C2294 0.950 . S
H2283 C2295 0.950 . S
C2284 H2276 0.950 . S
C2284 C2285 1.386 . S
C2284 C2286 1.391 . S
C2285 C2284 1.386 . S
C2285 C2289 1.393 . S
C2286 H2278 0.950 . S
C2286 C2284 1.391 . S
C2286 C2287 1.400 . S
C2287 C2286 1.400 . S
C2287 C2288 1.398 . S
C2287 C2293 1.491 . S
C2288 H2279 0.950 . S
C2288 C2287 1.398 . S
C2288 C2289 1.391 . S
C2289 H2277 0.950 . S
C2289 C2285 1.393 . S
C2289 C2288 1.391 . S
C2290 H2280 0.950 . S
C2290 C2291 1.386 . S
C2290 C2292 1.391 . S
C2291 C2290 1.386 . S
C2291 C2295 1.393 . S
C2292 H2281 0.950 . S
C2292 C2290 1.391 . S
C2292 C2293 1.400 . S
C2293 C2287 1.491 . S
C2293 C2292 1.400 . S
C2293 C2294 1.398 . S
C2294 H2282 0.950 . S
C2294 C2293 1.398 . S
C2294 C2295 1.391 . S
C2295 H2283 0.950 . S
C2295 C2291 1.393 . S
C2295 C2294 1.391 . S
H2296 C2304 0.950 . S
H2297 C2309 0.950 . S
H2298 C2306 0.950 . S
H2299 C2308 0.950 . S
H2300 C2310 0.950 . S
H2301 C2312 0.950 . S
H2302 C2314 0.950 . S
H2303 C2315 0.950 . S
C2304 H2296 0.950 . S
C2304 C2305 1.386 . S
C2304 C2306 1.391 . S
C2305 C2304 1.386 . S
C2305 C2309 1.393 . S
C2306 H2298 0.950 . S
C2306 C2304 1.391 . S
C2306 C2307 1.400 . S
C2307 C2306 1.400 . S
C2307 C2308 1.398 . S
C2307 C2313 1.491 . S
C2308 H2299 0.950 . S
C2308 C2307 1.398 . S
C2308 C2309 1.391 . S
C2309 H2297 0.950 . S
C2309 C2305 1.393 . S
C2309 C2308 1.391 . S
C2310 H2300 0.950 . S
C2310 C2311 1.386 . S
C2310 C2312 1.391 . S
C2311 C2310 1.386 . S
C2311 C2315 1.393 . S
C2312 H2301 0.950 . S
C2312 C2310 1.391 . S
C2312 C2313 1.400 . S
C2313 C2307 1.491 . S
C2313 C2312 1.400 . S
C2313 C2314 1.398 . S
C2314 H2302 0.950 . S
C2314 C2313 1.398 . S
C2314 C2315 1.391 . S
C2315 H2303 0.950 . S
C2315 C2311 1.393 . S
C2315 C2314 1.391 . S
H2316 C2324 0.950 1_556 S
H2317 C2329 0.950 . S
H2318 C2326 0.950 . S
H2319 C2328 0.950 . S
H2320 C2330 0.950 . S
H2321 C2332 0.950 . S
H2322 C2334 0.950 . S
H2323 C2335 0.950 . S
C2324 H2316 0.950 1_554 S
C2324 C2325 1.386 . S
C2324 C2326 1.391 . S
C2325 C2324 1.386 . S
C2325 C2329 1.393 . S
C2326 H2318 0.950 . S
C2326 C2324 1.391 . S
C2326 C2327 1.400 . S
C2327 C2326 1.400 . S
C2327 C2328 1.398 . S
C2327 C2333 1.491 . S
C2328 H2319 0.950 . S
C2328 C2327 1.398 . S
C2328 C2329 1.391 . S
C2329 H2317 0.950 . S
C2329 C2325 1.393 . S
C2329 C2328 1.391 . S
C2330 H2320 0.950 . S
C2330 C2331 1.386 1_565 S
C2330 C2332 1.391 . S
C2331 C2330 1.386 1_545 S
C2331 C2335 1.393 . S
C2332 H2321 0.950 . S
C2332 C2330 1.391 . S
C2332 C2333 1.400 . S
C2333 C2327 1.491 . S
C2333 C2332 1.400 . S
C2333 C2334 1.398 1_565 S
C2334 H2322 0.950 . S
C2334 C2333 1.398 1_545 S
C2334 C2335 1.391 . S
C2335 H2323 0.950 . S
C2335 C2331 1.393 . S
C2335 C2334 1.391 . S
H2336 C2344 0.950 . S
H2337 C2349 0.950 . S
H2338 C2346 0.950 . S
H2339 C2348 0.950 . S
H2340 C2350 0.950 . S
H2341 C2352 0.950 . S
H2342 C2354 0.950 . S
H2343 C2355 0.950 . S
C2344 H2336 0.950 . S
C2344 C2345 1.386 . S
C2344 C2346 1.391 . S
C2345 C2344 1.386 . S
C2345 C2349 1.393 . S
C2346 H2338 0.950 . S
C2346 C2344 1.391 . S
C2346 C2347 1.400 . S
C2347 C2346 1.400 . S
C2347 C2348 1.398 . S
C2347 C2353 1.491 . S
C2348 H2339 0.950 . S
C2348 C2347 1.398 . S
C2348 C2349 1.391 . S
C2349 H2337 0.950 . S
C2349 C2345 1.393 . S
C2349 C2348 1.391 . S
C2350 H2340 0.950 . S
C2350 C2351 1.386 . S
C2350 C2352 1.391 . S
C2351 C2350 1.386 . S
C2351 C2355 1.393 . S
C2352 H2341 0.950 . S
C2352 C2350 1.391 . S
C2352 C2353 1.400 . S
C2353 C2347 1.491 . S
C2353 C2352 1.400 . S
C2353 C2354 1.398 . S
C2354 H2342 0.950 . S
C2354 C2353 1.398 . S
C2354 C2355 1.391 . S
C2355 H2343 0.950 . S
C2355 C2351 1.393 . S
C2355 C2354 1.391 . S
H2356 C2364 0.950 . S
H2357 C2369 0.950 . S
H2358 C2366 0.950 . S
H2359 C2368 0.950 . S
H2360 C2370 0.950 . S
H2361 C2372 0.950 . S
H2362 C2374 0.950 . S
H2363 C2375 0.950 . S
C2364 H2356 0.950 . S
C2364 C2365 1.386 . S
C2364 C2366 1.391 . S
C2365 C2364 1.386 . S
C2365 C2369 1.393 . S
C2366 H2358 0.950 . S
C2366 C2364 1.391 . S
C2366 C2367 1.400 . S
C2367 C2366 1.400 . S
C2367 C2368 1.398 . S
C2367 C2373 1.491 . S
C2368 H2359 0.950 . S
C2368 C2367 1.398 . S
C2368 C2369 1.391 . S
C2369 H2357 0.950 . S
C2369 C2365 1.393 . S
C2369 C2368 1.391 . S
C2370 H2360 0.950 . S
C2370 C2371 1.386 . S
C2370 C2372 1.391 . S
C2371 C2370 1.386 . S
C2371 C2375 1.393 . S
C2372 H2361 0.950 . S
C2372 C2370 1.391 . S
C2372 C2373 1.400 . S
C2373 C2367 1.491 . S
C2373 C2372 1.400 . S
C2373 C2374 1.398 . S
C2374 H2362 0.950 . S
C2374 C2373 1.398 . S
C2374 C2375 1.391 . S
C2375 H2363 0.950 . S
C2375 C2371 1.393 . S
C2375 C2374 1.391 . S
H2376 C2384 0.950 . S
H2377 C2389 0.950 . S
H2378 C2386 0.950 . S
H2379 C2388 0.950 . S
H2380 C2390 0.950 . S
H2381 C2392 0.950 . S
H2382 C2394 0.950 . S
H2383 C2395 0.950 . S
C2384 H2376 0.950 . S
C2384 C2385 1.386 . S
C2384 C2386 1.391 . S
C2385 C2384 1.386 . S
C2385 C2389 1.393 . S
C2386 H2378 0.950 . S
C2386 C2384 1.391 . S
C2386 C2387 1.400 . S
C2387 C2386 1.400 . S
C2387 C2388 1.398 . S
C2387 C2393 1.491 . S
C2388 H2379 0.950 . S
C2388 C2387 1.398 . S
C2388 C2389 1.391 . S
C2389 H2377 0.950 . S
C2389 C2385 1.393 . S
C2389 C2388 1.391 . S
C2390 H2380 0.950 . S
C2390 C2391 1.386 . S
C2390 C2392 1.391 . S
C2391 C2390 1.386 . S
C2391 C2395 1.393 . S
C2392 H2381 0.950 . S
C2392 C2390 1.391 . S
C2392 C2393 1.400 . S
C2393 C2387 1.491 . S
C2393 C2392 1.400 . S
C2393 C2394 1.398 . S
C2394 H2382 0.950 . S
C2394 C2393 1.398 . S
C2394 C2395 1.391 . S
C2395 H2383 0.950 . S
C2395 C2391 1.393 . S
C2395 C2394 1.391 . S
H2396 C2404 0.950 . S
H2397 C2409 0.950 . S
H2398 C2406 0.950 . S
H2399 C2408 0.950 . S
H2400 C2410 0.950 . S
H2401 C2412 0.950 . S
H2402 C2414 0.950 . S
H2403 C2415 0.950 . S
C2404 H2396 0.950 . S
C2404 C2405 1.386 . S
C2404 C2406 1.391 . S
C2405 C2404 1.386 . S
C2405 C2409 1.393 . S
C2406 H2398 0.950 . S
C2406 C2404 1.391 . S
C2406 C2407 1.400 . S
C2407 C2406 1.400 . S
C2407 C2408 1.398 . S
C2407 C2413 1.491 . S
C2408 H2399 0.950 . S
C2408 C2407 1.398 . S
C2408 C2409 1.391 . S
C2409 H2397 0.950 . S
C2409 C2405 1.393 . S
C2409 C2408 1.391 . S
C2410 H2400 0.950 . S
C2410 C2411 1.386 . S
C2410 C2412 1.391 . S
C2411 C2410 1.386 . S
C2411 C2415 1.393 . S
C2412 H2401 0.950 . S
C2412 C2410 1.391 . S
C2412 C2413 1.400 . S
C2413 C2407 1.491 . S
C2413 C2412 1.400 . S
C2413 C2414 1.398 . S
C2414 H2402 0.950 . S
C2414 C2413 1.398 . S
C2414 C2415 1.391 . S
C2415 H2403 0.950 . S
C2415 C2411 1.393 . S
C2415 C2414 1.391 . S
H2416 C2424 0.950 . S
H2417 C2429 0.950 . S
H2418 C2426 0.950 . S
H2419 C2428 0.950 . S
H2420 C2430 0.950 . S
H2421 C2432 0.950 . S
H2422 C2434 0.950 . S
H2423 C2435 0.950 . S
C2424 H2416 0.950 . S
C2424 C2425 1.386 . S
C2424 C2426 1.391 . S
C2425 C2424 1.386 . S
C2425 C2429 1.393 . S
C2426 H2418 0.950 . S
C2426 C2424 1.391 . S
C2426 C2427 1.400 . S
C2427 C2426 1.400 . S
C2427 C2428 1.398 . S
C2427 C2433 1.491 . S
C2428 H2419 0.950 . S
C2428 C2427 1.398 . S
C2428 C2429 1.391 . S
C2429 H2417 0.950 . S
C2429 C2425 1.393 . S
C2429 C2428 1.391 . S
C2430 H2420 0.950 . S
C2430 C2431 1.386 . S
C2430 C2432 1.391 . S
C2431 C2430 1.386 . S
C2431 C2435 1.393 . S
C2432 H2421 0.950 . S
C2432 C2430 1.391 . S
C2432 C2433 1.400 . S
C2433 C2427 1.491 . S
C2433 C2432 1.400 . S
C2433 C2434 1.398 . S
C2434 H2422 0.950 . S
C2434 C2433 1.398 . S
C2434 C2435 1.391 . S
C2435 H2423 0.950 . S
C2435 C2431 1.393 . S
C2435 C2434 1.391 . S
H2436 C2444 0.950 . S
H2437 C2449 0.950 . S
H2438 C2446 0.950 . S
H2439 C2448 0.950 . S
H2440 C2450 0.950 . S
H2441 C2452 0.950 . S
H2442 C2454 0.950 . S
H2443 C2455 0.950 . S
C2444 H2436 0.950 . S
C2444 C2445 1.386 . S
C2444 C2446 1.391 . S
C2445 C2444 1.386 . S
C2445 C2449 1.393 . S
C2446 H2438 0.950 . S
C2446 C2444 1.391 . S
C2446 C2447 1.400 . S
C2447 C2446 1.400 . S
C2447 C2448 1.398 . S
C2447 C2453 1.491 . S
C2448 H2439 0.950 . S
C2448 C2447 1.398 . S
C2448 C2449 1.391 . S
C2449 H2437 0.950 . S
C2449 C2445 1.393 . S
C2449 C2448 1.391 . S
C2450 H2440 0.950 . S
C2450 C2451 1.386 . S
C2450 C2452 1.391 . S
C2451 C2450 1.386 . S
C2451 C2455 1.393 . S
C2452 H2441 0.950 . S
C2452 C2450 1.391 . S
C2452 C2453 1.400 . S
C2453 C2447 1.491 . S
C2453 C2452 1.400 . S
C2453 C2454 1.398 . S
C2454 H2442 0.950 . S
C2454 C2453 1.398 . S
C2454 C2455 1.391 . S
C2455 H2443 0.950 . S
C2455 C2451 1.393 . S
C2455 C2454 1.391 . S
H2456 C2464 0.950 . S
H2457 C2469 0.950 . S
H2458 C2466 0.950 . S
H2459 C2468 0.950 . S
H2460 C2470 0.950 . S
H2461 C2472 0.950 . S
H2462 C2474 0.950 . S
H2463 C2475 0.950 . S
C2464 H2456 0.950 . S
C2464 C2465 1.386 . S
C2464 C2466 1.391 . S
C2465 C2464 1.386 . S
C2465 C2469 1.393 . S
C2466 H2458 0.950 . S
C2466 C2464 1.391 . S
C2466 C2467 1.400 . S
C2467 C2466 1.400 . S
C2467 C2468 1.398 . S
C2467 C2473 1.491 . S
C2468 H2459 0.950 . S
C2468 C2467 1.398 . S
C2468 C2469 1.391 . S
C2469 H2457 0.950 . S
C2469 C2465 1.393 . S
C2469 C2468 1.391 . S
C2470 H2460 0.950 . S
C2470 C2471 1.386 . S
C2470 C2472 1.391 . S
C2471 C2470 1.386 . S
C2471 C2475 1.393 . S
C2472 H2461 0.950 . S
C2472 C2470 1.391 . S
C2472 C2473 1.400 . S
C2473 C2467 1.491 . S
C2473 C2472 1.400 . S
C2473 C2474 1.398 . S
C2474 H2462 0.950 . S
C2474 C2473 1.398 . S
C2474 C2475 1.391 . S
C2475 H2463 0.950 . S
C2475 C2471 1.393 . S
C2475 C2474 1.391 . S
H2476 C2484 0.950 . S
H2477 C2489 0.950 . S
H2478 C2486 0.950 . S
H2479 C2488 0.950 . S
H2480 C2490 0.950 . S
H2481 C2492 0.950 . S
H2482 C2494 0.950 . S
H2483 C2495 0.950 . S
C2484 H2476 0.950 . S
C2484 C2485 1.386 . S
C2484 C2486 1.391 . S
C2485 C2484 1.386 . S
C2485 C2489 1.393 . S
C2486 H2478 0.950 . S
C2486 C2484 1.391 . S
C2486 C2487 1.400 . S
C2487 C2486 1.400 . S
C2487 C2488 1.398 . S
C2487 C2493 1.491 . S
C2488 H2479 0.950 . S
C2488 C2487 1.398 . S
C2488 C2489 1.391 . S
C2489 H2477 0.950 . S
C2489 C2485 1.393 . S
C2489 C2488 1.391 . S
C2490 H2480 0.950 . S
C2490 C2491 1.386 . S
C2490 C2492 1.391 . S
C2491 C2490 1.386 . S
C2491 C2495 1.393 . S
C2492 H2481 0.950 . S
C2492 C2490 1.391 . S
C2492 C2493 1.400 . S
C2493 C2487 1.491 . S
C2493 C2492 1.400 . S
C2493 C2494 1.398 . S
C2494 H2482 0.950 . S
C2494 C2493 1.398 . S
C2494 C2495 1.391 . S
C2495 H2483 0.950 . S
C2495 C2491 1.393 . S
C2495 C2494 1.391 . S
H2496 C2504 0.950 . S
H2497 C2509 0.950 . S
H2498 C2506 0.950 . S
H2499 C2508 0.950 . S
H2500 C2510 0.950 . S
H2501 C2512 0.950 . S
H2502 C2514 0.950 . S
H2503 C2515 0.950 . S
C2504 H2496 0.950 . S
C2504 C2505 1.386 . S
C2504 C2506 1.391 . S
C2505 C2504 1.386 . S
C2505 C2509 1.393 . S
C2506 H2498 0.950 . S
C2506 C2504 1.391 . S
C2506 C2507 1.400 . S
C2507 C2506 1.400 . S
C2507 C2508 1.398 . S
C2507 C2513 1.491 . S
C2508 H2499 0.950 . S
C2508 C2507 1.398 . S
C2508 C2509 1.391 . S
C2509 H2497 0.950 . S
C2509 C2505 1.393 . S
C2509 C2508 1.391 . S
C2510 H2500 0.950 . S
C2510 C2511 1.386 . S
C2510 C2512 1.391 . S
C2511 C2510 1.386 . S
C2511 C2515 1.393 . S
C2512 H2501 0.950 . S
C2512 C2510 1.391 . S
C2512 C2513 1.400 . S
C2513 C2507 1.491 . S
C2513 C2512 1.400 . S
C2513 C2514 1.398 . S
C2514 H2502 0.950 . S
C2514 C2513 1.398 . S
C2514 C2515 1.391 . S
C2515 H2503 0.950 . S
C2515 C2511 1.393 . S
C2515 C2514 1.391 . S
H2516 C2524 0.950 . S
H2517 C2529 0.950 . S
H2518 C2526 0.950 . S
H2519 C2528 0.950 . S
H2520 C2530 0.950 . S
H2521 C2532 0.950 . S
H2522 C2534 0.950 . S
H2523 C2535 0.950 . S
C2524 H2516 0.950 . S
C2524 C2525 1.386 . S
C2524 C2526 1.391 . S
C2525 C2524 1.386 . S
C2525 C2529 1.393 . S
C2526 H2518 0.950 . S
C2526 C2524 1.391 . S
C2526 C2527 1.400 . S
C2527 C2526 1.400 . S
C2527 C2528 1.398 . S
C2527 C2533 1.491 . S
C2528 H2519 0.950 . S
C2528 C2527 1.398 . S
C2528 C2529 1.391 . S
C2529 H2517 0.950 . S
C2529 C2525 1.393 . S
C2529 C2528 1.391 . S
C2530 H2520 0.950 . S
C2530 C2531 1.386 . S
C2530 C2532 1.391 . S
C2531 C2530 1.386 . S
C2531 C2535 1.393 . S
C2532 H2521 0.950 . S
C2532 C2530 1.391 . S
C2532 C2533 1.400 . S
C2533 C2527 1.491 . S
C2533 C2532 1.400 . S
C2533 C2534 1.398 . S
C2534 H2522 0.950 . S
C2534 C2533 1.398 . S
C2534 C2535 1.391 . S
C2535 H2523 0.950 . S
C2535 C2531 1.393 . S
C2535 C2534 1.391 . S
H2536 C2544 0.950 . S
H2537 C2549 0.950 . S
H2538 C2546 0.950 . S
H2539 C2548 0.950 . S
H2540 C2550 0.950 . S
H2541 C2552 0.950 . S
H2542 C2554 0.950 . S
H2543 C2555 0.950 . S
C2544 H2536 0.950 . S
C2544 C2545 1.386 . S
C2544 C2546 1.391 . S
C2545 C2544 1.386 . S
C2545 C2549 1.393 . S
C2546 H2538 0.950 . S
C2546 C2544 1.391 . S
C2546 C2547 1.400 . S
C2547 C2546 1.400 . S
C2547 C2548 1.398 . S
C2547 C2553 1.491 . S
C2548 H2539 0.950 . S
C2548 C2547 1.398 . S
C2548 C2549 1.391 . S
C2549 H2537 0.950 . S
C2549 C2545 1.393 . S
C2549 C2548 1.391 . S
C2550 H2540 0.950 . S
C2550 C2551 1.386 . S
C2550 C2552 1.391 . S
C2551 C2550 1.386 . S
C2551 C2555 1.393 . S
C2552 H2541 0.950 . S
C2552 C2550 1.391 . S
C2552 C2553 1.400 . S
C2553 C2547 1.491 . S
C2553 C2552 1.400 . S
C2553 C2554 1.398 . S
C2554 H2542 0.950 . S
C2554 C2553 1.398 . S
C2554 C2555 1.391 . S
C2555 H2543 0.950 . S
C2555 C2551 1.393 . S
C2555 C2554 1.391 . S
H2556 C2564 0.950 . S
H2557 C2569 0.950 . S
H2558 C2566 0.950 . S
H2559 C2568 0.950 . S
H2560 C2570 0.950 . S
H2561 C2572 0.950 . S
H2562 C2574 0.950 . S
H2563 C2575 0.950 . S
C2564 H2556 0.950 . S
C2564 C2565 1.386 . S
C2564 C2566 1.391 . S
C2565 C2564 1.386 . S
C2565 C2569 1.393 . S
C2566 H2558 0.950 . S
C2566 C2564 1.391 . S
C2566 C2567 1.400 . S
C2567 C2566 1.400 . S
C2567 C2568 1.398 . S
C2567 C2573 1.491 . S
C2568 H2559 0.950 . S
C2568 C2567 1.398 . S
C2568 C2569 1.391 . S
C2569 H2557 0.950 . S
C2569 C2565 1.393 . S
C2569 C2568 1.391 . S
C2570 H2560 0.950 . S
C2570 C2571 1.386 . S
C2570 C2572 1.391 . S
C2571 C2570 1.386 . S
C2571 C2575 1.393 . S
C2572 H2561 0.950 . S
C2572 C2570 1.391 . S
C2572 C2573 1.400 . S
C2573 C2567 1.491 . S
C2573 C2572 1.400 . S
C2573 C2574 1.398 . S
C2574 H2562 0.950 . S
C2574 C2573 1.398 . S
C2574 C2575 1.391 . S
C2575 H2563 0.950 . S
C2575 C2571 1.393 . S
C2575 C2574 1.391 . S
H2576 C2584 0.950 . S
H2577 C2589 0.950 . S
H2578 C2586 0.950 . S
H2579 C2588 0.950 . S
H2580 C2590 0.950 . S
H2581 C2592 0.950 . S
H2582 C2594 0.950 . S
H2583 C2595 0.950 . S
C2584 H2576 0.950 . S
C2584 C2585 1.386 . S
C2584 C2586 1.391 . S
C2585 C2584 1.386 . S
C2585 C2589 1.393 . S
C2586 H2578 0.950 . S
C2586 C2584 1.391 . S
C2586 C2587 1.400 . S
C2587 C2586 1.400 . S
C2587 C2588 1.398 . S
C2587 C2593 1.491 . S
C2588 H2579 0.950 . S
C2588 C2587 1.398 . S
C2588 C2589 1.391 . S
C2589 H2577 0.950 . S
C2589 C2585 1.393 . S
C2589 C2588 1.391 . S
C2590 H2580 0.950 . S
C2590 C2591 1.386 . S
C2590 C2592 1.391 . S
C2591 C2590 1.386 . S
C2591 C2595 1.393 . S
C2592 H2581 0.950 . S
C2592 C2590 1.391 . S
C2592 C2593 1.400 . S
C2593 C2587 1.491 . S
C2593 C2592 1.400 . S
C2593 C2594 1.398 . S
C2594 H2582 0.950 . S
C2594 C2593 1.398 . S
C2594 C2595 1.391 . S
C2595 H2583 0.950 . S
C2595 C2591 1.393 . S
C2595 C2594 1.391 . S
H2596 C2604 0.950 . S
H2597 C2609 0.950 . S
H2598 C2606 0.950 . S
H2599 C2608 0.950 . S
H2600 C2610 0.950 . S
H2601 C2612 0.950 . S
H2602 C2614 0.950 . S
H2603 C2615 0.950 . S
C2604 H2596 0.950 . S
C2604 C2605 1.386 . S
C2604 C2606 1.391 . S
C2605 C2604 1.386 . S
C2605 C2609 1.393 . S
C2606 H2598 0.950 . S
C2606 C2604 1.391 . S
C2606 C2607 1.400 . S
C2607 C2606 1.400 . S
C2607 C2608 1.398 . S
C2607 C2613 1.491 . S
C2608 H2599 0.950 . S
C2608 C2607 1.398 . S
C2608 C2609 1.391 . S
C2609 H2597 0.950 . S
C2609 C2605 1.393 . S
C2609 C2608 1.391 . S
C2610 H2600 0.950 . S
C2610 C2611 1.386 . S
C2610 C2612 1.391 . S
C2611 C2610 1.386 . S
C2611 C2615 1.393 . S
C2612 H2601 0.950 . S
C2612 C2610 1.391 . S
C2612 C2613 1.400 . S
C2613 C2607 1.491 . S
C2613 C2612 1.400 . S
C2613 C2614 1.398 . S
C2614 H2602 0.950 . S
C2614 C2613 1.398 . S
C2614 C2615 1.391 . S
C2615 H2603 0.950 . S
C2615 C2611 1.393 . S
C2615 C2614 1.391 . S
H2616 C2624 0.950 . S
H2617 C2629 0.950 . S
H2618 C2626 0.950 . S
H2619 C2628 0.950 . S
H2620 C2630 0.950 . S
H2621 C2632 0.964 . S
H2622 C2634 0.950 . S
H2623 C2635 0.950 . S
C2624 H2616 0.950 . S
C2624 C2625 1.386 . S
C2624 C2626 1.391 1_655 S
C2625 C2624 1.386 . S
C2625 C2629 1.393 . S
C2626 H2618 0.950 . S
C2626 C2624 1.391 1_455 S
C2626 C2627 1.400 1_455 S
C2627 C2626 1.400 1_655 S
C2627 C2628 1.398 . S
C2627 C2633 1.491 1_655 S
C2628 H2619 0.950 . S
C2628 C2627 1.398 . S
C2628 C2629 1.391 . S
C2629 H2617 0.950 . S
C2629 C2625 1.393 . S
C2629 C2628 1.391 . S
C2630 H2620 0.950 . S
C2630 C2631 1.386 . S
C2630 C2632 1.383 1_455 S
C2631 C2630 1.386 . S
C2631 C2635 1.393 . S
C2632 H2621 0.964 . S
C2632 C2630 1.383 1_655 S
C2632 C2633 1.395 1_655 S
C2633 C2627 1.491 1_455 S
C2633 C2632 1.395 1_455 S
C2633 C2634 1.398 . S
C2634 H2622 0.950 . S
C2634 C2633 1.398 . S
C2634 C2635 1.391 . S
C2635 H2623 0.950 . S
C2635 C2631 1.393 . S
C2635 C2634 1.391 . S
H2636 C2644 0.950 . S
H2637 C2649 0.950 . S
H2638 C2646 0.950 . S
H2639 C2648 0.950 . S
H2640 C2650 0.950 . S
H2641 C2652 0.950 . S
H2642 C2654 0.950 . S
H2643 C2655 0.950 . S
C2644 H2636 0.950 . S
C2644 C2645 1.386 . S
C2644 C2646 1.391 . S
C2645 C2644 1.386 . S
C2645 C2649 1.393 . S
C2646 H2638 0.950 . S
C2646 C2644 1.391 . S
C2646 C2647 1.400 . S
C2647 C2646 1.400 . S
C2647 C2648 1.398 . S
C2647 C2653 1.491 . S
C2648 H2639 0.950 . S
C2648 C2647 1.398 . S
C2648 C2649 1.391 . S
C2649 H2637 0.950 . S
C2649 C2645 1.393 . S
C2649 C2648 1.391 . S
C2650 H2640 0.950 . S
C2650 C2651 1.386 . S
C2650 C2652 1.391 . S
C2651 C2650 1.386 . S
C2651 C2655 1.393 . S
C2652 H2641 0.950 . S
C2652 C2650 1.391 . S
C2652 C2653 1.400 . S
C2653 C2647 1.491 . S
C2653 C2652 1.400 . S
C2653 C2654 1.398 . S
C2654 H2642 0.950 . S
C2654 C2653 1.398 . S
C2654 C2655 1.391 . S
C2655 H2643 0.950 . S
C2655 C2651 1.393 . S
C2655 C2654 1.391 . S
H2656 C2664 0.950 . S
H2657 C2669 0.950 . S
H2658 C2666 0.950 . S
H2659 C2668 0.950 . S
H2660 C2670 0.950 . S
H2661 C2672 0.950 . S
H2662 C2674 0.950 . S
H2663 C2675 0.950 . S
C2664 H2656 0.950 . S
C2664 C2665 1.386 . S
C2664 C2666 1.391 . S
C2665 C2664 1.386 . S
C2665 C2669 1.393 . S
C2666 H2658 0.950 . S
C2666 C2664 1.391 . S
C2666 C2667 1.400 . S
C2667 C2666 1.400 . S
C2667 C2668 1.398 . S
C2667 C2673 1.491 . S
C2668 H2659 0.950 . S
C2668 C2667 1.398 . S
C2668 C2669 1.391 . S
C2669 H2657 0.950 . S
C2669 C2665 1.393 . S
C2669 C2668 1.391 . S
C2670 H2660 0.950 . S
C2670 C2671 1.386 . S
C2670 C2672 1.391 . S
C2671 C2670 1.386 . S
C2671 C2675 1.393 . S
C2672 H2661 0.950 . S
C2672 C2670 1.391 . S
C2672 C2673 1.400 . S
C2673 C2667 1.491 . S
C2673 C2672 1.400 . S
C2673 C2674 1.398 . S
C2674 H2662 0.950 . S
C2674 C2673 1.398 . S
C2674 C2675 1.391 . S
C2675 H2663 0.950 . S
C2675 C2671 1.393 . S
C2675 C2674 1.391 . S
H2676 C2684 0.950 . S
H2677 C2689 0.950 . S
H2678 C2686 0.950 . S
H2679 C2688 0.950 . S
H2680 C2690 0.950 . S
H2681 C2692 0.950 . S
H2682 C2694 0.950 . S
H2683 C2695 0.950 . S
C2684 H2676 0.950 . S
C2684 C2685 1.386 . S
C2684 C2686 1.391 . S
C2685 C2684 1.386 . S
C2685 C2689 1.393 . S
C2686 H2678 0.950 . S
C2686 C2684 1.391 . S
C2686 C2687 1.400 . S
C2687 C2686 1.400 . S
C2687 C2688 1.398 . S
C2687 C2693 1.491 . S
C2688 H2679 0.950 . S
C2688 C2687 1.398 . S
C2688 C2689 1.391 . S
C2689 H2677 0.950 . S
C2689 C2685 1.393 . S
C2689 C2688 1.391 . S
C2690 H2680 0.950 . S
C2690 C2691 1.386 . S
C2690 C2692 1.391 . S
C2691 C2690 1.386 . S
C2691 C2695 1.393 . S
C2692 H2681 0.950 . S
C2692 C2690 1.391 . S
C2692 C2693 1.400 . S
C2693 C2687 1.491 . S
C2693 C2692 1.400 . S
C2693 C2694 1.398 . S
C2694 H2682 0.950 . S
C2694 C2693 1.398 . S
C2694 C2695 1.391 . S
C2695 H2683 0.950 . S
C2695 C2691 1.393 . S
C2695 C2694 1.391 . S
H2696 C2704 0.950 . S
H2697 C2709 0.950 . S
H2698 C2706 0.950 . S
H2699 C2708 0.950 . S
H2700 C2710 0.950 . S
H2701 C2712 0.950 . S
H2702 C2714 0.950 1_455 S
H2703 C2715 0.950 . S
C2704 H2696 0.950 . S
C2704 C2705 1.386 . S
C2704 C2706 1.391 . S
C2705 C2704 1.386 . S
C2705 C2709 1.393 . S
C2706 H2698 0.950 . S
C2706 C2704 1.391 . S
C2706 C2707 1.400 . S
C2707 C2706 1.400 . S
C2707 C2708 1.398 . S
C2707 C2713 1.491 . S
C2708 H2699 0.950 . S
C2708 C2707 1.398 . S
C2708 C2709 1.391 . S
C2709 H2697 0.950 . S
C2709 C2705 1.393 . S
C2709 C2708 1.391 . S
C2710 H2700 0.950 . S
C2710 C2711 1.386 . S
C2710 C2712 1.391 . S
C2711 C2710 1.386 . S
C2711 C2715 1.393 1_655 S
C2712 H2701 0.950 . S
C2712 C2710 1.391 . S
C2712 C2713 1.400 . S
C2713 C2707 1.491 . S
C2713 C2712 1.400 . S
C2713 C2714 1.398 . S
C2714 H2702 0.950 1_655 S
C2714 C2713 1.398 . S
C2714 C2715 1.391 1_655 S
C2715 H2703 0.950 . S
C2715 C2711 1.393 1_455 S
C2715 C2714 1.391 1_455 S
H2716 C2724 0.950 . S
H2717 C2729 0.950 . S
H2718 C2726 0.950 . S
H2719 C2728 0.950 . S
H2720 C2730 0.950 . S
H2721 C2732 0.950 . S
H2722 C2734 0.950 . S
H2723 C2735 0.950 . S
C2724 H2716 0.950 . S
C2724 C2725 1.386 . S
C2724 C2726 1.391 . S
C2725 C2724 1.386 . S
C2725 C2729 1.393 . S
C2726 H2718 0.950 . S
C2726 C2724 1.391 . S
C2726 C2727 1.400 . S
C2727 C2726 1.400 . S
C2727 C2728 1.398 . S
C2727 C2733 1.491 . S
C2728 H2719 0.950 . S
C2728 C2727 1.398 . S
C2728 C2729 1.391 . S
C2729 H2717 0.950 . S
C2729 C2725 1.393 . S
C2729 C2728 1.391 . S
C2730 H2720 0.950 . S
C2730 C2731 1.386 . S
C2730 C2732 1.391 . S
C2731 C2730 1.386 . S
C2731 C2735 1.393 . S
C2732 H2721 0.950 . S
C2732 C2730 1.391 . S
C2732 C2733 1.400 . S
C2733 C2727 1.491 . S
C2733 C2732 1.400 . S
C2733 C2734 1.398 . S
C2734 H2722 0.950 . S
C2734 C2733 1.398 . S
C2734 C2735 1.391 . S
C2735 H2723 0.950 . S
C2735 C2731 1.393 . S
C2735 C2734 1.391 . S
H2736 C2744 0.950 . S
H2737 C2749 0.950 . S
H2738 C2746 0.950 . S
H2739 C2748 0.950 . S
H2740 C2750 0.950 . S
H2741 C2752 0.950 . S
H2742 C2754 0.950 . S
H2743 C2755 0.950 . S
C2744 H2736 0.950 . S
C2744 C2745 1.386 . S
C2744 C2746 1.391 . S
C2745 C2744 1.386 . S
C2745 C2749 1.393 . S
C2746 H2738 0.950 . S
C2746 C2744 1.391 . S
C2746 C2747 1.400 . S
C2747 C2746 1.400 . S
C2747 C2748 1.398 . S
C2747 C2753 1.491 . S
C2748 H2739 0.950 . S
C2748 C2747 1.398 . S
C2748 C2749 1.391 . S
C2749 H2737 0.950 . S
C2749 C2745 1.393 . S
C2749 C2748 1.391 . S
C2750 H2740 0.950 . S
C2750 C2751 1.386 . S
C2750 C2752 1.391 . S
C2751 C2750 1.386 . S
C2751 C2755 1.393 . S
C2752 H2741 0.950 . S
C2752 C2750 1.391 . S
C2752 C2753 1.400 . S
C2753 C2747 1.491 . S
C2753 C2752 1.400 . S
C2753 C2754 1.398 . S
C2754 H2742 0.950 . S
C2754 C2753 1.398 . S
C2754 C2755 1.391 . S
C2755 H2743 0.950 . S
C2755 C2751 1.393 . S
C2755 C2754 1.391 . S
H2756 C2764 0.950 . S
H2757 C2769 0.950 . S
H2758 C2766 0.950 . S
H2759 C2768 0.950 . S
H2760 C2770 0.978 . S
H2761 C2772 0.950 . S
H2762 C2774 0.950 . S
H2763 C2775 0.962 . S
C2764 H2756 0.950 . S
C2764 C2765 1.386 . S
C2764 C2766 1.391 . S
C2765 C2764 1.386 . S
C2765 C2769 1.393 . S
C2766 H2758 0.950 . S
C2766 C2764 1.391 . S
C2766 C2767 1.400 . S
C2767 C2766 1.400 . S
C2767 C2768 1.398 . S
C2767 C2773 1.491 . S
C2768 H2759 0.950 . S
C2768 C2767 1.398 . S
C2768 C2769 1.391 . S
C2769 H2757 0.950 . S
C2769 C2765 1.393 . S
C2769 C2768 1.391 . S
C2770 H2760 0.978 . S
C2770 C2771 1.386 . S
C2770 C2772 1.391 . S
C2771 C2770 1.386 . S
C2771 C2775 1.387 1_565 S
C2772 H2761 0.950 . S
C2772 C2770 1.391 . S
C2772 C2773 1.400 . S
C2773 C2767 1.491 . S
C2773 C2772 1.400 . S
C2773 C2774 1.398 . S
C2774 H2762 0.950 . S
C2774 C2773 1.398 . S
C2774 C2775 1.385 1_565 S
C2775 H2763 0.962 . S
C2775 C2771 1.387 1_545 S
C2775 C2774 1.385 1_545 S
H2776 C2784 0.950 . S
H2777 C2789 0.950 . S
H2778 C2786 0.950 . S
H2779 C2788 0.950 . S
H2780 C2790 0.950 . S
H2781 C2792 0.950 . S
H2782 C2794 0.950 . S
H2783 C2795 0.950 . S
C2784 H2776 0.950 . S
C2784 C2785 1.386 . S
C2784 C2786 1.391 . S
C2785 C2784 1.386 . S
C2785 C2789 1.393 . S
C2786 H2778 0.950 . S
C2786 C2784 1.391 . S
C2786 C2787 1.400 . S
C2787 C2786 1.400 . S
C2787 C2788 1.398 . S
C2787 C2793 1.491 . S
C2788 H2779 0.950 . S
C2788 C2787 1.398 . S
C2788 C2789 1.391 . S
C2789 H2777 0.950 . S
C2789 C2785 1.393 . S
C2789 C2788 1.391 . S
C2790 H2780 0.950 . S
C2790 C2791 1.386 . S
C2790 C2792 1.391 . S
C2791 C2790 1.386 . S
C2791 C2795 1.393 . S
C2792 H2781 0.950 . S
C2792 C2790 1.391 . S
C2792 C2793 1.400 . S
C2793 C2787 1.491 . S
C2793 C2792 1.400 . S
C2793 C2794 1.398 . S
C2794 H2782 0.950 . S
C2794 C2793 1.398 . S
C2794 C2795 1.391 . S
C2795 H2783 0.950 . S
C2795 C2791 1.393 . S
C2795 C2794 1.391 . S
H2796 C2804 0.950 . S
H2797 C2809 0.950 . S
H2798 C2806 0.950 . S
H2799 C2808 0.950 . S
H2800 C2810 0.950 . S
H2801 C2812 0.950 . S
H2802 C2814 0.950 . S
H2803 C2815 0.950 . S
C2804 H2796 0.950 . S
C2804 C2805 1.386 . S
C2804 C2806 1.391 . S
C2805 C2804 1.386 . S
C2805 C2809 1.393 . S
C2806 H2798 0.950 . S
C2806 C2804 1.391 . S
C2806 C2807 1.400 . S
C2807 C2806 1.400 . S
C2807 C2808 1.398 . S
C2807 C2813 1.491 . S
C2808 H2799 0.950 . S
C2808 C2807 1.398 . S
C2808 C2809 1.391 . S
C2809 H2797 0.950 . S
C2809 C2805 1.393 . S
C2809 C2808 1.391 . S
C2810 H2800 0.950 . S
C2810 C2811 1.386 . S
C2810 C2812 1.391 . S
C2811 C2810 1.386 . S
C2811 C2815 1.393 . S
C2812 H2801 0.950 . S
C2812 C2810 1.391 . S
C2812 C2813 1.400 . S
C2813 C2807 1.491 . S
C2813 C2812 1.400 . S
C2813 C2814 1.398 . S
C2814 H2802 0.950 . S
C2814 C2813 1.398 . S
C2814 C2815 1.391 . S
C2815 H2803 0.950 . S
C2815 C2811 1.393 . S
C2815 C2814 1.391 . S
H2816 C2824 0.950 . S
H2817 C2829 0.950 . S
H2818 C2826 0.950 . S
H2819 C2828 0.950 . S
H2820 C2830 0.950 . S
H2821 C2832 0.950 . S
H2822 C2834 0.950 . S
H2823 C2835 0.950 . S
C2824 H2816 0.950 . S
C2824 C2825 1.386 . S
C2824 C2826 1.391 . S
C2825 C2824 1.386 . S
C2825 C2829 1.393 . S
C2826 H2818 0.950 . S
C2826 C2824 1.391 . S
C2826 C2827 1.400 . S
C2827 C2826 1.400 . S
C2827 C2828 1.398 . S
C2827 C2833 1.491 . S
C2828 H2819 0.950 . S
C2828 C2827 1.398 . S
C2828 C2829 1.391 . S
C2829 H2817 0.950 . S
C2829 C2825 1.393 . S
C2829 C2828 1.391 . S
C2830 H2820 0.950 . S
C2830 C2831 1.386 . S
C2830 C2832 1.391 . S
C2831 C2830 1.386 . S
C2831 C2835 1.393 . S
C2832 H2821 0.950 . S
C2832 C2830 1.391 . S
C2832 C2833 1.400 . S
C2833 C2827 1.491 . S
C2833 C2832 1.400 . S
C2833 C2834 1.398 . S
C2834 H2822 0.950 . S
C2834 C2833 1.398 . S
C2834 C2835 1.391 . S
C2835 H2823 0.950 . S
C2835 C2831 1.393 . S
C2835 C2834 1.391 . S
H2836 C2844 0.950 . S
H2837 C2849 0.950 . S
H2838 C2846 0.950 . S
H2839 C2848 0.950 . S
H2840 C2850 0.950 . S
H2841 C2852 0.950 . S
H2842 C2854 0.950 . S
H2843 C2855 0.950 . S
C2844 H2836 0.950 . S
C2844 C2845 1.386 . S
C2844 C2846 1.391 . S
C2845 C2844 1.386 . S
C2845 C2849 1.393 . S
C2846 H2838 0.950 . S
C2846 C2844 1.391 . S
C2846 C2847 1.400 . S
C2847 C2846 1.400 . S
C2847 C2848 1.398 . S
C2847 C2853 1.491 . S
C2848 H2839 0.950 . S
C2848 C2847 1.398 . S
C2848 C2849 1.391 . S
C2849 H2837 0.950 . S
C2849 C2845 1.393 . S
C2849 C2848 1.391 . S
C2850 H2840 0.950 . S
C2850 C2851 1.386 . S
C2850 C2852 1.391 . S
C2851 C2850 1.386 . S
C2851 C2855 1.393 . S
C2852 H2841 0.950 . S
C2852 C2850 1.391 . S
C2852 C2853 1.400 . S
C2853 C2847 1.491 . S
C2853 C2852 1.400 . S
C2853 C2854 1.398 . S
C2854 H2842 0.950 . S
C2854 C2853 1.398 . S
C2854 C2855 1.391 . S
C2855 H2843 0.950 . S
C2855 C2851 1.393 . S
C2855 C2854 1.391 . S
H2856 C2864 0.950 . S
H2857 C2869 0.950 . S
H2858 C2866 0.950 . S
H2859 C2868 0.950 . S
H2860 C2870 0.950 . S
H2861 C2872 0.950 . S
H2862 C2874 0.950 . S
H2863 C2875 0.950 . S
C2864 H2856 0.950 . S
C2864 C2865 1.386 . S
C2864 C2866 1.391 . S
C2865 C2864 1.386 . S
C2865 C2869 1.393 . S
C2866 H2858 0.950 . S
C2866 C2864 1.391 . S
C2866 C2867 1.400 . S
C2867 C2866 1.400 . S
C2867 C2868 1.398 . S
C2867 C2873 1.491 . S
C2868 H2859 0.950 . S
C2868 C2867 1.398 . S
C2868 C2869 1.391 . S
C2869 H2857 0.950 . S
C2869 C2865 1.393 . S
C2869 C2868 1.391 . S
C2870 H2860 0.950 . S
C2870 C2871 1.386 . S
C2870 C2872 1.391 . S
C2871 C2870 1.386 . S
C2871 C2875 1.393 . S
C2872 H2861 0.950 . S
C2872 C2870 1.391 . S
C2872 C2873 1.400 . S
C2873 C2867 1.491 . S
C2873 C2872 1.400 . S
C2873 C2874 1.398 . S
C2874 H2862 0.950 . S
C2874 C2873 1.398 . S
C2874 C2875 1.391 . S
C2875 H2863 0.950 . S
C2875 C2871 1.393 . S
C2875 C2874 1.391 . S
H2876 C2884 0.950 . S
H2877 C2889 0.950 . S
H2878 C2886 0.950 . S
H2879 C2888 0.950 . S
H2880 C2890 0.950 . S
H2881 C2892 0.950 . S
H2882 C2894 0.950 . S
H2883 C2895 0.950 . S
C2884 H2876 0.950 . S
C2884 C2885 1.386 . S
C2884 C2886 1.391 . S
C2885 C2884 1.386 . S
C2885 C2889 1.393 . S
C2886 H2878 0.950 . S
C2886 C2884 1.391 . S
C2886 C2887 1.400 . S
C2887 C2886 1.400 . S
C2887 C2888 1.398 . S
C2887 C2893 1.491 . S
C2888 H2879 0.950 . S
C2888 C2887 1.398 . S
C2888 C2889 1.391 . S
C2889 H2877 0.950 . S
C2889 C2885 1.393 . S
C2889 C2888 1.391 . S
C2890 H2880 0.950 . S
C2890 C2891 1.386 . S
C2890 C2892 1.391 . S
C2891 C2890 1.386 . S
C2891 C2895 1.393 . S
C2892 H2881 0.950 . S
C2892 C2890 1.391 . S
C2892 C2893 1.400 . S
C2893 C2887 1.491 . S
C2893 C2892 1.400 . S
C2893 C2894 1.398 . S
C2894 H2882 0.950 . S
C2894 C2893 1.398 . S
C2894 C2895 1.391 . S
C2895 H2883 0.950 . S
C2895 C2891 1.393 . S
C2895 C2894 1.391 . S
C985 C106 2.592 . S
C991 C346 2.579 . S
C1005 C65 2.096 . S
C1011 C394 2.094 . S
C1025 C79 1.572 . S
C1031 C426 1.524 . S
C1051 C471 1.165 . S
C1045 C90 1.164 . S
C1065 C21 1.115 . S
C1071 C511 1.120 . S
C1091 C542 0.634 . S
C1085 C35 0.654 . S
C1111 C594 1.328 . S
C1105 C50 1.322 . S
C1125 C6 1.864 . S
C1131 C626 1.868 . S
C1151 C354 2.695 . S
C1145 C232 2.690 . S
C1165 C245 0.637 . S
C1171 C391 0.601 . S
C1191 C434 1.342 . S
C1185 C274 1.342 . S
C1211 C466 1.313 . S
C1205 C175 1.333 . S
C1225 C231 1.631 . S
C1231 C506 1.655 . S
C1251 C545 1.406 . S
C1245 C246 1.435 . S
C1271 C591 0.258 . S
C1265 C273 0.321 . S
C1291 C634 2.267 . S
C1285 C176 2.246 . S
C1311 C351 1.514 . S
C1305 C160 1.491 . S
C1325 C289 1.956 . S
C1331 C674 1.956 . S
C1351 C715 2.696 . S
C1345 C328 2.682 . S
C1371 C746 0.835 1_655 S
C1365 C317 0.857 . S
C1385 C118 1.573 . S
C1391 C631 1.616 . S
C1405 C132 1.577 . S
C1411 C431 1.596 . S
C1425 C331 2.347 . S
C1431 C794 2.327 . S
C1451 C826 0.797 . S
C1445 C303 0.823 . S
C1471 C355 2.159 . S
C1465 C63 2.180 . S
C1491 C825 2.554 . S
C1485 C107 2.498 . S
C1505 C92 1.340 . S
C1511 C435 1.346 . S
C1525 C78 1.642 . S
C1531 C782 1.644 . S
C1551 C502 1.472 . S
C1545 C8 1.526 . S
C1565 C51 0.679 . S
C1571 C711 0.665 . S
C1591 C585 1.836 1_556 S
C1585 C37 1.737 . S
C1611 C875 1.742 . S
C1605 C20 1.773 . S
C1631 C345 2.509 . S
C1625 C147 2.471 . S
C1651 C822 0.631 . S
C1645 C316 0.610 . S
C1665 C119 1.232 . S
C1671 C425 1.256 . S
C1685 C288 1.445 . S
C1691 C795 1.461 . S
C1705 C148 2.085 1_545 S
C1711 C515 2.049 . S
C1731 C714 1.401 . S
C1725 C315 1.361 . S
C1745 C120 0.449 . S
C1751 C582 0.482 . S
C1765 C287 2.095 . S
C1771 C865 2.090 . S
C1785 C188 1.413 . S
C1791 C342 1.390 . S
C1805 C177 2.261 . S
C1811 C665 2.290 . S
C1825 C258 2.771 . S
C1831 C546 2.801 . S
C1845 C247 0.835 . S
C1851 C755 0.850 . S
C1871 C862 1.354 . S
C1865 C272 1.365 1_565 S
C1885 C216 1.404 . S
C1891 C422 1.408 . S
C1911 C465 2.552 . S
C1905 C261 2.541 . S
C1931 C395 0.738 . S
C1925 C205 0.761 . S
C1945 C76 2.195 . S
C1951 C906 2.193 . S
C1971 C834 2.190 . S
C1965 C93 2.199 . S
C1985 C105 1.181 . S
C1991 C946 1.135 . S
C2005 C62 1.160 . S
C2011 C791 1.185 . S
C2025 C49 1.120 . S
C2031 C671 1.119 . S
C2051 C702 0.908 . S
C2045 C9 0.936 . S
C2071 C754 1.224 . S
C2065 C22 1.218 . S
C2091 C866 2.213 . S
C2085 C36 2.288 . S
C2111 C914 2.643 . S
C2105 C260 2.639 . S
C2125 C189 0.512 . S
C2131 C831 0.441 . S
C2151 C954 1.222 . S
C2145 C204 1.224 . S
C2171 C786 1.162 . S
C2165 C217 1.191 . S
C2191 C666 1.940 . S
C2185 C259 1.918 . S
C2205 C190 1.514 . S
C2211 C705 1.499 . S
C2231 C751 0.444 . S
C2225 C203 0.476 . S
C2245 C218 2.336 . S
C2251 C874 2.355 . S
C2271 C911 1.496 . S
C2265 C314 1.499 . S
C2285 C135 2.040 . S
C2291 C514 2.031 . S
C2311 C555 2.584 . S
C2305 C146 2.576 . S
C2331 C586 0.840 . S
C2325 C163 0.872 . S
C2351 C871 1.600 . S
C2345 C300 1.552 . S
C2365 C286 1.531 . S
C2371 C951 1.567 . S
C2391 C474 2.241 . S
C2385 C149 2.248 . S
C2411 C386 0.774 . S
C2405 C121 0.787 . S
C2425 C91 2.165 . S
C2431 C915 2.154 . S
C2451 C385 2.148 . S
C2445 C77 2.025 . S
C2465 C64 1.326 . S
C2471 C955 1.309 . S
C2485 C104 1.309 . S
C2491 C462 1.345 . S
C2505 C34 1.179 . S
C2511 C662 1.193 . S
C2531 C551 0.622 . S
C2525 C23 0.633 . S
C2545 C7 1.324 . S
C2551 C745 1.448 . S
C2565 C48 1.748 . S
C2571 C635 1.727 . S
C2591 C905 2.465 . S
C2585 C329 2.425 . S
C2605 C162 0.627 . S
C2611 C382 0.614 . S
C2631 C945 1.243 . S
C2625 C301 1.235 . S
C2645 C134 1.474 . S
C2651 C475 1.464 . S
C2665 C330 2.045 . S
C2671 C675 2.005 . S
C2691 C554 1.399 . S
C2685 C161 1.400 . S
C2705 C302 0.459 . S
C2711 C742 0.446 . S
C2731 C625 2.053 . S
C2725 C133 2.057 . S
C2751 C902 1.516 . S
C2745 C244 1.556 . S
C2771 C505 2.231 1_665 S
C2765 C219 2.200 . S
C2785 C230 2.466 . S
C2791 C706 2.477 . S
C2811 C595 0.835 . S
C2805 C191 0.831 . S
C2825 C202 1.472 . S
C2831 C622 1.480 . S
C2845 C174 1.559 . S
C2851 C942 1.586 . S
C2871 C785 2.531 . S
C2865 C233 2.509 1_565 S
C2891 C835 0.796 . S
C2885 C275 0.776 . S
