# Generated by pormake.
# Topology rtl, (3,6)-cn, num edge types: 1
# Building blocks:
#     Node 0, Type 0, BuildingBlock: WUSLED_clean_sbu_0, # of connection points: 3
#     Node 1, Type 0, BuildingBlock: WUSLED_clean_sbu_0, # of connection points: 3
#     Node 2, Type 0, BuildingBlock: WUSLED_clean_sbu_0, # of connection points: 3
#     Node 3, Type 0, BuildingBlock: WUSLED_clean_sbu_0, # of connection points: 3
#     Node 4, Type 1, BuildingBlock: KUMBOL_clean_sbu_1, # of connection points: 6
#     Node 5, Type 1, BuildingBlock: KUMBOL_clean_sbu_1, # of connection points: 6
#     Edge 6, Type (0, 1), BuildingBlock: TEMPAE_clean_linker_10, # of connection points: 2
#     Edge 7, Type (0, 1), BuildingBlock: TEMPAE_clean_linker_10, # of connection points: 2
#     Edge 8, Type (0, 1), BuildingBlock: TEMPAE_clean_linker_10, # of connection points: 2
#     Edge 9, Type (0, 1), BuildingBlock: TEMPAE_clean_linker_10, # of connection points: 2
#     Edge 10, Type (0, 1), BuildingBlock: TEMPAE_clean_linker_10, # of connection points: 2
#     Edge 11, Type (0, 1), BuildingBlock: TEMPAE_clean_linker_10, # of connection points: 2
#     Edge 12, Type (0, 1), BuildingBlock: TEMPAE_clean_linker_10, # of connection points: 2
#     Edge 13, Type (0, 1), BuildingBlock: TEMPAE_clean_linker_10, # of connection points: 2
#     Edge 14, Type (0, 1), BuildingBlock: TEMPAE_clean_linker_10, # of connection points: 2
#     Edge 15, Type (0, 1), BuildingBlock: TEMPAE_clean_linker_10, # of connection points: 2
#     Edge 16, Type (0, 1), BuildingBlock: TEMPAE_clean_linker_10, # of connection points: 2
#     Edge 17, Type (0, 1), BuildingBlock: TEMPAE_clean_linker_10, # of connection points: 2
# Relax obj value: 0.016
# Max RMSD: 0.101
# Mean RMSD: 0.058
data_MOF--net-rtl--node1-WUSLED_clean_sbu_0--node2-KUMBOL_clean_sbu_1--edge1-TEMPAE_clean_linker_10
_symmetry_space_group_name_H-M    P1
_symmetry_Int_Tables_number       1
_symmetry_cell_setting            triclinic
loop_
_symmetry_equiv_pos_as_xyz
'x, y, z'
_cell_length_a     42.819225
_cell_length_b     43.357517
_cell_length_c     36.916353
_cell_angle_alpha  81.182978
_cell_angle_beta   99.224081
_cell_angle_gamma 90.725527
loop_
_atom_site_label
_atom_site_type_symbol
_atom_site_fract_x
_atom_site_fract_y
_atom_site_fract_z
_atom_type_partial_charge
C0 C 0.19342 0.84154 0.12193 0.0
C1 C 0.16275 0.85439 0.11184 0.0
C2 C 0.16466 0.86835 0.1737 0.0
C3 C 0.14845 0.86754 0.13754 0.0
C4 C 0.1956 0.85595 0.18342 0.0
C5 C 0.20979 0.8426 0.15778 0.0
U6 U 0.20315 0.83279 0.02295 0.0
O7 O 0.24563 0.8253 0.99876 0.0
O8 O 0.20785 0.79056 0.99772 0.0
C9 C 0.23651 0.79765 0.99096 0.0
C10 C 0.20847 0.82671 0.09558 0.0
C11 C 0.26028 0.772 1.00065 0.0
C12 C 0.31273 0.75139 0.02866 0.0
C13 C 0.28974 0.77511 0.02283 0.0
C14 C 0.27694 0.72078 0.99112 0.0
C15 C 0.30669 0.72408 0.01256 0.0
C16 C 0.25408 0.74452 0.98515 0.0
C17 C 0.15362 0.88464 0.94135 0.0
C18 C 0.16211 0.88749 0.87733 0.0
C19 C 0.11635 0.91296 0.89118 0.0
C20 C 0.12591 0.90253 0.92904 0.0
C21 C 0.13442 0.90578 0.86482 0.0
C22 C 0.17161 0.87698 0.91529 0.0
C23 C 0.16336 0.87434 0.9814 0.0
O24 O 0.18994 0.80926 0.07531 0.0
O25 O 0.22695 0.84473 0.07648 0.0
O26 O 0.19257 0.88085 0.99491 0.0
O27 O 0.15504 0.84593 0.99398 0.0
H28 H 0.14977 0.8541 0.08417 0.0
H29 H 0.12477 0.87727 0.12903 0.0
H30 H 0.20862 0.856 0.21111 0.0
H31 H 0.23349 0.83285 0.16607 0.0
H32 H 0.3353 0.75448 0.04564 0.0
H33 H 0.29525 0.79602 0.0352 0.0
H34 H 0.27166 0.70023 0.97796 0.0
H35 H 0.23168 0.74169 0.96765 0.0
H36 H 0.17669 0.88172 0.85785 0.0
H37 H 0.09459 0.92645 0.88255 0.0
H38 H 0.11162 0.90848 0.94875 0.0
H39 H 0.19308 0.86307 0.92434 0.0
C40 C 0.68153 0.67605 0.72111 0.0
C41 C 0.65979 0.65245 0.71355 0.0
C42 C 0.64965 0.64498 0.77764 0.0
C43 C 0.64399 0.63708 0.74152 0.0
C44 C 0.67142 0.66878 0.78488 0.0
C45 C 0.68716 0.6841 0.75691 0.0
U46 U 0.69862 0.69061 0.62119 0.0
O47 O 0.70782 0.7342 0.58551 0.0
O48 O 0.74396 0.69693 0.59994 0.0
C49 C 0.73659 0.72543 0.583 0.0
C50 C 0.69868 0.69226 0.69217 0.0
C51 C 0.76186 0.74897 0.58579 0.0
C52 C 0.78377 0.79732 0.60458 0.0
C53 C 0.76068 0.77402 0.60562 0.0
C54 C 0.80971 0.77049 0.56455 0.0
C55 C 0.80846 0.796 0.58371 0.0
C56 C 0.78672 0.74732 0.56562 0.0
C57 C 0.65286 0.64341 0.54996 0.0
C58 C 0.64812 0.65521 0.48262 0.0
C59 C 0.63461 0.60389 0.51159 0.0
C60 C 0.64224 0.61313 0.54656 0.0
C61 C 0.63738 0.62481 0.47915 0.0
C62 C 0.65593 0.6644 0.51775 0.0
C63 C 0.66027 0.65239 0.58735 0.0
O64 O 0.71828 0.67478 0.67988 0.0
O65 O 0.6816 0.71137 0.66543 0.0
O66 O 0.65204 0.68085 0.59052 0.0
O67 O 0.68842 0.64392 0.6059 0.0
H68 H 0.65516 0.64583 0.68607 0.0
H69 H 0.6277 0.61868 0.73497 0.0
H70 H 0.67606 0.67585 0.8121 0.0
H71 H 0.70378 0.70231 0.76328 0.0
H72 H 0.78225 0.8164 0.62004 0.0
H73 H 0.74172 0.77586 0.62141 0.0
H74 H 0.82796 0.76884 0.54771 0.0
H75 H 0.78796 0.72839 0.54982 0.0
H76 H 0.65078 0.67178 0.45822 0.0
H77 H 0.62601 0.58047 0.50993 0.0
H78 H 0.63965 0.59661 0.57105 0.0
H79 H 0.66429 0.68787 0.51975 0.0
C80 C 0.84495 0.17449 0.16178 0.0
C81 C 0.85878 0.1454 0.16126 0.0
C82 C 0.87653 0.13959 0.22818 0.0
C83 C 0.87443 0.12806 0.19422 0.0
C84 C 0.86313 0.16906 0.22821 0.0
C85 C 0.84747 0.18626 0.19538 0.0
U86 U 0.82514 0.19764 0.05578 0.0
O87 O 0.77899 0.2086 0.02057 0.0
O88 O 0.81546 0.24458 0.02334 0.0
C89 C 0.78565 0.23829 1.01226 0.0
C90 C 0.82747 0.19289 0.12795 0.0
C91 C 0.76224 0.26098 0.01834 0.0
C92 C 0.71875 0.2745 0.04843 0.0
C93 C 0.74093 0.25273 0.04343 0.0
C94 C 0.73928 0.31335 1.00413 0.0
C95 C 0.71766 0.30505 0.02883 0.0
C96 C 0.76125 0.29148 0.99886 0.0
C97 C 0.86955 0.15573 0.99335 0.0
C98 C 0.87152 0.17118 0.92752 0.0
C99 C 0.89314 0.12109 0.95922 0.0
C100 C 0.88447 0.12743 0.99222 0.0
C101 C 0.88716 0.143 0.92653 0.0
C102 C 0.86281 0.17753 0.96073 0.0
C103 C 0.86219 0.16193 0.02921 0.0
O104 O 0.84424 0.21305 0.10902 0.0
O105 O 0.80737 0.17743 0.10682 0.0
O106 O 0.8341 0.15333 0.03673 0.0
O107 O 0.87076 0.1892 0.03868 0.0
H108 H 0.85719 0.13598 0.13549 0.0
H109 H 0.88432 0.1054 0.19323 0.0
H110 H 0.86484 0.17896 0.25366 0.0
H111 H 0.83714 0.20877 0.19626 0.0
H112 H 0.70263 0.26752 0.06793 0.0
H113 H 0.74136 0.22946 0.05917 0.0
H114 H 0.73883 0.33661 0.98837 0.0
H115 H 0.77745 0.29838 0.97943 0.0
H116 H 0.86665 0.18857 0.90287 0.0
H117 H 0.90451 0.0989 0.95931 0.0
H118 H 0.88968 0.11025 0.01706 0.0
H119 H 0.85121 0.19952 0.96107 0.0
C120 C 0.34923 0.34129 0.35398 0.0
C121 C 0.37851 0.35536 0.3636 0.0
C122 C 0.38235 0.37138 0.29798 0.0
C123 C 0.39492 0.37021 0.3359 0.0
C124 C 0.35277 0.35756 0.28867 0.0
C125 C 0.33648 0.34267 0.31634 0.0
U126 U 0.32946 0.32637 0.45308 0.0
O127 O 0.28364 0.31792 0.47259 0.0
O128 O 0.32135 0.28236 0.4887 0.0
C129 C 0.29176 0.28957 0.48961 0.0
C130 C 0.33174 0.32488 0.38255 0.0
C131 C 0.26783 0.26454 0.48578 0.0
C132 C 0.21255 0.24857 0.47845 0.0
C133 C 0.23535 0.27198 0.47629 0.0
C134 C 0.25408 0.20957 0.49885 0.0
C135 C 0.22158 0.21709 0.49048 0.0
C136 C 0.27687 0.23297 0.49667 0.0
C137 C 0.37243 0.37464 0.52504 0.0
C138 C 0.36169 0.37217 0.58821 0.0
C139 C 0.40323 0.40542 0.56738 0.0
C140 C 0.3966 0.39592 0.53249 0.0
C141 C 0.38576 0.39386 0.59567 0.0
C142 C 0.35504 0.36267 0.55313 0.0
C143 C 0.36578 0.36564 0.48771 0.0
O144 O 0.34859 0.30615 0.40991 0.0
O145 O 0.31107 0.34187 0.39382 0.0
O146 O 0.33748 0.37309 0.46887 0.0
O147 O 0.37512 0.33747 0.48494 0.0
H148 H 0.38878 0.35468 0.39251 0.0
H149 H 0.41771 0.3803 0.34421 0.0
H150 H 0.34198 0.35847 0.25991 0.0
H151 H 0.31384 0.33215 0.30829 0.0
H152 H 0.18777 0.25532 0.47218 0.0
H153 H 0.22743 0.29606 0.46848 0.0
H154 H 0.26196 0.18557 0.50772 0.0
H155 H 0.30161 0.22634 0.50472 0.0
H156 H 0.34767 0.36295 0.60927 0.0
H157 H 0.42231 0.42166 0.5723 0.0
H158 H 0.41038 0.40528 0.51121 0.0
H159 H 0.33626 0.34618 0.54784 0.0
C160 C 0.93172 0.07643 0.50371 0.0
C161 C 0.88324 0.04705 0.50366 0.0
C162 C 0.91567 0.05034 0.51708 0.0
C163 C 0.86784 0.06946 0.47503 0.0
C164 C 0.91595 0.09993 0.47656 0.0
C165 C 0.88411 0.09597 0.46173 0.0
N166 N 0.96224 0.07983 0.51922 0.0
C167 C 0.97767 0.10719 0.51124 0.0
C168 C 0.93231 0.12724 0.46631 0.0
C169 C 0.96315 0.13108 0.48417 0.0
Gd170 Gd 0.03532 0.97833 0.51614 0.0
Gd171 Gd 0.98565 0.03797 0.5626 0.0
N172 N 0.93096 0.02986 0.54576 0.0
C173 C 0.86684 0.02238 0.52091 0.0
C174 C 0.91417 0.00809 0.56529 0.0
C175 C 0.88223 1.00323 0.55244 0.0
H176 H 0.92538 0.99432 0.59085 0.0
H177 H 0.86938 0.98512 0.56723 0.0
H178 H 0.11157 0.99422 0.53939 0.0
H179 H 1.00156 0.11003 0.525 0.0
H180 H 0.15779 0.97242 0.58528 0.0
H181 H 0.84194 0.01897 0.51139 0.0
H182 H 0.843 0.06722 0.46418 0.0
H183 H 0.98744 0.91676 0.50445 0.0
H184 H 0.92108 0.1458 0.44544 0.0
H185 H 0.97574 0.15238 0.47705 0.0
H186 H 0.11888 0.87734 0.64713 0.0
H187 H 0.87148 0.11381 0.44099 0.0
H188 H 0.01689 0.84332 0.59468 0.0
H189 H 0.97884 0.8647 0.53891 0.0
N190 N 0.02766 0.92629 0.54285 0.0
C191 C 0.05033 0.9138 0.57113 0.0
C192 C 1.00344 0.90818 0.52961 0.0
C193 C 0.02032 0.86649 0.58017 0.0
C194 C 0.99879 0.87846 0.54872 0.0
C195 C 0.04714 0.88373 0.59094 0.0
H196 H 0.06933 0.84844 0.63538 0.0
N197 N 0.08091 0.95789 0.55645 0.0
C198 C 0.07815 0.92993 0.57776 0.0
C199 C 0.13238 0.93257 0.60759 0.0
C200 C 0.1036 0.9167 0.60442 0.0
C201 C 0.10941 0.97255 0.55764 0.0
C202 C 0.13547 0.96032 0.58358 0.0
O203 O 0.99341 0.04837 0.50265 0.0
O204 O 0.98943 1.00023 0.48485 0.0
O205 O 0.05573 0.99563 0.46679 0.0
O206 O 0.04855 0.94638 0.48086 0.0
O207 O 0.97581 0.98592 0.57171 0.0
O208 O 0.98263 0.97032 0.51674 0.0
O209 O 0.05357 0.9929 0.57219 0.0
O210 O 1.00838 0.99427 0.59697 0.0
O211 O 0.95864 0.05886 0.598 0.0
O212 O 1.00939 0.06106 0.60759 0.0
O213 O 0.05598 0.02691 0.51438 0.0
O214 O 0.03421 0.05626 0.553 0.0
C215 C 0.98484 0.0305 0.47728 0.0
C216 C 0.96848 0.96771 0.54622 0.0
C217 C 0.0436 0.96688 0.41731 0.0
C218 C 0.05022 0.95565 0.35602 0.0
C219 C 0.99986 0.97546 0.36613 0.0
C220 C 0.01217 0.97604 0.40336 0.0
C221 C 0.0187 0.9654 0.34255 0.0
C222 C 0.06254 0.9565 0.39366 0.0
C223 C 0.05679 0.96841 0.45634 0.0
C224 C 0.09978 0.88774 0.6261 0.0
C225 C 0.07153 0.8713 0.61944 0.0
H226 H 0.15252 0.92323 0.62779 0.0
C227 C 0.03861 0.98776 0.60078 0.0
C228 C 0.05541 0.05145 0.53177 0.0
C229 C 0.98332 0.05428 0.66007 0.0
C230 C 0.96565 0.0589 0.71887 0.0
C231 C 0.99514 0.0129 0.71273 0.0
C232 C 0.99701 0.02515 0.67604 0.0
C233 C 0.97967 0.02961 0.73408 0.0
C234 C 0.96774 0.07127 0.68167 0.0
C235 C 0.98346 0.0657 0.62032 0.0
H236 H 0.97558 0.98269 0.35556 0.0
H237 H 0.99721 0.9836 0.42131 0.0
H238 H 1.00842 0.96471 0.3139 0.0
H239 H 0.08687 0.94946 0.40445 0.0
H240 H 1.00551 0.99026 0.72459 0.0
H241 H 1.00889 0.01173 0.65998 0.0
H242 H 0.97885 0.01966 0.76267 0.0
H243 H 0.95667 0.09358 0.66934 0.0
C244 C 0.60755 0.55125 0.04294 0.0
C245 C 0.60218 0.60647 0.01829 0.0
C246 C 0.58981 0.57865 0.03522 0.0
C247 C 0.63218 0.60598 1.00763 0.0
C248 C 0.63826 0.55097 0.03374 0.0
C249 C 0.65011 0.57825 0.01513 0.0
N250 N 0.59561 0.52549 0.06164 0.0
C251 C 0.61459 0.5 0.07572 0.0
C252 C 0.65658 0.52365 0.04484 0.0
C253 C 0.64492 0.49826 0.0666 0.0
Gd254 Gd 0.48055 0.48956 0.99918 0.0
Gd255 Gd 0.54311 0.53001 0.07221 0.0
N256 N 0.56058 0.5782 0.04507 0.0
C257 C 0.58415 0.634 0.01307 0.0
C258 C 0.54348 0.60514 0.04174 0.0
C259 C 0.55484 0.63339 0.02527 0.0
H260 H 0.52086 0.60462 0.05124 0.0
H261 H 0.54098 0.65463 0.02192 0.0
H262 H 0.51873 0.42101 0.99998 0.0
H263 H 0.60664 0.48113 0.09452 0.0
H264 H 0.51631 0.36623 0.02874 0.0
H265 H 0.59282 0.65587 1.00014 0.0
H266 H 0.64196 0.62705 0.99419 0.0
H267 H 0.41206 0.52241 1.00412 0.0
H268 H 0.68026 0.52242 0.03824 0.0
H269 H 0.65949 0.47758 0.07695 0.0
H270 H 0.42078 0.36121 0.08171 0.0
H271 H 0.67351 0.57838 1.00746 0.0
H272 H 0.35634 0.4539 0.06064 0.0
H273 H 0.3628 0.50785 0.02948 0.0
N274 N 0.43311 0.47742 0.02168 0.0
C275 C 0.42947 0.44734 0.03703 0.0
C276 C 0.40929 0.49888 0.01776 0.0
C277 C 0.37786 0.46016 0.04946 0.0
C278 C 0.38144 0.49067 0.03196 0.0
C279 C 0.40192 0.43798 0.05191 0.0
H280 H 0.3783 0.39929 0.08027 0.0
N281 N 0.47908 0.43564 0.0216 0.0
C282 C 0.45347 0.42597 0.03771 0.0
C283 C 0.47388 0.37305 0.05112 0.0
C284 C 0.45035 0.39449 0.05326 0.0
C285 C 0.50054 0.41426 0.01659 0.0
C286 C 0.49877 0.38289 0.03208 0.0
O287 O 0.53295 0.55078 1.01089 0.0
O288 O 0.52601 0.50821 0.98103 0.0
O289 O 0.46395 0.46392 0.95358 0.0
O290 O 0.45349 0.51307 0.94777 0.0
O291 O 0.49292 0.54922 0.06055 0.0
O292 O 0.47139 0.54069 1.00087 0.0
O293 O 0.47136 0.49286 0.05739 0.0
O294 O 0.52027 0.48461 0.09225 0.0
O295 O 0.52833 0.55037 0.1171 0.0
O296 O 0.57671 0.53542 0.12163 0.0
O297 O 0.53181 0.47359 1.00856 0.0
O298 O 0.55094 0.47859 0.06958 0.0
C299 C 0.53703 0.53636 0.98317 0.0
C300 C 0.47244 0.55585 0.02951 0.0
C301 C 0.46398 0.49347 0.89455 0.0
C302 C 0.46241 0.47981 0.83235 0.0
C303 C 0.5003 0.51763 0.85477 0.0
C304 C 0.48869 0.51419 0.88829 0.0
C305 C 0.48735 0.50061 0.82699 0.0
C306 C 0.45073 0.47641 0.86639 0.0
C307 C 0.45302 0.48874 0.93092 0.0
C308 C 0.42344 0.38523 0.06933 0.0
C309 C 0.39922 0.4069 0.06849 0.0
H310 H 0.47239 0.34867 0.06275 0.0
C311 C 0.48954 0.48087 0.08827 0.0
C312 C 0.55172 0.46558 0.03969 0.0
C313 C 0.55533 0.53174 0.17704 0.0
C314 C 0.56361 0.53514 0.24345 0.0
C315 C 0.54445 0.48714 0.22131 0.0
C316 C 0.54558 0.5008 0.18482 0.0
C317 C 0.55336 0.50412 0.25045 0.0
C318 C 0.56451 0.54884 0.2064 0.0
C319 C 0.55573 0.54627 0.13837 0.0
H320 H 0.51943 0.53358 0.85033 0.0
H321 H 0.49905 0.52771 0.90935 0.0
H322 H 0.49658 0.50405 0.80102 0.0
H323 H 0.43181 0.46021 0.8712 0.0
H324 H 0.53684 0.46324 0.22707 0.0
H325 H 0.53897 0.48726 0.16264 0.0
H326 H 0.55277 0.49275 0.27858 0.0
H327 H 0.57199 0.5728 0.20035 0.0
C328 C 0.16909 0.19254 0.47055 0.0
C329 C 0.19727 0.19245 0.49598 0.0
C330 C 0.14579 0.16986 0.47605 0.0
C331 C 0.15065 0.14644 0.50778 0.0
C332 C 0.17904 0.14616 0.53349 0.0
C333 C 0.20192 0.1691 0.52732 0.0
C334 C 0.11594 0.17094 0.44786 0.0
C335 C 0.18519 0.12169 0.56771 0.0
C336 C 0.07923 0.10383 0.54047 0.0
C337 C 0.07997 0.07568 0.52614 0.0
C338 C 0.10192 0.12707 0.53457 0.0
C339 C 0.12616 0.1221 0.514 0.0
C340 C 0.12717 0.09373 0.49964 0.0
C341 C 0.10412 0.07097 0.50579 0.0
C342 C 0.09991 0.157 0.55029 0.0
C343 C 0.15266 0.08737 0.47773 0.0
H344 H 0.16536 0.21023 0.44608 0.0
H345 H 0.2233 0.16907 0.54751 0.0
H346 H 0.11354 0.14887 0.43597 0.0
H347 H 0.09497 0.1731 0.46153 0.0
H348 H 0.11562 0.19075 0.42481 0.0
H349 H 0.20855 0.12452 0.58488 0.0
H350 H 0.16646 0.12294 0.58502 0.0
H351 H 0.18432 0.09806 0.55959 0.0
H352 H 0.06078 0.10789 0.5562 0.0
H353 H 0.10513 0.04941 0.49455 0.0
H354 H 0.09762 0.17721 0.52758 0.0
H355 H 0.12198 0.16015 0.56961 0.0
H356 H 0.07953 0.1574 0.56543 0.0
H357 H 0.15187 0.10557 0.45294 0.0
H358 H 0.15019 0.06415 0.46842 0.0
H359 H 0.17631 0.08846 0.49489 0.0
C360 C 0.32403 0.66781 0.02395 0.0
C361 C 0.3316 0.69953 0.01693 0.0
C362 C 0.34701 0.64439 0.02654 0.0
C363 C 0.37832 0.65286 0.02179 0.0
C364 C 0.38619 0.68483 0.01502 0.0
C365 C 0.36277 0.70776 0.01277 0.0
C366 C 0.33776 0.61058 0.03417 0.0
C367 C 0.41925 0.6948 1.00958 0.0
C368 C 0.4447 0.5934 0.05927 0.0
C369 C 0.44875 0.58108 0.02728 0.0
C370 C 0.42189 0.61672 0.05789 0.0
C371 C 0.40278 0.62825 0.02363 0.0
C372 C 0.40692 0.61615 0.99117 0.0
C373 C 0.42974 0.59264 0.9934 0.0
C374 C 0.41804 0.62882 0.09318 0.0
C375 C 0.38717 0.62799 0.95406 0.0
H376 H 0.30008 0.66129 0.02759 0.0
H377 H 0.36869 0.7322 1.00685 0.0
H378 H 0.34177 0.59844 1.01092 0.0
H379 H 0.35281 0.59867 0.05963 0.0
H380 H 0.31256 0.60789 0.03779 0.0
H381 H 0.42164 0.72059 1.00503 0.0
H382 H 0.43653 0.68492 0.03421 0.0
H383 H 0.42569 0.68555 0.98531 0.0
H384 H 0.4591 0.58457 0.08565 0.0
H385 H 0.43272 0.58338 0.9685 0.0
H386 H 0.39354 0.62477 0.09891 0.0
H387 H 0.4219 0.65438 0.08992 0.0
H388 H 0.43479 0.61745 0.11757 0.0
H389 H 0.36176 0.62381 0.9555 0.0
H390 H 0.39367 0.61654 0.93132 0.0
H391 H 0.39008 0.65356 0.94699 0.0
C392 C 0.8231 0.85292 0.57664 0.0
C393 C 0.83231 0.82142 0.58075 0.0
C394 C 0.845 0.87707 0.5716 0.0
C395 C 0.87694 0.86967 0.57053 0.0
C396 C 0.88653 0.83797 0.57531 0.0
C397 C 0.86418 0.81431 0.5804 0.0
C398 C 0.83387 0.91057 0.56689 0.0
C399 C 0.92032 0.82901 0.5743 0.0
C400 C 0.9271 0.93118 0.52202 0.0
C401 C 0.94499 0.94273 0.55217 0.0
C402 C 0.90491 0.90741 0.52757 0.0
C403 C 0.9003 0.89506 0.56415 0.0
C404 C 0.91823 0.90679 0.59467 0.0
C405 C 0.94038 0.93038 0.58831 0.0
C406 C 0.88644 0.89547 0.49428 0.0
C407 C 0.91414 0.89432 0.63409 0.0
H408 H 0.79853 0.85877 0.5764 0.0
H409 H 0.87172 0.79011 0.58409 0.0
H410 H 0.84795 0.92275 0.58824 0.0
H411 H 0.83763 0.923 0.53936 0.0
H412 H 0.80843 0.91247 0.56915 0.0
H413 H 0.92457 0.80342 0.58144 0.0
H414 H 0.92599 0.83678 0.54606 0.0
H415 H 0.93692 0.84086 0.59387 0.0
H416 H 0.93042 0.9408 0.49403 0.0
H417 H 0.95431 0.93905 0.61177 0.0
H418 H 0.86071 0.89871 0.49378 0.0
H419 H 0.89094 0.87008 0.49623 0.0
H420 H 0.89275 0.90754 0.46769 0.0
H421 H 0.88916 0.89727 0.63761 0.0
H422 H 0.92958 0.90623 0.65471 0.0
H423 H 0.91972 0.86895 0.64024 0.0
C424 C 0.70246 0.35873 0.03799 0.0
C425 C 0.69372 0.32806 0.03358 0.0
C426 C 0.67986 0.38095 0.04125 0.0
C427 C 0.64769 0.37241 0.03965 0.0
C428 C 0.6388 0.34137 0.03572 0.0
C429 C 0.66194 0.31954 0.03292 0.0
C430 C 0.69034 0.4137 0.04591 0.0
C431 C 0.6047 0.33144 0.03344 0.0
C432 C 0.59036 0.42372 0.07356 0.0
C433 C 0.57627 0.44165 0.04019 0.0
C434 C 0.61387 0.40127 0.07393 0.0
C435 C 0.62311 0.39633 0.04006 0.0
C436 C 0.60871 0.4142 1.00629 0.0
C437 C 0.58559 0.43668 1.0068 0.0
C438 C 0.62882 0.38285 0.11052 0.0
C439 C 0.6177 0.40958 0.96955 0.0
H440 H 0.72705 0.36532 0.039 0.0
H441 H 0.655 0.29596 0.02917 0.0
H442 H 0.67869 0.43054 0.02201 0.0
H443 H 0.68299 0.42013 0.07129 0.0
H444 H 0.71638 0.41632 0.04798 0.0
H445 H 0.60184 0.30615 0.03187 0.0
H446 H 0.59501 0.33663 0.058 0.0
H447 H 0.59027 0.3449 1.00851 0.0
H448 H 0.58298 0.42724 0.09939 0.0
H449 H 0.57489 0.45053 0.9809 0.0
H450 H 0.65482 0.38614 0.11467 0.0
H451 H 0.62457 0.35758 0.11033 0.0
H452 H 0.61941 0.38987 0.13443 0.0
H453 H 0.64328 0.4141 0.96973 0.0
H454 H 0.60406 0.4252 0.94576 0.0
H455 H 0.61355 0.38502 0.9651 0.0
C456 C 0.11774 0.87422 0.20513 0.0
C457 C 0.14914 0.88166 0.20131 0.0
C458 C 0.10275 0.88642 0.23113 0.0
C459 C 0.11947 0.90678 0.25375 0.0
C460 C 0.15118 0.9144 0.25004 0.0
C461 C 0.16568 0.90165 0.22399 0.0
C462 C 0.069 0.87749 0.2344 0.0
C463 C 0.16971 0.93624 0.27336 0.0
C464 C 0.06916 0.96008 0.29452 0.0
C465 C 0.06978 0.94423 0.33075 0.0
C466 C 0.08583 0.94857 0.2695 0.0
C467 C 0.10348 0.92038 0.28087 0.0
C468 C 0.1048 0.90462 0.31767 0.0
C469 C 0.08803 0.91678 0.3422 0.0
C470 C 0.08406 0.96628 0.23066 0.0
C471 C 0.12322 0.87443 0.33083 0.0
H472 H 0.10496 0.85845 0.18808 0.0
H473 H 0.18985 0.90774 0.22093 0.0
H474 H 0.06753 0.8665 0.26325 0.0
H475 H 0.05366 0.89868 0.22823 0.0
H476 H 0.05948 0.86101 0.2152 0.0
H477 H 0.19423 0.93962 0.26734 0.0
H478 H 0.15756 0.95932 0.26822 0.0
H479 H 0.17083 0.92699 0.30328 0.0
H480 H 0.05548 0.98154 0.28565 0.0
H481 H 0.08839 0.90425 0.37004 0.0
H482 H 0.07247 0.95173 0.21023 0.0
H483 H 0.10822 0.97144 0.22434 0.0
H484 H 0.07058 0.98859 0.22674 0.0
H485 H 0.11297 0.85628 0.31441 0.0
H486 H 0.12302 0.86577 0.36072 0.0
H487 H 0.14813 0.87761 0.32633 0.0
C488 C 0.64916 0.62048 0.84407 0.0
C489 C 0.63298 0.62858 0.80765 0.0
C490 C 0.63376 0.60531 0.87266 0.0
C491 C 0.60123 0.59812 0.86489 0.0
C492 C 0.58473 0.60623 0.8282 0.0
C493 C 0.60081 0.62115 0.80008 0.0
C494 C 0.65227 0.5973 0.91132 0.0
C495 C 0.55018 0.59875 0.81824 0.0
C496 C 0.5681 0.53464 0.93145 0.0
C497 C 0.55341 0.55222 0.95301 0.0
C498 C 0.58355 0.54922 0.90261 0.0
C499 C 0.58454 0.58224 0.89519 0.0
C500 C 0.56959 0.60008 0.91679 0.0
C501 C 0.55402 0.58486 0.94518 0.0
C502 C 0.59882 0.52927 0.88008 0.0
C503 C 0.56986 0.63529 0.90975 0.0
H504 H 0.6741 0.62569 0.85022 0.0
H505 H 0.58796 0.62748 0.77218 0.0
H506 H 0.64328 0.61166 0.9299 0.0
H507 H 0.649 0.57244 0.9226 0.0
H508 H 0.67797 0.60166 0.91214 0.0
H509 H 0.53922 0.61269 0.79153 0.0
H510 H 0.54804 0.57371 0.8153 0.0
H511 H 0.53658 0.60297 0.84022 0.0
H512 H 0.56761 0.50937 0.9372 0.0
H513 H 0.54197 0.59857 0.96101 0.0
H514 H 0.62438 0.53463 0.88187 0.0
H515 H 0.58798 0.53468 0.85042 0.0
H516 H 0.59626 0.50392 0.88959 0.0
H517 H 0.59459 0.64355 0.91463 0.0
H518 H 0.55608 0.64577 0.92796 0.0
H519 H 0.5599 0.64393 0.88035 0.0
C520 C 0.87891 0.12021 0.29614 0.0
C521 C 0.89221 0.12102 0.26365 0.0
C522 C 0.89395 0.10419 0.33025 0.0
C523 C 0.92301 0.08839 0.33209 0.0
C524 C 0.93621 0.08835 0.29928 0.0
C525 C 0.92067 0.1047 0.26544 0.0
C526 C 0.87919 0.10502 0.36456 0.0
C527 C 0.96709 0.07163 0.30012 0.0
C528 C 0.97635 0.07573 0.42599 0.0
C529 C 0.96982 0.04479 0.43967 0.0
C530 C 0.96158 0.09008 0.39087 0.0
C531 C 0.94001 0.07291 0.36866 0.0
C532 C 0.93377 0.04142 0.38209 0.0
C533 C 0.94864 0.02778 0.41755 0.0
C534 C 0.96875 0.12375 0.37777 0.0
C535 C 0.91091 0.02234 0.35933 0.0
H536 H 0.85665 0.13223 0.29495 0.0
H537 H 0.93125 0.10537 0.24056 0.0
H538 H 0.87777 0.08113 0.38003 0.0
H539 H 0.89433 0.11891 0.38317 0.0
H540 H 0.85509 0.11565 0.35797 0.0
H541 H 0.97336 0.0724 0.27194 0.0
H542 H 0.98642 0.08246 0.31752 0.0
H543 H 0.96577 0.04686 0.31293 0.0
H544 H 0.99313 0.08877 0.44277 0.0
H545 H 0.94334 1.0039 0.4282 0.0
H546 H 0.94683 0.13812 0.37348 0.0
H547 H 0.97731 0.12595 0.35068 0.0
H548 H 0.98683 0.13349 0.39791 0.0
H549 H 0.88683 0.03281 0.3549 0.0
H550 H 0.90994 0.99772 0.37292 0.0
H551 H 0.91779 0.02256 0.33157 0.0
C552 C 0.39419 0.38343 0.66568 0.0
C553 C 0.39288 0.4046 0.63261 0.0
C554 C 0.4031 0.39316 0.70053 0.0
C555 C 0.41092 0.4248 0.70236 0.0
C556 C 0.40859 0.44643 0.66912 0.0
C557 C 0.39957 0.4361 0.63477 0.0
C558 C 0.40518 0.36939 0.7353 0.0
C559 C 0.41654 0.48041 0.66974 0.0
C560 C 0.4159 0.46098 0.79093 0.0
C561 C 0.44875 0.46222 0.802 0.0
C562 C 0.40307 0.44765 0.75941 0.0
C563 C 0.42357 0.43517 0.7386 0.0
C564 C 0.45667 0.43496 0.75082 0.0
C565 C 0.46881 0.44849 0.78228 0.0
C566 C 0.36766 0.44824 0.74741 0.0
C567 C 0.4794 0.42167 0.72973 0.0
H568 H 0.38925 0.35902 0.66432 0.0
H569 H 0.39799 0.45276 0.60944 0.0
H570 H 0.43026 0.36605 0.74874 0.0
H571 H 0.39204 0.37783 0.75551 0.0
H572 H 0.3956 0.34643 0.72943 0.0
H573 H 0.41198 0.49454 0.64162 0.0
H574 H 0.40246 0.49042 0.68796 0.0
H575 H 0.44189 0.48253 0.68142 0.0
H576 H 0.40027 0.47166 0.80594 0.0
H577 H 0.4942 0.44888 0.79107 0.0
H578 H 0.35924 0.42486 0.74184 0.0
H579 H 0.36144 0.46473 0.72115 0.0
H580 H 0.35485 0.45562 0.76861 0.0
H581 H 0.47254 0.39761 0.72529 0.0
H582 H 0.5042 0.42111 0.74442 0.0
H583 H 0.47841 0.43601 0.70195 0.0
C584 C 0.61029 0.63426 0.41258 0.0
C585 C 0.62864 0.61479 0.44199 0.0
C586 C 0.60006 0.62406 0.37827 0.0
C587 C 0.60846 0.59369 0.37317 0.0
C588 C 0.62783 0.57434 0.40236 0.0
C589 C 0.63763 0.58509 0.43634 0.0
C590 C 0.57943 0.64539 0.34789 0.0
C591 C 0.63756 0.54192 0.39804 0.0
C592 C 0.55637 0.55048 0.30446 0.0
C593 C 0.57375 0.55265 0.27502 0.0
C594 C 0.56691 0.56456 0.33596 0.0
C595 C 0.59561 0.58129 0.33825 0.0
C596 C 0.61274 0.58451 0.30809 0.0
C597 C 0.60159 0.57019 0.27682 0.0
C598 C 0.54776 0.56074 0.36731 0.0
C599 C 0.64341 0.60215 0.30941 0.0
H600 H 0.60305 0.65714 0.41679 0.0
H601 H 0.65225 0.57011 0.45868 0.0
H602 H 0.58941 0.64765 0.32168 0.0
H603 H 0.55555 0.63521 0.34247 0.0
H604 H 0.57691 0.66904 0.35522 0.0
H605 H 0.65402 0.53044 0.42264 0.0
H606 H 0.61628 0.5272 0.39385 0.0
H607 H 0.6492 0.54285 0.37313 0.0
H608 H 0.53456 0.53742 0.30301 0.0
H609 H 0.61528 0.5718 0.25434 0.0
H610 H 0.54243 0.58389 0.37431 0.0
H611 H 0.56169 0.54717 0.39252 0.0
H612 H 0.52512 0.54854 0.36037 0.0
H613 H 0.64016 0.62576 0.31643 0.0
H614 H 0.6526 0.6046 0.28264 0.0
H615 H 0.66151 0.58974 0.33156 0.0
C616 C 0.9273 0.12212 0.89378 0.0
C617 C 0.89764 0.13621 0.89192 0.0
C618 C 0.93675 0.11301 0.86229 0.0
C619 C 0.91615 0.11824 0.82782 0.0
C620 C 0.88674 0.13371 0.8253 0.0
C621 C 0.87781 0.14249 0.85741 0.0
C622 C 0.96836 0.0967 0.86627 0.0
C623 C 0.86421 0.13987 0.78904 0.0
C624 C 0.95536 0.10743 0.74495 0.0
C625 C 0.94908 0.07594 0.74242 0.0
C626 C 0.94332 0.12222 0.7713 0.0
C627 C 0.92457 0.10508 0.79555 0.0
C628 C 0.91659 0.07388 0.79144 0.0
C629 C 0.92889 0.05975 0.76495 0.0
C630 C 0.95214 0.1556 0.77456 0.0
C631 C 0.89651 0.05476 0.81648 0.0
H632 H 0.94308 0.11782 0.92014 0.0
H633 H 0.85482 0.15327 0.85572 0.0
H634 H 0.96464 0.07237 0.86069 0.0
H635 H 0.98242 0.10862 0.84561 0.0
H636 H 0.98236 0.09599 0.89446 0.0
H637 H 0.84403 0.15517 0.79068 0.0
H638 H 0.87678 0.15095 0.76643 0.0
H639 H 0.8547 0.11744 0.78133 0.0
H640 H 0.97098 0.12005 0.72764 0.0
H641 H 0.92346 0.03557 0.7626 0.0
H642 H 0.96927 0.15621 0.80039 0.0
H643 H 0.93101 0.16942 0.77648 0.0
H644 H 0.96307 0.16695 0.75063 0.0
H645 H 0.90962 0.05049 0.84529 0.0
H646 H 0.89013 0.03186 0.80754 0.0
H647 H 0.87444 0.06766 0.81705 0.0
C648 C 0.39979 0.37389 0.2355 0.0
C649 C 0.39987 0.38682 0.26819 0.0
C650 C 0.41525 0.38852 0.20672 0.0
C651 C 0.43133 0.41689 0.21046 0.0
C652 C 0.4321 0.42979 0.24362 0.0
C653 C 0.41635 0.41468 0.27198 0.0
C654 C 0.4136 0.37397 0.17185 0.0
C655 C 0.44914 0.45988 0.24887 0.0
C656 C 0.49217 0.44247 0.14702 0.0
C657 C 0.47495 0.46467 0.11977 0.0
C658 C 0.47843 0.42698 0.17687 0.0
C659 C 0.44654 0.43351 0.17929 0.0
C660 C 0.42902 0.4558 0.15166 0.0
C661 C 0.44351 0.47126 0.1225 0.0
C662 C 0.49796 0.4034 0.20564 0.0
C663 C 0.39486 0.4632 0.15271 0.0
H664 H 0.38765 0.35214 0.23239 0.0
H665 H 0.41638 0.42513 0.29684 0.0
H666 H 0.39767 0.3883 0.14902 0.0
H667 H 0.43724 0.37346 0.16326 0.0
H668 H 0.40435 0.34982 0.17532 0.0
H669 H 0.44866 0.46625 0.2768 0.0
H670 H 0.47416 0.45788 0.24499 0.0
H671 H 0.43804 0.47916 0.22757 0.0
H672 H 0.51638 0.43701 0.14488 0.0
H673 H 0.43018 0.48868 0.10184 0.0
H674 H 0.48706 0.38004 0.20568 0.0
H675 H 0.49838 0.40972 0.23373 0.0
H676 H 0.52272 0.40176 0.20054 0.0
H677 H 0.38043 0.44197 0.15024 0.0
H678 H 0.38492 0.48199 0.12996 0.0
H679 H 0.39254 0.47051 0.17968 0.0
C680 C 0.12615 0.89822 0.79763 0.0
C681 C 0.12422 0.91745 0.82456 0.0
C682 C 0.11483 0.90856 0.75984 0.0
C683 C 0.10117 0.93878 0.74874 0.0
C684 C 0.10012 0.95864 0.77562 0.0
C685 C 0.11169 0.94777 0.81309 0.0
C686 C 0.11696 0.88699 0.73185 0.0
C687 C 0.08577 0.99104 0.76503 0.0
C688 C 0.08764 0.97881 0.64822 0.0
C689 C 0.0554 0.97346 0.63752 0.0
C690 C 0.1033 0.9665 0.68384 0.0
C691 C 0.08606 0.94907 0.70955 0.0
C692 C 0.05362 0.94306 0.69849 0.0
C693 C 0.03878 0.95509 0.66251 0.0
C694 C 0.13803 0.97293 0.69428 0.0
C695 C 0.03434 0.92459 0.72498 0.0
H696 H 0.1357 0.87473 0.80619 0.0
H697 H 0.11073 0.96305 0.83355 0.0
H698 H 0.09292 0.88209 0.7178 0.0
H699 H 0.13022 0.89841 0.71007 0.0
H700 H 0.12889 0.86447 0.74479 0.0
H701 H 0.08912 1.00445 0.78867 0.0
H702 H 0.09628 1.00429 0.74187 0.0
H703 H 0.06006 0.98932 0.75521 0.0
H704 H 0.10045 0.99324 0.62904 0.0
H705 H 0.01389 0.95063 0.65412 0.0
H706 H 0.15118 0.95091 0.70637 0.0
H707 H 0.14127 0.9885 0.71577 0.0
H708 H 0.14864 0.98419 0.67006 0.0
H709 H 0.04487 0.90094 0.73466 0.0
H710 H 1.00933 0.92217 0.71207 0.0
H711 H 0.03471 0.93617 0.74985 0.0
loop_
_geom_bond_atom_site_label_1
_geom_bond_atom_site_label_2
_geom_bond_distance
_geom_bond_site_symmetry_2
_ccdc_geom_bond_type
C0 C1 1.264 . S
C0 C5 1.479 . S
C0 C10 1.465 . S
C1 C0 1.264 . S
C1 C3 1.339 . S
C1 H28 0.931 . S
C2 C3 1.395 . S
C2 C4 1.320 . S
C3 C1 1.339 . S
C3 C2 1.395 . S
C3 H29 0.929 . S
C4 C2 1.320 . S
C4 C5 1.405 . S
C4 H30 0.930 . S
C5 C0 1.479 . S
C5 C4 1.405 . S
C5 H31 0.931 . S
U6 O7 2.454 . S
U6 O8 2.458 1_554 S
U6 C9 2.984 . S
U6 C10 2.847 . S
U6 C23 2.882 1_554 S
U6 O24 2.441 . S
U6 O25 2.420 . S
U6 O26 2.455 1_554 S
U6 O27 2.449 1_554 S
O7 U6 2.454 . S
O7 C9 1.353 . S
O8 U6 2.458 1_556 S
O8 C9 1.286 1_556 S
C9 U6 2.984 . S
C9 O7 1.353 . S
C9 O8 1.286 1_554 S
C9 C11 1.363 . S
C10 C0 1.465 . S
C10 U6 2.847 . S
C10 O24 1.249 . S
C10 O25 1.202 . S
C11 C9 1.363 . S
C11 C13 1.408 . S
C11 C16 1.342 . S
C12 C13 1.310 . S
C12 C15 1.461 . S
C12 H32 0.932 . S
C13 C11 1.408 . S
C13 C12 1.310 . S
C13 H33 0.930 . S
C14 C15 1.474 . S
C14 C16 1.285 . S
C14 H34 0.929 1_554 S
C15 C12 1.461 . S
C15 C14 1.474 . S
C16 C11 1.342 . S
C16 C14 1.285 . S
C16 H35 0.930 1_554 S
C17 C20 1.424 . S
C17 C22 1.245 . S
C17 C23 1.428 . S
C18 C21 1.260 . S
C18 C22 1.477 . S
C18 H36 0.932 . S
C19 C20 1.384 . S
C19 C21 1.479 . S
C19 H37 0.929 . S
C20 C17 1.424 . S
C20 C19 1.384 . S
C20 H38 0.928 . S
C21 C18 1.260 . S
C21 C19 1.479 . S
C22 C17 1.245 . S
C22 C18 1.477 . S
C22 H39 0.932 . S
C23 U6 2.882 1_556 S
C23 C17 1.428 . S
C23 O26 1.301 . S
C23 O27 1.282 . S
O24 U6 2.441 . S
O24 C10 1.249 . S
O25 U6 2.420 . S
O25 C10 1.202 . S
O26 U6 2.455 1_556 S
O26 C23 1.301 . S
O27 U6 2.449 1_556 S
O27 C23 1.282 . S
H28 C1 0.931 . S
H29 C3 0.929 . S
H30 C4 0.930 . S
H31 C5 0.931 . S
H32 C12 0.932 . S
H33 C13 0.930 . S
H34 C14 0.929 1_556 S
H35 C16 0.930 1_556 S
H36 C18 0.932 . S
H37 C19 0.929 . S
H38 C20 0.928 . S
H39 C22 0.932 . S
C40 C41 1.264 . S
C40 C45 1.479 . S
C40 C50 1.465 . S
C41 C40 1.264 . S
C41 C43 1.339 . S
C41 H68 0.931 . S
C42 C43 1.395 . S
C42 C44 1.320 . S
C43 C41 1.339 . S
C43 C42 1.395 . S
C43 H69 0.929 . S
C44 C42 1.320 . S
C44 C45 1.405 . S
C44 H70 0.930 . S
C45 C40 1.479 . S
C45 C44 1.405 . S
C45 H71 0.931 . S
U46 O47 2.454 . S
U46 O48 2.458 . S
U46 C49 2.984 . S
U46 C50 2.847 . S
U46 C63 2.882 . S
U46 O64 2.441 . S
U46 O65 2.420 . S
U46 O66 2.455 . S
U46 O67 2.449 . S
O47 U46 2.454 . S
O47 C49 1.353 . S
O48 U46 2.458 . S
O48 C49 1.286 . S
C49 U46 2.984 . S
C49 O47 1.353 . S
C49 O48 1.286 . S
C49 C51 1.363 . S
C50 C40 1.465 . S
C50 U46 2.847 . S
C50 O64 1.249 . S
C50 O65 1.202 . S
C51 C49 1.363 . S
C51 C53 1.408 . S
C51 C56 1.342 . S
C52 C53 1.310 . S
C52 C55 1.461 . S
C52 H72 0.932 . S
C53 C51 1.408 . S
C53 C52 1.310 . S
C53 H73 0.930 . S
C54 C55 1.474 . S
C54 C56 1.285 . S
C54 H74 0.929 . S
C55 C52 1.461 . S
C55 C54 1.474 . S
C56 C51 1.342 . S
C56 C54 1.285 . S
C56 H75 0.930 . S
C57 C60 1.424 . S
C57 C62 1.245 . S
C57 C63 1.428 . S
C58 C61 1.260 . S
C58 C62 1.477 . S
C58 H76 0.932 . S
C59 C60 1.384 . S
C59 C61 1.479 . S
C59 H77 0.929 . S
C60 C57 1.424 . S
C60 C59 1.384 . S
C60 H78 0.928 . S
C61 C58 1.260 . S
C61 C59 1.479 . S
C62 C57 1.245 . S
C62 C58 1.477 . S
C62 H79 0.932 . S
C63 U46 2.882 . S
C63 C57 1.428 . S
C63 O66 1.301 . S
C63 O67 1.282 . S
O64 U46 2.441 . S
O64 C50 1.249 . S
O65 U46 2.420 . S
O65 C50 1.202 . S
O66 U46 2.455 . S
O66 C63 1.301 . S
O67 U46 2.449 . S
O67 C63 1.282 . S
H68 C41 0.931 . S
H69 C43 0.929 . S
H70 C44 0.930 . S
H71 C45 0.931 . S
H72 C52 0.932 . S
H73 C53 0.930 . S
H74 C54 0.929 . S
H75 C56 0.930 . S
H76 C58 0.932 . S
H77 C59 0.929 . S
H78 C60 0.928 . S
H79 C62 0.932 . S
C80 C81 1.264 . S
C80 C85 1.479 . S
C80 C90 1.465 . S
C81 C80 1.264 . S
C81 C83 1.339 . S
C81 H108 0.931 . S
C82 C83 1.395 . S
C82 C84 1.320 . S
C83 C81 1.339 . S
C83 C82 1.395 . S
C83 H109 0.929 . S
C84 C82 1.320 . S
C84 C85 1.405 . S
C84 H110 0.930 . S
C85 C80 1.479 . S
C85 C84 1.405 . S
C85 H111 0.931 . S
U86 O87 2.454 . S
U86 O88 2.461 . S
U86 C89 2.984 . S
U86 C90 2.847 . S
U86 C103 2.882 1_554 S
U86 O104 2.441 . S
U86 O105 2.420 . S
U86 O106 2.455 1_554 S
U86 O107 2.449 . S
O87 U86 2.454 . S
O87 C89 1.353 . S
O88 U86 2.461 . S
O88 C89 1.294 . S
C89 U86 2.984 . S
C89 O87 1.353 . S
C89 O88 1.294 . S
C89 C91 1.363 . S
C90 C80 1.465 . S
C90 U86 2.847 . S
C90 O104 1.249 . S
C90 O105 1.202 . S
C91 C89 1.363 . S
C91 C93 1.408 . S
C91 C96 1.342 1_554 S
C92 C93 1.310 . S
C92 C95 1.461 . S
C92 H112 0.932 . S
C93 C91 1.408 . S
C93 C92 1.310 . S
C93 H113 0.930 . S
C94 C95 1.474 1_556 S
C94 C96 1.285 . S
C94 H114 0.929 . S
C95 C92 1.461 . S
C95 C94 1.474 1_554 S
C96 C91 1.342 1_556 S
C96 C94 1.285 . S
C96 H115 0.930 . S
C97 C100 1.424 . S
C97 C102 1.245 . S
C97 C103 1.428 . S
C98 C101 1.260 . S
C98 C102 1.477 . S
C98 H116 0.932 . S
C99 C100 1.384 . S
C99 C101 1.479 . S
C99 H117 0.929 . S
C100 C97 1.424 . S
C100 C99 1.384 . S
C100 H118 0.928 . S
C101 C98 1.260 . S
C101 C99 1.479 . S
C102 C97 1.245 . S
C102 C98 1.477 . S
C102 H119 0.932 . S
C103 U86 2.882 1_556 S
C103 C97 1.428 . S
C103 O106 1.301 . S
C103 O107 1.282 1_556 S
O104 U86 2.441 . S
O104 C90 1.249 . S
O105 U86 2.420 . S
O105 C90 1.202 . S
O106 U86 2.455 1_556 S
O106 C103 1.301 . S
O107 U86 2.449 . S
O107 C103 1.282 1_554 S
H108 C81 0.931 . S
H109 C83 0.929 . S
H110 C84 0.930 . S
H111 C85 0.931 . S
H112 C92 0.932 . S
H113 C93 0.930 . S
H114 C94 0.929 . S
H115 C96 0.930 . S
H116 C98 0.932 . S
H117 C99 0.929 . S
H118 C100 0.928 . S
H119 C102 0.932 . S
C120 C121 1.264 . S
C120 C125 1.479 . S
C120 C130 1.465 . S
C121 C120 1.264 . S
C121 C123 1.339 . S
C121 H148 0.931 . S
C122 C123 1.395 . S
C122 C124 1.320 . S
C123 C121 1.339 . S
C123 C122 1.395 . S
C123 H149 0.929 . S
C124 C122 1.320 . S
C124 C125 1.405 . S
C124 H150 0.930 . S
C125 C120 1.479 . S
C125 C124 1.405 . S
C125 H151 0.931 . S
U126 O127 2.454 . S
U126 O128 2.458 . S
U126 C129 2.984 . S
U126 C130 2.847 . S
U126 C143 2.882 . S
U126 O144 2.441 . S
U126 O145 2.420 . S
U126 O146 2.455 . S
U126 O147 2.449 . S
O127 U126 2.454 . S
O127 C129 1.353 . S
O128 U126 2.458 . S
O128 C129 1.286 . S
C129 U126 2.984 . S
C129 O127 1.353 . S
C129 O128 1.286 . S
C129 C131 1.363 . S
C130 C120 1.465 . S
C130 U126 2.847 . S
C130 O144 1.249 . S
C130 O145 1.202 . S
C131 C129 1.363 . S
C131 C133 1.408 . S
C131 C136 1.342 . S
C132 C133 1.310 . S
C132 C135 1.461 . S
C132 H152 0.932 . S
C133 C131 1.408 . S
C133 C132 1.310 . S
C133 H153 0.930 . S
C134 C135 1.474 . S
C134 C136 1.285 . S
C134 H154 0.929 . S
C135 C132 1.461 . S
C135 C134 1.474 . S
C136 C131 1.342 . S
C136 C134 1.285 . S
C136 H155 0.930 . S
C137 C140 1.424 . S
C137 C142 1.245 . S
C137 C143 1.428 . S
C138 C141 1.260 . S
C138 C142 1.477 . S
C138 H156 0.932 . S
C139 C140 1.384 . S
C139 C141 1.479 . S
C139 H157 0.929 . S
C140 C137 1.424 . S
C140 C139 1.384 . S
C140 H158 0.928 . S
C141 C138 1.260 . S
C141 C139 1.479 . S
C142 C137 1.245 . S
C142 C138 1.477 . S
C142 H159 0.932 . S
C143 U126 2.882 . S
C143 C137 1.428 . S
C143 O146 1.301 . S
C143 O147 1.282 . S
O144 U126 2.441 . S
O144 C130 1.249 . S
O145 U126 2.420 . S
O145 C130 1.202 . S
O146 U126 2.455 . S
O146 C143 1.301 . S
O147 U126 2.449 . S
O147 C143 1.282 . S
H148 C121 0.931 . S
H149 C123 0.929 . S
H150 C124 0.930 . S
H151 C125 0.931 . S
H152 C132 0.932 . S
H153 C133 0.930 . S
H154 C134 0.929 . S
H155 C136 0.930 . S
H156 C138 0.932 . S
H157 C139 0.929 . S
H158 C140 0.928 . S
H159 C142 0.932 . S
C160 C162 1.422 . S
C160 C164 1.415 . S
C160 N166 1.369 . S
C161 C162 1.421 . S
C161 C163 1.417 . S
C161 C173 1.422 . S
C162 C160 1.422 . S
C162 C161 1.421 . S
C162 N172 1.359 . S
C163 C161 1.417 . S
C163 C165 1.329 . S
C163 H182 0.930 . S
C164 C160 1.415 . S
C164 C165 1.437 . S
C164 C168 1.413 . S
C165 C163 1.329 . S
C165 C164 1.437 . S
C165 H187 0.929 . S
N166 C160 1.369 . S
N166 C167 1.338 1_655 S
N166 Gd171 2.622 . S
C167 N166 1.338 1_455 S
C167 C169 1.379 1_455 S
C167 H179 0.929 . S
C168 C164 1.413 . S
C168 C169 1.375 . S
C168 H184 0.931 . S
C169 C167 1.379 1_655 S
C169 C168 1.375 . S
C169 H185 0.902 1_655 S
Gd170 N190 2.622 . S
Gd170 N197 2.570 . S
Gd170 O204 2.360 1_455 S
Gd170 O205 2.468 . S
Gd170 O206 2.427 . S
Gd170 O208 2.388 1_455 S
Gd170 O209 2.386 . S
Gd170 O213 2.307 1_565 S
Gd170 C223 2.805 . S
Gd171 N166 2.622 . S
Gd171 N172 2.570 . S
Gd171 O203 2.386 . S
Gd171 O207 2.307 1_545 S
Gd171 O210 2.353 1_655 S
Gd171 O211 2.468 . S
Gd171 O212 2.427 . S
Gd171 O214 2.388 1_655 S
Gd171 C235 2.805 . S
N172 C162 1.359 . S
N172 Gd171 2.570 . S
N172 C174 1.343 . S
C173 C161 1.422 . S
C173 C175 1.321 . S
C173 H181 0.931 . S
C174 N172 1.343 . S
C174 C175 1.390 . S
C174 H176 0.931 . S
C175 C173 1.321 . S
C175 C174 1.390 . S
C175 H177 0.930 . S
H176 C174 0.931 . S
H177 C175 0.930 . S
H178 C201 0.931 . S
H179 C167 0.929 . S
H180 C202 0.930 . S
H181 C173 0.931 . S
H182 C163 0.930 . S
H183 C192 0.929 1_655 S
H184 C168 0.931 . S
H185 C169 0.902 1_455 S
H186 C224 0.930 . S
H187 C165 0.929 . S
H188 C193 0.931 . S
H189 C194 0.930 1_655 S
N190 Gd170 2.622 . S
N190 C191 1.369 . S
N190 C192 1.338 . S
C191 N190 1.369 . S
C191 C195 1.415 . S
C191 C198 1.422 . S
C192 H183 0.929 1_455 S
C192 N190 1.338 . S
C192 C194 1.378 . S
C193 H188 0.931 . S
C193 C194 1.348 . S
C193 C195 1.413 . S
C194 H189 0.930 1_455 S
C194 C192 1.378 . S
C194 C193 1.348 . S
C195 C191 1.415 . S
C195 C193 1.413 . S
C195 C225 1.437 . S
H196 C225 0.929 . S
N197 Gd170 2.570 . S
N197 C198 1.359 . S
N197 C201 1.343 . S
C198 C191 1.422 . S
C198 N197 1.359 . S
C198 C200 1.421 . S
C199 C200 1.422 . S
C199 C202 1.321 . S
C199 H226 0.931 . S
C200 C198 1.421 . S
C200 C199 1.422 . S
C200 C224 1.417 . S
C201 H178 0.931 . S
C201 N197 1.343 . S
C201 C202 1.390 . S
C202 H180 0.930 . S
C202 C199 1.321 . S
C202 C201 1.390 . S
O203 Gd171 2.386 . S
O203 C215 1.265 . S
O204 Gd170 2.360 1_655 S
O204 C215 1.231 1_565 S
O205 Gd170 2.468 . S
O205 C223 1.263 . S
O206 Gd170 2.427 . S
O206 C223 1.252 . S
O207 Gd171 2.307 1_565 S
O207 C216 1.261 . S
O208 Gd170 2.388 1_655 S
O208 C216 1.252 . S
O209 Gd170 2.386 . S
O209 C227 1.265 . S
O210 Gd171 2.353 1_455 S
O210 C227 1.242 1_545 S
O211 Gd171 2.468 . S
O211 C235 1.263 . S
O212 Gd171 2.427 . S
O212 C235 1.252 . S
O213 Gd170 2.307 1_545 S
O213 C228 1.261 . S
O214 Gd171 2.388 1_455 S
O214 C228 1.252 . S
C215 O203 1.265 . S
C215 O204 1.231 1_545 S
C216 O207 1.261 . S
C216 O208 1.252 . S
C217 C220 1.394 . S
C217 C222 1.370 . S
C217 C223 1.500 . S
C218 C221 1.383 . S
C218 C222 1.395 . S
C219 C220 1.396 . S
C219 C221 1.365 . S
C219 H236 0.929 . S
C220 C217 1.394 . S
C220 C219 1.396 . S
C220 H237 0.930 . S
C221 C218 1.383 . S
C221 C219 1.365 . S
C221 H238 0.931 . S
C222 C217 1.370 . S
C222 C218 1.395 . S
C222 H239 0.930 . S
C223 Gd170 2.805 . S
C223 O205 1.263 . S
C223 O206 1.252 . S
C223 C217 1.500 . S
C224 H186 0.930 . S
C224 C200 1.417 . S
C224 C225 1.329 . S
C225 C195 1.437 . S
C225 H196 0.929 . S
C225 C224 1.329 . S
H226 C199 0.931 . S
C227 O209 1.265 . S
C227 O210 1.242 1_565 S
C228 O213 1.261 . S
C228 O214 1.252 . S
C229 C232 1.394 . S
C229 C234 1.370 . S
C229 C235 1.500 . S
C230 C233 1.383 . S
C230 C234 1.395 . S
C231 C232 1.396 . S
C231 C233 1.365 . S
C231 H240 0.929 . S
C232 C229 1.394 . S
C232 C231 1.396 . S
C232 H241 0.930 . S
C233 C230 1.383 . S
C233 C231 1.365 . S
C233 H242 0.931 . S
C234 C229 1.370 . S
C234 C230 1.395 . S
C234 H243 0.930 . S
C235 Gd171 2.805 . S
C235 O211 1.263 . S
C235 O212 1.252 . S
C235 C229 1.500 . S
H236 C219 0.929 . S
H237 C220 0.930 . S
H238 C221 0.931 . S
H239 C222 0.930 . S
H240 C231 0.929 . S
H241 C232 0.930 . S
H242 C233 0.931 . S
H243 C234 0.930 . S
C244 C246 1.422 . S
C244 C248 1.415 . S
C244 N250 1.369 . S
C245 C246 1.421 . S
C245 C247 1.417 . S
C245 C257 1.422 . S
C246 C244 1.422 . S
C246 C245 1.421 . S
C246 N256 1.359 . S
C247 C245 1.417 . S
C247 C249 1.329 . S
C247 H266 0.930 . S
C248 C244 1.415 . S
C248 C249 1.437 . S
C248 C252 1.413 . S
C249 C247 1.329 . S
C249 C248 1.437 . S
C249 H271 0.929 . S
N250 C244 1.369 . S
N250 C251 1.338 . S
N250 Gd255 2.622 . S
C251 N250 1.338 . S
C251 C253 1.378 . S
C251 H263 0.929 . S
C252 C248 1.413 . S
C252 C253 1.348 . S
C252 H268 0.931 . S
C253 C251 1.378 . S
C253 C252 1.348 . S
C253 H269 0.930 . S
Gd254 N274 2.622 . S
Gd254 N281 2.570 1_556 S
Gd254 O288 2.353 . S
Gd254 O289 2.468 . S
Gd254 O290 2.427 . S
Gd254 O292 2.388 . S
Gd254 O293 2.386 1_556 S
Gd254 O297 2.307 1_556 S
Gd254 C307 2.805 . S
Gd255 N250 2.622 . S
Gd255 N256 2.570 . S
Gd255 O287 2.386 1_554 S
Gd255 O291 2.307 . S
Gd255 O294 2.353 . S
Gd255 O295 2.468 . S
Gd255 O296 2.427 . S
Gd255 O298 2.388 . S
Gd255 C319 2.805 . S
N256 C246 1.359 . S
N256 Gd255 2.570 . S
N256 C258 1.343 . S
C257 C245 1.422 . S
C257 C259 1.321 . S
C257 H265 0.931 . S
C258 N256 1.343 . S
C258 C259 1.390 . S
C258 H260 0.931 . S
C259 C257 1.321 . S
C259 C258 1.390 . S
C259 H261 0.930 . S
H260 C258 0.931 . S
H261 C259 0.930 . S
H262 C285 0.931 . S
H263 C251 0.929 . S
H264 C286 0.930 . S
H265 C257 0.931 . S
H266 C247 0.930 . S
H267 C276 0.929 . S
H268 C252 0.931 . S
H269 C253 0.930 . S
H270 C308 0.930 . S
H271 C249 0.929 . S
H272 C277 0.931 . S
H273 C278 0.930 . S
N274 Gd254 2.622 . S
N274 C275 1.369 1_556 S
N274 C276 1.338 . S
C275 N274 1.369 1_554 S
C275 C279 1.415 . S
C275 C282 1.422 . S
C276 H267 0.929 . S
C276 N274 1.338 . S
C276 C278 1.378 . S
C277 H272 0.931 . S
C277 C278 1.348 1_554 S
C277 C279 1.413 . S
C278 H273 0.930 . S
C278 C276 1.378 . S
C278 C277 1.348 1_556 S
C279 C275 1.415 . S
C279 C277 1.413 . S
C279 C309 1.437 . S
H280 C309 0.929 . S
N281 Gd254 2.570 1_554 S
N281 C282 1.359 . S
N281 C285 1.343 . S
C282 C275 1.422 . S
C282 N281 1.359 . S
C282 C284 1.421 . S
C283 C284 1.422 . S
C283 C286 1.321 . S
C283 H310 0.931 . S
C284 C282 1.421 . S
C284 C283 1.422 . S
C284 C308 1.417 . S
C285 H262 0.931 . S
C285 N281 1.343 . S
C285 C286 1.390 . S
C286 H264 0.930 . S
C286 C283 1.321 . S
C286 C285 1.390 . S
O287 Gd255 2.386 1_556 S
O287 C299 1.265 . S
O288 Gd254 2.353 . S
O288 C299 1.242 . S
O289 Gd254 2.468 . S
O289 C307 1.263 . S
O290 Gd254 2.427 . S
O290 C307 1.252 . S
O291 Gd255 2.307 . S
O291 C300 1.261 . S
O292 Gd254 2.388 . S
O292 C300 1.252 1_556 S
O293 Gd254 2.386 1_554 S
O293 C311 1.265 . S
O294 Gd255 2.353 . S
O294 C311 1.242 . S
O295 Gd255 2.468 . S
O295 C319 1.263 . S
O296 Gd255 2.427 . S
O296 C319 1.252 . S
O297 Gd254 2.307 1_554 S
O297 C312 1.261 . S
O298 Gd255 2.388 . S
O298 C312 1.252 . S
C299 O287 1.265 . S
C299 O288 1.242 . S
C300 O291 1.261 . S
C300 O292 1.252 1_554 S
C301 C304 1.394 . S
C301 C306 1.370 . S
C301 C307 1.500 . S
C302 C305 1.383 . S
C302 C306 1.395 . S
C303 C304 1.396 . S
C303 C305 1.365 . S
C303 H320 0.929 . S
C304 C301 1.394 . S
C304 C303 1.396 . S
C304 H321 0.930 . S
C305 C302 1.383 . S
C305 C303 1.365 . S
C305 H322 0.931 . S
C306 C301 1.370 . S
C306 C302 1.395 . S
C306 H323 0.930 . S
C307 Gd254 2.805 . S
C307 O289 1.263 . S
C307 O290 1.252 . S
C307 C301 1.500 . S
C308 H270 0.930 . S
C308 C284 1.417 . S
C308 C309 1.329 . S
C309 C279 1.437 . S
C309 H280 0.929 . S
C309 C308 1.329 . S
H310 C283 0.931 . S
C311 O293 1.265 . S
C311 O294 1.242 . S
C312 O297 1.261 . S
C312 O298 1.252 . S
C313 C316 1.394 . S
C313 C318 1.370 . S
C313 C319 1.500 . S
C314 C317 1.383 . S
C314 C318 1.395 . S
C315 C316 1.396 . S
C315 C317 1.365 . S
C315 H324 0.929 . S
C316 C313 1.394 . S
C316 C315 1.396 . S
C316 H325 0.930 . S
C317 C314 1.383 . S
C317 C315 1.365 . S
C317 H326 0.931 . S
C318 C313 1.370 . S
C318 C314 1.395 . S
C318 H327 0.930 . S
C319 Gd255 2.805 . S
C319 O295 1.263 . S
C319 O296 1.252 . S
C319 C313 1.500 . S
H320 C303 0.929 . S
H321 C304 0.930 . S
H322 C305 0.931 . S
H323 C306 0.930 . S
H324 C315 0.929 . S
H325 C316 0.930 . S
H326 C317 0.931 . S
H327 C318 0.930 . S
C328 C329 1.391 . S
C328 C330 1.394 . S
C328 H344 0.931 . S
C329 C328 1.391 . S
C329 C333 1.376 . S
C330 C328 1.394 . S
C330 C331 1.369 . S
C330 C334 1.531 . S
C331 C330 1.369 . S
C331 C332 1.410 . S
C331 C339 1.503 . S
C332 C331 1.410 . S
C332 C333 1.392 . S
C332 C335 1.511 . S
C333 C329 1.376 . S
C333 C332 1.392 . S
C333 H345 0.929 . S
C334 C330 1.531 . S
C334 H346 0.960 . S
C334 H347 0.962 . S
C334 H348 0.960 . S
C335 C332 1.511 . S
C335 H349 0.961 . S
C335 H350 0.961 . S
C335 H351 0.961 . S
C336 C337 1.370 . S
C336 C338 1.363 . S
C336 H352 0.931 . S
C337 C336 1.370 . S
C337 C341 1.408 . S
C338 C336 1.363 . S
C338 C339 1.370 . S
C338 C342 1.524 . S
C339 C331 1.503 . S
C339 C338 1.370 . S
C339 C340 1.403 . S
C340 C339 1.403 . S
C340 C341 1.404 . S
C340 C343 1.539 . S
C341 C337 1.408 . S
C341 C340 1.404 . S
C341 H353 0.930 . S
C342 C338 1.524 . S
C342 H354 0.956 . S
C342 H355 0.961 . S
C342 H356 0.961 . S
C343 C340 1.539 . S
C343 H357 0.958 . S
C343 H358 0.961 . S
C343 H359 0.960 . S
H344 C328 0.931 . S
H345 C333 0.929 . S
H346 C334 0.960 . S
H347 C334 0.962 . S
H348 C334 0.960 . S
H349 C335 0.961 . S
H350 C335 0.961 . S
H351 C335 0.961 . S
H352 C336 0.931 . S
H353 C341 0.930 . S
H354 C342 0.956 . S
H355 C342 0.961 . S
H356 C342 0.961 . S
H357 C343 0.958 . S
H358 C343 0.961 . S
H359 C343 0.960 . S
C360 C361 1.391 . S
C360 C362 1.394 . S
C360 H376 0.931 1_554 S
C361 C360 1.391 . S
C361 C365 1.376 . S
C362 C360 1.394 . S
C362 C363 1.369 . S
C362 C366 1.531 1_554 S
C363 C362 1.369 . S
C363 C364 1.410 . S
C363 C371 1.503 . S
C364 C363 1.410 . S
C364 C365 1.392 . S
C364 C367 1.511 . S
C365 C361 1.376 . S
C365 C364 1.392 . S
C365 H377 0.929 . S
C366 C362 1.531 1_556 S
C366 H378 0.960 . S
C366 H379 0.962 . S
C366 H380 0.960 . S
C367 C364 1.511 . S
C367 H381 0.961 . S
C367 H382 0.961 . S
C367 H383 0.961 . S
C368 C369 1.370 . S
C368 C370 1.363 . S
C368 H384 0.931 . S
C369 C368 1.370 . S
C369 C373 1.408 . S
C370 C368 1.363 . S
C370 C371 1.370 . S
C370 C374 1.524 . S
C371 C363 1.503 . S
C371 C370 1.370 . S
C371 C372 1.403 . S
C372 C371 1.403 . S
C372 C373 1.404 . S
C372 C375 1.539 . S
C373 C369 1.408 . S
C373 C372 1.404 . S
C373 H385 0.930 . S
C374 C370 1.524 . S
C374 H386 0.956 . S
C374 H387 0.961 . S
C374 H388 0.961 . S
C375 C372 1.539 . S
C375 H389 0.958 1_554 S
C375 H390 0.961 . S
C375 H391 0.960 . S
H376 C360 0.931 1_556 S
H377 C365 0.929 . S
H378 C366 0.960 . S
H379 C366 0.962 . S
H380 C366 0.960 . S
H381 C367 0.961 . S
H382 C367 0.961 . S
H383 C367 0.961 . S
H384 C368 0.931 . S
H385 C373 0.930 . S
H386 C374 0.956 . S
H387 C374 0.961 . S
H388 C374 0.961 . S
H389 C375 0.958 1_556 S
H390 C375 0.961 . S
H391 C375 0.960 . S
C392 C393 1.391 . S
C392 C394 1.394 . S
C392 H408 0.931 . S
C393 C392 1.391 . S
C393 C397 1.376 . S
C394 C392 1.394 . S
C394 C395 1.369 . S
C394 C398 1.531 . S
C395 C394 1.369 . S
C395 C396 1.410 . S
C395 C403 1.503 . S
C396 C395 1.410 . S
C396 C397 1.392 . S
C396 C399 1.511 . S
C397 C393 1.376 . S
C397 C396 1.392 . S
C397 H409 0.929 . S
C398 C394 1.531 . S
C398 H410 0.960 . S
C398 H411 0.962 . S
C398 H412 0.960 . S
C399 C396 1.511 . S
C399 H413 0.961 . S
C399 H414 0.961 . S
C399 H415 0.961 . S
C400 C401 1.370 . S
C400 C402 1.363 . S
C400 H416 0.931 . S
C401 C400 1.370 . S
C401 C405 1.408 . S
C402 C400 1.363 . S
C402 C403 1.370 . S
C402 C406 1.524 . S
C403 C395 1.503 . S
C403 C402 1.370 . S
C403 C404 1.403 . S
C404 C403 1.403 . S
C404 C405 1.404 . S
C404 C407 1.539 . S
C405 C401 1.408 . S
C405 C404 1.404 . S
C405 H417 0.930 . S
C406 C402 1.524 . S
C406 H418 0.956 . S
C406 H419 0.961 . S
C406 H420 0.961 . S
C407 C404 1.539 . S
C407 H421 0.958 . S
C407 H422 0.961 . S
C407 H423 0.960 . S
H408 C392 0.931 . S
H409 C397 0.929 . S
H410 C398 0.960 . S
H411 C398 0.962 . S
H412 C398 0.960 . S
H413 C399 0.961 . S
H414 C399 0.961 . S
H415 C399 0.961 . S
H416 C400 0.931 . S
H417 C405 0.930 . S
H418 C406 0.956 . S
H419 C406 0.961 . S
H420 C406 0.961 . S
H421 C407 0.958 . S
H422 C407 0.961 . S
H423 C407 0.960 . S
C424 C425 1.391 1_556 S
C424 C426 1.394 . S
C424 H440 0.931 . S
C425 C424 1.391 1_554 S
C425 C429 1.376 . S
C426 C424 1.394 . S
C426 C427 1.369 1_556 S
C426 C430 1.531 . S
C427 C426 1.369 1_554 S
C427 C428 1.410 . S
C427 C435 1.503 . S
C428 C427 1.410 . S
C428 C429 1.392 . S
C428 C431 1.511 . S
C429 C425 1.376 . S
C429 C428 1.392 . S
C429 H441 0.929 . S
C430 C426 1.531 . S
C430 H442 0.960 . S
C430 H443 0.962 1_556 S
C430 H444 0.960 . S
C431 C428 1.511 . S
C431 H445 0.961 . S
C431 H446 0.961 . S
C431 H447 0.961 1_554 S
C432 C433 1.370 . S
C432 C434 1.363 . S
C432 H448 0.931 . S
C433 C432 1.370 . S
C433 C437 1.408 1_554 S
C434 C432 1.363 . S
C434 C435 1.370 . S
C434 C438 1.524 . S
C435 C427 1.503 . S
C435 C434 1.370 . S
C435 C436 1.403 1_554 S
C436 C435 1.403 1_556 S
C436 C437 1.404 . S
C436 C439 1.539 . S
C437 C433 1.408 1_556 S
C437 C436 1.404 . S
C437 H449 0.930 . S
C438 C434 1.524 . S
C438 H450 0.956 . S
C438 H451 0.961 . S
C438 H452 0.961 . S
C439 C436 1.539 . S
C439 H453 0.958 . S
C439 H454 0.961 . S
C439 H455 0.960 . S
H440 C424 0.931 . S
H441 C429 0.929 . S
H442 C430 0.960 . S
H443 C430 0.962 1_554 S
H444 C430 0.960 . S
H445 C431 0.961 . S
H446 C431 0.961 . S
H447 C431 0.961 1_556 S
H448 C432 0.931 . S
H449 C437 0.930 . S
H450 C438 0.956 . S
H451 C438 0.961 . S
H452 C438 0.961 . S
H453 C439 0.958 . S
H454 C439 0.961 . S
H455 C439 0.960 . S
C456 C457 1.391 . S
C456 C458 1.394 . S
C456 H472 0.931 . S
C457 C456 1.391 . S
C457 C461 1.376 . S
C458 C456 1.394 . S
C458 C459 1.369 . S
C458 C462 1.531 . S
C459 C458 1.369 . S
C459 C460 1.410 . S
C459 C467 1.503 . S
C460 C459 1.410 . S
C460 C461 1.392 . S
C460 C463 1.511 . S
C461 C457 1.376 . S
C461 C460 1.392 . S
C461 H473 0.929 . S
C462 C458 1.531 . S
C462 H474 0.960 . S
C462 H475 0.962 . S
C462 H476 0.960 . S
C463 C460 1.511 . S
C463 H477 0.961 . S
C463 H478 0.961 . S
C463 H479 0.961 . S
C464 C465 1.370 . S
C464 C466 1.363 . S
C464 H480 0.931 . S
C465 C464 1.370 . S
C465 C469 1.408 . S
C466 C464 1.363 . S
C466 C467 1.370 . S
C466 C470 1.524 . S
C467 C459 1.503 . S
C467 C466 1.370 . S
C467 C468 1.403 . S
C468 C467 1.403 . S
C468 C469 1.404 . S
C468 C471 1.539 . S
C469 C465 1.408 . S
C469 C468 1.404 . S
C469 H481 0.930 . S
C470 C466 1.524 . S
C470 H482 0.956 . S
C470 H483 0.961 . S
C470 H484 0.961 1_565 S
C471 C468 1.539 . S
C471 H485 0.958 . S
C471 H486 0.961 . S
C471 H487 0.960 . S
H472 C456 0.931 . S
H473 C461 0.929 . S
H474 C462 0.960 . S
H475 C462 0.962 . S
H476 C462 0.960 . S
H477 C463 0.961 . S
H478 C463 0.961 . S
H479 C463 0.961 . S
H480 C464 0.931 . S
H481 C469 0.930 . S
H482 C470 0.956 . S
H483 C470 0.961 . S
H484 C470 0.961 1_545 S
H485 C471 0.958 . S
H486 C471 0.961 . S
H487 C471 0.960 . S
C488 C489 1.391 . S
C488 C490 1.394 . S
C488 H504 0.931 . S
C489 C488 1.391 . S
C489 C493 1.376 . S
C490 C488 1.394 . S
C490 C491 1.369 . S
C490 C494 1.531 . S
C491 C490 1.369 . S
C491 C492 1.410 . S
C491 C499 1.503 . S
C492 C491 1.410 . S
C492 C493 1.392 . S
C492 C495 1.511 . S
C493 C489 1.376 . S
C493 C492 1.392 . S
C493 H505 0.929 . S
C494 C490 1.531 . S
C494 H506 0.960 . S
C494 H507 0.962 . S
C494 H508 0.960 . S
C495 C492 1.511 . S
C495 H509 0.961 . S
C495 H510 0.961 . S
C495 H511 0.961 . S
C496 C497 1.370 . S
C496 C498 1.363 . S
C496 H512 0.931 . S
C497 C496 1.370 . S
C497 C501 1.408 . S
C498 C496 1.363 . S
C498 C499 1.370 . S
C498 C502 1.524 . S
C499 C491 1.503 . S
C499 C498 1.370 . S
C499 C500 1.403 . S
C500 C499 1.403 . S
C500 C501 1.404 . S
C500 C503 1.539 . S
C501 C497 1.408 . S
C501 C500 1.404 . S
C501 H513 0.930 . S
C502 C498 1.524 . S
C502 H514 0.956 . S
C502 H515 0.961 . S
C502 H516 0.961 . S
C503 C500 1.539 . S
C503 H517 0.958 . S
C503 H518 0.961 . S
C503 H519 0.960 . S
H504 C488 0.931 . S
H505 C493 0.929 . S
H506 C494 0.960 . S
H507 C494 0.962 . S
H508 C494 0.960 . S
H509 C495 0.961 . S
H510 C495 0.961 . S
H511 C495 0.961 . S
H512 C496 0.931 . S
H513 C501 0.930 . S
H514 C502 0.956 . S
H515 C502 0.961 . S
H516 C502 0.961 . S
H517 C503 0.958 . S
H518 C503 0.961 . S
H519 C503 0.960 . S
C520 C521 1.391 . S
C520 C522 1.394 . S
C520 H536 0.931 . S
C521 C520 1.391 . S
C521 C525 1.376 . S
C522 C520 1.394 . S
C522 C523 1.369 . S
C522 C526 1.510 1_545 S
C523 C522 1.369 . S
C523 C524 1.410 . S
C523 C531 1.503 . S
C524 C523 1.410 . S
C524 C525 1.392 . S
C524 C527 1.511 . S
C525 C521 1.376 . S
C525 C524 1.392 . S
C525 H537 0.929 . S
C526 C522 1.510 1_565 S
C526 H538 0.973 . S
C526 H539 0.942 1_565 S
C526 H540 0.990 . S
C527 C524 1.511 . S
C527 H541 0.961 . S
C527 H542 0.961 . S
C527 H543 0.961 . S
C528 C529 1.370 . S
C528 C530 1.363 . S
C528 H544 0.931 . S
C529 C528 1.370 . S
C529 C533 1.408 . S
C530 C528 1.363 . S
C530 C531 1.370 . S
C530 C534 1.524 . S
C531 C523 1.503 . S
C531 C530 1.370 . S
C531 C532 1.403 . S
C532 C531 1.403 . S
C532 C533 1.404 . S
C532 C535 1.539 1_545 S
C533 C529 1.408 . S
C533 C532 1.404 . S
C533 H545 0.930 1_545 S
C534 C530 1.524 . S
C534 H546 0.956 . S
C534 H547 0.961 . S
C534 H548 0.961 . S
C535 C532 1.539 1_565 S
C535 H549 0.958 . S
C535 H550 0.961 . S
C535 H551 0.960 1_565 S
H536 C520 0.931 . S
H537 C525 0.929 . S
H538 C526 0.973 . S
H539 C526 0.942 1_545 S
H540 C526 0.990 . S
H541 C527 0.961 . S
H542 C527 0.961 . S
H543 C527 0.961 . S
H544 C528 0.931 . S
H545 C533 0.930 1_565 S
H546 C534 0.956 . S
H547 C534 0.961 . S
H548 C534 0.961 . S
H549 C535 0.958 . S
H550 C535 0.961 . S
H551 C535 0.960 1_545 S
C552 C553 1.391 . S
C552 C554 1.394 . S
C552 H568 0.931 . S
C553 C552 1.391 . S
C553 C557 1.376 . S
C554 C552 1.394 . S
C554 C555 1.369 . S
C554 C558 1.531 . S
C555 C554 1.369 . S
C555 C556 1.410 . S
C555 C563 1.503 . S
C556 C555 1.410 . S
C556 C557 1.392 . S
C556 C559 1.511 . S
C557 C553 1.376 . S
C557 C556 1.392 . S
C557 H569 0.929 . S
C558 C554 1.531 . S
C558 H570 0.960 . S
C558 H571 0.962 . S
C558 H572 0.960 . S
C559 C556 1.511 . S
C559 H573 0.961 . S
C559 H574 0.961 . S
C559 H575 0.961 . S
C560 C561 1.370 . S
C560 C562 1.363 . S
C560 H576 0.931 . S
C561 C560 1.370 . S
C561 C565 1.408 . S
C562 C560 1.363 . S
C562 C563 1.370 . S
C562 C566 1.524 . S
C563 C555 1.503 . S
C563 C562 1.370 . S
C563 C564 1.403 . S
C564 C563 1.403 . S
C564 C565 1.404 . S
C564 C567 1.539 . S
C565 C561 1.408 . S
C565 C564 1.404 . S
C565 H577 0.930 . S
C566 C562 1.524 . S
C566 H578 0.956 . S
C566 H579 0.961 . S
C566 H580 0.961 . S
C567 C564 1.539 . S
C567 H581 0.958 . S
C567 H582 0.961 . S
C567 H583 0.960 . S
H568 C552 0.931 . S
H569 C557 0.929 . S
H570 C558 0.960 . S
H571 C558 0.962 . S
H572 C558 0.960 . S
H573 C559 0.961 . S
H574 C559 0.961 . S
H575 C559 0.961 . S
H576 C560 0.931 . S
H577 C565 0.930 . S
H578 C566 0.956 . S
H579 C566 0.961 . S
H580 C566 0.961 . S
H581 C567 0.958 . S
H582 C567 0.961 . S
H583 C567 0.960 . S
C584 C585 1.391 . S
C584 C586 1.394 . S
C584 H600 0.931 . S
C585 C584 1.391 . S
C585 C589 1.376 . S
C586 C584 1.394 . S
C586 C587 1.369 . S
C586 C590 1.531 . S
C587 C586 1.369 . S
C587 C588 1.410 . S
C587 C595 1.503 . S
C588 C587 1.410 . S
C588 C589 1.392 . S
C588 C591 1.511 . S
C589 C585 1.376 . S
C589 C588 1.392 . S
C589 H601 0.929 . S
C590 C586 1.531 . S
C590 H602 0.960 . S
C590 H603 0.962 . S
C590 H604 0.960 . S
C591 C588 1.511 . S
C591 H605 0.961 . S
C591 H606 0.961 . S
C591 H607 0.961 . S
C592 C593 1.370 . S
C592 C594 1.363 . S
C592 H608 0.931 . S
C593 C592 1.370 . S
C593 C597 1.408 . S
C594 C592 1.363 . S
C594 C595 1.370 . S
C594 C598 1.524 . S
C595 C587 1.503 . S
C595 C594 1.370 . S
C595 C596 1.403 . S
C596 C595 1.403 . S
C596 C597 1.404 . S
C596 C599 1.539 . S
C597 C593 1.408 . S
C597 C596 1.404 . S
C597 H609 0.930 . S
C598 C594 1.524 . S
C598 H610 0.956 . S
C598 H611 0.961 . S
C598 H612 0.961 . S
C599 C596 1.539 . S
C599 H613 0.958 . S
C599 H614 0.961 . S
C599 H615 0.960 . S
H600 C584 0.931 . S
H601 C589 0.929 . S
H602 C590 0.960 . S
H603 C590 0.962 . S
H604 C590 0.960 . S
H605 C591 0.961 . S
H606 C591 0.961 . S
H607 C591 0.961 . S
H608 C592 0.931 . S
H609 C597 0.930 . S
H610 C598 0.956 . S
H611 C598 0.961 . S
H612 C598 0.961 . S
H613 C599 0.958 . S
H614 C599 0.961 . S
H615 C599 0.960 . S
C616 C617 1.391 . S
C616 C618 1.394 . S
C616 H632 0.931 . S
C617 C616 1.391 . S
C617 C621 1.376 . S
C618 C616 1.394 . S
C618 C619 1.369 . S
C618 C622 1.531 . S
C619 C618 1.369 . S
C619 C620 1.410 . S
C619 C627 1.503 . S
C620 C619 1.410 . S
C620 C621 1.392 . S
C620 C623 1.511 . S
C621 C617 1.376 . S
C621 C620 1.392 . S
C621 H633 0.929 . S
C622 C618 1.531 . S
C622 H634 0.960 . S
C622 H635 0.962 . S
C622 H636 0.960 . S
C623 C620 1.511 . S
C623 H637 0.961 . S
C623 H638 0.961 . S
C623 H639 0.961 . S
C624 C625 1.370 . S
C624 C626 1.363 . S
C624 H640 0.931 . S
C625 C624 1.370 . S
C625 C629 1.408 . S
C626 C624 1.363 . S
C626 C627 1.370 . S
C626 C630 1.524 . S
C627 C619 1.503 . S
C627 C626 1.370 . S
C627 C628 1.403 . S
C628 C627 1.403 . S
C628 C629 1.404 . S
C628 C631 1.529 1_545 S
C629 C625 1.408 . S
C629 C628 1.404 . S
C629 H641 0.930 . S
C630 C626 1.524 . S
C630 H642 0.956 . S
C630 H643 0.961 . S
C630 H644 0.961 . S
C631 C628 1.529 1_565 S
C631 H645 0.966 . S
C631 H646 0.971 . S
C631 H647 0.953 1_565 S
H632 C616 0.931 . S
H633 C621 0.929 . S
H634 C622 0.960 . S
H635 C622 0.962 . S
H636 C622 0.960 . S
H637 C623 0.961 . S
H638 C623 0.961 . S
H639 C623 0.961 . S
H640 C624 0.931 . S
H641 C629 0.930 . S
H642 C630 0.956 . S
H643 C630 0.961 . S
H644 C630 0.961 . S
H645 C631 0.966 . S
H646 C631 0.971 . S
H647 C631 0.953 1_545 S
C648 C649 1.391 . S
C648 C650 1.394 . S
C648 H664 0.931 . S
C649 C648 1.391 . S
C649 C653 1.376 . S
C650 C648 1.394 . S
C650 C651 1.369 . S
C650 C654 1.531 . S
C651 C650 1.369 . S
C651 C652 1.410 . S
C651 C659 1.503 . S
C652 C651 1.410 . S
C652 C653 1.392 . S
C652 C655 1.511 . S
C653 C649 1.376 . S
C653 C652 1.392 . S
C653 H665 0.929 . S
C654 C650 1.531 . S
C654 H666 0.960 . S
C654 H667 0.962 . S
C654 H668 0.960 . S
C655 C652 1.511 . S
C655 H669 0.961 . S
C655 H670 0.961 . S
C655 H671 0.961 . S
C656 C657 1.370 . S
C656 C658 1.363 . S
C656 H672 0.931 . S
C657 C656 1.370 . S
C657 C661 1.408 . S
C658 C656 1.363 . S
C658 C659 1.370 . S
C658 C662 1.524 . S
C659 C651 1.503 . S
C659 C658 1.370 . S
C659 C660 1.403 . S
C660 C659 1.403 . S
C660 C661 1.404 . S
C660 C663 1.539 . S
C661 C657 1.408 . S
C661 C660 1.404 . S
C661 H673 0.930 . S
C662 C658 1.524 . S
C662 H674 0.956 . S
C662 H675 0.961 . S
C662 H676 0.961 . S
C663 C660 1.539 . S
C663 H677 0.958 . S
C663 H678 0.961 . S
C663 H679 0.960 . S
H664 C648 0.931 . S
H665 C653 0.929 . S
H666 C654 0.960 . S
H667 C654 0.962 . S
H668 C654 0.960 . S
H669 C655 0.961 . S
H670 C655 0.961 . S
H671 C655 0.961 . S
H672 C656 0.931 . S
H673 C661 0.930 . S
H674 C662 0.956 . S
H675 C662 0.961 . S
H676 C662 0.961 . S
H677 C663 0.958 . S
H678 C663 0.961 . S
H679 C663 0.960 . S
C680 C681 1.391 . S
C680 C682 1.394 . S
C680 H696 0.931 . S
C681 C680 1.391 . S
C681 C685 1.376 . S
C682 C680 1.394 . S
C682 C683 1.369 . S
C682 C686 1.531 . S
C683 C682 1.369 . S
C683 C684 1.410 . S
C683 C691 1.503 . S
C684 C683 1.410 . S
C684 C685 1.392 . S
C684 C687 1.511 1_565 S
C685 C681 1.376 . S
C685 C684 1.392 . S
C685 H697 0.929 . S
C686 C682 1.531 . S
C686 H698 0.960 . S
C686 H699 0.962 . S
C686 H700 0.960 . S
C687 C684 1.511 1_545 S
C687 H701 0.961 . S
C687 H702 0.961 . S
C687 H703 0.961 . S
C688 C689 1.370 . S
C688 C690 1.363 . S
C688 H704 0.931 . S
C689 C688 1.370 . S
C689 C693 1.408 . S
C690 C688 1.363 . S
C690 C691 1.370 . S
C690 C694 1.524 . S
C691 C683 1.503 . S
C691 C690 1.370 . S
C691 C692 1.403 . S
C692 C691 1.403 . S
C692 C693 1.404 . S
C692 C695 1.539 . S
C693 C689 1.408 . S
C693 C692 1.404 . S
C693 H705 0.930 . S
C694 C690 1.524 . S
C694 H706 0.956 . S
C694 H707 0.961 . S
C694 H708 0.961 . S
C695 C692 1.539 . S
C695 H709 0.958 . S
C695 H710 0.961 . S
C695 H711 0.960 . S
H696 C680 0.931 . S
H697 C685 0.929 . S
H698 C686 0.960 . S
H699 C686 0.962 . S
H700 C686 0.960 . S
H701 C687 0.961 . S
H702 C687 0.961 . S
H703 C687 0.961 . S
H704 C688 0.931 . S
H705 C693 0.930 . S
H706 C694 0.956 . S
H707 C694 0.961 . S
H708 C694 0.961 . S
H709 C695 0.958 . S
H710 C695 0.961 . S
H711 C695 0.960 . S
C337 C228 1.663 . S
C329 C135 1.664 . S
C361 C15 1.651 . S
C369 C300 1.644 . S
C393 C55 1.651 . S
C401 C216 1.660 . S
C425 C95 1.666 . S
C433 C312 1.669 . S
C465 C218 1.409 . S
C457 C2 1.552 . S
C497 C299 1.617 . S
C489 C42 1.613 . S
C521 C82 1.626 . S
C529 C215 1.626 . S
C553 C141 1.534 . S
C561 C302 1.426 . S
C593 C314 1.417 . S
C585 C61 1.553 . S
C625 C230 1.466 . S
C617 C101 1.579 . S
C657 C311 1.644 . S
C649 C122 1.588 . S
C681 C21 1.652 . S
C689 C227 1.656 . S
