# Generated by pormake.
# Topology gar, (4,6)-cn, num edge types: 1
# Building blocks:
#     Node 0, Type 0, BuildingBlock: NAHDIM_clean_sbu_0, # of connection points: 4
#     Node 1, Type 0, BuildingBlock: NAHDIM_clean_sbu_0, # of connection points: 4
#     Node 2, Type 0, BuildingBlock: NAHDIM_clean_sbu_0, # of connection points: 4
#     Node 3, Type 0, BuildingBlock: NAHDIM_clean_sbu_0, # of connection points: 4
#     Node 4, Type 0, BuildingBlock: NAHDIM_clean_sbu_0, # of connection points: 4
#     Node 5, Type 0, BuildingBlock: NAHDIM_clean_sbu_0, # of connection points: 4
#     Node 6, Type 0, BuildingBlock: NAHDIM_clean_sbu_0, # of connection points: 4
#     Node 7, Type 0, BuildingBlock: NAHDIM_clean_sbu_0, # of connection points: 4
#     Node 8, Type 0, BuildingBlock: NAHDIM_clean_sbu_0, # of connection points: 4
#     Node 9, Type 0, BuildingBlock: NAHDIM_clean_sbu_0, # of connection points: 4
#     Node 10, Type 0, BuildingBlock: NAHDIM_clean_sbu_0, # of connection points: 4
#     Node 11, Type 0, BuildingBlock: NAHDIM_clean_sbu_0, # of connection points: 4
#     Node 12, Type 0, BuildingBlock: NAHDIM_clean_sbu_0, # of connection points: 4
#     Node 13, Type 0, BuildingBlock: NAHDIM_clean_sbu_0, # of connection points: 4
#     Node 14, Type 0, BuildingBlock: NAHDIM_clean_sbu_0, # of connection points: 4
#     Node 15, Type 0, BuildingBlock: NAHDIM_clean_sbu_0, # of connection points: 4
#     Node 16, Type 0, BuildingBlock: NAHDIM_clean_sbu_0, # of connection points: 4
#     Node 17, Type 0, BuildingBlock: NAHDIM_clean_sbu_0, # of connection points: 4
#     Node 18, Type 0, BuildingBlock: NAHDIM_clean_sbu_0, # of connection points: 4
#     Node 19, Type 0, BuildingBlock: NAHDIM_clean_sbu_0, # of connection points: 4
#     Node 20, Type 0, BuildingBlock: NAHDIM_clean_sbu_0, # of connection points: 4
#     Node 21, Type 0, BuildingBlock: NAHDIM_clean_sbu_0, # of connection points: 4
#     Node 22, Type 0, BuildingBlock: NAHDIM_clean_sbu_0, # of connection points: 4
#     Node 23, Type 0, BuildingBlock: NAHDIM_clean_sbu_0, # of connection points: 4
#     Node 24, Type 1, BuildingBlock: KUMBUR_clean_sbu_1, # of connection points: 6
#     Node 25, Type 1, BuildingBlock: KUMBUR_clean_sbu_1, # of connection points: 6
#     Node 26, Type 1, BuildingBlock: KUMBUR_clean_sbu_1, # of connection points: 6
#     Node 27, Type 1, BuildingBlock: KUMBUR_clean_sbu_1, # of connection points: 6
#     Node 28, Type 1, BuildingBlock: KUMBUR_clean_sbu_1, # of connection points: 6
#     Node 29, Type 1, BuildingBlock: KUMBUR_clean_sbu_1, # of connection points: 6
#     Node 30, Type 1, BuildingBlock: KUMBUR_clean_sbu_1, # of connection points: 6
#     Node 31, Type 1, BuildingBlock: KUMBUR_clean_sbu_1, # of connection points: 6
#     Node 32, Type 1, BuildingBlock: KUMBUR_clean_sbu_1, # of connection points: 6
#     Node 33, Type 1, BuildingBlock: KUMBUR_clean_sbu_1, # of connection points: 6
#     Node 34, Type 1, BuildingBlock: KUMBUR_clean_sbu_1, # of connection points: 6
#     Node 35, Type 1, BuildingBlock: KUMBUR_clean_sbu_1, # of connection points: 6
#     Node 36, Type 1, BuildingBlock: KUMBUR_clean_sbu_1, # of connection points: 6
#     Node 37, Type 1, BuildingBlock: KUMBUR_clean_sbu_1, # of connection points: 6
#     Node 38, Type 1, BuildingBlock: KUMBUR_clean_sbu_1, # of connection points: 6
#     Node 39, Type 1, BuildingBlock: KUMBUR_clean_sbu_1, # of connection points: 6
#     Edge 40, Type (0, 1), None
#     Edge 41, Type (0, 1), None
#     Edge 42, Type (0, 1), None
#     Edge 43, Type (0, 1), None
#     Edge 44, Type (0, 1), None
#     Edge 45, Type (0, 1), None
#     Edge 46, Type (0, 1), None
#     Edge 47, Type (0, 1), None
#     Edge 48, Type (0, 1), None
#     Edge 49, Type (0, 1), None
#     Edge 50, Type (0, 1), None
#     Edge 51, Type (0, 1), None
#     Edge 52, Type (0, 1), None
#     Edge 53, Type (0, 1), None
#     Edge 54, Type (0, 1), None
#     Edge 55, Type (0, 1), None
#     Edge 56, Type (0, 1), None
#     Edge 57, Type (0, 1), None
#     Edge 58, Type (0, 1), None
#     Edge 59, Type (0, 1), None
#     Edge 60, Type (0, 1), None
#     Edge 61, Type (0, 1), None
#     Edge 62, Type (0, 1), None
#     Edge 63, Type (0, 1), None
#     Edge 64, Type (0, 1), None
#     Edge 65, Type (0, 1), None
#     Edge 66, Type (0, 1), None
#     Edge 67, Type (0, 1), None
#     Edge 68, Type (0, 1), None
#     Edge 69, Type (0, 1), None
#     Edge 70, Type (0, 1), None
#     Edge 71, Type (0, 1), None
#     Edge 72, Type (0, 1), None
#     Edge 73, Type (0, 1), None
#     Edge 74, Type (0, 1), None
#     Edge 75, Type (0, 1), None
#     Edge 76, Type (0, 1), None
#     Edge 77, Type (0, 1), None
#     Edge 78, Type (0, 1), None
#     Edge 79, Type (0, 1), None
#     Edge 80, Type (0, 1), None
#     Edge 81, Type (0, 1), None
#     Edge 82, Type (0, 1), None
#     Edge 83, Type (0, 1), None
#     Edge 84, Type (0, 1), None
#     Edge 85, Type (0, 1), None
#     Edge 86, Type (0, 1), None
#     Edge 87, Type (0, 1), None
#     Edge 88, Type (0, 1), None
#     Edge 89, Type (0, 1), None
#     Edge 90, Type (0, 1), None
#     Edge 91, Type (0, 1), None
#     Edge 92, Type (0, 1), None
#     Edge 93, Type (0, 1), None
#     Edge 94, Type (0, 1), None
#     Edge 95, Type (0, 1), None
#     Edge 96, Type (0, 1), None
#     Edge 97, Type (0, 1), None
#     Edge 98, Type (0, 1), None
#     Edge 99, Type (0, 1), None
#     Edge 100, Type (0, 1), None
#     Edge 101, Type (0, 1), None
#     Edge 102, Type (0, 1), None
#     Edge 103, Type (0, 1), None
#     Edge 104, Type (0, 1), None
#     Edge 105, Type (0, 1), None
#     Edge 106, Type (0, 1), None
#     Edge 107, Type (0, 1), None
#     Edge 108, Type (0, 1), None
#     Edge 109, Type (0, 1), None
#     Edge 110, Type (0, 1), None
#     Edge 111, Type (0, 1), None
#     Edge 112, Type (0, 1), None
#     Edge 113, Type (0, 1), None
#     Edge 114, Type (0, 1), None
#     Edge 115, Type (0, 1), None
#     Edge 116, Type (0, 1), None
#     Edge 117, Type (0, 1), None
#     Edge 118, Type (0, 1), None
#     Edge 119, Type (0, 1), None
#     Edge 120, Type (0, 1), None
#     Edge 121, Type (0, 1), None
#     Edge 122, Type (0, 1), None
#     Edge 123, Type (0, 1), None
#     Edge 124, Type (0, 1), None
#     Edge 125, Type (0, 1), None
#     Edge 126, Type (0, 1), None
#     Edge 127, Type (0, 1), None
#     Edge 128, Type (0, 1), None
#     Edge 129, Type (0, 1), None
#     Edge 130, Type (0, 1), None
#     Edge 131, Type (0, 1), None
#     Edge 132, Type (0, 1), None
#     Edge 133, Type (0, 1), None
#     Edge 134, Type (0, 1), None
#     Edge 135, Type (0, 1), None
# Relax obj value: 0.210
# Max RMSD: 0.260
# Mean RMSD: 0.160
data_MOF--net-gar--node1-NAHDIM_clean_sbu_0--node2-KUMBUR_clean_sbu_1--edge1-none
_symmetry_space_group_name_H-M    P1
_symmetry_Int_Tables_number       1
_symmetry_cell_setting            triclinic
loop_
_symmetry_equiv_pos_as_xyz
'x, y, z'
_cell_length_a     30.767457
_cell_length_b     30.25955
_cell_length_c     26.216919
_cell_angle_alpha  100.73402
_cell_angle_beta   101.32124
_cell_angle_gamma 105.54933
loop_
_atom_site_label
_atom_site_type_symbol
_atom_site_fract_x
_atom_site_fract_y
_atom_site_fract_z
_atom_type_partial_charge
C0 C 0.23948 0.38617 0.38245 0.0
O1 O 0.25961 0.41605 0.42981 0.0
O2 O 0.10022 0.34418 0.43111 0.0
Zn3 Zn 0.11275 0.38829 0.38473 0.0
O4 O 0.12058 0.45673 0.43792 0.0
C5 C 0.98674 0.3389 0.35115 0.0
O6 O 0.99371 0.30239 0.36749 0.0
O7 O 0.19251 0.37758 0.36558 0.0
C8 C 0.08766 0.45908 0.46159 0.0
O9 O 0.05349 0.42 0.4543 0.0
C10 C 0.10737 0.3154 0.45864 0.0
O11 O 0.14543 0.30306 0.46196 0.0
O12 O 1.02522 0.37089 0.34774 0.0
C13 C 0.94027 0.78249 0.75786 0.0
O14 O 0.90966 0.74763 0.71959 0.0
O15 O 0.04737 0.7007 0.69033 0.0
Zn16 Zn 0.06146 0.77098 0.7407 0.0
O17 O 0.07184 0.81107 0.68809 0.0
C18 C 0.18186 0.77194 0.77396 0.0
O19 O 0.1673 0.72661 0.74957 0.0
O20 O 0.98621 0.78729 0.76076 0.0
C21 C 0.10083 0.85256 0.70761 0.0
O22 O 0.11622 0.86894 0.75999 0.0
C23 C 0.07351 0.69768 0.65781 0.0
O24 O 0.10431 0.73699 0.65733 0.0
O25 O 0.14862 0.7925 0.77855 0.0
C26 C 0.74025 0.88918 0.8829 0.0
O27 O 0.7602 0.91724 0.93133 0.0
O28 O 0.6001 0.84844 0.92867 0.0
Zn29 Zn 0.61415 0.89386 0.88467 0.0
O30 O 0.6243 0.9612 0.94102 0.0
C31 C 0.48623 0.84614 0.84757 0.0
O32 O 0.49101 0.80798 0.86164 0.0
O33 O 0.69361 0.88217 0.86538 0.0
C34 C 0.59169 0.9641 0.96497 0.0
O35 O 0.55582 0.92596 0.95554 0.0
C36 C 0.60808 0.81874 0.95428 0.0
O37 O 0.64646 0.80718 0.9561 0.0
O38 O 0.52637 0.87838 0.84838 0.0
C39 C 0.44255 0.28158 0.26328 0.0
O40 O 0.41169 0.24553 0.2266 0.0
O41 O 0.55265 0.20362 0.19835 0.0
Zn42 Zn 0.56494 0.27312 0.2479 0.0
O43 O 0.5751 0.31273 0.19406 0.0
C44 C 0.68428 0.27299 0.28626 0.0
O45 O 0.66937 0.22752 0.26242 0.0
O46 O 0.48856 0.28704 0.26607 0.0
C47 C 0.60307 0.35485 0.21171 0.0
O48 O 0.61921 0.37271 0.26382 0.0
C49 C 0.57988 0.20173 0.167 0.0
O50 O 0.61054 0.24149 0.16758 0.0
O51 O 0.65136 0.2943 0.28883 0.0
C52 C 0.05581 0.81019 0.15723 0.0
O53 O 0.04426 0.78911 0.10588 0.0
O54 O 0.1216 0.7576 0.10598 0.0
Zn55 Zn 0.13902 0.84678 0.13396 0.0
O56 O 0.12859 0.92383 0.11024 0.0
C57 C 0.22293 0.82864 0.19518 0.0
O58 O 0.21062 0.79348 0.15216 0.0
O59 O 0.09537 0.84109 0.17872 0.0
C60 C 0.13358 0.97019 0.12982 0.0
O61 O 0.15295 0.98732 0.18161 0.0
C62 C 0.09579 0.71372 0.07679 0.0
O63 O 0.05963 0.71049 0.03849 0.0
O64 O 0.20221 0.86042 0.19513 0.0
C65 C 0.61457 0.83459 0.47502 0.0
O66 O 0.62527 0.85085 0.52739 0.0
O67 O 0.53321 0.71748 0.50298 0.0
Zn68 Zn 0.52479 0.79728 0.48879 0.0
O69 O 0.54788 0.88226 0.53459 0.0
C70 C 0.42861 0.79363 0.41311 0.0
O71 O 0.4083 0.77728 0.44842 0.0
O72 O 0.57413 0.80651 0.45076 0.0
C73 C 0.52797 0.91628 0.54183 0.0
O74 O 0.4822 0.90278 0.52773 0.0
C75 C 0.52504 0.67517 0.51623 0.0
O76 O 0.49137 0.66417 0.53998 0.0
O77 O 0.47221 0.79842 0.41989 0.0
C78 C 0.5551 0.31963 0.66013 0.0
O79 O 0.55153 0.29966 0.60992 0.0
O80 O 0.62803 0.26843 0.62135 0.0
Zn81 Zn 0.64183 0.3571 0.64805 0.0
O82 O 0.63012 0.43086 0.61842 0.0
C83 C 0.72988 0.34607 0.70892 0.0
O84 O 0.72288 0.31765 0.66161 0.0
O85 O 0.59278 0.35162 0.68685 0.0
C86 C 0.63123 0.4761 0.63691 0.0
O87 O 0.64633 0.4933 0.68923 0.0
C88 C 0.6102 0.22573 0.58631 0.0
O89 O 0.58701 0.22472 0.53821 0.0
O90 O 0.70333 0.37226 0.71332 0.0
C91 C 0.11377 0.3268 0.96047 0.0
O92 O 0.12738 0.337 0.01311 0.0
O93 O 0.04013 0.21506 0.99775 0.0
Zn94 Zn 1.02956 0.29286 0.9825 0.0
O95 O 0.05503 0.37754 0.026 0.0
C96 C 0.9332 0.29976 0.93079 0.0
O97 O 0.92428 0.29805 0.97742 0.0
O98 O 0.07222 0.30161 0.9366 0.0
C99 C 0.04587 0.41196 1.00499 0.0
O100 O 1.01647 0.39847 0.95719 0.0
C101 C 1.03101 0.1734 0.012 0.0
O102 O 0.9971 0.16378 0.03562 0.0
O103 O 0.97007 0.29097 0.92254 0.0
C104 C 0.36269 0.11315 0.38444 0.0
O105 O 0.40668 0.13939 0.40396 0.0
O106 O 0.42358 0.03725 0.34707 0.0
Zn107 Zn 0.39497 0.04163 0.41019 0.0
O108 O 0.44851 0.06285 0.47595 0.0
C109 C 0.37914 0.948 0.38442 0.0
O110 O 0.42228 0.96337 0.38095 0.0
O111 O 0.34888 0.07571 0.3994 0.0
C112 C 0.46403 0.03257 0.49492 0.0
O113 O 0.43739 0.98884 0.48658 0.0
C114 C 0.43447 0.0538 0.30861 0.0
O115 O 0.42652 0.09275 0.30053 0.0
O116 O 0.35878 0.97647 0.4016 0.0
C117 C 0.38178 0.20164 0.5954 0.0
O118 O 0.39791 0.24761 0.61648 0.0
O119 O 0.31514 0.26047 0.62826 0.0
Zn120 Zn 0.30101 0.22354 0.54607 0.0
O121 O 0.31089 0.25389 0.47384 0.0
C122 C 0.19845 0.17548 0.53844 0.0
O123 O 0.19197 0.21456 0.52855 0.0
O124 O 0.34425 0.18431 0.55777 0.0
C125 C 0.32545 0.2962 0.46638 0.0
O126 O 0.33484 0.33253 0.50756 0.0
C127 C 0.30966 0.29693 0.65614 0.0
O128 O 0.29534 0.32631 0.63118 0.0
O129 O 0.23841 0.17031 0.54004 0.0
C130 C 0.22106 0.04368 0.80042 0.0
O131 O 0.17577 0.02231 0.78414 0.0
O132 O 0.15757 0.10672 0.75644 0.0
Zn133 Zn 0.19467 0.12481 0.8402 0.0
O134 O 0.17191 0.11279 0.91455 0.0
C135 C 0.24878 0.23135 0.84516 0.0
O136 O 0.21527 0.24862 0.8536 0.0
O137 O 0.23673 0.08529 0.83101 0.0
C138 C 0.13202 0.10311 0.92627 0.0
O139 O 0.09534 0.10166 0.88979 0.0
C140 C 0.12088 0.11081 0.72756 0.0
O141 O 0.09205 0.12573 0.75186 0.0
O142 O 0.24443 0.18818 0.84504 0.0
C143 C 0.28921 0.03152 0.99086 0.0
O144 O 0.27718 0.99011 0.95632 0.0
O145 O 0.38945 1.00528 0.05386 0.0
Zn146 Zn 0.37836 0.02771 0.98673 0.0
O147 O 0.35281 0.96639 0.92609 0.0
C148 C 0.47569 0.05614 0.00948 0.0
O149 O 0.46517 0.02067 0.03092 0.0
O150 O 0.33021 0.05989 0.99905 0.0
C151 C 0.37818 0.93951 0.92169 0.0
O152 O 0.42172 0.9544 0.94956 0.0
C153 C 0.36383 0.96451 0.0522 0.0
O154 O 0.32755 0.94304 0.01109 0.0
O155 O 0.44307 0.0691 0.98501 0.0
C156 C 0.29501 0.45179 0.04641 0.0
O157 O 0.28536 0.40595 0.0278 0.0
O158 O 0.38468 0.42135 0.17435 0.0
Zn159 Zn 0.38141 0.44394 0.09523 0.0
O160 O 0.36863 0.40468 0.01322 0.0
C161 C 0.48077 0.50439 0.11047 0.0
O162 O 0.49198 0.48049 0.14519 0.0
O163 O 0.33141 0.47448 0.08439 0.0
C164 C 0.36409 0.36429 0.98347 0.0
O165 O 0.36744 0.32995 1.00659 0.0
C166 C 0.35536 0.38591 0.18364 0.0
O167 O 0.32275 0.35696 0.14164 0.0
O168 O 0.43786 0.49814 0.09094 0.0
C169 C 0.84595 0.10811 0.08753 0.0
O170 O 0.87754 0.14891 0.11421 0.0
O171 O 0.82552 0.19927 0.2111 0.0
Zn172 Zn 0.79714 0.15443 0.13557 0.0
O173 O 0.8113 0.19307 0.08557 0.0
C174 C 0.70734 0.09965 0.12804 0.0
O175 O 0.72913 0.07299 0.1492 0.0
O176 O 0.80889 0.09555 0.10226 0.0
C177 C 0.83121 0.23728 0.10022 0.0
O178 O 0.85521 0.25751 0.15023 0.0
C179 C 0.79957 0.22199 0.22846 0.0
O180 O 0.75478 0.20721 0.20468 0.0
O181 O 0.73004 0.13742 0.11917 0.0
C182 C 0.31976 0.58262 0.29287 0.0
O183 O 0.28687 0.549 0.25486 0.0
O184 O 0.22198 0.59015 0.18751 0.0
Zn185 Zn 0.2818 0.63748 0.23618 0.0
O186 O 0.25661 0.66738 0.29166 0.0
C187 C 0.28503 0.70961 0.19043 0.0
O188 O 0.2673 0.7227 0.14833 0.0
O189 O 0.33193 0.62379 0.28586 0.0
C190 C 0.23299 0.63695 0.31145 0.0
O191 O 0.23091 0.5924 0.29779 0.0
C192 C 0.19246 0.6124 0.17795 0.0
O193 O 0.2026 0.65719 0.20191 0.0
O194 O 0.29879 0.67379 0.18396 0.0
C195 C 0.79525 0.96155 0.54008 0.0
O196 O 0.78241 0.91551 0.5203 0.0
O197 O 0.88029 0.92514 0.67316 0.0
Zn198 Zn 0.87935 0.94619 0.5937 0.0
O199 O 0.86643 0.90406 0.51209 0.0
C200 C 0.9803 0.99543 0.60399 0.0
O201 O 0.98717 0.95721 0.61614 0.0
O202 O 0.83247 0.98176 0.57796 0.0
C203 C 0.87407 0.86924 0.483 0.0
O204 O 0.89538 0.84355 0.50705 0.0
C205 C 0.85286 0.88861 0.68262 0.0
O206 O 0.82214 0.85756 0.6405 0.0
O207 O 0.93958 0.9993 0.59774 0.0
C208 C 0.95259 0.10526 0.32035 0.0
O209 O 0.99773 0.1276 0.33686 0.0
O210 O 1.00357 0.03588 0.20703 0.0
Zn211 Zn 0.98249 0.0284 0.28416 0.0
O212 O 1.01713 0.04794 0.37079 0.0
C213 C 0.91051 0.92003 0.26664 0.0
O214 O 0.90814 0.88992 0.22238 0.0
O215 O 0.93775 0.06419 0.28881 0.0
C216 C 0.0561 0.05221 0.40312 0.0
O217 O 0.09024 0.04623 0.38224 0.0
C218 C 0.04385 0.05255 0.19798 0.0
O219 O 0.0804 0.06633 0.23948 0.0
O220 O 0.93718 0.96267 0.27713 0.0
C221 C 0.33734 0.58868 0.59258 0.0
O222 O 0.37055 0.62615 0.6249 0.0
O223 O 0.32102 0.69055 0.70268 0.0
Zn224 Zn 0.29015 0.64171 0.62891 0.0
O225 O 0.30652 0.67062 0.5721 0.0
C226 C 0.19963 0.59443 0.61718 0.0
O227 O 0.21935 0.56609 0.63786 0.0
O228 O 0.29801 0.57887 0.6027 0.0
C229 C 0.31794 0.71495 0.58295 0.0
O230 O 0.33651 0.73931 0.63293 0.0
C231 C 0.29643 0.71344 0.7231 0.0
O232 O 0.25079 0.69619 0.70573 0.0
O233 O 0.22423 0.63245 0.61092 0.0
C234 C 0.45954 0.61108 0.82658 0.0
O235 O 0.50475 0.63183 0.84608 0.0
O236 O 0.50288 0.53456 0.70897 0.0
Zn237 Zn 0.48428 0.5286 0.78744 0.0
O238 O 0.52159 0.54799 0.874 0.0
C239 C 0.42842 0.42682 0.78814 0.0
O240 O 0.46633 0.41432 0.7964 0.0
O241 O 0.44436 0.57012 0.79466 0.0
C242 C 0.55706 0.54431 0.90644 0.0
O243 O 0.58574 0.52604 0.88556 0.0
C244 C 0.54188 0.55687 0.70062 0.0
O245 O 0.57756 0.57621 0.74304 0.0
O246 O 0.43092 0.46745 0.77967 0.0
C247 C 0.83249 0.08995 0.78932 0.0
O248 O 0.79695 0.05809 0.75264 0.0
O249 O 0.73516 0.10291 0.68674 0.0
Zn250 Zn 0.79203 0.14896 0.74365 0.0
O251 O 0.76652 0.17093 0.80482 0.0
C252 C 0.78989 0.22914 0.7145 0.0
O253 O 0.75758 0.2352 0.67801 0.0
O254 O 0.84483 0.13166 0.78368 0.0
C255 C 0.74918 0.14292 0.83134 0.0
O256 O 0.75116 0.09974 0.82232 0.0
C257 C 0.70566 0.12565 0.68134 0.0
O258 O 0.7125 0.16479 0.71714 0.0
O259 O 0.80797 0.19707 0.70225 0.0
C260 C 0.88803 0.67427 0.06041 0.0
O261 O 0.90532 0.66961 0.01844 0.0
O262 O 0.81641 0.76659 0.13026 0.0
Zn263 Zn 0.80527 0.72653 0.0486 0.0
O264 O 0.81115 0.75448 0.9733 0.0
C265 C 0.70369 0.67558 0.04417 0.0
O266 O 0.69704 0.71455 0.0341 0.0
O267 O 0.85593 0.69379 0.06045 0.0
C268 C 0.82794 0.79627 0.96531 0.0
O269 O 0.8412 0.8329 1.00704 0.0
C270 C 0.8099 0.80331 0.15697 0.0
O271 O 0.79572 0.83202 0.13075 0.0
O272 O 0.7438 0.67057 0.04502 0.0
C273 C 0.85959 0.60986 0.86001 0.0
O274 O 0.90349 0.63519 0.8827 0.0
O275 O 0.91014 0.51564 0.83092 0.0
Zn276 Zn 0.88567 0.53649 0.89224 0.0
O277 O 0.9429 0.5613 0.95725 0.0
C278 C 0.86401 0.45133 0.90715 0.0
O279 O 0.89684 0.46854 0.95212 0.0
O280 O 0.84332 0.57178 0.87224 0.0
C281 C 0.9733 0.53986 0.95386 0.0
O282 O 0.965 0.50413 0.9127 0.0
C283 C 0.92606 0.53729 0.79851 0.0
O284 O 0.92635 0.58099 0.80077 0.0
O285 O 0.84246 0.47697 0.88883 0.0
C286 C 0.77892 0.52204 0.49422 0.0
O287 O 0.76707 0.47879 0.46378 0.0
O288 O 0.87949 0.49715 0.55635 0.0
Zn289 Zn 0.86732 0.51886 0.48737 0.0
O290 O 0.84283 0.45609 0.43125 0.0
C291 C 0.96434 0.55356 0.5078 0.0
O292 O 0.95551 0.52793 0.54066 0.0
O293 O 0.81883 0.5507 0.4981 0.0
C294 C 0.87056 0.4318 0.4372 0.0
O295 O 0.91165 0.45149 0.4709 0.0
C296 C 0.85514 0.45698 0.55884 0.0
O297 O 0.81722 0.4332 0.52042 0.0
O298 O 0.93016 0.55968 0.47699 0.0
C299 C 0.71733 0.55309 0.29351 0.0
O300 O 0.67622 0.5426 0.26006 0.0
O301 O 0.65635 0.62075 0.26363 0.0
Zn302 Zn 0.69355 0.63204 0.34618 0.0
O303 O 0.66926 0.62209 0.41991 0.0
C304 C 0.75121 0.73444 0.35027 0.0
O305 O 0.7159 0.74971 0.35561 0.0
O306 O 0.72955 0.58595 0.3364 0.0
C307 C 0.62844 0.60486 0.42747 0.0
O308 O 0.59187 0.59532 0.3869 0.0
C309 C 0.61689 0.61198 0.23008 0.0
O310 O 0.5797 0.60912 0.24836 0.0
O311 O 0.74881 0.69229 0.35343 0.0
Tb312 Tb 0.14741 0.13365 0.11486 0.0
C313 C 0.96621 0.89454 0.90896 0.0
N314 N 0.97149 0.95806 0.90045 0.0
C315 C 0.04263 0.91668 0.82312 0.0
C316 C 0.98991 0.85575 0.88076 0.0
C317 C 1.00379 0.98323 0.86424 0.0
C318 C 1.0269 0.86658 0.84266 0.0
C319 C 0.95267 0.83812 0.97034 0.0
C320 C 0.99027 0.88578 0.963 0.0
C321 C 0.94786 0.79937 0.92829 0.0
C322 C 0.97325 0.80836 0.8886 0.0
Tb323 Tb 1.02636 0.02244 0.00768 0.0
N324 N 1.02437 0.94352 0.03776 0.0
C325 C 0.9401 0.8384 0.03144 0.0
C326 C 1.00897 0.9367 0.0931 0.0
C327 C 0.9663 0.88448 0.08935 0.0
H328 H 1.0099 0.02051 0.86432 0.0
H329 H 0.95581 0.87999 0.12558 0.0
H330 H 0.17393 0.12086 0.25717 0.0
H331 H 0.22488 0.33945 0.0608 0.0
H332 H 1.02216 0.96444 0.12974 0.0
H333 H 0.91743 0.80589 0.03564 0.0
H334 H 0.20968 0.23732 0.04105 0.0
H335 H 0.06757 0.91853 0.79841 0.0
H336 H 0.93212 0.76355 0.93074 0.0
H337 H 0.98036 0.77917 0.86478 0.0
H338 H 0.20844 0.23327 0.38163 0.0
H339 H 0.04453 0.84104 0.83269 0.0
H340 H 0.20023 0.39122 0.14942 0.0
N341 N 0.14128 0.16869 0.21465 0.0
C342 C 0.13899 0.23541 0.22347 0.0
C343 C 0.18952 0.22615 0.33924 0.0
C344 C 0.15123 0.27453 0.27596 0.0
C345 C 0.16647 0.15457 0.2629 0.0
C346 C 0.17617 0.27037 0.3306 0.0
N347 N 0.17792 0.22684 0.11726 0.0
C348 C 0.20136 0.2561 0.07523 0.0
C349 C 0.16947 0.32515 0.19299 0.0
C350 C 0.15875 0.26345 0.18543 0.0
C351 C 0.19452 0.35367 0.14468 0.0
C352 C 0.2104 0.32055 0.08786 0.0
H353 H 0.18324 0.29805 0.36622 0.0
H354 H 0.12651 0.33289 0.30224 0.0
H355 H 0.15361 0.38082 0.2412 0.0
O356 O 0.20828 0.14105 0.08749 0.0
O357 O 0.07414 0.11496 0.04976 0.0
O358 O 0.06546 0.10614 0.0415 0.0
O359 O 0.20539 0.12142 0.16117 0.0
O360 O 0.14676 0.12165 0.02593 0.0
O361 O 0.08384 0.05459 0.97069 0.0
O362 O 0.9758 0.04646 0.03625 0.0
O363 O 0.07636 0.9954 0.06344 0.0
O364 O 0.14269 0.05585 0.11929 0.0
O365 O 0.97936 0.0406 0.95213 0.0
O366 O 1.02219 0.03671 0.09541 0.0
O367 O 0.09582 0.09034 0.15039 0.0
C368 C 0.06495 0.14106 0.01417 0.0
C369 C 0.24087 0.08122 0.10333 0.0
C370 C 0.26623 0.03513 0.0351 0.0
C371 C 0.25548 0.99654 0.05829 0.0
C372 C 0.23397 0.04333 0.12797 0.0
C373 C 0.24046 1.00106 0.10508 0.0
C374 C 0.25878 0.0775 0.05772 0.0
C375 C 0.12355 0.09022 0.97823 0.0
C376 C 0.22749 0.12338 0.12379 0.0
C377 C 0.14148 0.31768 0.27224 0.0
C378 C 0.15483 0.34491 0.23568 0.0
C379 C 0.11783 1.00865 0.0999 0.0
C380 C 0.92791 0.08029 0.98225 0.0
C381 C 0.84892 0.08667 0.03387 0.0
C382 C 0.80264 0.07395 0.97902 0.0
C383 C 0.89668 0.06958 0.91763 0.0
C384 C 0.90455 0.08957 0.03444 0.0
C385 C 0.80932 0.06306 0.91434 0.0
C386 C 0.05304 0.06032 0.14383 0.0
C387 C 0.96428 0.05888 0.9915 0.0
H388 H 0.26037 0.96332 0.04157 0.0
H389 H 0.22312 0.04624 0.16492 0.0
H390 H 0.23414 0.97183 0.12393 0.0
H391 H 0.26629 0.10709 0.03951 0.0
H392 H 0.76895 0.07447 0.98497 0.0
H393 H 0.91418 0.06274 0.88582 0.0
H394 H 0.92791 0.0964 0.07379 0.0
H395 H 0.7782 0.05366 0.88124 0.0
Tb396 Tb 0.29594 0.80229 0.35334 0.0
C397 C 0.44808 0.80687 0.21834 0.0
N398 N 0.44573 0.8351 0.26396 0.0
C399 C 0.52892 0.86348 0.29498 0.0
C400 C 0.49163 0.80659 0.20952 0.0
C401 C 0.48548 0.86218 0.30303 0.0
C402 C 0.53199 0.83659 0.24778 0.0
C403 C 0.41134 0.76344 0.12514 0.0
C404 C 0.40825 0.78697 0.17554 0.0
C405 C 0.4533 0.75633 0.11983 0.0
C406 C 0.49372 0.77979 0.16089 0.0
Tb407 Tb 0.37468 0.84432 0.26168 0.0
N408 N 0.36985 0.7997 0.1799 0.0
C409 C 0.37501 0.75477 0.07971 0.0
C410 C 0.33702 0.79625 0.13461 0.0
C411 C 0.33876 0.77317 0.08439 0.0
H412 H 0.48398 0.88685 0.33775 0.0
H413 H 0.31304 0.77142 0.04924 0.0
H414 H 0.1836 0.77676 0.29606 0.0
H415 H 0.40471 0.91115 0.55153 0.0
H416 H 0.31006 0.8126 0.13605 0.0
H417 H 0.37708 0.73835 0.04021 0.0
H418 H 0.38675 0.85102 0.46638 0.0
H419 H 0.55982 0.88739 0.32357 0.0
H420 H 0.45586 0.73687 0.0824 0.0
H421 H 0.52653 0.77856 0.15337 0.0
H422 H 0.11588 0.78404 0.3293 0.0
H423 H 0.5659 0.83951 0.24108 0.0
H424 H 0.34162 0.93853 0.57674 0.0
N425 N 0.23324 0.82419 0.36678 0.0
C426 C 0.24016 0.85417 0.41534 0.0
C427 C 0.15059 0.80411 0.3532 0.0
C428 C 0.20186 0.85967 0.43468 0.0
C429 C 0.18905 0.80135 0.33419 0.0
C430 C 0.1573 0.83102 0.40467 0.0
N431 N 0.31899 0.85616 0.43659 0.0
C432 C 0.36025 0.86595 0.4752 0.0
C433 C 0.29196 0.90213 0.50123 0.0
C434 C 0.2846 0.87237 0.45 0.0
C435 C 0.33582 0.9169 0.53711 0.0
C436 C 0.37061 0.89972 0.52364 0.0
H437 H 0.12739 0.8309 0.41982 0.0
H438 H 0.18 0.89564 0.49977 0.0
H439 H 0.26087 0.93721 0.55571 0.0
O440 O 0.31435 0.75641 0.39884 0.0
O441 O 0.35102 0.86811 0.37964 0.0
O442 O 0.34623 0.89192 0.30491 0.0
O443 O 0.2434 0.7539 0.3718 0.0
O444 O 0.35465 0.77533 0.34915 0.0
O445 O 0.41056 0.83939 0.34418 0.0
O446 O 0.35465 0.89234 0.22116 0.0
O447 O 0.34781 0.76852 0.25024 0.0
O448 O 0.27652 0.75613 0.27099 0.0
O449 O 0.42673 0.89925 0.25044 0.0
O450 O 0.30004 0.82497 0.222 0.0
O451 O 0.25896 0.82791 0.28709 0.0
C452 C 0.35182 0.90127 0.35573 0.0
C453 C 0.2681 0.74746 0.45968 0.0
C454 C 0.29026 0.73351 0.54683 0.0
C455 C 0.2567 0.7521 0.56325 0.0
C456 C 0.23641 0.76864 0.47742 0.0
C457 C 0.23156 0.77193 0.52939 0.0
C458 C 0.29511 0.72998 0.49477 0.0
C459 C 0.39841 0.80197 0.36455 0.0
C460 C 0.27246 0.74182 0.40457 0.0
C461 C 0.2092 0.89024 0.48506 0.0
C462 C 0.25465 0.91328 0.51709 0.0
C463 C 0.3041 0.74376 0.24203 0.0
C464 C 0.40197 0.9114 0.16457 0.0
C465 C 0.38432 0.93628 0.08282 0.0
C466 C 0.41156 0.9112 0.06108 0.0
C467 C 0.42966 0.88705 0.14241 0.0
C468 C 0.37855 0.93542 0.1341 0.0
C469 C 0.43268 0.88527 0.0901 0.0
C470 C 0.26412 0.83184 0.23866 0.0
C471 C 0.3969 0.9119 0.21895 0.0
H472 H 0.25076 0.75223 0.60268 0.0
H473 H 0.21298 0.77952 0.45028 0.0
H474 H 0.20724 0.78829 0.5427 0.0
H475 H 0.31975 0.7136 0.48167 0.0
H476 H 0.41729 0.9122 0.02198 0.0
H477 H 0.45093 0.87151 0.16609 0.0
H478 H 0.35743 0.95471 0.15089 0.0
H479 H 0.45283 0.86533 0.07276 0.0
Tb480 Tb 0.55348 0.08203 0.63266 0.0
C481 C 0.61703 0.13798 0.45242 0.0
N482 N 0.58445 0.10146 0.46011 0.0
C483 C 0.52143 0.12131 0.40727 0.0
C484 C 0.59731 0.16596 0.40627 0.0
C485 C 0.53873 0.09026 0.43187 0.0
C486 C 0.54984 0.15746 0.39256 0.0
C487 C 0.71976 0.1764 0.46218 0.0
C488 C 0.67335 0.14292 0.48084 0.0
C489 C 0.686 0.21699 0.38864 0.0
C490 C 0.62775 0.20214 0.37554 0.0
Tb491 Tb 0.61496 0.06449 0.52187 0.0
N492 N 0.68091 0.11879 0.5179 0.0
C493 C 0.76313 0.17342 0.49005 0.0
C494 C 0.7251 0.12178 0.5429 0.0
C495 C 0.76478 0.14756 0.52937 0.0
H496 H 0.51332 0.05673 0.42624 0.0
H497 H 0.79852 0.14649 0.54981 0.0
H498 H 0.65252 0.09254 0.73515 0.0
H499 H 0.37594 1.01101 0.63222 0.0
H500 H 0.73005 0.1014 0.57207 0.0
H501 H 0.79619 0.19072 0.48316 0.0
H502 H 0.43835 0.04707 0.59585 0.0
H503 H 0.48443 0.11517 0.3961 0.0
H504 H 0.70217 0.24189 0.36856 0.0
H505 H 0.60961 0.21692 0.34685 0.0
H506 H 0.68919 0.0354 0.75876 0.0
H507 H 0.53437 0.17707 0.36782 0.0
H508 H 0.38205 0.96022 0.69063 0.0
N509 N 0.58676 0.04268 0.69097 0.0
C510 C 0.55603 1.00352 0.69612 0.0
C511 C 0.65213 0.02406 0.74096 0.0
C512 C 0.57785 0.96745 0.7296 0.0
C513 C 0.63172 0.056 0.72172 0.0
C514 C 0.6259 0.97993 0.74352 0.0
N515 N 0.49091 0.03062 0.64657 0.0
C516 C 0.44599 0.02803 0.62563 0.0
C517 C 0.45714 0.96854 0.69856 0.0
C518 C 0.50081 1.00388 0.67963 0.0
C519 C 0.41361 0.97655 0.68028 0.0
C520 C 0.40936 1.00578 0.64547 0.0
H521 H 0.64325 0.95902 0.764 0.0
H522 H 0.56832 0.90532 0.7764 0.0
H523 H 0.47496 0.88415 0.76726 0.0
O524 O 0.50863 0.11889 0.61035 0.0
O525 O 0.53762 1.00136 0.59163 0.0
O526 O 0.57871 0.99076 0.52791 0.0
O527 O 0.52598 0.11318 0.69329 0.0
O528 O 0.53595 0.0835 0.55165 0.0
O529 O 0.54 0.02576 0.49251 0.0
O530 O 0.65309 0.01851 0.52751 0.0
O531 O 0.61638 0.14281 0.55439 0.0
O532 O 0.5956 0.15772 0.63458 0.0
O533 O 0.63752 0.03953 0.45318 0.0
O534 O 0.64941 0.06988 0.60428 0.0
O535 O 0.6269 0.11995 0.661 0.0
C536 C 0.55301 0.97226 0.55869 0.0
C537 C 0.45668 0.13552 0.65945 0.0
C538 C 0.39735 0.17064 0.62692 0.0
C539 C 0.37345 0.15543 0.66412 0.0
C540 C 0.43297 0.12126 0.69712 0.0
C541 C 0.3914 0.13115 0.69921 0.0
C542 C 0.43878 0.16064 0.6248 0.0
C543 C 0.51389 0.04447 0.51694 0.0
C544 C 0.50286 0.13033 0.65837 0.0
C545 C 0.54919 0.92495 0.75592 0.0
C546 C 0.49121 0.9132 0.75195 0.0
C547 C 0.61039 0.17416 0.59466 0.0
C548 C 0.70715 1.0161 0.47771 0.0
C549 C 0.774 0.98986 0.50888 0.0
C550 C 0.79421 1.00733 0.4701 0.0
C551 C 0.72764 0.03314 0.43911 0.0
C552 C 0.73036 0.99385 0.51201 0.0
C553 C 0.77072 0.02823 0.43504 0.0
C554 C 0.65979 0.10676 0.64388 0.0
C555 C 0.65956 1.01589 0.47978 0.0
H556 H 0.34181 0.16379 0.66728 0.0
H557 H 0.44692 0.10342 0.72538 0.0
H558 H 0.37367 0.12103 0.72904 0.0
H559 H 0.45805 0.17401 0.59742 0.0
H560 H 0.82708 1.00283 0.46534 0.0
H561 H 0.70977 0.04874 0.41111 0.0
H562 H 0.71384 0.9782 0.54017 0.0
H563 H 0.785 0.03931 0.40329 0.0
Tb564 Tb 0.38782 0.29503 0.82501 0.0
C565 C 0.23188 0.40195 0.72911 0.0
N566 N 0.26882 0.42049 0.77365 0.0
C567 C 0.28047 0.49816 0.75858 0.0
C568 C 0.21979 0.43086 0.69557 0.0
C569 C 0.29173 0.46822 0.78974 0.0
C570 C 0.24516 0.47929 0.71088 0.0
C571 C 0.15618 0.33641 0.66748 0.0
C572 C 0.20603 0.35455 0.71777 0.0
C573 C 0.15318 0.36576 0.63318 0.0
C574 C 0.18385 0.41209 0.64736 0.0
Tb575 Tb 0.29113 0.36897 0.81881 0.0
N576 N 0.22593 0.32407 0.75324 0.0
C577 C 0.11857 0.27968 0.65135 0.0
C578 C 0.20932 0.27094 0.75576 0.0
C579 C 0.15509 0.23111 0.71212 0.0
H580 H 0.31954 0.48324 0.82642 0.0
H581 H 0.13734 0.19045 0.70979 0.0
H582 H 0.35858 0.17954 0.81824 0.0
H583 H 0.52287 0.4705 0.94049 0.0
H584 H 0.18216 0.24545 0.73609 0.0
H585 H 0.08754 0.26902 0.61756 0.0
H586 H 0.43797 0.4141 0.88529 0.0
H587 H 0.29956 0.53571 0.77104 0.0
H588 H 0.12636 0.35306 0.59555 0.0
H589 H 0.17806 0.43462 0.62077 0.0
H590 H 0.37801 0.12791 0.87485 0.0
H591 H 0.23715 0.5027 0.68654 0.0
H592 H 0.58902 0.3947 0.02418 0.0
N593 N 0.40568 0.24352 0.87333 0.0
C594 C 0.44167 0.26262 0.9188 0.0
C595 C 0.39574 0.16576 0.88802 0.0
C596 C 0.45491 0.23363 0.95172 0.0
C597 C 0.38435 0.19544 0.85649 0.0
C598 C 0.43039 0.185 0.93622 0.0
N599 N 0.44436 0.34269 0.90003 0.0
C600 C 0.46114 0.39714 0.90172 0.0
C601 C 0.51899 0.3272 0.97706 0.0
C602 C 0.46633 0.31062 0.93145 0.0
C603 C 0.55684 0.38383 0.99191 0.0
C604 C 0.51443 0.43343 0.9388 0.0
H605 H 0.43913 0.1616 0.96033 0.0
H606 H 0.49808 0.23011 0.02576 0.0
H607 H 0.55032 0.31149 0.04898 0.0
O608 O 0.44509 0.32431 0.79518 0.0
O609 O 0.37273 0.31953 0.90288 0.0
O610 O 0.34861 0.38562 0.89506 0.0
O611 O 0.4135 0.24745 0.78198 0.0
O612 O 0.37497 0.35853 0.81146 0.0
O613 O 0.35306 0.41917 0.80758 0.0
O614 O 0.24849 0.34234 0.86589 0.0
O615 O 0.29892 0.33814 0.73829 0.0
O616 O 0.33787 0.28034 0.74336 0.0
O617 O 0.27045 0.41721 0.8683 0.0
O618 O 0.30104 0.30202 0.82324 0.0
O619 O 0.32331 0.24101 0.8235 0.0
C620 C 0.35918 0.35555 0.92353 0.0
C621 C 0.47902 0.27202 0.74619 0.0
C622 C 0.53142 0.29007 0.69007 0.0
C623 C 0.54714 0.25226 0.69861 0.0
C624 C 0.49467 0.23405 0.75389 0.0
C625 C 0.52983 0.22559 0.73172 0.0
C626 C 0.49791 0.30102 0.71479 0.0
C627 C 0.38479 0.39977 0.79979 0.0
C628 C 0.44523 0.28194 0.77416 0.0
C629 C 0.49161 0.25249 0.99923 0.0
C630 C 0.52267 0.29854 0.01208 0.0
C631 C 0.31638 0.30555 0.71625 0.0
C632 C 0.20102 0.38566 0.89302 0.0
C633 C 0.13784 0.35858 0.93266 0.0
C634 C 0.11956 0.39348 0.91851 0.0
C635 C 0.18188 0.41972 0.87741 0.0
C636 C 0.17909 0.35529 0.92108 0.0
C637 C 0.14211 0.42467 0.89227 0.0
C638 C 0.29052 0.25898 0.83032 0.0
C639 C 0.24618 0.38402 0.88622 0.0
H640 H 0.57476 0.24481 0.68218 0.0
H641 H 0.48015 0.21168 0.77802 0.0
H642 H 0.54563 0.19959 0.74147 0.0
H643 H 0.4868 0.3314 0.7097 0.0
H644 H 0.08771 0.39657 0.92734 0.0
H645 H 0.1986 0.44349 0.8558 0.0
H646 H 0.19412 0.32932 0.93399 0.0
H647 H 0.12815 0.45237 0.88366 0.0
Tb648 Tb 0.12236 0.03725 0.56919 0.0
C649 C 1.02784 0.17908 0.66401 0.0
N650 N 1.00749 0.14231 0.61895 0.0
C651 C 0.93737 0.11953 0.64816 0.0
C652 C 1.00386 0.18503 0.70473 0.0
C653 C 0.96247 0.11375 0.61006 0.0
C654 C 0.95841 0.15449 0.69598 0.0
C655 C 0.09154 0.25686 0.72436 0.0
C656 C 0.07261 0.20981 0.66983 0.0
C657 C 0.06704 0.25507 0.76327 0.0
C658 C 1.02425 0.22018 0.75351 0.0
Tb659 Tb 0.05287 0.12796 0.56255 0.0
N660 N 0.10002 0.19639 0.62684 0.0
C661 C 0.14441 0.29882 0.73761 0.0
C662 C 0.14983 0.22011 0.61892 0.0
C663 C 0.18855 0.2745 0.66488 0.0
H664 H 0.94548 0.08663 0.57292 0.0
H665 H 0.22683 0.29707 0.66409 0.0
H666 H 0.23103 0.08103 0.565 0.0
H667 H 0.95157 0.88833 0.45483 0.0
H668 H 0.17459 0.24835 0.63889 0.0
H669 H 0.15517 0.32792 0.7739 0.0
H670 H 1.0029 0.97361 0.51155 0.0
H671 H 0.90188 0.09661 0.64084 0.0
H672 H 0.08081 0.28152 0.8014 0.0
H673 H 1.00558 0.22183 0.78449 0.0
H674 H 0.28004 0.06807 0.50386 0.0
H675 H 0.93876 0.15815 0.72575 0.0
H676 H 1.02952 0.83198 0.36728 0.0
N677 N 0.17157 0.02267 0.51845 0.0
C678 C 0.15387 0.98449 0.47491 0.0
C679 C 0.24461 0.04458 0.49507 0.0
C680 C 0.1812 0.97603 0.43861 0.0
C681 C 0.21646 0.05204 0.52928 0.0
C682 C 0.22676 1.00694 0.44932 0.0
N683 N 0.07551 0.97391 0.49809 0.0
C684 C 1.02199 0.95315 0.49601 0.0
C685 C 0.09359 0.90349 0.41759 0.0
C686 C 0.10818 0.95509 0.46555 0.0
C687 C 0.03893 0.86307 0.40094 0.0
C688 C 0.988 0.89953 0.45631 0.0
H689 H 0.24879 1.00176 0.42264 0.0
H690 H 0.18417 0.93543 0.36297 0.0
H691 H 0.10825 0.87594 0.34393 0.0
O692 O 0.11129 0.99611 0.62383 0.0
O693 O 0.10054 0.04952 0.48876 0.0
O694 O 0.03309 0.06719 0.49053 0.0
O695 O 0.17606 1.01068 0.60087 0.0
O696 O 0.05852 0.02103 0.59795 0.0
O697 O 1.00852 0.05689 0.559 0.0
O698 O 0.04757 0.15279 0.49328 0.0
O699 O 0.07649 0.11592 0.64306 0.0
O700 O 0.14292 0.09699 0.64063 0.0
O701 O 1.00092 0.16013 0.54256 0.0
O702 O 0.11801 0.14518 0.53656 0.0
O703 O 0.16764 0.11047 0.5795 0.0
C704 C 0.06309 0.05757 0.46358 0.0
C705 C 0.15264 0.94211 0.63514 0.0
C706 C 0.1276 0.87539 0.67385 0.0
C707 C 0.16187 0.85766 0.65792 0.0
C708 C 0.18644 0.92379 0.61932 0.0
C709 C 0.19101 0.88173 0.63047 0.0
C710 C 0.1234 0.91784 0.66298 0.0
C711 C 1.01844 0.02991 0.59082 0.0
C712 C 0.15174 0.98942 0.62976 0.0
C713 C 0.16344 0.93861 0.39165 0.0
C714 C 0.12054 0.90354 0.38108 0.0
C715 C 0.11279 0.10558 0.66736 0.0
C716 C 1.02248 0.21939 0.4973 0.0
C717 C 0.06802 0.29041 0.47785 0.0
C718 C 1.03079 0.30874 0.47965 0.0
C719 C 0.98554 0.23795 0.49752 0.0
C720 C 0.06413 0.24595 0.48806 0.0
C721 C 0.98981 0.28257 0.48894 0.0
C722 C 0.15946 0.13973 0.5498 0.0
C723 C 1.01514 0.17073 0.50183 0.0
H724 H 0.16663 0.82566 0.66747 0.0
H725 H 0.21024 0.94317 0.60023 0.0
H726 H 0.21761 0.8681 0.61848 0.0
H727 H 0.09842 0.93262 0.67771 0.0
H728 H 1.03277 0.34313 0.47293 0.0
H729 H 0.95296 0.21741 0.50307 0.0
H730 H 0.09238 0.2312 0.48609 0.0
H731 H 0.96147 0.29728 0.48982 0.0
Tb732 Tb 0.33132 0.86532 0.76271 0.0
C733 C 0.26581 0.75821 0.9354 0.0
N734 N 0.30347 0.79545 0.9397 0.0
C735 C 0.28523 0.84335 0.01392 0.0
C736 C 0.22795 0.76863 0.97208 0.0
C737 C 0.31333 0.83636 0.97841 0.0
C738 C 0.24237 0.81111 0.00964 0.0
C739 C 0.21447 0.65787 0.86747 0.0
C740 C 0.25893 0.70837 0.88791 0.0
C741 C 0.16655 0.65141 0.89042 0.0
C742 C 0.17477 0.72759 0.96315 0.0
Tb743 Tb 0.3404 0.78476 0.87137 0.0
N744 N 0.28983 0.71189 0.85761 0.0
C745 C 0.22012 0.62082 0.83252 0.0
C746 C 0.29063 0.67343 0.82145 0.0
C747 C 0.25793 0.62857 0.81034 0.0
H748 H 0.34317 0.86526 0.98233 0.0
H749 H 0.26157 0.59925 0.78267 0.0
H750 H 0.30946 0.82436 0.63008 0.0
H751 H 0.4289 0.04131 0.8796 0.0
H752 H 0.31802 0.67639 0.80117 0.0
H753 H 0.19646 0.58556 0.82326 0.0
H754 H 0.35823 0.97353 0.83634 0.0
H755 H 0.29612 0.87556 0.04532 0.0
H756 H 0.14165 0.61666 0.87888 0.0
H757 H 0.15221 0.73563 0.98856 0.0
H758 H 0.35433 0.81408 0.56258 0.0
H759 H 0.22101 0.8191 0.03607 0.0
H760 H 0.50292 0.04527 0.85607 0.0
N761 N 0.36704 0.86319 0.69391 0.0
C762 C 0.41066 0.89325 0.70741 0.0
C763 C 0.37243 0.83353 0.60339 0.0
C764 C 0.44348 0.88703 0.66317 0.0
C765 C 0.34665 0.83893 0.64184 0.0
C766 C 0.42074 0.85409 0.61498 0.0
N767 N 0.39088 0.93348 0.79177 0.0
C768 C 0.39034 0.97279 0.8262 0.0
C769 C 0.47346 0.98081 0.79355 0.0
C770 C 0.42461 0.9356 0.76579 0.0
C771 C 0.47267 1.01467 0.83656 0.0
C772 C 0.43063 1.01206 0.85015 0.0
H773 H 0.43882 0.84871 0.58406 0.0
H774 H 0.51902 0.91987 0.64572 0.0
H775 H 0.54834 0.01776 0.78589 0.0
O776 O 0.28514 0.90278 0.77566 0.0
O777 O 0.40619 0.85642 0.79694 0.0
O778 O 0.41254 0.83332 0.87764 0.0
O779 O 0.30834 0.89911 0.7034 0.0
O780 O 0.32507 0.87699 0.84573 0.0
O781 O 0.3726 0.85897 0.90955 0.0
O782 O 0.38242 0.74654 0.84473 0.0
O783 O 0.26429 0.7807 0.82958 0.0
O784 O 0.25809 0.81947 0.75989 0.0
O785 O 0.37436 0.75495 0.92661 0.0
O786 O 0.33243 0.79051 0.79216 0.0
O787 O 0.30803 0.79245 0.71256 0.0
C788 C 0.43315 0.84892 0.84082 0.0
C789 C 0.28093 0.96422 0.734 0.0
C790 C 0.25106 0.02701 0.76953 0.0
C791 C 0.26995 0.05352 0.73594 0.0
C792 C 0.29747 0.99003 0.69868 0.0
C793 C 0.29234 0.03465 0.70006 0.0
C794 C 0.25649 0.98248 0.76834 0.0
C795 C 0.3598 0.89089 0.88878 0.0
C796 C 0.2829 0.91574 0.73106 0.0
C797 C 0.49902 0.92506 0.67512 0.0
C798 C 0.51831 0.98906 0.76554 0.0
C799 C 0.23788 0.79553 0.79203 0.0
C800 C 0.39554 0.68823 0.88804 0.0
C801 C 0.42761 0.62697 0.85468 0.0
C802 C 0.40187 0.59691 0.88064 0.0
C803 C 0.37078 0.65835 0.91479 0.0
C804 C 0.42485 0.67277 0.85908 0.0
C805 C 0.37442 0.61307 0.91145 0.0
C806 C 0.3163 0.76519 0.74288 0.0
C807 C 0.39328 0.73633 0.89094 0.0
H808 H 0.26521 0.08768 0.73545 0.0
H809 H 0.31265 0.97507 0.66872 0.0
H810 H 0.30441 0.05396 0.67204 0.0
H811 H 0.24064 0.96163 0.79327 0.0
H812 H 0.40439 0.56162 0.87872 0.0
H813 H 0.34911 0.67 0.93859 0.0
H814 H 0.44533 0.69629 0.8398 0.0
H815 H 0.35666 0.59095 0.9337 0.0
Tb816 Tb 0.62019 0.12621 0.02122 0.0
C817 C 0.59492 0.9712 0.16933 0.0
N818 N 0.57108 0.97033 0.11952 0.0
C819 C 0.54773 0.88568 0.09524 0.0
C820 C 0.59733 0.92887 0.18297 0.0
C821 C 0.54828 0.92823 0.08196 0.0
C822 C 0.57179 0.88602 0.14586 0.0
C823 C 0.61748 1.00949 0.26347 0.0
C824 C 0.6067 1.01229 0.21005 0.0
C825 C 0.6304 0.97136 0.27573 0.0
C826 C 0.62048 0.9305 0.23526 0.0
Tb827 Tb 0.55783 0.03948 0.11245 0.0
N828 N 0.59623 0.05067 0.19784 0.0
C829 C 0.60595 0.03983 0.30122 0.0
C830 C 0.58987 0.0836 0.23618 0.0
C831 C 0.59007 0.07595 0.28653 0.0
H832 H 0.52596 0.92686 0.04401 0.0
H833 H 0.57675 0.09724 0.31329 0.0
H834 H 0.63518 0.23876 0.0757 0.0
H835 H 0.62177 0.06575 0.82312 0.0
H836 H 0.57733 0.11166 0.22642 0.0
H837 H 0.60601 0.03332 0.34051 0.0
H838 H 0.62637 0.05934 0.91448 0.0
H839 H 0.52638 0.85249 0.0681 0.0
H840 H 0.6441 0.97226 0.31671 0.0
H841 H 0.62727 0.89968 0.24571 0.0
H842 H 0.6276 0.30703 0.04121 0.0
H843 H 0.57016 0.85287 0.156 0.0
H844 H 0.57106 0.1081 0.78207 0.0
N845 N 0.59717 0.18798 1.00145 0.0
C846 C 0.57415 0.18109 0.9492 0.0
C847 C 0.61108 0.27148 0.01572 0.0
C848 C 0.56545 0.21886 0.92969 0.0
C849 C 0.61428 0.23246 0.03531 0.0
C850 C 0.58641 0.26441 0.96277 0.0
N851 N 0.59018 0.10885 0.9317 0.0
C852 C 0.60639 0.08045 0.89894 0.0
C853 C 0.55801 0.13647 0.85746 0.0
C854 C 0.57095 0.14008 0.91276 0.0
C855 C 0.57533 0.10805 0.82393 0.0
C856 C 0.6039 0.08405 0.84665 0.0
H857 H 0.58367 0.29441 0.94768 0.0
H858 H 0.53238 0.23883 0.86116 0.0
H859 H 0.5221 0.16213 0.79723 0.0
O860 O 0.68003 0.11526 0.99947 0.0
O861 O 0.54326 0.10293 0.98632 0.0
O862 O 0.55742 0.07218 0.04968 0.0
O863 O 0.67901 0.18492 0.03115 0.0
O864 O 0.62009 0.05028 1.00314 0.0
O865 O 0.55754 1.00379 0.02897 0.0
O866 O 0.50427 0.05927 0.14026 0.0
O867 O 0.63323 0.05615 0.13613 0.0
O868 O 0.63772 0.11815 0.10206 0.0
O869 O 0.49686 0.98619 0.1092 0.0
O870 O 0.55893 0.11508 0.13758 0.0
O871 O 0.60777 0.16398 0.09683 0.0
C872 C 0.52505 0.07853 0.01564 0.0
C873 C 0.7001 0.17062 0.94938 0.0
C874 C 0.71941 0.15614 0.86376 0.0
C875 C 0.68741 0.17754 0.8424 0.0
C876 C 0.67281 0.19695 0.92871 0.0
C877 C 0.66396 0.1977 0.87502 0.0
C878 C 0.72379 0.14997 0.91623 0.0
C879 C 0.59134 1.00842 1.00277 0.0
C880 C 0.69749 0.15986 1.00169 0.0
C881 C 0.54228 0.21082 0.87561 0.0
C882 C 0.53732 0.16834 0.83941 0.0
C883 C 0.65751 0.08851 0.11776 0.0
C884 C 0.47975 1.00823 0.19258 0.0
C885 C 0.46022 0.03076 0.27684 0.0
C886 C 0.48522 1.00314 0.29901 0.0
C887 C 0.50178 0.97842 0.21453 0.0
C888 C 0.4588 0.03441 0.22404 0.0
C889 C 0.50561 0.97691 0.26774 0.0
C890 C 0.58 0.15727 0.13031 0.0
C891 C 0.48296 1.01582 0.13948 0.0
H892 H 0.68214 0.18075 0.8014 0.0
H893 H 0.65889 0.218 0.95429 0.0
H894 H 0.64081 0.21606 0.85964 0.0
H895 H 0.74635 0.1308 0.93151 0.0
H896 H 0.48825 1.0008 0.3401 0.0
H897 H 0.51537 0.95546 0.19043 0.0
H898 H 0.44093 0.05684 0.20715 0.0
H899 H 0.52378 0.95476 0.28447 0.0
Tb900 Tb 0.30286 0.2757 0.27958 0.0
C901 C 0.53189 0.46089 0.46784 0.0
N902 N 0.47072 0.45333 0.4812 0.0
C903 C 0.51648 0.37678 0.54785 0.0
C904 C 0.57186 0.43594 0.49068 0.0
C905 C 0.449 0.4177 0.5163 0.0
C906 C 0.5641 0.39548 0.52588 0.0
C907 C 0.58326 0.47973 0.40353 0.0
C908 C 0.53786 0.43977 0.41133 0.0
C909 C 0.62327 0.4836 0.4432 0.0
C910 C 0.6174 0.45601 0.48216 0.0
Tb911 Tb 0.4023 0.40157 0.37614 0.0
N912 N 0.47803 0.40837 0.33887 0.0
C913 C 0.57921 0.4964 0.34388 0.0
C914 C 0.48095 0.42737 0.28475 0.0
C915 C 0.5313 0.47207 0.2878 0.0
H916 H 0.4129 0.41088 0.51887 0.0
H917 H 0.53347 0.48497 0.25231 0.0
H918 H 0.25447 0.32533 0.17543 0.0
H919 H 0.18651 0.12852 0.38092 0.0
H920 H 0.4522 0.41504 0.24931 0.0
H921 H 0.6102 0.52051 0.33893 0.0
H922 H 0.26762 0.17174 0.35671 0.0
H923 H 0.51619 0.34985 0.57006 0.0
H924 H 0.65775 0.50128 0.4398 0.0
H925 H 0.64749 0.44948 0.50462 0.0
H926 H 0.15843 0.28315 0.11542 0.0
H927 H 0.59072 0.37858 0.53319 0.0
H928 H 0.09836 0.13762 0.34235 0.0
N929 N 0.23616 0.25714 0.19633 0.0
C930 C 0.19896 0.21145 0.19377 0.0
C931 C 0.13796 0.27397 0.10335 0.0
C932 C 0.11793 0.18638 0.13937 0.0
C933 C 0.22463 0.29328 0.16544 0.0
C934 C 0.1013 0.22271 0.1035 0.0
N935 N 0.24356 0.21146 0.29432 0.0
C936 C 0.23664 0.17649 0.33421 0.0
C937 C 0.11926 0.19255 0.28434 0.0
C938 C 0.20516 0.22441 0.26069 0.0
C939 C 0.12804 0.15816 0.33135 0.0
C940 C 0.18392 0.15049 0.35303 0.0
H941 H 0.06634 0.22423 0.09945 0.0
H942 H 0.03689 0.15973 0.13932 0.0
H943 H 0.03855 0.15843 0.23993 0.0
O944 O 0.35212 0.24206 0.29716 0.0
O945 O 0.26327 0.3245 0.31541 0.0
O946 O 0.32362 0.38711 0.37965 0.0
O947 O 0.29805 0.21328 0.22265 0.0
O948 O 0.30531 0.28036 0.36655 0.0
O949 O 0.37008 0.34713 0.41882 0.0
O950 O 0.37091 0.44481 0.33857 0.0
O951 O 0.38986 0.32805 0.31588 0.0
O952 O 0.3838 0.32103 0.3096 0.0
O953 O 0.39776 0.46125 0.42646 0.0
O954 O 0.38505 0.40209 0.28613 0.0
O955 O 0.32597 0.32965 0.23362 0.0
C956 C 0.27664 0.3647 0.35578 0.0
C957 C 0.32831 0.16029 0.26563 0.0
C958 C 0.33963 0.11343 0.33 0.0
C959 C 0.32738 0.07291 0.28723 0.0
C960 C 0.32119 0.12098 0.22363 0.0
C961 C 0.31986 0.07716 0.23435 0.0
C962 C 0.33905 0.15648 0.31898 0.0
C963 C 0.335 0.30702 0.41356 0.0
C964 C 0.33274 0.20692 0.25488 0.0
C965 C 0.0713 0.17019 0.16658 0.0
C966 C 0.07173 0.1737 0.23186 0.0
C967 C 0.42471 0.32191 0.29377 0.0
C968 C 0.33618 0.49077 0.39417 0.0
C969 C 0.33226 0.57459 0.34675 0.0
C970 C 0.34709 0.62037 0.40312 0.0
C971 C 0.34848 0.52111 0.45977 0.0
C972 C 0.32627 0.51683 0.34381 0.0
C973 C 0.35843 0.61122 0.46686 0.0
C974 C 0.35603 0.37285 0.23847 0.0
C975 C 0.37329 0.4704 0.38558 0.0
H976 H 0.32852 0.03918 0.29477 0.0
H977 H 0.31845 0.12476 0.18305 0.0
H978 H 0.3152 0.04692 0.20202 0.0
H979 H 0.34917 0.18744 0.35251 0.0
H980 H 0.34893 0.65566 0.39883 0.0
H981 H 0.35472 0.50188 0.49053 0.0
H982 H 0.31944 0.49431 0.30393 0.0
H983 H 0.36805 0.64194 0.50115 0.0
Tb984 Tb 0.62404 0.53815 0.07769 0.0
C985 C 0.52706 0.68061 0.16121 0.0
N986 N 0.50783 0.64393 0.116 0.0
C987 C 0.43603 0.6213 0.14184 0.0
C988 C 0.50163 0.68668 0.20036 0.0
C989 C 0.46265 0.61535 0.10542 0.0
C990 C 0.45583 0.65633 0.1898 0.0
C991 C 0.58997 0.75823 0.22283 0.0
C992 C 0.57231 0.71092 0.1689 0.0
C993 C 0.56442 0.7561 0.26078 0.0
C994 C 0.52116 0.72149 0.2495 0.0
Tb995 Tb 0.55517 0.62899 0.06249 0.0
N996 N 0.60108 0.69704 0.12784 0.0
C997 C 0.64288 0.80042 0.23714 0.0
C998 C 0.65146 0.72055 0.12143 0.0
C999 C 0.68927 0.77537 0.16725 0.0
H1000 H 0.44681 0.58795 0.06834 0.0
H1001 H 0.72758 0.79817 0.16702 0.0
H1002 H 0.72895 0.57536 0.06064 0.0
H1003 H 0.45649 0.37127 0.99898 0.0
H1004 H 0.67585 0.74896 0.14154 0.0
H1005 H 0.65286 0.82977 0.27305 0.0
H1006 H 0.52229 0.44772 0.0711 0.0
H1007 H 0.40037 0.59837 0.13321 0.0
H1008 H 0.57757 0.78226 0.29913 0.0
H1009 H 0.5015 0.72308 0.27951 0.0
H1010 H 0.76746 0.56448 0.98786 0.0
H1011 H 0.43507 0.66005 0.21834 0.0
H1012 H 0.5124 0.33686 0.87163 0.0
N1013 N 0.6652 0.52069 0.01795 0.0
C1014 C 0.6422 0.48437 0.97326 0.0
C1015 C 0.73214 0.54219 0.98293 0.0
C1016 C 0.66296 0.4782 0.9295 0.0
C1017 C 0.71002 0.54827 0.02396 0.0
C1018 C 0.70819 0.50792 0.93519 0.0
N1019 N 0.57458 0.46722 0.01881 0.0
C1020 C 0.52713 0.44058 0.03168 0.0
C1021 C 0.5755 0.40864 0.9156 0.0
C1022 C 0.59773 0.45486 0.97081 0.0
C1023 C 0.52422 0.36668 0.90706 0.0
C1024 C 0.48789 0.38938 0.9885 0.0
H1025 H 0.72546 0.50404 0.90311 0.0
H1026 H 0.65614 0.44132 0.84792 0.0
H1027 H 0.58117 0.38281 0.8362 0.0
O1028 O 0.62216 0.50573 0.14126 0.0
O1029 O 0.60336 0.55108 0.99622 0.0
O1030 O 0.53494 0.56741 0.99244 0.0
O1031 O 0.67985 0.51299 0.10591 0.0
O1032 O 0.55952 0.5273 0.10458 0.0
O1033 O 0.5097 0.55678 0.05415 0.0
O1034 O 0.55765 0.65795 0.99665 0.0
O1035 O 0.5758 0.61801 0.14419 0.0
O1036 O 0.64344 0.60046 0.14611 0.0
O1037 O 0.5028 0.65883 0.03582 0.0
O1038 O 0.62247 0.64481 0.04007 0.0
O1039 O 0.67148 0.61008 0.08478 0.0
C1040 C 0.56564 0.5567 0.96783 0.0
C1041 C 0.65945 0.44776 0.14536 0.0
C1042 C 0.6284 0.37741 0.17642 0.0
C1043 C 0.65882 0.35688 0.15494 0.0
C1044 C 0.69209 0.42815 0.12839 0.0
C1045 C 0.69052 0.38241 0.13128 0.0
C1046 C 0.62846 0.42273 0.17112 0.0
C1047 C 0.51801 0.53177 0.08885 0.0
C1048 C 0.66052 0.49583 0.1408 0.0
C1049 C 0.63978 0.44343 0.88096 0.0
C1050 C 0.59711 0.40936 0.87408 0.0
C1051 C 0.61251 0.60986 0.17098 0.0
C1052 C 0.52684 0.72057 0.99393 0.0
C1053 C 0.56941 0.79238 0.97337 0.0
C1054 C 0.53094 0.80888 0.97468 0.0
C1055 C 0.48836 0.73693 0.99277 0.0
C1056 C 0.56765 0.74858 0.98447 0.0
C1057 C 0.49085 0.78139 0.98446 0.0
C1058 C 0.66405 0.63973 0.05515 0.0
C1059 C 0.52182 0.67227 0.99901 0.0
H1060 H 0.66007 0.32234 0.15922 0.0
H1061 H 0.71939 0.44847 0.11373 0.0
H1062 H 0.71493 0.3675 0.11629 0.0
H1063 H 0.60541 0.43886 0.18839 0.0
H1064 H 0.53139 0.84295 0.96749 0.0
H1065 H 0.456 0.71478 0.99714 0.0
H1066 H 0.59695 0.73539 0.98296 0.0
H1067 H 0.46167 0.79473 0.98542 0.0
Tb1068 Tb 0.83722 0.37228 0.2919 0.0
C1069 C 0.76422 0.24882 0.44356 0.0
N1070 N 0.8021 0.28678 0.45086 0.0
C1071 C 0.78112 0.33117 0.52568 0.0
C1072 C 0.72489 0.25724 0.47882 0.0
C1073 C 0.81058 0.32603 0.49161 0.0
C1074 C 0.73802 0.29834 0.51832 0.0
C1075 C 0.71296 0.15095 0.36871 0.0
C1076 C 0.75812 0.20094 0.3935 0.0
C1077 C 0.66377 0.14326 0.38969 0.0
C1078 C 0.67127 0.21639 0.46577 0.0
Tb1079 Tb 0.84153 0.27976 0.38391 0.0
N1080 N 0.78961 0.20689 0.36393 0.0
C1081 C 0.71799 0.1164 0.32978 0.0
C1082 C 0.78962 0.17111 0.32362 0.0
C1083 C 0.75594 0.1264 0.30796 0.0
H1084 H 0.83999 0.35557 0.49837 0.0
H1085 H 0.75856 0.09933 0.27643 0.0
H1086 H 0.77422 0.35143 0.16861 0.0
H1087 H 1.01615 0.47547 0.39716 0.0
H1088 H 0.81683 0.17651 0.30301 0.0
H1089 H 0.69279 0.08181 0.3156 0.0
H1090 H 0.93623 0.43256 0.39292 0.0
H1091 H 0.79121 0.36277 0.55797 0.0
H1092 H 0.63962 0.10851 0.37779 0.0
H1093 H 0.64831 0.22331 0.49077 0.0
H1094 H 0.78963 0.37334 0.08448 0.0
H1095 H 0.71529 0.30489 0.54352 0.0
H1096 H 0.03767 0.48462 0.31322 0.0
N1097 N 0.84487 0.38386 0.21258 0.0
C1098 C 0.88739 0.41309 0.2149 0.0
C1099 C 0.81725 0.38292 0.12078 0.0
C1100 C 0.8963 0.42718 0.16938 0.0
C1101 C 0.80886 0.37103 0.16772 0.0
C1102 C 0.8623 0.40801 0.12128 0.0
N1103 N 0.91107 0.42159 0.30878 0.0
C1104 C 0.94348 0.44136 0.35751 0.0
C1105 C 0.966 0.46008 0.26557 0.0
C1106 C 0.92142 0.43154 0.26358 0.0
C1107 C 1.00138 0.47086 0.31256 0.0
C1108 C 0.98966 0.46424 0.35967 0.0
H1109 H 0.87142 0.41275 0.08507 0.0
H1110 H 0.94085 0.47921 0.14178 0.0
H1111 H 1.00338 0.50616 0.22433 0.0
O1112 O 0.84621 0.44381 0.3282 0.0
O1113 O 0.90757 0.35222 0.30627 0.0
O1114 O 0.91412 0.3258 0.38491 0.0
O1115 O 0.78499 0.40059 0.26467 0.0
O1116 O 0.82446 0.36232 0.3667 0.0
O1117 O 0.87425 0.35225 0.43126 0.0
O1118 O 0.88377 0.24246 0.35688 0.0
O1119 O 0.76562 0.27351 0.33726 0.0
O1120 O 0.76217 0.32977 0.28675 0.0
O1121 O 0.87203 0.24534 0.43667 0.0
O1122 O 0.83365 0.29158 0.30666 0.0
O1123 O 0.816 0.30489 0.23047 0.0
C1124 C 0.93395 0.34093 0.34705 0.0
C1125 C 0.79954 0.48223 0.28058 0.0
C1126 C 0.75259 0.53463 0.27575 0.0
C1127 C 0.76975 0.54804 0.23321 0.0
C1128 C 0.81702 0.49583 0.23839 0.0
C1129 C 0.80236 0.52908 0.21508 0.0
C1130 C 0.76818 0.50248 0.29991 0.0
C1131 C 0.85647 0.38141 0.41098 0.0
C1132 C 0.80574 0.44138 0.29915 0.0
C1133 C 0.93729 0.46263 0.17408 0.0
C1134 C 0.9726 0.47827 0.2216 0.0
C1135 C 0.74031 0.29553 0.30758 0.0
C1136 C 0.89286 0.17974 0.39367 0.0
C1137 C 0.92226 0.11933 0.35219 0.0
C1138 C 0.90009 0.08839 0.37981 0.0
C1139 C 0.87141 0.149 0.42192 0.0
C1140 C 0.91925 0.16508 0.35994 0.0
C1141 C 0.87587 0.10375 0.41555 0.0
C1142 C 0.82004 0.27252 0.2554 0.0
C1143 C 0.89191 0.22855 0.40103 0.0
H1144 H 0.75781 0.57297 0.21402 0.0
H1145 H 0.84066 0.47992 0.22253 0.0
H1146 H 0.81537 0.53927 0.18209 0.0
H1147 H 0.75381 0.49116 0.33174 0.0
H1148 H 0.90343 0.05323 0.37575 0.0
H1149 H 0.85243 0.16021 0.44974 0.0
H1150 H 0.93775 0.18941 0.33992 0.0
H1151 H 0.86184 0.08106 0.43952 0.0
Tb1152 Tb 0.10654 0.62073 0.50902 0.0
C1153 C 0.09355 0.47162 0.6666 0.0
N1154 N 0.06839 0.46853 0.61648 0.0
C1155 C 0.04465 0.38397 0.59747 0.0
C1156 C 0.09617 0.43033 0.68307 0.0
C1157 C 0.04523 0.4253 0.58115 0.0
C1158 C 0.06988 0.38644 0.64833 0.0
C1159 C 0.1182 0.51428 0.75968 0.0
C1160 C 0.10589 0.51412 0.70524 0.0
C1161 C 0.13035 0.47642 0.77455 0.0
C1162 C 0.11942 0.434 0.73603 0.0
Tb1163 Tb 0.05209 0.5358 0.60565 0.0
N1164 N 0.09523 0.55157 0.69038 0.0
C1165 C 0.10948 0.54794 0.79655 0.0
C1166 C 0.09323 0.58817 0.72778 0.0
C1167 C 0.09662 0.585 0.78024 0.0
H1168 H 1.02229 0.42234 0.54293 0.0
H1169 H 0.08746 0.61042 0.80693 0.0
H1170 H 0.14112 0.73405 0.57643 0.0
H1171 H 0.04552 0.55308 0.29784 0.0
H1172 H 0.08252 0.61675 0.71654 0.0
H1173 H 0.11067 0.54387 0.83691 0.0
H1174 H 0.08055 0.55133 0.39074 0.0
H1175 H 1.02226 0.35021 0.57277 0.0
H1176 H 0.14439 0.47872 0.81614 0.0
H1177 H 0.12517 0.40349 0.74859 0.0
H1178 H 0.13358 0.80805 0.55617 0.0
H1179 H 0.06819 0.35404 0.66054 0.0
H1180 H 1.00474 0.60885 0.28043 0.0
N1181 N 0.09197 0.69012 0.50354 0.0
C1182 C 0.06337 0.68901 0.4563 0.0
C1183 C 0.11284 0.77464 0.52893 0.0
C1184 C 0.05825 0.73078 0.44391 0.0
C1185 C 0.11598 0.73237 0.54042 0.0
C1186 C 0.08508 0.77381 0.4801 0.0
N1187 N 0.06338 0.61131 0.42518 0.0
C1188 C 0.06289 0.57685 0.38351 0.0
C1189 C 1.02396 0.64645 0.364 0.0
C1190 C 0.0487 0.64814 0.41547 0.0
C1191 C 1.01995 0.6094 0.32141 0.0
C1192 C 0.04241 0.57675 0.3311 0.0
H1193 H 0.08513 0.80689 0.47084 0.0
H1194 H 1.02458 0.75978 0.38419 0.0
H1195 H 0.98761 0.68095 0.3167 0.0
O1196 O 0.15713 0.60241 0.47323 0.0
O1197 O 1.0294 0.59522 0.47719 0.0
O1198 O 0.04719 0.56612 0.54085 0.0
O1199 O 0.16641 0.67453 0.51076 0.0
O1200 O 0.1087 0.54566 0.49077 0.0
O1201 O 0.051 0.49865 0.5226 0.0
O1202 O 1.00166 0.55433 0.64027 0.0
O1203 O 0.12649 0.55235 0.62428 0.0
O1204 O 0.13112 0.61495 0.59031 0.0
O1205 O 0.99173 0.48153 0.60172 0.0
O1206 O 0.04914 0.61042 0.62685 0.0
O1207 O 0.10256 0.65756 0.59009 0.0
C1208 C 1.01321 0.57166 0.50805 0.0
C1209 C 0.17942 0.65826 0.42521 0.0
C1210 C 0.20237 0.64967 0.34228 0.0
C1211 C 0.17086 0.67182 0.32143 0.0
C1212 C 0.15242 0.68549 0.40617 0.0
C1213 C 0.14544 0.68931 0.35351 0.0
C1214 C 0.20451 0.64004 0.39273 0.0
C1215 C 0.08444 0.50376 0.49589 0.0
C1216 C 0.17874 0.64654 0.47689 0.0
C1217 C 1.02984 0.72827 0.39387 0.0
C1218 C 1.01003 0.68478 0.35527 0.0
C1219 C 0.14998 0.58386 0.60439 0.0
C1220 C 0.97635 0.49975 0.68632 0.0
C1221 C 0.9547 0.51788 0.76878 0.0
C1222 C 0.98349 0.49373 0.79169 0.0
C1223 C 1.00116 0.47194 0.70773 0.0
C1224 C 0.95331 0.52306 0.7171 0.0
C1225 C 1.00672 0.47082 0.76107 0.0
C1226 C 0.07244 0.65239 0.62097 0.0
C1227 C 0.97932 0.51014 0.63529 0.0
H1228 H 0.16778 0.67785 0.28167 0.0
H1229 H 0.13857 0.70576 0.43258 0.0
H1230 H 0.12213 0.70774 0.33853 0.0
H1231 H 0.22693 0.62039 0.40736 0.0
H1232 H 0.98598 0.48976 0.8318 0.0
H1233 H 1.01434 0.44947 0.68273 0.0
H1234 H 0.93325 0.54387 0.70022 0.0
H1235 H 1.02702 0.45037 0.77781 0.0
Tb1236 Tb 0.88627 0.79791 0.31441 0.0
C1237 C 0.73033 0.90358 0.23045 0.0
N1238 N 0.76527 0.92291 0.27679 0.0
C1239 C 0.77658 1.00028 0.26137 0.0
C1240 C 0.71918 0.93198 0.19588 0.0
C1241 C 0.78679 0.9708 0.2937 0.0
C1242 C 0.7435 0.98067 0.21188 0.0
C1243 C 0.65674 0.837 0.16665 0.0
C1244 C 0.70542 0.85586 0.21842 0.0
C1245 C 0.65496 0.86581 0.13147 0.0
C1246 C 0.68514 0.91244 0.14615 0.0
Tb1247 Tb 0.78858 0.87206 0.32169 0.0
N1248 N 0.72462 0.82603 0.25533 0.0
C1249 C 0.61923 0.7803 0.15066 0.0
C1250 C 0.70789 0.77317 0.25876 0.0
C1251 C 0.65434 0.73278 0.2142 0.0
H1252 H 0.81301 0.98623 0.33169 0.0
H1253 H 0.63583 0.69273 0.21355 0.0
H1254 H 0.86307 0.68375 0.30887 0.0
H1255 H 0.04631 0.96567 0.4007 0.0
H1256 H 0.68103 0.7475 0.23885 0.0
H1257 H 0.58889 0.7692 0.11596 0.0
H1258 H 0.96871 0.90215 0.32822 0.0
H1259 H 0.79494 0.03797 0.27423 0.0
H1260 H 0.62914 0.85265 0.09304 0.0
H1261 H 0.68015 0.93463 0.1189 0.0
H1262 H 0.87757 0.63545 0.37235 0.0
H1263 H 0.73627 1.00363 0.18665 0.0
H1264 H 0.08378 0.904 0.52324 0.0
N1265 N 0.90897 0.74868 0.36245 0.0
C1266 C 0.94209 0.76977 0.40989 0.0
C1267 C 0.8955 0.67326 0.38368 0.0
C1268 C 0.94995 0.74374 0.44862 0.0
C1269 C 0.88779 0.70068 0.34767 0.0
C1270 C 0.92537 0.69509 0.43488 0.0
N1271 N 0.95673 0.84264 0.37302 0.0
C1272 C 0.98065 0.89301 0.36416 0.0
C1273 C 1.01476 0.83703 0.47394 0.0
C1274 C 0.96954 0.81628 0.41789 0.0
C1275 C 0.05516 0.89157 0.48657 0.0
C1276 C 1.0302 0.93223 0.40876 0.0
H1277 H 0.93059 0.6736 0.46289 0.0
H1278 H 0.98522 0.74458 0.52893 0.0
H1279 H 0.03918 0.82486 0.55081 0.0
O1280 O 0.92766 0.82267 0.26512 0.0
O1281 O 0.87794 0.82565 0.3969 0.0
O1282 O 0.84586 0.88836 0.39717 0.0
O1283 O 0.89697 0.74758 0.25604 0.0
O1284 O 0.87335 0.86411 0.31665 0.0
O1285 O 0.85107 0.92466 0.31406 0.0
O1286 O 0.74396 0.84317 0.36595 0.0
O1287 O 0.79851 0.84635 0.23948 0.0
O1288 O 0.82576 0.782 0.24364 0.0
O1289 O 0.76808 0.9189 0.3741 0.0
O1290 O 0.79974 0.80558 0.32642 0.0
O1291 O 0.82458 0.74548 0.324 0.0
C1292 C 0.86309 0.85946 0.42199 0.0
C1293 C 0.96786 0.77368 0.23345 0.0
C1294 C 1.03161 0.78762 0.19202 0.0
C1295 C 0.053 0.76263 0.22331 0.0
C1296 C 0.99034 0.75129 0.26669 0.0
C1297 C 1.03183 0.74376 0.26004 0.0
C1298 C 0.98831 0.79189 0.19568 0.0
C1299 C 0.88189 0.90477 0.30374 0.0
C1300 C 0.92416 0.78018 0.23982 0.0
C1301 C 0.98225 0.76507 0.49936 0.0
C1302 C 1.01369 0.8109 0.51213 0.0
C1303 C 0.81413 0.8122 0.217 0.0
C1304 C 0.69831 0.88655 0.39874 0.0
C1305 C 0.63773 0.86372 0.44402 0.0
C1306 C 0.61743 0.89596 0.42586 0.0
C1307 C 0.67739 0.91807 0.37981 0.0
C1308 C 0.67834 0.85912 0.4309 0.0
C1309 C 0.63738 0.92309 0.39419 0.0
C1310 C 0.79185 0.76281 0.33409 0.0
C1311 C 0.74298 0.88445 0.38978 0.0
H1312 H 0.08626 0.75836 0.21981 0.0
H1313 H 0.97512 0.74064 0.29773 0.0
H1314 H 0.04841 0.72454 0.28404 0.0
H1315 H 0.97155 0.8107 0.17084 0.0
H1316 H 0.5861 0.90022 0.43624 0.0
H1317 H 0.69318 0.93981 0.3558 0.0
H1318 H 0.69442 0.83461 0.44585 0.0
H1319 H 0.62168 0.94858 0.38196 0.0
Tb1320 Tb 0.78872 0.31708 0.86961 0.0
C1321 C 0.94733 0.3035 0.72679 0.0
N1322 N 0.9464 0.33319 0.77196 0.0
C1323 C 1.02978 0.3633 0.79805 0.0
C1324 C 0.9901 0.30353 0.71511 0.0
C1325 C 0.987 0.36169 0.8086 0.0
C1326 C 1.03133 0.33485 0.75092 0.0
C1327 C 0.90668 0.25612 0.63619 0.0
C1328 C 0.90621 0.28199 0.68684 0.0
C1329 C 0.9484 0.25018 0.62768 0.0
C1330 C 0.9903 0.27591 0.66591 0.0
Tb1331 Tb 0.87678 0.34472 0.77494 0.0
N1332 N 0.86872 0.29562 0.69339 0.0
C1333 C 0.86735 0.24356 0.59311 0.0
C1334 C 0.83368 0.28978 0.64905 0.0
C1335 C 0.83124 0.26176 0.59933 0.0
H1336 H 0.98616 0.38705 0.84313 0.0
H1337 H 0.8025 0.2562 0.56539 0.0
H1338 H 0.68566 0.27231 0.78603 0.0
H1339 H 0.85891 0.46782 0.04625 0.0
H1340 H 0.80738 0.30689 0.65107 0.0
H1341 H 0.86683 0.22427 0.55367 0.0
H1342 H 0.86135 0.39564 0.98563 0.0
H1343 H 0.06116 0.38889 0.82425 0.0
H1344 H 0.94924 0.22974 0.58969 0.0
H1345 H 1.02261 0.27562 0.65595 0.0
H1346 H 0.60686 0.26638 0.79328 0.0
H1347 H 0.06467 0.338 0.74221 0.0
H1348 H 0.78217 0.4748 0.05324 0.0
N1349 N 0.71732 0.32608 0.85892 0.0
C1350 C 0.71091 0.35499 0.90087 0.0
C1351 C 0.63524 0.29236 0.82268 0.0
C1352 C 0.66613 0.35033 0.90786 0.0
C1353 C 0.68028 0.29612 0.81865 0.0
C1354 C 0.62782 0.31854 0.86777 0.0
N1355 N 0.79136 0.37795 0.93948 0.0
C1356 C 0.82894 0.40314 0.98209 0.0
C1357 C 0.74445 0.41513 0.98469 0.0
C1358 C 0.74952 0.38377 0.94088 0.0
C1359 C 0.78432 0.4477 0.02126 0.0
C1360 C 0.82736 0.44293 0.01819 0.0
H1361 H 0.59246 0.31391 0.87087 0.0
H1362 H 0.62846 0.36939 0.9647 0.0
H1363 H 0.69495 0.43314 0.02581 0.0
O1364 O 0.80478 0.26642 0.90963 0.0
O1365 O 0.85327 0.37109 0.89308 0.0
O1366 O 0.87811 0.40651 0.83298 0.0
O1367 O 0.73876 0.27843 0.90042 0.0
O1368 O 0.85651 0.3038 0.89648 0.0
O1369 O 0.91367 0.33366 0.853 0.0
O1370 O 0.8517 0.39033 0.73436 0.0
O1371 O 0.84369 0.2788 0.79298 0.0
O1372 O 0.76885 0.2656 0.79154 0.0
O1373 O 0.92543 0.39856 0.75897 0.0
O1374 O 0.80164 0.33016 0.73842 0.0
O1375 O 0.76456 0.35033 0.80392 0.0
C1376 C 0.85918 0.40672 0.8729 0.0
C1377 C 0.77304 0.27348 0.98538 0.0
C1378 C 0.80577 0.26252 0.07153 0.0
C1379 C 0.76891 0.27238 0.09023 0.0
C1380 C 0.73941 0.28897 1.00661 0.0
C1381 C 0.73635 0.28642 0.05813 0.0
C1382 C 0.80719 0.26184 0.01865 0.0
C1383 C 0.89946 0.31164 0.88957 0.0
C1384 C 0.76777 0.26239 0.92734 0.0
C1385 C 0.66154 0.37571 0.95579 0.0
C1386 C 0.70002 0.41065 0.99205 0.0
C1387 C 0.8006 0.25387 0.77057 0.0
C1388 C 0.89554 0.40677 0.67325 0.0
C1389 C 0.87779 0.43106 0.59128 0.0
C1390 C 0.90647 0.40695 0.57097 0.0
C1391 C 0.92328 0.38227 0.65151 0.0
C1392 C 0.87141 0.42996 0.64227 0.0
C1393 C 0.92742 0.38111 0.59997 0.0
C1394 C 0.76886 0.34569 0.75395 0.0
C1395 C 0.89307 0.40944 0.72854 0.0
H1396 H 0.76434 0.26762 0.12899 0.0
H1397 H 0.71275 0.29883 0.98209 0.0
H1398 H 0.70815 0.29409 0.07276 0.0
H1399 H 0.83226 0.24835 1.00234 0.0
H1400 H 0.9126 0.40693 0.53226 0.0
H1401 H 0.94478 0.36712 0.67536 0.0
H1402 H 0.84973 0.44875 0.65862 0.0
H1403 H 0.94851 0.36192 0.58335 0.0
Tb1404 Tb 0.80119 0.77886 0.77749 0.0
C1405 C 1.03279 0.96025 0.96233 0.0
N1406 N 0.97254 0.95207 0.97854 0.0
C1407 C 1.02059 0.87382 0.03959 0.0
C1408 C 0.07334 0.935 0.98214 0.0
C1409 C 0.95228 0.91523 0.0132 0.0
C1410 C 0.06697 0.89343 0.01584 0.0
C1411 C 0.08172 0.98126 0.89635 0.0
C1412 C 0.03711 0.94071 0.90465 0.0
C1413 C 0.12265 0.9838 0.93373 0.0
C1414 C 0.11811 0.95537 0.97203 0.0
Tb1415 Tb 0.90167 0.902 0.87442 0.0
N1416 N 0.97581 0.91054 0.83374 0.0
C1417 C 0.07582 0.99962 0.83777 0.0
C1418 C 0.97714 0.93105 0.78028 0.0
C1419 C 1.02688 0.97625 0.78293 0.0
H1420 H 0.91667 0.90821 0.0175 0.0
H1421 H 1.02797 0.99 0.7478 0.0
H1422 H 0.75184 0.82823 0.67382 0.0
H1423 H 0.68725 0.6332 0.88241 0.0
H1424 H 0.9482 0.9188 0.74514 0.0
H1425 H 0.10616 0.02439 0.83251 0.0
H1426 H 0.7676 0.67529 0.85591 0.0
H1427 H 1.02152 0.84632 0.06091 0.0
H1428 H 0.15666 1.0015 0.9291 0.0
H1429 H 0.14866 0.94835 0.99267 0.0
H1430 H 0.65527 0.78626 0.61575 0.0
H1431 H 0.0939 0.87668 0.02118 0.0
H1432 H 0.59913 0.64291 0.84579 0.0
N1433 N 0.73368 0.76047 0.69572 0.0
C1434 C 0.69671 0.71496 0.69397 0.0
C1435 C 0.6347 0.77711 0.60403 0.0
C1436 C 0.61523 0.68998 0.64102 0.0
C1437 C 0.72186 0.7964 0.66472 0.0
C1438 C 0.59818 0.72604 0.60505 0.0
N1439 N 0.74276 0.7151 0.79405 0.0
C1440 C 0.73645 0.68044 0.83431 0.0
C1441 C 0.61901 0.69724 0.78681 0.0
C1442 C 0.70406 0.72825 0.76106 0.0
C1443 C 0.62845 0.66312 0.83396 0.0
C1444 C 0.6843 0.65507 0.85447 0.0
H1445 H 0.56338 0.72782 0.60186 0.0
H1446 H 0.53461 0.66391 0.64286 0.0
H1447 H 0.53793 0.66344 0.74399 0.0
O1448 O 0.84955 0.7436 0.78823 0.0
O1449 O 0.76319 0.82955 0.81253 0.0
O1450 O 0.82392 0.88644 0.88251 0.0
O1451 O 0.79399 0.71944 0.71483 0.0
O1452 O 0.80507 0.78123 0.86475 0.0
O1453 O 0.87237 0.84555 0.91625 0.0
O1454 O 0.86102 0.93909 0.83727 0.0
O1455 O 0.88884 0.82898 0.81307 0.0
O1456 O 0.88271 0.8222 0.80675 0.0
O1457 O 0.89327 0.95998 0.92439 0.0
O1458 O 0.88449 0.90478 0.78518 0.0
O1459 O 0.82319 0.83398 0.73333 0.0
C1460 C 0.77703 0.86733 0.85589 0.0
C1461 C 0.82644 0.66372 0.74811 0.0
C1462 C 0.83868 0.61257 0.80616 0.0
C1463 C 0.83265 0.57608 0.76087 0.0
C1464 C 0.82668 0.62971 0.7041 0.0
C1465 C 0.82915 0.58558 0.71041 0.0
C1466 C 0.8337 0.65524 0.79937 0.0
C1467 C 0.83625 0.80648 0.91152 0.0
C1468 C 0.82952 0.71145 0.74335 0.0
C1469 C 0.56929 0.67434 0.66947 0.0
C1470 C 0.57083 0.67837 0.73511 0.0
C1471 C 0.9223 0.82341 0.78789 0.0
C1472 C 0.83724 0.99702 0.89271 0.0
C1473 C 0.84458 0.08136 0.84312 0.0
C1474 C 0.8629 0.12815 0.89878 0.0
C1475 C 0.85146 0.02884 0.95794 0.0
C1476 C 0.83251 0.0229 0.84119 0.0
C1477 C 0.87129 0.11983 0.96273 0.0
C1478 C 0.854 0.87642 0.73786 0.0
C1479 C 0.86099 0.96178 0.88474 0.0
H1480 H 0.83521 0.54191 0.7652 0.0
H1481 H 0.82594 0.63766 0.66539 0.0
H1482 H 0.82948 0.55918 0.67651 0.0
H1483 H 0.83901 0.68299 0.83492 0.0
H1484 H 0.8685 0.16379 0.89387 0.0
H1485 H 0.85481 1.00968 0.98932 0.0
H1486 H 0.82438 0.99934 0.80166 0.0
H1487 H 0.88345 0.15139 0.99643 0.0
Tb1488 Tb 0.64428 0.63704 0.61613 0.0
C1489 C 0.46604 0.39445 0.41406 0.0
N1490 N 0.47217 0.4574 0.40304 0.0
C1491 C 0.54558 0.41382 0.33132 0.0
C1492 C 0.49019 0.35492 0.38864 0.0
C1493 C 0.50588 0.48126 0.3675 0.0
C1494 C 0.52859 0.36443 0.35199 0.0
C1495 C 0.44998 0.33999 0.47683 0.0
C1496 C 0.48854 0.38698 0.46944 0.0
C1497 C 0.44568 0.30042 0.43608 0.0
C1498 C 0.47233 0.30807 0.39723 0.0
Tb1499 Tb 0.52362 0.52392 0.50994 0.0
N1500 N 0.521 0.44608 0.54326 0.0
C1501 C 0.43545 0.34184 0.53712 0.0
C1502 C 0.5038 0.44071 0.59792 0.0
C1503 C 0.46048 0.38894 0.59426 0.0
H1504 H 0.51225 0.51827 0.36629 0.0
H1505 H 0.44897 0.38531 0.63012 0.0
H1506 H 0.67265 0.62486 0.75838 0.0
H1507 H 0.72082 0.84184 0.55954 0.0
H1508 H 0.51668 0.46876 0.63416 0.0
H1509 H 0.41229 0.30975 0.54157 0.0
H1510 H 0.70521 0.73961 0.54026 0.0
H1511 H 0.57127 0.41488 0.30776 0.0
H1512 H 0.42911 0.26497 0.43904 0.0
H1513 H 0.47934 0.27827 0.37446 0.0
H1514 H 0.7094 0.73791 0.88254 0.0
H1515 H 0.54554 0.33805 0.34304 0.0
H1516 H 0.69743 0.89432 0.64883 0.0
N1517 N 0.63966 0.67271 0.71629 0.0
C1518 C 0.63765 0.73948 0.72503 0.0
C1519 C 0.68987 0.73065 0.84037 0.0
C1520 C 0.65079 0.77887 0.77741 0.0
C1521 C 0.66547 0.65871 0.76426 0.0
C1522 C 0.67655 0.77495 0.83183 0.0
N1523 N 0.67464 0.72988 0.61744 0.0
C1524 C 0.69738 0.75867 0.57465 0.0
C1525 C 0.66737 0.82872 0.69337 0.0
C1526 C 0.65658 0.76709 0.68618 0.0
C1527 C 0.69164 0.85677 0.64427 0.0
C1528 C 0.70662 0.82316 0.58696 0.0
H1529 H 0.68402 0.80273 0.86742 0.0
H1530 H 0.62631 0.83732 0.80406 0.0
H1531 H 0.65155 0.88433 0.74154 0.0
O1532 O 0.70241 0.63882 0.58468 0.0
O1533 O 0.57003 0.61714 0.55214 0.0
O1534 O 0.56122 0.60808 0.54385 0.0
O1535 O 0.70358 0.62681 0.66255 0.0
O1536 O 0.642 0.62585 0.52698 0.0
O1537 O 0.5813 0.55598 0.4729 0.0
O1538 O 0.47027 0.54402 0.53602 0.0
O1539 O 0.57402 0.49915 0.56834 0.0
O1540 O 0.64011 0.56033 0.62326 0.0
O1541 O 0.47756 0.54423 0.45439 0.0
O1542 O 0.51985 0.53942 0.5978 0.0
O1543 O 0.59298 0.59418 0.65207 0.0
C1544 C 0.55943 0.64305 0.51679 0.0
C1545 C 0.73571 0.58097 0.60602 0.0
C1546 C 0.75806 0.52952 0.53981 0.0
C1547 C 0.74923 0.49409 0.56783 0.0
C1548 C 0.73033 0.54618 0.63523 0.0
C1549 C 0.73643 0.50282 0.61581 0.0
C1550 C 0.75124 0.57298 0.55907 0.0
C1551 C 0.61949 0.59337 0.47982 0.0
C1552 C 0.72334 0.62447 0.62313 0.0
C1553 C 0.64077 0.82188 0.77365 0.0
C1554 C 0.65323 0.84868 0.7364 0.0
C1555 C 0.61565 0.51313 0.60476 0.0
C1556 C 0.42163 0.57914 0.48441 0.0
C1557 C 0.3414 0.57373 0.53728 0.0
C1558 C 0.29398 0.55794 0.48287 0.0
C1559 C 0.38904 0.56759 0.4202 0.0
C1560 C 0.39803 0.58351 0.5369 0.0
C1561 C 0.30025 0.55061 0.41794 0.0
C1562 C 0.55064 0.5637 0.64602 0.0
C1563 C 0.45931 0.55847 0.49267 0.0
H1564 H 0.75397 0.46019 0.55393 0.0
H1565 H 0.72115 0.5524 0.67314 0.0
H1566 H 0.73166 0.47608 0.6383 0.0
H1567 H 0.75751 0.6002 0.53728 0.0
H1568 H 0.25962 0.55412 0.48926 0.0
H1569 H 0.40693 0.56507 0.38805 0.0
H1570 H 0.42223 0.59077 0.5758 0.0
H1571 H 0.26866 0.54076 0.38503 0.0
Tb1572 Tb 0.04226 0.55842 0.11367 0.0
C1573 C 0.1231 0.64907 0.95624 0.0
N1574 N 0.09542 0.60647 0.95734 0.0
C1575 C 0.03392 0.60668 0.88518 0.0
C1576 C 0.10037 0.67366 0.90787 0.0
C1577 C 0.05847 0.58284 0.91389 0.0
C1578 C 0.05329 0.65321 0.88496 0.0
C1579 C 0.224 0.6884 0.96076 0.0
C1580 C 0.1796 0.65656 0.98337 0.0
C1581 C 0.18652 0.72381 0.88413 0.0
C1582 C 0.12835 0.70828 0.87368 0.0
Tb1583 Tb 0.12563 0.57114 0.02007 0.0
N1584 N 0.18865 0.63269 0.0201 0.0
C1585 C 0.26815 0.68623 0.9871 0.0
C1586 C 0.23376 0.6387 0.04541 0.0
C1587 C 0.27205 0.66328 0.02885 0.0
H1588 H 0.04575 0.54469 0.90237 0.0
H1589 H 0.30642 0.66337 0.04875 0.0
H1590 H 0.10691 0.60162 0.24226 0.0
H1591 H 0.9226 0.37931 0.02093 0.0
H1592 H 0.24077 0.62095 0.07677 0.0
H1593 H 0.30026 0.70252 0.97764 0.0
H1594 H 0.95284 0.46612 0.03169 0.0
H1595 H 1.00111 0.58729 0.85849 0.0
H1596 H 0.20104 0.74609 0.86034 0.0
H1597 H 0.10849 0.71907 0.84218 0.0
H1598 H 0.14105 0.56898 0.3148 0.0
H1599 H 0.03474 0.66791 0.85647 0.0
H1600 H 0.9592 0.34205 0.08535 0.0
N1601 N 0.07634 0.53444 0.18609 0.0
C1602 C 0.06433 0.48656 0.18057 0.0
C1603 C 0.1227 0.5464 0.27563 0.0
C1604 C 0.08388 0.46725 0.22101 0.0
C1605 C 0.10273 0.56428 0.23459 0.0
C1606 C 0.11498 0.49804 0.26801 0.0
N1607 N 1.00829 0.47713 0.10022 0.0
C1608 C 0.96887 0.45 0.06014 0.0
C1609 C 1.01091 0.40796 0.13321 0.0
C1610 C 1.0274 0.45712 0.13809 0.0
C1611 C 0.97287 0.37996 0.09035 0.0
C1612 C 0.95176 0.40106 0.05398 0.0
H1613 H 0.12973 0.48474 0.30068 0.0
H1614 H 0.08327 0.40298 0.24648 0.0
H1615 H 1.0203 0.35076 0.1685 0.0
O1616 O 0.9705 0.54842 0.09958 0.0
O1617 O 0.05404 0.49114 0.06682 0.0
O1618 O 0.08645 0.4933 0.99653 0.0
O1619 O 1.01632 0.58647 0.17748 0.0
O1620 O 1.02083 0.57903 0.04175 0.0
O1621 O 0.04993 0.53499 0.98685 0.0
O1622 O 0.17908 0.54368 0.0409 0.0
O1623 O 0.13106 0.64583 0.06593 0.0
O1624 O 0.06443 0.63351 0.09772 0.0
O1625 O 0.15573 0.54857 0.95727 0.0
O1626 O 0.13944 0.55761 0.09904 0.0
O1627 O 0.11215 0.60415 0.15204 0.0
C1628 C 0.0681 0.46785 0.02781 0.0
C1629 C 0.94696 0.60752 0.14897 0.0
C1630 C 0.904 0.65508 0.10669 0.0
C1631 C 0.88655 0.66273 0.15213 0.0
C1632 C 0.92805 0.61535 0.193 0.0
C1633 C 0.89864 0.64316 0.19481 0.0
C1634 C 0.9349 0.62768 0.10562 0.0
C1635 C 1.01625 0.55177 0.99602 0.0
C1636 C 0.97387 0.57337 0.14691 0.0
C1637 C 0.06868 0.41813 0.21559 0.0
C1638 C 1.03238 0.38849 0.17161 0.0
C1639 C 0.09992 0.66336 0.08487 0.0
C1640 C 0.22035 0.51635 0.98042 0.0
C1641 C 0.27685 0.47798 0.01048 0.0
C1642 C 0.2994 0.49019 0.97113 0.0
C1643 C 0.24238 0.52764 0.94045 0.0
C1644 C 0.23726 0.49077 0.01483 0.0
C1645 C 0.28149 0.51395 0.9355 0.0
C1646 C 0.14659 0.59007 0.1421 0.0
C1647 C 0.18495 0.53742 0.99236 0.0
H1648 H 0.86284 0.68335 0.15448 0.0
H1649 H 0.93461 0.59853 0.22536 0.0
H1650 H 0.88418 0.64857 0.22899 0.0
H1651 H 0.94821 0.62077 0.07065 0.0
H1652 H 0.33014 0.48028 0.96712 0.0
H1653 H 0.22999 0.5477 0.91393 0.0
H1654 H 0.22048 0.4819 0.04594 0.0
H1655 H 0.29772 0.52153 0.90381 0.0
loop_
_geom_bond_atom_site_label_1
_geom_bond_atom_site_label_2
_geom_bond_distance
_geom_bond_site_symmetry_2
_ccdc_geom_bond_type
C0 O1 1.160 . S
C0 O7 1.185 . S
O1 C0 1.160 . S
O2 Zn3 1.899 . S
O2 C10 1.284 . S
Zn3 O2 1.899 . S
Zn3 O4 2.032 . S
Zn3 O7 2.086 . S
Zn3 O12 1.977 . S
O4 Zn3 2.032 . S
O4 C8 1.278 . S
C5 O6 1.203 . S
C5 O12 1.267 1_655 S
O6 C5 1.203 . S
O7 C0 1.185 . S
O7 Zn3 2.086 . S
C8 O4 1.278 . S
C8 O9 1.211 . S
O9 C8 1.211 . S
C10 O2 1.284 . S
C10 O11 1.273 . S
O11 C10 1.273 . S
O12 Zn3 1.977 . S
O12 C5 1.267 1_455 S
C13 O14 1.160 . S
C13 O20 1.185 1_655 S
O14 C13 1.160 . S
O15 Zn16 1.899 . S
O15 C23 1.284 . S
Zn16 O15 1.899 . S
Zn16 O17 2.032 . S
Zn16 O20 2.086 . S
Zn16 O25 1.977 . S
O17 Zn16 2.032 . S
O17 C21 1.278 . S
C18 O19 1.203 . S
C18 O25 1.267 . S
O19 C18 1.203 . S
O20 C13 1.185 1_455 S
O20 Zn16 2.086 . S
C21 O17 1.278 . S
C21 O22 1.211 . S
O22 C21 1.211 . S
C23 O15 1.284 . S
C23 O24 1.273 . S
O24 C23 1.273 . S
O25 Zn16 1.977 . S
O25 C18 1.267 . S
C26 O27 1.160 . S
C26 O33 1.185 . S
O27 C26 1.160 . S
O28 Zn29 1.899 . S
O28 C36 1.284 . S
Zn29 O28 1.899 . S
Zn29 O30 2.032 . S
Zn29 O33 2.086 . S
Zn29 O38 1.977 . S
O30 Zn29 2.032 . S
O30 C34 1.278 . S
C31 O32 1.203 . S
C31 O38 1.267 . S
O32 C31 1.203 . S
O33 C26 1.185 . S
O33 Zn29 2.086 . S
C34 O30 1.278 . S
C34 O35 1.211 . S
O35 C34 1.211 . S
C36 O28 1.284 . S
C36 O37 1.273 . S
O37 C36 1.273 . S
O38 Zn29 1.977 . S
O38 C31 1.267 . S
C39 O40 1.160 . S
C39 O46 1.185 . S
O40 C39 1.160 . S
O41 Zn42 1.899 . S
O41 C49 1.284 . S
Zn42 O41 1.899 . S
Zn42 O43 2.032 . S
Zn42 O46 2.086 . S
Zn42 O51 1.977 . S
O43 Zn42 2.032 . S
O43 C47 1.278 . S
C44 O45 1.203 . S
C44 O51 1.267 . S
O45 C44 1.203 . S
O46 C39 1.185 . S
O46 Zn42 2.086 . S
C47 O43 1.278 . S
C47 O48 1.211 . S
O48 C47 1.211 . S
C49 O41 1.284 . S
C49 O50 1.273 . S
O50 C49 1.273 . S
O51 Zn42 1.977 . S
O51 C44 1.267 . S
C52 O53 1.160 . S
C52 O59 1.185 . S
O53 C52 1.160 . S
O54 Zn55 1.899 . S
O54 C62 1.284 . S
Zn55 O54 1.899 . S
Zn55 O56 2.032 . S
Zn55 O59 2.086 . S
Zn55 O64 1.977 . S
O56 Zn55 2.032 . S
O56 C60 1.278 . S
C57 O58 1.203 . S
C57 O64 1.267 . S
O58 C57 1.203 . S
O59 C52 1.185 . S
O59 Zn55 2.086 . S
C60 O56 1.278 . S
C60 O61 1.211 . S
O61 C60 1.211 . S
C62 O54 1.284 . S
C62 O63 1.273 . S
O63 C62 1.273 . S
O64 Zn55 1.977 . S
O64 C57 1.267 . S
C65 O66 1.160 . S
C65 O72 1.185 . S
O66 C65 1.160 . S
O67 Zn68 1.899 . S
O67 C75 1.284 . S
Zn68 O67 1.899 . S
Zn68 O69 2.032 . S
Zn68 O72 2.086 . S
Zn68 O77 1.977 . S
O69 Zn68 2.032 . S
O69 C73 1.278 . S
C70 O71 1.203 . S
C70 O77 1.267 . S
O71 C70 1.203 . S
O72 C65 1.185 . S
O72 Zn68 2.086 . S
C73 O69 1.278 . S
C73 O74 1.211 . S
O74 C73 1.211 . S
C75 O67 1.284 . S
C75 O76 1.273 . S
O76 C75 1.273 . S
O77 Zn68 1.977 . S
O77 C70 1.267 . S
C78 O79 1.160 . S
C78 O85 1.185 . S
O79 C78 1.160 . S
O80 Zn81 1.899 . S
O80 C88 1.284 . S
Zn81 O80 1.899 . S
Zn81 O82 2.032 . S
Zn81 O85 2.086 . S
Zn81 O90 1.977 . S
O82 Zn81 2.032 . S
O82 C86 1.278 . S
C83 O84 1.203 . S
C83 O90 1.267 . S
O84 C83 1.203 . S
O85 C78 1.185 . S
O85 Zn81 2.086 . S
C86 O82 1.278 . S
C86 O87 1.211 . S
O87 C86 1.211 . S
C88 O80 1.284 . S
C88 O89 1.273 . S
O89 C88 1.273 . S
O90 Zn81 1.977 . S
O90 C83 1.267 . S
C91 O92 1.160 . S
C91 O98 1.185 . S
O92 C91 1.160 . S
O93 Zn94 1.896 1_554 S
O93 C101 1.278 1_455 S
Zn94 O93 1.896 1_556 S
Zn94 O95 2.032 1_556 S
Zn94 O98 2.086 . S
Zn94 O103 1.977 1_455 S
O95 Zn94 2.032 1_554 S
O95 C99 1.278 . S
C96 O97 1.203 . S
C96 O103 1.267 . S
O97 C96 1.203 . S
O98 C91 1.185 . S
O98 Zn94 2.086 . S
C99 O95 1.278 . S
C99 O100 1.211 1_455 S
O100 C99 1.211 1_655 S
C101 O93 1.278 1_655 S
C101 O102 1.273 . S
O102 C101 1.273 . S
O103 Zn94 1.977 1_655 S
O103 C96 1.267 . S
C104 O105 1.160 . S
C104 O111 1.185 . S
O105 C104 1.160 . S
O106 Zn107 1.898 . S
O106 C114 1.279 1_545 S
Zn107 O106 1.898 . S
Zn107 O108 2.032 . S
Zn107 O111 2.086 . S
Zn107 O116 1.977 1_545 S
O108 Zn107 2.032 . S
O108 C112 1.278 . S
C109 O110 1.203 . S
C109 O116 1.267 . S
O110 C109 1.203 . S
O111 C104 1.185 . S
O111 Zn107 2.086 . S
C112 O108 1.278 . S
C112 O113 1.211 1_545 S
O113 C112 1.211 1_565 S
C114 O106 1.279 1_565 S
C114 O115 1.273 . S
O115 C114 1.273 . S
O116 Zn107 1.977 1_565 S
O116 C109 1.267 . S
C117 O118 1.160 . S
C117 O124 1.185 . S
O118 C117 1.160 . S
O119 Zn120 1.899 . S
O119 C127 1.284 . S
Zn120 O119 1.899 . S
Zn120 O121 2.032 . S
Zn120 O124 2.086 . S
Zn120 O129 1.977 . S
O121 Zn120 2.032 . S
O121 C125 1.278 . S
C122 O123 1.203 . S
C122 O129 1.267 . S
O123 C122 1.203 . S
O124 C117 1.185 . S
O124 Zn120 2.086 . S
C125 O121 1.278 . S
C125 O126 1.211 . S
O126 C125 1.211 . S
C127 O119 1.284 . S
C127 O128 1.273 . S
O128 C127 1.273 . S
O129 Zn120 1.977 . S
O129 C122 1.267 . S
C130 O131 1.160 . S
C130 O137 1.185 . S
O131 C130 1.160 . S
O132 Zn133 1.899 . S
O132 C140 1.284 . S
Zn133 O132 1.899 . S
Zn133 O134 2.032 . S
Zn133 O137 2.086 . S
Zn133 O142 1.977 . S
O134 Zn133 2.032 . S
O134 C138 1.278 . S
C135 O136 1.203 . S
C135 O142 1.267 . S
O136 C135 1.203 . S
O137 C130 1.185 . S
O137 Zn133 2.086 . S
C138 O134 1.278 . S
C138 O139 1.211 . S
O139 C138 1.211 . S
C140 O132 1.284 . S
C140 O141 1.273 . S
O141 C140 1.273 . S
O142 Zn133 1.977 . S
O142 C135 1.267 . S
C143 O144 1.160 1_545 S
C143 O150 1.185 1_554 S
O144 C143 1.160 1_565 S
O145 Zn146 1.899 . S
O145 C153 1.284 . S
Zn146 O145 1.899 . S
Zn146 O147 2.032 1_554 S
Zn146 O150 2.086 1_564 S
Zn146 O155 1.977 1_565 S
O147 Zn146 2.032 1_556 S
O147 C151 1.278 . S
C148 O149 1.203 . S
C148 O155 1.267 . S
O149 C148 1.203 . S
O150 C143 1.185 1_556 S
O150 Zn146 2.086 1_546 S
C151 O147 1.278 . S
C151 O152 1.211 . S
O152 C151 1.211 . S
C153 O145 1.284 . S
C153 O154 1.273 . S
O154 C153 1.273 . S
O155 Zn146 1.977 1_545 S
O155 C148 1.267 . S
C156 O157 1.160 . S
C156 O163 1.185 . S
O157 C156 1.160 . S
O158 Zn159 1.899 . S
O158 C166 1.284 . S
Zn159 O158 1.899 . S
Zn159 O160 2.032 . S
Zn159 O163 2.086 . S
Zn159 O168 1.977 . S
O160 Zn159 2.032 . S
O160 C164 1.278 1_554 S
C161 O162 1.203 . S
C161 O168 1.267 . S
O162 C161 1.203 . S
O163 C156 1.185 . S
O163 Zn159 2.086 . S
C164 O160 1.278 1_556 S
C164 O165 1.211 1_556 S
O165 C164 1.211 1_554 S
C166 O158 1.284 . S
C166 O167 1.273 . S
O167 C166 1.273 . S
O168 Zn159 1.977 . S
O168 C161 1.267 . S
C169 O170 1.160 . S
C169 O176 1.185 . S
O170 C169 1.160 . S
O171 Zn172 1.899 . S
O171 C179 1.284 . S
Zn172 O171 1.899 . S
Zn172 O173 2.032 . S
Zn172 O176 2.086 . S
Zn172 O181 1.977 . S
O173 Zn172 2.032 . S
O173 C177 1.278 . S
C174 O175 1.203 . S
C174 O181 1.267 . S
O175 C174 1.203 . S
O176 C169 1.185 . S
O176 Zn172 2.086 . S
C177 O173 1.278 . S
C177 O178 1.211 . S
O178 C177 1.211 . S
C179 O171 1.284 . S
C179 O180 1.273 . S
O180 C179 1.273 . S
O181 Zn172 1.977 . S
O181 C174 1.267 . S
C182 O183 1.160 . S
C182 O189 1.185 . S
O183 C182 1.160 . S
O184 Zn185 1.899 . S
O184 C192 1.284 . S
Zn185 O184 1.899 . S
Zn185 O186 2.032 . S
Zn185 O189 2.086 . S
Zn185 O194 1.977 . S
O186 Zn185 2.032 . S
O186 C190 1.278 . S
C187 O188 1.203 . S
C187 O194 1.267 . S
O188 C187 1.203 . S
O189 C182 1.185 . S
O189 Zn185 2.086 . S
C190 O186 1.278 . S
C190 O191 1.211 . S
O191 C190 1.211 . S
C192 O184 1.284 . S
C192 O193 1.273 . S
O193 C192 1.273 . S
O194 Zn185 1.977 . S
O194 C187 1.267 . S
C195 O196 1.160 . S
C195 O202 1.185 . S
O196 C195 1.160 . S
O197 Zn198 1.899 . S
O197 C205 1.284 . S
Zn198 O197 1.899 . S
Zn198 O199 2.032 . S
Zn198 O202 2.086 . S
Zn198 O207 1.977 . S
O199 Zn198 2.032 . S
O199 C203 1.278 . S
C200 O201 1.203 . S
C200 O207 1.267 . S
O201 C200 1.203 . S
O202 C195 1.185 . S
O202 Zn198 2.086 . S
C203 O199 1.278 . S
C203 O204 1.211 . S
O204 C203 1.211 . S
C205 O197 1.284 . S
C205 O206 1.273 . S
O206 C205 1.273 . S
O207 Zn198 1.977 . S
O207 C200 1.267 . S
C208 O209 1.160 . S
C208 O215 1.185 . S
O209 C208 1.160 . S
O210 Zn211 1.899 . S
O210 C218 1.284 1_655 S
Zn211 O210 1.899 . S
Zn211 O212 2.032 . S
Zn211 O215 2.086 . S
Zn211 O220 1.977 1_545 S
O212 Zn211 2.032 . S
O212 C216 1.278 1_655 S
C213 O214 1.203 . S
C213 O220 1.267 . S
O214 C213 1.203 . S
O215 C208 1.185 . S
O215 Zn211 2.086 . S
C216 O212 1.278 1_455 S
C216 O217 1.211 1_545 S
O217 C216 1.211 1_565 S
C218 O210 1.284 1_455 S
C218 O219 1.273 . S
O219 C218 1.273 . S
O220 Zn211 1.977 1_565 S
O220 C213 1.267 . S
C221 O222 1.160 . S
C221 O228 1.185 . S
O222 C221 1.160 . S
O223 Zn224 1.899 . S
O223 C231 1.284 . S
Zn224 O223 1.899 . S
Zn224 O225 2.032 . S
Zn224 O228 2.086 . S
Zn224 O233 1.977 . S
O225 Zn224 2.032 . S
O225 C229 1.278 . S
C226 O227 1.203 . S
C226 O233 1.267 . S
O227 C226 1.203 . S
O228 C221 1.185 . S
O228 Zn224 2.086 . S
C229 O225 1.278 . S
C229 O230 1.211 . S
O230 C229 1.211 . S
C231 O223 1.284 . S
C231 O232 1.273 . S
O232 C231 1.273 . S
O233 Zn224 1.977 . S
O233 C226 1.267 . S
C234 O235 1.160 . S
C234 O241 1.185 . S
O235 C234 1.160 . S
O236 Zn237 1.899 . S
O236 C244 1.284 . S
Zn237 O236 1.899 . S
Zn237 O238 2.032 . S
Zn237 O241 2.086 . S
Zn237 O246 1.977 . S
O238 Zn237 2.032 . S
O238 C242 1.278 . S
C239 O240 1.203 . S
C239 O246 1.267 . S
O240 C239 1.203 . S
O241 C234 1.185 . S
O241 Zn237 2.086 . S
C242 O238 1.278 . S
C242 O243 1.211 . S
O243 C242 1.211 . S
C244 O236 1.284 . S
C244 O245 1.273 . S
O245 C244 1.273 . S
O246 Zn237 1.977 . S
O246 C239 1.267 . S
C247 O248 1.160 . S
C247 O254 1.185 . S
O248 C247 1.160 . S
O249 Zn250 1.899 . S
O249 C257 1.284 . S
Zn250 O249 1.899 . S
Zn250 O251 2.032 . S
Zn250 O254 2.086 . S
Zn250 O259 1.977 . S
O251 Zn250 2.032 . S
O251 C255 1.278 . S
C252 O253 1.203 . S
C252 O259 1.267 . S
O253 C252 1.203 . S
O254 C247 1.185 . S
O254 Zn250 2.086 . S
C255 O251 1.278 . S
C255 O256 1.211 . S
O256 C255 1.211 . S
C257 O249 1.284 . S
C257 O258 1.273 . S
O258 C257 1.273 . S
O259 Zn250 1.977 . S
O259 C252 1.267 . S
C260 O261 1.160 . S
C260 O267 1.185 . S
O261 C260 1.160 . S
O262 Zn263 1.899 . S
O262 C270 1.284 . S
Zn263 O262 1.899 . S
Zn263 O264 2.032 1_554 S
Zn263 O267 2.086 . S
Zn263 O272 1.977 . S
O264 Zn263 2.032 1_556 S
O264 C268 1.278 . S
C265 O266 1.203 . S
C265 O272 1.267 . S
O266 C265 1.203 . S
O267 C260 1.185 . S
O267 Zn263 2.086 . S
C268 O264 1.278 . S
C268 O269 1.211 . S
O269 C268 1.211 . S
C270 O262 1.284 . S
C270 O271 1.273 . S
O271 C270 1.273 . S
O272 Zn263 1.977 . S
O272 C265 1.267 . S
C273 O274 1.160 . S
C273 O280 1.185 . S
O274 C273 1.160 . S
O275 Zn276 1.899 . S
O275 C283 1.284 . S
Zn276 O275 1.899 . S
Zn276 O277 2.032 . S
Zn276 O280 2.086 . S
Zn276 O285 1.977 . S
O277 Zn276 2.032 . S
O277 C281 1.278 . S
C278 O279 1.203 . S
C278 O285 1.267 . S
O279 C278 1.203 . S
O280 C273 1.185 . S
O280 Zn276 2.086 . S
C281 O277 1.278 . S
C281 O282 1.211 . S
O282 C281 1.211 . S
C283 O275 1.284 . S
C283 O284 1.273 . S
O284 C283 1.273 . S
O285 Zn276 1.977 . S
O285 C278 1.267 . S
C286 O287 1.160 . S
C286 O293 1.185 . S
O287 C286 1.160 . S
O288 Zn289 1.899 . S
O288 C296 1.284 . S
Zn289 O288 1.899 . S
Zn289 O290 2.032 . S
Zn289 O293 2.086 . S
Zn289 O298 1.977 . S
O290 Zn289 2.032 . S
O290 C294 1.278 . S
C291 O292 1.203 . S
C291 O298 1.267 . S
O292 C291 1.203 . S
O293 C286 1.185 . S
O293 Zn289 2.086 . S
C294 O290 1.278 . S
C294 O295 1.211 . S
O295 C294 1.211 . S
C296 O288 1.284 . S
C296 O297 1.273 . S
O297 C296 1.273 . S
O298 Zn289 1.977 . S
O298 C291 1.267 . S
C299 O300 1.160 . S
C299 O306 1.185 . S
O300 C299 1.160 . S
O301 Zn302 1.899 . S
O301 C309 1.284 . S
Zn302 O301 1.899 . S
Zn302 O303 2.032 . S
Zn302 O306 2.086 . S
Zn302 O311 1.977 . S
O303 Zn302 2.032 . S
O303 C307 1.278 . S
C304 O305 1.203 . S
C304 O311 1.267 . S
O305 C304 1.203 . S
O306 C299 1.185 . S
O306 Zn302 2.086 . S
C307 O303 1.278 . S
C307 O308 1.211 . S
O308 C307 1.211 . S
C309 O301 1.284 . S
C309 O310 1.273 . S
O310 C309 1.273 . S
O311 Zn302 1.977 . S
O311 C304 1.267 . S
Tb312 N341 2.617 . S
Tb312 N347 2.572 . S
Tb312 O356 2.465 . S
Tb312 O357 2.387 . S
Tb312 O359 2.428 . S
Tb312 O360 2.308 . S
Tb312 O364 2.349 . S
Tb312 O367 2.393 . S
Tb312 C376 2.802 . S
C313 N314 1.379 . S
C313 C316 1.416 . S
C313 C320 1.424 . S
N314 C313 1.379 . S
N314 C317 1.334 . S
N314 Tb323 2.617 1_566 S
C315 C317 1.390 . S
C315 C318 1.339 . S
C315 H335 0.930 . S
C316 C313 1.416 . S
C316 C318 1.416 . S
C316 C322 1.448 . S
C317 N314 1.334 . S
C317 C315 1.390 . S
C317 H328 0.930 . S
C318 C315 1.339 . S
C318 C316 1.416 . S
C318 H339 0.930 . S
C319 C320 1.413 . S
C319 C321 1.427 . S
C319 C325 1.416 1_556 S
C320 C313 1.424 . S
C320 C319 1.413 . S
C320 N324 1.361 1_556 S
C321 C319 1.427 . S
C321 C322 1.328 . S
C321 H336 0.929 . S
C322 C316 1.448 . S
C322 C321 1.328 . S
C322 H337 0.930 . S
Tb323 N314 2.617 1_544 S
Tb323 N324 2.572 1_545 S
Tb323 O358 2.349 1_655 S
Tb323 O361 2.393 1_654 S
Tb323 O362 2.465 . S
Tb323 O363 2.387 1_645 S
Tb323 O365 2.428 1_554 S
Tb323 O366 2.308 1_655 S
Tb323 C387 2.802 1_554 S
N324 C320 1.361 1_554 S
N324 Tb323 2.572 1_565 S
N324 C326 1.340 . S
C325 C319 1.416 1_554 S
C325 C327 1.332 . S
C325 H333 0.931 . S
C326 N324 1.340 . S
C326 C327 1.407 . S
C326 H332 0.930 . S
C327 C325 1.332 . S
C327 C326 1.407 . S
C327 H329 0.929 . S
H328 C317 0.930 . S
H329 C327 0.929 . S
H330 C345 0.930 . S
H331 C352 0.929 . S
H332 C326 0.930 . S
H333 C325 0.931 . S
H334 C348 0.930 . S
H335 C315 0.930 . S
H336 C321 0.929 . S
H337 C322 0.930 . S
H338 C343 0.930 . S
H339 C318 0.930 . S
H340 C351 0.931 . S
N341 Tb312 2.617 . S
N341 C342 1.379 . S
N341 C345 1.334 . S
C342 N341 1.379 . S
C342 C344 1.416 . S
C342 C350 1.424 . S
C343 H338 0.930 . S
C343 C345 1.390 . S
C343 C346 1.339 . S
C344 C342 1.416 . S
C344 C346 1.416 . S
C344 C377 1.448 . S
C345 H330 0.930 . S
C345 N341 1.334 . S
C345 C343 1.390 . S
C346 C343 1.339 . S
C346 C344 1.416 . S
C346 H353 0.930 . S
N347 Tb312 2.572 . S
N347 C348 1.340 . S
N347 C350 1.361 . S
C348 H334 0.930 . S
C348 N347 1.340 . S
C348 C352 1.407 . S
C349 C350 1.413 . S
C349 C351 1.416 . S
C349 C378 1.427 . S
C350 C342 1.424 . S
C350 N347 1.361 . S
C350 C349 1.413 . S
C351 H340 0.931 . S
C351 C349 1.416 . S
C351 C352 1.332 . S
C352 H331 0.929 . S
C352 C348 1.407 . S
C352 C351 1.332 . S
H353 C346 0.930 . S
H354 C377 0.930 . S
H355 C378 0.929 . S
O356 Tb312 2.465 . S
O356 C376 1.264 . S
O357 Tb312 2.387 . S
O357 C368 1.264 . S
O358 Tb323 2.349 1_455 S
O358 C368 1.243 . S
O359 Tb312 2.428 . S
O359 C376 1.256 . S
O360 Tb312 2.308 . S
O360 C375 1.266 1_554 S
O361 Tb323 2.393 1_456 S
O361 C375 1.248 . S
O362 Tb323 2.465 . S
O362 C387 1.264 1_554 S
O363 Tb323 2.387 1_465 S
O363 C379 1.264 . S
O364 Tb312 2.349 . S
O364 C379 1.243 1_545 S
O365 Tb323 2.428 1_556 S
O365 C387 1.256 . S
O366 Tb323 2.308 1_455 S
O366 C386 1.266 . S
O367 Tb312 2.393 . S
O367 C386 1.248 . S
C368 O357 1.264 . S
C368 O358 1.243 . S
C369 C372 1.399 . S
C369 C374 1.383 . S
C369 C376 1.496 . S
C370 C371 1.399 . S
C370 C374 1.389 . S
C371 C370 1.399 . S
C371 C373 1.380 . S
C371 H388 0.929 . S
C372 C369 1.399 . S
C372 C373 1.392 . S
C372 H389 0.929 . S
C373 C371 1.380 . S
C373 C372 1.392 . S
C373 H390 0.929 . S
C374 C369 1.383 . S
C374 C370 1.389 . S
C374 H391 0.931 . S
C375 O360 1.266 1_556 S
C375 O361 1.248 . S
C376 Tb312 2.802 . S
C376 O356 1.264 . S
C376 O359 1.256 . S
C376 C369 1.496 . S
C377 C344 1.448 . S
C377 H354 0.930 . S
C377 C378 1.328 . S
C378 C349 1.427 . S
C378 H355 0.929 . S
C378 C377 1.328 . S
C379 O363 1.264 . S
C379 O364 1.243 1_565 S
C380 C383 1.399 . S
C380 C384 1.383 1_556 S
C380 C387 1.496 . S
C381 C382 1.399 1_554 S
C381 C384 1.389 . S
C382 C381 1.399 1_556 S
C382 C385 1.380 . S
C382 H392 0.929 . S
C383 C380 1.399 . S
C383 C385 1.392 . S
C383 H393 0.929 . S
C384 C380 1.383 1_554 S
C384 C381 1.389 . S
C384 H394 0.931 . S
C385 C382 1.380 . S
C385 C383 1.392 . S
C385 H395 0.929 . S
C386 O366 1.266 . S
C386 O367 1.248 . S
C387 Tb323 2.802 1_556 S
C387 O362 1.264 1_556 S
C387 O365 1.256 . S
C387 C380 1.496 . S
H388 C371 0.929 . S
H389 C372 0.929 . S
H390 C373 0.929 . S
H391 C374 0.931 . S
H392 C382 0.929 . S
H393 C383 0.929 . S
H394 C384 0.931 . S
H395 C385 0.929 . S
Tb396 N425 2.617 . S
Tb396 N431 2.572 . S
Tb396 O440 2.465 . S
Tb396 O441 2.387 . S
Tb396 O443 2.428 . S
Tb396 O444 2.308 . S
Tb396 O448 2.349 . S
Tb396 O451 2.393 . S
Tb396 C460 2.802 . S
C397 N398 1.379 . S
C397 C400 1.416 . S
C397 C404 1.424 . S
N398 C397 1.379 . S
N398 C401 1.334 . S
N398 Tb407 2.617 . S
C399 C401 1.390 . S
C399 C402 1.339 . S
C399 H419 0.930 . S
C400 C397 1.416 . S
C400 C402 1.416 . S
C400 C406 1.448 . S
C401 N398 1.334 . S
C401 C399 1.390 . S
C401 H412 0.930 . S
C402 C399 1.339 . S
C402 C400 1.416 . S
C402 H423 0.930 . S
C403 C404 1.413 . S
C403 C405 1.427 . S
C403 C409 1.416 . S
C404 C397 1.424 . S
C404 C403 1.413 . S
C404 N408 1.361 . S
C405 C403 1.427 . S
C405 C406 1.328 . S
C405 H420 0.929 . S
C406 C400 1.448 . S
C406 C405 1.328 . S
C406 H421 0.930 . S
Tb407 N398 2.617 . S
Tb407 N408 2.572 . S
Tb407 O442 2.349 . S
Tb407 O445 2.393 . S
Tb407 O446 2.465 . S
Tb407 O447 2.387 . S
Tb407 O449 2.428 . S
Tb407 O450 2.308 . S
Tb407 C471 2.802 . S
N408 C404 1.361 . S
N408 Tb407 2.572 . S
N408 C410 1.340 . S
C409 C403 1.416 . S
C409 C411 1.332 . S
C409 H417 0.931 . S
C410 N408 1.340 . S
C410 C411 1.407 . S
C410 H416 0.930 . S
C411 C409 1.332 . S
C411 C410 1.407 . S
C411 H413 0.929 . S
H412 C401 0.930 . S
H413 C411 0.929 . S
H414 C429 0.930 . S
H415 C436 0.929 . S
H416 C410 0.930 . S
H417 C409 0.931 . S
H418 C432 0.930 . S
H419 C399 0.930 . S
H420 C405 0.929 . S
H421 C406 0.930 . S
H422 C427 0.930 . S
H423 C402 0.930 . S
H424 C435 0.931 . S
N425 Tb396 2.617 . S
N425 C426 1.379 . S
N425 C429 1.334 . S
C426 N425 1.379 . S
C426 C428 1.416 . S
C426 C434 1.424 . S
C427 H422 0.930 . S
C427 C429 1.390 . S
C427 C430 1.339 . S
C428 C426 1.416 . S
C428 C430 1.416 . S
C428 C461 1.448 . S
C429 H414 0.930 . S
C429 N425 1.334 . S
C429 C427 1.390 . S
C430 C427 1.339 . S
C430 C428 1.416 . S
C430 H437 0.930 . S
N431 Tb396 2.572 . S
N431 C432 1.340 . S
N431 C434 1.361 . S
C432 H418 0.930 . S
C432 N431 1.340 . S
C432 C436 1.407 . S
C433 C434 1.413 . S
C433 C435 1.416 . S
C433 C462 1.427 . S
C434 C426 1.424 . S
C434 N431 1.361 . S
C434 C433 1.413 . S
C435 H424 0.931 . S
C435 C433 1.416 . S
C435 C436 1.332 . S
C436 H415 0.929 . S
C436 C432 1.407 . S
C436 C435 1.332 . S
H437 C430 0.930 . S
H438 C461 0.930 . S
H439 C462 0.929 1_545 S
O440 Tb396 2.465 . S
O440 C460 1.264 . S
O441 Tb396 2.387 . S
O441 C452 1.264 . S
O442 Tb407 2.349 . S
O442 C452 1.243 . S
O443 Tb396 2.428 . S
O443 C460 1.256 . S
O444 Tb396 2.308 . S
O444 C459 1.266 . S
O445 Tb407 2.393 . S
O445 C459 1.248 . S
O446 Tb407 2.465 . S
O446 C471 1.264 . S
O447 Tb407 2.387 . S
O447 C463 1.264 . S
O448 Tb396 2.349 . S
O448 C463 1.243 . S
O449 Tb407 2.428 . S
O449 C471 1.256 . S
O450 Tb407 2.308 . S
O450 C470 1.266 . S
O451 Tb396 2.393 . S
O451 C470 1.248 . S
C452 O441 1.264 . S
C452 O442 1.243 . S
C453 C456 1.399 . S
C453 C458 1.383 . S
C453 C460 1.496 . S
C454 C455 1.399 . S
C454 C458 1.389 . S
C455 C454 1.399 . S
C455 C457 1.380 . S
C455 H472 0.929 . S
C456 C453 1.399 . S
C456 C457 1.392 . S
C456 H473 0.929 . S
C457 C455 1.380 . S
C457 C456 1.392 . S
C457 H474 0.929 . S
C458 C453 1.383 . S
C458 C454 1.389 . S
C458 H475 0.931 . S
C459 O444 1.266 . S
C459 O445 1.248 . S
C460 Tb396 2.802 . S
C460 O440 1.264 . S
C460 O443 1.256 . S
C460 C453 1.496 . S
C461 C428 1.448 . S
C461 H438 0.930 . S
C461 C462 1.328 . S
C462 C433 1.427 . S
C462 H439 0.929 1_565 S
C462 C461 1.328 . S
C463 O447 1.264 . S
C463 O448 1.243 . S
C464 C467 1.399 . S
C464 C468 1.383 . S
C464 C471 1.496 . S
C465 C466 1.399 . S
C465 C468 1.389 . S
C466 C465 1.399 . S
C466 C469 1.380 . S
C466 H476 0.929 . S
C467 C464 1.399 . S
C467 C469 1.392 . S
C467 H477 0.929 . S
C468 C464 1.383 . S
C468 C465 1.389 . S
C468 H478 0.931 . S
C469 C466 1.380 . S
C469 C467 1.392 . S
C469 H479 0.929 . S
C470 O450 1.266 . S
C470 O451 1.248 . S
C471 Tb407 2.802 . S
C471 O446 1.264 . S
C471 O449 1.256 . S
C471 C464 1.496 . S
H472 C455 0.929 . S
H473 C456 0.929 . S
H474 C457 0.929 . S
H475 C458 0.931 . S
H476 C466 0.929 . S
H477 C467 0.929 . S
H478 C468 0.931 . S
H479 C469 0.929 . S
Tb480 N509 2.617 . S
Tb480 N515 2.572 1_545 S
Tb480 O524 2.465 . S
Tb480 O525 2.387 1_545 S
Tb480 O527 2.428 . S
Tb480 O528 2.308 . S
Tb480 O532 2.349 . S
Tb480 O535 2.393 . S
Tb480 C544 2.802 . S
C481 N482 1.379 . S
C481 C484 1.416 . S
C481 C488 1.424 . S
N482 C481 1.379 . S
N482 C485 1.334 . S
N482 Tb491 2.617 . S
C483 C485 1.390 . S
C483 C486 1.339 . S
C483 H503 0.930 . S
C484 C481 1.416 . S
C484 C486 1.416 . S
C484 C490 1.448 . S
C485 N482 1.334 . S
C485 C483 1.390 . S
C485 H496 0.930 . S
C486 C483 1.339 . S
C486 C484 1.416 . S
C486 H507 0.930 . S
C487 C488 1.413 . S
C487 C489 1.427 . S
C487 C493 1.416 . S
C488 C481 1.424 . S
C488 C487 1.413 . S
C488 N492 1.361 . S
C489 C487 1.427 . S
C489 C490 1.328 . S
C489 H504 0.929 . S
C490 C484 1.448 . S
C490 C489 1.328 . S
C490 H505 0.930 . S
Tb491 N482 2.617 . S
Tb491 N492 2.572 . S
Tb491 O526 2.349 1_545 S
Tb491 O529 2.393 . S
Tb491 O530 2.465 . S
Tb491 O531 2.387 . S
Tb491 O533 2.428 . S
Tb491 O534 2.308 . S
Tb491 C555 2.802 . S
N492 C488 1.361 . S
N492 Tb491 2.572 . S
N492 C494 1.340 . S
C493 C487 1.416 . S
C493 C495 1.332 . S
C493 H501 0.931 . S
C494 N492 1.340 . S
C494 C495 1.407 . S
C494 H500 0.930 . S
C495 C493 1.332 . S
C495 C494 1.407 . S
C495 H497 0.929 . S
H496 C485 0.930 . S
H497 C495 0.929 . S
H498 C513 0.930 . S
H499 C520 0.929 . S
H500 C494 0.930 . S
H501 C493 0.931 . S
H502 C516 0.930 . S
H503 C483 0.930 . S
H504 C489 0.929 . S
H505 C490 0.930 . S
H506 C511 0.930 . S
H507 C486 0.930 . S
H508 C519 0.931 . S
N509 Tb480 2.617 . S
N509 C510 1.379 1_545 S
N509 C513 1.334 . S
C510 N509 1.379 1_565 S
C510 C512 1.416 . S
C510 C518 1.424 . S
C511 H506 0.930 . S
C511 C513 1.390 . S
C511 C514 1.339 1_545 S
C512 C510 1.416 . S
C512 C514 1.416 . S
C512 C545 1.448 . S
C513 H498 0.930 . S
C513 N509 1.334 . S
C513 C511 1.390 . S
C514 C511 1.339 1_565 S
C514 C512 1.416 . S
C514 H521 0.930 . S
N515 Tb480 2.572 1_565 S
N515 C516 1.340 . S
N515 C518 1.361 . S
C516 H502 0.930 . S
C516 N515 1.340 . S
C516 C520 1.407 . S
C517 C518 1.413 . S
C517 C519 1.416 . S
C517 C546 1.427 . S
C518 C510 1.424 . S
C518 N515 1.361 . S
C518 C517 1.413 . S
C519 H508 0.931 . S
C519 C517 1.416 . S
C519 C520 1.332 . S
C520 H499 0.929 . S
C520 C516 1.407 . S
C520 C519 1.332 . S
H521 C514 0.930 . S
H522 C545 0.930 . S
H523 C546 0.929 . S
O524 Tb480 2.465 . S
O524 C544 1.264 . S
O525 Tb480 2.387 1_565 S
O525 C536 1.264 . S
O526 Tb491 2.349 1_565 S
O526 C536 1.243 . S
O527 Tb480 2.428 . S
O527 C544 1.256 . S
O528 Tb480 2.308 . S
O528 C543 1.266 . S
O529 Tb491 2.393 . S
O529 C543 1.248 . S
O530 Tb491 2.465 . S
O530 C555 1.264 . S
O531 Tb491 2.387 . S
O531 C547 1.264 . S
O532 Tb480 2.349 . S
O532 C547 1.243 . S
O533 Tb491 2.428 . S
O533 C555 1.256 . S
O534 Tb491 2.308 . S
O534 C554 1.266 . S
O535 Tb480 2.393 . S
O535 C554 1.248 . S
C536 O525 1.264 . S
C536 O526 1.243 . S
C537 C540 1.399 . S
C537 C542 1.383 . S
C537 C544 1.496 . S
C538 C539 1.399 . S
C538 C542 1.389 . S
C539 C538 1.399 . S
C539 C541 1.380 . S
C539 H556 0.929 . S
C540 C537 1.399 . S
C540 C541 1.392 . S
C540 H557 0.929 . S
C541 C539 1.380 . S
C541 C540 1.392 . S
C541 H558 0.929 . S
C542 C537 1.383 . S
C542 C538 1.389 . S
C542 H559 0.931 . S
C543 O528 1.266 . S
C543 O529 1.248 . S
C544 Tb480 2.802 . S
C544 O524 1.264 . S
C544 O527 1.256 . S
C544 C537 1.496 . S
C545 C512 1.448 . S
C545 H522 0.930 . S
C545 C546 1.328 . S
C546 C517 1.427 . S
C546 H523 0.929 . S
C546 C545 1.328 . S
C547 O531 1.264 . S
C547 O532 1.243 . S
C548 C551 1.399 . S
C548 C552 1.383 . S
C548 C555 1.496 1_565 S
C549 C550 1.399 . S
C549 C552 1.389 . S
C550 C549 1.399 . S
C550 C553 1.380 . S
C550 H560 0.929 . S
C551 C548 1.399 . S
C551 C553 1.392 . S
C551 H561 0.929 . S
C552 C548 1.383 . S
C552 C549 1.389 . S
C552 H562 0.931 . S
C553 C550 1.380 . S
C553 C551 1.392 . S
C553 H563 0.929 . S
C554 O534 1.266 . S
C554 O535 1.248 . S
C555 Tb491 2.802 . S
C555 O530 1.264 . S
C555 O533 1.256 . S
C555 C548 1.496 1_545 S
H556 C539 0.929 . S
H557 C540 0.929 . S
H558 C541 0.929 . S
H559 C542 0.931 . S
H560 C550 0.929 . S
H561 C551 0.929 . S
H562 C552 0.931 . S
H563 C553 0.929 . S
Tb564 N593 2.617 . S
Tb564 N599 2.572 . S
Tb564 O608 2.465 . S
Tb564 O609 2.387 . S
Tb564 O611 2.428 . S
Tb564 O612 2.308 . S
Tb564 O616 2.349 . S
Tb564 O619 2.393 . S
Tb564 C628 2.802 . S
C565 N566 1.379 . S
C565 C568 1.416 . S
C565 C572 1.424 . S
N566 C565 1.379 . S
N566 C569 1.334 . S
N566 Tb575 2.617 . S
C567 C569 1.390 . S
C567 C570 1.339 . S
C567 H587 0.930 . S
C568 C565 1.416 . S
C568 C570 1.416 . S
C568 C574 1.448 . S
C569 N566 1.334 . S
C569 C567 1.390 . S
C569 H580 0.930 . S
C570 C567 1.339 . S
C570 C568 1.416 . S
C570 H591 0.930 . S
C571 C572 1.413 . S
C571 C573 1.427 . S
C571 C577 1.416 . S
C572 C565 1.424 . S
C572 C571 1.413 . S
C572 N576 1.361 . S
C573 C571 1.427 . S
C573 C574 1.328 . S
C573 H588 0.929 . S
C574 C568 1.448 . S
C574 C573 1.328 . S
C574 H589 0.930 . S
Tb575 N566 2.617 . S
Tb575 N576 2.572 . S
Tb575 O610 2.349 . S
Tb575 O613 2.393 . S
Tb575 O614 2.465 . S
Tb575 O615 2.387 . S
Tb575 O617 2.428 . S
Tb575 O618 2.308 . S
Tb575 C639 2.802 . S
N576 C572 1.361 . S
N576 Tb575 2.572 . S
N576 C578 1.340 . S
C577 C571 1.416 . S
C577 C579 1.332 . S
C577 H585 0.931 . S
C578 N576 1.340 . S
C578 C579 1.407 . S
C578 H584 0.930 . S
C579 C577 1.332 . S
C579 C578 1.407 . S
C579 H581 0.929 . S
H580 C569 0.930 . S
H581 C579 0.929 . S
H582 C597 0.930 . S
H583 C604 0.929 . S
H584 C578 0.930 . S
H585 C577 0.931 . S
H586 C600 0.930 . S
H587 C567 0.930 . S
H588 C573 0.929 . S
H589 C574 0.930 . S
H590 C595 0.930 . S
H591 C570 0.930 . S
H592 C603 0.931 1_554 S
N593 Tb564 2.617 . S
N593 C594 1.379 . S
N593 C597 1.334 . S
C594 N593 1.379 . S
C594 C596 1.416 . S
C594 C602 1.424 . S
C595 H590 0.930 . S
C595 C597 1.390 . S
C595 C598 1.339 . S
C596 C594 1.416 . S
C596 C598 1.416 . S
C596 C629 1.448 1_556 S
C597 H582 0.930 . S
C597 N593 1.334 . S
C597 C595 1.390 . S
C598 C595 1.339 . S
C598 C596 1.416 . S
C598 H605 0.930 . S
N599 Tb564 2.572 . S
N599 C600 1.340 . S
N599 C602 1.361 . S
C600 H586 0.930 . S
C600 N599 1.340 . S
C600 C604 1.407 . S
C601 C602 1.413 . S
C601 C603 1.416 . S
C601 C630 1.427 1_556 S
C602 C594 1.424 . S
C602 N599 1.361 . S
C602 C601 1.413 . S
C603 H592 0.931 1_556 S
C603 C601 1.416 . S
C603 C604 1.332 . S
C604 H583 0.929 . S
C604 C600 1.407 . S
C604 C603 1.332 . S
H605 C598 0.930 . S
H606 C629 0.930 . S
H607 C630 0.929 . S
O608 Tb564 2.465 . S
O608 C628 1.264 . S
O609 Tb564 2.387 . S
O609 C620 1.264 . S
O610 Tb575 2.349 . S
O610 C620 1.243 . S
O611 Tb564 2.428 . S
O611 C628 1.256 . S
O612 Tb564 2.308 . S
O612 C627 1.266 . S
O613 Tb575 2.393 . S
O613 C627 1.248 . S
O614 Tb575 2.465 . S
O614 C639 1.264 . S
O615 Tb575 2.387 . S
O615 C631 1.264 . S
O616 Tb564 2.349 . S
O616 C631 1.243 . S
O617 Tb575 2.428 . S
O617 C639 1.256 . S
O618 Tb575 2.308 . S
O618 C638 1.266 . S
O619 Tb564 2.393 . S
O619 C638 1.248 . S
C620 O609 1.264 . S
C620 O610 1.243 . S
C621 C624 1.399 . S
C621 C626 1.383 . S
C621 C628 1.496 . S
C622 C623 1.399 . S
C622 C626 1.389 . S
C623 C622 1.399 . S
C623 C625 1.380 . S
C623 H640 0.929 . S
C624 C621 1.399 . S
C624 C625 1.392 . S
C624 H641 0.929 . S
C625 C623 1.380 . S
C625 C624 1.392 . S
C625 H642 0.929 . S
C626 C621 1.383 . S
C626 C622 1.389 . S
C626 H643 0.931 . S
C627 O612 1.266 . S
C627 O613 1.248 . S
C628 Tb564 2.802 . S
C628 O608 1.264 . S
C628 O611 1.256 . S
C628 C621 1.496 . S
C629 C596 1.448 1_554 S
C629 H606 0.930 . S
C629 C630 1.328 . S
C630 C601 1.427 1_554 S
C630 H607 0.929 . S
C630 C629 1.328 . S
C631 O615 1.264 . S
C631 O616 1.243 . S
C632 C635 1.399 . S
C632 C636 1.383 . S
C632 C639 1.496 . S
C633 C634 1.399 . S
C633 C636 1.389 . S
C634 C633 1.399 . S
C634 C637 1.380 . S
C634 H644 0.929 . S
C635 C632 1.399 . S
C635 C637 1.392 . S
C635 H645 0.929 . S
C636 C632 1.383 . S
C636 C633 1.389 . S
C636 H646 0.931 . S
C637 C634 1.380 . S
C637 C635 1.392 . S
C637 H647 0.929 . S
C638 O618 1.266 . S
C638 O619 1.248 . S
C639 Tb575 2.802 . S
C639 O614 1.264 . S
C639 O617 1.256 . S
C639 C632 1.496 . S
H640 C623 0.929 . S
H641 C624 0.929 . S
H642 C625 0.929 . S
H643 C626 0.931 . S
H644 C634 0.929 . S
H645 C635 0.929 . S
H646 C636 0.931 . S
H647 C637 0.929 . S
Tb648 N677 2.617 1_545 S
Tb648 N683 2.572 1_545 S
Tb648 O692 2.465 1_545 S
Tb648 O693 2.387 . S
Tb648 O695 2.428 1_545 S
Tb648 O696 2.308 . S
Tb648 O700 2.349 . S
Tb648 O703 2.393 . S
Tb648 C712 2.802 1_545 S
C649 N650 1.379 1_455 S
C649 C652 1.416 1_455 S
C649 C656 1.424 . S
N650 C649 1.379 1_655 S
N650 C653 1.334 . S
N650 Tb659 2.617 1_655 S
C651 C653 1.390 . S
C651 C654 1.339 . S
C651 H671 0.930 . S
C652 C649 1.416 1_655 S
C652 C654 1.416 . S
C652 C658 1.448 1_655 S
C653 N650 1.334 . S
C653 C651 1.390 . S
C653 H664 0.930 . S
C654 C651 1.339 . S
C654 C652 1.416 . S
C654 H675 0.930 . S
C655 C656 1.413 . S
C655 C657 1.427 . S
C655 C661 1.416 . S
C656 C649 1.424 . S
C656 C655 1.413 . S
C656 N660 1.361 . S
C657 C655 1.427 . S
C657 C658 1.328 . S
C657 H672 0.929 . S
C658 C652 1.448 1_455 S
C658 C657 1.328 . S
C658 H673 0.930 . S
Tb659 N650 2.617 1_455 S
Tb659 N660 2.572 . S
Tb659 O694 2.349 . S
Tb659 O697 2.393 1_455 S
Tb659 O698 2.465 . S
Tb659 O699 2.387 . S
Tb659 O701 2.428 1_455 S
Tb659 O702 2.308 . S
Tb659 C723 2.802 . S
N660 C656 1.361 . S
N660 Tb659 2.572 . S
N660 C662 1.340 . S
C661 C655 1.416 . S
C661 C663 1.332 . S
C661 H669 0.931 . S
C662 N660 1.340 . S
C662 C663 1.407 . S
C662 H668 0.930 . S
C663 C661 1.332 . S
C663 C662 1.407 . S
C663 H665 0.929 . S
H664 C653 0.930 . S
H665 C663 0.929 . S
H666 C681 0.930 . S
H667 C688 0.929 . S
H668 C662 0.930 . S
H669 C661 0.931 . S
H670 C684 0.930 . S
H671 C651 0.930 . S
H672 C657 0.929 . S
H673 C658 0.930 . S
H674 C679 0.930 1_545 S
H675 C654 0.930 . S
H676 C687 0.931 . S
N677 Tb648 2.617 1_565 S
N677 C678 1.379 . S
N677 C681 1.334 1_565 S
C678 N677 1.379 . S
C678 C680 1.416 . S
C678 C686 1.424 . S
C679 H674 0.930 1_565 S
C679 C681 1.390 1_565 S
C679 C682 1.339 . S
C680 C678 1.416 . S
C680 C682 1.416 . S
C680 C713 1.448 . S
C681 H666 0.930 . S
C681 N677 1.334 1_545 S
C681 C679 1.390 1_545 S
C682 C679 1.339 . S
C682 C680 1.416 . S
C682 H689 0.930 . S
N683 Tb648 2.572 1_565 S
N683 C684 1.340 1_455 S
N683 C686 1.361 . S
C684 H670 0.930 . S
C684 N683 1.340 1_655 S
C684 C688 1.407 . S
C685 C686 1.413 . S
C685 C687 1.416 1_455 S
C685 C714 1.427 . S
C686 C678 1.424 . S
C686 N683 1.361 . S
C686 C685 1.413 . S
C687 H676 0.931 . S
C687 C685 1.416 1_655 S
C687 C688 1.332 . S
C688 H667 0.929 . S
C688 C684 1.407 . S
C688 C687 1.332 . S
H689 C682 0.930 . S
H690 C713 0.930 . S
H691 C714 0.929 . S
O692 Tb648 2.465 1_565 S
O692 C712 1.264 . S
O693 Tb648 2.387 . S
O693 C704 1.264 . S
O694 Tb659 2.349 . S
O694 C704 1.243 . S
O695 Tb648 2.428 1_565 S
O695 C712 1.256 . S
O696 Tb648 2.308 . S
O696 C711 1.266 1_455 S
O697 Tb659 2.393 1_655 S
O697 C711 1.248 . S
O698 Tb659 2.465 . S
O698 C723 1.264 . S
O699 Tb659 2.387 . S
O699 C715 1.264 . S
O700 Tb648 2.349 . S
O700 C715 1.243 . S
O701 Tb659 2.428 1_655 S
O701 C723 1.256 1_655 S
O702 Tb659 2.308 . S
O702 C722 1.266 . S
O703 Tb648 2.393 . S
O703 C722 1.248 . S
C704 O693 1.264 . S
C704 O694 1.243 . S
C705 C708 1.399 . S
C705 C710 1.383 . S
C705 C712 1.496 . S
C706 C707 1.399 . S
C706 C710 1.389 . S
C707 C706 1.399 . S
C707 C709 1.380 . S
C707 H724 0.929 . S
C708 C705 1.399 . S
C708 C709 1.392 . S
C708 H725 0.929 . S
C709 C707 1.380 . S
C709 C708 1.392 . S
C709 H726 0.929 . S
C710 C705 1.383 . S
C710 C706 1.389 . S
C710 H727 0.931 . S
C711 O696 1.266 1_655 S
C711 O697 1.248 . S
C712 Tb648 2.802 1_565 S
C712 O692 1.264 . S
C712 O695 1.256 . S
C712 C705 1.496 . S
C713 C680 1.448 . S
C713 H690 0.930 . S
C713 C714 1.328 . S
C714 C685 1.427 . S
C714 H691 0.929 . S
C714 C713 1.328 . S
C715 O699 1.264 . S
C715 O700 1.243 . S
C716 C719 1.386 1_455 S
C716 C720 1.392 . S
C716 C723 1.500 . S
C717 C718 1.399 1_455 S
C717 C720 1.389 . S
C718 C717 1.399 1_655 S
C718 C721 1.380 . S
C718 H728 0.929 . S
C719 C716 1.386 1_655 S
C719 C721 1.392 . S
C719 H729 0.929 . S
C720 C716 1.392 . S
C720 C717 1.389 . S
C720 H730 0.931 . S
C721 C718 1.380 . S
C721 C719 1.392 . S
C721 H731 0.929 . S
C722 O702 1.266 . S
C722 O703 1.248 . S
C723 Tb659 2.802 . S
C723 O698 1.264 . S
C723 O701 1.256 1_455 S
C723 C716 1.500 . S
H724 C707 0.929 . S
H725 C708 0.929 . S
H726 C709 0.929 . S
H727 C710 0.931 . S
H728 C718 0.929 . S
H729 C719 0.929 . S
H730 C720 0.931 . S
H731 C721 0.929 . S
Tb732 N761 2.617 . S
Tb732 N767 2.572 . S
Tb732 O776 2.465 . S
Tb732 O777 2.387 . S
Tb732 O779 2.428 . S
Tb732 O780 2.308 . S
Tb732 O784 2.349 . S
Tb732 O787 2.393 . S
Tb732 C796 2.802 . S
C733 N734 1.379 . S
C733 C736 1.416 . S
C733 C740 1.424 . S
N734 C733 1.379 . S
N734 C737 1.334 . S
N734 Tb743 2.617 . S
C735 C737 1.390 1_554 S
C735 C738 1.339 . S
C735 H755 0.930 . S
C736 C733 1.416 . S
C736 C738 1.416 1_556 S
C736 C742 1.448 . S
C737 N734 1.334 . S
C737 C735 1.390 1_556 S
C737 H748 0.931 1_556 S
C738 C735 1.339 . S
C738 C736 1.416 1_554 S
C738 H759 0.930 . S
C739 C740 1.413 . S
C739 C741 1.427 . S
C739 C745 1.416 . S
C740 C733 1.424 . S
C740 C739 1.413 . S
C740 N744 1.361 . S
C741 C739 1.427 . S
C741 C742 1.328 . S
C741 H756 0.929 . S
C742 C736 1.448 . S
C742 C741 1.328 . S
C742 H757 0.930 . S
Tb743 N734 2.617 . S
Tb743 N744 2.572 . S
Tb743 O778 2.349 . S
Tb743 O781 2.393 . S
Tb743 O782 2.465 . S
Tb743 O783 2.387 . S
Tb743 O785 2.428 . S
Tb743 O786 2.308 . S
Tb743 C807 2.802 . S
N744 C740 1.361 . S
N744 Tb743 2.572 . S
N744 C746 1.340 . S
C745 C739 1.416 . S
C745 C747 1.332 . S
C745 H753 0.931 . S
C746 N744 1.340 . S
C746 C747 1.407 . S
C746 H752 0.930 . S
C747 C745 1.332 . S
C747 C746 1.407 . S
C747 H749 0.929 . S
H748 C737 0.931 1_554 S
H749 C747 0.929 . S
H750 C765 0.930 . S
H751 C772 0.933 . S
H752 C746 0.930 . S
H753 C745 0.931 . S
H754 C768 0.930 . S
H755 C735 0.930 . S
H756 C741 0.929 . S
H757 C742 0.930 . S
H758 C763 0.930 . S
H759 C738 0.930 . S
H760 C771 0.931 . S
N761 Tb732 2.617 . S
N761 C762 1.379 . S
N761 C765 1.334 . S
C762 N761 1.379 . S
C762 C764 1.416 . S
C762 C770 1.424 . S
C763 H758 0.930 . S
C763 C765 1.390 . S
C763 C766 1.339 . S
C764 C762 1.416 . S
C764 C766 1.416 . S
C764 C797 1.448 . S
C765 H750 0.930 . S
C765 N761 1.334 . S
C765 C763 1.390 . S
C766 C763 1.339 . S
C766 C764 1.416 . S
C766 H773 0.930 . S
N767 Tb732 2.572 . S
N767 C768 1.340 . S
N767 C770 1.361 . S
C768 H754 0.930 . S
C768 N767 1.340 . S
C768 C772 1.403 1_565 S
C769 C770 1.413 . S
C769 C771 1.416 1_565 S
C769 C798 1.427 . S
C770 C762 1.424 . S
C770 N767 1.361 . S
C770 C769 1.413 . S
C771 H760 0.931 . S
C771 C769 1.416 1_545 S
C771 C772 1.333 . S
C772 H751 0.933 . S
C772 C768 1.403 1_545 S
C772 C771 1.333 . S
H773 C766 0.930 . S
H774 C797 0.930 . S
H775 C798 0.929 1_545 S
O776 Tb732 2.465 . S
O776 C796 1.264 . S
O777 Tb732 2.387 . S
O777 C788 1.264 . S
O778 Tb743 2.349 . S
O778 C788 1.243 . S
O779 Tb732 2.428 . S
O779 C796 1.256 . S
O780 Tb732 2.308 . S
O780 C795 1.266 . S
O781 Tb743 2.393 . S
O781 C795 1.248 . S
O782 Tb743 2.465 . S
O782 C807 1.264 . S
O783 Tb743 2.387 . S
O783 C799 1.264 . S
O784 Tb732 2.349 . S
O784 C799 1.243 . S
O785 Tb743 2.428 . S
O785 C807 1.256 . S
O786 Tb743 2.308 . S
O786 C806 1.266 . S
O787 Tb732 2.393 . S
O787 C806 1.248 . S
C788 O777 1.264 . S
C788 O778 1.243 . S
C789 C792 1.399 . S
C789 C794 1.383 . S
C789 C796 1.496 . S
C790 C791 1.399 . S
C790 C794 1.389 1_545 S
C791 C790 1.399 . S
C791 C793 1.380 1_545 S
C791 H808 0.929 . S
C792 C789 1.399 . S
C792 C793 1.392 . S
C792 H809 0.929 . S
C793 C791 1.380 1_565 S
C793 C792 1.392 . S
C793 H810 0.929 . S
C794 C789 1.383 . S
C794 C790 1.389 1_565 S
C794 H811 0.931 . S
C795 O780 1.266 . S
C795 O781 1.248 . S
C796 Tb732 2.802 . S
C796 O776 1.264 . S
C796 O779 1.256 . S
C796 C789 1.496 . S
C797 C764 1.448 . S
C797 H774 0.930 . S
C797 C798 1.328 . S
C798 C769 1.427 . S
C798 H775 0.929 1_565 S
C798 C797 1.328 . S
C799 O783 1.264 . S
C799 O784 1.243 . S
C800 C803 1.399 . S
C800 C804 1.383 . S
C800 C807 1.496 . S
C801 C802 1.399 . S
C801 C804 1.389 . S
C802 C801 1.399 . S
C802 C805 1.380 . S
C802 H812 0.929 . S
C803 C800 1.399 . S
C803 C805 1.392 . S
C803 H813 0.929 . S
C804 C800 1.383 . S
C804 C801 1.389 . S
C804 H814 0.931 . S
C805 C802 1.380 . S
C805 C803 1.392 . S
C805 H815 0.924 1_556 S
C806 O786 1.266 . S
C806 O787 1.248 . S
C807 Tb743 2.802 . S
C807 O782 1.264 . S
C807 O785 1.256 . S
C807 C800 1.496 . S
H808 C791 0.929 . S
H809 C792 0.929 . S
H810 C793 0.929 . S
H811 C794 0.931 . S
H812 C802 0.929 . S
H813 C803 0.929 . S
H814 C804 0.931 . S
H815 C805 0.924 1_554 S
Tb816 N845 2.617 1_554 S
Tb816 N851 2.572 1_554 S
Tb816 O860 2.465 1_554 S
Tb816 O861 2.387 . S
Tb816 O863 2.428 1_554 S
Tb816 O864 2.308 1_554 S
Tb816 O868 2.349 . S
Tb816 O871 2.393 . S
Tb816 C880 2.802 1_554 S
C817 N818 1.379 . S
C817 C820 1.416 . S
C817 C824 1.424 1_565 S
N818 C817 1.379 . S
N818 C821 1.334 . S
N818 Tb827 2.617 1_565 S
C819 C821 1.390 . S
C819 C822 1.339 . S
C819 H839 0.930 . S
C820 C817 1.416 . S
C820 C822 1.416 . S
C820 C826 1.448 . S
C821 N818 1.334 . S
C821 C819 1.390 . S
C821 H832 0.930 . S
C822 C819 1.339 . S
C822 C820 1.416 . S
C822 H843 0.930 . S
C823 C824 1.413 . S
C823 C825 1.427 . S
C823 C829 1.416 . S
C824 C817 1.424 1_545 S
C824 C823 1.413 . S
C824 N828 1.361 . S
C825 C823 1.427 . S
C825 C826 1.328 1_545 S
C825 H840 0.929 . S
C826 C820 1.448 . S
C826 C825 1.328 1_565 S
C826 H841 0.930 . S
Tb827 N818 2.617 1_545 S
Tb827 N828 2.572 . S
Tb827 O862 2.349 . S
Tb827 O865 2.393 1_545 S
Tb827 O866 2.465 . S
Tb827 O867 2.387 . S
Tb827 O869 2.428 1_545 S
Tb827 O870 2.308 . S
Tb827 C891 2.802 1_545 S
N828 C824 1.361 . S
N828 Tb827 2.572 . S
N828 C830 1.340 . S
C829 C823 1.416 . S
C829 C831 1.332 . S
C829 H837 0.931 . S
C830 N828 1.340 . S
C830 C831 1.407 . S
C830 H836 0.930 . S
C831 C829 1.332 . S
C831 C830 1.407 . S
C831 H833 0.929 . S
H832 C821 0.930 . S
H833 C831 0.929 . S
H834 C849 0.930 . S
H835 C856 0.929 . S
H836 C830 0.930 . S
H837 C829 0.931 . S
H838 C852 0.930 . S
H839 C819 0.930 . S
H840 C825 0.929 . S
H841 C826 0.930 . S
H842 C847 0.930 1_554 S
H843 C822 0.930 . S
H844 C855 0.931 1_565 S
N845 Tb816 2.617 1_556 S
N845 C846 1.379 . S
N845 C849 1.334 1_556 S
C846 N845 1.379 . S
C846 C848 1.416 . S
C846 C854 1.424 . S
C847 H842 0.930 1_556 S
C847 C849 1.390 1_556 S
C847 C850 1.339 . S
C848 C846 1.416 . S
C848 C850 1.416 . S
C848 C881 1.448 . S
C849 H834 0.930 . S
C849 N845 1.334 1_554 S
C849 C847 1.390 1_554 S
C850 C847 1.339 . S
C850 C848 1.416 . S
C850 H857 0.930 . S
N851 Tb816 2.572 1_556 S
N851 C852 1.340 . S
N851 C854 1.361 . S
C852 H838 0.930 . S
C852 N851 1.340 . S
C852 C856 1.407 1_545 S
C853 C854 1.413 . S
C853 C855 1.416 . S
C853 C882 1.427 . S
C854 C846 1.424 . S
C854 N851 1.361 . S
C854 C853 1.413 . S
C855 H844 0.931 1_545 S
C855 C853 1.416 . S
C855 C856 1.332 1_545 S
C856 H835 0.929 . S
C856 C852 1.407 1_565 S
C856 C855 1.332 1_565 S
H857 C850 0.930 . S
H858 C881 0.930 . S
H859 C882 0.929 . S
O860 Tb816 2.465 1_556 S
O860 C880 1.264 . S
O861 Tb816 2.387 . S
O861 C872 1.264 . S
O862 Tb827 2.349 . S
O862 C872 1.243 . S
O863 Tb816 2.428 1_556 S
O863 C880 1.256 . S
O864 Tb816 2.308 1_556 S
O864 C879 1.266 1_546 S
O865 Tb827 2.393 1_565 S
O865 C879 1.248 . S
O866 Tb827 2.465 . S
O866 C891 1.264 1_545 S
O867 Tb827 2.387 . S
O867 C883 1.264 . S
O868 Tb816 2.349 . S
O868 C883 1.243 . S
O869 Tb827 2.428 1_565 S
O869 C891 1.256 . S
O870 Tb827 2.308 . S
O870 C890 1.266 . S
O871 Tb816 2.393 . S
O871 C890 1.248 . S
C872 O861 1.264 . S
C872 O862 1.243 . S
C873 C876 1.399 . S
C873 C878 1.383 . S
C873 C880 1.496 . S
C874 C875 1.399 . S
C874 C878 1.389 . S
C875 C874 1.399 . S
C875 C877 1.380 . S
C875 H892 0.929 . S
C876 C873 1.399 . S
C876 C877 1.392 . S
C876 H893 0.929 . S
C877 C875 1.380 . S
C877 C876 1.392 . S
C877 H894 0.929 . S
C878 C873 1.383 . S
C878 C874 1.389 . S
C878 H895 0.931 . S
C879 O864 1.266 1_564 S
C879 O865 1.248 . S
C880 Tb816 2.802 1_556 S
C880 O860 1.264 . S
C880 O863 1.256 . S
C880 C873 1.496 . S
C881 C848 1.448 . S
C881 H858 0.930 . S
C881 C882 1.328 . S
C882 C853 1.427 . S
C882 H859 0.929 . S
C882 C881 1.328 . S
C883 O867 1.264 . S
C883 O868 1.243 . S
C884 C887 1.399 . S
C884 C888 1.390 . S
C884 C891 1.496 . S
C885 C886 1.399 . S
C885 C888 1.393 . S
C886 C885 1.399 . S
C886 C889 1.380 . S
C886 H896 0.929 . S
C887 C884 1.399 . S
C887 C889 1.392 . S
C887 H897 0.929 . S
C888 C884 1.390 . S
C888 C885 1.393 . S
C888 H898 0.921 1_565 S
C889 C886 1.380 . S
C889 C887 1.392 . S
C889 H899 0.929 . S
C890 O870 1.266 . S
C890 O871 1.248 . S
C891 Tb827 2.802 1_565 S
C891 O866 1.264 1_565 S
C891 O869 1.256 . S
C891 C884 1.496 . S
H892 C875 0.929 . S
H893 C876 0.929 . S
H894 C877 0.929 . S
H895 C878 0.931 . S
H896 C886 0.929 . S
H897 C887 0.929 . S
H898 C888 0.921 1_545 S
H899 C889 0.929 . S
Tb900 N929 2.617 . S
Tb900 N935 2.572 . S
Tb900 O944 2.465 . S
Tb900 O945 2.387 . S
Tb900 O947 2.428 . S
Tb900 O948 2.308 . S
Tb900 O952 2.349 . S
Tb900 O955 2.393 . S
Tb900 C964 2.802 . S
C901 N902 1.379 . S
C901 C904 1.416 . S
C901 C908 1.424 . S
N902 C901 1.379 . S
N902 C905 1.334 . S
N902 Tb911 2.617 . S
C903 C905 1.390 . S
C903 C906 1.339 . S
C903 H923 0.930 . S
C904 C901 1.416 . S
C904 C906 1.416 . S
C904 C910 1.448 . S
C905 N902 1.334 . S
C905 C903 1.390 . S
C905 H916 0.930 . S
C906 C903 1.339 . S
C906 C904 1.416 . S
C906 H927 0.930 . S
C907 C908 1.413 . S
C907 C909 1.427 . S
C907 C913 1.416 . S
C908 C901 1.424 . S
C908 C907 1.413 . S
C908 N912 1.361 . S
C909 C907 1.427 . S
C909 C910 1.328 . S
C909 H924 0.929 . S
C910 C904 1.448 . S
C910 C909 1.328 . S
C910 H925 0.930 . S
Tb911 N902 2.617 . S
Tb911 N912 2.572 . S
Tb911 O946 2.349 . S
Tb911 O949 2.393 . S
Tb911 O950 2.465 . S
Tb911 O951 2.387 . S
Tb911 O953 2.428 . S
Tb911 O954 2.308 . S
Tb911 C975 2.802 . S
N912 C908 1.361 . S
N912 Tb911 2.572 . S
N912 C914 1.340 . S
C913 C907 1.416 . S
C913 C915 1.332 . S
C913 H921 0.931 . S
C914 N912 1.340 . S
C914 C915 1.407 . S
C914 H920 0.930 . S
C915 C913 1.332 . S
C915 C914 1.407 . S
C915 H917 0.929 . S
H916 C905 0.930 . S
H917 C915 0.929 . S
H918 C933 0.930 . S
H919 C940 0.929 . S
H920 C914 0.930 . S
H921 C913 0.931 . S
H922 C936 0.930 . S
H923 C903 0.930 . S
H924 C909 0.929 . S
H925 C910 0.930 . S
H926 C931 0.930 . S
H927 C906 0.930 . S
H928 C939 0.931 . S
N929 Tb900 2.617 . S
N929 C930 1.379 . S
N929 C933 1.334 . S
C930 N929 1.379 . S
C930 C932 1.416 . S
C930 C938 1.424 . S
C931 H926 0.930 . S
C931 C933 1.390 . S
C931 C934 1.339 . S
C932 C930 1.416 . S
C932 C934 1.416 . S
C932 C965 1.448 . S
C933 H918 0.930 . S
C933 N929 1.334 . S
C933 C931 1.390 . S
C934 C931 1.339 . S
C934 C932 1.416 . S
C934 H941 0.930 . S
N935 Tb900 2.572 . S
N935 C936 1.340 . S
N935 C938 1.361 . S
C936 H922 0.930 . S
C936 N935 1.340 . S
C936 C940 1.407 . S
C937 C938 1.413 . S
C937 C939 1.416 . S
C937 C966 1.427 . S
C938 C930 1.424 . S
C938 N935 1.361 . S
C938 C937 1.413 . S
C939 H928 0.931 . S
C939 C937 1.416 . S
C939 C940 1.332 . S
C940 H919 0.929 . S
C940 C936 1.407 . S
C940 C939 1.332 . S
H941 C934 0.930 . S
H942 C965 0.930 . S
H943 C966 0.929 . S
O944 Tb900 2.465 . S
O944 C964 1.264 . S
O945 Tb900 2.387 . S
O945 C956 1.264 . S
O946 Tb911 2.349 . S
O946 C956 1.243 . S
O947 Tb900 2.428 . S
O947 C964 1.256 . S
O948 Tb900 2.308 . S
O948 C963 1.266 . S
O949 Tb911 2.393 . S
O949 C963 1.248 . S
O950 Tb911 2.465 . S
O950 C975 1.264 . S
O951 Tb911 2.387 . S
O951 C967 1.264 . S
O952 Tb900 2.349 . S
O952 C967 1.243 . S
O953 Tb911 2.428 . S
O953 C975 1.256 . S
O954 Tb911 2.308 . S
O954 C974 1.266 . S
O955 Tb900 2.393 . S
O955 C974 1.248 . S
C956 O945 1.264 . S
C956 O946 1.243 . S
C957 C960 1.399 . S
C957 C962 1.383 . S
C957 C964 1.496 . S
C958 C959 1.399 . S
C958 C962 1.389 . S
C959 C958 1.399 . S
C959 C961 1.380 . S
C959 H976 0.929 . S
C960 C957 1.399 . S
C960 C961 1.392 . S
C960 H977 0.929 . S
C961 C959 1.380 . S
C961 C960 1.392 . S
C961 H978 0.929 . S
C962 C957 1.383 . S
C962 C958 1.389 . S
C962 H979 0.931 . S
C963 O948 1.266 . S
C963 O949 1.248 . S
C964 Tb900 2.802 . S
C964 O944 1.264 . S
C964 O947 1.256 . S
C964 C957 1.496 . S
C965 C932 1.448 . S
C965 H942 0.930 . S
C965 C966 1.328 . S
C966 C937 1.427 . S
C966 H943 0.929 . S
C966 C965 1.328 . S
C967 O951 1.264 . S
C967 O952 1.243 . S
C968 C971 1.399 . S
C968 C972 1.383 . S
C968 C975 1.496 . S
C969 C970 1.399 . S
C969 C972 1.389 . S
C970 C969 1.399 . S
C970 C973 1.380 . S
C970 H980 0.929 . S
C971 C968 1.399 . S
C971 C973 1.392 . S
C971 H981 0.929 . S
C972 C968 1.383 . S
C972 C969 1.389 . S
C972 H982 0.931 . S
C973 C970 1.380 . S
C973 C971 1.392 . S
C973 H983 0.929 . S
C974 O954 1.266 . S
C974 O955 1.248 . S
C975 Tb911 2.802 . S
C975 O950 1.264 . S
C975 O953 1.256 . S
C975 C968 1.496 . S
H976 C959 0.929 . S
H977 C960 0.929 . S
H978 C961 0.929 . S
H979 C962 0.931 . S
H980 C970 0.929 . S
H981 C971 0.929 . S
H982 C972 0.931 . S
H983 C973 0.929 . S
Tb984 N1013 2.617 1_554 S
Tb984 N1019 2.572 1_554 S
Tb984 O1028 2.465 . S
Tb984 O1029 2.387 1_554 S
Tb984 O1031 2.428 . S
Tb984 O1032 2.308 . S
Tb984 O1036 2.349 . S
Tb984 O1039 2.393 . S
Tb984 C1048 2.802 . S
C985 N986 1.379 . S
C985 C988 1.416 . S
C985 C992 1.424 . S
N986 C985 1.379 . S
N986 C989 1.334 . S
N986 Tb995 2.617 . S
C987 C989 1.390 . S
C987 C990 1.339 . S
C987 H1007 0.930 . S
C988 C985 1.416 . S
C988 C990 1.416 . S
C988 C994 1.448 . S
C989 N986 1.334 . S
C989 C987 1.390 . S
C989 H1000 0.930 . S
C990 C987 1.339 . S
C990 C988 1.416 . S
C990 H1011 0.930 . S
C991 C992 1.413 . S
C991 C993 1.427 . S
C991 C997 1.416 . S
C992 C985 1.424 . S
C992 C991 1.413 . S
C992 N996 1.361 . S
C993 C991 1.427 . S
C993 C994 1.328 . S
C993 H1008 0.929 . S
C994 C988 1.448 . S
C994 C993 1.328 . S
C994 H1009 0.930 . S
Tb995 N986 2.617 . S
Tb995 N996 2.572 . S
Tb995 O1030 2.349 1_554 S
Tb995 O1033 2.393 . S
Tb995 O1034 2.465 . S
Tb995 O1035 2.387 . S
Tb995 O1037 2.428 . S
Tb995 O1038 2.308 . S
Tb995 C1059 2.802 . S
N996 C992 1.361 . S
N996 Tb995 2.572 . S
N996 C998 1.340 . S
C997 C991 1.416 . S
C997 C999 1.332 . S
C997 H1005 0.931 . S
C998 N996 1.340 . S
C998 C999 1.407 . S
C998 H1004 0.930 . S
C999 C997 1.332 . S
C999 C998 1.407 . S
C999 H1001 0.929 . S
H1000 C989 0.930 . S
H1001 C999 0.929 . S
H1002 C1017 0.930 1_554 S
H1003 C1024 0.929 . S
H1004 C998 0.930 . S
H1005 C997 0.931 . S
H1006 C1020 0.945 . S
H1007 C987 0.930 . S
H1008 C993 0.929 . S
H1009 C994 0.930 . S
H1010 C1015 0.930 . S
H1011 C990 0.930 . S
H1012 C1023 0.931 . S
N1013 Tb984 2.617 1_556 S
N1013 C1014 1.379 . S
N1013 C1017 1.334 . S
C1014 N1013 1.379 . S
C1014 C1016 1.416 . S
C1014 C1022 1.424 . S
C1015 H1010 0.930 . S
C1015 C1017 1.390 . S
C1015 C1018 1.339 . S
C1016 C1014 1.416 . S
C1016 C1018 1.416 . S
C1016 C1049 1.448 . S
C1017 H1002 0.930 1_556 S
C1017 N1013 1.334 . S
C1017 C1015 1.390 . S
C1018 C1015 1.339 . S
C1018 C1016 1.416 . S
C1018 H1025 0.930 . S
N1019 Tb984 2.572 1_556 S
N1019 C1020 1.340 . S
N1019 C1022 1.361 . S
C1020 H1006 0.945 . S
C1020 N1019 1.340 . S
C1020 C1024 1.407 . S
C1021 C1022 1.413 . S
C1021 C1023 1.416 . S
C1021 C1050 1.427 . S
C1022 C1014 1.424 . S
C1022 N1019 1.361 . S
C1022 C1021 1.413 . S
C1023 H1012 0.931 . S
C1023 C1021 1.416 . S
C1023 C1024 1.332 . S
C1024 H1003 0.929 . S
C1024 C1020 1.407 . S
C1024 C1023 1.332 . S
H1025 C1018 0.930 . S
H1026 C1049 0.930 . S
H1027 C1050 0.929 . S
O1028 Tb984 2.465 . S
O1028 C1048 1.264 . S
O1029 Tb984 2.387 1_556 S
O1029 C1040 1.264 . S
O1030 Tb995 2.349 1_556 S
O1030 C1040 1.243 . S
O1031 Tb984 2.428 . S
O1031 C1048 1.256 . S
O1032 Tb984 2.308 . S
O1032 C1047 1.266 . S
O1033 Tb995 2.393 . S
O1033 C1047 1.248 . S
O1034 Tb995 2.465 . S
O1034 C1059 1.264 . S
O1035 Tb995 2.387 . S
O1035 C1051 1.264 . S
O1036 Tb984 2.349 . S
O1036 C1051 1.243 . S
O1037 Tb995 2.428 . S
O1037 C1059 1.256 . S
O1038 Tb995 2.308 . S
O1038 C1058 1.266 . S
O1039 Tb984 2.393 . S
O1039 C1058 1.248 . S
C1040 O1029 1.264 . S
C1040 O1030 1.243 . S
C1041 C1044 1.399 . S
C1041 C1046 1.383 . S
C1041 C1048 1.496 . S
C1042 C1043 1.399 . S
C1042 C1046 1.389 . S
C1043 C1042 1.399 . S
C1043 C1045 1.380 . S
C1043 H1060 0.929 . S
C1044 C1041 1.399 . S
C1044 C1045 1.392 . S
C1044 H1061 0.929 . S
C1045 C1043 1.380 . S
C1045 C1044 1.392 . S
C1045 H1062 0.929 . S
C1046 C1041 1.383 . S
C1046 C1042 1.389 . S
C1046 H1063 0.931 . S
C1047 O1032 1.266 . S
C1047 O1033 1.248 . S
C1048 Tb984 2.802 . S
C1048 O1028 1.264 . S
C1048 O1031 1.256 . S
C1048 C1041 1.496 . S
C1049 C1016 1.448 . S
C1049 H1026 0.930 . S
C1049 C1050 1.328 . S
C1050 C1021 1.427 . S
C1050 H1027 0.929 . S
C1050 C1049 1.328 . S
C1051 O1035 1.264 . S
C1051 O1036 1.243 . S
C1052 C1055 1.399 . S
C1052 C1056 1.383 . S
C1052 C1059 1.496 1_556 S
C1053 C1054 1.399 . S
C1053 C1056 1.389 . S
C1054 C1053 1.399 . S
C1054 C1057 1.380 . S
C1054 H1064 0.929 . S
C1055 C1052 1.399 . S
C1055 C1057 1.392 . S
C1055 H1065 0.929 . S
C1056 C1052 1.383 . S
C1056 C1053 1.389 . S
C1056 H1066 0.931 . S
C1057 C1054 1.380 . S
C1057 C1055 1.392 . S
C1057 H1067 0.929 . S
C1058 O1038 1.266 . S
C1058 O1039 1.248 . S
C1059 Tb995 2.802 . S
C1059 O1034 1.264 . S
C1059 O1037 1.256 . S
C1059 C1052 1.496 1_554 S
H1060 C1043 0.929 . S
H1061 C1044 0.929 . S
H1062 C1045 0.929 . S
H1063 C1046 0.931 . S
H1064 C1054 0.929 . S
H1065 C1055 0.929 . S
H1066 C1056 0.931 . S
H1067 C1057 0.929 . S
Tb1068 N1097 2.617 . S
Tb1068 N1103 2.572 . S
Tb1068 O1112 2.465 . S
Tb1068 O1113 2.387 . S
Tb1068 O1115 2.428 . S
Tb1068 O1116 2.308 . S
Tb1068 O1120 2.349 . S
Tb1068 O1123 2.393 . S
Tb1068 C1132 2.802 . S
C1069 N1070 1.379 . S
C1069 C1072 1.416 . S
C1069 C1076 1.424 . S
N1070 C1069 1.379 . S
N1070 C1073 1.334 . S
N1070 Tb1079 2.617 . S
C1071 C1073 1.390 . S
C1071 C1074 1.339 . S
C1071 H1091 0.930 . S
C1072 C1069 1.416 . S
C1072 C1074 1.416 . S
C1072 C1078 1.448 . S
C1073 N1070 1.334 . S
C1073 C1071 1.390 . S
C1073 H1084 0.930 . S
C1074 C1071 1.339 . S
C1074 C1072 1.416 . S
C1074 H1095 0.930 . S
C1075 C1076 1.413 . S
C1075 C1077 1.427 . S
C1075 C1081 1.416 . S
C1076 C1069 1.424 . S
C1076 C1075 1.413 . S
C1076 N1080 1.361 . S
C1077 C1075 1.427 . S
C1077 C1078 1.328 . S
C1077 H1092 0.929 . S
C1078 C1072 1.448 . S
C1078 C1077 1.328 . S
C1078 H1093 0.930 . S
Tb1079 N1070 2.617 . S
Tb1079 N1080 2.572 . S
Tb1079 O1114 2.349 . S
Tb1079 O1117 2.393 . S
Tb1079 O1118 2.465 . S
Tb1079 O1119 2.387 . S
Tb1079 O1121 2.428 . S
Tb1079 O1122 2.308 . S
Tb1079 C1143 2.802 . S
N1080 C1076 1.361 . S
N1080 Tb1079 2.572 . S
N1080 C1082 1.340 . S
C1081 C1075 1.416 . S
C1081 C1083 1.332 . S
C1081 H1089 0.931 . S
C1082 N1080 1.340 . S
C1082 C1083 1.407 . S
C1082 H1088 0.930 . S
C1083 C1081 1.332 . S
C1083 C1082 1.407 . S
C1083 H1085 0.929 . S
H1084 C1073 0.930 . S
H1085 C1083 0.929 . S
H1086 C1101 0.930 . S
H1087 C1108 0.929 . S
H1088 C1082 0.930 . S
H1089 C1081 0.931 . S
H1090 C1104 0.930 . S
H1091 C1071 0.930 . S
H1092 C1077 0.929 . S
H1093 C1078 0.930 . S
H1094 C1099 0.930 . S
H1095 C1074 0.930 . S
H1096 C1107 0.931 . S
N1097 Tb1068 2.617 . S
N1097 C1098 1.379 . S
N1097 C1101 1.334 . S
C1098 N1097 1.379 . S
C1098 C1100 1.416 . S
C1098 C1106 1.424 . S
C1099 H1094 0.930 . S
C1099 C1101 1.390 . S
C1099 C1102 1.339 . S
C1100 C1098 1.416 . S
C1100 C1102 1.416 . S
C1100 C1133 1.448 . S
C1101 H1086 0.930 . S
C1101 N1097 1.334 . S
C1101 C1099 1.390 . S
C1102 C1099 1.339 . S
C1102 C1100 1.416 . S
C1102 H1109 0.930 . S
N1103 Tb1068 2.572 . S
N1103 C1104 1.340 . S
N1103 C1106 1.361 . S
C1104 H1090 0.930 . S
C1104 N1103 1.340 . S
C1104 C1108 1.407 . S
C1105 C1106 1.413 . S
C1105 C1107 1.416 . S
C1105 C1134 1.427 . S
C1106 C1098 1.424 . S
C1106 N1103 1.361 . S
C1106 C1105 1.413 . S
C1107 H1096 0.931 . S
C1107 C1105 1.416 . S
C1107 C1108 1.332 . S
C1108 H1087 0.929 . S
C1108 C1104 1.407 . S
C1108 C1107 1.332 . S
H1109 C1102 0.930 . S
H1110 C1133 0.930 . S
H1111 C1134 0.929 . S
O1112 Tb1068 2.465 . S
O1112 C1132 1.264 . S
O1113 Tb1068 2.387 . S
O1113 C1124 1.264 . S
O1114 Tb1079 2.349 . S
O1114 C1124 1.243 . S
O1115 Tb1068 2.428 . S
O1115 C1132 1.256 . S
O1116 Tb1068 2.308 . S
O1116 C1131 1.266 . S
O1117 Tb1079 2.393 . S
O1117 C1131 1.248 . S
O1118 Tb1079 2.465 . S
O1118 C1143 1.264 . S
O1119 Tb1079 2.387 . S
O1119 C1135 1.264 . S
O1120 Tb1068 2.349 . S
O1120 C1135 1.243 . S
O1121 Tb1079 2.428 . S
O1121 C1143 1.256 . S
O1122 Tb1079 2.308 . S
O1122 C1142 1.266 . S
O1123 Tb1068 2.393 . S
O1123 C1142 1.248 . S
C1124 O1113 1.264 . S
C1124 O1114 1.243 . S
C1125 C1128 1.399 . S
C1125 C1130 1.383 . S
C1125 C1132 1.496 . S
C1126 C1127 1.399 . S
C1126 C1130 1.389 . S
C1127 C1126 1.399 . S
C1127 C1129 1.380 . S
C1127 H1144 0.929 . S
C1128 C1125 1.399 . S
C1128 C1129 1.392 . S
C1128 H1145 0.929 . S
C1129 C1127 1.380 . S
C1129 C1128 1.392 . S
C1129 H1146 0.929 . S
C1130 C1125 1.383 . S
C1130 C1126 1.389 . S
C1130 H1147 0.931 . S
C1131 O1116 1.266 . S
C1131 O1117 1.248 . S
C1132 Tb1068 2.802 . S
C1132 O1112 1.264 . S
C1132 O1115 1.256 . S
C1132 C1125 1.496 . S
C1133 C1100 1.448 . S
C1133 H1110 0.930 . S
C1133 C1134 1.328 . S
C1134 C1105 1.427 . S
C1134 H1111 0.929 . S
C1134 C1133 1.328 . S
C1135 O1119 1.264 . S
C1135 O1120 1.243 . S
C1136 C1139 1.399 . S
C1136 C1140 1.383 . S
C1136 C1143 1.496 . S
C1137 C1138 1.399 . S
C1137 C1140 1.389 . S
C1138 C1137 1.399 . S
C1138 C1141 1.380 . S
C1138 H1148 0.929 . S
C1139 C1136 1.399 . S
C1139 C1141 1.392 . S
C1139 H1149 0.929 . S
C1140 C1136 1.383 . S
C1140 C1137 1.389 . S
C1140 H1150 0.931 . S
C1141 C1138 1.380 . S
C1141 C1139 1.392 . S
C1141 H1151 0.929 . S
C1142 O1122 1.266 . S
C1142 O1123 1.248 . S
C1143 Tb1079 2.802 . S
C1143 O1118 1.264 . S
C1143 O1121 1.256 . S
C1143 C1136 1.496 . S
H1144 C1127 0.929 . S
H1145 C1128 0.929 . S
H1146 C1129 0.929 . S
H1147 C1130 0.931 . S
H1148 C1138 0.929 . S
H1149 C1139 0.929 . S
H1150 C1140 0.931 . S
H1151 C1141 0.929 . S
Tb1152 N1181 2.617 . S
Tb1152 N1187 2.572 1_455 S
Tb1152 O1196 2.465 . S
Tb1152 O1197 2.387 1_455 S
Tb1152 O1199 2.428 . S
Tb1152 O1200 2.308 . S
Tb1152 O1204 2.349 . S
Tb1152 O1207 2.393 . S
Tb1152 C1216 2.802 . S
C1153 N1154 1.379 . S
C1153 C1156 1.416 . S
C1153 C1160 1.424 . S
N1154 C1153 1.379 . S
N1154 C1157 1.334 . S
N1154 Tb1163 2.617 . S
C1155 C1157 1.390 . S
C1155 C1158 1.339 . S
C1155 H1175 0.930 . S
C1156 C1153 1.416 . S
C1156 C1158 1.416 . S
C1156 C1162 1.448 . S
C1157 N1154 1.334 . S
C1157 C1155 1.390 . S
C1157 H1168 0.930 . S
C1158 C1155 1.339 . S
C1158 C1156 1.416 . S
C1158 H1179 0.930 . S
C1159 C1160 1.413 . S
C1159 C1161 1.427 . S
C1159 C1165 1.416 . S
C1160 C1153 1.424 . S
C1160 C1159 1.413 . S
C1160 N1164 1.361 . S
C1161 C1159 1.427 . S
C1161 C1162 1.328 . S
C1161 H1176 0.929 . S
C1162 C1156 1.448 . S
C1162 C1161 1.328 . S
C1162 H1177 0.930 . S
Tb1163 N1154 2.617 . S
Tb1163 N1164 2.572 . S
Tb1163 O1198 2.349 1_455 S
Tb1163 O1201 2.393 . S
Tb1163 O1202 2.465 . S
Tb1163 O1203 2.387 . S
Tb1163 O1205 2.428 . S
Tb1163 O1206 2.308 . S
Tb1163 C1227 2.802 . S
N1164 C1160 1.361 . S
N1164 Tb1163 2.572 . S
N1164 C1166 1.340 . S
C1165 C1159 1.416 . S
C1165 C1167 1.332 . S
C1165 H1173 0.931 . S
C1166 N1164 1.340 . S
C1166 C1167 1.407 . S
C1166 H1172 0.930 . S
C1167 C1165 1.332 . S
C1167 C1166 1.407 . S
C1167 H1169 0.929 . S
H1168 C1157 0.930 . S
H1169 C1167 0.929 . S
H1170 C1185 0.930 . S
H1171 C1192 0.929 . S
H1172 C1166 0.930 . S
H1173 C1165 0.931 . S
H1174 C1188 0.930 1_455 S
H1175 C1155 0.930 . S
H1176 C1161 0.929 . S
H1177 C1162 0.930 . S
H1178 C1183 0.930 . S
H1179 C1158 0.930 . S
H1180 C1191 0.931 . S
N1181 Tb1152 2.617 . S
N1181 C1182 1.379 1_455 S
N1181 C1185 1.334 . S
C1182 N1181 1.379 1_655 S
C1182 C1184 1.416 . S
C1182 C1190 1.424 . S
C1183 H1178 0.930 . S
C1183 C1185 1.390 1_655 S
C1183 C1186 1.339 . S
C1184 C1182 1.416 . S
C1184 C1186 1.416 . S
C1184 C1217 1.448 . S
C1185 H1170 0.930 . S
C1185 N1181 1.334 . S
C1185 C1183 1.390 1_455 S
C1186 C1183 1.339 . S
C1186 C1184 1.416 . S
C1186 H1193 0.930 . S
N1187 Tb1152 2.572 1_655 S
N1187 C1188 1.340 . S
N1187 C1190 1.361 . S
C1188 H1174 0.930 1_655 S
C1188 N1187 1.340 . S
C1188 C1192 1.407 . S
C1189 C1190 1.413 . S
C1189 C1191 1.416 . S
C1189 C1218 1.427 . S
C1190 C1182 1.424 . S
C1190 N1187 1.361 . S
C1190 C1189 1.413 . S
C1191 H1180 0.931 . S
C1191 C1189 1.416 . S
C1191 C1192 1.332 . S
C1192 H1171 0.929 . S
C1192 C1188 1.407 . S
C1192 C1191 1.332 . S
H1193 C1186 0.930 . S
H1194 C1217 0.930 . S
H1195 C1218 0.929 . S
O1196 Tb1152 2.465 . S
O1196 C1216 1.264 . S
O1197 Tb1152 2.387 1_655 S
O1197 C1208 1.264 . S
O1198 Tb1163 2.349 1_655 S
O1198 C1208 1.243 . S
O1199 Tb1152 2.428 . S
O1199 C1216 1.256 . S
O1200 Tb1152 2.308 . S
O1200 C1215 1.266 . S
O1201 Tb1163 2.393 . S
O1201 C1215 1.248 . S
O1202 Tb1163 2.465 . S
O1202 C1227 1.264 . S
O1203 Tb1163 2.387 . S
O1203 C1219 1.264 . S
O1204 Tb1152 2.349 . S
O1204 C1219 1.243 . S
O1205 Tb1163 2.428 . S
O1205 C1227 1.256 . S
O1206 Tb1163 2.308 . S
O1206 C1226 1.266 . S
O1207 Tb1152 2.393 . S
O1207 C1226 1.248 . S
C1208 O1197 1.264 . S
C1208 O1198 1.243 . S
C1209 C1212 1.399 . S
C1209 C1214 1.383 . S
C1209 C1216 1.496 . S
C1210 C1211 1.399 . S
C1210 C1214 1.389 . S
C1211 C1210 1.399 . S
C1211 C1213 1.380 . S
C1211 H1228 0.929 . S
C1212 C1209 1.399 . S
C1212 C1213 1.392 . S
C1212 H1229 0.929 . S
C1213 C1211 1.380 . S
C1213 C1212 1.392 . S
C1213 H1230 0.929 . S
C1214 C1209 1.383 . S
C1214 C1210 1.389 . S
C1214 H1231 0.931 . S
C1215 O1200 1.266 . S
C1215 O1201 1.248 . S
C1216 Tb1152 2.802 . S
C1216 O1196 1.264 . S
C1216 O1199 1.256 . S
C1216 C1209 1.496 . S
C1217 C1184 1.448 . S
C1217 H1194 0.930 . S
C1217 C1218 1.328 . S
C1218 C1189 1.427 . S
C1218 H1195 0.929 . S
C1218 C1217 1.328 . S
C1219 O1203 1.264 . S
C1219 O1204 1.243 . S
C1220 C1223 1.399 . S
C1220 C1224 1.383 . S
C1220 C1227 1.496 1_655 S
C1221 C1222 1.399 . S
C1221 C1224 1.389 . S
C1222 C1221 1.399 . S
C1222 C1225 1.380 . S
C1222 H1232 0.929 . S
C1223 C1220 1.399 . S
C1223 C1225 1.392 . S
C1223 H1233 0.929 . S
C1224 C1220 1.383 . S
C1224 C1221 1.389 . S
C1224 H1234 0.931 . S
C1225 C1222 1.380 . S
C1225 C1223 1.392 . S
C1225 H1235 0.929 . S
C1226 O1206 1.266 . S
C1226 O1207 1.248 . S
C1227 Tb1163 2.802 . S
C1227 O1202 1.264 . S
C1227 O1205 1.256 . S
C1227 C1220 1.496 1_455 S
H1228 C1211 0.929 . S
H1229 C1212 0.929 . S
H1230 C1213 0.929 . S
H1231 C1214 0.931 . S
H1232 C1222 0.929 . S
H1233 C1223 0.929 . S
H1234 C1224 0.931 . S
H1235 C1225 0.929 . S
Tb1236 N1265 2.617 . S
Tb1236 N1271 2.572 . S
Tb1236 O1280 2.465 . S
Tb1236 O1281 2.387 . S
Tb1236 O1283 2.428 . S
Tb1236 O1284 2.308 . S
Tb1236 O1288 2.349 . S
Tb1236 O1291 2.393 . S
Tb1236 C1300 2.802 . S
C1237 N1238 1.379 . S
C1237 C1240 1.416 . S
C1237 C1244 1.424 . S
N1238 C1237 1.379 . S
N1238 C1241 1.334 . S
N1238 Tb1247 2.617 . S
C1239 C1241 1.390 . S
C1239 C1242 1.339 . S
C1239 H1259 0.930 . S
C1240 C1237 1.416 . S
C1240 C1242 1.416 . S
C1240 C1246 1.448 . S
C1241 N1238 1.334 . S
C1241 C1239 1.390 . S
C1241 H1252 0.930 . S
C1242 C1239 1.339 . S
C1242 C1240 1.416 . S
C1242 H1263 0.930 . S
C1243 C1244 1.413 . S
C1243 C1245 1.427 . S
C1243 C1249 1.416 . S
C1244 C1237 1.424 . S
C1244 C1243 1.413 . S
C1244 N1248 1.361 . S
C1245 C1243 1.427 . S
C1245 C1246 1.328 . S
C1245 H1260 0.929 . S
C1246 C1240 1.448 . S
C1246 C1245 1.328 . S
C1246 H1261 0.930 . S
Tb1247 N1238 2.617 . S
Tb1247 N1248 2.572 . S
Tb1247 O1282 2.349 . S
Tb1247 O1285 2.393 . S
Tb1247 O1286 2.465 . S
Tb1247 O1287 2.387 . S
Tb1247 O1289 2.428 . S
Tb1247 O1290 2.308 . S
Tb1247 C1311 2.802 . S
N1248 C1244 1.361 . S
N1248 Tb1247 2.572 . S
N1248 C1250 1.340 . S
C1249 C1243 1.416 . S
C1249 C1251 1.332 . S
C1249 H1257 0.931 . S
C1250 N1248 1.340 . S
C1250 C1251 1.407 . S
C1250 H1256 0.930 . S
C1251 C1249 1.332 . S
C1251 C1250 1.407 . S
C1251 H1253 0.929 . S
H1252 C1241 0.930 . S
H1253 C1251 0.929 . S
H1254 C1269 0.930 . S
H1255 C1276 0.929 1_455 S
H1256 C1250 0.930 . S
H1257 C1249 0.931 . S
H1258 C1272 0.930 . S
H1259 C1239 0.930 . S
H1260 C1245 0.929 . S
H1261 C1246 0.930 . S
H1262 C1267 0.930 . S
H1263 C1242 0.930 . S
H1264 C1275 0.931 . S
N1265 Tb1236 2.617 . S
N1265 C1266 1.379 . S
N1265 C1269 1.334 . S
C1266 N1265 1.379 . S
C1266 C1268 1.416 . S
C1266 C1274 1.424 . S
C1267 H1262 0.930 . S
C1267 C1269 1.390 . S
C1267 C1270 1.339 . S
C1268 C1266 1.416 . S
C1268 C1270 1.416 . S
C1268 C1301 1.448 . S
C1269 H1254 0.930 . S
C1269 N1265 1.334 . S
C1269 C1267 1.390 . S
C1270 C1267 1.339 . S
C1270 C1268 1.416 . S
C1270 H1277 0.930 . S
N1271 Tb1236 2.572 . S
N1271 C1272 1.340 . S
N1271 C1274 1.361 . S
C1272 H1258 0.930 . S
C1272 N1271 1.340 . S
C1272 C1276 1.407 . S
C1273 C1274 1.413 . S
C1273 C1275 1.416 1_655 S
C1273 C1302 1.427 . S
C1274 C1266 1.424 . S
C1274 N1271 1.361 . S
C1274 C1273 1.413 . S
C1275 H1264 0.931 . S
C1275 C1273 1.416 1_455 S
C1275 C1276 1.332 1_455 S
C1276 H1255 0.929 1_655 S
C1276 C1272 1.407 . S
C1276 C1275 1.332 1_655 S
H1277 C1270 0.930 . S
H1278 C1301 0.930 . S
H1279 C1302 0.929 1_455 S
O1280 Tb1236 2.465 . S
O1280 C1300 1.264 . S
O1281 Tb1236 2.387 . S
O1281 C1292 1.264 . S
O1282 Tb1247 2.349 . S
O1282 C1292 1.243 . S
O1283 Tb1236 2.428 . S
O1283 C1300 1.256 . S
O1284 Tb1236 2.308 . S
O1284 C1299 1.266 . S
O1285 Tb1247 2.393 . S
O1285 C1299 1.248 . S
O1286 Tb1247 2.465 . S
O1286 C1311 1.264 . S
O1287 Tb1247 2.387 . S
O1287 C1303 1.264 . S
O1288 Tb1236 2.349 . S
O1288 C1303 1.243 . S
O1289 Tb1247 2.428 . S
O1289 C1311 1.256 . S
O1290 Tb1247 2.308 . S
O1290 C1310 1.266 . S
O1291 Tb1236 2.393 . S
O1291 C1310 1.248 . S
C1292 O1281 1.264 . S
C1292 O1282 1.243 . S
C1293 C1296 1.399 . S
C1293 C1298 1.383 . S
C1293 C1300 1.496 . S
C1294 C1295 1.399 . S
C1294 C1298 1.389 1_455 S
C1295 C1294 1.399 . S
C1295 C1297 1.380 1_455 S
C1295 H1312 0.929 . S
C1296 C1293 1.399 . S
C1296 C1297 1.392 . S
C1296 H1313 0.929 . S
C1297 C1295 1.380 1_655 S
C1297 C1296 1.392 . S
C1297 H1314 0.929 . S
C1298 C1293 1.383 . S
C1298 C1294 1.389 1_655 S
C1298 H1315 0.931 . S
C1299 O1284 1.266 . S
C1299 O1285 1.248 . S
C1300 Tb1236 2.802 . S
C1300 O1280 1.264 . S
C1300 O1283 1.256 . S
C1300 C1293 1.496 . S
C1301 C1268 1.448 . S
C1301 H1278 0.930 . S
C1301 C1302 1.328 . S
C1302 C1273 1.427 . S
C1302 H1279 0.929 1_655 S
C1302 C1301 1.328 . S
C1303 O1287 1.264 . S
C1303 O1288 1.243 . S
C1304 C1307 1.399 . S
C1304 C1308 1.383 . S
C1304 C1311 1.496 . S
C1305 C1306 1.399 . S
C1305 C1308 1.389 . S
C1306 C1305 1.399 . S
C1306 C1309 1.380 . S
C1306 H1316 0.929 . S
C1307 C1304 1.399 . S
C1307 C1309 1.392 . S
C1307 H1317 0.929 . S
C1308 C1304 1.383 . S
C1308 C1305 1.389 . S
C1308 H1318 0.931 . S
C1309 C1306 1.380 . S
C1309 C1307 1.392 . S
C1309 H1319 0.929 . S
C1310 O1290 1.266 . S
C1310 O1291 1.248 . S
C1311 Tb1247 2.802 . S
C1311 O1286 1.264 . S
C1311 O1289 1.256 . S
C1311 C1304 1.496 . S
H1312 C1295 0.929 . S
H1313 C1296 0.929 . S
H1314 C1297 0.929 . S
H1315 C1298 0.931 . S
H1316 C1306 0.929 . S
H1317 C1307 0.929 . S
H1318 C1308 0.931 . S
H1319 C1309 0.929 . S
Tb1320 N1349 2.617 . S
Tb1320 N1355 2.572 . S
Tb1320 O1364 2.465 . S
Tb1320 O1365 2.387 . S
Tb1320 O1367 2.428 . S
Tb1320 O1368 2.308 . S
Tb1320 O1372 2.349 . S
Tb1320 O1375 2.393 . S
Tb1320 C1384 2.802 . S
C1321 N1322 1.379 . S
C1321 C1324 1.416 . S
C1321 C1328 1.424 . S
N1322 C1321 1.379 . S
N1322 C1325 1.334 . S
N1322 Tb1331 2.617 . S
C1323 C1325 1.390 . S
C1323 C1326 1.339 . S
C1323 H1343 0.930 . S
C1324 C1321 1.416 . S
C1324 C1326 1.416 . S
C1324 C1330 1.448 . S
C1325 N1322 1.334 . S
C1325 C1323 1.390 . S
C1325 H1336 0.930 . S
C1326 C1323 1.339 . S
C1326 C1324 1.416 . S
C1326 H1347 0.930 . S
C1327 C1328 1.413 . S
C1327 C1329 1.427 . S
C1327 C1333 1.416 . S
C1328 C1321 1.424 . S
C1328 C1327 1.413 . S
C1328 N1332 1.361 . S
C1329 C1327 1.427 . S
C1329 C1330 1.328 . S
C1329 H1344 0.929 . S
C1330 C1324 1.448 . S
C1330 C1329 1.328 . S
C1330 H1345 0.930 . S
Tb1331 N1322 2.617 . S
Tb1331 N1332 2.572 . S
Tb1331 O1366 2.349 . S
Tb1331 O1369 2.393 . S
Tb1331 O1370 2.465 . S
Tb1331 O1371 2.387 . S
Tb1331 O1373 2.428 . S
Tb1331 O1374 2.308 . S
Tb1331 C1395 2.802 . S
N1332 C1328 1.361 . S
N1332 Tb1331 2.572 . S
N1332 C1334 1.340 . S
C1333 C1327 1.416 . S
C1333 C1335 1.332 . S
C1333 H1341 0.931 . S
C1334 N1332 1.340 . S
C1334 C1335 1.407 . S
C1334 H1340 0.930 . S
C1335 C1333 1.332 . S
C1335 C1334 1.407 . S
C1335 H1337 0.929 . S
H1336 C1325 0.930 . S
H1337 C1335 0.929 . S
H1338 C1353 0.930 . S
H1339 C1360 0.929 . S
H1340 C1334 0.930 . S
H1341 C1333 0.931 . S
H1342 C1356 0.930 . S
H1343 C1323 0.930 . S
H1344 C1329 0.929 . S
H1345 C1330 0.930 . S
H1346 C1351 0.930 . S
H1347 C1326 0.930 . S
H1348 C1359 0.931 . S
N1349 Tb1320 2.617 . S
N1349 C1350 1.379 . S
N1349 C1353 1.334 . S
C1350 N1349 1.379 . S
C1350 C1352 1.416 . S
C1350 C1358 1.424 . S
C1351 H1346 0.930 . S
C1351 C1353 1.390 . S
C1351 C1354 1.339 . S
C1352 C1350 1.416 . S
C1352 C1354 1.416 . S
C1352 C1385 1.448 1_556 S
C1353 H1338 0.930 . S
C1353 N1349 1.334 . S
C1353 C1351 1.390 . S
C1354 C1351 1.339 . S
C1354 C1352 1.416 . S
C1354 H1361 0.930 . S
N1355 Tb1320 2.572 . S
N1355 C1356 1.340 . S
N1355 C1358 1.361 . S
C1356 H1342 0.930 . S
C1356 N1355 1.340 . S
C1356 C1360 1.407 1_556 S
C1357 C1358 1.413 1_554 S
C1357 C1359 1.416 . S
C1357 C1386 1.427 . S
C1358 C1350 1.424 . S
C1358 N1355 1.361 . S
C1358 C1357 1.413 1_556 S
C1359 H1348 0.931 . S
C1359 C1357 1.416 . S
C1359 C1360 1.332 . S
C1360 H1339 0.929 . S
C1360 C1356 1.407 1_554 S
C1360 C1359 1.332 . S
H1361 C1354 0.930 . S
H1362 C1385 0.930 . S
H1363 C1386 0.929 . S
O1364 Tb1320 2.465 . S
O1364 C1384 1.264 . S
O1365 Tb1320 2.387 . S
O1365 C1376 1.264 . S
O1366 Tb1331 2.349 . S
O1366 C1376 1.243 . S
O1367 Tb1320 2.428 . S
O1367 C1384 1.256 . S
O1368 Tb1320 2.308 . S
O1368 C1383 1.266 . S
O1369 Tb1331 2.393 . S
O1369 C1383 1.248 . S
O1370 Tb1331 2.465 . S
O1370 C1395 1.264 . S
O1371 Tb1331 2.387 . S
O1371 C1387 1.264 . S
O1372 Tb1320 2.349 . S
O1372 C1387 1.243 . S
O1373 Tb1331 2.428 . S
O1373 C1395 1.256 . S
O1374 Tb1331 2.308 . S
O1374 C1394 1.266 . S
O1375 Tb1320 2.393 . S
O1375 C1394 1.248 . S
C1376 O1365 1.264 . S
C1376 O1366 1.243 . S
C1377 C1380 1.399 . S
C1377 C1382 1.383 1_556 S
C1377 C1384 1.496 . S
C1378 C1379 1.399 . S
C1378 C1382 1.389 . S
C1379 C1378 1.399 . S
C1379 C1381 1.380 . S
C1379 H1396 0.929 . S
C1380 C1377 1.399 . S
C1380 C1381 1.392 1_556 S
C1380 H1397 0.929 . S
C1381 C1379 1.380 . S
C1381 C1380 1.392 1_554 S
C1381 H1398 0.929 . S
C1382 C1377 1.383 1_554 S
C1382 C1378 1.389 . S
C1382 H1399 0.935 . S
C1383 O1368 1.266 . S
C1383 O1369 1.248 . S
C1384 Tb1320 2.802 . S
C1384 O1364 1.264 . S
C1384 O1367 1.256 . S
C1384 C1377 1.496 . S
C1385 C1352 1.448 1_554 S
C1385 H1362 0.930 . S
C1385 C1386 1.328 . S
C1386 C1357 1.427 . S
C1386 H1363 0.929 . S
C1386 C1385 1.328 . S
C1387 O1371 1.264 . S
C1387 O1372 1.243 . S
C1388 C1391 1.399 . S
C1388 C1392 1.383 . S
C1388 C1395 1.496 . S
C1389 C1390 1.399 . S
C1389 C1392 1.389 . S
C1390 C1389 1.399 . S
C1390 C1393 1.380 . S
C1390 H1400 0.929 . S
C1391 C1388 1.399 . S
C1391 C1393 1.392 . S
C1391 H1401 0.929 . S
C1392 C1388 1.383 . S
C1392 C1389 1.389 . S
C1392 H1402 0.931 . S
C1393 C1390 1.380 . S
C1393 C1391 1.392 . S
C1393 H1403 0.929 . S
C1394 O1374 1.266 . S
C1394 O1375 1.248 . S
C1395 Tb1331 2.802 . S
C1395 O1370 1.264 . S
C1395 O1373 1.256 . S
C1395 C1388 1.496 . S
H1396 C1379 0.929 . S
H1397 C1380 0.929 . S
H1398 C1381 0.929 . S
H1399 C1382 0.935 . S
H1400 C1390 0.929 . S
H1401 C1391 0.929 . S
H1402 C1392 0.931 . S
H1403 C1393 0.929 . S
Tb1404 N1433 2.617 . S
Tb1404 N1439 2.572 . S
Tb1404 O1448 2.465 . S
Tb1404 O1449 2.387 . S
Tb1404 O1451 2.428 . S
Tb1404 O1452 2.308 . S
Tb1404 O1456 2.349 . S
Tb1404 O1459 2.393 . S
Tb1404 C1468 2.802 . S
C1405 N1406 1.379 . S
C1405 C1408 1.416 . S
C1405 C1412 1.424 . S
N1406 C1405 1.379 . S
N1406 C1409 1.334 . S
N1406 Tb1415 2.617 . S
C1407 C1409 1.390 1_554 S
C1407 C1410 1.339 . S
C1407 H1427 0.930 . S
C1408 C1405 1.416 . S
C1408 C1410 1.416 1_556 S
C1408 C1414 1.448 1_655 S
C1409 N1406 1.334 . S
C1409 C1407 1.390 1_556 S
C1409 H1420 0.931 1_556 S
C1410 C1407 1.339 . S
C1410 C1408 1.416 1_554 S
C1410 H1431 0.930 1_655 S
C1411 C1412 1.413 . S
C1411 C1413 1.427 1_655 S
C1411 C1417 1.416 . S
C1412 C1405 1.424 . S
C1412 C1411 1.413 . S
C1412 N1416 1.361 . S
C1413 C1411 1.427 1_455 S
C1413 C1414 1.328 . S
C1413 H1428 0.929 1_565 S
C1414 C1408 1.448 1_455 S
C1414 C1413 1.328 . S
C1414 H1429 0.930 1_566 S
Tb1415 N1406 2.617 . S
Tb1415 N1416 2.572 . S
Tb1415 O1450 2.349 . S
Tb1415 O1453 2.393 . S
Tb1415 O1454 2.465 . S
Tb1415 O1455 2.387 . S
Tb1415 O1457 2.428 . S
Tb1415 O1458 2.308 . S
Tb1415 C1479 2.802 . S
N1416 C1412 1.361 . S
N1416 Tb1415 2.572 . S
N1416 C1418 1.340 . S
C1417 C1411 1.416 . S
C1417 C1419 1.332 . S
C1417 H1425 0.930 1_665 S
C1418 N1416 1.340 . S
C1418 C1419 1.407 . S
C1418 H1424 0.930 . S
C1419 C1417 1.332 . S
C1419 C1418 1.407 . S
C1419 H1421 0.929 . S
H1420 C1409 0.931 1_554 S
H1421 C1419 0.929 . S
H1422 C1437 0.930 . S
H1423 C1444 0.929 . S
H1424 C1418 0.930 . S
H1425 C1417 0.930 1_445 S
H1426 C1440 0.930 . S
H1427 C1407 0.930 . S
H1428 C1413 0.929 1_545 S
H1429 C1414 0.930 1_544 S
H1430 C1435 0.930 . S
H1431 C1410 0.930 1_455 S
H1432 C1443 0.931 . S
N1433 Tb1404 2.617 . S
N1433 C1434 1.379 . S
N1433 C1437 1.334 . S
C1434 N1433 1.379 . S
C1434 C1436 1.416 . S
C1434 C1442 1.424 . S
C1435 H1430 0.930 . S
C1435 C1437 1.390 . S
C1435 C1438 1.339 . S
C1436 C1434 1.416 . S
C1436 C1438 1.416 . S
C1436 C1469 1.448 . S
C1437 H1422 0.930 . S
C1437 N1433 1.334 . S
C1437 C1435 1.390 . S
C1438 C1435 1.339 . S
C1438 C1436 1.416 . S
C1438 H1445 0.930 . S
N1439 Tb1404 2.572 . S
N1439 C1440 1.340 . S
N1439 C1442 1.361 . S
C1440 H1426 0.930 . S
C1440 N1439 1.340 . S
C1440 C1444 1.407 . S
C1441 C1442 1.413 . S
C1441 C1443 1.416 . S
C1441 C1470 1.427 . S
C1442 C1434 1.424 . S
C1442 N1439 1.361 . S
C1442 C1441 1.413 . S
C1443 H1432 0.931 . S
C1443 C1441 1.416 . S
C1443 C1444 1.332 . S
C1444 H1423 0.929 . S
C1444 C1440 1.407 . S
C1444 C1443 1.332 . S
H1445 C1438 0.930 . S
H1446 C1469 0.930 . S
H1447 C1470 0.929 . S
O1448 Tb1404 2.465 . S
O1448 C1468 1.264 . S
O1449 Tb1404 2.387 . S
O1449 C1460 1.264 . S
O1450 Tb1415 2.349 . S
O1450 C1460 1.243 . S
O1451 Tb1404 2.428 . S
O1451 C1468 1.256 . S
O1452 Tb1404 2.308 . S
O1452 C1467 1.266 . S
O1453 Tb1415 2.393 . S
O1453 C1467 1.248 . S
O1454 Tb1415 2.465 . S
O1454 C1479 1.264 . S
O1455 Tb1415 2.387 . S
O1455 C1471 1.264 . S
O1456 Tb1404 2.349 . S
O1456 C1471 1.243 . S
O1457 Tb1415 2.428 . S
O1457 C1479 1.256 . S
O1458 Tb1415 2.308 . S
O1458 C1478 1.266 . S
O1459 Tb1404 2.393 . S
O1459 C1478 1.248 . S
C1460 O1449 1.264 . S
C1460 O1450 1.243 . S
C1461 C1464 1.399 . S
C1461 C1466 1.383 . S
C1461 C1468 1.496 . S
C1462 C1463 1.399 . S
C1462 C1466 1.389 . S
C1463 C1462 1.399 . S
C1463 C1465 1.380 . S
C1463 H1480 0.929 . S
C1464 C1461 1.399 . S
C1464 C1465 1.392 . S
C1464 H1481 0.929 . S
C1465 C1463 1.380 . S
C1465 C1464 1.392 . S
C1465 H1482 0.929 . S
C1466 C1461 1.383 . S
C1466 C1462 1.389 . S
C1466 H1483 0.931 . S
C1467 O1452 1.266 . S
C1467 O1453 1.248 . S
C1468 Tb1404 2.802 . S
C1468 O1448 1.264 . S
C1468 O1451 1.256 . S
C1468 C1461 1.496 . S
C1469 C1436 1.448 . S
C1469 H1446 0.930 . S
C1469 C1470 1.328 . S
C1470 C1441 1.427 . S
C1470 H1447 0.929 . S
C1470 C1469 1.328 . S
C1471 O1455 1.264 . S
C1471 O1456 1.243 . S
C1472 C1475 1.399 . S
C1472 C1476 1.383 . S
C1472 C1479 1.496 1_545 S
C1473 C1474 1.399 . S
C1473 C1476 1.389 . S
C1474 C1473 1.399 . S
C1474 C1477 1.380 . S
C1474 H1484 0.929 . S
C1475 C1472 1.399 . S
C1475 C1477 1.392 . S
C1475 H1485 0.929 . S
C1476 C1472 1.383 . S
C1476 C1473 1.389 . S
C1476 H1486 0.931 . S
C1477 C1474 1.380 . S
C1477 C1475 1.392 . S
C1477 H1487 0.929 . S
C1478 O1458 1.266 . S
C1478 O1459 1.248 . S
C1479 Tb1415 2.802 . S
C1479 O1454 1.264 . S
C1479 O1457 1.256 . S
C1479 C1472 1.496 1_565 S
H1480 C1463 0.929 . S
H1481 C1464 0.929 . S
H1482 C1465 0.929 . S
H1483 C1466 0.931 . S
H1484 C1474 0.929 . S
H1485 C1475 0.929 . S
H1486 C1476 0.931 . S
H1487 C1477 0.929 . S
Tb1488 N1517 2.617 . S
Tb1488 N1523 2.572 . S
Tb1488 O1532 2.465 . S
Tb1488 O1533 2.387 . S
Tb1488 O1535 2.428 . S
Tb1488 O1536 2.308 . S
Tb1488 O1540 2.349 . S
Tb1488 O1543 2.393 . S
Tb1488 C1552 2.802 . S
C1489 N1490 1.379 . S
C1489 C1492 1.416 . S
C1489 C1496 1.424 . S
N1490 C1489 1.379 . S
N1490 C1493 1.334 . S
N1490 Tb1499 2.617 . S
C1491 C1493 1.390 . S
C1491 C1494 1.339 . S
C1491 H1511 0.930 . S
C1492 C1489 1.416 . S
C1492 C1494 1.416 . S
C1492 C1498 1.448 . S
C1493 N1490 1.334 . S
C1493 C1491 1.390 . S
C1493 H1504 0.930 . S
C1494 C1491 1.339 . S
C1494 C1492 1.416 . S
C1494 H1515 0.930 . S
C1495 C1496 1.413 . S
C1495 C1497 1.427 . S
C1495 C1501 1.416 . S
C1496 C1489 1.424 . S
C1496 C1495 1.413 . S
C1496 N1500 1.361 . S
C1497 C1495 1.427 . S
C1497 C1498 1.328 . S
C1497 H1512 0.929 . S
C1498 C1492 1.448 . S
C1498 C1497 1.328 . S
C1498 H1513 0.930 . S
Tb1499 N1490 2.617 . S
Tb1499 N1500 2.572 . S
Tb1499 O1534 2.349 . S
Tb1499 O1537 2.393 . S
Tb1499 O1538 2.465 . S
Tb1499 O1539 2.387 . S
Tb1499 O1541 2.428 . S
Tb1499 O1542 2.308 . S
Tb1499 C1563 2.802 . S
N1500 C1496 1.361 . S
N1500 Tb1499 2.572 . S
N1500 C1502 1.340 . S
C1501 C1495 1.416 . S
C1501 C1503 1.332 . S
C1501 H1509 0.931 . S
C1502 N1500 1.340 . S
C1502 C1503 1.407 . S
C1502 H1508 0.930 . S
C1503 C1501 1.332 . S
C1503 C1502 1.407 . S
C1503 H1505 0.929 . S
H1504 C1493 0.930 . S
H1505 C1503 0.929 . S
H1506 C1521 0.930 . S
H1507 C1528 0.929 . S
H1508 C1502 0.930 . S
H1509 C1501 0.931 . S
H1510 C1524 0.930 . S
H1511 C1491 0.930 . S
H1512 C1497 0.929 . S
H1513 C1498 0.930 . S
H1514 C1519 0.930 . S
H1515 C1494 0.930 . S
H1516 C1527 0.931 . S
N1517 Tb1488 2.617 . S
N1517 C1518 1.379 . S
N1517 C1521 1.334 . S
C1518 N1517 1.379 . S
C1518 C1520 1.416 . S
C1518 C1526 1.424 . S
C1519 H1514 0.930 . S
C1519 C1521 1.390 . S
C1519 C1522 1.339 . S
C1520 C1518 1.416 . S
C1520 C1522 1.416 . S
C1520 C1553 1.448 . S
C1521 H1506 0.930 . S
C1521 N1517 1.334 . S
C1521 C1519 1.390 . S
C1522 C1519 1.339 . S
C1522 C1520 1.416 . S
C1522 H1529 0.930 . S
N1523 Tb1488 2.572 . S
N1523 C1524 1.340 . S
N1523 C1526 1.361 . S
C1524 H1510 0.930 . S
C1524 N1523 1.340 . S
C1524 C1528 1.407 . S
C1525 C1526 1.413 . S
C1525 C1527 1.416 . S
C1525 C1554 1.427 . S
C1526 C1518 1.424 . S
C1526 N1523 1.361 . S
C1526 C1525 1.413 . S
C1527 H1516 0.931 . S
C1527 C1525 1.416 . S
C1527 C1528 1.332 . S
C1528 H1507 0.929 . S
C1528 C1524 1.407 . S
C1528 C1527 1.332 . S
H1529 C1522 0.930 . S
H1530 C1553 0.930 . S
H1531 C1554 0.929 . S
O1532 Tb1488 2.465 . S
O1532 C1552 1.264 . S
O1533 Tb1488 2.387 . S
O1533 C1544 1.264 . S
O1534 Tb1499 2.349 . S
O1534 C1544 1.243 . S
O1535 Tb1488 2.428 . S
O1535 C1552 1.256 . S
O1536 Tb1488 2.308 . S
O1536 C1551 1.266 . S
O1537 Tb1499 2.393 . S
O1537 C1551 1.248 . S
O1538 Tb1499 2.465 . S
O1538 C1563 1.264 . S
O1539 Tb1499 2.387 . S
O1539 C1555 1.264 . S
O1540 Tb1488 2.349 . S
O1540 C1555 1.243 . S
O1541 Tb1499 2.428 . S
O1541 C1563 1.256 . S
O1542 Tb1499 2.308 . S
O1542 C1562 1.266 . S
O1543 Tb1488 2.393 . S
O1543 C1562 1.248 . S
C1544 O1533 1.264 . S
C1544 O1534 1.243 . S
C1545 C1548 1.399 . S
C1545 C1550 1.383 . S
C1545 C1552 1.496 . S
C1546 C1547 1.399 . S
C1546 C1550 1.389 . S
C1547 C1546 1.399 . S
C1547 C1549 1.380 . S
C1547 H1564 0.929 . S
C1548 C1545 1.399 . S
C1548 C1549 1.392 . S
C1548 H1565 0.929 . S
C1549 C1547 1.380 . S
C1549 C1548 1.392 . S
C1549 H1566 0.929 . S
C1550 C1545 1.383 . S
C1550 C1546 1.389 . S
C1550 H1567 0.931 . S
C1551 O1536 1.266 . S
C1551 O1537 1.248 . S
C1552 Tb1488 2.802 . S
C1552 O1532 1.264 . S
C1552 O1535 1.256 . S
C1552 C1545 1.496 . S
C1553 C1520 1.448 . S
C1553 H1530 0.930 . S
C1553 C1554 1.328 . S
C1554 C1525 1.427 . S
C1554 H1531 0.929 . S
C1554 C1553 1.328 . S
C1555 O1539 1.264 . S
C1555 O1540 1.243 . S
C1556 C1559 1.399 . S
C1556 C1560 1.383 . S
C1556 C1563 1.496 . S
C1557 C1558 1.399 . S
C1557 C1560 1.389 . S
C1558 C1557 1.399 . S
C1558 C1561 1.380 . S
C1558 H1568 0.929 . S
C1559 C1556 1.399 . S
C1559 C1561 1.392 . S
C1559 H1569 0.929 . S
C1560 C1556 1.383 . S
C1560 C1557 1.389 . S
C1560 H1570 0.931 . S
C1561 C1558 1.380 . S
C1561 C1559 1.392 . S
C1561 H1571 0.929 . S
C1562 O1542 1.266 . S
C1562 O1543 1.248 . S
C1563 Tb1499 2.802 . S
C1563 O1538 1.264 . S
C1563 O1541 1.256 . S
C1563 C1556 1.496 . S
H1564 C1547 0.929 . S
H1565 C1548 0.929 . S
H1566 C1549 0.929 . S
H1567 C1550 0.931 . S
H1568 C1558 0.929 . S
H1569 C1559 0.929 . S
H1570 C1560 0.931 . S
H1571 C1561 0.929 . S
Tb1572 N1601 2.617 1_455 S
Tb1572 N1607 2.572 1_455 S
Tb1572 O1616 2.465 1_455 S
Tb1572 O1617 2.387 . S
Tb1572 O1619 2.428 1_455 S
Tb1572 O1620 2.308 1_455 S
Tb1572 O1624 2.349 . S
Tb1572 O1627 2.393 . S
Tb1572 C1636 2.802 1_455 S
C1573 N1574 1.379 . S
C1573 C1576 1.416 . S
C1573 C1580 1.424 . S
N1574 C1573 1.379 . S
N1574 C1577 1.334 . S
N1574 Tb1583 2.617 1_556 S
C1575 C1577 1.390 . S
C1575 C1578 1.339 . S
C1575 H1595 0.930 . S
C1576 C1573 1.416 . S
C1576 C1578 1.416 . S
C1576 C1582 1.448 . S
C1577 N1574 1.334 . S
C1577 C1575 1.390 . S
C1577 H1588 0.930 . S
C1578 C1575 1.339 . S
C1578 C1576 1.416 . S
C1578 H1599 0.930 . S
C1579 C1580 1.413 . S
C1579 C1581 1.427 . S
C1579 C1585 1.416 1_556 S
C1580 C1573 1.424 . S
C1580 C1579 1.413 . S
C1580 N1584 1.361 1_556 S
C1581 C1579 1.427 . S
C1581 C1582 1.328 . S
C1581 H1596 0.929 . S
C1582 C1576 1.448 . S
C1582 C1581 1.328 . S
C1582 H1597 0.930 . S
Tb1583 N1574 2.617 1_554 S
Tb1583 N1584 2.572 . S
Tb1583 O1618 2.349 . S
Tb1583 O1621 2.393 1_554 S
Tb1583 O1622 2.465 . S
Tb1583 O1623 2.387 . S
Tb1583 O1625 2.428 1_554 S
Tb1583 O1626 2.308 . S
Tb1583 C1647 2.802 1_554 S
N1584 C1580 1.361 1_554 S
N1584 Tb1583 2.572 . S
N1584 C1586 1.340 . S
C1585 C1579 1.416 1_554 S
C1585 C1587 1.332 . S
C1585 H1593 0.931 . S
C1586 N1584 1.340 . S
C1586 C1587 1.407 . S
C1586 H1592 0.930 . S
C1587 C1585 1.332 . S
C1587 C1586 1.407 . S
C1587 H1589 0.929 . S
H1588 C1577 0.930 . S
H1589 C1587 0.929 . S
H1590 C1605 0.930 . S
H1591 C1612 0.929 1_556 S
H1592 C1586 0.930 . S
H1593 C1585 0.931 . S
H1594 C1608 0.930 . S
H1595 C1575 0.930 . S
H1596 C1581 0.929 . S
H1597 C1582 0.930 . S
H1598 C1603 0.930 . S
H1599 C1578 0.930 . S
H1600 C1611 0.931 . S
N1601 Tb1572 2.617 1_655 S
N1601 C1602 1.379 . S
N1601 C1605 1.334 1_655 S
C1602 N1601 1.379 . S
C1602 C1604 1.416 . S
C1602 C1610 1.424 . S
C1603 H1598 0.930 . S
C1603 C1605 1.390 . S
C1603 C1606 1.339 1_455 S
C1604 C1602 1.416 . S
C1604 C1606 1.416 . S
C1604 C1637 1.448 . S
C1605 H1590 0.930 . S
C1605 N1601 1.334 1_455 S
C1605 C1603 1.390 . S
C1606 C1603 1.339 1_655 S
C1606 C1604 1.416 . S
C1606 H1613 0.930 . S
N1607 Tb1572 2.572 1_655 S
N1607 C1608 1.340 . S
N1607 C1610 1.361 . S
C1608 H1594 0.930 . S
C1608 N1607 1.340 . S
C1608 C1612 1.407 . S
C1609 C1610 1.413 . S
C1609 C1611 1.416 . S
C1609 C1638 1.427 . S
C1610 C1602 1.424 . S
C1610 N1607 1.361 . S
C1610 C1609 1.413 . S
C1611 H1600 0.931 . S
C1611 C1609 1.416 . S
C1611 C1612 1.332 . S
C1612 H1591 0.929 1_554 S
C1612 C1608 1.407 . S
C1612 C1611 1.332 . S
H1613 C1606 0.930 . S
H1614 C1637 0.930 . S
H1615 C1638 0.929 . S
O1616 Tb1572 2.465 1_655 S
O1616 C1636 1.264 . S
O1617 Tb1572 2.387 . S
O1617 C1628 1.264 . S
O1618 Tb1583 2.349 . S
O1618 C1628 1.243 . S
O1619 Tb1572 2.428 1_655 S
O1619 C1636 1.256 . S
O1620 Tb1572 2.308 1_655 S
O1620 C1635 1.266 1_554 S
O1621 Tb1583 2.393 1_556 S
O1621 C1635 1.248 1_455 S
O1622 Tb1583 2.465 . S
O1622 C1647 1.264 1_554 S
O1623 Tb1583 2.387 . S
O1623 C1639 1.264 . S
O1624 Tb1572 2.349 . S
O1624 C1639 1.243 . S
O1625 Tb1583 2.428 1_556 S
O1625 C1647 1.256 . S
O1626 Tb1583 2.308 . S
O1626 C1646 1.266 . S
O1627 Tb1572 2.393 . S
O1627 C1646 1.248 . S
C1628 O1617 1.264 . S
C1628 O1618 1.243 . S
C1629 C1632 1.399 . S
C1629 C1634 1.383 . S
C1629 C1636 1.496 . S
C1630 C1631 1.399 . S
C1630 C1634 1.389 . S
C1631 C1630 1.399 . S
C1631 C1633 1.380 . S
C1631 H1648 0.929 . S
C1632 C1629 1.399 . S
C1632 C1633 1.392 . S
C1632 H1649 0.929 . S
C1633 C1631 1.380 . S
C1633 C1632 1.392 . S
C1633 H1650 0.929 . S
C1634 C1629 1.383 . S
C1634 C1630 1.389 . S
C1634 H1651 0.931 . S
C1635 O1620 1.266 1_556 S
C1635 O1621 1.248 1_655 S
C1636 Tb1572 2.802 1_655 S
C1636 O1616 1.264 . S
C1636 O1619 1.256 . S
C1636 C1629 1.496 . S
C1637 C1604 1.448 . S
C1637 H1614 0.930 . S
C1637 C1638 1.328 . S
C1638 C1609 1.427 . S
C1638 H1615 0.929 . S
C1638 C1637 1.328 . S
C1639 O1623 1.264 . S
C1639 O1624 1.243 . S
C1640 C1643 1.399 . S
C1640 C1644 1.383 1_556 S
C1640 C1647 1.496 . S
C1641 C1642 1.411 . S
C1641 C1644 1.386 1_556 S
C1642 C1641 1.411 . S
C1642 C1645 1.380 . S
C1642 H1652 0.929 . S
C1643 C1640 1.399 . S
C1643 C1645 1.392 . S
C1643 H1653 0.929 . S
C1644 C1640 1.383 1_554 S
C1644 C1641 1.386 1_554 S
C1644 H1654 0.931 . S
C1645 C1642 1.380 . S
C1645 C1643 1.392 . S
C1645 H1655 0.929 . S
C1646 O1626 1.266 . S
C1646 O1627 1.248 . S
C1647 Tb1583 2.802 1_556 S
C1647 O1622 1.264 1_556 S
C1647 O1625 1.256 . S
C1647 C1640 1.496 . S
H1648 C1631 0.929 . S
H1649 C1632 0.929 . S
H1650 C1633 0.929 . S
H1651 C1634 0.931 . S
H1652 C1642 0.929 . S
H1653 C1643 0.929 . S
H1654 C1644 0.931 . S
H1655 C1645 0.929 . S
C101 C368 3.819 1_655 S
C57 C470 2.693 . S
C73 C536 2.982 . S
C622 C78 1.351 . S
C21 C706 1.191 . S
C788 C31 2.700 . S
C890 C49 2.621 . S
C0 C956 3.327 . S
C386 C218 2.763 . S
C229 C454 0.412 . S
C554 C257 1.250 . S
C620 C164 1.953 . S
C216 C704 1.931 . S
C806 C231 1.326 . S
C874 C255 0.376 . S
C974 C166 2.717 . S
C370 C143 2.174 . S
C265 C1058 2.117 . S
C1126 C299 1.876 . S
C1208 C291 0.590 . S
C104 C958 2.192 . S
C117 C538 1.775 . S
C304 C1310 2.122 . S
C1376 C278 0.398 . S
C379 C60 3.773 . S
C1383 C96 2.732 . S
C88 C547 3.010 . S
C65 C1305 1.736 . S
C717 C10 1.327 . S
C44 C1135 2.569 . S
C879 C34 2.448 1_554 S
C1471 C13 3.510 . S
C375 C138 2.790 . S
C1389 C296 0.606 . S
C112 C543 1.631 . S
C270 C1303 1.968 . S
C140 C715 1.950 . S
C1131 C294 1.673 . S
C114 C885 0.584 . S
C268 C1467 2.753 . S
C169 C381 2.851 . S
C161 C1047 2.274 . S
C234 C801 2.462 . S
C226 C1219 0.678 . S
C1473 C247 2.845 . S
C195 C549 2.389 . S
C627 C239 2.294 . S
C463 C187 0.669 . S
C75 C1544 3.819 . S
C1394 C83 2.677 . S
C99 C1628 2.981 . S
C52 C1294 1.349 . S
C47 C1042 1.189 . S
C1124 C5 2.705 . S
C1226 C23 2.625 . S
C1460 C26 3.326 . S
C1562 C244 2.757 . S
C177 C1378 0.412 . S
C1646 C192 1.272 . S
C1292 C203 1.947 . S
C1040 C242 1.929 . S
C179 C1142 1.313 . S
C1210 C190 0.379 . S
C205 C1478 2.718 . S
C1546 C286 2.229 . S
C122 C722 2.119 . S
C790 C130 1.852 . S
C872 C148 0.568 . S
C1462 C273 2.172 . S
C260 C1630 1.772 . S
C638 C135 2.122 . S
C452 C109 0.374 . S
C86 C1555 3.772 . S
C459 C70 2.752 . S
C62 C1639 3.010 . S
C91 C633 1.726 . S
C36 C1053 1.330 . S
C799 C18 2.575 . S
C8 C1215 2.444 . S
C39 C967 3.508 . S
C1551 C307 2.784 . S
C153 C465 0.587 . S
C1635 C281 1.639 . S
C127 C631 1.963 . S
C309 C1051 1.950 . S
C795 C151 1.688 . S
C283 C1221 0.591 . S
C963 C125 2.747 . S
C1557 C221 2.834 . S
C711 C200 2.274 1_545 S
C208 C1137 2.452 . S
C883 C174 0.654 . S
C182 C969 2.831 . S
C156 C1641 2.388 1_554 S
C1299 C213 2.296 . S
C1387 C252 0.637 . S
