# Generated by pormake.
# Topology gar, (4,6)-cn, num edge types: 1
# Building blocks:
#     Node 0, Type 0, BuildingBlock: NAHDIM_clean_sbu_0, # of connection points: 4
#     Node 1, Type 0, BuildingBlock: NAHDIM_clean_sbu_0, # of connection points: 4
#     Node 2, Type 0, BuildingBlock: NAHDIM_clean_sbu_0, # of connection points: 4
#     Node 3, Type 0, BuildingBlock: NAHDIM_clean_sbu_0, # of connection points: 4
#     Node 4, Type 0, BuildingBlock: NAHDIM_clean_sbu_0, # of connection points: 4
#     Node 5, Type 0, BuildingBlock: NAHDIM_clean_sbu_0, # of connection points: 4
#     Node 6, Type 0, BuildingBlock: NAHDIM_clean_sbu_0, # of connection points: 4
#     Node 7, Type 0, BuildingBlock: NAHDIM_clean_sbu_0, # of connection points: 4
#     Node 8, Type 0, BuildingBlock: NAHDIM_clean_sbu_0, # of connection points: 4
#     Node 9, Type 0, BuildingBlock: NAHDIM_clean_sbu_0, # of connection points: 4
#     Node 10, Type 0, BuildingBlock: NAHDIM_clean_sbu_0, # of connection points: 4
#     Node 11, Type 0, BuildingBlock: NAHDIM_clean_sbu_0, # of connection points: 4
#     Node 12, Type 0, BuildingBlock: NAHDIM_clean_sbu_0, # of connection points: 4
#     Node 13, Type 0, BuildingBlock: NAHDIM_clean_sbu_0, # of connection points: 4
#     Node 14, Type 0, BuildingBlock: NAHDIM_clean_sbu_0, # of connection points: 4
#     Node 15, Type 0, BuildingBlock: NAHDIM_clean_sbu_0, # of connection points: 4
#     Node 16, Type 0, BuildingBlock: NAHDIM_clean_sbu_0, # of connection points: 4
#     Node 17, Type 0, BuildingBlock: NAHDIM_clean_sbu_0, # of connection points: 4
#     Node 18, Type 0, BuildingBlock: NAHDIM_clean_sbu_0, # of connection points: 4
#     Node 19, Type 0, BuildingBlock: NAHDIM_clean_sbu_0, # of connection points: 4
#     Node 20, Type 0, BuildingBlock: NAHDIM_clean_sbu_0, # of connection points: 4
#     Node 21, Type 0, BuildingBlock: NAHDIM_clean_sbu_0, # of connection points: 4
#     Node 22, Type 0, BuildingBlock: NAHDIM_clean_sbu_0, # of connection points: 4
#     Node 23, Type 0, BuildingBlock: NAHDIM_clean_sbu_0, # of connection points: 4
#     Node 24, Type 1, BuildingBlock: BETGAK_clean_sbu_0, # of connection points: 6
#     Node 25, Type 1, BuildingBlock: BETGAK_clean_sbu_0, # of connection points: 6
#     Node 26, Type 1, BuildingBlock: BETGAK_clean_sbu_0, # of connection points: 6
#     Node 27, Type 1, BuildingBlock: BETGAK_clean_sbu_0, # of connection points: 6
#     Node 28, Type 1, BuildingBlock: BETGAK_clean_sbu_0, # of connection points: 6
#     Node 29, Type 1, BuildingBlock: BETGAK_clean_sbu_0, # of connection points: 6
#     Node 30, Type 1, BuildingBlock: BETGAK_clean_sbu_0, # of connection points: 6
#     Node 31, Type 1, BuildingBlock: BETGAK_clean_sbu_0, # of connection points: 6
#     Node 32, Type 1, BuildingBlock: BETGAK_clean_sbu_0, # of connection points: 6
#     Node 33, Type 1, BuildingBlock: BETGAK_clean_sbu_0, # of connection points: 6
#     Node 34, Type 1, BuildingBlock: BETGAK_clean_sbu_0, # of connection points: 6
#     Node 35, Type 1, BuildingBlock: BETGAK_clean_sbu_0, # of connection points: 6
#     Node 36, Type 1, BuildingBlock: BETGAK_clean_sbu_0, # of connection points: 6
#     Node 37, Type 1, BuildingBlock: BETGAK_clean_sbu_0, # of connection points: 6
#     Node 38, Type 1, BuildingBlock: BETGAK_clean_sbu_0, # of connection points: 6
#     Node 39, Type 1, BuildingBlock: BETGAK_clean_sbu_0, # of connection points: 6
#     Edge 40, Type (0, 1), BuildingBlock: CIFDUS_clean_linker_0, # of connection points: 2
#     Edge 41, Type (0, 1), BuildingBlock: CIFDUS_clean_linker_0, # of connection points: 2
#     Edge 42, Type (0, 1), BuildingBlock: CIFDUS_clean_linker_0, # of connection points: 2
#     Edge 43, Type (0, 1), BuildingBlock: CIFDUS_clean_linker_0, # of connection points: 2
#     Edge 44, Type (0, 1), BuildingBlock: CIFDUS_clean_linker_0, # of connection points: 2
#     Edge 45, Type (0, 1), BuildingBlock: CIFDUS_clean_linker_0, # of connection points: 2
#     Edge 46, Type (0, 1), BuildingBlock: CIFDUS_clean_linker_0, # of connection points: 2
#     Edge 47, Type (0, 1), BuildingBlock: CIFDUS_clean_linker_0, # of connection points: 2
#     Edge 48, Type (0, 1), BuildingBlock: CIFDUS_clean_linker_0, # of connection points: 2
#     Edge 49, Type (0, 1), BuildingBlock: CIFDUS_clean_linker_0, # of connection points: 2
#     Edge 50, Type (0, 1), BuildingBlock: CIFDUS_clean_linker_0, # of connection points: 2
#     Edge 51, Type (0, 1), BuildingBlock: CIFDUS_clean_linker_0, # of connection points: 2
#     Edge 52, Type (0, 1), BuildingBlock: CIFDUS_clean_linker_0, # of connection points: 2
#     Edge 53, Type (0, 1), BuildingBlock: CIFDUS_clean_linker_0, # of connection points: 2
#     Edge 54, Type (0, 1), BuildingBlock: CIFDUS_clean_linker_0, # of connection points: 2
#     Edge 55, Type (0, 1), BuildingBlock: CIFDUS_clean_linker_0, # of connection points: 2
#     Edge 56, Type (0, 1), BuildingBlock: CIFDUS_clean_linker_0, # of connection points: 2
#     Edge 57, Type (0, 1), BuildingBlock: CIFDUS_clean_linker_0, # of connection points: 2
#     Edge 58, Type (0, 1), BuildingBlock: CIFDUS_clean_linker_0, # of connection points: 2
#     Edge 59, Type (0, 1), BuildingBlock: CIFDUS_clean_linker_0, # of connection points: 2
#     Edge 60, Type (0, 1), BuildingBlock: CIFDUS_clean_linker_0, # of connection points: 2
#     Edge 61, Type (0, 1), BuildingBlock: CIFDUS_clean_linker_0, # of connection points: 2
#     Edge 62, Type (0, 1), BuildingBlock: CIFDUS_clean_linker_0, # of connection points: 2
#     Edge 63, Type (0, 1), BuildingBlock: CIFDUS_clean_linker_0, # of connection points: 2
#     Edge 64, Type (0, 1), BuildingBlock: CIFDUS_clean_linker_0, # of connection points: 2
#     Edge 65, Type (0, 1), BuildingBlock: CIFDUS_clean_linker_0, # of connection points: 2
#     Edge 66, Type (0, 1), BuildingBlock: CIFDUS_clean_linker_0, # of connection points: 2
#     Edge 67, Type (0, 1), BuildingBlock: CIFDUS_clean_linker_0, # of connection points: 2
#     Edge 68, Type (0, 1), BuildingBlock: CIFDUS_clean_linker_0, # of connection points: 2
#     Edge 69, Type (0, 1), BuildingBlock: CIFDUS_clean_linker_0, # of connection points: 2
#     Edge 70, Type (0, 1), BuildingBlock: CIFDUS_clean_linker_0, # of connection points: 2
#     Edge 71, Type (0, 1), BuildingBlock: CIFDUS_clean_linker_0, # of connection points: 2
#     Edge 72, Type (0, 1), BuildingBlock: CIFDUS_clean_linker_0, # of connection points: 2
#     Edge 73, Type (0, 1), BuildingBlock: CIFDUS_clean_linker_0, # of connection points: 2
#     Edge 74, Type (0, 1), BuildingBlock: CIFDUS_clean_linker_0, # of connection points: 2
#     Edge 75, Type (0, 1), BuildingBlock: CIFDUS_clean_linker_0, # of connection points: 2
#     Edge 76, Type (0, 1), BuildingBlock: CIFDUS_clean_linker_0, # of connection points: 2
#     Edge 77, Type (0, 1), BuildingBlock: CIFDUS_clean_linker_0, # of connection points: 2
#     Edge 78, Type (0, 1), BuildingBlock: CIFDUS_clean_linker_0, # of connection points: 2
#     Edge 79, Type (0, 1), BuildingBlock: CIFDUS_clean_linker_0, # of connection points: 2
#     Edge 80, Type (0, 1), BuildingBlock: CIFDUS_clean_linker_0, # of connection points: 2
#     Edge 81, Type (0, 1), BuildingBlock: CIFDUS_clean_linker_0, # of connection points: 2
#     Edge 82, Type (0, 1), BuildingBlock: CIFDUS_clean_linker_0, # of connection points: 2
#     Edge 83, Type (0, 1), BuildingBlock: CIFDUS_clean_linker_0, # of connection points: 2
#     Edge 84, Type (0, 1), BuildingBlock: CIFDUS_clean_linker_0, # of connection points: 2
#     Edge 85, Type (0, 1), BuildingBlock: CIFDUS_clean_linker_0, # of connection points: 2
#     Edge 86, Type (0, 1), BuildingBlock: CIFDUS_clean_linker_0, # of connection points: 2
#     Edge 87, Type (0, 1), BuildingBlock: CIFDUS_clean_linker_0, # of connection points: 2
#     Edge 88, Type (0, 1), BuildingBlock: CIFDUS_clean_linker_0, # of connection points: 2
#     Edge 89, Type (0, 1), BuildingBlock: CIFDUS_clean_linker_0, # of connection points: 2
#     Edge 90, Type (0, 1), BuildingBlock: CIFDUS_clean_linker_0, # of connection points: 2
#     Edge 91, Type (0, 1), BuildingBlock: CIFDUS_clean_linker_0, # of connection points: 2
#     Edge 92, Type (0, 1), BuildingBlock: CIFDUS_clean_linker_0, # of connection points: 2
#     Edge 93, Type (0, 1), BuildingBlock: CIFDUS_clean_linker_0, # of connection points: 2
#     Edge 94, Type (0, 1), BuildingBlock: CIFDUS_clean_linker_0, # of connection points: 2
#     Edge 95, Type (0, 1), BuildingBlock: CIFDUS_clean_linker_0, # of connection points: 2
#     Edge 96, Type (0, 1), BuildingBlock: CIFDUS_clean_linker_0, # of connection points: 2
#     Edge 97, Type (0, 1), BuildingBlock: CIFDUS_clean_linker_0, # of connection points: 2
#     Edge 98, Type (0, 1), BuildingBlock: CIFDUS_clean_linker_0, # of connection points: 2
#     Edge 99, Type (0, 1), BuildingBlock: CIFDUS_clean_linker_0, # of connection points: 2
#     Edge 100, Type (0, 1), BuildingBlock: CIFDUS_clean_linker_0, # of connection points: 2
#     Edge 101, Type (0, 1), BuildingBlock: CIFDUS_clean_linker_0, # of connection points: 2
#     Edge 102, Type (0, 1), BuildingBlock: CIFDUS_clean_linker_0, # of connection points: 2
#     Edge 103, Type (0, 1), BuildingBlock: CIFDUS_clean_linker_0, # of connection points: 2
#     Edge 104, Type (0, 1), BuildingBlock: CIFDUS_clean_linker_0, # of connection points: 2
#     Edge 105, Type (0, 1), BuildingBlock: CIFDUS_clean_linker_0, # of connection points: 2
#     Edge 106, Type (0, 1), BuildingBlock: CIFDUS_clean_linker_0, # of connection points: 2
#     Edge 107, Type (0, 1), BuildingBlock: CIFDUS_clean_linker_0, # of connection points: 2
#     Edge 108, Type (0, 1), BuildingBlock: CIFDUS_clean_linker_0, # of connection points: 2
#     Edge 109, Type (0, 1), BuildingBlock: CIFDUS_clean_linker_0, # of connection points: 2
#     Edge 110, Type (0, 1), BuildingBlock: CIFDUS_clean_linker_0, # of connection points: 2
#     Edge 111, Type (0, 1), BuildingBlock: CIFDUS_clean_linker_0, # of connection points: 2
#     Edge 112, Type (0, 1), BuildingBlock: CIFDUS_clean_linker_0, # of connection points: 2
#     Edge 113, Type (0, 1), BuildingBlock: CIFDUS_clean_linker_0, # of connection points: 2
#     Edge 114, Type (0, 1), BuildingBlock: CIFDUS_clean_linker_0, # of connection points: 2
#     Edge 115, Type (0, 1), BuildingBlock: CIFDUS_clean_linker_0, # of connection points: 2
#     Edge 116, Type (0, 1), BuildingBlock: CIFDUS_clean_linker_0, # of connection points: 2
#     Edge 117, Type (0, 1), BuildingBlock: CIFDUS_clean_linker_0, # of connection points: 2
#     Edge 118, Type (0, 1), BuildingBlock: CIFDUS_clean_linker_0, # of connection points: 2
#     Edge 119, Type (0, 1), BuildingBlock: CIFDUS_clean_linker_0, # of connection points: 2
#     Edge 120, Type (0, 1), BuildingBlock: CIFDUS_clean_linker_0, # of connection points: 2
#     Edge 121, Type (0, 1), BuildingBlock: CIFDUS_clean_linker_0, # of connection points: 2
#     Edge 122, Type (0, 1), BuildingBlock: CIFDUS_clean_linker_0, # of connection points: 2
#     Edge 123, Type (0, 1), BuildingBlock: CIFDUS_clean_linker_0, # of connection points: 2
#     Edge 124, Type (0, 1), BuildingBlock: CIFDUS_clean_linker_0, # of connection points: 2
#     Edge 125, Type (0, 1), BuildingBlock: CIFDUS_clean_linker_0, # of connection points: 2
#     Edge 126, Type (0, 1), BuildingBlock: CIFDUS_clean_linker_0, # of connection points: 2
#     Edge 127, Type (0, 1), BuildingBlock: CIFDUS_clean_linker_0, # of connection points: 2
#     Edge 128, Type (0, 1), BuildingBlock: CIFDUS_clean_linker_0, # of connection points: 2
#     Edge 129, Type (0, 1), BuildingBlock: CIFDUS_clean_linker_0, # of connection points: 2
#     Edge 130, Type (0, 1), BuildingBlock: CIFDUS_clean_linker_0, # of connection points: 2
#     Edge 131, Type (0, 1), BuildingBlock: CIFDUS_clean_linker_0, # of connection points: 2
#     Edge 132, Type (0, 1), BuildingBlock: CIFDUS_clean_linker_0, # of connection points: 2
#     Edge 133, Type (0, 1), BuildingBlock: CIFDUS_clean_linker_0, # of connection points: 2
#     Edge 134, Type (0, 1), BuildingBlock: CIFDUS_clean_linker_0, # of connection points: 2
#     Edge 135, Type (0, 1), BuildingBlock: CIFDUS_clean_linker_0, # of connection points: 2
# Relax obj value: 0.233
# Max RMSD: 0.318
# Mean RMSD: 0.187
data_MOF--net-gar--node1-NAHDIM_clean_sbu_0--node2-BETGAK_clean_sbu_0--edge1-CIFDUS_clean_linker_0
_symmetry_space_group_name_H-M    P1
_symmetry_Int_Tables_number       1
_symmetry_cell_setting            triclinic
loop_
_symmetry_equiv_pos_as_xyz
'x, y, z'
_cell_length_a     56.749536
_cell_length_b     50.237791
_cell_length_c     49.450308
_cell_angle_alpha  99.668203
_cell_angle_beta   95.717171
_cell_angle_gamma 103.63745
loop_
_atom_site_label
_atom_site_type_symbol
_atom_site_fract_x
_atom_site_fract_y
_atom_site_fract_z
_atom_type_partial_charge
C0 C 0.18752 0.38662 0.36093 0.0
O1 O 0.18983 0.40904 0.38002 0.0
O2 O 0.13922 0.3288 0.40057 0.0
Zn3 Zn 0.14228 0.36254 0.38241 0.0
O4 O 0.14605 0.39746 0.41145 0.0
C5 C 0.09147 0.35353 0.3694 0.0
O6 O 0.09379 0.35487 0.39634 0.0
O7 O 0.16946 0.36555 0.35906 0.0
C8 C 0.13601 0.41656 0.40642 0.0
O9 O 0.12537 0.41491 0.38113 0.0
C10 C 0.13677 0.33029 0.42604 0.0
O11 O 0.13786 0.35468 0.4414 0.0
O12 O 0.1105 0.35602 0.35756 0.0
C13 C 0.96041 0.74482 0.68707 0.0
O14 O 0.95786 0.72693 0.66365 0.0
O15 O 1.01054 0.7284 0.65262 0.0
Zn16 Zn 1.01077 0.76545 0.6766 0.0
O17 O 1.01344 0.7944 0.65244 0.0
C18 C 0.04497 0.76513 0.72442 0.0
O19 O 0.02789 0.74348 0.72734 0.0
O20 O 0.98088 0.76262 0.69588 0.0
C21 C 0.02039 0.82016 0.66379 0.0
O22 O 0.02399 0.82718 0.69098 0.0
C23 C 0.02994 0.71984 0.65267 0.0
O24 O 0.05007 0.73507 0.66871 0.0
O25 O 0.04102 0.77798 0.70509 0.0
C26 C 0.68077 0.88782 0.86338 0.0
O27 O 0.68 0.91382 0.86385 0.0
O28 O 0.6238 0.84699 0.9119 0.0
Zn29 Zn 0.63654 0.87896 0.89279 0.0
O30 O 0.64242 0.91458 0.9216 0.0
C31 C 0.59467 0.85657 0.85024 0.0
O32 O 0.59773 0.83267 0.85534 0.0
O33 O 0.66545 0.8722 0.8748 0.0
C34 C 0.62212 0.9173 0.92899 0.0
O35 O 0.602 0.89813 0.91734 0.0
C36 C 0.63519 0.82859 0.91545 0.0
O37 O 0.65634 0.83003 0.90635 0.0
O38 O 0.60976 0.87917 0.863 0.0
C39 C 0.4818 0.25841 0.21017 0.0
O40 O 0.48028 0.23244 0.19853 0.0
O41 O 0.53163 0.23734 0.17332 0.0
Zn42 Zn 0.53203 0.27519 0.19534 0.0
O43 O 0.53907 0.30303 0.17057 0.0
C44 C 0.56052 0.27045 0.24482 0.0
O45 O 0.54274 0.24783 0.24311 0.0
O46 O 0.50103 0.27743 0.21024 0.0
C47 C 0.54906 0.32869 0.18066 0.0
O48 O 0.55454 0.33696 0.20769 0.0
C49 C 0.55255 0.2325 0.17193 0.0
O50 O 0.57218 0.25154 0.18513 0.0
O51 O 0.55917 0.28593 0.22722 0.0
C52 C 0.06483 0.83166 0.14068 0.0
O53 O 0.06307 0.83586 0.11512 0.0
O54 O 0.10984 0.79137 0.10374 0.0
Zn55 Zn 0.11381 0.83086 0.12813 0.0
O56 O 0.11049 0.86121 0.1038 0.0
C57 C 0.16339 0.82554 0.15041 0.0
O58 O 0.15912 0.80605 0.1279 0.0
O59 O 0.08513 0.82856 0.1516 0.0
C60 C 0.11955 0.88775 0.11046 0.0
O61 O 0.1344 0.89809 0.13395 0.0
C62 C 0.09075 0.77083 0.09916 0.0
O63 O 0.07082 0.77465 0.10882 0.0
O64 O 0.14751 0.8397 0.15455 0.0
C65 C 0.57389 0.77986 0.39354 0.0
O66 O 0.58049 0.78732 0.42051 0.0
O67 O 0.52325 0.73573 0.42778 0.0
Zn68 Zn 0.52448 0.7713 0.40971 0.0
O69 O 0.53444 0.80978 0.43721 0.0
C70 C 0.47392 0.77926 0.39138 0.0
O71 O 0.4764 0.79467 0.41625 0.0
O72 O 0.55107 0.77231 0.384 0.0
C73 C 0.53241 0.83122 0.42733 0.0
O74 O 0.52395 0.82762 0.4009 0.0
C75 C 0.53763 0.73431 0.44887 0.0
O76 O 0.55384 0.75724 0.46204 0.0
O77 O 0.49097 0.76757 0.38507 0.0
C78 C 0.56584 0.33243 0.6409 0.0
O79 O 0.56488 0.3404 0.61693 0.0
O80 O 0.60761 0.28609 0.60232 0.0
Zn81 Zn 0.61337 0.32602 0.62614 0.0
O82 O 0.61114 0.35619 0.60133 0.0
C83 C 0.66417 0.32226 0.64843 0.0
O84 O 0.66336 0.30738 0.62367 0.0
O85 O 0.58486 0.32515 0.64968 0.0
C86 C 0.61918 0.38279 0.60882 0.0
O87 O 0.63233 0.39308 0.63338 0.0
C88 C 0.58628 0.27053 0.59215 0.0
O89 O 0.56728 0.28081 0.59544 0.0
O90 O 0.6463 0.33311 0.65329 0.0
C91 C 0.07355 0.26749 0.88734 0.0
O92 O 0.07721 0.2567 0.9093 0.0
O93 O 0.02804 0.2376 0.92892 0.0
Zn94 Zn 0.02634 0.27086 0.90795 0.0
O95 O 0.03421 0.30958 0.93462 0.0
C96 C 0.97612 0.2782 0.88788 0.0
O97 O 0.98061 0.29775 0.91038 0.0
O98 O 0.05345 0.27431 0.88238 0.0
C99 C 0.03681 0.33128 0.92375 0.0
O100 O 0.03403 0.32776 0.89658 0.0
C101 C 0.04259 0.24158 0.95157 0.0
O102 O 0.05538 0.26728 0.96235 0.0
O103 O 0.99202 0.26421 0.88327 0.0
C104 C 0.37012 0.07788 0.31856 0.0
O105 O 0.36873 0.05523 0.30017 0.0
O106 O 0.43498 0.08877 0.29597 0.0
Zn107 Zn 0.41926 0.07464 0.32723 0.0
O108 O 0.44383 0.08337 0.36154 0.0
C109 C 0.40834 0.01866 0.2933 0.0
O110 O 0.41904 0.03123 0.27484 0.0
O111 O 0.39053 0.09045 0.33355 0.0
C112 C 0.46411 0.07736 0.35882 0.0
O113 O 0.46808 0.06689 0.33401 0.0
C114 C 0.45315 0.10986 0.29864 0.0
O115 O 0.46218 0.12515 0.32341 0.0
O116 O 0.407 0.03296 0.31662 0.0
C117 C 0.34347 0.18589 0.50235 0.0
O118 O 0.35223 0.21317 0.50808 0.0
O119 O 0.29939 0.22629 0.53309 0.0
Zn120 Zn 0.29602 0.20021 0.49476 0.0
O121 O 0.30455 0.22249 0.46367 0.0
C122 C 0.24429 0.17793 0.50095 0.0
O123 O 0.24951 0.19969 0.52144 0.0
O124 O 0.32032 0.17572 0.49646 0.0
C125 C 0.29268 0.21752 0.43922 0.0
O126 O 0.27221 0.19756 0.43279 0.0
C127 C 0.30781 0.21985 0.55534 0.0
O128 O 0.31538 0.19694 0.55351 0.0
O129 O 0.26085 0.17421 0.4861 0.0
C130 C 0.21698 0.97503 0.78009 0.0
O131 O 0.19371 0.96171 0.77317 0.0
O132 O 0.17588 0.03127 0.74497 0.0
Zn133 Zn 0.19928 0.03706 0.78727 0.0
O134 O 0.17558 0.03639 0.82381 0.0
C135 C 0.22262 0.10483 0.79289 0.0
O136 O 0.20089 0.10826 0.79679 0.0
O137 O 0.2221 1.00257 0.78596 0.0
C138 C 0.17796 0.05035 0.84938 0.0
O139 O 0.19819 0.07026 0.85843 0.0
C140 C 0.16754 0.04967 0.73383 0.0
O141 O 0.1718 0.07482 0.74902 0.0
O142 O 0.22554 0.07959 0.79027 0.0
C143 C 0.31033 0.02211 1.01027 0.0
O144 O 0.32751 0.02632 0.03154 0.0
O145 O 0.32308 0.95561 0.02408 0.0
Zn146 Zn 0.33003 0.97639 0.9936 0.0
O147 O 0.32571 0.94779 0.95871 0.0
C148 C 0.37794 1.00446 0.02562 0.0
O149 O 0.36799 0.99666 0.04684 0.0
O150 O 0.3078 1.00145 0.99055 0.0
C151 C 0.33891 0.9521 0.93983 0.0
O152 O 0.35415 0.97675 0.94194 0.0
C153 C 0.33258 0.93509 0.0237 0.0
O154 O 0.34531 0.92919 1.00377 0.0
O155 O 0.36502 0.99867 1.00185 0.0
C156 C 0.3005 0.43405 0.04831 0.0
O157 O 0.297 0.40843 0.05274 0.0
O158 O 0.34593 0.40054 0.07318 0.0
Zn159 Zn 0.34852 0.42464 0.0425 0.0
O160 O 0.34123 0.399 1.00375 0.0
C161 C 0.40268 0.45717 0.06063 0.0
O162 O 0.40204 0.4482 0.08408 0.0
O163 O 0.32172 0.44645 0.04389 0.0
C164 C 0.35829 0.38976 0.99377 0.0
O165 O 0.37959 0.39521 1.00949 0.0
C166 C 0.34768 0.40897 0.0994 0.0
O167 O 0.35304 0.43593 0.1095 0.0
O168 O 0.38318 0.45058 0.043 0.0
C169 C 0.83023 0.09103 0.03092 0.0
O170 O 0.81347 0.09147 1.01076 0.0
O171 O 0.81752 0.16093 0.09275 0.0
Zn172 Zn 0.81298 0.13617 0.05509 0.0
O173 O 0.82292 0.1604 0.02743 0.0
C174 C 0.76266 0.13227 0.04565 0.0
O175 O 0.77175 0.15928 0.05455 0.0
O176 O 0.83327 0.1084 0.05366 0.0
C177 C 0.8237 0.1863 0.03164 0.0
O178 O 0.81781 0.19811 0.05486 0.0
C179 C 0.83776 0.17866 0.10277 0.0
O180 O 0.8568 0.17855 0.08969 0.0
O181 O 0.77724 0.11657 0.04397 0.0
C182 C 0.21247 0.48834 0.22413 0.0
O183 O 0.19009 0.48238 0.23032 0.0
O184 O 0.17765 0.53192 0.17607 0.0
Zn185 Zn 0.20029 0.53701 0.21108 0.0
O186 O 0.18015 0.53688 0.24154 0.0
C187 C 0.23628 0.58493 0.20158 0.0
O188 O 0.23422 0.57005 0.17653 0.0
O189 O 0.21952 0.50905 0.21268 0.0
C190 C 0.1907 0.54448 0.26643 0.0
O191 O 0.21476 0.55108 0.27151 0.0
C192 C 0.16906 0.55309 0.17609 0.0
O193 O 0.1764 0.57428 0.19719 0.0
O194 O 0.22386 0.57472 0.21907 0.0
C195 C 0.80491 0.9319 0.54765 0.0
O196 O 0.79814 0.90786 0.55552 0.0
O197 O 0.84381 0.89594 0.58021 0.0
Zn198 Zn 0.85282 0.91831 0.54929 0.0
O199 O 0.85314 0.89356 0.51134 0.0
C200 C 0.90528 0.94077 0.54892 0.0
O201 O 0.90206 0.91681 0.53177 0.0
O202 O 0.82712 0.94058 0.54385 0.0
C203 C 0.83464 0.88252 0.49261 0.0
O204 O 0.81293 0.88487 0.498 0.0
C205 C 0.85579 0.90086 0.60461 0.0
O206 O 0.87647 0.92051 0.61083 0.0
O207 O 0.88708 0.94602 0.56004 0.0
C208 C 0.93182 0.14153 0.27057 0.0
O209 O 0.95512 0.15503 0.27537 0.0
O210 O 0.97311 0.0808 0.22831 0.0
Zn211 Zn 0.94961 0.0797 0.2648 0.0
O212 O 0.97314 0.08558 0.30702 0.0
C213 C 0.92635 1.01185 0.25852 0.0
O214 O 0.94812 1.00854 0.25466 0.0
O215 O 0.92677 0.11402 0.26624 0.0
C216 C 0.98127 0.06718 0.31838 0.0
O217 O 0.97656 0.04181 0.30353 0.0
C218 C 0.97108 0.06626 0.20307 0.0
O219 O 0.95153 0.04529 0.19459 0.0
O220 O 0.92341 0.0371 0.26144 0.0
C221 C 0.33903 0.59545 0.54233 0.0
O222 O 0.32083 0.58906 0.52179 0.0
O223 O 0.3214 0.67058 0.58987 0.0
Zn224 Zn 0.31655 0.63877 0.55772 0.0
O225 O 0.31742 0.65387 0.52288 0.0
C226 C 0.27292 0.6115 0.57684 0.0
O227 O 0.28627 0.62106 0.60137 0.0
O228 O 0.34113 0.61662 0.56134 0.0
C229 C 0.30109 0.66672 0.51843 0.0
O230 O 0.28579 0.66895 0.53646 0.0
C231 C 0.33189 0.69579 0.58942 0.0
O232 O 0.34238 0.70164 0.56786 0.0
O233 O 0.28272 0.61507 0.55532 0.0
C234 C 0.41102 0.62467 0.76881 0.0
O235 O 0.39361 0.60333 0.77168 0.0
O236 O 0.47456 0.5805 0.72732 0.0
Zn237 Zn 0.45039 0.58087 0.76335 0.0
O238 O 0.47454 0.5855 0.80479 0.0
C239 C 0.42679 0.5141 0.75884 0.0
O240 O 0.44943 0.51198 0.75885 0.0
O241 O 0.43251 0.61978 0.76551 0.0
C242 C 0.47354 0.56808 0.82176 0.0
O243 O 0.45631 0.54456 0.81485 0.0
C244 C 0.47192 0.5678 0.70125 0.0
O245 O 0.4507 0.55006 0.6909 0.0
O246 O 0.42304 0.53883 0.75941 0.0
C247 C 0.72584 1.01684 0.75784 0.0
O248 O 0.7174 0.03048 0.77815 0.0
O249 O 0.66835 0.02006 0.69105 0.0
Zn250 Zn 0.68613 0.02852 0.72966 0.0
O251 O 0.66287 1.01731 0.75577 0.0
C252 C 0.71583 0.08163 0.72741 0.0
O253 O 0.72141 0.06659 0.70575 0.0
O254 O 0.71439 1.01171 0.73337 0.0
C255 C 0.64404 0.02681 0.75476 0.0
O256 O 0.64052 0.04168 0.73596 0.0
C257 C 0.65011 0.99927 0.68136 0.0
O258 O 0.64334 0.98033 0.69638 0.0
O259 O 0.70014 0.06979 0.74108 0.0
C260 C 0.83586 0.67795 1.00686 0.0
O261 O 0.84489 0.70478 0.01702 0.0
O262 O 0.79937 0.7201 0.04103 0.0
Zn263 Zn 0.79102 0.69612 1.00125 0.0
O264 O 0.8 0.72071 0.97196 0.0
C265 C 0.74646 0.66478 0.01646 0.0
O266 O 0.76203 0.66907 0.03923 0.0
O267 O 0.81285 0.66883 0.99876 0.0
C268 C 0.78956 0.71664 0.94694 0.0
O269 O 0.76997 0.69575 0.93821 0.0
C270 C 0.78482 0.73362 0.05116 0.0
O271 O 0.76489 0.73358 0.03515 0.0
O272 O 0.75431 0.67394 0.99557 0.0
C273 C 0.88691 0.60281 0.8415 0.0
O274 O 0.89988 0.60921 0.86631 0.0
O275 O 0.9383 0.57522 0.79154 0.0
Zn276 Zn 0.91928 0.56729 0.82254 0.0
O277 O 0.94278 0.57789 0.85789 0.0
C278 C 0.89503 0.51354 0.79045 0.0
O279 O 0.89693 0.52758 0.77028 0.0
O280 O 0.89272 0.58681 0.82206 0.0
C281 C 0.96036 0.56631 0.85625 0.0
O282 O 0.96053 0.54904 0.83318 0.0
C283 C 0.95747 0.59514 0.79451 0.0
O284 O 0.96485 0.61244 0.81855 0.0
O285 O 0.90349 0.5263 0.8152 0.0
C286 C 0.81909 0.51829 0.52375 0.0
O287 O 0.83514 0.51591 0.54364 0.0
O288 O 0.82883 0.44853 0.52192 0.0
Zn289 Zn 0.83599 0.47429 0.49552 0.0
O290 O 0.82898 0.4499 0.45773 0.0
C291 C 0.88391 0.49543 0.52786 0.0
O292 O 0.87235 0.48715 0.54789 0.0
O293 O 0.81612 0.50241 0.50011 0.0
C294 C 0.84105 0.45549 0.43823 0.0
O295 O 0.85676 0.47998 0.44121 0.0
C296 C 0.83629 0.4265 0.51708 0.0
O297 O 0.84694 0.42166 0.49503 0.0
O298 O 0.87192 0.49286 0.50401 0.0
C299 C 0.71733 0.47233 0.28051 0.0
O300 O 0.69427 0.45928 0.27993 0.0
O301 O 0.67462 0.52932 0.24426 0.0
Zn302 Zn 0.69972 0.53445 0.28529 0.0
O303 O 0.67718 0.53371 0.32266 0.0
C304 C 0.72169 0.60172 0.28938 0.0
O305 O 0.69907 0.60375 0.28976 0.0
O306 O 0.72231 0.49967 0.28244 0.0
C307 C 0.67981 0.5484 0.34794 0.0
O308 O 0.69961 0.56913 0.35596 0.0
C309 C 0.67514 0.54691 0.22747 0.0
O310 O 0.69231 0.57046 0.23424 0.0
O311 O 0.72565 0.57711 0.28876 0.0
La312 La 0.05317 0.03787 1.00819 0.0
La313 La 0.09564 0.08087 0.04437 0.0
C314 C 1.00977 1.00847 0.99405 0.0
C315 C 0.98733 1.01443 1.00289 0.0
C316 C 0.96443 0.99527 0.99399 0.0
C317 C 0.94328 1.00178 1.00249 0.0
C318 C 0.9449 0.02743 0.02018 0.0
C319 C 0.96798 0.04636 0.02915 0.0
C320 C 0.98893 0.03997 0.02046 0.0
C321 C 0.09085 0.0446 0.97709 0.0
C322 C 0.05873 0.10291 1.00756 0.0
C323 C 0.13817 0.11204 0.06068 0.0
C324 C 0.16198 0.10834 0.05451 0.0
C325 C 0.18362 0.12884 0.06604 0.0
C326 C 0.20632 0.12421 0.06109 0.0
C327 C 0.20752 0.09904 0.04449 0.0
C328 C 0.18562 0.07883 0.03266 0.0
C329 C 0.1631 0.08345 0.03766 0.0
C330 C 0.05776 0.07366 0.07531 0.0
C331 C 0.0913 1.01601 0.04375 0.0
O332 O 0.02096 0.02558 0.9794 0.0
O333 O 0.02503 1.00449 0.01369 0.0
O334 O 0.06947 0.02701 0.96999 0.0
O335 O 0.09054 0.05672 1.00223 0.0
O336 O 0.04432 0.07711 1.00172 0.0
O337 O 0.08026 0.10901 0.0232 0.0
O338 O 0.12681 0.09425 0.07459 0.0
O339 O 0.12362 0.11475 0.03963 0.0
O340 O 0.07907 0.09121 0.08257 0.0
O341 O 0.05837 0.06187 0.0502 0.0
O342 O 0.10548 0.04189 0.0489 0.0
O343 O 0.06922 1.00958 0.02905 0.0
H344 H 0.96291 0.97546 0.98038 0.0
H345 H 0.92569 0.98682 0.99528 0.0
H346 H 0.96982 0.06648 0.04234 0.0
H347 H 1.00646 0.05508 0.02746 0.0
H348 H 0.18297 0.14816 0.07915 0.0
H349 H 0.2229 0.14016 0.07039 0.0
H350 H 0.18587 0.05898 0.02028 0.0
H351 H 0.14652 0.06733 0.02875 0.0
La352 La 0.33108 0.79909 0.24841 0.0
La353 La 0.3057 0.80618 0.29471 0.0
C354 C 0.3498 0.80012 0.20432 0.0
C355 C 0.34786 0.81441 0.18114 0.0
C356 C 0.36642 0.81739 0.16444 0.0
C357 C 0.36446 0.83032 0.14178 0.0
C358 C 0.3438 0.84028 0.13545 0.0
C359 C 0.3253 0.83738 0.15248 0.0
C360 C 0.32738 0.82467 0.17527 0.0
C361 C 0.35449 0.78818 0.29338 0.0
C362 C 0.33705 0.85942 0.28179 0.0
C363 C 0.28682 0.80419 0.3386 0.0
C364 C 0.28625 0.78721 0.36002 0.0
C365 C 0.26445 0.77867 0.37083 0.0
C366 C 0.26366 0.76303 0.39167 0.0
C367 C 0.28479 0.75587 0.40221 0.0
C368 C 0.30656 0.76422 0.391 0.0
C369 C 0.30724 0.77957 0.36995 0.0
C370 C 0.28251 0.81738 0.24969 0.0
C371 C 0.29957 0.746 0.26086 0.0
O372 O 0.36029 0.81599 0.22817 0.0
O373 O 0.32991 0.78186 0.20659 0.0
O374 O 0.35303 0.77526 0.26822 0.0
O375 O 0.34368 0.80743 0.2927 0.0
O376 O 0.33489 0.84419 0.25677 0.0
O377 O 0.32955 0.84769 0.30227 0.0
O378 O 0.27525 0.79122 0.31405 0.0
O379 O 0.30806 0.8207 0.33736 0.0
O380 O 0.28406 0.83041 0.27487 0.0
O381 O 0.29312 0.79795 0.25043 0.0
O382 O 0.30202 0.76103 0.28601 0.0
O383 O 0.30646 0.75809 0.24041 0.0
H384 H 0.38238 0.80967 0.16889 0.0
H385 H 0.37923 0.83272 0.12937 0.0
H386 H 0.30905 0.84457 0.148 0.0
H387 H 0.31292 0.82257 0.18812 0.0
H388 H 0.24803 0.7842 0.3632 0.0
H389 H 0.2465 0.7565 0.39948 0.0
H390 H 0.32326 0.75942 0.39886 0.0
H391 H 0.32426 0.78575 0.36171 0.0
La392 La 0.59679 0.05418 0.51033 0.0
La393 La 0.54295 0.04948 0.51956 0.0
C394 C 0.64069 0.05061 0.51294 0.0
C395 C 0.65656 0.0315 0.51676 0.0
C396 C 0.67462 0.02996 0.49954 0.0
C397 C 0.69157 1.01437 0.50417 0.0
C398 C 0.69098 0.99994 0.52626 0.0
C399 C 0.67251 1.00108 0.54321 0.0
C400 C 0.65551 1.01668 0.53853 0.0
C401 C 0.56951 0.0677 0.47157 0.0
C402 C 0.55671 0.99474 0.49407 0.0
C403 C 0.49922 0.05259 0.52157 0.0
C404 C 0.48318 0.07166 0.51925 0.0
C405 C 0.45867 0.0628 0.52325 0.0
C406 C 0.44284 0.08019 0.52141 0.0
C407 C 0.45108 0.10695 0.5153 0.0
C408 C 0.4758 0.11574 0.51124 0.0
C409 C 0.4917 0.09833 0.51334 0.0
C410 C 0.57199 0.03747 0.55813 0.0
C411 C 0.58173 0.10955 0.5321 0.0
O412 O 0.62559 0.04498 0.48968 0.0
O413 O 0.63087 0.05982 0.53428 0.0
O414 O 0.59315 0.0771 0.47683 0.0
O415 O 0.56261 0.04892 0.48512 0.0
O416 O 0.58019 1.00829 0.50228 0.0
O417 O 0.53893 1.00769 0.49593 0.0
O418 O 0.51625 0.05936 0.54323 0.0
O419 O 0.50714 0.04278 0.49896 0.0
O420 O 0.54886 0.02499 0.55164 0.0
O421 O 0.57723 0.05628 0.54447 0.0
O422 O 0.55845 0.09494 0.52512 0.0
O423 O 0.60012 0.0974 0.53072 0.0
H424 H 0.67591 0.04128 0.4827 0.0
H425 H 0.70516 1.01363 0.49036 0.0
H426 H 0.67155 0.99049 0.56058 0.0
H427 H 0.64188 1.01758 0.55229 0.0
H428 H 0.45175 0.04235 0.52803 0.0
H429 H 0.42422 0.07277 0.5253 0.0
H430 H 0.48286 0.13599 0.50616 0.0
H431 H 0.51057 0.10564 0.51022 0.0
La432 La 0.29981 0.31465 0.76801 0.0
La433 La 0.35154 0.30125 0.77886 0.0
C434 C 0.25418 0.31034 0.76477 0.0
C435 C 0.23371 0.30126 0.78044 0.0
C436 C 0.20941 0.29474 0.76725 0.0
C437 C 0.1897 0.28808 0.78212 0.0
C438 C 0.19381 0.28783 0.81064 0.0
C439 C 0.21831 0.29406 0.82367 0.0
C440 C 0.23799 0.30063 0.80876 0.0
C441 C 0.33692 0.35938 0.76401 0.0
C442 C 0.32827 0.32501 0.83003 0.0
C443 C 0.39694 0.30425 0.78247 0.0
C444 C 0.41801 0.31115 0.76705 0.0
C445 C 0.41512 0.30539 0.7379 0.0
C446 C 0.43569 0.30871 0.72392 0.0
C447 C 0.45965 0.31781 0.73875 0.0
C448 C 0.46233 0.32448 0.76792 0.0
C449 C 0.44179 0.32115 0.78184 0.0
C450 C 0.31411 0.2569 0.78324 0.0
C451 C 0.32351 0.29014 0.71703 0.0
O452 O 0.27114 0.3329 0.77697 0.0
O453 O 0.26359 0.29103 0.75219 0.0
O454 O 0.31362 0.35779 0.76018 0.0
O455 O 0.33781 0.3354 0.76891 0.0
O456 O 0.30727 0.32086 0.81342 0.0
O457 O 0.34844 0.32055 0.82078 0.0
O458 O 0.37962 0.28168 0.77124 0.0
O459 O 0.38807 0.32468 0.79366 0.0
O460 O 0.33734 0.25814 0.78684 0.0
O461 O 0.31359 0.28085 0.77815 0.0
O462 O 0.34442 0.29498 0.73386 0.0
O463 O 0.3032 0.29498 0.72578 0.0
H464 H 0.20563 0.29512 0.74543 0.0
H465 H 0.17123 0.28297 0.77115 0.0
H466 H 0.22238 0.29449 0.84562 0.0
H467 H 0.25655 0.30568 0.81947 0.0
H468 H 0.39698 0.29753 0.72594 0.0
H469 H 0.43279 0.30316 0.7015 0.0
H470 H 0.48037 0.33205 0.7801 0.0
H471 H 0.44453 0.32569 0.80431 0.0
La472 La 0.06998 0.08626 0.53695 0.0
La473 La 0.08025 0.03208 0.51509 0.0
C474 C 0.06987 0.13718 0.54686 0.0
C475 C 0.07652 0.1606 0.53245 0.0
C476 C 0.06788 0.18434 0.53968 0.0
C477 C 0.07563 0.20767 0.52778 0.0
C478 C 0.09236 0.20776 0.50855 0.0
C479 C 0.10047 0.18353 0.50082 0.0
C480 C 0.09254 0.16013 0.51259 0.0
C481 C 0.03658 0.04221 0.54407 0.0
C482 C 0.05452 0.06001 0.47069 0.0
C483 C 0.08021 0.98113 0.50681 0.0
C484 C 0.07292 0.95974 0.5235 0.0
C485 C 0.07883 0.93406 0.51752 0.0
C486 C 0.07121 0.91351 0.53302 0.0
C487 C 0.05747 0.91832 0.55472 0.0
C488 C 0.05171 0.94424 0.56063 0.0
C489 C 0.05944 0.96476 0.54526 0.0
C490 C 0.11361 0.07623 0.50804 0.0
C491 C 0.0955 0.05822 0.5814 0.0
O492 O 0.05055 0.11706 0.5353 0.0
O493 O 0.08806 0.12755 0.55563 0.0
O494 O 0.04229 0.06644 0.56057 0.0
O495 O 0.04794 0.04437 0.52361 0.0
O496 O 0.05992 0.08283 0.49081 0.0
O497 O 0.0597 0.03675 0.47625 0.0
O498 O 0.09965 1.0014 0.51758 0.0
O499 O 0.06237 0.99056 0.49671 0.0
O500 O 0.10791 0.052 0.49145 0.0
O501 O 0.10228 0.0739 0.5285 0.0
O502 O 0.09023 0.03552 0.56121 0.0
O503 O 0.09035 0.08148 0.57587 0.0
H504 H 0.05543 0.18501 0.55488 0.0
H505 H 0.0686 0.22571 0.53378 0.0
H506 H 0.1135 0.1829 0.4863 0.0
H507 H 0.09936 0.1419 0.50667 0.0
H508 H 0.08927 0.92987 0.50083 0.0
H509 H 0.07626 0.89395 0.52815 0.0
H510 H 0.04087 0.94856 0.57686 0.0
H511 H 0.05465 0.98447 0.55017 0.0
La512 La 0.34147 0.8244 0.77422 0.0
La513 La 0.29505 0.78325 0.77774 0.0
C514 C 0.38406 0.85599 0.78752 0.0
C515 C 0.40915 0.85318 0.78736 0.0
C516 C 0.41395 0.82901 0.7728 0.0
C517 C 0.43782 0.82572 0.77507 0.0
C518 C 0.45718 0.84653 0.79201 0.0
C519 C 0.4522 0.87096 0.80598 0.0
C520 C 0.4284 0.87423 0.80364 0.0
C521 C 0.31803 0.79492 0.72609 0.0
C522 C 0.34317 0.75866 0.77712 0.0
C523 C 0.25263 0.7509 0.76659 0.0
C524 C 0.22746 0.75211 0.76952 0.0
C525 C 0.20838 0.72796 0.75979 0.0
C526 C 0.18413 0.72879 0.76115 0.0
C527 C 0.17854 0.75386 0.77226 0.0
C528 C 0.19784 0.77796 0.78255 0.0
C529 C 0.22217 0.77707 0.78124 0.0
C530 C 0.31854 0.81441 0.82558 0.0
C531 C 0.29242 0.84785 0.77314 0.0
O532 O 0.37084 0.85257 0.76328 0.0
O533 O 0.37184 0.84314 0.80479 0.0
O534 O 0.33123 0.82054 0.72973 0.0
O535 O 0.31999 0.78668 0.74865 0.0
O536 O 0.35578 0.78541 0.77837 0.0
O537 O 0.31874 0.75327 0.77514 0.0
O538 O 0.26731 0.75382 0.78967 0.0
O539 O 0.26313 0.76513 0.74914 0.0
O540 O 0.30523 0.78903 0.82301 0.0
O541 O 0.31622 0.82118 0.80248 0.0
O542 O 0.28076 0.8208 0.77135 0.0
O543 O 0.31707 0.85471 0.77618 0.0
H544 H 0.3992 0.81249 0.76017 0.0
H545 H 0.44106 0.80676 0.76389 0.0
H546 H 0.46652 0.88715 0.81966 0.0
H547 H 0.42492 0.89288 0.81521 0.0
H548 H 0.21222 0.70855 0.75065 0.0
H549 H 0.1697 0.70999 0.7526 0.0
H550 H 0.19413 0.79753 0.79138 0.0
H551 H 0.23678 0.79587 0.78903 0.0
La552 La 0.57969 0.06994 0.07762 0.0
La553 La 0.56297 0.06612 0.01605 0.0
C554 C 0.58688 0.08049 0.12981 0.0
C555 C 0.57373 0.09182 0.15111 0.0
C556 C 0.58198 0.09356 0.17913 0.0
C557 C 0.56929 0.10386 0.19954 0.0
C558 C 0.54815 0.11261 0.19218 0.0
C559 C 0.54038 0.11157 0.16402 0.0
C560 C 0.55303 0.10116 0.14365 0.0
C561 C 0.58551 0.02648 0.04319 0.0
C562 C 0.52316 0.04976 0.05271 0.0
C563 C 0.55361 0.05359 0.96408 0.0
C564 C 0.56483 0.04347 0.94046 0.0
C565 C 0.55002 0.03244 0.91481 0.0
C566 C 0.56024 0.02343 0.89162 0.0
C567 C 0.58553 0.02553 0.89373 0.0
C568 C 0.60017 0.03555 0.91984 0.0
C569 C 0.58985 0.04441 0.94312 0.0
C570 C 0.55633 0.10951 0.04968 0.0
C571 C 0.61886 0.09028 0.04127 0.0
O572 O 0.57575 0.05572 0.11494 0.0
O573 O 0.59634 0.09796 0.11457 0.0
O574 O 0.60032 0.03853 0.06591 0.0
O575 O 0.56803 0.03762 0.04177 0.0
O576 O 0.53957 0.06231 0.0749 0.0
O577 O 0.52936 0.04462 0.02776 0.0
O578 O 0.56392 0.07905 0.97791 0.0
O579 O 0.54744 0.03585 0.9803 0.0
O580 O 0.54256 0.0978 0.02622 0.0
O581 O 0.57389 0.09849 0.05205 0.0
O582 O 0.60313 0.07581 0.01913 0.0
O583 O 0.61254 0.09431 0.06631 0.0
H584 H 0.59801 0.08653 0.18519 0.0
H585 H 0.57552 0.10402 0.22101 0.0
H586 H 0.52433 0.11844 0.15772 0.0
H587 H 0.54652 0.10015 0.12209 0.0
H588 H 0.53057 0.03116 0.91263 0.0
H589 H 0.54842 1.01529 0.87192 0.0
H590 H 0.61973 0.03756 0.92209 0.0
H591 H 0.60143 0.0525 0.96299 0.0
La592 La 0.3377 0.33406 0.28477 0.0
La593 La 0.30087 0.28139 0.24884 0.0
C594 C 0.36153 0.38317 0.30582 0.0
C595 C 0.35422 0.40944 0.30558 0.0
C596 C 0.33767 0.41681 0.32301 0.0
C597 C 0.3245 0.4357 0.31684 0.0
C598 C 0.32781 0.4476 0.29334 0.0
C599 C 0.34664 0.44311 0.27818 0.0
C600 C 0.35986 0.42425 0.28436 0.0
C601 C 0.32537 0.29101 0.30999 0.0
C602 C 0.28058 0.33194 0.27289 0.0
C603 C 0.27301 0.2328 0.23756 0.0
C604 C 0.275 0.20895 0.25019 0.0
C605 C 0.25739 0.18322 0.24258 0.0
C606 C 0.26079 0.1604 0.25394 0.0
C607 C 0.28182 0.16322 0.27303 0.0
C608 C 0.29888 0.18946 0.28109 0.0
C609 C 0.29547 0.21197 0.26979 0.0
C610 C 0.31583 0.31869 0.21734 0.0
C611 C 0.35792 0.28672 0.25572 0.0
O612 O 0.34925 0.36617 0.31993 0.0
O613 O 0.36423 0.36987 0.28158 0.0
O614 O 0.34666 0.30888 0.31461 0.0
O615 O 0.3118 0.29846 0.29245 0.0
O616 O 0.30331 0.34677 0.28291 0.0
O617 O 0.27522 0.30584 0.25906 0.0
O618 O 0.29085 0.24136 0.22364 0.0
O619 O 0.26855 0.25357 0.25426 0.0
O620 O 0.30014 0.29465 0.20827 0.0
O621 O 0.32162 0.32024 0.24291 0.0
O622 O 0.33576 0.26974 0.25347 0.0
O623 O 0.36225 0.31399 0.26401 0.0
H624 H 0.33331 0.40627 0.33996 0.0
H625 H 0.31043 0.43938 0.3292 0.0
H626 H 0.34964 0.45213 0.25999 0.0
H627 H 0.37285 0.41937 0.27091 0.0
H628 H 0.24141 0.18065 0.2275 0.0
H629 H 0.24732 0.14048 0.24735 0.0
H630 H 0.31562 0.19242 0.2951 0.0
H631 H 0.30926 0.23167 0.27587 0.0
La632 La 0.57256 0.58737 0.03613 0.0
La633 La 0.57344 0.52986 0.01536 0.0
C634 C 0.57923 0.63968 0.04352 0.0
C635 C 0.58471 0.66003 0.02543 0.0
C636 C 0.58305 0.68745 0.03409 0.0
C637 C 0.5903 0.70753 0.01802 0.0
C638 C 0.5994 0.70047 0.99307 0.0
C639 C 0.6004 0.67271 0.98414 0.0
C640 C 0.59312 0.65267 1.00018 0.0
C641 C 0.53689 0.54998 0.04995 0.0
C642 C 0.54931 0.55898 0.9716 0.0
C643 C 0.56793 0.47777 1.00791 0.0
C644 C 0.56668 0.45799 0.02676 0.0
C645 C 0.57242 0.43249 0.01858 0.0
C646 C 0.5707 0.4133 0.03622 0.0
C647 C 0.56318 0.41937 0.06234 0.0
C648 C 0.55775 0.44518 0.07054 0.0
C649 C 0.55952 0.46433 0.05294 0.0
C650 C 0.60952 0.56808 1.00278 0.0
C651 C 0.59703 0.55782 0.07972 0.0
O652 O 0.55753 0.62208 0.03784 0.0
O653 O 0.59652 0.62724 0.0485 0.0
O654 O 0.54803 0.57398 0.06555 0.0
O655 O 0.54481 0.54845 0.02693 0.0
O656 O 0.55908 0.58256 0.99033 0.0
O657 O 0.55123 0.53485 0.97808 0.0
O658 O 0.58914 0.49569 1.00966 0.0
O659 O 0.54978 0.48966 1.0066 0.0
O660 O 0.59862 0.54435 0.9865 0.0
O661 O 0.60089 0.56866 0.02525 0.0
O662 O 0.58762 0.53435 0.0608 0.0
O663 O 0.59467 0.58196 0.07351 0.0
H664 H 0.57673 0.69349 0.05361 0.0
H665 H 0.58954 0.72879 0.0256 0.0
H666 H 0.60701 0.66652 0.96486 0.0
H667 H 0.5946 0.63159 0.99318 0.0
H668 H 0.57811 0.42736 0.99849 0.0
H669 H 0.57531 0.39375 0.02945 0.0
H670 H 0.55157 0.45037 0.09032 0.0
H671 H 0.55495 0.48392 0.05963 0.0
La672 La 0.84535 0.32815 0.26992 0.0
La673 La 0.80294 0.28424 0.2784 0.0
C674 C 0.88622 0.36366 0.27939 0.0
C675 C 0.9119 0.36374 0.28653 0.0
C676 C 0.92047 0.34013 0.27778 0.0
C677 C 0.94374 0.33899 0.28904 0.0
C678 C 0.95842 0.36127 0.3094 0.0
C679 C 0.95016 0.3853 0.31709 0.0
C680 C 0.9271 0.38653 0.30567 0.0
C681 C 0.82049 0.29476 0.22396 0.0
C682 C 0.85347 0.2657 0.27685 0.0
C683 C 0.76214 0.2492 0.27222 0.0
C684 C 0.73769 0.24948 0.27894 0.0
C685 C 0.718 0.22637 0.26764 0.0
C686 C 0.69431 0.22686 0.27251 0.0
C687 C 0.68997 0.25053 0.28883 0.0
C688 C 0.70999 0.27333 0.30092 0.0
C689 C 0.7337 0.27283 0.29593 0.0
C690 C 0.82719 0.31887 0.32412 0.0
C691 C 0.79474 0.34697 0.27094 0.0
O692 O 0.87516 0.35121 0.25436 0.0
O693 O 0.87266 0.35748 0.29846 0.0
O694 O 0.83145 0.321 0.22579 0.0
O695 O 0.82535 0.2883 0.24696 0.0
O696 O 0.86325 0.29326 0.27826 0.0
O697 O 0.8291 0.25675 0.27432 0.0
O698 O 0.7792 0.25341 0.29349 0.0
O699 O 0.76952 0.26337 0.25328 0.0
O700 O 0.81646 0.29282 0.32315 0.0
O701 O 0.82239 0.32406 0.30065 0.0
O702 O 0.78516 0.31997 0.27249 0.0
O703 O 0.81885 0.35536 0.27029 0.0
H704 H 0.90884 0.32221 0.2632 0.0
H705 H 0.94975 0.32021 0.28293 0.0
H706 H 0.9613 0.40281 0.33257 0.0
H707 H 0.92066 0.4048 0.31279 0.0
H708 H 0.72087 0.20822 0.25446 0.0
H709 H 0.6793 0.20919 0.26242 0.0
H710 H 0.70726 0.29176 0.31372 0.0
H711 H 0.74883 0.29083 0.30489 0.0
La712 La 0.07968 0.5501 0.56135 0.0
La713 La 0.07556 0.56951 0.50693 0.0
C714 C 0.07608 0.54429 0.6104 0.0
C715 C 0.0589 0.54985 0.62945 0.0
C716 C 0.06314 0.54648 0.65688 0.0
C717 C 0.04749 0.55305 0.67554 0.0
C718 C 0.02732 0.56283 0.66686 0.0
C719 C 0.02308 0.56611 0.63932 0.0
C720 C 0.03894 0.55994 0.62081 0.0
C721 C 0.08898 0.51638 0.51933 0.0
C722 C 0.02762 0.54004 0.52471 0.0
C723 C 0.0795 0.58125 0.45994 0.0
C724 C 0.0973 0.57976 0.4408 0.0
C725 C 0.0963 0.59287 0.41808 0.0
C726 C 0.1124 0.59044 0.39887 0.0
C727 C 0.12972 0.57491 0.40225 0.0
C728 C 0.1312 0.56252 0.42556 0.0
C729 C 0.11498 0.56484 0.44471 0.0
C730 C 0.06545 0.60191 0.54942 0.0
C731 C 0.12784 0.57543 0.54069 0.0
O732 O 0.06719 0.52403 0.5888 0.0
O733 O 0.08948 0.56659 0.60381 0.0
O734 O 0.09851 0.51883 0.54485 0.0
O735 O 0.07321 0.53023 0.51863 0.0
O736 O 0.04015 0.54457 0.54985 0.0
O737 O 0.03853 0.54458 0.50301 0.0
O738 O 0.08747 0.59956 0.48313 0.0
O739 O 0.06693 0.55713 0.46384 0.0
O740 O 0.05485 0.59831 0.52424 0.0
O741 O 0.08211 0.58933 0.5497 0.0
O742 O 0.11467 0.5722 0.51618 0.0
O743 O 0.1176 0.5716 0.56299 0.0
H744 H 0.07864 0.539 0.66389 0.0
H745 H 0.05098 0.5502 0.69667 0.0
H746 H 1.00776 0.57386 0.63228 0.0
H747 H 0.03578 0.56338 0.5999 0.0
H748 H 0.0828 0.60456 0.41496 0.0
H749 H 0.11112 0.60037 0.38114 0.0
H750 H 0.14424 0.55023 0.42843 0.0
H751 H 0.11587 0.55451 0.46217 0.0
La752 La 0.79692 0.81433 0.26873 0.0
La753 La 0.84842 0.79994 0.27736 0.0
C754 C 0.75177 0.81242 0.26639 0.0
C755 C 0.73117 0.80418 0.28201 0.0
C756 C 0.70873 0.80995 0.27417 0.0
C757 C 0.68966 0.80514 0.29016 0.0
C758 C 0.69257 0.79445 0.31451 0.0
C759 C 0.71495 0.78793 0.32184 0.0
C760 C 0.73405 0.79282 0.30581 0.0
C761 C 0.83456 0.85909 0.2656 0.0
C762 C 0.82456 0.81981 0.32992 0.0
C763 C 0.89385 0.80325 0.27977 0.0
C764 C 0.91488 0.81071 0.26428 0.0
C765 C 0.91276 0.80153 0.23543 0.0
C766 C 0.93361 0.80543 0.22192 0.0
C767 C 0.95715 0.81858 0.23689 0.0
C768 C 0.95897 0.82867 0.2656 0.0
C769 C 0.93814 0.82473 0.27907 0.0
C770 C 0.81121 0.75524 0.28095 0.0
C771 C 0.81888 0.79121 0.2161 0.0
O772 O 0.76945 0.83402 0.27917 0.0
O773 O 0.76021 0.79254 0.25315 0.0
O774 O 0.81141 0.85818 0.26281 0.0
O775 O 0.83494 0.83469 0.26944 0.0
O776 O 0.8038 0.81622 0.31321 0.0
O777 O 0.84521 0.81707 0.32051 0.0
O778 O 0.87649 0.78076 0.26839 0.0
O779 O 0.88504 0.82336 0.29185 0.0
O780 O 0.83445 0.75647 0.28413 0.0
O781 O 0.81041 0.77943 0.27666 0.0
O782 O 0.84007 0.79439 0.23205 0.0
O783 O 0.79915 0.79606 0.22618 0.0
H784 H 0.70618 0.81898 0.25602 0.0
H785 H 0.67298 0.81083 0.28395 0.0
H786 H 0.71784 0.77928 0.34016 0.0
H787 H 0.75123 0.78827 0.31232 0.0
H788 H 0.89509 0.79055 0.22341 0.0
H789 H 0.93134 0.79715 0.19988 0.0
H790 H 0.97659 0.83939 0.27783 0.0
H791 H 0.94035 0.83197 0.30131 0.0
La792 La 0.83013 0.29306 0.74705 0.0
La793 La 0.80429 0.29781 0.79713 0.0
C794 C 0.84879 0.299 0.70381 0.0
C795 C 0.84733 0.31785 0.68464 0.0
C796 C 0.86314 0.32003 0.66472 0.0
C797 C 0.86115 0.3373 0.64575 0.0
C798 C 0.84323 0.35248 0.64644 0.0
C799 C 0.82776 0.35063 0.6669 0.0
C800 C 0.82984 0.33346 0.68592 0.0
C801 C 0.85287 0.28034 0.79159 0.0
C802 C 0.8351 0.35187 0.78369 0.0
C803 C 0.79373 0.29607 0.84511 0.0
C804 C 0.80645 0.29552 0.87217 0.0
C805 C 0.79614 0.30258 0.89603 0.0
C806 C 0.80538 0.29726 0.92123 0.0
C807 C 0.82512 0.28482 0.92283 0.0
C808 C 0.83662 0.27988 0.89926 0.0
C809 C 0.82722 0.28499 0.87405 0.0
C810 C 0.77474 0.30458 0.75426 0.0
C811 C 0.79442 0.24014 0.75531 0.0
O812 O 0.86021 0.31098 0.72876 0.0
O813 O 0.82817 0.28076 0.70416 0.0
O814 O 0.85171 0.26816 0.76613 0.0
O815 O 0.84171 0.2993 0.79122 0.0
O816 O 0.83278 0.33762 0.75816 0.0
O817 O 0.82871 0.33927 0.80415 0.0
O818 O 0.79155 0.27393 0.82587 0.0
O819 O 0.79984 0.31932 0.83589 0.0
O820 O 0.76998 0.306 0.77935 0.0
O821 O 0.79569 0.30004 0.75456 0.0
O822 O 0.79692 0.25271 0.78155 0.0
O823 O 0.80319 0.25362 0.73642 0.0
H824 H 0.87684 0.30823 0.66371 0.0
H825 H 0.8736 0.33873 0.6305 0.0
H826 H 0.81366 0.36187 0.66778 0.0
H827 H 0.81754 0.332 0.70133 0.0
H828 H 0.78004 0.31066 0.89485 0.0
H829 H 0.79594 0.30103 0.93891 0.0
H830 H 0.85203 0.27061 0.89993 0.0
H831 H 0.83521 0.27915 0.85571 0.0
La832 La 0.84301 0.84061 0.79834 0.0
La833 La 0.80648 0.79181 0.76365 0.0
C834 C 0.8675 0.88975 0.81821 0.0
C835 C 0.86086 0.91518 0.81314 0.0
C836 C 0.86297 0.93765 0.83508 0.0
C837 C 0.85083 0.95838 0.83165 0.0
C838 C 0.83623 0.95662 0.80632 0.0
C839 C 0.83563 0.93499 0.78396 0.0
C840 C 0.84783 0.91461 0.78733 0.0
C841 C 0.82825 0.79936 0.8252 0.0
C842 C 0.78741 0.84141 0.78966 0.0
C843 C 0.77959 0.7434 0.7439 0.0
C844 C 0.78098 0.71593 0.74987 0.0
C845 C 0.7936 0.6997 0.73392 0.0
C846 C 0.79956 0.67694 0.74293 0.0
C847 C 0.793 0.67007 0.76804 0.0
C848 C 0.77855 0.68473 0.7827 0.0
C849 C 0.77233 0.70728 0.77352 0.0
C850 C 0.82107 0.8328 0.73646 0.0
C851 C 0.86276 0.79145 0.77361 0.0
O852 O 0.85253 0.87488 0.83176 0.0
O853 O 0.8725 0.87424 0.79661 0.0
O854 O 0.84993 0.8164 0.83008 0.0
O855 O 0.81541 0.8072 0.80732 0.0
O856 O 0.81031 0.8563 0.79246 0.0
O857 O 0.78159 0.8141 0.78121 0.0
O858 O 0.79721 0.75607 0.73177 0.0
O859 O 0.77477 0.76063 0.76417 0.0
O860 O 0.7993 0.81607 0.73229 0.0
O861 O 0.83405 0.82506 0.75434 0.0
O862 O 0.83966 0.77635 0.76844 0.0
O863 O 0.86863 0.81856 0.78332 0.0
H864 H 0.87273 0.93827 0.85524 0.0
H865 H 0.85193 0.97496 0.84919 0.0
H866 H 0.82419 0.93237 0.76434 0.0
H867 H 0.84541 0.8972 0.77021 0.0
H868 H 0.80017 0.70559 0.71538 0.0
H869 H 0.8108 0.66599 0.73128 0.0
H870 H 0.77301 0.67955 0.80193 0.0
H871 H 0.76194 0.71885 0.78585 0.0
La872 La 0.5574 0.5384 0.50858 0.0
La873 La 0.6006 0.57783 0.54622 0.0
C874 C 0.51421 0.50922 0.49162 0.0
C875 C 0.49054 0.51347 0.49772 0.0
C876 C 0.46886 0.49266 0.48722 0.0
C877 C 0.44624 0.49749 0.49225 0.0
C878 C 0.44515 0.52319 0.50787 0.0
C879 C 0.46709 0.54375 0.51866 0.0
C880 C 0.48955 0.53892 0.51364 0.0
C881 C 0.59516 0.54434 0.47766 0.0
C882 C 0.56548 0.60453 0.51254 0.0
C883 C 0.64403 0.60625 0.56241 0.0
C884 C 0.66654 0.60102 0.55326 0.0
C885 C 0.6895 0.61924 0.56428 0.0
C886 C 0.71076 0.6132 0.55563 0.0
C887 C 0.70914 0.58903 0.53568 0.0
C888 C 0.68598 0.57117 0.52449 0.0
C889 C 0.66493 0.57702 0.53334 0.0
C890 C 0.56238 0.57171 0.57678 0.0
C891 C 0.59367 0.51267 0.54297 0.0
O892 O 0.52627 0.52724 0.47842 0.0
O893 O 0.52825 0.50529 0.51242 0.0
O894 O 0.57334 0.52803 0.47014 0.0
O895 O 0.59533 0.55568 0.5032 0.0
O896 O 0.54998 0.57934 0.50482 0.0
O897 O 0.58694 0.60822 0.5275 0.0
O898 O 0.63242 0.58761 0.57532 0.0
O899 O 0.62922 0.61193 0.54345 0.0
O900 O 0.58438 0.58751 0.58484 0.0
O901 O 0.56266 0.56056 0.55136 0.0
O902 O 0.60876 0.53793 0.54872 0.0
O903 O 0.57169 0.50788 0.52838 0.0
H904 H 0.4694 0.47288 0.47492 0.0
H905 H 0.42965 0.48121 0.48383 0.0
H906 H 0.46691 0.56397 0.53031 0.0
H907 H 0.50618 0.55522 0.52185 0.0
H908 H 0.69099 0.63783 0.57972 0.0
H909 H 0.72842 0.62727 0.5646 0.0
H910 H 0.68416 0.55212 0.50953 0.0
H911 H 0.64732 0.56262 0.52479 0.0
La912 La 0.09278 0.55758 0.01336 0.0
La913 La 0.03615 0.54381 1.01054 0.0
C914 C 0.13752 0.55894 0.02621 0.0
C915 C 0.15577 0.5418 0.02588 0.0
C916 C 0.17016 0.54037 1.00435 0.0
C917 C 0.18975 0.52781 1.00583 0.0
C918 C 0.1957 0.51642 0.02897 0.0
C919 C 0.18088 0.51717 0.05019 0.0
C920 C 0.16129 0.5298 0.04873 0.0
C921 C 0.06836 0.56544 0.96916 0.0
C922 C 0.05868 0.49433 0.98975 0.0
C923 C 0.99121 0.5425 1.00115 0.0
C924 C 0.975 0.5617 1.00334 0.0
C925 C 0.95075 0.55165 1.00779 0.0
C926 C 0.93476 0.56909 1.00935 0.0
C927 C 0.94263 0.59708 1.00639 0.0
C928 C 0.96707 0.60709 1.00197 0.0
C929 C 0.98308 0.58962 1.00057 0.0
C930 C 0.06157 0.53733 0.05494 0.0
C931 C 0.06939 0.60762 0.03134 0.0
O932 O 0.12839 0.56365 1.00258 0.0
O933 O 0.1211 0.55517 0.04301 0.0
O934 O 0.09079 0.57951 0.97868 0.0
O935 O 0.06181 0.54621 0.98216 0.0
O936 O 0.08084 0.51105 1.00038 0.0
O937 O 0.03869 0.50364 0.98849 0.0
O938 O 1.00178 0.53869 0.02446 0.0
O939 O 1.00613 0.54475 0.98257 0.0
O940 O 0.0402 0.52084 0.0443 0.0
O941 O 0.06702 0.55634 0.04152 0.0
O942 O 0.04759 0.58991 0.02143 0.0
O943 O 0.08991 0.59913 0.03285 0.0
H944 H 0.16674 0.54969 0.98662 0.0
H945 H 0.20042 0.52731 0.98887 0.0
H946 H 0.18498 0.50895 0.06849 0.0
H947 H 0.15096 0.53094 0.06599 0.0
H948 H 0.94414 0.53019 1.01007 0.0
H949 H 0.91631 0.56068 0.01328 0.0
H950 H 0.9738 0.62835 0.99924 0.0
H951 H 1.00171 0.5979 0.99714 0.0
H952 H 0.01782 0.18476 0.93973 0.0
H953 H 0.07806 0.24507 0.99414 0.0
H954 H 0.08779 0.20853 0.01614 0.0
H955 H 0.08038 0.15928 0.01991 0.0
H956 H 0.01984 0.09814 0.96716 0.0
H957 H 1.00919 0.13478 0.94511 0.0
C958 C 0.03302 0.18993 0.95645 0.0
C959 C 0.04714 0.21801 0.96499 0.0
C960 C 0.03859 0.16849 0.96954 0.0
C961 C 0.06671 0.22396 0.98688 0.0
C962 C 0.0724 0.20293 0.9996 0.0
C963 C 0.06474 0.15384 1.00369 0.0
C964 C 0.05106 0.12568 0.99534 0.0
C965 C 0.05862 0.17511 0.99109 0.0
C966 C 0.03079 0.11946 0.97426 0.0
C967 C 0.02471 0.1405 0.96148 0.0
H968 H 0.19935 0.79753 0.14682 0.0
H969 H 0.17817 0.86177 0.20106 0.0
H970 H 0.21353 0.86577 0.23566 0.0
H971 H 0.24976 0.84974 0.25145 0.0
H972 H 0.27039 0.785 0.19738 0.0
H973 H 0.23621 0.78268 0.16186 0.0
C974 C 0.20244 0.81257 0.16613 0.0
C975 C 0.18581 0.8293 0.17115 0.0
C976 C 0.22282 0.81463 0.18608 0.0
C977 C 0.19043 0.8486 0.19643 0.0
C978 C 0.21072 0.85086 0.21631 0.0
C979 C 0.24689 0.83522 0.23182 0.0
C980 C 0.26271 0.81744 0.22724 0.0
C981 C 0.22693 0.83381 0.2115 0.0
C982 C 0.25859 0.79884 0.2016 0.0
C983 C 0.23896 0.79749 0.18127 0.0
H984 H 0.51322 0.87418 0.41939 0.0
H985 H 0.5672 0.85339 0.47392 0.0
H986 H 0.58036 0.90223 0.49913 0.0
H987 H 0.57699 0.95174 0.50481 0.0
H988 H 0.52047 0.97006 0.45145 0.0
H989 H 0.50804 0.92167 0.42674 0.0
C990 C 0.52782 0.88025 0.43687 0.0
C991 C 0.53929 0.86009 0.44459 0.0
C992 C 0.53497 0.90816 0.45145 0.0
C993 C 0.55796 0.86838 0.46756 0.0
C994 C 0.56558 0.89639 0.48188 0.0
C995 C 0.56199 0.94505 0.48776 0.0
C996 C 0.54978 0.9647 0.47995 0.0
C997 C 0.55435 0.91663 0.47388 0.0
C998 C 0.53015 0.95553 0.45803 0.0
C999 C 0.52302 0.92778 0.44379 0.0
H1000 H 0.55953 0.31574 0.69074 0.0
H1001 H 0.52389 0.34725 0.6264 0.0
H1002 H 0.48849 0.34573 0.6506 0.0
H1003 H 0.46716 0.33553 0.68998 0.0
H1004 H 0.50207 0.30339 0.75425 0.0
H1005 H 0.53795 0.30547 0.73048 0.0
C1006 C 0.54404 0.32231 0.68204 0.0
C1007 C 0.54458 0.33156 0.65664 0.0
C1008 C 0.52345 0.3214 0.69616 0.0
C1009 C 0.5242 0.33998 0.64581 0.0
C1010 C 0.50381 0.33914 0.65967 0.0
C1011 C 0.48251 0.32877 0.69874 0.0
C1012 C 0.48172 0.3194 0.72404 0.0
C1013 C 0.50315 0.32982 0.68482 0.0
C1014 C 0.50212 0.31114 0.73511 0.0
C1015 C 0.52268 0.31213 0.72138 0.0
H1016 H 0.01952 0.8126 0.60768 0.0
H1017 H 0.03539 0.87667 0.68189 0.0
H1018 H 0.04815 0.91247 0.65478 0.0
H1019 H 0.05622 0.92555 0.6104 0.0
H1020 H 0.03981 0.86179 0.53594 0.0
H1021 H 0.02632 0.82594 0.56287 0.0
C1022 C 0.0256 0.8344 0.61791 0.0
C1023 C 0.0265 0.84187 0.64682 0.0
C1024 C 0.03311 0.85496 0.60221 0.0
C1025 C 0.0345 0.87026 0.6597 0.0
C1026 C 0.04187 0.89079 0.64421 0.0
C1027 C 0.04941 0.90386 0.59995 0.0
C1028 C 0.04911 0.89646 0.57114 0.0
C1029 C 0.04144 0.88337 0.61551 0.0
C1030 C 0.04063 0.86812 0.55812 0.0
C1031 C 0.03272 0.84759 0.57349 0.0
H1032 H 0.55365 0.81419 0.83147 0.0
H1033 H 0.58454 0.90146 0.83176 0.0
H1034 H 0.54506 0.90507 0.81038 0.0
H1035 H 0.50095 0.88477 0.7962 0.0
H1036 H 0.46949 0.79844 0.79925 0.0
H1037 H 0.5101 0.79298 0.81395 0.0
C1038 C 0.55187 0.83389 0.82644 0.0
C1039 C 0.57195 0.85758 0.83347 0.0
C1040 C 0.52896 0.83602 0.81481 0.0
C1041 C 0.56932 0.88295 0.82678 0.0
C1042 C 0.54673 0.88506 0.8146 0.0
C1043 C 0.50298 0.86472 0.79999 0.0
C1044 C 0.48214 0.84217 0.79693 0.0
C1045 C 0.52628 0.86195 0.80932 0.0
C1046 C 0.48519 0.81614 0.80125 0.0
C1047 C 0.50841 0.81305 0.80992 0.0
H1048 H 0.5193 0.19733 0.12976 0.0
H1049 H 0.59251 0.21159 0.17285 0.0
H1050 H 0.59985 0.17412 0.13919 0.0
H1051 H 0.58683 0.14019 0.09536 0.0
H1052 H 0.51384 0.12545 0.05195 0.0
H1053 H 0.50518 0.16065 0.08752 0.0
C1054 C 0.53672 0.19197 0.13196 0.0
C1055 C 0.55542 0.20742 0.15357 0.0
C1056 C 0.54102 0.17072 0.1122 0.0
C1057 C 0.57791 0.20023 0.15619 0.0
C1058 C 0.58217 0.17886 0.13692 0.0
C1059 C 0.56894 0.14443 0.09395 0.0
C1060 C 0.55101 0.13038 0.07121 0.0
C1061 C 0.5641 0.16447 0.11448 0.0
C1062 C 0.52799 0.13627 0.06926 0.0
C1063 C 0.523 0.15625 0.08963 0.0
H1064 H 0.1836 0.34925 0.31341 0.0
H1065 H 0.23443 0.41984 0.36813 0.0
H1066 H 0.26755 0.41183 0.3423 0.0
H1067 H 0.28293 0.38053 0.30868 0.0
H1068 H 0.23173 0.30938 0.25483 0.0
H1069 H 0.19786 0.32224 0.27556 0.0
C1070 C 0.20187 0.36308 0.31954 0.0
C1071 C 0.20669 0.38466 0.34305 0.0
C1072 C 0.2208 0.35818 0.30485 0.0
C1073 C 0.23031 0.40284 0.3503 0.0
C1074 C 0.24927 0.39823 0.33559 0.0
C1075 C 0.26433 0.36817 0.30102 0.0
C1076 C 0.26 0.34364 0.28064 0.0
C1077 C 0.24488 0.37533 0.31346 0.0
C1078 C 0.23571 0.3281 0.27079 0.0
C1079 C 0.21628 0.33536 0.28271 0.0
H1080 H 0.9701 0.03729 0.14873 0.0
H1081 H 1.01544 0.1078 0.20858 0.0
H1082 H 0.04455 0.11603 0.17532 0.0
H1083 H 0.05809 0.10341 0.12874 0.0
H1084 H 1.01338 0.03215 0.06953 0.0
H1085 H 0.98367 0.0246 0.10224 0.0
C1086 C 0.98631 0.0546 0.15483 0.0
C1087 C 0.98991 0.07183 0.18216 0.0
C1088 C 1.00339 0.0593 0.13515 0.0
C1089 C 1.01149 0.09395 0.18848 0.0
C1090 C 0.02836 0.0987 0.16912 0.0
C1091 C 0.0418 0.08619 0.12267 0.0
C1092 C 0.03831 0.06879 0.09552 0.0
C1093 C 0.02466 0.08158 0.1423 0.0
C1094 C 1.01685 0.04655 0.08923 0.0
C1095 C 0.99978 0.04204 0.1084 0.0
H1096 H 0.27554 0.70432 0.50961 0.0
H1097 H 0.32404 0.65898 0.47282 0.0
H1098 H 0.3224 0.68175 0.43295 0.0
H1099 H 0.30754 0.71487 0.40898 0.0
H1100 H 0.26112 0.76226 0.44745 0.0
H1101 H 0.26115 0.73777 0.48599 0.0
C1102 C 0.28567 0.6993 0.49282 0.0
C1103 C 0.29986 0.68 0.49412 0.0
C1104 C 0.28491 0.7127 0.47023 0.0
C1105 C 0.31303 0.67386 0.47231 0.0
C1106 C 0.31208 0.68683 0.44952 0.0
C1107 C 0.29761 0.72005 0.4259 0.0
C1108 C 0.28433 0.74037 0.42525 0.0
C1109 C 0.29819 0.70641 0.44836 0.0
C1110 C 0.27117 0.7464 0.44714 0.0
C1111 C 0.27134 0.73258 0.46933 0.0
H1112 H 0.65665 0.03895 0.65024 0.0
H1113 H 0.60791 0.96032 0.65527 0.0
H1114 H 0.57943 0.96449 0.61653 0.0
H1115 H 0.56723 0.99241 0.5832 0.0
H1116 H 0.61554 0.07239 0.58167 0.0
H1117 H 0.64533 0.06573 0.61705 0.0
C1118 C 0.63994 0.0225 0.64276 0.0
C1119 C 0.63436 0.99945 0.65575 0.0
C1120 C 0.62346 0.0254 0.62117 0.0
C1121 C 0.61262 0.97835 0.64566 0.0
C1122 C 0.59627 0.98078 0.62361 0.0
C1123 C 0.58432 1.00825 0.59068 0.0
C1124 C 0.5894 0.03265 0.57965 0.0
C1125 C 0.60126 1.00455 0.61159 0.0
C1126 C 0.6115 0.05314 0.58944 0.0
C1127 C 0.62849 0.04945 0.60979 0.0
H1128 H 0.31808 0.37755 0.95329 0.0
H1129 H 0.39196 0.36886 0.96751 0.0
H1130 H 0.38902 0.34761 0.91889 0.0
H1131 H 0.36631 0.33295 0.87173 0.0
H1132 H 0.29236 0.34122 0.85694 0.0
H1133 H 0.29455 0.36086 0.90603 0.0
C1134 C 0.33347 0.37082 0.94581 0.0
C1135 C 0.35525 0.375 0.96426 0.0
C1136 C 0.33174 0.35855 0.91752 0.0
C1137 C 0.37496 0.36607 0.954 0.0
C1138 C 0.37334 0.35389 0.92606 0.0
C1139 C 0.35059 0.3389 0.87917 0.0
C1140 C 0.32924 0.3356 0.86037 0.0
C1141 C 0.35194 0.35027 0.90754 0.0
C1142 C 0.30908 0.34343 0.8707 0.0
C1143 C 0.31031 0.35477 0.89889 0.0
H1144 H 1.00142 0.03082 0.34358 0.0
H1145 H 0.99383 0.11502 0.36193 0.0
H1146 H 1.01541 0.12088 0.40928 0.0
H1147 H 0.03652 0.10145 0.44697 0.0
H1148 H 0.04304 1.01677 0.42588 0.0
H1149 H 0.0223 1.01225 0.37936 0.0
C1150 C 1.00438 0.05069 0.35766 0.0
C1151 C 0.99553 0.07241 0.34815 0.0
C1152 C 1.01692 0.05392 0.38516 0.0
C1153 C 1.00009 0.09773 0.36771 0.0
C1154 C 1.01256 0.10106 0.39516 0.0
C1155 C 0.03356 0.08198 0.43226 0.0
C1156 C 0.04189 0.05945 0.44108 0.0
C1157 C 0.02112 0.07925 0.40442 0.0
C1158 C 0.03733 0.03466 0.42081 0.0
C1159 C 0.02525 0.03195 0.39374 0.0
H1160 H 0.30555 0.69077 0.63184 0.0
H1161 H 0.35444 0.75162 0.59738 0.0
H1162 H 0.35179 0.78874 0.63498 0.0
H1163 H 0.33764 0.80325 0.67929 0.0
H1164 H 0.29024 0.74164 0.71428 0.0
H1165 H 0.28968 0.70553 0.67433 0.0
C1166 C 0.31566 0.71214 0.6325 0.0
C1167 C 0.33043 0.71837 0.61204 0.0
C1168 C 0.31405 0.73328 0.65408 0.0
C1169 C 0.34312 0.74623 0.61303 0.0
C1170 C 0.34154 0.76748 0.63446 0.0
C1171 C 0.32675 0.78205 0.67781 0.0
C1172 C 0.31388 0.77506 0.69955 0.0
C1173 C 0.32726 0.76119 0.65525 0.0
C1174 C 0.30011 0.74748 0.69763 0.0
C1175 C 0.29999 0.72679 0.67496 0.0
H1176 H 0.64955 1.00299 0.79967 0.0
H1177 H 0.60298 0.04549 0.75885 0.0
H1178 H 0.57971 0.04695 0.79767 0.0
H1179 H 0.57511 0.0402 0.8447 0.0
H1180 H 0.62156 0.99811 0.88615 0.0
H1181 H 0.64262 0.99269 0.84551 0.0
C1182 C 0.63412 1.01225 0.7991 0.0
C1183 C 0.62816 0.02437 0.77654 0.0
C1184 C 0.62103 1.0134 0.82167 0.0
C1185 C 0.60806 0.03619 0.77606 0.0
C1186 C 0.59477 0.0371 0.79827 0.0
C1187 C 0.58946 0.02926 0.84466 0.0
C1188 C 0.59681 0.01963 0.86841 0.0
C1189 C 0.60146 0.02634 0.8214 0.0
C1190 C 0.61579 1.00602 0.86822 0.0
C1191 C 0.62775 1.00283 0.84498 0.0
H1192 H 0.35501 0.41907 0.15654 0.0
H1193 H 0.32694 0.35266 0.08481 0.0
H1194 H 0.315 0.31948 0.11491 0.0
H1195 H 0.31138 0.30918 0.16142 0.0
H1196 H 0.34003 0.37455 0.23357 0.0
H1197 H 0.35294 0.40815 0.20368 0.0
C1198 C 0.34639 0.39731 0.14745 0.0
C1199 C 0.34188 0.38855 0.11823 0.0
C1200 C 0.33964 0.3781 0.16504 0.0
C1201 C 0.33076 0.36016 0.10705 0.0
C1202 C 0.32383 0.3411 0.12431 0.0
C1203 C 0.32054 0.33078 0.17065 0.0
C1204 C 0.32477 0.33932 0.19977 0.0
C1205 C 0.328 0.34984 0.15329 0.0
C1206 C 0.33676 0.36735 0.21131 0.0
C1207 C 0.34403 0.38658 0.19415 0.0
H1208 H 0.30479 0.06032 0.05335 0.0
H1209 H 0.27589 0.02243 0.96781 0.0
H1210 H 0.24327 0.04649 0.96991 0.0
H1211 H 0.22059 0.07413 0.99733 0.0
H1212 H 0.24766 0.10908 0.08381 0.0
H1213 H 0.28382 0.09109 0.0798 0.0
C1214 C 0.29156 0.05762 0.03506 0.0
C1215 C 0.29255 0.03933 1.01059 0.0
C1216 C 0.27253 0.071 0.03658 0.0
C1217 C 0.27535 0.03615 0.98701 0.0
C1218 C 0.25669 0.04989 0.98818 0.0
C1219 C 0.23449 0.07795 0.01526 0.0
C1220 C 0.23129 0.09256 0.0409 0.0
C1221 C 0.25472 0.06669 0.01307 0.0
C1222 C 0.24973 0.09799 0.06379 0.0
C1223 C 0.27029 0.08746 0.06159 0.0
H1224 H 0.71188 0.63129 0.9731 0.0
H1225 H 0.72195 0.66657 0.06051 0.0
H1226 H 0.68025 0.64165 0.06354 0.0
H1227 H 0.64155 0.60771 0.04239 0.0
H1228 H 0.63138 0.5695 0.95585 0.0
H1229 H 0.67204 0.59753 0.9514 0.0
C1230 C 0.7048 0.63371 0.99269 0.0
C1231 C 0.72016 0.6508 0.01656 0.0
C1232 C 0.68071 0.61858 0.99451 0.0
C1233 C 0.7107 0.65345 0.04185 0.0
C1234 C 0.68677 0.6392 0.04363 0.0
C1235 C 0.64812 0.60567 0.02248 0.0
C1236 C 0.63343 0.58646 0.9995 0.0
C1237 C 0.67172 0.62136 0.02026 0.0
C1238 C 0.64234 0.58405 0.9739 0.0
C1239 C 0.66563 0.60008 0.97136 0.0
H1240 H 0.70907 0.41428 0.27663 0.0
H1241 H 0.76916 0.48618 0.28039 0.0
H1242 H 0.79743 0.45558 0.27758 0.0
H1243 H 0.80594 0.40709 0.2741 0.0
H1244 H 0.74464 0.33635 0.27072 0.0
H1245 H 0.71718 0.36716 0.27325 0.0
C1246 C 0.72835 0.42373 0.27685 0.0
C1247 C 0.7362 0.45358 0.2788 0.0
C1248 C 0.74485 0.4056 0.2752 0.0
C1249 C 0.76172 0.46399 0.27898 0.0
C1250 C 0.77815 0.44612 0.27733 0.0
C1251 C 0.78657 0.39813 0.27376 0.0
C1252 C 0.77808 0.36824 0.27194 0.0
C1253 C 0.77012 0.41666 0.2754 0.0
C1254 C 0.75253 0.35843 0.27189 0.0
C1255 C 0.73649 0.37639 0.27341 0.0
H1256 H 0.91343 0.50397 0.48878 0.0
H1257 H 0.9148 0.50879 0.57695 0.0
H1258 H 0.95959 0.52289 0.58381 0.0
H1259 H 0.99821 0.53304 0.56456 0.0
H1260 H 0.99636 0.52734 0.47615 0.0
H1261 H 0.95178 0.51414 0.46966 0.0
C1262 C 0.92349 0.50827 0.50953 0.0
C1263 C 0.91084 0.5054 0.5323 0.0
C1264 C 0.94912 0.51598 0.51328 0.0
C1265 C 0.92415 0.51086 0.55904 0.0
C1266 C 0.94973 0.51886 0.563 0.0
C1267 C 0.98808 0.52885 0.54387 0.0
C1268 C 1.00063 0.53116 0.52091 0.0
C1269 C 0.9624 0.52129 0.54021 0.0
C1270 C 0.98719 0.52571 0.49424 0.0
C1271 C 0.96167 0.5182 0.49045 0.0
H1272 H 0.33048 0.06588 0.2791 0.0
H1273 H 0.36348 0.11937 0.35811 0.0
H1274 H 0.33358 0.14689 0.35375 0.0
H1275 H 0.3034 0.16049 0.32381 0.0
H1276 H 0.27503 0.11082 0.24189 0.0
H1277 H 0.29666 0.07623 0.25168 0.0
C1278 C 0.33082 0.08319 0.29565 0.0
C1279 C 0.34945 0.09098 0.31862 0.0
C1280 C 0.3143 0.09959 0.29245 0.0
C1281 C 0.34955 0.11331 0.33999 0.0
C1282 C 0.33247 0.12902 0.33751 0.0
C1283 C 0.30169 0.14189 0.30822 0.0
C1284 C 0.2882 0.13869 0.28189 0.0
C1285 C 0.31557 0.12314 0.31323 0.0
C1286 C 0.28535 0.11396 0.26231 0.0
C1287 C 0.29804 0.09433 0.26774 0.0
H1288 H 0.3928 0.20088 0.52001 0.0
H1289 H 0.33245 0.12897 0.48549 0.0
H1290 H 0.36031 0.09856 0.48567 0.0
H1291 H 0.40181 0.09229 0.49543 0.0
H1292 H 0.4618 0.16405 0.53205 0.0
H1293 H 0.43418 0.19447 0.5306 0.0
C1294 C 0.38569 0.17855 0.5125 0.0
C1295 C 0.36046 0.16732 0.50273 0.0
C1296 C 0.40182 0.16109 0.51282 0.0
C1297 C 0.35169 0.13828 0.49319 0.0
C1298 C 0.36766 0.12083 0.49324 0.0
C1299 C 0.4089 0.11453 0.50341 0.0
C1300 C 0.43407 0.12564 0.51381 0.0
C1301 C 0.39276 0.13199 0.50305 0.0
C1302 C 0.44274 0.15473 0.52346 0.0
C1303 C 0.42686 0.17221 0.52288 0.0
H1304 H 0.71668 0.65493 0.28497 0.0
H1305 H 0.77226 0.60976 0.29106 0.0
H1306 H 0.80364 0.65218 0.28917 0.0
H1307 H 0.81594 0.70263 0.28576 0.0
H1308 H 0.76049 0.74768 0.27873 0.0
H1309 H 0.72897 0.70538 0.28102 0.0
C1310 C 0.73565 0.65413 0.28595 0.0
C1311 C 0.74162 0.62832 0.28832 0.0
C1312 C 0.75389 0.67899 0.28464 0.0
C1313 C 0.7666 0.62861 0.28933 0.0
C1314 C 0.78472 0.65315 0.28823 0.0
C1315 C 0.79695 0.70338 0.2847 0.0
C1316 C 0.79101 0.72906 0.28206 0.0
C1317 C 0.77869 0.67854 0.28588 0.0
C1318 C 0.76605 0.72884 0.28071 0.0
C1319 C 0.74789 0.70438 0.28205 0.0
H1320 H 0.88292 0.48044 0.82761 0.0
H1321 H 0.88055 0.47872 0.73976 0.0
H1322 H 0.86149 0.42851 0.72992 0.0
H1323 H 0.846 0.38515 0.7463 0.0
H1324 H 0.84793 0.38713 0.83419 0.0
H1325 H 0.86661 0.43734 0.84392 0.0
C1326 C 0.87826 0.4691 0.8063 0.0
C1327 C 0.88323 0.48326 0.78447 0.0
C1328 C 0.8672 0.44033 0.80078 0.0
C1329 C 0.87691 0.4683 0.75697 0.0
C1330 C 0.86603 0.4396 0.75131 0.0
C1331 C 0.85047 0.39655 0.76759 0.0
C1332 C 0.84564 0.38239 0.78947 0.0
C1333 C 0.86116 0.42541 0.77307 0.0
C1334 C 0.85143 0.39751 0.81693 0.0
C1335 C 0.86216 0.42622 0.82254 0.0
H1336 H 0.14163 0.94312 0.11338 0.0
H1337 H 0.08014 0.87699 0.06905 0.0
H1338 H 0.06611 0.91004 0.04417 0.0
H1339 H 0.07036 0.95871 0.03623 0.0
H1340 H 0.13304 0.02384 0.08005 0.0
H1341 H 0.14728 0.99044 0.10345 0.0
C1342 C 0.12522 0.93577 0.09815 0.0
C1343 C 0.11201 0.90736 0.09333 0.0
C1344 C 0.1173 0.95494 0.08372 0.0
C1345 C 0.09085 0.89854 0.07327 0.0
C1346 C 0.08272 0.91756 0.05906 0.0
C1347 C 0.08723 0.9656 0.05074 0.0
C1348 C 0.10041 0.99415 0.05622 0.0
C1349 C 0.09565 0.94596 0.06427 0.0
C1350 C 0.12231 1.00229 0.07516 0.0
C1351 C 0.13055 0.9831 0.08873 0.0
H1352 H 0.94069 0.3071 0.89085 0.0
H1353 H 0.95939 0.23912 0.83929 0.0
H1354 H 0.92257 0.23285 0.80602 0.0
H1355 H 0.88545 0.2476 0.7906 0.0
H1356 H 0.86785 0.31668 0.84158 0.0
H1357 H 0.90343 0.32126 0.87596 0.0
C1358 C 0.93675 0.29078 0.87242 0.0
C1359 C 0.95309 0.27363 0.86779 0.0
C1360 C 0.91553 0.28741 0.85317 0.0
C1361 C 0.94739 0.25269 0.8436 0.0
C1362 C 0.92625 0.24909 0.82448 0.0
C1363 C 0.88928 0.26353 0.80935 0.0
C1364 C 0.87367 0.2816 0.81349 0.0
C1365 C 0.91023 0.26644 0.82892 0.0
C1366 C 0.87922 0.30227 0.83785 0.0
C1367 C 0.89972 0.305 0.85751 0.0
H1368 H 0.62026 0.23938 0.58543 0.0
H1369 H 0.54303 0.23389 0.56748 0.0
H1370 H 0.53503 0.18453 0.54695 0.0
H1371 H 0.54935 0.14224 0.53525 0.0
H1372 H 0.62637 0.14678 0.55286 0.0
H1373 H 0.63489 0.19679 0.57206 0.0
C1374 C 0.60171 0.22745 0.57686 0.0
C1375 C 0.58232 0.24063 0.5782 0.0
C1376 C 0.59709 0.19867 0.56501 0.0
C1377 C 0.5584 0.22458 0.56694 0.0
C1378 C 0.55373 0.19619 0.55514 0.0
C1379 C 0.56806 0.15408 0.54316 0.0
C1380 C 0.58713 0.14044 0.54257 0.0
C1381 C 0.57286 0.18292 0.55427 0.0
C1382 C 0.61124 0.15648 0.55293 0.0
C1383 C 0.61615 0.18519 0.56401 0.0
H1384 H 0.62357 0.7938 0.40806 0.0
H1385 H 0.56736 0.7671 0.33656 0.0
H1386 H 0.59879 0.76851 0.30596 0.0
H1387 H 0.6424 0.77768 0.29942 0.0
H1388 H 0.69831 0.80535 0.37131 0.0
H1389 H 0.66687 0.80267 0.4016 0.0
C1390 C 0.6181 0.78825 0.38578 0.0
C1391 C 0.59299 0.78041 0.37474 0.0
C1392 C 0.6363 0.7891 0.36827 0.0
C1393 C 0.58645 0.77325 0.34575 0.0
C1394 C 0.60446 0.77405 0.3282 0.0
C1395 C 0.64777 0.78328 0.32171 0.0
C1396 C 0.67292 0.79162 0.33287 0.0
C1397 C 0.62948 0.78204 0.3392 0.0
C1398 C 0.67928 0.79837 0.36192 0.0
C1399 C 0.66124 0.79709 0.37936 0.0
H1400 H 0.13051 0.32671 0.47917 0.0
H1401 H 0.12817 0.27595 0.39883 0.0
H1402 H 0.11449 0.23362 0.41726 0.0
H1403 H 0.10148 0.21106 0.45573 0.0
H1404 H 0.10482 0.26213 0.53621 0.0
H1405 H 0.11938 0.30423 0.51798 0.0
C1406 C 0.12717 0.3064 0.46568 0.0
C1407 C 0.13031 0.30458 0.43763 0.0
C1408 C 0.11918 0.28215 0.47635 0.0
C1409 C 0.12593 0.27803 0.42052 0.0
C1410 C 0.11802 0.25378 0.43102 0.0
C1411 C 0.10566 0.23136 0.46938 0.0
C1412 C 0.10178 0.23331 0.49727 0.0
C1413 C 0.11434 0.25559 0.45884 0.0
C1414 C 0.10707 0.25992 0.51452 0.0
C1415 C 0.11562 0.28405 0.50418 0.0
H1416 H 0.57628 0.23216 0.2696 0.0
H1417 H 0.59848 0.31719 0.25766 0.0
H1418 H 0.64089 0.31989 0.27499 0.0
H1419 H 0.67206 0.29538 0.28495 0.0
H1420 H 0.65042 0.20982 0.29537 0.0
H1421 H 0.6073 0.21005 0.28717 0.0
C1422 C 0.59028 0.25153 0.27152 0.0
C1423 C 0.58436 0.27425 0.26187 0.0
C1424 C 0.61477 0.25265 0.28067 0.0
C1425 C 0.60267 0.29926 0.26459 0.0
C1426 C 0.62694 0.30079 0.27438 0.0
C1427 C 0.65799 0.27706 0.28638 0.0
C1428 C 0.66444 0.25247 0.29028 0.0
C1429 C 0.63332 0.27719 0.28121 0.0
C1430 C 0.6459 0.22884 0.29178 0.0
C1431 C 0.62125 0.22896 0.28715 0.0
H1432 H 0.58123 0.93237 0.9405 0.0
H1433 H 0.65933 0.95457 0.96664 0.0
H1434 H 0.65511 0.99046 1.00488 0.0
H1435 H 0.62853 1.01439 0.03182 0.0
H1436 H 0.55061 0.99124 1.00419 0.0
H1437 H 0.55543 0.95673 0.96564 0.0
C1438 C 0.59741 0.94503 0.95451 0.0
C1439 C 0.62053 0.9406 0.95089 0.0
C1440 C 0.59481 0.96534 0.9763 0.0
C1441 C 0.6413 0.95753 0.96901 0.0
C1442 C 0.63887 0.97795 0.99094 0.0
C1443 C 0.61268 1.0016 0.01739 0.0
C1444 C 0.58923 1.00518 0.0208 0.0
C1445 C 0.61562 0.98179 0.99501 0.0
C1446 C 0.56883 0.98887 1.00185 0.0
C1447 C 0.57156 0.96913 0.97984 0.0
H1448 H 0.96135 0.77372 0.73879 0.0
H1449 H 0.91201 0.71765 0.66957 0.0
H1450 H 0.87691 0.72348 0.69274 0.0
H1451 H 0.86021 0.74926 0.73011 0.0
H1452 H 0.91008 0.80678 0.79795 0.0
H1453 H 0.94494 0.79514 0.77822 0.0
C1454 C 0.94294 0.76255 0.72884 0.0
C1455 C 0.9393 0.74568 0.70228 0.0
C1456 C 0.92289 0.76622 0.74211 0.0
C1457 C 0.91533 0.73099 0.68992 0.0
C1458 C 0.89523 0.73433 0.70315 0.0
C1459 C 0.87868 0.75857 0.74094 0.0
C1460 C 0.88263 0.77895 0.76534 0.0
C1461 C 0.89876 0.7525 0.72893 0.0
C1462 C 0.90664 0.79113 0.77904 0.0
C1463 C 0.92658 0.78463 0.76769 0.0
H1464 H 0.17985 0.07811 0.90447 0.0
H1465 H 0.13196 1.01121 0.84277 0.0
H1466 H 0.10245 1.00383 0.87573 0.0
H1467 H 0.08929 1.01616 0.92265 0.0
H1468 H 0.13686 0.08354 0.98395 0.0
H1469 H 0.16672 0.09044 0.9513 0.0
C1470 C 0.163 0.06177 0.89789 0.0
C1471 C 0.15883 0.04529 0.87012 0.0
C1472 C 0.14569 0.05756 0.91742 0.0
C1473 C 0.13641 0.02444 0.86321 0.0
C1474 C 0.11929 0.02018 0.88241 0.0
C1475 C 0.10622 0.03241 0.92918 0.0
C1476 C 0.11034 0.04903 0.95682 0.0
C1477 C 0.12357 0.03655 0.90967 0.0
C1478 C 0.1327 0.06994 0.96373 0.0
C1479 C 0.14992 0.07402 0.94465 0.0
H1480 H 0.83027 0.43886 0.57098 0.0
H1481 H 0.84141 0.37342 0.50878 0.0
H1482 H 0.84384 0.3444 0.54338 0.0
H1483 H 0.84415 0.33832 0.5914 0.0
H1484 H 0.83522 0.40463 0.65419 0.0
H1485 H 0.83025 0.43258 0.61909 0.0
C1486 C 0.83294 0.41812 0.56496 0.0
C1487 C 0.83564 0.40823 0.53744 0.0
C1488 C 0.83483 0.40182 0.58502 0.0
C1489 C 0.83935 0.38147 0.52991 0.0
C1490 C 0.84078 0.3649 0.54965 0.0
C1491 C 0.84136 0.35901 0.59745 0.0
C1492 C 0.8402 0.36949 0.62532 0.0
C1493 C 0.83889 0.37504 0.57731 0.0
C1494 C 0.83601 0.39605 0.63279 0.0
C1495 C 0.83327 0.41206 0.61278 0.0
H1496 H 0.51154 0.0756 0.3596 0.0
H1497 H 0.45711 0.08481 0.4131 0.0
H1498 H 0.48564 0.08409 0.45311 0.0
H1499 H 0.52538 0.07832 0.47244 0.0
H1500 H 0.57982 0.06945 0.41942 0.0
H1501 H 0.55226 0.07328 0.3796 0.0
C1502 C 0.50599 0.07764 0.38005 0.0
C1503 C 0.48217 0.0799 0.38334 0.0
C1504 C 0.52249 0.0773 0.40297 0.0
C1505 C 0.47534 0.08297 0.41001 0.0
C1506 C 0.49161 0.0825 0.43291 0.0
C1507 C 0.53094 0.07691 0.45209 0.0
C1508 C 0.55406 0.07281 0.44847 0.0
C1509 C 0.51504 0.07914 0.42953 0.0
C1510 C 0.56188 0.0724 0.42243 0.0
C1511 C 0.54614 0.07447 0.39974 0.0
H1512 H 0.82432 0.7394 0.09098 0.0
H1513 H 0.75399 0.75811 0.07924 0.0
H1514 H 0.75846 0.77784 0.12849 0.0
H1515 H 0.78151 0.78866 0.1754 0.0
H1516 H 0.8522 0.77096 0.18764 0.0
H1517 H 0.8484 0.75228 0.13805 0.0
C1518 C 0.81003 0.74793 0.09915 0.0
C1519 C 0.78879 0.74709 0.08118 0.0
C1520 C 0.81271 0.75946 0.12778 0.0
C1521 C 0.77055 0.75837 0.09234 0.0
C1522 C 0.77304 0.76967 0.12064 0.0
C1523 C 0.79617 0.78082 0.1673 0.0
C1524 C 0.81707 0.7812 0.18552 0.0
C1525 C 0.79393 0.77014 0.13862 0.0
C1526 C 0.83588 0.77104 0.17433 0.0
C1527 C 0.8337 0.76025 0.14586 0.0
H1528 H 0.14772 0.08635 0.70878 0.0
H1529 H 0.15527 1.00216 0.68992 0.0
H1530 H 0.13401 0.99672 0.64249 0.0
H1531 H 0.1132 1.01652 0.6049 0.0
H1532 H 0.10679 0.1012 0.62645 0.0
H1533 H 0.1272 0.10531 0.67306 0.0
C1534 C 0.14482 0.06657 0.69457 0.0
C1535 C 0.15356 0.04472 0.70396 0.0
C1536 C 0.13249 0.0636 0.66702 0.0
C1537 C 0.1491 0.01954 0.68422 0.0
C1538 C 0.13681 1.01645 0.65673 0.0
C1539 C 0.11613 0.0359 0.61972 0.0
C1540 C 0.10794 0.05857 0.61103 0.0
C1541 C 0.12837 0.03839 0.6476 0.0
C1542 C 0.11242 0.08324 0.63143 0.0
C1543 C 0.1243 0.0857 0.65856 0.0
H1544 H 0.83029 0.39984 0.437 0.0
H1545 H 0.85007 0.46122 0.38616 0.0
H1546 H 0.84895 0.42404 0.34671 0.0
H1547 H 0.841 0.37439 0.32663 0.0
H1548 H 0.82306 0.31283 0.37764 0.0
H1549 H 0.82518 0.35005 0.41754 0.0
C1550 C 0.83425 0.40505 0.41724 0.0
C1551 C 0.8399 0.43315 0.41427 0.0
C1552 C 0.83418 0.38368 0.39496 0.0
C1553 C 0.84551 0.43971 0.38879 0.0
C1554 C 0.84494 0.4185 0.36633 0.0
C1555 C 0.83808 0.36908 0.34659 0.0
C1556 C 0.83201 0.34092 0.34925 0.0
C1557 C 0.83926 0.39047 0.36921 0.0
C1558 C 0.82791 0.33438 0.37516 0.0
C1559 C 0.82894 0.35562 0.39787 0.0
H1560 H 0.50016 0.13939 0.29948 0.0
H1561 H 0.43577 0.08841 0.24414 0.0
H1562 H 0.4592 0.08762 0.20542 0.0
H1563 H 0.49881 0.09622 0.18869 0.0
H1564 H 0.56376 0.14567 0.24392 0.0
H1565 H 0.53926 0.15224 0.28133 0.0
C1566 C 0.49115 0.1286 0.27884 0.0
C1567 C 0.46634 0.11374 0.27474 0.0
C1568 C 0.5049 0.12761 0.25675 0.0
C1569 C 0.45492 0.09979 0.24789 0.0
C1570 C 0.46831 0.09926 0.22574 0.0
C1571 C 0.50754 0.10904 0.20869 0.0
C1572 C 0.53308 0.12024 0.2136 0.0
C1573 C 0.49345 0.11233 0.23013 0.0
C1574 C 0.54416 0.13646 0.23978 0.0
C1575 C 0.53016 0.14027 0.26113 0.0
H1576 H 0.76867 0.71878 0.89514 0.0
H1577 H 0.83462 0.75406 0.95414 0.0
H1578 H 0.85275 0.78149 0.92147 0.0
H1579 H 0.84999 0.79583 0.87601 0.0
H1580 H 0.78314 0.76295 0.81839 0.0
H1581 H 0.76551 0.73401 0.85021 0.0
C1582 C 0.787 0.73249 0.90093 0.0
C1583 C 0.80018 0.73422 0.92725 0.0
C1584 C 0.79729 0.74854 0.88207 0.0
C1585 C 0.82391 0.75228 0.93422 0.0
C1586 C 0.83437 0.76796 0.91545 0.0
C1587 C 0.8316 0.78223 0.87036 0.0
C1588 C 0.81802 0.78129 0.84455 0.0
C1589 C 0.82127 0.76628 0.88929 0.0
C1590 C 0.79411 0.7638 0.83783 0.0
C1591 C 0.78396 0.74737 0.85617 0.0
H1592 H 0.86699 0.08562 0.06766 0.0
H1593 H 0.83166 0.05604 0.98285 0.0
H1594 H 0.86275 0.03104 0.9728 0.0
H1595 H 0.90234 0.02182 0.98676 0.0
H1596 H 0.93794 0.05185 0.07135 0.0
H1597 H 0.90431 0.07232 0.08283 0.0
C1598 C 0.86591 0.07344 0.04706 0.0
C1599 C 0.84721 0.07304 0.02597 0.0
C1600 C 0.884 0.05935 0.04131 0.0
C1601 C 0.84596 0.05691 0.99945 0.0
C1602 C 0.86377 0.04263 0.99364 0.0
C1603 C 0.90244 0.03226 1.00785 0.0
C1604 C 0.9227 0.0356 0.02809 0.0
C1605 C 0.88321 0.04428 0.01422 0.0
C1606 C 0.9227 0.04941 0.0553 0.0
C1607 C 0.90348 0.06109 0.06188 0.0
H1608 H 0.44484 0.48442 0.09626 0.0
H1609 H 0.4141 0.46635 1.00982 0.0
H1610 H 0.45311 0.49152 0.99844 0.0
H1611 H 0.49622 0.51954 0.0131 0.0
H1612 H 0.52568 0.54038 0.09993 0.0
H1613 H 0.48734 0.51314 0.11099 0.0
C1614 C 0.44663 0.48597 0.07492 0.0
C1615 C 0.42638 0.47342 0.05398 0.0
C1616 C 0.4691 0.50093 0.06853 0.0
C1617 C 0.42918 0.47589 0.02646 0.0
C1618 C 0.4516 0.49022 0.01988 0.0
C1619 C 0.49425 0.51788 0.03439 0.0
C1620 C 0.51387 0.53183 0.05568 0.0
C1621 C 0.47173 0.50288 0.04073 0.0
C1622 C 0.5109 0.52983 0.0832 0.0
C1623 C 0.48893 0.51429 0.08953 0.0
H1624 H 0.36594 0.63687 0.77472 0.0
H1625 H 0.43902 0.67944 0.76533 0.0
H1626 H 0.42614 0.72336 0.76736 0.0
H1627 H 0.39297 0.7512 0.77174 0.0
H1628 H 0.32051 0.70534 0.78082 0.0
H1629 H 0.33428 0.66313 0.779 0.0
C1630 C 0.37944 0.65555 0.77306 0.0
C1631 C 0.40392 0.65349 0.76978 0.0
C1632 C 0.37175 0.68121 0.77424 0.0
C1633 C 0.42022 0.67907 0.7678 0.0
C1634 C 0.41267 0.70467 0.76901 0.0
C1635 C 0.38005 0.73211 0.77346 0.0
C1636 C 0.35503 0.73293 0.77654 0.0
C1637 C 0.38832 0.70635 0.77226 0.0
C1638 C 0.33951 0.70686 0.77844 0.0
C1639 C 0.34749 0.68206 0.77739 0.0
H1640 H 0.24014 0.60107 0.53025 0.0
H1641 H 0.24536 0.59973 0.61772 0.0
H1642 H 0.20069 0.58815 0.61408 0.0
H1643 H 0.16051 0.58068 0.58655 0.0
H1644 H 0.15566 0.58332 0.4993 0.0
H1645 H 0.20007 0.59242 0.50254 0.0
C1646 C 0.23156 0.59794 0.5485 0.0
C1647 C 0.24605 0.60129 0.57423 0.0
C1648 C 0.20601 0.5919 0.5464 0.0
C1649 C 0.2346 0.59728 0.59766 0.0
C1650 C 0.20908 0.59079 0.59564 0.0
C1651 C 0.16912 0.58327 0.56823 0.0
C1652 C 0.15476 0.5815 0.54278 0.0
C1653 C 0.19466 0.58851 0.57019 0.0
C1654 C 0.16626 0.58475 0.51921 0.0
C1655 C 0.19166 0.58986 0.52099 0.0
H1656 H 0.74666 1.00985 0.80692 0.0
H1657 H 0.75648 1.00566 0.72101 0.0
H1658 H 0.79431 0.99135 0.72991 0.0
H1659 H 0.82293 0.97724 0.76125 0.0
H1660 H 0.81001 0.97545 0.84564 0.0
H1661 H 0.77588 0.99637 0.83858 0.0
C1662 C 0.75719 1.00595 0.79021 0.0
C1663 C 0.74877 1.00855 0.76333 0.0
C1664 C 0.77855 0.99709 0.79531 0.0
C1665 C 0.76248 1.0034 0.74181 0.0
C1666 C 0.78416 0.99541 0.74691 0.0
C1667 C 0.81268 0.98141 0.77815 0.0
C1668 C 0.81897 0.97447 0.80384 0.0
C1669 C 0.79212 0.99174 0.77347 0.0
C1670 C 0.8059 0.98085 0.82573 0.0
C1671 C 0.78607 0.99242 0.82159 0.0
H1672 H 0.75624 0.91812 0.55263 0.0
H1673 H 0.81235 0.98265 0.53173 0.0
H1674 H 0.78231 1.00927 0.52348 0.0
H1675 H 0.74009 1.01438 0.5223 0.0
H1676 H 0.68393 0.9493 0.54236 0.0
H1677 H 0.71407 0.92308 0.55117 0.0
C1678 C 0.76198 0.93802 0.54629 0.0
C1679 C 0.78664 0.94828 0.54282 0.0
C1680 C 0.74457 0.95325 0.54152 0.0
C1681 C 0.79357 0.97415 0.53458 0.0
C1682 C 0.77637 0.98942 0.52984 0.0
C1683 C 0.73433 0.99433 0.52833 0.0
C1684 C 0.70961 0.98395 0.53162 0.0
C1685 C 0.75179 0.97916 0.53319 0.0
C1686 C 0.70277 0.95811 0.53999 0.0
C1687 C 0.72001 0.94296 0.54487 0.0
H1688 H 0.43161 0.46071 0.76269 0.0
H1689 H 0.37602 0.50582 0.75641 0.0
H1690 H 0.34454 0.4631 0.75734 0.0
H1691 H 0.33215 0.4123 0.75991 0.0
H1692 H 0.38773 0.36739 0.76681 0.0
H1693 H 0.41928 0.41006 0.76572 0.0
C1694 C 0.41262 0.46146 0.76146 0.0
C1695 C 0.4067 0.48736 0.75934 0.0
C1696 C 0.39432 0.43642 0.7622 0.0
C1697 C 0.38167 0.48694 0.75798 0.0
C1698 C 0.36349 0.46221 0.75853 0.0
C1699 C 0.35118 0.41167 0.76121 0.0
C1700 C 0.35712 0.38589 0.76357 0.0
C1701 C 0.36948 0.43673 0.76063 0.0
C1702 C 0.38214 0.38629 0.76521 0.0
C1703 C 0.40033 0.41096 0.76449 0.0
H1704 H 0.24471 0.61971 0.25177 0.0
H1705 H 0.2614 0.61577 0.16807 0.0
H1706 H 0.28348 0.66514 0.17964 0.0
H1707 H 0.29608 0.70967 0.21268 0.0
H1708 H 0.27901 0.71392 0.29624 0.0
H1709 H 0.25903 0.66387 0.2855 0.0
C1710 C 0.25329 0.62958 0.23605 0.0
C1711 C 0.25126 0.61413 0.20901 0.0
C1712 C 0.26576 0.65795 0.24278 0.0
C1713 C 0.26263 0.62719 0.18899 0.0
C1714 C 0.2752 0.65542 0.19558 0.0
C1715 C 0.28808 0.69968 0.22863 0.0
C1716 C 0.28885 0.71553 0.25517 0.0
C1717 C 0.27656 0.67105 0.22228 0.0
C1718 C 0.27859 0.7022 0.27563 0.0
C1719 C 0.26714 0.67361 0.26949 0.0
H1720 H 0.56349 0.72625 0.495 0.0
H1721 H 0.51175 0.68044 0.42301 0.0
H1722 H 0.51421 0.63623 0.43663 0.0
H1723 H 0.53303 0.61009 0.46835 0.0
H1724 H 0.58489 0.65789 0.53978 0.0
H1725 H 0.58021 0.70112 0.52712 0.0
C1726 C 0.55257 0.70667 0.48224 0.0
C1727 C 0.53751 0.70701 0.45785 0.0
C1728 C 0.55415 0.6813 0.49015 0.0
C1729 C 0.52352 0.68112 0.44188 0.0
C1730 C 0.52498 0.6557 0.44967 0.0
C1731 C 0.54305 0.62995 0.48131 0.0
C1732 C 0.55948 0.63032 0.50502 0.0
C1733 C 0.54047 0.65541 0.47369 0.0
C1734 C 0.57232 0.65654 0.52132 0.0
C1735 C 0.56967 0.68151 0.5141 0.0
H1736 H 0.70718 0.30631 0.64386 0.0
H1737 H 0.66708 0.34094 0.70437 0.0
H1738 H 0.69793 0.33916 0.74172 0.0
H1739 H 0.73515 0.32565 0.75764 0.0
H1740 H 0.77639 0.29234 0.69792 0.0
H1741 H 0.74647 0.29587 0.65997 0.0
C1742 C 0.70524 0.3137 0.6652 0.0
C1743 C 0.6845 0.32365 0.67108 0.0
C1744 C 0.72328 0.31273 0.6868 0.0
C1745 C 0.68263 0.33323 0.69899 0.0
C1746 C 0.7003 0.33211 0.72046 0.0
C1747 C 0.73773 0.3193 0.7363 0.0
C1748 C 0.75802 0.30857 0.7307 0.0
C1749 C 0.72051 0.32157 0.71467 0.0
C1750 C 0.76106 0.30069 0.7029 0.0
C1751 C 0.74385 0.30264 0.68119 0.0
H1752 H 0.03595 0.37921 0.90559 0.0
H1753 H 0.05067 0.34884 0.98041 0.0
H1754 H 0.06043 0.39672 1.00754 0.0
H1755 H 0.06394 0.44778 1.01004 0.0
H1756 H 0.04696 0.47636 0.9348 0.0
H1757 H 0.03922 0.42892 0.90788 0.0
C1758 C 0.04135 0.38293 0.92784 0.0
C1759 C 0.04257 0.36024 0.94083 0.0
C1760 C 0.04669 0.41043 0.94328 0.0
C1761 C 0.04948 0.36574 0.96977 0.0
C1762 C 0.05513 0.39321 0.98531 0.0
C1763 C 0.05886 0.44353 0.98772 0.0
C1764 C 0.05634 0.46559 0.9743 0.0
C1765 C 0.05377 0.4158 0.97232 0.0
C1766 C 0.04923 0.45977 0.94548 0.0
C1767 C 0.0447 0.43262 0.9301 0.0
H1768 H 0.05999 0.82235 0.19371 0.0
H1769 H 0.02023 0.8379 0.12143 0.0
H1770 H 0.9841 0.83558 0.14442 0.0
H1771 H 0.96326 0.82922 0.18494 0.0
H1772 H 1.00221 0.81279 0.25721 0.0
H1773 H 0.03882 0.81581 0.23463 0.0
C1774 C 0.04344 0.82525 0.183 0.0
C1775 C 0.04306 0.83027 0.15573 0.0
C1776 C 0.02239 0.82389 0.19644 0.0
C1777 C 0.0213 0.83397 0.14233 0.0
C1778 C 1.00047 0.83267 0.1555 0.0
C1779 C 0.97965 0.82607 0.19575 0.0
C1780 C 0.97972 0.82086 0.22291 0.0
C1781 C 1.00073 0.82758 0.18252 0.0
C1782 C 1.00149 0.8173 0.23653 0.0
C1783 C 0.0225 0.81881 0.22351 0.0
H1784 H 0.53937 0.31832 0.12439 0.0
H1785 H 0.57054 0.38475 0.19542 0.0
H1786 H 0.57849 0.41844 0.16501 0.0
H1787 H 0.57599 0.42915 0.11835 0.0
H1788 H 0.5437 0.36289 0.04751 0.0
H1789 H 0.53726 0.32894 0.07777 0.0
C1790 C 0.54794 0.34015 0.13325 0.0
C1791 C 0.55425 0.34899 0.16216 0.0
C1792 C 0.55239 0.35943 0.11568 0.0
C1793 C 0.56541 0.37737 0.17326 0.0
C1794 C 0.56999 0.39666 0.15588 0.0
C1795 C 0.56741 0.40731 0.10954 0.0
C1796 C 0.5603 0.39862 0.0807 0.0
C1797 C 0.56341 0.38795 0.12709 0.0
C1798 C 0.54963 0.37013 0.06959 0.0
C1799 C 0.54576 0.35072 0.08689 0.0
H1800 H 0.05093 0.36117 0.39047 0.0
H1801 H 0.07828 0.34209 0.31308 0.0
H1802 H 0.03889 0.34134 0.28739 0.0
H1803 H 0.99708 0.348 0.28713 0.0
H1804 H 0.97107 0.36925 0.36488 0.0
H1805 H 1.00955 0.36721 0.39029 0.0
C1806 C 0.04824 0.35661 0.36798 0.0
C1807 C 0.06744 0.35166 0.3537 0.0
C1808 C 0.02583 0.35675 0.35344 0.0
C1809 C 0.06374 0.34604 0.32455 0.0
C1810 C 0.04125 0.34561 0.30986 0.0
C1811 C 0.99989 0.35196 0.30962 0.0
C1812 C 0.98148 0.3589 0.32421 0.0
C1813 C 0.02224 0.35121 0.3241 0.0
C1814 C 0.98521 0.36418 0.35332 0.0
C1815 C 1.00712 0.36294 0.36782 0.0
H1816 H 0.06482 0.69124 0.65451 0.0
H1817 H 0.99688 0.69153 0.60693 0.0
H1818 H 1.00112 0.65335 0.57154 0.0
H1819 H 0.02607 0.62296 0.5522 0.0
H1820 H 0.09384 0.62253 0.59982 0.0
H1821 H 0.08762 0.65753 0.63737 0.0
C1822 C 0.05082 0.68279 0.63651 0.0
C1823 C 0.03076 0.69448 0.63311 0.0
C1824 C 0.05343 0.66095 0.61624 0.0
C1825 C 1.01256 0.683 0.60994 0.0
C1826 C 1.01502 0.66125 0.58965 0.0
C1827 C 0.03935 0.63043 0.57092 0.0
C1828 C 0.06054 0.62063 0.5732 0.0
C1829 C 0.03568 0.65057 0.59227 0.0
C1830 C 0.07745 0.62996 0.59764 0.0
C1831 C 0.07394 0.65001 0.61903 0.0
H1832 H 0.72198 0.91509 0.84476 0.0
H1833 H 0.67819 0.83278 0.84721 0.0
H1834 H 0.70601 0.81154 0.82225 0.0
H1835 H 0.74344 0.81587 0.80165 0.0
H1836 H 0.78945 0.89747 0.8012 0.0
H1837 H 0.75997 0.9194 0.82303 0.0
C1838 C 0.71854 0.89253 0.83973 0.0
C1839 C 0.69808 0.87561 0.84802 0.0
C1840 C 0.73493 0.88027 0.82561 0.0
C1841 C 0.69389 0.84638 0.84138 0.0
C1842 C 0.70974 0.83413 0.82696 0.0
C1843 C 0.74692 0.83846 0.8059 0.0
C1844 C 0.76855 0.85497 0.79966 0.0
C1845 C 0.73038 0.85084 0.8192 0.0
C1846 C 0.77288 0.88425 0.80573 0.0
C1847 C 0.75608 0.89679 0.81833 0.0
H1848 H 0.46973 0.54244 0.64527 0.0
H1849 H 0.52007 0.6027 0.71072 0.0
H1850 H 0.55085 0.60896 0.67906 0.0
H1851 H 0.56441 0.59754 0.63224 0.0
H1852 H 0.51432 0.5368 0.56712 0.0
H1853 H 0.48328 0.53097 0.59853 0.0
C1854 C 0.4874 0.55707 0.65296 0.0
C1855 C 0.49186 0.57204 0.68136 0.0
C1856 C 0.50545 0.56063 0.63419 0.0
C1857 C 0.51535 0.5907 0.68972 0.0
C1858 C 0.5332 0.59431 0.67128 0.0
C1859 C 0.54669 0.58296 0.62463 0.0
C1860 C 0.54226 0.56786 0.59634 0.0
C1861 C 0.52863 0.57944 0.64338 0.0
C1862 C 0.51883 0.54912 0.58796 0.0
C1863 C 0.5009 0.54567 0.60631 0.0
H1864 H 0.82791 0.24172 0.0347 0.0
H1865 H 0.83169 0.16711 0.97924 0.0
H1866 H 0.83582 0.19253 0.94137 0.0
H1867 H 0.83333 0.23402 0.92293 0.0
H1868 H 0.82874 0.30855 0.97776 0.0
H1869 H 0.83002 0.28498 0.01714 0.0
C1870 C 0.82988 0.23108 0.0144 0.0
C1871 C 0.82909 0.20245 1.00968 0.0
C1872 C 0.83196 0.24572 0.99263 0.0
C1873 C 0.832 0.18907 0.98337 0.0
C1874 C 0.83434 0.20357 0.96168 0.0
C1875 C 0.83337 0.24545 0.9436 0.0
C1876 C 0.83082 0.27295 0.94741 0.0
C1877 C 0.83369 0.23167 0.96593 0.0
C1878 C 0.83043 0.28725 0.97428 0.0
C1879 C 0.83113 0.27379 0.99676 0.0
H1880 H 0.13513 0.50919 0.14296 0.0
H1881 H 0.16121 0.59914 0.15963 0.0
H1882 H 0.12916 0.60187 0.12439 0.0
H1883 H 0.09407 0.57905 0.08911 0.0
H1884 H 0.06643 0.48947 0.07212 0.0
H1885 H 0.09846 0.48608 0.10783 0.0
C1886 C 0.13382 0.52929 0.13863 0.0
C1887 C 0.15048 0.55393 0.15364 0.0
C1888 C 0.11495 0.53076 0.11874 0.0
C1889 C 0.14852 0.57994 0.14829 0.0
C1890 C 0.1302 0.58153 0.12824 0.0
C1891 C 0.09497 0.55879 0.09343 0.0
C1892 C 0.07819 0.53453 0.07823 0.0
C1893 C 0.11332 0.55714 0.11352 0.0
C1894 C 0.07921 0.50838 0.0839 0.0
C1895 C 0.09761 0.50648 0.10404 0.0
H1896 H 0.79873 0.85319 0.45035 0.0
H1897 H 0.87735 0.88251 0.47043 0.0
H1898 H 0.88168 0.86447 0.42245 0.0
H1899 H 0.86273 0.84254 0.37357 0.0
H1900 H 0.78381 0.8137 0.35513 0.0
H1901 H 0.78022 0.82916 0.40328 0.0
C1902 C 0.81687 0.85551 0.44438 0.0
C1903 C 0.83763 0.86939 0.46412 0.0
C1904 C 0.81923 0.8452 0.41675 0.0
C1905 C 0.86097 0.87195 0.4558 0.0
C1906 C 0.86347 0.86168 0.42826 0.0
C1907 C 0.84479 0.83936 0.38016 0.0
C1908 C 0.82361 0.82714 0.36035 0.0
C1909 C 0.84269 0.84856 0.40835 0.0
C1910 C 0.80052 0.82329 0.36952 0.0
C1911 C 0.79836 0.83213 0.39724 0.0
H1912 H 0.48017 0.52914 0.85309 0.0
H1913 H 0.5064 0.61714 0.85448 0.0
H1914 H 0.5314 0.62285 0.89992 0.0
H1915 H 0.5458 0.60249 0.94098 0.0
H1916 H 0.5192 0.51362 0.93608 0.0
H1917 H 0.49504 0.50914 0.89149 0.0
C1918 C 0.49134 0.54977 0.86303 0.0
C1919 C 0.49086 0.57265 0.84946 0.0
C1920 C 0.50594 0.55286 0.88931 0.0
C1921 C 0.50599 0.5989 0.86356 0.0
C1922 C 0.52039 0.60218 0.88994 0.0
C1923 C 0.53477 0.58209 0.93024 0.0
C1924 C 0.53485 0.55839 0.94299 0.0
C1925 C 0.52054 0.57931 0.90335 0.0
C1926 C 0.52015 0.5324 0.92776 0.0
C1927 C 0.50604 0.52971 0.90184 0.0
H1928 H 0.8005 0.18746 0.13086 0.0
H1929 H 0.87646 0.22341 0.12527 0.0
H1930 H 0.87678 0.26425 0.16001 0.0
H1931 H 0.8558 0.28933 0.19283 0.0
H1932 H 0.78075 0.25248 0.20037 0.0
H1933 H 0.77949 0.21262 0.16353 0.0
C1934 C 0.81718 0.20415 0.13732 0.0
C1935 C 0.83846 0.20227 0.12551 0.0
C1936 C 0.81723 0.22763 0.15728 0.0
C1937 C 0.85986 0.22417 0.13411 0.0
C1938 C 0.86003 0.24765 0.15385 0.0
C1939 C 0.83901 0.27288 0.18578 0.0
C1940 C 0.81815 0.27399 0.19853 0.0
C1941 C 0.83881 0.24964 0.16548 0.0
C1942 C 0.79678 0.25218 0.19026 0.0
C1943 C 0.79618 0.22933 0.16946 0.0
H1944 H 0.207 0.5596 0.32181 0.0
H1945 H 0.14127 0.53648 0.26175 0.0
H1946 H 0.11684 0.54397 0.29866 0.0
H1947 H 0.11408 0.55774 0.34766 0.0
H1948 H 0.17918 0.5806 0.40826 0.0
H1949 H 0.20402 0.57238 0.3714 0.0
C1950 C 0.18733 0.5561 0.31683 0.0
C1951 C 0.176 0.5476 0.2891 0.0
C1952 C 0.17332 0.56046 0.33817 0.0
C1953 C 0.15047 0.54304 0.28294 0.0
C1954 C 0.13646 0.54737 0.30401 0.0
C1955 C 0.13375 0.56114 0.35272 0.0
C1956 C 0.14493 0.57004 0.38041 0.0
C1957 C 0.14772 0.55627 0.33161 0.0
C1958 C 0.17029 0.57375 0.38695 0.0
C1959 C 0.18444 0.56911 0.36594 0.0
H1960 H 0.87915 0.90133 0.65606 0.0
H1961 H 0.80984 0.86692 0.60266 0.0
H1962 H 0.79284 0.84419 0.63897 0.0
H1963 H 0.79747 0.83392 0.68599 0.0
H1964 H 0.86727 0.8661 0.73858 0.0
H1965 H 0.88409 0.89006 0.70279 0.0
C1966 C 0.86033 0.88881 0.65229 0.0
C1967 C 0.84585 0.88594 0.62647 0.0
C1968 C 0.85066 0.87553 0.6733 0.0
C1969 C 0.82151 0.86948 0.62212 0.0
C1970 C 0.81171 0.85653 0.64299 0.0
C1971 C 0.81634 0.8463 0.68971 0.0
C1972 C 0.83101 0.84841 0.71517 0.0
C1973 C 0.82607 0.85944 0.66868 0.0
C1974 C 0.8555 0.86429 0.71938 0.0
C1975 C 0.86515 0.87791 0.69882 0.0
H1976 H 0.78586 0.53002 0.48714 0.0
H1977 H 0.81642 0.54906 0.5738 0.0
H1978 H 0.78674 0.57584 0.58466 0.0
H1979 H 0.74928 0.58928 0.57032 0.0
H1980 H 0.71829 0.56968 0.48388 0.0
H1981 H 0.75111 0.54788 0.47212 0.0
C1982 C 0.78619 0.54028 0.50836 0.0
C1983 C 0.80306 0.53718 0.52966 0.0
C1984 C 0.76894 0.55544 0.51453 0.0
C1985 C 0.80348 0.55089 0.55701 0.0
C1986 C 0.78649 0.5662 0.56328 0.0
C1987 C 0.7501 0.58089 0.54884 0.0
C1988 C 0.73133 0.58081 0.52803 0.0
C1989 C 0.76875 0.56801 0.54231 0.0
C1990 C 0.73242 0.56962 0.50029 0.0
C1991 C 0.75114 0.55715 0.49357 0.0
H1992 H 0.20776 0.17808 0.53262 0.0
H1993 H 0.22574 0.13111 0.45972 0.0
H1994 H 0.18635 0.09634 0.45442 0.0
H1995 H 0.14727 0.07818 0.47177 0.0
H1996 H 0.13104 0.12463 0.54604 0.0
H1997 H 0.16893 0.16073 0.54925 0.0
C1998 C 0.20309 0.16036 0.51542 0.0
C1999 C 0.21986 0.15731 0.49663 0.0
C2000 C 0.18056 0.14028 0.51271 0.0
C2001 C 0.21332 0.13406 0.47455 0.0
C2002 C 0.19075 0.11412 0.47152 0.0
C2003 C 0.15197 0.09633 0.48852 0.0
C2004 C 0.13612 0.09876 0.50853 0.0
C2005 C 0.17429 0.11684 0.49064 0.0
C2006 C 0.14262 0.12232 0.53019 0.0
C2007 C 0.16444 0.14294 0.53214 0.0
H2008 H 0.20809 0.91663 0.76901 0.0
H2009 H 0.26943 0.98923 0.79169 0.0
H2010 H 0.29752 0.95839 0.79137 0.0
H2011 H 0.30545 0.90922 0.78463 0.0
H2012 H 0.2424 0.83815 0.7622 0.0
H2013 H 0.21551 0.8693 0.76255 0.0
C2014 C 0.22761 0.92621 0.77396 0.0
C2015 C 0.23585 0.95629 0.7804 0.0
C2016 C 0.24398 0.90798 0.77375 0.0
C2017 C 0.26167 0.96684 0.78663 0.0
C2018 C 0.27801 0.94883 0.78641 0.0
C2019 C 0.28585 0.9003 0.77965 0.0
C2020 C 0.27673 0.87012 0.77322 0.0
C2021 C 0.26958 0.91909 0.77997 0.0
C2022 C 0.25086 0.8604 0.76722 0.0
C2023 C 0.23508 0.87857 0.76741 0.0
H2024 H 0.41262 1.01299 0.07099 0.0
H2025 H 0.40292 0.02477 0.98635 0.0
H2026 H 0.44698 0.04117 0.98836 0.0
H2027 H 0.48792 0.04907 0.01246 0.0
H2028 H 0.49935 0.0379 0.09692 0.0
H2029 H 0.45471 0.02461 0.09682 0.0
C2030 C 0.42016 0.01945 0.05311 0.0
C2031 C 0.40449 1.01733 0.02844 0.0
C2032 C 0.4457 0.02872 0.05429 0.0
C2033 C 0.41453 0.02592 1.0055 0.0
C2034 C 0.43974 0.03528 1.00659 0.0
C2035 C 0.48071 0.04364 0.0309 0.0
C2036 C 0.49675 0.04372 0.05444 0.0
C2037 C 0.45542 0.03616 0.0306 0.0
C2038 C 0.48722 0.03761 0.07845 0.0
C2039 C 0.46178 0.03 0.07834 0.0
H2040 H 0.85254 0.58603 0.79618 0.0
H2041 H 0.87565 0.64778 0.87213 0.0
H2042 H 0.84544 0.67209 0.85737 0.0
H2043 H 0.81655 0.67885 0.82021 0.0
H2044 H 0.79531 0.61812 0.74351 0.0
H2045 H 0.82076 0.59006 0.76136 0.0
C2046 C 0.85086 0.60467 0.80967 0.0
C2047 C 0.8666 0.61543 0.83497 0.0
C2048 C 0.8339 0.6187 0.80084 0.0
C2049 C 0.86385 0.63925 0.85246 0.0
C2050 C 0.84666 0.65317 0.84398 0.0
C2051 C 0.81698 0.65907 0.80774 0.0
C2052 C 0.80421 0.6505 0.78057 0.0
C2053 C 0.83214 0.64352 0.81785 0.0
C2054 C 0.80515 0.62511 0.7644 0.0
C2055 C 0.81972 0.60916 0.77456 0.0
H2056 H 0.88485 0.69093 0.02533 0.0
H2057 H 0.82438 0.62212 0.98325 0.0
H2058 H 0.85193 0.59127 0.97909 0.0
H2059 H 0.89333 0.58391 0.98702 0.0
H2060 H 0.95335 0.65267 0.03049 0.0
H2061 H 0.92591 0.68341 0.03398 0.0
C2062 C 0.87762 0.66918 0.01524 0.0
C2063 C 0.85248 0.65895 1.00462 0.0
C2064 C 0.89356 0.65152 0.01298 0.0
C2065 C 0.84358 0.63064 0.99167 0.0
C2066 C 0.85936 0.61296 0.98925 0.0
C2067 C 0.90043 0.60554 0.99752 0.0
C2068 C 0.92557 0.61581 1.00837 0.0
C2069 C 0.8844 0.62316 0.99983 0.0
C2070 C 0.9343 0.64412 0.02148 0.0
C2071 C 0.91854 0.66175 0.0237 0.0
H2072 H 0.21884 0.15884 0.79027 0.0
H2073 H 0.27258 0.1108 0.79062 0.0
H2074 H 0.30442 0.15249 0.7878 0.0
H2075 H 0.31771 0.20325 0.78548 0.0
H2076 H 0.26391 0.25102 0.78395 0.0
H2077 H 0.23196 0.20937 0.78688 0.0
C2078 C 0.2375 0.15724 0.78977 0.0
C2079 C 0.24281 0.13086 0.79085 0.0
C2080 C 0.25599 0.18166 0.78784 0.0
C2081 C 0.26741 0.13012 0.78991 0.0
C2082 C 0.2858 0.15425 0.78829 0.0
C2083 C 0.29898 0.20471 0.78571 0.0
C2084 C 0.29364 0.23096 0.78435 0.0
C2085 C 0.28043 0.18023 0.78727 0.0
C2086 C 0.26899 0.23168 0.78469 0.0
C2087 C 0.25059 0.20761 0.78649 0.0
H2088 H 0.38282 0.98802 0.32589 0.0
H2089 H 0.40711 0.98134 0.24559 0.0
H2090 H 0.38647 0.93145 0.23443 0.0
H2091 H 0.36166 0.88971 0.24777 0.0
H2092 H 0.33793 0.89718 0.32842 0.0
H2093 H 0.35812 0.9469 0.33901 0.0
C2094 C 0.38369 0.97569 0.30592 0.0
C2095 C 0.39653 0.98837 0.28662 0.0
C2096 C 0.37177 0.94719 0.29966 0.0
C2097 C 0.39739 0.97208 0.26085 0.0
C2098 C 0.38554 0.94357 0.25445 0.0
C2099 C 0.36078 0.90228 0.26759 0.0
C2100 C 0.34831 0.88976 0.28726 0.0
C2101 C 0.37265 0.93091 0.27369 0.0
C2102 C 0.34745 0.90626 0.31291 0.0
C2103 C 0.35902 0.93471 0.31902 0.0
H2104 H 0.64166 0.43791 0.6122 0.0
H2105 H 0.58042 0.37239 0.56653 0.0
H2106 H 0.56697 0.40591 0.54175 0.0
H2107 H 0.5717 0.45509 0.5344 0.0
H2108 H 0.63462 0.51912 0.57963 0.0
H2109 H 0.64798 0.48524 0.60272 0.0
C2110 C 0.62545 0.4308 0.59668 0.0
C2111 C 0.61213 0.40246 0.59147 0.0
C2112 C 0.61791 0.45019 0.58231 0.0
C2113 C 0.59123 0.3939 0.57104 0.0
C2114 C 0.58342 0.4132 0.5569 0.0
C2115 C 0.58842 0.46161 0.54915 0.0
C2116 C 0.6019 0.49007 0.55509 0.0
C2117 C 0.59646 0.4416 0.56253 0.0
C2118 C 0.62362 0.49769 0.57432 0.0
C2119 C 0.6314 0.47821 0.58776 0.0
H2120 H 0.43734 0.80647 0.39641 0.0
H2121 H 0.46069 0.7464 0.33921 0.0
H2122 H 0.42549 0.74301 0.30483 0.0
H2123 H 0.38855 0.75788 0.29025 0.0
H2124 H 0.36566 0.81894 0.34657 0.0
H2125 H 0.39992 0.82094 0.38197 0.0
C2126 C 0.43473 0.79251 0.37648 0.0
C2127 C 0.45189 0.77669 0.3706 0.0
C2128 C 0.41442 0.79083 0.35655 0.0
C2129 C 0.44801 0.75886 0.34449 0.0
C2130 C 0.4278 0.7569 0.32474 0.0
C2131 C 0.39094 0.77155 0.31033 0.0
C2132 C 0.37445 0.78829 0.31566 0.0
C2133 C 0.41095 0.77289 0.33044 0.0
C2134 C 0.37798 0.80586 0.34183 0.0
C2135 C 0.39765 0.80704 0.36208 0.0
H2136 H 0.05195 0.7255 0.07988 0.0
H2137 H 0.1307 0.75137 0.08655 0.0
H2138 H 0.13136 0.70361 0.06623 0.0
H2139 H 0.10943 0.65366 0.04763 0.0
H2140 H 0.03047 0.62922 0.04051 0.0
H2141 H 0.03018 0.67688 0.05974 0.0
C2142 C 0.06931 0.72082 0.07681 0.0
C2143 C 0.09124 0.74221 0.08491 0.0
C2144 C 0.06955 0.6933 0.06502 0.0
C2145 C 0.11348 0.73552 0.08051 0.0
C2146 C 0.11388 0.70809 0.06895 0.0
C2147 C 0.09216 0.65876 0.05022 0.0
C2148 C 0.07001 0.63749 0.04253 0.0
C2149 C 0.09202 0.68666 0.0613 0.0
C2150 C 0.04785 0.64482 0.04601 0.0
C2151 C 0.04762 0.67223 0.05714 0.0
H2152 H 0.1165 0.25191 0.89091 0.0
H2153 H 0.0752 0.29473 0.8434 0.0
H2154 H 0.10835 0.30453 0.81547 0.0
H2155 H 0.14971 0.30209 0.80533 0.0
H2156 H 0.19014 0.258 0.85241 0.0
H2157 H 0.1569 0.24803 0.87978 0.0
C2158 C 0.11463 0.26334 0.8744 0.0
C2159 C 0.09324 0.27258 0.86941 0.0
C2160 C 0.13379 0.26892 0.85839 0.0
C2161 C 0.09132 0.28729 0.84779 0.0
C2162 C 0.11035 0.29296 0.83181 0.0
C2163 C 0.15121 0.29 0.82134 0.0
C2164 C 0.17276 0.28108 0.82676 0.0
C2165 C 0.13175 0.284 0.83699 0.0
C2166 C 0.17421 0.26574 0.84796 0.0
C2167 C 0.15504 0.2598 0.86358 0.0
H2168 H 0.65445 0.78594 0.9256 0.0
H2169 H 0.59259 0.82042 0.938 0.0
H2170 H 0.57588 0.78367 0.96268 0.0
H2171 H 0.579 0.74192 0.98116 0.0
H2172 H 0.64114 0.70792 0.96912 0.0
H2173 H 0.65737 0.74409 0.94361 0.0
C2174 C 0.6373 0.78543 0.93366 0.0
C2175 C 0.62486 0.80599 0.93 0.0
C2176 C 0.62777 0.76424 0.94784 0.0
C2177 C 0.6026 0.80491 0.94054 0.0
C2178 C 0.59301 0.78389 0.95468 0.0
C2179 C 0.59616 0.74253 0.97306 0.0
C2180 C 0.6088 0.7222 0.97701 0.0
C2181 C 0.60549 0.76352 0.95855 0.0
C2182 C 0.63085 0.72306 0.96606 0.0
C2183 C 0.64024 0.74385 0.95162 0.0
H2184 H 0.06386 0.73218 0.75423 0.0
H2185 H 0.0831 0.81036 0.72624 0.0
H2186 H 0.12635 0.81533 0.74174 0.0
H2187 H 0.15883 0.79442 0.7573 0.0
H2188 H 0.13987 0.71565 0.78412 0.0
H2189 H 0.09638 0.71395 0.77495 0.0
C2190 C 0.07745 0.7506 0.75206 0.0
C2191 C 0.07028 0.77067 0.73878 0.0
C2192 C 0.10238 0.75301 0.76039 0.0
C2193 C 0.08815 0.79444 0.73615 0.0
C2194 C 0.11291 0.79727 0.74492 0.0
C2195 C 0.14524 0.77723 0.76183 0.0
C2196 C 0.15257 0.75504 0.77106 0.0
C2197 C 0.12028 0.77622 0.75619 0.0
C2198 C 0.13466 0.73276 0.77652 0.0
C2199 C 0.1098 0.7318 0.77136 0.0
H2200 H 0.10365 0.44862 0.40571 0.0
H2201 H 0.16045 0.43104 0.45934 0.0
H2202 H 0.15158 0.46154 0.49887 0.0
H2203 H 0.12594 0.49083 0.51871 0.0
H2204 H 0.06751 0.50582 0.46555 0.0
H2205 H 0.07886 0.47893 0.42525 0.0
C2206 C 0.11435 0.45176 0.42595 0.0
C2207 C 0.13269 0.43756 0.42957 0.0
C2208 C 0.10871 0.46872 0.4487 0.0
C2209 C 0.14621 0.44168 0.45601 0.0
C2210 C 0.14109 0.45905 0.47864 0.0
C2211 C 0.11574 0.48821 0.49827 0.0
C2212 C 0.09598 0.50034 0.49501 0.0
C2213 C 0.12207 0.47221 0.47533 0.0
C2214 C 0.08295 0.49692 0.46847 0.0
C2215 C 0.08937 0.48144 0.44547 0.0
H2216 H 0.43513 0.22605 0.20811 0.0
H2217 H 0.48234 0.30881 0.24053 0.0
H2218 H 0.44853 0.32389 0.25887 0.0
H2219 H 0.40556 0.31485 0.26364 0.0
H2220 H 0.35701 0.23303 0.23101 0.0
H2221 H 0.39148 0.21625 0.2152 0.0
C2222 C 0.43801 0.24729 0.21936 0.0
C2223 C 0.4612 0.2663 0.22266 0.0
C2224 C 0.41831 0.25606 0.2298 0.0
C2225 C 0.46466 0.29376 0.2374 0.0
C2226 C 0.44534 0.30247 0.24797 0.0
C2227 C 0.40239 0.29327 0.25317 0.0
C2228 C 0.37868 0.27532 0.24826 0.0
C2229 C 0.42206 0.28396 0.24392 0.0
C2230 C 0.37509 0.24734 0.23497 0.0
C2231 C 0.39478 0.23776 0.22585 0.0
H2232 H 0.68246 0.57722 0.40277 0.0
H2233 H 0.63462 0.5084 0.34307 0.0
H2234 H 0.60594 0.50129 0.37693 0.0
H2235 H 0.59343 0.51453 0.42394 0.0
H2236 H 0.64074 0.58398 0.48317 0.0
H2237 H 0.67003 0.59036 0.44985 0.0
C2238 C 0.6658 0.5605 0.39684 0.0
C2239 C 0.66136 0.5434 0.36935 0.0
C2240 C 0.64899 0.55645 0.4169 0.0
C2241 C 0.63923 0.52208 0.36327 0.0
C2242 C 0.6226 0.51799 0.38298 0.0
C2243 C 0.61021 0.53109 0.4299 0.0
C2244 C 0.61452 0.54834 0.45723 0.0
C2245 C 0.62712 0.53499 0.40994 0.0
C2246 C 0.6366 0.5697 0.46335 0.0
C2247 C 0.65343 0.57355 0.44383 0.0
H2248 H 0.34565 0.88696 0.02506 0.0
H2249 H 0.31607 0.94806 0.07303 0.0
H2250 H 0.3164 0.92358 0.11173 0.0
H2251 H 0.32716 0.88634 0.13263 0.0
H2252 H 0.3557 0.82461 0.08406 0.0
H2253 H 0.35409 0.84823 0.04493 0.0
C2254 C 0.33918 0.89488 0.04394 0.0
C2255 C 0.33102 0.91935 0.04629 0.0
C2256 C 0.33946 0.88079 0.06603 0.0
C2257 C 0.32245 0.92922 0.07075 0.0
C2258 C 0.32271 0.91531 0.0929 0.0
C2259 C 0.33267 0.87779 0.11335 0.0
C2260 C 0.34171 0.85389 0.11133 0.0
C2261 C 0.33144 0.89127 0.09085 0.0
C2262 C 0.34911 0.84331 0.08632 0.0
C2263 C 0.34804 0.85667 0.06388 0.0
H2264 H 1.00111 0.54728 0.85663 0.0
H2265 H 0.9648 0.59845 0.90797 0.0
H2266 H 0.99732 0.60585 0.94688 0.0
H2267 H 0.03432 0.59441 0.96729 0.0
H2268 H 0.06909 0.5414 0.91643 0.0
H2269 H 0.03914 0.53839 0.876 0.0
C2270 C 1.0003 0.56013 0.8763 0.0
C2271 C 0.98042 0.57202 0.87952 0.0
C2272 C 0.01884 0.56401 0.89856 0.0
C2273 C 0.97981 0.58887 0.90504 0.0
C2274 C 0.99838 0.5931 0.9273 0.0
C2275 C 0.03545 0.58267 0.94716 0.0
C2276 C 0.05369 0.56828 0.94441 0.0
C2277 C 0.01774 0.58037 0.92441 0.0
C2278 C 0.05521 0.55288 0.91859 0.0
C2279 C 0.03801 0.55097 0.89567 0.0
H2280 H 0.3374 0.22232 0.60251 0.0
H2281 H 0.27915 0.2555 0.57114 0.0
H2282 H 0.27819 0.28008 0.61824 0.0
H2283 H 0.29345 0.29101 0.66925 0.0
H2284 H 0.35334 0.25874 0.69839 0.0
H2285 H 0.35399 0.23515 0.65163 0.0
C2286 C 0.32452 0.23502 0.60589 0.0
C2287 C 0.30829 0.2369 0.58328 0.0
C2288 C 0.32429 0.24928 0.63287 0.0
C2289 C 0.29194 0.25375 0.58811 0.0
C2290 C 0.29131 0.2677 0.61512 0.0
C2291 C 0.30663 0.27886 0.66529 0.0
C2292 C 0.3233 0.27678 0.68758 0.0
C2293 C 0.30728 0.26545 0.63781 0.0
C2294 C 0.34038 0.26104 0.68187 0.0
C2295 C 0.34076 0.24736 0.65502 0.0
H2296 H 0.66714 0.58643 0.19754 0.0
H2297 H 0.64253 0.49789 0.19419 0.0
H2298 H 0.61695 0.49275 0.14923 0.0
H2299 H 0.60168 0.51378 0.10911 0.0
H2300 H 0.6266 0.60311 0.11596 0.0
H2301 H 0.65128 0.60706 0.16014 0.0
C2302 C 0.6562 0.5658 0.18728 0.0
C2303 C 0.65733 0.5426 0.20016 0.0
C2304 C 0.64126 0.56304 0.16129 0.0
C2305 C 0.64245 0.51636 0.18566 0.0
C2306 C 0.62773 0.51342 0.15956 0.0
C2307 C 0.61244 0.53418 0.1202 0.0
C2308 C 0.61175 0.55819 0.10812 0.0
C2309 C 0.62696 0.53662 0.14683 0.0
C2310 C 0.62612 0.58413 0.12378 0.0
C2311 C 0.64053 0.5865 0.14945 0.0
H2312 H 0.32146 0.8964 0.9376 0.0
H2313 H 0.35541 0.95609 0.89048 0.0
H2314 H 0.3542 0.91809 0.85202 0.0
H2315 H 0.34161 0.86852 0.83104 0.0
H2316 H 0.3077 0.80826 0.87744 0.0
H2317 H 0.31127 0.84599 0.91741 0.0
C2318 C 0.32854 0.90107 0.91888 0.0
C2319 C 0.33822 0.92903 0.9167 0.0
C2320 C 0.32803 0.8791 0.89697 0.0
C2321 C 0.34775 0.93477 0.89257 0.0
C2322 C 0.34711 0.91307 0.87062 0.0
C2323 C 0.33539 0.86354 0.85006 0.0
C2324 C 0.32438 0.83571 0.85135 0.0
C2325 C 0.33713 0.88524 0.87254 0.0
C2326 C 0.31633 0.82955 0.87606 0.0
C2327 C 0.31818 0.85113 0.89877 0.0
H2328 H 0.94419 0.56943 0.74066 0.0
H2329 H 1.00578 0.62252 0.79885 0.0
H2330 H 0.03281 0.61824 0.76377 0.0
H2331 H 0.03943 0.59622 0.71776 0.0
H2332 H 0.97775 0.54363 0.65959 0.0
H2333 H 0.95013 0.55096 0.69347 0.0
C2334 C 0.96348 0.58031 0.74557 0.0
C2335 C 0.97304 0.59599 0.77236 0.0
C2336 C 0.97889 0.57765 0.7254 0.0
C2337 C 0.99799 0.61028 0.77836 0.0
C2338 C 1.01348 0.60772 0.75838 0.0
C2339 C 0.01991 0.58652 0.71257 0.0
C2340 C 1.01055 0.56918 0.6865 0.0
C2341 C 1.00422 0.59092 0.73207 0.0
C2342 C 0.98525 0.55705 0.67963 0.0
C2343 C 0.96952 0.56116 0.69898 0.0
H2344 H 0.26904 0.21788 0.3882 0.0
H2345 H 0.33851 0.25184 0.44135 0.0
H2346 H 0.35506 0.27591 0.40563 0.0
H2347 H 0.34984 0.2879 0.35935 0.0
H2348 H 0.27956 0.25675 0.30765 0.0
H2349 H 0.26355 0.23069 0.34229 0.0
C2350 C 0.28781 0.23056 0.39204 0.0
C2351 C 0.30244 0.23296 0.41763 0.0
C2352 C 0.29719 0.24469 0.37143 0.0
C2353 C 0.32671 0.24964 0.42206 0.0
C2354 C 0.33625 0.26336 0.40154 0.0
C2355 C 0.33105 0.27526 0.35556 0.0
C2356 C 0.31606 0.27398 0.33057 0.0
C2357 C 0.32168 0.26109 0.37613 0.0
C2358 C 0.29166 0.25782 0.32635 0.0
C2359 C 0.28242 0.24303 0.34632 0.0
H2360 H 0.34527 0.55697 0.49995 0.0
H2361 H 0.37577 0.59938 0.58395 0.0
H2362 H 0.40996 0.57776 0.58169 0.0
H2363 H 0.43295 0.55029 0.55455 0.0
H2364 H 0.40399 0.51063 0.46948 0.0
H2365 H 0.36705 0.527 0.47376 0.0
C2366 C 0.35923 0.56121 0.51788 0.0
C2367 C 0.35814 0.57998 0.54196 0.0
C2368 C 0.3791 0.54919 0.51625 0.0
C2369 C 0.37633 0.58522 0.56506 0.0
C2370 C 0.39588 0.57287 0.5638 0.0
C2371 C 0.41852 0.54517 0.53696 0.0
C2372 C 0.42135 0.52956 0.51166 0.0
C2373 C 0.39775 0.55541 0.53927 0.0
C2374 C 0.40223 0.52247 0.48926 0.0
C2375 C 0.3812 0.53205 0.4916 0.0
H2376 H 0.94338 0.93934 0.52008 0.0
H2377 H 0.92157 0.98984 0.58772 0.0
H2378 H 0.9609 0.0249 0.5935 0.0
H2379 H 1.00112 0.04205 0.57802 0.0
H2380 H 0.02066 0.99234 0.50813 0.0
H2381 H 0.98294 0.95608 0.50487 0.0
C2382 C 0.94721 0.95791 0.53626 0.0
C2383 C 0.92944 0.96184 0.55346 0.0
C2384 C 0.96962 0.97816 0.53912 0.0
C2385 C 0.93481 0.98622 0.57413 0.0
C2386 C 0.95734 1.0063 0.57745 0.0
C2387 C 0.99718 0.02316 0.56224 0.0
C2388 C 1.01399 0.0198 0.54354 0.0
C2389 C 0.97484 1.00262 0.5599 0.0
C2390 C 1.00839 0.99534 0.52303 0.0
C2391 C 0.98666 0.97462 0.52104 0.0
H2392 H 0.94015 0.19993 0.27887 0.0
H2393 H 0.87948 0.12657 0.26263 0.0
H2394 H 0.85084 0.15671 0.26328 0.0
H2395 H 0.84219 0.20518 0.26847 0.0
H2396 H 0.90408 0.27743 0.28454 0.0
H2397 H 0.9319 0.24707 0.28389 0.0
C2398 C 0.92066 0.19007 0.27541 0.0
C2399 C 0.91275 0.15998 0.27066 0.0
C2400 C 0.90395 0.20792 0.27581 0.0
C2401 C 0.88697 0.14899 0.26634 0.0
C2402 C 0.87032 0.16659 0.26674 0.0
C2403 C 0.86176 0.21454 0.27194 0.0
C2404 C 0.87031 0.2447 0.27665 0.0
C2405 C 0.87841 0.19629 0.27148 0.0
C2406 C 0.89612 0.2551 0.28084 0.0
C2407 C 0.91237 0.2374 0.28048 0.0
H2408 H 0.72782 0.15929 0.05645 0.0
H2409 H 0.73737 0.07879 0.02048 0.0
H2410 H 0.69287 0.05919 0.01246 0.0
H2411 H 0.65132 0.06434 0.01912 0.0
H2412 H 0.64311 0.14414 0.05888 0.0
H2413 H 0.68698 0.16486 0.06153 0.0
C2414 C 0.72022 0.13751 0.04662 0.0
C2415 C 0.73586 0.12049 0.03921 0.0
C2416 C 0.69481 0.12633 0.04267 0.0
C2417 C 0.72568 0.09228 0.02656 0.0
C2418 C 0.70026 0.08108 0.02192 0.0
C2419 C 0.65923 0.08637 0.02779 0.0
C2420 C 0.64429 0.10291 0.03859 0.0
C2421 C 0.68465 0.09782 0.03031 0.0
C2422 C 0.65449 0.13124 0.05035 0.0
C2423 C 0.6795 0.143 0.05198 0.0
H2424 H 0.26163 0.50844 0.23062 0.0
H2425 H 0.20479 0.44089 0.24577 0.0
H2426 H 0.23574 0.42332 0.27023 0.0
H2427 H 0.27878 0.42736 0.28702 0.0
H2428 H 0.33533 0.49563 0.27278 0.0
H2429 H 0.30435 0.51311 0.24834 0.0
C2430 C 0.25596 0.48967 0.23896 0.0
C2431 C 0.23097 0.47579 0.23617 0.0
C2432 C 0.27369 0.48017 0.25345 0.0
C2433 C 0.22394 0.45178 0.24749 0.0
C2434 C 0.24158 0.44186 0.2616 0.0
C2435 C 0.28427 0.44641 0.27908 0.0
C2436 C 0.30923 0.46041 0.28186 0.0
C2437 C 0.26646 0.45606 0.26487 0.0
C2438 C 0.31619 0.48462 0.27088 0.0
C2439 C 0.29853 0.49449 0.25684 0.0
H2440 H 0.29707 0.48225 0.03016 0.0
H2441 H 0.25622 0.41543 0.06479 0.0
H2442 H 0.22075 0.43478 0.06223 0.0
H2443 H 0.20052 0.46993 0.04912 0.0
H2444 H 0.24093 0.53683 0.01432 0.0
H2445 H 0.27686 0.5181 0.01768 0.0
C2446 C 0.28047 0.47202 0.03731 0.0
C2447 C 0.27951 0.44732 0.04766 0.0
C2448 C 0.25978 0.48316 0.03552 0.0
C2449 C 0.25766 0.43437 0.05664 0.0
C2450 C 0.23724 0.44544 0.05519 0.0
C2451 C 0.21722 0.4806 0.04247 0.0
C2452 C 0.21775 0.50477 0.03132 0.0
C2453 C 0.23798 0.46972 0.04451 0.0
C2454 C 0.23965 0.51796 0.02254 0.0
C2455 C 0.26037 0.50735 0.02464 0.0
H2456 H 0.9299 0.95744 0.25939 0.0
H2457 H 0.87652 1.00599 0.26158 0.0
H2458 H 0.84462 0.96415 0.2639 0.0
H2459 H 0.83121 0.91313 0.26511 0.0
H2460 H 0.88462 0.86477 0.26378 0.0
H2461 H 0.91662 0.9066 0.26146 0.0
C2462 C 0.91131 0.95912 0.26035 0.0
C2463 C 0.90611 0.9857 0.26014 0.0
C2464 C 0.89279 0.9346 0.26194 0.0
C2465 C 0.88159 0.98652 0.26161 0.0
C2466 C 0.86318 0.96231 0.26295 0.0
C2467 C 0.84987 0.91158 0.26439 0.0
C2468 C 0.85509 0.88511 0.26481 0.0
C2469 C 0.86844 0.93614 0.26311 0.0
C2470 C 0.87964 0.88428 0.26381 0.0
C2471 C 0.89807 0.90845 0.26235 0.0
H2472 H 0.74658 0.11386 0.70022 0.0
H2473 H 0.71352 0.11659 0.77524 0.0
H2474 H 0.73547 0.16574 0.79094 0.0
H2475 H 0.76411 0.20798 0.78333 0.0
H2476 H 0.79615 0.20515 0.7076 0.0
H2477 H 0.7746 0.15598 0.69233 0.0
C2478 C 0.74414 0.12519 0.72 0.0
C2479 C 0.72848 0.11158 0.73652 0.0
C2480 C 0.7567 0.15342 0.72884 0.0
C2481 C 0.72544 0.1266 0.76206 0.0
C2482 C 0.73803 0.15469 0.7711 0.0
C2483 C 0.76646 0.19655 0.76357 0.0
C2484 C 0.78175 0.21018 0.74669 0.0
C2485 C 0.75376 0.1683 0.75469 0.0
C2486 C 0.78443 0.19518 0.72099 0.0
C2487 C 0.77213 0.16704 0.71221 0.0
loop_
_geom_bond_atom_site_label_1
_geom_bond_atom_site_label_2
_geom_bond_distance
_geom_bond_site_symmetry_2
_ccdc_geom_bond_type
C0 O1 1.160 . S
C0 O7 1.185 . S
O1 C0 1.160 . S
O2 Zn3 1.899 . S
O2 C10 1.284 . S
Zn3 O2 1.899 . S
Zn3 O4 2.032 . S
Zn3 O7 2.086 . S
Zn3 O12 1.977 . S
O4 Zn3 2.032 . S
O4 C8 1.278 . S
C5 O6 1.203 . S
C5 O12 1.267 . S
O6 C5 1.203 . S
O7 C0 1.185 . S
O7 Zn3 2.086 . S
C8 O4 1.278 . S
C8 O9 1.211 . S
O9 C8 1.211 . S
C10 O2 1.284 . S
C10 O11 1.273 . S
O11 C10 1.273 . S
O12 Zn3 1.977 . S
O12 C5 1.267 . S
C13 O14 1.160 . S
C13 O20 1.185 . S
O14 C13 1.160 . S
O15 Zn16 1.899 . S
O15 C23 1.284 . S
Zn16 O15 1.899 . S
Zn16 O17 2.032 . S
Zn16 O20 2.086 . S
Zn16 O25 1.977 1_655 S
O17 Zn16 2.032 . S
O17 C21 1.278 1_655 S
C18 O19 1.203 . S
C18 O25 1.267 . S
O19 C18 1.203 . S
O20 C13 1.185 . S
O20 Zn16 2.086 . S
C21 O17 1.278 1_455 S
C21 O22 1.211 . S
O22 C21 1.211 . S
C23 O15 1.284 . S
C23 O24 1.273 1_655 S
O24 C23 1.273 1_455 S
O25 Zn16 1.977 1_455 S
O25 C18 1.267 . S
C26 O27 1.160 . S
C26 O33 1.185 . S
O27 C26 1.160 . S
O28 Zn29 1.899 . S
O28 C36 1.284 . S
Zn29 O28 1.899 . S
Zn29 O30 2.032 . S
Zn29 O33 2.086 . S
Zn29 O38 1.977 . S
O30 Zn29 2.032 . S
O30 C34 1.278 . S
C31 O32 1.203 . S
C31 O38 1.267 . S
O32 C31 1.203 . S
O33 C26 1.185 . S
O33 Zn29 2.086 . S
C34 O30 1.278 . S
C34 O35 1.211 . S
O35 C34 1.211 . S
C36 O28 1.284 . S
C36 O37 1.273 . S
O37 C36 1.273 . S
O38 Zn29 1.977 . S
O38 C31 1.267 . S
C39 O40 1.160 . S
C39 O46 1.185 . S
O40 C39 1.160 . S
O41 Zn42 1.899 . S
O41 C49 1.284 . S
Zn42 O41 1.899 . S
Zn42 O43 2.032 . S
Zn42 O46 2.086 . S
Zn42 O51 1.977 . S
O43 Zn42 2.032 . S
O43 C47 1.278 . S
C44 O45 1.203 . S
C44 O51 1.267 . S
O45 C44 1.203 . S
O46 C39 1.185 . S
O46 Zn42 2.086 . S
C47 O43 1.278 . S
C47 O48 1.211 . S
O48 C47 1.211 . S
C49 O41 1.284 . S
C49 O50 1.273 . S
O50 C49 1.273 . S
O51 Zn42 1.977 . S
O51 C44 1.267 . S
C52 O53 1.160 . S
C52 O59 1.185 . S
O53 C52 1.160 . S
O54 Zn55 1.899 . S
O54 C62 1.284 . S
Zn55 O54 1.899 . S
Zn55 O56 2.032 . S
Zn55 O59 2.086 . S
Zn55 O64 1.977 . S
O56 Zn55 2.032 . S
O56 C60 1.278 . S
C57 O58 1.203 . S
C57 O64 1.267 . S
O58 C57 1.203 . S
O59 C52 1.185 . S
O59 Zn55 2.086 . S
C60 O56 1.278 . S
C60 O61 1.211 . S
O61 C60 1.211 . S
C62 O54 1.284 . S
C62 O63 1.273 . S
O63 C62 1.273 . S
O64 Zn55 1.977 . S
O64 C57 1.267 . S
C65 O66 1.160 . S
C65 O72 1.185 . S
O66 C65 1.160 . S
O67 Zn68 1.899 . S
O67 C75 1.284 . S
Zn68 O67 1.899 . S
Zn68 O69 2.032 . S
Zn68 O72 2.086 . S
Zn68 O77 1.977 . S
O69 Zn68 2.032 . S
O69 C73 1.278 . S
C70 O71 1.203 . S
C70 O77 1.267 . S
O71 C70 1.203 . S
O72 C65 1.185 . S
O72 Zn68 2.086 . S
C73 O69 1.278 . S
C73 O74 1.211 . S
O74 C73 1.211 . S
C75 O67 1.284 . S
C75 O76 1.273 . S
O76 C75 1.273 . S
O77 Zn68 1.977 . S
O77 C70 1.267 . S
C78 O79 1.160 . S
C78 O85 1.185 . S
O79 C78 1.160 . S
O80 Zn81 1.899 . S
O80 C88 1.284 . S
Zn81 O80 1.899 . S
Zn81 O82 2.032 . S
Zn81 O85 2.086 . S
Zn81 O90 1.977 . S
O82 Zn81 2.032 . S
O82 C86 1.278 . S
C83 O84 1.203 . S
C83 O90 1.267 . S
O84 C83 1.203 . S
O85 C78 1.185 . S
O85 Zn81 2.086 . S
C86 O82 1.278 . S
C86 O87 1.211 . S
O87 C86 1.211 . S
C88 O80 1.284 . S
C88 O89 1.273 . S
O89 C88 1.273 . S
O90 Zn81 1.977 . S
O90 C83 1.267 . S
C91 O92 1.160 . S
C91 O98 1.185 . S
O92 C91 1.160 . S
O93 Zn94 1.899 . S
O93 C101 1.284 . S
Zn94 O93 1.899 . S
Zn94 O95 2.032 . S
Zn94 O98 2.086 . S
Zn94 O103 1.977 1_455 S
O95 Zn94 2.032 . S
O95 C99 1.278 . S
C96 O97 1.203 . S
C96 O103 1.267 . S
O97 C96 1.203 . S
O98 C91 1.185 . S
O98 Zn94 2.086 . S
C99 O95 1.278 . S
C99 O100 1.211 . S
O100 C99 1.211 . S
C101 O93 1.284 . S
C101 O102 1.273 . S
O102 C101 1.273 . S
O103 Zn94 1.977 1_655 S
O103 C96 1.267 . S
C104 O105 1.160 . S
C104 O111 1.185 . S
O105 C104 1.160 . S
O106 Zn107 1.898 . S
O106 C114 1.276 1_545 S
Zn107 O106 1.898 . S
Zn107 O108 2.032 . S
Zn107 O111 2.086 . S
Zn107 O116 1.977 1_545 S
O108 Zn107 2.032 . S
O108 C112 1.278 . S
C109 O110 1.203 . S
C109 O116 1.267 . S
O110 C109 1.203 . S
O111 C104 1.185 . S
O111 Zn107 2.086 . S
C112 O108 1.278 . S
C112 O113 1.211 1_545 S
O113 C112 1.211 1_565 S
C114 O106 1.276 1_565 S
C114 O115 1.273 . S
O115 C114 1.273 . S
O116 Zn107 1.977 1_565 S
O116 C109 1.267 . S
C117 O118 1.160 . S
C117 O124 1.185 . S
O118 C117 1.160 . S
O119 Zn120 1.899 . S
O119 C127 1.284 . S
Zn120 O119 1.899 . S
Zn120 O121 2.032 . S
Zn120 O124 2.086 . S
Zn120 O129 1.977 . S
O121 Zn120 2.032 . S
O121 C125 1.278 . S
C122 O123 1.203 . S
C122 O129 1.267 . S
O123 C122 1.203 . S
O124 C117 1.185 . S
O124 Zn120 2.086 . S
C125 O121 1.278 . S
C125 O126 1.211 . S
O126 C125 1.211 . S
C127 O119 1.284 . S
C127 O128 1.273 . S
O128 C127 1.273 . S
O129 Zn120 1.977 . S
O129 C122 1.267 . S
C130 O131 1.160 . S
C130 O137 1.185 . S
O131 C130 1.160 . S
O132 Zn133 1.899 . S
O132 C140 1.284 . S
Zn133 O132 1.899 . S
Zn133 O134 2.035 . S
Zn133 O137 2.086 1_545 S
Zn133 O142 1.977 . S
O134 Zn133 2.035 . S
O134 C138 1.287 . S
C135 O136 1.203 . S
C135 O142 1.267 . S
O136 C135 1.203 . S
O137 C130 1.185 . S
O137 Zn133 2.086 1_565 S
C138 O134 1.287 . S
C138 O139 1.211 . S
O139 C138 1.211 . S
C140 O132 1.284 . S
C140 O141 1.273 . S
O141 C140 1.273 . S
O142 Zn133 1.977 . S
O142 C135 1.267 . S
C143 O144 1.160 . S
C143 O150 1.185 . S
O144 C143 1.160 . S
O145 Zn146 1.899 . S
O145 C153 1.284 . S
Zn146 O145 1.899 . S
Zn146 O147 2.032 1_554 S
Zn146 O150 2.086 . S
Zn146 O155 1.977 . S
O147 Zn146 2.032 1_556 S
O147 C151 1.278 . S
C148 O149 1.203 . S
C148 O155 1.267 . S
O149 C148 1.203 . S
O150 C143 1.185 . S
O150 Zn146 2.086 . S
C151 O147 1.278 . S
C151 O152 1.211 . S
O152 C151 1.211 . S
C153 O145 1.284 . S
C153 O154 1.273 . S
O154 C153 1.273 . S
O155 Zn146 1.977 . S
O155 C148 1.267 . S
C156 O157 1.160 . S
C156 O163 1.185 . S
O157 C156 1.160 . S
O158 Zn159 1.899 . S
O158 C166 1.284 . S
Zn159 O158 1.899 . S
Zn159 O160 2.032 1_554 S
Zn159 O163 2.086 . S
Zn159 O168 1.977 . S
O160 Zn159 2.032 1_556 S
O160 C164 1.278 . S
C161 O162 1.203 . S
C161 O168 1.267 . S
O162 C161 1.203 . S
O163 C156 1.185 . S
O163 Zn159 2.086 . S
C164 O160 1.278 . S
C164 O165 1.211 . S
O165 C164 1.211 . S
C166 O158 1.284 . S
C166 O167 1.273 . S
O167 C166 1.273 . S
O168 Zn159 1.977 . S
O168 C161 1.267 . S
C169 O170 1.160 . S
C169 O176 1.185 . S
O170 C169 1.160 . S
O171 Zn172 1.899 . S
O171 C179 1.284 . S
Zn172 O171 1.899 . S
Zn172 O173 2.032 1_554 S
Zn172 O176 2.086 . S
Zn172 O181 1.977 . S
O173 Zn172 2.032 1_556 S
O173 C177 1.278 . S
C174 O175 1.203 . S
C174 O181 1.267 . S
O175 C174 1.203 . S
O176 C169 1.185 . S
O176 Zn172 2.086 . S
C177 O173 1.278 . S
C177 O178 1.211 . S
O178 C177 1.211 . S
C179 O171 1.284 . S
C179 O180 1.273 . S
O180 C179 1.273 . S
O181 Zn172 1.977 . S
O181 C174 1.267 . S
C182 O183 1.160 . S
C182 O189 1.185 . S
O183 C182 1.160 . S
O184 Zn185 1.899 . S
O184 C192 1.284 . S
Zn185 O184 1.899 . S
Zn185 O186 2.032 . S
Zn185 O189 2.086 . S
Zn185 O194 1.977 . S
O186 Zn185 2.032 . S
O186 C190 1.278 . S
C187 O188 1.203 . S
C187 O194 1.267 . S
O188 C187 1.203 . S
O189 C182 1.185 . S
O189 Zn185 2.086 . S
C190 O186 1.278 . S
C190 O191 1.211 . S
O191 C190 1.211 . S
C192 O184 1.284 . S
C192 O193 1.273 . S
O193 C192 1.273 . S
O194 Zn185 1.977 . S
O194 C187 1.267 . S
C195 O196 1.160 . S
C195 O202 1.185 . S
O196 C195 1.160 . S
O197 Zn198 1.899 . S
O197 C205 1.284 . S
Zn198 O197 1.899 . S
Zn198 O199 2.032 . S
Zn198 O202 2.086 . S
Zn198 O207 1.977 . S
O199 Zn198 2.032 . S
O199 C203 1.278 . S
C200 O201 1.203 . S
C200 O207 1.267 . S
O201 C200 1.203 . S
O202 C195 1.185 . S
O202 Zn198 2.086 . S
C203 O199 1.278 . S
C203 O204 1.211 . S
O204 C203 1.211 . S
C205 O197 1.284 . S
C205 O206 1.273 . S
O206 C205 1.273 . S
O207 Zn198 1.977 . S
O207 C200 1.267 . S
C208 O209 1.160 . S
C208 O215 1.185 . S
O209 C208 1.160 . S
O210 Zn211 1.899 . S
O210 C218 1.284 . S
Zn211 O210 1.899 . S
Zn211 O212 2.032 . S
Zn211 O215 2.086 . S
Zn211 O220 1.977 . S
O212 Zn211 2.032 . S
O212 C216 1.278 . S
C213 O214 1.203 . S
C213 O220 1.267 . S
O214 C213 1.203 . S
O215 C208 1.185 . S
O215 Zn211 2.086 . S
C216 O212 1.278 . S
C216 O217 1.211 . S
O217 C216 1.211 . S
C218 O210 1.284 . S
C218 O219 1.273 . S
O219 C218 1.273 . S
O220 Zn211 1.977 . S
O220 C213 1.267 . S
C221 O222 1.160 . S
C221 O228 1.185 . S
O222 C221 1.160 . S
O223 Zn224 1.899 . S
O223 C231 1.284 . S
Zn224 O223 1.899 . S
Zn224 O225 2.032 . S
Zn224 O228 2.086 . S
Zn224 O233 1.977 . S
O225 Zn224 2.032 . S
O225 C229 1.278 . S
C226 O227 1.203 . S
C226 O233 1.267 . S
O227 C226 1.203 . S
O228 C221 1.185 . S
O228 Zn224 2.086 . S
C229 O225 1.278 . S
C229 O230 1.211 . S
O230 C229 1.211 . S
C231 O223 1.284 . S
C231 O232 1.273 . S
O232 C231 1.273 . S
O233 Zn224 1.977 . S
O233 C226 1.267 . S
C234 O235 1.160 . S
C234 O241 1.185 . S
O235 C234 1.160 . S
O236 Zn237 1.899 . S
O236 C244 1.284 . S
Zn237 O236 1.899 . S
Zn237 O238 2.032 . S
Zn237 O241 2.086 . S
Zn237 O246 1.977 . S
O238 Zn237 2.032 . S
O238 C242 1.278 . S
C239 O240 1.203 . S
C239 O246 1.267 . S
O240 C239 1.203 . S
O241 C234 1.185 . S
O241 Zn237 2.086 . S
C242 O238 1.278 . S
C242 O243 1.211 . S
O243 C242 1.211 . S
C244 O236 1.284 . S
C244 O245 1.273 . S
O245 C244 1.273 . S
O246 Zn237 1.977 . S
O246 C239 1.267 . S
C247 O248 1.160 . S
C247 O254 1.185 . S
O248 C247 1.160 . S
O249 Zn250 1.899 . S
O249 C257 1.284 . S
Zn250 O249 1.899 . S
Zn250 O251 2.032 . S
Zn250 O254 2.086 . S
Zn250 O259 1.977 . S
O251 Zn250 2.032 . S
O251 C255 1.278 . S
C252 O253 1.203 . S
C252 O259 1.267 . S
O253 C252 1.203 . S
O254 C247 1.185 . S
O254 Zn250 2.086 . S
C255 O251 1.278 . S
C255 O256 1.211 . S
O256 C255 1.211 . S
C257 O249 1.284 . S
C257 O258 1.273 . S
O258 C257 1.273 . S
O259 Zn250 1.977 . S
O259 C252 1.267 . S
C260 O261 1.160 . S
C260 O267 1.185 . S
O261 C260 1.160 . S
O262 Zn263 1.899 . S
O262 C270 1.284 . S
Zn263 O262 1.899 . S
Zn263 O264 2.032 1_554 S
Zn263 O267 2.086 . S
Zn263 O272 1.977 1_554 S
O264 Zn263 2.032 1_556 S
O264 C268 1.278 . S
C265 O266 1.203 . S
C265 O272 1.267 1_554 S
O266 C265 1.203 . S
O267 C260 1.185 . S
O267 Zn263 2.086 . S
C268 O264 1.278 . S
C268 O269 1.211 . S
O269 C268 1.211 . S
C270 O262 1.284 . S
C270 O271 1.273 . S
O271 C270 1.273 . S
O272 Zn263 1.977 1_556 S
O272 C265 1.267 1_556 S
C273 O274 1.160 . S
C273 O280 1.185 . S
O274 C273 1.160 . S
O275 Zn276 1.899 . S
O275 C283 1.284 . S
Zn276 O275 1.899 . S
Zn276 O277 2.032 . S
Zn276 O280 2.086 . S
Zn276 O285 1.977 . S
O277 Zn276 2.032 . S
O277 C281 1.278 . S
C278 O279 1.203 . S
C278 O285 1.267 . S
O279 C278 1.203 . S
O280 C273 1.185 . S
O280 Zn276 2.086 . S
C281 O277 1.278 . S
C281 O282 1.211 . S
O282 C281 1.211 . S
C283 O275 1.284 . S
C283 O284 1.273 . S
O284 C283 1.273 . S
O285 Zn276 1.977 . S
O285 C278 1.267 . S
C286 O287 1.160 . S
C286 O293 1.185 . S
O287 C286 1.160 . S
O288 Zn289 1.899 . S
O288 C296 1.284 . S
Zn289 O288 1.899 . S
Zn289 O290 2.032 . S
Zn289 O293 2.086 . S
Zn289 O298 1.977 . S
O290 Zn289 2.032 . S
O290 C294 1.278 . S
C291 O292 1.203 . S
C291 O298 1.267 . S
O292 C291 1.203 . S
O293 C286 1.185 . S
O293 Zn289 2.086 . S
C294 O290 1.278 . S
C294 O295 1.211 . S
O295 C294 1.211 . S
C296 O288 1.284 . S
C296 O297 1.273 . S
O297 C296 1.273 . S
O298 Zn289 1.977 . S
O298 C291 1.267 . S
C299 O300 1.160 . S
C299 O306 1.185 . S
O300 C299 1.160 . S
O301 Zn302 1.899 . S
O301 C309 1.284 . S
Zn302 O301 1.899 . S
Zn302 O303 2.032 . S
Zn302 O306 2.086 . S
Zn302 O311 1.977 . S
O303 Zn302 2.032 . S
O303 C307 1.278 . S
C304 O305 1.203 . S
C304 O311 1.267 . S
O305 C304 1.203 . S
O306 C299 1.185 . S
O306 Zn302 2.086 . S
C307 O303 1.278 . S
C307 O308 1.211 . S
O308 C307 1.211 . S
C309 O301 1.284 . S
C309 O310 1.273 . S
O310 C309 1.273 . S
O311 Zn302 1.977 . S
O311 C304 1.267 . S
La312 C314 2.928 1_455 S
La312 O332 2.521 1_455 S
La312 O333 2.628 1_456 S
La312 O334 2.554 . S
La312 O335 2.757 . S
La312 O336 2.470 . S
La312 O341 2.482 1_556 S
La312 O343 2.503 1_546 S
La313 C323 2.928 . S
La313 O335 2.482 1_554 S
La313 O337 2.503 . S
La313 O338 2.521 . S
La313 O339 2.628 . S
La313 O340 2.554 . S
La313 O341 2.757 . S
La313 O342 2.470 . S
C314 La312 2.928 1_655 S
C314 C315 1.503 . S
C314 O332 1.261 . S
C314 O333 1.243 1_556 S
C315 C314 1.503 . S
C315 C316 1.394 . S
C315 C320 1.373 . S
C316 C315 1.394 . S
C316 C317 1.380 . S
C316 H344 0.930 . S
C317 C316 1.380 . S
C317 C318 1.376 . S
C317 H345 0.930 . S
C318 C317 1.376 . S
C318 C319 1.370 . S
C319 C318 1.370 . S
C319 C320 1.396 . S
C319 H346 0.929 1_556 S
C320 C315 1.373 . S
C320 C319 1.396 . S
C320 H347 0.929 1_556 S
C321 O334 1.240 . S
C321 O335 1.289 . S
C322 O336 1.258 1_554 S
C322 O337 1.256 . S
C323 La313 2.928 . S
C323 C324 1.503 . S
C323 O338 1.261 . S
C323 O339 1.243 . S
C324 C323 1.503 . S
C324 C325 1.394 . S
C324 C329 1.373 . S
C325 C324 1.394 . S
C325 C326 1.380 . S
C325 H348 0.930 . S
C326 C325 1.380 . S
C326 C327 1.376 . S
C326 H349 0.930 . S
C327 C326 1.376 . S
C327 C328 1.370 1_545 S
C328 C327 1.370 1_565 S
C328 C329 1.396 1_565 S
C328 H350 0.929 . S
C329 C324 1.373 . S
C329 C328 1.396 1_545 S
C329 H351 0.929 . S
C330 O340 1.240 . S
C330 O341 1.289 . S
C331 O342 1.258 1_565 S
C331 O343 1.256 . S
O332 La312 2.521 1_655 S
O332 C314 1.261 . S
O333 La312 2.628 1_654 S
O333 C314 1.243 1_554 S
O334 La312 2.554 . S
O334 C321 1.240 . S
O335 La312 2.757 . S
O335 La313 2.482 1_556 S
O335 C321 1.289 . S
O336 La312 2.470 . S
O336 C322 1.258 1_556 S
O337 La313 2.503 . S
O337 C322 1.256 . S
O338 La313 2.521 . S
O338 C323 1.261 . S
O339 La313 2.628 . S
O339 C323 1.243 . S
O340 La313 2.554 . S
O340 C330 1.240 . S
O341 La312 2.482 1_554 S
O341 La313 2.757 . S
O341 C330 1.289 . S
O342 La313 2.470 . S
O342 C331 1.258 1_545 S
O343 La312 2.503 1_564 S
O343 C331 1.256 . S
H344 C316 0.930 . S
H345 C317 0.930 . S
H346 C319 0.929 1_554 S
H347 C320 0.929 1_554 S
H348 C325 0.930 . S
H349 C326 0.930 . S
H350 C328 0.929 . S
H351 C329 0.929 . S
La352 C354 2.928 . S
La352 O372 2.521 . S
La352 O373 2.628 . S
La352 O374 2.554 . S
La352 O375 2.757 . S
La352 O376 2.470 . S
La352 O381 2.482 . S
La352 O383 2.503 . S
La353 C363 2.928 . S
La353 O375 2.482 . S
La353 O377 2.503 . S
La353 O378 2.521 . S
La353 O379 2.628 . S
La353 O380 2.554 . S
La353 O381 2.757 . S
La353 O382 2.470 . S
C354 La352 2.928 . S
C354 C355 1.503 . S
C354 O372 1.261 . S
C354 O373 1.243 . S
C355 C354 1.503 . S
C355 C356 1.394 . S
C355 C360 1.373 . S
C356 C355 1.394 . S
C356 C357 1.380 . S
C356 H384 0.930 . S
C357 C356 1.380 . S
C357 C358 1.376 . S
C357 H385 0.930 . S
C358 C357 1.376 . S
C358 C359 1.370 . S
C359 C358 1.370 . S
C359 C360 1.396 . S
C359 H386 0.929 . S
C360 C355 1.373 . S
C360 C359 1.396 . S
C360 H387 0.929 . S
C361 O374 1.240 . S
C361 O375 1.289 . S
C362 O376 1.258 . S
C362 O377 1.256 . S
C363 La353 2.928 . S
C363 C364 1.503 . S
C363 O378 1.261 . S
C363 O379 1.243 . S
C364 C363 1.503 . S
C364 C365 1.394 . S
C364 C369 1.373 . S
C365 C364 1.394 . S
C365 C366 1.380 . S
C365 H388 0.930 . S
C366 C365 1.380 . S
C366 C367 1.376 . S
C366 H389 0.930 . S
C367 C366 1.376 . S
C367 C368 1.370 . S
C368 C367 1.370 . S
C368 C369 1.396 . S
C368 H390 0.929 . S
C369 C364 1.373 . S
C369 C368 1.396 . S
C369 H391 0.929 . S
C370 O380 1.240 . S
C370 O381 1.289 . S
C371 O382 1.258 . S
C371 O383 1.256 . S
O372 La352 2.521 . S
O372 C354 1.261 . S
O373 La352 2.628 . S
O373 C354 1.243 . S
O374 La352 2.554 . S
O374 C361 1.240 . S
O375 La352 2.757 . S
O375 La353 2.482 . S
O375 C361 1.289 . S
O376 La352 2.470 . S
O376 C362 1.258 . S
O377 La353 2.503 . S
O377 C362 1.256 . S
O378 La353 2.521 . S
O378 C363 1.261 . S
O379 La353 2.628 . S
O379 C363 1.243 . S
O380 La353 2.554 . S
O380 C370 1.240 . S
O381 La352 2.482 . S
O381 La353 2.757 . S
O381 C370 1.289 . S
O382 La353 2.470 . S
O382 C371 1.258 . S
O383 La352 2.503 . S
O383 C371 1.256 . S
H384 C356 0.930 . S
H385 C357 0.930 . S
H386 C359 0.929 . S
H387 C360 0.929 . S
H388 C365 0.930 . S
H389 C366 0.930 . S
H390 C368 0.929 . S
H391 C369 0.929 . S
La392 C394 2.928 . S
La392 O412 2.521 . S
La392 O413 2.628 . S
La392 O414 2.554 . S
La392 O415 2.757 . S
La392 O416 2.482 . S
La392 O421 2.482 . S
La392 O423 2.503 . S
La393 C403 2.928 . S
La393 O415 2.482 . S
La393 O417 2.503 1_545 S
La393 O418 2.521 . S
La393 O419 2.628 . S
La393 O420 2.554 . S
La393 O421 2.757 . S
La393 O422 2.470 . S
C394 La392 2.928 . S
C394 C395 1.503 1_545 S
C394 O412 1.261 . S
C394 O413 1.243 . S
C395 C394 1.503 1_565 S
C395 C396 1.394 . S
C395 C400 1.373 . S
C396 C395 1.394 . S
C396 C397 1.380 . S
C396 H424 0.930 1_565 S
C397 C396 1.380 . S
C397 C398 1.376 . S
C397 H425 0.930 . S
C398 C397 1.376 . S
C398 C399 1.370 . S
C399 C398 1.370 . S
C399 C400 1.396 . S
C399 H426 0.929 . S
C400 C395 1.373 . S
C400 C399 1.396 . S
C400 H427 0.929 . S
C401 O414 1.240 . S
C401 O415 1.289 . S
C402 O416 1.251 1_565 S
C402 O417 1.256 . S
C403 La393 2.928 . S
C403 C404 1.503 . S
C403 O418 1.261 . S
C403 O419 1.243 . S
C404 C403 1.503 . S
C404 C405 1.394 . S
C404 C409 1.373 . S
C405 C404 1.394 . S
C405 C406 1.380 . S
C405 H428 0.930 . S
C406 C405 1.380 . S
C406 C407 1.376 . S
C406 H429 0.930 . S
C407 C406 1.376 . S
C407 C408 1.370 . S
C408 C407 1.370 . S
C408 C409 1.396 . S
C408 H430 0.929 . S
C409 C404 1.373 . S
C409 C408 1.396 . S
C409 H431 0.929 . S
C410 O420 1.240 . S
C410 O421 1.289 . S
C411 O422 1.258 . S
C411 O423 1.256 . S
O412 La392 2.521 . S
O412 C394 1.261 . S
O413 La392 2.628 . S
O413 C394 1.243 . S
O414 La392 2.554 . S
O414 C401 1.240 . S
O415 La392 2.757 . S
O415 La393 2.482 . S
O415 C401 1.289 . S
O416 La392 2.482 . S
O416 C402 1.251 1_545 S
O417 La393 2.503 1_565 S
O417 C402 1.256 . S
O418 La393 2.521 . S
O418 C403 1.261 . S
O419 La393 2.628 . S
O419 C403 1.243 . S
O420 La393 2.554 . S
O420 C410 1.240 . S
O421 La392 2.482 . S
O421 La393 2.757 . S
O421 C410 1.289 . S
O422 La393 2.470 . S
O422 C411 1.258 . S
O423 La392 2.503 . S
O423 C411 1.256 . S
H424 C396 0.930 1_545 S
H425 C397 0.930 . S
H426 C399 0.929 . S
H427 C400 0.929 . S
H428 C405 0.930 . S
H429 C406 0.930 . S
H430 C408 0.929 . S
H431 C409 0.929 . S
La432 C434 2.928 . S
La432 O452 2.521 . S
La432 O453 2.628 . S
La432 O454 2.554 . S
La432 O455 2.757 . S
La432 O456 2.470 . S
La432 O461 2.482 . S
La432 O463 2.503 . S
La433 C443 2.928 . S
La433 O455 2.482 . S
La433 O457 2.503 . S
La433 O458 2.521 . S
La433 O459 2.628 . S
La433 O460 2.554 . S
La433 O461 2.757 . S
La433 O462 2.470 . S
C434 La432 2.928 . S
C434 C435 1.503 . S
C434 O452 1.261 . S
C434 O453 1.243 . S
C435 C434 1.503 . S
C435 C436 1.394 . S
C435 C440 1.373 . S
C436 C435 1.394 . S
C436 C437 1.380 . S
C436 H464 0.930 . S
C437 C436 1.380 . S
C437 C438 1.376 . S
C437 H465 0.930 . S
C438 C437 1.376 . S
C438 C439 1.370 . S
C439 C438 1.370 . S
C439 C440 1.396 . S
C439 H466 0.929 . S
C440 C435 1.373 . S
C440 C439 1.396 . S
C440 H467 0.929 . S
C441 O454 1.240 . S
C441 O455 1.289 . S
C442 O456 1.258 . S
C442 O457 1.256 . S
C443 La433 2.928 . S
C443 C444 1.503 . S
C443 O458 1.261 . S
C443 O459 1.243 . S
C444 C443 1.503 . S
C444 C445 1.394 . S
C444 C449 1.373 . S
C445 C444 1.394 . S
C445 C446 1.380 . S
C445 H468 0.930 . S
C446 C445 1.380 . S
C446 C447 1.376 . S
C446 H469 0.930 . S
C447 C446 1.376 . S
C447 C448 1.370 . S
C448 C447 1.370 . S
C448 C449 1.396 . S
C448 H470 0.929 . S
C449 C444 1.373 . S
C449 C448 1.396 . S
C449 H471 0.929 . S
C450 O460 1.240 . S
C450 O461 1.289 . S
C451 O462 1.258 . S
C451 O463 1.256 . S
O452 La432 2.521 . S
O452 C434 1.261 . S
O453 La432 2.628 . S
O453 C434 1.243 . S
O454 La432 2.554 . S
O454 C441 1.240 . S
O455 La432 2.757 . S
O455 La433 2.482 . S
O455 C441 1.289 . S
O456 La432 2.470 . S
O456 C442 1.258 . S
O457 La433 2.503 . S
O457 C442 1.256 . S
O458 La433 2.521 . S
O458 C443 1.261 . S
O459 La433 2.628 . S
O459 C443 1.243 . S
O460 La433 2.554 . S
O460 C450 1.240 . S
O461 La432 2.482 . S
O461 La433 2.757 . S
O461 C450 1.289 . S
O462 La433 2.470 . S
O462 C451 1.258 . S
O463 La432 2.503 . S
O463 C451 1.256 . S
H464 C436 0.930 . S
H465 C437 0.930 . S
H466 C439 0.929 . S
H467 C440 0.929 . S
H468 C445 0.930 . S
H469 C446 0.930 . S
H470 C448 0.929 . S
H471 C449 0.929 . S
La472 C474 2.928 . S
La472 O492 2.521 . S
La472 O493 2.628 . S
La472 O494 2.554 . S
La472 O495 2.757 . S
La472 O496 2.470 . S
La472 O501 2.482 . S
La472 O503 2.503 . S
La473 C483 2.928 1_545 S
La473 O495 2.482 . S
La473 O497 2.503 . S
La473 O498 2.521 1_545 S
La473 O499 2.628 1_545 S
La473 O500 2.554 . S
La473 O501 2.757 . S
La473 O502 2.470 . S
C474 La472 2.928 . S
C474 C475 1.503 . S
C474 O492 1.261 . S
C474 O493 1.243 . S
C475 C474 1.503 . S
C475 C476 1.394 . S
C475 C480 1.373 . S
C476 C475 1.394 . S
C476 C477 1.380 . S
C476 H504 0.930 . S
C477 C476 1.380 . S
C477 C478 1.376 . S
C477 H505 0.930 . S
C478 C477 1.376 . S
C478 C479 1.370 . S
C479 C478 1.370 . S
C479 C480 1.396 . S
C479 H506 0.929 . S
C480 C475 1.373 . S
C480 C479 1.396 . S
C480 H507 0.929 . S
C481 O494 1.240 . S
C481 O495 1.289 . S
C482 O496 1.258 . S
C482 O497 1.256 . S
C483 La473 2.928 1_565 S
C483 C484 1.503 . S
C483 O498 1.261 . S
C483 O499 1.243 . S
C484 C483 1.503 . S
C484 C485 1.394 . S
C484 C489 1.373 . S
C485 C484 1.394 . S
C485 C486 1.380 . S
C485 H508 0.930 . S
C486 C485 1.380 . S
C486 C487 1.376 . S
C486 H509 0.930 . S
C487 C486 1.376 . S
C487 C488 1.370 . S
C488 C487 1.370 . S
C488 C489 1.396 . S
C488 H510 0.929 . S
C489 C484 1.373 . S
C489 C488 1.396 . S
C489 H511 0.929 . S
C490 O500 1.240 . S
C490 O501 1.289 . S
C491 O502 1.258 . S
C491 O503 1.256 . S
O492 La472 2.521 . S
O492 C474 1.261 . S
O493 La472 2.628 . S
O493 C474 1.243 . S
O494 La472 2.554 . S
O494 C481 1.240 . S
O495 La472 2.757 . S
O495 La473 2.482 . S
O495 C481 1.289 . S
O496 La472 2.470 . S
O496 C482 1.258 . S
O497 La473 2.503 . S
O497 C482 1.256 . S
O498 La473 2.521 1_565 S
O498 C483 1.261 . S
O499 La473 2.628 1_565 S
O499 C483 1.243 . S
O500 La473 2.554 . S
O500 C490 1.240 . S
O501 La472 2.482 . S
O501 La473 2.757 . S
O501 C490 1.289 . S
O502 La473 2.470 . S
O502 C491 1.258 . S
O503 La472 2.503 . S
O503 C491 1.256 . S
H504 C476 0.930 . S
H505 C477 0.930 . S
H506 C479 0.929 . S
H507 C480 0.929 . S
H508 C485 0.930 . S
H509 C486 0.930 . S
H510 C488 0.929 . S
H511 C489 0.929 . S
La512 C514 2.928 . S
La512 O532 2.521 . S
La512 O533 2.628 . S
La512 O534 2.554 . S
La512 O535 2.757 . S
La512 O536 2.470 . S
La512 O541 2.482 . S
La512 O543 2.503 . S
La513 C523 2.928 . S
La513 O535 2.482 . S
La513 O537 2.503 . S
La513 O538 2.521 . S
La513 O539 2.628 . S
La513 O540 2.554 . S
La513 O541 2.757 . S
La513 O542 2.470 . S
C514 La512 2.928 . S
C514 C515 1.503 . S
C514 O532 1.261 . S
C514 O533 1.243 . S
C515 C514 1.503 . S
C515 C516 1.394 . S
C515 C520 1.373 . S
C516 C515 1.394 . S
C516 C517 1.380 . S
C516 H544 0.930 . S
C517 C516 1.380 . S
C517 C518 1.376 . S
C517 H545 0.930 . S
C518 C517 1.376 . S
C518 C519 1.370 . S
C519 C518 1.370 . S
C519 C520 1.396 . S
C519 H546 0.929 . S
C520 C515 1.373 . S
C520 C519 1.396 . S
C520 H547 0.929 . S
C521 O534 1.240 . S
C521 O535 1.289 . S
C522 O536 1.258 . S
C522 O537 1.256 . S
C523 La513 2.928 . S
C523 C524 1.503 . S
C523 O538 1.261 . S
C523 O539 1.243 . S
C524 C523 1.503 . S
C524 C525 1.394 . S
C524 C529 1.373 . S
C525 C524 1.394 . S
C525 C526 1.380 . S
C525 H548 0.930 . S
C526 C525 1.380 . S
C526 C527 1.376 . S
C526 H549 0.930 . S
C527 C526 1.376 . S
C527 C528 1.370 . S
C528 C527 1.370 . S
C528 C529 1.396 . S
C528 H550 0.929 . S
C529 C524 1.373 . S
C529 C528 1.396 . S
C529 H551 0.929 . S
C530 O540 1.240 . S
C530 O541 1.289 . S
C531 O542 1.258 . S
C531 O543 1.256 . S
O532 La512 2.521 . S
O532 C514 1.261 . S
O533 La512 2.628 . S
O533 C514 1.243 . S
O534 La512 2.554 . S
O534 C521 1.240 . S
O535 La512 2.757 . S
O535 La513 2.482 . S
O535 C521 1.289 . S
O536 La512 2.470 . S
O536 C522 1.258 . S
O537 La513 2.503 . S
O537 C522 1.256 . S
O538 La513 2.521 . S
O538 C523 1.261 . S
O539 La513 2.628 . S
O539 C523 1.243 . S
O540 La513 2.554 . S
O540 C530 1.240 . S
O541 La512 2.482 . S
O541 La513 2.757 . S
O541 C530 1.289 . S
O542 La513 2.470 . S
O542 C531 1.258 . S
O543 La512 2.503 . S
O543 C531 1.256 . S
H544 C516 0.930 . S
H545 C517 0.930 . S
H546 C519 0.929 . S
H547 C520 0.929 . S
H548 C525 0.930 . S
H549 C526 0.930 . S
H550 C528 0.929 . S
H551 C529 0.929 . S
La552 C554 2.928 . S
La552 O572 2.521 1_545 S
La552 O573 2.628 . S
La552 O574 2.554 1_545 S
La552 O575 2.720 1_554 S
La552 O576 2.470 . S
La552 O581 2.482 . S
La552 O583 2.503 . S
La553 C563 2.928 . S
La553 O575 2.501 . S
La553 O577 2.503 . S
La553 O578 2.521 . S
La553 O579 2.628 . S
La553 O580 2.554 1_556 S
La553 O581 2.757 1_556 S
La553 O582 2.470 1_556 S
C554 La552 2.928 . S
C554 C555 1.503 . S
C554 O572 1.261 1_545 S
C554 O573 1.243 . S
C555 C554 1.503 . S
C555 C556 1.394 1_545 S
C555 C560 1.373 . S
C556 C555 1.394 1_565 S
C556 C557 1.380 . S
C556 H584 0.930 . S
C557 C556 1.380 . S
C557 C558 1.376 . S
C557 H585 0.930 . S
C558 C557 1.376 . S
C558 C559 1.370 1_565 S
C559 C558 1.370 1_545 S
C559 C560 1.396 . S
C559 H586 0.929 . S
C560 C555 1.373 . S
C560 C559 1.396 . S
C560 H587 0.929 . S
C561 O574 1.240 . S
C561 O575 1.278 1_564 S
C562 O576 1.258 . S
C562 O577 1.256 1_554 S
C563 La553 2.928 . S
C563 C564 1.503 . S
C563 O578 1.261 . S
C563 O579 1.243 . S
C564 C563 1.503 . S
C564 C565 1.394 . S
C564 C569 1.373 . S
C565 C564 1.394 . S
C565 C566 1.380 . S
C565 H588 0.930 . S
C566 C565 1.380 . S
C566 C567 1.376 . S
C566 H589 0.930 . S
C567 C566 1.376 . S
C567 C568 1.370 . S
C568 C567 1.370 . S
C568 C569 1.396 . S
C568 H590 0.929 . S
C569 C564 1.373 . S
C569 C568 1.396 . S
C569 H591 0.929 . S
C570 O580 1.240 . S
C570 O581 1.289 . S
C571 O582 1.258 . S
C571 O583 1.256 . S
O572 La552 2.521 1_565 S
O572 C554 1.261 1_565 S
O573 La552 2.628 . S
O573 C554 1.243 . S
O574 La552 2.554 1_565 S
O574 C561 1.240 . S
O575 La552 2.720 1_556 S
O575 La553 2.501 . S
O575 C561 1.278 1_546 S
O576 La552 2.470 . S
O576 C562 1.258 . S
O577 La553 2.503 . S
O577 C562 1.256 1_556 S
O578 La553 2.521 . S
O578 C563 1.261 . S
O579 La553 2.628 . S
O579 C563 1.243 . S
O580 La553 2.554 1_554 S
O580 C570 1.240 . S
O581 La552 2.482 . S
O581 La553 2.757 1_554 S
O581 C570 1.289 . S
O582 La553 2.470 1_554 S
O582 C571 1.258 . S
O583 La552 2.503 . S
O583 C571 1.256 . S
H584 C556 0.930 . S
H585 C557 0.930 . S
H586 C559 0.929 . S
H587 C560 0.929 . S
H588 C565 0.930 . S
H589 C566 0.930 . S
H590 C568 0.929 . S
H591 C569 0.929 . S
La592 C594 2.928 . S
La592 O612 2.521 . S
La592 O613 2.628 . S
La592 O614 2.554 . S
La592 O615 2.757 . S
La592 O616 2.470 . S
La592 O621 2.482 . S
La592 O623 2.503 . S
La593 C603 2.928 . S
La593 O615 2.482 . S
La593 O617 2.503 . S
La593 O618 2.521 . S
La593 O619 2.628 . S
La593 O620 2.554 . S
La593 O621 2.757 . S
La593 O622 2.470 . S
C594 La592 2.928 . S
C594 C595 1.503 . S
C594 O612 1.261 . S
C594 O613 1.243 . S
C595 C594 1.503 . S
C595 C596 1.394 . S
C595 C600 1.373 . S
C596 C595 1.394 . S
C596 C597 1.380 . S
C596 H624 0.930 . S
C597 C596 1.380 . S
C597 C598 1.376 . S
C597 H625 0.930 . S
C598 C597 1.376 . S
C598 C599 1.370 . S
C599 C598 1.370 . S
C599 C600 1.396 . S
C599 H626 0.929 . S
C600 C595 1.373 . S
C600 C599 1.396 . S
C600 H627 0.929 . S
C601 O614 1.240 . S
C601 O615 1.289 . S
C602 O616 1.258 . S
C602 O617 1.256 . S
C603 La593 2.928 . S
C603 C604 1.503 . S
C603 O618 1.261 . S
C603 O619 1.243 . S
C604 C603 1.503 . S
C604 C605 1.394 . S
C604 C609 1.373 . S
C605 C604 1.394 . S
C605 C606 1.380 . S
C605 H628 0.930 . S
C606 C605 1.380 . S
C606 C607 1.376 . S
C606 H629 0.930 . S
C607 C606 1.376 . S
C607 C608 1.370 . S
C608 C607 1.370 . S
C608 C609 1.396 . S
C608 H630 0.929 . S
C609 C604 1.373 . S
C609 C608 1.396 . S
C609 H631 0.929 . S
C610 O620 1.240 . S
C610 O621 1.289 . S
C611 O622 1.258 . S
C611 O623 1.256 . S
O612 La592 2.521 . S
O612 C594 1.261 . S
O613 La592 2.628 . S
O613 C594 1.243 . S
O614 La592 2.554 . S
O614 C601 1.240 . S
O615 La592 2.757 . S
O615 La593 2.482 . S
O615 C601 1.289 . S
O616 La592 2.470 . S
O616 C602 1.258 . S
O617 La593 2.503 . S
O617 C602 1.256 . S
O618 La593 2.521 . S
O618 C603 1.261 . S
O619 La593 2.628 . S
O619 C603 1.243 . S
O620 La593 2.554 . S
O620 C610 1.240 . S
O621 La592 2.482 . S
O621 La593 2.757 . S
O621 C610 1.289 . S
O622 La593 2.470 . S
O622 C611 1.258 . S
O623 La592 2.503 . S
O623 C611 1.256 . S
H624 C596 0.930 . S
H625 C597 0.930 . S
H626 C599 0.929 . S
H627 C600 0.929 . S
H628 C605 0.930 . S
H629 C606 0.930 . S
H630 C608 0.929 . S
H631 C609 0.929 . S
La632 C634 2.928 . S
La632 O652 2.521 . S
La632 O653 2.628 . S
La632 O654 2.554 . S
La632 O655 2.757 . S
La632 O656 2.470 1_554 S
La632 O661 2.482 . S
La632 O663 2.503 . S
La633 C643 2.928 . S
La633 O655 2.482 . S
La633 O657 2.503 1_554 S
La633 O658 2.521 . S
La633 O659 2.628 . S
La633 O660 2.554 . S
La633 O661 2.757 . S
La633 O662 2.470 . S
C634 La632 2.928 . S
C634 C635 1.503 1_554 S
C634 O652 1.261 . S
C634 O653 1.243 . S
C635 C634 1.503 1_556 S
C635 C636 1.394 . S
C635 C640 1.373 . S
C636 C635 1.394 . S
C636 C637 1.380 . S
C636 H664 0.930 1_556 S
C637 C636 1.380 . S
C637 C638 1.376 . S
C637 H665 0.930 . S
C638 C637 1.376 . S
C638 C639 1.370 . S
C639 C638 1.370 . S
C639 C640 1.396 . S
C639 H666 0.929 . S
C640 C635 1.373 . S
C640 C639 1.396 . S
C640 H667 0.929 . S
C641 O654 1.240 . S
C641 O655 1.289 . S
C642 O656 1.258 . S
C642 O657 1.256 . S
C643 La633 2.928 . S
C643 C644 1.503 . S
C643 O658 1.261 . S
C643 O659 1.243 . S
C644 C643 1.503 . S
C644 C645 1.394 . S
C644 C649 1.373 . S
C645 C644 1.394 . S
C645 C646 1.380 . S
C645 H668 0.930 . S
C646 C645 1.380 . S
C646 C647 1.376 . S
C646 H669 0.930 . S
C647 C646 1.376 . S
C647 C648 1.370 . S
C648 C647 1.370 . S
C648 C649 1.396 . S
C648 H670 0.929 . S
C649 C644 1.373 . S
C649 C648 1.396 . S
C649 H671 0.929 . S
C650 O660 1.240 . S
C650 O661 1.289 . S
C651 O662 1.258 . S
C651 O663 1.256 . S
O652 La632 2.521 . S
O652 C634 1.261 . S
O653 La632 2.628 . S
O653 C634 1.243 . S
O654 La632 2.554 . S
O654 C641 1.240 . S
O655 La632 2.757 . S
O655 La633 2.482 . S
O655 C641 1.289 . S
O656 La632 2.470 1_556 S
O656 C642 1.258 . S
O657 La633 2.503 1_556 S
O657 C642 1.256 . S
O658 La633 2.521 . S
O658 C643 1.261 . S
O659 La633 2.628 . S
O659 C643 1.243 . S
O660 La633 2.554 . S
O660 C650 1.240 . S
O661 La632 2.482 . S
O661 La633 2.757 . S
O661 C650 1.289 . S
O662 La633 2.470 . S
O662 C651 1.258 . S
O663 La632 2.503 . S
O663 C651 1.256 . S
H664 C636 0.930 1_554 S
H665 C637 0.930 . S
H666 C639 0.929 . S
H667 C640 0.929 . S
H668 C645 0.930 . S
H669 C646 0.930 . S
H670 C648 0.929 . S
H671 C649 0.929 . S
La672 C674 2.928 . S
La672 O692 2.521 . S
La672 O693 2.628 . S
La672 O694 2.554 . S
La672 O695 2.757 . S
La672 O696 2.470 . S
La672 O701 2.482 . S
La672 O703 2.503 . S
La673 C683 2.928 . S
La673 O695 2.482 . S
La673 O697 2.503 . S
La673 O698 2.521 . S
La673 O699 2.628 . S
La673 O700 2.554 . S
La673 O701 2.757 . S
La673 O702 2.470 . S
C674 La672 2.928 . S
C674 C675 1.503 . S
C674 O692 1.261 . S
C674 O693 1.243 . S
C675 C674 1.503 . S
C675 C676 1.394 . S
C675 C680 1.373 . S
C676 C675 1.394 . S
C676 C677 1.380 . S
C676 H704 0.930 . S
C677 C676 1.380 . S
C677 C678 1.376 . S
C677 H705 0.930 . S
C678 C677 1.376 . S
C678 C679 1.370 . S
C679 C678 1.370 . S
C679 C680 1.396 . S
C679 H706 0.929 . S
C680 C675 1.373 . S
C680 C679 1.396 . S
C680 H707 0.929 . S
C681 O694 1.240 . S
C681 O695 1.289 . S
C682 O696 1.258 . S
C682 O697 1.256 . S
C683 La673 2.928 . S
C683 C684 1.503 . S
C683 O698 1.261 . S
C683 O699 1.243 . S
C684 C683 1.503 . S
C684 C685 1.394 . S
C684 C689 1.373 . S
C685 C684 1.394 . S
C685 C686 1.380 . S
C685 H708 0.930 . S
C686 C685 1.380 . S
C686 C687 1.376 . S
C686 H709 0.930 . S
C687 C686 1.376 . S
C687 C688 1.370 . S
C688 C687 1.370 . S
C688 C689 1.396 . S
C688 H710 0.929 . S
C689 C684 1.373 . S
C689 C688 1.396 . S
C689 H711 0.929 . S
C690 O700 1.240 . S
C690 O701 1.289 . S
C691 O702 1.258 . S
C691 O703 1.256 . S
O692 La672 2.521 . S
O692 C674 1.261 . S
O693 La672 2.628 . S
O693 C674 1.243 . S
O694 La672 2.554 . S
O694 C681 1.240 . S
O695 La672 2.757 . S
O695 La673 2.482 . S
O695 C681 1.289 . S
O696 La672 2.470 . S
O696 C682 1.258 . S
O697 La673 2.503 . S
O697 C682 1.256 . S
O698 La673 2.521 . S
O698 C683 1.261 . S
O699 La673 2.628 . S
O699 C683 1.243 . S
O700 La673 2.554 . S
O700 C690 1.240 . S
O701 La672 2.482 . S
O701 La673 2.757 . S
O701 C690 1.289 . S
O702 La673 2.470 . S
O702 C691 1.258 . S
O703 La672 2.503 . S
O703 C691 1.256 . S
H704 C676 0.930 . S
H705 C677 0.930 . S
H706 C679 0.929 . S
H707 C680 0.929 . S
H708 C685 0.930 . S
H709 C686 0.930 . S
H710 C688 0.929 . S
H711 C689 0.929 . S
La712 C714 2.928 . S
La712 O732 2.521 . S
La712 O733 2.628 . S
La712 O734 2.554 . S
La712 O735 2.757 . S
La712 O736 2.470 . S
La712 O741 2.482 . S
La712 O743 2.503 . S
La713 C723 2.928 . S
La713 O735 2.482 . S
La713 O737 2.503 . S
La713 O738 2.521 . S
La713 O739 2.628 . S
La713 O740 2.554 . S
La713 O741 2.757 . S
La713 O742 2.470 . S
C714 La712 2.928 . S
C714 C715 1.503 . S
C714 O732 1.261 . S
C714 O733 1.243 . S
C715 C714 1.503 . S
C715 C716 1.394 . S
C715 C720 1.373 . S
C716 C715 1.394 . S
C716 C717 1.380 . S
C716 H744 0.930 . S
C717 C716 1.380 . S
C717 C718 1.376 1_455 S
C717 H745 0.930 . S
C718 C717 1.376 1_655 S
C718 C719 1.370 . S
C719 C718 1.370 . S
C719 C720 1.396 1_655 S
C719 H746 0.929 . S
C720 C715 1.373 . S
C720 C719 1.396 1_455 S
C720 H747 0.929 . S
C721 O734 1.240 . S
C721 O735 1.289 . S
C722 O736 1.258 . S
C722 O737 1.256 . S
C723 La713 2.928 . S
C723 C724 1.503 . S
C723 O738 1.261 . S
C723 O739 1.243 . S
C724 C723 1.503 . S
C724 C725 1.394 . S
C724 C729 1.373 . S
C725 C724 1.394 . S
C725 C726 1.380 . S
C725 H748 0.930 . S
C726 C725 1.380 . S
C726 C727 1.376 . S
C726 H749 0.930 . S
C727 C726 1.376 . S
C727 C728 1.370 . S
C728 C727 1.370 . S
C728 C729 1.396 . S
C728 H750 0.929 . S
C729 C724 1.373 . S
C729 C728 1.396 . S
C729 H751 0.929 . S
C730 O740 1.240 . S
C730 O741 1.289 . S
C731 O742 1.258 . S
C731 O743 1.256 . S
O732 La712 2.521 . S
O732 C714 1.261 . S
O733 La712 2.628 . S
O733 C714 1.243 . S
O734 La712 2.554 . S
O734 C721 1.240 . S
O735 La712 2.757 . S
O735 La713 2.482 . S
O735 C721 1.289 . S
O736 La712 2.470 . S
O736 C722 1.258 . S
O737 La713 2.503 . S
O737 C722 1.256 . S
O738 La713 2.521 . S
O738 C723 1.261 . S
O739 La713 2.628 . S
O739 C723 1.243 . S
O740 La713 2.554 . S
O740 C730 1.240 . S
O741 La712 2.482 . S
O741 La713 2.757 . S
O741 C730 1.289 . S
O742 La713 2.470 . S
O742 C731 1.258 . S
O743 La712 2.503 . S
O743 C731 1.256 . S
H744 C716 0.930 . S
H745 C717 0.930 . S
H746 C719 0.929 . S
H747 C720 0.929 . S
H748 C725 0.930 . S
H749 C726 0.930 . S
H750 C728 0.929 . S
H751 C729 0.929 . S
La752 C754 2.928 . S
La752 O772 2.521 . S
La752 O773 2.628 . S
La752 O774 2.554 . S
La752 O775 2.757 . S
La752 O776 2.470 . S
La752 O781 2.482 . S
La752 O783 2.503 . S
La753 C763 2.928 . S
La753 O775 2.482 . S
La753 O777 2.503 . S
La753 O778 2.521 . S
La753 O779 2.628 . S
La753 O780 2.554 . S
La753 O781 2.757 . S
La753 O782 2.470 . S
C754 La752 2.928 . S
C754 C755 1.503 . S
C754 O772 1.261 . S
C754 O773 1.243 . S
C755 C754 1.503 . S
C755 C756 1.394 . S
C755 C760 1.373 . S
C756 C755 1.394 . S
C756 C757 1.380 . S
C756 H784 0.930 . S
C757 C756 1.380 . S
C757 C758 1.376 . S
C757 H785 0.930 . S
C758 C757 1.376 . S
C758 C759 1.370 . S
C759 C758 1.370 . S
C759 C760 1.396 . S
C759 H786 0.929 . S
C760 C755 1.373 . S
C760 C759 1.396 . S
C760 H787 0.929 . S
C761 O774 1.240 . S
C761 O775 1.289 . S
C762 O776 1.258 . S
C762 O777 1.256 . S
C763 La753 2.928 . S
C763 C764 1.503 . S
C763 O778 1.261 . S
C763 O779 1.243 . S
C764 C763 1.503 . S
C764 C765 1.394 . S
C764 C769 1.373 . S
C765 C764 1.394 . S
C765 C766 1.380 . S
C765 H788 0.930 . S
C766 C765 1.380 . S
C766 C767 1.376 . S
C766 H789 0.930 . S
C767 C766 1.376 . S
C767 C768 1.370 . S
C768 C767 1.370 . S
C768 C769 1.396 . S
C768 H790 0.929 . S
C769 C764 1.373 . S
C769 C768 1.396 . S
C769 H791 0.929 . S
C770 O780 1.240 . S
C770 O781 1.289 . S
C771 O782 1.258 . S
C771 O783 1.256 . S
O772 La752 2.521 . S
O772 C754 1.261 . S
O773 La752 2.628 . S
O773 C754 1.243 . S
O774 La752 2.554 . S
O774 C761 1.240 . S
O775 La752 2.757 . S
O775 La753 2.482 . S
O775 C761 1.289 . S
O776 La752 2.470 . S
O776 C762 1.258 . S
O777 La753 2.503 . S
O777 C762 1.256 . S
O778 La753 2.521 . S
O778 C763 1.261 . S
O779 La753 2.628 . S
O779 C763 1.243 . S
O780 La753 2.554 . S
O780 C770 1.240 . S
O781 La752 2.482 . S
O781 La753 2.757 . S
O781 C770 1.289 . S
O782 La753 2.470 . S
O782 C771 1.258 . S
O783 La752 2.503 . S
O783 C771 1.256 . S
H784 C756 0.930 . S
H785 C757 0.930 . S
H786 C759 0.929 . S
H787 C760 0.929 . S
H788 C765 0.930 . S
H789 C766 0.930 . S
H790 C768 0.929 . S
H791 C769 0.929 . S
La792 C794 2.928 . S
La792 O812 2.521 . S
La792 O813 2.628 . S
La792 O814 2.554 . S
La792 O815 2.757 . S
La792 O816 2.470 . S
La792 O821 2.482 . S
La792 O823 2.503 . S
La793 C803 2.928 . S
La793 O815 2.482 . S
La793 O817 2.503 . S
La793 O818 2.521 . S
La793 O819 2.628 . S
La793 O820 2.554 . S
La793 O821 2.757 . S
La793 O822 2.470 . S
C794 La792 2.928 . S
C794 C795 1.503 . S
C794 O812 1.261 . S
C794 O813 1.243 . S
C795 C794 1.503 . S
C795 C796 1.394 . S
C795 C800 1.373 . S
C796 C795 1.394 . S
C796 C797 1.380 . S
C796 H824 0.930 . S
C797 C796 1.380 . S
C797 C798 1.376 . S
C797 H825 0.930 . S
C798 C797 1.376 . S
C798 C799 1.370 . S
C799 C798 1.370 . S
C799 C800 1.396 . S
C799 H826 0.929 . S
C800 C795 1.373 . S
C800 C799 1.396 . S
C800 H827 0.929 . S
C801 O814 1.240 . S
C801 O815 1.289 . S
C802 O816 1.258 . S
C802 O817 1.256 . S
C803 La793 2.928 . S
C803 C804 1.503 . S
C803 O818 1.261 . S
C803 O819 1.243 . S
C804 C803 1.503 . S
C804 C805 1.394 . S
C804 C809 1.373 . S
C805 C804 1.394 . S
C805 C806 1.380 . S
C805 H828 0.930 . S
C806 C805 1.380 . S
C806 C807 1.376 . S
C806 H829 0.930 . S
C807 C806 1.376 . S
C807 C808 1.370 . S
C808 C807 1.370 . S
C808 C809 1.396 . S
C808 H830 0.929 . S
C809 C804 1.373 . S
C809 C808 1.396 . S
C809 H831 0.929 . S
C810 O820 1.240 . S
C810 O821 1.289 . S
C811 O822 1.258 . S
C811 O823 1.256 . S
O812 La792 2.521 . S
O812 C794 1.261 . S
O813 La792 2.628 . S
O813 C794 1.243 . S
O814 La792 2.554 . S
O814 C801 1.240 . S
O815 La792 2.757 . S
O815 La793 2.482 . S
O815 C801 1.289 . S
O816 La792 2.470 . S
O816 C802 1.258 . S
O817 La793 2.503 . S
O817 C802 1.256 . S
O818 La793 2.521 . S
O818 C803 1.261 . S
O819 La793 2.628 . S
O819 C803 1.243 . S
O820 La793 2.554 . S
O820 C810 1.240 . S
O821 La792 2.482 . S
O821 La793 2.757 . S
O821 C810 1.289 . S
O822 La793 2.470 . S
O822 C811 1.258 . S
O823 La792 2.503 . S
O823 C811 1.256 . S
H824 C796 0.930 . S
H825 C797 0.930 . S
H826 C799 0.929 . S
H827 C800 0.929 . S
H828 C805 0.930 . S
H829 C806 0.930 . S
H830 C808 0.929 . S
H831 C809 0.929 . S
La832 C834 2.928 . S
La832 O852 2.521 . S
La832 O853 2.628 . S
La832 O854 2.554 . S
La832 O855 2.757 . S
La832 O856 2.470 . S
La832 O861 2.482 . S
La832 O863 2.503 . S
La833 C843 2.928 . S
La833 O855 2.482 . S
La833 O857 2.503 . S
La833 O858 2.521 . S
La833 O859 2.628 . S
La833 O860 2.554 . S
La833 O861 2.757 . S
La833 O862 2.470 . S
C834 La832 2.928 . S
C834 C835 1.503 . S
C834 O852 1.261 . S
C834 O853 1.243 . S
C835 C834 1.503 . S
C835 C836 1.394 . S
C835 C840 1.373 . S
C836 C835 1.394 . S
C836 C837 1.380 . S
C836 H864 0.930 . S
C837 C836 1.380 . S
C837 C838 1.376 . S
C837 H865 0.930 . S
C838 C837 1.376 . S
C838 C839 1.370 . S
C839 C838 1.370 . S
C839 C840 1.396 . S
C839 H866 0.929 . S
C840 C835 1.373 . S
C840 C839 1.396 . S
C840 H867 0.929 . S
C841 O854 1.240 . S
C841 O855 1.289 . S
C842 O856 1.258 . S
C842 O857 1.256 . S
C843 La833 2.928 . S
C843 C844 1.503 . S
C843 O858 1.261 . S
C843 O859 1.243 . S
C844 C843 1.503 . S
C844 C845 1.394 . S
C844 C849 1.373 . S
C845 C844 1.394 . S
C845 C846 1.380 . S
C845 H868 0.930 . S
C846 C845 1.380 . S
C846 C847 1.376 . S
C846 H869 0.930 . S
C847 C846 1.376 . S
C847 C848 1.370 . S
C848 C847 1.370 . S
C848 C849 1.396 . S
C848 H870 0.929 . S
C849 C844 1.373 . S
C849 C848 1.396 . S
C849 H871 0.929 . S
C850 O860 1.240 . S
C850 O861 1.289 . S
C851 O862 1.258 . S
C851 O863 1.256 . S
O852 La832 2.521 . S
O852 C834 1.261 . S
O853 La832 2.628 . S
O853 C834 1.243 . S
O854 La832 2.554 . S
O854 C841 1.240 . S
O855 La832 2.757 . S
O855 La833 2.482 . S
O855 C841 1.289 . S
O856 La832 2.470 . S
O856 C842 1.258 . S
O857 La833 2.503 . S
O857 C842 1.256 . S
O858 La833 2.521 . S
O858 C843 1.261 . S
O859 La833 2.628 . S
O859 C843 1.243 . S
O860 La833 2.554 . S
O860 C850 1.240 . S
O861 La832 2.482 . S
O861 La833 2.757 . S
O861 C850 1.289 . S
O862 La833 2.470 . S
O862 C851 1.258 . S
O863 La832 2.503 . S
O863 C851 1.256 . S
H864 C836 0.930 . S
H865 C837 0.930 . S
H866 C839 0.929 . S
H867 C840 0.929 . S
H868 C845 0.930 . S
H869 C846 0.930 . S
H870 C848 0.929 . S
H871 C849 0.929 . S
La872 C874 2.928 . S
La872 O892 2.521 . S
La872 O893 2.628 . S
La872 O894 2.554 . S
La872 O895 2.757 . S
La872 O896 2.470 . S
La872 O901 2.482 . S
La872 O903 2.503 . S
La873 C883 2.928 . S
La873 O895 2.482 . S
La873 O897 2.503 . S
La873 O898 2.521 . S
La873 O899 2.628 . S
La873 O900 2.554 . S
La873 O901 2.757 . S
La873 O902 2.470 . S
C874 La872 2.928 . S
C874 C875 1.503 . S
C874 O892 1.261 . S
C874 O893 1.243 . S
C875 C874 1.503 . S
C875 C876 1.394 . S
C875 C880 1.373 . S
C876 C875 1.394 . S
C876 C877 1.380 . S
C876 H904 0.930 . S
C877 C876 1.380 . S
C877 C878 1.376 . S
C877 H905 0.930 . S
C878 C877 1.376 . S
C878 C879 1.370 . S
C879 C878 1.370 . S
C879 C880 1.396 . S
C879 H906 0.929 . S
C880 C875 1.373 . S
C880 C879 1.396 . S
C880 H907 0.929 . S
C881 O894 1.240 . S
C881 O895 1.289 . S
C882 O896 1.258 . S
C882 O897 1.256 . S
C883 La873 2.928 . S
C883 C884 1.503 . S
C883 O898 1.261 . S
C883 O899 1.243 . S
C884 C883 1.503 . S
C884 C885 1.394 . S
C884 C889 1.373 . S
C885 C884 1.394 . S
C885 C886 1.380 . S
C885 H908 0.930 . S
C886 C885 1.380 . S
C886 C887 1.376 . S
C886 H909 0.930 . S
C887 C886 1.376 . S
C887 C888 1.370 . S
C888 C887 1.370 . S
C888 C889 1.396 . S
C888 H910 0.929 . S
C889 C884 1.373 . S
C889 C888 1.396 . S
C889 H911 0.929 . S
C890 O900 1.240 . S
C890 O901 1.289 . S
C891 O902 1.258 . S
C891 O903 1.256 . S
O892 La872 2.521 . S
O892 C874 1.261 . S
O893 La872 2.628 . S
O893 C874 1.243 . S
O894 La872 2.554 . S
O894 C881 1.240 . S
O895 La872 2.757 . S
O895 La873 2.482 . S
O895 C881 1.289 . S
O896 La872 2.470 . S
O896 C882 1.258 . S
O897 La873 2.503 . S
O897 C882 1.256 . S
O898 La873 2.521 . S
O898 C883 1.261 . S
O899 La873 2.628 . S
O899 C883 1.243 . S
O900 La873 2.554 . S
O900 C890 1.240 . S
O901 La872 2.482 . S
O901 La873 2.757 . S
O901 C890 1.289 . S
O902 La873 2.470 . S
O902 C891 1.258 . S
O903 La872 2.503 . S
O903 C891 1.256 . S
H904 C876 0.930 . S
H905 C877 0.930 . S
H906 C879 0.929 . S
H907 C880 0.929 . S
H908 C885 0.930 . S
H909 C886 0.930 . S
H910 C888 0.929 . S
H911 C889 0.929 . S
La912 C914 2.928 . S
La912 O932 2.521 . S
La912 O933 2.628 1_556 S
La912 O934 2.554 . S
La912 O935 2.757 . S
La912 O936 2.470 . S
La912 O941 2.482 1_556 S
La912 O943 2.503 1_556 S
La913 C923 2.928 1_455 S
La913 O935 2.482 1_554 S
La913 O937 2.503 . S
La913 O938 2.521 1_455 S
La913 O939 2.628 1_455 S
La913 O940 2.554 . S
La913 O941 2.757 . S
La913 O942 2.470 . S
C914 La912 2.928 . S
C914 C915 1.503 . S
C914 O932 1.261 . S
C914 O933 1.243 1_556 S
C915 C914 1.503 . S
C915 C916 1.394 . S
C915 C920 1.373 1_556 S
C916 C915 1.394 . S
C916 C917 1.380 . S
C916 H944 0.930 . S
C917 C916 1.380 . S
C917 C918 1.376 . S
C917 H945 0.930 . S
C918 C917 1.376 . S
C918 C919 1.370 . S
C919 C918 1.370 . S
C919 C920 1.396 1_556 S
C919 H946 0.929 1_556 S
C920 C915 1.373 1_554 S
C920 C919 1.396 1_554 S
C920 H947 0.929 . S
C921 O934 1.240 . S
C921 O935 1.289 . S
C922 O936 1.258 . S
C922 O937 1.256 1_556 S
C923 La913 2.928 1_655 S
C923 C924 1.503 . S
C923 O938 1.261 . S
C923 O939 1.243 . S
C924 C923 1.503 . S
C924 C925 1.394 . S
C924 C929 1.373 . S
C925 C924 1.394 . S
C925 C926 1.380 . S
C925 H948 0.930 . S
C926 C925 1.380 . S
C926 C927 1.376 . S
C926 H949 0.930 . S
C927 C926 1.376 . S
C927 C928 1.370 . S
C928 C927 1.370 . S
C928 C929 1.396 . S
C928 H950 0.929 . S
C929 C924 1.373 . S
C929 C928 1.396 . S
C929 H951 0.929 . S
C930 O940 1.240 . S
C930 O941 1.289 . S
C931 O942 1.258 . S
C931 O943 1.256 . S
O932 La912 2.521 . S
O932 C914 1.261 . S
O933 La912 2.628 1_554 S
O933 C914 1.243 1_554 S
O934 La912 2.554 . S
O934 C921 1.240 . S
O935 La912 2.757 . S
O935 La913 2.482 1_556 S
O935 C921 1.289 . S
O936 La912 2.470 . S
O936 C922 1.258 . S
O937 La913 2.503 . S
O937 C922 1.256 1_554 S
O938 La913 2.521 1_655 S
O938 C923 1.261 . S
O939 La913 2.628 1_655 S
O939 C923 1.243 . S
O940 La913 2.554 . S
O940 C930 1.240 . S
O941 La912 2.482 1_554 S
O941 La913 2.757 . S
O941 C930 1.289 . S
O942 La913 2.470 . S
O942 C931 1.258 . S
O943 La912 2.503 1_554 S
O943 C931 1.256 . S
H944 C916 0.930 . S
H945 C917 0.930 . S
H946 C919 0.929 1_554 S
H947 C920 0.929 . S
H948 C925 0.930 . S
H949 C926 0.930 . S
H950 C928 0.929 . S
H951 C929 0.929 . S
H952 C958 0.930 . S
H953 C961 0.924 1_554 S
H954 C962 0.930 . S
H955 C963 0.930 . S
H956 C966 0.930 . S
H957 C967 0.930 . S
C958 H952 0.930 . S
C958 C959 1.355 . S
C958 C960 1.415 . S
C959 C958 1.355 . S
C959 C961 1.433 . S
C960 C958 1.415 . S
C960 C965 1.425 . S
C960 C967 1.409 . S
C961 H953 0.924 1_556 S
C961 C959 1.433 . S
C961 C962 1.354 1_556 S
C962 H954 0.930 . S
C962 C961 1.354 1_554 S
C962 C965 1.409 1_554 S
C963 H955 0.930 . S
C963 C964 1.355 1_554 S
C963 C965 1.415 1_554 S
C964 C963 1.355 1_556 S
C964 C966 1.419 . S
C965 C960 1.425 . S
C965 C962 1.409 1_556 S
C965 C963 1.415 1_556 S
C966 H956 0.930 . S
C966 C964 1.419 . S
C966 C967 1.362 . S
C967 H957 0.930 . S
C967 C960 1.409 . S
C967 C966 1.362 . S
H968 C974 0.930 . S
H969 C977 0.930 . S
H970 C978 0.930 . S
H971 C979 0.930 . S
H972 C982 0.930 . S
H973 C983 0.930 . S
C974 H968 0.930 . S
C974 C975 1.355 . S
C974 C976 1.415 . S
C975 C974 1.355 . S
C975 C977 1.419 . S
C976 C974 1.415 . S
C976 C981 1.425 . S
C976 C983 1.409 . S
C977 H969 0.930 . S
C977 C975 1.419 . S
C977 C978 1.362 . S
C978 H970 0.930 . S
C978 C977 1.362 . S
C978 C981 1.409 . S
C979 H971 0.930 . S
C979 C980 1.355 . S
C979 C981 1.415 . S
C980 C979 1.355 . S
C980 C982 1.419 . S
C981 C976 1.425 . S
C981 C978 1.409 . S
C981 C979 1.415 . S
C982 H972 0.930 . S
C982 C980 1.419 . S
C982 C983 1.362 . S
C983 H973 0.930 . S
C983 C976 1.409 . S
C983 C982 1.362 . S
H984 C990 0.930 . S
H985 C993 0.930 . S
H986 C994 0.930 . S
H987 C995 0.930 . S
H988 C998 0.930 . S
H989 C999 0.930 . S
C990 H984 0.930 . S
C990 C991 1.355 . S
C990 C992 1.415 . S
C991 C990 1.355 . S
C991 C993 1.419 . S
C992 C990 1.415 . S
C992 C997 1.425 . S
C992 C999 1.409 . S
C993 H985 0.930 . S
C993 C991 1.419 . S
C993 C994 1.362 . S
C994 H986 0.930 . S
C994 C993 1.362 . S
C994 C997 1.409 . S
C995 H987 0.930 . S
C995 C996 1.355 . S
C995 C997 1.415 . S
C996 C995 1.355 . S
C996 C998 1.419 . S
C997 C992 1.425 . S
C997 C994 1.409 . S
C997 C995 1.415 . S
C998 H988 0.930 . S
C998 C996 1.419 . S
C998 C999 1.362 . S
C999 H989 0.930 . S
C999 C992 1.409 . S
C999 C998 1.362 . S
H1000 C1006 0.930 . S
H1001 C1009 0.930 . S
H1002 C1010 0.930 . S
H1003 C1011 0.930 . S
H1004 C1014 0.930 . S
H1005 C1015 0.930 . S
C1006 H1000 0.930 . S
C1006 C1007 1.355 . S
C1006 C1008 1.415 . S
C1007 C1006 1.355 . S
C1007 C1009 1.419 . S
C1008 C1006 1.415 . S
C1008 C1013 1.425 . S
C1008 C1015 1.409 . S
C1009 H1001 0.930 . S
C1009 C1007 1.419 . S
C1009 C1010 1.362 . S
C1010 H1002 0.930 . S
C1010 C1009 1.362 . S
C1010 C1013 1.409 . S
C1011 H1003 0.930 . S
C1011 C1012 1.355 . S
C1011 C1013 1.415 . S
C1012 C1011 1.355 . S
C1012 C1014 1.419 . S
C1013 C1008 1.425 . S
C1013 C1010 1.409 . S
C1013 C1011 1.415 . S
C1014 H1004 0.930 . S
C1014 C1012 1.419 . S
C1014 C1015 1.362 . S
C1015 H1005 0.930 . S
C1015 C1008 1.409 . S
C1015 C1014 1.362 . S
H1016 C1022 0.930 1_655 S
H1017 C1025 0.930 . S
H1018 C1026 0.930 . S
H1019 C1027 0.930 . S
H1020 C1030 0.930 . S
H1021 C1031 0.930 . S
C1022 H1016 0.930 1_455 S
C1022 C1023 1.355 . S
C1022 C1024 1.415 . S
C1023 C1022 1.355 . S
C1023 C1025 1.419 . S
C1024 C1022 1.415 . S
C1024 C1029 1.425 . S
C1024 C1031 1.409 . S
C1025 H1017 0.930 . S
C1025 C1023 1.419 . S
C1025 C1026 1.362 . S
C1026 H1018 0.930 . S
C1026 C1025 1.362 . S
C1026 C1029 1.409 . S
C1027 H1019 0.930 . S
C1027 C1028 1.355 . S
C1027 C1029 1.415 . S
C1028 C1027 1.355 . S
C1028 C1030 1.419 . S
C1029 C1024 1.425 . S
C1029 C1026 1.409 . S
C1029 C1027 1.415 . S
C1030 H1020 0.930 . S
C1030 C1028 1.419 . S
C1030 C1031 1.362 . S
C1031 H1021 0.930 . S
C1031 C1024 1.409 . S
C1031 C1030 1.362 . S
H1032 C1038 0.930 . S
H1033 C1041 0.930 . S
H1034 C1042 0.930 . S
H1035 C1043 0.930 . S
H1036 C1046 0.930 . S
H1037 C1047 0.930 . S
C1038 H1032 0.930 . S
C1038 C1039 1.355 . S
C1038 C1040 1.415 . S
C1039 C1038 1.355 . S
C1039 C1041 1.419 . S
C1040 C1038 1.415 . S
C1040 C1045 1.425 . S
C1040 C1047 1.409 . S
C1041 H1033 0.930 . S
C1041 C1039 1.419 . S
C1041 C1042 1.362 . S
C1042 H1034 0.930 . S
C1042 C1041 1.362 . S
C1042 C1045 1.409 . S
C1043 H1035 0.930 . S
C1043 C1044 1.355 . S
C1043 C1045 1.415 . S
C1044 C1043 1.355 . S
C1044 C1046 1.419 . S
C1045 C1040 1.425 . S
C1045 C1042 1.409 . S
C1045 C1043 1.415 . S
C1046 H1036 0.930 . S
C1046 C1044 1.419 . S
C1046 C1047 1.362 . S
C1047 H1037 0.930 . S
C1047 C1040 1.409 . S
C1047 C1046 1.362 . S
H1048 C1054 0.930 . S
H1049 C1057 0.930 . S
H1050 C1058 0.930 . S
H1051 C1059 0.930 . S
H1052 C1062 0.930 . S
H1053 C1063 0.930 . S
C1054 H1048 0.930 . S
C1054 C1055 1.355 . S
C1054 C1056 1.415 . S
C1055 C1054 1.355 . S
C1055 C1057 1.419 . S
C1056 C1054 1.415 . S
C1056 C1061 1.425 . S
C1056 C1063 1.409 . S
C1057 H1049 0.930 . S
C1057 C1055 1.419 . S
C1057 C1058 1.362 . S
C1058 H1050 0.930 . S
C1058 C1057 1.362 . S
C1058 C1061 1.409 . S
C1059 H1051 0.930 . S
C1059 C1060 1.355 . S
C1059 C1061 1.415 . S
C1060 C1059 1.355 . S
C1060 C1062 1.419 . S
C1061 C1056 1.425 . S
C1061 C1058 1.409 . S
C1061 C1059 1.415 . S
C1062 H1052 0.930 . S
C1062 C1060 1.419 . S
C1062 C1063 1.362 . S
C1063 H1053 0.930 . S
C1063 C1056 1.409 . S
C1063 C1062 1.362 . S
H1064 C1070 0.930 . S
H1065 C1073 0.930 . S
H1066 C1074 0.930 . S
H1067 C1075 0.930 . S
H1068 C1078 0.930 . S
H1069 C1079 0.930 . S
C1070 H1064 0.930 . S
C1070 C1071 1.355 . S
C1070 C1072 1.415 . S
C1071 C1070 1.355 . S
C1071 C1073 1.419 . S
C1072 C1070 1.415 . S
C1072 C1077 1.425 . S
C1072 C1079 1.409 . S
C1073 H1065 0.930 . S
C1073 C1071 1.419 . S
C1073 C1074 1.362 . S
C1074 H1066 0.930 . S
C1074 C1073 1.362 . S
C1074 C1077 1.409 . S
C1075 H1067 0.930 . S
C1075 C1076 1.355 . S
C1075 C1077 1.415 . S
C1076 C1075 1.355 . S
C1076 C1078 1.419 . S
C1077 C1072 1.425 . S
C1077 C1074 1.409 . S
C1077 C1075 1.415 . S
C1078 H1068 0.930 . S
C1078 C1076 1.419 . S
C1078 C1079 1.362 . S
C1079 H1069 0.930 . S
C1079 C1072 1.409 . S
C1079 C1078 1.362 . S
H1080 C1086 0.930 . S
H1081 C1089 0.930 . S
H1082 C1090 0.930 . S
H1083 C1091 0.930 . S
H1084 C1094 0.930 . S
H1085 C1095 0.930 . S
C1086 H1080 0.930 . S
C1086 C1087 1.355 . S
C1086 C1088 1.415 1_655 S
C1087 C1086 1.355 . S
C1087 C1089 1.419 . S
C1088 C1086 1.415 1_455 S
C1088 C1093 1.425 . S
C1088 C1095 1.409 . S
C1089 H1081 0.930 . S
C1089 C1087 1.419 . S
C1089 C1090 1.362 1_655 S
C1090 H1082 0.930 . S
C1090 C1089 1.362 1_455 S
C1090 C1093 1.409 . S
C1091 H1083 0.930 . S
C1091 C1092 1.355 . S
C1091 C1093 1.415 . S
C1092 C1091 1.355 . S
C1092 C1094 1.419 . S
C1093 C1088 1.425 . S
C1093 C1090 1.409 . S
C1093 C1091 1.415 . S
C1094 H1084 0.930 . S
C1094 C1092 1.419 . S
C1094 C1095 1.362 . S
C1095 H1085 0.930 . S
C1095 C1088 1.409 . S
C1095 C1094 1.362 . S
H1096 C1102 0.930 . S
H1097 C1105 0.930 . S
H1098 C1106 0.930 . S
H1099 C1107 0.930 . S
H1100 C1110 0.930 . S
H1101 C1111 0.930 . S
C1102 H1096 0.930 . S
C1102 C1103 1.355 . S
C1102 C1104 1.415 . S
C1103 C1102 1.355 . S
C1103 C1105 1.419 . S
C1104 C1102 1.415 . S
C1104 C1109 1.425 . S
C1104 C1111 1.409 . S
C1105 H1097 0.930 . S
C1105 C1103 1.419 . S
C1105 C1106 1.362 . S
C1106 H1098 0.930 . S
C1106 C1105 1.362 . S
C1106 C1109 1.409 . S
C1107 H1099 0.930 . S
C1107 C1108 1.355 . S
C1107 C1109 1.415 . S
C1108 C1107 1.355 . S
C1108 C1110 1.419 . S
C1109 C1104 1.425 . S
C1109 C1106 1.409 . S
C1109 C1107 1.415 . S
C1110 H1100 0.930 . S
C1110 C1108 1.419 . S
C1110 C1111 1.362 . S
C1111 H1101 0.930 . S
C1111 C1104 1.409 . S
C1111 C1110 1.362 . S
H1112 C1118 0.930 . S
H1113 C1121 0.930 . S
H1114 C1122 0.930 . S
H1115 C1123 0.930 . S
H1116 C1126 0.930 . S
H1117 C1127 0.930 . S
C1118 H1112 0.930 . S
C1118 C1119 1.355 . S
C1118 C1120 1.415 . S
C1119 C1118 1.355 . S
C1119 C1121 1.419 . S
C1120 C1118 1.415 . S
C1120 C1125 1.425 . S
C1120 C1127 1.409 . S
C1121 H1113 0.930 . S
C1121 C1119 1.419 . S
C1121 C1122 1.362 . S
C1122 H1114 0.930 . S
C1122 C1121 1.362 . S
C1122 C1125 1.409 . S
C1123 H1115 0.930 . S
C1123 C1124 1.355 . S
C1123 C1125 1.415 . S
C1124 C1123 1.355 . S
C1124 C1126 1.419 . S
C1125 C1120 1.425 . S
C1125 C1122 1.409 . S
C1125 C1123 1.415 . S
C1126 H1116 0.930 . S
C1126 C1124 1.419 . S
C1126 C1127 1.362 . S
C1127 H1117 0.930 . S
C1127 C1120 1.409 . S
C1127 C1126 1.362 . S
H1128 C1134 0.930 . S
H1129 C1137 0.930 . S
H1130 C1138 0.930 . S
H1131 C1139 0.930 . S
H1132 C1142 0.930 . S
H1133 C1143 0.930 . S
C1134 H1128 0.930 . S
C1134 C1135 1.355 . S
C1134 C1136 1.415 . S
C1135 C1134 1.355 . S
C1135 C1137 1.419 . S
C1136 C1134 1.415 . S
C1136 C1141 1.425 . S
C1136 C1143 1.409 . S
C1137 H1129 0.930 . S
C1137 C1135 1.419 . S
C1137 C1138 1.362 . S
C1138 H1130 0.930 . S
C1138 C1137 1.362 . S
C1138 C1141 1.409 . S
C1139 H1131 0.930 . S
C1139 C1140 1.355 . S
C1139 C1141 1.415 . S
C1140 C1139 1.355 . S
C1140 C1142 1.419 . S
C1141 C1136 1.425 . S
C1141 C1138 1.409 . S
C1141 C1139 1.415 . S
C1142 H1132 0.930 . S
C1142 C1140 1.419 . S
C1142 C1143 1.362 . S
C1143 H1133 0.930 . S
C1143 C1136 1.409 . S
C1143 C1142 1.362 . S
H1144 C1150 0.930 . S
H1145 C1153 0.930 . S
H1146 C1154 0.930 . S
H1147 C1155 0.930 1_655 S
H1148 C1158 0.930 . S
H1149 C1159 0.930 . S
C1150 H1144 0.930 . S
C1150 C1151 1.355 1_455 S
C1150 C1152 1.415 . S
C1151 C1150 1.355 1_655 S
C1151 C1153 1.419 . S
C1152 C1150 1.415 . S
C1152 C1157 1.413 1_455 S
C1152 C1159 1.409 . S
C1153 H1145 0.930 . S
C1153 C1151 1.419 . S
C1153 C1154 1.362 . S
C1154 H1146 0.930 . S
C1154 C1153 1.362 . S
C1154 C1157 1.425 . S
C1155 H1147 0.930 1_455 S
C1155 C1156 1.355 . S
C1155 C1157 1.410 1_455 S
C1156 C1155 1.355 . S
C1156 C1158 1.419 . S
C1157 C1152 1.413 1_655 S
C1157 C1154 1.425 . S
C1157 C1155 1.410 1_655 S
C1158 H1148 0.930 . S
C1158 C1156 1.419 . S
C1158 C1159 1.362 . S
C1159 H1149 0.930 . S
C1159 C1152 1.409 . S
C1159 C1158 1.362 . S
H1160 C1166 0.930 . S
H1161 C1169 0.930 . S
H1162 C1170 0.930 . S
H1163 C1171 0.930 . S
H1164 C1174 0.930 . S
H1165 C1175 0.930 . S
C1166 H1160 0.930 . S
C1166 C1167 1.355 . S
C1166 C1168 1.415 . S
C1167 C1166 1.355 . S
C1167 C1169 1.419 . S
C1168 C1166 1.415 . S
C1168 C1173 1.425 . S
C1168 C1175 1.409 . S
C1169 H1161 0.930 . S
C1169 C1167 1.419 . S
C1169 C1170 1.362 . S
C1170 H1162 0.930 . S
C1170 C1169 1.362 . S
C1170 C1173 1.409 . S
C1171 H1163 0.930 . S
C1171 C1172 1.355 . S
C1171 C1173 1.415 . S
C1172 C1171 1.355 . S
C1172 C1174 1.419 . S
C1173 C1168 1.425 . S
C1173 C1170 1.409 . S
C1173 C1171 1.415 . S
C1174 H1164 0.930 . S
C1174 C1172 1.419 . S
C1174 C1175 1.362 . S
C1175 H1165 0.930 . S
C1175 C1168 1.409 . S
C1175 C1174 1.362 . S
H1176 C1182 0.930 . S
H1177 C1185 0.930 . S
H1178 C1186 0.930 . S
H1179 C1187 0.930 . S
H1180 C1190 0.930 . S
H1181 C1191 0.930 . S
C1182 H1176 0.930 . S
C1182 C1183 1.355 . S
C1182 C1184 1.415 . S
C1183 C1182 1.355 . S
C1183 C1185 1.419 . S
C1184 C1182 1.415 . S
C1184 C1189 1.425 . S
C1184 C1191 1.409 . S
C1185 H1177 0.930 . S
C1185 C1183 1.419 . S
C1185 C1186 1.362 . S
C1186 H1178 0.930 . S
C1186 C1185 1.362 . S
C1186 C1189 1.409 . S
C1187 H1179 0.930 . S
C1187 C1188 1.355 . S
C1187 C1189 1.415 . S
C1188 C1187 1.355 . S
C1188 C1190 1.419 . S
C1189 C1184 1.425 . S
C1189 C1186 1.409 . S
C1189 C1187 1.415 . S
C1190 H1180 0.930 . S
C1190 C1188 1.419 . S
C1190 C1191 1.362 . S
C1191 H1181 0.930 . S
C1191 C1184 1.409 . S
C1191 C1190 1.362 . S
H1192 C1198 0.930 . S
H1193 C1201 0.930 . S
H1194 C1202 0.930 . S
H1195 C1203 0.930 . S
H1196 C1206 0.930 . S
H1197 C1207 0.930 . S
C1198 H1192 0.930 . S
C1198 C1199 1.355 . S
C1198 C1200 1.415 . S
C1199 C1198 1.355 . S
C1199 C1201 1.419 . S
C1200 C1198 1.415 . S
C1200 C1205 1.425 . S
C1200 C1207 1.409 . S
C1201 H1193 0.930 . S
C1201 C1199 1.419 . S
C1201 C1202 1.362 . S
C1202 H1194 0.930 . S
C1202 C1201 1.362 . S
C1202 C1205 1.409 . S
C1203 H1195 0.930 . S
C1203 C1204 1.355 . S
C1203 C1205 1.415 . S
C1204 C1203 1.355 . S
C1204 C1206 1.419 . S
C1205 C1200 1.425 . S
C1205 C1202 1.409 . S
C1205 C1203 1.415 . S
C1206 H1196 0.930 . S
C1206 C1204 1.419 . S
C1206 C1207 1.362 . S
C1207 H1197 0.930 . S
C1207 C1200 1.409 . S
C1207 C1206 1.362 . S
H1208 C1214 0.930 . S
H1209 C1217 0.930 . S
H1210 C1218 0.930 . S
H1211 C1219 0.919 1_545 S
H1212 C1222 0.930 . S
H1213 C1223 0.930 . S
C1214 H1208 0.930 . S
C1214 C1215 1.355 . S
C1214 C1216 1.415 . S
C1215 C1214 1.355 . S
C1215 C1217 1.419 1_554 S
C1216 C1214 1.415 . S
C1216 C1221 1.425 . S
C1216 C1223 1.409 . S
C1217 H1209 0.930 . S
C1217 C1215 1.419 1_556 S
C1217 C1218 1.362 . S
C1218 H1210 0.930 . S
C1218 C1217 1.362 . S
C1218 C1221 1.409 1_556 S
C1219 H1211 0.919 1_565 S
C1219 C1220 1.355 1_565 S
C1219 C1221 1.425 . S
C1220 C1219 1.355 1_545 S
C1220 C1222 1.418 . S
C1221 C1216 1.425 . S
C1221 C1218 1.409 1_554 S
C1221 C1219 1.425 . S
C1222 H1212 0.930 . S
C1222 C1220 1.418 . S
C1222 C1223 1.364 1_545 S
C1223 H1213 0.930 . S
C1223 C1216 1.409 . S
C1223 C1222 1.364 1_565 S
H1224 C1230 0.930 . S
H1225 C1233 0.930 . S
H1226 C1234 0.930 . S
H1227 C1235 0.930 . S
H1228 C1238 0.930 . S
H1229 C1239 0.930 . S
C1230 H1224 0.930 . S
C1230 C1231 1.355 1_556 S
C1230 C1232 1.415 . S
C1231 C1230 1.355 1_554 S
C1231 C1233 1.419 . S
C1232 C1230 1.415 . S
C1232 C1237 1.425 1_556 S
C1232 C1239 1.409 . S
C1233 H1225 0.930 . S
C1233 C1231 1.419 . S
C1233 C1234 1.362 . S
C1234 H1226 0.930 . S
C1234 C1233 1.362 . S
C1234 C1237 1.409 . S
C1235 H1227 0.930 . S
C1235 C1236 1.355 . S
C1235 C1237 1.415 . S
C1236 C1235 1.355 . S
C1236 C1238 1.419 1_554 S
C1237 C1232 1.425 1_554 S
C1237 C1234 1.409 . S
C1237 C1235 1.415 . S
C1238 H1228 0.930 . S
C1238 C1236 1.419 1_556 S
C1238 C1239 1.362 . S
C1239 H1229 0.930 . S
C1239 C1232 1.409 . S
C1239 C1238 1.362 . S
H1240 C1246 0.930 . S
H1241 C1249 0.930 . S
H1242 C1250 0.930 . S
H1243 C1251 0.930 . S
H1244 C1254 0.930 . S
H1245 C1255 0.930 . S
C1246 H1240 0.930 . S
C1246 C1247 1.355 . S
C1246 C1248 1.415 . S
C1247 C1246 1.355 . S
C1247 C1249 1.419 . S
C1248 C1246 1.415 . S
C1248 C1253 1.425 . S
C1248 C1255 1.409 . S
C1249 H1241 0.930 . S
C1249 C1247 1.419 . S
C1249 C1250 1.362 . S
C1250 H1242 0.930 . S
C1250 C1249 1.362 . S
C1250 C1253 1.409 . S
C1251 H1243 0.930 . S
C1251 C1252 1.355 . S
C1251 C1253 1.415 . S
C1252 C1251 1.355 . S
C1252 C1254 1.419 . S
C1253 C1248 1.425 . S
C1253 C1250 1.409 . S
C1253 C1251 1.415 . S
C1254 H1244 0.930 . S
C1254 C1252 1.419 . S
C1254 C1255 1.362 . S
C1255 H1245 0.930 . S
C1255 C1248 1.409 . S
C1255 C1254 1.362 . S
H1256 C1262 0.930 . S
H1257 C1265 0.930 . S
H1258 C1266 0.930 . S
H1259 C1267 0.930 . S
H1260 C1270 0.930 . S
H1261 C1271 0.930 . S
C1262 H1256 0.930 . S
C1262 C1263 1.355 . S
C1262 C1264 1.415 . S
C1263 C1262 1.355 . S
C1263 C1265 1.419 . S
C1264 C1262 1.415 . S
C1264 C1269 1.425 . S
C1264 C1271 1.409 . S
C1265 H1257 0.930 . S
C1265 C1263 1.419 . S
C1265 C1266 1.362 . S
C1266 H1258 0.930 . S
C1266 C1265 1.362 . S
C1266 C1269 1.409 . S
C1267 H1259 0.930 . S
C1267 C1268 1.355 . S
C1267 C1269 1.415 . S
C1268 C1267 1.355 . S
C1268 C1270 1.419 . S
C1269 C1264 1.425 . S
C1269 C1266 1.409 . S
C1269 C1267 1.415 . S
C1270 H1260 0.930 . S
C1270 C1268 1.419 . S
C1270 C1271 1.362 . S
C1271 H1261 0.930 . S
C1271 C1264 1.409 . S
C1271 C1270 1.362 . S
H1272 C1278 0.930 . S
H1273 C1281 0.930 . S
H1274 C1282 0.930 . S
H1275 C1283 0.930 . S
H1276 C1286 0.930 . S
H1277 C1287 0.930 . S
C1278 H1272 0.930 . S
C1278 C1279 1.355 . S
C1278 C1280 1.415 . S
C1279 C1278 1.355 . S
C1279 C1281 1.419 . S
C1280 C1278 1.415 . S
C1280 C1285 1.425 . S
C1280 C1287 1.409 . S
C1281 H1273 0.930 . S
C1281 C1279 1.419 . S
C1281 C1282 1.362 . S
C1282 H1274 0.930 . S
C1282 C1281 1.362 . S
C1282 C1285 1.409 . S
C1283 H1275 0.930 . S
C1283 C1284 1.355 . S
C1283 C1285 1.415 . S
C1284 C1283 1.355 . S
C1284 C1286 1.419 . S
C1285 C1280 1.425 . S
C1285 C1282 1.409 . S
C1285 C1283 1.415 . S
C1286 H1276 0.930 . S
C1286 C1284 1.419 . S
C1286 C1287 1.362 . S
C1287 H1277 0.930 . S
C1287 C1280 1.409 . S
C1287 C1286 1.362 . S
H1288 C1294 0.930 . S
H1289 C1297 0.930 . S
H1290 C1298 0.930 . S
H1291 C1299 0.930 . S
H1292 C1302 0.930 . S
H1293 C1303 0.930 . S
C1294 H1288 0.930 . S
C1294 C1295 1.355 . S
C1294 C1296 1.415 . S
C1295 C1294 1.355 . S
C1295 C1297 1.419 . S
C1296 C1294 1.415 . S
C1296 C1301 1.425 . S
C1296 C1303 1.409 . S
C1297 H1289 0.930 . S
C1297 C1295 1.419 . S
C1297 C1298 1.362 . S
C1298 H1290 0.930 . S
C1298 C1297 1.362 . S
C1298 C1301 1.409 . S
C1299 H1291 0.930 . S
C1299 C1300 1.355 . S
C1299 C1301 1.415 . S
C1300 C1299 1.355 . S
C1300 C1302 1.419 . S
C1301 C1296 1.425 . S
C1301 C1298 1.409 . S
C1301 C1299 1.415 . S
C1302 H1292 0.930 . S
C1302 C1300 1.419 . S
C1302 C1303 1.362 . S
C1303 H1293 0.930 . S
C1303 C1296 1.409 . S
C1303 C1302 1.362 . S
H1304 C1310 0.930 . S
H1305 C1313 0.930 . S
H1306 C1314 0.930 . S
H1307 C1315 0.930 . S
H1308 C1318 0.930 . S
H1309 C1319 0.930 . S
C1310 H1304 0.930 . S
C1310 C1311 1.355 . S
C1310 C1312 1.415 . S
C1311 C1310 1.355 . S
C1311 C1313 1.419 . S
C1312 C1310 1.415 . S
C1312 C1317 1.425 . S
C1312 C1319 1.409 . S
C1313 H1305 0.930 . S
C1313 C1311 1.419 . S
C1313 C1314 1.362 . S
C1314 H1306 0.930 . S
C1314 C1313 1.362 . S
C1314 C1317 1.409 . S
C1315 H1307 0.930 . S
C1315 C1316 1.355 . S
C1315 C1317 1.415 . S
C1316 C1315 1.355 . S
C1316 C1318 1.419 . S
C1317 C1312 1.425 . S
C1317 C1314 1.409 . S
C1317 C1315 1.415 . S
C1318 H1308 0.930 . S
C1318 C1316 1.419 . S
C1318 C1319 1.362 . S
C1319 H1309 0.930 . S
C1319 C1312 1.409 . S
C1319 C1318 1.362 . S
H1320 C1326 0.930 . S
H1321 C1329 0.930 . S
H1322 C1330 0.930 . S
H1323 C1331 0.930 . S
H1324 C1334 0.930 . S
H1325 C1335 0.930 . S
C1326 H1320 0.930 . S
C1326 C1327 1.355 . S
C1326 C1328 1.415 . S
C1327 C1326 1.355 . S
C1327 C1329 1.419 . S
C1328 C1326 1.415 . S
C1328 C1333 1.425 . S
C1328 C1335 1.409 . S
C1329 H1321 0.930 . S
C1329 C1327 1.419 . S
C1329 C1330 1.362 . S
C1330 H1322 0.930 . S
C1330 C1329 1.362 . S
C1330 C1333 1.409 . S
C1331 H1323 0.930 . S
C1331 C1332 1.355 . S
C1331 C1333 1.415 . S
C1332 C1331 1.355 . S
C1332 C1334 1.419 . S
C1333 C1328 1.425 . S
C1333 C1330 1.409 . S
C1333 C1331 1.415 . S
C1334 H1324 0.930 . S
C1334 C1332 1.419 . S
C1334 C1335 1.362 . S
C1335 H1325 0.930 . S
C1335 C1328 1.409 . S
C1335 C1334 1.362 . S
H1336 C1342 0.930 . S
H1337 C1345 0.930 . S
H1338 C1346 0.930 . S
H1339 C1347 0.930 . S
H1340 C1350 0.930 . S
H1341 C1351 0.930 . S
C1342 H1336 0.930 . S
C1342 C1343 1.355 . S
C1342 C1344 1.415 . S
C1343 C1342 1.355 . S
C1343 C1345 1.419 . S
C1344 C1342 1.415 . S
C1344 C1349 1.425 . S
C1344 C1351 1.409 . S
C1345 H1337 0.930 . S
C1345 C1343 1.419 . S
C1345 C1346 1.362 . S
C1346 H1338 0.930 . S
C1346 C1345 1.362 . S
C1346 C1349 1.409 . S
C1347 H1339 0.930 . S
C1347 C1348 1.355 . S
C1347 C1349 1.415 . S
C1348 C1347 1.355 . S
C1348 C1350 1.419 . S
C1349 C1344 1.425 . S
C1349 C1346 1.409 . S
C1349 C1347 1.415 . S
C1350 H1340 0.930 . S
C1350 C1348 1.419 . S
C1350 C1351 1.362 . S
C1351 H1341 0.930 . S
C1351 C1344 1.409 . S
C1351 C1350 1.362 . S
H1352 C1358 0.930 . S
H1353 C1361 0.930 . S
H1354 C1362 0.930 . S
H1355 C1363 0.930 . S
H1356 C1366 0.930 . S
H1357 C1367 0.930 . S
C1358 H1352 0.930 . S
C1358 C1359 1.355 . S
C1358 C1360 1.415 . S
C1359 C1358 1.355 . S
C1359 C1361 1.419 . S
C1360 C1358 1.415 . S
C1360 C1365 1.425 . S
C1360 C1367 1.409 . S
C1361 H1353 0.930 . S
C1361 C1359 1.419 . S
C1361 C1362 1.362 . S
C1362 H1354 0.930 . S
C1362 C1361 1.362 . S
C1362 C1365 1.409 . S
C1363 H1355 0.930 . S
C1363 C1364 1.355 . S
C1363 C1365 1.415 . S
C1364 C1363 1.355 . S
C1364 C1366 1.419 . S
C1365 C1360 1.425 . S
C1365 C1362 1.409 . S
C1365 C1363 1.415 . S
C1366 H1356 0.930 . S
C1366 C1364 1.419 . S
C1366 C1367 1.362 . S
C1367 H1357 0.930 . S
C1367 C1360 1.409 . S
C1367 C1366 1.362 . S
H1368 C1374 0.930 . S
H1369 C1377 0.930 . S
H1370 C1378 0.930 . S
H1371 C1379 0.930 . S
H1372 C1382 0.930 . S
H1373 C1383 0.930 . S
C1374 H1368 0.930 . S
C1374 C1375 1.355 . S
C1374 C1376 1.415 . S
C1375 C1374 1.355 . S
C1375 C1377 1.419 . S
C1376 C1374 1.415 . S
C1376 C1381 1.425 . S
C1376 C1383 1.409 . S
C1377 H1369 0.930 . S
C1377 C1375 1.419 . S
C1377 C1378 1.362 . S
C1378 H1370 0.930 . S
C1378 C1377 1.362 . S
C1378 C1381 1.409 . S
C1379 H1371 0.930 . S
C1379 C1380 1.355 . S
C1379 C1381 1.415 . S
C1380 C1379 1.355 . S
C1380 C1382 1.419 . S
C1381 C1376 1.425 . S
C1381 C1378 1.409 . S
C1381 C1379 1.415 . S
C1382 H1372 0.930 . S
C1382 C1380 1.419 . S
C1382 C1383 1.362 . S
C1383 H1373 0.930 . S
C1383 C1376 1.409 . S
C1383 C1382 1.362 . S
H1384 C1390 0.930 . S
H1385 C1393 0.930 . S
H1386 C1394 0.930 . S
H1387 C1395 0.930 . S
H1388 C1398 0.930 . S
H1389 C1399 0.930 . S
C1390 H1384 0.930 . S
C1390 C1391 1.355 . S
C1390 C1392 1.415 . S
C1391 C1390 1.355 . S
C1391 C1393 1.419 . S
C1392 C1390 1.415 . S
C1392 C1397 1.425 . S
C1392 C1399 1.409 . S
C1393 H1385 0.930 . S
C1393 C1391 1.419 . S
C1393 C1394 1.362 . S
C1394 H1386 0.930 . S
C1394 C1393 1.362 . S
C1394 C1397 1.409 . S
C1395 H1387 0.930 . S
C1395 C1396 1.355 . S
C1395 C1397 1.415 . S
C1396 C1395 1.355 . S
C1396 C1398 1.419 . S
C1397 C1392 1.425 . S
C1397 C1394 1.409 . S
C1397 C1395 1.415 . S
C1398 H1388 0.930 . S
C1398 C1396 1.419 . S
C1398 C1399 1.362 . S
C1399 H1389 0.930 . S
C1399 C1392 1.409 . S
C1399 C1398 1.362 . S
H1400 C1406 0.930 . S
H1401 C1409 0.930 . S
H1402 C1410 0.930 . S
H1403 C1411 0.930 . S
H1404 C1414 0.930 . S
H1405 C1415 0.930 . S
C1406 H1400 0.930 . S
C1406 C1407 1.355 . S
C1406 C1408 1.415 . S
C1407 C1406 1.355 . S
C1407 C1409 1.419 . S
C1408 C1406 1.415 . S
C1408 C1413 1.425 . S
C1408 C1415 1.409 . S
C1409 H1401 0.930 . S
C1409 C1407 1.419 . S
C1409 C1410 1.362 . S
C1410 H1402 0.930 . S
C1410 C1409 1.362 . S
C1410 C1413 1.409 . S
C1411 H1403 0.930 . S
C1411 C1412 1.355 . S
C1411 C1413 1.415 . S
C1412 C1411 1.355 . S
C1412 C1414 1.419 . S
C1413 C1408 1.425 . S
C1413 C1410 1.409 . S
C1413 C1411 1.415 . S
C1414 H1404 0.930 . S
C1414 C1412 1.419 . S
C1414 C1415 1.362 . S
C1415 H1405 0.930 . S
C1415 C1408 1.409 . S
C1415 C1414 1.362 . S
H1416 C1422 0.930 . S
H1417 C1425 0.930 . S
H1418 C1426 0.930 . S
H1419 C1427 0.930 . S
H1420 C1430 0.930 . S
H1421 C1431 0.930 . S
C1422 H1416 0.930 . S
C1422 C1423 1.355 . S
C1422 C1424 1.415 . S
C1423 C1422 1.355 . S
C1423 C1425 1.419 . S
C1424 C1422 1.415 . S
C1424 C1429 1.425 . S
C1424 C1431 1.409 . S
C1425 H1417 0.930 . S
C1425 C1423 1.419 . S
C1425 C1426 1.362 . S
C1426 H1418 0.930 . S
C1426 C1425 1.362 . S
C1426 C1429 1.409 . S
C1427 H1419 0.930 . S
C1427 C1428 1.355 . S
C1427 C1429 1.415 . S
C1428 C1427 1.355 . S
C1428 C1430 1.419 . S
C1429 C1424 1.425 . S
C1429 C1426 1.409 . S
C1429 C1427 1.415 . S
C1430 H1420 0.930 . S
C1430 C1428 1.419 . S
C1430 C1431 1.362 . S
C1431 H1421 0.930 . S
C1431 C1424 1.409 . S
C1431 C1430 1.362 . S
H1432 C1438 0.930 . S
H1433 C1441 0.930 . S
H1434 C1442 0.930 . S
H1435 C1443 0.930 1_554 S
H1436 C1446 0.930 . S
H1437 C1447 0.930 . S
C1438 H1432 0.930 . S
C1438 C1439 1.355 . S
C1438 C1440 1.415 . S
C1439 C1438 1.355 . S
C1439 C1441 1.419 . S
C1440 C1438 1.415 . S
C1440 C1445 1.425 . S
C1440 C1447 1.409 . S
C1441 H1433 0.930 . S
C1441 C1439 1.419 . S
C1441 C1442 1.362 . S
C1442 H1434 0.930 . S
C1442 C1441 1.362 . S
C1442 C1445 1.409 . S
C1443 H1435 0.930 1_556 S
C1443 C1444 1.355 . S
C1443 C1445 1.415 . S
C1444 C1443 1.355 . S
C1444 C1446 1.419 . S
C1445 C1440 1.425 . S
C1445 C1442 1.409 . S
C1445 C1443 1.415 . S
C1446 H1436 0.930 . S
C1446 C1444 1.419 . S
C1446 C1447 1.362 . S
C1447 H1437 0.930 . S
C1447 C1440 1.409 . S
C1447 C1446 1.362 . S
H1448 C1454 0.930 . S
H1449 C1457 0.930 . S
H1450 C1458 0.930 . S
H1451 C1459 0.930 . S
H1452 C1462 0.930 . S
H1453 C1463 0.930 . S
C1454 H1448 0.930 . S
C1454 C1455 1.355 . S
C1454 C1456 1.415 . S
C1455 C1454 1.355 . S
C1455 C1457 1.419 . S
C1456 C1454 1.415 . S
C1456 C1461 1.425 . S
C1456 C1463 1.409 . S
C1457 H1449 0.930 . S
C1457 C1455 1.419 . S
C1457 C1458 1.362 . S
C1458 H1450 0.930 . S
C1458 C1457 1.362 . S
C1458 C1461 1.409 . S
C1459 H1451 0.930 . S
C1459 C1460 1.355 . S
C1459 C1461 1.415 . S
C1460 C1459 1.355 . S
C1460 C1462 1.419 . S
C1461 C1456 1.425 . S
C1461 C1458 1.409 . S
C1461 C1459 1.415 . S
C1462 H1452 0.930 . S
C1462 C1460 1.419 . S
C1462 C1463 1.362 . S
C1463 H1453 0.930 . S
C1463 C1456 1.409 . S
C1463 C1462 1.362 . S
H1464 C1470 0.930 . S
H1465 C1473 0.930 . S
H1466 C1474 0.930 . S
H1467 C1475 0.930 . S
H1468 C1478 0.930 . S
H1469 C1479 0.930 . S
C1470 H1464 0.930 . S
C1470 C1471 1.355 . S
C1470 C1472 1.415 . S
C1471 C1470 1.355 . S
C1471 C1473 1.419 . S
C1472 C1470 1.415 . S
C1472 C1477 1.425 . S
C1472 C1479 1.409 . S
C1473 H1465 0.930 . S
C1473 C1471 1.419 . S
C1473 C1474 1.362 . S
C1474 H1466 0.930 . S
C1474 C1473 1.362 . S
C1474 C1477 1.409 . S
C1475 H1467 0.930 . S
C1475 C1476 1.355 . S
C1475 C1477 1.415 . S
C1476 C1475 1.355 . S
C1476 C1478 1.419 . S
C1477 C1472 1.425 . S
C1477 C1474 1.409 . S
C1477 C1475 1.415 . S
C1478 H1468 0.930 . S
C1478 C1476 1.419 . S
C1478 C1479 1.362 . S
C1479 H1469 0.930 . S
C1479 C1472 1.409 . S
C1479 C1478 1.362 . S
H1480 C1486 0.930 . S
H1481 C1489 0.930 . S
H1482 C1490 0.930 . S
H1483 C1491 0.930 . S
H1484 C1494 0.930 . S
H1485 C1495 0.930 . S
C1486 H1480 0.930 . S
C1486 C1487 1.355 . S
C1486 C1488 1.415 . S
C1487 C1486 1.355 . S
C1487 C1489 1.419 . S
C1488 C1486 1.415 . S
C1488 C1493 1.425 . S
C1488 C1495 1.409 . S
C1489 H1481 0.930 . S
C1489 C1487 1.419 . S
C1489 C1490 1.362 . S
C1490 H1482 0.930 . S
C1490 C1489 1.362 . S
C1490 C1493 1.409 . S
C1491 H1483 0.930 . S
C1491 C1492 1.355 . S
C1491 C1493 1.415 . S
C1492 C1491 1.355 . S
C1492 C1494 1.419 . S
C1493 C1488 1.425 . S
C1493 C1490 1.409 . S
C1493 C1491 1.415 . S
C1494 H1484 0.930 . S
C1494 C1492 1.419 . S
C1494 C1495 1.362 . S
C1495 H1485 0.930 . S
C1495 C1488 1.409 . S
C1495 C1494 1.362 . S
H1496 C1502 0.930 1_565 S
H1497 C1505 0.930 . S
H1498 C1506 0.930 . S
H1499 C1507 0.930 . S
H1500 C1510 0.930 . S
H1501 C1511 0.930 1_565 S
C1502 H1496 0.930 1_545 S
C1502 C1503 1.355 . S
C1502 C1504 1.415 . S
C1503 C1502 1.355 . S
C1503 C1505 1.419 . S
C1504 C1502 1.415 . S
C1504 C1509 1.425 . S
C1504 C1511 1.409 . S
C1505 H1497 0.930 . S
C1505 C1503 1.419 . S
C1505 C1506 1.362 . S
C1506 H1498 0.930 . S
C1506 C1505 1.362 . S
C1506 C1509 1.409 . S
C1507 H1499 0.930 . S
C1507 C1508 1.355 . S
C1507 C1509 1.415 . S
C1508 C1507 1.355 . S
C1508 C1510 1.419 . S
C1509 C1504 1.425 . S
C1509 C1506 1.409 . S
C1509 C1507 1.415 . S
C1510 H1500 0.930 . S
C1510 C1508 1.419 . S
C1510 C1511 1.362 . S
C1511 H1501 0.930 1_545 S
C1511 C1504 1.409 . S
C1511 C1510 1.362 . S
H1512 C1518 0.930 . S
H1513 C1521 0.930 . S
H1514 C1522 0.930 . S
H1515 C1523 0.930 . S
H1516 C1526 0.930 . S
H1517 C1527 0.930 . S
C1518 H1512 0.930 . S
C1518 C1519 1.355 . S
C1518 C1520 1.415 . S
C1519 C1518 1.355 . S
C1519 C1521 1.419 . S
C1520 C1518 1.415 . S
C1520 C1525 1.425 . S
C1520 C1527 1.409 . S
C1521 H1513 0.930 . S
C1521 C1519 1.419 . S
C1521 C1522 1.362 . S
C1522 H1514 0.930 . S
C1522 C1521 1.362 . S
C1522 C1525 1.409 . S
C1523 H1515 0.930 . S
C1523 C1524 1.355 . S
C1523 C1525 1.415 . S
C1524 C1523 1.355 . S
C1524 C1526 1.419 . S
C1525 C1520 1.425 . S
C1525 C1522 1.409 . S
C1525 C1523 1.415 . S
C1526 H1516 0.930 . S
C1526 C1524 1.419 . S
C1526 C1527 1.362 . S
C1527 H1517 0.930 . S
C1527 C1520 1.409 . S
C1527 C1526 1.362 . S
H1528 C1534 0.930 . S
H1529 C1537 0.930 . S
H1530 C1538 0.930 . S
H1531 C1539 0.930 1_565 S
H1532 C1542 0.930 . S
H1533 C1543 0.930 . S
C1534 H1528 0.930 . S
C1534 C1535 1.355 . S
C1534 C1536 1.415 . S
C1535 C1534 1.355 . S
C1535 C1537 1.419 1_545 S
C1536 C1534 1.415 . S
C1536 C1541 1.425 . S
C1536 C1543 1.409 . S
C1537 H1529 0.930 . S
C1537 C1535 1.419 1_565 S
C1537 C1538 1.362 . S
C1538 H1530 0.930 . S
C1538 C1537 1.362 . S
C1538 C1541 1.409 1_565 S
C1539 H1531 0.930 1_545 S
C1539 C1540 1.355 . S
C1539 C1541 1.415 . S
C1540 C1539 1.355 . S
C1540 C1542 1.419 . S
C1541 C1536 1.425 . S
C1541 C1538 1.409 1_545 S
C1541 C1539 1.415 . S
C1542 H1532 0.930 . S
C1542 C1540 1.419 . S
C1542 C1543 1.362 . S
C1543 H1533 0.930 . S
C1543 C1536 1.409 . S
C1543 C1542 1.362 . S
H1544 C1550 0.930 . S
H1545 C1553 0.930 . S
H1546 C1554 0.930 . S
H1547 C1555 0.930 . S
H1548 C1558 0.930 . S
H1549 C1559 0.930 . S
C1550 H1544 0.930 . S
C1550 C1551 1.355 . S
C1550 C1552 1.415 . S
C1551 C1550 1.355 . S
C1551 C1553 1.419 . S
C1552 C1550 1.415 . S
C1552 C1557 1.425 . S
C1552 C1559 1.409 . S
C1553 H1545 0.930 . S
C1553 C1551 1.419 . S
C1553 C1554 1.362 . S
C1554 H1546 0.930 . S
C1554 C1553 1.362 . S
C1554 C1557 1.409 . S
C1555 H1547 0.930 . S
C1555 C1556 1.355 . S
C1555 C1557 1.415 . S
C1556 C1555 1.355 . S
C1556 C1558 1.419 . S
C1557 C1552 1.425 . S
C1557 C1554 1.409 . S
C1557 C1555 1.415 . S
C1558 H1548 0.930 . S
C1558 C1556 1.419 . S
C1558 C1559 1.362 . S
C1559 H1549 0.930 . S
C1559 C1552 1.409 . S
C1559 C1558 1.362 . S
H1560 C1566 0.930 . S
H1561 C1569 0.930 . S
H1562 C1570 0.930 . S
H1563 C1571 0.930 . S
H1564 C1574 0.930 . S
H1565 C1575 0.930 1_545 S
C1566 H1560 0.930 . S
C1566 C1567 1.356 1_545 S
C1566 C1568 1.415 1_545 S
C1567 C1566 1.356 1_565 S
C1567 C1569 1.424 . S
C1568 C1566 1.415 1_565 S
C1568 C1573 1.425 . S
C1568 C1575 1.409 . S
C1569 H1561 0.930 . S
C1569 C1567 1.424 . S
C1569 C1570 1.362 . S
C1570 H1562 0.930 . S
C1570 C1569 1.362 . S
C1570 C1573 1.409 . S
C1571 H1563 0.930 . S
C1571 C1572 1.355 . S
C1571 C1573 1.415 . S
C1572 C1571 1.355 . S
C1572 C1574 1.419 . S
C1573 C1568 1.425 . S
C1573 C1570 1.409 . S
C1573 C1571 1.415 . S
C1574 H1564 0.930 . S
C1574 C1572 1.419 . S
C1574 C1575 1.362 . S
C1575 H1565 0.930 1_565 S
C1575 C1568 1.409 . S
C1575 C1574 1.362 . S
H1576 C1582 0.930 . S
H1577 C1585 0.930 . S
H1578 C1586 0.930 . S
H1579 C1587 0.930 . S
H1580 C1590 0.930 . S
H1581 C1591 0.930 . S
C1582 H1576 0.930 . S
C1582 C1583 1.355 . S
C1582 C1584 1.415 . S
C1583 C1582 1.355 . S
C1583 C1585 1.419 . S
C1584 C1582 1.415 . S
C1584 C1589 1.425 . S
C1584 C1591 1.409 . S
C1585 H1577 0.930 . S
C1585 C1583 1.419 . S
C1585 C1586 1.362 . S
C1586 H1578 0.930 . S
C1586 C1585 1.362 . S
C1586 C1589 1.409 . S
C1587 H1579 0.930 . S
C1587 C1588 1.355 . S
C1587 C1589 1.415 . S
C1588 C1587 1.355 . S
C1588 C1590 1.419 . S
C1589 C1584 1.425 . S
C1589 C1586 1.409 . S
C1589 C1587 1.415 . S
C1590 H1580 0.930 . S
C1590 C1588 1.419 . S
C1590 C1591 1.362 . S
C1591 H1581 0.930 . S
C1591 C1584 1.409 . S
C1591 C1590 1.362 . S
H1592 C1598 0.930 . S
H1593 C1601 0.930 . S
H1594 C1602 0.930 . S
H1595 C1603 0.930 . S
H1596 C1606 0.930 1_554 S
H1597 C1607 0.930 . S
C1598 H1592 0.930 . S
C1598 C1599 1.355 . S
C1598 C1600 1.415 . S
C1599 C1598 1.355 . S
C1599 C1601 1.419 1_554 S
C1600 C1598 1.415 . S
C1600 C1605 1.425 1_554 S
C1600 C1607 1.409 . S
C1601 H1593 0.930 . S
C1601 C1599 1.419 1_556 S
C1601 C1602 1.362 . S
C1602 H1594 0.930 . S
C1602 C1601 1.362 . S
C1602 C1605 1.409 . S
C1603 H1595 0.930 . S
C1603 C1604 1.355 . S
C1603 C1605 1.415 . S
C1604 C1603 1.355 . S
C1604 C1606 1.419 . S
C1605 C1600 1.425 1_556 S
C1605 C1602 1.409 . S
C1605 C1603 1.415 . S
C1606 H1596 0.930 1_556 S
C1606 C1604 1.419 . S
C1606 C1607 1.362 1_556 S
C1607 H1597 0.930 . S
C1607 C1600 1.409 . S
C1607 C1606 1.362 1_554 S
H1608 C1614 0.930 . S
H1609 C1617 0.920 1_556 S
H1610 C1618 0.930 1_556 S
H1611 C1619 0.900 1_556 S
H1612 C1622 0.930 . S
H1613 C1623 0.930 . S
C1614 H1608 0.930 . S
C1614 C1615 1.355 . S
C1614 C1616 1.415 . S
C1615 C1614 1.355 . S
C1615 C1617 1.419 . S
C1616 C1614 1.415 . S
C1616 C1621 1.425 . S
C1616 C1623 1.409 . S
C1617 H1609 0.920 1_554 S
C1617 C1615 1.419 . S
C1617 C1618 1.362 . S
C1618 H1610 0.930 1_554 S
C1618 C1617 1.362 . S
C1618 C1621 1.409 . S
C1619 H1611 0.900 1_554 S
C1619 C1620 1.355 . S
C1619 C1621 1.415 . S
C1620 C1619 1.355 . S
C1620 C1622 1.419 . S
C1621 C1616 1.425 . S
C1621 C1618 1.409 . S
C1621 C1619 1.415 . S
C1622 H1612 0.930 . S
C1622 C1620 1.419 . S
C1622 C1623 1.362 . S
C1623 H1613 0.930 . S
C1623 C1616 1.409 . S
C1623 C1622 1.362 . S
H1624 C1630 0.930 . S
H1625 C1633 0.930 . S
H1626 C1634 0.930 . S
H1627 C1635 0.930 . S
H1628 C1638 0.930 . S
H1629 C1639 0.930 . S
C1630 H1624 0.930 . S
C1630 C1631 1.355 . S
C1630 C1632 1.415 . S
C1631 C1630 1.355 . S
C1631 C1633 1.419 . S
C1632 C1630 1.415 . S
C1632 C1637 1.425 . S
C1632 C1639 1.409 . S
C1633 H1625 0.930 . S
C1633 C1631 1.419 . S
C1633 C1634 1.362 . S
C1634 H1626 0.930 . S
C1634 C1633 1.362 . S
C1634 C1637 1.409 . S
C1635 H1627 0.930 . S
C1635 C1636 1.355 . S
C1635 C1637 1.415 . S
C1636 C1635 1.355 . S
C1636 C1638 1.419 . S
C1637 C1632 1.425 . S
C1637 C1634 1.409 . S
C1637 C1635 1.415 . S
C1638 H1628 0.930 . S
C1638 C1636 1.419 . S
C1638 C1639 1.362 . S
C1639 H1629 0.930 . S
C1639 C1632 1.409 . S
C1639 C1638 1.362 . S
H1640 C1646 0.930 . S
H1641 C1649 0.930 . S
H1642 C1650 0.930 . S
H1643 C1651 0.930 . S
H1644 C1654 0.930 . S
H1645 C1655 0.930 . S
C1646 H1640 0.930 . S
C1646 C1647 1.355 . S
C1646 C1648 1.415 . S
C1647 C1646 1.355 . S
C1647 C1649 1.419 . S
C1648 C1646 1.415 . S
C1648 C1653 1.425 . S
C1648 C1655 1.409 . S
C1649 H1641 0.930 . S
C1649 C1647 1.419 . S
C1649 C1650 1.362 . S
C1650 H1642 0.930 . S
C1650 C1649 1.362 . S
C1650 C1653 1.409 . S
C1651 H1643 0.930 . S
C1651 C1652 1.355 . S
C1651 C1653 1.415 . S
C1652 C1651 1.355 . S
C1652 C1654 1.419 . S
C1653 C1648 1.425 . S
C1653 C1650 1.409 . S
C1653 C1651 1.415 . S
C1654 H1644 0.930 . S
C1654 C1652 1.419 . S
C1654 C1655 1.362 . S
C1655 H1645 0.930 . S
C1655 C1648 1.409 . S
C1655 C1654 1.362 . S
H1656 C1662 0.930 . S
H1657 C1665 0.930 . S
H1658 C1666 0.930 . S
H1659 C1667 0.930 . S
H1660 C1670 0.930 . S
H1661 C1671 0.923 1_545 S
C1662 H1656 0.930 . S
C1662 C1663 1.355 . S
C1662 C1664 1.449 . S
C1663 C1662 1.355 . S
C1663 C1665 1.419 . S
C1664 C1662 1.449 . S
C1664 C1669 1.402 1_545 S
C1664 C1671 1.396 1_545 S
C1665 H1657 0.930 . S
C1665 C1663 1.419 . S
C1665 C1666 1.362 1_545 S
C1666 H1658 0.930 . S
C1666 C1665 1.362 1_565 S
C1666 C1669 1.409 . S
C1667 H1659 0.930 . S
C1667 C1668 1.355 . S
C1667 C1669 1.415 . S
C1668 C1667 1.355 . S
C1668 C1670 1.419 . S
C1669 C1664 1.402 1_565 S
C1669 C1666 1.409 . S
C1669 C1667 1.415 . S
C1670 H1660 0.930 . S
C1670 C1668 1.419 . S
C1670 C1671 1.373 . S
C1671 H1661 0.923 1_565 S
C1671 C1664 1.396 1_565 S
C1671 C1670 1.373 . S
H1672 C1678 0.930 . S
H1673 C1681 0.930 . S
H1674 C1682 0.930 . S
H1675 C1683 0.930 . S
H1676 C1686 0.930 . S
H1677 C1687 0.930 . S
C1678 H1672 0.930 . S
C1678 C1679 1.355 . S
C1678 C1680 1.415 . S
C1679 C1678 1.355 . S
C1679 C1681 1.419 . S
C1680 C1678 1.415 . S
C1680 C1685 1.425 . S
C1680 C1687 1.409 . S
C1681 H1673 0.930 . S
C1681 C1679 1.419 . S
C1681 C1682 1.362 . S
C1682 H1674 0.930 . S
C1682 C1681 1.362 . S
C1682 C1685 1.409 . S
C1683 H1675 0.930 . S
C1683 C1684 1.355 . S
C1683 C1685 1.415 . S
C1684 C1683 1.355 . S
C1684 C1686 1.419 . S
C1685 C1680 1.425 . S
C1685 C1682 1.409 . S
C1685 C1683 1.415 . S
C1686 H1676 0.930 . S
C1686 C1684 1.419 . S
C1686 C1687 1.362 . S
C1687 H1677 0.930 . S
C1687 C1680 1.409 . S
C1687 C1686 1.362 . S
H1688 C1694 0.930 . S
H1689 C1697 0.930 . S
H1690 C1698 0.930 . S
H1691 C1699 0.930 . S
H1692 C1702 0.930 . S
H1693 C1703 0.930 . S
C1694 H1688 0.930 . S
C1694 C1695 1.355 . S
C1694 C1696 1.415 . S
C1695 C1694 1.355 . S
C1695 C1697 1.419 . S
C1696 C1694 1.415 . S
C1696 C1701 1.425 . S
C1696 C1703 1.409 . S
C1697 H1689 0.930 . S
C1697 C1695 1.419 . S
C1697 C1698 1.362 . S
C1698 H1690 0.930 . S
C1698 C1697 1.362 . S
C1698 C1701 1.409 . S
C1699 H1691 0.930 . S
C1699 C1700 1.355 . S
C1699 C1701 1.415 . S
C1700 C1699 1.355 . S
C1700 C1702 1.419 . S
C1701 C1696 1.425 . S
C1701 C1698 1.409 . S
C1701 C1699 1.415 . S
C1702 H1692 0.930 . S
C1702 C1700 1.419 . S
C1702 C1703 1.362 . S
C1703 H1693 0.930 . S
C1703 C1696 1.409 . S
C1703 C1702 1.362 . S
H1704 C1710 0.930 . S
H1705 C1713 0.930 . S
H1706 C1714 0.930 . S
H1707 C1715 0.930 . S
H1708 C1718 0.930 . S
H1709 C1719 0.930 . S
C1710 H1704 0.930 . S
C1710 C1711 1.355 . S
C1710 C1712 1.415 . S
C1711 C1710 1.355 . S
C1711 C1713 1.419 . S
C1712 C1710 1.415 . S
C1712 C1717 1.425 . S
C1712 C1719 1.409 . S
C1713 H1705 0.930 . S
C1713 C1711 1.419 . S
C1713 C1714 1.362 . S
C1714 H1706 0.930 . S
C1714 C1713 1.362 . S
C1714 C1717 1.409 . S
C1715 H1707 0.930 . S
C1715 C1716 1.355 . S
C1715 C1717 1.415 . S
C1716 C1715 1.355 . S
C1716 C1718 1.419 . S
C1717 C1712 1.425 . S
C1717 C1714 1.409 . S
C1717 C1715 1.415 . S
C1718 H1708 0.930 . S
C1718 C1716 1.419 . S
C1718 C1719 1.362 . S
C1719 H1709 0.930 . S
C1719 C1712 1.409 . S
C1719 C1718 1.362 . S
H1720 C1726 0.930 . S
H1721 C1729 0.930 . S
H1722 C1730 0.930 . S
H1723 C1731 0.930 . S
H1724 C1734 0.930 . S
H1725 C1735 0.930 . S
C1726 H1720 0.930 . S
C1726 C1727 1.355 . S
C1726 C1728 1.415 . S
C1727 C1726 1.355 . S
C1727 C1729 1.419 . S
C1728 C1726 1.415 . S
C1728 C1733 1.425 . S
C1728 C1735 1.409 . S
C1729 H1721 0.930 . S
C1729 C1727 1.419 . S
C1729 C1730 1.362 . S
C1730 H1722 0.930 . S
C1730 C1729 1.362 . S
C1730 C1733 1.409 . S
C1731 H1723 0.930 . S
C1731 C1732 1.355 . S
C1731 C1733 1.415 . S
C1732 C1731 1.355 . S
C1732 C1734 1.419 . S
C1733 C1728 1.425 . S
C1733 C1730 1.409 . S
C1733 C1731 1.415 . S
C1734 H1724 0.930 . S
C1734 C1732 1.419 . S
C1734 C1735 1.362 . S
C1735 H1725 0.930 . S
C1735 C1728 1.409 . S
C1735 C1734 1.362 . S
H1736 C1742 0.930 . S
H1737 C1745 0.930 . S
H1738 C1746 0.930 . S
H1739 C1747 0.930 . S
H1740 C1750 0.930 . S
H1741 C1751 0.930 . S
C1742 H1736 0.930 . S
C1742 C1743 1.355 . S
C1742 C1744 1.415 . S
C1743 C1742 1.355 . S
C1743 C1745 1.419 . S
C1744 C1742 1.415 . S
C1744 C1749 1.425 . S
C1744 C1751 1.409 . S
C1745 H1737 0.930 . S
C1745 C1743 1.419 . S
C1745 C1746 1.362 . S
C1746 H1738 0.930 . S
C1746 C1745 1.362 . S
C1746 C1749 1.409 . S
C1747 H1739 0.930 . S
C1747 C1748 1.355 . S
C1747 C1749 1.415 . S
C1748 C1747 1.355 . S
C1748 C1750 1.419 . S
C1749 C1744 1.425 . S
C1749 C1746 1.409 . S
C1749 C1747 1.415 . S
C1750 H1740 0.930 . S
C1750 C1748 1.419 . S
C1750 C1751 1.362 . S
C1751 H1741 0.930 . S
C1751 C1744 1.409 . S
C1751 C1750 1.362 . S
H1752 C1758 0.930 . S
H1753 C1761 0.953 . S
H1754 C1762 0.930 . S
H1755 C1763 0.930 . S
H1756 C1766 0.930 . S
H1757 C1767 0.930 . S
C1758 H1752 0.930 . S
C1758 C1759 1.355 . S
C1758 C1760 1.415 . S
C1759 C1758 1.355 . S
C1759 C1761 1.389 1_556 S
C1760 C1758 1.415 . S
C1760 C1765 1.425 . S
C1760 C1767 1.409 . S
C1761 H1753 0.953 . S
C1761 C1759 1.389 1_554 S
C1761 C1762 1.370 . S
C1762 H1754 0.930 . S
C1762 C1761 1.370 . S
C1762 C1765 1.409 1_554 S
C1763 H1755 0.930 . S
C1763 C1764 1.355 1_554 S
C1763 C1765 1.415 1_554 S
C1764 C1763 1.355 1_556 S
C1764 C1766 1.419 . S
C1765 C1760 1.425 . S
C1765 C1762 1.409 1_556 S
C1765 C1763 1.415 1_556 S
C1766 H1756 0.930 . S
C1766 C1764 1.419 . S
C1766 C1767 1.362 . S
C1767 H1757 0.930 . S
C1767 C1760 1.409 . S
C1767 C1766 1.362 . S
H1768 C1774 0.930 . S
H1769 C1777 0.930 . S
H1770 C1778 0.930 . S
H1771 C1779 0.930 . S
H1772 C1782 0.930 . S
H1773 C1783 0.930 . S
C1774 H1768 0.930 . S
C1774 C1775 1.355 . S
C1774 C1776 1.415 1_455 S
C1775 C1774 1.355 . S
C1775 C1777 1.419 . S
C1776 C1774 1.415 1_655 S
C1776 C1781 1.425 . S
C1776 C1783 1.409 . S
C1777 H1769 0.930 . S
C1777 C1775 1.419 . S
C1777 C1778 1.362 1_455 S
C1778 H1770 0.930 . S
C1778 C1777 1.362 1_655 S
C1778 C1781 1.409 . S
C1779 H1771 0.930 . S
C1779 C1780 1.355 . S
C1779 C1781 1.415 . S
C1780 C1779 1.355 . S
C1780 C1782 1.419 . S
C1781 C1776 1.425 . S
C1781 C1778 1.409 . S
C1781 C1779 1.415 . S
C1782 H1772 0.930 . S
C1782 C1780 1.419 . S
C1782 C1783 1.362 . S
C1783 H1773 0.930 . S
C1783 C1776 1.409 . S
C1783 C1782 1.362 . S
H1784 C1790 0.930 . S
H1785 C1793 0.930 . S
H1786 C1794 0.930 . S
H1787 C1795 0.930 . S
H1788 C1798 0.930 . S
H1789 C1799 0.930 . S
C1790 H1784 0.930 . S
C1790 C1791 1.355 . S
C1790 C1792 1.415 . S
C1791 C1790 1.355 . S
C1791 C1793 1.419 . S
C1792 C1790 1.415 . S
C1792 C1797 1.425 . S
C1792 C1799 1.409 . S
C1793 H1785 0.930 . S
C1793 C1791 1.419 . S
C1793 C1794 1.362 . S
C1794 H1786 0.930 . S
C1794 C1793 1.362 . S
C1794 C1797 1.409 . S
C1795 H1787 0.930 . S
C1795 C1796 1.355 . S
C1795 C1797 1.415 . S
C1796 C1795 1.355 . S
C1796 C1798 1.419 . S
C1797 C1792 1.425 . S
C1797 C1794 1.409 . S
C1797 C1795 1.415 . S
C1798 H1788 0.930 . S
C1798 C1796 1.419 . S
C1798 C1799 1.362 . S
C1799 H1789 0.930 . S
C1799 C1792 1.409 . S
C1799 C1798 1.362 . S
H1800 C1806 0.930 . S
H1801 C1809 0.930 . S
H1802 C1810 0.930 . S
H1803 C1811 0.930 . S
H1804 C1814 0.930 . S
H1805 C1815 0.930 . S
C1806 H1800 0.930 . S
C1806 C1807 1.355 . S
C1806 C1808 1.415 . S
C1807 C1806 1.355 . S
C1807 C1809 1.419 . S
C1808 C1806 1.415 . S
C1808 C1813 1.425 . S
C1808 C1815 1.409 1_455 S
C1809 H1801 0.930 . S
C1809 C1807 1.419 . S
C1809 C1810 1.362 . S
C1810 H1802 0.930 . S
C1810 C1809 1.362 . S
C1810 C1813 1.409 . S
C1811 H1803 0.930 . S
C1811 C1812 1.355 . S
C1811 C1813 1.415 1_655 S
C1812 C1811 1.355 . S
C1812 C1814 1.419 . S
C1813 C1808 1.425 . S
C1813 C1810 1.409 . S
C1813 C1811 1.415 1_455 S
C1814 H1804 0.930 . S
C1814 C1812 1.419 . S
C1814 C1815 1.362 . S
C1815 H1805 0.930 . S
C1815 C1808 1.409 1_655 S
C1815 C1814 1.362 . S
H1816 C1822 0.930 . S
H1817 C1825 0.930 . S
H1818 C1826 0.930 . S
H1819 C1827 0.930 . S
H1820 C1830 0.930 . S
H1821 C1831 0.930 . S
C1822 H1816 0.930 . S
C1822 C1823 1.355 1_455 S
C1822 C1824 1.415 . S
C1823 C1822 1.355 1_655 S
C1823 C1825 1.419 . S
C1824 C1822 1.415 . S
C1824 C1829 1.425 . S
C1824 C1831 1.409 . S
C1825 H1817 0.930 . S
C1825 C1823 1.419 . S
C1825 C1826 1.362 . S
C1826 H1818 0.930 . S
C1826 C1825 1.362 . S
C1826 C1829 1.409 1_655 S
C1827 H1819 0.930 . S
C1827 C1828 1.355 . S
C1827 C1829 1.415 . S
C1828 C1827 1.355 . S
C1828 C1830 1.419 . S
C1829 C1824 1.425 . S
C1829 C1826 1.409 1_455 S
C1829 C1827 1.415 . S
C1830 H1820 0.930 . S
C1830 C1828 1.419 . S
C1830 C1831 1.362 . S
C1831 H1821 0.930 . S
C1831 C1824 1.409 . S
C1831 C1830 1.362 . S
H1832 C1838 0.930 . S
H1833 C1841 0.930 . S
H1834 C1842 0.930 . S
H1835 C1843 0.930 . S
H1836 C1846 0.930 . S
H1837 C1847 0.930 . S
C1838 H1832 0.930 . S
C1838 C1839 1.355 . S
C1838 C1840 1.415 . S
C1839 C1838 1.355 . S
C1839 C1841 1.419 . S
C1840 C1838 1.415 . S
C1840 C1845 1.425 . S
C1840 C1847 1.409 . S
C1841 H1833 0.930 . S
C1841 C1839 1.419 . S
C1841 C1842 1.362 . S
C1842 H1834 0.930 . S
C1842 C1841 1.362 . S
C1842 C1845 1.409 . S
C1843 H1835 0.930 . S
C1843 C1844 1.355 . S
C1843 C1845 1.415 . S
C1844 C1843 1.355 . S
C1844 C1846 1.419 . S
C1845 C1840 1.425 . S
C1845 C1842 1.409 . S
C1845 C1843 1.415 . S
C1846 H1836 0.930 . S
C1846 C1844 1.419 . S
C1846 C1847 1.362 . S
C1847 H1837 0.930 . S
C1847 C1840 1.409 . S
C1847 C1846 1.362 . S
H1848 C1854 0.930 . S
H1849 C1857 0.930 . S
H1850 C1858 0.930 . S
H1851 C1859 0.930 . S
H1852 C1862 0.930 . S
H1853 C1863 0.930 . S
C1854 H1848 0.930 . S
C1854 C1855 1.355 . S
C1854 C1856 1.415 . S
C1855 C1854 1.355 . S
C1855 C1857 1.419 . S
C1856 C1854 1.415 . S
C1856 C1861 1.425 . S
C1856 C1863 1.409 . S
C1857 H1849 0.930 . S
C1857 C1855 1.419 . S
C1857 C1858 1.362 . S
C1858 H1850 0.930 . S
C1858 C1857 1.362 . S
C1858 C1861 1.409 . S
C1859 H1851 0.930 . S
C1859 C1860 1.355 . S
C1859 C1861 1.415 . S
C1860 C1859 1.355 . S
C1860 C1862 1.419 . S
C1861 C1856 1.425 . S
C1861 C1858 1.409 . S
C1861 C1859 1.415 . S
C1862 H1852 0.930 . S
C1862 C1860 1.419 . S
C1862 C1863 1.362 . S
C1863 H1853 0.930 . S
C1863 C1856 1.409 . S
C1863 C1862 1.362 . S
H1864 C1870 0.930 . S
H1865 C1873 0.930 . S
H1866 C1874 0.930 . S
H1867 C1875 0.930 . S
H1868 C1878 0.930 . S
H1869 C1879 0.930 . S
C1870 H1864 0.930 . S
C1870 C1871 1.355 . S
C1870 C1872 1.415 . S
C1871 C1870 1.355 . S
C1871 C1873 1.419 . S
C1872 C1870 1.415 . S
C1872 C1877 1.425 . S
C1872 C1879 1.409 . S
C1873 H1865 0.930 . S
C1873 C1871 1.419 . S
C1873 C1874 1.362 . S
C1874 H1866 0.930 . S
C1874 C1873 1.362 . S
C1874 C1877 1.409 . S
C1875 H1867 0.930 . S
C1875 C1876 1.355 . S
C1875 C1877 1.415 . S
C1876 C1875 1.355 . S
C1876 C1878 1.419 . S
C1877 C1872 1.425 . S
C1877 C1874 1.409 . S
C1877 C1875 1.415 . S
C1878 H1868 0.930 . S
C1878 C1876 1.419 . S
C1878 C1879 1.362 . S
C1879 H1869 0.930 . S
C1879 C1872 1.409 . S
C1879 C1878 1.362 . S
H1880 C1886 0.930 . S
H1881 C1889 0.930 . S
H1882 C1890 0.930 . S
H1883 C1891 0.930 . S
H1884 C1894 0.930 . S
H1885 C1895 0.930 . S
C1886 H1880 0.930 . S
C1886 C1887 1.355 . S
C1886 C1888 1.415 . S
C1887 C1886 1.355 . S
C1887 C1889 1.419 . S
C1888 C1886 1.415 . S
C1888 C1893 1.425 . S
C1888 C1895 1.409 . S
C1889 H1881 0.930 . S
C1889 C1887 1.419 . S
C1889 C1890 1.362 . S
C1890 H1882 0.930 . S
C1890 C1889 1.362 . S
C1890 C1893 1.409 . S
C1891 H1883 0.930 . S
C1891 C1892 1.355 . S
C1891 C1893 1.415 . S
C1892 C1891 1.355 . S
C1892 C1894 1.419 . S
C1893 C1888 1.425 . S
C1893 C1890 1.409 . S
C1893 C1891 1.415 . S
C1894 H1884 0.930 . S
C1894 C1892 1.419 . S
C1894 C1895 1.362 . S
C1895 H1885 0.930 . S
C1895 C1888 1.409 . S
C1895 C1894 1.362 . S
H1896 C1902 0.930 . S
H1897 C1905 0.930 . S
H1898 C1906 0.930 . S
H1899 C1907 0.930 . S
H1900 C1910 0.930 . S
H1901 C1911 0.930 . S
C1902 H1896 0.930 . S
C1902 C1903 1.355 . S
C1902 C1904 1.415 . S
C1903 C1902 1.355 . S
C1903 C1905 1.419 . S
C1904 C1902 1.415 . S
C1904 C1909 1.425 . S
C1904 C1911 1.409 . S
C1905 H1897 0.930 . S
C1905 C1903 1.419 . S
C1905 C1906 1.362 . S
C1906 H1898 0.930 . S
C1906 C1905 1.362 . S
C1906 C1909 1.409 . S
C1907 H1899 0.930 . S
C1907 C1908 1.355 . S
C1907 C1909 1.415 . S
C1908 C1907 1.355 . S
C1908 C1910 1.419 . S
C1909 C1904 1.425 . S
C1909 C1906 1.409 . S
C1909 C1907 1.415 . S
C1910 H1900 0.930 . S
C1910 C1908 1.419 . S
C1910 C1911 1.362 . S
C1911 H1901 0.930 . S
C1911 C1904 1.409 . S
C1911 C1910 1.362 . S
H1912 C1918 0.930 . S
H1913 C1921 0.930 . S
H1914 C1922 0.930 . S
H1915 C1923 0.930 . S
H1916 C1926 0.930 . S
H1917 C1927 0.930 . S
C1918 H1912 0.930 . S
C1918 C1919 1.355 . S
C1918 C1920 1.415 . S
C1919 C1918 1.355 . S
C1919 C1921 1.419 . S
C1920 C1918 1.415 . S
C1920 C1925 1.425 . S
C1920 C1927 1.409 . S
C1921 H1913 0.930 . S
C1921 C1919 1.419 . S
C1921 C1922 1.362 . S
C1922 H1914 0.930 . S
C1922 C1921 1.362 . S
C1922 C1925 1.409 . S
C1923 H1915 0.930 . S
C1923 C1924 1.355 . S
C1923 C1925 1.415 . S
C1924 C1923 1.355 . S
C1924 C1926 1.419 . S
C1925 C1920 1.425 . S
C1925 C1922 1.409 . S
C1925 C1923 1.415 . S
C1926 H1916 0.930 . S
C1926 C1924 1.419 . S
C1926 C1927 1.362 . S
C1927 H1917 0.930 . S
C1927 C1920 1.409 . S
C1927 C1926 1.362 . S
H1928 C1934 0.930 . S
H1929 C1937 0.930 . S
H1930 C1938 0.930 . S
H1931 C1939 0.930 . S
H1932 C1942 0.930 . S
H1933 C1943 0.930 . S
C1934 H1928 0.930 . S
C1934 C1935 1.355 . S
C1934 C1936 1.415 . S
C1935 C1934 1.355 . S
C1935 C1937 1.419 . S
C1936 C1934 1.415 . S
C1936 C1941 1.425 . S
C1936 C1943 1.409 . S
C1937 H1929 0.930 . S
C1937 C1935 1.419 . S
C1937 C1938 1.362 . S
C1938 H1930 0.930 . S
C1938 C1937 1.362 . S
C1938 C1941 1.409 . S
C1939 H1931 0.930 . S
C1939 C1940 1.355 . S
C1939 C1941 1.415 . S
C1940 C1939 1.355 . S
C1940 C1942 1.419 . S
C1941 C1936 1.425 . S
C1941 C1938 1.409 . S
C1941 C1939 1.415 . S
C1942 H1932 0.930 . S
C1942 C1940 1.419 . S
C1942 C1943 1.362 . S
C1943 H1933 0.930 . S
C1943 C1936 1.409 . S
C1943 C1942 1.362 . S
H1944 C1950 0.930 . S
H1945 C1953 0.930 . S
H1946 C1954 0.930 . S
H1947 C1955 0.930 . S
H1948 C1958 0.930 . S
H1949 C1959 0.930 . S
C1950 H1944 0.930 . S
C1950 C1951 1.355 . S
C1950 C1952 1.415 . S
C1951 C1950 1.355 . S
C1951 C1953 1.419 . S
C1952 C1950 1.415 . S
C1952 C1957 1.425 . S
C1952 C1959 1.409 . S
C1953 H1945 0.930 . S
C1953 C1951 1.419 . S
C1953 C1954 1.362 . S
C1954 H1946 0.930 . S
C1954 C1953 1.362 . S
C1954 C1957 1.409 . S
C1955 H1947 0.930 . S
C1955 C1956 1.355 . S
C1955 C1957 1.415 . S
C1956 C1955 1.355 . S
C1956 C1958 1.419 . S
C1957 C1952 1.425 . S
C1957 C1954 1.409 . S
C1957 C1955 1.415 . S
C1958 H1948 0.930 . S
C1958 C1956 1.419 . S
C1958 C1959 1.362 . S
C1959 H1949 0.930 . S
C1959 C1952 1.409 . S
C1959 C1958 1.362 . S
H1960 C1966 0.930 . S
H1961 C1969 0.930 . S
H1962 C1970 0.930 . S
H1963 C1971 0.930 . S
H1964 C1974 0.930 . S
H1965 C1975 0.930 . S
C1966 H1960 0.930 . S
C1966 C1967 1.355 . S
C1966 C1968 1.415 . S
C1967 C1966 1.355 . S
C1967 C1969 1.419 . S
C1968 C1966 1.415 . S
C1968 C1973 1.425 . S
C1968 C1975 1.409 . S
C1969 H1961 0.930 . S
C1969 C1967 1.419 . S
C1969 C1970 1.362 . S
C1970 H1962 0.930 . S
C1970 C1969 1.362 . S
C1970 C1973 1.409 . S
C1971 H1963 0.930 . S
C1971 C1972 1.355 . S
C1971 C1973 1.415 . S
C1972 C1971 1.355 . S
C1972 C1974 1.419 . S
C1973 C1968 1.425 . S
C1973 C1970 1.409 . S
C1973 C1971 1.415 . S
C1974 H1964 0.930 . S
C1974 C1972 1.419 . S
C1974 C1975 1.362 . S
C1975 H1965 0.930 . S
C1975 C1968 1.409 . S
C1975 C1974 1.362 . S
H1976 C1982 0.930 . S
H1977 C1985 0.930 . S
H1978 C1986 0.930 . S
H1979 C1987 0.930 . S
H1980 C1990 0.930 . S
H1981 C1991 0.930 . S
C1982 H1976 0.930 . S
C1982 C1983 1.355 . S
C1982 C1984 1.415 . S
C1983 C1982 1.355 . S
C1983 C1985 1.419 . S
C1984 C1982 1.415 . S
C1984 C1989 1.425 . S
C1984 C1991 1.409 . S
C1985 H1977 0.930 . S
C1985 C1983 1.419 . S
C1985 C1986 1.362 . S
C1986 H1978 0.930 . S
C1986 C1985 1.362 . S
C1986 C1989 1.409 . S
C1987 H1979 0.930 . S
C1987 C1988 1.355 . S
C1987 C1989 1.415 . S
C1988 C1987 1.355 . S
C1988 C1990 1.419 . S
C1989 C1984 1.425 . S
C1989 C1986 1.409 . S
C1989 C1987 1.415 . S
C1990 H1980 0.930 . S
C1990 C1988 1.419 . S
C1990 C1991 1.362 . S
C1991 H1981 0.930 . S
C1991 C1984 1.409 . S
C1991 C1990 1.362 . S
H1992 C1998 0.930 . S
H1993 C2001 0.930 . S
H1994 C2002 0.930 . S
H1995 C2003 0.930 . S
H1996 C2006 0.930 . S
H1997 C2007 0.930 . S
C1998 H1992 0.930 . S
C1998 C1999 1.355 . S
C1998 C2000 1.415 . S
C1999 C1998 1.355 . S
C1999 C2001 1.419 . S
C2000 C1998 1.415 . S
C2000 C2005 1.425 . S
C2000 C2007 1.409 . S
C2001 H1993 0.930 . S
C2001 C1999 1.419 . S
C2001 C2002 1.362 . S
C2002 H1994 0.930 . S
C2002 C2001 1.362 . S
C2002 C2005 1.409 . S
C2003 H1995 0.930 . S
C2003 C2004 1.355 . S
C2003 C2005 1.415 . S
C2004 C2003 1.355 . S
C2004 C2006 1.419 . S
C2005 C2000 1.425 . S
C2005 C2002 1.409 . S
C2005 C2003 1.415 . S
C2006 H1996 0.930 . S
C2006 C2004 1.419 . S
C2006 C2007 1.362 . S
C2007 H1997 0.930 . S
C2007 C2000 1.409 . S
C2007 C2006 1.362 . S
H2008 C2014 0.930 . S
H2009 C2017 0.930 . S
H2010 C2018 0.930 . S
H2011 C2019 0.930 . S
H2012 C2022 0.930 . S
H2013 C2023 0.930 . S
C2014 H2008 0.930 . S
C2014 C2015 1.355 . S
C2014 C2016 1.415 . S
C2015 C2014 1.355 . S
C2015 C2017 1.419 . S
C2016 C2014 1.415 . S
C2016 C2021 1.425 . S
C2016 C2023 1.409 . S
C2017 H2009 0.930 . S
C2017 C2015 1.419 . S
C2017 C2018 1.362 . S
C2018 H2010 0.930 . S
C2018 C2017 1.362 . S
C2018 C2021 1.409 . S
C2019 H2011 0.930 . S
C2019 C2020 1.355 . S
C2019 C2021 1.415 . S
C2020 C2019 1.355 . S
C2020 C2022 1.419 . S
C2021 C2016 1.425 . S
C2021 C2018 1.409 . S
C2021 C2019 1.415 . S
C2022 H2012 0.930 . S
C2022 C2020 1.419 . S
C2022 C2023 1.362 . S
C2023 H2013 0.930 . S
C2023 C2016 1.409 . S
C2023 C2022 1.362 . S
H2024 C2030 0.931 . S
H2025 C2033 0.930 . S
H2026 C2034 0.930 . S
H2027 C2035 0.930 . S
H2028 C2038 0.930 . S
H2029 C2039 0.930 . S
C2030 H2024 0.931 . S
C2030 C2031 1.355 . S
C2030 C2032 1.412 . S
C2031 C2030 1.355 . S
C2031 C2033 1.419 1_554 S
C2032 C2030 1.412 . S
C2032 C2037 1.430 . S
C2032 C2039 1.409 1_565 S
C2033 H2025 0.930 . S
C2033 C2031 1.419 1_556 S
C2033 C2034 1.362 . S
C2034 H2026 0.930 . S
C2034 C2033 1.362 . S
C2034 C2037 1.409 1_556 S
C2035 H2027 0.930 . S
C2035 C2036 1.355 1_566 S
C2035 C2037 1.415 1_556 S
C2036 C2035 1.355 1_544 S
C2036 C2038 1.419 . S
C2037 C2032 1.430 . S
C2037 C2034 1.409 1_554 S
C2037 C2035 1.415 1_554 S
C2038 H2028 0.930 . S
C2038 C2036 1.419 . S
C2038 C2039 1.362 . S
C2039 H2029 0.930 . S
C2039 C2032 1.409 1_545 S
C2039 C2038 1.362 . S
H2040 C2046 0.930 . S
H2041 C2049 0.930 . S
H2042 C2050 0.930 . S
H2043 C2051 0.930 . S
H2044 C2054 0.930 . S
H2045 C2055 0.930 . S
C2046 H2040 0.930 . S
C2046 C2047 1.355 . S
C2046 C2048 1.415 . S
C2047 C2046 1.355 . S
C2047 C2049 1.419 . S
C2048 C2046 1.415 . S
C2048 C2053 1.425 . S
C2048 C2055 1.409 . S
C2049 H2041 0.930 . S
C2049 C2047 1.419 . S
C2049 C2050 1.362 . S
C2050 H2042 0.930 . S
C2050 C2049 1.362 . S
C2050 C2053 1.409 . S
C2051 H2043 0.930 . S
C2051 C2052 1.355 . S
C2051 C2053 1.415 . S
C2052 C2051 1.355 . S
C2052 C2054 1.419 . S
C2053 C2048 1.425 . S
C2053 C2050 1.409 . S
C2053 C2051 1.415 . S
C2054 H2044 0.930 . S
C2054 C2052 1.419 . S
C2054 C2055 1.362 . S
C2055 H2045 0.930 . S
C2055 C2048 1.409 . S
C2055 C2054 1.362 . S
H2056 C2062 0.930 . S
H2057 C2065 0.930 . S
H2058 C2066 0.930 . S
H2059 C2067 0.930 . S
H2060 C2070 0.930 . S
H2061 C2071 0.930 . S
C2062 H2056 0.930 . S
C2062 C2063 1.355 . S
C2062 C2064 1.415 . S
C2063 C2062 1.355 . S
C2063 C2065 1.419 . S
C2064 C2062 1.415 . S
C2064 C2069 1.425 . S
C2064 C2071 1.409 . S
C2065 H2057 0.930 . S
C2065 C2063 1.419 . S
C2065 C2066 1.362 . S
C2066 H2058 0.930 . S
C2066 C2065 1.362 . S
C2066 C2069 1.409 . S
C2067 H2059 0.930 . S
C2067 C2068 1.355 . S
C2067 C2069 1.415 . S
C2068 C2067 1.355 . S
C2068 C2070 1.419 . S
C2069 C2064 1.425 . S
C2069 C2066 1.409 . S
C2069 C2067 1.415 . S
C2070 H2060 0.930 . S
C2070 C2068 1.419 . S
C2070 C2071 1.362 . S
C2071 H2061 0.930 . S
C2071 C2064 1.409 . S
C2071 C2070 1.362 . S
H2072 C2078 0.930 . S
H2073 C2081 0.930 . S
H2074 C2082 0.930 . S
H2075 C2083 0.930 . S
H2076 C2086 0.930 . S
H2077 C2087 0.930 . S
C2078 H2072 0.930 . S
C2078 C2079 1.355 . S
C2078 C2080 1.415 . S
C2079 C2078 1.355 . S
C2079 C2081 1.419 . S
C2080 C2078 1.415 . S
C2080 C2085 1.425 . S
C2080 C2087 1.409 . S
C2081 H2073 0.930 . S
C2081 C2079 1.419 . S
C2081 C2082 1.362 . S
C2082 H2074 0.930 . S
C2082 C2081 1.362 . S
C2082 C2085 1.409 . S
C2083 H2075 0.930 . S
C2083 C2084 1.355 . S
C2083 C2085 1.415 . S
C2084 C2083 1.355 . S
C2084 C2086 1.419 . S
C2085 C2080 1.425 . S
C2085 C2082 1.409 . S
C2085 C2083 1.415 . S
C2086 H2076 0.930 . S
C2086 C2084 1.419 . S
C2086 C2087 1.362 . S
C2087 H2077 0.930 . S
C2087 C2080 1.409 . S
C2087 C2086 1.362 . S
H2088 C2094 0.930 . S
H2089 C2097 0.930 . S
H2090 C2098 0.930 . S
H2091 C2099 0.930 . S
H2092 C2102 0.930 . S
H2093 C2103 0.930 . S
C2094 H2088 0.930 . S
C2094 C2095 1.355 . S
C2094 C2096 1.415 . S
C2095 C2094 1.355 . S
C2095 C2097 1.419 . S
C2096 C2094 1.415 . S
C2096 C2101 1.425 . S
C2096 C2103 1.409 . S
C2097 H2089 0.930 . S
C2097 C2095 1.419 . S
C2097 C2098 1.362 . S
C2098 H2090 0.930 . S
C2098 C2097 1.362 . S
C2098 C2101 1.409 . S
C2099 H2091 0.930 . S
C2099 C2100 1.355 . S
C2099 C2101 1.415 . S
C2100 C2099 1.355 . S
C2100 C2102 1.419 . S
C2101 C2096 1.425 . S
C2101 C2098 1.409 . S
C2101 C2099 1.415 . S
C2102 H2092 0.930 . S
C2102 C2100 1.419 . S
C2102 C2103 1.362 . S
C2103 H2093 0.930 . S
C2103 C2096 1.409 . S
C2103 C2102 1.362 . S
H2104 C2110 0.930 . S
H2105 C2113 0.930 . S
H2106 C2114 0.930 . S
H2107 C2115 0.930 . S
H2108 C2118 0.930 . S
H2109 C2119 0.930 . S
C2110 H2104 0.930 . S
C2110 C2111 1.355 . S
C2110 C2112 1.415 . S
C2111 C2110 1.355 . S
C2111 C2113 1.419 . S
C2112 C2110 1.415 . S
C2112 C2117 1.425 . S
C2112 C2119 1.409 . S
C2113 H2105 0.930 . S
C2113 C2111 1.419 . S
C2113 C2114 1.362 . S
C2114 H2106 0.930 . S
C2114 C2113 1.362 . S
C2114 C2117 1.409 . S
C2115 H2107 0.930 . S
C2115 C2116 1.355 . S
C2115 C2117 1.415 . S
C2116 C2115 1.355 . S
C2116 C2118 1.419 . S
C2117 C2112 1.425 . S
C2117 C2114 1.409 . S
C2117 C2115 1.415 . S
C2118 H2108 0.930 . S
C2118 C2116 1.419 . S
C2118 C2119 1.362 . S
C2119 H2109 0.930 . S
C2119 C2112 1.409 . S
C2119 C2118 1.362 . S
H2120 C2126 0.930 . S
H2121 C2129 0.930 . S
H2122 C2130 0.930 . S
H2123 C2131 0.930 . S
H2124 C2134 0.930 . S
H2125 C2135 0.930 . S
C2126 H2120 0.930 . S
C2126 C2127 1.355 . S
C2126 C2128 1.415 . S
C2127 C2126 1.355 . S
C2127 C2129 1.419 . S
C2128 C2126 1.415 . S
C2128 C2133 1.425 . S
C2128 C2135 1.409 . S
C2129 H2121 0.930 . S
C2129 C2127 1.419 . S
C2129 C2130 1.362 . S
C2130 H2122 0.930 . S
C2130 C2129 1.362 . S
C2130 C2133 1.409 . S
C2131 H2123 0.930 . S
C2131 C2132 1.355 . S
C2131 C2133 1.415 . S
C2132 C2131 1.355 . S
C2132 C2134 1.419 . S
C2133 C2128 1.425 . S
C2133 C2130 1.409 . S
C2133 C2131 1.415 . S
C2134 H2124 0.930 . S
C2134 C2132 1.419 . S
C2134 C2135 1.362 . S
C2135 H2125 0.930 . S
C2135 C2128 1.409 . S
C2135 C2134 1.362 . S
H2136 C2142 0.930 . S
H2137 C2145 0.930 . S
H2138 C2146 0.930 . S
H2139 C2147 0.930 . S
H2140 C2150 0.955 . S
H2141 C2151 0.930 1_556 S
C2142 H2136 0.930 . S
C2142 C2143 1.355 . S
C2142 C2144 1.415 . S
C2143 C2142 1.355 . S
C2143 C2145 1.419 . S
C2144 C2142 1.415 . S
C2144 C2149 1.425 . S
C2144 C2151 1.409 . S
C2145 H2137 0.930 . S
C2145 C2143 1.419 . S
C2145 C2146 1.362 . S
C2146 H2138 0.930 . S
C2146 C2145 1.362 . S
C2146 C2149 1.409 . S
C2147 H2139 0.930 . S
C2147 C2148 1.355 . S
C2147 C2149 1.415 . S
C2148 C2147 1.355 . S
C2148 C2150 1.393 1_554 S
C2149 C2144 1.425 . S
C2149 C2146 1.409 . S
C2149 C2147 1.415 . S
C2150 H2140 0.955 . S
C2150 C2148 1.393 1_556 S
C2150 C2151 1.365 1_556 S
C2151 H2141 0.930 1_554 S
C2151 C2144 1.409 . S
C2151 C2150 1.365 1_554 S
H2152 C2158 0.930 . S
H2153 C2161 0.930 . S
H2154 C2162 0.930 . S
H2155 C2163 0.930 . S
H2156 C2166 0.930 . S
H2157 C2167 0.930 . S
C2158 H2152 0.930 . S
C2158 C2159 1.355 . S
C2158 C2160 1.415 . S
C2159 C2158 1.355 . S
C2159 C2161 1.419 . S
C2160 C2158 1.415 . S
C2160 C2165 1.425 . S
C2160 C2167 1.409 . S
C2161 H2153 0.930 . S
C2161 C2159 1.419 . S
C2161 C2162 1.362 . S
C2162 H2154 0.930 . S
C2162 C2161 1.362 . S
C2162 C2165 1.409 . S
C2163 H2155 0.930 . S
C2163 C2164 1.355 . S
C2163 C2165 1.415 . S
C2164 C2163 1.355 . S
C2164 C2166 1.419 . S
C2165 C2160 1.425 . S
C2165 C2162 1.409 . S
C2165 C2163 1.415 . S
C2166 H2156 0.930 . S
C2166 C2164 1.419 . S
C2166 C2167 1.362 . S
C2167 H2157 0.930 . S
C2167 C2160 1.409 . S
C2167 C2166 1.362 . S
H2168 C2174 0.930 . S
H2169 C2177 0.930 . S
H2170 C2178 0.930 . S
H2171 C2179 0.930 . S
H2172 C2182 0.930 . S
H2173 C2183 0.930 . S
C2174 H2168 0.930 . S
C2174 C2175 1.355 . S
C2174 C2176 1.415 . S
C2175 C2174 1.355 . S
C2175 C2177 1.419 . S
C2176 C2174 1.415 . S
C2176 C2181 1.425 . S
C2176 C2183 1.409 . S
C2177 H2169 0.930 . S
C2177 C2175 1.419 . S
C2177 C2178 1.362 . S
C2178 H2170 0.930 . S
C2178 C2177 1.362 . S
C2178 C2181 1.409 . S
C2179 H2171 0.930 . S
C2179 C2180 1.355 . S
C2179 C2181 1.415 . S
C2180 C2179 1.355 . S
C2180 C2182 1.419 . S
C2181 C2176 1.425 . S
C2181 C2178 1.409 . S
C2181 C2179 1.415 . S
C2182 H2172 0.930 . S
C2182 C2180 1.419 . S
C2182 C2183 1.362 . S
C2183 H2173 0.930 . S
C2183 C2176 1.409 . S
C2183 C2182 1.362 . S
H2184 C2190 0.930 . S
H2185 C2193 0.930 . S
H2186 C2194 0.930 . S
H2187 C2195 0.930 . S
H2188 C2198 0.930 . S
H2189 C2199 0.930 . S
C2190 H2184 0.930 . S
C2190 C2191 1.355 . S
C2190 C2192 1.415 . S
C2191 C2190 1.355 . S
C2191 C2193 1.419 . S
C2192 C2190 1.415 . S
C2192 C2197 1.425 . S
C2192 C2199 1.409 . S
C2193 H2185 0.930 . S
C2193 C2191 1.419 . S
C2193 C2194 1.362 . S
C2194 H2186 0.930 . S
C2194 C2193 1.362 . S
C2194 C2197 1.409 . S
C2195 H2187 0.930 . S
C2195 C2196 1.355 . S
C2195 C2197 1.415 . S
C2196 C2195 1.355 . S
C2196 C2198 1.419 . S
C2197 C2192 1.425 . S
C2197 C2194 1.409 . S
C2197 C2195 1.415 . S
C2198 H2188 0.930 . S
C2198 C2196 1.419 . S
C2198 C2199 1.362 . S
C2199 H2189 0.930 . S
C2199 C2192 1.409 . S
C2199 C2198 1.362 . S
H2200 C2206 0.930 . S
H2201 C2209 0.930 . S
H2202 C2210 0.930 . S
H2203 C2211 0.930 . S
H2204 C2214 0.930 . S
H2205 C2215 0.930 . S
C2206 H2200 0.930 . S
C2206 C2207 1.355 . S
C2206 C2208 1.415 . S
C2207 C2206 1.355 . S
C2207 C2209 1.419 . S
C2208 C2206 1.415 . S
C2208 C2213 1.425 . S
C2208 C2215 1.409 . S
C2209 H2201 0.930 . S
C2209 C2207 1.419 . S
C2209 C2210 1.362 . S
C2210 H2202 0.930 . S
C2210 C2209 1.362 . S
C2210 C2213 1.409 . S
C2211 H2203 0.930 . S
C2211 C2212 1.355 . S
C2211 C2213 1.415 . S
C2212 C2211 1.355 . S
C2212 C2214 1.419 . S
C2213 C2208 1.425 . S
C2213 C2210 1.409 . S
C2213 C2211 1.415 . S
C2214 H2204 0.930 . S
C2214 C2212 1.419 . S
C2214 C2215 1.362 . S
C2215 H2205 0.930 . S
C2215 C2208 1.409 . S
C2215 C2214 1.362 . S
H2216 C2222 0.930 . S
H2217 C2225 0.930 . S
H2218 C2226 0.930 . S
H2219 C2227 0.930 . S
H2220 C2230 0.930 . S
H2221 C2231 0.930 . S
C2222 H2216 0.930 . S
C2222 C2223 1.355 . S
C2222 C2224 1.415 . S
C2223 C2222 1.355 . S
C2223 C2225 1.419 . S
C2224 C2222 1.415 . S
C2224 C2229 1.425 . S
C2224 C2231 1.409 . S
C2225 H2217 0.930 . S
C2225 C2223 1.419 . S
C2225 C2226 1.362 . S
C2226 H2218 0.930 . S
C2226 C2225 1.362 . S
C2226 C2229 1.409 . S
C2227 H2219 0.930 . S
C2227 C2228 1.355 . S
C2227 C2229 1.415 . S
C2228 C2227 1.355 . S
C2228 C2230 1.419 . S
C2229 C2224 1.425 . S
C2229 C2226 1.409 . S
C2229 C2227 1.415 . S
C2230 H2220 0.930 . S
C2230 C2228 1.419 . S
C2230 C2231 1.362 . S
C2231 H2221 0.930 . S
C2231 C2224 1.409 . S
C2231 C2230 1.362 . S
H2232 C2238 0.930 . S
H2233 C2241 0.930 . S
H2234 C2242 0.930 . S
H2235 C2243 0.930 . S
H2236 C2246 0.930 . S
H2237 C2247 0.930 . S
C2238 H2232 0.930 . S
C2238 C2239 1.355 . S
C2238 C2240 1.415 . S
C2239 C2238 1.355 . S
C2239 C2241 1.419 . S
C2240 C2238 1.415 . S
C2240 C2245 1.425 . S
C2240 C2247 1.409 . S
C2241 H2233 0.930 . S
C2241 C2239 1.419 . S
C2241 C2242 1.362 . S
C2242 H2234 0.930 . S
C2242 C2241 1.362 . S
C2242 C2245 1.409 . S
C2243 H2235 0.930 . S
C2243 C2244 1.355 . S
C2243 C2245 1.415 . S
C2244 C2243 1.355 . S
C2244 C2246 1.419 . S
C2245 C2240 1.425 . S
C2245 C2242 1.409 . S
C2245 C2243 1.415 . S
C2246 H2236 0.930 . S
C2246 C2244 1.419 . S
C2246 C2247 1.362 . S
C2247 H2237 0.930 . S
C2247 C2240 1.409 . S
C2247 C2246 1.362 . S
H2248 C2254 0.930 . S
H2249 C2257 0.930 . S
H2250 C2258 0.930 . S
H2251 C2259 0.930 . S
H2252 C2262 0.930 . S
H2253 C2263 0.930 . S
C2254 H2248 0.930 . S
C2254 C2255 1.355 . S
C2254 C2256 1.415 . S
C2255 C2254 1.355 . S
C2255 C2257 1.419 . S
C2256 C2254 1.415 . S
C2256 C2261 1.425 . S
C2256 C2263 1.409 . S
C2257 H2249 0.930 . S
C2257 C2255 1.419 . S
C2257 C2258 1.362 . S
C2258 H2250 0.930 . S
C2258 C2257 1.362 . S
C2258 C2261 1.409 . S
C2259 H2251 0.930 . S
C2259 C2260 1.355 . S
C2259 C2261 1.415 . S
C2260 C2259 1.355 . S
C2260 C2262 1.419 . S
C2261 C2256 1.425 . S
C2261 C2258 1.409 . S
C2261 C2259 1.415 . S
C2262 H2252 0.930 . S
C2262 C2260 1.419 . S
C2262 C2263 1.362 . S
C2263 H2253 0.930 . S
C2263 C2256 1.409 . S
C2263 C2262 1.362 . S
H2264 C2270 0.930 . S
H2265 C2273 0.930 . S
H2266 C2274 0.930 . S
H2267 C2275 0.930 . S
H2268 C2278 0.930 . S
H2269 C2279 0.930 . S
C2270 H2264 0.930 . S
C2270 C2271 1.355 . S
C2270 C2272 1.415 1_655 S
C2271 C2270 1.355 . S
C2271 C2273 1.419 . S
C2272 C2270 1.415 1_455 S
C2272 C2277 1.425 1_455 S
C2272 C2279 1.409 . S
C2273 H2265 0.930 . S
C2273 C2271 1.419 . S
C2273 C2274 1.362 . S
C2274 H2266 0.930 . S
C2274 C2273 1.362 . S
C2274 C2277 1.409 . S
C2275 H2267 0.930 . S
C2275 C2276 1.355 . S
C2275 C2277 1.415 1_455 S
C2276 C2275 1.355 . S
C2276 C2278 1.419 . S
C2277 C2272 1.425 1_655 S
C2277 C2274 1.409 . S
C2277 C2275 1.415 1_655 S
C2278 H2268 0.930 . S
C2278 C2276 1.419 . S
C2278 C2279 1.362 . S
C2279 H2269 0.930 . S
C2279 C2272 1.409 . S
C2279 C2278 1.362 . S
H2280 C2286 0.930 . S
H2281 C2289 0.930 . S
H2282 C2290 0.930 . S
H2283 C2291 0.930 . S
H2284 C2294 0.930 . S
H2285 C2295 0.930 . S
C2286 H2280 0.930 . S
C2286 C2287 1.355 . S
C2286 C2288 1.415 . S
C2287 C2286 1.355 . S
C2287 C2289 1.419 . S
C2288 C2286 1.415 . S
C2288 C2293 1.425 . S
C2288 C2295 1.409 . S
C2289 H2281 0.930 . S
C2289 C2287 1.419 . S
C2289 C2290 1.362 . S
C2290 H2282 0.930 . S
C2290 C2289 1.362 . S
C2290 C2293 1.409 . S
C2291 H2283 0.930 . S
C2291 C2292 1.355 . S
C2291 C2293 1.415 . S
C2292 C2291 1.355 . S
C2292 C2294 1.419 . S
C2293 C2288 1.425 . S
C2293 C2290 1.409 . S
C2293 C2291 1.415 . S
C2294 H2284 0.930 . S
C2294 C2292 1.419 . S
C2294 C2295 1.362 . S
C2295 H2285 0.930 . S
C2295 C2288 1.409 . S
C2295 C2294 1.362 . S
H2296 C2302 0.930 . S
H2297 C2305 0.930 . S
H2298 C2306 0.930 . S
H2299 C2307 0.930 . S
H2300 C2310 0.930 . S
H2301 C2311 0.930 . S
C2302 H2296 0.930 . S
C2302 C2303 1.355 . S
C2302 C2304 1.415 . S
C2303 C2302 1.355 . S
C2303 C2305 1.419 . S
C2304 C2302 1.415 . S
C2304 C2309 1.425 . S
C2304 C2311 1.409 . S
C2305 H2297 0.930 . S
C2305 C2303 1.419 . S
C2305 C2306 1.362 . S
C2306 H2298 0.930 . S
C2306 C2305 1.362 . S
C2306 C2309 1.409 . S
C2307 H2299 0.930 . S
C2307 C2308 1.355 . S
C2307 C2309 1.415 . S
C2308 C2307 1.355 . S
C2308 C2310 1.419 . S
C2309 C2304 1.425 . S
C2309 C2306 1.409 . S
C2309 C2307 1.415 . S
C2310 H2300 0.930 . S
C2310 C2308 1.419 . S
C2310 C2311 1.362 . S
C2311 H2301 0.930 . S
C2311 C2304 1.409 . S
C2311 C2310 1.362 . S
H2312 C2318 0.930 . S
H2313 C2321 0.930 . S
H2314 C2322 0.930 . S
H2315 C2323 0.930 . S
H2316 C2326 0.930 . S
H2317 C2327 0.930 . S
C2318 H2312 0.930 . S
C2318 C2319 1.355 . S
C2318 C2320 1.415 . S
C2319 C2318 1.355 . S
C2319 C2321 1.419 . S
C2320 C2318 1.415 . S
C2320 C2325 1.425 . S
C2320 C2327 1.409 . S
C2321 H2313 0.930 . S
C2321 C2319 1.419 . S
C2321 C2322 1.362 . S
C2322 H2314 0.930 . S
C2322 C2321 1.362 . S
C2322 C2325 1.409 . S
C2323 H2315 0.930 . S
C2323 C2324 1.355 . S
C2323 C2325 1.415 . S
C2324 C2323 1.355 . S
C2324 C2326 1.419 . S
C2325 C2320 1.425 . S
C2325 C2322 1.409 . S
C2325 C2323 1.415 . S
C2326 H2316 0.930 . S
C2326 C2324 1.419 . S
C2326 C2327 1.362 . S
C2327 H2317 0.930 . S
C2327 C2320 1.409 . S
C2327 C2326 1.362 . S
H2328 C2334 0.930 . S
H2329 C2337 0.930 . S
H2330 C2338 0.930 1_455 S
H2331 C2339 0.930 1_455 S
H2332 C2342 0.930 . S
H2333 C2343 0.930 . S
C2334 H2328 0.930 . S
C2334 C2335 1.355 . S
C2334 C2336 1.415 . S
C2335 C2334 1.355 . S
C2335 C2337 1.419 . S
C2336 C2334 1.415 . S
C2336 C2341 1.425 . S
C2336 C2343 1.409 . S
C2337 H2329 0.930 . S
C2337 C2335 1.419 . S
C2337 C2338 1.362 . S
C2338 H2330 0.930 1_655 S
C2338 C2337 1.362 . S
C2338 C2341 1.409 . S
C2339 H2331 0.930 1_655 S
C2339 C2340 1.355 . S
C2339 C2341 1.415 . S
C2340 C2339 1.355 . S
C2340 C2342 1.419 . S
C2341 C2336 1.425 . S
C2341 C2338 1.409 . S
C2341 C2339 1.415 . S
C2342 H2332 0.930 . S
C2342 C2340 1.419 . S
C2342 C2343 1.362 . S
C2343 H2333 0.930 . S
C2343 C2336 1.409 . S
C2343 C2342 1.362 . S
H2344 C2350 0.930 . S
H2345 C2353 0.930 . S
H2346 C2354 0.930 . S
H2347 C2355 0.930 . S
H2348 C2358 0.930 . S
H2349 C2359 0.930 . S
C2350 H2344 0.930 . S
C2350 C2351 1.355 . S
C2350 C2352 1.415 . S
C2351 C2350 1.355 . S
C2351 C2353 1.419 . S
C2352 C2350 1.415 . S
C2352 C2357 1.425 . S
C2352 C2359 1.409 . S
C2353 H2345 0.930 . S
C2353 C2351 1.419 . S
C2353 C2354 1.362 . S
C2354 H2346 0.930 . S
C2354 C2353 1.362 . S
C2354 C2357 1.409 . S
C2355 H2347 0.930 . S
C2355 C2356 1.355 . S
C2355 C2357 1.415 . S
C2356 C2355 1.355 . S
C2356 C2358 1.419 . S
C2357 C2352 1.425 . S
C2357 C2354 1.409 . S
C2357 C2355 1.415 . S
C2358 H2348 0.930 . S
C2358 C2356 1.419 . S
C2358 C2359 1.362 . S
C2359 H2349 0.930 . S
C2359 C2352 1.409 . S
C2359 C2358 1.362 . S
H2360 C2366 0.930 . S
H2361 C2369 0.930 . S
H2362 C2370 0.930 . S
H2363 C2371 0.930 . S
H2364 C2374 0.930 . S
H2365 C2375 0.930 . S
C2366 H2360 0.930 . S
C2366 C2367 1.355 . S
C2366 C2368 1.415 . S
C2367 C2366 1.355 . S
C2367 C2369 1.419 . S
C2368 C2366 1.415 . S
C2368 C2373 1.425 . S
C2368 C2375 1.409 . S
C2369 H2361 0.930 . S
C2369 C2367 1.419 . S
C2369 C2370 1.362 . S
C2370 H2362 0.930 . S
C2370 C2369 1.362 . S
C2370 C2373 1.409 . S
C2371 H2363 0.930 . S
C2371 C2372 1.355 . S
C2371 C2373 1.415 . S
C2372 C2371 1.355 . S
C2372 C2374 1.419 . S
C2373 C2368 1.425 . S
C2373 C2370 1.409 . S
C2373 C2371 1.415 . S
C2374 H2364 0.930 . S
C2374 C2372 1.419 . S
C2374 C2375 1.362 . S
C2375 H2365 0.930 . S
C2375 C2368 1.409 . S
C2375 C2374 1.362 . S
H2376 C2382 0.930 . S
H2377 C2385 0.930 . S
H2378 C2386 0.933 . S
H2379 C2387 0.930 . S
H2380 C2390 0.930 . S
H2381 C2391 0.930 . S
C2382 H2376 0.930 . S
C2382 C2383 1.355 . S
C2382 C2384 1.415 . S
C2383 C2382 1.355 . S
C2383 C2385 1.419 . S
C2384 C2382 1.415 . S
C2384 C2389 1.425 . S
C2384 C2391 1.409 . S
C2385 H2377 0.930 . S
C2385 C2383 1.419 . S
C2385 C2386 1.362 . S
C2386 H2378 0.933 . S
C2386 C2385 1.362 . S
C2386 C2389 1.409 . S
C2387 H2379 0.930 . S
C2387 C2388 1.355 . S
C2387 C2389 1.415 1_545 S
C2388 C2387 1.355 . S
C2388 C2390 1.419 1_545 S
C2389 C2384 1.425 . S
C2389 C2386 1.409 . S
C2389 C2387 1.415 1_565 S
C2390 H2380 0.930 . S
C2390 C2388 1.419 1_565 S
C2390 C2391 1.362 . S
C2391 H2381 0.930 . S
C2391 C2384 1.409 . S
C2391 C2390 1.362 . S
H2392 C2398 0.930 . S
H2393 C2401 0.930 . S
H2394 C2402 0.930 . S
H2395 C2403 0.930 . S
H2396 C2406 0.930 . S
H2397 C2407 0.930 . S
C2398 H2392 0.930 . S
C2398 C2399 1.355 . S
C2398 C2400 1.415 . S
C2399 C2398 1.355 . S
C2399 C2401 1.419 . S
C2400 C2398 1.415 . S
C2400 C2405 1.425 . S
C2400 C2407 1.409 . S
C2401 H2393 0.930 . S
C2401 C2399 1.419 . S
C2401 C2402 1.362 . S
C2402 H2394 0.930 . S
C2402 C2401 1.362 . S
C2402 C2405 1.409 . S
C2403 H2395 0.930 . S
C2403 C2404 1.355 . S
C2403 C2405 1.415 . S
C2404 C2403 1.355 . S
C2404 C2406 1.419 . S
C2405 C2400 1.425 . S
C2405 C2402 1.409 . S
C2405 C2403 1.415 . S
C2406 H2396 0.930 . S
C2406 C2404 1.419 . S
C2406 C2407 1.362 . S
C2407 H2397 0.930 . S
C2407 C2400 1.409 . S
C2407 C2406 1.362 . S
H2408 C2414 0.930 . S
H2409 C2417 0.930 . S
H2410 C2418 0.930 . S
H2411 C2419 0.930 1_556 S
H2412 C2422 0.930 . S
H2413 C2423 0.930 . S
C2414 H2408 0.930 . S
C2414 C2415 1.355 . S
C2414 C2416 1.415 . S
C2415 C2414 1.355 . S
C2415 C2417 1.419 1_554 S
C2416 C2414 1.415 . S
C2416 C2421 1.425 . S
C2416 C2423 1.409 . S
C2417 H2409 0.930 . S
C2417 C2415 1.419 1_556 S
C2417 C2418 1.362 . S
C2418 H2410 0.930 . S
C2418 C2417 1.362 . S
C2418 C2421 1.409 1_556 S
C2419 H2411 0.930 1_554 S
C2419 C2420 1.355 . S
C2419 C2421 1.415 . S
C2420 C2419 1.355 . S
C2420 C2422 1.419 . S
C2421 C2416 1.425 . S
C2421 C2418 1.409 1_554 S
C2421 C2419 1.415 . S
C2422 H2412 0.930 . S
C2422 C2420 1.419 . S
C2422 C2423 1.362 . S
C2423 H2413 0.930 . S
C2423 C2416 1.409 . S
C2423 C2422 1.362 . S
H2424 C2430 0.930 . S
H2425 C2433 0.930 . S
H2426 C2434 0.930 . S
H2427 C2435 0.930 . S
H2428 C2438 0.930 . S
H2429 C2439 0.930 . S
C2430 H2424 0.930 . S
C2430 C2431 1.355 . S
C2430 C2432 1.415 . S
C2431 C2430 1.355 . S
C2431 C2433 1.419 . S
C2432 C2430 1.415 . S
C2432 C2437 1.425 . S
C2432 C2439 1.409 . S
C2433 H2425 0.930 . S
C2433 C2431 1.419 . S
C2433 C2434 1.362 . S
C2434 H2426 0.930 . S
C2434 C2433 1.362 . S
C2434 C2437 1.409 . S
C2435 H2427 0.930 . S
C2435 C2436 1.355 . S
C2435 C2437 1.415 . S
C2436 C2435 1.355 . S
C2436 C2438 1.419 . S
C2437 C2432 1.425 . S
C2437 C2434 1.409 . S
C2437 C2435 1.415 . S
C2438 H2428 0.930 . S
C2438 C2436 1.419 . S
C2438 C2439 1.362 . S
C2439 H2429 0.930 . S
C2439 C2432 1.409 . S
C2439 C2438 1.362 . S
H2440 C2446 0.930 . S
H2441 C2449 0.930 . S
H2442 C2450 0.930 . S
H2443 C2451 0.930 . S
H2444 C2454 0.930 . S
H2445 C2455 0.930 . S
C2446 H2440 0.930 . S
C2446 C2447 1.355 . S
C2446 C2448 1.397 1_554 S
C2447 C2446 1.355 . S
C2447 C2449 1.419 . S
C2448 C2446 1.397 1_556 S
C2448 C2453 1.429 . S
C2448 C2455 1.425 . S
C2449 H2441 0.930 . S
C2449 C2447 1.419 . S
C2449 C2450 1.362 1_554 S
C2450 H2442 0.930 . S
C2450 C2449 1.362 1_556 S
C2450 C2453 1.409 . S
C2451 H2443 0.930 . S
C2451 C2452 1.355 . S
C2451 C2453 1.415 . S
C2452 C2451 1.355 . S
C2452 C2454 1.419 . S
C2453 C2448 1.429 . S
C2453 C2450 1.409 . S
C2453 C2451 1.415 . S
C2454 H2444 0.930 . S
C2454 C2452 1.419 . S
C2454 C2455 1.362 . S
C2455 H2445 0.930 . S
C2455 C2448 1.425 . S
C2455 C2454 1.362 . S
H2456 C2462 0.930 . S
H2457 C2465 0.930 . S
H2458 C2466 0.930 . S
H2459 C2467 0.930 . S
H2460 C2470 0.930 . S
H2461 C2471 0.930 . S
C2462 H2456 0.930 . S
C2462 C2463 1.355 . S
C2462 C2464 1.415 . S
C2463 C2462 1.355 . S
C2463 C2465 1.419 . S
C2464 C2462 1.415 . S
C2464 C2469 1.425 . S
C2464 C2471 1.409 . S
C2465 H2457 0.930 . S
C2465 C2463 1.419 . S
C2465 C2466 1.362 . S
C2466 H2458 0.930 . S
C2466 C2465 1.362 . S
C2466 C2469 1.409 . S
C2467 H2459 0.930 . S
C2467 C2468 1.355 . S
C2467 C2469 1.415 . S
C2468 C2467 1.355 . S
C2468 C2470 1.419 . S
C2469 C2464 1.425 . S
C2469 C2466 1.409 . S
C2469 C2467 1.415 . S
C2470 H2460 0.930 . S
C2470 C2468 1.419 . S
C2470 C2471 1.362 . S
C2471 H2461 0.930 . S
C2471 C2464 1.409 . S
C2471 C2470 1.362 . S
H2472 C2478 0.930 . S
H2473 C2481 0.930 . S
H2474 C2482 0.930 . S
H2475 C2483 0.930 . S
H2476 C2486 0.930 . S
H2477 C2487 0.930 . S
C2478 H2472 0.930 . S
C2478 C2479 1.355 . S
C2478 C2480 1.415 . S
C2479 C2478 1.355 . S
C2479 C2481 1.419 . S
C2480 C2478 1.415 . S
C2480 C2485 1.425 . S
C2480 C2487 1.409 . S
C2481 H2473 0.930 . S
C2481 C2479 1.419 . S
C2481 C2482 1.362 . S
C2482 H2474 0.930 . S
C2482 C2481 1.362 . S
C2482 C2485 1.409 . S
C2483 H2475 0.930 . S
C2483 C2484 1.355 . S
C2483 C2485 1.415 . S
C2484 C2483 1.355 . S
C2484 C2486 1.419 . S
C2485 C2480 1.425 . S
C2485 C2482 1.409 . S
C2485 C2483 1.415 . S
C2486 H2476 0.930 . S
C2486 C2484 1.419 . S
C2486 C2487 1.362 . S
C2487 H2477 0.930 . S
C2487 C2480 1.409 . S
C2487 C2486 1.362 . S
C959 C101 2.364 . S
C964 C322 2.325 1_556 S
C975 C57 2.148 . S
C980 C370 2.168 . S
C991 C73 1.380 . S
C996 C402 1.360 . S
C1012 C447 1.310 . S
C1007 C78 1.256 . S
C1023 C21 1.277 . S
C1028 C487 1.351 . S
C1044 C518 0.606 . S
C1039 C31 0.603 . S
C1060 C570 1.439 . S
C1055 C49 1.383 . S
C1071 C0 1.759 . S
C1076 C602 1.788 . S
C1092 C330 2.508 . S
C1087 C218 2.511 . S
C1103 C229 0.598 . S
C1108 C367 0.620 . S
C1124 C410 1.266 . S
C1119 C257 1.250 . S
C1140 C442 1.426 . S
C1135 C164 1.426 . S
C1151 C216 1.801 . S
C1156 C482 1.961 . S
C1172 C521 1.441 . S
C1167 C231 1.431 . S
C1188 C567 0.381 . S
C1183 C255 0.415 . S
C1204 C610 2.098 . S
C1199 C166 2.142 . S
C1220 C327 1.562 . S
C1215 C143 1.487 . S
C1231 C265 1.906 . S
C1236 C650 1.950 . S
C1252 C691 2.544 . S
C1247 C299 2.590 . S
C1268 C722 0.778 1_655 S
C1263 C291 0.683 . S
C1279 C104 1.452 . S
C1284 C607 1.476 . S
C1295 C117 1.529 . S
C1300 C407 1.574 . S
C1311 C304 2.154 . S
C1316 C770 2.188 . S
C1332 C802 0.660 . S
C1327 C278 0.480 . S
C1348 C331 2.309 . S
C1343 C60 2.350 . S
C1364 C801 2.089 . S
C1359 C96 2.094 . S
C1375 C88 1.310 . S
C1380 C411 1.237 . S
C1391 C65 1.314 . S
C1396 C758 1.253 . S
C1412 C478 1.356 . S
C1407 C10 1.415 . S
C1423 C44 0.546 . S
C1428 C687 0.642 . S
C1444 C561 1.391 1_556 S
C1439 C34 1.287 . S
C1460 C851 1.781 . S
C1455 C13 1.868 . S
C1476 C321 2.470 . S
C1471 C138 2.429 . S
C1492 C798 0.582 . S
C1487 C296 0.548 . S
C1503 C112 1.198 . S
C1508 C401 1.183 . S
C1519 C270 1.375 . S
C1524 C771 1.376 . S
C1535 C140 1.904 . S
C1540 C491 1.865 . S
C1556 C690 1.381 . S
C1551 C294 1.387 . S
C1567 C114 0.423 . S
C1572 C558 0.466 . S
C1583 C268 2.069 . S
C1588 C841 2.062 . S
C1599 C169 1.567 . S
C1604 C318 1.453 . S
C1615 C161 1.902 . S
C1620 C641 1.901 . S
C1631 C234 2.574 . S
C1636 C522 2.494 . S
C1647 C226 0.634 . S
C1652 C731 0.643 . S
C1668 C838 1.548 . S
C1663 C247 1.660 . S
C1679 C195 1.613 . S
C1684 C398 1.516 . S
C1700 C441 2.099 . S
C1695 C239 2.100 . S
C1716 C371 0.620 . S
C1711 C187 0.389 . S
C1727 C75 2.357 . S
C1732 C882 2.360 . S
C1748 C810 2.164 . S
C1743 C83 2.110 . S
C1759 C99 1.389 . S
C1764 C922 1.353 . S
C1775 C52 1.261 . S
C1780 C767 1.313 . S
C1791 C47 1.276 . S
C1796 C647 1.349 . S
C1812 C678 0.544 . S
C1807 C5 0.671 . S
C1828 C730 1.498 . S
C1823 C23 1.462 . S
C1844 C842 1.737 . S
C1839 C26 1.741 . S
C1860 C890 2.513 . S
C1855 C244 2.506 . S
C1871 C177 0.550 . S
C1876 C807 0.563 . S
C1892 C930 1.271 . S
C1887 C192 1.259 . S
C1908 C762 1.469 . S
C1903 C203 1.339 . S
C1924 C642 1.966 . S
C1919 C242 1.813 . S
C1935 C179 1.431 . S
C1940 C681 1.440 . S
C1956 C727 0.585 . S
C1951 C190 0.630 . S
C1967 C205 2.135 . S
C1972 C850 2.102 . S
C1988 C887 1.486 . S
C1983 C286 1.423 . S
C1999 C122 1.944 . S
C2004 C490 1.971 . S
C2020 C531 2.561 . S
C2015 C130 2.602 . S
C2036 C562 0.799 . S
C2031 C148 0.794 . S
C2052 C847 1.451 . S
C2047 C273 1.372 . S
C2063 C260 1.510 . S
C2068 C927 1.559 . S
C2084 C450 2.169 . S
C2079 C135 2.148 . S
C2100 C362 0.661 . S
C2095 C109 0.469 . S
C2111 C86 2.347 . S
C2116 C891 2.316 . S
C2132 C361 2.100 . S
C2127 C70 2.103 . S
C2143 C62 1.297 . S
C2148 C931 1.301 . S
C2159 C91 1.308 . S
C2164 C438 1.250 . S
C2175 C36 1.389 . S
C2180 C638 1.325 . S
C2196 C527 0.644 . S
C2191 C18 0.539 . S
C2207 C8 1.275 . S
C2212 C721 1.391 . S
C2223 C39 1.866 . S
C2228 C611 1.795 . S
C2244 C881 2.464 . S
C2239 C307 2.408 . S
C2255 C153 0.653 . S
C2260 C358 0.635 . S
C2276 C921 1.159 . S
C2271 C281 1.178 . S
C2287 C127 1.369 . S
C2292 C451 1.384 . S
C2303 C309 1.899 . S
C2308 C651 1.894 . S
C2324 C530 1.389 . S
C2319 C151 1.391 . S
C2335 C283 0.351 . S
C2340 C718 0.487 . S
C2356 C601 2.072 . S
C2351 C125 2.093 . S
C2372 C878 1.510 . S
C2367 C221 1.596 . S
C2388 C481 1.905 1_655 S
C2383 C200 1.905 . S
C2399 C208 2.574 . S
C2404 C682 2.505 . S
C2420 C571 0.603 . S
C2415 C174 0.665 . S
C2431 C182 1.660 . S
C2436 C598 1.566 . S
C2447 C156 1.594 . S
C2452 C918 1.551 . S
C2468 C761 2.099 . S
C2463 C213 2.096 1_565 S
C2484 C811 0.570 . S
C2479 C252 0.480 . S
