# Generated by pormake.
# Topology ctn, (3,4)-cn, num edge types: 1
# Building blocks:
#     Node 0, Type 0, BuildingBlock: OLANEW_clean_sbu_2, # of connection points: 3
#     Node 1, Type 0, BuildingBlock: OLANEW_clean_sbu_2, # of connection points: 3
#     Node 2, Type 0, BuildingBlock: OLANEW_clean_sbu_2, # of connection points: 3
#     Node 3, Type 0, BuildingBlock: OLANEW_clean_sbu_2, # of connection points: 3
#     Node 4, Type 0, BuildingBlock: OLANEW_clean_sbu_2, # of connection points: 3
#     Node 5, Type 0, BuildingBlock: OLANEW_clean_sbu_2, # of connection points: 3
#     Node 6, Type 0, BuildingBlock: OLANEW_clean_sbu_2, # of connection points: 3
#     Node 7, Type 0, BuildingBlock: OLANEW_clean_sbu_2, # of connection points: 3
#     Node 8, Type 0, BuildingBlock: OLANEW_clean_sbu_2, # of connection points: 3
#     Node 9, Type 0, BuildingBlock: OLANEW_clean_sbu_2, # of connection points: 3
#     Node 10, Type 0, BuildingBlock: OLANEW_clean_sbu_2, # of connection points: 3
#     Node 11, Type 0, BuildingBlock: OLANEW_clean_sbu_2, # of connection points: 3
#     Node 12, Type 0, BuildingBlock: OLANEW_clean_sbu_2, # of connection points: 3
#     Node 13, Type 0, BuildingBlock: OLANEW_clean_sbu_2, # of connection points: 3
#     Node 14, Type 0, BuildingBlock: OLANEW_clean_sbu_2, # of connection points: 3
#     Node 15, Type 0, BuildingBlock: OLANEW_clean_sbu_2, # of connection points: 3
#     Node 16, Type 1, BuildingBlock: QUQFOY_clean_sbu_1, # of connection points: 4
#     Node 17, Type 1, BuildingBlock: QUQFOY_clean_sbu_1, # of connection points: 4
#     Node 18, Type 1, BuildingBlock: QUQFOY_clean_sbu_1, # of connection points: 4
#     Node 19, Type 1, BuildingBlock: QUQFOY_clean_sbu_1, # of connection points: 4
#     Node 20, Type 1, BuildingBlock: QUQFOY_clean_sbu_1, # of connection points: 4
#     Node 21, Type 1, BuildingBlock: QUQFOY_clean_sbu_1, # of connection points: 4
#     Node 22, Type 1, BuildingBlock: QUQFOY_clean_sbu_1, # of connection points: 4
#     Node 23, Type 1, BuildingBlock: QUQFOY_clean_sbu_1, # of connection points: 4
#     Node 24, Type 1, BuildingBlock: QUQFOY_clean_sbu_1, # of connection points: 4
#     Node 25, Type 1, BuildingBlock: QUQFOY_clean_sbu_1, # of connection points: 4
#     Node 26, Type 1, BuildingBlock: QUQFOY_clean_sbu_1, # of connection points: 4
#     Node 27, Type 1, BuildingBlock: QUQFOY_clean_sbu_1, # of connection points: 4
#     Edge 28, Type (0, 1), BuildingBlock: EZIPEK_clean_linker_0, # of connection points: 2
#     Edge 29, Type (0, 1), BuildingBlock: EZIPEK_clean_linker_0, # of connection points: 2
#     Edge 30, Type (0, 1), BuildingBlock: EZIPEK_clean_linker_0, # of connection points: 2
#     Edge 31, Type (0, 1), BuildingBlock: EZIPEK_clean_linker_0, # of connection points: 2
#     Edge 32, Type (0, 1), BuildingBlock: EZIPEK_clean_linker_0, # of connection points: 2
#     Edge 33, Type (0, 1), BuildingBlock: EZIPEK_clean_linker_0, # of connection points: 2
#     Edge 34, Type (0, 1), BuildingBlock: EZIPEK_clean_linker_0, # of connection points: 2
#     Edge 35, Type (0, 1), BuildingBlock: EZIPEK_clean_linker_0, # of connection points: 2
#     Edge 36, Type (0, 1), BuildingBlock: EZIPEK_clean_linker_0, # of connection points: 2
#     Edge 37, Type (0, 1), BuildingBlock: EZIPEK_clean_linker_0, # of connection points: 2
#     Edge 38, Type (0, 1), BuildingBlock: EZIPEK_clean_linker_0, # of connection points: 2
#     Edge 39, Type (0, 1), BuildingBlock: EZIPEK_clean_linker_0, # of connection points: 2
#     Edge 40, Type (0, 1), BuildingBlock: EZIPEK_clean_linker_0, # of connection points: 2
#     Edge 41, Type (0, 1), BuildingBlock: EZIPEK_clean_linker_0, # of connection points: 2
#     Edge 42, Type (0, 1), BuildingBlock: EZIPEK_clean_linker_0, # of connection points: 2
#     Edge 43, Type (0, 1), BuildingBlock: EZIPEK_clean_linker_0, # of connection points: 2
#     Edge 44, Type (0, 1), BuildingBlock: EZIPEK_clean_linker_0, # of connection points: 2
#     Edge 45, Type (0, 1), BuildingBlock: EZIPEK_clean_linker_0, # of connection points: 2
#     Edge 46, Type (0, 1), BuildingBlock: EZIPEK_clean_linker_0, # of connection points: 2
#     Edge 47, Type (0, 1), BuildingBlock: EZIPEK_clean_linker_0, # of connection points: 2
#     Edge 48, Type (0, 1), BuildingBlock: EZIPEK_clean_linker_0, # of connection points: 2
#     Edge 49, Type (0, 1), BuildingBlock: EZIPEK_clean_linker_0, # of connection points: 2
#     Edge 50, Type (0, 1), BuildingBlock: EZIPEK_clean_linker_0, # of connection points: 2
#     Edge 51, Type (0, 1), BuildingBlock: EZIPEK_clean_linker_0, # of connection points: 2
#     Edge 52, Type (0, 1), BuildingBlock: EZIPEK_clean_linker_0, # of connection points: 2
#     Edge 53, Type (0, 1), BuildingBlock: EZIPEK_clean_linker_0, # of connection points: 2
#     Edge 54, Type (0, 1), BuildingBlock: EZIPEK_clean_linker_0, # of connection points: 2
#     Edge 55, Type (0, 1), BuildingBlock: EZIPEK_clean_linker_0, # of connection points: 2
#     Edge 56, Type (0, 1), BuildingBlock: EZIPEK_clean_linker_0, # of connection points: 2
#     Edge 57, Type (0, 1), BuildingBlock: EZIPEK_clean_linker_0, # of connection points: 2
#     Edge 58, Type (0, 1), BuildingBlock: EZIPEK_clean_linker_0, # of connection points: 2
#     Edge 59, Type (0, 1), BuildingBlock: EZIPEK_clean_linker_0, # of connection points: 2
#     Edge 60, Type (0, 1), BuildingBlock: EZIPEK_clean_linker_0, # of connection points: 2
#     Edge 61, Type (0, 1), BuildingBlock: EZIPEK_clean_linker_0, # of connection points: 2
#     Edge 62, Type (0, 1), BuildingBlock: EZIPEK_clean_linker_0, # of connection points: 2
#     Edge 63, Type (0, 1), BuildingBlock: EZIPEK_clean_linker_0, # of connection points: 2
#     Edge 64, Type (0, 1), BuildingBlock: EZIPEK_clean_linker_0, # of connection points: 2
#     Edge 65, Type (0, 1), BuildingBlock: EZIPEK_clean_linker_0, # of connection points: 2
#     Edge 66, Type (0, 1), BuildingBlock: EZIPEK_clean_linker_0, # of connection points: 2
#     Edge 67, Type (0, 1), BuildingBlock: EZIPEK_clean_linker_0, # of connection points: 2
#     Edge 68, Type (0, 1), BuildingBlock: EZIPEK_clean_linker_0, # of connection points: 2
#     Edge 69, Type (0, 1), BuildingBlock: EZIPEK_clean_linker_0, # of connection points: 2
#     Edge 70, Type (0, 1), BuildingBlock: EZIPEK_clean_linker_0, # of connection points: 2
#     Edge 71, Type (0, 1), BuildingBlock: EZIPEK_clean_linker_0, # of connection points: 2
#     Edge 72, Type (0, 1), BuildingBlock: EZIPEK_clean_linker_0, # of connection points: 2
#     Edge 73, Type (0, 1), BuildingBlock: EZIPEK_clean_linker_0, # of connection points: 2
#     Edge 74, Type (0, 1), BuildingBlock: EZIPEK_clean_linker_0, # of connection points: 2
#     Edge 75, Type (0, 1), BuildingBlock: EZIPEK_clean_linker_0, # of connection points: 2
# Relax obj value: 0.087
# Max RMSD: 0.191
# Mean RMSD: 0.122
data_MOF--net-ctn--node1-OLANEW_clean_sbu_2--node2-QUQFOY_clean_sbu_1--edge1-EZIPEK_clean_linker_0
_symmetry_space_group_name_H-M    P1
_symmetry_Int_Tables_number       1
_symmetry_cell_setting            triclinic
loop_
_symmetry_equiv_pos_as_xyz
'x, y, z'
_cell_length_a     43.085186
_cell_length_b     44.453984
_cell_length_c     41.699902
_cell_angle_alpha  94.426563
_cell_angle_beta   95.539598
_cell_angle_gamma 101.41772
loop_
_atom_site_label
_atom_site_type_symbol
_atom_site_fract_x
_atom_site_fract_y
_atom_site_fract_z
_atom_type_partial_charge
O0 O 0.05273 0.1286 0.06193 0.0
Cd1 Cd 0.06224 0.08683 0.09527 0.0
O2 O 0.07788 0.16451 0.10025 0.0
Cd3 Cd 0.08422 0.13152 0.13503 0.0
O4 O 0.06486 0.1027 0.17139 0.0
C5 C 0.03466 0.09673 0.17041 0.0
O6 O 0.01749 0.10724 0.14779 0.0
C7 C 0.06244 0.15699 0.07225 0.0
C8 C 0.09659 0.04312 0.07447 0.0
O9 O 0.06623 0.03834 0.06778 0.0
O10 O 0.111 0.06907 0.08964 0.0
O11 O 0.33796 0.80868 0.30786 0.0
Cd12 Cd 0.29272 0.83091 0.28733 0.0
O13 O 0.30506 0.7637 0.30178 0.0
Cd14 Cd 0.2918 0.7155 0.31089 0.0
O15 O 0.26227 0.67107 0.31721 0.0
C16 C 0.25448 0.66524 0.34501 0.0
O17 O 0.26589 0.68534 0.37021 0.0
C18 C 0.33235 0.78013 0.31188 0.0
C19 C 0.29415 0.85988 0.23025 0.0
O20 O 0.30703 0.87477 0.25739 0.0
O21 O 0.28192 0.83109 0.22984 0.0
O22 O 0.95567 0.58309 0.19264 0.0
Cd23 Cd 0.91172 0.61077 0.19308 0.0
O24 O 0.94386 0.55157 0.14763 0.0
Cd25 Cd 0.95442 0.51317 0.11752 0.0
O26 O 0.96449 0.47401 0.08829 0.0
C27 C 0.98305 0.45754 0.09975 0.0
O28 O 0.99641 0.46391 0.12983 0.0
C29 C 0.96162 0.5615 0.17393 0.0
C30 C 0.87955 0.62628 0.13773 0.0
O31 O 0.90368 0.64535 0.153 0.0
O32 O 0.8721 0.59932 0.14731 0.0
O33 O 0.74937 0.86542 0.25702 0.0
Cd34 Cd 0.70047 0.82599 0.24458 0.0
O35 O 0.76521 0.84716 0.30209 0.0
Cd36 Cd 0.72134 0.81247 0.30081 0.0
O37 O 0.67531 0.79065 0.31488 0.0
C38 C 0.66857 0.80168 0.34176 0.0
O39 O 0.68952 0.82389 0.35915 0.0
C40 C 0.76986 0.86669 0.28143 0.0
C41 C 0.70136 0.79059 0.18683 0.0
O42 O 0.7109 0.78187 0.21399 0.0
O43 O 0.69126 0.81582 0.18686 0.0
O44 O 0.20525 0.99061 0.58239 0.0
Cd45 Cd 0.20897 0.94529 0.61089 0.0
O46 O 0.15622 0.97169 0.5601 0.0
Cd47 Cd 0.11434 0.9771 0.52935 0.0
O48 O 0.07502 0.98427 0.49604 0.0
C49 C 0.07935 0.98712 0.46665 0.0
O50 O 0.10726 0.98575 0.45711 0.0
C51 C 0.18088 0.99323 0.56396 0.0
C52 C 0.15092 0.90777 0.61866 0.0
O53 O 0.16376 0.93045 0.63973 0.0
O54 O 0.16503 0.90326 0.59357 0.0
O55 O 0.31287 0.81048 0.90969 0.0
Cd56 Cd 0.33632 0.78811 0.86477 0.0
O57 O 0.26587 0.78884 0.88439 0.0
Cd58 Cd 0.21439 0.78385 0.87619 0.0
O59 O 0.16639 0.7775 0.85144 0.0
C60 C 0.16335 0.76939 0.82124 0.0
O61 O 0.18841 0.765 0.80736 0.0
C62 C 0.28272 0.80666 0.90761 0.0
C63 C 0.3396 0.72618 0.86379 0.0
O64 O 0.36304 0.74734 0.87697 0.0
O65 O 0.31414 0.73418 0.85215 0.0
O66 O 0.91137 0.53193 0.39097 0.0
Cd67 Cd 0.86137 0.54435 0.40451 0.0
O68 O 0.9292 0.5514 0.4406 0.0
Cd69 Cd 0.96605 0.56832 0.48083 0.0
O70 O 0.98361 0.60225 0.52219 0.0
C71 C 0.96325 0.6176 0.53048 0.0
O72 O 0.93449 0.61139 0.51467 0.0
C73 C 0.93419 0.53915 0.4136 0.0
C74 C 0.84507 0.51701 0.45975 0.0
O75 O 0.83689 0.5025 0.4315 0.0
O76 O 0.86089 0.54486 0.46227 0.0
O77 O 0.76599 0.76768 0.8277 0.0
Cd78 Cd 0.77189 0.792 0.77734 0.0
O79 O 0.73531 0.80025 0.83704 0.0
Cd80 Cd 0.70382 0.82581 0.86042 0.0
O81 O 0.68291 0.86685 0.8586 0.0
C82 C 0.6564 0.86962 0.8682 0.0
O83 O 0.63956 0.84689 0.88144 0.0
C84 C 0.74789 0.77824 0.84594 0.0
C85 C 0.83017 0.79208 0.75392 0.0
O86 O 0.82648 0.81482 0.77299 0.0
O87 O 0.80651 0.76937 0.74614 0.0
O88 O 0.25329 0.22671 0.29249 0.0
Cd89 Cd 0.25808 0.24961 0.24134 0.0
O90 O 0.22546 0.26129 0.30452 0.0
Cd91 Cd 0.19939 0.28836 0.33375 0.0
O92 O 0.17925 0.32896 0.34464 0.0
C93 C 0.15993 0.33629 0.32307 0.0
O94 O 0.15136 0.31864 0.29564 0.0
C95 C 0.23766 0.23875 0.31239 0.0
C96 C 0.32072 0.26259 0.22674 0.0
O97 O 0.30967 0.28292 0.24302 0.0
O98 O 0.30227 0.2364 0.21741 0.0
O99 O 0.50417 0.07263 0.59387 0.0
Cd100 Cd 0.49119 0.08798 0.53992 0.0
O101 O 0.50704 0.02712 0.57139 0.0
Cd102 Cd 0.51513 0.98024 0.57281 0.0
O103 O 0.51522 0.93243 0.55638 0.0
C104 C 0.49661 0.91001 0.56618 0.0
O105 O 0.47796 0.91531 0.58817 0.0
C106 C 0.50957 0.0458 0.59658 0.0
C107 C 0.4372 0.11352 0.53305 0.0
O108 O 0.43499 0.08428 0.52914 0.0
O109 O 0.46481 0.1309 0.54099 0.0
O110 O 0.23573 0.39998 0.69811 0.0
Cd111 Cd 0.19155 0.36158 0.66918 0.0
O112 O 0.21765 0.38122 0.74123 0.0
Cd113 Cd 0.21336 0.37884 0.79272 0.0
O114 O 0.18233 0.36345 0.8292 0.0
C115 C 0.17909 0.38071 0.85384 0.0
O116 O 0.19661 0.40872 0.85952 0.0
C117 C 0.23731 0.40084 0.72874 0.0
C118 C 0.20781 0.31349 0.63234 0.0
O119 O 0.20352 0.33796 0.61972 0.0
O120 O 0.20565 0.3122 0.66267 0.0
O121 O 0.82632 0.27628 0.82909 0.0
Cd122 Cd 0.77454 0.26629 0.79535 0.0
O123 O 0.84734 0.24361 0.80013 0.0
Cd124 Cd 0.80065 0.2231 0.77458 0.0
O125 O 0.7557 0.19074 0.77566 0.0
C126 C 0.75514 0.17339 0.79853 0.0
O127 O 0.78077 0.17583 0.81915 0.0
C128 C 0.84995 0.26412 0.82376 0.0
C129 C 0.7731 0.29791 0.73993 0.0
O130 O 0.77906 0.27075 0.7388 0.0
O131 O 0.76827 0.31046 0.7672 0.0
O132 O 0.57842 0.59663 0.52238 0.0
Cd133 Cd 0.60726 0.57083 0.56235 0.0
O134 O 0.54634 0.59791 0.55973 0.0
Cd135 Cd 0.50749 0.61019 0.58447 0.0
O136 O 0.47778 0.60209 0.62386 0.0
C137 C 0.4783 0.62227 0.64732 0.0
O138 O 0.49538 0.65023 0.64725 0.0
C139 C 0.55466 0.60573 0.53266 0.0
C140 C 0.6164 0.51081 0.5497 0.0
O141 O 0.59163 0.51572 0.56226 0.0
O142 O 0.63586 0.5339 0.54146 0.0
O143 O 0.67395 0.47933 0.02016 0.0
Cd144 Cd 0.66986 0.42385 0.02089 0.0
O145 O 0.62244 0.47379 0.00663 0.0
Cd146 Cd 0.58129 0.49336 0.99224 0.0
O147 O 0.54088 0.50892 0.9685 0.0
C148 C 0.53562 0.50365 0.9379 0.0
O149 O 0.55458 0.48974 0.92209 0.0
C150 C 0.65 0.49104 0.01245 0.0
C151 C 0.62516 0.39412 0.05802 0.0
O152 O 0.65404 0.40469 0.07037 0.0
O153 O 0.61716 0.39834 0.02856 0.0
O154 O 0.8081 0.25525 0.40675 0.0
Cd155 Cd 0.82667 0.2344 0.3576 0.0
O156 O 0.76204 0.24822 0.37707 0.0
Cd157 Cd 0.71372 0.25559 0.36636 0.0
O158 O 0.66847 0.25748 0.33909 0.0
C159 C 0.66873 0.27466 0.3161 0.0
O160 O 0.69577 0.29189 0.31047 0.0
C161 C 0.77936 0.2585 0.40354 0.0
C162 C 0.85097 0.18101 0.35997 0.0
O163 O 0.86932 0.20763 0.36713 0.0
O164 O 0.82106 0.17956 0.35278 0.0
O165 O 0.40824 0.09046 0.86925 0.0
Cd166 Cd 0.3624 0.10728 0.88929 0.0
O167 O 0.42456 0.08836 0.9202 0.0
Cd168 Cd 0.4593 0.0828 0.95952 0.0
O169 O 0.48206 0.10439 0.00667 0.0
C170 C 0.46484 0.12015 0.02074 0.0
O171 O 0.43596 0.11986 0.00715 0.0
C172 C 0.42899 0.08515 0.89062 0.0
C173 C 0.34459 0.07619 0.94211 0.0
O174 O 0.33421 0.06465 0.91305 0.0
O175 O 0.36344 0.10271 0.94661 0.0
O176 O 0.27271 0.90176 0.02212 0.0
Cd177 Cd 0.27848 0.93569 0.05987 0.0
Cd178 Cd 0.22575 0.94704 0.02548 0.0
O179 O 0.22438 0.90435 0.00092 0.0
O180 O 0.30743 0.92264 0.09388 0.0
O181 O 0.25757 0.92569 0.09993 0.0
C182 C 0.28391 0.91849 0.11108 0.0
C183 C 0.17875 0.96115 0.04081 0.0
C184 C 0.24845 0.8917 0.00153 0.0
C185 C 0.28846 0.9923 0.02683 0.0
O186 O 0.26008 0.98233 0.01363 0.0
O187 O 0.30022 0.97894 0.0495 0.0
O188 O 0.18478 0.95937 0.01114 0.0
O189 O 0.19989 0.95484 0.06193 0.0
O190 O 0.14859 0.53917 0.35992 0.0
Cd191 Cd 0.11129 0.50153 0.35702 0.0
Cd192 Cd 0.08433 0.53384 0.309 0.0
O193 O 0.12896 0.56165 0.31924 0.0
O194 O 0.1284 0.4668 0.37408 0.0
O195 O 0.1089 0.4668 0.32273 0.0
C196 C 0.12191 0.45313 0.34506 0.0
C197 C 0.05748 0.53207 0.25719 0.0
C198 C 0.15113 0.56061 0.34127 0.0
C199 C 0.05109 0.52072 0.36943 0.0
O200 O 0.05315 0.53347 0.34333 0.0
O201 O 0.07164 0.50577 0.37966 0.0
O202 O 0.06344 0.55661 0.27704 0.0
O203 O 0.06862 0.50863 0.26575 0.0
O204 O 0.70909 0.71136 0.97559 0.0
Cd205 Cd 0.7015 0.68933 0.01696 0.0
Cd206 Cd 0.75276 0.66516 0.00032 0.0
O207 O 0.7535 0.69617 0.96565 0.0
O208 O 0.67727 0.71258 0.04485 0.0
O209 O 0.72738 0.70882 0.05844 0.0
C210 C 0.70255 0.71897 0.06546 0.0
C211 C 0.79521 0.66252 0.0378 0.0
C212 C 0.73241 0.71186 0.95896 0.0
C213 C 0.69134 0.6206 0.0041 0.0
O214 O 0.719 0.62479 0.99499 0.0
O215 O 0.67973 0.64324 0.01416 0.0
O216 O 0.79424 0.65163 0.00803 0.0
O217 O 0.77369 0.67742 0.04544 0.0
O218 O 0.97849 0.99419 0.34404 0.0
Cd219 Cd 0.94782 0.99902 0.30467 0.0
Cd220 Cd 0.91638 0.02198 0.35186 0.0
O221 O 0.95558 0.01676 0.38173 0.0
O222 O 0.97226 0.99867 0.26651 0.0
O223 O 0.95486 0.03951 0.28575 0.0
C224 C 0.97034 0.02714 0.26513 0.0
C225 C 0.90049 0.06898 0.3544 0.0
C226 C 0.97779 0.00392 0.37334 0.0
C227 C 0.88183 0.96462 0.30994 0.0
O228 O 0.88193 0.98349 0.33447 0.0
O229 O 0.90545 0.96724 0.29356 0.0
O230 O 0.89437 0.0503 0.37622 0.0
O231 O 0.91625 0.06125 0.33136 0.0
O232 O 0.21431 0.18749 0.45321 0.0
Cd233 Cd 0.21482 0.17441 0.4996 0.0
Cd234 Cd 0.26445 0.14618 0.48063 0.0
O235 O 0.25567 0.16862 0.44003 0.0
O236 O 0.19201 0.20191 0.5234 0.0
O237 O 0.24355 0.20257 0.53505 0.0
C238 C 0.21871 0.21338 0.54085 0.0
C239 C 0.31706 0.1465 0.4993 0.0
C240 C 0.23408 0.18369 0.43336 0.0
C241 C 0.20749 0.10672 0.50537 0.0
O242 O 0.23342 0.10825 0.49289 0.0
O243 O 0.19543 0.13037 0.50959 0.0
O244 O 0.30312 0.12974 0.47338 0.0
O245 O 0.30161 0.16429 0.51422 0.0
O246 O 0.43191 0.53345 0.83033 0.0
Cd247 Cd 0.39899 0.54017 0.79359 0.0
Cd248 Cd 0.36692 0.55075 0.8456 0.0
O249 O 0.40566 0.54083 0.87235 0.0
O250 O 0.42225 0.54136 0.75446 0.0
O251 O 0.40378 0.58103 0.7747 0.0
C252 C 0.41869 0.56933 0.75314 0.0
C253 C 0.35716 0.60011 0.85143 0.0
C254 C 0.42999 0.53445 0.8606 0.0
C255 C 0.33406 0.49983 0.79589 0.0
O256 O 0.33235 0.51465 0.82273 0.0
O257 O 0.35829 0.50647 0.78066 0.0
O258 O 0.34728 0.58031 0.87123 0.0
O259 O 0.37233 0.59167 0.8282 0.0
O260 O 0.76777 0.34292 0.5305 0.0
Cd261 Cd 0.77117 0.37497 0.56997 0.0
Cd262 Cd 0.72271 0.39053 0.53086 0.0
O263 O 0.72246 0.34914 0.5047 0.0
O264 O 0.79502 0.3594 0.60641 0.0
O265 O 0.74501 0.36498 0.60669 0.0
C266 C 0.76954 0.35657 0.62075 0.0
C267 C 0.67515 0.40846 0.53608 0.0
C268 C 0.74564 0.33532 0.50711 0.0
C269 C 0.78768 0.43355 0.5414 0.0
O270 O 0.76044 0.42512 0.5252 0.0
O271 O 0.79627 0.41849 0.56417 0.0
O272 O 0.68652 0.40602 0.50879 0.0
O273 O 0.69061 0.3997 0.56051 0.0
O274 O 0.63927 0.06725 0.83561 0.0
Cd275 Cd 0.60205 0.03162 0.84144 0.0
Cd276 Cd 0.57473 0.05135 0.7823 0.0
O277 O 0.61956 0.07908 0.7883 0.0
O278 O 0.61951 0.0056 0.87249 0.0
O279 O 0.60249 0.98931 0.821 0.0
C280 C 0.61502 0.98408 0.84892 0.0
C281 C 0.55353 0.03832 0.72828 0.0
C282 C 0.64181 0.08294 0.81143 0.0
C283 C 0.54018 0.0527 0.84266 0.0
O284 O 0.54196 0.05829 0.81342 0.0
O285 O 0.56124 0.04138 0.8582 0.0
O286 O 0.55631 0.06569 0.7422 0.0
O287 O 0.5624 0.01768 0.7451 0.0
O288 O 0.99384 0.32956 0.01587 0.0
Cd289 Cd 0.99583 0.29221 0.98392 0.0
Cd290 Cd 0.02382 0.33737 0.94857 0.0
O291 O 0.0179 0.36583 0.98797 0.0
O292 O 0.98868 0.25561 0.00908 0.0
O293 O 0.03384 0.27187 0.98855 0.0
C294 C 0.0173 0.25264 0.00525 0.0
C295 C 0.07154 0.34783 0.92589 0.0
C296 C 0.00435 0.35783 0.01261 0.0
C297 C 0.96152 0.29686 0.91898 0.0
O298 O 0.98424 0.31911 0.91599 0.0
O299 O 0.96168 0.28236 0.9441 0.0
O300 O 0.05093 0.36507 0.92257 0.0
O301 O 0.06557 0.32474 0.94293 0.0
O302 O 0.47331 0.77083 0.48735 0.0
Cd303 Cd 0.46868 0.73333 0.45329 0.0
Cd304 Cd 0.50262 0.77506 0.41998 0.0
O305 O 0.50526 0.80357 0.46175 0.0
O306 O 0.46377 0.69544 0.47697 0.0
O307 O 0.50577 0.71254 0.45158 0.0
C308 C 0.49173 0.69307 0.46974 0.0
C309 C 0.54925 0.77585 0.39573 0.0
C310 C 0.49002 0.79755 0.48584 0.0
C311 C 0.43463 0.74838 0.39277 0.0
O312 O 0.46004 0.76797 0.39089 0.0
O313 O 0.43336 0.7298 0.41464 0.0
O314 O 0.53444 0.79829 0.39447 0.0
O315 O 0.53738 0.75247 0.41044 0.0
O316 O 0.96071 0.76117 0.71349 0.0
Cd317 Cd 0.00059 0.74695 0.70003 0.0
Cd318 Cd 0.9942 0.78568 0.65259 0.0
O319 O 0.95749 0.79504 0.67768 0.0
O320 O 0.02133 0.73056 0.73797 0.0
O321 O 0.04381 0.77205 0.71579 0.0
C322 C 0.04539 0.75293 0.73733 0.0
C323 C 0.03708 0.82363 0.64377 0.0
C324 C 0.94714 0.78127 0.70137 0.0
C325 C 0.98852 0.7184 0.63151 0.0
O326 O 0.98641 0.74486 0.62306 0.0
O327 O 0.99484 0.71429 0.66104 0.0
O328 O 0.01003 0.82017 0.62617 0.0
O329 O 0.03933 0.80632 0.66697 0.0
O330 O 0.46344 0.25493 0.20547 0.0
Cd331 Cd 0.50604 0.2448 0.19448 0.0
Cd332 Cd 0.49786 0.27978 0.1456 0.0
O333 O 0.45913 0.28733 0.16835 0.0
O334 O 0.53033 0.23478 0.23387 0.0
O335 O 0.54714 0.27502 0.20691 0.0
C336 C 0.55202 0.25847 0.23029 0.0
C337 C 0.53354 0.31891 0.12665 0.0
C338 C 0.44837 0.27309 0.19159 0.0
C339 C 0.49651 0.21211 0.12883 0.0
O340 O 0.49285 0.23769 0.11913 0.0
O341 O 0.50331 0.20958 0.15866 0.0
O342 O 0.50503 0.30951 0.11225 0.0
O343 O 0.54139 0.30737 0.15296 0.0
C344 C 0.25624 0.85083 0.91994 0.0
C345 C 0.26785 0.82509 0.93047 0.0
C346 C 0.25694 0.83875 0.98579 0.0
C347 C 0.25025 0.86697 0.97624 0.0
N348 N 0.2471 0.90176 0.93476 0.0
N349 N 0.27971 0.79407 0.97307 0.0
C350 C 0.25021 0.87331 0.94334 0.0
C351 C 0.26813 0.81879 0.96331 0.0
N352 N 0.25156 0.85419 0.88762 0.0
N353 N 0.25206 0.83096 0.01627 0.0
H354 H 0.28636 0.77803 0.9569 0.0
H355 H 0.28419 0.79021 0.99723 0.0
H356 H 0.2434 0.84498 0.03299 0.0
H357 H 0.25378 0.8096 0.02405 0.0
H358 H 0.23956 0.87038 0.87839 0.0
H359 H 0.25726 0.83923 0.86968 0.0
H360 H 0.25104 0.90901 0.91207 0.0
H361 H 0.2432 0.91932 0.95092 0.0
C362 C 0.97005 0.50329 0.40034 0.0
C363 C 0.96615 0.53386 0.40807 0.0
C364 C 0.02194 0.55371 0.4007 0.0
C365 C 0.024 0.52389 0.38765 0.0
N366 N 5e-05 0.47011 0.37352 0.0
N367 N 0.98757 0.58874 0.41405 0.0
C368 C 0.99824 0.49847 0.3875 0.0
C369 C 0.99203 0.55927 0.40838 0.0
N370 N 0.94698 0.47892 0.40583 0.0
N371 N 0.04873 0.57663 0.40586 0.0
H372 H 0.96603 0.59389 0.41966 0.0
H373 H 0.00449 0.60821 0.41088 0.0
H374 H 0.071 0.57305 0.40057 0.0
H375 H 0.04958 0.59813 0.41814 0.0
H376 H 0.94973 0.45613 0.40366 0.0
H377 H 0.92619 0.48173 0.41555 0.0
H378 H 0.98065 0.4516 0.36904 0.0
H379 H 0.02056 0.4655 0.36453 0.0
C380 C 0.767 0.77008 0.90271 0.0
C381 C 0.74206 0.76481 0.8768 0.0
C382 C 0.71053 0.72501 0.90483 0.0
C383 C 0.73503 0.73097 0.93127 0.0
N384 N 0.78314 0.76368 0.95872 0.0
N385 N 0.6877 0.74207 0.85568 0.0
C386 C 0.76232 0.75482 0.93118 0.0
C387 C 0.71295 0.74396 0.8788 0.0
N388 N 0.79536 0.78936 0.8999 0.0
N389 N 0.68593 0.70005 0.90356 0.0
H390 H 0.68892 0.75484 0.83572 0.0
H391 H 0.66482 0.72984 0.85763 0.0
H392 H 0.68357 0.68514 0.9217 0.0
H393 H 0.66933 0.69243 0.88329 0.0
H394 H 0.81582 0.79117 0.91601 0.0
H395 H 0.79896 0.80247 0.88037 0.0
H396 H 0.80171 0.78296 0.96131 0.0
H397 H 0.78017 0.75343 0.98021 0.0
C398 C 0.02424 0.96923 0.43757 0.0
C399 C 0.05308 0.99177 0.44324 0.0
C400 C 0.03297 0.02157 0.40179 0.0
C401 C 0.00335 1.00025 0.39797 0.0
N402 N 0.96867 0.95638 0.41506 0.0
N403 N 0.08304 0.04205 0.43528 0.0
C404 C 0.9983 0.97492 0.41685 0.0
C405 C 0.05702 0.01867 0.42651 0.0
N406 N 0.02222 0.94169 0.45059 0.0
N407 N 0.03822 0.04439 0.38155 0.0
H408 H 0.10088 0.04107 0.45371 0.0
H409 H 0.08564 0.06354 0.42637 0.0
H410 H 0.0207 0.04806 0.36406 0.0
H411 H 0.06048 0.05837 0.38055 0.0
H412 H 0.00313 0.92306 0.44452 0.0
H413 H 0.04092 0.93628 0.46531 0.0
H414 H 0.96257 0.93973 0.43089 0.0
H415 H 0.94936 0.95914 0.39926 0.0
C416 C 0.23857 0.29114 0.59177 0.0
C417 C 0.21355 0.28683 0.61183 0.0
C418 C 0.19873 0.23226 0.5911 0.0
C419 C 0.22001 0.23787 0.56735 0.0
N420 N 0.25818 0.2736 0.54264 0.0
N421 N 0.16643 0.25405 0.62698 0.0
C422 C 0.2397 0.26749 0.56717 0.0
C423 C 0.19288 0.25751 0.61084 0.0
N424 N 0.26165 0.31751 0.59672 0.0
N425 N 0.18447 0.20267 0.59513 0.0
H426 H 0.16028 0.27206 0.6408 0.0
H427 H 0.14881 0.23396 0.62408 0.0
H428 H 0.18876 0.18354 0.58148 0.0
H429 H 0.17116 0.197 0.61419 0.0
H430 H 0.28214 0.32065 0.58494 0.0
H431 H 0.26194 0.33501 0.615 0.0
H432 H 0.27012 0.29571 0.5393 0.0
H433 H 0.2596 0.25704 0.52405 0.0
C434 C 0.48003 0.61421 0.70648 0.0
C435 C 0.46197 0.61307 0.67584 0.0
C436 C 0.41421 0.58569 0.69704 0.0
C437 C 0.43217 0.58746 0.72769 0.0
N438 N 0.47957 0.60922 0.76399 0.0
N439 N 0.4108 0.60414 0.64378 0.0
C440 C 0.46423 0.60379 0.73319 0.0
C441 C 0.42866 0.60074 0.67168 0.0
N442 N 0.51252 0.62317 0.70961 0.0
N443 N 0.38366 0.56886 0.69194 0.0
H444 H 0.42064 0.61547 0.62498 0.0
H445 H 0.38601 0.59829 0.64039 0.0
H446 H 0.37193 0.55868 0.71037 0.0
H447 H 0.37055 0.56352 0.66919 0.0
H448 H 0.52715 0.62103 0.73033 0.0
H449 H 0.52531 0.63031 0.69063 0.0
H450 H 0.50184 0.62375 0.7701 0.0
H451 H 0.46878 0.60141 0.78401 0.0
C452 C 0.79284 0.34194 0.70762 0.0
C453 C 0.77099 0.314 0.71014 0.0
C454 C 0.74797 0.314 0.65393 0.0
C455 C 0.76848 0.34289 0.65208 0.0
N456 N 0.80608 0.38729 0.67877 0.0
N457 N 0.72347 0.27681 0.68834 0.0
C458 C 0.78965 0.35773 0.67944 0.0
C459 C 0.74729 0.30101 0.68404 0.0
N460 N 0.8175 0.35267 0.7315 0.0
N461 N 0.73026 0.2982 0.6266 0.0
H462 H 0.72195 0.26683 0.71011 0.0
H463 H 0.70362 0.26852 0.6714 0.0
H464 H 0.73009 0.30676 0.60401 0.0
H465 H 0.7178 0.27549 0.6257 0.0
H466 H 0.83623 0.37095 0.72942 0.0
H467 H 0.82077 0.34169 0.75242 0.0
H468 H 0.81934 0.40056 0.69902 0.0
H469 H 0.8041 0.39961 0.65863 0.0
C470 C 0.4969 0.03489 0.65223 0.0
C471 C 0.51892 0.03676 0.62896 0.0
C472 C 0.5603 0.02799 0.66981 0.0
C473 C 0.53992 0.03152 0.69395 0.0
N474 N 0.48854 0.0367 0.70904 0.0
N475 N 0.57167 0.03548 0.61478 0.0
C476 C 0.50796 0.03413 0.68533 0.0
C477 C 0.55048 0.03272 0.63733 0.0
N478 N 0.46534 0.03329 0.64243 0.0
N479 N 0.58922 0.02074 0.67809 0.0
H480 H 0.56538 0.03867 0.5907 0.0
H481 H 0.59597 0.03656 0.62018 0.0
H482 H 0.59751 0.01809 0.70181 0.0
H483 H 0.60389 0.01482 0.66129 0.0
H484 H 0.44745 0.02916 0.65757 0.0
H485 H 0.45659 0.03346 0.61822 0.0
H486 H 0.46637 0.04259 0.70513 0.0
H487 H 0.4952 0.03394 0.73319 0.0
C488 C 0.89318 0.24904 0.86046 0.0
C489 C 0.87976 0.27247 0.84651 0.0
C490 C 0.91826 0.31175 0.88227 0.0
C491 C 0.93391 0.28856 0.89342 0.0
N492 N 0.94049 0.23581 0.88681 0.0
N493 N 0.88465 0.32641 0.83882 0.0
C494 C 0.92266 0.25738 0.88061 0.0
C495 C 0.89386 0.30394 0.85579 0.0
N496 N 0.87707 0.219 0.85618 0.0
N497 N 0.9253 0.34085 0.89796 0.0
H498 H 0.86763 0.32156 0.81856 0.0
H499 H 0.89636 0.34948 0.84273 0.0
H500 H 0.94171 0.34732 0.91859 0.0
H501 H 0.91228 0.35761 0.89264 0.0
H502 H 0.8845 0.20173 0.86858 0.0
H503 H 0.85456 0.21181 0.84318 0.0
H504 H 0.93473 0.2134 0.87542 0.0
H505 H 0.96276 0.24115 0.90055 0.0
C506 C 0.46478 0.86524 0.52897 0.0
C507 C 0.49314 0.87868 0.54957 0.0
C508 C 0.51833 0.83654 0.5312 0.0
C509 C 0.48989 0.823 0.51084 0.0
N510 N 0.43405 0.82077 0.49465 0.0
N511 N 0.54433 0.87467 0.57551 0.0
C512 C 0.46237 0.83603 0.51139 0.0
C513 C 0.51918 0.86353 0.55227 0.0
N514 N 0.44101 0.88138 0.52439 0.0
N515 N 0.54468 0.82385 0.52988 0.0
H516 H 0.54547 0.89429 0.59138 0.0
H517 H 0.56278 0.86325 0.58094 0.0
H518 H 0.54424 0.80301 0.5163 0.0
H519 H 0.56726 0.8345 0.54101 0.0
H520 H 0.42159 0.87465 0.50667 0.0
H521 H 0.44175 0.90293 0.53655 0.0
H522 H 0.41239 0.82718 0.49723 0.0
H523 H 0.43154 0.80023 0.47989 0.0
C524 C 0.12051 0.36421 0.85659 0.0
C525 C 0.15202 0.37106 0.8727 0.0
C526 C 0.13098 0.36222 0.92461 0.0
C527 C 0.09978 0.35327 0.90796 0.0
N528 N 0.0657 0.33841 0.85754 0.0
N529 N 0.18794 0.37171 0.92093 0.0
C530 C 0.09484 0.35201 0.87375 0.0
C531 C 0.1575 0.36867 0.90645 0.0
N532 N 0.11482 0.37092 0.82537 0.0
N533 N 0.13518 0.3658 0.95769 0.0
H534 H 0.20785 0.37645 0.90834 0.0
H535 H 0.19335 0.36707 0.94468 0.0
H536 H 0.11635 0.36101 0.97172 0.0
H537 H 0.15693 0.37559 0.97121 0.0
H538 H 0.09199 0.36949 0.81373 0.0
H539 H 0.13274 0.38098 0.81208 0.0
H540 H 0.06165 0.33398 0.83242 0.0
H541 H 0.04637 0.32862 0.86925 0.0
C542 C 0.50812 0.61731 0.49786 0.0
C543 C 0.53898 0.6275 0.51503 0.0
C544 C 0.53812 0.68075 0.50377 0.0
C545 C 0.50839 0.67024 0.48433 0.0
N546 N 0.46751 0.62801 0.45834 0.0
N547 N 0.5856 0.66801 0.53052 0.0
C548 C 0.49398 0.63835 0.48018 0.0
C549 C 0.55474 0.65891 0.51658 0.0
N550 N 0.49223 0.58759 0.49867 0.0
N551 N 0.54954 0.71166 0.51189 0.0
H552 H 0.59815 0.65327 0.54193 0.0
H553 H 0.59958 0.68965 0.52871 0.0
H554 H 0.53772 0.72859 0.50417 0.0
H555 H 0.56915 0.72057 0.52894 0.0
H556 H 0.46832 0.57966 0.48985 0.0
H557 H 0.50242 0.57124 0.51012 0.0
H558 H 0.45769 0.60476 0.45174 0.0
H559 H 0.45692 0.64265 0.44453 0.0
C560 C 0.88952 0.79542 0.76137 0.0
C561 C 0.86079 0.7922 0.74044 0.0
C562 C 0.88873 0.78198 0.69362 0.0
C563 C 0.91788 0.78734 0.71426 0.0
N564 N 0.94726 0.80606 0.76652 0.0
N565 N 0.83484 0.79042 0.68616 0.0
C566 C 0.91866 0.79621 0.74779 0.0
C567 C 0.86094 0.78792 0.70639 0.0
N568 N 0.88887 0.79609 0.79413 0.0
N569 N 0.88701 0.76957 0.66229 0.0
H570 H 0.81428 0.79558 0.69457 0.0
H571 H 0.83485 0.79063 0.6612 0.0
H572 H 0.90649 0.76401 0.65198 0.0
H573 H 0.86556 0.76202 0.64742 0.0
H574 H 0.90858 0.795 0.81021 0.0
H575 H 0.86798 0.79486 0.80512 0.0
H576 H 0.94936 0.81572 0.7904 0.0
H577 H 0.96909 0.80746 0.75724 0.0
C578 C 0.12164 0.85464 0.62616 0.0
C579 C 0.12133 0.8863 0.62406 0.0
C580 C 0.06601 0.87737 0.6368 0.0
C581 C 0.06561 0.84533 0.6362 0.0
N582 N 0.09059 0.80261 0.62292 0.0
N583 N 0.0917 0.92691 0.62133 0.0
C584 C 0.09273 0.8337 0.62876 0.0
C585 C 0.09306 0.89745 0.62768 0.0
N586 N 0.14978 0.84472 0.62719 0.0
N587 N 0.04116 0.88879 0.64732 0.0
H588 H 0.11091 0.94214 0.6142 0.0
H589 H 0.07076 0.93533 0.62025 0.0
H590 H 0.02107 0.87484 0.65445 0.0
H591 H 0.04163 0.91227 0.65163 0.0
H592 H 0.15181 0.82258 0.63234 0.0
H593 H 0.1717 0.85933 0.62607 0.0
H594 H 0.10862 0.79304 0.61398 0.0
H595 H 0.06964 0.78642 0.6238 0.0
C596 C 0.11585 0.78944 0.79925 0.0
C597 C 0.13196 0.76464 0.80166 0.0
C598 C 0.09182 0.73243 0.76098 0.0
C599 C 0.07445 0.75641 0.76038 0.0
N600 N 0.06623 0.80517 0.78377 0.0
N601 N 0.13178 0.71054 0.79044 0.0
C602 C 0.08537 0.7842 0.78096 0.0
C603 C 0.1189 0.73551 0.78418 0.0
N604 N 0.13024 0.81835 0.81308 0.0
N605 N 0.08346 0.70738 0.73839 0.0
H606 H 0.1513 0.71176 0.80772 0.0
H607 H 0.12124 0.68809 0.78087 0.0
H608 H 0.06414 0.70442 0.72052 0.0
H609 H 0.09741 0.69093 0.73547 0.0
H610 H 0.12113 0.83793 0.80901 0.0
H611 H 0.15273 0.82334 0.82635 0.0
H612 H 0.07155 0.82433 0.8009 0.0
H613 H 0.04352 0.80191 0.77114 0.0
C614 C 0.99589 0.66863 0.55556 0.0
C615 C 0.97152 0.6424 0.55747 0.0
C616 C 0.95733 0.66667 0.60719 0.0
C617 C 0.98318 0.69188 0.60655 0.0
N618 N 0.03106 0.71414 0.58409 0.0
N619 N 0.93358 0.61343 0.58837 0.0
C620 C 0.00367 0.69208 0.58188 0.0
C621 C 0.95356 0.64052 0.58428 0.0
N622 N 0.01057 0.67192 0.52801 0.0
N623 N 0.93554 0.66826 0.62871 0.0
H624 H 0.93059 0.59359 0.57234 0.0
H625 H 0.92239 0.60972 0.60919 0.0
H626 H 0.93715 0.68719 0.64565 0.0
H627 H 0.91433 0.65206 0.62787 0.0
H628 H 0.02588 0.69215 0.52387 0.0
H629 H 0.00539 0.65547 0.50798 0.0
H630 H 0.0486 0.71355 0.56865 0.0
H631 H 0.03773 0.73151 0.60321 0.0
C632 C 0.79551 0.92302 0.28976 0.0
C633 C 0.79869 0.89176 0.28662 0.0
C634 C 0.8566 0.90819 0.29976 0.0
C635 C 0.85357 0.93945 0.30038 0.0
N636 N 0.82106 0.97655 0.28878 0.0
N637 N 0.83253 0.8548 0.28176 0.0
C638 C 0.82327 0.94685 0.29322 0.0
C639 C 0.82935 0.88439 0.28959 0.0
N640 N 0.76613 0.93003 0.29114 0.0
N641 N 0.88509 0.90113 0.31035 0.0
H642 H 0.81315 0.83684 0.27371 0.0
H643 H 0.8545 0.84868 0.28024 0.0
H644 H 0.90555 0.91782 0.31851 0.0
H645 H 0.88774 0.87878 0.31382 0.0
H646 H 0.76285 0.95231 0.297 0.0
H647 H 0.74514 0.91335 0.2895 0.0
H648 H 0.7999 0.98273 0.28022 0.0
H649 H 0.84093 0.9946 0.29053 0.0
C650 C 0.8589 0.13285 0.32923 0.0
C651 C 0.8642 0.15264 0.35851 0.0
C652 C 0.89724 0.11974 0.38335 0.0
C653 C 0.88879 0.09818 0.35542 0.0
N654 N 0.85645 0.0814 0.30415 0.0
N655 N 0.88399 0.16233 0.41528 0.0
C656 C 0.86826 0.10396 0.32894 0.0
C657 C 0.88224 0.14544 0.3861 0.0
N658 N 0.84612 0.14214 0.30131 0.0
N659 N 0.92042 0.11628 0.40675 0.0
H660 H 0.87286 0.18097 0.41844 0.0
H661 H 0.89393 0.15612 0.43692 0.0
H662 H 0.93244 0.0981 0.40529 0.0
H663 H 0.92991 0.13295 0.42599 0.0
H664 H 0.84491 0.13004 0.27866 0.0
H665 H 0.83968 0.16347 0.30017 0.0
H666 H 0.83865 0.08325 0.28607 0.0
H667 H 0.86205 0.0596 0.30323 0.0
C668 C 0.34749 0.03122 0.97343 0.0
C669 C 0.33569 0.05841 0.96953 0.0
C670 C 0.30121 0.04643 0.01224 0.0
C671 C 0.30888 0.01686 0.0119 0.0
N672 N 0.33794 0.97986 0.99079 0.0
N673 N 0.30157 0.0927 0.98478 0.0
C674 C 0.33214 0.00908 0.99263 0.0
C675 C 0.31301 0.06657 0.98924 0.0
N676 N 0.3735 0.0267 0.95882 0.0
N677 N 0.28269 0.05507 0.03465 0.0
H678 H 0.31023 0.10828 0.96868 0.0
H679 H 0.28238 0.09817 0.99566 0.0
H680 H 0.27397 0.04063 0.05177 0.0
H681 H 0.27832 0.07722 0.03819 0.0
H682 H 0.3853 0.0089 0.96336 0.0
H683 H 0.38517 0.04253 0.94449 0.0
H684 H 0.35147 0.97176 0.97398 0.0
H685 H 0.3275 0.96282 0.00451 0.0
C686 C 0.16157 0.39065 0.31001 0.0
C687 C 0.14917 0.36581 0.32771 0.0
C688 C 0.11552 0.39707 0.35309 0.0
C689 C 0.13008 0.42272 0.33769 0.0
N690 N 0.17009 0.44562 0.30515 0.0
N691 N 0.11666 0.34563 0.36823 0.0
C692 C 0.15375 0.41993 0.31687 0.0
C693 C 0.12684 0.36913 0.34995 0.0
N694 N 0.181 0.38634 0.28673 0.0
N695 N 0.08999 0.39911 0.36965 0.0
H696 H 0.12308 0.32424 0.36538 0.0
H697 H 0.10343 0.34787 0.38756 0.0
H698 H 0.08079 0.41908 0.37204 0.0
H699 H 0.07614 0.38039 0.37864 0.0
H700 H 0.18751 0.40222 0.27024 0.0
H701 H 0.18913 0.36598 0.28242 0.0
H702 H 0.19015 0.44584 0.29304 0.0
H703 H 0.16529 0.46754 0.30973 0.0
C704 C 0.1859 0.05026 0.56768 0.0
C705 C 0.18134 0.02197 0.54803 0.0
C706 C 0.18422 0.04999 0.49958 0.0
C707 C 0.19427 0.07811 0.51971 0.0
N708 N 0.20812 0.10498 0.57353 0.0
N709 N 0.17759 0.99431 0.49519 0.0
C710 C 0.19559 0.07836 0.55394 0.0
C711 C 0.18038 0.02158 0.51385 0.0
N712 N 0.18058 0.05023 0.59947 0.0
N713 N 0.17807 0.05056 0.4669 0.0
H714 H 0.17448 0.97303 0.50466 0.0
H715 H 0.18045 0.9929 0.47065 0.0
H716 H 0.18055 0.07112 0.45595 0.0
H717 H 0.16775 0.03108 0.45111 0.0
H718 H 0.18037 0.07019 0.61422 0.0
H719 H 0.17312 0.02997 0.61019 0.0
H720 H 0.21322 0.10559 0.59854 0.0
H721 H 0.216 0.12619 0.56487 0.0
C722 C 0.70843 0.15449 0.82841 0.0
C723 C 0.72609 0.1503 0.80193 0.0
C724 C 0.69069 0.10019 0.78446 0.0
C725 C 0.67155 0.10554 0.80929 0.0
N726 N 0.65928 0.13907 0.85237 0.0
N727 N 0.73287 0.121 0.75286 0.0
C728 C 0.67973 0.13295 0.83077 0.0
C729 C 0.71679 0.12373 0.77932 0.0
N730 N 0.71911 0.17907 0.85128 0.0
N731 N 0.68471 0.07201 0.76675 0.0
H732 H 0.75328 0.13678 0.74919 0.0
H733 H 0.72494 0.10417 0.73346 0.0
H734 H 0.66605 0.05405 0.77012 0.0
H735 H 0.69971 0.06537 0.75067 0.0
H736 H 0.70964 0.18142 0.87315 0.0
H737 H 0.73879 0.19648 0.84932 0.0
H738 H 0.66194 0.16014 0.86616 0.0
H739 H 0.63811 0.1238 0.85491 0.0
C740 C 0.40416 0.14366 0.50064 0.0
C741 C 0.40837 0.12673 0.5277 0.0
C742 C 0.3536 0.12671 0.53911 0.0
C743 C 0.34946 0.14367 0.5121 0.0
N744 N 0.37213 0.17449 0.47191 0.0
N745 N 0.39043 0.10851 0.57702 0.0
C746 C 0.37528 0.15419 0.49443 0.0
C747 C 0.38409 0.12029 0.54834 0.0
N748 N 0.42696 0.14815 0.47985 0.0
N749 N 0.32804 0.11535 0.55486 0.0
H750 H 0.4126 0.10369 0.58448 0.0
H751 H 0.37485 0.10613 0.59468 0.0
H752 H 0.30549 0.1201 0.54932 0.0
H753 H 0.32859 0.09964 0.57207 0.0
H754 H 0.42369 0.15707 0.4577 0.0
H755 H 0.44852 0.14094 0.48356 0.0
H756 H 0.39096 0.18544 0.46033 0.0
H757 H 0.3512 0.18259 0.46699 0.0
C758 C 0.62283 0.46413 0.51505 0.0
C759 C 0.62349 0.47945 0.54632 0.0
C760 C 0.6431 0.43723 0.57077 0.0
C761 C 0.64886 0.4258 0.53974 0.0
N762 N 0.62843 0.41765 0.4834 0.0
N763 N 0.63385 0.48071 0.60448 0.0
C764 C 0.63387 0.436 0.51202 0.0
C765 C 0.63283 0.46569 0.5744 0.0
N766 N 0.61261 0.47698 0.48829 0.0
N767 N 0.64548 0.41996 0.59623 0.0
H768 H 0.62633 0.50144 0.60835 0.0
H769 H 0.64425 0.47372 0.62547 0.0
H770 H 0.64897 0.39741 0.59316 0.0
H771 H 0.63935 0.42597 0.61905 0.0
H772 H 0.61519 0.4691 0.46473 0.0
H773 H 0.6027 0.49657 0.48977 0.0
H774 H 0.61569 0.42247 0.46259 0.0
H775 H 0.63322 0.39551 0.48179 0.0
C776 C 0.76238 0.30662 0.4235 0.0
C777 C 0.76733 0.27673 0.42907 0.0
C778 C 0.75179 0.28324 0.48396 0.0
C779 C 0.7503 0.31425 0.47952 0.0
N780 N 0.75957 0.3573 0.4471 0.0
N781 N 0.7685 0.23663 0.46464 0.0
C782 C 0.75663 0.32636 0.4497 0.0
C783 C 0.76249 0.26502 0.45935 0.0
N784 N 0.76365 0.31646 0.39328 0.0
N785 N 0.7422 0.27111 0.51141 0.0
H786 H 0.77459 0.22198 0.44661 0.0
H787 H 0.76907 0.22815 0.48722 0.0
H788 H 0.73413 0.28393 0.52969 0.0
H789 H 0.73975 0.2479 0.51502 0.0
H790 H 0.75602 0.33621 0.38684 0.0
H791 H 0.77013 0.30389 0.37381 0.0
H792 H 0.76812 0.36806 0.42746 0.0
H793 H 0.75633 0.373 0.46573 0.0
C794 C 0.45481 0.04724 0.86144 0.0
C795 C 0.45798 0.07545 0.88103 0.0
C796 C 0.51607 0.08504 0.88111 0.0
C797 C 0.5124 0.05891 0.85822 0.0
N798 N 0.47866 0.01565 0.82503 0.0
N799 N 0.49087 0.12287 0.90747 0.0
C800 C 0.48185 0.04011 0.84798 0.0
C801 C 0.48846 0.09465 0.89071 0.0
N802 N 0.42617 0.02673 0.85677 0.0
N803 N 0.54594 0.10079 0.89344 0.0
H804 H 0.47124 0.13089 0.91476 0.0
H805 H 0.51194 0.13943 0.9121 0.0
H806 H 0.56669 0.09527 0.88592 0.0
H807 H 0.55032 0.11785 0.91282 0.0
H808 H 0.42305 0.00442 0.84557 0.0
H809 H 0.40596 0.03097 0.86671 0.0
H810 H 0.45677 0.00352 0.81346 0.0
H811 H 0.49808 0.00839 0.81618 0.0
C812 C 0.20685 0.2077 0.35103 0.0
C813 C 0.23534 0.22734 0.34468 0.0
C814 C 0.26082 0.22201 0.39851 0.0
C815 C 0.23383 0.19932 0.4032 0.0
N816 N 0.18227 0.16806 0.38295 0.0
N817 N 0.29033 0.2519 0.36094 0.0
C818 C 0.20695 0.19169 0.37934 0.0
C819 C 0.26259 0.23413 0.36803 0.0
N820 N 0.17976 0.20431 0.32996 0.0
N821 N 0.28412 0.233 0.4237 0.0
H822 H 0.29207 0.26285 0.33974 0.0
H823 H 0.31209 0.25437 0.37515 0.0
H824 H 0.28338 0.22526 0.44666 0.0
H825 H 0.30267 0.2518 0.42287 0.0
H826 H 0.15741 0.19298 0.33483 0.0
H827 H 0.17911 0.21495 0.30854 0.0
H828 H 0.1636 0.15908 0.36487 0.0
H829 H 0.18163 0.15563 0.40317 0.0
C830 C 0.51369 0.53819 0.90109 0.0
C831 C 0.50826 0.51286 0.92 0.0
C832 C 0.45139 0.50151 0.89987 0.0
C833 C 0.45654 0.52779 0.88226 0.0
N834 N 0.4909 0.57448 0.8706 0.0
N835 N 0.47179 0.47318 0.94169 0.0
C836 C 0.48726 0.54707 0.88409 0.0
C837 C 0.47699 0.4955 0.92088 0.0
N838 N 0.54417 0.55357 0.89917 0.0
N839 N 0.42257 0.48129 0.89508 0.0
H840 H 0.4901 0.467 0.95629 0.0
H841 H 0.44917 0.46226 0.94624 0.0
H842 H 0.40329 0.48459 0.87961 0.0
H843 H 0.41843 0.45992 0.90428 0.0
H844 H 0.55006 0.5697 0.88277 0.0
H845 H 0.56402 0.54892 0.91273 0.0
H846 H 0.51197 0.59109 0.87389 0.0
H847 H 0.47197 0.58195 0.85836 0.0
C848 C 0.68172 0.7425 0.14895 0.0
C849 C 0.70213 0.772 0.15603 0.0
C850 C 0.72158 0.76741 0.10286 0.0
C851 C 0.70282 0.73709 0.09676 0.0
N852 N 0.66933 0.69349 0.11574 0.0
N853 N 0.74537 0.81061 0.14256 0.0
C854 C 0.68406 0.72397 0.1203 0.0
C855 C 0.72314 0.78397 0.13374 0.0
N856 N 0.65924 0.7327 0.16899 0.0
N857 N 0.737 0.78078 0.07874 0.0
H858 H 0.74729 0.82335 0.16501 0.0
H859 H 0.76362 0.81876 0.12883 0.0
H860 H 0.7366 0.76928 0.05588 0.0
H861 H 0.7481 0.80397 0.08044 0.0
H862 H 0.64132 0.713 0.16329 0.0
H863 H 0.65679 0.7456 0.19023 0.0
H864 H 0.65825 0.68169 0.13355 0.0
H865 H 0.67051 0.67917 0.09505 0.0
C866 C 0.02485 0.09003 0.22807 0.0
C867 C 0.01875 0.0787 0.19482 0.0
C868 C 0.97812 0.03565 0.20746 0.0
C869 C 0.98643 0.04533 0.24094 0.0
N870 N 0.02187 0.07834 0.28359 0.0
N871 N 0.99386 0.0379 0.15332 0.0
C872 C 0.01093 0.07163 0.25143 0.0
C873 C 0.99653 0.05071 0.1846 0.0
N874 N 0.04288 0.1189 0.23728 0.0
N875 N 0.95192 0.01282 0.1974 0.0
H876 H 0.00732 0.04799 0.13597 0.0
H877 H 0.98056 0.01593 0.14531 0.0
H878 H 0.93754 0.00156 0.2134 0.0
H879 H 0.94271 0.00703 0.1732 0.0
H880 H 0.04515 0.12968 0.26072 0.0
H881 H 0.05325 0.13331 0.22094 0.0
H882 H 0.04203 0.09517 0.29223 0.0
H883 H 0.01265 0.06525 0.30151 0.0
C884 C 0.30309 0.86324 0.17183 0.0
C885 C 0.29249 0.87568 0.20014 0.0
C886 C 0.27951 0.91835 0.17093 0.0
C887 C 0.28664 0.90389 0.14181 0.0
N888 N 0.29819 0.85863 0.11334 0.0
N889 N 0.26425 0.91171 0.22468 0.0
C890 C 0.29654 0.87524 0.1419 0.0
C891 C 0.27901 0.90239 0.19923 0.0
N892 N 0.32044 0.84067 0.17364 0.0
N893 N 0.27426 0.94772 0.17193 0.0
H894 H 0.26224 0.90016 0.24543 0.0
H895 H 0.25115 0.92904 0.22381 0.0
H896 H 0.27497 0.96039 0.15189 0.0
H897 H 0.27229 0.96055 0.19335 0.0
H898 H 0.33149 0.83302 0.15435 0.0
H899 H 0.32665 0.8319 0.1953 0.0
H900 H 0.3021 0.8362 0.11205 0.0
H901 H 0.29225 0.86579 0.09073 0.0
C902 C 0.02007 0.56453 0.18692 0.0
C903 C 0.98852 0.54708 0.18467 0.0
C904 C 0.00563 0.51196 0.22188 0.0
C905 C 0.03655 0.53125 0.22661 0.0
N906 N 0.07597 0.56907 0.20666 0.0
N907 N 0.95322 0.49918 0.191 0.0
C908 C 0.04467 0.55521 0.20651 0.0
C909 C 0.9821 0.51886 0.19884 0.0
N910 N 0.02605 0.59067 0.17139 0.0
N911 N 0.99789 0.4888 0.24126 0.0
H912 H 0.93519 0.50405 0.17498 0.0
H913 H 0.94813 0.4769 0.19798 0.0
H914 H 0.01444 0.48235 0.2578 0.0
H915 H 0.9747 0.47681 0.24213 0.0
H916 H 0.04765 0.60654 0.17487 0.0
H917 H 0.0087 0.59692 0.15549 0.0
H918 H 0.08409 0.5853 0.19106 0.0
H919 H 0.09419 0.56206 0.22065 0.0
C920 C 0.35248 0.76274 0.36417 0.0
C921 C 0.3562 0.76703 0.33129 0.0
C922 C 0.40688 0.74965 0.33736 0.0
C923 C 0.40558 0.75023 0.3713 0.0
N924 N 0.37881 0.76183 0.41781 0.0
N925 N 0.38701 0.76555 0.28621 0.0
C926 C 0.37859 0.75744 0.38493 0.0
C927 C 0.38339 0.76061 0.31771 0.0
N928 N 0.32415 0.76421 0.37579 0.0
N929 N 0.4303 0.73802 0.32396 0.0
H930 H 0.36956 0.77216 0.27078 0.0
H931 H 0.40793 0.76478 0.27588 0.0
H932 H 0.44736 0.72923 0.33773 0.0
H933 H 0.4311 0.73437 0.29912 0.0
H934 H 0.31885 0.75762 0.39841 0.0
H935 H 0.30485 0.76947 0.36189 0.0
H936 H 0.36158 0.77094 0.42888 0.0
H937 H 0.39753 0.75914 0.43432 0.0
C938 C 0.96281 0.40717 0.0658 0.0
C939 C 0.98894 0.43088 0.07933 0.0
C940 C 0.0256 0.40348 0.05356 0.0
C941 C 0.99913 0.38201 0.0368 0.0
N942 N 0.94212 0.36639 0.02276 0.0
N943 N 0.04492 0.4541 0.08263 0.0
C944 C 0.96758 0.38453 0.04188 0.0
C945 C 0.02034 0.42965 0.07246 0.0
N946 N 0.9336 0.40569 0.07653 0.0
N947 N 0.05574 0.39842 0.05208 0.0
H948 H 0.04206 0.4739 0.09615 0.0
H949 H 0.0676 0.45596 0.07529 0.0
H950 H 0.06044 0.37933 0.03873 0.0
H951 H 0.07571 0.41149 0.06643 0.0
H952 H 0.91453 0.38709 0.07 0.0
H953 H 0.92927 0.42151 0.0945 0.0
H954 H 0.91886 0.36968 0.02298 0.0
H955 H 0.94441 0.34987 0.00447 0.0
C956 C 0.63672 0.77984 0.38476 0.0
C957 C 0.63738 0.79035 0.35351 0.0
C958 C 0.57914 0.78275 0.34749 0.0
C959 C 0.57915 0.7774 0.38058 0.0
N960 N 0.60856 0.77413 0.43213 0.0
N961 N 0.60939 0.80539 0.30626 0.0
C962 C 0.60804 0.77645 0.39958 0.0
C963 C 0.60861 0.79245 0.33494 0.0
N964 N 0.66338 0.77252 0.40001 0.0
N965 N 0.55093 0.77799 0.3279 0.0
H966 H 0.6304 0.81338 0.29631 0.0
H967 H 0.5894 0.8107 0.29366 0.0
H968 H 0.52892 0.77027 0.3362 0.0
H969 H 0.54956 0.77858 0.30289 0.0
H970 H 0.66347 0.76187 0.4214 0.0
H971 H 0.68463 0.77418 0.38955 0.0
H972 H 0.62956 0.77694 0.44771 0.0
H973 H 0.58827 0.77201 0.44418 0.0
C974 C 0.03521 0.20176 0.07039 0.0
C975 C 0.05161 0.18142 0.05427 0.0
C976 C 0.04441 0.20686 0.00456 0.0
C977 C 0.03113 0.2291 0.02193 0.0
N978 N 0.0222 0.25219 0.07368 0.0
N979 N 0.07649 0.16773 0.00743 0.0
C980 C 0.02904 0.22788 0.05554 0.0
C981 C 0.05756 0.18482 0.02169 0.0
N982 N 0.02391 0.19535 0.09919 0.0
N983 N 0.04323 0.20585 0.97163 0.0
H984 H 0.08666 0.15162 0.01933 0.0
H985 H 0.08435 0.17143 0.98494 0.0
H986 H 0.03346 0.22125 0.95822 0.0
H987 H 0.04944 0.18816 0.95739 0.0
H988 H 0.00908 0.2079 0.11016 0.0
H989 H 0.0261 0.17552 0.11026 0.0
H990 H 0.02349 0.25363 0.09886 0.0
H991 H 0.01884 0.27245 0.06408 0.0
C992 C 0.38024 0.27722 0.24204 0.0
C993 C 0.35368 0.26925 0.21779 0.0
C994 C 0.38931 0.2647 0.17621 0.0
C995 C 0.41604 0.27447 0.20008 0.0
N996 N 0.4373 0.29638 0.25429 0.0
N997 N 0.33348 0.26384 0.1612 0.0
C998 C 0.41159 0.28276 0.2326 0.0
C999 C 0.35841 0.26566 0.18467 0.0
N1000 N 0.37567 0.27787 0.27405 0.0
N1001 N 0.39299 0.25255 0.146 0.0
H1002 H 0.31057 0.26516 0.16645 0.0
H1003 H 0.33628 0.26436 0.13668 0.0
H1004 H 0.41494 0.2502 0.13877 0.0
H1005 H 0.37384 0.24193 0.12904 0.0
H1006 H 0.39418 0.28014 0.29265 0.0
H1007 H 0.35316 0.27355 0.28204 0.0
H1008 H 0.43531 0.3057 0.27751 0.0
H1009 H 0.46051 0.30102 0.248 0.0
C1010 C 0.59263 0.34294 0.067 0.0
C1011 C 0.60223 0.37511 0.07641 0.0
C1012 C 0.56654 0.37069 0.11915 0.0
C1013 C 0.5579 0.33845 0.1104 0.0
N1014 N 0.56586 0.29277 0.07997 0.0
N1015 N 0.60156 0.41954 0.11316 0.0
C1016 C 0.57179 0.32427 0.08538 0.0
C1017 C 0.59023 0.38897 0.10314 0.0
N1018 N 0.60332 0.33024 0.04032 0.0
N1019 N 0.5513 0.38385 0.14203 0.0
H1020 H 0.61761 0.43393 0.10098 0.0
H1021 H 0.59651 0.43044 0.13444 0.0
H1022 H 0.53443 0.37093 0.15462 0.0
H1023 H 0.55384 0.40752 0.14733 0.0
H1024 H 0.59401 0.30795 0.02958 0.0
H1025 H 0.62052 0.34246 0.02761 0.0
H1026 H 0.57797 0.28071 0.06479 0.0
H1027 H 0.55036 0.27827 0.09259 0.0
C1028 C 0.6124 0.28157 0.30538 0.0
C1029 C 0.63942 0.27263 0.2937 0.0
C1030 C 0.61046 0.25953 0.23922 0.0
C1031 C 0.58249 0.2654 0.25168 0.0
N1032 N 0.55556 0.28006 0.29661 0.0
N1033 N 0.66309 0.24875 0.25096 0.0
C1034 C 0.58309 0.27585 0.28481 0.0
C1035 C 0.63831 0.26074 0.26091 0.0
N1036 N 0.61516 0.29652 0.33577 0.0
N1037 N 0.61035 0.25248 0.20668 0.0
H1038 H 0.68372 0.24854 0.26614 0.0
H1039 H 0.66219 0.23648 0.22848 0.0
H1040 H 0.59001 0.24941 0.1901 0.0
H1041 H 0.63095 0.25179 0.19571 0.0
H1042 H 0.59739 0.3065 0.34464 0.0
H1043 H 0.63634 0.30126 0.35135 0.0
H1044 H 0.55347 0.28398 0.32117 0.0
H1045 H 0.53411 0.27801 0.28188 0.0
C1046 C 0.46025 0.13617 0.07841 0.0
C1047 C 0.47723 0.1402 0.05105 0.0
C1048 C 0.51267 0.18621 0.07993 0.0
C1049 C 0.49227 0.18512 0.10468 0.0
N1050 N 0.44513 0.16034 0.12689 0.0
N1051 N 0.51805 0.17069 0.02421 0.0
C1052 C 0.46588 0.1602 0.10409 0.0
C1053 C 0.50339 0.16539 0.0515 0.0
N1054 N 0.43902 0.10918 0.07993 0.0
N1055 N 0.54106 0.20703 0.08383 0.0
H1056 H 0.5119 0.1563 0.00265 0.0
H1057 H 0.53465 0.19072 0.0221 0.0
H1058 H 0.54865 0.22227 0.1047 0.0
H1059 H 0.55836 0.20711 0.06802 0.0
H1060 H 0.42812 0.10363 0.10054 0.0
H1061 H 0.43469 0.091 0.0616 0.0
H1062 H 0.42344 0.14473 0.12541 0.0
H1063 H 0.44838 0.17744 0.1462 0.0
C1064 C 0.25594 0.45656 0.74917 0.0
C1065 C 0.26031 0.4257 0.74921 0.0
C1066 C 0.31192 0.44334 0.7823 0.0
C1067 C 0.30767 0.47419 0.782 0.0
N1068 N 0.27433 0.51041 0.76998 0.0
N1069 N 0.28913 0.38866 0.7697 0.0
C1070 C 0.27916 0.48085 0.76701 0.0
C1071 C 0.28725 0.41876 0.76714 0.0
N1072 N 0.22979 0.46259 0.7315 0.0
N1073 N 0.33993 0.43771 0.79647 0.0
H1074 H 0.27216 0.37011 0.75786 0.0
H1075 H 0.30632 0.38178 0.78509 0.0
H1076 H 0.35772 0.45491 0.80944 0.0
H1077 H 0.34639 0.41636 0.79432 0.0
H1078 H 0.22689 0.48461 0.72696 0.0
H1079 H 0.21116 0.4453 0.72007 0.0
H1080 H 0.25283 0.51651 0.7627 0.0
H1081 H 0.29136 0.52899 0.78168 0.0
C1082 C 0.35262 0.6799 0.88887 0.0
C1083 C 0.34244 0.69337 0.86101 0.0
C1084 C 0.33688 0.64394 0.82832 0.0
C1085 C 0.35122 0.63187 0.85514 0.0
N1086 N 0.37838 0.64058 0.90958 0.0
N1087 N 0.33112 0.68976 0.8027 0.0
C1088 C 0.36056 0.65039 0.88514 0.0
C1089 C 0.33614 0.67581 0.83028 0.0
N1090 N 0.35373 0.6948 0.91901 0.0
N1091 N 0.32297 0.62485 0.80131 0.0
H1092 H 0.33162 0.71329 0.8027 0.0
H1093 H 0.32978 0.67857 0.77956 0.0
H1094 H 0.32206 0.60115 0.79926 0.0
H1095 H 0.3094 0.63196 0.7824 0.0
H1096 H 0.35792 0.68463 0.94027 0.0
H1097 H 0.34719 0.71605 0.92283 0.0
H1098 H 0.38859 0.65462 0.93063 0.0
H1099 H 0.38575 0.61962 0.90757 0.0
C1100 C 0.85106 0.47544 0.49489 0.0
C1101 C 0.83722 0.50101 0.48857 0.0
C1102 C 0.80106 0.48817 0.52955 0.0
C1103 C 0.81015 0.4593 0.53046 0.0
N1104 N 0.84399 0.42485 0.51416 0.0
N1105 N 0.80009 0.53325 0.50044 0.0
C1106 C 0.83582 0.45303 0.51389 0.0
C1107 C 0.81299 0.50829 0.50663 0.0
N1108 N 0.87872 0.47265 0.48252 0.0
N1109 N 0.7807 0.49592 0.55042 0.0
H1110 H 0.80876 0.54879 0.4843 0.0
H1111 H 0.77988 0.5378 0.51001 0.0
H1112 H 0.77195 0.48136 0.56744 0.0
H1113 H 0.77487 0.51754 0.55294 0.0
H1114 H 0.89167 0.45605 0.4886 0.0
H1115 H 0.89037 0.48894 0.46861 0.0
H1116 H 0.8595 0.41754 0.49906 0.0
H1117 H 0.83398 0.40791 0.52821 0.0
C1118 C 0.61442 0.89799 0.84755 0.0
C1119 C 0.64489 0.89867 0.86437 0.0
C1120 C 0.65684 0.95511 0.86735 0.0
C1121 C 0.62519 0.95456 0.85378 0.0
N1122 N 0.57178 0.92542 0.83707 0.0
N1123 N 0.69211 0.92817 0.89688 0.0
C1124 C 0.60334 0.92597 0.84557 0.0
C1125 C 0.66525 0.92733 0.8762 0.0
N1126 N 0.59661 0.87095 0.83213 0.0
N1127 N 0.67939 0.98187 0.87043 0.0
H1128 H 0.69858 0.90839 0.9049 0.0
H1129 H 0.70604 0.94857 0.90875 0.0
H1130 H 0.67469 0.00254 0.86299 0.0
H1131 H 0.70352 0.98278 0.8771 0.0
H1132 H 0.57582 0.8698 0.81668 0.0
H1133 H 0.60411 0.85005 0.83215 0.0
H1134 H 0.55431 0.90521 0.83415 0.0
H1135 H 0.56254 0.94535 0.83605 0.0
C1136 C 0.65105 0.53667 0.9802 0.0
C1137 C 0.65462 0.5248 0.01073 0.0
C1138 C 0.67424 0.57723 0.03749 0.0
C1139 C 0.67445 0.5886 0.00655 0.0
N1140 N 0.66283 0.58047 0.94859 0.0
N1141 N 0.66787 0.5328 0.06861 0.0
C1142 C 0.66238 0.56871 0.97795 0.0
C1143 C 0.66538 0.5449 0.03948 0.0
N1144 N 0.63714 0.51724 0.95339 0.0
N1145 N 0.68282 0.59738 0.0649 0.0
H1146 H 0.6593 0.50958 0.07125 0.0
H1147 H 0.6792 0.54526 0.09012 0.0
H1148 H 0.69092 0.62103 0.06455 0.0
H1149 H 0.6803 0.59125 0.08821 0.0
H1150 H 0.63068 0.52463 0.93112 0.0
H1151 H 0.63007 0.49346 0.95373 0.0
H1152 H 0.65802 0.5671 0.9264 0.0
H1153 H 0.66924 0.60405 0.94636 0.0
C1154 C 0.2349 0.60793 0.34038 0.0
C1155 C 0.22935 0.63796 0.34794 0.0
C1156 C 0.17497 0.61585 0.3584 0.0
C1157 C 0.17914 0.58635 0.34656 0.0
N1158 N 0.21195 0.5538 0.32433 0.0
N1159 N 0.19295 0.67111 0.36017 0.0
C1160 C 0.20892 0.58214 0.3373 0.0
C1161 C 0.19918 0.64212 0.35624 0.0
N1162 N 0.26514 0.60411 0.33683 0.0
N1163 N 0.148 0.61865 0.37218 0.0
H1164 H 0.20977 0.6911 0.35839 0.0
H1165 H 0.17029 0.6753 0.36244 0.0
H1166 H 0.12977 0.5998 0.37422 0.0
H1167 H 0.14502 0.63907 0.38431 0.0
H1168 H 0.2714 0.58267 0.33445 0.0
H1169 H 0.28466 0.62257 0.33906 0.0
H1170 H 0.23186 0.54996 0.31364 0.0
H1171 H 0.19361 0.5343 0.32238 0.0
C1172 C 0.82561 0.63295 0.11525 0.0
C1173 C 0.85857 0.63619 0.11201 0.0
C1174 C 0.85081 0.66076 0.06188 0.0
C1175 C 0.81741 0.6541 0.06338 0.0
N1176 N 0.77263 0.62648 0.08742 0.0
N1177 N 0.90197 0.64892 0.07966 0.0
C1178 C 0.80466 0.63814 0.08892 0.0
C1179 C 0.87111 0.64902 0.08462 0.0
N1180 N 0.81434 0.62625 0.14399 0.0
N1181 N 0.86322 0.67905 0.03941 0.0
H1182 H 0.91733 0.64002 0.09546 0.0
H1183 H 0.91149 0.65506 0.05849 0.0
H1184 H 0.84906 0.68827 0.02268 0.0
H1185 H 0.88757 0.68729 0.03922 0.0
H1186 H 0.79105 0.62679 0.14845 0.0
H1187 H 0.82894 0.62358 0.16456 0.0
H1188 H 0.76271 0.61194 0.10386 0.0
H1189 H 0.75629 0.62836 0.06792 0.0
C1190 C 0.11358 0.00685 0.03347 0.0
C1191 C 0.11432 0.01856 0.06624 0.0
C1192 C 0.1477 0.98228 0.08329 0.0
C1193 C 0.15083 0.97424 0.05031 0.0
N1194 N 0.12234 0.96531 0.9967 0.0
N1195 N 0.13072 0.01665 0.12297 0.0
C1196 C 0.12947 0.98248 0.02605 0.0
C1197 C 0.1309 0.00595 0.09137 0.0
N1198 N 0.09925 0.02011 0.0092 0.0
N1199 N 0.15784 0.96518 0.10647 0.0
H1200 H 0.11647 0.03176 0.13021 0.0
H1201 H 0.14579 0.01172 0.14201 0.0
H1202 H 0.16519 0.94467 0.10065 0.0
H1203 H 0.15456 0.96837 0.13079 0.0
H1204 H 0.10127 0.01489 0.98479 0.0
H1205 H 0.08772 0.03832 0.01344 0.0
H1206 H 0.10501 0.96862 0.97888 0.0
H1207 H 0.1302 0.94482 0.99215 0.0
loop_
_geom_bond_atom_site_label_1
_geom_bond_atom_site_label_2
_geom_bond_distance
_geom_bond_site_symmetry_2
_ccdc_geom_bond_type
O0 Cd1 2.300 . S
O0 C7 1.275 . S
Cd1 O0 2.300 . S
Cd1 O9 2.381 . S
Cd1 O10 2.378 . S
O2 Cd3 2.385 . S
O2 C7 1.255 . S
Cd3 O2 2.385 . S
Cd3 O4 2.317 . S
O4 Cd3 2.317 . S
O4 C5 1.232 . S
C5 O4 1.232 . S
C5 O6 1.218 . S
O6 C5 1.218 . S
C7 O0 1.275 . S
C7 O2 1.255 . S
C8 O9 1.258 . S
C8 O10 1.256 . S
O9 Cd1 2.381 . S
O9 C8 1.258 . S
O10 Cd1 2.378 . S
O10 C8 1.256 . S
O11 Cd12 2.300 . S
O11 C18 1.275 . S
Cd12 O11 2.300 . S
Cd12 O20 2.381 . S
Cd12 O21 2.378 . S
O13 Cd14 2.385 . S
O13 C18 1.255 . S
Cd14 O13 2.385 . S
Cd14 O15 2.317 . S
O15 Cd14 2.317 . S
O15 C16 1.232 . S
C16 O15 1.232 . S
C16 O17 1.218 . S
O17 C16 1.218 . S
C18 O11 1.275 . S
C18 O13 1.255 . S
C19 O20 1.258 . S
C19 O21 1.256 . S
O20 Cd12 2.381 . S
O20 C19 1.258 . S
O21 Cd12 2.378 . S
O21 C19 1.256 . S
O22 Cd23 2.300 . S
O22 C29 1.275 . S
Cd23 O22 2.300 . S
Cd23 O31 2.381 . S
Cd23 O32 2.378 . S
O24 Cd25 2.385 . S
O24 C29 1.255 . S
Cd25 O24 2.385 . S
Cd25 O26 2.317 . S
O26 Cd25 2.317 . S
O26 C27 1.232 . S
C27 O26 1.232 . S
C27 O28 1.218 . S
O28 C27 1.218 . S
C29 O22 1.275 . S
C29 O24 1.255 . S
C30 O31 1.258 . S
C30 O32 1.256 . S
O31 Cd23 2.381 . S
O31 C30 1.258 . S
O32 Cd23 2.378 . S
O32 C30 1.256 . S
O33 Cd34 2.300 . S
O33 C40 1.275 . S
Cd34 O33 2.300 . S
Cd34 O42 2.381 . S
Cd34 O43 2.378 . S
O35 Cd36 2.385 . S
O35 C40 1.255 . S
Cd36 O35 2.385 . S
Cd36 O37 2.317 . S
O37 Cd36 2.317 . S
O37 C38 1.232 . S
C38 O37 1.232 . S
C38 O39 1.218 . S
O39 C38 1.218 . S
C40 O33 1.275 . S
C40 O35 1.255 . S
C41 O42 1.258 . S
C41 O43 1.256 . S
O42 Cd34 2.381 . S
O42 C41 1.258 . S
O43 Cd34 2.378 . S
O43 C41 1.256 . S
O44 Cd45 2.300 . S
O44 C51 1.275 1_565 S
Cd45 O44 2.300 . S
Cd45 O53 2.381 . S
Cd45 O54 2.378 . S
O46 Cd47 2.385 . S
O46 C51 1.255 . S
Cd47 O46 2.385 . S
Cd47 O48 2.317 1_545 S
O48 Cd47 2.317 1_565 S
O48 C49 1.232 1_565 S
C49 O48 1.232 1_545 S
C49 O50 1.218 . S
O50 C49 1.218 . S
C51 O44 1.275 1_545 S
C51 O46 1.255 . S
C52 O53 1.258 . S
C52 O54 1.256 . S
O53 Cd45 2.381 . S
O53 C52 1.258 . S
O54 Cd45 2.378 . S
O54 C52 1.256 . S
O55 Cd56 2.300 . S
O55 C62 1.275 . S
Cd56 O55 2.300 . S
Cd56 O64 2.381 . S
Cd56 O65 2.378 . S
O57 Cd58 2.385 . S
O57 C62 1.255 . S
Cd58 O57 2.385 . S
Cd58 O59 2.317 . S
O59 Cd58 2.317 . S
O59 C60 1.232 . S
C60 O59 1.232 . S
C60 O61 1.218 . S
O61 C60 1.218 . S
C62 O55 1.275 . S
C62 O57 1.255 . S
C63 O64 1.258 . S
C63 O65 1.256 . S
O64 Cd56 2.381 . S
O64 C63 1.258 . S
O65 Cd56 2.378 . S
O65 C63 1.256 . S
O66 Cd67 2.300 . S
O66 C73 1.275 . S
Cd67 O66 2.300 . S
Cd67 O75 2.381 . S
Cd67 O76 2.378 . S
O68 Cd69 2.385 . S
O68 C73 1.255 . S
Cd69 O68 2.385 . S
Cd69 O70 2.317 . S
O70 Cd69 2.317 . S
O70 C71 1.232 . S
C71 O70 1.232 . S
C71 O72 1.218 1_655 S
O72 C71 1.218 1_455 S
C73 O66 1.275 . S
C73 O68 1.255 . S
C74 O75 1.258 . S
C74 O76 1.256 . S
O75 Cd67 2.381 . S
O75 C74 1.258 . S
O76 Cd67 2.378 . S
O76 C74 1.256 . S
O77 Cd78 2.300 . S
O77 C84 1.275 . S
Cd78 O77 2.300 . S
Cd78 O86 2.381 . S
Cd78 O87 2.378 . S
O79 Cd80 2.385 . S
O79 C84 1.255 . S
Cd80 O79 2.385 . S
Cd80 O81 2.317 . S
O81 Cd80 2.317 . S
O81 C82 1.232 . S
C82 O81 1.232 . S
C82 O83 1.218 . S
O83 C82 1.218 . S
C84 O77 1.275 . S
C84 O79 1.255 . S
C85 O86 1.258 . S
C85 O87 1.256 . S
O86 Cd78 2.381 . S
O86 C85 1.258 . S
O87 Cd78 2.378 . S
O87 C85 1.256 . S
O88 Cd89 2.300 . S
O88 C95 1.275 . S
Cd89 O88 2.300 . S
Cd89 O97 2.381 . S
Cd89 O98 2.378 . S
O90 Cd91 2.385 . S
O90 C95 1.255 . S
Cd91 O90 2.385 . S
Cd91 O92 2.317 . S
O92 Cd91 2.317 . S
O92 C93 1.232 . S
C93 O92 1.232 . S
C93 O94 1.218 . S
O94 C93 1.218 . S
C95 O88 1.275 . S
C95 O90 1.255 . S
C96 O97 1.258 . S
C96 O98 1.256 . S
O97 Cd89 2.381 . S
O97 C96 1.258 . S
O98 Cd89 2.378 . S
O98 C96 1.256 . S
O99 Cd100 2.300 . S
O99 C106 1.275 . S
Cd100 O99 2.300 . S
Cd100 O108 2.381 . S
Cd100 O109 2.378 . S
O101 Cd102 2.385 . S
O101 C106 1.255 . S
Cd102 O101 2.385 . S
Cd102 O103 2.317 . S
O103 Cd102 2.317 . S
O103 C104 1.232 . S
C104 O103 1.232 . S
C104 O105 1.218 . S
O105 C104 1.218 . S
C106 O99 1.275 . S
C106 O101 1.255 . S
C107 O108 1.266 . S
C107 O109 1.259 . S
O108 Cd100 2.381 . S
O108 C107 1.266 . S
O109 Cd100 2.378 . S
O109 C107 1.259 . S
O110 Cd111 2.300 . S
O110 C117 1.275 . S
Cd111 O110 2.300 . S
Cd111 O119 2.381 . S
Cd111 O120 2.378 . S
O112 Cd113 2.385 . S
O112 C117 1.255 . S
Cd113 O112 2.385 . S
Cd113 O114 2.317 . S
O114 Cd113 2.317 . S
O114 C115 1.232 . S
C115 O114 1.232 . S
C115 O116 1.218 . S
O116 C115 1.218 . S
C117 O110 1.275 . S
C117 O112 1.255 . S
C118 O119 1.258 . S
C118 O120 1.256 . S
O119 Cd111 2.381 . S
O119 C118 1.258 . S
O120 Cd111 2.378 . S
O120 C118 1.256 . S
O121 Cd122 2.300 . S
O121 C128 1.275 . S
Cd122 O121 2.300 . S
Cd122 O130 2.381 . S
Cd122 O131 2.378 . S
O123 Cd124 2.385 . S
O123 C128 1.255 . S
Cd124 O123 2.385 . S
Cd124 O125 2.317 . S
O125 Cd124 2.317 . S
O125 C126 1.232 . S
C126 O125 1.232 . S
C126 O127 1.218 . S
O127 C126 1.218 . S
C128 O121 1.275 . S
C128 O123 1.255 . S
C129 O130 1.258 . S
C129 O131 1.256 . S
O130 Cd122 2.381 . S
O130 C129 1.258 . S
O131 Cd122 2.378 . S
O131 C129 1.256 . S
O132 Cd133 2.300 . S
O132 C139 1.275 . S
Cd133 O132 2.300 . S
Cd133 O141 2.381 . S
Cd133 O142 2.378 . S
O134 Cd135 2.385 . S
O134 C139 1.255 . S
Cd135 O134 2.385 . S
Cd135 O136 2.317 . S
O136 Cd135 2.317 . S
O136 C137 1.232 . S
C137 O136 1.232 . S
C137 O138 1.218 . S
O138 C137 1.218 . S
C139 O132 1.275 . S
C139 O134 1.255 . S
C140 O141 1.258 . S
C140 O142 1.256 . S
O141 Cd133 2.381 . S
O141 C140 1.258 . S
O142 Cd133 2.378 . S
O142 C140 1.256 . S
O143 Cd144 2.300 . S
O143 C150 1.275 . S
Cd144 O143 2.300 . S
Cd144 O152 2.381 . S
Cd144 O153 2.378 . S
O145 Cd146 2.385 . S
O145 C150 1.255 . S
Cd146 O145 2.385 . S
Cd146 O147 2.317 . S
O147 Cd146 2.317 . S
O147 C148 1.232 . S
C148 O147 1.232 . S
C148 O149 1.218 . S
O149 C148 1.218 . S
C150 O143 1.275 . S
C150 O145 1.255 . S
C151 O152 1.258 . S
C151 O153 1.256 . S
O152 Cd144 2.381 . S
O152 C151 1.258 . S
O153 Cd144 2.378 . S
O153 C151 1.256 . S
O154 Cd155 2.300 . S
O154 C161 1.275 . S
Cd155 O154 2.300 . S
Cd155 O163 2.381 . S
Cd155 O164 2.378 . S
O156 Cd157 2.385 . S
O156 C161 1.255 . S
Cd157 O156 2.385 . S
Cd157 O158 2.317 . S
O158 Cd157 2.317 . S
O158 C159 1.232 . S
C159 O158 1.232 . S
C159 O160 1.218 . S
O160 C159 1.218 . S
C161 O154 1.275 . S
C161 O156 1.255 . S
C162 O163 1.258 . S
C162 O164 1.256 . S
O163 Cd155 2.381 . S
O163 C162 1.258 . S
O164 Cd155 2.378 . S
O164 C162 1.256 . S
O165 Cd166 2.300 . S
O165 C172 1.275 . S
Cd166 O165 2.300 . S
Cd166 O174 2.381 . S
Cd166 O175 2.378 . S
O167 Cd168 2.385 1_556 S
O167 C172 1.255 . S
Cd168 O167 2.385 1_554 S
Cd168 O169 2.317 . S
O169 Cd168 2.317 . S
O169 C170 1.231 1_554 S
C170 O169 1.231 1_556 S
C170 O171 1.219 . S
O171 C170 1.219 . S
C172 O165 1.275 . S
C172 O167 1.255 . S
C173 O174 1.258 . S
C173 O175 1.256 . S
O174 Cd166 2.381 . S
O174 C173 1.258 . S
O175 Cd166 2.378 . S
O175 C173 1.256 . S
O176 Cd177 2.223 . S
O176 C184 1.315 . S
Cd177 O176 2.223 . S
Cd177 O180 2.297 . S
Cd177 O181 2.439 . S
Cd177 O187 2.240 . S
Cd178 O179 2.240 . S
Cd178 O186 2.223 . S
Cd178 O188 2.297 . S
Cd178 O189 2.439 . S
O179 Cd178 2.240 . S
O179 C184 1.279 . S
O180 Cd177 2.297 . S
O180 C182 1.247 . S
O181 Cd177 2.439 . S
O181 C182 1.208 . S
C182 O180 1.247 . S
C182 O181 1.208 . S
C183 O188 1.247 . S
C183 O189 1.208 . S
C184 O176 1.315 . S
C184 O179 1.279 . S
C185 O186 1.315 . S
C185 O187 1.279 . S
O186 Cd178 2.223 . S
O186 C185 1.315 . S
O187 Cd177 2.240 . S
O187 C185 1.279 . S
O188 Cd178 2.297 . S
O188 C183 1.247 . S
O189 Cd178 2.439 . S
O189 C183 1.208 . S
O190 Cd191 2.223 . S
O190 C198 1.315 . S
Cd191 O190 2.223 . S
Cd191 O194 2.297 . S
Cd191 O195 2.439 . S
Cd191 O201 2.240 . S
Cd192 O193 2.240 . S
Cd192 O200 2.223 . S
Cd192 O202 2.297 . S
Cd192 O203 2.439 . S
O193 Cd192 2.240 . S
O193 C198 1.279 . S
O194 Cd191 2.297 . S
O194 C196 1.247 . S
O195 Cd191 2.439 . S
O195 C196 1.208 . S
C196 O194 1.247 . S
C196 O195 1.208 . S
C197 O202 1.247 . S
C197 O203 1.208 . S
C198 O190 1.315 . S
C198 O193 1.279 . S
C199 O200 1.315 . S
C199 O201 1.279 . S
O200 Cd192 2.223 . S
O200 C199 1.315 . S
O201 Cd191 2.240 . S
O201 C199 1.279 . S
O202 Cd192 2.297 . S
O202 C197 1.247 . S
O203 Cd192 2.439 . S
O203 C197 1.208 . S
O204 Cd205 2.223 1_556 S
O204 C212 1.315 . S
Cd205 O204 2.223 1_554 S
Cd205 O208 2.297 . S
Cd205 O209 2.439 . S
Cd205 O215 2.240 . S
Cd206 O207 2.240 . S
Cd206 O214 2.223 . S
Cd206 O216 2.297 1_556 S
Cd206 O217 2.439 1_556 S
O207 Cd206 2.240 . S
O207 C212 1.279 . S
O208 Cd205 2.297 . S
O208 C210 1.247 . S
O209 Cd205 2.439 . S
O209 C210 1.208 . S
C210 O208 1.247 . S
C210 O209 1.208 . S
C211 O216 1.247 . S
C211 O217 1.208 . S
C212 O204 1.315 . S
C212 O207 1.279 . S
C213 O214 1.315 . S
C213 O215 1.279 1_556 S
O214 Cd206 2.223 . S
O214 C213 1.315 . S
O215 Cd205 2.240 . S
O215 C213 1.279 1_554 S
O216 Cd206 2.297 1_554 S
O216 C211 1.247 . S
O217 Cd206 2.439 1_554 S
O217 C211 1.208 . S
O218 Cd219 2.223 . S
O218 C226 1.315 . S
Cd219 O218 2.223 . S
Cd219 O222 2.297 . S
Cd219 O223 2.439 . S
Cd219 O229 2.240 . S
Cd220 O221 2.240 . S
Cd220 O228 2.223 . S
Cd220 O230 2.297 . S
Cd220 O231 2.439 . S
O221 Cd220 2.240 . S
O221 C226 1.279 . S
O222 Cd219 2.297 . S
O222 C224 1.247 . S
O223 Cd219 2.439 . S
O223 C224 1.208 . S
C224 O222 1.247 . S
C224 O223 1.208 . S
C225 O230 1.247 . S
C225 O231 1.208 . S
C226 O218 1.315 . S
C226 O221 1.279 . S
C227 O228 1.315 . S
C227 O229 1.279 . S
O228 Cd220 2.223 . S
O228 C227 1.315 . S
O229 Cd219 2.240 . S
O229 C227 1.279 . S
O230 Cd220 2.297 . S
O230 C225 1.247 . S
O231 Cd220 2.439 . S
O231 C225 1.208 . S
O232 Cd233 2.223 . S
O232 C240 1.315 . S
Cd233 O232 2.223 . S
Cd233 O236 2.297 . S
Cd233 O237 2.439 . S
Cd233 O243 2.240 . S
Cd234 O235 2.240 . S
Cd234 O242 2.223 . S
Cd234 O244 2.297 . S
Cd234 O245 2.439 . S
O235 Cd234 2.240 . S
O235 C240 1.279 . S
O236 Cd233 2.297 . S
O236 C238 1.247 . S
O237 Cd233 2.439 . S
O237 C238 1.208 . S
C238 O236 1.247 . S
C238 O237 1.208 . S
C239 O244 1.247 . S
C239 O245 1.208 . S
C240 O232 1.315 . S
C240 O235 1.279 . S
C241 O242 1.315 . S
C241 O243 1.279 . S
O242 Cd234 2.223 . S
O242 C241 1.315 . S
O243 Cd233 2.240 . S
O243 C241 1.279 . S
O244 Cd234 2.297 . S
O244 C239 1.247 . S
O245 Cd234 2.439 . S
O245 C239 1.208 . S
O246 Cd247 2.223 . S
O246 C254 1.315 . S
Cd247 O246 2.223 . S
Cd247 O250 2.297 . S
Cd247 O251 2.439 . S
Cd247 O257 2.240 . S
Cd248 O249 2.240 . S
Cd248 O256 2.223 . S
Cd248 O258 2.297 . S
Cd248 O259 2.439 . S
O249 Cd248 2.240 . S
O249 C254 1.279 . S
O250 Cd247 2.297 . S
O250 C252 1.247 . S
O251 Cd247 2.439 . S
O251 C252 1.208 . S
C252 O250 1.247 . S
C252 O251 1.208 . S
C253 O258 1.247 . S
C253 O259 1.208 . S
C254 O246 1.315 . S
C254 O249 1.279 . S
C255 O256 1.315 . S
C255 O257 1.279 . S
O256 Cd248 2.223 . S
O256 C255 1.315 . S
O257 Cd247 2.240 . S
O257 C255 1.279 . S
O258 Cd248 2.297 . S
O258 C253 1.247 . S
O259 Cd248 2.439 . S
O259 C253 1.208 . S
O260 Cd261 2.223 . S
O260 C268 1.315 . S
Cd261 O260 2.223 . S
Cd261 O264 2.297 . S
Cd261 O265 2.439 . S
Cd261 O271 2.240 . S
Cd262 O263 2.240 . S
Cd262 O270 2.223 . S
Cd262 O272 2.297 . S
Cd262 O273 2.439 . S
O263 Cd262 2.240 . S
O263 C268 1.279 . S
O264 Cd261 2.297 . S
O264 C266 1.247 . S
O265 Cd261 2.439 . S
O265 C266 1.208 . S
C266 O264 1.247 . S
C266 O265 1.208 . S
C267 O272 1.247 . S
C267 O273 1.208 . S
C268 O260 1.315 . S
C268 O263 1.279 . S
C269 O270 1.315 . S
C269 O271 1.279 . S
O270 Cd262 2.223 . S
O270 C269 1.315 . S
O271 Cd261 2.240 . S
O271 C269 1.279 . S
O272 Cd262 2.297 . S
O272 C267 1.247 . S
O273 Cd262 2.439 . S
O273 C267 1.208 . S
O274 Cd275 2.223 1_545 S
O274 C282 1.315 . S
Cd275 O274 2.223 1_565 S
Cd275 O278 2.297 . S
Cd275 O279 2.439 . S
Cd275 O285 2.240 1_565 S
Cd276 O277 2.240 . S
Cd276 O284 2.223 . S
Cd276 O286 2.297 . S
Cd276 O287 2.439 1_545 S
O277 Cd276 2.240 . S
O277 C282 1.279 . S
O278 Cd275 2.297 . S
O278 C280 1.247 . S
O279 Cd275 2.439 . S
O279 C280 1.208 . S
C280 O278 1.247 . S
C280 O279 1.208 . S
C281 O286 1.247 1_565 S
C281 O287 1.208 . S
C282 O274 1.315 . S
C282 O277 1.279 . S
C283 O284 1.315 . S
C283 O285 1.279 . S
O284 Cd276 2.223 . S
O284 C283 1.315 . S
O285 Cd275 2.240 1_545 S
O285 C283 1.279 . S
O286 Cd276 2.297 . S
O286 C281 1.247 1_545 S
O287 Cd276 2.439 1_565 S
O287 C281 1.208 . S
O288 Cd289 2.223 1_554 S
O288 C296 1.315 . S
Cd289 O288 2.223 1_556 S
Cd289 O292 2.297 1_656 S
Cd289 O293 2.439 1_655 S
Cd289 O299 2.240 . S
Cd290 O291 2.240 . S
Cd290 O298 2.223 1_455 S
Cd290 O300 2.297 . S
Cd290 O301 2.439 . S
O291 Cd290 2.240 . S
O291 C296 1.279 1_456 S
O292 Cd289 2.297 1_454 S
O292 C294 1.247 . S
O293 Cd289 2.439 1_455 S
O293 C294 1.208 1_556 S
C294 O292 1.247 . S
C294 O293 1.208 1_554 S
C295 O300 1.247 . S
C295 O301 1.208 . S
C296 O288 1.315 . S
C296 O291 1.279 1_654 S
C297 O298 1.315 . S
C297 O299 1.279 . S
O298 Cd290 2.223 1_655 S
O298 C297 1.315 . S
O299 Cd289 2.240 . S
O299 C297 1.279 . S
O300 Cd290 2.297 . S
O300 C295 1.247 . S
O301 Cd290 2.439 . S
O301 C295 1.208 . S
O302 Cd303 2.223 . S
O302 C310 1.315 . S
Cd303 O302 2.223 . S
Cd303 O306 2.297 . S
Cd303 O307 2.439 . S
Cd303 O313 2.240 . S
Cd304 O305 2.240 . S
Cd304 O312 2.223 . S
Cd304 O314 2.297 . S
Cd304 O315 2.439 . S
O305 Cd304 2.240 . S
O305 C310 1.279 . S
O306 Cd303 2.297 . S
O306 C308 1.247 . S
O307 Cd303 2.439 . S
O307 C308 1.208 . S
C308 O306 1.247 . S
C308 O307 1.208 . S
C309 O314 1.247 . S
C309 O315 1.208 . S
C310 O302 1.315 . S
C310 O305 1.279 . S
C311 O312 1.315 . S
C311 O313 1.279 . S
O312 Cd304 2.223 . S
O312 C311 1.315 . S
O313 Cd303 2.240 . S
O313 C311 1.279 . S
O314 Cd304 2.297 . S
O314 C309 1.247 . S
O315 Cd304 2.439 . S
O315 C309 1.208 . S
O316 Cd317 2.223 1_655 S
O316 C324 1.315 . S
Cd317 O316 2.223 1_455 S
Cd317 O320 2.297 . S
Cd317 O321 2.439 . S
Cd317 O327 2.240 . S
Cd318 O319 2.240 . S
Cd318 O326 2.223 . S
Cd318 O328 2.297 1_655 S
Cd318 O329 2.439 1_655 S
O319 Cd318 2.240 . S
O319 C324 1.279 . S
O320 Cd317 2.297 . S
O320 C322 1.247 . S
O321 Cd317 2.439 . S
O321 C322 1.208 . S
C322 O320 1.247 . S
C322 O321 1.208 . S
C323 O328 1.247 . S
C323 O329 1.208 . S
C324 O316 1.315 . S
C324 O319 1.279 . S
C325 O326 1.315 . S
C325 O327 1.279 1_655 S
O326 Cd318 2.223 . S
O326 C325 1.315 . S
O327 Cd317 2.240 . S
O327 C325 1.279 1_455 S
O328 Cd318 2.297 1_455 S
O328 C323 1.247 . S
O329 Cd318 2.439 1_455 S
O329 C323 1.208 . S
O330 Cd331 2.223 . S
O330 C338 1.315 . S
Cd331 O330 2.223 . S
Cd331 O334 2.297 . S
Cd331 O335 2.439 . S
Cd331 O341 2.240 . S
Cd332 O333 2.240 . S
Cd332 O340 2.223 . S
Cd332 O342 2.297 . S
Cd332 O343 2.439 . S
O333 Cd332 2.240 . S
O333 C338 1.279 . S
O334 Cd331 2.297 . S
O334 C336 1.247 . S
O335 Cd331 2.439 . S
O335 C336 1.208 . S
C336 O334 1.247 . S
C336 O335 1.208 . S
C337 O342 1.247 . S
C337 O343 1.208 . S
C338 O330 1.315 . S
C338 O333 1.279 . S
C339 O340 1.315 . S
C339 O341 1.279 . S
O340 Cd332 2.223 . S
O340 C339 1.315 . S
O341 Cd331 2.240 . S
O341 C339 1.279 . S
O342 Cd332 2.297 . S
O342 C337 1.247 . S
O343 Cd332 2.439 . S
O343 C337 1.208 . S
C344 C345 1.363 . S
C344 C350 1.379 . S
C344 N352 1.356 . S
C345 C344 1.363 . S
C345 C351 1.363 . S
C346 C347 1.363 . S
C346 C351 1.379 . S
C346 N353 1.356 1_556 S
C347 C346 1.363 . S
C347 C350 1.363 . S
N348 C350 1.356 . S
N348 H360 0.984 . S
N348 H361 0.985 . S
N349 C351 1.356 . S
N349 H354 0.984 . S
N349 H355 0.985 . S
C350 C344 1.379 . S
C350 C347 1.363 . S
C350 N348 1.356 . S
C351 C345 1.363 . S
C351 C346 1.379 . S
C351 N349 1.356 . S
N352 C344 1.356 . S
N352 H358 0.984 . S
N352 H359 0.984 . S
N353 C346 1.356 1_554 S
N353 H356 0.984 . S
N353 H357 0.985 . S
H354 N349 0.984 . S
H355 N349 0.985 . S
H356 N353 0.984 . S
H357 N353 0.985 . S
H358 N352 0.984 . S
H359 N352 0.984 . S
H360 N348 0.984 . S
H361 N348 0.985 . S
C362 C363 1.363 . S
C362 C368 1.379 1_655 S
C362 N370 1.356 . S
C363 C362 1.363 . S
C363 C369 1.363 1_655 S
C364 C365 1.363 . S
C364 C369 1.379 . S
C364 N371 1.356 . S
C365 C364 1.363 . S
C365 C368 1.363 . S
N366 C368 1.356 . S
N366 H378 0.984 . S
N366 H379 0.985 . S
N367 C369 1.356 . S
N367 H372 0.984 1_455 S
N367 H373 0.985 . S
C368 C362 1.379 1_455 S
C368 C365 1.363 . S
C368 N366 1.356 . S
C369 C363 1.363 1_455 S
C369 C364 1.379 . S
C369 N367 1.356 . S
N370 C362 1.356 . S
N370 H376 0.984 . S
N370 H377 0.984 . S
N371 C364 1.356 . S
N371 H374 0.984 . S
N371 H375 0.985 . S
H372 N367 0.984 1_655 S
H373 N367 0.985 . S
H374 N371 0.984 . S
H375 N371 0.985 . S
H376 N370 0.984 . S
H377 N370 0.984 . S
H378 N366 0.984 . S
H379 N366 0.985 . S
C380 C381 1.363 . S
C380 C386 1.379 . S
C380 N388 1.356 . S
C381 C380 1.363 . S
C381 C387 1.363 . S
C382 C383 1.363 . S
C382 C387 1.379 . S
C382 N389 1.356 . S
C383 C382 1.363 . S
C383 C386 1.363 . S
N384 C386 1.356 . S
N384 H396 0.984 . S
N384 H397 0.985 . S
N385 C387 1.356 . S
N385 H390 0.984 . S
N385 H391 0.985 . S
C386 C380 1.379 . S
C386 C383 1.363 . S
C386 N384 1.356 . S
C387 C381 1.363 . S
C387 C382 1.379 . S
C387 N385 1.356 . S
N388 C380 1.356 . S
N388 H394 0.984 . S
N388 H395 0.984 . S
N389 C382 1.356 . S
N389 H392 0.984 . S
N389 H393 0.985 . S
H390 N385 0.984 . S
H391 N385 0.985 . S
H392 N389 0.984 . S
H393 N389 0.985 . S
H394 N388 0.984 . S
H395 N388 0.984 . S
H396 N384 0.984 . S
H397 N384 0.985 . S
C398 C399 1.363 1_665 S
C398 C404 1.379 1_565 S
C398 N406 1.356 1_655 S
C399 C398 1.363 1_445 S
C399 C405 1.363 . S
C400 C401 1.363 . S
C400 C405 1.379 1_655 S
C400 N407 1.356 . S
C401 C400 1.363 . S
C401 C404 1.363 . S
N402 C404 1.356 . S
N402 H414 0.984 1_545 S
N402 H415 0.985 . S
N403 C405 1.356 . S
N403 H408 0.984 . S
N403 H409 0.985 . S
C404 C398 1.379 1_545 S
C404 C401 1.363 . S
C404 N402 1.356 . S
C405 C399 1.363 . S
C405 C400 1.379 1_455 S
C405 N403 1.356 . S
N406 C398 1.356 1_455 S
N406 H412 0.984 1_455 S
N406 H413 0.984 . S
N407 C400 1.356 . S
N407 H410 0.984 . S
N407 H411 0.985 . S
H408 N403 0.984 . S
H409 N403 0.985 . S
H410 N407 0.984 . S
H411 N407 0.985 . S
H412 N406 0.984 1_655 S
H413 N406 0.984 . S
H414 N402 0.984 1_565 S
H415 N402 0.985 . S
C416 C417 1.363 . S
C416 C422 1.379 . S
C416 N424 1.356 . S
C417 C416 1.363 . S
C417 C423 1.363 . S
C418 C419 1.363 . S
C418 C423 1.379 . S
C418 N425 1.356 . S
C419 C418 1.363 . S
C419 C422 1.363 . S
N420 C422 1.356 . S
N420 H432 0.984 . S
N420 H433 0.985 . S
N421 C423 1.356 . S
N421 H426 0.984 . S
N421 H427 0.985 . S
C422 C416 1.379 . S
C422 C419 1.363 . S
C422 N420 1.356 . S
C423 C417 1.363 . S
C423 C418 1.379 . S
C423 N421 1.356 . S
N424 C416 1.356 . S
N424 H430 0.984 . S
N424 H431 0.984 . S
N425 C418 1.356 . S
N425 H428 0.984 . S
N425 H429 0.985 . S
H426 N421 0.984 . S
H427 N421 0.985 . S
H428 N425 0.984 . S
H429 N425 0.985 . S
H430 N424 0.984 . S
H431 N424 0.984 . S
H432 N420 0.984 . S
H433 N420 0.985 . S
C434 C435 1.363 . S
C434 C440 1.379 . S
C434 N442 1.356 . S
C435 C434 1.363 . S
C435 C441 1.363 . S
C436 C437 1.363 . S
C436 C441 1.379 . S
C436 N443 1.356 . S
C437 C436 1.363 . S
C437 C440 1.363 . S
N438 C440 1.356 . S
N438 H450 0.984 . S
N438 H451 0.985 . S
N439 C441 1.356 . S
N439 H444 0.984 . S
N439 H445 0.985 . S
C440 C434 1.379 . S
C440 C437 1.363 . S
C440 N438 1.356 . S
C441 C435 1.363 . S
C441 C436 1.379 . S
C441 N439 1.356 . S
N442 C434 1.356 . S
N442 H448 0.984 . S
N442 H449 0.984 . S
N443 C436 1.356 . S
N443 H446 0.984 . S
N443 H447 0.985 . S
H444 N439 0.984 . S
H445 N439 0.985 . S
H446 N443 0.984 . S
H447 N443 0.985 . S
H448 N442 0.984 . S
H449 N442 0.984 . S
H450 N438 0.984 . S
H451 N438 0.985 . S
C452 C453 1.363 . S
C452 C458 1.379 . S
C452 N460 1.356 . S
C453 C452 1.363 . S
C453 C459 1.363 . S
C454 C455 1.363 . S
C454 C459 1.379 . S
C454 N461 1.356 . S
C455 C454 1.363 . S
C455 C458 1.363 . S
N456 C458 1.356 . S
N456 H468 0.984 . S
N456 H469 0.985 . S
N457 C459 1.356 . S
N457 H462 0.984 . S
N457 H463 0.985 . S
C458 C452 1.379 . S
C458 C455 1.363 . S
C458 N456 1.356 . S
C459 C453 1.363 . S
C459 C454 1.379 . S
C459 N457 1.356 . S
N460 C452 1.356 . S
N460 H466 0.984 . S
N460 H467 0.984 . S
N461 C454 1.356 . S
N461 H464 0.984 . S
N461 H465 0.985 . S
H462 N457 0.984 . S
H463 N457 0.985 . S
H464 N461 0.984 . S
H465 N461 0.985 . S
H466 N460 0.984 . S
H467 N460 0.984 . S
H468 N456 0.984 . S
H469 N456 0.985 . S
C470 C471 1.363 . S
C470 C476 1.379 . S
C470 N478 1.356 . S
C471 C470 1.363 . S
C471 C477 1.363 . S
C472 C473 1.363 . S
C472 C477 1.379 . S
C472 N479 1.356 1_565 S
C473 C472 1.363 . S
C473 C476 1.363 . S
N474 C476 1.356 . S
N474 H486 0.984 . S
N474 H487 0.985 . S
N475 C477 1.356 . S
N475 H480 0.984 . S
N475 H481 0.985 1_565 S
C476 C470 1.379 . S
C476 C473 1.363 . S
C476 N474 1.356 . S
C477 C471 1.363 . S
C477 C472 1.379 . S
C477 N475 1.356 . S
N478 C470 1.356 . S
N478 H484 0.984 . S
N478 H485 0.984 . S
N479 C472 1.356 1_545 S
N479 H482 0.984 . S
N479 H483 0.985 . S
H480 N475 0.984 . S
H481 N475 0.985 1_545 S
H482 N479 0.984 . S
H483 N479 0.985 . S
H484 N478 0.984 . S
H485 N478 0.984 . S
H486 N474 0.984 . S
H487 N474 0.985 . S
C488 C489 1.363 . S
C488 C494 1.379 . S
C488 N496 1.356 . S
C489 C488 1.363 . S
C489 C495 1.363 . S
C490 C491 1.363 . S
C490 C495 1.379 . S
C490 N497 1.356 . S
C491 C490 1.363 . S
C491 C494 1.363 . S
N492 C494 1.356 . S
N492 H504 0.984 . S
N492 H505 0.985 . S
N493 C495 1.356 . S
N493 H498 0.984 . S
N493 H499 0.985 . S
C494 C488 1.379 . S
C494 C491 1.363 . S
C494 N492 1.356 . S
C495 C489 1.363 . S
C495 C490 1.379 . S
C495 N493 1.356 . S
N496 C488 1.356 . S
N496 H502 0.984 . S
N496 H503 0.984 . S
N497 C490 1.356 . S
N497 H500 0.984 . S
N497 H501 0.985 . S
H498 N493 0.984 . S
H499 N493 0.985 . S
H500 N497 0.984 . S
H501 N497 0.985 . S
H502 N496 0.984 . S
H503 N496 0.984 . S
H504 N492 0.984 . S
H505 N492 0.985 . S
C506 C507 1.363 . S
C506 C512 1.379 . S
C506 N514 1.356 . S
C507 C506 1.363 . S
C507 C513 1.363 . S
C508 C509 1.363 . S
C508 C513 1.379 . S
C508 N515 1.356 . S
C509 C508 1.363 . S
C509 C512 1.363 . S
N510 C512 1.356 . S
N510 H522 0.984 . S
N510 H523 0.985 . S
N511 C513 1.356 . S
N511 H516 0.984 . S
N511 H517 0.985 . S
C512 C506 1.379 . S
C512 C509 1.363 . S
C512 N510 1.356 . S
C513 C507 1.363 . S
C513 C508 1.379 . S
C513 N511 1.356 . S
N514 C506 1.356 . S
N514 H520 0.984 . S
N514 H521 0.984 . S
N515 C508 1.356 . S
N515 H518 0.984 . S
N515 H519 0.985 . S
H516 N511 0.984 . S
H517 N511 0.985 . S
H518 N515 0.984 . S
H519 N515 0.985 . S
H520 N514 0.984 . S
H521 N514 0.984 . S
H522 N510 0.984 . S
H523 N510 0.985 . S
C524 C525 1.363 . S
C524 C530 1.379 . S
C524 N532 1.356 . S
C525 C524 1.363 . S
C525 C531 1.363 . S
C526 C527 1.363 . S
C526 C531 1.379 . S
C526 N533 1.356 . S
C527 C526 1.363 . S
C527 C530 1.363 . S
N528 C530 1.356 . S
N528 H540 0.984 . S
N528 H541 0.985 . S
N529 C531 1.356 . S
N529 H534 0.984 . S
N529 H535 0.985 . S
C530 C524 1.379 . S
C530 C527 1.363 . S
C530 N528 1.356 . S
C531 C525 1.363 . S
C531 C526 1.379 . S
C531 N529 1.356 . S
N532 C524 1.356 . S
N532 H538 0.984 . S
N532 H539 0.984 . S
N533 C526 1.356 . S
N533 H536 0.984 . S
N533 H537 0.985 . S
H534 N529 0.984 . S
H535 N529 0.985 . S
H536 N533 0.984 . S
H537 N533 0.985 . S
H538 N532 0.984 . S
H539 N532 0.984 . S
H540 N528 0.984 . S
H541 N528 0.985 . S
C542 C543 1.363 . S
C542 C548 1.379 . S
C542 N550 1.356 . S
C543 C542 1.363 . S
C543 C549 1.363 . S
C544 C545 1.363 . S
C544 C549 1.379 . S
C544 N551 1.356 . S
C545 C544 1.363 . S
C545 C548 1.363 . S
N546 C548 1.356 . S
N546 H558 0.984 . S
N546 H559 0.985 . S
N547 C549 1.356 . S
N547 H552 0.984 . S
N547 H553 0.985 . S
C548 C542 1.379 . S
C548 C545 1.363 . S
C548 N546 1.356 . S
C549 C543 1.363 . S
C549 C544 1.379 . S
C549 N547 1.356 . S
N550 C542 1.356 . S
N550 H556 0.984 . S
N550 H557 0.984 . S
N551 C544 1.356 . S
N551 H554 0.984 . S
N551 H555 0.985 . S
H552 N547 0.984 . S
H553 N547 0.985 . S
H554 N551 0.984 . S
H555 N551 0.985 . S
H556 N550 0.984 . S
H557 N550 0.984 . S
H558 N546 0.984 . S
H559 N546 0.985 . S
C560 C561 1.363 . S
C560 C566 1.379 . S
C560 N568 1.356 . S
C561 C560 1.363 . S
C561 C567 1.363 . S
C562 C563 1.363 . S
C562 C567 1.379 . S
C562 N569 1.356 . S
C563 C562 1.363 . S
C563 C566 1.363 . S
N564 C566 1.356 . S
N564 H576 0.984 . S
N564 H577 0.985 . S
N565 C567 1.356 . S
N565 H570 0.984 . S
N565 H571 0.985 . S
C566 C560 1.379 . S
C566 C563 1.363 . S
C566 N564 1.356 . S
C567 C561 1.363 . S
C567 C562 1.379 . S
C567 N565 1.356 . S
N568 C560 1.356 . S
N568 H574 0.984 . S
N568 H575 0.984 . S
N569 C562 1.356 . S
N569 H572 0.984 . S
N569 H573 0.985 . S
H570 N565 0.984 . S
H571 N565 0.985 . S
H572 N569 0.984 . S
H573 N569 0.985 . S
H574 N568 0.984 . S
H575 N568 0.984 . S
H576 N564 0.984 . S
H577 N564 0.985 . S
C578 C579 1.363 . S
C578 C584 1.379 . S
C578 N586 1.356 . S
C579 C578 1.363 . S
C579 C585 1.363 . S
C580 C581 1.363 . S
C580 C585 1.379 . S
C580 N587 1.356 . S
C581 C580 1.363 . S
C581 C584 1.363 . S
N582 C584 1.356 . S
N582 H594 0.984 . S
N582 H595 0.985 . S
N583 C585 1.356 . S
N583 H588 0.984 . S
N583 H589 0.985 . S
C584 C578 1.379 . S
C584 C581 1.363 . S
C584 N582 1.356 . S
C585 C579 1.363 . S
C585 C580 1.379 . S
C585 N583 1.356 . S
N586 C578 1.356 . S
N586 H592 0.984 . S
N586 H593 0.984 . S
N587 C580 1.356 . S
N587 H590 0.984 . S
N587 H591 0.985 . S
H588 N583 0.984 . S
H589 N583 0.985 . S
H590 N587 0.984 . S
H591 N587 0.985 . S
H592 N586 0.984 . S
H593 N586 0.984 . S
H594 N582 0.984 . S
H595 N582 0.985 . S
C596 C597 1.363 . S
C596 C602 1.379 . S
C596 N604 1.356 . S
C597 C596 1.363 . S
C597 C603 1.363 . S
C598 C599 1.363 . S
C598 C603 1.379 . S
C598 N605 1.356 . S
C599 C598 1.363 . S
C599 C602 1.363 . S
N600 C602 1.356 . S
N600 H612 0.984 . S
N600 H613 0.985 . S
N601 C603 1.356 . S
N601 H606 0.984 . S
N601 H607 0.985 . S
C602 C596 1.379 . S
C602 C599 1.363 . S
C602 N600 1.356 . S
C603 C597 1.363 . S
C603 C598 1.379 . S
C603 N601 1.356 . S
N604 C596 1.356 . S
N604 H610 0.984 . S
N604 H611 0.984 . S
N605 C598 1.356 . S
N605 H608 0.984 . S
N605 H609 0.985 . S
H606 N601 0.984 . S
H607 N601 0.985 . S
H608 N605 0.984 . S
H609 N605 0.985 . S
H610 N604 0.984 . S
H611 N604 0.984 . S
H612 N600 0.984 . S
H613 N600 0.985 . S
C614 C615 1.363 . S
C614 C620 1.379 . S
C614 N622 1.356 1_655 S
C615 C614 1.363 . S
C615 C621 1.363 . S
C616 C617 1.363 . S
C616 C621 1.379 . S
C616 N623 1.356 . S
C617 C616 1.363 . S
C617 C620 1.363 . S
N618 C620 1.356 1_455 S
N618 H630 0.984 . S
N618 H631 0.985 . S
N619 C621 1.356 . S
N619 H624 0.984 . S
N619 H625 0.985 . S
C620 C614 1.379 . S
C620 C617 1.363 . S
C620 N618 1.356 1_655 S
C621 C615 1.363 . S
C621 C616 1.379 . S
C621 N619 1.356 . S
N622 C614 1.356 1_455 S
N622 H628 0.984 . S
N622 H629 0.984 1_455 S
N623 C616 1.356 . S
N623 H626 0.984 . S
N623 H627 0.985 . S
H624 N619 0.984 . S
H625 N619 0.985 . S
H626 N623 0.984 . S
H627 N623 0.985 . S
H628 N622 0.984 . S
H629 N622 0.984 1_655 S
H630 N618 0.984 . S
H631 N618 0.985 . S
C632 C633 1.363 . S
C632 C638 1.379 . S
C632 N640 1.356 . S
C633 C632 1.363 . S
C633 C639 1.363 . S
C634 C635 1.363 . S
C634 C639 1.379 . S
C634 N641 1.356 . S
C635 C634 1.363 . S
C635 C638 1.363 . S
N636 C638 1.356 . S
N636 H648 0.984 . S
N636 H649 0.985 1_565 S
N637 C639 1.356 . S
N637 H642 0.984 . S
N637 H643 0.985 . S
C638 C632 1.379 . S
C638 C635 1.363 . S
C638 N636 1.356 . S
C639 C633 1.363 . S
C639 C634 1.379 . S
C639 N637 1.356 . S
N640 C632 1.356 . S
N640 H646 0.984 . S
N640 H647 0.984 . S
N641 C634 1.356 . S
N641 H644 0.984 1_565 S
N641 H645 0.985 . S
H642 N637 0.984 . S
H643 N637 0.985 . S
H644 N641 0.984 1_545 S
H645 N641 0.985 . S
H646 N640 0.984 . S
H647 N640 0.984 . S
H648 N636 0.984 . S
H649 N636 0.985 1_545 S
C650 C651 1.363 . S
C650 C656 1.379 . S
C650 N658 1.356 . S
C651 C650 1.363 . S
C651 C657 1.363 . S
C652 C653 1.363 . S
C652 C657 1.379 . S
C652 N659 1.356 . S
C653 C652 1.363 . S
C653 C656 1.363 . S
N654 C656 1.356 . S
N654 H666 0.984 . S
N654 H667 0.985 . S
N655 C657 1.356 . S
N655 H660 0.984 . S
N655 H661 0.985 . S
C656 C650 1.379 . S
C656 C653 1.363 . S
C656 N654 1.356 . S
C657 C651 1.363 . S
C657 C652 1.379 . S
C657 N655 1.356 . S
N658 C650 1.356 . S
N658 H664 0.984 . S
N658 H665 0.984 . S
N659 C652 1.356 . S
N659 H662 0.984 . S
N659 H663 0.985 . S
H660 N655 0.984 . S
H661 N655 0.985 . S
H662 N659 0.984 . S
H663 N659 0.985 . S
H664 N658 0.984 . S
H665 N658 0.984 . S
H666 N654 0.984 . S
H667 N654 0.985 . S
C668 C669 1.363 1_565 S
C668 C674 1.379 1_556 S
C668 N676 1.356 1_565 S
C669 C668 1.363 1_545 S
C669 C675 1.362 1_545 S
C670 C671 1.363 1_556 S
C670 C675 1.393 . S
C670 N677 1.356 . S
C671 C670 1.363 1_554 S
C671 C674 1.363 . S
N672 C674 1.356 . S
N672 H684 0.984 . S
N672 H685 0.985 . S
N673 C675 1.341 1_545 S
N673 H678 0.984 . S
N673 H679 0.985 . S
C674 C668 1.379 1_554 S
C674 C671 1.363 . S
C674 N672 1.356 . S
C675 C669 1.362 1_565 S
C675 C670 1.393 . S
C675 N673 1.341 1_565 S
N676 C668 1.356 1_545 S
N676 H682 0.984 1_556 S
N676 H683 0.984 . S
N677 C670 1.356 . S
N677 H680 0.984 1_556 S
N677 H681 0.985 . S
H678 N673 0.984 . S
H679 N673 0.985 . S
H680 N677 0.984 1_554 S
H681 N677 0.985 . S
H682 N676 0.984 1_554 S
H683 N676 0.984 . S
H684 N672 0.984 . S
H685 N672 0.985 . S
C686 C687 1.363 . S
C686 C692 1.379 . S
C686 N694 1.356 . S
C687 C686 1.363 . S
C687 C693 1.363 . S
C688 C689 1.363 . S
C688 C693 1.379 . S
C688 N695 1.356 . S
C689 C688 1.363 . S
C689 C692 1.363 . S
N690 C692 1.356 . S
N690 H702 0.984 . S
N690 H703 0.985 . S
N691 C693 1.356 . S
N691 H696 0.984 . S
N691 H697 0.985 . S
C692 C686 1.379 . S
C692 C689 1.363 . S
C692 N690 1.356 . S
C693 C687 1.363 . S
C693 C688 1.379 . S
C693 N691 1.356 . S
N694 C686 1.356 . S
N694 H700 0.984 . S
N694 H701 0.984 . S
N695 C688 1.356 . S
N695 H698 0.984 . S
N695 H699 0.985 . S
H696 N691 0.984 . S
H697 N691 0.985 . S
H698 N695 0.984 . S
H699 N695 0.985 . S
H700 N694 0.984 . S
H701 N694 0.984 . S
H702 N690 0.984 . S
H703 N690 0.985 . S
C704 C705 1.363 . S
C704 C710 1.379 . S
C704 N712 1.356 . S
C705 C704 1.363 . S
C705 C711 1.363 . S
C706 C707 1.363 . S
C706 C711 1.379 . S
C706 N713 1.356 . S
C707 C706 1.363 . S
C707 C710 1.363 . S
N708 C710 1.356 . S
N708 H720 0.984 . S
N708 H721 0.985 . S
N709 C711 1.356 . S
N709 H714 0.984 . S
N709 H715 0.985 . S
C710 C704 1.379 . S
C710 C707 1.363 . S
C710 N708 1.356 . S
C711 C705 1.363 . S
C711 C706 1.379 . S
C711 N709 1.356 . S
N712 C704 1.356 . S
N712 H718 0.984 . S
N712 H719 0.984 . S
N713 C706 1.356 . S
N713 H716 0.984 . S
N713 H717 0.985 . S
H714 N709 0.984 . S
H715 N709 0.985 . S
H716 N713 0.984 . S
H717 N713 0.985 . S
H718 N712 0.984 . S
H719 N712 0.984 . S
H720 N708 0.984 . S
H721 N708 0.985 . S
C722 C723 1.363 . S
C722 C728 1.379 . S
C722 N730 1.356 . S
C723 C722 1.363 . S
C723 C729 1.363 . S
C724 C725 1.363 . S
C724 C729 1.379 . S
C724 N731 1.356 . S
C725 C724 1.363 . S
C725 C728 1.363 . S
N726 C728 1.356 . S
N726 H738 0.984 . S
N726 H739 0.985 . S
N727 C729 1.356 . S
N727 H732 0.984 . S
N727 H733 0.985 . S
C728 C722 1.379 . S
C728 C725 1.363 . S
C728 N726 1.356 . S
C729 C723 1.363 . S
C729 C724 1.379 . S
C729 N727 1.356 . S
N730 C722 1.356 . S
N730 H736 0.984 . S
N730 H737 0.984 . S
N731 C724 1.356 . S
N731 H734 0.984 . S
N731 H735 0.985 . S
H732 N727 0.984 . S
H733 N727 0.985 . S
H734 N731 0.984 . S
H735 N731 0.985 . S
H736 N730 0.984 . S
H737 N730 0.984 . S
H738 N726 0.984 . S
H739 N726 0.985 . S
C740 C741 1.363 . S
C740 C746 1.379 . S
C740 N748 1.356 . S
C741 C740 1.363 . S
C741 C747 1.363 . S
C742 C743 1.363 . S
C742 C747 1.379 . S
C742 N749 1.356 . S
C743 C742 1.363 . S
C743 C746 1.363 . S
N744 C746 1.356 . S
N744 H756 0.984 . S
N744 H757 0.985 . S
N745 C747 1.356 . S
N745 H750 0.984 . S
N745 H751 0.985 . S
C746 C740 1.379 . S
C746 C743 1.363 . S
C746 N744 1.356 . S
C747 C741 1.363 . S
C747 C742 1.379 . S
C747 N745 1.356 . S
N748 C740 1.356 . S
N748 H754 0.984 . S
N748 H755 0.984 1_545 S
N749 C742 1.356 . S
N749 H752 0.984 . S
N749 H753 0.985 . S
H750 N745 0.984 . S
H751 N745 0.985 . S
H752 N749 0.984 . S
H753 N749 0.985 . S
H754 N748 0.984 . S
H755 N748 0.984 1_565 S
H756 N744 0.984 . S
H757 N744 0.985 . S
C758 C759 1.363 . S
C758 C764 1.379 . S
C758 N766 1.356 . S
C759 C758 1.363 . S
C759 C765 1.363 . S
C760 C761 1.363 . S
C760 C765 1.379 . S
C760 N767 1.356 . S
C761 C760 1.363 . S
C761 C764 1.363 . S
N762 C764 1.356 . S
N762 H774 0.984 . S
N762 H775 0.985 . S
N763 C765 1.356 . S
N763 H768 0.984 . S
N763 H769 0.985 . S
C764 C758 1.379 . S
C764 C761 1.363 . S
C764 N762 1.356 . S
C765 C759 1.363 . S
C765 C760 1.379 . S
C765 N763 1.356 . S
N766 C758 1.356 . S
N766 H772 0.984 . S
N766 H773 0.984 . S
N767 C760 1.356 . S
N767 H770 0.984 . S
N767 H771 0.985 . S
H768 N763 0.984 . S
H769 N763 0.985 . S
H770 N767 0.984 . S
H771 N767 0.985 . S
H772 N766 0.984 . S
H773 N766 0.984 . S
H774 N762 0.984 . S
H775 N762 0.985 . S
C776 C777 1.363 . S
C776 C782 1.379 . S
C776 N784 1.356 . S
C777 C776 1.363 . S
C777 C783 1.363 . S
C778 C779 1.363 . S
C778 C783 1.379 . S
C778 N785 1.356 . S
C779 C778 1.363 . S
C779 C782 1.363 . S
N780 C782 1.356 . S
N780 H792 0.984 . S
N780 H793 0.985 . S
N781 C783 1.356 . S
N781 H786 0.984 . S
N781 H787 0.985 . S
C782 C776 1.379 . S
C782 C779 1.363 . S
C782 N780 1.356 . S
C783 C777 1.363 . S
C783 C778 1.379 . S
C783 N781 1.356 . S
N784 C776 1.356 . S
N784 H790 0.984 . S
N784 H791 0.984 . S
N785 C778 1.356 . S
N785 H788 0.984 . S
N785 H789 0.985 . S
H786 N781 0.984 . S
H787 N781 0.985 . S
H788 N785 0.984 . S
H789 N785 0.985 . S
H790 N784 0.984 . S
H791 N784 0.984 . S
H792 N780 0.984 . S
H793 N780 0.985 . S
C794 C795 1.363 . S
C794 C800 1.379 . S
C794 N802 1.356 . S
C795 C794 1.363 . S
C795 C801 1.363 . S
C796 C797 1.363 . S
C796 C801 1.379 . S
C796 N803 1.356 . S
C797 C796 1.363 . S
C797 C800 1.363 . S
N798 C800 1.356 . S
N798 H810 0.984 . S
N798 H811 0.985 . S
N799 C801 1.356 . S
N799 H804 0.984 . S
N799 H805 0.985 . S
C800 C794 1.379 . S
C800 C797 1.363 . S
C800 N798 1.356 . S
C801 C795 1.363 . S
C801 C796 1.379 . S
C801 N799 1.356 . S
N802 C794 1.356 . S
N802 H808 0.984 . S
N802 H809 0.984 . S
N803 C796 1.356 . S
N803 H806 0.984 . S
N803 H807 0.985 . S
H804 N799 0.984 . S
H805 N799 0.985 . S
H806 N803 0.984 . S
H807 N803 0.985 . S
H808 N802 0.984 . S
H809 N802 0.984 . S
H810 N798 0.984 . S
H811 N798 0.985 . S
C812 C813 1.363 . S
C812 C818 1.379 . S
C812 N820 1.356 . S
C813 C812 1.363 . S
C813 C819 1.363 . S
C814 C815 1.363 . S
C814 C819 1.379 . S
C814 N821 1.356 . S
C815 C814 1.363 . S
C815 C818 1.363 . S
N816 C818 1.356 . S
N816 H828 0.984 . S
N816 H829 0.985 . S
N817 C819 1.356 . S
N817 H822 0.984 . S
N817 H823 0.985 . S
C818 C812 1.379 . S
C818 C815 1.363 . S
C818 N816 1.356 . S
C819 C813 1.363 . S
C819 C814 1.379 . S
C819 N817 1.356 . S
N820 C812 1.356 . S
N820 H826 0.984 . S
N820 H827 0.984 . S
N821 C814 1.356 . S
N821 H824 0.984 . S
N821 H825 0.985 . S
H822 N817 0.984 . S
H823 N817 0.985 . S
H824 N821 0.984 . S
H825 N821 0.985 . S
H826 N820 0.984 . S
H827 N820 0.984 . S
H828 N816 0.984 . S
H829 N816 0.985 . S
C830 C831 1.363 . S
C830 C836 1.379 . S
C830 N838 1.356 . S
C831 C830 1.363 . S
C831 C837 1.363 . S
C832 C833 1.363 . S
C832 C837 1.379 . S
C832 N839 1.356 . S
C833 C832 1.363 . S
C833 C836 1.363 . S
N834 C836 1.356 . S
N834 H846 0.984 . S
N834 H847 0.985 . S
N835 C837 1.356 . S
N835 H840 0.984 . S
N835 H841 0.985 . S
C836 C830 1.379 . S
C836 C833 1.363 . S
C836 N834 1.356 . S
C837 C831 1.363 . S
C837 C832 1.379 . S
C837 N835 1.356 . S
N838 C830 1.356 . S
N838 H844 0.984 . S
N838 H845 0.984 . S
N839 C832 1.356 . S
N839 H842 0.984 . S
N839 H843 0.985 . S
H840 N835 0.984 . S
H841 N835 0.985 . S
H842 N839 0.984 . S
H843 N839 0.985 . S
H844 N838 0.984 . S
H845 N838 0.984 . S
H846 N834 0.984 . S
H847 N834 0.985 . S
C848 C849 1.363 . S
C848 C854 1.379 . S
C848 N856 1.356 . S
C849 C848 1.363 . S
C849 C855 1.363 . S
C850 C851 1.363 . S
C850 C855 1.379 . S
C850 N857 1.356 . S
C851 C850 1.363 . S
C851 C854 1.363 . S
N852 C854 1.356 . S
N852 H864 0.984 . S
N852 H865 0.985 . S
N853 C855 1.356 . S
N853 H858 0.984 . S
N853 H859 0.985 . S
C854 C848 1.379 . S
C854 C851 1.363 . S
C854 N852 1.356 . S
C855 C849 1.363 . S
C855 C850 1.379 . S
C855 N853 1.356 . S
N856 C848 1.356 . S
N856 H862 0.984 . S
N856 H863 0.984 . S
N857 C850 1.356 . S
N857 H860 0.984 . S
N857 H861 0.985 . S
H858 N853 0.984 . S
H859 N853 0.985 . S
H860 N857 0.984 . S
H861 N857 0.985 . S
H862 N856 0.984 . S
H863 N856 0.984 . S
H864 N852 0.984 . S
H865 N852 0.985 . S
C866 C867 1.363 . S
C866 C872 1.379 1_455 S
C866 N874 1.356 . S
C867 C866 1.363 . S
C867 C873 1.363 . S
C868 C869 1.363 . S
C868 C873 1.379 1_655 S
C868 N875 1.356 . S
C869 C868 1.363 . S
C869 C872 1.363 . S
N870 C872 1.356 . S
N870 H882 0.984 . S
N870 H883 0.985 . S
N871 C873 1.356 . S
N871 H876 0.984 . S
N871 H877 0.985 . S
C872 C866 1.379 1_655 S
C872 C869 1.363 . S
C872 N870 1.356 . S
C873 C867 1.363 . S
C873 C868 1.379 1_455 S
C873 N871 1.356 . S
N874 C866 1.356 . S
N874 H880 0.984 . S
N874 H881 0.984 . S
N875 C868 1.356 . S
N875 H878 0.984 . S
N875 H879 0.985 . S
H876 N871 0.984 . S
H877 N871 0.985 . S
H878 N875 0.984 . S
H879 N875 0.985 . S
H880 N874 0.984 . S
H881 N874 0.984 . S
H882 N870 0.984 . S
H883 N870 0.985 . S
C884 C885 1.363 . S
C884 C890 1.379 . S
C884 N892 1.356 . S
C885 C884 1.363 . S
C885 C891 1.363 . S
C886 C887 1.363 . S
C886 C891 1.379 . S
C886 N893 1.356 . S
C887 C886 1.363 . S
C887 C890 1.363 . S
N888 C890 1.356 . S
N888 H900 0.984 . S
N888 H901 0.985 . S
N889 C891 1.356 . S
N889 H894 0.984 . S
N889 H895 0.985 . S
C890 C884 1.379 . S
C890 C887 1.363 . S
C890 N888 1.356 . S
C891 C885 1.363 . S
C891 C886 1.379 . S
C891 N889 1.356 . S
N892 C884 1.356 . S
N892 H898 0.984 . S
N892 H899 0.984 . S
N893 C886 1.356 . S
N893 H896 0.984 . S
N893 H897 0.985 . S
H894 N889 0.984 . S
H895 N889 0.985 . S
H896 N893 0.984 . S
H897 N893 0.985 . S
H898 N892 0.984 . S
H899 N892 0.984 . S
H900 N888 0.984 . S
H901 N888 0.985 . S
C902 C903 1.363 . S
C902 C908 1.379 1_655 S
C902 N910 1.356 . S
C903 C902 1.363 . S
C903 C909 1.363 . S
C904 C905 1.363 1_655 S
C904 C909 1.379 . S
C904 N911 1.356 . S
C905 C904 1.363 1_455 S
C905 C908 1.363 . S
N906 C908 1.356 . S
N906 H918 0.984 . S
N906 H919 0.985 . S
N907 C909 1.356 . S
N907 H912 0.984 . S
N907 H913 0.985 . S
C908 C902 1.379 1_455 S
C908 C905 1.363 . S
C908 N906 1.356 . S
C909 C903 1.363 . S
C909 C904 1.379 . S
C909 N907 1.356 . S
N910 C902 1.356 . S
N910 H916 0.984 . S
N910 H917 0.984 . S
N911 C904 1.356 . S
N911 H914 0.984 1_655 S
N911 H915 0.985 . S
H912 N907 0.984 . S
H913 N907 0.985 . S
H914 N911 0.984 1_455 S
H915 N911 0.985 . S
H916 N910 0.984 . S
H917 N910 0.984 . S
H918 N906 0.984 . S
H919 N906 0.985 . S
C920 C921 1.363 . S
C920 C926 1.379 . S
C920 N928 1.356 . S
C921 C920 1.363 . S
C921 C927 1.363 . S
C922 C923 1.363 . S
C922 C927 1.379 . S
C922 N929 1.356 . S
C923 C922 1.363 . S
C923 C926 1.363 . S
N924 C926 1.356 . S
N924 H936 0.984 . S
N924 H937 0.985 . S
N925 C927 1.356 . S
N925 H930 0.984 . S
N925 H931 0.985 . S
C926 C920 1.379 . S
C926 C923 1.363 . S
C926 N924 1.356 . S
C927 C921 1.363 . S
C927 C922 1.379 . S
C927 N925 1.356 . S
N928 C920 1.356 . S
N928 H934 0.984 . S
N928 H935 0.984 . S
N929 C922 1.356 . S
N929 H932 0.984 . S
N929 H933 0.985 . S
H930 N925 0.984 . S
H931 N925 0.985 . S
H932 N929 0.984 . S
H933 N929 0.985 . S
H934 N928 0.984 . S
H935 N928 0.984 . S
H936 N924 0.984 . S
H937 N924 0.985 . S
C938 C939 1.363 . S
C938 C944 1.379 . S
C938 N946 1.356 . S
C939 C938 1.363 . S
C939 C945 1.363 . S
C940 C941 1.363 . S
C940 C945 1.379 . S
C940 N947 1.356 1_655 S
C941 C940 1.363 . S
C941 C944 1.363 . S
N942 C944 1.360 . S
N942 H954 0.984 1_554 S
N942 H955 0.981 1_554 S
N943 C945 1.356 . S
N943 H948 0.984 . S
N943 H949 0.985 . S
C944 C938 1.379 . S
C944 C941 1.363 . S
C944 N942 1.360 . S
C945 C939 1.363 . S
C945 C940 1.379 . S
C945 N943 1.356 . S
N946 C938 1.356 . S
N946 H952 0.984 . S
N946 H953 0.984 . S
N947 C940 1.356 1_455 S
N947 H950 0.984 . S
N947 H951 0.985 . S
H948 N943 0.984 . S
H949 N943 0.985 . S
H950 N947 0.984 . S
H951 N947 0.985 . S
H952 N946 0.984 . S
H953 N946 0.984 . S
H954 N942 0.984 1_556 S
H955 N942 0.981 1_556 S
C956 C957 1.363 . S
C956 C962 1.379 . S
C956 N964 1.356 . S
C957 C956 1.363 . S
C957 C963 1.363 . S
C958 C959 1.363 . S
C958 C963 1.379 . S
C958 N965 1.356 . S
C959 C958 1.363 . S
C959 C962 1.363 . S
N960 C962 1.356 . S
N960 H972 0.984 . S
N960 H973 0.985 . S
N961 C963 1.356 . S
N961 H966 0.984 . S
N961 H967 0.985 . S
C962 C956 1.379 . S
C962 C959 1.363 . S
C962 N960 1.356 . S
C963 C957 1.363 . S
C963 C958 1.379 . S
C963 N961 1.356 . S
N964 C956 1.356 . S
N964 H970 0.984 . S
N964 H971 0.984 . S
N965 C958 1.356 . S
N965 H968 0.984 . S
N965 H969 0.985 . S
H966 N961 0.984 . S
H967 N961 0.985 . S
H968 N965 0.984 . S
H969 N965 0.985 . S
H970 N964 0.984 . S
H971 N964 0.984 . S
H972 N960 0.984 . S
H973 N960 0.985 . S
C974 C975 1.363 . S
C974 C980 1.379 . S
C974 N982 1.356 . S
C975 C974 1.363 . S
C975 C981 1.363 . S
C976 C977 1.363 . S
C976 C981 1.379 . S
C976 N983 1.356 . S
C977 C976 1.363 . S
C977 C980 1.363 . S
N978 C980 1.356 . S
N978 H990 0.984 1_455 S
N978 H991 0.985 . S
N979 C981 1.356 . S
N979 H984 0.984 . S
N979 H985 0.985 . S
C980 C974 1.379 . S
C980 C977 1.363 . S
C980 N978 1.356 . S
C981 C975 1.363 . S
C981 C976 1.379 . S
C981 N979 1.356 . S
N982 C974 1.356 . S
N982 H988 0.984 . S
N982 H989 0.984 . S
N983 C976 1.356 . S
N983 H986 0.984 . S
N983 H987 0.985 . S
H984 N979 0.984 . S
H985 N979 0.985 . S
H986 N983 0.984 . S
H987 N983 0.985 . S
H988 N982 0.984 . S
H989 N982 0.984 . S
H990 N978 0.984 1_655 S
H991 N978 0.985 . S
C992 C993 1.363 . S
C992 C998 1.379 . S
C992 N1000 1.356 . S
C993 C992 1.363 . S
C993 C999 1.363 . S
C994 C995 1.363 . S
C994 C999 1.379 . S
C994 N1001 1.356 . S
C995 C994 1.363 . S
C995 C998 1.363 . S
N996 C998 1.356 . S
N996 H1008 0.984 . S
N996 H1009 0.985 . S
N997 C999 1.356 . S
N997 H1002 0.984 . S
N997 H1003 0.985 . S
C998 C992 1.379 . S
C998 C995 1.363 . S
C998 N996 1.356 . S
C999 C993 1.363 . S
C999 C994 1.379 . S
C999 N997 1.356 . S
N1000 C992 1.356 . S
N1000 H1006 0.984 . S
N1000 H1007 0.984 . S
N1001 C994 1.356 . S
N1001 H1004 0.984 . S
N1001 H1005 0.985 . S
H1002 N997 0.984 . S
H1003 N997 0.985 . S
H1004 N1001 0.984 . S
H1005 N1001 0.985 . S
H1006 N1000 0.984 . S
H1007 N1000 0.984 . S
H1008 N996 0.984 . S
H1009 N996 0.985 . S
C1010 C1011 1.363 . S
C1010 C1016 1.379 . S
C1010 N1018 1.356 1_554 S
C1011 C1010 1.363 . S
C1011 C1017 1.363 . S
C1012 C1013 1.363 . S
C1012 C1017 1.379 . S
C1012 N1019 1.356 . S
C1013 C1012 1.363 . S
C1013 C1016 1.363 . S
N1014 C1016 1.356 . S
N1014 H1026 0.984 . S
N1014 H1027 0.985 . S
N1015 C1017 1.356 . S
N1015 H1020 0.983 . S
N1015 H1021 0.985 . S
C1016 C1010 1.379 . S
C1016 C1013 1.363 . S
C1016 N1014 1.356 . S
C1017 C1011 1.363 . S
C1017 C1012 1.379 . S
C1017 N1015 1.356 . S
N1018 C1010 1.356 1_556 S
N1018 H1024 0.984 . S
N1018 H1025 0.984 . S
N1019 C1012 1.356 . S
N1019 H1022 0.984 . S
N1019 H1023 0.985 . S
H1020 N1015 0.983 . S
H1021 N1015 0.985 . S
H1022 N1019 0.984 . S
H1023 N1019 0.985 . S
H1024 N1018 0.984 . S
H1025 N1018 0.984 . S
H1026 N1014 0.984 . S
H1027 N1014 0.985 . S
C1028 C1029 1.363 . S
C1028 C1034 1.379 . S
C1028 N1036 1.356 . S
C1029 C1028 1.363 . S
C1029 C1035 1.363 . S
C1030 C1031 1.363 . S
C1030 C1035 1.379 . S
C1030 N1037 1.356 . S
C1031 C1030 1.363 . S
C1031 C1034 1.363 . S
N1032 C1034 1.356 . S
N1032 H1044 0.984 . S
N1032 H1045 0.985 . S
N1033 C1035 1.356 . S
N1033 H1038 0.984 . S
N1033 H1039 0.985 . S
C1034 C1028 1.379 . S
C1034 C1031 1.363 . S
C1034 N1032 1.356 . S
C1035 C1029 1.363 . S
C1035 C1030 1.379 . S
C1035 N1033 1.356 . S
N1036 C1028 1.356 . S
N1036 H1042 0.984 . S
N1036 H1043 0.984 . S
N1037 C1030 1.356 . S
N1037 H1040 0.984 . S
N1037 H1041 0.985 . S
H1038 N1033 0.984 . S
H1039 N1033 0.985 . S
H1040 N1037 0.984 . S
H1041 N1037 0.985 . S
H1042 N1036 0.984 . S
H1043 N1036 0.984 . S
H1044 N1032 0.984 . S
H1045 N1032 0.985 . S
C1046 C1047 1.363 . S
C1046 C1052 1.379 . S
C1046 N1054 1.356 . S
C1047 C1046 1.363 . S
C1047 C1053 1.363 . S
C1048 C1049 1.363 . S
C1048 C1053 1.379 . S
C1048 N1055 1.356 . S
C1049 C1048 1.363 . S
C1049 C1052 1.363 . S
N1050 C1052 1.356 . S
N1050 H1062 0.984 . S
N1050 H1063 0.985 . S
N1051 C1053 1.356 1_556 S
N1051 H1056 0.984 . S
N1051 H1057 0.985 . S
C1052 C1046 1.379 . S
C1052 C1049 1.363 . S
C1052 N1050 1.356 . S
C1053 C1047 1.363 . S
C1053 C1048 1.379 . S
C1053 N1051 1.356 1_554 S
N1054 C1046 1.356 . S
N1054 H1060 0.984 . S
N1054 H1061 0.984 . S
N1055 C1048 1.356 . S
N1055 H1058 0.984 . S
N1055 H1059 0.985 . S
H1056 N1051 0.984 . S
H1057 N1051 0.985 . S
H1058 N1055 0.984 . S
H1059 N1055 0.985 . S
H1060 N1054 0.984 . S
H1061 N1054 0.984 . S
H1062 N1050 0.984 . S
H1063 N1050 0.985 . S
C1064 C1065 1.363 . S
C1064 C1070 1.379 . S
C1064 N1072 1.356 . S
C1065 C1064 1.363 . S
C1065 C1071 1.363 . S
C1066 C1067 1.363 . S
C1066 C1071 1.379 . S
C1066 N1073 1.356 . S
C1067 C1066 1.363 . S
C1067 C1070 1.363 . S
N1068 C1070 1.356 . S
N1068 H1080 0.984 . S
N1068 H1081 0.985 . S
N1069 C1071 1.356 . S
N1069 H1074 0.984 . S
N1069 H1075 0.985 . S
C1070 C1064 1.379 . S
C1070 C1067 1.363 . S
C1070 N1068 1.356 . S
C1071 C1065 1.363 . S
C1071 C1066 1.379 . S
C1071 N1069 1.356 . S
N1072 C1064 1.356 . S
N1072 H1078 0.984 . S
N1072 H1079 0.984 . S
N1073 C1066 1.356 . S
N1073 H1076 0.984 . S
N1073 H1077 0.985 . S
H1074 N1069 0.984 . S
H1075 N1069 0.985 . S
H1076 N1073 0.984 . S
H1077 N1073 0.985 . S
H1078 N1072 0.984 . S
H1079 N1072 0.984 . S
H1080 N1068 0.984 . S
H1081 N1068 0.985 . S
C1082 C1083 1.363 . S
C1082 C1088 1.379 . S
C1082 N1090 1.356 . S
C1083 C1082 1.363 . S
C1083 C1089 1.363 . S
C1084 C1085 1.363 . S
C1084 C1089 1.379 . S
C1084 N1091 1.356 . S
C1085 C1084 1.363 . S
C1085 C1088 1.363 . S
N1086 C1088 1.356 . S
N1086 H1098 0.984 . S
N1086 H1099 0.985 . S
N1087 C1089 1.356 . S
N1087 H1092 0.984 . S
N1087 H1093 0.985 . S
C1088 C1082 1.379 . S
C1088 C1085 1.363 . S
C1088 N1086 1.356 . S
C1089 C1083 1.363 . S
C1089 C1084 1.379 . S
C1089 N1087 1.356 . S
N1090 C1082 1.356 . S
N1090 H1096 0.984 . S
N1090 H1097 0.984 . S
N1091 C1084 1.356 . S
N1091 H1094 0.984 . S
N1091 H1095 0.985 . S
H1092 N1087 0.984 . S
H1093 N1087 0.985 . S
H1094 N1091 0.984 . S
H1095 N1091 0.985 . S
H1096 N1090 0.984 . S
H1097 N1090 0.984 . S
H1098 N1086 0.984 . S
H1099 N1086 0.985 . S
C1100 C1101 1.363 . S
C1100 C1106 1.379 . S
C1100 N1108 1.356 . S
C1101 C1100 1.363 . S
C1101 C1107 1.363 . S
C1102 C1103 1.363 . S
C1102 C1107 1.379 . S
C1102 N1109 1.356 . S
C1103 C1102 1.363 . S
C1103 C1106 1.363 . S
N1104 C1106 1.356 . S
N1104 H1116 0.984 . S
N1104 H1117 0.985 . S
N1105 C1107 1.356 . S
N1105 H1110 0.984 . S
N1105 H1111 0.985 . S
C1106 C1100 1.379 . S
C1106 C1103 1.363 . S
C1106 N1104 1.356 . S
C1107 C1101 1.363 . S
C1107 C1102 1.379 . S
C1107 N1105 1.356 . S
N1108 C1100 1.356 . S
N1108 H1114 0.984 . S
N1108 H1115 0.984 . S
N1109 C1102 1.356 . S
N1109 H1112 0.984 . S
N1109 H1113 0.985 . S
H1110 N1105 0.984 . S
H1111 N1105 0.985 . S
H1112 N1109 0.984 . S
H1113 N1109 0.985 . S
H1114 N1108 0.984 . S
H1115 N1108 0.984 . S
H1116 N1104 0.984 . S
H1117 N1104 0.985 . S
C1118 C1119 1.363 . S
C1118 C1124 1.379 . S
C1118 N1126 1.356 . S
C1119 C1118 1.363 . S
C1119 C1125 1.363 . S
C1120 C1121 1.363 . S
C1120 C1125 1.379 . S
C1120 N1127 1.356 . S
C1121 C1120 1.363 . S
C1121 C1124 1.363 . S
N1122 C1124 1.356 . S
N1122 H1134 0.984 . S
N1122 H1135 0.985 . S
N1123 C1125 1.356 . S
N1123 H1128 0.984 . S
N1123 H1129 0.985 . S
C1124 C1118 1.379 . S
C1124 C1121 1.363 . S
C1124 N1122 1.356 . S
C1125 C1119 1.363 . S
C1125 C1120 1.379 . S
C1125 N1123 1.356 . S
N1126 C1118 1.356 . S
N1126 H1132 0.984 . S
N1126 H1133 0.984 . S
N1127 C1120 1.356 . S
N1127 H1130 0.984 . S
N1127 H1131 0.985 . S
H1128 N1123 0.984 . S
H1129 N1123 0.985 . S
H1130 N1127 0.984 . S
H1131 N1127 0.985 . S
H1132 N1126 0.984 . S
H1133 N1126 0.984 . S
H1134 N1122 0.984 . S
H1135 N1122 0.985 . S
C1136 C1137 1.363 . S
C1136 C1142 1.379 . S
C1136 N1144 1.356 . S
C1137 C1136 1.363 . S
C1137 C1143 1.363 . S
C1138 C1139 1.363 . S
C1138 C1143 1.379 . S
C1138 N1145 1.356 1_556 S
C1139 C1138 1.363 . S
C1139 C1142 1.363 . S
N1140 C1142 1.356 . S
N1140 H1152 0.984 . S
N1140 H1153 0.985 . S
N1141 C1143 1.356 . S
N1141 H1146 0.984 . S
N1141 H1147 0.985 . S
C1142 C1136 1.379 . S
C1142 C1139 1.363 . S
C1142 N1140 1.356 . S
C1143 C1137 1.363 . S
C1143 C1138 1.379 . S
C1143 N1141 1.356 . S
N1144 C1136 1.356 . S
N1144 H1150 0.984 . S
N1144 H1151 0.984 . S
N1145 C1138 1.356 1_554 S
N1145 H1148 0.984 . S
N1145 H1149 0.985 . S
H1146 N1141 0.984 . S
H1147 N1141 0.985 . S
H1148 N1145 0.984 . S
H1149 N1145 0.985 . S
H1150 N1144 0.984 . S
H1151 N1144 0.984 . S
H1152 N1140 0.984 . S
H1153 N1140 0.985 . S
C1154 C1155 1.363 . S
C1154 C1160 1.379 . S
C1154 N1162 1.356 . S
C1155 C1154 1.363 . S
C1155 C1161 1.363 . S
C1156 C1157 1.363 . S
C1156 C1161 1.379 . S
C1156 N1163 1.356 . S
C1157 C1156 1.363 . S
C1157 C1160 1.363 . S
N1158 C1160 1.356 . S
N1158 H1170 0.984 . S
N1158 H1171 0.985 . S
N1159 C1161 1.356 . S
N1159 H1164 0.984 . S
N1159 H1165 0.985 . S
C1160 C1154 1.379 . S
C1160 C1157 1.363 . S
C1160 N1158 1.356 . S
C1161 C1155 1.363 . S
C1161 C1156 1.379 . S
C1161 N1159 1.356 . S
N1162 C1154 1.356 . S
N1162 H1168 0.984 . S
N1162 H1169 0.984 . S
N1163 C1156 1.356 . S
N1163 H1166 0.984 . S
N1163 H1167 0.985 . S
H1164 N1159 0.984 . S
H1165 N1159 0.985 . S
H1166 N1163 0.984 . S
H1167 N1163 0.985 . S
H1168 N1162 0.984 . S
H1169 N1162 0.984 . S
H1170 N1158 0.984 . S
H1171 N1158 0.985 . S
C1172 C1173 1.363 . S
C1172 C1178 1.379 . S
C1172 N1180 1.356 . S
C1173 C1172 1.363 . S
C1173 C1179 1.363 . S
C1174 C1175 1.363 . S
C1174 C1179 1.379 . S
C1174 N1181 1.356 . S
C1175 C1174 1.363 . S
C1175 C1178 1.363 . S
N1176 C1178 1.356 . S
N1176 H1188 0.984 . S
N1176 H1189 0.985 . S
N1177 C1179 1.356 . S
N1177 H1182 0.984 . S
N1177 H1183 0.985 . S
C1178 C1172 1.379 . S
C1178 C1175 1.363 . S
C1178 N1176 1.356 . S
C1179 C1173 1.363 . S
C1179 C1174 1.379 . S
C1179 N1177 1.356 . S
N1180 C1172 1.356 . S
N1180 H1186 0.984 . S
N1180 H1187 0.984 . S
N1181 C1174 1.356 . S
N1181 H1184 0.984 . S
N1181 H1185 0.985 . S
H1182 N1177 0.984 . S
H1183 N1177 0.985 . S
H1184 N1181 0.984 . S
H1185 N1181 0.985 . S
H1186 N1180 0.984 . S
H1187 N1180 0.984 . S
H1188 N1176 0.984 . S
H1189 N1176 0.985 . S
C1190 C1191 1.363 . S
C1190 C1196 1.379 . S
C1190 N1198 1.356 . S
C1191 C1190 1.363 . S
C1191 C1197 1.363 . S
C1192 C1193 1.363 1_545 S
C1192 C1197 1.379 . S
C1192 N1199 1.356 1_545 S
C1193 C1192 1.363 1_565 S
C1193 C1196 1.363 1_565 S
N1194 C1196 1.356 1_565 S
N1194 H1206 0.984 1_565 S
N1194 H1207 0.985 . S
N1195 C1197 1.356 . S
N1195 H1200 0.984 . S
N1195 H1201 0.985 . S
C1196 C1190 1.379 . S
C1196 C1193 1.363 1_545 S
C1196 N1194 1.356 1_545 S
C1197 C1191 1.363 . S
C1197 C1192 1.379 . S
C1197 N1195 1.356 . S
N1198 C1190 1.356 . S
N1198 H1204 0.984 . S
N1198 H1205 0.984 . S
N1199 C1192 1.356 1_565 S
N1199 H1202 0.984 . S
N1199 H1203 0.985 . S
H1200 N1195 0.984 . S
H1201 N1195 0.985 . S
H1202 N1199 0.984 . S
H1203 N1199 0.985 . S
H1204 N1198 0.984 . S
H1205 N1198 0.984 . S
H1206 N1194 0.984 1_545 S
H1207 N1194 0.985 . S
C347 C184 1.271 1_556 S
C345 C62 1.233 . S
C365 C199 1.768 . S
C363 C73 1.711 . S
C381 C84 1.731 . S
C383 C212 1.755 . S
C401 C226 1.443 . S
C399 C49 1.123 . S
C419 C238 1.501 . S
C417 C118 1.544 . S
C437 C252 1.396 . S
C435 C137 1.360 . S
C453 C129 1.715 . S
C455 C266 1.670 . S
C473 C281 1.675 . S
C471 C106 1.656 . S
C489 C128 1.771 . S
C491 C297 1.850 . S
C509 C310 1.598 . S
C507 C104 1.249 . S
C525 C115 1.571 . S
C527 C295 1.738 . S
C545 C308 1.612 . S
C543 C139 1.613 . S
C561 C85 1.860 . S
C563 C324 1.854 . S
C579 C52 1.357 . S
C581 C323 1.427 . S
C597 C60 1.249 . S
C599 C322 1.339 . S
C615 C71 1.491 . S
C617 C325 1.758 . S
C633 C40 1.796 . S
C635 C227 1.889 1_565 S
C651 C162 1.219 . S
C653 C225 1.210 . S
C671 C185 1.311 . S
C669 C173 1.276 . S
C689 C196 1.914 . S
C687 C93 1.808 . S
C705 C51 1.530 . S
C707 C241 1.625 . S
C725 C282 1.838 . S
C723 C126 1.652 . S
C743 C239 1.770 . S
C741 C107 1.670 1_545 S
C761 C267 1.611 . S
C759 C140 1.632 . S
C779 C268 1.271 . S
C777 C161 1.233 . S
C795 C172 1.711 . S
C797 C283 1.768 . S
C813 C95 1.731 . S
C815 C240 1.755 . S
C833 C254 1.443 . S
C831 C148 1.123 . S
C849 C41 1.544 . S
C851 C210 1.501 . S
C869 C224 1.396 . S
C867 C5 1.360 . S
C887 C182 1.670 . S
C885 C19 1.715 . S
C905 C197 1.675 . S
C903 C29 1.656 . S
C921 C18 1.771 . S
C923 C311 1.850 . S
C939 C27 1.249 . S
C941 C296 1.598 . S
C957 C38 1.571 . S
C959 C309 1.738 . S
C975 C7 1.614 . S
C977 C294 1.612 . S
C995 C338 1.854 . S
C993 C96 1.860 . S
C1013 C337 1.427 . S
C1011 C151 1.357 1_554 S
C1031 C336 1.339 . S
C1029 C159 1.249 . S
C1047 C170 1.490 1_554 S
C1049 C339 1.758 . S
C1065 C117 1.796 . S
C1067 C255 1.889 . S
C1085 C253 1.210 . S
C1083 C63 1.219 . S
C1103 C269 1.311 . S
C1101 C74 1.276 . S
C1121 C280 1.914 . S
C1119 C82 1.808 . S
C1137 C150 1.530 . S
C1139 C213 1.625 . S
C1157 C198 1.838 . S
C1155 C16 1.652 . S
C1173 C30 1.685 . S
C1175 C211 1.771 . S
C1193 C183 1.611 . S
C1191 C8 1.632 . S
