# Generated by pormake.
# Topology ocu, (6,8)-cn, num edge types: 1
# Building blocks:
#     Node 0, Type 0, BuildingBlock: JUFBIX_clean_sbu_0, # of connection points: 6
#     Node 1, Type 0, BuildingBlock: JUFBIX_clean_sbu_0, # of connection points: 6
#     Node 2, Type 0, BuildingBlock: JUFBIX_clean_sbu_0, # of connection points: 6
#     Node 3, Type 0, BuildingBlock: JUFBIX_clean_sbu_0, # of connection points: 6
#     Node 4, Type 0, BuildingBlock: JUFBIX_clean_sbu_0, # of connection points: 6
#     Node 5, Type 0, BuildingBlock: JUFBIX_clean_sbu_0, # of connection points: 6
#     Node 6, Type 0, BuildingBlock: JUFBIX_clean_sbu_0, # of connection points: 6
#     Node 7, Type 0, BuildingBlock: JUFBIX_clean_sbu_0, # of connection points: 6
#     Node 8, Type 1, BuildingBlock: TAGTUT_clean_sbu_1, # of connection points: 8
#     Node 9, Type 1, BuildingBlock: TAGTUT_clean_sbu_1, # of connection points: 8
#     Node 10, Type 1, BuildingBlock: TAGTUT_clean_sbu_1, # of connection points: 8
#     Node 11, Type 1, BuildingBlock: TAGTUT_clean_sbu_1, # of connection points: 8
#     Node 12, Type 1, BuildingBlock: TAGTUT_clean_sbu_1, # of connection points: 8
#     Node 13, Type 1, BuildingBlock: TAGTUT_clean_sbu_1, # of connection points: 8
#     Edge 14, Type (0, 1), BuildingBlock: UVAHIK_clean_linker_0, # of connection points: 2
#     Edge 15, Type (0, 1), BuildingBlock: UVAHIK_clean_linker_0, # of connection points: 2
#     Edge 16, Type (0, 1), BuildingBlock: UVAHIK_clean_linker_0, # of connection points: 2
#     Edge 17, Type (0, 1), BuildingBlock: UVAHIK_clean_linker_0, # of connection points: 2
#     Edge 18, Type (0, 1), BuildingBlock: UVAHIK_clean_linker_0, # of connection points: 2
#     Edge 19, Type (0, 1), BuildingBlock: UVAHIK_clean_linker_0, # of connection points: 2
#     Edge 20, Type (0, 1), BuildingBlock: UVAHIK_clean_linker_0, # of connection points: 2
#     Edge 21, Type (0, 1), BuildingBlock: UVAHIK_clean_linker_0, # of connection points: 2
#     Edge 22, Type (0, 1), BuildingBlock: UVAHIK_clean_linker_0, # of connection points: 2
#     Edge 23, Type (0, 1), BuildingBlock: UVAHIK_clean_linker_0, # of connection points: 2
#     Edge 24, Type (0, 1), BuildingBlock: UVAHIK_clean_linker_0, # of connection points: 2
#     Edge 25, Type (0, 1), BuildingBlock: UVAHIK_clean_linker_0, # of connection points: 2
#     Edge 26, Type (0, 1), BuildingBlock: UVAHIK_clean_linker_0, # of connection points: 2
#     Edge 27, Type (0, 1), BuildingBlock: UVAHIK_clean_linker_0, # of connection points: 2
#     Edge 28, Type (0, 1), BuildingBlock: UVAHIK_clean_linker_0, # of connection points: 2
#     Edge 29, Type (0, 1), BuildingBlock: UVAHIK_clean_linker_0, # of connection points: 2
#     Edge 30, Type (0, 1), BuildingBlock: UVAHIK_clean_linker_0, # of connection points: 2
#     Edge 31, Type (0, 1), BuildingBlock: UVAHIK_clean_linker_0, # of connection points: 2
#     Edge 32, Type (0, 1), BuildingBlock: UVAHIK_clean_linker_0, # of connection points: 2
#     Edge 33, Type (0, 1), BuildingBlock: UVAHIK_clean_linker_0, # of connection points: 2
#     Edge 34, Type (0, 1), BuildingBlock: UVAHIK_clean_linker_0, # of connection points: 2
#     Edge 35, Type (0, 1), BuildingBlock: UVAHIK_clean_linker_0, # of connection points: 2
#     Edge 36, Type (0, 1), BuildingBlock: UVAHIK_clean_linker_0, # of connection points: 2
#     Edge 37, Type (0, 1), BuildingBlock: UVAHIK_clean_linker_0, # of connection points: 2
#     Edge 38, Type (0, 1), BuildingBlock: UVAHIK_clean_linker_0, # of connection points: 2
#     Edge 39, Type (0, 1), BuildingBlock: UVAHIK_clean_linker_0, # of connection points: 2
#     Edge 40, Type (0, 1), BuildingBlock: UVAHIK_clean_linker_0, # of connection points: 2
#     Edge 41, Type (0, 1), BuildingBlock: UVAHIK_clean_linker_0, # of connection points: 2
#     Edge 42, Type (0, 1), BuildingBlock: UVAHIK_clean_linker_0, # of connection points: 2
#     Edge 43, Type (0, 1), BuildingBlock: UVAHIK_clean_linker_0, # of connection points: 2
#     Edge 44, Type (0, 1), BuildingBlock: UVAHIK_clean_linker_0, # of connection points: 2
#     Edge 45, Type (0, 1), BuildingBlock: UVAHIK_clean_linker_0, # of connection points: 2
#     Edge 46, Type (0, 1), BuildingBlock: UVAHIK_clean_linker_0, # of connection points: 2
#     Edge 47, Type (0, 1), BuildingBlock: UVAHIK_clean_linker_0, # of connection points: 2
#     Edge 48, Type (0, 1), BuildingBlock: UVAHIK_clean_linker_0, # of connection points: 2
#     Edge 49, Type (0, 1), BuildingBlock: UVAHIK_clean_linker_0, # of connection points: 2
#     Edge 50, Type (0, 1), BuildingBlock: UVAHIK_clean_linker_0, # of connection points: 2
#     Edge 51, Type (0, 1), BuildingBlock: UVAHIK_clean_linker_0, # of connection points: 2
#     Edge 52, Type (0, 1), BuildingBlock: UVAHIK_clean_linker_0, # of connection points: 2
#     Edge 53, Type (0, 1), BuildingBlock: UVAHIK_clean_linker_0, # of connection points: 2
#     Edge 54, Type (0, 1), BuildingBlock: UVAHIK_clean_linker_0, # of connection points: 2
#     Edge 55, Type (0, 1), BuildingBlock: UVAHIK_clean_linker_0, # of connection points: 2
#     Edge 56, Type (0, 1), BuildingBlock: UVAHIK_clean_linker_0, # of connection points: 2
#     Edge 57, Type (0, 1), BuildingBlock: UVAHIK_clean_linker_0, # of connection points: 2
#     Edge 58, Type (0, 1), BuildingBlock: UVAHIK_clean_linker_0, # of connection points: 2
#     Edge 59, Type (0, 1), BuildingBlock: UVAHIK_clean_linker_0, # of connection points: 2
#     Edge 60, Type (0, 1), BuildingBlock: UVAHIK_clean_linker_0, # of connection points: 2
#     Edge 61, Type (0, 1), BuildingBlock: UVAHIK_clean_linker_0, # of connection points: 2
# Relax obj value: 0.171
# Max RMSD: 0.304
# Mean RMSD: 0.184
data_MOF--net-ocu--node1-JUFBIX_clean_sbu_0--node2-TAGTUT_clean_sbu_1--edge1-UVAHIK_clean_linker_0
_symmetry_space_group_name_H-M    P1
_symmetry_Int_Tables_number       1
_symmetry_cell_setting            triclinic
loop_
_symmetry_equiv_pos_as_xyz
'x, y, z'
_cell_length_a     47.632758
_cell_length_b     45.99961
_cell_length_c     49.723044
_cell_angle_alpha  93.27848
_cell_angle_beta   95.180592
_cell_angle_gamma 99.780577
loop_
_atom_site_label
_atom_site_type_symbol
_atom_site_fract_x
_atom_site_fract_y
_atom_site_fract_z
_atom_type_partial_charge
Co0 Co 0.23881 0.23406 0.24555 0.0
C1 C 0.23257 0.2753 0.28718 0.0
Co2 Co 0.27438 0.27177 0.25246 0.0
C3 C 0.1953 0.18785 0.25874 0.0
C4 C 0.19302 0.19242 0.21606 0.0
N5 N 0.20828 0.20326 0.23976 0.0
N6 N 0.17241 0.1679 0.24794 0.0
C7 C 0.17082 0.17069 0.22106 0.0
H8 H 0.20203 0.19188 0.28021 0.0
H9 H 0.19749 0.20016 0.19649 0.0
C10 C 0.28029 0.23026 0.21074 0.0
N11 N 0.30498 0.30273 0.25793 0.0
C12 C 0.32034 0.31477 0.23865 0.0
C13 C 0.31783 0.31706 0.28139 0.0
N14 N 0.34251 0.33598 0.24895 0.0
C15 C 0.3409 0.33754 0.27594 0.0
C16 C 0.28314 0.22372 0.28246 0.0
O17 O 0.25619 0.21739 0.21681 0.0
O18 O 0.29197 0.25452 0.22377 0.0
O19 O 0.29378 0.24999 0.27767 0.0
O20 O 0.25861 0.21212 0.27065 0.0
O21 O 0.25654 0.28858 0.28105 0.0
H22 H 0.31117 0.31255 0.30119 0.0
H23 H 0.31565 0.30733 0.21746 0.0
O24 O 0.22129 0.2508 0.27435 0.0
O25 O 0.21935 0.25608 0.22071 0.0
O26 O 0.25483 0.2936 0.2271 0.0
C27 C 0.23012 0.28217 0.21562 0.0
H28 H 0.15482 0.15794 0.20613 0.0
H29 H 0.35532 0.35225 0.29081 0.0
Co30 Co 0.78191 0.26911 0.23913 0.0
C31 C 0.76416 0.30005 0.28311 0.0
Co32 Co 0.74204 0.24799 0.25421 0.0
C33 C 0.83139 0.2839 0.20946 0.0
C34 C 0.83935 0.29845 0.25153 0.0
N35 N 0.81834 0.28575 0.23229 0.0
N36 N 0.85975 0.29468 0.21384 0.0
C37 C 0.86473 0.30407 0.24025 0.0
H38 H 0.82055 0.27373 0.1903 0.0
H39 H 0.83667 0.30229 0.27273 0.0
C40 C 0.75937 0.21709 0.20997 0.0
N41 N 0.70561 0.23126 0.26076 0.0
C42 C 0.69249 0.23098 0.28368 0.0
C43 C 0.68476 0.21961 0.24099 0.0
N44 N 0.66423 0.21979 0.27881 0.0
C45 C 0.65944 0.21243 0.25199 0.0
C46 C 0.7374 0.2891 0.2133 0.0
O47 O 0.78035 0.23836 0.21117 0.0
O48 O 0.74096 0.21751 0.22678 0.0
O49 O 0.72485 0.27129 0.22885 0.0
O50 O 0.76453 0.29233 0.21375 0.0
O51 O 0.74345 0.27853 0.28212 0.0
H52 H 0.68758 0.21726 0.21968 0.0
H53 H 0.70326 0.23962 0.30332 0.0
O54 O 0.78282 0.29981 0.26649 0.0
O55 O 0.7992 0.24593 0.26468 0.0
O56 O 0.75938 0.22474 0.27949 0.0
C57 C 0.78654 0.22809 0.28017 0.0
H58 H 0.88525 0.31426 0.25073 0.0
H59 H 0.63914 0.20229 0.24107 0.0
Co60 Co 0.78013 0.74903 0.27087 0.0
C61 C 0.79555 0.81024 0.26864 0.0
Co62 Co 0.75758 0.76799 0.2375 0.0
C63 C 0.82173 0.71934 0.29797 0.0
C64 C 0.80401 0.74727 0.32523 0.0
N65 N 0.80115 0.73605 0.29928 0.0
N66 N 0.83791 0.72044 0.32183 0.0
C67 C 0.82651 0.73771 0.33912 0.0
H68 H 0.82574 0.70795 0.27946 0.0
H69 H 0.79217 0.76341 0.33305 0.0
C70 C 0.74178 0.70704 0.23986 0.0
N71 N 0.73695 0.78194 0.20962 0.0
C72 C 0.71953 0.80185 0.21241 0.0
C73 C 0.7335 0.77311 0.183 0.0
N74 N 0.70497 0.80544 0.1888 0.0
C75 C 0.71382 0.78771 0.17005 0.0
C76 C 0.80612 0.74839 0.22281 0.0
O77 O 0.75963 0.70995 0.26088 0.0
O78 O 0.73796 0.72949 0.22725 0.0
O79 O 0.78611 0.7616 0.21415 0.0
O80 O 0.80772 0.74185 0.24727 0.0
O81 O 0.77704 0.807 0.2482 0.0
H82 H 0.74376 0.75635 0.17381 0.0
H83 H 0.71706 0.81312 0.23153 0.0
O84 O 0.80062 0.78772 0.28049 0.0
O85 O 0.75214 0.75652 0.2944 0.0
O86 O 0.72915 0.77387 0.26067 0.0
C87 C 0.73129 0.76824 0.28532 0.0
H88 H 0.83511 0.74493 0.35976 0.0
H89 H 0.70567 0.78454 0.14885 0.0
Co90 Co 0.23777 0.76624 0.24869 0.0
C91 C 0.27139 0.78875 0.29596 0.0
Co92 Co 0.27251 0.74162 0.25997 0.0
C93 C 0.1803 0.77849 0.24501 0.0
C94 C 0.21026 0.8153 0.2349 0.0
N95 N 0.20794 0.78668 0.24044 0.0
N96 N 0.16563 0.80113 0.24403 0.0
C97 C 0.18436 0.82419 0.23706 0.0
H98 H 0.17159 0.75694 0.25117 0.0
H99 H 0.23009 0.82968 0.23219 0.0
C100 C 0.23875 0.71845 0.21297 0.0
N101 N 0.3021 0.72112 0.26841 0.0
C102 C 0.3299 0.72955 0.26467 0.0
C103 C 0.29959 0.69236 0.27345 0.0
N104 N 0.34456 0.70689 0.26551 0.0
C105 C 0.32558 0.68359 0.27172 0.0
C106 C 0.22263 0.72009 0.28387 0.0
O107 O 0.22551 0.73972 0.21764 0.0
O108 O 0.25975 0.71502 0.22936 0.0
O109 O 0.24833 0.71666 0.28195 0.0
O110 O 0.2135 0.74017 0.27071 0.0
O111 O 0.28485 0.76792 0.29059 0.0
H112 H 0.27962 0.67785 0.27543 0.0
H113 H 0.3387 0.75131 0.25903 0.0
O114 O 0.25032 0.7927 0.27988 0.0
O115 O 0.26238 0.79178 0.2271 0.0
O116 O 0.29665 0.76719 0.23754 0.0
C117 C 0.28792 0.7878 0.22485 0.0
H118 H 0.1807 0.84676 0.23667 0.0
H119 H 0.32914 0.66096 0.27166 0.0
Co120 Co 0.27197 0.76335 0.74245 0.0
C121 C 0.25499 0.79473 0.78682 0.0
Co122 Co 0.2327 0.74247 0.75875 0.0
C123 C 0.3208 0.78109 0.71204 0.0
C124 C 0.32931 0.79164 0.75481 0.0
N125 N 0.30815 0.78026 0.73524 0.0
N126 N 0.34908 0.79232 0.71656 0.0
C127 C 0.35436 0.79915 0.74343 0.0
H128 H 0.30972 0.77278 0.69243 0.0
H129 H 0.3269 0.79357 0.77623 0.0
C130 C 0.24999 0.71093 0.71462 0.0
N131 N 0.19655 0.72551 0.76607 0.0
C132 C 0.18361 0.72749 0.78896 0.0
C133 C 0.17553 0.71239 0.74701 0.0
N134 N 0.15531 0.71642 0.78476 0.0
C135 C 0.15025 0.70668 0.75843 0.0
C136 C 0.22679 0.78262 0.7171 0.0
O137 O 0.27014 0.73283 0.7145 0.0
O138 O 0.23206 0.71117 0.73196 0.0
O139 O 0.2147 0.76464 0.73279 0.0
O140 O 0.25396 0.78655 0.7175 0.0
O141 O 0.23397 0.7736 0.78598 0.0
H142 H 0.17811 0.70834 0.72581 0.0
H143 H 0.19447 0.73795 0.80801 0.0
O144 O 0.27343 0.79397 0.77007 0.0
O145 O 0.28978 0.73982 0.76741 0.0
O146 O 0.25076 0.72044 0.78466 0.0
C147 C 0.27769 0.72284 0.78388 0.0
H148 H 0.37484 0.80911 0.75413 0.0
H149 H 0.12974 0.69619 0.74813 0.0
Co150 Co 0.26794 0.24429 0.76192 0.0
C151 C 0.28884 0.30495 0.76557 0.0
Co152 Co 0.24975 0.26861 0.72976 0.0
C153 C 0.30033 0.20384 0.78499 0.0
C154 C 0.28718 0.23147 0.81585 0.0
N155 N 0.28495 0.22545 0.78879 0.0
N156 N 0.31247 0.19644 0.80847 0.0
C157 C 0.3041 0.2135 0.82806 0.0
H158 H 0.30317 0.1941 0.7653 0.0
H159 H 0.27806 0.24858 0.82594 0.0
C160 C 0.2291 0.20775 0.72602 0.0
N161 N 0.23222 0.2866 0.70218 0.0
C162 C 0.21154 0.30307 0.7042 0.0
C163 C 0.23129 0.27897 0.67547 0.0
N164 N 0.19682 0.30486 0.68006 0.0
C165 C 0.20963 0.29017 0.66186 0.0
C166 C 0.29738 0.24669 0.71587 0.0
O167 O 0.24582 0.20758 0.74734 0.0
O168 O 0.22725 0.23205 0.71576 0.0
O169 O 0.27873 0.26154 0.70728 0.0
O170 O 0.29694 0.23798 0.73956 0.0
O171 O 0.27217 0.30548 0.7442 0.0
H172 H 0.24343 0.26368 0.66669 0.0
H173 H 0.20599 0.31174 0.72328 0.0
O174 O 0.29021 0.2806 0.776 0.0
O175 O 0.23878 0.25105 0.78452 0.0
O176 O 0.22112 0.27517 0.75237 0.0
C177 C 0.22038 0.26628 0.776 0.0
H178 H 0.3109 0.21399 0.84948 0.0
H179 H 0.20216 0.2852 0.64063 0.0
Co180 Co 0.73868 0.261 0.74364 0.0
C181 C 0.77055 0.28176 0.79186 0.0
Co182 Co 0.77291 0.23571 0.75439 0.0
C183 C 0.68901 0.28579 0.751 0.0
C184 C 0.70325 0.29471 0.71225 0.0
N185 N 0.70905 0.28083 0.73477 0.0
N186 N 0.67102 0.30229 0.73972 0.0
C187 C 0.67999 0.30836 0.71543 0.0
H188 H 0.68854 0.27884 0.77142 0.0
H189 H 0.71564 0.29561 0.69502 0.0
C190 C 0.74145 0.21533 0.70602 0.0
N191 N 0.80267 0.21534 0.76293 0.0
C192 C 0.83055 0.22418 0.7596 0.0
C193 C 0.80038 0.18646 0.76748 0.0
N194 N 0.84548 0.20174 0.76032 0.0
C195 C 0.82659 0.17808 0.76592 0.0
C196 C 0.722 0.21304 0.77639 0.0
O197 O 0.72797 0.23604 0.71176 0.0
O198 O 0.76168 0.21034 0.72251 0.0
O199 O 0.74768 0.20928 0.77461 0.0
O200 O 0.71347 0.23393 0.76393 0.0
O201 O 0.78395 0.26091 0.78622 0.0
H202 H 0.78047 0.17166 0.76905 0.0
H203 H 0.83931 0.24615 0.75444 0.0
O204 O 0.74996 0.28638 0.77555 0.0
O205 O 0.76363 0.28769 0.7237 0.0
O206 O 0.7978 0.26285 0.73365 0.0
C207 C 0.7892 0.2839 0.72151 0.0
H208 H 0.67087 0.32225 0.70142 0.0
H209 H 0.83045 0.15554 0.76565 0.0
Co210 Co 0.7435 0.74161 0.74871 0.0
C211 C 0.7375 0.78153 0.79119 0.0
Co212 Co 0.77942 0.7789 0.75609 0.0
C213 C 0.69929 0.69514 0.75984 0.0
C214 C 0.69705 0.7021 0.71759 0.0
N215 N 0.71251 0.71144 0.74154 0.0
N216 N 0.67607 0.67608 0.74839 0.0
C217 C 0.67445 0.68038 0.72178 0.0
H218 H 0.70604 0.69794 0.78135 0.0
H219 H 0.70161 0.71089 0.69843 0.0
C220 C 0.78526 0.7387 0.71374 0.0
N221 N 0.81059 0.80896 0.76357 0.0
C222 C 0.82452 0.82569 0.74591 0.0
C223 C 0.82627 0.81663 0.78772 0.0
N224 N 0.84847 0.84312 0.75801 0.0
C225 C 0.84979 0.8375 0.78429 0.0
C226 C 0.78688 0.72894 0.78466 0.0
O227 O 0.76131 0.72564 0.72004 0.0
O228 O 0.797 0.76306 0.72663 0.0
O229 O 0.79802 0.75508 0.78007 0.0
O230 O 0.76203 0.71818 0.7732 0.0
O231 O 0.76172 0.79455 0.78542 0.0
H232 H 0.82143 0.80692 0.80643 0.0
H233 H 0.81799 0.82411 0.72436 0.0
O234 O 0.72571 0.75765 0.77761 0.0
O235 O 0.72518 0.76501 0.72432 0.0
O236 O 0.76059 0.80255 0.73185 0.0
C237 C 0.73602 0.79132 0.71992 0.0
H238 H 0.65814 0.66871 0.70653 0.0
H239 H 0.86671 0.84748 0.79973 0.0
C240 C 0.96352 0.0961 0.54022 0.0
C241 C 0.95997 0.07183 0.45454 0.0
C242 C 0.94309 0.95897 0.48357 0.0
Mg243 Mg 1.00751 0.07816 0.50265 0.0
O244 O 0.99113 0.04128 0.51399 0.0
Mg245 Mg 0.94875 0.02826 0.5072 0.0
Mg246 Mg 1.00364 1.00441 0.50092 0.0
O247 O 0.01609 0.96746 0.48777 0.0
Mg248 Mg 0.99971 0.93031 0.49848 0.0
Mg249 Mg 0.05841 0.98038 0.49395 0.0
C250 C 0.06425 0.04978 0.51746 0.0
C251 C 0.0336 0.01729 0.44615 0.0
O252 O 0.94637 0.07178 0.53217 0.0
O253 O 0.98842 0.10282 0.532 0.0
O254 O 0.9455 0.05276 0.46799 0.0
O255 O 0.98588 0.08354 0.4629 0.0
O256 O 0.0527 0.07253 0.5121 0.0
O257 O 0.04943 0.02357 0.5161 0.0
C258 C 0.97273 0.9909 0.55525 0.0
O259 O 0.99397 0.98713 0.54218 0.0
O260 O 0.9536 0.00507 0.54577 0.0
O261 O 0.06081 0.9369 0.46904 0.0
O262 O 0.01878 0.90583 0.46889 0.0
O263 O 0.06212 0.95607 0.53317 0.0
C264 C 0.04374 0.91261 0.46084 0.0
O265 O 0.02183 0.92492 0.53809 0.0
O266 O 0.95449 0.93606 0.48873 0.0
C267 C 0.04773 0.93677 0.54648 0.0
O268 O 0.95803 0.98514 0.48548 0.0
O269 O 0.01307 0.02187 0.45981 0.0
O270 O 0.05274 1.00284 0.45502 0.0
C271 C 0.44175 0.0803 0.03234 0.0
C272 C 0.47814 0.06681 0.95448 0.0
C273 C 0.45579 0.95415 0.96686 0.0
Mg274 Mg 0.501 0.07244 0.01411 0.0
O275 O 0.48537 0.03227 0.01669 0.0
Mg276 Mg 0.44719 0.01708 0.99507 0.0
Mg277 Mg 0.50669 1.00179 0.00242 0.0
O278 O 0.52793 0.97143 0.98791 0.0
Mg279 Mg 0.51225 0.93105 0.98903 0.0
Mg280 Mg 0.56601 0.9864 0.00958 0.0
C281 C 0.55785 0.04985 0.03619 0.0
C282 C 0.55732 0.03367 0.96427 0.0
O283 O 0.43064 0.0554 0.01921 0.0
O284 O 0.46861 0.09088 0.03353 0.0
O285 O 0.45879 0.04609 0.96044 0.0
O286 O 0.49776 0.08043 0.97203 0.0
O287 O 0.54446 0.07144 0.03183 0.0
O288 O 0.54597 0.02264 0.03078 0.0
C289 C 0.4559 0.96988 0.04052 0.0
O290 O 0.48236 0.97182 0.03524 0.0
O291 O 0.43929 0.98537 0.02845 0.0
O292 O 0.58275 0.94852 0.98513 0.0
O293 O 0.54509 0.91324 0.9696 0.0
O294 O 0.55372 0.95666 0.04367 0.0
C295 C 0.57195 0.92394 0.97137 0.0
O296 O 0.51494 0.9223 0.03092 0.0
O297 O 0.46913 0.93234 0.97029 0.0
C298 C 0.53421 0.93566 0.04895 0.0
O299 O 0.46758 0.98102 0.97413 0.0
O300 O 0.53087 0.03162 0.96955 0.0
O301 O 0.57406 0.01836 0.97641 0.0
C302 C 0.94836 0.57751 0.04451 0.0
C303 C 0.95383 0.56608 0.9595 0.0
C304 C 0.95526 0.45083 0.97821 0.0
Mg305 Mg 0.99847 0.57266 0.0093 0.0
O306 O 0.98856 0.53285 0.01656 0.0
Mg307 Mg 0.94762 0.51379 0.00605 0.0
Mg308 Mg 1.00831 0.50351 0.99803 0.0
O309 O 0.02811 0.47415 0.97951 0.0
Mg310 Mg 0.01841 0.43429 0.98673 0.0
Mg311 Mg 0.06904 0.49332 0.99013 0.0
C312 C 0.06148 0.55618 0.0191 0.0
C313 C 0.03867 0.53517 0.94971 0.0
O314 O 0.93596 0.55127 0.03514 0.0
O315 O 0.9729 0.58948 0.03796 0.0
O316 O 0.94082 0.54346 0.97003 0.0
O317 O 0.97841 0.5796 0.96992 0.0
O318 O 0.04508 0.57569 0.01684 0.0
O319 O 0.05161 0.52827 0.01657 0.0
C320 C 0.9779 0.47176 0.04632 0.0
O321 O 1.00045 0.4764 0.0339 0.0
O322 O 0.95598 0.48382 0.0401 0.0
O323 O 0.08081 0.45594 0.96114 0.0
O324 O 0.04403 0.41753 0.95791 0.0
O325 O 0.07598 0.46373 0.0262 0.0
C326 C 0.06862 0.42971 0.95158 0.0
O327 O 0.03851 0.42744 0.02607 0.0
O328 O 0.97171 0.43137 0.98049 0.0
C329 C 0.06297 0.44105 0.03665 0.0
O330 O 0.96498 0.47875 0.97958 0.0
O331 O 0.01615 0.53057 0.96217 0.0
O332 O 0.06064 0.5232 0.95599 0.0
C333 C 0.46007 0.59829 0.04269 0.0
C334 C 0.46109 0.57756 0.95718 0.0
C335 C 0.45406 0.46388 0.98345 0.0
Mg336 Mg 0.50719 0.58605 0.00647 0.0
O337 O 0.49339 0.54813 0.01699 0.0
Mg338 Mg 0.45184 0.53143 0.00836 0.0
Mg339 Mg 0.5102 0.51429 0.00349 0.0
O340 O 0.5273 0.48052 0.98982 0.0
Mg341 Mg 0.51435 0.44156 0.99813 0.0
Mg342 Mg 0.56878 0.49778 0.99805 0.0
C343 C 0.56686 0.56443 0.02308 0.0
C344 C 0.54124 0.53357 0.95077 0.0
O345 O 0.44476 0.57303 0.03416 0.0
O346 O 0.48481 0.60733 0.03495 0.0
O347 O 0.44727 0.55677 0.96939 0.0
O348 O 0.48614 0.59089 0.9667 0.0
O349 O 0.55319 0.58558 0.01733 0.0
O350 O 0.55435 0.53728 0.02109 0.0
C351 C 0.47833 0.49493 0.05603 0.0
O352 O 0.50045 0.49388 0.04338 0.0
O353 O 0.45787 0.50747 0.04666 0.0
O354 O 0.57676 0.45775 0.9718 0.0
O355 O 0.53753 0.42212 0.96853 0.0
O356 O 0.57384 0.47155 0.03619 0.0
C357 C 0.56247 0.4326 0.96189 0.0
O358 O 0.53585 0.43597 0.03764 0.0
O359 O 0.46815 0.44274 0.98814 0.0
C360 C 0.56055 0.44981 0.04766 0.0
O361 O 0.4662 0.49118 0.9859 0.0
O362 O 0.51931 0.53466 0.96357 0.0
O363 O 0.56202 0.52148 0.95996 0.0
C364 C 0.94779 0.58278 0.5408 0.0
C365 C 0.98512 0.57655 0.46319 0.0
C366 C 0.95353 0.46067 0.4642 0.0
Mg367 Mg 1.00611 0.5722 0.52268 0.0
O368 O 0.98763 0.53263 0.51976 0.0
Mg369 Mg 0.94937 0.52294 0.49731 0.0
Mg370 Mg 1.00659 0.50164 0.50271 0.0
O371 O 0.02559 0.47069 0.48556 0.0
Mg372 Mg 1.00743 0.43092 0.48259 0.0
Mg373 Mg 0.06398 0.48079 0.50775 0.0
C374 C 0.05993 0.54264 0.54087 0.0
C375 C 0.05909 0.53316 0.46655 0.0
O376 O 0.93536 0.56059 0.52451 0.0
O377 O 0.97511 0.59061 0.54421 0.0
O378 O 0.964 0.55606 0.46602 0.0
O379 O 1.00476 0.58574 0.48236 0.0
O380 O 0.04821 0.5658 0.53963 0.0
O381 O 0.04643 0.51671 0.53224 0.0
C382 C 0.95383 0.47063 0.53894 0.0
O383 O 0.97992 0.47065 0.53318 0.0
O384 O 0.93881 0.48843 0.52811 0.0
O385 O 0.07819 0.44395 0.48005 0.0
O386 O 0.03894 0.41255 0.46135 0.0
O387 O 0.04964 0.44741 0.5388 0.0
C388 C 0.06618 0.42128 0.46418 0.0
O389 O 0.00881 0.41751 0.523 0.0
O390 O 0.9653 0.43751 0.46536 0.0
C391 C 0.02867 0.4269 0.54194 0.0
O392 O 0.96689 0.48653 0.47325 0.0
O393 O 0.03295 0.53272 0.47224 0.0
O394 O 0.07437 0.51559 0.47731 0.0
C395 C 0.44989 0.07673 0.54848 0.0
C396 C 0.45189 0.06726 0.46275 0.0
C397 C 0.45855 0.95183 0.48004 0.0
Mg398 Mg 0.49877 0.07481 0.5119 0.0
O399 O 0.49044 0.03448 0.51747 0.0
Mg400 Mg 0.44966 0.01435 0.50819 0.0
Mg401 Mg 0.51068 0.00566 0.49861 0.0
O402 O 0.53091 0.97684 0.47972 0.0
Mg403 Mg 0.52258 0.93661 0.48573 0.0
Mg404 Mg 0.57165 0.9971 0.4892 0.0
C405 C 0.56275 0.05962 0.51685 0.0
C406 C 0.5388 0.03681 0.44868 0.0
O407 O 0.43743 0.05127 0.53729 0.0
O408 O 0.47477 0.08924 0.54321 0.0
O409 O 0.44048 0.04304 0.47196 0.0
O410 O 0.47529 0.08238 0.47428 0.0
O411 O 0.54576 0.07866 0.51558 0.0
O412 O 0.55371 0.03161 0.51578 0.0
C413 C 0.48248 0.97439 0.54849 0.0
O414 O 0.50413 0.97832 0.53476 0.0
O415 O 0.46028 0.98621 0.54304 0.0
O416 O 0.58418 0.96011 0.46054 0.0
O417 O 0.54725 0.92172 0.45503 0.0
O418 O 0.58062 0.96872 0.52568 0.0
C419 C 0.57208 0.93438 0.44972 0.0
O420 O 0.54541 0.92981 0.52397 0.0
O421 O 0.47554 0.93278 0.48143 0.0
C422 C 0.56893 0.94488 0.53531 0.0
O423 O 0.46762 0.97985 0.4814 0.0
O424 O 0.51721 0.03282 0.4625 0.0
O425 O 0.56108 0.02509 0.4541 0.0
C426 C 0.12412 0.14053 0.25327 0.0
C427 C 0.15336 0.14852 0.26252 0.0
C428 C 0.1055 0.12282 0.26833 0.0
C429 C 0.10529 0.06996 0.32107 0.0
H430 H 0.03517 0.09509 0.33928 0.0
C431 C 0.04261 0.00965 0.39834 0.0
C432 C 0.03547 0.02811 0.4191 0.0
C433 C 0.04938 0.02083 0.37387 0.0
C434 C 0.05462 0.08774 0.33427 0.0
H435 H 0.18617 0.14361 0.29422 0.0
H436 H 0.15383 0.113 0.32054 0.0
H437 H 0.06356 0.1215 0.30666 0.0
H438 H 0.02773 0.07198 0.43028 0.0
H439 H 0.04095 0.09219 0.38781 0.0
H440 H 0.09772 0.03751 0.34958 0.0
C441 C 0.14524 0.12027 0.30166 0.0
C442 C 0.07069 0.10266 0.31543 0.0
C443 C 0.16371 0.13805 0.28676 0.0
C444 C 0.03319 0.05741 0.41444 0.0
C445 C 0.04063 0.06887 0.39007 0.0
C446 C 0.08938 0.05517 0.33983 0.0
C447 C 0.11594 0.11255 0.29268 0.0
C448 C 0.09661 0.09438 0.30931 0.0
C449 C 0.04998 0.05094 0.36999 0.0
C450 C 0.06419 0.06427 0.34715 0.0
H451 H 0.11556 0.14854 0.23475 0.0
H452 H 0.08302 0.11709 0.26095 0.0
H453 H 0.12499 0.06287 0.31644 0.0
H454 H 0.04397 0.98677 0.40143 0.0
H455 H 0.05562 0.00621 0.35852 0.0
C456 C 0.83385 0.2194 0.30162 0.0
C457 C 0.80382 0.21128 0.29802 0.0
C458 C 0.85069 0.2032 0.31725 0.0
C459 C 0.84722 0.14726 0.36909 0.0
H460 H 0.92205 0.13923 0.34775 0.0
C461 C 0.9155 0.07138 0.42308 0.0
C462 C 0.94444 0.08352 0.43121 0.0
C463 C 0.89887 0.08537 0.40501 0.0
C464 C 0.9013 0.14141 0.3541 0.0
H465 H 0.76803 0.1796 0.3083 0.0
H466 H 0.79742 0.15083 0.33513 0.0
H467 H 0.89162 0.16638 0.32052 0.0
H468 H 0.97886 0.11914 0.42506 0.0
H469 H 0.94985 0.14336 0.39317 0.0
H470 H 0.85688 0.12194 0.4025 0.0
C471 C 0.808 0.17015 0.32625 0.0
C472 C 0.88379 0.15712 0.33852 0.0
C473 C 0.79106 0.1866 0.31076 0.0
C474 C 0.95672 0.10909 0.41932 0.0
C475 C 0.94003 0.12303 0.40103 0.0
C476 C 0.86463 0.13133 0.3845 0.0
C477 C 0.83815 0.1781 0.32961 0.0
C478 C 0.85651 0.1605 0.34585 0.0
C479 C 0.91065 0.11183 0.3943 0.0
C480 C 0.89197 0.12827 0.37731 0.0
H481 H 0.84449 0.23843 0.29234 0.0
H482 H 0.87366 0.21062 0.31977 0.0
H483 H 0.8267 0.14969 0.3758 0.0
H484 H 0.90523 0.05159 0.43152 0.0
H485 H 0.87652 0.07572 0.39984 0.0
C486 C 0.83522 0.84582 0.29414 0.0
C487 C 0.80683 0.83955 0.28228 0.0
C488 C 0.84392 0.86939 0.31368 0.0
C489 C 0.81694 0.89937 0.37009 0.0
H490 H 0.88765 0.9564 0.37759 0.0
C491 C 0.90533 0.97705 0.4541 0.0
C492 C 0.91406 0.95424 0.46872 0.0
C493 C 0.88363 0.97059 0.43272 0.0
C494 C 0.86747 0.94112 0.37573 0.0
H495 H 0.76548 0.85339 0.28047 0.0
H496 H 0.78054 0.89417 0.31559 0.0
H497 H 0.86833 0.93279 0.33296 0.0
H498 H 0.90375 0.90752 0.47507 0.0
H499 H 0.86554 0.89636 0.43805 0.0
H500 H 0.81755 0.90561 0.41327 0.0
C501 C 0.79616 0.88136 0.30915 0.0
C502 C 0.85653 0.92759 0.35021 0.0
C503 C 0.78768 0.85827 0.28897 0.0
C504 C 0.89785 0.92556 0.46401 0.0
C505 C 0.87586 0.91917 0.44283 0.0
C506 C 0.8282 0.91247 0.39574 0.0
C507 C 0.82411 0.88646 0.3222 0.0
C508 C 0.83171 0.90594 0.34735 0.0
C509 C 0.86987 0.9413 0.42595 0.0
C510 C 0.85407 0.93274 0.39887 0.0
H511 H 0.85016 0.83135 0.28954 0.0
H512 H 0.86551 0.87273 0.32371 0.0
H513 H 0.79791 0.88244 0.36836 0.0
H514 H 0.91704 0.99944 0.45731 0.0
H515 H 0.87914 0.98809 0.42018 0.0
C516 C 0.13356 0.78614 0.27907 0.0
C517 C 0.14029 0.80342 0.25728 0.0
C518 C 0.11404 0.79337 0.29647 0.0
C519 C 0.09284 0.86093 0.32207 0.0
H520 H 0.05089 0.80831 0.36864 0.0
C521 C 0.07914 0.90058 0.42967 0.0
C522 C 0.05177 0.89391 0.43859 0.0
C523 C 0.08526 0.88667 0.40581 0.0
C524 C 0.06225 0.82329 0.35564 0.0
H525 H 0.12894 0.83934 0.23471 0.0
H526 H 0.09455 0.85192 0.2651 0.0
H527 H 0.06514 0.78813 0.32639 0.0
H528 H 0.00992 0.86594 0.43023 0.0
H529 H 0.02077 0.84163 0.38845 0.0
H530 H 0.09033 0.89599 0.35131 0.0
C531 C 0.10505 0.83326 0.26908 0.0
C532 C 0.0705 0.81175 0.33152 0.0
C533 C 0.12469 0.82606 0.25166 0.0
C534 C 0.03123 0.87163 0.42395 0.0
C535 C 0.03739 0.85771 0.39998 0.0
C536 C 0.0846 0.8724 0.34607 0.0
C537 C 0.10071 0.81797 0.29249 0.0
C538 C 0.08664 0.83036 0.31487 0.0
C539 C 0.06418 0.86581 0.39026 0.0
C540 C 0.07007 0.85361 0.36353 0.0
H541 H 0.1451 0.76861 0.28428 0.0
H542 H 0.11141 0.78119 0.31435 0.0
H543 H 0.10552 0.87592 0.30999 0.0
H544 H 0.09559 0.91735 0.44058 0.0
H545 H 0.10639 0.89275 0.3992 0.0
C546 C 0.2207 0.82391 0.6866 0.0
C547 C 0.20879 0.7989 0.69942 0.0
C548 C 0.20298 0.83984 0.67137 0.0
C549 C 0.13011 0.83288 0.63505 0.0
H550 H 0.14411 0.91853 0.64339 0.0
C551 C 0.05123 0.89938 0.58153 0.0
C552 C 0.0634 0.925 0.5697 0.0
C553 C 0.06804 0.88531 0.59957 0.0
C554 C 0.13997 0.89463 0.64052 0.0
H555 H 0.16879 0.77085 0.70575 0.0
H556 H 0.13826 0.79824 0.67922 0.0
H557 H 0.17615 0.89117 0.66846 0.0
H558 H 0.10261 0.95684 0.56919 0.0
H559 H 0.13165 0.93231 0.59991 0.0
H560 H 0.09436 0.83613 0.60677 0.0
C561 C 0.16122 0.80563 0.68082 0.0
C562 C 0.15844 0.87892 0.65495 0.0
C563 C 0.17882 0.78997 0.6962 0.0
C564 C 0.09237 0.93709 0.57771 0.0
C565 C 0.10914 0.923 0.59557 0.0
C566 C 0.11178 0.84855 0.62047 0.0
C567 C 0.17296 0.83091 0.66832 0.0
C568 C 0.15377 0.84781 0.65244 0.0
C569 C 0.0975 0.89642 0.60624 0.0
C570 C 0.11638 0.87971 0.62293 0.0
H571 H 0.24365 0.83148 0.6887 0.0
H572 H 0.21279 0.85906 0.66182 0.0
H573 H 0.126 0.80895 0.63232 0.0
H574 H 0.02902 0.88944 0.57601 0.0
H575 H 0.05801 0.86531 0.60783 0.0
C576 C 0.18738 0.17808 0.69767 0.0
C577 C 0.21506 0.18009 0.71071 0.0
C578 C 0.17614 0.15473 0.67849 0.0
C579 C 0.15673 0.09255 0.64752 0.0
H580 H 0.19285 0.10448 0.58111 0.0
C581 C 0.10175 0.03364 0.5487 0.0
C582 C 0.09345 0.05497 0.53189 0.0
C583 C 0.1242 0.04157 0.56927 0.0
C584 C 0.18295 0.10044 0.59963 0.0
H585 H 0.25263 0.1593 0.71456 0.0
H586 H 0.23321 0.1188 0.67994 0.0
H587 H 0.21588 0.13111 0.62377 0.0
H588 H 0.10487 0.10012 0.52098 0.0
H589 H 0.14441 0.11377 0.55657 0.0
H590 H 0.12316 0.06301 0.6234 0.0
C591 C 0.22005 0.13486 0.68525 0.0
C592 C 0.19611 0.11553 0.62396 0.0
C593 C 0.23098 0.1578 0.70508 0.0
C594 C 0.11051 0.08326 0.53376 0.0
C595 C 0.13325 0.09106 0.5541 0.0
C596 C 0.14389 0.07701 0.62337 0.0
C597 C 0.19276 0.13354 0.67151 0.0
C598 C 0.18252 0.11248 0.64781 0.0
C599 C 0.13911 0.07078 0.57302 0.0
C600 C 0.15633 0.08168 0.59902 0.0
H601 H 0.17493 0.19526 0.70151 0.0
H602 H 0.15514 0.15422 0.6679 0.0
H603 H 0.14584 0.09014 0.66569 0.0
H604 H 0.08924 0.01159 0.5478 0.0
H605 H 0.12852 0.02547 0.58346 0.0
C606 C 0.87845 0.21866 0.72656 0.0
C607 C 0.87128 0.20035 0.74755 0.0
C608 C 0.89808 0.21209 0.70902 0.0
C609 C 0.91788 0.14489 0.68104 0.0
H610 H 0.95931 0.19876 0.63513 0.0
C611 C 0.92871 0.1081 0.57203 0.0
C612 C 0.95589 0.11472 0.56272 0.0
C613 C 0.92319 0.12159 0.59634 0.0
C614 C 0.94809 0.18342 0.64793 0.0
H615 H 0.88225 0.16342 0.76887 0.0
H616 H 0.91686 0.152 0.73825 0.0
H617 H 0.94648 0.21775 0.67845 0.0
H618 H 0.99797 0.14232 0.57077 0.0
H619 H 0.98819 0.16582 0.61332 0.0
H620 H 0.91916 0.11066 0.65056 0.0
C621 C 0.90656 0.17094 0.73494 0.0
C622 C 0.94067 0.19428 0.67268 0.0
C623 C 0.88679 0.17747 0.7525 0.0
C624 C 0.97679 0.13665 0.57736 0.0
C625 C 0.97125 0.15012 0.60178 0.0
C626 C 0.92533 0.13409 0.65644 0.0
C627 C 0.9111 0.18713 0.71208 0.0
C628 C 0.92467 0.17526 0.6891 0.0
C629 C 0.94471 0.14193 0.61194 0.0
C630 C 0.93962 0.15336 0.6392 0.0
H631 H 0.86708 0.23647 0.72192 0.0
H632 H 0.9009 0.22502 0.69162 0.0
H633 H 0.90529 0.12959 0.69293 0.0
H634 H 0.912 0.09159 0.56114 0.0
H635 H 0.90223 0.11548 0.6033 0.0
C636 C 0.89862 0.86148 0.75052 0.0
C637 C 0.86927 0.86202 0.74493 0.0
C638 C 0.91865 0.87831 0.73614 0.0
C639 C 0.9319 0.94355 0.69943 0.0
H640 H 0.96423 0.89939 0.64484 0.0
C641 C 0.94741 0.98532 0.59676 0.0
C642 C 0.96991 0.97922 0.58216 0.0
C643 C 0.94371 0.97411 0.62179 0.0
C644 C 0.9562 0.9122 0.66044 0.0
H645 H 0.83773 0.88095 0.721 0.0
H646 H 0.87283 0.91127 0.69645 0.0
H647 H 0.94157 0.87367 0.68115 0.0
H648 H 1.00674 0.95716 0.5829 0.0
H649 H 1.0 0.9371 0.62696 0.0
H650 H 0.94542 0.98188 0.67843 0.0
C651 C 0.88027 0.8976 0.71167 0.0
C652 C 0.94319 0.89745 0.68113 0.0
C653 C 0.86027 0.88026 0.7255 0.0
C654 C 0.98906 0.96205 0.59354 0.0
C655 C 0.98525 0.95062 0.61875 0.0
C656 C 0.94525 0.95835 0.67907 0.0
C657 C 0.90952 0.89644 0.71664 0.0
C658 C 0.92976 0.91285 0.69989 0.0
C659 C 0.96242 0.9565 0.63306 0.0
C660 C 0.95603 0.94254 0.65846 0.0
H661 H 0.90586 0.84727 0.7653 0.0
H662 H 0.94114 0.87704 0.74006 0.0
H663 H 0.92177 0.95578 0.71389 0.0
H664 H 0.93225 0.99851 0.58875 0.0
H665 H 0.92548 0.97848 0.63188 0.0
C666 C 0.32263 0.22987 0.18411 0.0
C667 C 0.29522 0.21646 0.18977 0.0
C668 C 0.33747 0.21596 0.1656 0.0
C669 C 0.32826 0.15737 0.10928 0.0
H670 H 0.40907 0.15851 0.12901 0.0
C671 C 0.39485 0.0845 0.05088 0.0
C672 C 0.42337 0.09691 0.04774 0.0
C673 C 0.3784 0.09956 0.06697 0.0
C674 C 0.38661 0.15827 0.12294 0.0
H675 H 0.26169 0.17811 0.17988 0.0
H676 H 0.28762 0.15381 0.14773 0.0
H677 H 0.38206 0.18411 0.15895 0.0
H678 H 0.45649 0.13553 0.05844 0.0
H679 H 0.42782 0.16177 0.08593 0.0
H680 H 0.33287 0.13141 0.07326 0.0
C681 C 0.29757 0.17521 0.15744 0.0
C682 C 0.37109 0.17299 0.14016 0.0
C683 C 0.28275 0.1891 0.17599 0.0
C684 C 0.43471 0.12508 0.06052 0.0
C685 C 0.4183 0.14011 0.0765 0.0
C686 C 0.34382 0.14265 0.09199 0.0
C687 C 0.32527 0.18829 0.15223 0.0
C688 C 0.34172 0.17279 0.13357 0.0
C689 C 0.39005 0.12742 0.08027 0.0
C690 C 0.37324 0.14297 0.09857 0.0
H691 H 0.33286 0.25099 0.19425 0.0
H692 H 0.35856 0.22691 0.16178 0.0
H693 H 0.30574 0.15701 0.10341 0.0
H694 H 0.38539 0.06283 0.04142 0.0
H695 H 0.35681 0.08898 0.06957 0.0
C696 C 0.90967 0.29828 0.20286 0.0
C697 C 0.88044 0.29683 0.19442 0.0
C698 C 0.93025 0.30552 0.18495 0.0
C699 C 0.96234 0.35226 0.15349 0.0
H700 H 0.94564 0.34102 0.07548 0.0
C701 C 0.94855 0.43067 0.06659 0.0
C702 C 0.97543 0.4481 0.06501 0.0
C703 C 0.94629 0.40524 0.08061 0.0
C704 C 0.9511 0.34396 0.09722 0.0
H705 H 0.84972 0.29904 0.16004 0.0
H706 H 0.88534 0.312 0.12897 0.0
H707 H 0.92476 0.30298 0.1037 0.0
H708 H 0.02095 0.45332 0.07752 0.0
H709 H 0.01663 0.40914 0.10349 0.0
H710 H 0.98699 0.39424 0.14696 0.0
C711 C 0.89256 0.30725 0.14927 0.0
C712 C 0.93913 0.32231 0.11334 0.0
C713 C 0.87203 0.30001 0.16715 0.0
C714 C 0.99997 0.4402 0.07852 0.0
C715 C 0.9976 0.41494 0.0931 0.0
C716 C 0.97453 0.37379 0.13732 0.0
C717 C 0.92192 0.3114 0.1583 0.0
C718 C 0.94286 0.32736 0.14166 0.0
C719 C 0.97078 0.39698 0.09365 0.0
C720 C 0.96725 0.37065 0.10926 0.0
H721 H 0.91673 0.295 0.22359 0.0
H722 H 0.95271 0.30815 0.19234 0.0
H723 H 0.96568 0.35685 0.17526 0.0
H724 H 0.92934 0.43598 0.05607 0.0
H725 H 0.92528 0.39203 0.08137 0.0
C726 C 0.67959 0.83787 0.16197 0.0
C727 C 0.68256 0.82245 0.18521 0.0
C728 C 0.6579 0.85456 0.1586 0.0
C729 C 0.62106 0.90134 0.16612 0.0
H730 H 0.54309 0.85805 0.15613 0.0
C731 C 0.545 0.94726 0.09849 0.0
C732 C 0.53503 0.92629 0.07664 0.0
C733 C 0.55279 0.9381 0.12388 0.0
C734 C 0.56464 0.87066 0.15938 0.0
H735 H 0.66508 0.81159 0.22292 0.0
H736 H 0.62641 0.84039 0.21659 0.0
H737 H 0.58137 0.83502 0.17732 0.0
H738 H 0.52144 0.8797 0.06467 0.0
H739 H 0.53673 0.86348 0.10842 0.0
H740 H 0.6055 0.93584 0.14622 0.0
C741 C 0.64127 0.83997 0.20137 0.0
C742 C 0.58645 0.85754 0.17159 0.0
C743 C 0.66334 0.82369 0.20497 0.0
C744 C 0.52953 0.8962 0.08122 0.0
C745 C 0.53803 0.88698 0.10646 0.0
C746 C 0.59939 0.91445 0.15406 0.0
C747 C 0.63858 0.85567 0.17825 0.0
C748 C 0.61499 0.87218 0.17342 0.0
C749 C 0.55173 0.90785 0.12744 0.0
C750 C 0.57125 0.89849 0.14889 0.0
H751 H 0.69423 0.83721 0.14659 0.0
H752 H 0.65586 0.86618 0.14037 0.0
H753 H 0.64295 0.91309 0.16772 0.0
H754 H 0.54854 0.97071 0.0955 0.0
H755 H 0.56237 0.9547 0.13991 0.0
C756 C 0.21363 0.70657 0.1664 0.0
C757 C 0.23053 0.69837 0.18831 0.0
C758 C 0.20611 0.6877 0.14295 0.0
C759 C 0.20444 0.64839 0.09116 0.0
H760 H 0.15958 0.57295 0.1042 0.0
C761 C 0.1097 0.5478 0.03831 0.0
C762 C 0.09235 0.56668 0.02687 0.0
C763 C 0.13679 0.55948 0.05153 0.0
C764 C 0.1728 0.59339 0.09989 0.0
H765 H 0.25311 0.6642 0.20284 0.0
H766 H 0.239 0.63071 0.162 0.0
H767 H 0.18858 0.6031 0.14166 0.0
H768 H 0.09116 0.61186 0.01714 0.0
H769 H 0.13757 0.6322 0.04056 0.0
H770 H 0.18785 0.63928 0.04956 0.0
C771 C 0.23204 0.65194 0.16294 0.0
C772 C 0.18931 0.61075 0.12149 0.0
C773 C 0.23998 0.67105 0.18625 0.0
C774 C 0.10378 0.59681 0.02625 0.0
C775 C 0.1307 0.60845 0.03946 0.0
C776 C 0.18828 0.63084 0.06946 0.0
C777 C 0.215 0.66012 0.14112 0.0
C778 C 0.20397 0.63905 0.11752 0.0
C779 C 0.14689 0.59018 0.05351 0.0
C780 C 0.17089 0.60395 0.07389 0.0
H781 H 0.20623 0.72757 0.16734 0.0
H782 H 0.19252 0.69427 0.12656 0.0
H783 H 0.21605 0.66997 0.0876 0.0
H784 H 0.10163 0.52439 0.0388 0.0
H785 H 0.149 0.54472 0.06165 0.0
C786 C 0.2614 0.81312 0.83534 0.0
C787 C 0.25985 0.81909 0.808 0.0
C788 C 0.2736 0.8355 0.8553 0.0
C789 C 0.29988 0.88628 0.89608 0.0
H790 H 0.36663 0.9336 0.87125 0.0
C791 C 0.41437 0.96755 0.93845 0.0
C792 C 0.42577 0.94757 0.95476 0.0
C793 C 0.38743 0.95911 0.92376 0.0
C794 C 0.34775 0.92116 0.8785 0.0
H795 H 0.26675 0.85321 0.77995 0.0
H796 H 0.28603 0.8928 0.81474 0.0
H797 H 0.3304 0.90501 0.83851 0.0
H798 H 0.41707 0.90432 0.97053 0.0
H799 H 0.37006 0.88979 0.94524 0.0
H800 H 0.31911 0.90079 0.93637 0.0
C801 C 0.27934 0.87073 0.82095 0.0
C802 C 0.32675 0.9047 0.85967 0.0
C803 C 0.26797 0.84818 0.80101 0.0
C804 C 0.40893 0.92 0.9578 0.0
C805 C 0.38188 0.91181 0.94356 0.0
C806 C 0.32122 0.90242 0.91497 0.0
C807 C 0.28392 0.86437 0.84821 0.0
C808 C 0.30296 0.88619 0.86817 0.0
C809 C 0.37128 0.93084 0.92567 0.0
C810 C 0.34579 0.91924 0.90633 0.0
H811 H 0.25549 0.79069 0.84108 0.0
H812 H 0.27687 0.82949 0.87592 0.0
H813 H 0.28159 0.87291 0.90343 0.0
H814 H 0.42692 0.98897 0.93582 0.0
H815 H 0.37969 0.9742 0.91011 0.0
C816 C 0.2045 0.27469 0.82229 0.0
C817 C 0.20078 0.27715 0.79419 0.0
C818 C 0.18905 0.28941 0.83971 0.0
C819 C 0.15356 0.35449 0.84253 0.0
H820 H 0.121 0.32094 0.90494 0.0
C821 C 0.10992 0.42482 0.92428 0.0
C822 C 0.08371 0.4123 0.93332 0.0
C823 C 0.12426 0.40791 0.90766 0.0
C824 C 0.1299 0.33059 0.88752 0.0
H825 H 0.1766 0.29548 0.76228 0.0
H826 H 0.14971 0.32083 0.79249 0.0
H827 H 0.14456 0.2908 0.87506 0.0
H828 H 0.05211 0.372 0.93181 0.0
H829 H 0.07704 0.34278 0.9029 0.0
H830 H 0.13876 0.39416 0.85479 0.0
C831 C 0.16493 0.30806 0.80116 0.0
C832 C 0.14358 0.31339 0.87055 0.0
C833 C 0.18023 0.29334 0.78382 0.0
C834 C 0.07223 0.38248 0.92528 0.0
C835 C 0.08663 0.36558 0.90884 0.0
C836 C 0.14008 0.37173 0.85958 0.0
C837 C 0.16968 0.30693 0.82934 0.0
C838 C 0.15538 0.32508 0.84773 0.0
C839 C 0.11283 0.37804 0.89986 0.0
C840 C 0.12794 0.35994 0.8822 0.0
H841 H 0.22024 0.26252 0.83095 0.0
H842 H 0.19322 0.28813 0.86134 0.0
H843 H 0.16279 0.36431 0.82533 0.0
H844 H 0.11945 0.44765 0.93011 0.0
H845 H 0.14453 0.4181 0.90124 0.0
C846 C 0.67747 0.20263 0.80171 0.0
C847 C 0.70275 0.19415 0.79367 0.0
C848 C 0.66036 0.18573 0.81906 0.0
C849 C 0.66236 0.12402 0.86681 0.0
H850 H 0.58157 0.1266 0.86751 0.0
C851 C 0.59984 0.06728 0.94993 0.0
C852 C 0.57052 0.05492 0.9449 0.0
C853 C 0.61414 0.0849 0.93149 0.0
C854 C 0.60402 0.12522 0.86757 0.0
H855 H 0.72902 0.16027 0.79737 0.0
H856 H 0.69904 0.13038 0.8262 0.0
H857 H 0.60907 0.15412 0.83522 0.0
H858 H 0.5332 0.05255 0.91611 0.0
H859 H 0.55826 0.08266 0.88327 0.0
H860 H 0.65726 0.0941 0.89802 0.0
C861 C 0.69264 0.15068 0.82012 0.0
C862 C 0.62013 0.14157 0.84909 0.0
C863 C 0.70993 0.16781 0.80315 0.0
C864 C 0.55572 0.06167 0.92085 0.0
C865 C 0.57028 0.07908 0.90195 0.0
C866 C 0.64626 0.10748 0.88494 0.0
C867 C 0.66761 0.15939 0.82886 0.0
C868 C 0.64978 0.14148 0.84836 0.0
C869 C 0.60004 0.09061 0.90666 0.0
C870 C 0.61677 0.1079 0.88608 0.0
H871 H 0.67116 0.22282 0.79508 0.0
H872 H 0.64175 0.19388 0.82525 0.0
H873 H 0.68499 0.12327 0.86773 0.0
H874 H 0.61205 0.06316 0.96835 0.0
H875 H 0.63653 0.094 0.93695 0.0
C876 C 0.83167 0.72259 0.81302 0.0
C877 C 0.80339 0.71103 0.80214 0.0
C878 C 0.84785 0.70553 0.82844 0.0
C879 C 0.84162 0.6396 0.86886 0.0
H880 H 0.92214 0.64447 0.85935 0.0
C881 C 0.91064 0.56574 0.92598 0.0
C882 C 0.93847 0.57909 0.93686 0.0
C883 C 0.89455 0.58009 0.90763 0.0
C884 C 0.89977 0.643 0.86252 0.0
H885 H 0.76996 0.67228 0.79935 0.0
H886 H 0.79817 0.6425 0.82629 0.0
H887 H 0.89321 0.67301 0.83207 0.0
H888 H 0.97144 0.61775 0.93586 0.0
H889 H 0.9435 0.64271 0.90417 0.0
H890 H 0.84821 0.60996 0.89957 0.0
C891 C 0.8078 0.66492 0.82299 0.0
C892 C 0.88311 0.65943 0.84681 0.0
C893 C 0.79162 0.68198 0.80744 0.0
C894 C 0.95017 0.60664 0.92793 0.0
C895 C 0.93407 0.621 0.9096 0.0
C896 C 0.8583 0.62324 0.88464 0.0
C897 C 0.83625 0.67637 0.83357 0.0
C898 C 0.85382 0.65814 0.84985 0.0
C899 C 0.90576 0.60826 0.8996 0.0
C900 C 0.8877 0.62479 0.88184 0.0
H901 H 0.8415 0.74487 0.80945 0.0
H902 H 0.86946 0.71535 0.83656 0.0
H903 H 0.81927 0.63827 0.87208 0.0
H904 H 0.90088 0.54451 0.93222 0.0
H905 H 0.87312 0.56919 0.89999 0.0
C906 C 0.18519 0.28709 0.18679 0.0
C907 C 0.21339 0.29925 0.19748 0.0
C908 C 0.16885 0.3033 0.17057 0.0
C909 C 0.16434 0.38018 0.15223 0.0
H910 H 0.11221 0.33924 0.09231 0.0
C911 C 0.1062 0.441 0.07008 0.0
C912 C 0.07818 0.42805 0.05938 0.0
C913 C 0.12205 0.4265 0.08853 0.0
C914 C 0.12635 0.35104 0.10918 0.0
H915 H 0.24649 0.33817 0.19913 0.0
H916 H 0.21822 0.36625 0.17042 0.0
H917 H 0.14151 0.31169 0.12009 0.0
H918 H 0.04455 0.39009 0.06099 0.0
H919 H 0.07194 0.36516 0.09327 0.0
H920 H 0.14931 0.41965 0.14094 0.0
C921 C 0.20851 0.34429 0.17496 0.0
C922 C 0.14325 0.33517 0.12519 0.0
C923 C 0.22486 0.32806 0.1913 0.0
C924 C 0.06605 0.40081 0.06863 0.0
C925 C 0.08191 0.3863 0.08701 0.0
C926 C 0.14749 0.3961 0.13611 0.0
C927 C 0.18019 0.33218 0.16439 0.0
C928 C 0.16248 0.34943 0.14704 0.0
C929 C 0.11038 0.39859 0.09676 0.0
C930 C 0.12816 0.38174 0.11438 0.0
H931 H 0.1755 0.26506 0.19121 0.0
H932 H 0.14706 0.29327 0.16329 0.0
H933 H 0.17851 0.39197 0.16907 0.0
H934 H 0.11635 0.46191 0.06348 0.0
H935 H 0.14391 0.43665 0.09546 0.0
C936 C 0.10548 0.71266 0.79594 0.0
C937 C 0.13474 0.71414 0.80427 0.0
C938 C 0.08497 0.70488 0.8138 0.0
C939 C 0.07636 0.68581 0.88492 0.0
H940 H 0.02915 0.61433 0.84965 0.0
C941 C 0.06791 0.57594 0.9289 0.0
C942 C 0.04103 0.55871 0.93087 0.0
C943 C 0.07005 0.60153 0.91512 0.0
C944 C 0.04144 0.63463 0.85975 0.0
H945 H 0.1656 0.71161 0.83843 0.0
H946 H 0.13009 0.69767 0.86941 0.0
H947 H 0.05003 0.65294 0.82232 0.0
H948 H 0.9954 0.55377 0.91896 0.0
H949 H 0.99949 0.59828 0.89346 0.0
H950 H 0.07014 0.66574 0.9222 0.0
C951 C 0.12279 0.70279 0.84926 0.0
C952 C 0.05337 0.65686 0.84415 0.0
C953 C 0.14325 0.7106 0.83143 0.0
C954 C 0.01638 0.5668 0.91774 0.0
C955 C 0.01862 0.59223 0.90342 0.0
C956 C 0.06466 0.66345 0.90046 0.0
C957 C 0.0934 0.69846 0.84026 0.0
C958 C 0.07262 0.68166 0.85653 0.0
C959 C 0.04543 0.61013 0.9027 0.0
C960 C 0.04875 0.63696 0.8878 0.0
H961 H 0.09837 0.71621 0.77529 0.0
H962 H 0.0625 0.70217 0.80645 0.0
H963 H 0.09055 0.70502 0.89499 0.0
H964 H 0.08722 0.57044 0.93905 0.0
H965 H 0.09104 0.6147 0.91417 0.0
C966 C 0.3336 0.15983 0.83374 0.0
C967 C 0.33297 0.17711 0.81151 0.0
C968 C 0.35431 0.142 0.83732 0.0
C969 C 0.42704 0.13979 0.82736 0.0
H970 H 0.40723 0.06261 0.85477 0.0
C971 C 0.48219 0.10499 0.9209 0.0
C972 C 0.47696 0.07517 0.92645 0.0
C973 C 0.47377 0.11314 0.89521 0.0
C974 C 0.41359 0.08367 0.84642 0.0
H975 H 0.3533 0.18954 0.77552 0.0
H976 H 0.39015 0.15864 0.78221 0.0
H977 H 0.37042 0.08426 0.8308 0.0
H978 H 0.46375 0.03014 0.90899 0.0
H979 H 0.45009 0.04425 0.86381 0.0
H980 H 0.46996 0.14004 0.84457 0.0
C981 C 0.37426 0.15857 0.7965 0.0
C982 C 0.39227 0.09617 0.83291 0.0
C983 C 0.3532 0.17607 0.79268 0.0
C984 C 0.46711 0.05339 0.90523 0.0
C985 C 0.45939 0.06148 0.8794 0.0
C986 C 0.4485 0.12726 0.84093 0.0
C987 C 0.37498 0.14148 0.8189 0.0
C988 C 0.3985 0.12504 0.82488 0.0
C989 C 0.46042 0.09146 0.87472 0.0
C990 C 0.44155 0.09992 0.85221 0.0
H991 H 0.31815 0.16028 0.84839 0.0
H992 H 0.35477 0.12938 0.85505 0.0
H993 H 0.43234 0.16208 0.82113 0.0
H994 H 0.49015 0.1221 0.93698 0.0
H995 H 0.47499 0.13648 0.89242 0.0
C996 C 0.77895 0.33015 0.81928 0.0
C997 C 0.77824 0.29951 0.81773 0.0
C998 C 0.78901 0.34711 0.84356 0.0
C999 C 0.83659 0.34201 0.90514 0.0
H1000 H 0.81985 0.41964 0.92462 0.0
C1001 C 0.91214 0.41383 0.98344 0.0
C1002 C 0.92432 0.44005 0.97274 0.0
C1003 C 0.88529 0.39871 0.9726 0.0
C1004 C 0.82448 0.39785 0.91958 0.0
H1005 H 0.78447 0.26197 0.84043 0.0
H1006 H 0.80034 0.29109 0.88313 0.0
H1007 H 0.78881 0.38732 0.88906 0.0
H1008 H 0.91689 0.47318 0.94498 0.0
H1009 H 0.87035 0.44613 0.92514 0.0
H1010 H 0.87254 0.35254 0.93473 0.0
C1011 C 0.79475 0.30248 0.86549 0.0
C1012 C 0.80688 0.37941 0.89911 0.0
C1013 C 0.78559 0.28573 0.84109 0.0
C1014 C 0.90792 0.45282 0.95336 0.0
C1015 C 0.8812 0.43739 0.94213 0.0
C1016 C 0.85381 0.36014 0.92564 0.0
C1017 C 0.79779 0.33352 0.86679 0.0
C1018 C 0.81324 0.35157 0.89114 0.0
C1019 C 0.87057 0.40926 0.95047 0.0
C1020 C 0.84848 0.38857 0.93264 0.0
H1021 H 0.77314 0.34113 0.80142 0.0
H1022 H 0.79125 0.37093 0.84364 0.0
H1023 H 0.84279 0.32117 0.89926 0.0
H1024 H 0.92422 0.40395 0.99887 0.0
H1025 H 0.87723 0.37745 0.97991 0.0
C1026 C 0.69499 0.78092 0.8177 0.0
C1027 C 0.72242 0.79474 0.81241 0.0
C1028 C 0.67987 0.79422 0.83634 0.0
C1029 C 0.68788 0.8513 0.89375 0.0
H1030 H 0.60707 0.84951 0.87338 0.0
C1031 C 0.61936 0.92086 0.95342 0.0
C1032 C 0.59078 0.90801 0.95584 0.0
C1033 C 0.63627 0.90661 0.93717 0.0
C1034 C 0.62951 0.8499 0.87963 0.0
H1035 H 0.75568 0.83314 0.82318 0.0
H1036 H 0.72921 0.85638 0.85565 0.0
H1037 H 0.63487 0.82541 0.84312 0.0
H1038 H 0.55803 0.86945 0.94365 0.0
H1039 H 0.58751 0.84457 0.91587 0.0
H1040 H 0.68243 0.87588 0.9303 0.0
C1041 C 0.71948 0.83514 0.84548 0.0
C1042 C 0.6455 0.83606 0.86221 0.0
C1043 C 0.73462 0.82186 0.82676 0.0
C1044 C 0.57984 0.8802 0.94216 0.0
C1045 C 0.59674 0.86597 0.92602 0.0
C1046 C 0.67184 0.86513 0.91125 0.0
C1047 C 0.69174 0.82167 0.85026 0.0
C1048 C 0.67488 0.83648 0.86904 0.0
C1049 C 0.62505 0.87913 0.92296 0.0
C1050 C 0.64239 0.86453 0.90445 0.0
H1051 H 0.68496 0.75997 0.80714 0.0
H1052 H 0.65877 0.78295 0.83983 0.0
H1053 H 0.71039 0.85182 0.89979 0.0
H1054 H 0.62852 0.94228 0.96357 0.0
H1055 H 0.65789 0.91757 0.93514 0.0
C1056 C 0.84542 0.72043 0.21394 0.0
C1057 C 0.82458 0.73652 0.204 0.0
C1058 C 0.8594 0.70461 0.19618 0.0
C1059 C 0.87665 0.69624 0.12567 0.0
H1060 H 0.88163 0.61594 0.14297 0.0
C1061 C 0.9454 0.62519 0.07022 0.0
C1062 C 0.93368 0.59529 0.06282 0.0
C1063 C 0.93156 0.64251 0.08677 0.0
C1064 C 0.88021 0.63822 0.13775 0.0
H1065 H 0.80322 0.74978 0.1675 0.0
H1066 H 0.82799 0.72236 0.13644 0.0
H1067 H 0.85949 0.64718 0.17299 0.0
H1068 H 0.89812 0.56021 0.06734 0.0
H1069 H 0.87399 0.59057 0.09653 0.0
H1070 H 0.89733 0.68722 0.09038 0.0
C1071 C 0.83338 0.72198 0.15803 0.0
C1072 C 0.86784 0.65624 0.1551 0.0
C1073 C 0.81924 0.73774 0.17584 0.0
C1074 C 0.90779 0.58311 0.07264 0.0
C1075 C 0.89401 0.60048 0.08943 0.0
C1076 C 0.88925 0.67828 0.10842 0.0
C1077 C 0.85304 0.70459 0.16804 0.0
C1078 C 0.86605 0.68551 0.14935 0.0
C1079 C 0.90569 0.63043 0.09654 0.0
C1080 C 0.89129 0.6491 0.11433 0.0
H1081 H 0.85022 0.71912 0.23549 0.0
H1082 H 0.87486 0.69193 0.20452 0.0
H1083 H 0.87565 0.71869 0.12071 0.0
H1084 H 0.96529 0.63544 0.06309 0.0
H1085 H 0.94135 0.66537 0.09219 0.0
C1086 C 0.29985 0.83288 0.19776 0.0
C1087 C 0.30703 0.80657 0.20732 0.0
C1088 C 0.31738 0.85022 0.18109 0.0
C1089 C 0.39072 0.86018 0.15361 0.0
H1090 H 0.35449 0.90809 0.10446 0.0
C1091 C 0.45673 0.9414 0.08377 0.0
C1092 C 0.4424 0.94832 0.05953 0.0
C1093 C 0.44177 0.9237 0.10226 0.0
C1094 C 0.36526 0.89461 0.11762 0.0
H1095 H 0.33884 0.77816 0.20626 0.0
H1096 H 0.36868 0.80744 0.17664 0.0
H1097 H 0.32608 0.87837 0.13392 0.0
H1098 H 0.40133 0.94 0.03529 0.0
H1099 H 0.37618 0.90875 0.06601 0.0
H1100 H 0.42978 0.87565 0.13613 0.0
C1101 C 0.34988 0.81541 0.18254 0.0
C1102 C 0.34875 0.87772 0.13526 0.0
C1103 C 0.33251 0.7983 0.19956 0.0
C1104 C 0.41317 0.93581 0.0539 0.0
C1105 C 0.39848 0.91792 0.07194 0.0
C1106 C 0.40726 0.87689 0.13563 0.0
C1107 C 0.3427 0.84179 0.17276 0.0
C1108 C 0.36097 0.86007 0.15377 0.0
C1109 C 0.41206 0.91203 0.09695 0.0
C1110 C 0.39486 0.89439 0.11705 0.0
H1111 H 0.28063 0.84032 0.20335 0.0
H1112 H 0.31097 0.87052 0.17499 0.0
H1113 H 0.40153 0.84751 0.16756 0.0
H1114 H 0.47917 0.9506 0.08897 0.0
H1115 H 0.45341 0.91997 0.12109 0.0
C1116 C 0.76133 0.1985 0.16196 0.0
C1117 C 0.75434 0.19306 0.18825 0.0
C1118 C 0.75017 0.17775 0.14027 0.0
C1119 C 0.7095 0.10147 0.12173 0.0
H1120 H 0.66416 0.14066 0.07159 0.0
C1121 C 0.59941 0.04586 0.06927 0.0
C1122 C 0.58845 0.05734 0.04585 0.0
C1123 C 0.62694 0.05784 0.08143 0.0
C1124 C 0.67712 0.12906 0.08472 0.0
H1125 H 0.73286 0.16073 0.21303 0.0
H1126 H 0.71385 0.12452 0.17546 0.0
H1127 H 0.70192 0.16986 0.10239 0.0
H1128 H 0.59817 0.08775 0.01499 0.0
H1129 H 0.64673 0.10736 0.03506 0.0
H1130 H 0.68401 0.06064 0.10456 0.0
C1131 C 0.72769 0.14467 0.17137 0.0
C1132 C 0.6989 0.14598 0.1025 0.0
C1133 C 0.73841 0.16552 0.19289 0.0
C1134 C 0.60616 0.07893 0.03335 0.0
C1135 C 0.63387 0.09031 0.04502 0.0
C1136 C 0.68788 0.08443 0.10366 0.0
C1137 C 0.73233 0.15111 0.14469 0.0
C1138 C 0.71458 0.1325 0.12189 0.0
C1139 C 0.64413 0.08107 0.06999 0.0
C1140 C 0.67064 0.09811 0.0856 0.0
H1141 H 0.77352 0.21962 0.15788 0.0
H1142 H 0.75419 0.18318 0.11989 0.0
H1143 H 0.72145 0.09048 0.13636 0.0
H1144 H 0.586 0.02918 0.07921 0.0
H1145 H 0.63386 0.05019 0.1007 0.0
C1146 C 0.62717 0.65046 0.75383 0.0
C1147 C 0.65666 0.65637 0.76232 0.0
C1148 C 0.6082 0.63306 0.76883 0.0
C1149 C 0.60606 0.57839 0.82025 0.0
H1150 H 0.541 0.61019 0.84332 0.0
C1151 C 0.54622 0.52424 0.90236 0.0
C1152 C 0.54195 0.54389 0.92354 0.0
C1153 C 0.55181 0.53442 0.87724 0.0
C1154 C 0.55901 0.60097 0.83696 0.0
H1155 H 0.6896 0.64789 0.79231 0.0
H1156 H 0.65672 0.61776 0.81849 0.0
H1157 H 0.56873 0.63431 0.80912 0.0
H1158 H 0.5381 0.58895 0.93513 0.0
H1159 H 0.54953 0.60744 0.89146 0.0
H1160 H 0.59798 0.54639 0.84907 0.0
C1161 C 0.64814 0.62641 0.8003 0.0
C1162 C 0.57467 0.61457 0.81719 0.0
C1163 C 0.66695 0.64391 0.7855 0.0
C1164 C 0.54142 0.57354 0.9189 0.0
C1165 C 0.54776 0.58397 0.89386 0.0
C1166 C 0.59059 0.56492 0.83997 0.0
C1167 C 0.61856 0.62103 0.79229 0.0
C1168 C 0.5989 0.60393 0.80936 0.0
C1169 C 0.55419 0.56468 0.87313 0.0
C1170 C 0.56734 0.57649 0.84913 0.0
H1171 H 0.61872 0.66003 0.73612 0.0
H1172 H 0.58549 0.62915 0.76222 0.0
H1173 H 0.62443 0.5695 0.81431 0.0
H1174 H 0.54626 0.50112 0.90556 0.0
H1175 H 0.55577 0.51881 0.86149 0.0
C1176 C 0.32107 0.69931 0.79221 0.0
C1177 C 0.29524 0.70557 0.80085 0.0
C1178 C 0.33827 0.68354 0.80792 0.0
C1179 C 0.3591 0.66889 0.87701 0.0
H1180 H 0.38609 0.60071 0.8458 0.0
C1181 C 0.45237 0.61982 0.92955 0.0
C1182 C 0.44546 0.58967 0.93427 0.0
C1183 C 0.43424 0.6329 0.91202 0.0
C1184 C 0.37874 0.61972 0.85476 0.0
H1185 H 0.26735 0.70019 0.83295 0.0
H1186 H 0.29816 0.6734 0.86104 0.0
H1187 H 0.35288 0.62524 0.81832 0.0
H1188 H 0.41485 0.54933 0.92287 0.0
H1189 H 0.38391 0.57199 0.89132 0.0
H1190 H 0.38562 0.66395 0.91317 0.0
C1191 C 0.30472 0.68044 0.8418 0.0
C1192 C 0.35978 0.63377 0.83906 0.0
C1193 C 0.28706 0.69565 0.82571 0.0
C1194 C 0.42088 0.57257 0.91968 0.0
C1195 C 0.4031 0.58555 0.90165 0.0
C1196 C 0.37858 0.65528 0.8925 0.0
C1197 C 0.33049 0.67414 0.833 0.0
C1198 C 0.3497 0.65848 0.85002 0.0
C1199 C 0.40913 0.61604 0.89827 0.0
C1200 C 0.38862 0.63054 0.88156 0.0
H1201 H 0.32798 0.7065 0.77313 0.0
H1202 H 0.35806 0.67922 0.80068 0.0
H1203 H 0.35189 0.688 0.88594 0.0
H1204 H 0.47093 0.63376 0.94058 0.0
H1205 H 0.43958 0.65639 0.90961 0.0
C1206 C 0.28878 0.35224 0.79213 0.0
C1207 C 0.30422 0.33212 0.78066 0.0
C1208 C 0.30169 0.37219 0.81387 0.0
C1209 C 0.33733 0.41635 0.85848 0.0
H1210 H 0.38318 0.37589 0.90714 0.0
C1211 C 0.41704 0.47339 0.94799 0.0
C1212 C 0.42529 0.45582 0.96851 0.0
C1213 C 0.39562 0.46142 0.92733 0.0
C1214 C 0.36997 0.38744 0.89419 0.0
H1215 H 0.3455 0.31856 0.78072 0.0
H1216 H 0.36858 0.35442 0.81744 0.0
H1217 H 0.36165 0.35116 0.86435 0.0
H1218 H 0.41467 0.4138 0.98598 0.0
H1219 H 0.37619 0.39346 0.95088 0.0
H1220 H 0.34553 0.45259 0.88893 0.0
C1221 C 0.34633 0.35427 0.81052 0.0
C1222 C 0.35813 0.37343 0.86923 0.0
C1223 C 0.33331 0.33405 0.78926 0.0
C1224 C 0.40906 0.42765 0.97015 0.0
C1225 C 0.38724 0.41592 0.94984 0.0
C1226 C 0.34919 0.43046 0.88372 0.0
C1227 C 0.33021 0.37228 0.82416 0.0
C1228 C 0.34215 0.38785 0.85081 0.0
C1229 C 0.38178 0.43185 0.92715 0.0
C1230 C 0.36592 0.41623 0.90178 0.0
H1231 H 0.26611 0.35065 0.78606 0.0
H1232 H 0.2887 0.38575 0.82392 0.0
H1233 H 0.32494 0.42795 0.84479 0.0
H1234 H 0.42913 0.49526 0.94619 0.0
H1235 H 0.39195 0.47445 0.91032 0.0
C1236 C 0.63309 0.29753 0.77008 0.0
C1237 C 0.65054 0.31497 0.7537 0.0
C1238 C 0.61841 0.31077 0.789 0.0
C1239 C 0.58445 0.34792 0.82356 0.0
H1240 H 0.64211 0.40059 0.87176 0.0
C1241 C 0.59405 0.43352 0.92466 0.0
C1242 C 0.57357 0.41742 0.93928 0.0
C1243 C 0.60186 0.42092 0.90098 0.0
C1244 C 0.62554 0.38642 0.85837 0.0
H1245 H 0.66491 0.35943 0.7426 0.0
H1246 H 0.63958 0.38286 0.77622 0.0
H1247 H 0.65468 0.38087 0.829 0.0
H1248 H 0.54608 0.37503 0.94117 0.0
H1249 H 0.56084 0.35239 0.90036 0.0
H1250 H 0.55511 0.35379 0.85269 0.0
C1251 C 0.63707 0.35896 0.77419 0.0
C1252 C 0.63279 0.37516 0.83386 0.0
C1253 C 0.65134 0.34563 0.75492 0.0
C1254 C 0.56189 0.38799 0.93028 0.0
C1255 C 0.5701 0.37516 0.90673 0.0
C1256 C 0.57699 0.35966 0.84792 0.0
C1257 C 0.62144 0.34167 0.79204 0.0
C1258 C 0.61238 0.35573 0.81636 0.0
C1259 C 0.58982 0.39169 0.89154 0.0
C1260 C 0.59754 0.37891 0.8657 0.0
H1261 H 0.63229 0.27382 0.76934 0.0
H1262 H 0.60661 0.29704 0.80267 0.0
H1263 H 0.56846 0.33278 0.81036 0.0
H1264 H 0.60318 0.4564 0.93078 0.0
H1265 H 0.61667 0.43456 0.88962 0.0
C1266 C 0.73246 0.33132 0.18364 0.0
C1267 C 0.71998 0.30607 0.1958 0.0
C1268 C 0.71521 0.348 0.16875 0.0
C1269 C 0.64282 0.34301 0.13214 0.0
H1270 H 0.65754 0.42855 0.14296 0.0
C1271 C 0.56435 0.41155 0.08169 0.0
C1272 C 0.57646 0.43755 0.07039 0.0
C1273 C 0.58121 0.39695 0.09912 0.0
C1274 C 0.65322 0.4047 0.13942 0.0
H1275 H 0.67953 0.27834 0.2013 0.0
H1276 H 0.64984 0.30701 0.17536 0.0
H1277 H 0.68917 0.40001 0.16714 0.0
H1278 H 0.61568 0.46945 0.07017 0.0
H1279 H 0.64489 0.44396 0.09994 0.0
H1280 H 0.60728 0.34748 0.10412 0.0
C1281 C 0.67286 0.31403 0.17722 0.0
C1282 C 0.67145 0.38832 0.15331 0.0
C1283 C 0.68997 0.29763 0.19225 0.0
C1284 C 0.60547 0.44947 0.07836 0.0
C1285 C 0.62234 0.4348 0.09561 0.0
C1286 C 0.62474 0.35935 0.11812 0.0
C1287 C 0.68516 0.33957 0.1654 0.0
C1288 C 0.66644 0.35724 0.14992 0.0
C1289 C 0.61071 0.40784 0.10567 0.0
C1290 C 0.62957 0.39047 0.12155 0.0
H1291 H 0.75546 0.33851 0.18605 0.0
H1292 H 0.72542 0.36741 0.15973 0.0
H1293 H 0.6385 0.31914 0.12872 0.0
H1294 H 0.54207 0.40177 0.07624 0.0
H1295 H 0.5712 0.3767 0.10699 0.0
C1296 C 0.69793 0.67115 0.22504 0.0
C1297 C 0.72786 0.67806 0.22735 0.0
C1298 C 0.68331 0.65111 0.20427 0.0
C1299 C 0.66286 0.63978 0.1455 0.0
H1300 H 0.68186 0.56944 0.11 0.0
C1301 C 0.61015 0.60165 0.04051 0.0
C1302 C 0.59561 0.57225 0.0383 0.0
C1303 C 0.632 0.61134 0.06133 0.0
C1304 C 0.67642 0.58913 0.11971 0.0
H1305 H 0.76626 0.66819 0.21148 0.0
H1306 H 0.74074 0.63331 0.17482 0.0
H1307 H 0.70596 0.58839 0.15492 0.0
H1308 H 0.59519 0.52911 0.05404 0.0
H1309 H 0.63288 0.54616 0.09053 0.0
H1310 H 0.63327 0.64066 0.11093 0.0
C1311 C 0.72849 0.64275 0.18929 0.0
C1312 C 0.69016 0.59992 0.14537 0.0
C1313 C 0.74313 0.66255 0.21038 0.0
C1314 C 0.60577 0.55198 0.05524 0.0
C1315 C 0.62747 0.56175 0.07624 0.0
C1316 C 0.64937 0.62918 0.12001 0.0
C1317 C 0.69843 0.63832 0.18506 0.0
C1318 C 0.68328 0.62526 0.1586 0.0
C1319 C 0.63953 0.5919 0.08047 0.0
C1320 C 0.65596 0.60379 0.10673 0.0
H1321 H 0.68582 0.68327 0.2377 0.0
H1322 H 0.66012 0.6476 0.20185 0.0
H1323 H 0.65754 0.65976 0.15477 0.0
H1324 H 0.60321 0.61772 0.02749 0.0
H1325 H 0.64156 0.63457 0.06361 0.0
C1326 C 0.37653 0.72269 0.2307 0.0
C1327 C 0.36974 0.70471 0.25199 0.0
C1328 C 0.39488 0.71516 0.21227 0.0
C1329 C 0.41228 0.6467 0.18364 0.0
H1330 H 0.4519 0.69971 0.13598 0.0
C1331 C 0.42441 0.60661 0.07511 0.0
C1332 C 0.45094 0.61569 0.06518 0.0
C1333 C 0.41811 0.61989 0.09925 0.0
C1334 C 0.44121 0.68453 0.14922 0.0
H1335 H 0.38044 0.66746 0.27299 0.0
H1336 H 0.413 0.65445 0.24088 0.0
H1337 H 0.44082 0.71933 0.17953 0.0
H1338 H 0.49099 0.64704 0.07208 0.0
H1339 H 0.4802 0.66962 0.11426 0.0
H1340 H 0.41297 0.61186 0.1536 0.0
C1341 C 0.40319 0.67377 0.23793 0.0
C1342 C 0.43472 0.69582 0.17413 0.0
C1343 C 0.38463 0.68125 0.25637 0.0
C1344 C 0.47032 0.63944 0.07911 0.0
C1345 C 0.46413 0.65249 0.10336 0.0
C1346 C 0.41903 0.6354 0.15892 0.0
C1347 C 0.4071 0.68962 0.21479 0.0
C1348 C 0.41942 0.67716 0.19127 0.0
C1349 C 0.43829 0.64233 0.11408 0.0
C1350 C 0.43282 0.65429 0.14107 0.0
H1351 H 0.36571 0.74099 0.2265 0.0
H1352 H 0.39726 0.7279 0.19471 0.0
H1353 H 0.40016 0.63168 0.1961 0.0
H1354 H 0.40891 0.58856 0.06477 0.0
H1355 H 0.39762 0.61214 0.10658 0.0
C1356 C 0.35923 0.35242 0.20571 0.0
C1357 C 0.36391 0.35224 0.23405 0.0
C1358 C 0.38011 0.36711 0.19105 0.0
C1359 C 0.43708 0.42938 0.19469 0.0
H1360 H 0.45316 0.39183 0.12726 0.0
C1361 C 0.49149 0.45911 0.08924 0.0
C1362 C 0.47583 0.48127 0.08207 0.0
C1363 C 0.48658 0.44427 0.11262 0.0
C1364 C 0.44951 0.40251 0.1463 0.0
H1365 H 0.39463 0.36802 0.26904 0.0
H1366 H 0.43068 0.39474 0.24322 0.0
H1367 H 0.42723 0.36212 0.15925 0.0
H1368 H 0.44434 0.5068 0.09477 0.0
H1369 H 0.4359 0.4811 0.13538 0.0
H1370 H 0.45782 0.4701 0.18093 0.0
C1371 C 0.41081 0.38291 0.23258 0.0
C1372 C 0.43448 0.38556 0.16447 0.0
C1373 C 0.39002 0.36775 0.24733 0.0
C1374 C 0.4565 0.48955 0.09954 0.0
C1375 C 0.45191 0.47508 0.12301 0.0
C1376 C 0.45189 0.44642 0.17637 0.0
C1377 C 0.40608 0.38242 0.20429 0.0
C1378 C 0.42717 0.39905 0.18828 0.0
C1379 C 0.46633 0.45179 0.12943 0.0
C1380 C 0.45722 0.43329 0.15153 0.0
H1381 H 0.33931 0.34155 0.19462 0.0
H1382 H 0.37565 0.36704 0.16928 0.0
H1383 H 0.43165 0.44026 0.21292 0.0
H1384 H 0.50664 0.45241 0.07628 0.0
H1385 H 0.49802 0.42641 0.11716 0.0
C1386 C 0.79238 0.69404 0.6858 0.0
C1387 C 0.80007 0.72454 0.69296 0.0
C1388 C 0.80744 0.67997 0.66767 0.0
C1389 C 0.87663 0.69056 0.63636 0.0
H1390 H 0.83908 0.61982 0.59271 0.0
C1391 C 0.9421 0.61561 0.58118 0.0
C1392 C 0.93015 0.59967 0.5567 0.0
C1393 C 0.9257 0.63145 0.59645 0.0
C1394 C 0.84997 0.63978 0.60437 0.0
H1395 H 0.82908 0.76441 0.686 0.0
H1396 H 0.85452 0.74026 0.65331 0.0
H1397 H 0.81119 0.64712 0.61991 0.0
H1398 H 0.89163 0.58825 0.52884 0.0
H1399 H 0.86332 0.61696 0.55476 0.0
H1400 H 0.9151 0.68413 0.61974 0.0
C1401 C 0.83749 0.72684 0.6624 0.0
C1402 C 0.83395 0.65526 0.62048 0.0
C1403 C 0.82274 0.74083 0.681 0.0
C1404 C 0.90141 0.60013 0.54773 0.0
C1405 C 0.88512 0.61651 0.56275 0.0
C1406 C 0.89253 0.67541 0.61986 0.0
C1407 C 0.83033 0.69608 0.65571 0.0
C1408 C 0.84709 0.68065 0.63709 0.0
C1409 C 0.89699 0.63237 0.58743 0.0
C1410 C 0.87958 0.64948 0.60391 0.0
H1411 H 0.77521 0.68076 0.69487 0.0
H1412 H 0.80153 0.65624 0.66368 0.0
H1413 H 0.88779 0.70972 0.64899 0.0
H1414 H 0.96409 0.61544 0.58885 0.0
H1415 H 0.93557 0.64259 0.61559 0.0
C1416 C 0.36092 0.80464 0.67088 0.0
C1417 C 0.36953 0.7977 0.69712 0.0
C1418 C 0.38138 0.81546 0.65386 0.0
C1419 C 0.43038 0.83404 0.61975 0.0
H1420 H 0.47723 0.90388 0.65837 0.0
C1421 C 0.49055 0.9257 0.5632 0.0
C1422 C 0.48146 0.95264 0.56893 0.0
C1423 C 0.48579 0.90293 0.58042 0.0
C1424 C 0.46469 0.8842 0.64743 0.0
H1425 H 0.40607 0.79302 0.72489 0.0
H1426 H 0.44179 0.81259 0.69535 0.0
H1427 H 0.45094 0.8662 0.68366 0.0
H1428 H 0.46119 0.97759 0.59733 0.0
H1429 H 0.4528 0.9377 0.62772 0.0
H1430 H 0.44277 0.853 0.58343 0.0
C1431 C 0.41929 0.81005 0.68814 0.0
C1432 C 0.44983 0.86254 0.66184 0.0
C1433 C 0.39886 0.79911 0.70507 0.0
C1434 C 0.46857 0.95703 0.5927 0.0
C1435 C 0.46402 0.93434 0.6101 0.0
C1436 C 0.4455 0.85556 0.60535 0.0
C1437 C 0.41071 0.81948 0.66288 0.0
C1438 C 0.43159 0.83793 0.64804 0.0
C1439 C 0.47186 0.90685 0.60366 0.0
C1440 C 0.46176 0.88138 0.61906 0.0
H1441 H 0.33851 0.80377 0.66422 0.0
H1442 H 0.37421 0.82281 0.63452 0.0
H1443 H 0.41653 0.81518 0.60873 0.0
H1444 H 0.49945 0.92145 0.54445 0.0
H1445 H 0.4918 0.88185 0.57497 0.0
C1446 C 0.15883 0.31904 0.64924 0.0
C1447 C 0.16932 0.31378 0.67547 0.0
C1448 C 0.13118 0.32476 0.6441 0.0
C1449 C 0.07838 0.3591 0.67205 0.0
H1450 H 0.03576 0.32419 0.60454 0.0
C1451 C 0.04783 0.42532 0.59002 0.0
C1452 C 0.02801 0.41316 0.56801 0.0
C1453 C 0.05036 0.41011 0.61324 0.0
C1454 C 0.04642 0.33372 0.62398 0.0
H1455 H 0.15867 0.31099 0.71705 0.0
H1456 H 0.11078 0.32251 0.70802 0.0
H1457 H 0.07165 0.29956 0.62641 0.0
H1458 H 0.99259 0.37753 0.55443 0.0
H1459 H 0.99719 0.35077 0.59512 0.0
H1460 H 0.05478 0.39456 0.66844 0.0
C1461 C 0.12401 0.32147 0.6915 0.0
C1462 C 0.06725 0.31965 0.63635 0.0
C1463 C 0.15163 0.31527 0.69663 0.0
C1464 C 0.00865 0.38705 0.57081 0.0
C1465 C 0.01111 0.37184 0.59418 0.0
C1466 C 0.0574 0.37319 0.65971 0.0
C1467 C 0.11346 0.32573 0.6651 0.0
C1468 C 0.08498 0.33359 0.6591 0.0
C1469 C 0.03314 0.38234 0.61495 0.0
C1470 C 0.04327 0.36201 0.63419 0.0
H1471 H 0.17193 0.31868 0.6326 0.0
H1472 H 0.12379 0.32895 0.62366 0.0
H1473 H 0.09158 0.37 0.68988 0.0
H1474 H 0.06257 0.4458 0.58878 0.0
H1475 H 0.06771 0.41892 0.62868 0.0
C1476 C 0.73419 0.16896 0.67568 0.0
C1477 C 0.73558 0.19962 0.67913 0.0
C1478 C 0.7263 0.15425 0.65001 0.0
C1479 C 0.68427 0.16577 0.58726 0.0
H1480 H 0.69945 0.08832 0.56482 0.0
C1481 C 0.60498 0.09747 0.51047 0.0
C1482 C 0.59369 0.07075 0.52085 0.0
C1483 C 0.63252 0.11203 0.51982 0.0
C1484 C 0.69527 0.11011 0.57064 0.0
H1485 H 0.73317 0.23957 0.65871 0.0
H1486 H 0.72099 0.21433 0.6138 0.0
H1487 H 0.7299 0.11801 0.60232 0.0
H1488 H 0.60318 0.03624 0.54627 0.0
H1489 H 0.65061 0.0624 0.56389 0.0
H1490 H 0.64898 0.1577 0.55699 0.0
C1491 C 0.72438 0.20124 0.63083 0.0
C1492 C 0.71257 0.12703 0.59219 0.0
C1493 C 0.73132 0.21572 0.6565 0.0
C1494 C 0.6114 0.05706 0.53824 0.0
C1495 C 0.63872 0.07198 0.54814 0.0
C1496 C 0.66723 0.14907 0.5658 0.0
C1497 C 0.72048 0.1702 0.6274 0.0
C1498 C 0.7065 0.15457 0.60141 0.0
C1499 C 0.64874 0.10054 0.54038 0.0
C1500 C 0.67172 0.12054 0.55792 0.0
H1501 H 0.73778 0.15626 0.69297 0.0
H1502 H 0.7233 0.13033 0.64823 0.0
H1503 H 0.67844 0.18655 0.59396 0.0
H1504 H 0.59188 0.10801 0.49643 0.0
H1505 H 0.64005 0.13357 0.5128 0.0
C1506 C 0.77528 0.35388 0.29591 0.0
C1507 C 0.76771 0.32499 0.30362 0.0
C1508 C 0.7846 0.37735 0.31544 0.0
C1509 C 0.82874 0.41413 0.35561 0.0
H1510 H 0.81576 0.41261 0.43137 0.0
C1511 C 0.90496 0.43007 0.45649 0.0
C1512 C 0.92336 0.4565 0.45286 0.0
C1513 C 0.87804 0.42299 0.4419 0.0
C1514 C 0.81932 0.41365 0.4102 0.0
H1515 H 0.76214 0.29785 0.33747 0.0
H1516 H 0.78005 0.3384 0.37178 0.0
H1517 H 0.78082 0.38288 0.39722 0.0
H1518 H 0.92734 0.49745 0.43296 0.0
H1519 H 0.88022 0.4846 0.40659 0.0
H1520 H 0.86766 0.44397 0.36863 0.0
C1521 C 0.7779 0.34345 0.35078 0.0
C1522 C 0.79947 0.39643 0.39065 0.0
C1523 C 0.76775 0.32007 0.33116 0.0
C1524 C 0.91353 0.47687 0.43598 0.0
C1525 C 0.88666 0.46951 0.42092 0.0
C1526 C 0.84829 0.43159 0.37507 0.0
C1527 C 0.78761 0.37221 0.3431 0.0
C1528 C 0.80463 0.39535 0.3632 0.0
C1529 C 0.86912 0.44199 0.42305 0.0
C1530 C 0.8445 0.43046 0.40266 0.0
H1531 H 0.77508 0.35812 0.27468 0.0
H1532 H 0.79092 0.39926 0.30872 0.0
H1533 H 0.8339 0.41378 0.33485 0.0
H1534 H 0.91195 0.41418 0.46969 0.0
H1535 H 0.8652 0.40154 0.44385 0.0
C1536 C 0.68485 0.78383 0.29342 0.0
C1537 C 0.71205 0.77921 0.30365 0.0
C1538 C 0.66833 0.79849 0.30962 0.0
C1539 C 0.66462 0.82813 0.38104 0.0
H1540 H 0.61767 0.87818 0.34478 0.0
C1541 C 0.61791 0.92193 0.43518 0.0
C1542 C 0.58785 0.91796 0.43153 0.0
C1543 C 0.63265 0.90452 0.41953 0.0
C1544 C 0.63066 0.86421 0.35509 0.0
H1545 H 0.74323 0.78598 0.33892 0.0
H1546 H 0.7152 0.81265 0.36682 0.0
H1547 H 0.64386 0.84786 0.31814 0.0
H1548 H 0.54975 0.89337 0.40808 0.0
H1549 H 0.57573 0.86379 0.37997 0.0
H1550 H 0.65225 0.84599 0.41813 0.0
C1551 C 0.70591 0.80411 0.34667 0.0
C1552 C 0.64549 0.84654 0.33987 0.0
C1553 C 0.72211 0.78879 0.33064 0.0
C1554 C 0.57291 0.89688 0.41136 0.0
C1555 C 0.58771 0.88001 0.39528 0.0
C1556 C 0.6503 0.84636 0.39627 0.0
C1557 C 0.67895 0.80966 0.33625 0.0
C1558 C 0.66264 0.82809 0.35258 0.0
C1559 C 0.61765 0.88337 0.39953 0.0
C1560 C 0.63314 0.86446 0.38341 0.0
H1561 H 0.67656 0.77665 0.27265 0.0
H1562 H 0.64741 0.80145 0.30099 0.0
H1563 H 0.67705 0.81392 0.39167 0.0
H1564 H 0.62997 0.93784 0.4507 0.0
H1565 H 0.65578 0.90754 0.42305 0.0
C1566 C 0.21552 0.682 0.31878 0.0
C1567 C 0.20397 0.70132 0.30166 0.0
C1568 C 0.19848 0.66462 0.33571 0.0
C1569 C 0.12676 0.65498 0.36516 0.0
H1570 H 0.14737 0.58004 0.38321 0.0
C1571 C 0.05763 0.56826 0.42815 0.0
C1572 C 0.07315 0.55429 0.44748 0.0
C1573 C 0.07183 0.58683 0.40989 0.0
C1574 C 0.1413 0.601 0.37865 0.0
H1575 H 0.16478 0.71711 0.28933 0.0
H1576 H 0.13495 0.68638 0.31812 0.0
H1577 H 0.17471 0.61007 0.35272 0.0
H1578 H 0.11628 0.54966 0.4625 0.0
H1579 H 0.14049 0.58109 0.43107 0.0
H1580 H 0.09279 0.64517 0.39093 0.0
C1581 C 0.15745 0.68497 0.31896 0.0
C1582 C 0.15725 0.61853 0.36107 0.0
C1583 C 0.17463 0.7026 0.30214 0.0
C1584 C 0.10328 0.55965 0.44794 0.0
C1585 C 0.11733 0.57777 0.42969 0.0
C1586 C 0.11055 0.63719 0.3826 0.0
C1587 C 0.16898 0.66549 0.33611 0.0
C1588 C 0.1507 0.64617 0.35421 0.0
C1589 C 0.102 0.59155 0.41011 0.0
C1590 C 0.11782 0.61006 0.39002 0.0
H1591 H 0.238 0.68045 0.31935 0.0
H1592 H 0.20879 0.65075 0.34885 0.0
H1593 H 0.12083 0.67605 0.36086 0.0
H1594 H 0.0345 0.56413 0.4266 0.0
H1595 H 0.05909 0.59676 0.39506 0.0
C1596 C 0.28842 0.17759 0.30642 0.0
C1597 C 0.29981 0.2066 0.30067 0.0
C1598 C 0.3047 0.16124 0.3227 0.0
C1599 C 0.38005 0.15765 0.34814 0.0
H1600 H 0.34496 0.10856 0.40108 0.0
C1601 C 0.44729 0.10745 0.43097 0.0
C1602 C 0.43603 0.07987 0.44015 0.0
C1603 C 0.43096 0.12127 0.41237 0.0
C1604 C 0.35512 0.12175 0.38612 0.0
H1605 H 0.33738 0.24111 0.30795 0.0
H1606 H 0.36551 0.21283 0.33631 0.0
H1607 H 0.31585 0.13577 0.37252 0.0
H1608 H 0.39891 0.04474 0.43572 0.0
H1609 H 0.37075 0.06849 0.40296 0.0
H1610 H 0.4193 0.14368 0.36168 0.0
C1611 C 0.34411 0.20249 0.32799 0.0
C1612 C 0.33834 0.13747 0.36972 0.0
C1613 C 0.32783 0.21885 0.31184 0.0
C1614 C 0.40836 0.06599 0.42928 0.0
C1615 C 0.39203 0.07982 0.41063 0.0
C1616 C 0.3968 0.14185 0.36447 0.0
C1617 C 0.33289 0.17337 0.33358 0.0
C1618 C 0.35059 0.15586 0.35061 0.0
C1619 C 0.40285 0.10795 0.40226 0.0
C1620 C 0.38467 0.12379 0.38388 0.0
H1621 H 0.26697 0.16735 0.29814 0.0
H1622 H 0.29535 0.13884 0.32632 0.0
H1623 H 0.39022 0.17109 0.33335 0.0
H1624 H 0.46847 0.11893 0.43881 0.0
H1625 H 0.44011 0.14298 0.40673 0.0
C1626 C 0.73111 0.83732 0.6954 0.0
C1627 C 0.71956 0.80853 0.70161 0.0
C1628 C 0.71508 0.85327 0.67841 0.0
C1629 C 0.65107 0.8427 0.62688 0.0
H1630 H 0.65577 0.92727 0.64073 0.0
C1631 C 0.57296 0.90542 0.56796 0.0
C1632 C 0.5846 0.93257 0.55823 0.0
C1633 C 0.58913 0.89168 0.58673 0.0
C1634 C 0.65434 0.90369 0.63643 0.0
H1635 H 0.68178 0.77422 0.69485 0.0
H1636 H 0.65393 0.80193 0.66592 0.0
H1637 H 0.68488 0.90069 0.67018 0.0
H1638 H 0.62223 0.96708 0.56188 0.0
H1639 H 0.65033 0.94316 0.59462 0.0
H1640 H 0.62049 0.8456 0.59327 0.0
C1641 C 0.67557 0.81214 0.6736 0.0
C1642 C 0.67115 0.8884 0.65331 0.0
C1643 C 0.69156 0.79622 0.69043 0.0
C1644 C 0.61246 0.94622 0.56885 0.0
C1645 C 0.62862 0.93248 0.58772 0.0
C1646 C 0.63422 0.85792 0.61013 0.0
C1647 C 0.68703 0.8409 0.6672 0.0
C1648 C 0.66968 0.85761 0.64888 0.0
C1649 C 0.61744 0.90466 0.59645 0.0
C1650 C 0.63547 0.88863 0.61468 0.0
H1651 H 0.75259 0.84753 0.70361 0.0
H1652 H 0.72487 0.87518 0.67379 0.0
H1653 H 0.6497 0.81918 0.6223 0.0
H1654 H 0.55155 0.89425 0.5605 0.0
H1655 H 0.57952 0.87059 0.59338 0.0
C1656 C 0.61413 0.21196 0.28952 0.0
C1657 C 0.64349 0.21462 0.29802 0.0
C1658 C 0.59367 0.20092 0.30638 0.0
C1659 C 0.56543 0.14782 0.3335 0.0
H1660 H 0.57114 0.15929 0.41177 0.0
C1661 C 0.55286 0.0546 0.40456 0.0
C1662 C 0.53937 0.05838 0.42809 0.0
C1663 C 0.55608 0.07702 0.38675 0.0
C1664 C 0.56875 0.15612 0.38987 0.0
H1665 H 0.67439 0.21089 0.33187 0.0
H1666 H 0.6387 0.19181 0.36141 0.0
H1667 H 0.59498 0.19803 0.38589 0.0
H1668 H 0.51923 0.08833 0.45177 0.0
H1669 H 0.52434 0.1273 0.42051 0.0
H1670 H 0.54094 0.10504 0.33762 0.0
C1671 C 0.6315 0.1982 0.34167 0.0
C1672 C 0.58247 0.17822 0.37515 0.0
C1673 C 0.65198 0.20903 0.32472 0.0
C1674 C 0.52856 0.08446 0.43321 0.0
C1675 C 0.53189 0.1069 0.41556 0.0
C1676 C 0.55197 0.12561 0.34824 0.0
C1677 C 0.60227 0.19273 0.33213 0.0
C1678 C 0.58189 0.17369 0.34696 0.0
C1679 C 0.54623 0.10363 0.39251 0.0
C1680 C 0.55454 0.12914 0.37658 0.0
H1681 H 0.60694 0.21705 0.26934 0.0
H1682 H 0.57122 0.19721 0.29877 0.0
H1683 H 0.56487 0.14368 0.31177 0.0
H1684 H 0.56156 0.03472 0.40037 0.0
H1685 H 0.56768 0.07422 0.36929 0.0
C1686 C 0.87542 0.70671 0.35349 0.0
C1687 C 0.86447 0.70971 0.32683 0.0
C1688 C 0.9016 0.69758 0.35867 0.0
C1689 C 0.94494 0.64998 0.33182 0.0
H1690 H 0.99192 0.68173 0.39811 0.0
C1691 C 0.96517 0.58065 0.41569 0.0
C1692 C 0.9864 0.59049 0.43721 0.0
C1693 C 0.9642 0.59608 0.39244 0.0
C1694 C 0.98 0.67276 0.37902 0.0
H1695 H 0.87295 0.70561 0.28461 0.0
H1696 H 0.91826 0.68819 0.29386 0.0
H1697 H 0.96244 0.71221 0.37475 0.0
H1698 H 0.02529 0.62214 0.44997 0.0
H1699 H 0.02372 0.64892 0.40915 0.0
H1700 H 0.96102 0.60979 0.3371 0.0
C1701 C 0.90655 0.69354 0.31062 0.0
C1702 C 0.96287 0.69028 0.36576 0.0
C1703 C 0.8804 0.70313 0.3054 0.0
C1704 C 1.00818 0.61446 0.43399 0.0
C1705 C 1.00741 0.6297 0.41054 0.0
C1706 C 0.96233 0.63248 0.34496 0.0
C1707 C 0.9174 0.6909 0.33734 0.0
C1708 C 0.94335 0.67805 0.34355 0.0
C1709 C 0.98454 0.62163 0.39012 0.0
C1710 C 0.97783 0.64281 0.37011 0.0
H1711 H 0.8636 0.71099 0.37043 0.0
H1712 H 0.90904 0.69479 0.37946 0.0
H1713 H 0.93036 0.64023 0.31441 0.0
H1714 H 0.94837 0.56193 0.41729 0.0
H1715 H 0.94605 0.58925 0.37735 0.0
C1716 C 0.28387 0.79148 0.34538 0.0
C1717 C 0.27857 0.80611 0.32202 0.0
C1718 C 0.29261 0.80752 0.37016 0.0
C1719 C 0.30764 0.88363 0.40518 0.0
H1720 H 0.37197 0.85337 0.43947 0.0
C1721 C 0.41019 0.95414 0.45773 0.0
C1722 C 0.42763 0.94066 0.47559 0.0
C1723 C 0.38296 0.93914 0.44759 0.0
C1724 C 0.35359 0.86193 0.43088 0.0
H1725 H 0.27636 0.8485 0.30602 0.0
H1726 H 0.29383 0.87707 0.34914 0.0
H1727 H 0.34093 0.8235 0.40401 0.0
H1728 H 0.42907 0.90363 0.50037 0.0
H1729 H 0.38106 0.87798 0.48359 0.0
H1730 H 0.32206 0.92316 0.43128 0.0
C1731 C 0.29033 0.85315 0.34864 0.0
C1732 C 0.33564 0.84466 0.41032 0.0
C1733 C 0.28069 0.83692 0.3239 0.0
C1734 C 0.41617 0.91403 0.48603 0.0
C1735 C 0.38874 0.8994 0.47641 0.0
C1736 C 0.32585 0.90112 0.42583 0.0
C1737 C 0.29726 0.83862 0.37188 0.0
C1738 C 0.31293 0.85554 0.39663 0.0
C1739 C 0.37276 0.91073 0.45558 0.0
C1740 C 0.34954 0.89073 0.43833 0.0
H1741 H 0.28155 0.76758 0.34442 0.0
H1742 H 0.29682 0.79554 0.38778 0.0
H1743 H 0.29006 0.89248 0.39532 0.0
H1744 H 0.41857 0.97486 0.44962 0.0
H1745 H 0.37124 0.94857 0.4316 0.0
C1746 C 0.18924 0.27555 0.31238 0.0
C1747 C 0.21708 0.28888 0.30784 0.0
C1748 C 0.17375 0.28922 0.33042 0.0
C1749 C 0.18094 0.34558 0.38801 0.0
H1750 H 0.10136 0.34727 0.36474 0.0
C1751 C 0.11349 0.41666 0.44686 0.0
C1752 C 0.08431 0.40518 0.44795 0.0
C1753 C 0.13017 0.4021 0.43064 0.0
C1754 C 0.12342 0.34667 0.37181 0.0
H1755 H 0.25068 0.32681 0.31934 0.0
H1756 H 0.22362 0.35063 0.35093 0.0
H1757 H 0.12953 0.32241 0.3354 0.0
H1758 H 0.0501 0.36882 0.43322 0.0
H1759 H 0.0792 0.34322 0.40554 0.0
H1760 H 0.17477 0.36969 0.42453 0.0
C1761 C 0.21383 0.32951 0.34055 0.0
C1762 C 0.13962 0.33242 0.35491 0.0
C1763 C 0.2293 0.31591 0.32235 0.0
C1764 C 0.07241 0.37849 0.43277 0.0
C1765 C 0.08911 0.36386 0.41669 0.0
C1766 C 0.16467 0.35972 0.40503 0.0
C1767 C 0.18571 0.31652 0.34454 0.0
C1768 C 0.16857 0.33166 0.36277 0.0
C1769 C 0.11817 0.37558 0.41517 0.0
C1770 C 0.13565 0.36045 0.39718 0.0
H1771 H 0.17915 0.25471 0.30164 0.0
H1772 H 0.15232 0.27837 0.33331 0.0
H1773 H 0.2031 0.34515 0.39482 0.0
H1774 H 0.1234 0.43722 0.45816 0.0
H1775 H 0.15233 0.41205 0.42977 0.0
C1776 C 0.34178 0.22655 0.70822 0.0
C1777 C 0.3166 0.23567 0.69754 0.0
C1778 C 0.35754 0.21155 0.69147 0.0
C1779 C 0.34842 0.15757 0.63694 0.0
H1780 H 0.42638 0.18555 0.62172 0.0
C1781 C 0.40466 0.09053 0.5631 0.0
C1782 C 0.43455 0.09311 0.56707 0.0
C1783 C 0.3905 0.10832 0.57899 0.0
C1784 C 0.40482 0.17702 0.62614 0.0
H1785 H 0.28844 0.23669 0.66096 0.0
H1786 H 0.31566 0.20961 0.63184 0.0
H1787 H 0.40221 0.21716 0.64937 0.0
H1788 H 0.47296 0.11528 0.59154 0.0
H1789 H 0.44829 0.14491 0.62034 0.0
H1790 H 0.35109 0.11693 0.61517 0.0
C1791 C 0.32335 0.21465 0.65306 0.0
C1792 C 0.39094 0.19536 0.64174 0.0
C1793 C 0.30796 0.2303 0.66966 0.0
C1794 C 0.4499 0.11302 0.58788 0.0
C1795 C 0.4357 0.13027 0.6042 0.0
C1796 C 0.36247 0.13892 0.62189 0.0
C1797 C 0.34799 0.20481 0.66394 0.0
C1798 C 0.36261 0.18581 0.64709 0.0
C1799 C 0.40583 0.12865 0.59969 0.0
C1800 C 0.39088 0.14838 0.61614 0.0
H1801 H 0.34881 0.23021 0.72967 0.0
H1802 H 0.37645 0.20402 0.70025 0.0
H1803 H 0.32662 0.14968 0.64116 0.0
H1804 H 0.39232 0.07561 0.54698 0.0
H1805 H 0.36761 0.10664 0.57442 0.0
C1806 C 0.83704 0.30038 0.7025 0.0
C1807 C 0.80816 0.30308 0.7042 0.0
C1808 C 0.85434 0.318 0.68576 0.0
C1809 C 0.85688 0.38684 0.64668 0.0
H1810 H 0.91694 0.35699 0.61188 0.0
C1811 C 0.90982 0.44726 0.55997 0.0
C1812 C 0.93958 0.44987 0.55828 0.0
C1813 C 0.89572 0.42922 0.57827 0.0
C1814 C 0.90047 0.36589 0.62161 0.0
H1815 H 0.77513 0.32664 0.68882 0.0
H1816 H 0.8046 0.35653 0.6596 0.0
H1817 H 0.88887 0.3263 0.64207 0.0
H1818 H 0.97747 0.43494 0.57534 0.0
H1819 H 0.95279 0.40268 0.60705 0.0
H1820 H 0.8681 0.42616 0.62599 0.0
C1821 C 0.81443 0.3414 0.67165 0.0
C1822 C 0.88423 0.34819 0.63911 0.0
C1823 C 0.79725 0.32395 0.68846 0.0
C1824 C 0.95461 0.4332 0.57556 0.0
C1825 C 0.94035 0.41476 0.59389 0.0
C1826 C 0.87289 0.40434 0.62911 0.0
C1827 C 0.84342 0.33896 0.66994 0.0
C1828 C 0.86182 0.35816 0.65182 0.0
C1829 C 0.9106 0.41275 0.59581 0.0
C1830 C 0.8948 0.39417 0.61593 0.0
H1831 H 0.84639 0.28465 0.71421 0.0
H1832 H 0.87646 0.31535 0.68555 0.0
H1833 H 0.84064 0.39612 0.65641 0.0
H1834 H 0.89709 0.45933 0.54706 0.0
H1835 H 0.87285 0.42806 0.57846 0.0
C1836 C 0.24559 0.68919 0.66702 0.0
C1837 C 0.24644 0.68535 0.6948 0.0
C1838 C 0.2356 0.66499 0.64821 0.0
C1839 C 0.21465 0.61022 0.61026 0.0
H1840 H 0.14769 0.56289 0.6347 0.0
C1841 C 0.10052 0.52749 0.56908 0.0
C1842 C 0.09032 0.54699 0.55148 0.0
C1843 C 0.12769 0.53542 0.58351 0.0
C1844 C 0.16673 0.57518 0.6276 0.0
H1845 H 0.24071 0.65337 0.72497 0.0
H1846 H 0.22509 0.61088 0.69233 0.0
H1847 H 0.18157 0.5948 0.66718 0.0
H1848 H 0.10131 0.58815 0.53261 0.0
H1849 H 0.14851 0.60183 0.55739 0.0
H1850 H 0.19795 0.59211 0.57015 0.0
C1851 C 0.23067 0.63253 0.68482 0.0
C1852 C 0.18635 0.59364 0.64631 0.0
C1853 C 0.23985 0.65678 0.70354 0.0
C1854 C 0.1086 0.57296 0.54643 0.0
C1855 C 0.13579 0.58062 0.56041 0.0
C1856 C 0.19477 0.59193 0.59145 0.0
C1857 C 0.22686 0.63651 0.65696 0.0
C1858 C 0.20995 0.61237 0.63779 0.0
C1859 C 0.1451 0.56266 0.58004 0.0
C1860 C 0.16999 0.57519 0.59984 0.0
H1861 H 0.25046 0.71114 0.65991 0.0
H1862 H 0.23281 0.66913 0.62701 0.0
H1863 H 0.23293 0.62372 0.60301 0.0
H1864 H 0.08679 0.50725 0.57316 0.0
H1865 H 0.13444 0.5211 0.59843 0.0
loop_
_geom_bond_atom_site_label_1
_geom_bond_atom_site_label_2
_geom_bond_distance
_geom_bond_site_symmetry_2
_ccdc_geom_bond_type
Co0 N5 2.057 . S
Co0 O17 2.021 . S
Co0 O20 2.062 . S
Co0 O24 2.117 . S
Co0 O25 2.020 . S
C1 O21 1.259 . S
C1 O24 1.258 . S
Co2 N11 2.057 . S
Co2 O18 2.117 . S
Co2 O19 2.020 . S
Co2 O21 2.021 . S
Co2 O26 2.062 . S
C3 N5 1.316 . S
C3 N6 1.347 . S
C3 H8 0.931 . S
C4 N5 1.375 . S
C4 C7 1.350 . S
C4 H9 0.930 . S
N5 Co0 2.057 . S
N5 C3 1.316 . S
N5 C4 1.375 . S
N6 C3 1.347 . S
N6 C7 1.373 . S
C7 C4 1.350 . S
C7 N6 1.373 . S
C7 H28 0.931 . S
H8 C3 0.931 . S
H9 C4 0.930 . S
C10 O17 1.259 . S
C10 O18 1.258 . S
N11 Co2 2.057 . S
N11 C12 1.316 . S
N11 C13 1.375 . S
C12 N11 1.316 . S
C12 N14 1.347 . S
C12 H23 0.931 . S
C13 N11 1.375 . S
C13 C15 1.350 . S
C13 H22 0.930 . S
N14 C12 1.347 . S
N14 C15 1.373 . S
C15 C13 1.350 . S
C15 N14 1.373 . S
C15 H29 0.931 . S
C16 O19 1.256 . S
C16 O20 1.255 . S
O17 Co0 2.021 . S
O17 C10 1.259 . S
O18 Co2 2.117 . S
O18 C10 1.258 . S
O19 Co2 2.020 . S
O19 C16 1.256 . S
O20 Co0 2.062 . S
O20 C16 1.255 . S
O21 C1 1.259 . S
O21 Co2 2.021 . S
H22 C13 0.930 . S
H23 C12 0.931 . S
O24 Co0 2.117 . S
O24 C1 1.258 . S
O25 Co0 2.020 . S
O25 C27 1.256 . S
O26 Co2 2.062 . S
O26 C27 1.255 . S
C27 O25 1.256 . S
C27 O26 1.255 . S
H28 C7 0.931 . S
H29 C15 0.931 . S
Co30 N35 2.057 . S
Co30 O47 2.021 . S
Co30 O50 2.062 . S
Co30 O54 2.117 . S
Co30 O55 2.020 . S
C31 O51 1.259 . S
C31 O54 1.258 . S
Co32 N41 2.057 . S
Co32 O48 2.117 . S
Co32 O49 2.020 . S
Co32 O51 2.021 . S
Co32 O56 2.062 . S
C33 N35 1.316 . S
C33 N36 1.347 . S
C33 H38 0.931 . S
C34 N35 1.375 . S
C34 C37 1.350 . S
C34 H39 0.930 . S
N35 Co30 2.057 . S
N35 C33 1.316 . S
N35 C34 1.375 . S
N36 C33 1.347 . S
N36 C37 1.373 . S
C37 C34 1.350 . S
C37 N36 1.373 . S
C37 H58 0.931 . S
H38 C33 0.931 . S
H39 C34 0.930 . S
C40 O47 1.259 . S
C40 O48 1.258 . S
N41 Co32 2.057 . S
N41 C42 1.316 . S
N41 C43 1.375 . S
C42 N41 1.316 . S
C42 N44 1.347 . S
C42 H53 0.931 . S
C43 N41 1.375 . S
C43 C45 1.350 . S
C43 H52 0.930 . S
N44 C42 1.347 . S
N44 C45 1.373 . S
C45 C43 1.350 . S
C45 N44 1.373 . S
C45 H59 0.931 . S
C46 O49 1.256 . S
C46 O50 1.255 . S
O47 Co30 2.021 . S
O47 C40 1.259 . S
O48 Co32 2.117 . S
O48 C40 1.258 . S
O49 Co32 2.020 . S
O49 C46 1.256 . S
O50 Co30 2.062 . S
O50 C46 1.255 . S
O51 C31 1.259 . S
O51 Co32 2.021 . S
H52 C43 0.930 . S
H53 C42 0.931 . S
O54 Co30 2.117 . S
O54 C31 1.258 . S
O55 Co30 2.020 . S
O55 C57 1.256 . S
O56 Co32 2.062 . S
O56 C57 1.255 . S
C57 O55 1.256 . S
C57 O56 1.255 . S
H58 C37 0.931 . S
H59 C45 0.931 . S
Co60 N65 2.057 . S
Co60 O77 2.021 . S
Co60 O80 2.062 . S
Co60 O84 2.117 . S
Co60 O85 2.020 . S
C61 O81 1.259 . S
C61 O84 1.258 . S
Co62 N71 2.057 . S
Co62 O78 2.117 . S
Co62 O79 2.020 . S
Co62 O81 2.021 . S
Co62 O86 2.062 . S
C63 N65 1.316 . S
C63 N66 1.347 . S
C63 H68 0.931 . S
C64 N65 1.375 . S
C64 C67 1.350 . S
C64 H69 0.930 . S
N65 Co60 2.057 . S
N65 C63 1.316 . S
N65 C64 1.375 . S
N66 C63 1.347 . S
N66 C67 1.373 . S
C67 C64 1.350 . S
C67 N66 1.373 . S
C67 H88 0.931 . S
H68 C63 0.931 . S
H69 C64 0.930 . S
C70 O77 1.259 . S
C70 O78 1.258 . S
N71 Co62 2.057 . S
N71 C72 1.316 . S
N71 C73 1.375 . S
C72 N71 1.316 . S
C72 N74 1.347 . S
C72 H83 0.931 . S
C73 N71 1.375 . S
C73 C75 1.350 . S
C73 H82 0.930 . S
N74 C72 1.347 . S
N74 C75 1.373 . S
C75 C73 1.350 . S
C75 N74 1.373 . S
C75 H89 0.931 . S
C76 O79 1.256 . S
C76 O80 1.255 . S
O77 Co60 2.021 . S
O77 C70 1.259 . S
O78 Co62 2.117 . S
O78 C70 1.258 . S
O79 Co62 2.020 . S
O79 C76 1.256 . S
O80 Co60 2.062 . S
O80 C76 1.255 . S
O81 C61 1.259 . S
O81 Co62 2.021 . S
H82 C73 0.930 . S
H83 C72 0.931 . S
O84 Co60 2.117 . S
O84 C61 1.258 . S
O85 Co60 2.020 . S
O85 C87 1.256 . S
O86 Co62 2.062 . S
O86 C87 1.255 . S
C87 O85 1.256 . S
C87 O86 1.255 . S
H88 C67 0.931 . S
H89 C75 0.931 . S
Co90 N95 2.057 . S
Co90 O107 2.021 . S
Co90 O110 2.062 . S
Co90 O114 2.117 . S
Co90 O115 2.020 . S
C91 O111 1.259 . S
C91 O114 1.258 . S
Co92 N101 2.057 . S
Co92 O108 2.117 . S
Co92 O109 2.020 . S
Co92 O111 2.021 . S
Co92 O116 2.062 . S
C93 N95 1.316 . S
C93 N96 1.347 . S
C93 H98 0.931 . S
C94 N95 1.375 . S
C94 C97 1.350 . S
C94 H99 0.930 . S
N95 Co90 2.057 . S
N95 C93 1.316 . S
N95 C94 1.375 . S
N96 C93 1.347 . S
N96 C97 1.373 . S
C97 C94 1.350 . S
C97 N96 1.373 . S
C97 H118 0.931 . S
H98 C93 0.931 . S
H99 C94 0.930 . S
C100 O107 1.259 . S
C100 O108 1.258 . S
N101 Co92 2.057 . S
N101 C102 1.316 . S
N101 C103 1.375 . S
C102 N101 1.316 . S
C102 N104 1.347 . S
C102 H113 0.931 . S
C103 N101 1.375 . S
C103 C105 1.350 . S
C103 H112 0.930 . S
N104 C102 1.347 . S
N104 C105 1.373 . S
C105 C103 1.350 . S
C105 N104 1.373 . S
C105 H119 0.931 . S
C106 O109 1.256 . S
C106 O110 1.255 . S
O107 Co90 2.021 . S
O107 C100 1.259 . S
O108 Co92 2.117 . S
O108 C100 1.258 . S
O109 Co92 2.020 . S
O109 C106 1.256 . S
O110 Co90 2.062 . S
O110 C106 1.255 . S
O111 C91 1.259 . S
O111 Co92 2.021 . S
H112 C103 0.930 . S
H113 C102 0.931 . S
O114 Co90 2.117 . S
O114 C91 1.258 . S
O115 Co90 2.020 . S
O115 C117 1.256 . S
O116 Co92 2.062 . S
O116 C117 1.255 . S
C117 O115 1.256 . S
C117 O116 1.255 . S
H118 C97 0.931 . S
H119 C105 0.931 . S
Co120 N125 2.057 . S
Co120 O137 2.021 . S
Co120 O140 2.062 . S
Co120 O144 2.117 . S
Co120 O145 2.020 . S
C121 O141 1.259 . S
C121 O144 1.258 . S
Co122 N131 2.057 . S
Co122 O138 2.117 . S
Co122 O139 2.020 . S
Co122 O141 2.021 . S
Co122 O146 2.062 . S
C123 N125 1.316 . S
C123 N126 1.347 . S
C123 H128 0.931 . S
C124 N125 1.375 . S
C124 C127 1.350 . S
C124 H129 0.930 . S
N125 Co120 2.057 . S
N125 C123 1.316 . S
N125 C124 1.375 . S
N126 C123 1.347 . S
N126 C127 1.373 . S
C127 C124 1.350 . S
C127 N126 1.373 . S
C127 H148 0.931 . S
H128 C123 0.931 . S
H129 C124 0.930 . S
C130 O137 1.259 . S
C130 O138 1.258 . S
N131 Co122 2.057 . S
N131 C132 1.316 . S
N131 C133 1.375 . S
C132 N131 1.316 . S
C132 N134 1.347 . S
C132 H143 0.931 . S
C133 N131 1.375 . S
C133 C135 1.350 . S
C133 H142 0.930 . S
N134 C132 1.347 . S
N134 C135 1.373 . S
C135 C133 1.350 . S
C135 N134 1.373 . S
C135 H149 0.931 . S
C136 O139 1.256 . S
C136 O140 1.255 . S
O137 Co120 2.021 . S
O137 C130 1.259 . S
O138 Co122 2.117 . S
O138 C130 1.258 . S
O139 Co122 2.020 . S
O139 C136 1.256 . S
O140 Co120 2.062 . S
O140 C136 1.255 . S
O141 C121 1.259 . S
O141 Co122 2.021 . S
H142 C133 0.930 . S
H143 C132 0.931 . S
O144 Co120 2.117 . S
O144 C121 1.258 . S
O145 Co120 2.020 . S
O145 C147 1.256 . S
O146 Co122 2.062 . S
O146 C147 1.255 . S
C147 O145 1.256 . S
C147 O146 1.255 . S
H148 C127 0.931 . S
H149 C135 0.931 . S
Co150 N155 2.057 . S
Co150 O167 2.021 . S
Co150 O170 2.062 . S
Co150 O174 2.117 . S
Co150 O175 2.020 . S
C151 O171 1.259 . S
C151 O174 1.258 . S
Co152 N161 2.057 . S
Co152 O168 2.117 . S
Co152 O169 2.020 . S
Co152 O171 2.021 . S
Co152 O176 2.062 . S
C153 N155 1.316 . S
C153 N156 1.347 . S
C153 H158 0.931 . S
C154 N155 1.375 . S
C154 C157 1.350 . S
C154 H159 0.930 . S
N155 Co150 2.057 . S
N155 C153 1.316 . S
N155 C154 1.375 . S
N156 C153 1.347 . S
N156 C157 1.373 . S
C157 C154 1.350 . S
C157 N156 1.373 . S
C157 H178 0.931 . S
H158 C153 0.931 . S
H159 C154 0.930 . S
C160 O167 1.259 . S
C160 O168 1.258 . S
N161 Co152 2.057 . S
N161 C162 1.316 . S
N161 C163 1.375 . S
C162 N161 1.316 . S
C162 N164 1.347 . S
C162 H173 0.931 . S
C163 N161 1.375 . S
C163 C165 1.350 . S
C163 H172 0.930 . S
N164 C162 1.347 . S
N164 C165 1.373 . S
C165 C163 1.350 . S
C165 N164 1.373 . S
C165 H179 0.931 . S
C166 O169 1.256 . S
C166 O170 1.255 . S
O167 Co150 2.021 . S
O167 C160 1.259 . S
O168 Co152 2.117 . S
O168 C160 1.258 . S
O169 Co152 2.020 . S
O169 C166 1.256 . S
O170 Co150 2.062 . S
O170 C166 1.255 . S
O171 C151 1.259 . S
O171 Co152 2.021 . S
H172 C163 0.930 . S
H173 C162 0.931 . S
O174 Co150 2.117 . S
O174 C151 1.258 . S
O175 Co150 2.020 . S
O175 C177 1.256 . S
O176 Co152 2.062 . S
O176 C177 1.255 . S
C177 O175 1.256 . S
C177 O176 1.255 . S
H178 C157 0.931 . S
H179 C165 0.931 . S
Co180 N185 2.057 . S
Co180 O197 2.021 . S
Co180 O200 2.062 . S
Co180 O204 2.117 . S
Co180 O205 2.020 . S
C181 O201 1.259 . S
C181 O204 1.258 . S
Co182 N191 2.057 . S
Co182 O198 2.117 . S
Co182 O199 2.020 . S
Co182 O201 2.021 . S
Co182 O206 2.062 . S
C183 N185 1.316 . S
C183 N186 1.347 . S
C183 H188 0.931 . S
C184 N185 1.375 . S
C184 C187 1.350 . S
C184 H189 0.930 . S
N185 Co180 2.057 . S
N185 C183 1.316 . S
N185 C184 1.375 . S
N186 C183 1.347 . S
N186 C187 1.373 . S
C187 C184 1.350 . S
C187 N186 1.373 . S
C187 H208 0.931 . S
H188 C183 0.931 . S
H189 C184 0.930 . S
C190 O197 1.259 . S
C190 O198 1.258 . S
N191 Co182 2.057 . S
N191 C192 1.316 . S
N191 C193 1.375 . S
C192 N191 1.316 . S
C192 N194 1.347 . S
C192 H203 0.931 . S
C193 N191 1.375 . S
C193 C195 1.350 . S
C193 H202 0.930 . S
N194 C192 1.347 . S
N194 C195 1.373 . S
C195 C193 1.350 . S
C195 N194 1.373 . S
C195 H209 0.931 . S
C196 O199 1.256 . S
C196 O200 1.255 . S
O197 Co180 2.021 . S
O197 C190 1.259 . S
O198 Co182 2.117 . S
O198 C190 1.258 . S
O199 Co182 2.020 . S
O199 C196 1.256 . S
O200 Co180 2.062 . S
O200 C196 1.255 . S
O201 C181 1.259 . S
O201 Co182 2.021 . S
H202 C193 0.930 . S
H203 C192 0.931 . S
O204 Co180 2.117 . S
O204 C181 1.258 . S
O205 Co180 2.020 . S
O205 C207 1.256 . S
O206 Co182 2.062 . S
O206 C207 1.255 . S
C207 O205 1.256 . S
C207 O206 1.255 . S
H208 C187 0.931 . S
H209 C195 0.931 . S
Co210 N215 2.057 . S
Co210 O227 2.021 . S
Co210 O230 2.062 . S
Co210 O234 2.117 . S
Co210 O235 2.020 . S
C211 O231 1.259 . S
C211 O234 1.258 . S
Co212 N221 2.057 . S
Co212 O228 2.117 . S
Co212 O229 2.020 . S
Co212 O231 2.021 . S
Co212 O236 2.062 . S
C213 N215 1.316 . S
C213 N216 1.347 . S
C213 H218 0.931 . S
C214 N215 1.375 . S
C214 C217 1.350 . S
C214 H219 0.930 . S
N215 Co210 2.057 . S
N215 C213 1.316 . S
N215 C214 1.375 . S
N216 C213 1.347 . S
N216 C217 1.373 . S
C217 C214 1.350 . S
C217 N216 1.373 . S
C217 H238 0.931 . S
H218 C213 0.931 . S
H219 C214 0.930 . S
C220 O227 1.259 . S
C220 O228 1.258 . S
N221 Co212 2.057 . S
N221 C222 1.316 . S
N221 C223 1.375 . S
C222 N221 1.316 . S
C222 N224 1.347 . S
C222 H233 0.931 . S
C223 N221 1.375 . S
C223 C225 1.350 . S
C223 H232 0.930 . S
N224 C222 1.347 . S
N224 C225 1.373 . S
C225 C223 1.350 . S
C225 N224 1.373 . S
C225 H239 0.931 . S
C226 O229 1.256 . S
C226 O230 1.255 . S
O227 Co210 2.021 . S
O227 C220 1.259 . S
O228 Co212 2.117 . S
O228 C220 1.258 . S
O229 Co212 2.020 . S
O229 C226 1.256 . S
O230 Co210 2.062 . S
O230 C226 1.255 . S
O231 C211 1.259 . S
O231 Co212 2.021 . S
H232 C223 0.930 . S
H233 C222 0.931 . S
O234 Co210 2.117 . S
O234 C211 1.258 . S
O235 Co210 2.020 . S
O235 C237 1.256 . S
O236 Co212 2.062 . S
O236 C237 1.255 . S
C237 O235 1.256 . S
C237 O236 1.255 . S
H238 C217 0.931 . S
H239 C225 0.931 . S
C240 O252 1.241 . S
C240 O253 1.280 . S
C241 O254 1.277 . S
C241 O255 1.245 . S
C242 O266 1.247 . S
C242 O268 1.289 . S
Mg243 O244 1.926 . S
Mg243 O253 1.984 . S
Mg243 O255 1.988 . S
Mg243 O256 2.061 1_655 S
O244 Mg243 1.926 . S
O244 Mg245 1.986 . S
O244 Mg246 1.915 1_655 S
Mg245 O244 1.986 . S
Mg245 O252 2.042 . S
Mg245 O254 2.041 . S
Mg245 O260 2.038 1_545 S
Mg245 O268 2.238 1_545 S
Mg246 O244 1.915 1_455 S
Mg246 O247 1.919 1_545 S
Mg246 O257 2.108 . S
Mg246 O259 2.078 1_445 S
Mg246 O268 2.105 1_445 S
Mg246 O269 2.079 . S
O247 Mg246 1.919 1_565 S
O247 Mg248 1.926 . S
O247 Mg249 1.986 . S
Mg248 O247 1.926 . S
Mg248 O262 1.984 . S
Mg248 O265 1.988 . S
Mg248 O266 2.061 1_455 S
Mg249 O247 1.986 . S
Mg249 O257 2.238 1_565 S
Mg249 O261 2.042 . S
Mg249 O263 2.041 . S
Mg249 O270 2.038 1_565 S
C250 O256 1.247 . S
C250 O257 1.289 . S
C251 O269 1.245 . S
C251 O270 1.274 . S
O252 C240 1.241 . S
O252 Mg245 2.042 . S
O253 C240 1.280 . S
O253 Mg243 1.984 . S
O254 C241 1.277 . S
O254 Mg245 2.041 . S
O255 C241 1.245 . S
O255 Mg243 1.988 . S
O256 Mg243 2.061 1_455 S
O256 C250 1.247 . S
O257 Mg246 2.108 . S
O257 Mg249 2.238 1_545 S
O257 C250 1.289 . S
C258 O259 1.245 . S
C258 O260 1.274 . S
O259 Mg246 2.078 1_665 S
O259 C258 1.245 . S
O260 Mg245 2.038 1_565 S
O260 C258 1.274 . S
O261 Mg249 2.042 . S
O261 C264 1.241 . S
O262 Mg248 1.984 . S
O262 C264 1.280 . S
O263 Mg249 2.041 . S
O263 C267 1.277 . S
C264 O261 1.241 . S
C264 O262 1.280 . S
O265 Mg248 1.988 . S
O265 C267 1.245 . S
O266 C242 1.247 . S
O266 Mg248 2.061 1_655 S
C267 O263 1.277 . S
C267 O265 1.245 . S
O268 C242 1.289 . S
O268 Mg245 2.238 1_565 S
O268 Mg246 2.105 1_665 S
O269 Mg246 2.079 . S
O269 C251 1.245 . S
O270 Mg249 2.038 1_545 S
O270 C251 1.274 . S
C271 O283 1.241 . S
C271 O284 1.280 . S
C272 O285 1.277 . S
C272 O286 1.245 . S
C273 O297 1.247 . S
C273 O299 1.289 . S
Mg274 O275 1.926 . S
Mg274 O284 1.984 . S
Mg274 O286 1.988 1_554 S
Mg274 O287 2.061 . S
O275 Mg274 1.926 . S
O275 Mg276 1.986 1_554 S
O275 Mg277 1.917 . S
Mg276 O275 1.986 1_556 S
Mg276 O283 2.042 1_556 S
Mg276 O285 2.041 . S
Mg276 O291 2.038 1_546 S
Mg276 O299 2.238 1_545 S
Mg277 O275 1.917 . S
Mg277 O278 1.917 1_544 S
Mg277 O288 2.106 . S
Mg277 O290 2.079 1_545 S
Mg277 O299 2.106 1_544 S
Mg277 O300 2.079 1_554 S
O278 Mg277 1.917 1_566 S
O278 Mg279 1.926 . S
O278 Mg280 1.986 1_556 S
Mg279 O278 1.926 . S
Mg279 O293 1.984 . S
Mg279 O296 1.988 1_556 S
Mg279 O297 2.061 . S
Mg280 O278 1.986 1_554 S
Mg280 O288 2.238 1_565 S
Mg280 O292 2.042 1_554 S
Mg280 O294 2.041 . S
Mg280 O301 2.038 1_564 S
C281 O287 1.247 . S
C281 O288 1.289 . S
C282 O300 1.245 . S
C282 O301 1.274 . S
O283 C271 1.241 . S
O283 Mg276 2.042 1_554 S
O284 C271 1.280 . S
O284 Mg274 1.984 . S
O285 C272 1.277 . S
O285 Mg276 2.041 . S
O286 C272 1.245 . S
O286 Mg274 1.988 1_556 S
O287 Mg274 2.061 . S
O287 C281 1.247 . S
O288 Mg277 2.106 . S
O288 Mg280 2.238 1_545 S
O288 C281 1.289 . S
C289 O290 1.245 . S
C289 O291 1.274 . S
O290 Mg277 2.079 1_565 S
O290 C289 1.245 . S
O291 Mg276 2.038 1_564 S
O291 C289 1.274 . S
O292 Mg280 2.042 1_556 S
O292 C295 1.241 . S
O293 Mg279 1.984 . S
O293 C295 1.280 . S
O294 Mg280 2.041 . S
O294 C298 1.277 . S
C295 O292 1.241 . S
C295 O293 1.280 . S
O296 Mg279 1.988 1_554 S
O296 C298 1.245 . S
O297 C273 1.247 . S
O297 Mg279 2.061 . S
C298 O294 1.277 . S
C298 O296 1.245 . S
O299 C273 1.289 . S
O299 Mg276 2.238 1_565 S
O299 Mg277 2.106 1_566 S
O300 Mg277 2.079 1_556 S
O300 C282 1.245 . S
O301 Mg280 2.038 1_546 S
O301 C282 1.274 . S
C302 O314 1.241 . S
C302 O315 1.280 . S
C303 O316 1.277 . S
C303 O317 1.245 . S
C304 O328 1.247 . S
C304 O330 1.289 . S
Mg305 O306 1.926 . S
Mg305 O315 1.984 . S
Mg305 O317 1.988 1_554 S
Mg305 O318 2.061 1_655 S
O306 Mg305 1.926 . S
O306 Mg307 1.986 1_554 S
O306 Mg308 1.915 1_655 S
Mg307 O306 1.986 1_556 S
Mg307 O314 2.042 1_556 S
Mg307 O316 2.041 . S
Mg307 O322 2.038 1_556 S
Mg307 O330 2.238 . S
Mg308 O306 1.915 1_455 S
Mg308 O309 1.919 1_554 S
Mg308 O319 2.108 . S
Mg308 O321 2.078 1_455 S
Mg308 O330 2.105 1_454 S
Mg308 O331 2.079 1_554 S
O309 Mg308 1.919 1_556 S
O309 Mg310 1.926 . S
O309 Mg311 1.986 1_556 S
Mg310 O309 1.926 . S
Mg310 O324 1.984 . S
Mg310 O327 1.988 1_556 S
Mg310 O328 2.061 1_455 S
Mg311 O309 1.986 1_554 S
Mg311 O319 2.238 . S
Mg311 O323 2.042 1_554 S
Mg311 O325 2.041 . S
Mg311 O332 2.038 1_554 S
C312 O318 1.247 . S
C312 O319 1.289 . S
C313 O331 1.245 . S
C313 O332 1.274 . S
O314 C302 1.241 . S
O314 Mg307 2.042 1_554 S
O315 C302 1.280 . S
O315 Mg305 1.984 . S
O316 C303 1.277 . S
O316 Mg307 2.041 . S
O317 C303 1.245 . S
O317 Mg305 1.988 1_556 S
O318 Mg305 2.061 1_455 S
O318 C312 1.247 . S
O319 Mg308 2.108 . S
O319 Mg311 2.238 . S
O319 C312 1.289 . S
C320 O321 1.245 . S
C320 O322 1.274 . S
O321 Mg308 2.078 1_655 S
O321 C320 1.245 . S
O322 Mg307 2.038 1_554 S
O322 C320 1.274 . S
O323 Mg311 2.042 1_556 S
O323 C326 1.241 . S
O324 Mg310 1.984 . S
O324 C326 1.280 . S
O325 Mg311 2.041 . S
O325 C329 1.277 . S
C326 O323 1.241 . S
C326 O324 1.280 . S
O327 Mg310 1.988 1_554 S
O327 C329 1.245 . S
O328 C304 1.247 . S
O328 Mg310 2.061 1_655 S
C329 O325 1.277 . S
C329 O327 1.245 . S
O330 C304 1.289 . S
O330 Mg307 2.238 . S
O330 Mg308 2.105 1_656 S
O331 Mg308 2.079 1_556 S
O331 C313 1.245 . S
O332 Mg311 2.038 1_556 S
O332 C313 1.274 . S
C333 O345 1.241 . S
C333 O346 1.280 . S
C334 O347 1.277 . S
C334 O348 1.245 . S
C335 O359 1.247 . S
C335 O361 1.289 . S
Mg336 O337 1.926 . S
Mg336 O346 1.984 . S
Mg336 O348 1.988 1_554 S
Mg336 O349 2.061 . S
O337 Mg336 1.926 . S
O337 Mg338 1.986 1_554 S
O337 Mg339 1.917 . S
Mg338 O337 1.986 1_556 S
Mg338 O345 2.042 1_556 S
Mg338 O347 2.041 . S
Mg338 O353 2.038 1_556 S
Mg338 O361 2.238 . S
Mg339 O337 1.917 . S
Mg339 O340 1.917 1_554 S
Mg339 O350 2.106 . S
Mg339 O352 2.079 . S
Mg339 O361 2.106 1_554 S
Mg339 O362 2.079 1_554 S
O340 Mg339 1.917 1_556 S
O340 Mg341 1.926 . S
O340 Mg342 1.986 1_556 S
Mg341 O340 1.926 . S
Mg341 O355 1.984 . S
Mg341 O358 1.988 1_556 S
Mg341 O359 2.061 . S
Mg342 O340 1.986 1_554 S
Mg342 O350 2.238 . S
Mg342 O354 2.042 1_554 S
Mg342 O356 2.041 . S
Mg342 O363 2.038 1_554 S
C343 O349 1.247 . S
C343 O350 1.289 . S
C344 O362 1.245 . S
C344 O363 1.274 . S
O345 C333 1.241 . S
O345 Mg338 2.042 1_554 S
O346 C333 1.280 . S
O346 Mg336 1.984 . S
O347 C334 1.277 . S
O347 Mg338 2.041 . S
O348 C334 1.245 . S
O348 Mg336 1.988 1_556 S
O349 Mg336 2.061 . S
O349 C343 1.247 . S
O350 Mg339 2.106 . S
O350 Mg342 2.238 . S
O350 C343 1.289 . S
C351 O352 1.245 . S
C351 O353 1.274 . S
O352 Mg339 2.079 . S
O352 C351 1.245 . S
O353 Mg338 2.038 1_554 S
O353 C351 1.274 . S
O354 Mg342 2.042 1_556 S
O354 C357 1.241 . S
O355 Mg341 1.984 . S
O355 C357 1.280 . S
O356 Mg342 2.041 . S
O356 C360 1.277 . S
C357 O354 1.241 . S
C357 O355 1.280 . S
O358 Mg341 1.988 1_554 S
O358 C360 1.245 . S
O359 C335 1.247 . S
O359 Mg341 2.061 . S
C360 O356 1.277 . S
C360 O358 1.245 . S
O361 C335 1.289 . S
O361 Mg338 2.238 . S
O361 Mg339 2.106 1_556 S
O362 Mg339 2.079 1_556 S
O362 C344 1.245 . S
O363 Mg342 2.038 1_556 S
O363 C344 1.274 . S
C364 O376 1.241 . S
C364 O377 1.280 . S
C365 O378 1.277 . S
C365 O379 1.245 . S
C366 O390 1.247 . S
C366 O392 1.289 . S
Mg367 O368 1.926 . S
Mg367 O377 1.984 . S
Mg367 O379 1.988 . S
Mg367 O380 2.061 1_655 S
O368 Mg367 1.926 . S
O368 Mg369 1.986 . S
O368 Mg370 1.915 1_655 S
Mg369 O368 1.986 . S
Mg369 O376 2.042 . S
Mg369 O378 2.041 . S
Mg369 O384 2.038 . S
Mg369 O392 2.238 . S
Mg370 O368 1.915 1_455 S
Mg370 O371 1.918 . S
Mg370 O381 2.108 . S
Mg370 O383 2.078 1_455 S
Mg370 O392 2.105 1_455 S
Mg370 O393 2.079 . S
O371 Mg370 1.918 . S
O371 Mg372 1.926 . S
O371 Mg373 1.986 . S
Mg372 O371 1.926 . S
Mg372 O386 1.984 . S
Mg372 O389 1.988 . S
Mg372 O390 2.061 1_455 S
Mg373 O371 1.986 . S
Mg373 O381 2.238 . S
Mg373 O385 2.042 . S
Mg373 O387 2.041 . S
Mg373 O394 2.038 . S
C374 O380 1.247 . S
C374 O381 1.289 . S
C375 O393 1.245 . S
C375 O394 1.274 . S
O376 C364 1.241 . S
O376 Mg369 2.042 . S
O377 C364 1.280 . S
O377 Mg367 1.984 . S
O378 C365 1.277 . S
O378 Mg369 2.041 . S
O379 C365 1.245 . S
O379 Mg367 1.988 . S
O380 Mg367 2.061 1_455 S
O380 C374 1.247 . S
O381 Mg370 2.108 . S
O381 Mg373 2.238 . S
O381 C374 1.289 . S
C382 O383 1.245 . S
C382 O384 1.274 . S
O383 Mg370 2.078 1_655 S
O383 C382 1.245 . S
O384 Mg369 2.038 . S
O384 C382 1.274 . S
O385 Mg373 2.042 . S
O385 C388 1.241 . S
O386 Mg372 1.984 . S
O386 C388 1.280 . S
O387 Mg373 2.041 . S
O387 C391 1.277 . S
C388 O385 1.241 . S
C388 O386 1.280 . S
O389 Mg372 1.988 . S
O389 C391 1.245 . S
O390 C366 1.247 . S
O390 Mg372 2.061 1_655 S
C391 O387 1.277 . S
C391 O389 1.245 . S
O392 C366 1.289 . S
O392 Mg369 2.238 . S
O392 Mg370 2.105 1_655 S
O393 Mg370 2.079 . S
O393 C375 1.245 . S
O394 Mg373 2.038 . S
O394 C375 1.274 . S
C395 O407 1.241 . S
C395 O408 1.280 . S
C396 O409 1.277 . S
C396 O410 1.245 . S
C397 O421 1.247 . S
C397 O423 1.289 . S
Mg398 O399 1.926 . S
Mg398 O408 1.984 . S
Mg398 O410 1.988 . S
Mg398 O411 2.061 . S
O399 Mg398 1.926 . S
O399 Mg400 1.986 . S
O399 Mg401 1.917 . S
Mg400 O399 1.986 . S
Mg400 O407 2.042 . S
Mg400 O409 2.041 . S
Mg400 O415 2.038 1_545 S
Mg400 O423 2.238 1_545 S
Mg401 O399 1.917 . S
Mg401 O402 1.917 1_545 S
Mg401 O412 2.106 . S
Mg401 O414 2.079 1_545 S
Mg401 O423 2.106 1_545 S
Mg401 O424 2.079 . S
O402 Mg401 1.917 1_565 S
O402 Mg403 1.926 . S
O402 Mg404 1.986 . S
Mg403 O402 1.926 . S
Mg403 O417 1.984 . S
Mg403 O420 1.988 . S
Mg403 O421 2.061 . S
Mg404 O402 1.986 . S
Mg404 O412 2.238 1_565 S
Mg404 O416 2.042 . S
Mg404 O418 2.041 . S
Mg404 O425 2.038 1_565 S
C405 O411 1.247 . S
C405 O412 1.289 . S
C406 O424 1.245 . S
C406 O425 1.274 . S
O407 C395 1.241 . S
O407 Mg400 2.042 . S
O408 C395 1.280 . S
O408 Mg398 1.984 . S
O409 C396 1.277 . S
O409 Mg400 2.041 . S
O410 C396 1.245 . S
O410 Mg398 1.988 . S
O411 Mg398 2.061 . S
O411 C405 1.247 . S
O412 Mg401 2.106 . S
O412 Mg404 2.238 1_545 S
O412 C405 1.289 . S
C413 O414 1.245 . S
C413 O415 1.274 . S
O414 Mg401 2.079 1_565 S
O414 C413 1.245 . S
O415 Mg400 2.038 1_565 S
O415 C413 1.274 . S
O416 Mg404 2.042 . S
O416 C419 1.241 . S
O417 Mg403 1.984 . S
O417 C419 1.280 . S
O418 Mg404 2.041 . S
O418 C422 1.277 . S
C419 O416 1.241 . S
C419 O417 1.280 . S
O420 Mg403 1.988 . S
O420 C422 1.245 . S
O421 C397 1.247 . S
O421 Mg403 2.061 . S
C422 O418 1.277 . S
C422 O420 1.245 . S
O423 C397 1.289 . S
O423 Mg400 2.238 1_565 S
O423 Mg401 2.106 1_565 S
O424 Mg401 2.079 . S
O424 C406 1.245 . S
O425 Mg404 2.038 1_545 S
O425 C406 1.274 . S
C426 C427 1.349 . S
C426 C428 1.327 . S
C426 H451 0.950 . S
C427 C426 1.349 . S
C427 C443 1.349 . S
C428 C426 1.327 . S
C428 C447 1.429 . S
C428 H452 0.950 . S
C429 C446 1.574 . S
C429 C448 1.368 . S
C429 H453 0.949 . S
H430 C434 0.949 . S
C431 C432 1.349 . S
C431 C433 1.327 . S
C431 H454 0.950 . S
C432 C431 1.349 . S
C432 C444 1.349 . S
C433 C431 1.327 . S
C433 C449 1.429 . S
C433 H455 0.950 . S
C434 H430 0.949 . S
C434 C442 1.574 . S
C434 C450 1.368 . S
H435 C443 0.950 . S
H436 C441 0.950 . S
H437 C442 0.949 . S
H438 C444 0.950 . S
H439 C445 0.950 . S
H440 C446 0.949 . S
C441 H436 0.950 . S
C441 C443 1.327 . S
C441 C447 1.429 . S
C442 C434 1.574 . S
C442 H437 0.949 . S
C442 C448 1.368 . S
C443 C427 1.349 . S
C443 H435 0.950 . S
C443 C441 1.327 . S
C444 C432 1.349 . S
C444 H438 0.950 . S
C444 C445 1.327 . S
C445 H439 0.950 . S
C445 C444 1.327 . S
C445 C449 1.429 . S
C446 C429 1.574 . S
C446 H440 0.949 . S
C446 C450 1.368 . S
C447 C428 1.429 . S
C447 C441 1.429 . S
C447 C448 1.523 . S
C448 C429 1.368 . S
C448 C442 1.368 . S
C448 C447 1.523 . S
C449 C433 1.429 . S
C449 C445 1.429 . S
C449 C450 1.523 . S
C450 C434 1.368 . S
C450 C446 1.368 . S
C450 C449 1.523 . S
H451 C426 0.950 . S
H452 C428 0.950 . S
H453 C429 0.949 . S
H454 C431 0.950 . S
H455 C433 0.950 . S
C456 C457 1.349 . S
C456 C458 1.327 . S
C456 H481 0.950 . S
C457 C456 1.349 . S
C457 C473 1.349 . S
C458 C456 1.327 . S
C458 C477 1.429 . S
C458 H482 0.950 . S
C459 C476 1.574 . S
C459 C478 1.368 . S
C459 H483 0.949 . S
H460 C464 0.949 . S
C461 C462 1.349 . S
C461 C463 1.327 . S
C461 H484 0.950 . S
C462 C461 1.349 . S
C462 C474 1.349 . S
C463 C461 1.327 . S
C463 C479 1.429 . S
C463 H485 0.950 . S
C464 H460 0.949 . S
C464 C472 1.574 . S
C464 C480 1.368 . S
H465 C473 0.950 . S
H466 C471 0.950 . S
H467 C472 0.949 . S
H468 C474 0.950 . S
H469 C475 0.950 . S
H470 C476 0.949 . S
C471 H466 0.950 . S
C471 C473 1.327 . S
C471 C477 1.429 . S
C472 C464 1.574 . S
C472 H467 0.949 . S
C472 C478 1.368 . S
C473 C457 1.349 . S
C473 H465 0.950 . S
C473 C471 1.327 . S
C474 C462 1.349 . S
C474 H468 0.950 . S
C474 C475 1.327 . S
C475 H469 0.950 . S
C475 C474 1.327 . S
C475 C479 1.429 . S
C476 C459 1.574 . S
C476 H470 0.949 . S
C476 C480 1.368 . S
C477 C458 1.429 . S
C477 C471 1.429 . S
C477 C478 1.523 . S
C478 C459 1.368 . S
C478 C472 1.368 . S
C478 C477 1.523 . S
C479 C463 1.429 . S
C479 C475 1.429 . S
C479 C480 1.523 . S
C480 C464 1.368 . S
C480 C476 1.368 . S
C480 C479 1.523 . S
H481 C456 0.950 . S
H482 C458 0.950 . S
H483 C459 0.949 . S
H484 C461 0.950 . S
H485 C463 0.950 . S
C486 C487 1.349 . S
C486 C488 1.327 . S
C486 H511 0.950 . S
C487 C486 1.349 . S
C487 C503 1.349 . S
C488 C486 1.327 . S
C488 C507 1.429 . S
C488 H512 0.950 . S
C489 C506 1.574 . S
C489 C508 1.368 . S
C489 H513 0.949 . S
H490 C494 0.949 . S
C491 C492 1.349 . S
C491 C493 1.327 . S
C491 H514 0.950 . S
C492 C491 1.349 . S
C492 C504 1.349 . S
C493 C491 1.327 . S
C493 C509 1.429 . S
C493 H515 0.950 . S
C494 H490 0.949 . S
C494 C502 1.574 . S
C494 C510 1.368 . S
H495 C503 0.950 . S
H496 C501 0.950 . S
H497 C502 0.949 . S
H498 C504 0.950 . S
H499 C505 0.950 . S
H500 C506 0.949 . S
C501 H496 0.950 . S
C501 C503 1.327 . S
C501 C507 1.429 . S
C502 C494 1.574 . S
C502 H497 0.949 . S
C502 C508 1.368 . S
C503 C487 1.349 . S
C503 H495 0.950 . S
C503 C501 1.327 . S
C504 C492 1.349 . S
C504 H498 0.950 . S
C504 C505 1.327 . S
C505 H499 0.950 . S
C505 C504 1.327 . S
C505 C509 1.429 . S
C506 C489 1.574 . S
C506 H500 0.949 . S
C506 C510 1.368 . S
C507 C488 1.429 . S
C507 C501 1.429 . S
C507 C508 1.523 . S
C508 C489 1.368 . S
C508 C502 1.368 . S
C508 C507 1.523 . S
C509 C493 1.429 . S
C509 C505 1.429 . S
C509 C510 1.523 . S
C510 C494 1.368 . S
C510 C506 1.368 . S
C510 C509 1.523 . S
H511 C486 0.950 . S
H512 C488 0.950 . S
H513 C489 0.949 . S
H514 C491 0.950 . S
H515 C493 0.950 . S
C516 C517 1.349 . S
C516 C518 1.327 . S
C516 H541 0.950 . S
C517 C516 1.349 . S
C517 C533 1.349 . S
C518 C516 1.327 . S
C518 C537 1.429 . S
C518 H542 0.950 . S
C519 C536 1.574 . S
C519 C538 1.368 . S
C519 H543 0.949 . S
H520 C524 0.949 . S
C521 C522 1.349 . S
C521 C523 1.327 . S
C521 H544 0.950 . S
C522 C521 1.349 . S
C522 C534 1.349 . S
C523 C521 1.327 . S
C523 C539 1.429 . S
C523 H545 0.950 . S
C524 H520 0.949 . S
C524 C532 1.574 . S
C524 C540 1.368 . S
H525 C533 0.950 . S
H526 C531 0.950 . S
H527 C532 0.949 . S
H528 C534 0.950 . S
H529 C535 0.950 . S
H530 C536 0.949 . S
C531 H526 0.950 . S
C531 C533 1.327 . S
C531 C537 1.429 . S
C532 C524 1.574 . S
C532 H527 0.949 . S
C532 C538 1.368 . S
C533 C517 1.349 . S
C533 H525 0.950 . S
C533 C531 1.327 . S
C534 C522 1.349 . S
C534 H528 0.950 . S
C534 C535 1.327 . S
C535 H529 0.950 . S
C535 C534 1.327 . S
C535 C539 1.429 . S
C536 C519 1.574 . S
C536 H530 0.949 . S
C536 C540 1.368 . S
C537 C518 1.429 . S
C537 C531 1.429 . S
C537 C538 1.523 . S
C538 C519 1.368 . S
C538 C532 1.368 . S
C538 C537 1.523 . S
C539 C523 1.429 . S
C539 C535 1.429 . S
C539 C540 1.523 . S
C540 C524 1.368 . S
C540 C536 1.368 . S
C540 C539 1.523 . S
H541 C516 0.950 . S
H542 C518 0.950 . S
H543 C519 0.949 . S
H544 C521 0.950 . S
H545 C523 0.950 . S
C546 C547 1.349 . S
C546 C548 1.327 . S
C546 H571 0.950 . S
C547 C546 1.349 . S
C547 C563 1.349 . S
C548 C546 1.327 . S
C548 C567 1.429 . S
C548 H572 0.950 . S
C549 C566 1.574 . S
C549 C568 1.368 . S
C549 H573 0.949 . S
H550 C554 0.949 . S
C551 C552 1.349 . S
C551 C553 1.327 . S
C551 H574 0.950 . S
C552 C551 1.349 . S
C552 C564 1.349 . S
C553 C551 1.327 . S
C553 C569 1.429 . S
C553 H575 0.950 . S
C554 H550 0.949 . S
C554 C562 1.574 . S
C554 C570 1.368 . S
H555 C563 0.950 . S
H556 C561 0.950 . S
H557 C562 0.949 . S
H558 C564 0.950 . S
H559 C565 0.950 . S
H560 C566 0.949 . S
C561 H556 0.950 . S
C561 C563 1.327 . S
C561 C567 1.429 . S
C562 C554 1.574 . S
C562 H557 0.949 . S
C562 C568 1.368 . S
C563 C547 1.349 . S
C563 H555 0.950 . S
C563 C561 1.327 . S
C564 C552 1.349 . S
C564 H558 0.950 . S
C564 C565 1.327 . S
C565 H559 0.950 . S
C565 C564 1.327 . S
C565 C569 1.429 . S
C566 C549 1.574 . S
C566 H560 0.949 . S
C566 C570 1.368 . S
C567 C548 1.429 . S
C567 C561 1.429 . S
C567 C568 1.523 . S
C568 C549 1.368 . S
C568 C562 1.368 . S
C568 C567 1.523 . S
C569 C553 1.429 . S
C569 C565 1.429 . S
C569 C570 1.523 . S
C570 C554 1.368 . S
C570 C566 1.368 . S
C570 C569 1.523 . S
H571 C546 0.950 . S
H572 C548 0.950 . S
H573 C549 0.949 . S
H574 C551 0.950 . S
H575 C553 0.950 . S
C576 C577 1.349 . S
C576 C578 1.327 . S
C576 H601 0.950 . S
C577 C576 1.349 . S
C577 C593 1.349 . S
C578 C576 1.327 . S
C578 C597 1.429 . S
C578 H602 0.950 . S
C579 C596 1.574 . S
C579 C598 1.368 . S
C579 H603 0.949 . S
H580 C584 0.949 . S
C581 C582 1.349 . S
C581 C583 1.327 . S
C581 H604 0.950 . S
C582 C581 1.349 . S
C582 C594 1.349 . S
C583 C581 1.327 . S
C583 C599 1.429 . S
C583 H605 0.950 . S
C584 H580 0.949 . S
C584 C592 1.574 . S
C584 C600 1.368 . S
H585 C593 0.950 . S
H586 C591 0.950 . S
H587 C592 0.949 . S
H588 C594 0.950 . S
H589 C595 0.950 . S
H590 C596 0.949 . S
C591 H586 0.950 . S
C591 C593 1.327 . S
C591 C597 1.429 . S
C592 C584 1.574 . S
C592 H587 0.949 . S
C592 C598 1.368 . S
C593 C577 1.349 . S
C593 H585 0.950 . S
C593 C591 1.327 . S
C594 C582 1.349 . S
C594 H588 0.950 . S
C594 C595 1.327 . S
C595 H589 0.950 . S
C595 C594 1.327 . S
C595 C599 1.429 . S
C596 C579 1.574 . S
C596 H590 0.949 . S
C596 C600 1.368 . S
C597 C578 1.429 . S
C597 C591 1.429 . S
C597 C598 1.523 . S
C598 C579 1.368 . S
C598 C592 1.368 . S
C598 C597 1.523 . S
C599 C583 1.429 . S
C599 C595 1.429 . S
C599 C600 1.523 . S
C600 C584 1.368 . S
C600 C596 1.368 . S
C600 C599 1.523 . S
H601 C576 0.950 . S
H602 C578 0.950 . S
H603 C579 0.949 . S
H604 C581 0.950 . S
H605 C583 0.950 . S
C606 C607 1.349 . S
C606 C608 1.327 . S
C606 H631 0.950 . S
C607 C606 1.349 . S
C607 C623 1.349 . S
C608 C606 1.327 . S
C608 C627 1.429 . S
C608 H632 0.950 . S
C609 C626 1.574 . S
C609 C628 1.368 . S
C609 H633 0.949 . S
H610 C614 0.949 . S
C611 C612 1.349 . S
C611 C613 1.327 . S
C611 H634 0.950 . S
C612 C611 1.349 . S
C612 C624 1.349 . S
C613 C611 1.327 . S
C613 C629 1.429 . S
C613 H635 0.950 . S
C614 H610 0.949 . S
C614 C622 1.574 . S
C614 C630 1.368 . S
H615 C623 0.950 . S
H616 C621 0.950 . S
H617 C622 0.949 . S
H618 C624 0.950 . S
H619 C625 0.950 . S
H620 C626 0.949 . S
C621 H616 0.950 . S
C621 C623 1.327 . S
C621 C627 1.429 . S
C622 C614 1.574 . S
C622 H617 0.949 . S
C622 C628 1.368 . S
C623 C607 1.349 . S
C623 H615 0.950 . S
C623 C621 1.327 . S
C624 C612 1.349 . S
C624 H618 0.950 . S
C624 C625 1.327 . S
C625 H619 0.950 . S
C625 C624 1.327 . S
C625 C629 1.429 . S
C626 C609 1.574 . S
C626 H620 0.949 . S
C626 C630 1.368 . S
C627 C608 1.429 . S
C627 C621 1.429 . S
C627 C628 1.523 . S
C628 C609 1.368 . S
C628 C622 1.368 . S
C628 C627 1.523 . S
C629 C613 1.429 . S
C629 C625 1.429 . S
C629 C630 1.523 . S
C630 C614 1.368 . S
C630 C626 1.368 . S
C630 C629 1.523 . S
H631 C606 0.950 . S
H632 C608 0.950 . S
H633 C609 0.949 . S
H634 C611 0.950 . S
H635 C613 0.950 . S
C636 C637 1.349 . S
C636 C638 1.327 . S
C636 H661 0.950 . S
C637 C636 1.349 . S
C637 C653 1.349 . S
C638 C636 1.327 . S
C638 C657 1.429 . S
C638 H662 0.950 . S
C639 C656 1.574 . S
C639 C658 1.368 . S
C639 H663 0.949 . S
H640 C644 0.949 . S
C641 C642 1.349 . S
C641 C643 1.327 . S
C641 H664 0.950 . S
C642 C641 1.349 . S
C642 C654 1.349 . S
C643 C641 1.327 . S
C643 C659 1.429 . S
C643 H665 0.950 . S
C644 H640 0.949 . S
C644 C652 1.574 . S
C644 C660 1.368 . S
H645 C653 0.950 . S
H646 C651 0.950 . S
H647 C652 0.949 . S
H648 C654 0.950 . S
H649 C655 0.950 . S
H650 C656 0.949 . S
C651 H646 0.950 . S
C651 C653 1.327 . S
C651 C657 1.429 . S
C652 C644 1.574 . S
C652 H647 0.949 . S
C652 C658 1.368 . S
C653 C637 1.349 . S
C653 H645 0.950 . S
C653 C651 1.327 . S
C654 C642 1.349 . S
C654 H648 0.950 . S
C654 C655 1.327 . S
C655 H649 0.950 . S
C655 C654 1.327 . S
C655 C659 1.429 . S
C656 C639 1.574 . S
C656 H650 0.949 . S
C656 C660 1.368 . S
C657 C638 1.429 . S
C657 C651 1.429 . S
C657 C658 1.523 . S
C658 C639 1.368 . S
C658 C652 1.368 . S
C658 C657 1.523 . S
C659 C643 1.429 . S
C659 C655 1.429 . S
C659 C660 1.523 . S
C660 C644 1.368 . S
C660 C656 1.368 . S
C660 C659 1.523 . S
H661 C636 0.950 . S
H662 C638 0.950 . S
H663 C639 0.949 . S
H664 C641 0.950 . S
H665 C643 0.950 . S
C666 C667 1.349 . S
C666 C668 1.327 . S
C666 H691 0.950 . S
C667 C666 1.349 . S
C667 C683 1.349 . S
C668 C666 1.327 . S
C668 C687 1.429 . S
C668 H692 0.950 . S
C669 C686 1.574 . S
C669 C688 1.368 . S
C669 H693 0.949 . S
H670 C674 0.949 . S
C671 C672 1.349 . S
C671 C673 1.327 . S
C671 H694 0.950 . S
C672 C671 1.349 . S
C672 C684 1.349 . S
C673 C671 1.327 . S
C673 C689 1.429 . S
C673 H695 0.950 . S
C674 H670 0.949 . S
C674 C682 1.574 . S
C674 C690 1.368 . S
H675 C683 0.950 . S
H676 C681 0.950 . S
H677 C682 0.949 . S
H678 C684 0.950 . S
H679 C685 0.950 . S
H680 C686 0.949 . S
C681 H676 0.950 . S
C681 C683 1.327 . S
C681 C687 1.429 . S
C682 C674 1.574 . S
C682 H677 0.949 . S
C682 C688 1.368 . S
C683 C667 1.349 . S
C683 H675 0.950 . S
C683 C681 1.327 . S
C684 C672 1.349 . S
C684 H678 0.950 . S
C684 C685 1.327 . S
C685 H679 0.950 . S
C685 C684 1.327 . S
C685 C689 1.429 . S
C686 C669 1.574 . S
C686 H680 0.949 . S
C686 C690 1.368 . S
C687 C668 1.429 . S
C687 C681 1.429 . S
C687 C688 1.523 . S
C688 C669 1.368 . S
C688 C682 1.368 . S
C688 C687 1.523 . S
C689 C673 1.429 . S
C689 C685 1.429 . S
C689 C690 1.523 . S
C690 C674 1.368 . S
C690 C686 1.368 . S
C690 C689 1.523 . S
H691 C666 0.950 . S
H692 C668 0.950 . S
H693 C669 0.949 . S
H694 C671 0.950 . S
H695 C673 0.950 . S
C696 C697 1.349 . S
C696 C698 1.327 . S
C696 H721 0.950 . S
C697 C696 1.349 . S
C697 C713 1.349 . S
C698 C696 1.327 . S
C698 C717 1.429 . S
C698 H722 0.950 . S
C699 C716 1.574 . S
C699 C718 1.368 . S
C699 H723 0.949 . S
H700 C704 0.949 . S
C701 C702 1.349 . S
C701 C703 1.327 . S
C701 H724 0.950 . S
C702 C701 1.349 . S
C702 C714 1.349 . S
C703 C701 1.327 . S
C703 C719 1.429 . S
C703 H725 0.950 . S
C704 H700 0.949 . S
C704 C712 1.574 . S
C704 C720 1.368 . S
H705 C713 0.950 . S
H706 C711 0.950 . S
H707 C712 0.949 . S
H708 C714 0.950 . S
H709 C715 0.950 . S
H710 C716 0.949 . S
C711 H706 0.950 . S
C711 C713 1.327 . S
C711 C717 1.429 . S
C712 C704 1.574 . S
C712 H707 0.949 . S
C712 C718 1.368 . S
C713 C697 1.349 . S
C713 H705 0.950 . S
C713 C711 1.327 . S
C714 C702 1.349 . S
C714 H708 0.950 . S
C714 C715 1.327 . S
C715 H709 0.950 . S
C715 C714 1.327 . S
C715 C719 1.429 . S
C716 C699 1.574 . S
C716 H710 0.949 . S
C716 C720 1.368 . S
C717 C698 1.429 . S
C717 C711 1.429 . S
C717 C718 1.523 . S
C718 C699 1.368 . S
C718 C712 1.368 . S
C718 C717 1.523 . S
C719 C703 1.429 . S
C719 C715 1.429 . S
C719 C720 1.523 . S
C720 C704 1.368 . S
C720 C716 1.368 . S
C720 C719 1.523 . S
H721 C696 0.950 . S
H722 C698 0.950 . S
H723 C699 0.949 . S
H724 C701 0.950 . S
H725 C703 0.950 . S
C726 C727 1.349 . S
C726 C728 1.327 . S
C726 H751 0.950 . S
C727 C726 1.349 . S
C727 C743 1.349 . S
C728 C726 1.327 . S
C728 C747 1.429 . S
C728 H752 0.950 . S
C729 C746 1.574 . S
C729 C748 1.368 . S
C729 H753 0.949 . S
H730 C734 0.949 . S
C731 C732 1.349 . S
C731 C733 1.327 . S
C731 H754 0.950 . S
C732 C731 1.349 . S
C732 C744 1.349 . S
C733 C731 1.327 . S
C733 C749 1.429 . S
C733 H755 0.950 . S
C734 H730 0.949 . S
C734 C742 1.574 . S
C734 C750 1.368 . S
H735 C743 0.950 . S
H736 C741 0.950 . S
H737 C742 0.949 . S
H738 C744 0.950 . S
H739 C745 0.950 . S
H740 C746 0.949 . S
C741 H736 0.950 . S
C741 C743 1.327 . S
C741 C747 1.429 . S
C742 C734 1.574 . S
C742 H737 0.949 . S
C742 C748 1.368 . S
C743 C727 1.349 . S
C743 H735 0.950 . S
C743 C741 1.327 . S
C744 C732 1.349 . S
C744 H738 0.950 . S
C744 C745 1.327 . S
C745 H739 0.950 . S
C745 C744 1.327 . S
C745 C749 1.429 . S
C746 C729 1.574 . S
C746 H740 0.949 . S
C746 C750 1.368 . S
C747 C728 1.429 . S
C747 C741 1.429 . S
C747 C748 1.523 . S
C748 C729 1.368 . S
C748 C742 1.368 . S
C748 C747 1.523 . S
C749 C733 1.429 . S
C749 C745 1.429 . S
C749 C750 1.523 . S
C750 C734 1.368 . S
C750 C746 1.368 . S
C750 C749 1.523 . S
H751 C726 0.950 . S
H752 C728 0.950 . S
H753 C729 0.949 . S
H754 C731 0.950 . S
H755 C733 0.950 . S
C756 C757 1.349 . S
C756 C758 1.327 . S
C756 H781 0.950 . S
C757 C756 1.349 . S
C757 C773 1.349 . S
C758 C756 1.327 . S
C758 C777 1.429 . S
C758 H782 0.950 . S
C759 C776 1.574 . S
C759 C778 1.368 . S
C759 H783 0.949 . S
H760 C764 0.949 . S
C761 C762 1.349 . S
C761 C763 1.327 . S
C761 H784 0.950 . S
C762 C761 1.349 . S
C762 C774 1.349 . S
C763 C761 1.327 . S
C763 C779 1.429 . S
C763 H785 0.950 . S
C764 H760 0.949 . S
C764 C772 1.574 . S
C764 C780 1.368 . S
H765 C773 0.950 . S
H766 C771 0.950 . S
H767 C772 0.949 . S
H768 C774 0.950 . S
H769 C775 0.950 . S
H770 C776 0.949 . S
C771 H766 0.950 . S
C771 C773 1.327 . S
C771 C777 1.429 . S
C772 C764 1.574 . S
C772 H767 0.949 . S
C772 C778 1.368 . S
C773 C757 1.349 . S
C773 H765 0.950 . S
C773 C771 1.327 . S
C774 C762 1.349 . S
C774 H768 0.950 . S
C774 C775 1.327 . S
C775 H769 0.950 . S
C775 C774 1.327 . S
C775 C779 1.429 . S
C776 C759 1.574 . S
C776 H770 0.949 . S
C776 C780 1.368 . S
C777 C758 1.429 . S
C777 C771 1.429 . S
C777 C778 1.523 . S
C778 C759 1.368 . S
C778 C772 1.368 . S
C778 C777 1.523 . S
C779 C763 1.429 . S
C779 C775 1.429 . S
C779 C780 1.523 . S
C780 C764 1.368 . S
C780 C776 1.368 . S
C780 C779 1.523 . S
H781 C756 0.950 . S
H782 C758 0.950 . S
H783 C759 0.949 . S
H784 C761 0.950 . S
H785 C763 0.950 . S
C786 C787 1.349 . S
C786 C788 1.327 . S
C786 H811 0.950 . S
C787 C786 1.349 . S
C787 C803 1.349 . S
C788 C786 1.327 . S
C788 C807 1.429 . S
C788 H812 0.950 . S
C789 C806 1.574 . S
C789 C808 1.368 . S
C789 H813 0.949 . S
H790 C794 0.949 . S
C791 C792 1.349 . S
C791 C793 1.327 . S
C791 H814 0.950 . S
C792 C791 1.349 . S
C792 C804 1.349 . S
C793 C791 1.327 . S
C793 C809 1.429 . S
C793 H815 0.950 . S
C794 H790 0.949 . S
C794 C802 1.574 . S
C794 C810 1.368 . S
H795 C803 0.950 . S
H796 C801 0.950 . S
H797 C802 0.949 . S
H798 C804 0.950 . S
H799 C805 0.950 . S
H800 C806 0.949 . S
C801 H796 0.950 . S
C801 C803 1.327 . S
C801 C807 1.429 . S
C802 C794 1.574 . S
C802 H797 0.949 . S
C802 C808 1.368 . S
C803 C787 1.349 . S
C803 H795 0.950 . S
C803 C801 1.327 . S
C804 C792 1.349 . S
C804 H798 0.950 . S
C804 C805 1.327 . S
C805 H799 0.950 . S
C805 C804 1.327 . S
C805 C809 1.429 . S
C806 C789 1.574 . S
C806 H800 0.949 . S
C806 C810 1.368 . S
C807 C788 1.429 . S
C807 C801 1.429 . S
C807 C808 1.523 . S
C808 C789 1.368 . S
C808 C802 1.368 . S
C808 C807 1.523 . S
C809 C793 1.429 . S
C809 C805 1.429 . S
C809 C810 1.523 . S
C810 C794 1.368 . S
C810 C806 1.368 . S
C810 C809 1.523 . S
H811 C786 0.950 . S
H812 C788 0.950 . S
H813 C789 0.949 . S
H814 C791 0.950 . S
H815 C793 0.950 . S
C816 C817 1.349 . S
C816 C818 1.327 . S
C816 H841 0.950 . S
C817 C816 1.349 . S
C817 C833 1.349 . S
C818 C816 1.327 . S
C818 C837 1.429 . S
C818 H842 0.950 . S
C819 C836 1.574 . S
C819 C838 1.368 . S
C819 H843 0.949 . S
H820 C824 0.949 . S
C821 C822 1.349 . S
C821 C823 1.327 . S
C821 H844 0.950 . S
C822 C821 1.349 . S
C822 C834 1.349 . S
C823 C821 1.327 . S
C823 C839 1.429 . S
C823 H845 0.950 . S
C824 H820 0.949 . S
C824 C832 1.574 . S
C824 C840 1.368 . S
H825 C833 0.950 . S
H826 C831 0.950 . S
H827 C832 0.949 . S
H828 C834 0.950 . S
H829 C835 0.950 . S
H830 C836 0.949 . S
C831 H826 0.950 . S
C831 C833 1.327 . S
C831 C837 1.429 . S
C832 C824 1.574 . S
C832 H827 0.949 . S
C832 C838 1.368 . S
C833 C817 1.349 . S
C833 H825 0.950 . S
C833 C831 1.327 . S
C834 C822 1.349 . S
C834 H828 0.950 . S
C834 C835 1.327 . S
C835 H829 0.950 . S
C835 C834 1.327 . S
C835 C839 1.429 . S
C836 C819 1.574 . S
C836 H830 0.949 . S
C836 C840 1.368 . S
C837 C818 1.429 . S
C837 C831 1.429 . S
C837 C838 1.523 . S
C838 C819 1.368 . S
C838 C832 1.368 . S
C838 C837 1.523 . S
C839 C823 1.429 . S
C839 C835 1.429 . S
C839 C840 1.523 . S
C840 C824 1.368 . S
C840 C836 1.368 . S
C840 C839 1.523 . S
H841 C816 0.950 . S
H842 C818 0.950 . S
H843 C819 0.949 . S
H844 C821 0.950 . S
H845 C823 0.950 . S
C846 C847 1.349 . S
C846 C848 1.327 . S
C846 H871 0.950 . S
C847 C846 1.349 . S
C847 C863 1.349 . S
C848 C846 1.327 . S
C848 C867 1.429 . S
C848 H872 0.950 . S
C849 C866 1.574 . S
C849 C868 1.368 . S
C849 H873 0.949 . S
H850 C854 0.949 . S
C851 C852 1.349 . S
C851 C853 1.327 . S
C851 H874 0.950 . S
C852 C851 1.349 . S
C852 C864 1.349 . S
C853 C851 1.327 . S
C853 C869 1.429 . S
C853 H875 0.950 . S
C854 H850 0.949 . S
C854 C862 1.574 . S
C854 C870 1.368 . S
H855 C863 0.950 . S
H856 C861 0.950 . S
H857 C862 0.949 . S
H858 C864 0.950 . S
H859 C865 0.950 . S
H860 C866 0.949 . S
C861 H856 0.950 . S
C861 C863 1.327 . S
C861 C867 1.429 . S
C862 C854 1.574 . S
C862 H857 0.949 . S
C862 C868 1.368 . S
C863 C847 1.349 . S
C863 H855 0.950 . S
C863 C861 1.327 . S
C864 C852 1.349 . S
C864 H858 0.950 . S
C864 C865 1.327 . S
C865 H859 0.950 . S
C865 C864 1.327 . S
C865 C869 1.429 . S
C866 C849 1.574 . S
C866 H860 0.949 . S
C866 C870 1.368 . S
C867 C848 1.429 . S
C867 C861 1.429 . S
C867 C868 1.523 . S
C868 C849 1.368 . S
C868 C862 1.368 . S
C868 C867 1.523 . S
C869 C853 1.429 . S
C869 C865 1.429 . S
C869 C870 1.523 . S
C870 C854 1.368 . S
C870 C866 1.368 . S
C870 C869 1.523 . S
H871 C846 0.950 . S
H872 C848 0.950 . S
H873 C849 0.949 . S
H874 C851 0.950 . S
H875 C853 0.950 . S
C876 C877 1.349 . S
C876 C878 1.327 . S
C876 H901 0.950 . S
C877 C876 1.349 . S
C877 C893 1.349 . S
C878 C876 1.327 . S
C878 C897 1.429 . S
C878 H902 0.950 . S
C879 C896 1.574 . S
C879 C898 1.368 . S
C879 H903 0.949 . S
H880 C884 0.949 . S
C881 C882 1.349 . S
C881 C883 1.327 . S
C881 H904 0.950 . S
C882 C881 1.349 . S
C882 C894 1.349 . S
C883 C881 1.327 . S
C883 C899 1.429 . S
C883 H905 0.950 . S
C884 H880 0.949 . S
C884 C892 1.574 . S
C884 C900 1.368 . S
H885 C893 0.950 . S
H886 C891 0.950 . S
H887 C892 0.949 . S
H888 C894 0.950 . S
H889 C895 0.950 . S
H890 C896 0.949 . S
C891 H886 0.950 . S
C891 C893 1.327 . S
C891 C897 1.429 . S
C892 C884 1.574 . S
C892 H887 0.949 . S
C892 C898 1.368 . S
C893 C877 1.349 . S
C893 H885 0.950 . S
C893 C891 1.327 . S
C894 C882 1.349 . S
C894 H888 0.950 . S
C894 C895 1.327 . S
C895 H889 0.950 . S
C895 C894 1.327 . S
C895 C899 1.429 . S
C896 C879 1.574 . S
C896 H890 0.949 . S
C896 C900 1.368 . S
C897 C878 1.429 . S
C897 C891 1.429 . S
C897 C898 1.523 . S
C898 C879 1.368 . S
C898 C892 1.368 . S
C898 C897 1.523 . S
C899 C883 1.429 . S
C899 C895 1.429 . S
C899 C900 1.523 . S
C900 C884 1.368 . S
C900 C896 1.368 . S
C900 C899 1.523 . S
H901 C876 0.950 . S
H902 C878 0.950 . S
H903 C879 0.949 . S
H904 C881 0.950 . S
H905 C883 0.950 . S
C906 C907 1.349 . S
C906 C908 1.327 . S
C906 H931 0.950 . S
C907 C906 1.349 . S
C907 C923 1.349 . S
C908 C906 1.327 . S
C908 C927 1.429 . S
C908 H932 0.950 . S
C909 C926 1.574 . S
C909 C928 1.368 . S
C909 H933 0.949 . S
H910 C914 0.949 . S
C911 C912 1.349 . S
C911 C913 1.327 . S
C911 H934 0.950 . S
C912 C911 1.349 . S
C912 C924 1.349 . S
C913 C911 1.327 . S
C913 C929 1.429 . S
C913 H935 0.950 . S
C914 H910 0.949 . S
C914 C922 1.574 . S
C914 C930 1.368 . S
H915 C923 0.950 . S
H916 C921 0.950 . S
H917 C922 0.949 . S
H918 C924 0.950 . S
H919 C925 0.950 . S
H920 C926 0.949 . S
C921 H916 0.950 . S
C921 C923 1.327 . S
C921 C927 1.429 . S
C922 C914 1.574 . S
C922 H917 0.949 . S
C922 C928 1.368 . S
C923 C907 1.349 . S
C923 H915 0.950 . S
C923 C921 1.327 . S
C924 C912 1.349 . S
C924 H918 0.950 . S
C924 C925 1.327 . S
C925 H919 0.950 . S
C925 C924 1.327 . S
C925 C929 1.429 . S
C926 C909 1.574 . S
C926 H920 0.949 . S
C926 C930 1.368 . S
C927 C908 1.429 . S
C927 C921 1.429 . S
C927 C928 1.523 . S
C928 C909 1.368 . S
C928 C922 1.368 . S
C928 C927 1.523 . S
C929 C913 1.429 . S
C929 C925 1.429 . S
C929 C930 1.523 . S
C930 C914 1.368 . S
C930 C926 1.368 . S
C930 C929 1.523 . S
H931 C906 0.950 . S
H932 C908 0.950 . S
H933 C909 0.949 . S
H934 C911 0.950 . S
H935 C913 0.950 . S
C936 C937 1.349 . S
C936 C938 1.327 . S
C936 H961 0.950 . S
C937 C936 1.349 . S
C937 C953 1.349 . S
C938 C936 1.327 . S
C938 C957 1.429 . S
C938 H962 0.950 . S
C939 C956 1.574 . S
C939 C958 1.368 . S
C939 H963 0.949 . S
H940 C944 0.949 . S
C941 C942 1.349 . S
C941 C943 1.327 . S
C941 H964 0.950 . S
C942 C941 1.349 . S
C942 C954 1.349 . S
C943 C941 1.327 . S
C943 C959 1.429 . S
C943 H965 0.950 . S
C944 H940 0.949 . S
C944 C952 1.574 . S
C944 C960 1.368 . S
H945 C953 0.950 . S
H946 C951 0.950 . S
H947 C952 0.949 . S
H948 C954 0.950 . S
H949 C955 0.950 . S
H950 C956 0.949 . S
C951 H946 0.950 . S
C951 C953 1.327 . S
C951 C957 1.429 . S
C952 C944 1.574 . S
C952 H947 0.949 . S
C952 C958 1.368 . S
C953 C937 1.349 . S
C953 H945 0.950 . S
C953 C951 1.327 . S
C954 C942 1.349 . S
C954 H948 0.950 . S
C954 C955 1.327 . S
C955 H949 0.950 . S
C955 C954 1.327 . S
C955 C959 1.429 . S
C956 C939 1.574 . S
C956 H950 0.949 . S
C956 C960 1.368 . S
C957 C938 1.429 . S
C957 C951 1.429 . S
C957 C958 1.523 . S
C958 C939 1.368 . S
C958 C952 1.368 . S
C958 C957 1.523 . S
C959 C943 1.429 . S
C959 C955 1.429 . S
C959 C960 1.523 . S
C960 C944 1.368 . S
C960 C956 1.368 . S
C960 C959 1.523 . S
H961 C936 0.950 . S
H962 C938 0.950 . S
H963 C939 0.949 . S
H964 C941 0.950 . S
H965 C943 0.950 . S
C966 C967 1.349 . S
C966 C968 1.327 . S
C966 H991 0.950 . S
C967 C966 1.349 . S
C967 C983 1.349 . S
C968 C966 1.327 . S
C968 C987 1.429 . S
C968 H992 0.950 . S
C969 C986 1.574 . S
C969 C988 1.368 . S
C969 H993 0.949 . S
H970 C974 0.949 . S
C971 C972 1.349 . S
C971 C973 1.327 . S
C971 H994 0.950 . S
C972 C971 1.349 . S
C972 C984 1.349 . S
C973 C971 1.327 . S
C973 C989 1.429 . S
C973 H995 0.950 . S
C974 H970 0.949 . S
C974 C982 1.574 . S
C974 C990 1.368 . S
H975 C983 0.950 . S
H976 C981 0.950 . S
H977 C982 0.949 . S
H978 C984 0.950 . S
H979 C985 0.950 . S
H980 C986 0.949 . S
C981 H976 0.950 . S
C981 C983 1.327 . S
C981 C987 1.429 . S
C982 C974 1.574 . S
C982 H977 0.949 . S
C982 C988 1.368 . S
C983 C967 1.349 . S
C983 H975 0.950 . S
C983 C981 1.327 . S
C984 C972 1.349 . S
C984 H978 0.950 . S
C984 C985 1.327 . S
C985 H979 0.950 . S
C985 C984 1.327 . S
C985 C989 1.429 . S
C986 C969 1.574 . S
C986 H980 0.949 . S
C986 C990 1.368 . S
C987 C968 1.429 . S
C987 C981 1.429 . S
C987 C988 1.523 . S
C988 C969 1.368 . S
C988 C982 1.368 . S
C988 C987 1.523 . S
C989 C973 1.429 . S
C989 C985 1.429 . S
C989 C990 1.523 . S
C990 C974 1.368 . S
C990 C986 1.368 . S
C990 C989 1.523 . S
H991 C966 0.950 . S
H992 C968 0.950 . S
H993 C969 0.949 . S
H994 C971 0.950 . S
H995 C973 0.950 . S
C996 C997 1.349 . S
C996 C998 1.327 . S
C996 H1021 0.950 . S
C997 C996 1.349 . S
C997 C1013 1.349 . S
C998 C996 1.327 . S
C998 C1017 1.429 . S
C998 H1022 0.950 . S
C999 C1016 1.574 . S
C999 C1018 1.368 . S
C999 H1023 0.949 . S
H1000 C1004 0.949 . S
C1001 C1002 1.349 . S
C1001 C1003 1.327 . S
C1001 H1024 0.950 . S
C1002 C1001 1.349 . S
C1002 C1014 1.349 . S
C1003 C1001 1.327 . S
C1003 C1019 1.429 . S
C1003 H1025 0.950 . S
C1004 H1000 0.949 . S
C1004 C1012 1.574 . S
C1004 C1020 1.368 . S
H1005 C1013 0.950 . S
H1006 C1011 0.950 . S
H1007 C1012 0.949 . S
H1008 C1014 0.950 . S
H1009 C1015 0.950 . S
H1010 C1016 0.949 . S
C1011 H1006 0.950 . S
C1011 C1013 1.327 . S
C1011 C1017 1.429 . S
C1012 C1004 1.574 . S
C1012 H1007 0.949 . S
C1012 C1018 1.368 . S
C1013 C997 1.349 . S
C1013 H1005 0.950 . S
C1013 C1011 1.327 . S
C1014 C1002 1.349 . S
C1014 H1008 0.950 . S
C1014 C1015 1.327 . S
C1015 H1009 0.950 . S
C1015 C1014 1.327 . S
C1015 C1019 1.429 . S
C1016 C999 1.574 . S
C1016 H1010 0.949 . S
C1016 C1020 1.368 . S
C1017 C998 1.429 . S
C1017 C1011 1.429 . S
C1017 C1018 1.523 . S
C1018 C999 1.368 . S
C1018 C1012 1.368 . S
C1018 C1017 1.523 . S
C1019 C1003 1.429 . S
C1019 C1015 1.429 . S
C1019 C1020 1.523 . S
C1020 C1004 1.368 . S
C1020 C1016 1.368 . S
C1020 C1019 1.523 . S
H1021 C996 0.950 . S
H1022 C998 0.950 . S
H1023 C999 0.949 . S
H1024 C1001 0.950 . S
H1025 C1003 0.950 . S
C1026 C1027 1.349 . S
C1026 C1028 1.327 . S
C1026 H1051 0.950 . S
C1027 C1026 1.349 . S
C1027 C1043 1.349 . S
C1028 C1026 1.327 . S
C1028 C1047 1.429 . S
C1028 H1052 0.950 . S
C1029 C1046 1.574 . S
C1029 C1048 1.368 . S
C1029 H1053 0.949 . S
H1030 C1034 0.949 . S
C1031 C1032 1.349 . S
C1031 C1033 1.327 . S
C1031 H1054 0.950 . S
C1032 C1031 1.349 . S
C1032 C1044 1.349 . S
C1033 C1031 1.327 . S
C1033 C1049 1.429 . S
C1033 H1055 0.950 . S
C1034 H1030 0.949 . S
C1034 C1042 1.574 . S
C1034 C1050 1.368 . S
H1035 C1043 0.950 . S
H1036 C1041 0.950 . S
H1037 C1042 0.949 . S
H1038 C1044 0.950 . S
H1039 C1045 0.950 . S
H1040 C1046 0.949 . S
C1041 H1036 0.950 . S
C1041 C1043 1.327 . S
C1041 C1047 1.429 . S
C1042 C1034 1.574 . S
C1042 H1037 0.949 . S
C1042 C1048 1.368 . S
C1043 C1027 1.349 . S
C1043 H1035 0.950 . S
C1043 C1041 1.327 . S
C1044 C1032 1.349 . S
C1044 H1038 0.950 . S
C1044 C1045 1.327 . S
C1045 H1039 0.950 . S
C1045 C1044 1.327 . S
C1045 C1049 1.429 . S
C1046 C1029 1.574 . S
C1046 H1040 0.949 . S
C1046 C1050 1.368 . S
C1047 C1028 1.429 . S
C1047 C1041 1.429 . S
C1047 C1048 1.523 . S
C1048 C1029 1.368 . S
C1048 C1042 1.368 . S
C1048 C1047 1.523 . S
C1049 C1033 1.429 . S
C1049 C1045 1.429 . S
C1049 C1050 1.523 . S
C1050 C1034 1.368 . S
C1050 C1046 1.368 . S
C1050 C1049 1.523 . S
H1051 C1026 0.950 . S
H1052 C1028 0.950 . S
H1053 C1029 0.949 . S
H1054 C1031 0.950 . S
H1055 C1033 0.950 . S
C1056 C1057 1.349 . S
C1056 C1058 1.327 . S
C1056 H1081 0.950 . S
C1057 C1056 1.349 . S
C1057 C1073 1.349 . S
C1058 C1056 1.327 . S
C1058 C1077 1.429 . S
C1058 H1082 0.950 . S
C1059 C1076 1.574 . S
C1059 C1078 1.368 . S
C1059 H1083 0.949 . S
H1060 C1064 0.949 . S
C1061 C1062 1.349 . S
C1061 C1063 1.327 . S
C1061 H1084 0.950 . S
C1062 C1061 1.349 . S
C1062 C1074 1.349 . S
C1063 C1061 1.327 . S
C1063 C1079 1.429 . S
C1063 H1085 0.950 . S
C1064 H1060 0.949 . S
C1064 C1072 1.574 . S
C1064 C1080 1.368 . S
H1065 C1073 0.950 . S
H1066 C1071 0.950 . S
H1067 C1072 0.949 . S
H1068 C1074 0.950 . S
H1069 C1075 0.950 . S
H1070 C1076 0.949 . S
C1071 H1066 0.950 . S
C1071 C1073 1.327 . S
C1071 C1077 1.429 . S
C1072 C1064 1.574 . S
C1072 H1067 0.949 . S
C1072 C1078 1.368 . S
C1073 C1057 1.349 . S
C1073 H1065 0.950 . S
C1073 C1071 1.327 . S
C1074 C1062 1.349 . S
C1074 H1068 0.950 . S
C1074 C1075 1.327 . S
C1075 H1069 0.950 . S
C1075 C1074 1.327 . S
C1075 C1079 1.429 . S
C1076 C1059 1.574 . S
C1076 H1070 0.949 . S
C1076 C1080 1.368 . S
C1077 C1058 1.429 . S
C1077 C1071 1.429 . S
C1077 C1078 1.523 . S
C1078 C1059 1.368 . S
C1078 C1072 1.368 . S
C1078 C1077 1.523 . S
C1079 C1063 1.429 . S
C1079 C1075 1.429 . S
C1079 C1080 1.523 . S
C1080 C1064 1.368 . S
C1080 C1076 1.368 . S
C1080 C1079 1.523 . S
H1081 C1056 0.950 . S
H1082 C1058 0.950 . S
H1083 C1059 0.949 . S
H1084 C1061 0.950 . S
H1085 C1063 0.950 . S
C1086 C1087 1.349 . S
C1086 C1088 1.327 . S
C1086 H1111 0.950 . S
C1087 C1086 1.349 . S
C1087 C1103 1.349 . S
C1088 C1086 1.327 . S
C1088 C1107 1.429 . S
C1088 H1112 0.950 . S
C1089 C1106 1.574 . S
C1089 C1108 1.368 . S
C1089 H1113 0.949 . S
H1090 C1094 0.949 . S
C1091 C1092 1.349 . S
C1091 C1093 1.327 . S
C1091 H1114 0.950 . S
C1092 C1091 1.349 . S
C1092 C1104 1.349 . S
C1093 C1091 1.327 . S
C1093 C1109 1.429 . S
C1093 H1115 0.950 . S
C1094 H1090 0.949 . S
C1094 C1102 1.574 . S
C1094 C1110 1.368 . S
H1095 C1103 0.950 . S
H1096 C1101 0.950 . S
H1097 C1102 0.949 . S
H1098 C1104 0.950 . S
H1099 C1105 0.950 . S
H1100 C1106 0.949 . S
C1101 H1096 0.950 . S
C1101 C1103 1.327 . S
C1101 C1107 1.429 . S
C1102 C1094 1.574 . S
C1102 H1097 0.949 . S
C1102 C1108 1.368 . S
C1103 C1087 1.349 . S
C1103 H1095 0.950 . S
C1103 C1101 1.327 . S
C1104 C1092 1.349 . S
C1104 H1098 0.950 . S
C1104 C1105 1.327 . S
C1105 H1099 0.950 . S
C1105 C1104 1.327 . S
C1105 C1109 1.429 . S
C1106 C1089 1.574 . S
C1106 H1100 0.949 . S
C1106 C1110 1.368 . S
C1107 C1088 1.429 . S
C1107 C1101 1.429 . S
C1107 C1108 1.523 . S
C1108 C1089 1.368 . S
C1108 C1102 1.368 . S
C1108 C1107 1.523 . S
C1109 C1093 1.429 . S
C1109 C1105 1.429 . S
C1109 C1110 1.523 . S
C1110 C1094 1.368 . S
C1110 C1106 1.368 . S
C1110 C1109 1.523 . S
H1111 C1086 0.950 . S
H1112 C1088 0.950 . S
H1113 C1089 0.949 . S
H1114 C1091 0.950 . S
H1115 C1093 0.950 . S
C1116 C1117 1.349 . S
C1116 C1118 1.327 . S
C1116 H1141 0.950 . S
C1117 C1116 1.349 . S
C1117 C1133 1.349 . S
C1118 C1116 1.327 . S
C1118 C1137 1.429 . S
C1118 H1142 0.950 . S
C1119 C1136 1.574 . S
C1119 C1138 1.368 . S
C1119 H1143 0.949 . S
H1120 C1124 0.949 . S
C1121 C1122 1.349 . S
C1121 C1123 1.327 . S
C1121 H1144 0.950 . S
C1122 C1121 1.349 . S
C1122 C1134 1.349 . S
C1123 C1121 1.327 . S
C1123 C1139 1.429 . S
C1123 H1145 0.950 . S
C1124 H1120 0.949 . S
C1124 C1132 1.574 . S
C1124 C1140 1.368 . S
H1125 C1133 0.950 . S
H1126 C1131 0.950 . S
H1127 C1132 0.949 . S
H1128 C1134 0.950 . S
H1129 C1135 0.950 . S
H1130 C1136 0.949 . S
C1131 H1126 0.950 . S
C1131 C1133 1.327 . S
C1131 C1137 1.429 . S
C1132 C1124 1.574 . S
C1132 H1127 0.949 . S
C1132 C1138 1.368 . S
C1133 C1117 1.349 . S
C1133 H1125 0.950 . S
C1133 C1131 1.327 . S
C1134 C1122 1.349 . S
C1134 H1128 0.950 . S
C1134 C1135 1.327 . S
C1135 H1129 0.950 . S
C1135 C1134 1.327 . S
C1135 C1139 1.429 . S
C1136 C1119 1.574 . S
C1136 H1130 0.949 . S
C1136 C1140 1.368 . S
C1137 C1118 1.429 . S
C1137 C1131 1.429 . S
C1137 C1138 1.523 . S
C1138 C1119 1.368 . S
C1138 C1132 1.368 . S
C1138 C1137 1.523 . S
C1139 C1123 1.429 . S
C1139 C1135 1.429 . S
C1139 C1140 1.523 . S
C1140 C1124 1.368 . S
C1140 C1136 1.368 . S
C1140 C1139 1.523 . S
H1141 C1116 0.950 . S
H1142 C1118 0.950 . S
H1143 C1119 0.949 . S
H1144 C1121 0.950 . S
H1145 C1123 0.950 . S
C1146 C1147 1.349 . S
C1146 C1148 1.327 . S
C1146 H1171 0.950 . S
C1147 C1146 1.349 . S
C1147 C1163 1.349 . S
C1148 C1146 1.327 . S
C1148 C1167 1.429 . S
C1148 H1172 0.950 . S
C1149 C1166 1.574 . S
C1149 C1168 1.368 . S
C1149 H1173 0.949 . S
H1150 C1154 0.949 . S
C1151 C1152 1.349 . S
C1151 C1153 1.327 . S
C1151 H1174 0.950 . S
C1152 C1151 1.349 . S
C1152 C1164 1.349 . S
C1153 C1151 1.327 . S
C1153 C1169 1.429 . S
C1153 H1175 0.950 . S
C1154 H1150 0.949 . S
C1154 C1162 1.574 . S
C1154 C1170 1.368 . S
H1155 C1163 0.950 . S
H1156 C1161 0.950 . S
H1157 C1162 0.949 . S
H1158 C1164 0.950 . S
H1159 C1165 0.950 . S
H1160 C1166 0.949 . S
C1161 H1156 0.950 . S
C1161 C1163 1.327 . S
C1161 C1167 1.429 . S
C1162 C1154 1.574 . S
C1162 H1157 0.949 . S
C1162 C1168 1.368 . S
C1163 C1147 1.349 . S
C1163 H1155 0.950 . S
C1163 C1161 1.327 . S
C1164 C1152 1.349 . S
C1164 H1158 0.950 . S
C1164 C1165 1.327 . S
C1165 H1159 0.950 . S
C1165 C1164 1.327 . S
C1165 C1169 1.429 . S
C1166 C1149 1.574 . S
C1166 H1160 0.949 . S
C1166 C1170 1.368 . S
C1167 C1148 1.429 . S
C1167 C1161 1.429 . S
C1167 C1168 1.523 . S
C1168 C1149 1.368 . S
C1168 C1162 1.368 . S
C1168 C1167 1.523 . S
C1169 C1153 1.429 . S
C1169 C1165 1.429 . S
C1169 C1170 1.523 . S
C1170 C1154 1.368 . S
C1170 C1166 1.368 . S
C1170 C1169 1.523 . S
H1171 C1146 0.950 . S
H1172 C1148 0.950 . S
H1173 C1149 0.949 . S
H1174 C1151 0.950 . S
H1175 C1153 0.950 . S
C1176 C1177 1.349 . S
C1176 C1178 1.327 . S
C1176 H1201 0.950 . S
C1177 C1176 1.349 . S
C1177 C1193 1.349 . S
C1178 C1176 1.327 . S
C1178 C1197 1.429 . S
C1178 H1202 0.950 . S
C1179 C1196 1.574 . S
C1179 C1198 1.368 . S
C1179 H1203 0.949 . S
H1180 C1184 0.949 . S
C1181 C1182 1.349 . S
C1181 C1183 1.327 . S
C1181 H1204 0.950 . S
C1182 C1181 1.349 . S
C1182 C1194 1.349 . S
C1183 C1181 1.327 . S
C1183 C1199 1.429 . S
C1183 H1205 0.950 . S
C1184 H1180 0.949 . S
C1184 C1192 1.574 . S
C1184 C1200 1.368 . S
H1185 C1193 0.950 . S
H1186 C1191 0.950 . S
H1187 C1192 0.949 . S
H1188 C1194 0.950 . S
H1189 C1195 0.950 . S
H1190 C1196 0.949 . S
C1191 H1186 0.950 . S
C1191 C1193 1.327 . S
C1191 C1197 1.429 . S
C1192 C1184 1.574 . S
C1192 H1187 0.949 . S
C1192 C1198 1.368 . S
C1193 C1177 1.349 . S
C1193 H1185 0.950 . S
C1193 C1191 1.327 . S
C1194 C1182 1.349 . S
C1194 H1188 0.950 . S
C1194 C1195 1.327 . S
C1195 H1189 0.950 . S
C1195 C1194 1.327 . S
C1195 C1199 1.429 . S
C1196 C1179 1.574 . S
C1196 H1190 0.949 . S
C1196 C1200 1.368 . S
C1197 C1178 1.429 . S
C1197 C1191 1.429 . S
C1197 C1198 1.523 . S
C1198 C1179 1.368 . S
C1198 C1192 1.368 . S
C1198 C1197 1.523 . S
C1199 C1183 1.429 . S
C1199 C1195 1.429 . S
C1199 C1200 1.523 . S
C1200 C1184 1.368 . S
C1200 C1196 1.368 . S
C1200 C1199 1.523 . S
H1201 C1176 0.950 . S
H1202 C1178 0.950 . S
H1203 C1179 0.949 . S
H1204 C1181 0.950 . S
H1205 C1183 0.950 . S
C1206 C1207 1.349 . S
C1206 C1208 1.327 . S
C1206 H1231 0.950 . S
C1207 C1206 1.349 . S
C1207 C1223 1.349 . S
C1208 C1206 1.327 . S
C1208 C1227 1.429 . S
C1208 H1232 0.950 . S
C1209 C1226 1.574 . S
C1209 C1228 1.368 . S
C1209 H1233 0.949 . S
H1210 C1214 0.949 . S
C1211 C1212 1.349 . S
C1211 C1213 1.327 . S
C1211 H1234 0.950 . S
C1212 C1211 1.349 . S
C1212 C1224 1.349 . S
C1213 C1211 1.327 . S
C1213 C1229 1.429 . S
C1213 H1235 0.950 . S
C1214 H1210 0.949 . S
C1214 C1222 1.574 . S
C1214 C1230 1.368 . S
H1215 C1223 0.950 . S
H1216 C1221 0.950 . S
H1217 C1222 0.949 . S
H1218 C1224 0.950 . S
H1219 C1225 0.950 . S
H1220 C1226 0.949 . S
C1221 H1216 0.950 . S
C1221 C1223 1.327 . S
C1221 C1227 1.429 . S
C1222 C1214 1.574 . S
C1222 H1217 0.949 . S
C1222 C1228 1.368 . S
C1223 C1207 1.349 . S
C1223 H1215 0.950 . S
C1223 C1221 1.327 . S
C1224 C1212 1.349 . S
C1224 H1218 0.950 . S
C1224 C1225 1.327 . S
C1225 H1219 0.950 . S
C1225 C1224 1.327 . S
C1225 C1229 1.429 . S
C1226 C1209 1.574 . S
C1226 H1220 0.949 . S
C1226 C1230 1.368 . S
C1227 C1208 1.429 . S
C1227 C1221 1.429 . S
C1227 C1228 1.523 . S
C1228 C1209 1.368 . S
C1228 C1222 1.368 . S
C1228 C1227 1.523 . S
C1229 C1213 1.429 . S
C1229 C1225 1.429 . S
C1229 C1230 1.523 . S
C1230 C1214 1.368 . S
C1230 C1226 1.368 . S
C1230 C1229 1.523 . S
H1231 C1206 0.950 . S
H1232 C1208 0.950 . S
H1233 C1209 0.949 . S
H1234 C1211 0.950 . S
H1235 C1213 0.950 . S
C1236 C1237 1.349 . S
C1236 C1238 1.327 . S
C1236 H1261 0.950 . S
C1237 C1236 1.349 . S
C1237 C1253 1.349 . S
C1238 C1236 1.327 . S
C1238 C1257 1.429 . S
C1238 H1262 0.950 . S
C1239 C1256 1.574 . S
C1239 C1258 1.368 . S
C1239 H1263 0.949 . S
H1240 C1244 0.949 . S
C1241 C1242 1.349 . S
C1241 C1243 1.327 . S
C1241 H1264 0.950 . S
C1242 C1241 1.349 . S
C1242 C1254 1.349 . S
C1243 C1241 1.327 . S
C1243 C1259 1.429 . S
C1243 H1265 0.950 . S
C1244 H1240 0.949 . S
C1244 C1252 1.574 . S
C1244 C1260 1.368 . S
H1245 C1253 0.950 . S
H1246 C1251 0.950 . S
H1247 C1252 0.949 . S
H1248 C1254 0.950 . S
H1249 C1255 0.950 . S
H1250 C1256 0.949 . S
C1251 H1246 0.950 . S
C1251 C1253 1.327 . S
C1251 C1257 1.429 . S
C1252 C1244 1.574 . S
C1252 H1247 0.949 . S
C1252 C1258 1.368 . S
C1253 C1237 1.349 . S
C1253 H1245 0.950 . S
C1253 C1251 1.327 . S
C1254 C1242 1.349 . S
C1254 H1248 0.950 . S
C1254 C1255 1.327 . S
C1255 H1249 0.950 . S
C1255 C1254 1.327 . S
C1255 C1259 1.429 . S
C1256 C1239 1.574 . S
C1256 H1250 0.949 . S
C1256 C1260 1.368 . S
C1257 C1238 1.429 . S
C1257 C1251 1.429 . S
C1257 C1258 1.523 . S
C1258 C1239 1.368 . S
C1258 C1252 1.368 . S
C1258 C1257 1.523 . S
C1259 C1243 1.429 . S
C1259 C1255 1.429 . S
C1259 C1260 1.523 . S
C1260 C1244 1.368 . S
C1260 C1256 1.368 . S
C1260 C1259 1.523 . S
H1261 C1236 0.950 . S
H1262 C1238 0.950 . S
H1263 C1239 0.949 . S
H1264 C1241 0.950 . S
H1265 C1243 0.950 . S
C1266 C1267 1.349 . S
C1266 C1268 1.327 . S
C1266 H1291 0.950 . S
C1267 C1266 1.349 . S
C1267 C1283 1.349 . S
C1268 C1266 1.327 . S
C1268 C1287 1.429 . S
C1268 H1292 0.950 . S
C1269 C1286 1.574 . S
C1269 C1288 1.368 . S
C1269 H1293 0.949 . S
H1270 C1274 0.949 . S
C1271 C1272 1.349 . S
C1271 C1273 1.327 . S
C1271 H1294 0.950 . S
C1272 C1271 1.349 . S
C1272 C1284 1.349 . S
C1273 C1271 1.327 . S
C1273 C1289 1.429 . S
C1273 H1295 0.950 . S
C1274 H1270 0.949 . S
C1274 C1282 1.574 . S
C1274 C1290 1.368 . S
H1275 C1283 0.950 . S
H1276 C1281 0.950 . S
H1277 C1282 0.949 . S
H1278 C1284 0.950 . S
H1279 C1285 0.950 . S
H1280 C1286 0.949 . S
C1281 H1276 0.950 . S
C1281 C1283 1.327 . S
C1281 C1287 1.429 . S
C1282 C1274 1.574 . S
C1282 H1277 0.949 . S
C1282 C1288 1.368 . S
C1283 C1267 1.349 . S
C1283 H1275 0.950 . S
C1283 C1281 1.327 . S
C1284 C1272 1.349 . S
C1284 H1278 0.950 . S
C1284 C1285 1.327 . S
C1285 H1279 0.950 . S
C1285 C1284 1.327 . S
C1285 C1289 1.429 . S
C1286 C1269 1.574 . S
C1286 H1280 0.949 . S
C1286 C1290 1.368 . S
C1287 C1268 1.429 . S
C1287 C1281 1.429 . S
C1287 C1288 1.523 . S
C1288 C1269 1.368 . S
C1288 C1282 1.368 . S
C1288 C1287 1.523 . S
C1289 C1273 1.429 . S
C1289 C1285 1.429 . S
C1289 C1290 1.523 . S
C1290 C1274 1.368 . S
C1290 C1286 1.368 . S
C1290 C1289 1.523 . S
H1291 C1266 0.950 . S
H1292 C1268 0.950 . S
H1293 C1269 0.949 . S
H1294 C1271 0.950 . S
H1295 C1273 0.950 . S
C1296 C1297 1.349 . S
C1296 C1298 1.327 . S
C1296 H1321 0.950 . S
C1297 C1296 1.349 . S
C1297 C1313 1.349 . S
C1298 C1296 1.327 . S
C1298 C1317 1.429 . S
C1298 H1322 0.950 . S
C1299 C1316 1.574 . S
C1299 C1318 1.368 . S
C1299 H1323 0.949 . S
H1300 C1304 0.949 . S
C1301 C1302 1.349 . S
C1301 C1303 1.327 . S
C1301 H1324 0.950 . S
C1302 C1301 1.349 . S
C1302 C1314 1.349 . S
C1303 C1301 1.327 . S
C1303 C1319 1.429 . S
C1303 H1325 0.950 . S
C1304 H1300 0.949 . S
C1304 C1312 1.574 . S
C1304 C1320 1.368 . S
H1305 C1313 0.950 . S
H1306 C1311 0.950 . S
H1307 C1312 0.949 . S
H1308 C1314 0.950 . S
H1309 C1315 0.950 . S
H1310 C1316 0.949 . S
C1311 H1306 0.950 . S
C1311 C1313 1.327 . S
C1311 C1317 1.429 . S
C1312 C1304 1.574 . S
C1312 H1307 0.949 . S
C1312 C1318 1.368 . S
C1313 C1297 1.349 . S
C1313 H1305 0.950 . S
C1313 C1311 1.327 . S
C1314 C1302 1.349 . S
C1314 H1308 0.950 . S
C1314 C1315 1.327 . S
C1315 H1309 0.950 . S
C1315 C1314 1.327 . S
C1315 C1319 1.429 . S
C1316 C1299 1.574 . S
C1316 H1310 0.949 . S
C1316 C1320 1.368 . S
C1317 C1298 1.429 . S
C1317 C1311 1.429 . S
C1317 C1318 1.523 . S
C1318 C1299 1.368 . S
C1318 C1312 1.368 . S
C1318 C1317 1.523 . S
C1319 C1303 1.429 . S
C1319 C1315 1.429 . S
C1319 C1320 1.523 . S
C1320 C1304 1.368 . S
C1320 C1316 1.368 . S
C1320 C1319 1.523 . S
H1321 C1296 0.950 . S
H1322 C1298 0.950 . S
H1323 C1299 0.949 . S
H1324 C1301 0.950 . S
H1325 C1303 0.950 . S
C1326 C1327 1.349 . S
C1326 C1328 1.327 . S
C1326 H1351 0.950 . S
C1327 C1326 1.349 . S
C1327 C1343 1.349 . S
C1328 C1326 1.327 . S
C1328 C1347 1.429 . S
C1328 H1352 0.950 . S
C1329 C1346 1.574 . S
C1329 C1348 1.368 . S
C1329 H1353 0.949 . S
H1330 C1334 0.949 . S
C1331 C1332 1.349 . S
C1331 C1333 1.327 . S
C1331 H1354 0.950 . S
C1332 C1331 1.349 . S
C1332 C1344 1.349 . S
C1333 C1331 1.327 . S
C1333 C1349 1.429 . S
C1333 H1355 0.950 . S
C1334 H1330 0.949 . S
C1334 C1342 1.574 . S
C1334 C1350 1.368 . S
H1335 C1343 0.950 . S
H1336 C1341 0.950 . S
H1337 C1342 0.949 . S
H1338 C1344 0.950 . S
H1339 C1345 0.950 . S
H1340 C1346 0.949 . S
C1341 H1336 0.950 . S
C1341 C1343 1.327 . S
C1341 C1347 1.429 . S
C1342 C1334 1.574 . S
C1342 H1337 0.949 . S
C1342 C1348 1.368 . S
C1343 C1327 1.349 . S
C1343 H1335 0.950 . S
C1343 C1341 1.327 . S
C1344 C1332 1.349 . S
C1344 H1338 0.950 . S
C1344 C1345 1.327 . S
C1345 H1339 0.950 . S
C1345 C1344 1.327 . S
C1345 C1349 1.429 . S
C1346 C1329 1.574 . S
C1346 H1340 0.949 . S
C1346 C1350 1.368 . S
C1347 C1328 1.429 . S
C1347 C1341 1.429 . S
C1347 C1348 1.523 . S
C1348 C1329 1.368 . S
C1348 C1342 1.368 . S
C1348 C1347 1.523 . S
C1349 C1333 1.429 . S
C1349 C1345 1.429 . S
C1349 C1350 1.523 . S
C1350 C1334 1.368 . S
C1350 C1346 1.368 . S
C1350 C1349 1.523 . S
H1351 C1326 0.950 . S
H1352 C1328 0.950 . S
H1353 C1329 0.949 . S
H1354 C1331 0.950 . S
H1355 C1333 0.950 . S
C1356 C1357 1.349 . S
C1356 C1358 1.327 . S
C1356 H1381 0.950 . S
C1357 C1356 1.349 . S
C1357 C1373 1.349 . S
C1358 C1356 1.327 . S
C1358 C1377 1.429 . S
C1358 H1382 0.950 . S
C1359 C1376 1.574 . S
C1359 C1378 1.368 . S
C1359 H1383 0.949 . S
H1360 C1364 0.949 . S
C1361 C1362 1.349 . S
C1361 C1363 1.327 . S
C1361 H1384 0.950 . S
C1362 C1361 1.349 . S
C1362 C1374 1.349 . S
C1363 C1361 1.327 . S
C1363 C1379 1.429 . S
C1363 H1385 0.950 . S
C1364 H1360 0.949 . S
C1364 C1372 1.574 . S
C1364 C1380 1.368 . S
H1365 C1373 0.950 . S
H1366 C1371 0.950 . S
H1367 C1372 0.949 . S
H1368 C1374 0.950 . S
H1369 C1375 0.950 . S
H1370 C1376 0.949 . S
C1371 H1366 0.950 . S
C1371 C1373 1.327 . S
C1371 C1377 1.429 . S
C1372 C1364 1.574 . S
C1372 H1367 0.949 . S
C1372 C1378 1.368 . S
C1373 C1357 1.349 . S
C1373 H1365 0.950 . S
C1373 C1371 1.327 . S
C1374 C1362 1.349 . S
C1374 H1368 0.950 . S
C1374 C1375 1.327 . S
C1375 H1369 0.950 . S
C1375 C1374 1.327 . S
C1375 C1379 1.429 . S
C1376 C1359 1.574 . S
C1376 H1370 0.949 . S
C1376 C1380 1.368 . S
C1377 C1358 1.429 . S
C1377 C1371 1.429 . S
C1377 C1378 1.523 . S
C1378 C1359 1.368 . S
C1378 C1372 1.368 . S
C1378 C1377 1.523 . S
C1379 C1363 1.429 . S
C1379 C1375 1.429 . S
C1379 C1380 1.523 . S
C1380 C1364 1.368 . S
C1380 C1376 1.368 . S
C1380 C1379 1.523 . S
H1381 C1356 0.950 . S
H1382 C1358 0.950 . S
H1383 C1359 0.949 . S
H1384 C1361 0.950 . S
H1385 C1363 0.950 . S
C1386 C1387 1.349 . S
C1386 C1388 1.327 . S
C1386 H1411 0.950 . S
C1387 C1386 1.349 . S
C1387 C1403 1.349 . S
C1388 C1386 1.327 . S
C1388 C1407 1.429 . S
C1388 H1412 0.950 . S
C1389 C1406 1.574 . S
C1389 C1408 1.368 . S
C1389 H1413 0.949 . S
H1390 C1394 0.949 . S
C1391 C1392 1.349 . S
C1391 C1393 1.327 . S
C1391 H1414 0.950 . S
C1392 C1391 1.349 . S
C1392 C1404 1.349 . S
C1393 C1391 1.327 . S
C1393 C1409 1.429 . S
C1393 H1415 0.950 . S
C1394 H1390 0.949 . S
C1394 C1402 1.574 . S
C1394 C1410 1.368 . S
H1395 C1403 0.950 . S
H1396 C1401 0.950 . S
H1397 C1402 0.949 . S
H1398 C1404 0.950 . S
H1399 C1405 0.950 . S
H1400 C1406 0.949 . S
C1401 H1396 0.950 . S
C1401 C1403 1.327 . S
C1401 C1407 1.429 . S
C1402 C1394 1.574 . S
C1402 H1397 0.949 . S
C1402 C1408 1.368 . S
C1403 C1387 1.349 . S
C1403 H1395 0.950 . S
C1403 C1401 1.327 . S
C1404 C1392 1.349 . S
C1404 H1398 0.950 . S
C1404 C1405 1.327 . S
C1405 H1399 0.950 . S
C1405 C1404 1.327 . S
C1405 C1409 1.429 . S
C1406 C1389 1.574 . S
C1406 H1400 0.949 . S
C1406 C1410 1.368 . S
C1407 C1388 1.429 . S
C1407 C1401 1.429 . S
C1407 C1408 1.523 . S
C1408 C1389 1.368 . S
C1408 C1402 1.368 . S
C1408 C1407 1.523 . S
C1409 C1393 1.429 . S
C1409 C1405 1.429 . S
C1409 C1410 1.523 . S
C1410 C1394 1.368 . S
C1410 C1406 1.368 . S
C1410 C1409 1.523 . S
H1411 C1386 0.950 . S
H1412 C1388 0.950 . S
H1413 C1389 0.949 . S
H1414 C1391 0.950 . S
H1415 C1393 0.950 . S
C1416 C1417 1.349 . S
C1416 C1418 1.327 . S
C1416 H1441 0.950 . S
C1417 C1416 1.349 . S
C1417 C1433 1.349 . S
C1418 C1416 1.327 . S
C1418 C1437 1.429 . S
C1418 H1442 0.950 . S
C1419 C1436 1.574 . S
C1419 C1438 1.368 . S
C1419 H1443 0.949 . S
H1420 C1424 0.949 . S
C1421 C1422 1.349 . S
C1421 C1423 1.327 . S
C1421 H1444 0.950 . S
C1422 C1421 1.349 . S
C1422 C1434 1.349 . S
C1423 C1421 1.327 . S
C1423 C1439 1.429 . S
C1423 H1445 0.950 . S
C1424 H1420 0.949 . S
C1424 C1432 1.574 . S
C1424 C1440 1.368 . S
H1425 C1433 0.950 . S
H1426 C1431 0.950 . S
H1427 C1432 0.949 . S
H1428 C1434 0.950 . S
H1429 C1435 0.950 . S
H1430 C1436 0.949 . S
C1431 H1426 0.950 . S
C1431 C1433 1.327 . S
C1431 C1437 1.429 . S
C1432 C1424 1.574 . S
C1432 H1427 0.949 . S
C1432 C1438 1.368 . S
C1433 C1417 1.349 . S
C1433 H1425 0.950 . S
C1433 C1431 1.327 . S
C1434 C1422 1.349 . S
C1434 H1428 0.950 . S
C1434 C1435 1.327 . S
C1435 H1429 0.950 . S
C1435 C1434 1.327 . S
C1435 C1439 1.429 . S
C1436 C1419 1.574 . S
C1436 H1430 0.949 . S
C1436 C1440 1.368 . S
C1437 C1418 1.429 . S
C1437 C1431 1.429 . S
C1437 C1438 1.523 . S
C1438 C1419 1.368 . S
C1438 C1432 1.368 . S
C1438 C1437 1.523 . S
C1439 C1423 1.429 . S
C1439 C1435 1.429 . S
C1439 C1440 1.523 . S
C1440 C1424 1.368 . S
C1440 C1436 1.368 . S
C1440 C1439 1.523 . S
H1441 C1416 0.950 . S
H1442 C1418 0.950 . S
H1443 C1419 0.949 . S
H1444 C1421 0.950 . S
H1445 C1423 0.950 . S
C1446 C1447 1.349 . S
C1446 C1448 1.327 . S
C1446 H1471 0.950 . S
C1447 C1446 1.349 . S
C1447 C1463 1.349 . S
C1448 C1446 1.327 . S
C1448 C1467 1.429 . S
C1448 H1472 0.950 . S
C1449 C1466 1.574 . S
C1449 C1468 1.368 . S
C1449 H1473 0.949 . S
H1450 C1454 0.949 . S
C1451 C1452 1.349 . S
C1451 C1453 1.327 . S
C1451 H1474 0.950 . S
C1452 C1451 1.349 . S
C1452 C1464 1.349 . S
C1453 C1451 1.327 . S
C1453 C1469 1.429 . S
C1453 H1475 0.950 . S
C1454 H1450 0.949 . S
C1454 C1462 1.574 . S
C1454 C1470 1.368 . S
H1455 C1463 0.950 . S
H1456 C1461 0.950 . S
H1457 C1462 0.949 . S
H1458 C1464 0.950 . S
H1459 C1465 0.950 . S
H1460 C1466 0.949 . S
C1461 H1456 0.950 . S
C1461 C1463 1.327 . S
C1461 C1467 1.429 . S
C1462 C1454 1.574 . S
C1462 H1457 0.949 . S
C1462 C1468 1.368 . S
C1463 C1447 1.349 . S
C1463 H1455 0.950 . S
C1463 C1461 1.327 . S
C1464 C1452 1.349 . S
C1464 H1458 0.950 . S
C1464 C1465 1.327 . S
C1465 H1459 0.950 . S
C1465 C1464 1.327 . S
C1465 C1469 1.429 . S
C1466 C1449 1.574 . S
C1466 H1460 0.949 . S
C1466 C1470 1.368 . S
C1467 C1448 1.429 . S
C1467 C1461 1.429 . S
C1467 C1468 1.523 . S
C1468 C1449 1.368 . S
C1468 C1462 1.368 . S
C1468 C1467 1.523 . S
C1469 C1453 1.429 . S
C1469 C1465 1.429 . S
C1469 C1470 1.523 . S
C1470 C1454 1.368 . S
C1470 C1466 1.368 . S
C1470 C1469 1.523 . S
H1471 C1446 0.950 . S
H1472 C1448 0.950 . S
H1473 C1449 0.949 . S
H1474 C1451 0.950 . S
H1475 C1453 0.950 . S
C1476 C1477 1.349 . S
C1476 C1478 1.327 . S
C1476 H1501 0.950 . S
C1477 C1476 1.349 . S
C1477 C1493 1.349 . S
C1478 C1476 1.327 . S
C1478 C1497 1.429 . S
C1478 H1502 0.950 . S
C1479 C1496 1.574 . S
C1479 C1498 1.368 . S
C1479 H1503 0.949 . S
H1480 C1484 0.949 . S
C1481 C1482 1.349 . S
C1481 C1483 1.327 . S
C1481 H1504 0.950 . S
C1482 C1481 1.349 . S
C1482 C1494 1.349 . S
C1483 C1481 1.327 . S
C1483 C1499 1.429 . S
C1483 H1505 0.950 . S
C1484 H1480 0.949 . S
C1484 C1492 1.574 . S
C1484 C1500 1.368 . S
H1485 C1493 0.950 . S
H1486 C1491 0.950 . S
H1487 C1492 0.949 . S
H1488 C1494 0.950 . S
H1489 C1495 0.950 . S
H1490 C1496 0.949 . S
C1491 H1486 0.950 . S
C1491 C1493 1.327 . S
C1491 C1497 1.429 . S
C1492 C1484 1.574 . S
C1492 H1487 0.949 . S
C1492 C1498 1.368 . S
C1493 C1477 1.349 . S
C1493 H1485 0.950 . S
C1493 C1491 1.327 . S
C1494 C1482 1.349 . S
C1494 H1488 0.950 . S
C1494 C1495 1.327 . S
C1495 H1489 0.950 . S
C1495 C1494 1.327 . S
C1495 C1499 1.429 . S
C1496 C1479 1.574 . S
C1496 H1490 0.949 . S
C1496 C1500 1.368 . S
C1497 C1478 1.429 . S
C1497 C1491 1.429 . S
C1497 C1498 1.523 . S
C1498 C1479 1.368 . S
C1498 C1492 1.368 . S
C1498 C1497 1.523 . S
C1499 C1483 1.429 . S
C1499 C1495 1.429 . S
C1499 C1500 1.523 . S
C1500 C1484 1.368 . S
C1500 C1496 1.368 . S
C1500 C1499 1.523 . S
H1501 C1476 0.950 . S
H1502 C1478 0.950 . S
H1503 C1479 0.949 . S
H1504 C1481 0.950 . S
H1505 C1483 0.950 . S
C1506 C1507 1.349 . S
C1506 C1508 1.327 . S
C1506 H1531 0.950 . S
C1507 C1506 1.349 . S
C1507 C1523 1.349 . S
C1508 C1506 1.327 . S
C1508 C1527 1.429 . S
C1508 H1532 0.950 . S
C1509 C1526 1.574 . S
C1509 C1528 1.368 . S
C1509 H1533 0.949 . S
H1510 C1514 0.949 . S
C1511 C1512 1.349 . S
C1511 C1513 1.327 . S
C1511 H1534 0.950 . S
C1512 C1511 1.349 . S
C1512 C1524 1.349 . S
C1513 C1511 1.327 . S
C1513 C1529 1.429 . S
C1513 H1535 0.950 . S
C1514 H1510 0.949 . S
C1514 C1522 1.574 . S
C1514 C1530 1.368 . S
H1515 C1523 0.950 . S
H1516 C1521 0.950 . S
H1517 C1522 0.949 . S
H1518 C1524 0.950 . S
H1519 C1525 0.950 . S
H1520 C1526 0.949 . S
C1521 H1516 0.950 . S
C1521 C1523 1.327 . S
C1521 C1527 1.429 . S
C1522 C1514 1.574 . S
C1522 H1517 0.949 . S
C1522 C1528 1.368 . S
C1523 C1507 1.349 . S
C1523 H1515 0.950 . S
C1523 C1521 1.327 . S
C1524 C1512 1.349 . S
C1524 H1518 0.950 . S
C1524 C1525 1.327 . S
C1525 H1519 0.950 . S
C1525 C1524 1.327 . S
C1525 C1529 1.429 . S
C1526 C1509 1.574 . S
C1526 H1520 0.949 . S
C1526 C1530 1.368 . S
C1527 C1508 1.429 . S
C1527 C1521 1.429 . S
C1527 C1528 1.523 . S
C1528 C1509 1.368 . S
C1528 C1522 1.368 . S
C1528 C1527 1.523 . S
C1529 C1513 1.429 . S
C1529 C1525 1.429 . S
C1529 C1530 1.523 . S
C1530 C1514 1.368 . S
C1530 C1526 1.368 . S
C1530 C1529 1.523 . S
H1531 C1506 0.950 . S
H1532 C1508 0.950 . S
H1533 C1509 0.949 . S
H1534 C1511 0.950 . S
H1535 C1513 0.950 . S
C1536 C1537 1.349 . S
C1536 C1538 1.327 . S
C1536 H1561 0.950 . S
C1537 C1536 1.349 . S
C1537 C1553 1.349 . S
C1538 C1536 1.327 . S
C1538 C1557 1.429 . S
C1538 H1562 0.950 . S
C1539 C1556 1.574 . S
C1539 C1558 1.368 . S
C1539 H1563 0.949 . S
H1540 C1544 0.949 . S
C1541 C1542 1.349 . S
C1541 C1543 1.327 . S
C1541 H1564 0.950 . S
C1542 C1541 1.349 . S
C1542 C1554 1.349 . S
C1543 C1541 1.327 . S
C1543 C1559 1.429 . S
C1543 H1565 0.950 . S
C1544 H1540 0.949 . S
C1544 C1552 1.574 . S
C1544 C1560 1.368 . S
H1545 C1553 0.950 . S
H1546 C1551 0.950 . S
H1547 C1552 0.949 . S
H1548 C1554 0.950 . S
H1549 C1555 0.950 . S
H1550 C1556 0.949 . S
C1551 H1546 0.950 . S
C1551 C1553 1.327 . S
C1551 C1557 1.429 . S
C1552 C1544 1.574 . S
C1552 H1547 0.949 . S
C1552 C1558 1.368 . S
C1553 C1537 1.349 . S
C1553 H1545 0.950 . S
C1553 C1551 1.327 . S
C1554 C1542 1.349 . S
C1554 H1548 0.950 . S
C1554 C1555 1.327 . S
C1555 H1549 0.950 . S
C1555 C1554 1.327 . S
C1555 C1559 1.429 . S
C1556 C1539 1.574 . S
C1556 H1550 0.949 . S
C1556 C1560 1.368 . S
C1557 C1538 1.429 . S
C1557 C1551 1.429 . S
C1557 C1558 1.523 . S
C1558 C1539 1.368 . S
C1558 C1552 1.368 . S
C1558 C1557 1.523 . S
C1559 C1543 1.429 . S
C1559 C1555 1.429 . S
C1559 C1560 1.523 . S
C1560 C1544 1.368 . S
C1560 C1556 1.368 . S
C1560 C1559 1.523 . S
H1561 C1536 0.950 . S
H1562 C1538 0.950 . S
H1563 C1539 0.949 . S
H1564 C1541 0.950 . S
H1565 C1543 0.950 . S
C1566 C1567 1.349 . S
C1566 C1568 1.327 . S
C1566 H1591 0.950 . S
C1567 C1566 1.349 . S
C1567 C1583 1.349 . S
C1568 C1566 1.327 . S
C1568 C1587 1.429 . S
C1568 H1592 0.950 . S
C1569 C1586 1.574 . S
C1569 C1588 1.368 . S
C1569 H1593 0.949 . S
H1570 C1574 0.949 . S
C1571 C1572 1.349 . S
C1571 C1573 1.327 . S
C1571 H1594 0.950 . S
C1572 C1571 1.349 . S
C1572 C1584 1.349 . S
C1573 C1571 1.327 . S
C1573 C1589 1.429 . S
C1573 H1595 0.950 . S
C1574 H1570 0.949 . S
C1574 C1582 1.574 . S
C1574 C1590 1.368 . S
H1575 C1583 0.950 . S
H1576 C1581 0.950 . S
H1577 C1582 0.949 . S
H1578 C1584 0.950 . S
H1579 C1585 0.950 . S
H1580 C1586 0.949 . S
C1581 H1576 0.950 . S
C1581 C1583 1.327 . S
C1581 C1587 1.429 . S
C1582 C1574 1.574 . S
C1582 H1577 0.949 . S
C1582 C1588 1.368 . S
C1583 C1567 1.349 . S
C1583 H1575 0.950 . S
C1583 C1581 1.327 . S
C1584 C1572 1.349 . S
C1584 H1578 0.950 . S
C1584 C1585 1.327 . S
C1585 H1579 0.950 . S
C1585 C1584 1.327 . S
C1585 C1589 1.429 . S
C1586 C1569 1.574 . S
C1586 H1580 0.949 . S
C1586 C1590 1.368 . S
C1587 C1568 1.429 . S
C1587 C1581 1.429 . S
C1587 C1588 1.523 . S
C1588 C1569 1.368 . S
C1588 C1582 1.368 . S
C1588 C1587 1.523 . S
C1589 C1573 1.429 . S
C1589 C1585 1.429 . S
C1589 C1590 1.523 . S
C1590 C1574 1.368 . S
C1590 C1586 1.368 . S
C1590 C1589 1.523 . S
H1591 C1566 0.950 . S
H1592 C1568 0.950 . S
H1593 C1569 0.949 . S
H1594 C1571 0.950 . S
H1595 C1573 0.950 . S
C1596 C1597 1.349 . S
C1596 C1598 1.327 . S
C1596 H1621 0.950 . S
C1597 C1596 1.349 . S
C1597 C1613 1.349 . S
C1598 C1596 1.327 . S
C1598 C1617 1.429 . S
C1598 H1622 0.950 . S
C1599 C1616 1.574 . S
C1599 C1618 1.368 . S
C1599 H1623 0.949 . S
H1600 C1604 0.949 . S
C1601 C1602 1.349 . S
C1601 C1603 1.327 . S
C1601 H1624 0.950 . S
C1602 C1601 1.349 . S
C1602 C1614 1.349 . S
C1603 C1601 1.327 . S
C1603 C1619 1.429 . S
C1603 H1625 0.950 . S
C1604 H1600 0.949 . S
C1604 C1612 1.574 . S
C1604 C1620 1.368 . S
H1605 C1613 0.950 . S
H1606 C1611 0.950 . S
H1607 C1612 0.949 . S
H1608 C1614 0.950 . S
H1609 C1615 0.950 . S
H1610 C1616 0.949 . S
C1611 H1606 0.950 . S
C1611 C1613 1.327 . S
C1611 C1617 1.429 . S
C1612 C1604 1.574 . S
C1612 H1607 0.949 . S
C1612 C1618 1.368 . S
C1613 C1597 1.349 . S
C1613 H1605 0.950 . S
C1613 C1611 1.327 . S
C1614 C1602 1.349 . S
C1614 H1608 0.950 . S
C1614 C1615 1.327 . S
C1615 H1609 0.950 . S
C1615 C1614 1.327 . S
C1615 C1619 1.429 . S
C1616 C1599 1.574 . S
C1616 H1610 0.949 . S
C1616 C1620 1.368 . S
C1617 C1598 1.429 . S
C1617 C1611 1.429 . S
C1617 C1618 1.523 . S
C1618 C1599 1.368 . S
C1618 C1612 1.368 . S
C1618 C1617 1.523 . S
C1619 C1603 1.429 . S
C1619 C1615 1.429 . S
C1619 C1620 1.523 . S
C1620 C1604 1.368 . S
C1620 C1616 1.368 . S
C1620 C1619 1.523 . S
H1621 C1596 0.950 . S
H1622 C1598 0.950 . S
H1623 C1599 0.949 . S
H1624 C1601 0.950 . S
H1625 C1603 0.950 . S
C1626 C1627 1.349 . S
C1626 C1628 1.327 . S
C1626 H1651 0.950 . S
C1627 C1626 1.349 . S
C1627 C1643 1.349 . S
C1628 C1626 1.327 . S
C1628 C1647 1.429 . S
C1628 H1652 0.950 . S
C1629 C1646 1.574 . S
C1629 C1648 1.368 . S
C1629 H1653 0.949 . S
H1630 C1634 0.949 . S
C1631 C1632 1.349 . S
C1631 C1633 1.327 . S
C1631 H1654 0.950 . S
C1632 C1631 1.349 . S
C1632 C1644 1.349 . S
C1633 C1631 1.327 . S
C1633 C1649 1.429 . S
C1633 H1655 0.950 . S
C1634 H1630 0.949 . S
C1634 C1642 1.574 . S
C1634 C1650 1.368 . S
H1635 C1643 0.950 . S
H1636 C1641 0.950 . S
H1637 C1642 0.949 . S
H1638 C1644 0.950 . S
H1639 C1645 0.950 . S
H1640 C1646 0.949 . S
C1641 H1636 0.950 . S
C1641 C1643 1.327 . S
C1641 C1647 1.429 . S
C1642 C1634 1.574 . S
C1642 H1637 0.949 . S
C1642 C1648 1.368 . S
C1643 C1627 1.349 . S
C1643 H1635 0.950 . S
C1643 C1641 1.327 . S
C1644 C1632 1.349 . S
C1644 H1638 0.950 . S
C1644 C1645 1.327 . S
C1645 H1639 0.950 . S
C1645 C1644 1.327 . S
C1645 C1649 1.429 . S
C1646 C1629 1.574 . S
C1646 H1640 0.949 . S
C1646 C1650 1.368 . S
C1647 C1628 1.429 . S
C1647 C1641 1.429 . S
C1647 C1648 1.523 . S
C1648 C1629 1.368 . S
C1648 C1642 1.368 . S
C1648 C1647 1.523 . S
C1649 C1633 1.429 . S
C1649 C1645 1.429 . S
C1649 C1650 1.523 . S
C1650 C1634 1.368 . S
C1650 C1646 1.368 . S
C1650 C1649 1.523 . S
H1651 C1626 0.950 . S
H1652 C1628 0.950 . S
H1653 C1629 0.949 . S
H1654 C1631 0.950 . S
H1655 C1633 0.950 . S
C1656 C1657 1.349 . S
C1656 C1658 1.327 . S
C1656 H1681 0.950 . S
C1657 C1656 1.349 . S
C1657 C1673 1.349 . S
C1658 C1656 1.327 . S
C1658 C1677 1.429 . S
C1658 H1682 0.950 . S
C1659 C1676 1.574 . S
C1659 C1678 1.368 . S
C1659 H1683 0.949 . S
H1660 C1664 0.949 . S
C1661 C1662 1.349 . S
C1661 C1663 1.327 . S
C1661 H1684 0.950 . S
C1662 C1661 1.349 . S
C1662 C1674 1.349 . S
C1663 C1661 1.327 . S
C1663 C1679 1.429 . S
C1663 H1685 0.950 . S
C1664 H1660 0.949 . S
C1664 C1672 1.574 . S
C1664 C1680 1.368 . S
H1665 C1673 0.950 . S
H1666 C1671 0.950 . S
H1667 C1672 0.949 . S
H1668 C1674 0.950 . S
H1669 C1675 0.950 . S
H1670 C1676 0.949 . S
C1671 H1666 0.950 . S
C1671 C1673 1.327 . S
C1671 C1677 1.429 . S
C1672 C1664 1.574 . S
C1672 H1667 0.949 . S
C1672 C1678 1.368 . S
C1673 C1657 1.349 . S
C1673 H1665 0.950 . S
C1673 C1671 1.327 . S
C1674 C1662 1.349 . S
C1674 H1668 0.950 . S
C1674 C1675 1.327 . S
C1675 H1669 0.950 . S
C1675 C1674 1.327 . S
C1675 C1679 1.429 . S
C1676 C1659 1.574 . S
C1676 H1670 0.949 . S
C1676 C1680 1.368 . S
C1677 C1658 1.429 . S
C1677 C1671 1.429 . S
C1677 C1678 1.523 . S
C1678 C1659 1.368 . S
C1678 C1672 1.368 . S
C1678 C1677 1.523 . S
C1679 C1663 1.429 . S
C1679 C1675 1.429 . S
C1679 C1680 1.523 . S
C1680 C1664 1.368 . S
C1680 C1676 1.368 . S
C1680 C1679 1.523 . S
H1681 C1656 0.950 . S
H1682 C1658 0.950 . S
H1683 C1659 0.949 . S
H1684 C1661 0.950 . S
H1685 C1663 0.950 . S
C1686 C1687 1.349 . S
C1686 C1688 1.327 . S
C1686 H1711 0.950 . S
C1687 C1686 1.349 . S
C1687 C1703 1.349 . S
C1688 C1686 1.327 . S
C1688 C1707 1.429 . S
C1688 H1712 0.950 . S
C1689 C1706 1.574 . S
C1689 C1708 1.368 . S
C1689 H1713 0.949 . S
H1690 C1694 0.949 . S
C1691 C1692 1.349 . S
C1691 C1693 1.327 . S
C1691 H1714 0.950 . S
C1692 C1691 1.349 . S
C1692 C1704 1.349 . S
C1693 C1691 1.327 . S
C1693 C1709 1.429 . S
C1693 H1715 0.950 . S
C1694 H1690 0.949 . S
C1694 C1702 1.574 . S
C1694 C1710 1.368 . S
H1695 C1703 0.950 . S
H1696 C1701 0.950 . S
H1697 C1702 0.949 . S
H1698 C1704 0.950 . S
H1699 C1705 0.950 . S
H1700 C1706 0.949 . S
C1701 H1696 0.950 . S
C1701 C1703 1.327 . S
C1701 C1707 1.429 . S
C1702 C1694 1.574 . S
C1702 H1697 0.949 . S
C1702 C1708 1.368 . S
C1703 C1687 1.349 . S
C1703 H1695 0.950 . S
C1703 C1701 1.327 . S
C1704 C1692 1.349 . S
C1704 H1698 0.950 . S
C1704 C1705 1.327 . S
C1705 H1699 0.950 . S
C1705 C1704 1.327 . S
C1705 C1709 1.429 . S
C1706 C1689 1.574 . S
C1706 H1700 0.949 . S
C1706 C1710 1.368 . S
C1707 C1688 1.429 . S
C1707 C1701 1.429 . S
C1707 C1708 1.523 . S
C1708 C1689 1.368 . S
C1708 C1702 1.368 . S
C1708 C1707 1.523 . S
C1709 C1693 1.429 . S
C1709 C1705 1.429 . S
C1709 C1710 1.523 . S
C1710 C1694 1.368 . S
C1710 C1706 1.368 . S
C1710 C1709 1.523 . S
H1711 C1686 0.950 . S
H1712 C1688 0.950 . S
H1713 C1689 0.949 . S
H1714 C1691 0.950 . S
H1715 C1693 0.950 . S
C1716 C1717 1.349 . S
C1716 C1718 1.327 . S
C1716 H1741 0.950 . S
C1717 C1716 1.349 . S
C1717 C1733 1.349 . S
C1718 C1716 1.327 . S
C1718 C1737 1.429 . S
C1718 H1742 0.950 . S
C1719 C1736 1.574 . S
C1719 C1738 1.368 . S
C1719 H1743 0.949 . S
H1720 C1724 0.949 . S
C1721 C1722 1.349 . S
C1721 C1723 1.327 . S
C1721 H1744 0.950 . S
C1722 C1721 1.349 . S
C1722 C1734 1.349 . S
C1723 C1721 1.327 . S
C1723 C1739 1.429 . S
C1723 H1745 0.950 . S
C1724 H1720 0.949 . S
C1724 C1732 1.574 . S
C1724 C1740 1.368 . S
H1725 C1733 0.950 . S
H1726 C1731 0.950 . S
H1727 C1732 0.949 . S
H1728 C1734 0.950 . S
H1729 C1735 0.950 . S
H1730 C1736 0.949 . S
C1731 H1726 0.950 . S
C1731 C1733 1.327 . S
C1731 C1737 1.429 . S
C1732 C1724 1.574 . S
C1732 H1727 0.949 . S
C1732 C1738 1.368 . S
C1733 C1717 1.349 . S
C1733 H1725 0.950 . S
C1733 C1731 1.327 . S
C1734 C1722 1.349 . S
C1734 H1728 0.950 . S
C1734 C1735 1.327 . S
C1735 H1729 0.950 . S
C1735 C1734 1.327 . S
C1735 C1739 1.429 . S
C1736 C1719 1.574 . S
C1736 H1730 0.949 . S
C1736 C1740 1.368 . S
C1737 C1718 1.429 . S
C1737 C1731 1.429 . S
C1737 C1738 1.523 . S
C1738 C1719 1.368 . S
C1738 C1732 1.368 . S
C1738 C1737 1.523 . S
C1739 C1723 1.429 . S
C1739 C1735 1.429 . S
C1739 C1740 1.523 . S
C1740 C1724 1.368 . S
C1740 C1736 1.368 . S
C1740 C1739 1.523 . S
H1741 C1716 0.950 . S
H1742 C1718 0.950 . S
H1743 C1719 0.949 . S
H1744 C1721 0.950 . S
H1745 C1723 0.950 . S
C1746 C1747 1.349 . S
C1746 C1748 1.327 . S
C1746 H1771 0.950 . S
C1747 C1746 1.349 . S
C1747 C1763 1.349 . S
C1748 C1746 1.327 . S
C1748 C1767 1.429 . S
C1748 H1772 0.950 . S
C1749 C1766 1.574 . S
C1749 C1768 1.368 . S
C1749 H1773 0.949 . S
H1750 C1754 0.949 . S
C1751 C1752 1.349 . S
C1751 C1753 1.327 . S
C1751 H1774 0.950 . S
C1752 C1751 1.349 . S
C1752 C1764 1.349 . S
C1753 C1751 1.327 . S
C1753 C1769 1.429 . S
C1753 H1775 0.950 . S
C1754 H1750 0.949 . S
C1754 C1762 1.574 . S
C1754 C1770 1.368 . S
H1755 C1763 0.950 . S
H1756 C1761 0.950 . S
H1757 C1762 0.949 . S
H1758 C1764 0.950 . S
H1759 C1765 0.950 . S
H1760 C1766 0.949 . S
C1761 H1756 0.950 . S
C1761 C1763 1.327 . S
C1761 C1767 1.429 . S
C1762 C1754 1.574 . S
C1762 H1757 0.949 . S
C1762 C1768 1.368 . S
C1763 C1747 1.349 . S
C1763 H1755 0.950 . S
C1763 C1761 1.327 . S
C1764 C1752 1.349 . S
C1764 H1758 0.950 . S
C1764 C1765 1.327 . S
C1765 H1759 0.950 . S
C1765 C1764 1.327 . S
C1765 C1769 1.429 . S
C1766 C1749 1.574 . S
C1766 H1760 0.949 . S
C1766 C1770 1.368 . S
C1767 C1748 1.429 . S
C1767 C1761 1.429 . S
C1767 C1768 1.523 . S
C1768 C1749 1.368 . S
C1768 C1762 1.368 . S
C1768 C1767 1.523 . S
C1769 C1753 1.429 . S
C1769 C1765 1.429 . S
C1769 C1770 1.523 . S
C1770 C1754 1.368 . S
C1770 C1766 1.368 . S
C1770 C1769 1.523 . S
H1771 C1746 0.950 . S
H1772 C1748 0.950 . S
H1773 C1749 0.949 . S
H1774 C1751 0.950 . S
H1775 C1753 0.950 . S
C1776 C1777 1.349 . S
C1776 C1778 1.327 . S
C1776 H1801 0.950 . S
C1777 C1776 1.349 . S
C1777 C1793 1.349 . S
C1778 C1776 1.327 . S
C1778 C1797 1.429 . S
C1778 H1802 0.950 . S
C1779 C1796 1.574 . S
C1779 C1798 1.368 . S
C1779 H1803 0.949 . S
H1780 C1784 0.949 . S
C1781 C1782 1.349 . S
C1781 C1783 1.327 . S
C1781 H1804 0.950 . S
C1782 C1781 1.349 . S
C1782 C1794 1.349 . S
C1783 C1781 1.327 . S
C1783 C1799 1.429 . S
C1783 H1805 0.950 . S
C1784 H1780 0.949 . S
C1784 C1792 1.574 . S
C1784 C1800 1.368 . S
H1785 C1793 0.950 . S
H1786 C1791 0.950 . S
H1787 C1792 0.949 . S
H1788 C1794 0.950 . S
H1789 C1795 0.950 . S
H1790 C1796 0.949 . S
C1791 H1786 0.950 . S
C1791 C1793 1.327 . S
C1791 C1797 1.429 . S
C1792 C1784 1.574 . S
C1792 H1787 0.949 . S
C1792 C1798 1.368 . S
C1793 C1777 1.349 . S
C1793 H1785 0.950 . S
C1793 C1791 1.327 . S
C1794 C1782 1.349 . S
C1794 H1788 0.950 . S
C1794 C1795 1.327 . S
C1795 H1789 0.950 . S
C1795 C1794 1.327 . S
C1795 C1799 1.429 . S
C1796 C1779 1.574 . S
C1796 H1790 0.949 . S
C1796 C1800 1.368 . S
C1797 C1778 1.429 . S
C1797 C1791 1.429 . S
C1797 C1798 1.523 . S
C1798 C1779 1.368 . S
C1798 C1792 1.368 . S
C1798 C1797 1.523 . S
C1799 C1783 1.429 . S
C1799 C1795 1.429 . S
C1799 C1800 1.523 . S
C1800 C1784 1.368 . S
C1800 C1796 1.368 . S
C1800 C1799 1.523 . S
H1801 C1776 0.950 . S
H1802 C1778 0.950 . S
H1803 C1779 0.949 . S
H1804 C1781 0.950 . S
H1805 C1783 0.950 . S
C1806 C1807 1.349 . S
C1806 C1808 1.327 . S
C1806 H1831 0.950 . S
C1807 C1806 1.349 . S
C1807 C1823 1.349 . S
C1808 C1806 1.327 . S
C1808 C1827 1.429 . S
C1808 H1832 0.950 . S
C1809 C1826 1.574 . S
C1809 C1828 1.368 . S
C1809 H1833 0.949 . S
H1810 C1814 0.949 . S
C1811 C1812 1.349 . S
C1811 C1813 1.327 . S
C1811 H1834 0.950 . S
C1812 C1811 1.349 . S
C1812 C1824 1.349 . S
C1813 C1811 1.327 . S
C1813 C1829 1.429 . S
C1813 H1835 0.950 . S
C1814 H1810 0.949 . S
C1814 C1822 1.574 . S
C1814 C1830 1.368 . S
H1815 C1823 0.950 . S
H1816 C1821 0.950 . S
H1817 C1822 0.949 . S
H1818 C1824 0.950 . S
H1819 C1825 0.950 . S
H1820 C1826 0.949 . S
C1821 H1816 0.950 . S
C1821 C1823 1.327 . S
C1821 C1827 1.429 . S
C1822 C1814 1.574 . S
C1822 H1817 0.949 . S
C1822 C1828 1.368 . S
C1823 C1807 1.349 . S
C1823 H1815 0.950 . S
C1823 C1821 1.327 . S
C1824 C1812 1.349 . S
C1824 H1818 0.950 . S
C1824 C1825 1.327 . S
C1825 H1819 0.950 . S
C1825 C1824 1.327 . S
C1825 C1829 1.429 . S
C1826 C1809 1.574 . S
C1826 H1820 0.949 . S
C1826 C1830 1.368 . S
C1827 C1808 1.429 . S
C1827 C1821 1.429 . S
C1827 C1828 1.523 . S
C1828 C1809 1.368 . S
C1828 C1822 1.368 . S
C1828 C1827 1.523 . S
C1829 C1813 1.429 . S
C1829 C1825 1.429 . S
C1829 C1830 1.523 . S
C1830 C1814 1.368 . S
C1830 C1826 1.368 . S
C1830 C1829 1.523 . S
H1831 C1806 0.950 . S
H1832 C1808 0.950 . S
H1833 C1809 0.949 . S
H1834 C1811 0.950 . S
H1835 C1813 0.950 . S
C1836 C1837 1.349 . S
C1836 C1838 1.327 . S
C1836 H1861 0.950 . S
C1837 C1836 1.349 . S
C1837 C1853 1.349 . S
C1838 C1836 1.327 . S
C1838 C1857 1.429 . S
C1838 H1862 0.950 . S
C1839 C1856 1.574 . S
C1839 C1858 1.368 . S
C1839 H1863 0.949 . S
H1840 C1844 0.949 . S
C1841 C1842 1.349 . S
C1841 C1843 1.327 . S
C1841 H1864 0.950 . S
C1842 C1841 1.349 . S
C1842 C1854 1.349 . S
C1843 C1841 1.327 . S
C1843 C1859 1.429 . S
C1843 H1865 0.950 . S
C1844 H1840 0.949 . S
C1844 C1852 1.574 . S
C1844 C1860 1.368 . S
H1845 C1853 0.950 . S
H1846 C1851 0.950 . S
H1847 C1852 0.949 . S
H1848 C1854 0.950 . S
H1849 C1855 0.950 . S
H1850 C1856 0.949 . S
C1851 H1846 0.950 . S
C1851 C1853 1.327 . S
C1851 C1857 1.429 . S
C1852 C1844 1.574 . S
C1852 H1847 0.949 . S
C1852 C1858 1.368 . S
C1853 C1837 1.349 . S
C1853 H1845 0.950 . S
C1853 C1851 1.327 . S
C1854 C1842 1.349 . S
C1854 H1848 0.950 . S
C1854 C1855 1.327 . S
C1855 H1849 0.950 . S
C1855 C1854 1.327 . S
C1855 C1859 1.429 . S
C1856 C1839 1.574 . S
C1856 H1850 0.949 . S
C1856 C1860 1.368 . S
C1857 C1838 1.429 . S
C1857 C1851 1.429 . S
C1857 C1858 1.523 . S
C1858 C1839 1.368 . S
C1858 C1852 1.368 . S
C1858 C1857 1.523 . S
C1859 C1843 1.429 . S
C1859 C1855 1.429 . S
C1859 C1860 1.523 . S
C1860 C1844 1.368 . S
C1860 C1856 1.368 . S
C1860 C1859 1.523 . S
H1861 C1836 0.950 . S
H1862 C1838 0.950 . S
H1863 C1839 0.949 . S
H1864 C1841 0.950 . S
H1865 C1843 0.950 . S
C432 C251 0.867 . S
C427 N6 0.846 . S
C462 C241 2.027 . S
C457 C57 2.038 . S
C492 C242 0.812 . S
C487 C61 0.821 . S
C517 N96 0.633 . S
C522 C264 0.596 . S
C547 C136 2.041 . S
C552 C267 2.029 . S
C582 C250 0.812 . S
C577 C160 0.817 . S
C607 N194 0.633 . S
C612 C240 0.595 . S
C637 N224 0.849 . S
C642 C258 0.869 . S
C672 C271 1.895 . S
C667 C10 1.935 . S
C697 N36 0.785 . S
C702 C320 0.783 . S
C732 C298 0.713 . S
C727 N74 0.722 . S
C762 C312 0.799 . S
C757 C100 0.807 . S
C787 C121 0.807 . S
C792 C273 0.802 . S
C822 C326 1.858 . S
C817 C177 1.903 . S
C847 C196 2.178 . S
C852 C282 2.105 . S
C877 C226 2.043 . S
C882 C303 2.015 . S
C907 C27 2.043 . S
C912 C329 2.010 . S
C937 N134 0.785 . S
C942 C313 0.789 . S
C972 C272 0.713 . S
C967 N156 0.716 . S
C1002 C304 0.799 . S
C997 C181 0.811 . S
C1027 C211 1.939 . S
C1032 C295 1.900 . S
C1057 C76 1.900 . S
C1062 C302 1.855 . S
C1092 C289 2.104 . S
C1087 C117 2.178 . S
C1117 C40 0.807 . S
C1122 C281 0.796 . S
C1147 N216 0.849 . S
C1152 C344 0.870 . S
C1177 C147 2.041 . S
C1182 C334 2.029 . S
C1212 C335 0.812 . S
C1207 C151 0.821 . S
C1242 C357 0.595 . S
C1237 N186 0.633 . S
C1267 C46 2.041 . S
C1272 C360 2.024 . S
C1302 C343 0.812 . S
C1297 C70 0.817 . S
C1327 N104 0.633 . S
C1332 C333 0.592 . S
C1357 N14 0.849 . S
C1362 C351 0.864 . S
C1387 C220 1.939 . S
C1392 C364 1.895 . S
C1422 C413 0.786 . S
C1417 N126 0.786 . S
C1447 N164 0.719 . S
C1452 C391 0.713 . S
C1477 C190 0.809 . S
C1482 C405 0.799 . S
C1512 C366 0.799 . S
C1507 C31 0.807 . S
C1537 C87 1.900 . S
C1542 C419 1.859 . S
C1572 C375 2.104 . S
C1567 C106 2.178 . S
C1602 C396 2.012 . S
C1597 C16 2.041 . S
C1632 C422 2.013 . S
C1627 C237 2.046 . S
C1657 N44 0.785 . S
C1662 C406 0.784 . S
C1687 N66 0.719 . S
C1692 C365 0.713 . S
C1722 C397 0.799 . S
C1717 C91 0.810 . S
C1747 C1 1.939 . S
C1752 C388 1.895 . S
C1777 C166 1.900 . S
C1782 C395 1.856 . S
C1812 C382 2.104 . S
C1807 C207 2.178 . S
C1842 C374 0.799 . S
C1837 C130 0.807 . S
