# Generated by pormake.
# Topology pth, (4,4)-cn, num edge types: 1
# Building blocks:
#     Node 0, Type 0, BuildingBlock: UXUYUI_clean_sbu_0, # of connection points: 4
#     Node 1, Type 0, BuildingBlock: UXUYUI_clean_sbu_0, # of connection points: 4
#     Node 2, Type 0, BuildingBlock: UXUYUI_clean_sbu_0, # of connection points: 4
#     Node 3, Type 1, BuildingBlock: NAWXER_clean_sbu_0, # of connection points: 4
#     Node 4, Type 1, BuildingBlock: NAWXER_clean_sbu_0, # of connection points: 4
#     Node 5, Type 1, BuildingBlock: NAWXER_clean_sbu_0, # of connection points: 4
#     Edge 6, Type (0, 1), BuildingBlock: AJUNOK_clean_linker_0, # of connection points: 2
#     Edge 7, Type (0, 1), BuildingBlock: AJUNOK_clean_linker_0, # of connection points: 2
#     Edge 8, Type (0, 1), BuildingBlock: AJUNOK_clean_linker_0, # of connection points: 2
#     Edge 9, Type (0, 1), BuildingBlock: AJUNOK_clean_linker_0, # of connection points: 2
#     Edge 10, Type (0, 1), BuildingBlock: AJUNOK_clean_linker_0, # of connection points: 2
#     Edge 11, Type (0, 1), BuildingBlock: AJUNOK_clean_linker_0, # of connection points: 2
#     Edge 12, Type (0, 1), BuildingBlock: AJUNOK_clean_linker_0, # of connection points: 2
#     Edge 13, Type (0, 1), BuildingBlock: AJUNOK_clean_linker_0, # of connection points: 2
#     Edge 14, Type (0, 1), BuildingBlock: AJUNOK_clean_linker_0, # of connection points: 2
#     Edge 15, Type (0, 1), BuildingBlock: AJUNOK_clean_linker_0, # of connection points: 2
#     Edge 16, Type (0, 1), BuildingBlock: AJUNOK_clean_linker_0, # of connection points: 2
#     Edge 17, Type (0, 1), BuildingBlock: AJUNOK_clean_linker_0, # of connection points: 2
# Relax obj value: 0.086
# Max RMSD: 0.218
# Mean RMSD: 0.120
data_MOF--net-pth--node1-UXUYUI_clean_sbu_0--node2-NAWXER_clean_sbu_0--edge1-AJUNOK_clean_linker_0
_symmetry_space_group_name_H-M    P1
_symmetry_Int_Tables_number       1
_symmetry_cell_setting            triclinic
loop_
_symmetry_equiv_pos_as_xyz
'x, y, z'
_cell_length_a     22.096777
_cell_length_b     22.101665
_cell_length_c     54.851001
_cell_angle_alpha  89.997666
_cell_angle_beta   89.98655
_cell_angle_gamma 120.00667
loop_
_atom_site_label
_atom_site_type_symbol
_atom_site_fract_x
_atom_site_fract_y
_atom_site_fract_z
_atom_type_partial_charge
Li0 Li 0.07377 0.05641 0.07634 0.0
Li1 Li 0.98898 0.05157 0.1068 0.0
Li2 Li 0.0251 0.9598 0.10455 0.0
Li3 Li 0.94588 0.96333 0.07365 0.0
C4 C 0.14838 0.11342 0.11715 0.0
N5 N 0.28254 0.22154 0.12559 0.0
C6 C 0.15927 0.1768 0.12663 0.0
C7 C 0.2056 0.10471 0.11222 0.0
C8 C 0.22755 0.23091 0.13071 0.0
C9 C 0.27306 0.1601 0.11652 0.0
C10 C 0.9602 0.10246 0.06159 0.0
C11 C 0.8578 0.1094 0.05112 0.0
N12 N 0.89949 0.1747 0.04205 0.0
C13 C 1.00199 0.16937 0.05192 0.0
C14 C 0.88748 0.07196 0.061 0.0
C15 C 0.97033 0.20516 0.04222 0.0
C16 C 0.17789 0.09612 0.03936 0.0
N17 N 0.15361 0.11979 0.05767 0.0
C18 C 0.23703 0.23812 0.04787 0.0
C19 C 0.18252 0.18921 0.0623 0.0
C20 C 0.26095 0.21554 0.02807 0.0
C21 C 0.23204 0.14346 0.02424 0.0
H22 H 0.1536 0.04063 0.03594 0.0
H23 H 0.16169 0.20676 0.07673 0.0
C24 C 0.94866 0.08197 0.15158 0.0
N25 N 0.96605 0.10519 0.12827 0.0
C26 C 0.93664 0.12146 0.16876 0.0
C27 C 0.95866 0.20709 0.13748 0.0
C28 C 0.97071 0.16619 0.12094 0.0
C29 C 0.9428 0.18545 0.16183 0.0
H30 H 0.94577 0.0335 0.15695 0.0
H31 H 0.98606 0.18445 0.10251 0.0
C32 C 0.04465 0.90252 0.0647 0.0
N33 N 0.071 0.79384 0.05841 0.0
C34 C 0.99142 0.83725 0.05685 0.0
C35 C 0.11146 0.91283 0.06906 0.0
C36 C 1.00576 0.78288 0.05384 0.0
C37 C 0.12367 0.85713 0.06587 0.0
C38 C 0.86354 0.9144 0.11801 0.0
C39 C 0.83583 0.84831 0.12864 0.0
C40 C 0.82274 0.94633 0.11666 0.0
C41 C 0.76724 0.81474 0.13738 0.0
C42 C 0.75442 0.91111 0.12562 0.0
N43 N 0.72828 0.84655 0.13568 0.0
C44 C 0.09425 0.92271 0.14049 0.0
C45 C 0.99982 0.82773 0.12024 0.0
C46 C 0.1038 0.87676 0.15539 0.0
N47 N 0.04252 0.89753 0.12348 0.0
C48 C 1.00787 0.78006 0.13455 0.0
C49 C 0.05975 0.80432 0.15266 0.0
H50 H 0.1268 0.97846 0.14298 0.0
H51 H 0.95842 0.80905 0.10687 0.0
C52 C 0.87827 0.93262 0.0283 0.0
N53 N 0.87038 0.90982 0.05174 0.0
C54 C 0.82728 0.89385 1.01088 0.0
C55 C 0.76001 0.80971 0.04213 0.0
C56 C 0.81255 0.84981 0.05892 0.0
C57 C 0.76775 0.83105 0.0177 0.0
H58 H 0.92495 0.98033 0.02307 0.0
H59 H 0.80793 0.83179 0.07746 0.0
O60 O 0.08195 0.06008 0.11286 0.0
O61 O 0.9905 0.06668 0.07107 0.0
O62 O 0.03139 0.95609 0.06804 0.0
O63 O 0.93067 0.9479 0.1094 0.0
H64 H 0.11552 0.18429 0.13065 0.0
H65 H 0.198 0.05585 0.105 0.0
H66 H 0.23681 0.28039 0.13792 0.0
H67 H 0.31788 0.15426 0.11265 0.0
H68 H 0.8016 0.0864 0.05058 0.0
H69 H 0.05829 0.19359 0.05199 0.0
H70 H 0.85418 0.01967 0.0678 0.0
H71 H 1.00209 0.25711 0.03481 0.0
H72 H 0.2587 0.29324 0.05167 0.0
H73 H 0.24888 0.12406 1.00908 0.0
H74 H 0.92432 0.10308 0.1874 0.0
H75 H 0.96481 0.25665 0.13159 0.0
H76 H 0.93947 0.82849 0.05333 0.0
H77 H 0.15328 0.96319 0.07498 0.0
H78 H 0.96499 0.73195 0.04792 0.0
H79 H 0.17501 0.8642 0.06933 0.0
H80 H 0.86683 0.82305 0.13006 0.0
H81 H 0.84374 0.99805 0.10905 0.0
H82 H 0.74502 0.76342 0.14554 0.0
H83 H 0.72228 0.93523 0.12466 0.0
H84 H 0.14327 0.89776 0.16952 0.0
H85 H 0.97277 0.72465 0.13183 0.0
H86 H 0.83488 0.91196 0.99218 0.0
H87 H 0.71523 0.76102 0.04795 0.0
Li88 Li 0.99789 0.94859 0.40795 0.0
Li89 Li 0.07518 0.02726 0.43875 0.0
Li90 Li 0.95213 0.99303 0.43852 0.0
Li91 Li 0.03002 0.07096 0.40766 0.0
C92 C 0.94134 0.86673 0.44969 0.0
N93 N 0.83616 0.73395 0.46183 0.0
C94 C 0.94951 0.83171 0.4695 0.0
C95 C 0.87968 0.8342 0.43603 0.0
C96 C 0.89573 0.7646 0.47535 0.0
C97 C 0.82712 0.76708 0.44247 0.0
C98 C 0.13864 0.00943 0.39734 0.0
C99 C 0.22815 0.01279 0.37126 0.0
N100 N 0.23056 0.96358 0.38545 0.0
C101 C 0.14207 0.95896 0.41169 0.0
C102 C 0.18202 0.03663 0.37697 0.0
C103 C 0.18885 0.93643 0.40537 0.0
C104 C 0.95929 0.86875 0.36441 0.0
N105 N 0.97943 0.87037 0.38794 0.0
C106 C 0.98133 0.76411 0.38234 0.0
C107 C 0.98963 0.81902 0.39715 0.0
C108 C 0.96309 0.76236 0.35774 0.0
C109 C 0.9505 0.81468 0.34889 0.0
H110 H 0.95179 0.91044 0.35755 0.0
H111 H 1.00582 0.82143 0.41588 0.0
C112 C 0.13427 0.02053 0.48264 0.0
N113 N 0.15174 0.04862 0.45995 0.0
C114 C 0.18611 0.02926 0.49909 0.0
C115 C 0.27346 0.09795 0.46887 0.0
C116 C 0.21973 0.0877 0.45291 0.0
C117 C 0.25668 0.06759 0.49216 0.0
H118 H 0.0798 0.99017 0.48776 0.0
H119 H 0.23224 0.10949 0.43473 0.0
C120 C 0.8893 0.00967 0.39675 0.0
N121 N 0.79674 0.05436 0.38445 0.0
C122 C 0.88577 0.06061 0.41078 0.0
C123 C 0.84573 0.98142 0.37648 0.0
C124 C 0.83865 0.08252 0.40426 0.0
C125 C 0.79928 1.0047 0.37056 0.0
C126 C 0.08572 0.1539 0.44919 0.0
C127 C 0.077 0.18956 0.46867 0.0
C128 C 0.14775 0.186 0.43571 0.0
C129 C 0.1306 0.25688 0.47437 0.0
C130 C 0.20011 0.25335 0.442 0.0
N131 N 0.19054 0.2871 0.46104 0.0
C132 C 0.89263 1.00133 0.48204 0.0
C133 C 0.80733 0.93288 0.45246 0.0
C134 C 0.8407 0.99323 0.49835 0.0
N135 N 0.87528 0.97233 0.45949 0.0
C136 C 0.7535 0.92319 0.46829 0.0
C137 C 0.77017 0.95456 0.49142 0.0
H138 H 0.94707 0.03194 0.48716 0.0
H139 H 0.79494 0.91034 0.43439 0.0
C140 C 0.07138 0.15052 0.36403 0.0
N141 N 0.0496 0.149 0.38732 0.0
C142 C 0.08259 0.20524 0.3484 0.0
C143 C 0.05013 0.25634 0.38122 0.0
C144 C 0.0394 0.20073 0.39614 0.0
C145 C 0.07133 0.25877 0.35693 0.0
H146 H 0.07852 0.10837 0.35744 0.0
H147 H 0.02167 0.19829 0.41466 0.0
O148 O 0.99366 0.93255 0.44386 0.0
O149 O 0.09277 0.03194 0.40291 0.0
O150 O 0.93515 0.98737 0.40261 0.0
O151 O 0.03356 0.0879 0.44349 0.0
H152 H 0.99699 0.85613 0.48022 0.0
H153 H 0.87243 0.86028 0.42059 0.0
H154 H 0.90136 0.73687 0.49063 0.0
H155 H 0.77915 0.74132 0.43206 0.0
H156 H 0.262 0.03336 0.35552 0.0
H157 H 0.10901 0.93728 0.42753 0.0
H158 H 0.17994 0.07571 0.36566 0.0
H159 H 0.19196 0.89734 0.4163 0.0
H160 H 0.99056 0.72417 0.38991 0.0
H161 H 0.93668 0.81519 0.32998 0.0
H162 H 0.17118 1.00524 0.51694 0.0
H163 H 0.32722 0.12696 0.46275 0.0
H164 H 0.91889 0.083 0.42656 0.0
H165 H 0.84784 0.94191 0.36544 0.0
H166 H 0.83541 0.12192 0.41496 0.0
H167 H 0.76526 0.9833 0.35491 0.0
H168 H 0.02923 0.16549 0.47925 0.0
H169 H 0.15543 0.15944 0.42052 0.0
H170 H 0.12454 0.2851 0.4894 0.0
H171 H 0.24836 0.27879 0.43173 0.0
H172 H 0.85553 0.01801 0.51608 0.0
H173 H 0.69975 0.89383 0.46219 0.0
H174 H 0.09735 0.20428 0.32964 0.0
H175 H 0.04078 0.29651 0.38849 0.0
Li176 Li 0.05964 0.99039 0.742 0.0
Li177 Li 0.05416 0.06638 0.77309 0.0
Li178 Li 0.96376 0.94131 0.77148 0.0
Li179 Li 0.96796 0.02459 0.7405 0.0
C180 C 0.09171 0.94292 0.78572 0.0
N181 N 0.14613 0.86075 0.80099 0.0
C182 C 0.15223 0.97172 0.79997 0.0
C183 C 0.05864 0.8723 0.77937 0.0
C184 C 0.17903 0.92934 0.80746 0.0
C185 C 0.08698 0.83162 0.78724 0.0
C186 C 0.1404 0.13209 0.73267 0.0
C187 C 0.22979 0.22364 0.70808 0.0
N188 N 0.27963 0.22356 0.72261 0.0
C189 C 0.19251 0.13299 0.74738 0.0
C190 C 0.1591 0.17778 0.71287 0.0
C191 C 0.26259 0.17958 0.74198 0.0
C192 C 0.10282 0.95407 0.69852 0.0
N193 N 0.11998 0.97164 0.72231 0.0
C194 C 0.22693 0.97079 0.71699 0.0
C195 C 0.18041 0.97948 0.73174 0.0
C196 C 0.21174 0.95497 0.69218 0.0
C197 C 0.14808 0.94509 0.68305 0.0
H198 H 0.05473 0.94879 0.69142 0.0
H199 H 0.19382 0.99464 0.75052 0.0
C200 C 0.11826 0.12486 0.81757 0.0
N201 N 0.10762 0.14196 0.79483 0.0
C202 C 0.16108 0.17705 0.83399 0.0
C203 C 0.17933 0.26381 0.8036 0.0
C204 C 0.13614 0.20981 0.78771 0.0
C205 C 0.19301 0.24752 0.82696 0.0
H206 H 0.09461 0.07047 0.82275 0.0
H207 H 0.12689 0.22199 0.76948 0.0
C208 C 0.91654 0.86953 0.72452 0.0
N209 N 0.83009 0.74304 0.7021 0.0
C210 C 0.85067 0.85413 0.71606 0.0
C211 C 0.93891 0.82108 0.72119 0.0
C212 C 0.80759 0.78975 0.70489 0.0
C213 C 0.89432 0.7573 0.70991 0.0
C214 C 0.93551 0.07421 0.78281 0.0
C215 C 0.89109 0.06333 0.8025 0.0
C216 C 0.96465 0.13722 0.76995 0.0
C217 C 0.87643 0.11579 0.80901 0.0
C218 C 0.94874 0.18839 0.77703 0.0
N219 N 0.90533 0.17671 0.79625 0.0
C220 C 0.92395 0.85611 0.81366 0.0
C221 C 0.83933 0.81325 0.78215 0.0
C222 C 0.87963 0.8006 0.82884 0.0
N223 N 0.90316 0.86147 0.7908 0.0
C224 C 0.79354 0.75683 0.79664 0.0
C225 C 0.81317 0.75029 0.82042 0.0
H226 H 0.97438 0.89596 0.82033 0.0
H227 H 0.82301 0.81941 0.76425 0.0
C228 C 0.93447 0.07621 0.69802 0.0
N229 N 0.91076 0.04491 0.72004 0.0
C230 C 0.89078 0.08793 0.68266 0.0
C231 C 0.80001 0.03642 0.71323 0.0
C232 C 0.84524 0.02559 0.72793 0.0
C233 C 0.8223 0.06723 0.69015 0.0
H234 H 0.98674 0.09062 0.69218 0.0
H235 H 0.82765 1.00042 0.74547 0.0
O236 O 0.06524 0.98399 0.77813 0.0
O237 O 0.07136 0.08641 0.73736 0.0
O238 O 0.95957 0.93262 0.73531 0.0
O239 O 0.95056 0.02341 0.77634 0.0
H240 H 0.17851 0.02638 0.80502 0.0
H241 H 0.01126 0.84904 0.7687 0.0
H242 H 0.22601 0.95098 0.8184 0.0
H243 H 0.06186 0.77684 0.78247 0.0
H244 H 0.24503 0.25926 0.6928 0.0
H245 H 0.17914 0.09816 0.7628 0.0
H246 H 0.11938 0.17771 0.7013 0.0
H247 H 0.30342 0.18074 0.7532 0.0
H248 H 0.27521 0.97815 0.72478 0.0
H249 H 0.13481 0.93337 0.66397 0.0
H250 H 0.17023 0.16244 0.85189 0.0
H251 H 0.20387 0.31744 0.79737 0.0
H252 H 0.83273 0.89122 0.71829 0.0
H253 H 0.99037 0.83272 0.727 0.0
H254 H 0.75628 0.77694 0.69843 0.0
H255 H 0.91089 0.71925 0.70728 0.0
H256 H 0.86823 0.01483 0.81265 0.0
H257 H 0.99922 0.14661 0.75468 0.0
H258 H 0.84212 0.1081 0.82422 0.0
H259 H 0.97094 0.2374 0.76725 0.0
H260 H 0.89608 0.79874 0.84729 0.0
H261 H 0.74254 0.7195 0.78952 0.0
H262 H 0.90946 0.11044 0.6648 0.0
H263 H 0.7476 0.01966 0.71966 0.0
C264 C 0.96495 0.5634 0.28857 0.0
C265 C 0.95262 0.39382 0.22835 0.0
O266 O 0.02451 0.57465 0.28094 0.0
Zn267 Zn 0.06723 0.53281 0.25556 0.0
O268 O 0.90933 0.51313 0.27959 0.0
Zn269 Zn 0.95459 0.47899 0.25744 0.0
O270 O 1.0051 0.44347 0.28226 0.0
O271 O 0.11948 0.50514 0.27696 0.0
O272 O 0.90061 0.39626 0.23716 0.0
O273 O 0.01484 0.44143 0.23374 0.0
O274 O 0.11395 0.60844 0.23183 0.0
O275 O 0.99948 0.56088 0.23144 0.0
C276 C 0.06675 0.45637 0.28791 0.0
C277 C 0.0595 0.60647 0.22326 0.0
C278 C 0.62198 0.06593 0.62077 0.0
C279 C 0.46066 0.06443 0.55875 0.0
O280 O 0.57364 1.00495 0.61432 0.0
Zn281 Zn 0.48718 0.95664 0.58987 0.0
O282 O 0.62512 0.11965 0.61093 0.0
Zn283 Zn 0.54429 0.06973 0.58955 0.0
O284 O 0.46072 0.02268 0.61513 0.0
O285 O 0.40848 0.9078 0.61224 0.0
O286 O 0.51277 0.11847 0.56775 0.0
O287 O 0.44793 1.00383 0.56567 0.0
O288 O 0.51666 0.90681 0.56773 0.0
O289 O 0.58137 0.02135 0.56497 0.0
C290 C 0.4133 0.96206 0.62224 0.0
C291 C 0.56805 0.96045 0.55821 0.0
C292 C 0.45437 0.41502 0.95679 0.0
C293 C 0.61106 0.55785 0.89061 0.0
O294 O 0.44237 0.46194 0.94832 0.0
Zn295 Zn 0.4807 0.54264 0.92187 0.0
O296 O 0.50554 0.41035 0.94832 0.0
Zn297 Zn 0.53596 0.48498 0.92397 0.0
O298 O 0.57879 0.57755 0.94531 0.0
O299 O 0.51327 0.62664 0.94178 0.0
O300 O 0.61367 0.5086 0.90173 0.0
O301 O 0.56442 0.57342 0.89658 0.0
O302 O 0.40021 0.50948 0.90023 0.0
O303 O 0.44864 0.44316 0.89979 0.0
C304 C 0.56676 0.627 0.95055 0.0
C305 C 0.40115 0.45581 0.89228 0.0
C306 C 0.89508 0.26062 0.17714 0.0
C307 C 0.93977 0.23288 0.18028 0.0
C308 C 0.89642 0.31035 0.19349 0.0
C309 C 0.94371 0.33492 0.21308 0.0
H310 H 0.85969 0.24451 0.16174 0.0
H311 H 0.86255 0.33182 0.19019 0.0
S312 S 0.06966 0.27711 0.22975 0.0
N313 N 0.03062 0.23201 0.20497 0.0
N314 N 0.03381 0.32567 0.23539 0.0
C315 C 0.98728 0.30626 0.21671 0.0
C316 C 0.98517 0.25517 0.20038 0.0
C317 C 0.7242 0.01602 0.51666 0.0
C318 C 0.71554 0.95281 0.50761 0.0
C319 C 0.67543 0.01729 0.53252 0.0
C320 C 0.61575 0.95527 0.54025 0.0
H321 H 0.76927 0.06525 0.51141 0.0
H322 H 0.68553 0.06781 0.53899 0.0
S323 S 0.56839 0.77556 0.52138 0.0
N324 N 0.64264 0.82638 0.50702 0.0
N325 N 0.55037 0.82839 0.53711 0.0
C326 C 0.60582 0.89142 0.53105 0.0
C327 C 0.65572 0.89028 0.51464 0.0
C328 C 0.69405 0.68659 0.83877 0.0
C329 C 0.76161 0.6958 0.8371 0.0
C330 C 0.64548 0.64 0.85554 0.0
C331 C 0.66205 0.6002 0.87138 0.0
H332 H 0.67916 0.71743 0.82758 0.0
H333 H 0.59474 0.63628 0.85638 0.0
S334 S 0.83044 0.60132 0.87318 0.0
N335 N 0.84169 0.65853 0.85174 0.0
N336 N 0.75012 0.57085 0.88353 0.0
C337 C 0.72864 0.60696 0.86937 0.0
C338 C 0.77851 0.65495 0.85225 0.0
C339 C 1.00046 0.70177 0.18051 0.0
C340 C 0.06278 0.75411 0.17 0.0
C341 C 1.00056 0.65442 0.19735 0.0
C342 C 0.06305 0.65711 0.20461 0.0
H343 H 0.95094 0.69801 0.17603 0.0
H344 H 0.95074 0.61579 0.20493 0.0
S345 S 0.24064 0.78277 0.18173 0.0
N346 N 0.18882 0.80483 0.16736 0.0
N347 N 0.18929 0.71601 0.1994 0.0
C348 C 0.126 0.70889 0.1941 0.0
C349 C 0.12581 0.75737 0.17679 0.0
C350 C 0.30239 1.00723 0.51815 0.0
C351 C 0.3113 0.07 0.50853 0.0
C352 C 0.35156 1.00661 0.53397 0.0
C353 C 0.41194 0.06886 0.54108 0.0
H354 H 0.25694 0.95783 0.51331 0.0
H355 H 0.34136 0.95642 0.54085 0.0
S356 S 0.45985 0.24762 0.52078 0.0
N357 N 0.38491 0.19628 0.50691 0.0
N358 N 0.47795 0.19547 0.53689 0.0
C359 C 0.42193 0.13227 0.53141 0.0
C360 C 0.37161 0.13274 0.51505 0.0
C361 C 0.29866 0.29414 0.85328 0.0
C362 C 0.24498 0.30269 0.84325 0.0
C363 C 0.34875 0.34437 0.86877 0.0
C364 C 0.34741 0.40554 0.87509 0.0
H365 H 0.30239 0.24827 0.84896 0.0
H366 H 0.38868 0.33452 0.87594 0.0
S367 S 0.21686 0.45263 0.85369 0.0
N368 N 0.19277 0.37659 0.84059 0.0
N369 N 0.28723 0.47165 0.86988 0.0
C370 C 0.29403 0.41504 0.86508 0.0
C371 C 0.24291 0.36361 0.8491 0.0
C372 C 0.70607 0.01141 0.66971 0.0
C373 C 0.77182 0.07114 0.67323 0.0
C374 C 0.65804 0.01136 0.65314 0.0
C375 C 0.67333 0.07114 0.63934 0.0
H376 H 0.69211 0.96349 0.67943 0.0
H377 H 0.60857 0.96339 0.651 0.0
S378 S 0.83713 0.24257 0.64274 0.0
N379 N 0.8491 0.19283 0.66238 0.0
N380 N 0.75854 0.19281 0.631 0.0
C381 C 0.73834 0.13198 0.64308 0.0
C382 C 0.78769 0.13188 0.65999 0.0
C383 C 0.64501 0.76002 1.00174 0.0
C384 C 0.71707 0.78459 0.99911 0.0
C385 C 0.59615 0.71148 0.98521 0.0
C386 C 0.61789 0.68488 0.96594 0.0
H387 H 0.62635 0.77776 0.01687 0.0
H388 H 0.54104 0.69248 0.98813 0.0
S389 S 0.8005 0.73419 0.95067 0.0
N390 N 0.80755 0.78037 0.97525 0.0
N391 N 0.71613 0.68881 0.94452 0.0
C392 C 0.68983 0.71033 0.96284 0.0
C393 C 0.73935 0.76028 0.97934 0.0
C394 C 0.90446 0.6689 0.32583 0.0
C395 C 0.9623 0.70916 0.34101 0.0
C396 C 0.90438 0.61993 0.30943 0.0
C397 C 0.96266 0.61049 0.30738 0.0
H398 H 0.85906 0.67541 0.32662 0.0
H399 H 0.8592 0.59072 0.29784 0.0
S400 S 0.1269 0.70303 0.34331 0.0
N401 N 0.07896 0.7362 0.35306 0.0
N402 N 0.079 0.64447 0.32255 0.0
C403 C 0.0204 0.65 0.32274 0.0
C404 C 0.02019 0.69924 0.33946 0.0
C405 C 0.24664 0.89867 0.65938 0.0
C406 C 0.2646 0.95465 0.67554 0.0
C407 C 0.29574 0.89969 0.64279 0.0
C408 C 0.36405 0.9573 0.64155 0.0
H409 H 0.19418 0.85402 0.65946 0.0
H410 H 0.2794 0.85619 0.63035 0.0
S411 S 0.43721 0.11644 0.68029 0.0
N412 N 0.35546 0.06866 0.68943 0.0
N413 N 0.44756 0.0706 0.65863 0.0
C414 C 0.38279 0.01292 0.65798 0.0
C415 C 0.33313 0.01162 0.67486 0.0
C416 C 0.3708 0.26506 1.00272 0.0
C417 C 0.31093 0.26706 1.01028 0.0
C418 C 0.41766 0.3135 0.98568 0.0
C419 C 0.40606 0.36538 0.97549 0.0
H420 H 0.38167 0.22606 1.01014 0.0
H421 H 0.46302 0.30996 0.9804 0.0
S422 S 0.25363 0.38912 0.98824 0.0
N423 N 0.24058 0.32248 1.00545 0.0
N424 N 0.32798 0.41364 0.97392 0.0
C425 C 0.3457 0.36717 0.98286 0.0
C426 C 0.29835 0.31801 1.0001 0.0
C427 C 0.01911 0.32649 0.33947 0.0
C428 C 0.07512 0.3134 0.34016 0.0
C429 C 0.0184 0.37441 0.32301 0.0
C430 C 0.07386 0.41179 0.30658 0.0
H431 H 0.97429 0.29792 0.35129 0.0
H432 H 0.97322 0.38137 0.32296 0.0
S433 S 0.23483 0.39942 0.30187 0.0
N434 N 0.18907 0.34375 0.32374 0.0
N435 N 0.18766 0.43405 0.29258 0.0
C436 C 0.13128 0.40081 0.3075 0.0
C437 C 0.13179 0.35139 0.32426 0.0
loop_
_geom_bond_atom_site_label_1
_geom_bond_atom_site_label_2
_geom_bond_distance
_geom_bond_site_symmetry_2
_ccdc_geom_bond_type
Li0 N17 1.990 . S
Li0 O60 1.956 . S
Li0 O61 1.970 1_455 S
Li0 O62 1.961 1_545 S
Li1 N25 1.990 . S
Li1 O60 1.970 1_655 S
Li1 O61 1.956 . S
Li1 O63 1.961 1_545 S
Li2 N47 1.990 . S
Li2 O60 1.961 1_565 S
Li2 O62 1.956 . S
Li2 O63 1.970 1_455 S
Li3 N53 1.990 . S
Li3 O61 1.961 1_565 S
Li3 O62 1.970 1_655 S
Li3 O63 1.956 . S
C4 C6 1.348 . S
C4 C7 1.356 . S
C4 O60 1.325 . S
N5 C8 1.314 . S
N5 C9 1.279 . S
C6 C4 1.348 . S
C6 C8 1.353 . S
C6 H64 0.929 . S
C7 C4 1.356 . S
C7 C9 1.358 . S
C7 H65 0.930 . S
C8 N5 1.314 . S
C8 C6 1.353 . S
C8 H66 0.930 . S
C9 N5 1.279 . S
C9 C7 1.358 . S
C9 H67 0.930 . S
C10 C13 1.348 1_655 S
C10 C14 1.356 . S
C10 O61 1.325 . S
C11 N12 1.279 . S
C11 C14 1.358 . S
C11 H68 0.930 . S
N12 C11 1.279 . S
N12 C15 1.314 . S
C13 C10 1.348 1_455 S
C13 C15 1.353 1_455 S
C13 H69 0.929 . S
C14 C10 1.356 . S
C14 C11 1.358 . S
C14 H70 0.930 . S
C15 N12 1.314 . S
C15 C13 1.353 1_655 S
C15 H71 0.930 1_655 S
C16 N17 1.314 . S
C16 C21 1.353 . S
C16 H22 0.930 . S
N17 Li0 1.990 . S
N17 C16 1.314 . S
N17 C19 1.279 . S
C18 C19 1.358 . S
C18 C20 1.356 . S
C18 H72 0.930 . S
C19 N17 1.279 . S
C19 C18 1.358 . S
C19 H23 0.930 . S
C20 C18 1.356 . S
C20 C21 1.348 . S
C21 C16 1.353 . S
C21 C20 1.348 . S
C21 H73 0.929 1_554 S
H22 C16 0.930 . S
H23 C19 0.930 . S
C24 N25 1.314 . S
C24 C26 1.353 . S
C24 H30 0.930 . S
N25 Li1 1.990 . S
N25 C24 1.314 . S
N25 C28 1.279 . S
C26 C24 1.353 . S
C26 C29 1.348 . S
C26 H74 0.929 . S
C27 C28 1.358 . S
C27 C29 1.356 . S
C27 H75 0.930 . S
C28 N25 1.279 . S
C28 C27 1.358 . S
C28 H31 0.930 . S
C29 C26 1.348 . S
C29 C27 1.356 . S
H30 C24 0.930 . S
H31 C28 0.930 . S
C32 C34 1.348 1_455 S
C32 C35 1.356 . S
C32 O62 1.325 . S
N33 C36 1.314 . S
N33 C37 1.279 . S
C34 C32 1.348 1_655 S
C34 C36 1.353 1_655 S
C34 H76 0.929 . S
C35 C32 1.356 . S
C35 C37 1.358 . S
C35 H77 0.930 . S
C36 N33 1.314 . S
C36 C34 1.353 1_455 S
C36 H78 0.930 1_455 S
C37 N33 1.279 . S
C37 C35 1.358 . S
C37 H79 0.930 . S
C38 C39 1.348 . S
C38 C40 1.356 . S
C38 O63 1.325 . S
C39 C38 1.348 . S
C39 C41 1.353 . S
C39 H80 0.929 . S
C40 C38 1.356 . S
C40 C42 1.358 . S
C40 H81 0.930 . S
C41 C39 1.353 . S
C41 N43 1.314 . S
C41 H82 0.930 . S
C42 C40 1.358 . S
C42 N43 1.279 . S
C42 H83 0.930 . S
N43 C41 1.314 . S
N43 C42 1.279 . S
C44 C46 1.353 . S
C44 N47 1.314 . S
C44 H50 0.930 . S
C45 N47 1.279 . S
C45 C48 1.358 . S
C45 H51 0.930 . S
C46 C44 1.353 . S
C46 C49 1.348 . S
C46 H84 0.929 . S
N47 Li2 1.990 . S
N47 C44 1.314 . S
N47 C45 1.279 . S
C48 C45 1.358 . S
C48 C49 1.356 . S
C48 H85 0.930 . S
C49 C46 1.348 . S
C49 C48 1.356 . S
H50 C44 0.930 . S
H51 C45 0.930 . S
C52 N53 1.314 . S
C52 C54 1.353 . S
C52 H58 0.930 . S
N53 Li3 1.990 . S
N53 C52 1.314 . S
N53 C56 1.279 . S
C54 C52 1.353 . S
C54 C57 1.348 . S
C54 H86 0.929 1_554 S
C55 C56 1.358 . S
C55 C57 1.356 . S
C55 H87 0.930 . S
C56 N53 1.279 . S
C56 C55 1.358 . S
C56 H59 0.930 . S
C57 C54 1.348 . S
C57 C55 1.356 . S
H58 C52 0.930 . S
H59 C56 0.930 . S
O60 Li0 1.956 . S
O60 Li1 1.970 1_455 S
O60 Li2 1.961 1_545 S
O60 C4 1.325 . S
O61 Li0 1.970 1_655 S
O61 Li1 1.956 . S
O61 Li3 1.961 1_545 S
O61 C10 1.325 . S
O62 Li0 1.961 1_565 S
O62 Li2 1.956 . S
O62 Li3 1.970 1_455 S
O62 C32 1.325 . S
O63 Li1 1.961 1_565 S
O63 Li2 1.970 1_655 S
O63 Li3 1.956 . S
O63 C38 1.325 . S
H64 C6 0.929 . S
H65 C7 0.930 . S
H66 C8 0.930 . S
H67 C9 0.930 . S
H68 C11 0.930 . S
H69 C13 0.929 . S
H70 C14 0.930 . S
H71 C15 0.930 1_455 S
H72 C18 0.930 . S
H73 C21 0.929 1_556 S
H74 C26 0.929 . S
H75 C27 0.930 . S
H76 C34 0.929 . S
H77 C35 0.930 . S
H78 C36 0.930 1_655 S
H79 C37 0.930 . S
H80 C39 0.929 . S
H81 C40 0.930 . S
H82 C41 0.930 . S
H83 C42 0.930 . S
H84 C46 0.929 . S
H85 C48 0.930 . S
H86 C54 0.929 1_556 S
H87 C55 0.930 . S
Li88 N105 1.990 . S
Li88 O148 1.956 . S
Li88 O149 1.970 1_665 S
Li88 O150 1.961 . S
Li89 N113 1.990 . S
Li89 O148 1.970 1_445 S
Li89 O149 1.956 . S
Li89 O151 1.961 . S
Li90 N135 1.990 . S
Li90 O148 1.961 . S
Li90 O150 1.956 . S
Li90 O151 1.970 1_665 S
Li91 N141 1.990 . S
Li91 O149 1.961 . S
Li91 O150 1.970 1_445 S
Li91 O151 1.956 . S
C92 C94 1.348 1_655 S
C92 C95 1.356 . S
C92 O148 1.325 . S
N93 C96 1.314 . S
N93 C97 1.279 . S
C94 C92 1.348 1_455 S
C94 C96 1.353 1_455 S
C94 H152 0.929 . S
C95 C92 1.356 . S
C95 C97 1.358 . S
C95 H153 0.930 . S
C96 N93 1.314 . S
C96 C94 1.353 1_655 S
C96 H154 0.930 1_655 S
C97 N93 1.279 . S
C97 C95 1.358 . S
C97 H155 0.930 . S
C98 C101 1.348 1_545 S
C98 C102 1.356 . S
C98 O149 1.325 . S
C99 N100 1.279 . S
C99 C102 1.358 . S
C99 H156 0.930 . S
N100 C99 1.279 . S
N100 C103 1.314 . S
C101 C98 1.348 1_565 S
C101 C103 1.353 1_565 S
C101 H157 0.929 . S
C102 C98 1.356 . S
C102 C99 1.358 . S
C102 H158 0.930 . S
C103 N100 1.314 . S
C103 C101 1.353 1_545 S
C103 H159 0.930 1_545 S
C104 N105 1.314 . S
C104 C109 1.353 . S
C104 H110 0.930 . S
N105 Li88 1.990 . S
N105 C104 1.314 . S
N105 C107 1.279 . S
C106 C107 1.358 . S
C106 C108 1.356 . S
C106 H160 0.930 . S
C107 N105 1.279 . S
C107 C106 1.358 . S
C107 H111 0.930 . S
C108 C106 1.356 . S
C108 C109 1.348 . S
C109 C104 1.353 . S
C109 C108 1.348 . S
C109 H161 0.929 . S
H110 C104 0.930 . S
H111 C107 0.930 . S
C112 N113 1.314 . S
C112 C114 1.353 . S
C112 H118 0.930 . S
N113 Li89 1.990 . S
N113 C112 1.314 . S
N113 C116 1.279 . S
C114 C112 1.353 . S
C114 C117 1.348 . S
C114 H162 0.929 . S
C115 C116 1.358 . S
C115 C117 1.356 . S
C115 H163 0.930 . S
C116 N113 1.279 . S
C116 C115 1.358 . S
C116 H119 0.930 . S
C117 C114 1.348 . S
C117 C115 1.356 . S
H118 C112 0.930 . S
H119 C116 0.930 . S
C120 C122 1.348 1_565 S
C120 C123 1.356 . S
C120 O150 1.325 . S
N121 C124 1.314 . S
N121 C125 1.279 . S
C122 C120 1.348 1_545 S
C122 C124 1.353 1_545 S
C122 H164 0.929 . S
C123 C120 1.356 . S
C123 C125 1.358 . S
C123 H165 0.930 . S
C124 N121 1.314 . S
C124 C122 1.353 1_565 S
C124 H166 0.930 1_565 S
C125 N121 1.279 . S
C125 C123 1.358 . S
C125 H167 0.930 . S
C126 C127 1.348 1_455 S
C126 C128 1.356 . S
C126 O151 1.325 . S
C127 C126 1.348 1_655 S
C127 C129 1.353 1_655 S
C127 H168 0.929 . S
C128 C126 1.356 . S
C128 C130 1.358 . S
C128 H169 0.930 . S
C129 C127 1.353 1_455 S
C129 N131 1.314 . S
C129 H170 0.930 1_455 S
C130 C128 1.358 . S
C130 N131 1.279 . S
C130 H171 0.930 . S
N131 C129 1.314 . S
N131 C130 1.279 . S
C132 C134 1.353 . S
C132 N135 1.314 . S
C132 H138 0.930 . S
C133 N135 1.279 . S
C133 C136 1.358 . S
C133 H139 0.930 . S
C134 C132 1.353 . S
C134 C137 1.348 . S
C134 H172 0.929 . S
N135 Li90 1.990 . S
N135 C132 1.314 . S
N135 C133 1.279 . S
C136 C133 1.358 . S
C136 C137 1.356 . S
C136 H173 0.930 . S
C137 C134 1.348 . S
C137 C136 1.356 . S
H138 C132 0.930 . S
H139 C133 0.930 . S
C140 N141 1.314 . S
C140 C142 1.353 . S
C140 H146 0.930 . S
N141 Li91 1.990 . S
N141 C140 1.314 . S
N141 C144 1.279 . S
C142 C140 1.353 . S
C142 C145 1.348 . S
C142 H174 0.929 . S
C143 C144 1.358 . S
C143 C145 1.356 . S
C143 H175 0.930 . S
C144 N141 1.279 . S
C144 C143 1.358 . S
C144 H147 0.930 . S
C145 C142 1.348 . S
C145 C143 1.356 . S
H146 C140 0.930 . S
H147 C144 0.930 . S
O148 Li88 1.956 . S
O148 Li89 1.970 1_665 S
O148 Li90 1.961 . S
O148 C92 1.325 . S
O149 Li88 1.970 1_445 S
O149 Li89 1.956 . S
O149 Li91 1.961 . S
O149 C98 1.325 . S
O150 Li88 1.961 . S
O150 Li90 1.956 . S
O150 Li91 1.970 1_665 S
O150 C120 1.325 . S
O151 Li89 1.961 . S
O151 Li90 1.970 1_445 S
O151 Li91 1.956 . S
O151 C126 1.325 . S
H152 C94 0.929 . S
H153 C95 0.930 . S
H154 C96 0.930 1_455 S
H155 C97 0.930 . S
H156 C99 0.930 . S
H157 C101 0.929 . S
H158 C102 0.930 . S
H159 C103 0.930 1_565 S
H160 C106 0.930 . S
H161 C109 0.929 . S
H162 C114 0.929 . S
H163 C115 0.930 . S
H164 C122 0.929 . S
H165 C123 0.930 . S
H166 C124 0.930 1_545 S
H167 C125 0.930 . S
H168 C127 0.929 . S
H169 C128 0.930 . S
H170 C129 0.930 1_655 S
H171 C130 0.930 . S
H172 C134 0.929 . S
H173 C136 0.930 . S
H174 C142 0.929 . S
H175 C143 0.930 . S
Li176 N193 1.990 . S
Li176 O236 1.956 . S
Li176 O237 1.970 1_565 S
Li176 O238 1.961 1_455 S
Li177 N201 1.990 . S
Li177 O236 1.970 1_545 S
Li177 O237 1.956 . S
Li177 O239 1.961 1_455 S
Li178 N223 1.990 . S
Li178 O236 1.961 1_655 S
Li178 O238 1.956 . S
Li178 O239 1.970 1_565 S
Li179 N229 1.990 . S
Li179 O237 1.961 1_655 S
Li179 O238 1.970 1_545 S
Li179 O239 1.956 . S
C180 C182 1.348 1_565 S
C180 C183 1.356 . S
C180 O236 1.325 . S
N181 C184 1.314 . S
N181 C185 1.279 . S
C182 C180 1.348 1_545 S
C182 C184 1.353 1_545 S
C182 H240 0.929 . S
C183 C180 1.356 . S
C183 C185 1.358 . S
C183 H241 0.930 . S
C184 N181 1.314 . S
C184 C182 1.353 1_565 S
C184 H242 0.930 1_565 S
C185 N181 1.279 . S
C185 C183 1.358 . S
C185 H243 0.930 . S
C186 C189 1.348 . S
C186 C190 1.356 . S
C186 O237 1.325 . S
C187 N188 1.279 . S
C187 C190 1.358 . S
C187 H244 0.930 . S
N188 C187 1.279 . S
N188 C191 1.314 . S
C189 C186 1.348 . S
C189 C191 1.353 . S
C189 H245 0.929 . S
C190 C186 1.356 . S
C190 C187 1.358 . S
C190 H246 0.930 . S
C191 N188 1.314 . S
C191 C189 1.353 . S
C191 H247 0.930 . S
C192 N193 1.314 . S
C192 C197 1.353 . S
C192 H198 0.930 . S
N193 Li176 1.990 . S
N193 C192 1.314 . S
N193 C195 1.279 . S
C194 C195 1.358 . S
C194 C196 1.356 . S
C194 H248 0.930 . S
C195 N193 1.279 . S
C195 C194 1.358 . S
C195 H199 0.930 . S
C196 C194 1.356 . S
C196 C197 1.348 . S
C197 C192 1.353 . S
C197 C196 1.348 . S
C197 H249 0.929 . S
H198 C192 0.930 . S
H199 C195 0.930 . S
C200 N201 1.314 . S
C200 C202 1.353 . S
C200 H206 0.930 . S
N201 Li177 1.990 . S
N201 C200 1.314 . S
N201 C204 1.279 . S
C202 C200 1.353 . S
C202 C205 1.348 . S
C202 H250 0.929 . S
C203 C204 1.358 . S
C203 C205 1.356 . S
C203 H251 0.930 . S
C204 N201 1.279 . S
C204 C203 1.358 . S
C204 H207 0.930 . S
C205 C202 1.348 . S
C205 C203 1.356 . S
H206 C200 0.930 . S
H207 C204 0.930 . S
C208 C210 1.348 . S
C208 C211 1.356 . S
C208 O238 1.325 . S
N209 C212 1.314 . S
N209 C213 1.279 . S
C210 C208 1.348 . S
C210 C212 1.353 . S
C210 H252 0.929 . S
C211 C208 1.356 . S
C211 C213 1.358 . S
C211 H253 0.930 . S
C212 N209 1.314 . S
C212 C210 1.353 . S
C212 H254 0.930 . S
C213 N209 1.279 . S
C213 C211 1.358 . S
C213 H255 0.930 . S
C214 C215 1.348 1_545 S
C214 C216 1.356 . S
C214 O239 1.325 . S
C215 C214 1.348 1_565 S
C215 C217 1.353 1_565 S
C215 H256 0.929 . S
C216 C214 1.356 . S
C216 C218 1.358 . S
C216 H257 0.930 . S
C217 C215 1.353 1_545 S
C217 N219 1.314 . S
C217 H258 0.930 1_545 S
C218 C216 1.358 . S
C218 N219 1.279 . S
C218 H259 0.930 . S
N219 C217 1.314 . S
N219 C218 1.279 . S
C220 C222 1.353 . S
C220 N223 1.314 . S
C220 H226 0.930 . S
C221 N223 1.279 . S
C221 C224 1.358 . S
C221 H227 0.930 . S
C222 C220 1.353 . S
C222 C225 1.348 . S
C222 H260 0.929 . S
N223 Li178 1.990 . S
N223 C220 1.314 . S
N223 C221 1.279 . S
C224 C221 1.358 . S
C224 C225 1.356 . S
C224 H261 0.930 . S
C225 C222 1.348 . S
C225 C224 1.356 . S
H226 C220 0.930 . S
H227 C221 0.930 . S
C228 N229 1.314 . S
C228 C230 1.353 . S
C228 H234 0.930 . S
N229 Li179 1.990 . S
N229 C228 1.314 . S
N229 C232 1.279 . S
C230 C228 1.353 . S
C230 C233 1.348 . S
C230 H262 0.929 . S
C231 C232 1.358 . S
C231 C233 1.356 . S
C231 H263 0.930 . S
C232 N229 1.279 . S
C232 C231 1.358 . S
C232 H235 0.930 . S
C233 C230 1.348 . S
C233 C231 1.356 . S
H234 C228 0.930 . S
H235 C232 0.930 . S
O236 Li176 1.956 . S
O236 Li177 1.970 1_565 S
O236 Li178 1.961 1_455 S
O236 C180 1.325 . S
O237 Li176 1.970 1_545 S
O237 Li177 1.956 . S
O237 Li179 1.961 1_455 S
O237 C186 1.325 . S
O238 Li176 1.961 1_655 S
O238 Li178 1.956 . S
O238 Li179 1.970 1_565 S
O238 C208 1.325 . S
O239 Li177 1.961 1_655 S
O239 Li178 1.970 1_545 S
O239 Li179 1.956 . S
O239 C214 1.325 . S
H240 C182 0.929 . S
H241 C183 0.930 . S
H242 C184 0.930 1_545 S
H243 C185 0.930 . S
H244 C187 0.930 . S
H245 C189 0.929 . S
H246 C190 0.930 . S
H247 C191 0.930 . S
H248 C194 0.930 . S
H249 C197 0.929 . S
H250 C202 0.929 . S
H251 C203 0.930 . S
H252 C210 0.929 . S
H253 C211 0.930 . S
H254 C212 0.930 . S
H255 C213 0.930 . S
H256 C215 0.929 . S
H257 C216 0.930 . S
H258 C217 0.930 1_565 S
H259 C218 0.930 . S
H260 C222 0.929 . S
H261 C224 0.930 . S
H262 C230 0.929 . S
H263 C231 0.930 . S
C264 O266 1.252 . S
C264 O268 1.255 1_455 S
C265 O272 1.248 . S
C265 O273 1.258 1_655 S
O266 C264 1.252 . S
O266 Zn267 2.028 . S
Zn267 O266 2.028 . S
Zn267 O271 2.035 . S
Zn267 O273 2.035 . S
Zn267 O274 2.028 . S
O268 C264 1.255 1_655 S
O268 Zn269 2.035 . S
Zn269 O268 2.035 . S
Zn269 O270 2.028 . S
Zn269 O272 2.028 . S
Zn269 O275 2.035 . S
O270 Zn269 2.028 . S
O270 C276 1.248 . S
O271 Zn267 2.035 . S
O271 C276 1.258 1_455 S
O272 C265 1.248 . S
O272 Zn269 2.028 . S
O273 C265 1.258 1_455 S
O273 Zn267 2.035 . S
O274 Zn267 2.028 . S
O274 C277 1.252 . S
O275 Zn269 2.035 . S
O275 C277 1.255 1_655 S
C276 O270 1.248 . S
C276 O271 1.258 1_655 S
C277 O274 1.252 . S
C277 O275 1.255 1_455 S
C278 O280 1.247 . S
C278 O282 1.257 1_565 S
C279 O286 1.250 . S
C279 O287 1.253 1_545 S
O280 C278 1.247 . S
O280 Zn281 2.028 . S
Zn281 O280 2.028 . S
Zn281 O285 2.035 . S
Zn281 O287 2.035 . S
Zn281 O288 2.028 . S
O282 C278 1.257 1_545 S
O282 Zn283 2.035 . S
Zn283 O282 2.035 . S
Zn283 O284 2.028 . S
Zn283 O286 2.028 . S
Zn283 O289 2.035 . S
O284 Zn283 2.028 . S
O284 C290 1.250 . S
O285 Zn281 2.035 . S
O285 C290 1.253 1_565 S
O286 C279 1.250 . S
O286 Zn283 2.028 . S
O287 C279 1.253 1_565 S
O287 Zn281 2.035 . S
O288 Zn281 2.028 . S
O288 C291 1.247 . S
O289 Zn283 2.035 . S
O289 C291 1.257 1_545 S
C290 O284 1.250 . S
C290 O285 1.253 1_545 S
C291 O288 1.247 . S
C291 O289 1.257 1_565 S
C292 O294 1.247 . S
C292 O296 1.258 . S
C293 O300 1.247 . S
C293 O301 1.258 . S
O294 C292 1.247 . S
O294 Zn295 2.028 . S
Zn295 O294 2.028 . S
Zn295 O299 2.035 . S
Zn295 O301 2.035 . S
Zn295 O302 2.028 . S
O296 C292 1.258 . S
O296 Zn297 2.035 . S
Zn297 O296 2.035 . S
Zn297 O298 2.028 . S
Zn297 O300 2.028 . S
Zn297 O303 2.035 . S
O298 Zn297 2.028 . S
O298 C304 1.247 . S
O299 Zn295 2.035 . S
O299 C304 1.258 . S
O300 C293 1.247 . S
O300 Zn297 2.028 . S
O301 C293 1.258 . S
O301 Zn295 2.035 . S
O302 Zn295 2.028 . S
O302 C305 1.247 . S
O303 Zn297 2.035 . S
O303 C305 1.258 . S
C304 O298 1.247 . S
C304 O299 1.258 . S
C305 O302 1.247 . S
C305 O303 1.258 . S
C306 C307 1.369 . S
C306 C308 1.419 . S
C306 H310 0.930 . S
C307 C306 1.369 . S
C307 C316 1.429 . S
C308 C306 1.419 . S
C308 C309 1.363 . S
C308 H311 0.929 . S
C309 C308 1.363 . S
C309 C315 1.428 1_655 S
H310 C306 0.930 . S
H311 C308 0.929 . S
S312 N313 1.613 . S
S312 N314 1.610 . S
N313 S312 1.613 . S
N313 C316 1.350 1_455 S
N314 S312 1.610 . S
N314 C315 1.351 . S
C315 C309 1.428 1_455 S
C315 N314 1.351 . S
C315 C316 1.434 1_455 S
C316 C307 1.429 . S
C316 N313 1.350 1_655 S
C316 C315 1.434 1_655 S
C317 C318 1.369 . S
C317 C319 1.419 . S
C317 H321 0.930 . S
C318 C317 1.369 . S
C318 C327 1.429 . S
C319 C317 1.419 . S
C319 C320 1.363 . S
C319 H322 0.929 . S
C320 C319 1.363 . S
C320 C326 1.428 . S
H321 C317 0.930 . S
H322 C319 0.929 . S
S323 N324 1.613 . S
S323 N325 1.610 . S
N324 S323 1.613 . S
N324 C327 1.350 . S
N325 S323 1.610 . S
N325 C326 1.351 . S
C326 C320 1.428 . S
C326 N325 1.351 . S
C326 C327 1.434 . S
C327 C318 1.429 . S
C327 N324 1.350 . S
C327 C326 1.434 . S
C328 C329 1.369 . S
C328 C330 1.419 . S
C328 H332 0.930 . S
C329 C328 1.369 . S
C329 C338 1.429 . S
C330 C328 1.419 . S
C330 C331 1.363 . S
C330 H333 0.929 . S
C331 C330 1.363 . S
C331 C337 1.428 . S
H332 C328 0.930 . S
H333 C330 0.929 . S
S334 N335 1.613 . S
S334 N336 1.610 . S
N335 S334 1.613 . S
N335 C338 1.350 . S
N336 S334 1.610 . S
N336 C337 1.351 . S
C337 C331 1.428 . S
C337 N336 1.351 . S
C337 C338 1.434 . S
C338 C329 1.429 . S
C338 N335 1.350 . S
C338 C337 1.434 . S
C339 C340 1.365 1_655 S
C339 C341 1.418 . S
C339 H343 0.935 . S
C340 C339 1.365 1_455 S
C340 C349 1.429 . S
C341 C339 1.418 . S
C341 C342 1.363 1_655 S
C341 H344 0.929 . S
C342 C341 1.363 1_455 S
C342 C348 1.428 . S
H343 C339 0.935 . S
H344 C341 0.929 . S
S345 N346 1.613 . S
S345 N347 1.610 . S
N346 S345 1.613 . S
N346 C349 1.350 . S
N347 S345 1.610 . S
N347 C348 1.351 . S
C348 C342 1.428 . S
C348 N347 1.351 . S
C348 C349 1.434 . S
C349 C340 1.429 . S
C349 N346 1.350 . S
C349 C348 1.434 . S
C350 C351 1.369 . S
C350 C352 1.419 . S
C350 H354 0.930 . S
C351 C350 1.369 . S
C351 C360 1.429 . S
C352 C350 1.419 . S
C352 C353 1.363 . S
C352 H355 0.929 1_545 S
C353 C352 1.363 . S
C353 C359 1.428 . S
H354 C350 0.930 . S
H355 C352 0.929 1_565 S
S356 N357 1.613 . S
S356 N358 1.610 . S
N357 S356 1.613 . S
N357 C360 1.350 . S
N358 S356 1.610 . S
N358 C359 1.351 . S
C359 C353 1.428 . S
C359 N358 1.351 . S
C359 C360 1.434 . S
C360 C351 1.429 . S
C360 N357 1.350 . S
C360 C359 1.434 . S
C361 C362 1.369 . S
C361 C363 1.419 . S
C361 H365 0.930 . S
C362 C361 1.369 . S
C362 C371 1.429 . S
C363 C361 1.419 . S
C363 C364 1.363 . S
C363 H366 0.929 . S
C364 C363 1.363 . S
C364 C370 1.428 . S
H365 C361 0.930 . S
H366 C363 0.929 . S
S367 N368 1.613 . S
S367 N369 1.610 . S
N368 S367 1.613 . S
N368 C371 1.350 . S
N369 S367 1.610 . S
N369 C370 1.351 . S
C370 C364 1.428 . S
C370 N369 1.351 . S
C370 C371 1.434 . S
C371 C362 1.429 . S
C371 N368 1.350 . S
C371 C370 1.434 . S
C372 C373 1.369 . S
C372 C374 1.419 . S
C372 H376 0.930 . S
C373 C372 1.369 . S
C373 C382 1.429 . S
C374 C372 1.419 . S
C374 C375 1.363 . S
C374 H377 0.929 1_545 S
C375 C374 1.363 . S
C375 C381 1.428 . S
H376 C372 0.930 . S
H377 C374 0.929 1_565 S
S378 N379 1.613 . S
S378 N380 1.610 . S
N379 S378 1.613 . S
N379 C382 1.350 . S
N380 S378 1.610 . S
N380 C381 1.351 . S
C381 C375 1.428 . S
C381 N380 1.351 . S
C381 C382 1.434 . S
C382 C373 1.429 . S
C382 N379 1.350 . S
C382 C381 1.434 . S
C383 C384 1.374 . S
C383 C385 1.435 . S
C383 H387 0.908 1_556 S
C384 C383 1.374 . S
C384 C393 1.429 . S
C385 C383 1.435 . S
C385 C386 1.363 . S
C385 H388 0.929 . S
C386 C385 1.363 . S
C386 C392 1.428 . S
H387 C383 0.908 1_554 S
H388 C385 0.929 . S
S389 N390 1.613 . S
S389 N391 1.610 . S
N390 S389 1.613 . S
N390 C393 1.350 . S
N391 S389 1.610 . S
N391 C392 1.351 . S
C392 C386 1.428 . S
C392 N391 1.351 . S
C392 C393 1.434 . S
C393 C384 1.429 . S
C393 N390 1.350 . S
C393 C392 1.434 . S
C394 C395 1.369 . S
C394 C396 1.419 . S
C394 H398 0.930 . S
C395 C394 1.369 . S
C395 C404 1.429 1_655 S
C396 C394 1.419 . S
C396 C397 1.363 . S
C396 H399 0.929 . S
C397 C396 1.363 . S
C397 C403 1.428 1_655 S
H398 C394 0.930 . S
H399 C396 0.929 . S
S400 N401 1.613 . S
S400 N402 1.610 . S
N401 S400 1.613 . S
N401 C404 1.350 . S
N402 S400 1.610 . S
N402 C403 1.351 . S
C403 C397 1.428 1_455 S
C403 N402 1.351 . S
C403 C404 1.434 . S
C404 C395 1.429 1_455 S
C404 N401 1.350 . S
C404 C403 1.434 . S
C405 C406 1.369 . S
C405 C407 1.419 . S
C405 H409 0.930 . S
C406 C405 1.369 . S
C406 C415 1.429 . S
C407 C405 1.419 . S
C407 C408 1.363 . S
C407 H410 0.929 . S
C408 C407 1.363 . S
C408 C414 1.428 . S
H409 C405 0.930 . S
H410 C407 0.929 . S
S411 N412 1.613 1_545 S
S411 N413 1.610 . S
N412 S411 1.613 1_565 S
N412 C415 1.350 . S
N413 S411 1.610 . S
N413 C414 1.351 1_545 S
C414 C408 1.428 . S
C414 N413 1.351 1_565 S
C414 C415 1.434 . S
C415 C406 1.429 . S
C415 N412 1.350 . S
C415 C414 1.434 . S
C416 C417 1.369 . S
C416 C418 1.419 . S
C416 H420 0.930 . S
C417 C416 1.369 . S
C417 C426 1.429 . S
C418 C416 1.419 . S
C418 C419 1.363 . S
C418 H421 0.929 . S
C419 C418 1.363 . S
C419 C425 1.428 . S
H420 C416 0.930 . S
H421 C418 0.929 . S
S422 N423 1.613 1_556 S
S422 N424 1.610 . S
N423 S422 1.613 1_554 S
N423 C426 1.350 1_554 S
N424 S422 1.610 . S
N424 C425 1.351 . S
C425 C419 1.428 . S
C425 N424 1.351 . S
C425 C426 1.434 . S
C426 C417 1.429 . S
C426 N423 1.350 1_556 S
C426 C425 1.434 . S
C427 C428 1.369 . S
C427 C429 1.419 1_455 S
C427 H431 0.930 . S
C428 C427 1.369 . S
C428 C437 1.429 . S
C429 C427 1.419 1_655 S
C429 C430 1.363 1_655 S
C429 H432 0.929 . S
C430 C429 1.363 1_455 S
C430 C436 1.428 . S
H431 C427 0.930 . S
H432 C429 0.929 . S
S433 N434 1.613 . S
S433 N435 1.610 . S
N434 S433 1.613 . S
N434 C437 1.350 . S
N435 S433 1.610 . S
N435 C436 1.351 . S
C436 C430 1.428 . S
C436 N435 1.351 . S
C436 C437 1.434 . S
C437 C428 1.429 . S
C437 N434 1.350 . S
C437 C436 1.434 . S
C309 C265 1.545 . S
C307 C29 1.511 . S
C318 C137 1.515 . S
C320 C291 1.545 . S
C329 C225 1.519 . S
C331 C293 1.544 . S
C340 C49 1.520 . S
C342 C277 1.542 . S
C353 C279 1.545 . S
C351 C117 1.514 . S
C362 C205 1.519 . S
C364 C305 1.540 . S
C375 C278 1.545 1_545 S
C373 C233 1.520 . S
C384 C57 1.516 1_556 S
C386 C304 1.547 . S
C397 C264 1.544 1_655 S
C395 C108 1.513 . S
C408 C290 1.547 1_565 S
C406 C196 1.512 . S
C419 C292 1.547 . S
C417 C20 1.509 1_556 S
C428 C145 1.518 . S
C430 C276 1.542 1_455 S
