# Generated by pormake.
# Topology ocu, (6,8)-cn, num edge types: 1
# Building blocks:
#     Node 0, Type 0, BuildingBlock: PAMTUU_clean_sbu_0, # of connection points: 6
#     Node 1, Type 0, BuildingBlock: PAMTUU_clean_sbu_0, # of connection points: 6
#     Node 2, Type 0, BuildingBlock: PAMTUU_clean_sbu_0, # of connection points: 6
#     Node 3, Type 0, BuildingBlock: PAMTUU_clean_sbu_0, # of connection points: 6
#     Node 4, Type 0, BuildingBlock: PAMTUU_clean_sbu_0, # of connection points: 6
#     Node 5, Type 0, BuildingBlock: PAMTUU_clean_sbu_0, # of connection points: 6
#     Node 6, Type 0, BuildingBlock: PAMTUU_clean_sbu_0, # of connection points: 6
#     Node 7, Type 0, BuildingBlock: PAMTUU_clean_sbu_0, # of connection points: 6
#     Node 8, Type 1, BuildingBlock: TAGTUT_clean_sbu_1, # of connection points: 8
#     Node 9, Type 1, BuildingBlock: TAGTUT_clean_sbu_1, # of connection points: 8
#     Node 10, Type 1, BuildingBlock: TAGTUT_clean_sbu_1, # of connection points: 8
#     Node 11, Type 1, BuildingBlock: TAGTUT_clean_sbu_1, # of connection points: 8
#     Node 12, Type 1, BuildingBlock: TAGTUT_clean_sbu_1, # of connection points: 8
#     Node 13, Type 1, BuildingBlock: TAGTUT_clean_sbu_1, # of connection points: 8
#     Edge 14, Type (0, 1), BuildingBlock: OJICUG_clean_linker_0, # of connection points: 2
#     Edge 15, Type (0, 1), BuildingBlock: OJICUG_clean_linker_0, # of connection points: 2
#     Edge 16, Type (0, 1), BuildingBlock: OJICUG_clean_linker_0, # of connection points: 2
#     Edge 17, Type (0, 1), BuildingBlock: OJICUG_clean_linker_0, # of connection points: 2
#     Edge 18, Type (0, 1), BuildingBlock: OJICUG_clean_linker_0, # of connection points: 2
#     Edge 19, Type (0, 1), BuildingBlock: OJICUG_clean_linker_0, # of connection points: 2
#     Edge 20, Type (0, 1), BuildingBlock: OJICUG_clean_linker_0, # of connection points: 2
#     Edge 21, Type (0, 1), BuildingBlock: OJICUG_clean_linker_0, # of connection points: 2
#     Edge 22, Type (0, 1), BuildingBlock: OJICUG_clean_linker_0, # of connection points: 2
#     Edge 23, Type (0, 1), BuildingBlock: OJICUG_clean_linker_0, # of connection points: 2
#     Edge 24, Type (0, 1), BuildingBlock: OJICUG_clean_linker_0, # of connection points: 2
#     Edge 25, Type (0, 1), BuildingBlock: OJICUG_clean_linker_0, # of connection points: 2
#     Edge 26, Type (0, 1), BuildingBlock: OJICUG_clean_linker_0, # of connection points: 2
#     Edge 27, Type (0, 1), BuildingBlock: OJICUG_clean_linker_0, # of connection points: 2
#     Edge 28, Type (0, 1), BuildingBlock: OJICUG_clean_linker_0, # of connection points: 2
#     Edge 29, Type (0, 1), BuildingBlock: OJICUG_clean_linker_0, # of connection points: 2
#     Edge 30, Type (0, 1), BuildingBlock: OJICUG_clean_linker_0, # of connection points: 2
#     Edge 31, Type (0, 1), BuildingBlock: OJICUG_clean_linker_0, # of connection points: 2
#     Edge 32, Type (0, 1), BuildingBlock: OJICUG_clean_linker_0, # of connection points: 2
#     Edge 33, Type (0, 1), BuildingBlock: OJICUG_clean_linker_0, # of connection points: 2
#     Edge 34, Type (0, 1), BuildingBlock: OJICUG_clean_linker_0, # of connection points: 2
#     Edge 35, Type (0, 1), BuildingBlock: OJICUG_clean_linker_0, # of connection points: 2
#     Edge 36, Type (0, 1), BuildingBlock: OJICUG_clean_linker_0, # of connection points: 2
#     Edge 37, Type (0, 1), BuildingBlock: OJICUG_clean_linker_0, # of connection points: 2
#     Edge 38, Type (0, 1), BuildingBlock: OJICUG_clean_linker_0, # of connection points: 2
#     Edge 39, Type (0, 1), BuildingBlock: OJICUG_clean_linker_0, # of connection points: 2
#     Edge 40, Type (0, 1), BuildingBlock: OJICUG_clean_linker_0, # of connection points: 2
#     Edge 41, Type (0, 1), BuildingBlock: OJICUG_clean_linker_0, # of connection points: 2
#     Edge 42, Type (0, 1), BuildingBlock: OJICUG_clean_linker_0, # of connection points: 2
#     Edge 43, Type (0, 1), BuildingBlock: OJICUG_clean_linker_0, # of connection points: 2
#     Edge 44, Type (0, 1), BuildingBlock: OJICUG_clean_linker_0, # of connection points: 2
#     Edge 45, Type (0, 1), BuildingBlock: OJICUG_clean_linker_0, # of connection points: 2
#     Edge 46, Type (0, 1), BuildingBlock: OJICUG_clean_linker_0, # of connection points: 2
#     Edge 47, Type (0, 1), BuildingBlock: OJICUG_clean_linker_0, # of connection points: 2
#     Edge 48, Type (0, 1), BuildingBlock: OJICUG_clean_linker_0, # of connection points: 2
#     Edge 49, Type (0, 1), BuildingBlock: OJICUG_clean_linker_0, # of connection points: 2
#     Edge 50, Type (0, 1), BuildingBlock: OJICUG_clean_linker_0, # of connection points: 2
#     Edge 51, Type (0, 1), BuildingBlock: OJICUG_clean_linker_0, # of connection points: 2
#     Edge 52, Type (0, 1), BuildingBlock: OJICUG_clean_linker_0, # of connection points: 2
#     Edge 53, Type (0, 1), BuildingBlock: OJICUG_clean_linker_0, # of connection points: 2
#     Edge 54, Type (0, 1), BuildingBlock: OJICUG_clean_linker_0, # of connection points: 2
#     Edge 55, Type (0, 1), BuildingBlock: OJICUG_clean_linker_0, # of connection points: 2
#     Edge 56, Type (0, 1), BuildingBlock: OJICUG_clean_linker_0, # of connection points: 2
#     Edge 57, Type (0, 1), BuildingBlock: OJICUG_clean_linker_0, # of connection points: 2
#     Edge 58, Type (0, 1), BuildingBlock: OJICUG_clean_linker_0, # of connection points: 2
#     Edge 59, Type (0, 1), BuildingBlock: OJICUG_clean_linker_0, # of connection points: 2
#     Edge 60, Type (0, 1), BuildingBlock: OJICUG_clean_linker_0, # of connection points: 2
#     Edge 61, Type (0, 1), BuildingBlock: OJICUG_clean_linker_0, # of connection points: 2
# Relax obj value: 0.186
# Max RMSD: 0.279
# Mean RMSD: 0.148
data_MOF--net-ocu--node1-PAMTUU_clean_sbu_0--node2-TAGTUT_clean_sbu_1--edge1-OJICUG_clean_linker_0
_symmetry_space_group_name_H-M    P1
_symmetry_Int_Tables_number       1
_symmetry_cell_setting            triclinic
loop_
_symmetry_equiv_pos_as_xyz
'x, y, z'
_cell_length_a     31.085673
_cell_length_b     31.686194
_cell_length_c     31.8029
_cell_angle_alpha  83.306986
_cell_angle_beta   98.457838
_cell_angle_gamma 118.4937
loop_
_atom_site_label
_atom_site_type_symbol
_atom_site_fract_x
_atom_site_fract_y
_atom_site_fract_z
_atom_type_partial_charge
Tb0 Tb 0.24796 0.25319 0.26942 0.0
Tb1 Tb 0.34779 0.29639 0.32592 0.0
C2 C 0.25378 0.20178 0.35598 0.0
C3 C 0.13079 0.24756 0.22344 0.0
C4 C 0.09792 0.31647 0.21292 0.0
C5 C 0.09167 0.28918 0.17865 0.0
C6 C 0.10811 0.25479 0.1839 0.0
C7 C 0.13043 0.26988 0.259 0.0
C8 C 0.11446 0.30474 0.25367 0.0
C9 C 0.16689 0.23024 0.22416 0.0
O10 O 0.23865 0.29837 0.31672 0.0
O11 O 0.31449 0.3359 0.35403 0.0
O12 O 0.35724 0.35523 0.27985 0.0
O13 O 0.30408 0.30527 0.22966 0.0
O14 O 0.38947 0.30372 0.38537 0.0
O15 O 0.42511 0.33106 0.32817 0.0
O16 O 0.35608 0.24831 0.28127 0.0
O17 O 0.28164 0.21391 0.24142 0.0
O18 O 0.23508 0.19467 0.31641 0.0
O19 O 0.29555 0.2399 0.36593 0.0
C20 C 0.2678 0.32814 0.34777 0.0
O21 O 0.20914 0.26365 0.21323 0.0
O22 O 0.17225 0.20504 0.2579 0.0
C23 C 0.34207 0.34641 0.23984 0.0
C24 C 0.45129 0.28369 0.37641 0.0
C25 C 0.47498 0.20789 0.37928 0.0
C26 C 0.49757 0.24882 0.35203 0.0
C27 C 0.48565 0.28639 0.35051 0.0
C28 C 0.43122 0.24397 0.40541 0.0
C29 C 0.44274 0.20654 0.40666 0.0
C30 C 0.42953 0.31672 0.36785 0.0
C31 C 0.32752 0.21958 0.2495 0.0
H32 H 0.07879 0.29792 0.14696 0.0
H33 H 0.1082 0.23797 0.15614 0.0
H34 H 0.14713 0.2641 0.28991 0.0
H35 H 0.11938 0.3255 0.28037 0.0
H36 H 0.52348 0.25125 0.33132 0.0
H37 H 0.50168 0.31659 0.32789 0.0
H38 H 0.40491 0.24066 0.42611 0.0
H39 H 0.42639 0.17643 0.42935 0.0
Tb40 Tb 0.74637 0.29153 0.29117 0.0
Tb41 Tb 0.84149 0.25559 0.30706 0.0
C42 C 0.82074 0.32961 0.35254 0.0
C43 C 0.67088 0.34714 0.26599 0.0
C44 C 0.65097 0.42208 0.2752 0.0
C45 C 0.65713 0.39516 0.31124 0.0
C46 C 0.66758 0.35799 0.30674 0.0
C47 C 0.67247 0.37894 0.23113 0.0
C48 C 0.66417 0.41735 0.23604 0.0
C49 C 0.67551 0.30446 0.26035 0.0
O50 O 0.80865 0.34642 0.25703 0.0
O51 O 0.8669 0.31797 0.26098 0.0
O52 O 0.80768 0.21147 0.25331 0.0
O53 O 0.76186 0.24675 0.25756 0.0
O54 O 0.87238 0.23871 0.36571 0.0
O55 O 0.91347 0.2656 0.30991 0.0
O56 O 0.77646 0.19541 0.332 0.0
O57 O 0.72354 0.22787 0.33711 0.0
O58 O 0.78507 0.34016 0.34344 0.0
O59 O 0.81477 0.29752 0.32782 0.0
C60 C 0.84929 0.34836 0.24576 0.0
O61 O 0.71058 0.31189 0.23792 0.0
O62 O 0.67389 0.2769 0.29458 0.0
C63 C 0.77122 0.21944 0.23701 0.0
C64 C 0.90096 0.19075 0.34165 0.0
C65 C 0.90198 0.10523 0.33335 0.0
C66 C 0.8937 0.13025 0.29686 0.0
C67 C 0.89366 0.17333 0.30096 0.0
C68 C 0.89754 0.15991 0.37769 0.0
C69 C 0.89587 0.11588 0.37328 0.0
C70 C 0.90583 0.23844 0.34527 0.0
C71 C 0.73845 0.19453 0.34718 0.0
H72 H 0.64813 0.39905 0.3417 0.0
H73 H 0.66959 0.33584 0.33479 0.0
H74 H 0.67738 0.3726 0.19981 0.0
H75 H 0.66036 0.43843 0.20772 0.0
H76 H 0.89584 0.12111 0.26572 0.0
H77 H 0.89148 0.1944 0.27216 0.0
H78 H 0.89906 0.17093 0.40912 0.0
H79 H 0.90007 0.09542 0.40194 0.0
Tb80 Tb 0.84314 0.80965 0.28114 0.0
Tb81 Tb 0.75042 0.72815 0.31553 0.0
C82 C 0.8211 0.82015 0.3685 0.0
C83 C 0.94868 0.84193 0.23138 0.0
C84 C 0.93814 0.76836 0.18301 0.0
C85 C 0.9475 0.81379 0.16346 0.0
C86 C 0.95236 0.85026 0.1875 0.0
C87 C 0.94967 0.80053 0.25168 0.0
C88 C 0.94273 0.76336 0.22772 0.0
C89 C 0.92306 0.86242 0.25059 0.0
O90 O 0.87039 0.75876 0.32149 0.0
O91 O 0.7995 0.69324 0.33788 0.0
O92 O 0.75788 0.69309 0.26519 0.0
O93 O 0.80152 0.76282 0.22832 0.0
O94 O 0.71284 0.68125 0.36495 0.0
O95 O 0.67356 0.68558 0.30455 0.0
O96 O 0.72289 0.77968 0.27644 0.0
O97 O 0.7938 0.8447 0.25902 0.0
O98 O 0.83663 0.84393 0.3329 0.0
O99 O 0.79202 0.77365 0.36904 0.0
C100 C 0.84847 0.71406 0.34011 0.0
O101 O 0.88041 0.85324 0.23002 0.0
O102 O 0.91996 0.85364 0.29142 0.0
C103 C 0.77342 0.71614 0.22949 0.0
C104 C 0.64632 0.69562 0.36607 0.0
C105 C 0.64946 0.7752 0.39866 0.0
C106 C 0.62723 0.76227 0.35733 0.0
C107 C 0.62547 0.7224 0.34107 0.0
C108 C 0.66075 0.70427 0.40951 0.0
C109 C 0.66351 0.74452 0.42536 0.0
C110 C 0.67055 0.67483 0.34523 0.0
C111 C 0.74479 0.82431 0.25749 0.0
H112 H 0.94766 0.82027 0.1293 0.0
H113 H 0.9526 0.88234 0.17113 0.0
H114 H 0.94912 0.7939 0.28579 0.0
H115 H 0.93698 0.72968 0.2445 0.0
H116 H 0.614 0.78446 0.33696 0.0
H117 H 0.61282 0.7159 0.30771 0.0
H118 H 0.67595 0.68367 0.42988 0.0
H119 H 0.67826 0.75262 0.45818 0.0
Tb120 Tb 0.3259 0.73434 0.30579 0.0
Tb121 Tb 0.2704 0.80037 0.29574 0.0
C122 C 0.22659 0.69831 0.33776 0.0
C123 C 0.36188 0.66385 0.25997 0.0
C124 C 0.35504 0.63369 0.17881 0.0
C125 C 0.36623 0.60949 0.21542 0.0
C126 C 0.36924 0.62433 0.25602 0.0
C127 C 0.34947 0.6869 0.22349 0.0
C128 C 0.34527 0.67154 0.18343 0.0
C129 C 0.36188 0.6798 0.30116 0.0
O130 O 0.26677 0.70762 0.25371 0.0
O131 O 0.26399 0.7775 0.23225 0.0
O132 O 0.34872 0.84454 0.2982 0.0
O133 O 0.3614 0.79522 0.26207 0.0
O134 O 0.21054 0.81087 0.3034 0.0
O135 O 0.27179 0.86559 0.27136 0.0
O136 O 0.30334 0.80741 0.36198 0.0
O137 O 0.35822 0.7773 0.36173 0.0
O138 O 0.27182 0.70679 0.34967 0.0
O139 O 0.21618 0.72706 0.31039 0.0
C140 C 0.25451 0.73395 0.22454 0.0
O141 O 0.38902 0.726 0.30565 0.0
O142 O 0.31775 0.66433 0.31195 0.0
C143 C 0.37345 0.8386 0.27195 0.0
C144 C 0.24268 0.88974 0.32252 0.0
C145 C 0.25303 0.94836 0.38652 0.0
C146 C 0.24586 0.96222 0.34341 0.0
C147 C 0.24085 0.93295 0.31139 0.0
C148 C 0.25365 0.87815 0.36525 0.0
C149 C 0.25938 0.90737 0.39686 0.0
C150 C 0.23368 0.85611 0.29058 0.0
C151 C 0.34091 0.80081 0.37977 0.0
H152 H 0.37454 0.58046 0.21261 0.0
H153 H 0.37788 0.60561 0.28398 0.0
H154 H 0.34336 0.71731 0.22585 0.0
H155 H 0.33607 0.69045 0.15591 0.0
H156 H 0.2407 -0.00628 0.33479 0.0
H157 H 0.23337 0.94282 0.27841 0.0
H158 H 0.25471 0.84483 0.37478 0.0
H159 H 0.26369 0.89496 0.42967 0.0
Tb160 Tb 0.28528 0.81339 0.78043 0.0
Tb161 Tb 0.30974 0.7347 0.82229 0.0
C162 C 0.33274 0.82785 0.87421 0.0
C163 C 0.30313 0.90594 0.69804 0.0
C164 C 0.30352 0.94884 0.61949 0.0
C165 C 0.33649 0.97767 0.65224 0.0
C166 C 0.33079 0.95623 0.69348 0.0
C167 C 0.29398 0.87884 0.66258 0.0
C168 C 0.30027 0.90276 0.62225 0.0
C169 C 0.28263 0.88328 0.73804 0.0
O170 O 0.36354 0.83911 0.7812 0.0
O171 O 0.36391 0.76964 0.77532 0.0
O172 O 0.2725 0.69747 0.76348 0.0
O173 O 0.26046 0.75934 0.72931 0.0
O174 O 0.2908 0.68674 0.87586 0.0
O175 O 0.34723 0.69422 0.83801 0.0
O176 O 0.23051 0.70724 0.81889 0.0
O177 O 0.22764 0.77629 0.82294 0.0
O178 O 0.30108 0.83506 0.84626 0.0
O179 O 0.34607 0.79554 0.86669 0.0
C180 C 0.38287 0.81608 0.76666 0.0
O181 O 0.24522 0.83991 0.73683 0.0
O182 O 0.31558 0.88787 0.76988 0.0
C183 C 0.25681 0.71552 0.72898 0.0
C184 C 0.29639 0.6166 0.86779 0.0
C185 C 0.31965 0.54346 0.88911 0.0
C186 C 0.31294 0.55592 0.84581 0.0
C187 C 0.30368 0.59505 0.83515 0.0
C188 C 0.2833 0.59025 0.90663 0.0
C189 C 0.29282 0.55115 0.91663 0.0
C190 C 0.31876 0.66915 0.86778 0.0
C191 C 0.20928 0.72995 0.83128 0.0
H192 H 0.35302 0.01644 0.64839 0.0
H193 H 0.34382 0.97842 0.72068 0.0
H194 H 0.27831 0.84004 0.66542 0.0
H195 H 0.28778 0.88165 0.59439 0.0
H196 H 0.32834 0.54587 0.8227 0.0
H197 H 0.31054 0.61282 0.8038 0.0
H198 H 0.27486 0.6047 0.93169 0.0
H199 H 0.29276 0.53762 0.94954 0.0
Tb200 Tb 0.33584 0.28226 0.77081 0.0
Tb201 Tb 0.24743 0.25264 0.82918 0.0
C202 C 0.34497 0.35056 0.83927 0.0
C203 C 0.4152 0.26816 0.70566 0.0
C204 C 0.44341 0.20915 0.67037 0.0
C205 C 0.47785 0.25697 0.67915 0.0
C206 C 0.46372 0.28633 0.6965 0.0
C207 C 0.38124 0.21988 0.69873 0.0
C208 C 0.39518 0.19064 0.68103 0.0
C209 C 0.40002 0.29962 0.7222 0.0
O210 O 0.35918 0.25013 0.82973 0.0
O211 O 0.28726 0.21256 0.86168 0.0
O212 O 0.2173 0.20415 0.77818 0.0
O213 O 0.28794 0.20591 0.76516 0.0
O214 O 0.22205 0.23692 0.88964 0.0
O215 O 0.17395 0.23559 0.8333 0.0
O216 O 0.24313 0.30892 0.78175 0.0
O217 O 0.28109 0.2996 0.73011 0.0
O218 O 0.35883 0.34741 0.80325 0.0
O219 O 0.30605 0.31657 0.85532 0.0
C220 C 0.33355 0.22149 0.86059 0.0
O221 O 0.35543 0.29205 0.70889 0.0
O222 O 0.40995 0.30507 0.763 0.0
C223 C 0.24028 0.18861 0.75803 0.0
C224 C 0.17508 0.27583 0.89098 0.0
C225 C 0.17004 0.35069 0.92524 0.0
C226 C 0.14545 0.3034 0.94262 0.0
C227 C 0.14802 0.26604 0.92557 0.0
C228 C 0.19981 0.32331 0.87385 0.0
C229 C 0.197 0.36048 0.89067 0.0
C230 C 0.18143 0.23807 0.8745 0.0
C231 C 0.25166 0.31467 0.74132 0.0
H232 H 0.51561 0.27188 0.6722 0.0
H233 H 0.49047 0.32331 0.70231 0.0
H234 H 0.34363 0.20502 0.70608 0.0
H235 H 0.36776 0.15411 0.67443 0.0
H236 H 0.12395 0.29544 0.96909 0.0
H237 H 0.12928 0.22977 0.93946 0.0
H238 H 0.22165 0.33178 0.84764 0.0
H239 H 0.21577 0.39675 0.87675 0.0
Tb240 Tb 0.82838 0.24535 0.8149 0.0
Tb241 Tb 0.75966 0.29657 0.78423 0.0
C242 C 0.73328 0.21688 0.86272 0.0
C243 C 0.89279 0.18981 0.78545 0.0
C244 C 0.89897 0.15688 0.70854 0.0
C245 C 0.90147 0.13197 0.7479 0.0
C246 C 0.89804 0.14815 0.78604 0.0
C247 C 0.89098 0.21474 0.74627 0.0
C248 C 0.89369 0.19846 0.70846 0.0
C249 C 0.87986 0.2031 0.82302 0.0
O250 O 0.78656 0.21387 0.75628 0.0
O251 O 0.72226 0.2316 0.7485 0.0
O252 O 0.80461 0.3136 0.73098 0.0
O253 O 0.86915 0.30715 0.77044 0.0
O254 O 0.69267 0.29927 0.77921 0.0
O255 O 0.75943 0.36228 0.76488 0.0
O256 O 0.82724 0.34378 0.82096 0.0
O257 O 0.83954 0.28972 0.867 0.0
O258 O 0.7643 0.2036 0.85163 0.0
O259 O 0.73201 0.25606 0.84465 0.0
C260 C 0.74255 0.20598 0.73964 0.0
O261 O 0.89863 0.2492 0.82805 0.0
O262 O 0.83284 0.1808 0.82682 0.0
C263 C 0.85109 0.32227 0.73515 0.0
C264 C 0.712 0.36982 0.8113 0.0
C265 C 0.7003 0.40276 0.8852 0.0
C266 C 0.67255 0.40423 0.84623 0.0
C267 C 0.67863 0.3881 0.8093 0.0
C268 C 0.74056 0.37005 0.84991 0.0
C269 C 0.73544 0.38698 0.8863 0.0
C270 C 0.71513 0.34611 0.7755 0.0
C271 C 0.84108 0.33192 0.85914 0.0
H272 H 0.90607 0.10003 0.74927 0.0
H273 H 0.89829 0.12758 0.81569 0.0
H274 H 0.88553 0.24606 0.74444 0.0
H275 H 0.89047 0.21809 0.67896 0.0
H276 H 0.64495 0.41611 0.84482 0.0
H277 H 0.65599 0.38801 0.77993 0.0
H278 H 0.76513 0.35471 0.85257 0.0
H279 H 0.75648 0.38448 0.91598 0.0
Tb280 Tb 0.81993 0.81254 0.83488 0.0
Tb281 Tb 0.77441 0.72929 0.76384 0.0
C282 C 0.86766 0.82734 0.7512 0.0
C283 C 0.81666 0.89047 0.9081 0.0
C284 C 0.75742 0.91853 0.94434 0.0
C285 C 0.80868 0.94006 0.95589 0.0
C286 C 0.8381 0.92616 0.93778 0.0
C287 C 0.7658 0.86945 0.8961 0.0
C288 C 0.73653 0.88354 0.91377 0.0
C289 C 0.84654 0.87442 0.88957 0.0
O290 O 0.75352 0.814 0.80245 0.0
O291 O 0.74571 0.77902 0.7403 0.0
O292 O 0.71808 0.70813 0.80625 0.0
O293 O 0.77161 0.74434 0.86392 0.0
O294 O 0.75918 0.7108 0.70015 0.0
O295 O 0.74108 0.65612 0.75135 0.0
O296 O 0.81861 0.71002 0.81388 0.0
O297 O 0.87215 0.78351 0.84114 0.0
O298 O 0.85461 0.84628 0.77803 0.0
O299 O 0.84812 0.78067 0.74856 0.0
C300 C 0.73622 0.80566 0.76229 0.0
O301 O 0.83644 0.82982 0.89909 0.0
O302 O 0.85006 0.885 0.84904 0.0
C303 C 0.7295 0.71122 0.84743 0.0
C304 C 0.77438 0.64665 0.69402 0.0
C305 C 0.83203 0.617 0.65761 0.0
C306 C 0.78167 0.59949 0.64338 0.0
C307 C 0.75305 0.61433 0.66147 0.0
C308 C 0.82411 0.66297 0.70925 0.0
C309 C 0.85267 0.64821 0.69128 0.0
C310 C 0.74612 0.66568 0.71085 0.0
C311 C 0.85963 0.73807 0.83641 0.0
H312 H 0.82592 0.96674 0.97968 0.0
H313 H 0.87735 0.94275 0.94735 0.0
H314 H 0.74855 0.84172 0.87332 0.0
H315 H 0.69745 0.86682 0.9035 0.0
H316 H 0.76481 0.57573 0.61726 0.0
H317 H 0.71469 0.60151 0.6494 0.0
H318 H 0.84108 0.68791 0.73452 0.0
H319 H 0.89107 0.6617 0.70343 0.0
C320 C 0.9416 0.09807 0.56247 0.0
C321 C 1.00546 0.08003 0.44767 0.0
C322 C 0.96461 0.91549 0.50539 0.0
Mg323 Mg 0.04131 0.11452 0.53665 0.0
O324 O 1.0122 0.04974 0.55736 0.0
Mg325 Mg 0.94813 0.00461 0.52737 0.0
Mg326 Mg 0.04949 0.01556 0.55137 0.0
O327 O 0.08699 0.98263 0.54597 0.0
Mg328 Mg 0.06083 0.91444 0.55546 0.0
Mg329 Mg 0.14821 0.02707 0.58129 0.0
C330 C 0.12861 0.11253 0.6003 0.0
C331 C 0.14127 0.08617 0.4944 0.0
O332 O 0.92117 0.05396 0.55225 0.0
O333 O 0.98601 0.1281 0.55579 0.0
O334 O 0.96876 0.0461 0.46471 0.0
O335 O 0.04089 0.11283 0.46938 0.0
O336 O 0.10961 0.13729 0.57818 0.0
O337 O 0.10969 0.06703 0.59737 0.0
C338 C 0.96591 0.95033 0.61392 0.0
O339 O 1.01015 0.9653 0.60604 0.0
O340 O 0.93568 0.96141 0.58985 0.0
O341 O 0.18139 0.98752 0.55119 0.0
O342 O 0.11814 0.92158 0.52153 0.0
O343 O 0.1136 0.97207 0.63576 0.0
C344 C 0.16346 0.9537 0.52516 0.0
O345 O 0.07591 0.89716 0.6225 0.0
O346 O 0.98696 0.89117 0.52159 0.0
C347 C 0.11446 0.93234 0.63863 0.0
O348 O 0.9845 0.96122 0.50903 0.0
O349 O 0.09426 0.06647 0.4955 0.0
O350 O 0.16919 0.07831 0.52434 0.0
C351 C 0.41428 0.13022 0.13745 0.0
C352 C 0.43144 0.1382 0.99808 0.0
C353 C 0.43937 0.9454 0.02539 0.0
Mg354 Mg 0.50522 0.14765 0.08609 0.0
O355 O 0.48706 0.08211 0.07765 0.0
Mg356 Mg 0.41396 0.04006 0.06767 0.0
Mg357 Mg 0.52494 0.0416 0.07086 0.0
O358 O 0.56396 0.00049 0.0719 0.0
Mg359 Mg 0.54289 0.93312 0.07782 0.0
Mg360 Mg 0.63513 0.04164 0.09484 0.0
C361 C 0.60873 0.1316 0.1183 0.0
C362 C 0.6145 0.10371 1.00546 0.0
O363 O 0.39075 0.09099 0.11533 0.0
O364 O 0.461 0.15497 0.13454 0.0
O365 O 0.40858 0.09245 1.00751 0.0
O366 O 0.47042 0.16585 0.022 0.0
O367 O 0.58212 0.15411 0.10982 0.0
O368 O 0.59252 0.08669 0.11251 0.0
C369 C 0.45181 0.98414 0.14415 0.0
O370 O 0.49159 -0.00309 0.12827 0.0
O371 O 0.41906 -0.00415 0.12698 0.0
O372 O 0.65888 0.00103 0.05578 0.0
O373 O 0.59047 0.93502 0.03355 0.0
O374 O 0.64666 0.97912 0.15148 0.0
C375 C 0.63665 0.96386 0.03341 0.0
O376 O 0.58504 0.90722 0.13555 0.0
O377 O 0.47013 0.92884 0.04146 0.0
C378 C 0.62756 0.93201 0.15709 0.0
O379 O 0.44897 0.99018 0.03125 0.0
O380 O 0.56881 0.09059 1.0099 0.0
O381 O 0.64002 0.09024 0.03362 0.0
C382 C 0.92203 0.63803 0.07211 0.0
C383 C 0.95707 0.64538 0.94818 0.0
C384 C 0.92791 0.45813 0.99168 0.0
Mg385 Mg 1.01575 0.65435 0.03491 0.0
O386 O 0.98435 0.58813 0.0486 0.0
Mg387 Mg 0.9162 0.54853 0.0213 0.0
Mg388 Mg 1.01791 0.55314 0.03551 0.0
O389 O 0.05296 0.51919 0.02231 0.0
Mg390 Mg 1.02362 0.45473 0.03906 0.0
Mg391 Mg 0.121 0.55912 0.05095 0.0
C392 C 0.10957 0.64722 0.08338 0.0
C393 C 0.09868 0.62091 0.96852 0.0
O394 O 0.89619 0.59578 0.05767 0.0
O395 O 0.96741 0.66505 0.06686 0.0
O396 O 0.92661 0.60345 0.96232 0.0
O397 O 0.99854 0.67036 0.96915 0.0
O398 O 0.08914 0.67339 0.06758 0.0
O399 O 0.08817 0.60163 0.07833 0.0
C400 C 0.93571 0.48395 0.10291 0.0
O401 O 0.97966 0.49867 0.09307 0.0
O402 O 0.90655 0.49768 0.08044 0.0
O403 O 0.14289 0.51064 0.01806 0.0
O404 O 0.07199 0.4413 1.00862 0.0
O405 O 0.11114 0.50794 0.11178 0.0
C406 C 0.1176 0.46818 1.00388 0.0
O407 O 0.0361 0.44558 0.10574 0.0
O408 O 0.95043 0.43492 1.01004 0.0
C409 C 0.0772 0.46923 0.12726 0.0
O410 O 0.94769 0.50448 0.99187 0.0
O411 O 0.05492 0.60622 0.97844 0.0
O412 O 0.1287 0.60793 0.99062 0.0
C413 C 0.42949 0.60441 0.0429 0.0
C414 C 0.51679 0.60758 0.96134 0.0
C415 C 0.46419 0.42902 0.98898 0.0
Mg416 Mg 0.54235 0.63569 0.03729 0.0
O417 O 0.50907 0.5645 0.03926 0.0
Mg418 Mg 0.44165 0.5153 1.0058 0.0
Mg419 Mg 0.54399 0.52452 0.04241 0.0
O420 O 0.57668 0.48462 0.04193 0.0
Mg421 Mg 0.54211 0.41881 0.0586 0.0
Mg422 Mg 0.64089 0.52661 0.0732 0.0
C423 C 0.63001 0.62236 0.09325 0.0
C424 C 0.63336 0.578 0.98148 0.0
O425 O 0.41287 0.56479 0.02433 0.0
O426 O 0.47556 0.63346 0.05164 0.0
O427 O 0.51291 0.57677 0.99184 0.0
O428 O 0.54717 0.65092 0.96914 0.0
O429 O 0.60926 0.64873 0.07945 0.0
O430 O 0.60994 0.57766 0.08498 0.0
C431 C 0.45347 0.46761 0.10183 0.0
O432 O 0.49939 0.48205 0.10009 0.0
O433 O 0.42748 0.47677 0.07099 0.0
O434 O 0.66423 0.47275 0.05174 0.0
O435 O 0.59634 0.40128 0.04495 0.0
O436 O 0.61077 0.48537 0.13457 0.0
C437 C 0.6414 0.42945 0.0393 0.0
O438 O 0.53714 0.42027 0.12499 0.0
O439 O 0.48151 0.40153 1.00803 0.0
C440 C 0.57143 0.45186 0.14875 0.0
O441 O 0.48048 0.47201 0.99931 0.0
O442 O 0.58866 0.56569 0.98613 0.0
O443 O 0.6609 0.56793 1.01033 0.0
C444 C 0.95202 0.57412 0.56527 0.0
C445 C 0.9647 0.60745 0.44213 0.0
C446 C 0.98628 0.41006 0.47564 0.0
Mg447 Mg 0.04729 0.60586 0.52306 0.0
O448 O 1.02569 0.53851 0.52814 0.0
Mg449 Mg 0.95516 0.49738 0.50328 0.0
Mg450 Mg 0.06483 0.49775 0.53097 0.0
O451 O 0.10355 0.45753 0.52607 0.0
Mg452 Mg 0.08813 0.39393 0.51275 0.0
Mg453 Mg 0.17646 0.50036 0.53589 0.0
C454 C 0.15025 0.59513 0.5778 0.0
C455 C 0.13794 0.55392 0.45761 0.0
O456 O 0.93024 0.53754 0.54211 0.0
O457 O 0.99832 0.60282 0.56622 0.0
O458 O 0.94566 0.56037 0.44697 0.0
O459 O 1.00643 0.63213 0.46477 0.0
O460 O 0.12017 0.61223 0.561 0.0
O461 O 0.14057 0.55022 0.57183 0.0
C462 C 0.97269 0.43482 0.59344 0.0
O463 O 1.01916 0.44901 0.59142 0.0
O464 O 0.94841 0.44798 0.56371 0.0
O465 O 0.20262 0.45128 0.48761 0.0
O466 O 0.13322 0.389 0.46461 0.0
O467 O 0.17962 0.4473 0.59667 0.0
C468 C 0.18008 0.41355 0.46348 0.0
O469 O 0.12207 0.37408 0.57618 0.0
O470 O 1.01408 0.38896 0.48362 0.0
C471 C 0.15799 0.40093 0.60312 0.0
O472 O 0.9983 0.45208 0.48781 0.0
O473 O 0.09815 0.54134 0.47328 0.0
O474 O 0.17122 0.54351 0.4759 0.0
C475 C 0.50204 0.09772 0.58515 0.0
C476 C 0.52609 0.07558 0.46412 0.0
C477 C 0.47764 0.89521 0.52201 0.0
Mg478 Mg 0.58695 0.09349 0.54936 0.0
O479 O 0.55057 0.03098 0.57316 0.0
Mg480 Mg 0.48102 -0.00586 0.54681 0.0
Mg481 Mg 0.57704 0.98925 0.56056 0.0
O482 O 0.60386 0.94923 0.54788 0.0
Mg483 Mg 0.57022 0.88528 0.56778 0.0
Mg484 Mg 0.67468 0.98701 0.56879 0.0
C485 C 0.67042 0.0812 0.60002 0.0
C486 C 0.65507 0.05224 0.48766 0.0
O487 O 0.47263 0.05355 0.57643 0.0
O488 O 0.54732 0.11998 0.57766 0.0
O489 O 0.49174 0.03999 0.48255 0.0
O490 O 0.5687 0.09834 0.48346 0.0
O491 O 0.66078 0.10216 0.56608 0.0
O492 O 0.65155 0.035 0.60308 0.0
C493 C 0.49747 0.93056 0.63091 0.0
O494 O 0.53933 0.93973 0.61963 0.0
O495 O 0.47083 0.94814 0.60959 0.0
O496 O 0.68134 0.93467 0.52732 0.0
O497 O 0.60688 0.86846 0.52801 0.0
O498 O 0.66948 0.93525 0.62974 0.0
C499 C 0.64895 0.89318 0.51404 0.0
O500 O 0.59502 0.87219 0.63197 0.0
O501 O 0.49565 0.8686 0.54206 0.0
C502 C 0.63926 0.89623 0.64831 0.0
O503 O 0.50278 0.94155 0.52093 0.0
O504 O 0.61222 0.03872 0.49916 0.0
O505 O 0.68384 0.03784 0.50958 0.0
C506 C 0.17723 0.13116 0.38233 0.0
C507 C 0.2241 0.17088 0.39081 0.0
H508 H 0.1132 0.07353 0.40851 0.0
C509 C 0.24069 0.18406 0.43318 0.0
H510 H 0.16297 0.1203 0.35004 0.0
C511 C 0.21207 0.15787 0.46614 0.0
C512 C 0.16579 0.11784 0.45792 0.0
H513 H 0.27594 0.2149 0.44109 0.0
H514 H 0.22661 0.16854 0.49848 0.0
C515 C 0.14827 0.1049 0.41562 0.0
C516 C 0.93376 0.04706 0.34773 0.0
C517 C 0.94213 0.09353 0.33405 0.0
H518 H 0.95675 0.00606 0.39419 0.0
C519 C 0.98921 0.13248 0.34372 0.0
H520 H 0.89865 0.01623 0.33935 0.0
C521 C 1.01875 0.12752 0.37926 0.0
C522 C 1.00235 0.0826 0.40112 0.0
H523 H 0.997 0.16868 0.3319 0.0
H524 H 0.04811 0.1596 0.39357 0.0
C525 C 0.96633 0.04164 0.38006 0.0
C526 C 0.85768 0.81676 0.44335 0.0
C527 C 0.84672 0.84352 0.40903 0.0
H528 H 0.90386 0.81855 0.50086 0.0
C529 C 0.86782 0.89362 0.41145 0.0
H530 H 0.84196 0.77807 0.44263 0.0
C531 C 0.90213 0.91667 0.44586 0.0
C532 C 0.918 0.89055 0.47717 0.0
H533 H 0.85963 0.91519 0.38576 0.0
H534 H 0.9187 0.95523 0.44649 0.0
C535 C 0.89341 0.84005 0.47675 0.0
C536 C 0.26406 0.97023 0.46171 0.0
C537 C 0.23954 0.96634 0.42028 0.0
H538 H 0.25863 0.96867 0.52837 0.0
C539 C 0.19348 0.96527 0.41398 0.0
H540 H 0.29982 0.97136 0.4672 0.0
C541 C 0.16958 0.96175 0.44869 0.0
C542 C 0.19171 0.96026 0.49012 0.0
H543 H 0.17357 0.96212 0.38256 0.0
H544 H 0.13289 0.95852 0.44312 0.0
C545 C 0.24026 0.96763 0.49662 0.0
C546 C 0.25015 0.98626 0.62998 0.0
C547 C 0.25426 0.94842 0.61457 0.0
H548 H 0.20443 0.00881 0.65393 0.0
C549 C 0.21018 0.90567 0.60486 0.0
H550 H 0.28195 0.02057 0.63654 0.0
C551 C 0.16509 0.89922 0.6146 0.0
C552 C 0.16222 0.93609 0.63244 0.0
H553 H 0.21031 0.87582 0.5916 0.0
H554 H 0.13241 0.86567 0.60733 0.0
C555 C 0.20538 0.97941 0.64051 0.0
C556 C 0.21695 0.13027 0.70076 0.0
C557 C 0.21598 0.16938 0.71639 0.0
H558 H 0.18898 0.08054 0.65083 0.0
C559 C 0.19173 0.19252 0.69118 0.0
H560 H 0.23619 0.11242 0.71956 0.0
C561 C 0.16743 0.17636 0.65171 0.0
C562 C 0.16476 0.13508 0.63697 0.0
H563 H 0.19076 0.223 0.70233 0.0
H564 H 0.14807 0.19472 0.63409 0.0
C565 C 0.1905 0.11251 0.66144 0.0
C566 C 0.92962 0.17519 0.63636 0.0
C567 C 0.90318 0.14091 0.66765 0.0
H568 H 0.96053 0.18845 0.57748 0.0
C569 C 0.88205 0.09185 0.65968 0.0
H570 H 0.94676 0.2133 0.64128 0.0
C571 C 0.88991 0.07755 0.62262 0.0
C572 C 0.91934 0.11203 0.59291 0.0
H573 H 0.86059 0.06446 0.6826 0.0
H574 H 0.87596 0.03952 0.61891 0.0
C575 C 0.93742 0.16095 0.5995 0.0
C576 C 0.91215 0.9089 0.71718 0.0
C577 C 0.90067 0.86006 0.71997 0.0
H578 H 0.94168 0.97566 0.68042 0.0
C579 C 0.91678 0.84274 0.69014 0.0
H580 H 0.9006 0.92358 0.73974 0.0
C581 C 0.94139 0.87327 0.65659 0.0
C582 C 0.94922 0.92086 0.65251 0.0
H583 H 0.90864 0.80535 0.69168 0.0
H584 H 0.95171 0.8591 0.63262 0.0
C585 C 0.93566 0.93885 0.68336 0.0
C586 C 0.39925 0.20651 0.22361 0.0
C587 C 0.3483 0.19434 0.22161 0.0
H588 H 0.45814 0.19872 0.20164 0.0
C589 C 0.31882 0.15848 0.19101 0.0
H590 H 0.42522 0.23332 0.24541 0.0
C591 C 0.33833 0.13708 0.16534 0.0
C592 C 0.38958 0.14997 0.16705 0.0
H593 H 0.27959 0.1465 0.18654 0.0
H594 H 0.3126 0.11061 0.14319 0.0
C595 C 0.41875 0.18587 0.19755 0.0
C596 C 0.86095 0.4214 0.19712 0.0
C597 C 0.87524 0.38578 0.21183 0.0
H598 H 0.86896 0.47996 0.15217 0.0
C599 C 0.91149 0.38402 0.19109 0.0
H600 H 0.83309 0.42409 0.21177 0.0
C601 C 0.93179 0.41611 0.15624 0.0
C602 C 0.91713 0.45132 0.1415 0.0
H603 H 0.92299 0.35669 0.20071 0.0
H604 H 0.95721 0.41193 0.13959 0.0
C605 C 0.88151 0.45352 0.16263 0.0
C606 C 0.66161 0.82989 0.2221 0.0
C607 C 0.71404 0.85217 0.23344 0.0
H608 H 0.59546 0.83359 0.19153 0.0
C609 C 0.73631 0.9024 0.21977 0.0
H610 H 0.64047 0.79195 0.2305 0.0
C611 C 0.70937 0.92747 0.19754 0.0
C612 C 0.65704 0.90509 0.18562 0.0
H613 H 0.77582 0.92329 0.22628 0.0
H614 H 0.73063 0.96527 0.18868 0.0
C615 C 0.6348 0.85475 0.19903 0.0
C616 C 0.2036 0.6627 0.17911 0.0
C617 C 0.22457 0.71245 0.18432 0.0
H618 H 0.15107 0.60279 0.14271 0.0
C619 C 0.21326 0.74096 0.15208 0.0
H620 H 0.21189 0.63968 0.20312 0.0
C621 C 0.17891 0.71991 0.11728 0.0
C622 C 0.15464 0.6697 0.11385 0.0
H623 H 0.22931 0.77946 0.15456 0.0
H624 H 0.1694 0.74293 0.09425 0.0
C625 C 0.16891 0.64152 0.14426 0.0
C626 C 0.36073 0.90464 0.91555 0.0
C627 C 0.35496 0.85746 0.9141 0.0
H628 H 0.39102 0.96964 0.95041 0.0
C629 C 0.37156 0.83893 0.9516 0.0
H630 H 0.34851 0.92071 0.88763 0.0
C631 C 0.39394 0.86622 0.98815 0.0
C632 C 0.40278 0.91451 0.98928 0.0
H633 H 0.36761 0.80297 0.95274 0.0
H634 H 0.40658 0.84964 0.01542 0.0
C635 C 0.38473 0.93284 0.9521 0.0
C636 C 0.19193 0.41149 0.97855 0.0
C637 C 0.16415 0.38893 0.94126 0.0
H638 H 0.19962 0.45664 0.02764 0.0
C639 C 0.12683 0.39931 0.92136 0.0
H640 H 0.22103 0.40375 0.99405 0.0
C641 C 0.11455 0.42888 0.94043 0.0
C642 C 0.13986 0.44883 0.97934 0.0
H643 H 0.10527 0.38222 0.89247 0.0
H644 H 0.08338 0.43397 0.92607 0.0
C645 C 0.18005 0.44182 0.99744 0.0
C646 C 0.66359 0.1971 0.90978 0.0
C647 C 0.70014 0.18739 0.89773 0.0
H648 H 0.60727 0.17883 0.9518 0.0
C649 C 0.70509 0.14859 0.92008 0.0
H650 H 0.65811 0.22647 0.89365 0.0
C651 C 0.67622 0.12166 0.95337 0.0
C652 C 0.64019 0.1314 0.96609 0.0
H653 H 0.7321 0.13916 0.91233 0.0
H654 H 0.68263 0.09284 0.96963 0.0
C655 C 0.63391 0.16942 0.94314 0.0
C656 C 0.87128 0.66542 0.86035 0.0
C657 C 0.88958 0.71566 0.85976 0.0
H658 H 0.87851 0.60386 0.88804 0.0
C659 C 0.93465 0.74294 0.88371 0.0
H660 H 0.83691 0.64304 0.84207 0.0
C661 C 0.95915 0.72025 0.90956 0.0
C662 C 0.93878 0.66967 0.91258 0.0
H663 H 0.95011 0.78165 0.88377 0.0
H664 H 0.99238 0.74227 0.92933 0.0
C665 C 0.89533 0.64276 0.88658 0.0
C666 C 0.05658 0.36797 0.20737 0.0
C667 C 0.09809 0.36292 0.20358 0.0
H668 H 1.0188 0.40947 0.18793 0.0
C669 C 0.13792 0.40044 0.18439 0.0
H670 H 1.02575 0.33941 0.22245 0.0
C671 C 0.13408 0.44035 0.16482 0.0
C672 C 0.08994 0.44265 0.16365 0.0
H673 H 0.17032 0.3969 0.18137 0.0
H674 H 0.16319 0.46612 0.14625 0.0
C675 C 0.05271 0.40799 0.18769 0.0
C676 C 0.16342 0.72652 0.89189 0.0
C677 C 0.1698 0.70324 0.85999 0.0
H678 H 0.13505 0.71823 0.95192 0.0
C679 C 0.14477 0.65268 0.8609 0.0
H680 H 0.18273 0.76538 0.89244 0.0
C681 C 0.11759 0.62601 0.89465 0.0
C682 C 0.11448 0.64915 0.92821 0.0
H683 H 0.14885 0.63357 0.83692 0.0
H684 H 0.10173 0.58717 0.89599 0.0
C685 C 0.13618 0.69961 0.92595 0.0
C686 C 0.40028 0.19476 0.889 0.0
C687 C 0.35834 0.19923 0.89541 0.0
H688 H 0.45548 0.17245 0.91455 0.0
C689 C 0.34183 0.18364 0.93633 0.0
H690 H 0.41474 0.2059 0.85838 0.0
C691 C 0.36571 0.16466 0.96885 0.0
C692 C 0.4074 0.16004 0.9624 0.0
H693 H 0.31055 0.18676 0.94362 0.0
H694 H 0.35147 0.15369 0.99958 0.0
C695 C 0.42406 0.17551 0.92156 0.0
C696 C 0.87702 0.41576 0.88334 0.0
C697 C 0.85556 0.36581 0.89304 0.0
H698 H 0.91553 0.48606 0.90815 0.0
C699 C 0.84539 0.34857 0.93489 0.0
H700 H 0.88367 0.42997 0.85093 0.0
C701 C 0.86096 0.38068 0.96717 0.0
C702 C 0.88888 0.43057 0.95851 0.0
H703 H 0.8268 0.31026 0.94291 0.0
H704 H 0.85643 0.36622 0.99977 0.0
C705 C 0.89386 0.44799 0.9159 0.0
C706 C 0.679 0.8949 0.9757 0.0
C707 C 0.72546 0.93094 0.96517 0.0
H708 H 0.6144 0.87712 1.00508 0.0
C709 C 0.74134 0.97843 0.97554 0.0
H710 H 0.66587 0.85779 0.96885 0.0
C711 C 0.71203 0.98933 0.99698 0.0
C712 C 0.66603 0.95306 1.00808 0.0
H713 H 0.77645 0.00721 0.96717 0.0
H714 H 0.72551 0.02616 1.005 0.0
C715 C 0.64948 0.90591 0.99663 0.0
C716 C 0.93298 0.68868 0.17185 0.0
C717 C 0.92174 0.72623 0.15695 0.0
H718 H 0.93691 0.62711 0.15598 0.0
C719 C 0.89567 0.7237 0.11626 0.0
H720 H 0.95291 0.68879 0.20275 0.0
C721 C 0.88768 0.68859 0.08903 0.0
C722 C 0.9039 0.65456 0.10276 0.0
H723 H 0.88395 0.75041 0.10435 0.0
H724 H 0.87337 0.69097 0.05613 0.0
C725 C 0.92318 0.65265 0.14518 0.0
C726 C 0.43042 0.87562 0.21579 0.0
C727 C 0.40412 0.88026 0.24563 0.0
H728 H 0.46737 0.90659 0.15973 0.0
C729 C 0.40103 0.92308 0.24579 0.0
H730 H 0.4336 0.84308 0.21537 0.0
C731 C 0.41897 0.9584 0.21357 0.0
C732 C 0.44159 0.95193 0.18185 0.0
H733 H 0.38148 0.92793 0.26878 0.0
H734 H 0.41328 0.98973 0.21237 0.0
C735 C 0.44962 0.91174 0.18414 0.0
C736 C 0.72415 0.15304 0.18895 0.0
C737 C 0.74091 0.2007 0.19787 0.0
H738 H 0.66788 0.0931 0.15623 0.0
C739 C 0.72019 0.22809 0.1743 0.0
H740 H 0.73968 0.13156 0.20728 0.0
C741 C 0.67921 0.20648 0.14524 0.0
C742 C 0.6586 0.15721 0.1396 0.0
H743 H 0.73339 0.26538 0.18074 0.0
H744 H 0.66179 0.22756 0.12967 0.0
C745 C 0.68293 0.13123 0.15983 0.0
C746 C 0.65134 0.65585 0.87904 0.0
C747 C 0.70119 0.67122 0.87626 0.0
H748 H 0.5901 0.61341 0.91501 0.0
C749 C 0.72671 0.65181 0.90498 0.0
H750 H 0.63126 0.67063 0.85701 0.0
C751 C 0.70372 0.61966 0.93791 0.0
C752 C 0.65478 0.60658 0.94297 0.0
H753 H 0.76519 0.6629 0.90282 0.0
H754 H 0.72507 0.6066 0.96031 0.0
C755 C 0.62814 0.62356 0.91237 0.0
C756 C 0.40033 0.60746 0.91765 0.0
C757 C 0.37189 0.55987 0.90466 0.0
H758 H 0.46985 0.661 0.94348 0.0
C759 C 0.39501 0.53182 0.90239 0.0
H760 H 0.38409 0.63082 0.91844 0.0
C761 C 0.44505 0.54971 0.91661 0.0
C762 C 0.47232 0.59617 0.9322 0.0
H763 H 0.37413 0.49597 0.89088 0.0
H764 H 0.46176 0.52632 0.91801 0.0
C765 C 0.45005 0.62555 0.93084 0.0
C766 C 0.42782 0.39148 0.87659 0.0
C767 C 0.37988 0.38585 0.8694 0.0
H768 H 0.491 0.40737 0.9218 0.0
C769 C 0.36171 0.39999 0.90016 0.0
H770 H 0.44234 0.38012 0.85371 0.0
C771 C 0.38961 0.4156 0.93913 0.0
C772 C 0.43506 0.41569 0.94788 0.0
H773 H 0.32453 0.39548 0.89528 0.0
H774 H 0.37464 0.42495 0.9631 0.0
C775 C 0.45495 0.40563 0.9159 0.0
C776 C 0.63909 0.38092 0.93616 0.0
C777 C 0.68727 0.4096 0.92583 0.0
H778 H 0.58777 0.3624 0.98086 0.0
C779 C 0.72277 0.44097 0.95585 0.0
H780 H 0.6114 0.35561 0.91401 0.0
C781 C 0.70922 0.44558 0.99466 0.0
C782 C 0.66036 0.41759 1.00454 0.0
H783 H 0.76053 0.46276 0.94877 0.0
H784 H 0.73644 0.47196 0.01621 0.0
C785 C 0.62598 0.38426 0.97512 0.0
C786 C 0.62468 0.48335 0.25693 0.0
C787 C 0.61221 0.43629 0.27245 0.0
H788 H 0.61649 0.52566 0.20237 0.0
C789 C 0.56586 0.39924 0.25783 0.0
H790 H 0.65845 0.51322 0.26949 0.0
C791 C 0.54543 0.40493 0.21683 0.0
C792 C 0.56854 0.4495 0.19464 0.0
H793 H 0.55392 0.36284 0.27129 0.0
H794 H 0.51782 0.37333 0.20065 0.0
C795 C 0.60174 0.49004 0.21765 0.0
C796 C 0.74157 0.71807 0.15296 0.0
C797 C 0.74832 0.69142 0.18944 0.0
H798 H 0.69843 0.71682 0.09371 0.0
C799 C 0.723 0.64084 0.18941 0.0
H800 H 0.76068 0.75701 0.15169 0.0
C801 C 0.68813 0.61769 0.15531 0.0
C802 C 0.67659 0.64468 0.12172 0.0
H803 H 0.72789 0.61923 0.21683 0.0
H804 H 0.66759 0.57896 0.15681 0.0
C805 C 0.70564 0.69498 0.11973 0.0
C806 C 0.38918 0.66427 0.10937 0.0
C807 C 0.36107 0.62486 0.13615 0.0
H808 H 0.43218 0.68829 0.05673 0.0
C809 C 0.34507 0.57803 0.1242 0.0
H810 H 0.4021 0.70086 0.11778 0.0
C811 C 0.36179 0.57097 0.08862 0.0
C812 C 0.39543 0.61074 0.06543 0.0
H813 H 0.32265 0.54714 0.14398 0.0
H814 H 0.35302 0.53464 0.08246 0.0
C815 C 0.40632 0.65723 0.07426 0.0
C816 C 0.41942 0.41698 0.21422 0.0
C817 C 0.37126 0.37929 0.20545 0.0
H818 H 0.48403 0.47424 0.18836 0.0
C819 C 0.35203 0.37057 0.16268 0.0
H820 H 0.4357 0.42432 0.24679 0.0
C821 C 0.37949 0.39892 0.12968 0.0
C822 C 0.4274 0.43658 0.13819 0.0
H823 H 0.31551 0.34161 0.15449 0.0
H824 H 0.36312 0.39114 0.09716 0.0
C825 C 0.4474 0.44517 0.18085 0.0
C826 C 0.84634 0.55839 0.62249 0.0
C827 C 0.86359 0.60498 0.63594 0.0
H828 H 0.86095 0.51195 0.58983 0.0
C829 C 0.91087 0.64078 0.62728 0.0
H830 H 0.8104 0.52988 0.62925 0.0
C831 C 0.93999 0.63043 0.60519 0.0
C832 C 0.92229 0.58417 0.59086 0.0
H833 H 0.92495 0.67725 0.63657 0.0
H834 H 0.97584 0.65907 0.59834 0.0
C835 C 0.87535 0.54812 0.60004 0.0
C836 C 0.43095 0.8221 0.70583 0.0
C837 C 0.42213 0.84387 0.73747 0.0
H838 H 0.46281 0.83284 0.64702 0.0
C839 C 0.44522 0.89454 0.73655 0.0
H840 H 0.41331 0.78329 0.70514 0.0
C841 C 0.47275 0.92251 0.70337 0.0
C842 C 0.47905 0.90091 0.67039 0.0
H843 H 0.43956 0.91285 0.76025 0.0
H844 H 0.48707 0.96117 0.70232 0.0
C845 C 0.45925 0.85046 0.67254 0.0
C846 C 0.21511 0.32246 0.66422 0.0
C847 C 0.22636 0.33657 0.70681 0.0
H848 H 0.18373 0.32912 0.60005 0.0
C849 C 0.21331 0.37182 0.71505 0.0
H850 H 0.22448 0.29602 0.65561 0.0
C851 C 0.19145 0.39265 0.68212 0.0
C852 C 0.17935 0.37761 0.63976 0.0
H853 H 0.22117 0.38435 0.74691 0.0
H854 H 0.18362 0.42046 0.69 0.0
C855 C 0.19133 0.3416 0.63192 0.0
C856 C 0.68331 0.17181 0.67512 0.0
C857 C 0.71827 0.16951 0.70717 0.0
H858 H 0.6409 0.14565 0.61601 0.0
C859 C 0.73328 0.13403 0.70615 0.0
H860 H 0.671 0.19856 0.67505 0.0
C861 C 0.71551 0.1031 0.67258 0.0
C862 C 0.68312 0.10767 0.63909 0.0
H863 H 0.75994 0.13104 0.73073 0.0
H864 H 0.72903 0.07742 0.67171 0.0
C865 C 0.66627 0.14152 0.64125 0.0
C866 C 0.90476 0.34746 0.38074 0.0
C867 C 0.86252 0.35137 0.38408 0.0
H868 H 0.97672 0.36195 0.40825 0.0
C869 C 0.86041 0.37459 0.418 0.0
H870 H 0.9077 0.33159 0.35369 0.0
C871 C 0.90048 0.39307 0.44898 0.0
C872 C 0.94221 0.38768 0.44616 0.0
H873 H 0.82787 0.37798 0.42071 0.0
H874 H 0.89882 0.4112 0.47506 0.0
C875 C 0.94411 0.36485 0.41187 0.0
C876 C 0.69923 0.84881 0.43936 0.0
C877 C 0.65469 0.81822 0.41617 0.0
H878 H 0.73272 0.89784 0.48986 0.0
C879 C 0.61222 0.82204 0.41825 0.0
H880 H 0.7327 0.84695 0.43701 0.0
C881 C 0.61229 0.85048 0.44813 0.0
C882 C 0.6548 0.87525 0.47617 0.0
H883 H 0.57775 0.79916 0.4003 0.0
H884 H 0.57784 0.84992 0.4516 0.0
C885 C 0.69932 0.87759 0.46948 0.0
C886 C 0.19417 0.61336 0.35819 0.0
C887 C 0.18844 0.65485 0.35572 0.0
H888 H 0.18234 0.54808 0.39379 0.0
C889 C 0.15617 0.65753 0.38037 0.0
H890 H 0.21874 0.61087 0.33883 0.0
C891 C 0.13508 0.62141 0.4117 0.0
C892 C 0.14709 0.58348 0.41824 0.0
H893 H 0.15179 0.68964 0.37875 0.0
H894 H 0.11382 0.62571 0.43342 0.0
C895 C 0.17389 0.57788 0.38968 0.0
C896 C 0.45142 0.12054 0.38995 0.0
C897 C 0.48791 0.16828 0.38317 0.0
H898 H 0.43521 0.05163 0.4205 0.0
C899 C 0.5375 0.17886 0.38995 0.0
H900 H 0.41278 0.11115 0.38348 0.0
C901 C 0.55038 0.14462 0.41061 0.0
C902 C 0.51378 0.09973 0.42518 0.0
H903 H 0.56642 0.21513 0.38438 0.0
H904 H 0.58903 0.15596 0.42025 0.0
C905 C 0.46429 0.08631 0.41087 0.0
C906 C 0.72376 0.87809 0.73986 0.0
C907 C 0.70644 0.82818 0.73981 0.0
H908 H 0.71642 0.93935 0.71034 0.0
C909 C 0.66363 0.80076 0.71346 0.0
H910 H 0.75706 0.90008 0.75961 0.0
C911 C 0.63953 0.82285 0.6865 0.0
C912 C 0.65869 0.87318 0.68406 0.0
H913 H 0.6497 0.76229 0.71265 0.0
H914 H 0.60777 0.80066 0.66536 0.0
C915 C 0.70058 0.90053 0.71166 0.0
C916 C 0.74407 0.14067 0.40979 0.0
C917 C 0.71475 0.15602 0.38101 0.0
H918 H 0.74905 0.0978 0.46543 0.0
C919 C 0.66441 0.13567 0.38661 0.0
H920 H 0.78303 0.15565 0.40693 0.0
C921 C 0.64424 0.10089 0.42012 0.0
C922 C 0.67418 0.087 0.44992 0.0
H923 H 0.64053 0.14616 0.36481 0.0
H924 H 0.60522 0.08466 0.42242 0.0
C925 C 0.72436 0.10727 0.44368 0.0
C926 C 0.85685 0.63622 0.37745 0.0
C927 C 0.87909 0.6866 0.36461 0.0
H928 H 0.86259 0.57338 0.40832 0.0
C929 C 0.93123 0.70942 0.37718 0.0
H930 H 0.81751 0.61507 0.36993 0.0
C931 C 0.9579 0.68476 0.40068 0.0
C932 C 0.93569 0.63427 0.41322 0.0
H933 H 0.95214 0.74756 0.36948 0.0
H934 H 0.99701 0.70616 0.40923 0.0
C935 C 0.88367 0.61137 0.4001 0.0
C936 C 0.38096 0.79733 0.45283 0.0
C937 C 0.36718 0.8235 0.42024 0.0
H938 H 0.42374 0.79874 0.51182 0.0
C939 C 0.38328 0.87263 0.42491 0.0
H940 H 0.3686 0.75937 0.45019 0.0
C941 C 0.41654 0.8961 0.45991 0.0
C942 C 0.43316 0.87042 0.49125 0.0
H943 H 0.37296 0.89356 0.40005 0.0
H944 H 0.43138 0.93464 0.46104 0.0
C945 C 0.41263 0.82021 0.48825 0.0
C946 C 0.2764 0.38789 0.4078 0.0
C947 C 0.24694 0.35238 0.37684 0.0
H948 H 0.28253 0.4346 0.45677 0.0
C949 C 0.19592 0.33958 0.37561 0.0
H950 H 0.3157 0.40028 0.41186 0.0
C951 C 0.17638 0.35944 0.40242 0.0
C952 C 0.20545 0.39497 0.43331 0.0
H953 H 0.16988 0.31289 0.35381 0.0
H954 H 0.13693 0.34617 0.39864 0.0
C955 C 0.25679 0.40838 0.43444 0.0
C956 C 0.48721 0.20073 0.61482 0.0
C957 C 0.45713 0.1796 0.64811 0.0
H958 H 0.52458 0.19089 0.56861 0.0
C959 C 0.43984 0.13028 0.65923 0.0
H960 H 0.5001 0.23829 0.60477 0.0
C961 C 0.45311 0.10292 0.63775 0.0
C962 C 0.48398 0.1246 0.60521 0.0
H963 H 0.41701 0.1131 0.68505 0.0
H964 H 0.44089 0.0654 0.64759 0.0
C965 C 0.50081 0.17357 0.59382 0.0
C966 C 0.86651 0.3723 0.66507 0.0
C967 C 0.88384 0.3507 0.69974 0.0
H968 H 0.87952 0.41449 0.60655 0.0
C969 C 0.93223 0.3569 0.69949 0.0
H970 H 0.83004 0.36911 0.66349 0.0
C971 C 0.96174 0.38367 0.66577 0.0
C972 C 0.9439 0.4052 0.631 0.0
H973 H 0.94736 0.34087 0.72534 0.0
H974 H 0.99833 0.38731 0.66695 0.0
C975 C 0.89557 0.39871 0.63186 0.0
C976 C 0.2231 0.63585 0.68994 0.0
C977 C 0.23421 0.68512 0.68905 0.0
H978 H 0.18964 0.56913 0.6572 0.0
C979 C 0.22277 0.70438 0.64933 0.0
H980 H 0.23107 0.6188 0.71939 0.0
C981 C 0.20009 0.67593 0.61319 0.0
C982 C 0.18677 0.62612 0.61424 0.0
H983 H 0.23058 0.7417 0.64614 0.0
H984 H 0.19097 0.69301 0.58426 0.0
C985 C 0.19971 0.60702 0.65364 0.0
loop_
_geom_bond_atom_site_label_1
_geom_bond_atom_site_label_2
_geom_bond_distance
_geom_bond_site_symmetry_2
_ccdc_geom_bond_type
Tb0 C9 2.764 . S
Tb0 O10 2.325 . S
Tb0 O13 2.303 . S
Tb0 O17 2.322 . S
Tb0 O18 2.349 . S
Tb0 O21 2.415 . S
Tb0 O22 2.399 . S
Tb1 O11 2.322 . S
Tb1 O12 2.349 . S
Tb1 O14 2.415 . S
Tb1 O15 2.399 . S
Tb1 O16 2.325 . S
Tb1 O19 2.303 . S
Tb1 C30 2.764 . S
C2 O18 1.261 . S
C2 O19 1.257 . S
C3 C6 1.358 . S
C3 C7 1.332 . S
C3 C9 1.504 . S
C4 C5 1.373 . S
C4 C8 1.308 . S
C5 C4 1.373 . S
C5 C6 1.429 . S
C5 H32 0.932 . S
C6 C3 1.358 . S
C6 C5 1.429 . S
C6 H33 0.930 . S
C7 C3 1.332 . S
C7 C8 1.394 . S
C7 H34 0.932 . S
C8 C4 1.308 . S
C8 C7 1.394 . S
C8 H35 0.929 . S
C9 Tb0 2.764 . S
C9 C3 1.504 . S
C9 O21 1.239 . S
C9 O22 1.263 . S
O10 Tb0 2.325 . S
O10 C20 1.236 . S
O11 Tb1 2.322 . S
O11 C20 1.257 . S
O12 Tb1 2.349 . S
O12 C23 1.261 . S
O13 Tb0 2.303 . S
O13 C23 1.257 . S
O14 Tb1 2.415 . S
O14 C30 1.239 . S
O15 Tb1 2.399 . S
O15 C30 1.263 . S
O16 Tb1 2.325 . S
O16 C31 1.236 . S
O17 Tb0 2.322 . S
O17 C31 1.257 . S
O18 Tb0 2.349 . S
O18 C2 1.261 . S
O19 Tb1 2.303 . S
O19 C2 1.257 . S
C20 O10 1.236 . S
C20 O11 1.257 . S
O21 Tb0 2.415 . S
O21 C9 1.239 . S
O22 Tb0 2.399 . S
O22 C9 1.263 . S
C23 O12 1.261 . S
C23 O13 1.257 . S
C24 C27 1.358 . S
C24 C28 1.332 . S
C24 C30 1.504 . S
C25 C26 1.373 . S
C25 C29 1.308 . S
C26 C25 1.373 . S
C26 C27 1.429 . S
C26 H36 0.932 . S
C27 C24 1.358 . S
C27 C26 1.429 . S
C27 H37 0.930 . S
C28 C24 1.332 . S
C28 C29 1.394 . S
C28 H38 0.932 . S
C29 C25 1.308 . S
C29 C28 1.394 . S
C29 H39 0.929 . S
C30 Tb1 2.764 . S
C30 O14 1.239 . S
C30 O15 1.263 . S
C30 C24 1.504 . S
C31 O16 1.236 . S
C31 O17 1.257 . S
H32 C5 0.932 . S
H33 C6 0.930 . S
H34 C7 0.932 . S
H35 C8 0.929 . S
H36 C26 0.932 . S
H37 C27 0.930 . S
H38 C28 0.932 . S
H39 C29 0.929 . S
Tb40 C49 2.764 . S
Tb40 O50 2.325 . S
Tb40 O53 2.303 . S
Tb40 O57 2.322 . S
Tb40 O58 2.349 . S
Tb40 O61 2.415 . S
Tb40 O62 2.399 . S
Tb41 O51 2.322 . S
Tb41 O52 2.349 . S
Tb41 O54 2.415 . S
Tb41 O55 2.399 . S
Tb41 O56 2.325 . S
Tb41 O59 2.303 . S
Tb41 C70 2.764 . S
C42 O58 1.261 . S
C42 O59 1.257 . S
C43 C46 1.358 . S
C43 C47 1.332 . S
C43 C49 1.504 . S
C44 C45 1.373 . S
C44 C48 1.308 . S
C45 C44 1.373 . S
C45 C46 1.429 . S
C45 H72 0.932 . S
C46 C43 1.358 . S
C46 C45 1.429 . S
C46 H73 0.930 . S
C47 C43 1.332 . S
C47 C48 1.394 . S
C47 H74 0.932 . S
C48 C44 1.308 . S
C48 C47 1.394 . S
C48 H75 0.929 . S
C49 Tb40 2.764 . S
C49 C43 1.504 . S
C49 O61 1.239 . S
C49 O62 1.263 . S
O50 Tb40 2.325 . S
O50 C60 1.236 . S
O51 Tb41 2.322 . S
O51 C60 1.257 . S
O52 Tb41 2.349 . S
O52 C63 1.261 . S
O53 Tb40 2.303 . S
O53 C63 1.257 . S
O54 Tb41 2.415 . S
O54 C70 1.239 . S
O55 Tb41 2.399 . S
O55 C70 1.263 . S
O56 Tb41 2.325 . S
O56 C71 1.236 . S
O57 Tb40 2.322 . S
O57 C71 1.257 . S
O58 Tb40 2.349 . S
O58 C42 1.261 . S
O59 Tb41 2.303 . S
O59 C42 1.257 . S
C60 O50 1.236 . S
C60 O51 1.257 . S
O61 Tb40 2.415 . S
O61 C49 1.239 . S
O62 Tb40 2.399 . S
O62 C49 1.263 . S
C63 O52 1.261 . S
C63 O53 1.257 . S
C64 C67 1.358 . S
C64 C68 1.332 . S
C64 C70 1.504 . S
C65 C66 1.373 . S
C65 C69 1.308 . S
C66 C65 1.373 . S
C66 C67 1.429 . S
C66 H76 0.932 . S
C67 C64 1.358 . S
C67 C66 1.429 . S
C67 H77 0.930 . S
C68 C64 1.332 . S
C68 C69 1.394 . S
C68 H78 0.932 . S
C69 C65 1.308 . S
C69 C68 1.394 . S
C69 H79 0.929 . S
C70 Tb41 2.764 . S
C70 O54 1.239 . S
C70 O55 1.263 . S
C70 C64 1.504 . S
C71 O56 1.236 . S
C71 O57 1.257 . S
H72 C45 0.932 . S
H73 C46 0.930 . S
H74 C47 0.932 . S
H75 C48 0.929 . S
H76 C66 0.932 . S
H77 C67 0.930 . S
H78 C68 0.932 . S
H79 C69 0.929 . S
Tb80 C89 2.764 . S
Tb80 O90 2.325 . S
Tb80 O93 2.303 . S
Tb80 O97 2.322 . S
Tb80 O98 2.349 . S
Tb80 O101 2.415 . S
Tb80 O102 2.399 . S
Tb81 O91 2.322 . S
Tb81 O92 2.349 . S
Tb81 O94 2.415 . S
Tb81 O95 2.399 . S
Tb81 O96 2.325 . S
Tb81 O99 2.303 . S
Tb81 C110 2.764 . S
C82 O98 1.261 . S
C82 O99 1.257 . S
C83 C86 1.358 . S
C83 C87 1.332 . S
C83 C89 1.504 . S
C84 C85 1.373 . S
C84 C88 1.308 . S
C85 C84 1.373 . S
C85 C86 1.429 . S
C85 H112 0.932 1_655 S
C86 C83 1.358 . S
C86 C85 1.429 . S
C86 H113 0.930 . S
C87 C83 1.332 . S
C87 C88 1.394 . S
C87 H114 0.932 . S
C88 C84 1.308 . S
C88 C87 1.394 . S
C88 H115 0.929 . S
C89 Tb80 2.764 . S
C89 C83 1.504 . S
C89 O101 1.239 . S
C89 O102 1.263 . S
O90 Tb80 2.325 . S
O90 C100 1.236 . S
O91 Tb81 2.322 . S
O91 C100 1.257 . S
O92 Tb81 2.349 . S
O92 C103 1.261 . S
O93 Tb80 2.303 . S
O93 C103 1.257 . S
O94 Tb81 2.415 . S
O94 C110 1.239 . S
O95 Tb81 2.399 . S
O95 C110 1.263 . S
O96 Tb81 2.325 . S
O96 C111 1.236 . S
O97 Tb80 2.322 . S
O97 C111 1.257 . S
O98 Tb80 2.349 . S
O98 C82 1.261 . S
O99 Tb81 2.303 . S
O99 C82 1.257 . S
C100 O90 1.236 . S
C100 O91 1.257 . S
O101 Tb80 2.415 . S
O101 C89 1.239 . S
O102 Tb80 2.399 . S
O102 C89 1.263 . S
C103 O92 1.261 . S
C103 O93 1.257 . S
C104 C107 1.358 . S
C104 C108 1.332 . S
C104 C110 1.504 . S
C105 C106 1.373 . S
C105 C109 1.308 . S
C106 C105 1.373 . S
C106 C107 1.429 . S
C106 H116 0.932 . S
C107 C104 1.358 . S
C107 C106 1.429 . S
C107 H117 0.930 . S
C108 C104 1.332 . S
C108 C109 1.394 . S
C108 H118 0.932 . S
C109 C105 1.308 . S
C109 C108 1.394 . S
C109 H119 0.929 . S
C110 Tb81 2.764 . S
C110 O94 1.239 . S
C110 O95 1.263 . S
C110 C104 1.504 . S
C111 O96 1.236 . S
C111 O97 1.257 . S
H112 C85 0.932 1_455 S
H113 C86 0.930 . S
H114 C87 0.932 . S
H115 C88 0.929 . S
H116 C106 0.932 . S
H117 C107 0.930 . S
H118 C108 0.932 . S
H119 C109 0.929 . S
Tb120 C129 2.764 . S
Tb120 O130 2.325 . S
Tb120 O133 2.303 . S
Tb120 O137 2.322 . S
Tb120 O138 2.349 . S
Tb120 O141 2.415 . S
Tb120 O142 2.399 . S
Tb121 O131 2.322 . S
Tb121 O132 2.349 . S
Tb121 O134 2.415 . S
Tb121 O135 2.399 . S
Tb121 O136 2.325 . S
Tb121 O139 2.303 . S
Tb121 C150 2.764 . S
C122 O138 1.261 . S
C122 O139 1.257 . S
C123 C126 1.358 . S
C123 C127 1.332 . S
C123 C129 1.504 . S
C124 C125 1.373 . S
C124 C128 1.308 . S
C125 C124 1.373 . S
C125 C126 1.429 . S
C125 H152 0.932 . S
C126 C123 1.358 . S
C126 C125 1.429 . S
C126 H153 0.930 . S
C127 C123 1.332 . S
C127 C128 1.394 . S
C127 H154 0.932 . S
C128 C124 1.308 . S
C128 C127 1.394 . S
C128 H155 0.929 . S
C129 Tb120 2.764 . S
C129 C123 1.504 . S
C129 O141 1.239 . S
C129 O142 1.263 . S
O130 Tb120 2.325 . S
O130 C140 1.236 . S
O131 Tb121 2.322 . S
O131 C140 1.257 . S
O132 Tb121 2.349 . S
O132 C143 1.261 . S
O133 Tb120 2.303 . S
O133 C143 1.257 . S
O134 Tb121 2.415 . S
O134 C150 1.239 . S
O135 Tb121 2.399 . S
O135 C150 1.263 . S
O136 Tb121 2.325 . S
O136 C151 1.236 . S
O137 Tb120 2.322 . S
O137 C151 1.257 . S
O138 Tb120 2.349 . S
O138 C122 1.261 . S
O139 Tb121 2.303 . S
O139 C122 1.257 . S
C140 O130 1.236 . S
C140 O131 1.257 . S
O141 Tb120 2.415 . S
O141 C129 1.239 . S
O142 Tb120 2.399 . S
O142 C129 1.263 . S
C143 O132 1.261 . S
C143 O133 1.257 . S
C144 C147 1.358 . S
C144 C148 1.332 . S
C144 C150 1.504 . S
C145 C146 1.373 . S
C145 C149 1.308 . S
C146 C145 1.373 . S
C146 C147 1.429 . S
C146 H156 0.932 . S
C147 C144 1.358 . S
C147 C146 1.429 . S
C147 H157 0.930 . S
C148 C144 1.332 . S
C148 C149 1.394 . S
C148 H158 0.932 . S
C149 C145 1.308 . S
C149 C148 1.394 . S
C149 H159 0.929 . S
C150 Tb121 2.764 . S
C150 O134 1.239 . S
C150 O135 1.263 . S
C150 C144 1.504 . S
C151 O136 1.236 . S
C151 O137 1.257 . S
H152 C125 0.932 . S
H153 C126 0.930 . S
H154 C127 0.932 . S
H155 C128 0.929 . S
H156 C146 0.932 . S
H157 C147 0.930 . S
H158 C148 0.932 . S
H159 C149 0.929 . S
Tb160 C169 2.764 . S
Tb160 O170 2.325 . S
Tb160 O173 2.303 . S
Tb160 O177 2.322 . S
Tb160 O178 2.349 . S
Tb160 O181 2.415 . S
Tb160 O182 2.399 . S
Tb161 O171 2.322 . S
Tb161 O172 2.349 . S
Tb161 O174 2.415 . S
Tb161 O175 2.399 . S
Tb161 O176 2.325 . S
Tb161 O179 2.303 . S
Tb161 C190 2.764 . S
C162 O178 1.261 . S
C162 O179 1.257 . S
C163 C166 1.358 . S
C163 C167 1.332 . S
C163 C169 1.504 . S
C164 C165 1.373 . S
C164 C168 1.308 . S
C165 C164 1.373 . S
C165 C166 1.429 . S
C165 H192 0.932 . S
C166 C163 1.358 . S
C166 C165 1.429 . S
C166 H193 0.930 . S
C167 C163 1.332 . S
C167 C168 1.394 . S
C167 H194 0.932 . S
C168 C164 1.308 . S
C168 C167 1.394 . S
C168 H195 0.929 . S
C169 Tb160 2.764 . S
C169 C163 1.504 . S
C169 O181 1.239 . S
C169 O182 1.263 . S
O170 Tb160 2.325 . S
O170 C180 1.236 . S
O171 Tb161 2.322 . S
O171 C180 1.257 . S
O172 Tb161 2.349 . S
O172 C183 1.261 . S
O173 Tb160 2.303 . S
O173 C183 1.257 . S
O174 Tb161 2.415 . S
O174 C190 1.239 . S
O175 Tb161 2.399 . S
O175 C190 1.263 . S
O176 Tb161 2.325 . S
O176 C191 1.236 . S
O177 Tb160 2.322 . S
O177 C191 1.257 . S
O178 Tb160 2.349 . S
O178 C162 1.261 . S
O179 Tb161 2.303 . S
O179 C162 1.257 . S
C180 O170 1.236 . S
C180 O171 1.257 . S
O181 Tb160 2.415 . S
O181 C169 1.239 . S
O182 Tb160 2.399 . S
O182 C169 1.263 . S
C183 O172 1.261 . S
C183 O173 1.257 . S
C184 C187 1.358 . S
C184 C188 1.332 . S
C184 C190 1.504 . S
C185 C186 1.373 . S
C185 C189 1.308 . S
C186 C185 1.373 . S
C186 C187 1.429 . S
C186 H196 0.932 . S
C187 C184 1.358 . S
C187 C186 1.429 . S
C187 H197 0.930 . S
C188 C184 1.332 . S
C188 C189 1.394 . S
C188 H198 0.932 . S
C189 C185 1.308 . S
C189 C188 1.394 . S
C189 H199 0.929 . S
C190 Tb161 2.764 . S
C190 O174 1.239 . S
C190 O175 1.263 . S
C190 C184 1.504 . S
C191 O176 1.236 . S
C191 O177 1.257 . S
H192 C165 0.932 . S
H193 C166 0.930 . S
H194 C167 0.932 . S
H195 C168 0.929 . S
H196 C186 0.932 . S
H197 C187 0.930 . S
H198 C188 0.932 . S
H199 C189 0.929 . S
Tb200 C209 2.764 . S
Tb200 O210 2.325 . S
Tb200 O213 2.303 . S
Tb200 O217 2.322 . S
Tb200 O218 2.349 . S
Tb200 O221 2.415 . S
Tb200 O222 2.399 . S
Tb201 O211 2.322 . S
Tb201 O212 2.349 . S
Tb201 O214 2.415 . S
Tb201 O215 2.399 . S
Tb201 O216 2.325 . S
Tb201 O219 2.303 . S
Tb201 C230 2.764 . S
C202 O218 1.261 . S
C202 O219 1.257 . S
C203 C206 1.358 . S
C203 C207 1.332 . S
C203 C209 1.504 . S
C204 C205 1.373 . S
C204 C208 1.308 . S
C205 C204 1.373 . S
C205 C206 1.429 . S
C205 H232 0.932 . S
C206 C203 1.358 . S
C206 C205 1.429 . S
C206 H233 0.930 . S
C207 C203 1.332 . S
C207 C208 1.394 . S
C207 H234 0.932 . S
C208 C204 1.308 . S
C208 C207 1.394 . S
C208 H235 0.929 . S
C209 Tb200 2.764 . S
C209 C203 1.504 . S
C209 O221 1.239 . S
C209 O222 1.263 . S
O210 Tb200 2.325 . S
O210 C220 1.236 . S
O211 Tb201 2.322 . S
O211 C220 1.257 . S
O212 Tb201 2.349 . S
O212 C223 1.261 . S
O213 Tb200 2.303 . S
O213 C223 1.257 . S
O214 Tb201 2.415 . S
O214 C230 1.239 . S
O215 Tb201 2.399 . S
O215 C230 1.263 . S
O216 Tb201 2.325 . S
O216 C231 1.236 . S
O217 Tb200 2.322 . S
O217 C231 1.257 . S
O218 Tb200 2.349 . S
O218 C202 1.261 . S
O219 Tb201 2.303 . S
O219 C202 1.257 . S
C220 O210 1.236 . S
C220 O211 1.257 . S
O221 Tb200 2.415 . S
O221 C209 1.239 . S
O222 Tb200 2.399 . S
O222 C209 1.263 . S
C223 O212 1.261 . S
C223 O213 1.257 . S
C224 C227 1.358 . S
C224 C228 1.332 . S
C224 C230 1.504 . S
C225 C226 1.373 . S
C225 C229 1.308 . S
C226 C225 1.373 . S
C226 C227 1.429 . S
C226 H236 0.932 . S
C227 C224 1.358 . S
C227 C226 1.429 . S
C227 H237 0.930 . S
C228 C224 1.332 . S
C228 C229 1.394 . S
C228 H238 0.932 . S
C229 C225 1.308 . S
C229 C228 1.394 . S
C229 H239 0.929 . S
C230 Tb201 2.764 . S
C230 O214 1.239 . S
C230 O215 1.263 . S
C230 C224 1.504 . S
C231 O216 1.236 . S
C231 O217 1.257 . S
H232 C205 0.932 . S
H233 C206 0.930 . S
H234 C207 0.932 . S
H235 C208 0.929 . S
H236 C226 0.932 . S
H237 C227 0.930 . S
H238 C228 0.932 . S
H239 C229 0.929 . S
Tb240 C249 2.764 . S
Tb240 O250 2.325 . S
Tb240 O253 2.303 . S
Tb240 O257 2.322 . S
Tb240 O258 2.349 . S
Tb240 O261 2.415 . S
Tb240 O262 2.399 . S
Tb241 O251 2.322 . S
Tb241 O252 2.349 . S
Tb241 O254 2.415 . S
Tb241 O255 2.399 . S
Tb241 O256 2.325 . S
Tb241 O259 2.303 . S
Tb241 C270 2.764 . S
C242 O258 1.261 . S
C242 O259 1.257 . S
C243 C246 1.358 . S
C243 C247 1.332 . S
C243 C249 1.504 . S
C244 C245 1.373 . S
C244 C248 1.308 . S
C245 C244 1.373 . S
C245 C246 1.429 . S
C245 H272 0.932 . S
C246 C243 1.358 . S
C246 C245 1.429 . S
C246 H273 0.930 . S
C247 C243 1.332 . S
C247 C248 1.394 . S
C247 H274 0.932 . S
C248 C244 1.308 . S
C248 C247 1.394 . S
C248 H275 0.929 . S
C249 Tb240 2.764 . S
C249 C243 1.504 . S
C249 O261 1.239 . S
C249 O262 1.263 . S
O250 Tb240 2.325 . S
O250 C260 1.236 . S
O251 Tb241 2.322 . S
O251 C260 1.257 . S
O252 Tb241 2.349 . S
O252 C263 1.261 . S
O253 Tb240 2.303 . S
O253 C263 1.257 . S
O254 Tb241 2.415 . S
O254 C270 1.239 . S
O255 Tb241 2.399 . S
O255 C270 1.263 . S
O256 Tb241 2.325 . S
O256 C271 1.236 . S
O257 Tb240 2.322 . S
O257 C271 1.257 . S
O258 Tb240 2.349 . S
O258 C242 1.261 . S
O259 Tb241 2.303 . S
O259 C242 1.257 . S
C260 O250 1.236 . S
C260 O251 1.257 . S
O261 Tb240 2.415 . S
O261 C249 1.239 . S
O262 Tb240 2.399 . S
O262 C249 1.263 . S
C263 O252 1.261 . S
C263 O253 1.257 . S
C264 C267 1.358 . S
C264 C268 1.332 . S
C264 C270 1.504 . S
C265 C266 1.373 . S
C265 C269 1.308 . S
C266 C265 1.373 . S
C266 C267 1.429 . S
C266 H276 0.932 . S
C267 C264 1.358 . S
C267 C266 1.429 . S
C267 H277 0.930 . S
C268 C264 1.332 . S
C268 C269 1.394 . S
C268 H278 0.932 . S
C269 C265 1.308 . S
C269 C268 1.394 . S
C269 H279 0.929 . S
C270 Tb241 2.764 . S
C270 O254 1.239 . S
C270 O255 1.263 . S
C270 C264 1.504 . S
C271 O256 1.236 . S
C271 O257 1.257 . S
H272 C245 0.932 . S
H273 C246 0.930 . S
H274 C247 0.932 . S
H275 C248 0.929 . S
H276 C266 0.932 . S
H277 C267 0.930 . S
H278 C268 0.932 . S
H279 C269 0.929 . S
Tb280 C289 2.764 . S
Tb280 O290 2.325 . S
Tb280 O293 2.303 . S
Tb280 O297 2.322 . S
Tb280 O298 2.349 . S
Tb280 O301 2.415 . S
Tb280 O302 2.399 . S
Tb281 O291 2.322 . S
Tb281 O292 2.349 . S
Tb281 O294 2.415 . S
Tb281 O295 2.399 . S
Tb281 O296 2.325 . S
Tb281 O299 2.303 . S
Tb281 C310 2.764 . S
C282 O298 1.261 . S
C282 O299 1.257 . S
C283 C286 1.358 . S
C283 C287 1.332 . S
C283 C289 1.504 . S
C284 C285 1.373 . S
C284 C288 1.308 . S
C285 C284 1.373 . S
C285 C286 1.429 . S
C285 H312 0.932 1_565 S
C286 C283 1.358 . S
C286 C285 1.429 . S
C286 H313 0.930 . S
C287 C283 1.332 . S
C287 C288 1.394 . S
C287 H314 0.932 . S
C288 C284 1.308 . S
C288 C287 1.394 . S
C288 H315 0.929 . S
C289 Tb280 2.764 . S
C289 C283 1.504 . S
C289 O301 1.239 . S
C289 O302 1.263 . S
O290 Tb280 2.325 . S
O290 C300 1.236 . S
O291 Tb281 2.322 . S
O291 C300 1.257 . S
O292 Tb281 2.349 . S
O292 C303 1.261 . S
O293 Tb280 2.303 . S
O293 C303 1.257 . S
O294 Tb281 2.415 . S
O294 C310 1.239 . S
O295 Tb281 2.399 . S
O295 C310 1.263 . S
O296 Tb281 2.325 . S
O296 C311 1.236 . S
O297 Tb280 2.322 . S
O297 C311 1.257 . S
O298 Tb280 2.349 . S
O298 C282 1.261 . S
O299 Tb281 2.303 . S
O299 C282 1.257 . S
C300 O290 1.236 . S
C300 O291 1.257 . S
O301 Tb280 2.415 . S
O301 C289 1.239 . S
O302 Tb280 2.399 . S
O302 C289 1.263 . S
C303 O292 1.261 . S
C303 O293 1.257 . S
C304 C307 1.358 . S
C304 C308 1.332 . S
C304 C310 1.504 . S
C305 C306 1.373 . S
C305 C309 1.308 . S
C306 C305 1.373 . S
C306 C307 1.429 . S
C306 H316 0.932 . S
C307 C304 1.358 . S
C307 C306 1.429 . S
C307 H317 0.930 . S
C308 C304 1.332 . S
C308 C309 1.394 . S
C308 H318 0.932 . S
C309 C305 1.308 . S
C309 C308 1.394 . S
C309 H319 0.929 . S
C310 Tb281 2.764 . S
C310 O294 1.239 . S
C310 O295 1.263 . S
C310 C304 1.504 . S
C311 O296 1.236 . S
C311 O297 1.257 . S
H312 C285 0.932 1_545 S
H313 C286 0.930 . S
H314 C287 0.932 . S
H315 C288 0.929 . S
H316 C306 0.932 . S
H317 C307 0.930 . S
H318 C308 0.932 . S
H319 C309 0.929 . S
C320 O332 1.241 . S
C320 O333 1.280 . S
C321 O334 1.277 . S
C321 O335 1.245 . S
C322 O346 1.247 . S
C322 O348 1.289 . S
Mg323 O324 1.926 1_455 S
Mg323 O333 1.984 1_455 S
Mg323 O335 1.988 1_455 S
Mg323 O336 2.061 . S
O324 Mg323 1.926 1_655 S
O324 Mg325 1.986 . S
O324 Mg326 1.917 1_655 S
Mg325 O324 1.986 . S
Mg325 O332 2.042 . S
Mg325 O334 2.041 . S
Mg325 O340 2.038 1_545 S
Mg325 O348 2.238 1_545 S
Mg326 O324 1.917 1_455 S
Mg326 O327 1.917 1_545 S
Mg326 O337 2.106 . S
Mg326 O339 2.079 1_445 S
Mg326 O348 2.106 1_445 S
Mg326 O349 2.079 . S
O327 Mg326 1.917 1_565 S
O327 Mg328 1.926 . S
O327 Mg329 1.986 1_565 S
Mg328 O327 1.926 . S
Mg328 O342 1.984 . S
Mg328 O345 1.988 . S
Mg328 O346 2.061 1_455 S
Mg329 O327 1.986 1_545 S
Mg329 O337 2.238 . S
Mg329 O341 2.042 . S
Mg329 O343 2.041 1_545 S
Mg329 O350 2.038 . S
C330 O336 1.247 . S
C330 O337 1.289 . S
C331 O349 1.245 . S
C331 O350 1.274 . S
O332 C320 1.241 . S
O332 Mg325 2.042 . S
O333 C320 1.280 . S
O333 Mg323 1.984 1_655 S
O334 C321 1.277 . S
O334 Mg325 2.041 . S
O335 C321 1.245 . S
O335 Mg323 1.988 1_655 S
O336 Mg323 2.061 . S
O336 C330 1.247 . S
O337 Mg326 2.106 . S
O337 Mg329 2.238 . S
O337 C330 1.289 . S
C338 O339 1.245 . S
C338 O340 1.274 . S
O339 Mg326 2.079 1_665 S
O339 C338 1.245 . S
O340 Mg325 2.038 1_565 S
O340 C338 1.274 . S
O341 Mg329 2.042 . S
O341 C344 1.241 1_545 S
O342 Mg328 1.984 . S
O342 C344 1.280 . S
O343 Mg329 2.041 1_565 S
O343 C347 1.277 . S
C344 O341 1.241 1_565 S
C344 O342 1.280 . S
O345 Mg328 1.988 . S
O345 C347 1.245 . S
O346 C322 1.247 . S
O346 Mg328 2.061 1_655 S
C347 O343 1.277 . S
C347 O345 1.245 . S
O348 C322 1.289 . S
O348 Mg325 2.238 1_565 S
O348 Mg326 2.106 1_665 S
O349 Mg326 2.079 . S
O349 C331 1.245 . S
O350 Mg329 2.038 . S
O350 C331 1.274 . S
C351 O363 1.241 . S
C351 O364 1.280 . S
C352 O365 1.277 1_556 S
C352 O366 1.245 1_556 S
C353 O377 1.247 1_556 S
C353 O379 1.289 1_556 S
Mg354 O355 1.926 . S
Mg354 O364 1.984 . S
Mg354 O366 1.988 . S
Mg354 O367 2.061 . S
O355 Mg354 1.926 . S
O355 Mg356 1.986 . S
O355 Mg357 1.917 . S
Mg356 O355 1.986 . S
Mg356 O363 2.042 . S
Mg356 O365 2.041 . S
Mg356 O371 2.038 1_545 S
Mg356 O379 2.238 1_545 S
Mg357 O355 1.917 . S
Mg357 O358 1.917 . S
Mg357 O368 2.106 . S
Mg357 O370 2.079 1_545 S
Mg357 O379 2.106 1_545 S
Mg357 O380 2.079 . S
O358 Mg357 1.917 . S
O358 Mg359 1.926 1_545 S
O358 Mg360 1.986 . S
Mg359 O358 1.926 1_565 S
Mg359 O373 1.984 . S
Mg359 O376 1.988 . S
Mg359 O377 2.061 . S
Mg360 O358 1.986 . S
Mg360 O368 2.238 . S
Mg360 O372 2.042 . S
Mg360 O374 2.041 . S
Mg360 O381 2.038 . S
C361 O367 1.247 . S
C361 O368 1.289 . S
C362 O380 1.245 1_556 S
C362 O381 1.274 1_556 S
O363 C351 1.241 . S
O363 Mg356 2.042 . S
O364 C351 1.280 . S
O364 Mg354 1.984 . S
O365 C352 1.277 1_554 S
O365 Mg356 2.041 . S
O366 C352 1.245 1_554 S
O366 Mg354 1.988 . S
O367 Mg354 2.061 . S
O367 C361 1.247 . S
O368 Mg357 2.106 . S
O368 Mg360 2.238 . S
O368 C361 1.289 . S
C369 O370 1.245 . S
C369 O371 1.274 . S
O370 Mg357 2.079 1_565 S
O370 C369 1.245 . S
O371 Mg356 2.038 1_565 S
O371 C369 1.274 . S
O372 Mg360 2.042 . S
O372 C375 1.250 1_545 S
O373 Mg359 1.984 . S
O373 C375 1.283 . S
O374 Mg360 2.041 . S
O374 C378 1.277 1_545 S
C375 O372 1.250 1_565 S
C375 O373 1.283 . S
O376 Mg359 1.988 . S
O376 C378 1.245 . S
O377 C353 1.247 1_554 S
O377 Mg359 2.061 . S
C378 O374 1.277 1_565 S
C378 O376 1.245 . S
O379 C353 1.289 1_554 S
O379 Mg356 2.238 1_565 S
O379 Mg357 2.106 1_565 S
O380 Mg357 2.079 . S
O380 C362 1.245 1_554 S
O381 Mg360 2.038 . S
O381 C362 1.274 1_554 S
C382 O394 1.241 . S
C382 O395 1.280 . S
C383 O396 1.277 . S
C383 O397 1.245 . S
C384 O408 1.247 . S
C384 O410 1.289 . S
Mg385 O386 1.926 1_455 S
Mg385 O395 1.984 1_455 S
Mg385 O397 1.988 1_454 S
Mg385 O398 2.061 . S
O386 Mg385 1.926 1_655 S
O386 Mg387 1.986 1_554 S
O386 Mg388 1.917 1_655 S
Mg387 O386 1.986 1_556 S
Mg387 O394 2.042 1_556 S
Mg387 O396 2.041 . S
Mg387 O402 2.038 1_556 S
Mg387 O410 2.238 . S
Mg388 O386 1.917 1_455 S
Mg388 O389 1.917 1_554 S
Mg388 O399 2.106 . S
Mg388 O401 2.079 1_455 S
Mg388 O410 2.106 1_454 S
Mg388 O411 2.079 1_554 S
O389 Mg388 1.917 1_556 S
O389 Mg390 1.926 1_455 S
O389 Mg391 1.986 1_556 S
Mg390 O389 1.926 1_655 S
Mg390 O404 1.984 1_655 S
Mg390 O407 1.988 1_656 S
Mg390 O408 2.061 . S
Mg391 O389 1.986 1_554 S
Mg391 O399 2.238 . S
Mg391 O403 2.042 1_554 S
Mg391 O405 2.041 . S
Mg391 O412 2.038 1_554 S
C392 O398 1.247 . S
C392 O399 1.289 . S
C393 O411 1.245 . S
C393 O412 1.274 . S
O394 C382 1.241 . S
O394 Mg387 2.042 1_554 S
O395 C382 1.280 . S
O395 Mg385 1.984 1_655 S
O396 C383 1.277 . S
O396 Mg387 2.041 . S
O397 C383 1.245 . S
O397 Mg385 1.988 1_656 S
O398 Mg385 2.061 . S
O398 C392 1.247 . S
O399 Mg388 2.106 . S
O399 Mg391 2.238 . S
O399 C392 1.289 . S
C400 O401 1.245 . S
C400 O402 1.274 . S
O401 Mg388 2.079 1_655 S
O401 C400 1.245 . S
O402 Mg387 2.038 1_554 S
O402 C400 1.274 . S
O403 Mg391 2.042 1_556 S
O403 C406 1.241 . S
O404 Mg390 1.984 1_455 S
O404 C406 1.280 . S
O405 Mg391 2.041 . S
O405 C409 1.277 . S
C406 O403 1.241 . S
C406 O404 1.280 . S
O407 Mg390 1.988 1_454 S
O407 C409 1.245 . S
O408 C384 1.247 . S
O408 Mg390 2.061 . S
C409 O405 1.277 . S
C409 O407 1.245 . S
O410 C384 1.289 . S
O410 Mg387 2.238 . S
O410 Mg388 2.106 1_656 S
O411 Mg388 2.079 1_556 S
O411 C393 1.245 . S
O412 Mg391 2.038 1_556 S
O412 C393 1.274 . S
C413 O425 1.241 . S
C413 O426 1.280 . S
C414 O427 1.277 . S
C414 O428 1.245 . S
C415 O439 1.247 . S
C415 O441 1.289 . S
Mg416 O417 1.926 . S
Mg416 O426 1.984 . S
Mg416 O428 1.988 1_554 S
Mg416 O429 2.061 . S
O417 Mg416 1.926 . S
O417 Mg418 1.986 . S
O417 Mg419 1.917 . S
Mg418 O417 1.986 . S
Mg418 O425 2.042 . S
Mg418 O427 2.041 1_554 S
Mg418 O433 2.038 . S
Mg418 O441 2.238 1_554 S
Mg419 O417 1.917 . S
Mg419 O420 1.917 . S
Mg419 O430 2.106 . S
Mg419 O432 2.079 . S
Mg419 O441 2.106 1_554 S
Mg419 O442 2.079 1_554 S
O420 Mg419 1.917 . S
O420 Mg421 1.926 . S
O420 Mg422 1.986 . S
Mg421 O420 1.926 . S
Mg421 O435 1.984 1_554 S
Mg421 O438 1.988 . S
Mg421 O439 2.061 1_554 S
Mg422 O420 1.986 . S
Mg422 O430 2.238 . S
Mg422 O434 2.042 1_554 S
Mg422 O436 2.041 . S
Mg422 O443 2.038 1_554 S
C423 O429 1.247 . S
C423 O430 1.289 . S
C424 O442 1.245 . S
C424 O443 1.274 . S
O425 C413 1.241 . S
O425 Mg418 2.042 . S
O426 C413 1.280 . S
O426 Mg416 1.984 . S
O427 C414 1.277 . S
O427 Mg418 2.041 1_556 S
O428 C414 1.245 . S
O428 Mg416 1.988 1_556 S
O429 Mg416 2.061 . S
O429 C423 1.247 . S
O430 Mg419 2.106 . S
O430 Mg422 2.238 . S
O430 C423 1.289 . S
C431 O432 1.245 . S
C431 O433 1.274 . S
O432 Mg419 2.079 . S
O432 C431 1.245 . S
O433 Mg418 2.038 . S
O433 C431 1.274 . S
O434 Mg422 2.042 1_556 S
O434 C437 1.241 . S
O435 Mg421 1.984 1_556 S
O435 C437 1.280 . S
O436 Mg422 2.041 . S
O436 C440 1.277 . S
C437 O434 1.241 . S
C437 O435 1.280 . S
O438 Mg421 1.988 . S
O438 C440 1.245 . S
O439 C415 1.247 . S
O439 Mg421 2.061 1_556 S
C440 O436 1.277 . S
C440 O438 1.245 . S
O441 C415 1.289 . S
O441 Mg418 2.238 1_556 S
O441 Mg419 2.106 1_556 S
O442 Mg419 2.079 1_556 S
O442 C424 1.245 . S
O443 Mg422 2.038 1_556 S
O443 C424 1.274 . S
C444 O456 1.241 . S
C444 O457 1.280 . S
C445 O458 1.277 . S
C445 O459 1.245 1_655 S
C446 O470 1.247 . S
C446 O472 1.289 . S
Mg447 O448 1.926 . S
Mg447 O457 1.984 1_455 S
Mg447 O459 1.988 . S
Mg447 O460 2.061 . S
O448 Mg447 1.926 . S
O448 Mg449 1.986 1_455 S
O448 Mg450 1.917 . S
Mg449 O448 1.986 1_655 S
Mg449 O456 2.042 . S
Mg449 O458 2.041 . S
Mg449 O464 2.038 . S
Mg449 O472 2.238 . S
Mg450 O448 1.917 . S
Mg450 O451 1.917 . S
Mg450 O461 2.106 . S
Mg450 O463 2.079 . S
Mg450 O472 2.106 1_455 S
Mg450 O473 2.079 . S
O451 Mg450 1.917 . S
O451 Mg452 1.926 . S
O451 Mg453 1.986 . S
Mg452 O451 1.926 . S
Mg452 O466 1.984 . S
Mg452 O469 1.988 . S
Mg452 O470 2.061 1_455 S
Mg453 O451 1.986 . S
Mg453 O461 2.238 . S
Mg453 O465 2.042 . S
Mg453 O467 2.041 . S
Mg453 O474 2.038 . S
C454 O460 1.247 . S
C454 O461 1.289 . S
C455 O473 1.245 . S
C455 O474 1.274 . S
O456 C444 1.241 . S
O456 Mg449 2.042 . S
O457 C444 1.280 . S
O457 Mg447 1.984 1_655 S
O458 C445 1.277 . S
O458 Mg449 2.041 . S
O459 C445 1.245 1_455 S
O459 Mg447 1.988 . S
O460 Mg447 2.061 . S
O460 C454 1.247 . S
O461 Mg450 2.106 . S
O461 Mg453 2.238 . S
O461 C454 1.289 . S
C462 O463 1.245 1_655 S
C462 O464 1.274 . S
O463 Mg450 2.079 . S
O463 C462 1.245 1_455 S
O464 Mg449 2.038 . S
O464 C462 1.274 . S
O465 Mg453 2.042 . S
O465 C468 1.241 . S
O466 Mg452 1.984 . S
O466 C468 1.280 . S
O467 Mg453 2.041 . S
O467 C471 1.277 . S
C468 O465 1.241 . S
C468 O466 1.280 . S
O469 Mg452 1.988 . S
O469 C471 1.245 . S
O470 C446 1.247 . S
O470 Mg452 2.061 1_655 S
C471 O467 1.277 . S
C471 O469 1.245 . S
O472 C446 1.289 . S
O472 Mg449 2.238 . S
O472 Mg450 2.106 1_655 S
O473 Mg450 2.079 . S
O473 C455 1.245 . S
O474 Mg453 2.038 . S
O474 C455 1.274 . S
C475 O487 1.241 . S
C475 O488 1.280 . S
C476 O489 1.277 . S
C476 O490 1.245 . S
C477 O501 1.247 . S
C477 O503 1.289 . S
Mg478 O479 1.926 . S
Mg478 O488 1.984 . S
Mg478 O490 1.988 . S
Mg478 O491 2.061 . S
O479 Mg478 1.926 . S
O479 Mg480 1.986 1_545 S
O479 Mg481 1.917 . S
Mg480 O479 1.986 1_565 S
Mg480 O487 2.042 1_565 S
Mg480 O489 2.041 1_565 S
Mg480 O495 2.038 . S
Mg480 O503 2.238 . S
Mg481 O479 1.917 . S
Mg481 O482 1.917 1_545 S
Mg481 O492 2.106 . S
Mg481 O494 2.079 1_545 S
Mg481 O503 2.106 1_545 S
Mg481 O504 2.079 . S
O482 Mg481 1.917 1_565 S
O482 Mg483 1.926 . S
O482 Mg484 1.986 1_565 S
Mg483 O482 1.926 . S
Mg483 O497 1.984 . S
Mg483 O500 1.988 . S
Mg483 O501 2.061 . S
Mg484 O482 1.986 1_545 S
Mg484 O492 2.238 . S
Mg484 O496 2.042 1_545 S
Mg484 O498 2.041 1_545 S
Mg484 O505 2.038 . S
C485 O491 1.247 . S
C485 O492 1.289 . S
C486 O504 1.245 . S
C486 O505 1.274 . S
O487 C475 1.241 . S
O487 Mg480 2.042 1_545 S
O488 C475 1.280 . S
O488 Mg478 1.984 . S
O489 C476 1.277 . S
O489 Mg480 2.041 1_545 S
O490 C476 1.245 . S
O490 Mg478 1.988 . S
O491 Mg478 2.061 . S
O491 C485 1.247 . S
O492 Mg481 2.106 . S
O492 Mg484 2.238 . S
O492 C485 1.289 . S
C493 O494 1.245 . S
C493 O495 1.274 . S
O494 Mg481 2.079 1_565 S
O494 C493 1.245 . S
O495 Mg480 2.038 . S
O495 C493 1.274 . S
O496 Mg484 2.042 1_565 S
O496 C499 1.241 . S
O497 Mg483 1.984 . S
O497 C499 1.280 . S
O498 Mg484 2.041 1_565 S
O498 C502 1.277 . S
C499 O496 1.241 . S
C499 O497 1.280 . S
O500 Mg483 1.988 . S
O500 C502 1.245 . S
O501 C477 1.247 . S
O501 Mg483 2.061 . S
C502 O498 1.277 . S
C502 O500 1.245 . S
O503 C477 1.289 . S
O503 Mg480 2.238 . S
O503 Mg481 2.106 1_565 S
O504 Mg481 2.079 . S
O504 C486 1.245 . S
O505 Mg484 2.038 . S
O505 C486 1.274 . S
C506 C507 1.387 . S
C506 H510 0.950 . S
C506 C515 1.390 . S
C507 C506 1.387 . S
C507 C509 1.387 . S
H508 C515 0.950 . S
C509 C507 1.387 . S
C509 C511 1.390 . S
C509 H513 0.950 . S
H510 C506 0.950 . S
C511 C509 1.390 . S
C511 C512 1.387 . S
C511 H514 0.950 . S
C512 C511 1.387 . S
C512 C515 1.387 . S
H513 C509 0.950 . S
H514 C511 0.950 . S
C515 C506 1.390 . S
C515 H508 0.950 . S
C515 C512 1.387 . S
C516 C517 1.387 . S
C516 H520 0.950 . S
C516 C525 1.390 . S
C517 C516 1.387 . S
C517 C519 1.387 . S
H518 C525 0.950 . S
C519 C517 1.387 . S
C519 C521 1.390 . S
C519 H523 0.950 . S
H520 C516 0.950 . S
C521 C519 1.390 . S
C521 C522 1.387 . S
C521 H524 0.950 . S
C522 C521 1.387 . S
C522 C525 1.387 . S
H523 C519 0.950 . S
H524 C521 0.950 . S
C525 C516 1.390 . S
C525 H518 0.950 . S
C525 C522 1.387 . S
C526 C527 1.387 . S
C526 H530 0.950 . S
C526 C535 1.390 . S
C527 C526 1.387 . S
C527 C529 1.387 . S
H528 C535 0.950 . S
C529 C527 1.387 . S
C529 C531 1.390 . S
C529 H533 0.950 . S
H530 C526 0.950 . S
C531 C529 1.390 . S
C531 C532 1.387 . S
C531 H534 0.950 . S
C532 C531 1.387 . S
C532 C535 1.387 . S
H533 C529 0.950 . S
H534 C531 0.950 . S
C535 C526 1.390 . S
C535 H528 0.950 . S
C535 C532 1.387 . S
C536 C537 1.387 . S
C536 H540 0.950 . S
C536 C545 1.390 . S
C537 C536 1.387 . S
C537 C539 1.387 . S
H538 C545 0.950 . S
C539 C537 1.387 . S
C539 C541 1.390 . S
C539 H543 0.950 . S
H540 C536 0.950 . S
C541 C539 1.390 . S
C541 C542 1.387 . S
C541 H544 0.950 1_565 S
C542 C541 1.387 . S
C542 C545 1.387 . S
H543 C539 0.950 . S
H544 C541 0.950 1_545 S
C545 C536 1.390 . S
C545 H538 0.950 . S
C545 C542 1.387 . S
C546 C547 1.387 . S
C546 H550 0.950 1_565 S
C546 C555 1.390 . S
C547 C546 1.387 . S
C547 C549 1.387 . S
H548 C555 0.947 1_545 S
C549 C547 1.387 . S
C549 C551 1.390 . S
C549 H553 0.950 . S
H550 C546 0.950 1_545 S
C551 C549 1.390 . S
C551 C552 1.387 . S
C551 H554 0.950 . S
C552 C551 1.387 . S
C552 C555 1.387 . S
H553 C549 0.950 . S
H554 C551 0.950 . S
C555 C546 1.390 . S
C555 H548 0.947 1_565 S
C555 C552 1.387 . S
C556 C557 1.387 . S
C556 H560 0.950 . S
C556 C565 1.390 . S
C557 C556 1.387 . S
C557 C559 1.387 . S
H558 C565 0.950 . S
C559 C557 1.387 . S
C559 C561 1.390 . S
C559 H563 0.950 . S
H560 C556 0.950 . S
C561 C559 1.390 . S
C561 C562 1.387 . S
C561 H564 0.950 . S
C562 C561 1.387 . S
C562 C565 1.387 . S
H563 C559 0.950 . S
H564 C561 0.950 . S
C565 C556 1.390 . S
C565 H558 0.950 . S
C565 C562 1.387 . S
C566 C567 1.387 . S
C566 H570 0.950 . S
C566 C575 1.390 . S
C567 C566 1.387 . S
C567 C569 1.387 . S
H568 C575 0.950 . S
C569 C567 1.387 . S
C569 C571 1.390 . S
C569 H573 0.950 . S
H570 C566 0.950 . S
C571 C569 1.390 . S
C571 C572 1.387 . S
C571 H574 0.950 . S
C572 C571 1.387 . S
C572 C575 1.387 . S
H573 C569 0.950 . S
H574 C571 0.950 . S
C575 C566 1.390 . S
C575 H568 0.950 . S
C575 C572 1.387 . S
C576 C577 1.387 . S
C576 H580 0.950 . S
C576 C585 1.390 . S
C577 C576 1.387 . S
C577 C579 1.387 . S
H578 C585 0.950 . S
C579 C577 1.387 . S
C579 C581 1.390 . S
C579 H583 0.950 . S
H580 C576 0.950 . S
C581 C579 1.390 . S
C581 C582 1.387 . S
C581 H584 0.950 . S
C582 C581 1.387 . S
C582 C585 1.387 . S
H583 C579 0.950 . S
H584 C581 0.950 . S
C585 C576 1.390 . S
C585 H578 0.950 . S
C585 C582 1.387 . S
C586 C587 1.387 . S
C586 H590 0.950 . S
C586 C595 1.390 . S
C587 C586 1.387 . S
C587 C589 1.387 . S
H588 C595 0.950 . S
C589 C587 1.387 . S
C589 C591 1.390 . S
C589 H593 0.950 . S
H590 C586 0.950 . S
C591 C589 1.390 . S
C591 C592 1.387 . S
C591 H594 0.950 . S
C592 C591 1.387 . S
C592 C595 1.387 . S
H593 C589 0.950 . S
H594 C591 0.950 . S
C595 C586 1.390 . S
C595 H588 0.950 . S
C595 C592 1.387 . S
C596 C597 1.387 . S
C596 H600 0.950 . S
C596 C605 1.390 . S
C597 C596 1.387 . S
C597 C599 1.387 . S
H598 C605 0.950 . S
C599 C597 1.387 . S
C599 C601 1.390 . S
C599 H603 0.950 . S
H600 C596 0.950 . S
C601 C599 1.390 . S
C601 C602 1.387 . S
C601 H604 0.950 . S
C602 C601 1.387 . S
C602 C605 1.387 . S
H603 C599 0.950 . S
H604 C601 0.950 . S
C605 C596 1.390 . S
C605 H598 0.950 . S
C605 C602 1.387 . S
C606 C607 1.387 . S
C606 H610 0.950 . S
C606 C615 1.390 . S
C607 C606 1.387 . S
C607 C609 1.387 . S
H608 C615 0.950 . S
C609 C607 1.387 . S
C609 C611 1.390 . S
C609 H613 0.950 . S
H610 C606 0.950 . S
C611 C609 1.390 . S
C611 C612 1.387 . S
C611 H614 0.950 . S
C612 C611 1.387 . S
C612 C615 1.387 . S
H613 C609 0.950 . S
H614 C611 0.950 . S
C615 C606 1.390 . S
C615 H608 0.950 . S
C615 C612 1.387 . S
C616 C617 1.387 . S
C616 H620 0.950 . S
C616 C625 1.390 . S
C617 C616 1.387 . S
C617 C619 1.387 . S
H618 C625 0.950 . S
C619 C617 1.387 . S
C619 C621 1.390 . S
C619 H623 0.950 . S
H620 C616 0.950 . S
C621 C619 1.390 . S
C621 C622 1.387 . S
C621 H624 0.950 . S
C622 C621 1.387 . S
C622 C625 1.387 . S
H623 C619 0.950 . S
H624 C621 0.950 . S
C625 C616 1.390 . S
C625 H618 0.950 . S
C625 C622 1.387 . S
C626 C627 1.387 . S
C626 H630 0.950 . S
C626 C635 1.390 . S
C627 C626 1.387 . S
C627 C629 1.387 . S
H628 C635 0.950 . S
C629 C627 1.387 . S
C629 C631 1.390 . S
C629 H633 0.950 . S
H630 C626 0.950 . S
C631 C629 1.390 . S
C631 C632 1.387 . S
C631 H634 0.950 . S
C632 C631 1.387 . S
C632 C635 1.387 . S
H633 C629 0.950 . S
H634 C631 0.950 . S
C635 C626 1.390 . S
C635 H628 0.950 . S
C635 C632 1.387 . S
C636 C637 1.387 . S
C636 H640 0.950 . S
C636 C645 1.390 . S
C637 C636 1.387 . S
C637 C639 1.387 . S
H638 C645 0.950 . S
C639 C637 1.387 . S
C639 C641 1.390 . S
C639 H643 0.950 . S
H640 C636 0.950 . S
C641 C639 1.390 . S
C641 C642 1.387 . S
C641 H644 0.950 . S
C642 C641 1.387 . S
C642 C645 1.387 . S
H643 C639 0.950 . S
H644 C641 0.950 . S
C645 C636 1.390 . S
C645 H638 0.950 . S
C645 C642 1.387 . S
C646 C647 1.387 . S
C646 H650 0.950 . S
C646 C655 1.390 . S
C647 C646 1.387 . S
C647 C649 1.387 . S
H648 C655 0.950 . S
C649 C647 1.387 . S
C649 C651 1.390 . S
C649 H653 0.950 . S
H650 C646 0.950 . S
C651 C649 1.390 . S
C651 C652 1.387 . S
C651 H654 0.950 . S
C652 C651 1.387 . S
C652 C655 1.387 . S
H653 C649 0.950 . S
H654 C651 0.950 . S
C655 C646 1.390 . S
C655 H648 0.950 . S
C655 C652 1.387 . S
C656 C657 1.387 . S
C656 H660 0.950 . S
C656 C665 1.390 . S
C657 C656 1.387 . S
C657 C659 1.387 . S
H658 C665 0.950 . S
C659 C657 1.387 . S
C659 C661 1.390 . S
C659 H663 0.950 . S
H660 C656 0.950 . S
C661 C659 1.390 . S
C661 C662 1.387 . S
C661 H664 0.950 . S
C662 C661 1.387 . S
C662 C665 1.387 . S
H663 C659 0.950 . S
H664 C661 0.950 . S
C665 C656 1.390 . S
C665 H658 0.950 . S
C665 C662 1.387 . S
C666 C667 1.387 . S
C666 H670 0.950 . S
C666 C675 1.390 . S
C667 C666 1.387 . S
C667 C669 1.387 . S
H668 C675 0.950 . S
C669 C667 1.387 . S
C669 C671 1.390 . S
C669 H673 0.950 . S
H670 C666 0.950 . S
C671 C669 1.390 . S
C671 C672 1.387 . S
C671 H674 0.950 . S
C672 C671 1.387 . S
C672 C675 1.387 . S
H673 C669 0.950 . S
H674 C671 0.950 . S
C675 C666 1.390 . S
C675 H668 0.950 . S
C675 C672 1.387 . S
C676 C677 1.387 . S
C676 H680 0.950 . S
C676 C685 1.390 . S
C677 C676 1.387 . S
C677 C679 1.387 . S
H678 C685 0.950 . S
C679 C677 1.387 . S
C679 C681 1.390 . S
C679 H683 0.950 . S
H680 C676 0.950 . S
C681 C679 1.390 . S
C681 C682 1.387 . S
C681 H684 0.950 . S
C682 C681 1.387 . S
C682 C685 1.387 . S
H683 C679 0.950 . S
H684 C681 0.950 . S
C685 C676 1.390 . S
C685 H678 0.950 . S
C685 C682 1.387 . S
C686 C687 1.387 . S
C686 H690 0.950 . S
C686 C695 1.390 . S
C687 C686 1.387 . S
C687 C689 1.387 . S
H688 C695 0.950 . S
C689 C687 1.387 . S
C689 C691 1.390 . S
C689 H693 0.950 . S
H690 C686 0.950 . S
C691 C689 1.390 . S
C691 C692 1.387 . S
C691 H694 0.950 . S
C692 C691 1.387 . S
C692 C695 1.387 . S
H693 C689 0.950 . S
H694 C691 0.950 . S
C695 C686 1.390 . S
C695 H688 0.950 . S
C695 C692 1.387 . S
C696 C697 1.387 . S
C696 H700 0.950 . S
C696 C705 1.390 . S
C697 C696 1.387 . S
C697 C699 1.387 . S
H698 C705 0.950 . S
C699 C697 1.387 . S
C699 C701 1.390 . S
C699 H703 0.950 . S
H700 C696 0.950 . S
C701 C699 1.390 . S
C701 C702 1.387 . S
C701 H704 0.950 . S
C702 C701 1.387 . S
C702 C705 1.387 . S
H703 C699 0.950 . S
H704 C701 0.950 . S
C705 C696 1.390 . S
C705 H698 0.950 . S
C705 C702 1.387 . S
C706 C707 1.387 . S
C706 H710 0.950 . S
C706 C715 1.390 . S
C707 C706 1.387 . S
C707 C709 1.387 1_565 S
H708 C715 0.950 . S
C709 C707 1.387 1_545 S
C709 C711 1.390 . S
C709 H713 0.950 . S
H710 C706 0.950 . S
C711 C709 1.390 . S
C711 C712 1.387 1_545 S
C711 H714 0.950 . S
C712 C711 1.387 1_565 S
C712 C715 1.387 . S
H713 C709 0.950 . S
H714 C711 0.950 . S
C715 C706 1.390 . S
C715 H708 0.950 . S
C715 C712 1.387 . S
C716 C717 1.387 . S
C716 H720 0.950 1_655 S
C716 C725 1.390 . S
C717 C716 1.387 . S
C717 C719 1.387 . S
H718 C725 0.950 . S
C719 C717 1.387 . S
C719 C721 1.390 . S
C719 H723 0.950 . S
H720 C716 0.950 1_455 S
C721 C719 1.390 . S
C721 C722 1.387 . S
C721 H724 0.950 . S
C722 C721 1.387 . S
C722 C725 1.387 . S
H723 C719 0.950 . S
H724 C721 0.950 . S
C725 C716 1.390 . S
C725 H718 0.950 . S
C725 C722 1.387 . S
C726 C727 1.387 . S
C726 H730 0.950 . S
C726 C735 1.390 . S
C727 C726 1.387 . S
C727 C729 1.387 . S
H728 C735 0.950 . S
C729 C727 1.387 . S
C729 C731 1.390 . S
C729 H733 0.950 . S
H730 C726 0.950 . S
C731 C729 1.390 . S
C731 C732 1.387 . S
C731 H734 0.950 . S
C732 C731 1.387 . S
C732 C735 1.387 . S
H733 C729 0.950 . S
H734 C731 0.950 . S
C735 C726 1.390 . S
C735 H728 0.950 . S
C735 C732 1.387 . S
C736 C737 1.387 . S
C736 H740 0.950 . S
C736 C745 1.390 . S
C737 C736 1.387 . S
C737 C739 1.387 . S
H738 C745 0.950 . S
C739 C737 1.387 . S
C739 C741 1.390 . S
C739 H743 0.950 . S
H740 C736 0.950 . S
C741 C739 1.390 . S
C741 C742 1.387 . S
C741 H744 0.950 . S
C742 C741 1.387 . S
C742 C745 1.387 . S
H743 C739 0.950 . S
H744 C741 0.950 . S
C745 C736 1.390 . S
C745 H738 0.950 . S
C745 C742 1.387 . S
C746 C747 1.387 . S
C746 H750 0.950 . S
C746 C755 1.390 . S
C747 C746 1.387 . S
C747 C749 1.387 . S
H748 C755 0.950 . S
C749 C747 1.387 . S
C749 C751 1.390 . S
C749 H753 0.950 . S
H750 C746 0.950 . S
C751 C749 1.390 . S
C751 C752 1.387 . S
C751 H754 0.950 . S
C752 C751 1.387 . S
C752 C755 1.387 . S
H753 C749 0.950 . S
H754 C751 0.950 . S
C755 C746 1.390 . S
C755 H748 0.950 . S
C755 C752 1.387 . S
C756 C757 1.387 . S
C756 H760 0.950 . S
C756 C765 1.390 . S
C757 C756 1.387 . S
C757 C759 1.387 . S
H758 C765 0.950 . S
C759 C757 1.387 . S
C759 C761 1.390 . S
C759 H763 0.950 . S
H760 C756 0.950 . S
C761 C759 1.390 . S
C761 C762 1.387 . S
C761 H764 0.950 . S
C762 C761 1.387 . S
C762 C765 1.387 . S
H763 C759 0.950 . S
H764 C761 0.950 . S
C765 C756 1.390 . S
C765 H758 0.950 . S
C765 C762 1.387 . S
C766 C767 1.387 . S
C766 H770 0.950 . S
C766 C775 1.390 . S
C767 C766 1.387 . S
C767 C769 1.387 . S
H768 C775 0.950 . S
C769 C767 1.387 . S
C769 C771 1.390 . S
C769 H773 0.950 . S
H770 C766 0.950 . S
C771 C769 1.390 . S
C771 C772 1.387 . S
C771 H774 0.950 . S
C772 C771 1.387 . S
C772 C775 1.387 . S
H773 C769 0.950 . S
H774 C771 0.950 . S
C775 C766 1.390 . S
C775 H768 0.950 . S
C775 C772 1.387 . S
C776 C777 1.387 . S
C776 H780 0.950 . S
C776 C785 1.390 . S
C777 C776 1.387 . S
C777 C779 1.387 . S
H778 C785 0.950 . S
C779 C777 1.387 . S
C779 C781 1.390 . S
C779 H783 0.950 . S
H780 C776 0.950 . S
C781 C779 1.390 . S
C781 C782 1.387 . S
C781 H784 0.950 . S
C782 C781 1.387 . S
C782 C785 1.387 . S
H783 C779 0.950 . S
H784 C781 0.950 . S
C785 C776 1.390 . S
C785 H778 0.950 . S
C785 C782 1.387 . S
C786 C787 1.387 . S
C786 H790 0.950 . S
C786 C795 1.390 . S
C787 C786 1.387 . S
C787 C789 1.387 . S
H788 C795 0.950 . S
C789 C787 1.387 . S
C789 C791 1.390 . S
C789 H793 0.950 . S
H790 C786 0.950 . S
C791 C789 1.390 . S
C791 C792 1.387 . S
C791 H794 0.950 . S
C792 C791 1.387 . S
C792 C795 1.387 . S
H793 C789 0.950 . S
H794 C791 0.950 . S
C795 C786 1.390 . S
C795 H788 0.950 . S
C795 C792 1.387 . S
C796 C797 1.387 . S
C796 H800 0.950 . S
C796 C805 1.390 . S
C797 C796 1.387 . S
C797 C799 1.387 . S
H798 C805 0.950 . S
C799 C797 1.387 . S
C799 C801 1.390 . S
C799 H803 0.950 . S
H800 C796 0.950 . S
C801 C799 1.390 . S
C801 C802 1.387 . S
C801 H804 0.950 . S
C802 C801 1.387 . S
C802 C805 1.387 . S
H803 C799 0.950 . S
H804 C801 0.950 . S
C805 C796 1.390 . S
C805 H798 0.950 . S
C805 C802 1.387 . S
C806 C807 1.387 . S
C806 H810 0.950 . S
C806 C815 1.390 . S
C807 C806 1.387 . S
C807 C809 1.387 . S
H808 C815 0.950 . S
C809 C807 1.387 . S
C809 C811 1.390 . S
C809 H813 0.950 . S
H810 C806 0.950 . S
C811 C809 1.390 . S
C811 C812 1.387 . S
C811 H814 0.950 . S
C812 C811 1.387 . S
C812 C815 1.387 . S
H813 C809 0.950 . S
H814 C811 0.950 . S
C815 C806 1.390 . S
C815 H808 0.950 . S
C815 C812 1.387 . S
C816 C817 1.387 . S
C816 H820 0.950 . S
C816 C825 1.390 . S
C817 C816 1.387 . S
C817 C819 1.387 . S
H818 C825 0.950 . S
C819 C817 1.387 . S
C819 C821 1.390 . S
C819 H823 0.950 . S
H820 C816 0.950 . S
C821 C819 1.390 . S
C821 C822 1.387 . S
C821 H824 0.950 . S
C822 C821 1.387 . S
C822 C825 1.387 . S
H823 C819 0.950 . S
H824 C821 0.950 . S
C825 C816 1.390 . S
C825 H818 0.950 . S
C825 C822 1.387 . S
C826 C827 1.387 . S
C826 H830 0.950 . S
C826 C835 1.390 . S
C827 C826 1.387 . S
C827 C829 1.387 . S
H828 C835 0.950 . S
C829 C827 1.387 . S
C829 C831 1.390 . S
C829 H833 0.950 . S
H830 C826 0.950 . S
C831 C829 1.390 . S
C831 C832 1.387 . S
C831 H834 0.950 . S
C832 C831 1.387 . S
C832 C835 1.387 . S
H833 C829 0.950 . S
H834 C831 0.950 . S
C835 C826 1.390 . S
C835 H828 0.950 . S
C835 C832 1.387 . S
C836 C837 1.387 . S
C836 H840 0.950 . S
C836 C845 1.390 . S
C837 C836 1.387 . S
C837 C839 1.387 . S
H838 C845 0.950 . S
C839 C837 1.387 . S
C839 C841 1.390 . S
C839 H843 0.950 . S
H840 C836 0.950 . S
C841 C839 1.390 . S
C841 C842 1.387 . S
C841 H844 0.950 . S
C842 C841 1.387 . S
C842 C845 1.387 . S
H843 C839 0.950 . S
H844 C841 0.950 . S
C845 C836 1.390 . S
C845 H838 0.950 . S
C845 C842 1.387 . S
C846 C847 1.387 . S
C846 H850 0.950 . S
C846 C855 1.390 . S
C847 C846 1.387 . S
C847 C849 1.387 . S
H848 C855 0.950 . S
C849 C847 1.387 . S
C849 C851 1.390 . S
C849 H853 0.950 . S
H850 C846 0.950 . S
C851 C849 1.390 . S
C851 C852 1.387 . S
C851 H854 0.950 . S
C852 C851 1.387 . S
C852 C855 1.387 . S
H853 C849 0.950 . S
H854 C851 0.950 . S
C855 C846 1.390 . S
C855 H848 0.950 . S
C855 C852 1.387 . S
C856 C857 1.387 . S
C856 H860 0.950 . S
C856 C865 1.390 . S
C857 C856 1.387 . S
C857 C859 1.387 . S
H858 C865 0.950 . S
C859 C857 1.387 . S
C859 C861 1.390 . S
C859 H863 0.950 . S
H860 C856 0.950 . S
C861 C859 1.390 . S
C861 C862 1.387 . S
C861 H864 0.950 . S
C862 C861 1.387 . S
C862 C865 1.387 . S
H863 C859 0.950 . S
H864 C861 0.950 . S
C865 C856 1.390 . S
C865 H858 0.950 . S
C865 C862 1.387 . S
C866 C867 1.387 . S
C866 H870 0.950 . S
C866 C875 1.390 . S
C867 C866 1.387 . S
C867 C869 1.387 . S
H868 C875 0.950 . S
C869 C867 1.387 . S
C869 C871 1.390 . S
C869 H873 0.950 . S
H870 C866 0.950 . S
C871 C869 1.390 . S
C871 C872 1.387 . S
C871 H874 0.950 . S
C872 C871 1.387 . S
C872 C875 1.387 . S
H873 C869 0.950 . S
H874 C871 0.950 . S
C875 C866 1.390 . S
C875 H868 0.950 . S
C875 C872 1.387 . S
C876 C877 1.387 . S
C876 H880 0.950 . S
C876 C885 1.390 . S
C877 C876 1.387 . S
C877 C879 1.387 . S
H878 C885 0.950 . S
C879 C877 1.387 . S
C879 C881 1.390 . S
C879 H883 0.950 . S
H880 C876 0.950 . S
C881 C879 1.390 . S
C881 C882 1.387 . S
C881 H884 0.950 . S
C882 C881 1.387 . S
C882 C885 1.387 . S
H883 C879 0.950 . S
H884 C881 0.950 . S
C885 C876 1.390 . S
C885 H878 0.950 . S
C885 C882 1.387 . S
C886 C887 1.387 . S
C886 H890 0.950 . S
C886 C895 1.390 . S
C887 C886 1.387 . S
C887 C889 1.387 . S
H888 C895 0.950 . S
C889 C887 1.387 . S
C889 C891 1.390 . S
C889 H893 0.950 . S
H890 C886 0.950 . S
C891 C889 1.390 . S
C891 C892 1.387 . S
C891 H894 0.950 . S
C892 C891 1.387 . S
C892 C895 1.387 . S
H893 C889 0.950 . S
H894 C891 0.950 . S
C895 C886 1.390 . S
C895 H888 0.950 . S
C895 C892 1.387 . S
C896 C897 1.387 . S
C896 H900 0.950 . S
C896 C905 1.390 . S
C897 C896 1.387 . S
C897 C899 1.387 . S
H898 C905 0.950 . S
C899 C897 1.387 . S
C899 C901 1.390 . S
C899 H903 0.950 . S
H900 C896 0.950 . S
C901 C899 1.390 . S
C901 C902 1.387 . S
C901 H904 0.950 . S
C902 C901 1.387 . S
C902 C905 1.387 . S
H903 C899 0.950 . S
H904 C901 0.950 . S
C905 C896 1.390 . S
C905 H898 0.950 . S
C905 C902 1.387 . S
C906 C907 1.387 . S
C906 H910 0.950 . S
C906 C915 1.390 . S
C907 C906 1.387 . S
C907 C909 1.387 . S
H908 C915 0.950 . S
C909 C907 1.387 . S
C909 C911 1.390 . S
C909 H913 0.950 . S
H910 C906 0.950 . S
C911 C909 1.390 . S
C911 C912 1.387 . S
C911 H914 0.950 . S
C912 C911 1.387 . S
C912 C915 1.387 . S
H913 C909 0.950 . S
H914 C911 0.950 . S
C915 C906 1.390 . S
C915 H908 0.950 . S
C915 C912 1.387 . S
C916 C917 1.387 . S
C916 H920 0.950 . S
C916 C925 1.390 . S
C917 C916 1.387 . S
C917 C919 1.387 . S
H918 C925 0.950 . S
C919 C917 1.387 . S
C919 C921 1.390 . S
C919 H923 0.950 . S
H920 C916 0.950 . S
C921 C919 1.390 . S
C921 C922 1.387 . S
C921 H924 0.950 . S
C922 C921 1.387 . S
C922 C925 1.387 . S
H923 C919 0.950 . S
H924 C921 0.950 . S
C925 C916 1.390 . S
C925 H918 0.950 . S
C925 C922 1.387 . S
C926 C927 1.387 . S
C926 H930 0.950 . S
C926 C935 1.390 . S
C927 C926 1.387 . S
C927 C929 1.387 . S
H928 C935 0.950 . S
C929 C927 1.387 . S
C929 C931 1.390 . S
C929 H933 0.950 . S
H930 C926 0.950 . S
C931 C929 1.390 . S
C931 C932 1.387 . S
C931 H934 0.950 . S
C932 C931 1.387 . S
C932 C935 1.387 . S
H933 C929 0.950 . S
H934 C931 0.950 . S
C935 C926 1.390 . S
C935 H928 0.950 . S
C935 C932 1.387 . S
C936 C937 1.387 . S
C936 H940 0.950 . S
C936 C945 1.390 . S
C937 C936 1.387 . S
C937 C939 1.387 . S
H938 C945 0.950 . S
C939 C937 1.387 . S
C939 C941 1.390 . S
C939 H943 0.950 . S
H940 C936 0.950 . S
C941 C939 1.390 . S
C941 C942 1.387 . S
C941 H944 0.950 . S
C942 C941 1.387 . S
C942 C945 1.387 . S
H943 C939 0.950 . S
H944 C941 0.950 . S
C945 C936 1.390 . S
C945 H938 0.950 . S
C945 C942 1.387 . S
C946 C947 1.387 . S
C946 H950 0.950 . S
C946 C955 1.390 . S
C947 C946 1.387 . S
C947 C949 1.387 . S
H948 C955 0.950 . S
C949 C947 1.387 . S
C949 C951 1.390 . S
C949 H953 0.950 . S
H950 C946 0.950 . S
C951 C949 1.390 . S
C951 C952 1.387 . S
C951 H954 0.950 . S
C952 C951 1.387 . S
C952 C955 1.387 . S
H953 C949 0.950 . S
H954 C951 0.950 . S
C955 C946 1.390 . S
C955 H948 0.950 . S
C955 C952 1.387 . S
C956 C957 1.387 . S
C956 H960 0.950 . S
C956 C965 1.390 . S
C957 C956 1.387 . S
C957 C959 1.387 . S
H958 C965 0.950 . S
C959 C957 1.387 . S
C959 C961 1.390 . S
C959 H963 0.950 . S
H960 C956 0.950 . S
C961 C959 1.390 . S
C961 C962 1.387 . S
C961 H964 0.950 . S
C962 C961 1.387 . S
C962 C965 1.387 . S
H963 C959 0.950 . S
H964 C961 0.950 . S
C965 C956 1.390 . S
C965 H958 0.950 . S
C965 C962 1.387 . S
C966 C967 1.387 . S
C966 H970 0.950 . S
C966 C975 1.390 . S
C967 C966 1.387 . S
C967 C969 1.387 . S
H968 C975 0.950 . S
C969 C967 1.387 . S
C969 C971 1.390 . S
C969 H973 0.950 . S
H970 C966 0.950 . S
C971 C969 1.390 . S
C971 C972 1.387 . S
C971 H974 0.950 . S
C972 C971 1.387 . S
C972 C975 1.387 . S
H973 C969 0.950 . S
H974 C971 0.950 . S
C975 C966 1.390 . S
C975 H968 0.950 . S
C975 C972 1.387 . S
C976 C977 1.387 . S
C976 H980 0.950 . S
C976 C985 1.390 . S
C977 C976 1.387 . S
C977 C979 1.387 . S
H978 C985 0.950 . S
C979 C977 1.387 . S
C979 C981 1.390 . S
C979 H983 0.950 . S
H980 C976 0.950 . S
C981 C979 1.390 . S
C981 C982 1.387 . S
C981 H984 0.950 . S
C982 C981 1.387 . S
C982 C985 1.387 . S
H983 C979 0.950 . S
H984 C981 0.950 . S
C985 C976 1.390 . S
C985 H978 0.950 . S
C985 C982 1.387 . S
C512 C331 1.738 . S
C507 C2 1.727 . S
C522 C321 0.581 . S
C517 C65 0.521 . S
C532 C322 1.433 . S
C527 C82 1.458 . S
C537 C145 0.767 . S
C542 C344 0.766 . S
C547 C164 0.658 . S
C552 C347 0.728 . S
C562 C330 1.403 . S
C557 C223 1.427 . S
C567 C244 1.007 . S
C572 C320 1.051 . S
C577 C282 1.695 . S
C582 C338 1.700 . S
C592 C351 3.203 . S
C587 C31 3.225 . S
C597 C60 1.974 . S
C602 C400 1.954 . S
C612 C378 3.329 . S
C607 C111 3.418 . S
C622 C392 1.583 . S
C617 C140 1.601 . S
C627 C162 1.635 . S
C632 C353 1.601 . S
C642 C406 1.397 . S
C637 C225 1.463 . S
C647 C242 2.078 . S
C652 C362 1.991 . S
C657 C311 2.458 . S
C662 C383 2.411 . S
C667 C4 1.095 . S
C672 C409 1.100 . S
C677 C191 1.320 . S
C682 C393 1.245 . S
C692 C352 2.949 . S
C687 C220 2.945 . S
C702 C384 1.021 . S
C697 C271 1.099 . S
C707 C284 1.568 . S
C712 C375 1.594 1_556 S
C717 C84 1.191 . S
C722 C382 1.223 . S
C732 C369 1.309 . S
C727 C143 1.326 . S
C737 C63 1.106 . S
C742 C361 1.090 . S
C747 C303 1.696 . S
C752 C424 1.700 . S
C757 C185 0.656 . S
C762 C414 0.727 . S
C772 C415 1.404 . S
C767 C202 1.426 . S
C782 C437 1.051 . S
C777 C265 1.009 . S
C787 C44 0.514 . S
C792 C440 0.572 . S
C802 C423 1.436 . S
C797 C103 1.457 . S
C807 C124 0.768 . S
C812 C413 0.768 . S
C817 C23 1.728 . S
C822 C431 1.740 . S
C827 C305 1.568 . S
C832 C444 1.606 . S
C842 C493 1.240 . S
C837 C180 1.318 . S
C847 C231 2.944 . S
C852 C471 2.949 . S
C857 C260 1.098 . S
C862 C485 1.018 . S
C872 C446 1.092 . S
C867 C42 1.107 . S
C877 C105 1.189 . S
C882 C499 1.221 . S
C892 C455 1.309 . S
C887 C122 1.327 . S
C902 C476 1.099 . S
C897 C25 1.091 . S
C912 C502 2.410 . S
C907 C300 2.459 . S
C917 C71 1.973 . S
C922 C486 1.953 . S
C927 C100 3.418 . S
C932 C445 3.328 . S
C942 C477 1.583 . S
C937 C151 1.601 . S
C947 C20 3.225 . S
C952 C468 3.203 . S
C957 C204 1.459 . S
C962 C475 1.394 . S
C972 C462 1.991 . S
C967 C263 2.078 . S
C982 C454 1.602 . S
C977 C183 1.635 . S
