# Generated by pormake.
# Topology anh, (6,3)-cn, num edge types: 1
# Building blocks:
#     Node 0, Type 0, BuildingBlock: BETFEN_clean_sbu_0, # of connection points: 6
#     Node 1, Type 0, BuildingBlock: BETFEN_clean_sbu_0, # of connection points: 6
#     Node 2, Type 0, BuildingBlock: BETFEN_clean_sbu_0, # of connection points: 6
#     Node 3, Type 1, BuildingBlock: OLANEW_clean_sbu_2, # of connection points: 3
#     Node 4, Type 1, BuildingBlock: OLANEW_clean_sbu_2, # of connection points: 3
#     Node 5, Type 1, BuildingBlock: OLANEW_clean_sbu_2, # of connection points: 3
#     Node 6, Type 1, BuildingBlock: OLANEW_clean_sbu_2, # of connection points: 3
#     Node 7, Type 1, BuildingBlock: OLANEW_clean_sbu_2, # of connection points: 3
#     Node 8, Type 1, BuildingBlock: OLANEW_clean_sbu_2, # of connection points: 3
#     Edge 9, Type (0, 1), BuildingBlock: TEMPAE_clean_linker_10, # of connection points: 2
#     Edge 10, Type (0, 1), BuildingBlock: TEMPAE_clean_linker_10, # of connection points: 2
#     Edge 11, Type (0, 1), BuildingBlock: TEMPAE_clean_linker_10, # of connection points: 2
#     Edge 12, Type (0, 1), BuildingBlock: TEMPAE_clean_linker_10, # of connection points: 2
#     Edge 13, Type (0, 1), BuildingBlock: TEMPAE_clean_linker_10, # of connection points: 2
#     Edge 14, Type (0, 1), BuildingBlock: TEMPAE_clean_linker_10, # of connection points: 2
#     Edge 15, Type (0, 1), BuildingBlock: TEMPAE_clean_linker_10, # of connection points: 2
#     Edge 16, Type (0, 1), BuildingBlock: TEMPAE_clean_linker_10, # of connection points: 2
#     Edge 17, Type (0, 1), BuildingBlock: TEMPAE_clean_linker_10, # of connection points: 2
#     Edge 18, Type (0, 1), BuildingBlock: TEMPAE_clean_linker_10, # of connection points: 2
#     Edge 19, Type (0, 1), BuildingBlock: TEMPAE_clean_linker_10, # of connection points: 2
#     Edge 20, Type (0, 1), BuildingBlock: TEMPAE_clean_linker_10, # of connection points: 2
#     Edge 21, Type (0, 1), BuildingBlock: TEMPAE_clean_linker_10, # of connection points: 2
#     Edge 22, Type (0, 1), BuildingBlock: TEMPAE_clean_linker_10, # of connection points: 2
#     Edge 23, Type (0, 1), BuildingBlock: TEMPAE_clean_linker_10, # of connection points: 2
#     Edge 24, Type (0, 1), BuildingBlock: TEMPAE_clean_linker_10, # of connection points: 2
#     Edge 25, Type (0, 1), BuildingBlock: TEMPAE_clean_linker_10, # of connection points: 2
#     Edge 26, Type (0, 1), BuildingBlock: TEMPAE_clean_linker_10, # of connection points: 2
# Relax obj value: 0.140
# Max RMSD: 0.167
# Mean RMSD: 0.114
data_MOF--net-anh--node1-BETFEN_clean_sbu_0--node2-OLANEW_clean_sbu_2--edge1-TEMPAE_clean_linker_10
_symmetry_space_group_name_H-M    P1
_symmetry_Int_Tables_number       1
_symmetry_cell_setting            triclinic
loop_
_symmetry_equiv_pos_as_xyz
'x, y, z'
_cell_length_a     33.847728
_cell_length_b     37.84519
_cell_length_c     51.169064
_cell_angle_alpha  89.744831
_cell_angle_beta   92.392399
_cell_angle_gamma 108.18744
loop_
_atom_site_label
_atom_site_type_symbol
_atom_site_fract_x
_atom_site_fract_y
_atom_site_fract_z
_atom_type_partial_charge
Pr0 Pr 0.0038 0.49627 0.16195 0.0
Pr1 Pr 0.02803 0.57453 0.14058 0.0
C2 C 0.97107 0.43332 0.18899 0.0
C3 C 0.93118 0.40303 0.19113 0.0
C4 C 0.9181 0.37423 0.17237 0.0
C5 C 0.88118 0.34505 0.17515 0.0
C6 C 0.85649 0.34391 0.19677 0.0
C7 C 0.86945 0.37288 0.21542 0.0
C8 C 0.90644 0.40202 0.21267 0.0
C9 C 0.00923 0.49928 0.10769 0.0
C10 C 0.92959 0.53386 0.1447 0.0
C11 C 0.06279 0.64012 0.11715 0.0
C12 C 0.10042 0.67131 0.12364 0.0
C13 C 0.11972 0.67375 0.14865 0.0
C14 C 0.15554 0.70317 0.1551 0.0
C15 C 0.17293 0.73061 0.1366 0.0
C16 C 0.15384 0.72779 0.1114 0.0
C17 C 0.11771 0.69835 0.10499 0.0
C18 C 0.02468 0.5706 0.19506 0.0
C19 C 0.10173 0.53443 0.15346 0.0
O20 O 0.97271 0.46627 0.19766 0.0
O21 O 0.99144 0.4346 0.16764 0.0
O22 O 0.99313 0.51871 0.12102 0.0
O23 O 0.02053 0.47548 0.12207 0.0
O24 O 0.95695 0.55723 0.1301 0.0
O25 O 0.94113 0.5115 0.16112 0.0
O26 O 0.06913 0.60927 0.10998 0.0
O27 O 0.03286 0.63468 0.13352 0.0
O28 O 0.04056 0.55193 0.18099 0.0
O29 O 0.01126 0.59356 0.18121 0.0
O30 O 0.0756 0.51057 0.16845 0.0
O31 O 0.08943 0.55815 0.13879 0.0
H32 H 0.93657 0.37392 0.15565 0.0
H33 H 0.87247 0.32291 0.16065 0.0
H34 H 0.85095 0.37308 0.23215 0.0
H35 H 0.91583 0.42367 0.22754 0.0
H36 H 0.10707 0.65281 0.1632 0.0
H37 H 0.16995 0.7042 0.17451 0.0
H38 H 0.16652 0.7486 0.09679 0.0
H39 H 0.10328 0.69671 0.08554 0.0
Pr40 Pr 0.55645 0.03443 0.53312 0.0
Pr41 Pr 0.4645 0.00879 0.54227 0.0
C42 C 0.6328 0.06742 0.51511 0.0
C43 C 0.66089 0.10544 0.51171 0.0
C44 C 0.66133 0.13433 0.52895 0.0
C45 C 0.68768 0.17047 0.52499 0.0
C46 C 0.7138 0.1784 0.50359 0.0
C47 C 0.71285 0.14928 0.48629 0.0
C48 C 0.68673 0.11318 0.49037 0.0
C49 C 0.53731 0.03002 0.58576 0.0
C50 C 0.50674 0.09818 0.53771 0.0
C51 C 0.3866 0.97461 0.55728 0.0
C52 C 0.3553 0.93773 0.55243 0.0
C53 C 0.3174 0.93543 0.53919 0.0
C54 C 0.28872 0.90085 0.53255 0.0
C55 C 0.29719 0.86779 0.53921 0.0
C56 C 0.33461 0.87003 0.55313 0.0
C57 C 0.36346 0.90465 0.5596 0.0
C58 C 0.48349 0.0149 0.48967 0.0
C59 C 0.51549 0.94509 0.54031 0.0
O60 O 0.59901 0.05769 0.49997 0.0
O61 O 0.62649 0.05561 0.53911 0.0
O62 O 0.51958 0.04327 0.56794 0.0
O63 O 0.5671 0.01916 0.57691 0.0
O64 O 0.47696 0.07256 0.54934 0.0
O65 O 0.53722 0.08925 0.52686 0.0
O66 O 0.41981 0.97582 0.5718 0.0
O67 O 0.39479 0.99678 0.53717 0.0
O68 O 0.50123 1.00067 0.50699 0.0
O69 O 0.4537 0.02508 0.49906 0.0
O70 O 0.54704 0.97067 0.5302 0.0
O71 O 0.48306 0.95373 0.54854 0.0
H72 H 0.64124 0.12899 0.54542 0.0
H73 H 0.6878 0.1921 0.5388 0.0
H74 H 0.73179 0.15446 0.46929 0.0
H75 H 0.68641 0.09131 0.47668 0.0
H76 H 0.31029 0.96047 0.53353 0.0
H77 H 0.25991 0.89996 0.5221 0.0
H78 H 0.34211 0.84502 0.55835 0.0
H79 H 0.39243 0.90543 0.56976 0.0
Pr80 Pr 0.49221 0.48192 0.79372 0.0
Pr81 Pr 0.52693 0.56871 0.81529 0.0
C82 C 0.47223 0.41654 0.76785 0.0
C83 C 0.47039 0.37813 0.77426 0.0
C84 C 0.50089 0.37064 0.79085 0.0
C85 C 0.49616 0.33427 0.79899 0.0
C86 C 0.46063 0.30498 0.79094 0.0
C87 C 0.43081 0.31246 0.77374 0.0
C88 C 0.43573 0.34872 0.76543 0.0
C89 C 0.49766 0.49179 0.84782 0.0
C90 C 0.59509 0.52398 0.80283 0.0
C91 C 0.55107 0.62847 0.84713 0.0
C92 C 0.54489 0.6648 0.85003 0.0
C93 C 0.51631 0.6751 0.83354 0.0
C94 C 0.51141 0.7102 0.83617 0.0
C95 C 0.53508 0.73552 0.85531 0.0
C96 C 0.56339 0.72478 0.87193 0.0
C97 C 0.56823 0.68967 0.86928 0.0
C98 C 0.51223 0.56488 0.76067 0.0
C99 C 0.42581 0.52801 0.80355 0.0
O100 O 0.50912 0.44143 0.76737 0.0
O101 O 0.44475 0.42866 0.77894 0.0
O102 O 0.52246 0.51113 0.83182 0.0
O103 O 0.47126 0.463 0.83627 0.0
O104 O 0.58809 0.55258 0.81435 0.0
O105 O 0.56487 0.49589 0.79205 0.0
O106 O 0.51873 0.59936 0.85133 0.0
O107 O 0.57224 0.62454 0.82704 0.0
O108 O 0.50694 0.53901 0.77669 0.0
O109 O 0.52557 0.59655 0.7732 0.0
O110 O 0.43375 0.50243 0.78894 0.0
O111 O 0.4547 0.55265 0.818 0.0
H112 H 0.52771 0.39298 0.79816 0.0
H113 H 0.5194 0.32931 0.81243 0.0
H114 H 0.40331 0.29032 0.76709 0.0
H115 H 0.41182 0.35399 0.7527 0.0
H116 H 0.49797 0.65605 0.81861 0.0
H117 H 0.48897 0.71748 0.82331 0.0
H118 H 0.5824 0.74379 0.88663 0.0
H119 H 0.59047 0.68204 0.88212 0.0
O120 O 0.53768 0.04954 0.28353 0.0
Cd121 Cd 0.53855 0.05761 0.23612 0.0
O122 O 0.49373 0.99266 0.28208 0.0
Cd123 Cd 0.48141 0.98746 0.23981 0.0
O124 O 0.43835 0.95469 0.20942 0.0
C125 C 0.43225 0.91981 0.21001 0.0
O126 O 0.45412 0.9068 0.22713 0.0
C127 C 0.51693 0.02036 0.29522 0.0
C128 C 0.60483 0.11994 0.22366 0.0
O129 O 0.56906 0.12287 0.22832 0.0
O130 O 0.60905 0.08745 0.22453 0.0
O131 O 0.50514 0.4811 0.56597 0.0
Cd132 Cd 0.51754 0.44484 0.5283 0.0
O133 O 0.51502 0.53759 0.5496 0.0
Cd134 Cd 0.51709 0.59734 0.55206 0.0
O135 O 0.51444 0.65549 0.54693 0.0
C136 C 0.52624 0.68061 0.56468 0.0
O137 O 0.54072 0.67216 0.58728 0.0
C138 C 0.50686 0.51515 0.56877 0.0
C139 C 0.5119 0.36869 0.53517 0.0
O140 O 0.54487 0.39492 0.54238 0.0
O141 O 0.4811 0.37817 0.52561 0.0
O142 O 0.05255 0.53143 0.89964 0.0
Cd143 Cd 0.06361 0.54635 0.85335 0.0
O144 O 0.98392 0.50873 0.89848 0.0
Cd145 Cd 0.96804 0.51608 0.85741 0.0
O146 O 0.9115 0.51695 0.83524 0.0
C147 C 0.87845 0.50224 0.84747 0.0
O148 O 0.88174 0.48771 0.87052 0.0
C149 C 0.01874 0.51717 0.91121 0.0
C150 C 0.14064 0.54113 0.83912 0.0
O151 O 0.13814 0.56921 0.85203 0.0
O152 O 0.1068 0.51546 0.83264 0.0
O153 O 0.03718 0.56203 0.40651 0.0
Cd154 Cd 0.04002 0.55716 0.45422 0.0
O155 O 0.97768 0.51734 0.3997 0.0
Cd156 Cd 0.96522 0.4986 0.43983 0.0
O157 O 0.92612 0.45175 0.46171 0.0
C158 C 0.89587 0.43049 0.44802 0.0
O159 O 0.89089 0.43918 0.42347 0.0
C160 C 0.00847 0.54261 0.39089 0.0
C161 C 0.09555 0.62216 0.47647 0.0
O162 O 0.10817 0.59528 0.46921 0.0
O163 O 0.0566 0.61815 0.47348 0.0
O164 O 0.49975 0.06147 0.79185 0.0
Cd165 Cd 0.49366 0.05838 0.8394 0.0
O166 O 0.43762 0.02143 0.78328 0.0
Cd167 Cd 0.41832 0.02168 0.82329 0.0
O168 O 0.39962 0.02398 0.86351 0.0
C169 C 0.4004 0.0537 0.87534 0.0
O170 O 0.39128 0.05196 0.90012 0.0
C171 C 0.47262 0.04161 0.77549 0.0
C172 C 0.50424 0.99106 0.8552 0.0
O173 O 0.468 0.99401 0.85047 0.0
O174 O 0.53569 0.02039 0.85351 0.0
O175 O 0.53711 0.51476 0.05772 0.0
Cd176 Cd 0.54446 0.51269 0.10536 0.0
O177 O 0.48437 0.53726 0.05387 0.0
Cd178 Cd 0.46882 0.53702 0.09492 0.0
O179 O 0.41533 0.53515 0.11818 0.0
C180 C 0.38041 0.51675 0.10748 0.0
O181 O 0.38013 0.49972 0.08511 0.0
C182 C 0.51193 0.52615 0.04349 0.0
C183 C 0.62646 0.51592 0.119 0.0
O184 O 0.59864 0.48493 0.11317 0.0
O185 O 0.61537 0.54536 0.11897 0.0
C186 C 0.15787 0.50545 0.16391 0.0
C187 C 0.14509 0.53363 0.15178 0.0
C188 C 0.19756 0.50239 0.16005 0.0
C189 C 0.22503 0.52807 0.14366 0.0
C190 C 0.21299 0.55757 0.13238 0.0
C191 C 0.17324 0.55999 0.13658 0.0
C192 C 0.20938 0.4707 0.17255 0.0
C193 C 0.24135 0.58563 0.11484 0.0
C194 C 0.34009 0.53722 0.14132 0.0
C195 C 0.34061 0.51703 0.11846 0.0
C196 C 0.30249 0.54 0.1504 0.0
C197 C 0.26466 0.52232 0.13621 0.0
C198 C 0.26491 0.5009 0.11365 0.0
C199 C 0.30279 0.49844 0.10512 0.0
C200 C 0.30339 0.56284 0.17465 0.0
C201 C 0.22527 0.48165 0.09791 0.0
H202 H 0.13643 0.48504 0.17577 0.0
H203 H 0.16388 0.5821 0.1273 0.0
H204 H 0.21096 0.45061 0.15721 0.0
H205 H 0.24066 0.48111 0.18248 0.0
H206 H 0.18663 0.45568 0.18701 0.0
H207 H 0.22873 0.60856 0.10932 0.0
H208 H 0.2725 0.5978 0.12464 0.0
H209 H 0.2457 0.57157 0.09669 0.0
H210 H 0.36913 0.55156 0.15181 0.0
H211 H 0.30277 0.48262 0.08751 0.0
H212 H 0.28038 0.54662 0.18852 0.0
H213 H 0.29453 0.58787 0.1693 0.0
H214 H 0.33465 0.57197 0.18477 0.0
H215 H 0.20184 0.46347 0.11072 0.0
H216 H 0.23049 0.46449 0.08165 0.0
H217 H 0.21184 0.50269 0.08953 0.0
C218 C 0.72755 0.24767 0.50289 0.0
C219 C 0.74146 0.21689 0.49893 0.0
C220 C 0.75253 0.28386 0.49707 0.0
C221 C 0.79216 0.28938 0.48675 0.0
C222 C 0.80683 0.2586 0.48338 0.0
C223 C 0.78145 0.22282 0.48967 0.0
C224 C 0.73593 0.31603 0.50113 0.0
C225 C 0.84882 0.26326 0.47232 0.0
C226 C 0.83689 0.37146 0.4424 0.0
C227 C 0.86796 0.39553 0.45872 0.0
C228 C 0.81151 0.33724 0.45148 0.0
C229 C 0.81709 0.32679 0.47763 0.0
C230 C 0.84762 0.35133 0.49447 0.0
C231 C 0.87282 0.38541 0.48479 0.0
C232 C 0.77944 0.31181 0.43285 0.0
C233 C 0.85417 0.34127 0.52254 0.0
H234 H 0.69658 0.24342 0.50978 0.0
H235 H 0.79286 0.19936 0.48708 0.0
H236 H 0.75912 0.33859 0.51248 0.0
H237 H 0.73035 0.32771 0.48191 0.0
H238 H 0.70631 0.30759 0.51155 0.0
H239 H 0.85646 0.23678 0.47205 0.0
H240 H 0.84929 0.27377 0.45201 0.0
H241 H 0.87357 0.28414 0.48396 0.0
H242 H 0.83278 0.37902 0.42224 0.0
H243 H 0.89663 0.4039 0.49757 0.0
H244 H 0.74815 0.30448 0.44112 0.0
H245 H 0.7868 0.28551 0.43013 0.0
H246 H 0.77809 0.32459 0.41338 0.0
H247 H 0.82432 0.33384 0.53262 0.0
H248 H 0.87737 0.36432 0.53354 0.0
H249 H 0.86506 0.31649 0.52317 0.0
C250 C 0.52848 0.79374 0.83497 0.0
C251 C 0.53092 0.77327 0.85755 0.0
C252 C 0.52479 0.82951 0.83667 0.0
C253 C 0.52361 0.84526 0.86156 0.0
C254 C 0.52623 0.82485 0.88445 0.0
C255 C 0.52984 0.78905 0.88217 0.0
C256 C 0.52212 0.85045 0.81179 0.0
C257 C 0.52494 0.84075 0.91129 0.0
C258 C 0.54931 0.95026 0.86246 0.0
C259 C 0.50948 0.95425 0.86036 0.0
C260 C 0.55443 0.91489 0.86399 0.0
C261 C 0.51887 0.88287 0.86339 0.0
C262 C 0.47863 0.88682 0.86255 0.0
C263 C 0.47442 0.92246 0.86106 0.0
C264 C 0.59785 0.91174 0.86502 0.0
C265 C 0.43997 0.85333 0.86197 0.0
H266 H 0.52999 0.78194 0.81592 0.0
H267 H 0.53128 0.77319 0.89967 0.0
H268 H 0.49252 0.85729 0.81064 0.0
H269 H 0.54791 0.87713 0.81183 0.0
H270 H 0.5237 0.83431 0.794 0.0
H271 H 0.52816 0.82157 0.92716 0.0
H272 H 0.55031 0.86751 0.91401 0.0
H273 H 0.4951 0.84668 0.91325 0.0
H274 H 0.57654 0.97469 0.862 0.0
H275 H 0.44351 0.9253 0.85958 0.0
H276 H 0.60321 0.89895 0.84658 0.0
H277 H 0.60154 0.89334 0.88125 0.0
H278 H 0.62213 0.93922 0.8677 0.0
H279 H 0.43771 0.83765 0.8434 0.0
H280 H 0.41114 0.86118 0.86353 0.0
H281 H 0.44165 0.83426 0.87821 0.0
C282 C 0.85754 0.51471 0.1614 0.0
C283 C 0.88511 0.53153 0.14195 0.0
C284 C 0.81524 0.51216 0.15897 0.0
C285 C 0.80001 0.52616 0.13631 0.0
C286 C 0.82768 0.54301 0.11656 0.0
C287 C 0.86996 0.5458 0.11973 0.0
C288 C 0.78687 0.49456 0.18065 0.0
C289 C 0.81253 0.55769 0.0919 0.0
C290 C 0.68459 0.48839 0.11733 0.0
C291 C 0.67038 0.51783 0.12468 0.0
C292 C 0.72664 0.49064 0.12115 0.0
C293 C 0.75503 0.52282 0.13305 0.0
C294 C 0.74065 0.55222 0.14115 0.0
C295 C 0.69857 0.54953 0.13663 0.0
C296 C 0.74086 0.45894 0.11187 0.0
C297 C 0.7698 0.58668 0.15435 0.0
H298 H 0.86909 0.50382 0.17871 0.0
H299 H 0.89103 0.55861 0.10453 0.0
H300 H 0.77158 0.51438 0.18796 0.0
H301 H 0.76186 0.46971 0.17307 0.0
H302 H 0.80381 0.48601 0.19733 0.0
H303 H 0.83795 0.56965 0.07829 0.0
H304 H 0.78793 0.53496 0.0816 0.0
H305 H 0.79846 0.5795 0.09687 0.0
H306 H 0.66302 0.46389 0.10795 0.0
H307 H 0.68774 0.57229 0.14249 0.0
H308 H 0.75582 0.44807 0.12838 0.0
H309 H 0.76455 0.46907 0.09692 0.0
H310 H 0.71479 0.43568 0.10325 0.0
H311 H 0.78593 0.57888 0.1717 0.0
H312 H 0.75331 0.60616 0.1607 0.0
H313 H 0.79409 0.60149 0.14076 0.0
C314 C 0.25633 0.80158 0.5486 0.0
C315 C 0.26758 0.83115 0.53095 0.0
C316 C 0.22827 0.76689 0.54091 0.0
C317 C 0.21148 0.76156 0.51487 0.0
C318 C 0.22303 0.79126 0.49693 0.0
C319 C 0.25076 0.82572 0.50522 0.0
C320 C 0.21637 0.73603 0.56068 0.0
C321 C 0.20626 0.78659 0.46891 0.0
C322 C 0.16828 0.66361 0.48658 0.0
C323 C 0.1252 0.65711 0.4874 0.0
C324 C 0.19673 0.69728 0.49577 0.0
C325 C 0.18177 0.72499 0.50628 0.0
C326 C 0.13835 0.71827 0.50771 0.0
C327 C 0.11059 0.6845 0.49813 0.0
C328 C 0.24278 0.70351 0.4937 0.0
C329 C 0.12119 0.74698 0.51902 0.0
H330 H 0.26904 0.80577 0.56856 0.0
H331 H 0.25984 0.84835 0.49142 0.0
H332 H 0.18219 0.72684 0.56287 0.0
H333 H 0.22465 0.71163 0.55373 0.0
H334 H 0.23202 0.74471 0.58018 0.0
H335 H 0.2187 0.8123 0.45735 0.0
H336 H 0.21438 0.76366 0.45936 0.0
H337 H 0.17181 0.77886 0.46832 0.0
H338 H 0.17985 0.64263 0.47828 0.0
H339 H 0.07737 0.67965 0.49895 0.0
H340 H 0.25887 0.71038 0.51322 0.0
H341 H 0.25632 0.72755 0.48083 0.0
H342 H 0.24939 0.6788 0.4857 0.0
H343 H 0.13478 0.75501 0.53905 0.0
H344 H 0.08673 0.73677 0.51988 0.0
H345 H 0.13006 0.77247 0.50696 0.0
C346 C 0.41471 0.24841 0.81217 0.0
C347 C 0.45326 0.26721 0.80182 0.0
C348 C 0.40745 0.21335 0.82359 0.0
C349 C 0.43939 0.1965 0.82444 0.0
C350 C 0.47821 0.21508 0.81366 0.0
C351 C 0.48482 0.25043 0.80264 0.0
C352 C 0.36579 0.19464 0.83516 0.0
C353 C 0.51273 0.19767 0.81385 0.0
C354 C 0.43134 0.12277 0.87625 0.0
C355 C 0.41224 0.08997 0.86192 0.0
C356 C 0.44129 0.15763 0.86416 0.0
C357 C 0.43211 0.15968 0.83705 0.0
C358 C 0.41347 0.12661 0.8224 0.0
C359 C 0.40305 0.09221 0.83512 0.0
C360 C 0.46067 0.19231 0.88053 0.0
C361 C 0.40338 0.12758 0.79343 0.0
H362 H 0.39048 0.26158 0.81189 0.0
H363 H 0.51456 0.26487 0.79449 0.0
H364 H 0.35092 0.1671 0.8257 0.0
H365 H 0.37021 0.18975 0.85632 0.0
H366 H 0.34422 0.21145 0.83279 0.0
H367 H 0.54061 0.21526 0.80397 0.0
H368 H 0.52204 0.19301 0.8343 0.0
H369 H 0.50159 0.17009 0.80395 0.0
H370 H 0.43826 0.12119 0.89702 0.0
H371 H 0.38628 0.06727 0.8242 0.0
H372 H 0.43946 0.20953 0.88035 0.0
H373 H 0.49019 0.20936 0.87212 0.0
H374 H 0.46724 0.18588 0.90115 0.0
H375 H 0.37819 0.14029 0.79012 0.0
H376 H 0.39316 0.09936 0.78439 0.0
H377 H 0.43096 0.14505 0.78326 0.0
C378 C 0.55106 0.89606 0.53529 0.0
C379 C 0.51622 0.90583 0.54256 0.0
C380 C 0.55244 0.85933 0.53791 0.0
C381 C 0.51816 0.83137 0.548 0.0
C382 C 0.48266 0.84092 0.55501 0.0
C383 C 0.48215 0.87787 0.55225 0.0
C384 C 0.59094 0.85056 0.53018 0.0
C385 C 0.4453 0.81218 0.56576 0.0
C386 C 0.50816 0.72884 0.53631 0.0
C387 C 0.52393 0.71907 0.56016 0.0
C388 C 0.50603 0.76511 0.53207 0.0
C389 C 0.52002 0.79252 0.5521 0.0
C390 C 0.53594 0.78281 0.57619 0.0
C391 C 0.53767 0.74639 0.57991 0.0
C392 C 0.48878 0.77413 0.50611 0.0
C393 C 0.55125 0.81096 0.59812 0.0
H394 H 0.57758 0.91723 0.52775 0.0
H395 H 0.45495 0.88484 0.55786 0.0
H396 H 0.60538 0.84089 0.5475 0.0
H397 H 0.58249 0.82765 0.5155 0.0
H398 H 0.61442 0.87502 0.52188 0.0
H399 H 0.41945 0.82361 0.56925 0.0
H400 H 0.43373 0.78825 0.552 0.0
H401 H 0.45436 0.80135 0.58449 0.0
H402 H 0.49741 0.7081 0.52089 0.0
H403 H 0.54994 0.73938 0.59843 0.0
H404 H 0.51252 0.79717 0.49667 0.0
H405 H 0.46151 0.78375 0.50917 0.0
H406 H 0.47908 0.74982 0.49254 0.0
H407 H 0.57682 0.83511 0.5914 0.0
H408 H 0.56276 0.79912 0.61566 0.0
H409 H 0.52576 0.82158 0.60387 0.0
C410 C 0.64722 0.49079 0.79443 0.0
C411 C 0.6383 0.52203 0.80408 0.0
C412 C 0.68711 0.48704 0.79817 0.0
C413 C 0.71876 0.51509 0.81196 0.0
C414 C 0.71048 0.54743 0.82064 0.0
C415 C 0.67047 0.55054 0.81655 0.0
C416 C 0.69482 0.45228 0.78842 0.0
C417 C 0.74331 0.57798 0.83547 0.0
C418 C 0.80212 0.48919 0.85216 0.0
C419 C 0.83724 0.50335 0.8371 0.0
C420 C 0.76325 0.492 0.84381 0.0
C421 C 0.75915 0.5092 0.81967 0.0
C422 C 0.79411 0.52251 0.80393 0.0
C423 C 0.83284 0.51954 0.81287 0.0
C424 C 0.72682 0.47755 0.86126 0.0
C425 C 0.79084 0.54074 0.77798 0.0
H426 H 0.62274 0.46867 0.78464 0.0
H427 H 0.66417 0.57494 0.82394 0.0
H428 H 0.72389 0.45954 0.77752 0.0
H429 H 0.6989 0.4351 0.80532 0.0
H430 H 0.6687 0.43522 0.7755 0.0
H431 H 0.73299 0.60262 0.83901 0.0
H432 H 0.7509 0.56733 0.85464 0.0
H433 H 0.77238 0.58698 0.82456 0.0
H434 H 0.80508 0.47652 0.87087 0.0
H435 H 0.85976 0.53042 0.80106 0.0
H436 H 0.70031 0.45754 0.85031 0.0
H437 H 0.71616 0.50092 0.86767 0.0
H438 H 0.73476 0.46355 0.87892 0.0
H439 H 0.76479 0.52252 0.76561 0.0
H440 H 0.81996 0.54696 0.76715 0.0
H441 H 0.78389 0.56712 0.7812 0.0
C442 C 0.21436 0.78003 0.16799 0.0
C443 C 0.21099 0.7618 0.14382 0.0
C444 C 0.25116 0.80759 0.17616 0.0
C445 C 0.28556 0.81717 0.15978 0.0
C446 C 0.28192 0.7998 0.13495 0.0
C447 C 0.24459 0.77231 0.12723 0.0
C448 C 0.25364 0.82563 0.20272 0.0
C449 C 0.31792 0.80928 0.11696 0.0
C450 C 0.37052 0.90705 0.17842 0.0
C451 C 0.39763 0.89382 0.19425 0.0
C452 C 0.33478 0.88235 0.16601 0.0
C453 C 0.32597 0.84358 0.16958 0.0
C454 C 0.35426 0.83004 0.18449 0.0
C455 C 0.38975 0.8553 0.1966 0.0
C456 C 0.30549 0.89781 0.1501 0.0
C457 C 0.34606 0.78889 0.18873 0.0
H458 H 0.1882 0.77241 0.18068 0.0
H459 H 0.2422 0.75813 0.10859 0.0
H460 H 0.27734 0.81861 0.21552 0.0
H461 H 0.26357 0.85634 0.20086 0.0
H462 H 0.22341 0.8165 0.21245 0.0
H463 H 0.30896 0.79569 0.09746 0.0
H464 H 0.33027 0.83981 0.11428 0.0
H465 H 0.34357 0.8002 0.12586 0.0
H466 H 0.37645 0.93676 0.1764 0.0
H467 H 0.41061 0.84477 0.20864 0.0
H468 H 0.27602 0.8927 0.16038 0.0
H469 H 0.29753 0.88351 0.13082 0.0
H470 H 0.31892 0.92819 0.14688 0.0
H471 H 0.3181 0.77779 0.20049 0.0
H472 H 0.37267 0.78278 0.19908 0.0
H473 H 0.33956 0.77375 0.16973 0.0
C474 C 0.48279 0.15002 0.55495 0.0
C475 C 0.50714 0.13777 0.53773 0.0
C476 C 0.48347 0.18746 0.55549 0.0
C477 C 0.50848 0.21337 0.53805 0.0
C478 C 0.53297 0.20109 0.52053 0.0
C479 C 0.5323 0.16366 0.52075 0.0
C480 C 0.45758 0.19935 0.57489 0.0
C481 C 0.55967 0.22746 0.50134 0.0
C482 C 0.47974 0.30141 0.52208 0.0
C483 C 0.51007 0.32877 0.53681 0.0
C484 C 0.47898 0.26395 0.52224 0.0
C485 C 0.50872 0.25316 0.53793 0.0
C486 C 0.53889 0.28053 0.55327 0.0
C487 C 0.53949 0.31796 0.55231 0.0
C488 C 0.44675 0.23599 0.50519 0.0
C489 C 0.57067 0.2703 0.57069 0.0
H490 H 0.46355 0.13042 0.56833 0.0
H491 H 0.55121 0.15457 0.50734 0.0
H492 H 0.47776 0.22238 0.58737 0.0
H493 H 0.43437 0.21002 0.56438 0.0
H494 H 0.44085 0.17619 0.5877 0.0
H495 H 0.57639 0.21353 0.48873 0.0
H496 H 0.54004 0.23971 0.48865 0.0
H497 H 0.58296 0.25076 0.51199 0.0
H498 H 0.45706 0.30942 0.50988 0.0
H499 H 0.56298 0.33879 0.56382 0.0
H500 H 0.42737 0.21337 0.51737 0.0
H501 H 0.46238 0.22301 0.49118 0.0
H502 H 0.42597 0.24876 0.49397 0.0
H503 H 0.55476 0.24803 0.58435 0.0
H504 H 0.59085 0.29443 0.58229 0.0
H505 H 0.5907 0.25917 0.55868 0.0
C506 C 0.37268 0.56096 0.80018 0.0
C507 C 0.38256 0.5282 0.80495 0.0
C508 C 0.33222 0.56236 0.80356 0.0
C509 C 0.30158 0.53072 0.81311 0.0
C510 C 0.31153 0.49747 0.81778 0.0
C511 C 0.35178 0.49642 0.81315 0.0
C512 C 0.32251 0.5979 0.79741 0.0
C513 C 0.28034 0.46359 0.82889 0.0
C514 C 0.21557 0.55037 0.85021 0.0
C515 C 0.18152 0.53825 0.83234 0.0
C516 C 0.25454 0.54727 0.8444 0.0
C517 C 0.25998 0.53314 0.81967 0.0
C518 C 0.22577 0.52152 0.80134 0.0
C519 C 0.18667 0.52349 0.80813 0.0
C520 C 0.28975 0.55873 0.86486 0.0
C521 C 0.23067 0.50764 0.77443 0.0
H522 H 0.39668 0.58549 0.79383 0.0
H523 H 0.35982 0.47129 0.81716 0.0
H524 H 0.29369 0.59189 0.78478 0.0
H525 H 0.31694 0.61077 0.81575 0.0
H526 H 0.34825 0.61839 0.78741 0.0
H527 H 0.29267 0.43968 0.83084 0.0
H528 H 0.27168 0.47044 0.84848 0.0
H529 H 0.25144 0.45499 0.81628 0.0
H530 H 0.21145 0.56149 0.86903 0.0
H531 H 0.16034 0.51439 0.79424 0.0
H532 H 0.31539 0.58242 0.85769 0.0
H533 H 0.30253 0.53543 0.86863 0.0
H534 H 0.27973 0.56709 0.88363 0.0
H535 H 0.25534 0.52907 0.76433 0.0
H536 H 0.20136 0.50084 0.76216 0.0
H537 H 0.24062 0.48241 0.776 0.0
C538 C 0.80868 0.29626 0.22492 0.0
C539 C 0.818 0.3121 0.20018 0.0
C540 C 0.77319 0.26554 0.22834 0.0
C541 C 0.74641 0.2501 0.20649 0.0
C542 C 0.75536 0.26613 0.18151 0.0
C543 C 0.79099 0.29696 0.17867 0.0
C544 C 0.76467 0.24927 0.25531 0.0
C545 C 0.72751 0.25047 0.15775 0.0
C546 C 0.67889 0.14936 0.2118 0.0
C547 C 0.6405 0.1532 0.21813 0.0
C548 C 0.7134 0.18066 0.20752 0.0
C549 C 0.70951 0.21669 0.20975 0.0
C550 C 0.67072 0.22077 0.21578 0.0
C551 C 0.63664 0.18897 0.21984 0.0
C552 C 0.7542 0.17517 0.20097 0.0
C553 C 0.6654 0.25874 0.2184 0.0
H554 H 0.82965 0.30741 0.24158 0.0
H555 H 0.79764 0.30934 0.15956 0.0
H556 H 0.73318 0.2487 0.26093 0.0
H557 H 0.76523 0.22011 0.25527 0.0
H558 H 0.78782 0.26526 0.2704 0.0
H559 H 0.7385 0.26648 0.13977 0.0
H560 H 0.72612 0.22114 0.15447 0.0
H561 H 0.69533 0.25053 0.16099 0.0
H562 H 0.68212 0.12184 0.21037 0.0
H563 H 0.60711 0.1922 0.22474 0.0
H564 H 0.77832 0.18807 0.21642 0.0
H565 H 0.7651 0.1892 0.18232 0.0
H566 H 0.75172 0.14531 0.19912 0.0
H567 H 0.68626 0.27451 0.23456 0.0
H568 H 0.63288 0.25713 0.22241 0.0
H569 H 0.67444 0.27479 0.20023 0.0
C570 C 0.02471 0.47516 0.0653 0.0
C571 C 0.01211 0.50149 0.079 0.0
C572 C 0.02721 0.47668 0.03797 0.0
C573 C 0.0173 0.50548 0.02412 0.0
C574 C 0.00517 0.53249 0.03796 0.0
C575 C 1.00253 0.53006 0.06525 0.0
C576 C 0.03994 0.44722 0.0239 0.0
C577 C 0.99473 0.56383 0.02392 0.0
C578 C 0.05563 0.52905 0.95542 0.0
C579 C 0.01941 0.51213 0.93998 0.0
C580 C 0.05555 0.52681 0.98284 0.0
C581 C 0.01851 0.50686 0.99508 0.0
C582 C 0.9822 0.48887 0.9796 0.0
C583 C 0.98304 0.49186 0.95228 0.0
C584 C 0.09481 0.54655 0.99872 0.0
C585 C 0.94223 0.46697 0.99192 0.0
H586 H 0.03223 0.45307 0.07591 0.0
H587 H 0.99306 0.55062 0.07584 0.0
H588 H 0.01455 0.4318 0.00991 0.0
H589 H 0.0677 0.46038 0.01237 0.0
H590 H 0.04722 0.42701 0.03758 0.0
H591 H 0.98725 0.58328 0.03764 0.0
H592 H 0.02129 0.57976 0.01226 0.0
H593 H 0.96765 0.55235 0.01008 0.0
H594 H 0.08383 0.54489 0.94612 0.0
H595 H 0.95495 0.47852 0.94054 0.0
H596 H 0.10368 0.52664 0.01186 0.0
H597 H 0.08925 0.56819 0.01131 0.0
H598 H 0.12133 0.56001 0.98622 0.0
H599 H 0.94775 0.44526 0.00489 0.0
H600 H 0.91723 0.45335 0.9771 0.0
H601 H 0.9311 0.48567 0.00425 0.0
C602 C 0.52489 1.00474 0.45266 0.0
C603 C 0.49265 0.01675 0.46167 0.0
C604 C 0.53301 1.00581 0.42591 0.0
C605 C 0.50809 0.01899 0.40786 0.0
C606 C 0.47592 0.03167 0.41699 0.0
C607 C 0.46868 0.03048 0.44379 0.0
C608 C 0.56775 0.99231 0.4169 0.0
C609 C 0.44857 0.04583 0.39838 0.0
C610 C 0.54171 0.0498 0.33928 0.0
C611 C 0.51793 0.019 0.32422 0.0
C612 C 0.54014 0.04968 0.36668 0.0
C613 C 0.5141 0.01808 0.37928 0.0
C614 C 0.49123 0.98644 0.36427 0.0
C615 C 0.49347 0.98727 0.33697 0.0
C616 C 0.56518 0.08384 0.38207 0.0
C617 C 0.46307 0.95221 0.37697 0.0
H618 H 0.5436 0.99427 0.4665 0.0
H619 H 0.44383 0.03994 0.45072 0.0
H620 H 0.55471 0.96748 0.40408 0.0
H621 H 0.5894 0.01405 0.40516 0.0
H622 H 0.58571 0.98487 0.43354 0.0
H623 H 0.42572 0.05571 0.40873 0.0
H624 H 0.46796 0.06907 0.38668 0.0
H625 H 0.43128 0.02337 0.38448 0.0
H626 H 0.56086 0.07437 0.32965 0.0
H627 H 0.47514 0.96323 0.32556 0.0
H628 H 0.58364 0.0761 0.39825 0.0
H629 H 0.54383 0.09694 0.39103 0.0
H630 H 0.58667 0.10476 0.36965 0.0
H631 H 0.4805 0.94242 0.39274 0.0
H632 H 0.44953 0.92907 0.36274 0.0
H633 H 0.43723 0.95913 0.38612 0.0
C634 C 0.51855 0.53089 0.72059 0.0
C635 C 0.508 0.56 0.73208 0.0
C636 C 0.51691 0.52659 0.69333 0.0
C637 C 0.50246 0.551 0.67726 0.0
C638 C 0.49048 0.57979 0.6889 0.0
C639 C 0.49436 0.58451 0.71625 0.0
C640 C 0.53142 0.49636 0.68174 0.0
C641 C 0.47312 0.60522 0.67253 0.0
C642 C 0.53476 0.55737 0.60677 0.0
C643 C 0.50225 0.52866 0.59502 0.0
C644 C 0.53466 0.56593 0.63344 0.0
C645 C 0.50039 0.54622 0.64831 0.0
C646 C 0.46602 0.51913 0.63589 0.0
C647 C 0.46785 0.51 0.6095 0.0
C648 C 0.57258 0.59403 0.64606 0.0
C649 C 0.42812 0.49865 0.65073 0.0
H650 H 0.52943 0.51216 0.73294 0.0
H651 H 0.48592 0.60684 0.72529 0.0
H652 H 0.50521 0.47599 0.67082 0.0
H653 H 0.55595 0.50855 0.66762 0.0
H654 H 0.54403 0.48122 0.69691 0.0
H655 H 0.46335 0.62502 0.68469 0.0
H656 H 0.49674 0.62135 0.659 0.0
H657 H 0.44588 0.58848 0.66033 0.0
H658 H 0.56156 0.57141 0.59552 0.0
H659 H 0.44271 0.48781 0.60027 0.0
H660 H 0.5883 0.57965 0.65998 0.0
H661 H 0.56352 0.61492 0.65744 0.0
H662 H 0.59524 0.60877 0.63147 0.0
H663 H 0.43577 0.47847 0.6642 0.0
H664 H 0.40165 0.48319 0.63742 0.0
H665 H 0.41811 0.51837 0.6628 0.0
C666 C 0.54682 0.01402 0.63255 0.0
C667 C 0.52871 0.03171 0.61366 0.0
C668 C 0.53846 0.01553 0.65911 0.0
C669 C 0.51179 0.03559 0.66685 0.0
C670 C 0.49375 0.05376 0.6478 0.0
C671 C 0.50219 0.05137 0.62141 0.0
C672 C 0.55784 0.99543 0.67886 0.0
C673 C 0.4655 0.07572 0.65529 0.0
C674 C 0.45716 0.01255 0.73091 0.0
C675 C 0.48236 0.04065 0.7476 0.0
C676 C 0.46673 0.0103 0.70469 0.0
C677 C 0.50206 0.03709 0.6948 0.0
C678 C 0.52745 0.06572 0.71146 0.0
C679 C 0.51744 0.06703 0.73772 0.0
C680 C 0.43912 0.97916 0.68758 0.0
C681 C 0.56505 0.09508 0.70149 0.0
H682 H 0.56722 0.99872 0.62654 0.0
H683 H 0.48822 0.06519 0.60683 0.0
H684 H 0.57694 0.01539 0.69378 0.0
H685 H 0.53309 0.97451 0.68926 0.0
H686 H 0.57786 0.98109 0.66965 0.0
H687 H 0.455 0.08915 0.63817 0.0
H688 H 0.43765 0.05718 0.66462 0.0
H689 H 0.48185 0.09762 0.66983 0.0
H690 H 0.43017 0.99188 0.73842 0.0
H691 H 0.53702 0.08887 0.75047 0.0
H692 H 0.45782 0.96283 0.67929 0.0
H693 H 0.42543 0.99083 0.67089 0.0
H694 H 0.41341 0.96003 0.69844 0.0
H695 H 0.58716 0.08181 0.69375 0.0
H696 H 0.58158 0.11549 0.71695 0.0
H697 H 0.55541 0.11028 0.68509 0.0
C698 C 0.47356 0.47408 0.89277 0.0
C699 C 0.50091 0.49878 0.87628 0.0
C700 C 0.47663 0.47997 0.91992 0.0
C701 C 0.50753 0.51153 0.93077 0.0
C702 C 0.53496 0.5368 0.91414 0.0
C703 C 0.53153 0.52993 0.88707 0.0
C704 C 0.44696 0.45227 0.93703 0.0
C705 C 0.56798 0.57098 0.92493 0.0
C706 C 0.48848 0.5407 0.99878 0.0
C707 C 0.51326 0.52484 0.01458 0.0
C708 C 0.48728 0.53755 0.97142 0.0
C709 C 0.51116 0.51779 0.95956 0.0
C710 C 0.53701 0.5025 0.97532 0.0
C711 C 0.53789 0.50634 0.00264 0.0
C712 C 0.4597 0.5546 0.95522 0.0
C713 C 0.56277 0.48108 0.96338 0.0
H714 H 0.44989 0.44995 0.88445 0.0
H715 H 0.55291 0.54893 0.87435 0.0
H716 H 0.46471 0.44042 0.9514 0.0
H717 H 0.42884 0.4664 0.94828 0.0
H718 H 0.42484 0.42909 0.92552 0.0
H719 H 0.58566 0.58864 0.90924 0.0
H720 H 0.55352 0.5879 0.93662 0.0
H721 H 0.59017 0.56263 0.93822 0.0
H722 H 0.46953 0.55526 0.00779 0.0
H723 H 0.55712 0.49398 0.01465 0.0
H724 H 0.43461 0.53235 0.94487 0.0
H725 H 0.47794 0.57297 0.94009 0.0
H726 H 0.44516 0.57108 0.96732 0.0
H727 H 0.54197 0.45592 0.95315 0.0
H728 H 0.58259 0.47228 0.97825 0.0
H729 H 0.58308 0.49828 0.94857 0.0
C730 C 0.0058 0.59033 0.23801 0.0
C731 C 0.02346 0.56793 0.22382 0.0
C732 C 0.00382 0.58764 0.26533 0.0
C733 C 0.01991 0.56192 0.27869 0.0
C734 C 0.03804 0.5394 0.26442 0.0
C735 C 0.03957 0.54267 0.23712 0.0
C736 C 0.98411 0.61201 0.27987 0.0
C737 C 0.05545 0.5116 0.27795 0.0
C738 C 0.04588 0.57464 0.35178 0.0
C739 C 0.01108 0.54855 0.36224 0.0
C740 C 0.04908 0.57947 0.32462 0.0
C741 C 0.0167 0.55777 0.30753 0.0
C742 C 0.98133 0.53171 0.31794 0.0
C743 C 0.97896 0.52741 0.34513 0.0
C744 C 0.0873 0.60752 0.3142 0.0
C745 C 0.94611 0.5081 0.30035 0.0
H746 H 0.99327 0.60986 0.22775 0.0
H747 H 0.0532 0.52526 0.22616 0.0
H748 H 0.95668 0.59444 0.29011 0.0
H749 H 0.00647 0.62877 0.29501 0.0
H750 H 0.97394 0.63118 0.26665 0.0
H751 H 0.06947 0.4969 0.26409 0.0
H752 H 0.07955 0.52584 0.29307 0.0
H753 H 0.03039 0.49063 0.28808 0.0
H754 H 0.07086 0.59108 0.3648 0.0
H755 H 0.95189 0.50721 0.35296 0.0
H756 H 0.07815 0.62812 0.30189 0.0
H757 H 0.10362 0.5933 0.30156 0.0
H758 H 0.10942 0.6226 0.33009 0.0
H759 H 0.93324 0.52616 0.28775 0.0
H760 H 0.92048 0.4895 0.31156 0.0
H761 H 0.95787 0.49075 0.28721 0.0
loop_
_geom_bond_atom_site_label_1
_geom_bond_atom_site_label_2
_geom_bond_distance
_geom_bond_site_symmetry_2
_ccdc_geom_bond_type
Pr0 C2 2.880 . S
Pr0 O20 2.562 . S
Pr0 O21 2.490 . S
Pr0 O22 2.695 1_655 S
Pr0 O23 2.512 . S
Pr0 O25 2.437 . S
Pr0 O28 2.436 . S
Pr0 O30 2.438 1_655 S
Pr1 C11 2.880 . S
Pr1 O22 2.436 . S
Pr1 O24 2.438 1_455 S
Pr1 O26 2.562 . S
Pr1 O27 2.490 . S
Pr1 O28 2.695 1_455 S
Pr1 O29 2.512 . S
Pr1 O31 2.437 . S
C2 Pr0 2.880 . S
C2 C3 1.491 . S
C2 O20 1.254 . S
C2 O21 1.225 . S
C3 C2 1.491 . S
C3 C4 1.392 . S
C3 C8 1.356 . S
C4 C3 1.392 . S
C4 C5 1.368 . S
C4 H32 0.929 . S
C5 C4 1.368 . S
C5 C6 1.386 . S
C5 H33 0.929 . S
C6 C5 1.386 . S
C6 C7 1.373 . S
C7 C6 1.373 . S
C7 C8 1.409 . S
C7 H34 0.931 . S
C8 C3 1.356 . S
C8 C7 1.409 . S
C8 H35 0.930 . S
C9 O22 1.270 . S
C9 O23 1.248 1_455 S
C10 O24 1.267 . S
C10 O25 1.278 . S
C11 Pr1 2.880 . S
C11 C12 1.491 . S
C11 O26 1.254 . S
C11 O27 1.225 . S
C12 C11 1.491 . S
C12 C13 1.392 . S
C12 C17 1.356 . S
C13 C12 1.392 . S
C13 C14 1.368 . S
C13 H36 0.929 . S
C14 C13 1.368 . S
C14 C15 1.386 . S
C14 H37 0.929 . S
C15 C14 1.386 . S
C15 C16 1.373 . S
C16 C15 1.373 . S
C16 C17 1.409 . S
C16 H38 0.931 . S
C17 C12 1.356 . S
C17 C16 1.409 . S
C17 H39 0.930 . S
C18 O28 1.270 1_455 S
C18 O29 1.248 . S
C19 O30 1.267 . S
C19 O31 1.278 . S
O20 Pr0 2.562 . S
O20 C2 1.254 . S
O21 Pr0 2.490 . S
O21 C2 1.225 . S
O22 Pr0 2.695 1_455 S
O22 Pr1 2.436 . S
O22 C9 1.270 . S
O23 Pr0 2.512 . S
O23 C9 1.248 1_655 S
O24 Pr1 2.438 1_655 S
O24 C10 1.267 . S
O25 Pr0 2.437 . S
O25 C10 1.278 . S
O26 Pr1 2.562 . S
O26 C11 1.254 . S
O27 Pr1 2.490 . S
O27 C11 1.225 . S
O28 Pr0 2.436 . S
O28 Pr1 2.695 1_655 S
O28 C18 1.270 1_655 S
O29 Pr1 2.512 . S
O29 C18 1.248 . S
O30 Pr0 2.438 1_455 S
O30 C19 1.267 . S
O31 Pr1 2.437 . S
O31 C19 1.278 . S
H32 C4 0.929 . S
H33 C5 0.929 . S
H34 C7 0.931 . S
H35 C8 0.930 . S
H36 C13 0.929 . S
H37 C14 0.929 . S
H38 C16 0.931 . S
H39 C17 0.930 . S
Pr40 C42 2.880 . S
Pr40 O60 2.562 . S
Pr40 O61 2.490 . S
Pr40 O62 2.695 . S
Pr40 O63 2.512 . S
Pr40 O65 2.437 . S
Pr40 O68 2.436 . S
Pr40 O70 2.438 1_545 S
Pr41 C51 2.880 . S
Pr41 O62 2.436 1_565 S
Pr41 O64 2.438 1_565 S
Pr41 O66 2.562 . S
Pr41 O67 2.490 . S
Pr41 O68 2.695 1_565 S
Pr41 O69 2.513 1_565 S
Pr41 O71 2.437 . S
C42 Pr40 2.880 . S
C42 C43 1.491 . S
C42 O60 1.254 . S
C42 O61 1.225 . S
C43 C42 1.491 . S
C43 C44 1.392 . S
C43 C48 1.356 . S
C44 C43 1.392 . S
C44 C45 1.368 . S
C44 H72 0.929 . S
C45 C44 1.368 . S
C45 C46 1.386 . S
C45 H73 0.929 . S
C46 C45 1.386 . S
C46 C47 1.373 . S
C47 C46 1.373 . S
C47 C48 1.409 . S
C47 H74 0.931 . S
C48 C43 1.356 . S
C48 C47 1.409 . S
C48 H75 0.930 . S
C49 O62 1.270 . S
C49 O63 1.248 . S
C50 O64 1.267 . S
C50 O65 1.278 . S
C51 Pr41 2.880 . S
C51 C52 1.491 . S
C51 O66 1.254 . S
C51 O67 1.225 . S
C52 C51 1.491 . S
C52 C53 1.392 . S
C52 C57 1.356 . S
C53 C52 1.392 . S
C53 C54 1.368 . S
C53 H76 0.929 . S
C54 C53 1.368 . S
C54 C55 1.386 . S
C54 H77 0.929 . S
C55 C54 1.386 . S
C55 C56 1.373 . S
C56 C55 1.373 . S
C56 C57 1.409 . S
C56 H78 0.931 . S
C57 C52 1.356 . S
C57 C56 1.409 . S
C57 H79 0.930 . S
C58 O68 1.270 . S
C58 O69 1.256 . S
C59 O70 1.267 . S
C59 O71 1.278 . S
O60 Pr40 2.562 . S
O60 C42 1.254 . S
O61 Pr40 2.490 . S
O61 C42 1.225 . S
O62 Pr40 2.695 . S
O62 Pr41 2.436 1_545 S
O62 C49 1.270 . S
O63 Pr40 2.512 . S
O63 C49 1.248 . S
O64 Pr41 2.438 1_545 S
O64 C50 1.267 . S
O65 Pr40 2.437 . S
O65 C50 1.278 . S
O66 Pr41 2.562 . S
O66 C51 1.254 . S
O67 Pr41 2.490 . S
O67 C51 1.225 . S
O68 Pr40 2.436 . S
O68 Pr41 2.695 1_545 S
O68 C58 1.270 . S
O69 Pr41 2.513 1_545 S
O69 C58 1.256 . S
O70 Pr40 2.438 1_565 S
O70 C59 1.267 . S
O71 Pr41 2.437 . S
O71 C59 1.278 . S
H72 C44 0.929 . S
H73 C45 0.929 . S
H74 C47 0.931 . S
H75 C48 0.930 . S
H76 C53 0.929 . S
H77 C54 0.929 . S
H78 C56 0.931 . S
H79 C57 0.930 . S
Pr80 C82 2.880 . S
Pr80 O100 2.562 . S
Pr80 O101 2.490 . S
Pr80 O102 2.695 . S
Pr80 O103 2.512 . S
Pr80 O105 2.437 . S
Pr80 O108 2.436 . S
Pr80 O110 2.438 . S
Pr81 C91 2.880 . S
Pr81 O102 2.436 . S
Pr81 O104 2.438 . S
Pr81 O106 2.562 . S
Pr81 O107 2.490 . S
Pr81 O108 2.695 . S
Pr81 O109 2.512 . S
Pr81 O111 2.437 . S
C82 Pr80 2.880 . S
C82 C83 1.491 . S
C82 O100 1.254 . S
C82 O101 1.225 . S
C83 C82 1.491 . S
C83 C84 1.392 . S
C83 C88 1.356 . S
C84 C83 1.392 . S
C84 C85 1.368 . S
C84 H112 0.929 . S
C85 C84 1.368 . S
C85 C86 1.386 . S
C85 H113 0.929 . S
C86 C85 1.386 . S
C86 C87 1.373 . S
C87 C86 1.373 . S
C87 C88 1.409 . S
C87 H114 0.931 . S
C88 C83 1.356 . S
C88 C87 1.409 . S
C88 H115 0.930 . S
C89 O102 1.270 . S
C89 O103 1.248 . S
C90 O104 1.267 . S
C90 O105 1.278 . S
C91 Pr81 2.880 . S
C91 C92 1.491 . S
C91 O106 1.254 . S
C91 O107 1.225 . S
C92 C91 1.491 . S
C92 C93 1.392 . S
C92 C97 1.356 . S
C93 C92 1.392 . S
C93 C94 1.368 . S
C93 H116 0.929 . S
C94 C93 1.368 . S
C94 C95 1.386 . S
C94 H117 0.929 . S
C95 C94 1.386 . S
C95 C96 1.373 . S
C96 C95 1.373 . S
C96 C97 1.409 . S
C96 H118 0.931 . S
C97 C92 1.356 . S
C97 C96 1.409 . S
C97 H119 0.930 . S
C98 O108 1.270 . S
C98 O109 1.248 . S
C99 O110 1.267 . S
C99 O111 1.278 . S
O100 Pr80 2.562 . S
O100 C82 1.254 . S
O101 Pr80 2.490 . S
O101 C82 1.225 . S
O102 Pr80 2.695 . S
O102 Pr81 2.436 . S
O102 C89 1.270 . S
O103 Pr80 2.512 . S
O103 C89 1.248 . S
O104 Pr81 2.438 . S
O104 C90 1.267 . S
O105 Pr80 2.437 . S
O105 C90 1.278 . S
O106 Pr81 2.562 . S
O106 C91 1.254 . S
O107 Pr81 2.490 . S
O107 C91 1.225 . S
O108 Pr80 2.436 . S
O108 Pr81 2.695 . S
O108 C98 1.270 . S
O109 Pr81 2.512 . S
O109 C98 1.248 . S
O110 Pr80 2.438 . S
O110 C99 1.267 . S
O111 Pr81 2.437 . S
O111 C99 1.278 . S
H112 C84 0.929 . S
H113 C85 0.929 . S
H114 C87 0.931 . S
H115 C88 0.930 . S
H116 C93 0.929 . S
H117 C94 0.929 . S
H118 C96 0.931 . S
H119 C97 0.930 . S
O120 Cd121 2.300 . S
O120 C127 1.275 . S
Cd121 O120 2.300 . S
Cd121 O129 2.381 . S
Cd121 O130 2.378 . S
O122 Cd123 2.385 1_545 S
O122 C127 1.255 . S
Cd123 O122 2.385 1_565 S
Cd123 O124 2.317 . S
O124 Cd123 2.317 . S
O124 C125 1.232 . S
C125 O124 1.232 . S
C125 O126 1.218 . S
O126 C125 1.218 . S
C127 O120 1.275 . S
C127 O122 1.255 . S
C128 O129 1.258 . S
C128 O130 1.256 . S
O129 Cd121 2.381 . S
O129 C128 1.258 . S
O130 Cd121 2.378 . S
O130 C128 1.256 . S
O131 Cd132 2.300 . S
O131 C138 1.275 . S
Cd132 O131 2.300 . S
Cd132 O140 2.381 . S
Cd132 O141 2.378 . S
O133 Cd134 2.385 . S
O133 C138 1.255 . S
Cd134 O133 2.385 . S
Cd134 O135 2.317 . S
O135 Cd134 2.317 . S
O135 C136 1.232 . S
C136 O135 1.232 . S
C136 O137 1.218 . S
O137 C136 1.218 . S
C138 O131 1.275 . S
C138 O133 1.255 . S
C139 O140 1.258 . S
C139 O141 1.256 . S
O140 Cd132 2.381 . S
O140 C139 1.258 . S
O141 Cd132 2.378 . S
O141 C139 1.256 . S
O142 Cd143 2.300 . S
O142 C149 1.275 . S
Cd143 O142 2.300 . S
Cd143 O151 2.381 . S
Cd143 O152 2.378 . S
O144 Cd145 2.385 . S
O144 C149 1.255 1_655 S
Cd145 O144 2.385 . S
Cd145 O146 2.317 . S
O146 Cd145 2.317 . S
O146 C147 1.232 . S
C147 O146 1.232 . S
C147 O148 1.218 . S
O148 C147 1.218 . S
C149 O142 1.275 . S
C149 O144 1.255 1_455 S
C150 O151 1.258 . S
C150 O152 1.256 . S
O151 Cd143 2.381 . S
O151 C150 1.258 . S
O152 Cd143 2.378 . S
O152 C150 1.256 . S
O153 Cd154 2.300 . S
O153 C160 1.275 1_455 S
Cd154 O153 2.300 . S
Cd154 O162 2.381 . S
Cd154 O163 2.378 . S
O155 Cd156 2.385 . S
O155 C160 1.255 . S
Cd156 O155 2.385 . S
Cd156 O157 2.317 . S
O157 Cd156 2.317 . S
O157 C158 1.232 . S
C158 O157 1.232 . S
C158 O159 1.218 . S
O159 C158 1.218 . S
C160 O153 1.275 1_655 S
C160 O155 1.255 . S
C161 O162 1.258 . S
C161 O163 1.256 . S
O162 Cd154 2.381 . S
O162 C161 1.258 . S
O163 Cd154 2.378 . S
O163 C161 1.256 . S
O164 Cd165 2.300 . S
O164 C171 1.275 1_565 S
Cd165 O164 2.300 . S
Cd165 O173 2.381 . S
Cd165 O174 2.378 . S
O166 Cd167 2.385 . S
O166 C171 1.255 . S
Cd167 O166 2.385 . S
Cd167 O168 2.317 . S
O168 Cd167 2.317 . S
O168 C169 1.232 . S
C169 O168 1.232 . S
C169 O170 1.218 . S
O170 C169 1.218 . S
C171 O164 1.275 1_545 S
C171 O166 1.255 . S
C172 O173 1.258 . S
C172 O174 1.256 . S
O173 Cd165 2.381 . S
O173 C172 1.258 . S
O174 Cd165 2.378 . S
O174 C172 1.256 . S
O175 Cd176 2.300 . S
O175 C182 1.275 . S
Cd176 O175 2.300 . S
Cd176 O184 2.381 . S
Cd176 O185 2.378 . S
O177 Cd178 2.385 . S
O177 C182 1.255 . S
Cd178 O177 2.385 . S
Cd178 O179 2.317 . S
O179 Cd178 2.317 . S
O179 C180 1.232 . S
C180 O179 1.232 . S
C180 O181 1.218 . S
O181 C180 1.218 . S
C182 O175 1.275 . S
C182 O177 1.255 . S
C183 O184 1.258 . S
C183 O185 1.256 . S
O184 Cd176 2.381 . S
O184 C183 1.258 . S
O185 Cd176 2.378 . S
O185 C183 1.256 . S
C186 C187 1.391 . S
C186 C188 1.394 . S
C186 H202 0.931 . S
C187 C186 1.391 . S
C187 C191 1.376 . S
C188 C186 1.394 . S
C188 C189 1.369 . S
C188 C192 1.531 . S
C189 C188 1.369 . S
C189 C190 1.410 . S
C189 C197 1.503 . S
C190 C189 1.410 . S
C190 C191 1.392 . S
C190 C193 1.511 . S
C191 C187 1.376 . S
C191 C190 1.392 . S
C191 H203 0.929 . S
C192 C188 1.531 . S
C192 H204 0.960 . S
C192 H205 0.962 . S
C192 H206 0.960 . S
C193 C190 1.511 . S
C193 H207 0.961 . S
C193 H208 0.961 . S
C193 H209 0.961 . S
C194 C195 1.370 . S
C194 C196 1.363 . S
C194 H210 0.931 . S
C195 C194 1.370 . S
C195 C199 1.408 . S
C196 C194 1.363 . S
C196 C197 1.370 . S
C196 C200 1.524 . S
C197 C189 1.503 . S
C197 C196 1.370 . S
C197 C198 1.403 . S
C198 C197 1.403 . S
C198 C199 1.404 . S
C198 C201 1.539 . S
C199 C195 1.408 . S
C199 C198 1.404 . S
C199 H211 0.930 . S
C200 C196 1.524 . S
C200 H212 0.956 . S
C200 H213 0.961 . S
C200 H214 0.961 . S
C201 C198 1.539 . S
C201 H215 0.958 . S
C201 H216 0.961 . S
C201 H217 0.960 . S
H202 C186 0.931 . S
H203 C191 0.929 . S
H204 C192 0.960 . S
H205 C192 0.962 . S
H206 C192 0.960 . S
H207 C193 0.961 . S
H208 C193 0.961 . S
H209 C193 0.961 . S
H210 C194 0.931 . S
H211 C199 0.930 . S
H212 C200 0.956 . S
H213 C200 0.961 . S
H214 C200 0.961 . S
H215 C201 0.958 . S
H216 C201 0.961 . S
H217 C201 0.960 . S
C218 C219 1.391 . S
C218 C220 1.394 . S
C218 H234 0.931 . S
C219 C218 1.391 . S
C219 C223 1.376 . S
C220 C218 1.394 . S
C220 C221 1.369 . S
C220 C224 1.531 . S
C221 C220 1.369 . S
C221 C222 1.410 . S
C221 C229 1.503 . S
C222 C221 1.410 . S
C222 C223 1.392 . S
C222 C225 1.511 . S
C223 C219 1.376 . S
C223 C222 1.392 . S
C223 H235 0.929 . S
C224 C220 1.531 . S
C224 H236 0.960 . S
C224 H237 0.962 . S
C224 H238 0.960 . S
C225 C222 1.511 . S
C225 H239 0.961 . S
C225 H240 0.961 . S
C225 H241 0.961 . S
C226 C227 1.370 . S
C226 C228 1.363 . S
C226 H242 0.931 . S
C227 C226 1.370 . S
C227 C231 1.408 . S
C228 C226 1.363 . S
C228 C229 1.370 . S
C228 C232 1.524 . S
C229 C221 1.503 . S
C229 C228 1.370 . S
C229 C230 1.403 . S
C230 C229 1.403 . S
C230 C231 1.404 . S
C230 C233 1.539 . S
C231 C227 1.408 . S
C231 C230 1.404 . S
C231 H243 0.930 . S
C232 C228 1.524 . S
C232 H244 0.956 . S
C232 H245 0.961 . S
C232 H246 0.961 . S
C233 C230 1.539 . S
C233 H247 0.958 . S
C233 H248 0.961 . S
C233 H249 0.960 . S
H234 C218 0.931 . S
H235 C223 0.929 . S
H236 C224 0.960 . S
H237 C224 0.962 . S
H238 C224 0.960 . S
H239 C225 0.961 . S
H240 C225 0.961 . S
H241 C225 0.961 . S
H242 C226 0.931 . S
H243 C231 0.930 . S
H244 C232 0.956 . S
H245 C232 0.961 . S
H246 C232 0.961 . S
H247 C233 0.958 . S
H248 C233 0.961 . S
H249 C233 0.960 . S
C250 C251 1.391 . S
C250 C252 1.394 . S
C250 H266 0.931 . S
C251 C250 1.391 . S
C251 C255 1.376 . S
C252 C250 1.394 . S
C252 C253 1.369 . S
C252 C256 1.531 . S
C253 C252 1.369 . S
C253 C254 1.410 . S
C253 C261 1.503 . S
C254 C253 1.410 . S
C254 C255 1.392 . S
C254 C257 1.511 . S
C255 C251 1.376 . S
C255 C254 1.392 . S
C255 H267 0.929 . S
C256 C252 1.531 . S
C256 H268 0.960 . S
C256 H269 0.962 . S
C256 H270 0.960 . S
C257 C254 1.511 . S
C257 H271 0.961 . S
C257 H272 0.961 . S
C257 H273 0.961 . S
C258 C259 1.370 . S
C258 C260 1.363 . S
C258 H274 0.931 . S
C259 C258 1.370 . S
C259 C263 1.408 . S
C260 C258 1.363 . S
C260 C261 1.370 . S
C260 C264 1.524 . S
C261 C253 1.503 . S
C261 C260 1.370 . S
C261 C262 1.403 . S
C262 C261 1.403 . S
C262 C263 1.404 . S
C262 C265 1.539 . S
C263 C259 1.408 . S
C263 C262 1.404 . S
C263 H275 0.930 . S
C264 C260 1.524 . S
C264 H276 0.956 . S
C264 H277 0.961 . S
C264 H278 0.961 . S
C265 C262 1.539 . S
C265 H279 0.958 . S
C265 H280 0.961 . S
C265 H281 0.960 . S
H266 C250 0.931 . S
H267 C255 0.929 . S
H268 C256 0.960 . S
H269 C256 0.962 . S
H270 C256 0.960 . S
H271 C257 0.961 . S
H272 C257 0.961 . S
H273 C257 0.961 . S
H274 C258 0.931 . S
H275 C263 0.930 . S
H276 C264 0.956 . S
H277 C264 0.961 . S
H278 C264 0.961 . S
H279 C265 0.958 . S
H280 C265 0.961 . S
H281 C265 0.960 . S
C282 C283 1.391 . S
C282 C284 1.394 . S
C282 H298 0.931 . S
C283 C282 1.391 . S
C283 C287 1.376 . S
C284 C282 1.394 . S
C284 C285 1.369 . S
C284 C288 1.531 . S
C285 C284 1.369 . S
C285 C286 1.410 . S
C285 C293 1.503 . S
C286 C285 1.410 . S
C286 C287 1.392 . S
C286 C289 1.511 . S
C287 C283 1.376 . S
C287 C286 1.392 . S
C287 H299 0.929 . S
C288 C284 1.531 . S
C288 H300 0.960 . S
C288 H301 0.962 . S
C288 H302 0.960 . S
C289 C286 1.511 . S
C289 H303 0.961 . S
C289 H304 0.961 . S
C289 H305 0.961 . S
C290 C291 1.370 . S
C290 C292 1.363 . S
C290 H306 0.931 . S
C291 C290 1.370 . S
C291 C295 1.408 . S
C292 C290 1.363 . S
C292 C293 1.370 . S
C292 C296 1.524 . S
C293 C285 1.503 . S
C293 C292 1.370 . S
C293 C294 1.403 . S
C294 C293 1.403 . S
C294 C295 1.404 . S
C294 C297 1.539 . S
C295 C291 1.408 . S
C295 C294 1.404 . S
C295 H307 0.930 . S
C296 C292 1.524 . S
C296 H308 0.956 . S
C296 H309 0.961 . S
C296 H310 0.961 . S
C297 C294 1.539 . S
C297 H311 0.958 . S
C297 H312 0.961 . S
C297 H313 0.960 . S
H298 C282 0.931 . S
H299 C287 0.929 . S
H300 C288 0.960 . S
H301 C288 0.962 . S
H302 C288 0.960 . S
H303 C289 0.961 . S
H304 C289 0.961 . S
H305 C289 0.961 . S
H306 C290 0.931 . S
H307 C295 0.930 . S
H308 C296 0.956 . S
H309 C296 0.961 . S
H310 C296 0.961 . S
H311 C297 0.958 . S
H312 C297 0.961 . S
H313 C297 0.960 . S
C314 C315 1.391 . S
C314 C316 1.394 . S
C314 H330 0.931 . S
C315 C314 1.391 . S
C315 C319 1.376 . S
C316 C314 1.394 . S
C316 C317 1.369 . S
C316 C320 1.531 . S
C317 C316 1.369 . S
C317 C318 1.410 . S
C317 C325 1.503 . S
C318 C317 1.410 . S
C318 C319 1.392 . S
C318 C321 1.511 . S
C319 C315 1.376 . S
C319 C318 1.392 . S
C319 H331 0.929 . S
C320 C316 1.531 . S
C320 H332 0.960 . S
C320 H333 0.962 . S
C320 H334 0.960 . S
C321 C318 1.511 . S
C321 H335 0.961 . S
C321 H336 0.961 . S
C321 H337 0.961 . S
C322 C323 1.370 . S
C322 C324 1.363 . S
C322 H338 0.931 . S
C323 C322 1.370 . S
C323 C327 1.408 . S
C324 C322 1.363 . S
C324 C325 1.370 . S
C324 C328 1.524 . S
C325 C317 1.503 . S
C325 C324 1.370 . S
C325 C326 1.403 . S
C326 C325 1.403 . S
C326 C327 1.404 . S
C326 C329 1.539 . S
C327 C323 1.408 . S
C327 C326 1.404 . S
C327 H339 0.930 . S
C328 C324 1.524 . S
C328 H340 0.956 . S
C328 H341 0.961 . S
C328 H342 0.961 . S
C329 C326 1.539 . S
C329 H343 0.958 . S
C329 H344 0.961 . S
C329 H345 0.960 . S
H330 C314 0.931 . S
H331 C319 0.929 . S
H332 C320 0.960 . S
H333 C320 0.962 . S
H334 C320 0.960 . S
H335 C321 0.961 . S
H336 C321 0.961 . S
H337 C321 0.961 . S
H338 C322 0.931 . S
H339 C327 0.930 . S
H340 C328 0.956 . S
H341 C328 0.961 . S
H342 C328 0.961 . S
H343 C329 0.958 . S
H344 C329 0.961 . S
H345 C329 0.960 . S
C346 C347 1.391 . S
C346 C348 1.394 . S
C346 H362 0.931 . S
C347 C346 1.391 . S
C347 C351 1.376 . S
C348 C346 1.394 . S
C348 C349 1.369 . S
C348 C352 1.531 . S
C349 C348 1.369 . S
C349 C350 1.410 . S
C349 C357 1.503 . S
C350 C349 1.410 . S
C350 C351 1.392 . S
C350 C353 1.511 . S
C351 C347 1.376 . S
C351 C350 1.392 . S
C351 H363 0.929 . S
C352 C348 1.531 . S
C352 H364 0.960 . S
C352 H365 0.962 . S
C352 H366 0.960 . S
C353 C350 1.511 . S
C353 H367 0.961 . S
C353 H368 0.961 . S
C353 H369 0.961 . S
C354 C355 1.370 . S
C354 C356 1.363 . S
C354 H370 0.931 . S
C355 C354 1.370 . S
C355 C359 1.408 . S
C356 C354 1.363 . S
C356 C357 1.370 . S
C356 C360 1.524 . S
C357 C349 1.503 . S
C357 C356 1.370 . S
C357 C358 1.403 . S
C358 C357 1.403 . S
C358 C359 1.404 . S
C358 C361 1.539 . S
C359 C355 1.408 . S
C359 C358 1.404 . S
C359 H371 0.930 . S
C360 C356 1.524 . S
C360 H372 0.956 . S
C360 H373 0.961 . S
C360 H374 0.961 . S
C361 C358 1.539 . S
C361 H375 0.958 . S
C361 H376 0.961 . S
C361 H377 0.960 . S
H362 C346 0.931 . S
H363 C351 0.929 . S
H364 C352 0.960 . S
H365 C352 0.962 . S
H366 C352 0.960 . S
H367 C353 0.961 . S
H368 C353 0.961 . S
H369 C353 0.961 . S
H370 C354 0.931 . S
H371 C359 0.930 . S
H372 C360 0.956 . S
H373 C360 0.961 . S
H374 C360 0.961 . S
H375 C361 0.958 . S
H376 C361 0.961 . S
H377 C361 0.960 . S
C378 C379 1.391 . S
C378 C380 1.394 . S
C378 H394 0.931 . S
C379 C378 1.391 . S
C379 C383 1.376 . S
C380 C378 1.394 . S
C380 C381 1.369 . S
C380 C384 1.531 . S
C381 C380 1.369 . S
C381 C382 1.410 . S
C381 C389 1.503 . S
C382 C381 1.410 . S
C382 C383 1.392 . S
C382 C385 1.511 . S
C383 C379 1.376 . S
C383 C382 1.392 . S
C383 H395 0.929 . S
C384 C380 1.531 . S
C384 H396 0.960 . S
C384 H397 0.962 . S
C384 H398 0.960 . S
C385 C382 1.511 . S
C385 H399 0.961 . S
C385 H400 0.961 . S
C385 H401 0.961 . S
C386 C387 1.370 . S
C386 C388 1.363 . S
C386 H402 0.931 . S
C387 C386 1.370 . S
C387 C391 1.408 . S
C388 C386 1.363 . S
C388 C389 1.370 . S
C388 C392 1.524 . S
C389 C381 1.503 . S
C389 C388 1.370 . S
C389 C390 1.403 . S
C390 C389 1.403 . S
C390 C391 1.404 . S
C390 C393 1.539 . S
C391 C387 1.408 . S
C391 C390 1.404 . S
C391 H403 0.930 . S
C392 C388 1.524 . S
C392 H404 0.956 . S
C392 H405 0.961 . S
C392 H406 0.961 . S
C393 C390 1.539 . S
C393 H407 0.958 . S
C393 H408 0.961 . S
C393 H409 0.960 . S
H394 C378 0.931 . S
H395 C383 0.929 . S
H396 C384 0.960 . S
H397 C384 0.962 . S
H398 C384 0.960 . S
H399 C385 0.961 . S
H400 C385 0.961 . S
H401 C385 0.961 . S
H402 C386 0.931 . S
H403 C391 0.930 . S
H404 C392 0.956 . S
H405 C392 0.961 . S
H406 C392 0.961 . S
H407 C393 0.958 . S
H408 C393 0.961 . S
H409 C393 0.960 . S
C410 C411 1.391 . S
C410 C412 1.394 . S
C410 H426 0.931 . S
C411 C410 1.391 . S
C411 C415 1.376 . S
C412 C410 1.394 . S
C412 C413 1.369 . S
C412 C416 1.531 . S
C413 C412 1.369 . S
C413 C414 1.410 . S
C413 C421 1.503 . S
C414 C413 1.410 . S
C414 C415 1.392 . S
C414 C417 1.511 . S
C415 C411 1.376 . S
C415 C414 1.392 . S
C415 H427 0.929 . S
C416 C412 1.531 . S
C416 H428 0.960 . S
C416 H429 0.962 . S
C416 H430 0.960 . S
C417 C414 1.511 . S
C417 H431 0.961 . S
C417 H432 0.961 . S
C417 H433 0.961 . S
C418 C419 1.370 . S
C418 C420 1.363 . S
C418 H434 0.931 . S
C419 C418 1.370 . S
C419 C423 1.408 . S
C420 C418 1.363 . S
C420 C421 1.370 . S
C420 C424 1.524 . S
C421 C413 1.503 . S
C421 C420 1.370 . S
C421 C422 1.403 . S
C422 C421 1.403 . S
C422 C423 1.404 . S
C422 C425 1.539 . S
C423 C419 1.408 . S
C423 C422 1.404 . S
C423 H435 0.930 . S
C424 C420 1.524 . S
C424 H436 0.956 . S
C424 H437 0.961 . S
C424 H438 0.961 . S
C425 C422 1.539 . S
C425 H439 0.958 . S
C425 H440 0.961 . S
C425 H441 0.960 . S
H426 C410 0.931 . S
H427 C415 0.929 . S
H428 C416 0.960 . S
H429 C416 0.962 . S
H430 C416 0.960 . S
H431 C417 0.961 . S
H432 C417 0.961 . S
H433 C417 0.961 . S
H434 C418 0.931 . S
H435 C423 0.930 . S
H436 C424 0.956 . S
H437 C424 0.961 . S
H438 C424 0.961 . S
H439 C425 0.958 . S
H440 C425 0.961 . S
H441 C425 0.960 . S
C442 C443 1.391 . S
C442 C444 1.394 . S
C442 H458 0.931 . S
C443 C442 1.391 . S
C443 C447 1.376 . S
C444 C442 1.394 . S
C444 C445 1.369 . S
C444 C448 1.531 . S
C445 C444 1.369 . S
C445 C446 1.410 . S
C445 C453 1.503 . S
C446 C445 1.410 . S
C446 C447 1.392 . S
C446 C449 1.511 . S
C447 C443 1.376 . S
C447 C446 1.392 . S
C447 H459 0.929 . S
C448 C444 1.531 . S
C448 H460 0.960 . S
C448 H461 0.962 . S
C448 H462 0.960 . S
C449 C446 1.511 . S
C449 H463 0.961 . S
C449 H464 0.961 . S
C449 H465 0.961 . S
C450 C451 1.370 . S
C450 C452 1.363 . S
C450 H466 0.931 . S
C451 C450 1.370 . S
C451 C455 1.408 . S
C452 C450 1.363 . S
C452 C453 1.370 . S
C452 C456 1.524 . S
C453 C445 1.503 . S
C453 C452 1.370 . S
C453 C454 1.403 . S
C454 C453 1.403 . S
C454 C455 1.404 . S
C454 C457 1.539 . S
C455 C451 1.408 . S
C455 C454 1.404 . S
C455 H467 0.930 . S
C456 C452 1.524 . S
C456 H468 0.956 . S
C456 H469 0.961 . S
C456 H470 0.961 . S
C457 C454 1.539 . S
C457 H471 0.958 . S
C457 H472 0.961 . S
C457 H473 0.960 . S
H458 C442 0.931 . S
H459 C447 0.929 . S
H460 C448 0.960 . S
H461 C448 0.962 . S
H462 C448 0.960 . S
H463 C449 0.961 . S
H464 C449 0.961 . S
H465 C449 0.961 . S
H466 C450 0.931 . S
H467 C455 0.930 . S
H468 C456 0.956 . S
H469 C456 0.961 . S
H470 C456 0.961 . S
H471 C457 0.958 . S
H472 C457 0.961 . S
H473 C457 0.960 . S
C474 C475 1.391 . S
C474 C476 1.394 . S
C474 H490 0.931 . S
C475 C474 1.391 . S
C475 C479 1.376 . S
C476 C474 1.394 . S
C476 C477 1.369 . S
C476 C480 1.531 . S
C477 C476 1.369 . S
C477 C478 1.410 . S
C477 C485 1.503 . S
C478 C477 1.410 . S
C478 C479 1.392 . S
C478 C481 1.511 . S
C479 C475 1.376 . S
C479 C478 1.392 . S
C479 H491 0.929 . S
C480 C476 1.531 . S
C480 H492 0.960 . S
C480 H493 0.962 . S
C480 H494 0.960 . S
C481 C478 1.511 . S
C481 H495 0.961 . S
C481 H496 0.961 . S
C481 H497 0.961 . S
C482 C483 1.370 . S
C482 C484 1.363 . S
C482 H498 0.931 . S
C483 C482 1.370 . S
C483 C487 1.408 . S
C484 C482 1.363 . S
C484 C485 1.370 . S
C484 C488 1.524 . S
C485 C477 1.503 . S
C485 C484 1.370 . S
C485 C486 1.403 . S
C486 C485 1.403 . S
C486 C487 1.404 . S
C486 C489 1.539 . S
C487 C483 1.408 . S
C487 C486 1.404 . S
C487 H499 0.930 . S
C488 C484 1.524 . S
C488 H500 0.956 . S
C488 H501 0.961 . S
C488 H502 0.961 . S
C489 C486 1.539 . S
C489 H503 0.958 . S
C489 H504 0.961 . S
C489 H505 0.960 . S
H490 C474 0.931 . S
H491 C479 0.929 . S
H492 C480 0.960 . S
H493 C480 0.962 . S
H494 C480 0.960 . S
H495 C481 0.961 . S
H496 C481 0.961 . S
H497 C481 0.961 . S
H498 C482 0.931 . S
H499 C487 0.930 . S
H500 C488 0.956 . S
H501 C488 0.961 . S
H502 C488 0.961 . S
H503 C489 0.958 . S
H504 C489 0.961 . S
H505 C489 0.960 . S
C506 C507 1.391 . S
C506 C508 1.394 . S
C506 H522 0.931 . S
C507 C506 1.391 . S
C507 C511 1.376 . S
C508 C506 1.394 . S
C508 C509 1.369 . S
C508 C512 1.531 . S
C509 C508 1.369 . S
C509 C510 1.410 . S
C509 C517 1.503 . S
C510 C509 1.410 . S
C510 C511 1.392 . S
C510 C513 1.511 . S
C511 C507 1.376 . S
C511 C510 1.392 . S
C511 H523 0.929 . S
C512 C508 1.531 . S
C512 H524 0.960 . S
C512 H525 0.962 . S
C512 H526 0.960 . S
C513 C510 1.511 . S
C513 H527 0.961 . S
C513 H528 0.961 . S
C513 H529 0.961 . S
C514 C515 1.370 . S
C514 C516 1.363 . S
C514 H530 0.931 . S
C515 C514 1.370 . S
C515 C519 1.408 . S
C516 C514 1.363 . S
C516 C517 1.370 . S
C516 C520 1.524 . S
C517 C509 1.503 . S
C517 C516 1.370 . S
C517 C518 1.403 . S
C518 C517 1.403 . S
C518 C519 1.404 . S
C518 C521 1.539 . S
C519 C515 1.408 . S
C519 C518 1.404 . S
C519 H531 0.930 . S
C520 C516 1.524 . S
C520 H532 0.956 . S
C520 H533 0.961 . S
C520 H534 0.961 . S
C521 C518 1.539 . S
C521 H535 0.958 . S
C521 H536 0.961 . S
C521 H537 0.960 . S
H522 C506 0.931 . S
H523 C511 0.929 . S
H524 C512 0.960 . S
H525 C512 0.962 . S
H526 C512 0.960 . S
H527 C513 0.961 . S
H528 C513 0.961 . S
H529 C513 0.961 . S
H530 C514 0.931 . S
H531 C519 0.930 . S
H532 C520 0.956 . S
H533 C520 0.961 . S
H534 C520 0.961 . S
H535 C521 0.958 . S
H536 C521 0.961 . S
H537 C521 0.960 . S
C538 C539 1.391 . S
C538 C540 1.394 . S
C538 H554 0.931 . S
C539 C538 1.391 . S
C539 C543 1.376 . S
C540 C538 1.394 . S
C540 C541 1.369 . S
C540 C544 1.531 . S
C541 C540 1.369 . S
C541 C542 1.410 . S
C541 C549 1.503 . S
C542 C541 1.410 . S
C542 C543 1.392 . S
C542 C545 1.511 . S
C543 C539 1.376 . S
C543 C542 1.392 . S
C543 H555 0.929 . S
C544 C540 1.531 . S
C544 H556 0.960 . S
C544 H557 0.962 . S
C544 H558 0.960 . S
C545 C542 1.511 . S
C545 H559 0.961 . S
C545 H560 0.961 . S
C545 H561 0.961 . S
C546 C547 1.370 . S
C546 C548 1.363 . S
C546 H562 0.931 . S
C547 C546 1.370 . S
C547 C551 1.408 . S
C548 C546 1.363 . S
C548 C549 1.370 . S
C548 C552 1.524 . S
C549 C541 1.503 . S
C549 C548 1.370 . S
C549 C550 1.403 . S
C550 C549 1.403 . S
C550 C551 1.404 . S
C550 C553 1.539 . S
C551 C547 1.408 . S
C551 C550 1.404 . S
C551 H563 0.930 . S
C552 C548 1.524 . S
C552 H564 0.956 . S
C552 H565 0.961 . S
C552 H566 0.961 . S
C553 C550 1.539 . S
C553 H567 0.958 . S
C553 H568 0.961 . S
C553 H569 0.960 . S
H554 C538 0.931 . S
H555 C543 0.929 . S
H556 C544 0.960 . S
H557 C544 0.962 . S
H558 C544 0.960 . S
H559 C545 0.961 . S
H560 C545 0.961 . S
H561 C545 0.961 . S
H562 C546 0.931 . S
H563 C551 0.930 . S
H564 C552 0.956 . S
H565 C552 0.961 . S
H566 C552 0.961 . S
H567 C553 0.958 . S
H568 C553 0.961 . S
H569 C553 0.960 . S
C570 C571 1.391 . S
C570 C572 1.394 . S
C570 H586 0.931 . S
C571 C570 1.391 . S
C571 C575 1.376 1_455 S
C572 C570 1.394 . S
C572 C573 1.352 1_455 S
C572 C576 1.531 . S
C573 C572 1.352 1_655 S
C573 C574 1.426 . S
C573 C581 1.481 1_654 S
C574 C573 1.426 . S
C574 C575 1.392 . S
C574 C577 1.511 . S
C575 C571 1.376 1_655 S
C575 C574 1.392 . S
C575 H587 0.929 . S
C576 C572 1.531 . S
C576 H588 0.960 . S
C576 H589 0.962 . S
C576 H590 0.960 . S
C577 C574 1.511 . S
C577 H591 0.961 . S
C577 H592 0.961 . S
C577 H593 0.961 . S
C578 C579 1.370 . S
C578 C580 1.363 . S
C578 H594 0.931 . S
C579 C578 1.370 . S
C579 C583 1.408 1_455 S
C580 C578 1.363 . S
C580 C581 1.383 . S
C580 C584 1.524 1_556 S
C581 C573 1.481 1_456 S
C581 C580 1.383 . S
C581 C582 1.412 1_455 S
C582 C581 1.412 1_655 S
C582 C583 1.404 . S
C582 C585 1.539 . S
C583 C579 1.408 1_655 S
C583 C582 1.404 . S
C583 H595 0.930 . S
C584 C580 1.524 1_554 S
C584 H596 0.956 . S
C584 H597 0.961 . S
C584 H598 0.961 1_554 S
C585 C582 1.539 . S
C585 H599 0.958 . S
C585 H600 0.961 . S
C585 H601 0.960 1_556 S
H586 C570 0.931 . S
H587 C575 0.929 . S
H588 C576 0.960 . S
H589 C576 0.962 . S
H590 C576 0.960 . S
H591 C577 0.961 . S
H592 C577 0.961 . S
H593 C577 0.961 . S
H594 C578 0.931 . S
H595 C583 0.930 . S
H596 C584 0.956 . S
H597 C584 0.961 . S
H598 C584 0.961 1_556 S
H599 C585 0.958 . S
H600 C585 0.961 . S
H601 C585 0.960 1_554 S
C602 C603 1.391 1_565 S
C602 C604 1.394 . S
C602 H618 0.931 . S
C603 C602 1.391 1_545 S
C603 C607 1.376 . S
C604 C602 1.394 . S
C604 C605 1.369 1_565 S
C604 C608 1.531 . S
C605 C604 1.369 1_545 S
C605 C606 1.410 . S
C605 C613 1.503 . S
C606 C605 1.410 . S
C606 C607 1.392 . S
C606 C609 1.511 . S
C607 C603 1.376 . S
C607 C606 1.392 . S
C607 H619 0.929 . S
C608 C604 1.531 . S
C608 H620 0.960 . S
C608 H621 0.962 . S
C608 H622 0.960 . S
C609 C606 1.511 . S
C609 H623 0.961 . S
C609 H624 0.961 . S
C609 H625 0.961 . S
C610 C611 1.370 . S
C610 C612 1.363 . S
C610 H626 0.931 . S
C611 C610 1.370 . S
C611 C615 1.408 1_545 S
C612 C610 1.363 . S
C612 C613 1.370 . S
C612 C616 1.524 . S
C613 C605 1.503 . S
C613 C612 1.370 . S
C613 C614 1.403 1_545 S
C614 C613 1.403 1_565 S
C614 C615 1.404 . S
C614 C617 1.539 . S
C615 C611 1.408 1_565 S
C615 C614 1.404 . S
C615 H627 0.930 . S
C616 C612 1.524 . S
C616 H628 0.956 . S
C616 H629 0.961 . S
C616 H630 0.961 . S
C617 C614 1.539 . S
C617 H631 0.958 . S
C617 H632 0.961 . S
C617 H633 0.960 . S
H618 C602 0.931 . S
H619 C607 0.929 . S
H620 C608 0.960 . S
H621 C608 0.962 . S
H622 C608 0.960 . S
H623 C609 0.961 . S
H624 C609 0.961 . S
H625 C609 0.961 . S
H626 C610 0.931 . S
H627 C615 0.930 . S
H628 C616 0.956 . S
H629 C616 0.961 . S
H630 C616 0.961 . S
H631 C617 0.958 . S
H632 C617 0.961 . S
H633 C617 0.960 . S
C634 C635 1.391 . S
C634 C636 1.394 . S
C634 H650 0.931 . S
C635 C634 1.391 . S
C635 C639 1.376 . S
C636 C634 1.394 . S
C636 C637 1.369 . S
C636 C640 1.531 . S
C637 C636 1.369 . S
C637 C638 1.410 . S
C637 C645 1.503 . S
C638 C637 1.410 . S
C638 C639 1.392 . S
C638 C641 1.511 . S
C639 C635 1.376 . S
C639 C638 1.392 . S
C639 H651 0.929 . S
C640 C636 1.531 . S
C640 H652 0.960 . S
C640 H653 0.962 . S
C640 H654 0.960 . S
C641 C638 1.511 . S
C641 H655 0.961 . S
C641 H656 0.961 . S
C641 H657 0.961 . S
C642 C643 1.370 . S
C642 C644 1.363 . S
C642 H658 0.931 . S
C643 C642 1.370 . S
C643 C647 1.408 . S
C644 C642 1.363 . S
C644 C645 1.370 . S
C644 C648 1.524 . S
C645 C637 1.503 . S
C645 C644 1.370 . S
C645 C646 1.403 . S
C646 C645 1.403 . S
C646 C647 1.404 . S
C646 C649 1.539 . S
C647 C643 1.408 . S
C647 C646 1.404 . S
C647 H659 0.930 . S
C648 C644 1.524 . S
C648 H660 0.956 . S
C648 H661 0.961 . S
C648 H662 0.961 . S
C649 C646 1.539 . S
C649 H663 0.958 . S
C649 H664 0.961 . S
C649 H665 0.960 . S
H650 C634 0.931 . S
H651 C639 0.929 . S
H652 C640 0.960 . S
H653 C640 0.962 . S
H654 C640 0.960 . S
H655 C641 0.961 . S
H656 C641 0.961 . S
H657 C641 0.961 . S
H658 C642 0.931 . S
H659 C647 0.930 . S
H660 C648 0.956 . S
H661 C648 0.961 . S
H662 C648 0.961 . S
H663 C649 0.958 . S
H664 C649 0.961 . S
H665 C649 0.960 . S
C666 C667 1.391 . S
C666 C668 1.394 . S
C666 H682 0.931 . S
C667 C666 1.391 . S
C667 C671 1.376 . S
C668 C666 1.394 . S
C668 C669 1.369 . S
C668 C672 1.531 . S
C669 C668 1.369 . S
C669 C670 1.410 . S
C669 C677 1.503 . S
C670 C669 1.410 . S
C670 C671 1.392 . S
C670 C673 1.511 1_545 S
C671 C667 1.376 . S
C671 C670 1.392 . S
C671 H683 0.929 1_545 S
C672 C668 1.531 . S
C672 H684 0.960 . S
C672 H685 0.962 . S
C672 H686 0.960 . S
C673 C670 1.511 1_565 S
C673 H687 0.961 . S
C673 H688 0.961 . S
C673 H689 0.961 1_565 S
C674 C675 1.370 1_565 S
C674 C676 1.363 . S
C674 H690 0.931 . S
C675 C674 1.370 1_545 S
C675 C679 1.408 . S
C676 C674 1.363 . S
C676 C677 1.370 1_565 S
C676 C680 1.524 . S
C677 C669 1.503 . S
C677 C676 1.370 1_545 S
C677 C678 1.403 . S
C678 C677 1.403 . S
C678 C679 1.404 . S
C678 C681 1.539 . S
C679 C675 1.408 . S
C679 C678 1.404 . S
C679 H691 0.930 . S
C680 C676 1.524 . S
C680 H692 0.956 . S
C680 H693 0.961 . S
C680 H694 0.961 . S
C681 C678 1.539 . S
C681 H695 0.958 . S
C681 H696 0.961 . S
C681 H697 0.960 . S
H682 C666 0.931 . S
H683 C671 0.929 1_565 S
H684 C672 0.960 . S
H685 C672 0.962 . S
H686 C672 0.960 . S
H687 C673 0.961 . S
H688 C673 0.961 . S
H689 C673 0.961 1_545 S
H690 C674 0.931 . S
H691 C679 0.930 . S
H692 C680 0.956 . S
H693 C680 0.961 . S
H694 C680 0.961 . S
H695 C681 0.958 . S
H696 C681 0.961 . S
H697 C681 0.960 . S
C698 C699 1.391 . S
C698 C700 1.394 . S
C698 H714 0.931 . S
C699 C698 1.391 . S
C699 C703 1.376 . S
C700 C698 1.394 . S
C700 C701 1.369 . S
C700 C704 1.531 . S
C701 C700 1.369 . S
C701 C702 1.410 . S
C701 C709 1.503 1_556 S
C702 C701 1.410 . S
C702 C703 1.392 . S
C702 C705 1.511 . S
C703 C699 1.376 . S
C703 C702 1.392 . S
C703 H715 0.929 . S
C704 C700 1.531 . S
C704 H716 0.960 . S
C704 H717 0.962 . S
C704 H718 0.960 . S
C705 C702 1.511 . S
C705 H719 0.961 . S
C705 H720 0.961 . S
C705 H721 0.961 . S
C706 C707 1.370 . S
C706 C708 1.363 . S
C706 H722 0.931 . S
C707 C706 1.370 . S
C707 C711 1.408 . S
C708 C706 1.363 . S
C708 C709 1.370 . S
C708 C712 1.524 1_554 S
C709 C701 1.503 1_554 S
C709 C708 1.370 . S
C709 C710 1.403 . S
C710 C709 1.403 . S
C710 C711 1.404 . S
C710 C713 1.539 . S
C711 C707 1.408 . S
C711 C710 1.404 . S
C711 H723 0.930 . S
C712 C708 1.524 1_556 S
C712 H724 0.956 . S
C712 H725 0.961 . S
C712 H726 0.961 1_556 S
C713 C710 1.539 . S
C713 H727 0.958 . S
C713 H728 0.961 . S
C713 H729 0.960 1_554 S
H714 C698 0.931 . S
H715 C703 0.929 . S
H716 C704 0.960 . S
H717 C704 0.962 . S
H718 C704 0.960 . S
H719 C705 0.961 . S
H720 C705 0.961 . S
H721 C705 0.961 . S
H722 C706 0.931 . S
H723 C711 0.930 . S
H724 C712 0.956 . S
H725 C712 0.961 . S
H726 C712 0.961 1_554 S
H727 C713 0.958 . S
H728 C713 0.961 . S
H729 C713 0.960 1_556 S
C730 C731 1.391 1_655 S
C730 C732 1.394 . S
C730 H746 0.931 . S
C731 C730 1.391 1_455 S
C731 C735 1.376 . S
C732 C730 1.394 . S
C732 C733 1.369 . S
C732 C736 1.531 . S
C733 C732 1.369 . S
C733 C734 1.410 1_655 S
C733 C741 1.503 . S
C734 C733 1.410 1_455 S
C734 C735 1.392 . S
C734 C737 1.511 . S
C735 C731 1.376 . S
C735 C734 1.392 . S
C735 H747 0.929 . S
C736 C732 1.531 . S
C736 H748 0.960 . S
C736 H749 0.962 . S
C736 H750 0.960 . S
C737 C734 1.511 . S
C737 H751 0.961 . S
C737 H752 0.961 . S
C737 H753 0.961 . S
C738 C739 1.370 1_455 S
C738 C740 1.363 . S
C738 H754 0.931 . S
C739 C738 1.370 1_655 S
C739 C743 1.408 . S
C740 C738 1.363 . S
C740 C741 1.370 1_455 S
C740 C744 1.524 . S
C741 C733 1.503 . S
C741 C740 1.370 1_655 S
C741 C742 1.403 . S
C742 C741 1.403 . S
C742 C743 1.404 . S
C742 C745 1.539 . S
C743 C739 1.408 . S
C743 C742 1.404 . S
C743 H755 0.930 . S
C744 C740 1.524 . S
C744 H756 0.956 . S
C744 H757 0.961 . S
C744 H758 0.961 . S
C745 C742 1.539 . S
C745 H759 0.958 . S
C745 H760 0.961 . S
C745 H761 0.960 . S
H746 C730 0.931 . S
H747 C735 0.929 . S
H748 C736 0.960 . S
H749 C736 0.962 . S
H750 C736 0.960 . S
H751 C737 0.961 . S
H752 C737 0.961 . S
H753 C737 0.961 . S
H754 C738 0.931 . S
H755 C743 0.930 . S
H756 C744 0.956 . S
H757 C744 0.961 . S
H758 C744 0.961 . S
H759 C745 0.958 . S
H760 C745 0.961 . S
H761 C745 0.960 . S
C187 C19 2.042 . S
C195 C180 1.742 . S
C219 C46 1.369 . S
C227 C158 1.225 . S
C251 C95 0.320 . S
C259 C172 0.193 . S
C283 C10 1.859 . S
C291 C183 1.813 . S
C323 C161 1.055 . S
C315 C55 1.083 . S
C355 C169 0.687 . S
C347 C86 0.693 . S
C379 C59 3.268 . S
C387 C136 2.914 . S
C411 C90 2.107 . S
C419 C147 1.814 . S
C443 C15 1.392 . S
C451 C125 1.186 . S
C483 C139 2.822 . S
C475 C50 2.878 . S
C515 C150 1.757 . S
C507 C99 1.771 . S
C539 C6 1.024 . S
C547 C128 1.012 . S
C579 C149 1.398 . S
C571 C9 1.382 . S
C603 C58 1.433 . S
C611 C127 1.480 . S
C635 C98 1.678 . S
C643 C138 1.637 . S
C675 C171 1.207 . S
C667 C49 1.218 . S
C707 C182 1.386 . S
C699 C89 1.390 . S
C731 C18 1.514 . S
C739 C160 1.472 . S
