# Generated by pormake.
# Topology gar, (4,6)-cn, num edge types: 1
# Building blocks:
#     Node 0, Type 0, BuildingBlock: TATPOV_clean_sbu_0, # of connection points: 4
#     Node 1, Type 0, BuildingBlock: TATPOV_clean_sbu_0, # of connection points: 4
#     Node 2, Type 0, BuildingBlock: TATPOV_clean_sbu_0, # of connection points: 4
#     Node 3, Type 0, BuildingBlock: TATPOV_clean_sbu_0, # of connection points: 4
#     Node 4, Type 0, BuildingBlock: TATPOV_clean_sbu_0, # of connection points: 4
#     Node 5, Type 0, BuildingBlock: TATPOV_clean_sbu_0, # of connection points: 4
#     Node 6, Type 0, BuildingBlock: TATPOV_clean_sbu_0, # of connection points: 4
#     Node 7, Type 0, BuildingBlock: TATPOV_clean_sbu_0, # of connection points: 4
#     Node 8, Type 0, BuildingBlock: TATPOV_clean_sbu_0, # of connection points: 4
#     Node 9, Type 0, BuildingBlock: TATPOV_clean_sbu_0, # of connection points: 4
#     Node 10, Type 0, BuildingBlock: TATPOV_clean_sbu_0, # of connection points: 4
#     Node 11, Type 0, BuildingBlock: TATPOV_clean_sbu_0, # of connection points: 4
#     Node 12, Type 0, BuildingBlock: TATPOV_clean_sbu_0, # of connection points: 4
#     Node 13, Type 0, BuildingBlock: TATPOV_clean_sbu_0, # of connection points: 4
#     Node 14, Type 0, BuildingBlock: TATPOV_clean_sbu_0, # of connection points: 4
#     Node 15, Type 0, BuildingBlock: TATPOV_clean_sbu_0, # of connection points: 4
#     Node 16, Type 0, BuildingBlock: TATPOV_clean_sbu_0, # of connection points: 4
#     Node 17, Type 0, BuildingBlock: TATPOV_clean_sbu_0, # of connection points: 4
#     Node 18, Type 0, BuildingBlock: TATPOV_clean_sbu_0, # of connection points: 4
#     Node 19, Type 0, BuildingBlock: TATPOV_clean_sbu_0, # of connection points: 4
#     Node 20, Type 0, BuildingBlock: TATPOV_clean_sbu_0, # of connection points: 4
#     Node 21, Type 0, BuildingBlock: TATPOV_clean_sbu_0, # of connection points: 4
#     Node 22, Type 0, BuildingBlock: TATPOV_clean_sbu_0, # of connection points: 4
#     Node 23, Type 0, BuildingBlock: TATPOV_clean_sbu_0, # of connection points: 4
#     Node 24, Type 1, BuildingBlock: CUKXOW_clean_sbu_0, # of connection points: 6
#     Node 25, Type 1, BuildingBlock: CUKXOW_clean_sbu_0, # of connection points: 6
#     Node 26, Type 1, BuildingBlock: CUKXOW_clean_sbu_0, # of connection points: 6
#     Node 27, Type 1, BuildingBlock: CUKXOW_clean_sbu_0, # of connection points: 6
#     Node 28, Type 1, BuildingBlock: CUKXOW_clean_sbu_0, # of connection points: 6
#     Node 29, Type 1, BuildingBlock: CUKXOW_clean_sbu_0, # of connection points: 6
#     Node 30, Type 1, BuildingBlock: CUKXOW_clean_sbu_0, # of connection points: 6
#     Node 31, Type 1, BuildingBlock: CUKXOW_clean_sbu_0, # of connection points: 6
#     Node 32, Type 1, BuildingBlock: CUKXOW_clean_sbu_0, # of connection points: 6
#     Node 33, Type 1, BuildingBlock: CUKXOW_clean_sbu_0, # of connection points: 6
#     Node 34, Type 1, BuildingBlock: CUKXOW_clean_sbu_0, # of connection points: 6
#     Node 35, Type 1, BuildingBlock: CUKXOW_clean_sbu_0, # of connection points: 6
#     Node 36, Type 1, BuildingBlock: CUKXOW_clean_sbu_0, # of connection points: 6
#     Node 37, Type 1, BuildingBlock: CUKXOW_clean_sbu_0, # of connection points: 6
#     Node 38, Type 1, BuildingBlock: CUKXOW_clean_sbu_0, # of connection points: 6
#     Node 39, Type 1, BuildingBlock: CUKXOW_clean_sbu_0, # of connection points: 6
#     Edge 40, Type (0, 1), BuildingBlock: UVAHIK_clean_linker_0, # of connection points: 2
#     Edge 41, Type (0, 1), BuildingBlock: UVAHIK_clean_linker_0, # of connection points: 2
#     Edge 42, Type (0, 1), BuildingBlock: UVAHIK_clean_linker_0, # of connection points: 2
#     Edge 43, Type (0, 1), BuildingBlock: UVAHIK_clean_linker_0, # of connection points: 2
#     Edge 44, Type (0, 1), BuildingBlock: UVAHIK_clean_linker_0, # of connection points: 2
#     Edge 45, Type (0, 1), BuildingBlock: UVAHIK_clean_linker_0, # of connection points: 2
#     Edge 46, Type (0, 1), BuildingBlock: UVAHIK_clean_linker_0, # of connection points: 2
#     Edge 47, Type (0, 1), BuildingBlock: UVAHIK_clean_linker_0, # of connection points: 2
#     Edge 48, Type (0, 1), BuildingBlock: UVAHIK_clean_linker_0, # of connection points: 2
#     Edge 49, Type (0, 1), BuildingBlock: UVAHIK_clean_linker_0, # of connection points: 2
#     Edge 50, Type (0, 1), BuildingBlock: UVAHIK_clean_linker_0, # of connection points: 2
#     Edge 51, Type (0, 1), BuildingBlock: UVAHIK_clean_linker_0, # of connection points: 2
#     Edge 52, Type (0, 1), BuildingBlock: UVAHIK_clean_linker_0, # of connection points: 2
#     Edge 53, Type (0, 1), BuildingBlock: UVAHIK_clean_linker_0, # of connection points: 2
#     Edge 54, Type (0, 1), BuildingBlock: UVAHIK_clean_linker_0, # of connection points: 2
#     Edge 55, Type (0, 1), BuildingBlock: UVAHIK_clean_linker_0, # of connection points: 2
#     Edge 56, Type (0, 1), BuildingBlock: UVAHIK_clean_linker_0, # of connection points: 2
#     Edge 57, Type (0, 1), BuildingBlock: UVAHIK_clean_linker_0, # of connection points: 2
#     Edge 58, Type (0, 1), BuildingBlock: UVAHIK_clean_linker_0, # of connection points: 2
#     Edge 59, Type (0, 1), BuildingBlock: UVAHIK_clean_linker_0, # of connection points: 2
#     Edge 60, Type (0, 1), BuildingBlock: UVAHIK_clean_linker_0, # of connection points: 2
#     Edge 61, Type (0, 1), BuildingBlock: UVAHIK_clean_linker_0, # of connection points: 2
#     Edge 62, Type (0, 1), BuildingBlock: UVAHIK_clean_linker_0, # of connection points: 2
#     Edge 63, Type (0, 1), BuildingBlock: UVAHIK_clean_linker_0, # of connection points: 2
#     Edge 64, Type (0, 1), BuildingBlock: UVAHIK_clean_linker_0, # of connection points: 2
#     Edge 65, Type (0, 1), BuildingBlock: UVAHIK_clean_linker_0, # of connection points: 2
#     Edge 66, Type (0, 1), BuildingBlock: UVAHIK_clean_linker_0, # of connection points: 2
#     Edge 67, Type (0, 1), BuildingBlock: UVAHIK_clean_linker_0, # of connection points: 2
#     Edge 68, Type (0, 1), BuildingBlock: UVAHIK_clean_linker_0, # of connection points: 2
#     Edge 69, Type (0, 1), BuildingBlock: UVAHIK_clean_linker_0, # of connection points: 2
#     Edge 70, Type (0, 1), BuildingBlock: UVAHIK_clean_linker_0, # of connection points: 2
#     Edge 71, Type (0, 1), BuildingBlock: UVAHIK_clean_linker_0, # of connection points: 2
#     Edge 72, Type (0, 1), BuildingBlock: UVAHIK_clean_linker_0, # of connection points: 2
#     Edge 73, Type (0, 1), BuildingBlock: UVAHIK_clean_linker_0, # of connection points: 2
#     Edge 74, Type (0, 1), BuildingBlock: UVAHIK_clean_linker_0, # of connection points: 2
#     Edge 75, Type (0, 1), BuildingBlock: UVAHIK_clean_linker_0, # of connection points: 2
#     Edge 76, Type (0, 1), BuildingBlock: UVAHIK_clean_linker_0, # of connection points: 2
#     Edge 77, Type (0, 1), BuildingBlock: UVAHIK_clean_linker_0, # of connection points: 2
#     Edge 78, Type (0, 1), BuildingBlock: UVAHIK_clean_linker_0, # of connection points: 2
#     Edge 79, Type (0, 1), BuildingBlock: UVAHIK_clean_linker_0, # of connection points: 2
#     Edge 80, Type (0, 1), BuildingBlock: UVAHIK_clean_linker_0, # of connection points: 2
#     Edge 81, Type (0, 1), BuildingBlock: UVAHIK_clean_linker_0, # of connection points: 2
#     Edge 82, Type (0, 1), BuildingBlock: UVAHIK_clean_linker_0, # of connection points: 2
#     Edge 83, Type (0, 1), BuildingBlock: UVAHIK_clean_linker_0, # of connection points: 2
#     Edge 84, Type (0, 1), BuildingBlock: UVAHIK_clean_linker_0, # of connection points: 2
#     Edge 85, Type (0, 1), BuildingBlock: UVAHIK_clean_linker_0, # of connection points: 2
#     Edge 86, Type (0, 1), BuildingBlock: UVAHIK_clean_linker_0, # of connection points: 2
#     Edge 87, Type (0, 1), BuildingBlock: UVAHIK_clean_linker_0, # of connection points: 2
#     Edge 88, Type (0, 1), BuildingBlock: UVAHIK_clean_linker_0, # of connection points: 2
#     Edge 89, Type (0, 1), BuildingBlock: UVAHIK_clean_linker_0, # of connection points: 2
#     Edge 90, Type (0, 1), BuildingBlock: UVAHIK_clean_linker_0, # of connection points: 2
#     Edge 91, Type (0, 1), BuildingBlock: UVAHIK_clean_linker_0, # of connection points: 2
#     Edge 92, Type (0, 1), BuildingBlock: UVAHIK_clean_linker_0, # of connection points: 2
#     Edge 93, Type (0, 1), BuildingBlock: UVAHIK_clean_linker_0, # of connection points: 2
#     Edge 94, Type (0, 1), BuildingBlock: UVAHIK_clean_linker_0, # of connection points: 2
#     Edge 95, Type (0, 1), BuildingBlock: UVAHIK_clean_linker_0, # of connection points: 2
#     Edge 96, Type (0, 1), BuildingBlock: UVAHIK_clean_linker_0, # of connection points: 2
#     Edge 97, Type (0, 1), BuildingBlock: UVAHIK_clean_linker_0, # of connection points: 2
#     Edge 98, Type (0, 1), BuildingBlock: UVAHIK_clean_linker_0, # of connection points: 2
#     Edge 99, Type (0, 1), BuildingBlock: UVAHIK_clean_linker_0, # of connection points: 2
#     Edge 100, Type (0, 1), BuildingBlock: UVAHIK_clean_linker_0, # of connection points: 2
#     Edge 101, Type (0, 1), BuildingBlock: UVAHIK_clean_linker_0, # of connection points: 2
#     Edge 102, Type (0, 1), BuildingBlock: UVAHIK_clean_linker_0, # of connection points: 2
#     Edge 103, Type (0, 1), BuildingBlock: UVAHIK_clean_linker_0, # of connection points: 2
#     Edge 104, Type (0, 1), BuildingBlock: UVAHIK_clean_linker_0, # of connection points: 2
#     Edge 105, Type (0, 1), BuildingBlock: UVAHIK_clean_linker_0, # of connection points: 2
#     Edge 106, Type (0, 1), BuildingBlock: UVAHIK_clean_linker_0, # of connection points: 2
#     Edge 107, Type (0, 1), BuildingBlock: UVAHIK_clean_linker_0, # of connection points: 2
#     Edge 108, Type (0, 1), BuildingBlock: UVAHIK_clean_linker_0, # of connection points: 2
#     Edge 109, Type (0, 1), BuildingBlock: UVAHIK_clean_linker_0, # of connection points: 2
#     Edge 110, Type (0, 1), BuildingBlock: UVAHIK_clean_linker_0, # of connection points: 2
#     Edge 111, Type (0, 1), BuildingBlock: UVAHIK_clean_linker_0, # of connection points: 2
#     Edge 112, Type (0, 1), BuildingBlock: UVAHIK_clean_linker_0, # of connection points: 2
#     Edge 113, Type (0, 1), BuildingBlock: UVAHIK_clean_linker_0, # of connection points: 2
#     Edge 114, Type (0, 1), BuildingBlock: UVAHIK_clean_linker_0, # of connection points: 2
#     Edge 115, Type (0, 1), BuildingBlock: UVAHIK_clean_linker_0, # of connection points: 2
#     Edge 116, Type (0, 1), BuildingBlock: UVAHIK_clean_linker_0, # of connection points: 2
#     Edge 117, Type (0, 1), BuildingBlock: UVAHIK_clean_linker_0, # of connection points: 2
#     Edge 118, Type (0, 1), BuildingBlock: UVAHIK_clean_linker_0, # of connection points: 2
#     Edge 119, Type (0, 1), BuildingBlock: UVAHIK_clean_linker_0, # of connection points: 2
#     Edge 120, Type (0, 1), BuildingBlock: UVAHIK_clean_linker_0, # of connection points: 2
#     Edge 121, Type (0, 1), BuildingBlock: UVAHIK_clean_linker_0, # of connection points: 2
#     Edge 122, Type (0, 1), BuildingBlock: UVAHIK_clean_linker_0, # of connection points: 2
#     Edge 123, Type (0, 1), BuildingBlock: UVAHIK_clean_linker_0, # of connection points: 2
#     Edge 124, Type (0, 1), BuildingBlock: UVAHIK_clean_linker_0, # of connection points: 2
#     Edge 125, Type (0, 1), BuildingBlock: UVAHIK_clean_linker_0, # of connection points: 2
#     Edge 126, Type (0, 1), BuildingBlock: UVAHIK_clean_linker_0, # of connection points: 2
#     Edge 127, Type (0, 1), BuildingBlock: UVAHIK_clean_linker_0, # of connection points: 2
#     Edge 128, Type (0, 1), BuildingBlock: UVAHIK_clean_linker_0, # of connection points: 2
#     Edge 129, Type (0, 1), BuildingBlock: UVAHIK_clean_linker_0, # of connection points: 2
#     Edge 130, Type (0, 1), BuildingBlock: UVAHIK_clean_linker_0, # of connection points: 2
#     Edge 131, Type (0, 1), BuildingBlock: UVAHIK_clean_linker_0, # of connection points: 2
#     Edge 132, Type (0, 1), BuildingBlock: UVAHIK_clean_linker_0, # of connection points: 2
#     Edge 133, Type (0, 1), BuildingBlock: UVAHIK_clean_linker_0, # of connection points: 2
#     Edge 134, Type (0, 1), BuildingBlock: UVAHIK_clean_linker_0, # of connection points: 2
#     Edge 135, Type (0, 1), BuildingBlock: UVAHIK_clean_linker_0, # of connection points: 2
# Relax obj value: 0.106
# Max RMSD: 0.218
# Mean RMSD: 0.145
data_MOF--net-gar--node1-TATPOV_clean_sbu_0--node2-CUKXOW_clean_sbu_0--edge1-UVAHIK_clean_linker_0
_symmetry_space_group_name_H-M    P1
_symmetry_Int_Tables_number       1
_symmetry_cell_setting            triclinic
loop_
_symmetry_equiv_pos_as_xyz
'x, y, z'
_cell_length_a     70.526441
_cell_length_b     69.053106
_cell_length_c     69.926666
_cell_angle_alpha  93.900077
_cell_angle_beta   96.328471
_cell_angle_gamma 101.45593
loop_
_atom_site_label
_atom_site_type_symbol
_atom_site_fract_x
_atom_site_fract_y
_atom_site_fract_z
_atom_type_partial_charge
Zn0 Zn 0.97878 0.26125 0.40874 0.0
Zn1 Zn 0.01449 0.26899 0.39712 0.0
O2 O 0.0164 0.29479 0.41391 0.0
O3 O 0.98657 0.28957 0.42194 0.0
O4 O 0.03823 0.27232 0.3838 0.0
O5 O 0.98572 0.23745 0.42091 0.0
O6 O 0.01486 0.24386 0.41124 0.0
C7 C 0.00321 0.30084 0.42223 0.0
C8 C 0.9767 0.261 0.36821 0.0
O9 O 0.99503 0.26621 0.37277 0.0
O10 O 0.96569 0.25698 0.38114 0.0
C11 C 0.04277 0.2874 0.37453 0.0
O12 O 0.03413 0.30243 0.37684 0.0
C13 C 0.00215 0.23301 0.41968 0.0
Zn14 Zn 0.98321 0.75818 0.67412 0.0
Zn15 Zn 0.9956 0.79171 0.63631 0.0
O16 O 0.96579 0.78592 0.62966 0.0
O17 O 0.97373 0.7636 0.6468 0.0
O18 O 0.0065 0.8167 0.62428 0.0
O19 O 0.00448 0.78004 0.69105 0.0
O20 O -0.00202 0.79392 0.66531 0.0
C21 C 0.96074 0.77278 0.64097 0.0
C22 C 0.00253 0.75 0.63365 0.0
O23 O 0.00547 0.76721 0.62735 0.0
O24 O 0.99419 0.74662 0.64893 0.0
C25 C -0.0005 0.81626 0.60666 0.0
O26 O 0.98796 0.79981 0.59839 0.0
C27 C 0.01035 0.79262 0.67946 0.0
Zn28 Zn 0.4834 0.76422 0.90872 0.0
Zn29 Zn 0.51735 0.77018 0.89611 0.0
O30 O 0.51999 0.79706 0.91147 0.0
O31 O 0.48922 0.79368 0.91634 0.0
O32 O 0.54047 0.77289 0.88189 0.0
O33 O 0.49187 0.74522 0.9266 0.0
O34 O 0.51806 0.74612 0.91193 0.0
C35 C 0.50614 0.80439 0.91707 0.0
C36 C 0.47882 0.75881 0.86867 0.0
O37 O 0.49697 0.76609 0.87235 0.0
O38 O 0.46892 0.7542 0.88232 0.0
C39 C 0.54495 0.78838 0.87315 0.0
O40 O 0.5363 0.80329 0.87608 0.0
C41 C 0.50707 0.73876 0.92406 0.0
Zn42 Zn 0.47805 0.25759 0.16909 0.0
Zn43 Zn 0.49346 0.29159 0.13243 0.0
O44 O 0.46449 0.29177 0.12951 0.0
O45 O 0.46935 0.26626 0.14334 0.0
O46 O 0.50738 0.31628 0.12239 0.0
O47 O 0.49927 0.27785 0.18746 0.0
O48 O 0.50296 0.29083 0.16023 0.0
C49 C 0.45819 0.27805 0.13966 0.0
C50 C 0.49599 0.24915 0.12774 0.0
O51 O 0.49865 0.26602 0.12078 0.0
O52 O 0.48876 0.24643 0.1437 0.0
C53 C 0.51213 0.31618 0.10541 0.0
O54 O 0.50943 0.29916 0.09484 0.0
C55 C 0.50904 0.29038 0.17788 0.0
Zn56 Zn 0.01284 0.76517 0.12451 0.0
Zn57 Zn 0.98535 0.76272 0.14277 0.0
O58 O 0.98471 0.78732 0.12745 0.0
O59 O 0.01519 0.79398 0.12172 0.0
O60 O 0.96193 0.76017 0.15751 0.0
O61 O -0.00159 0.74552 0.103 0.0
O62 O 0.98004 0.73606 0.12542 0.0
C63 C -0.00109 0.79898 0.1217 0.0
C64 C 0.02524 0.76132 0.16247 0.0
O65 O 0.00911 0.76656 0.16407 0.0
O66 O 0.02941 0.75651 0.14592 0.0
C67 C 0.95364 0.77456 0.16102 0.0
O68 O 0.96064 0.79198 0.1553 0.0
C69 C 0.98539 0.7328 0.10886 0.0
Zn70 Zn 0.48554 0.78496 0.38219 0.0
Zn71 Zn 0.51807 0.78682 0.37022 0.0
O72 O 0.52158 0.81526 0.38339 0.0
O73 O 0.49075 0.81455 0.38659 0.0
O74 O 0.54422 0.78603 0.36095 0.0
O75 O 0.49013 0.76879 0.40388 0.0
O76 O 0.51584 0.76534 0.3899 0.0
C77 C 0.50816 0.82408 0.38768 0.0
C78 C 0.4796 0.77397 0.34294 0.0
O79 O 0.49787 0.78142 0.34502 0.0
O80 O 0.47073 0.77152 0.35758 0.0
C81 C 0.55222 0.7987 0.35034 0.0
O82 O 0.54313 0.81268 0.34493 0.0
C83 C 0.50461 0.76075 0.40277 0.0
Zn84 Zn 0.51389 0.26279 0.6234 0.0
Zn85 Zn 0.48582 0.26159 0.64147 0.0
O86 O 0.48644 0.28646 0.62643 0.0
O87 O 0.51685 0.29162 0.62038 0.0
O88 O 0.4625 0.26012 0.65625 0.0
O89 O 0.49886 0.24313 0.60216 0.0
O90 O 0.47941 0.23491 0.62404 0.0
C91 C 0.50103 0.29749 0.62068 0.0
C92 C 0.52543 0.25921 0.66173 0.0
O93 O 0.50933 0.26466 0.66292 0.0
O94 O 0.52987 0.25416 0.64536 0.0
C95 C 0.45371 0.27436 0.6585 0.0
O96 O 0.45997 0.29114 0.65119 0.0
C97 C 0.48498 0.23119 0.60769 0.0
Zn98 Zn 0.99074 0.28904 0.88793 0.0
Zn99 Zn 0.022 0.29075 0.87107 0.0
O100 O 0.02612 0.31922 0.88449 0.0
O101 O -0.00258 0.31835 0.8945 0.0
O102 O 0.04646 0.29009 0.85822 0.0
O103 O -0.00245 0.2703 0.90639 0.0
O104 O 0.02218 0.2686 0.88992 0.0
C105 C 0.01415 0.32788 0.89226 0.0
C106 C 0.98094 0.27856 0.84808 0.0
O107 O -0.00071 0.28453 0.84809 0.0
O108 O 0.97365 0.27778 0.86377 0.0
C109 C 0.06158 0.30399 0.85987 0.0
O110 O 0.06184 0.32068 0.8702 0.0
C111 C 0.01193 0.26276 0.9032 0.0
Zn112 Zn 0.41864 0.04305 0.23425 0.0
Zn113 Zn 0.39801 0.06953 0.23929 0.0
O114 O 0.41491 0.07034 0.26643 0.0
O115 O 0.43142 0.04697 0.26144 0.0
O116 O 0.38269 0.0915 0.24239 0.0
O117 O 0.43229 0.05588 0.21376 0.0
O118 O 0.41125 0.07553 0.21414 0.0
C119 C 0.42707 0.06002 0.27276 0.0
C120 C 0.37759 0.02646 0.22889 0.0
O121 O 0.37664 0.04412 0.23456 0.0
O122 O 0.39396 0.02228 0.22672 0.0
C123 C 0.36757 0.09127 0.2305 0.0
O124 O 0.3624 0.07692 0.21644 0.0
C125 C 0.42488 0.06935 0.20655 0.0
Zn126 Zn 0.25274 0.19679 0.49533 0.0
Zn127 Zn 0.27346 0.16838 0.49964 0.0
O128 O 0.28091 0.17977 0.47489 0.0
O129 O 0.26055 0.19961 0.46857 0.0
O130 O 0.28946 0.14779 0.50274 0.0
O131 O 0.27117 0.21318 0.51734 0.0
O132 O 0.28454 0.18767 0.52348 0.0
C133 C 0.27417 0.19143 0.46403 0.0
C134 C 0.22941 0.15869 0.50004 0.0
O135 O 0.24537 0.15305 0.49876 0.0
O136 O 0.22877 0.17691 0.50028 0.0
C137 C 0.30723 0.15289 0.50017 0.0
O138 O 0.3137 0.17077 0.49516 0.0
C139 C 0.28316 0.20552 0.52758 0.0
Zn140 Zn 0.10664 0.01681 0.77422 0.0
Zn141 Zn 0.12977 0.99562 0.78075 0.0
O142 O 0.11474 0.99321 0.80488 0.0
O143 O 0.10189 0.01945 0.80161 0.0
O144 O 0.14878 0.97751 0.78313 0.0
O145 O 0.08773 0.99691 0.75585 0.0
O146 O 0.11349 0.98388 0.75438 0.0
C147 C 0.10529 0.00559 0.81151 0.0
C148 C 0.14373 0.03784 0.77128 0.0
O149 O 0.14761 0.02327 0.78012 0.0
O150 O 0.12634 0.03765 0.76442 0.0
C151 C 0.14319 0.95925 0.78541 0.0
O152 O 0.12502 0.95261 0.78825 0.0
C153 C 0.09615 0.98473 0.74771 0.0
Zn154 Zn 0.24538 0.87262 0.02582 0.0
Zn155 Zn 0.2161 0.88907 0.02289 0.0
O156 O 0.21232 0.87234 -0.00402 0.0
O157 O 0.24095 0.86396 -0.00246 0.0
O158 O 0.19329 0.90322 0.02199 0.0
O159 O 0.23527 0.85466 0.04517 0.0
O160 O 0.21464 0.87435 0.04825 0.0
C161 C 0.22485 0.86464 0.98796 0.0
C162 C 0.25769 0.91391 0.03116 0.0
O163 O 0.23979 0.91252 0.02482 0.0
O164 O 0.26392 0.89849 0.03503 0.0
C165 C 0.19521 0.91949 0.03247 0.0
O166 O 0.21157 0.92622 0.04398 0.0
C167 C 0.22262 0.86045 0.05431 0.0
Zn168 Zn 0.25016 0.3636 0.00702 0.0
Zn169 Zn 0.23153 0.39088 0.01904 0.0
O170 O 0.21607 0.37905 0.99295 0.0
O171 O 0.22838 0.35309 0.98558 0.0
O172 O 0.21574 0.4107 0.02533 0.0
O173 O 0.24799 0.35202 0.03246 0.0
O174 O 0.22928 0.37243 0.04061 0.0
C175 C 0.21565 0.3634 0.98216 0.0
C176 C 0.27331 0.40337 0.01047 0.0
O177 O 0.25886 0.40743 0.01815 0.0
O178 O 0.27281 0.38587 0.00335 0.0
C179 C 0.2143 0.42244 0.01229 0.0
O180 O 0.22535 0.4224 -0.00166 0.0
C181 C 0.23722 0.3578 0.04404 0.0
Zn182 Zn 0.764 0.17964 0.00115 0.0
Zn183 Zn 0.79424 0.1634 0.00452 0.0
O184 O 0.7969 0.17886 0.9797 0.0
O185 O 0.77226 0.19418 0.97928 0.0
O186 O 0.81765 0.15041 0.0071 0.0
O187 O 0.77122 0.19376 0.0274 0.0
O188 O 0.79759 0.18114 0.03065 0.0
C189 C 0.78715 0.19083 0.97224 0.0
C190 C 0.75274 0.1378 -0.00171 0.0
O191 O 0.77106 0.13911 0.00212 0.0
O192 O 0.74582 0.1532 -0.00352 0.0
C193 C 0.82525 0.14454 0.99267 0.0
O194 O 0.818 0.1473 0.97518 0.0
C195 C 0.7869 0.19226 0.03728 0.0
Zn196 Zn 0.10145 0.51856 0.2795 0.0
Zn197 Zn 0.11514 0.489 0.27607 0.0
O198 O 0.10079 0.48604 0.30088 0.0
O199 O 0.08136 0.50679 0.29551 0.0
O200 O 0.12764 0.46505 0.27308 0.0
O201 O 0.09472 0.51887 0.25105 0.0
O202 O 0.09782 0.48779 0.24944 0.0
C203 C 0.08657 0.49362 0.30532 0.0
C204 C 0.1412 0.52981 0.2877 0.0
O205 O 0.13915 0.51244 0.27923 0.0
O206 O 0.12643 0.53572 0.29256 0.0
C207 C 0.13179 0.45441 0.28646 0.0
O208 O 0.12727 0.45834 0.30384 0.0
C209 C 0.09268 0.50231 0.24136 0.0
Zn210 Zn 0.75009 0.86176 0.50684 0.0
Zn211 Zn 0.73031 0.88881 0.51787 0.0
O212 O 0.71616 0.87724 0.49119 0.0
O213 O 0.72974 0.85209 0.48404 0.0
O214 O 0.71457 0.9089 0.52338 0.0
O215 O 0.74542 0.84937 0.53147 0.0
O216 O 0.72661 0.86998 0.53892 0.0
C217 C 0.71677 0.86203 0.48021 0.0
C218 C 0.77311 0.90157 0.51234 0.0
O219 O 0.75787 0.90532 0.51866 0.0
O220 O 0.77332 0.88421 0.50535 0.0
C221 C 0.71413 0.92082 0.51037 0.0
O222 O 0.72553 0.92028 0.49677 0.0
C223 C 0.73398 0.855 0.54238 0.0
Zn224 Zn 0.90145 0.03429 0.22872 0.0
Zn225 Zn 0.88073 0.06075 0.237 0.0
O226 O 0.90287 0.06605 0.25986 0.0
O227 O 0.9218 0.04607 0.25125 0.0
O228 O 0.86485 0.08191 0.24153 0.0
O229 O 0.90456 0.04299 0.20268 0.0
O230 O 0.89068 0.06776 0.21066 0.0
C231 C 0.91847 0.05944 0.26295 0.0
C232 C 0.86328 0.01562 0.23504 0.0
O233 O 0.86114 0.03354 0.23755 0.0
O234 O 0.87943 0.012 0.23129 0.0
C235 C 0.86866 0.09531 0.25566 0.0
O236 O 0.88326 0.09539 0.26908 0.0
C237 C 0.89919 0.05878 0.19872 0.0
Zn238 Zn 0.26849 0.68237 0.49981 0.0
Zn239 Zn 0.29879 0.66547 0.50513 0.0
O240 O 0.30181 0.67915 0.4795 0.0
O241 O 0.27569 0.69217 0.47513 0.0
O242 O 0.32212 0.65236 0.50855 0.0
O243 O 0.27706 0.69953 0.5246 0.0
O244 O 0.30116 0.68399 0.53071 0.0
C245 C 0.2912 0.68873 0.46952 0.0
C246 C 0.25729 0.64043 0.50038 0.0
O247 O 0.27563 0.64136 0.50272 0.0
O248 O 0.2505 0.65597 0.4991 0.0
C249 C 0.32886 0.64556 0.49394 0.0
O250 O 0.32077 0.64747 0.47652 0.0
C251 C 0.29146 0.69684 0.53583 0.0
Zn252 Zn 0.404 0.5355 0.72757 0.0
Zn253 Zn 0.38094 0.55949 0.73701 0.0
O254 O 0.40281 0.56548 0.75994 0.0
O255 O 0.42331 0.54746 0.75093 0.0
O256 O 0.36423 0.57899 0.74303 0.0
O257 O 0.40664 0.54655 0.70232 0.0
O258 O 0.38963 0.56848 0.71096 0.0
C259 C 0.41897 0.5599 0.76296 0.0
C260 C 0.36605 0.5142 0.73293 0.0
O261 O 0.36286 0.53156 0.73652 0.0
O262 O 0.38256 0.51196 0.72882 0.0
C263 C 0.3725 0.59726 0.7451 0.0
O264 O 0.39127 0.60222 0.74379 0.0
C265 C 0.39929 0.56139 0.69887 0.0
Zn266 Zn 0.60151 0.01809 0.76875 0.0
Zn267 Zn 0.61424 0.98813 0.77518 0.0
O268 O 0.59863 0.99032 0.79856 0.0
O269 O 0.59512 0.02095 0.79572 0.0
O270 O 0.62511 0.96332 0.77772 0.0
O271 O 0.58092 0.00572 0.74715 0.0
O272 O 0.59937 0.98359 0.74692 0.0
C273 C 0.5939 0.00605 0.80542 0.0
C274 C 0.64189 0.02687 0.77182 0.0
O275 O 0.63901 0.01041 0.77928 0.0
O276 O 0.62768 0.0328 0.76322 0.0
C277 C 0.63857 0.96155 0.76745 0.0
O278 O 0.64402 0.97542 0.75605 0.0
C279 C 0.58563 0.99093 0.73879 0.0
Zn280 Zn 0.75595 0.69962 -0.00152 0.0
Zn281 Zn 0.77452 0.66862 0.00399 0.0
O282 O 0.78355 0.67828 0.97917 0.0
O283 O 0.76871 0.70309 0.97414 0.0
O284 O 0.78897 0.64716 0.00941 0.0
O285 O 0.77249 0.71427 0.02232 0.0
O286 O 0.78586 0.68847 0.02727 0.0
C287 C 0.78038 0.69237 0.96938 0.0
C288 C 0.7301 0.66159 0.00111 0.0
O289 O 0.74585 0.65518 0.00237 0.0
O290 O 0.73032 0.67985 -0.00015 0.0
C291 C 0.79742 0.63896 -0.00301 0.0
O292 O 0.79541 0.64333 0.97899 0.0
C293 C 0.78441 0.70615 0.0321 0.0
Zn294 Zn 0.91347 0.53809 0.73567 0.0
Zn295 Zn 0.89848 0.56914 0.74009 0.0
O296 O 0.91649 0.56979 0.76649 0.0
O297 O 0.9293 0.54356 0.76169 0.0
O298 O 0.88626 0.59354 0.74247 0.0
O299 O 0.92443 0.54525 0.71178 0.0
O300 O 0.91058 0.57114 0.71365 0.0
C301 C 0.92753 0.55827 0.77265 0.0
C302 C 0.87222 0.52783 0.73399 0.0
O303 O 0.87411 0.54643 0.73798 0.0
O304 O 0.88698 0.52043 0.732 0.0
C305 C 0.87133 0.59366 0.73044 0.0
O306 O 0.86544 0.57878 0.71698 0.0
C307 C 0.92007 0.5603 0.70456 0.0
Zn308 Zn 0.7379 0.36247 0.51947 0.0
Zn309 Zn 0.71666 0.38972 0.52122 0.0
O310 O 0.71052 0.37528 0.49309 0.0
O311 O 0.72544 0.35015 0.49336 0.0
O312 O 0.69756 0.40822 0.52248 0.0
O313 O 0.72933 0.3505 0.54301 0.0
O314 O 0.71354 0.3748 0.54614 0.0
C315 C 0.7145 0.35993 0.48451 0.0
C316 C 0.75997 0.40372 0.5238 0.0
O317 O 0.74336 0.40824 0.52413 0.0
O318 O 0.76129 0.38564 0.52186 0.0
C319 C 0.68202 0.40604 0.5107 0.0
O320 O 0.67797 0.39126 0.49705 0.0
C321 C 0.71912 0.3597 0.55254 0.0
Zn322 Zn 0.60654 0.51666 0.2726 0.0
Zn323 Zn 0.62949 0.49521 0.27882 0.0
O324 O 0.61451 0.4931 0.30303 0.0
O325 O 0.6018 0.51945 0.29991 0.0
O326 O 0.64723 0.47563 0.28025 0.0
O327 O 0.58719 0.49723 0.25417 0.0
O328 O 0.61308 0.48454 0.2524 0.0
C329 C 0.60515 0.50554 0.30974 0.0
C330 C 0.64404 0.53728 0.26951 0.0
O331 O 0.64793 0.52268 0.27831 0.0
O332 O 0.62661 0.5372 0.26284 0.0
C333 C 0.64359 0.45937 0.28798 0.0
O334 O 0.62843 0.45553 0.29749 0.0
C335 C 0.59578 0.48543 0.24569 0.0
Tb336 Tb 0.01594 0.05113 0.00956 0.0
C337 C 0.00815 0.01741 0.97463 0.0
Tb338 Tb 0.00082 0.00763 0.01738 0.0
O339 O 0.04458 0.05088 0.02595 0.0
O340 O 0.02708 0.02522 0.01174 0.0
O341 O 0.01251 0.03681 0.98018 0.0
C342 C -0.00067 0.96983 0.02277 0.0
O343 O 0.00362 0.00357 0.98667 0.0
C344 C 0.97465 0.02966 0.01502 0.0
C345 C 0.00835 0.04129 0.05151 0.0
O346 O 0.98587 0.97645 0.0125 0.0
O347 O 0.01331 0.98448 0.03021 0.0
O348 O 0.97336 0.01439 0.02505 0.0
O349 O 0.98896 0.03054 0.00561 0.0
O350 O 0.0087 0.02243 0.04665 0.0
O351 O 0.00878 0.05464 0.03876 0.0
C352 C 0.01748 0.08755 -0.00111 0.0
O353 O 0.00262 0.07663 0.00502 0.0
O354 O 0.03156 0.07794 -0.00139 0.0
C355 C 0.04252 0.03173 0.0229 0.0
Tb356 Tb 0.25771 0.8076 0.27667 0.0
C357 C 0.29082 0.7825 0.27394 0.0
Tb358 Tb 0.24668 0.76105 0.26527 0.0
O359 O 0.24778 0.80428 0.30511 0.0
O360 O 0.25639 0.78116 0.29062 0.0
O361 O 0.28588 0.80004 0.27228 0.0
C362 C 0.23659 0.72217 0.26775 0.0
O363 O 0.2778 0.76574 0.2742 0.0
C364 C 0.25016 0.78184 0.2348 0.0
C365 C 0.21395 0.78632 0.26265 0.0
O366 O 0.24887 0.73052 0.2567 0.0
O367 O 0.22993 0.73566 0.27718 0.0
O368 O 0.24578 0.76255 0.23349 0.0
O369 O 0.25223 0.78741 0.2524 0.0
O370 O 0.21826 0.76876 0.26541 0.0
O371 O 0.22727 0.80311 0.26412 0.0
C372 C 0.27114 0.84649 0.27654 0.0
O373 O 0.25357 0.83711 0.26999 0.0
O374 O 0.28105 0.83401 0.2834 0.0
C375 C 0.2482 0.78551 0.30496 0.0
Tb376 Tb 0.51823 0.02015 0.50266 0.0
C377 C 0.51248 0.01813 0.54654 0.0
Tb378 Tb 0.47896 0.02576 0.51467 0.0
O379 O 0.53211 0.0494 0.51761 0.0
O380 O 0.50314 0.04326 0.5047 0.0
O381 O 0.52283 0.01375 0.53268 0.0
C382 C 0.45366 0.0436 0.53051 0.0
O383 O 0.49563 0.02397 0.54289 0.0
C384 C 0.48053 0.98972 0.50256 0.0
C385 C 0.48448 0.02695 0.47056 0.0
O386 O 0.4711 0.05204 0.52772 0.0
O387 O 0.4503 0.02489 0.52431 0.0
O388 O 0.46448 0.99644 0.50056 0.0
O389 O 0.49389 0.00248 0.51233 0.0
O390 O 0.47432 0.03181 0.48445 0.0
O391 O 0.5011 0.02066 0.47436 0.0
C392 C 0.54676 0.00632 0.48818 0.0
O393 O 0.54771 0.02461 0.49461 0.0
O394 O 0.52966 0.99591 0.48973 0.0
C395 C 0.51616 0.05604 0.51473 0.0
Tb396 Tb 0.26598 0.28124 0.78796 0.0
C397 C 0.27295 0.31631 0.76077 0.0
Tb398 Tb 0.25369 0.27245 0.74238 0.0
O399 O 0.29578 0.27451 0.78778 0.0
O400 O 0.27685 0.27339 0.76337 0.0
O401 O 0.27013 0.31122 0.77845 0.0
C402 C 0.25857 0.26531 0.70579 0.0
O403 O 0.26948 0.30326 0.74524 0.0
C404 C 0.22574 0.27613 0.76316 0.0
C405 C 0.24706 0.23742 0.76935 0.0
O406 O 0.25027 0.27928 0.71223 0.0
O407 O 0.26352 0.25525 0.71983 0.0
O408 O 0.2226 0.26681 0.74585 0.0
O409 O 0.24338 0.28488 0.76661 0.0
O410 O 0.24942 0.24271 0.7517 0.0
O411 O 0.25098 0.25011 0.78515 0.0
C412 C 0.26253 0.29033 0.82459 0.0
O413 O 0.25119 0.27594 0.81333 0.0
O414 O 0.2761 0.29942 0.81525 0.0
C415 C 0.29355 0.27115 0.769 0.0
Tb416 Tb -0.00206 0.02106 0.48523 0.0
C417 C 0.9637 0.01174 0.51092 0.0
Tb418 Tb 0.00834 0.02495 0.52975 0.0
O419 O 0.99096 0.98844 0.48449 0.0
O420 O 0.01119 0.00561 0.50614 0.0
O421 O 0.96866 0.01449 0.49337 0.0
C422 C 0.01467 0.01624 0.56614 0.0
O423 O 0.9766 0.01455 0.52678 0.0
C424 C 0.00554 0.058 0.51461 0.0
C425 C 0.04176 0.03543 0.50431 0.0
O426 O 0.00365 0.00454 0.55222 0.0
O427 O 0.02191 0.03292 0.55962 0.0
O428 O 0.01565 0.05743 0.53117 0.0
O429 O 0.99586 0.04086 0.50892 0.0
O430 O 0.03696 0.02723 0.52021 0.0
O431 O 0.02847 0.03685 0.48973 0.0
C432 C 0.99144 0.03068 0.44908 0.0
O433 O 0.00351 0.01964 0.45484 0.0
O434 O 0.98291 0.0358 0.46351 0.0
C435 C 0.00176 0.98832 0.50083 0.0
Tb436 Tb 0.28062 0.79072 0.7682 0.0
C437 C 0.25038 0.78882 0.79952 0.0
Tb438 Tb 0.23555 0.77241 0.75522 0.0
O439 O 0.27732 0.81833 0.75496 0.0
O440 O 0.25407 0.80001 0.76423 0.0
O441 O 0.26901 0.79285 0.79605 0.0
C442 C 0.20074 0.77468 0.73819 0.0
O443 O 0.23532 0.78176 0.78582 0.0
C444 C 0.25578 0.74478 0.76175 0.0
C445 C 0.26656 0.77144 0.7257 0.0
O446 O 0.20367 0.76529 0.75348 0.0
O447 O 0.21729 0.78248 0.73263 0.0
O448 O 0.23695 0.74071 0.75646 0.0
O449 O 0.26116 0.7633 0.76328 0.0
O450 O 0.24837 0.77284 0.72795 0.0
O451 O 0.28088 0.77486 0.74027 0.0
C452 C 0.3182 0.79611 0.7817 0.0
O453 O 0.31104 0.80533 0.76799 0.0
O454 O 0.30408 0.78434 0.78823 0.0
C455 C 0.25853 0.81484 0.75514 0.0
Tb456 Tb 0.47446 0.0298 -0.00161 0.0
C457 C 0.50129 -0.00122 -0.00409 0.0
Tb458 Tb 0.51962 0.04405 0.00441 0.0
O459 O 0.47515 0.01874 0.96841 0.0
O460 O 0.49642 0.04247 0.98211 0.0
O461 O 0.48441 0.00199 0.00081 0.0
C462 C 0.55706 0.05803 0.00131 0.0
O463 O 0.51619 0.01322 0.99399 0.0
C464 C 0.50348 0.03074 0.03477 0.0
C465 C 0.49336 0.07596 0.00659 0.0
O466 O 0.54463 0.04668 0.98809 0.0
O467 O 0.5483 0.06177 0.01612 0.0
O468 O 0.5215 0.03101 0.03225 0.0
O469 O 0.49664 0.0399 0.02168 0.0
O470 O 0.51104 0.0726 0.00488 0.0
O471 O 0.47746 0.06161 0.00542 0.0
C472 C 0.43706 0.02126 0.00389 0.0
O473 O 0.44384 0.03113 0.99004 0.0
O474 O 0.45127 0.01604 0.01431 0.0
C475 C 0.49154 0.03076 0.96702 0.0
Tb476 Tb 0.22807 0.26346 0.26363 0.0
C477 C 0.26168 0.27128 0.29897 0.0
Tb478 Tb 0.26993 0.28115 0.25649 0.0
O479 O 0.2295 0.23458 0.24868 0.0
O480 O 0.25435 0.25359 0.26276 0.0
O481 O 0.24299 0.26335 0.2927 0.0
C482 C 0.30735 0.28518 0.2526 0.0
O483 O 0.27437 0.27953 0.28762 0.0
C484 C 0.24658 0.3063 0.25692 0.0
C485 C 0.23679 0.27161 0.22198 0.0
O486 O 0.29963 0.29899 0.26021 0.0
O487 O 0.294 0.26942 0.24692 0.0
O488 O 0.26125 0.30821 0.24696 0.0
O489 O 0.24678 0.29184 0.26691 0.0
O490 O 0.25524 0.27103 0.2275 0.0
O491 O 0.22407 0.27216 0.23445 0.0
C492 C 0.19271 0.26281 0.27385 0.0
O493 O 0.19793 0.24781 0.26523 0.0
O494 O 0.20747 0.27753 0.27721 0.0
C495 C 0.24845 0.23774 0.25203 0.0
Tb496 Tb 0.50242 0.51874 0.98352 0.0
C497 C 0.46664 0.51009 0.00816 0.0
Tb498 Tb 0.50878 0.52814 0.02932 0.0
O499 O 0.50375 0.48679 0.98301 0.0
O500 O 0.5063 0.50459 0.0083 0.0
O501 O 0.47261 0.51361 0.99107 0.0
C502 C 0.51832 0.52838 0.06721 0.0
O503 O 0.47865 0.51227 0.02452 0.0
C504 C 0.49942 0.55591 0.00856 0.0
C505 C 0.5451 0.53267 0.00562 0.0
O506 O 0.50305 0.51725 0.05711 0.0
O507 O 0.52825 0.53949 0.05597 0.0
O508 O 0.49634 0.5548 0.02649 0.0
O509 O 0.50935 0.54347 0.0044 0.0
O510 O 0.53838 0.52865 0.02232 0.0
O511 O 0.53349 0.53193 0.98909 0.0
C512 C 0.49359 0.52741 0.9476 0.0
O513 O 0.50769 0.51858 0.95317 0.0
O514 O 0.48435 0.53082 0.96212 0.0
C515 C 0.50639 0.48727 0.00185 0.0
Tb516 Tb 0.78136 0.28878 0.26919 0.0
C517 C 0.75161 0.29014 0.29931 0.0
Tb518 Tb 0.73793 0.27658 0.25424 0.0
O519 O 0.77851 0.31957 0.27452 0.0
O520 O 0.76061 0.30095 0.25231 0.0
O521 O 0.77022 0.29085 0.297 0.0
C522 C 0.70148 0.27997 0.24339 0.0
O523 O 0.7371 0.28517 0.28485 0.0
C524 C 0.7544 0.24675 0.26208 0.0
C525 C 0.76768 0.27225 0.22586 0.0
O526 O 0.70935 0.26568 0.23718 0.0
O527 O 0.71397 0.29207 0.25588 0.0
O528 O 0.73831 0.24498 0.25046 0.0
O529 O 0.75865 0.264 0.27067 0.0
O530 O 0.75099 0.27796 0.2274 0.0
O531 O 0.78046 0.27227 0.24122 0.0
C532 C 0.81979 0.29249 0.2754 0.0
O533 O 0.81042 0.2992 0.26121 0.0
O534 O 0.80756 0.28379 0.28633 0.0
C535 C 0.76359 0.31781 0.26144 0.0
Tb536 Tb 0.97883 0.53236 0.49809 0.0
C537 C 0.0047 0.50074 0.49163 0.0
Tb538 Tb 0.02364 0.54685 0.50155 0.0
O539 O 0.97706 0.52411 0.46721 0.0
O540 O -0.00068 0.54689 0.48106 0.0
O541 O 0.98719 0.50366 0.49493 0.0
C542 C 0.06171 0.55561 0.49827 0.0
O543 O 0.02039 0.51528 0.49296 0.0
C544 C 0.00873 0.54315 0.53425 0.0
C545 C -0.00158 0.57839 0.50671 0.0
O546 O 0.04792 0.55001 0.48393 0.0
O547 O 0.05402 0.55637 0.51419 0.0
O548 O 0.02465 0.55551 0.53228 0.0
O549 O 0.00308 0.5323 0.5186 0.0
O550 O 0.01469 0.57517 0.5003 0.0
O551 O 0.98349 0.56373 0.50842 0.0
C552 C 0.9426 0.52348 0.50728 0.0
O553 O 0.94738 0.53127 0.49163 0.0
O554 O 0.95808 0.5204 0.51736 0.0
C555 C 0.99339 0.5361 0.4654 0.0
Tb556 Tb 0.76618 0.78109 0.28832 0.0
C557 C 0.76984 0.81844 0.26345 0.0
Tb558 Tb 0.7516 0.77553 0.24356 0.0
O559 O 0.79038 0.76614 0.28368 0.0
O560 O 0.77818 0.78081 0.26214 0.0
O561 O 0.76786 0.81188 0.28079 0.0
C562 C 0.75554 0.76654 0.20707 0.0
O563 O 0.76677 0.80634 0.24731 0.0
C564 C 0.72386 0.78189 0.26413 0.0
C565 C 0.74391 0.73889 0.26901 0.0
O566 O 0.74923 0.78198 0.21336 0.0
O567 O 0.75894 0.75598 0.22122 0.0
O568 O 0.72143 0.77982 0.24525 0.0
O569 O 0.74097 0.78024 0.26945 0.0
O570 O 0.74544 0.74513 0.25156 0.0
O571 O 0.74926 0.75077 0.28528 0.0
C572 C 0.7697 0.79104 0.32608 0.0
O573 O 0.75674 0.77671 0.31649 0.0
O574 O 0.78097 0.7997 0.31432 0.0
C575 C 0.78979 0.76952 0.26555 0.0
Tb576 Tb 0.75645 0.30584 0.77256 0.0
C577 C 0.79084 0.28162 0.77165 0.0
Tb578 Tb 0.74648 0.2603 0.76316 0.0
O579 O 0.75045 0.30329 0.80268 0.0
O580 O 0.75904 0.28067 0.78697 0.0
O581 O 0.78572 0.2992 0.77092 0.0
C582 C 0.73389 0.22205 0.76751 0.0
O583 O 0.77777 0.26481 0.7715 0.0
C584 C 0.75082 0.28148 0.73364 0.0
C585 C 0.71204 0.28423 0.76508 0.0
O586 O 0.74405 0.22878 0.75406 0.0
O587 O 0.73063 0.23681 0.77822 0.0
O588 O 0.75355 0.26337 0.73343 0.0
O589 O 0.74372 0.28541 0.74873 0.0
O590 O 0.71748 0.26682 0.76488 0.0
O591 O 0.72478 0.30141 0.76621 0.0
C592 C 0.76783 0.34343 0.76538 0.0
O593 O 0.76138 0.33781 0.78129 0.0
O594 O 0.76824 0.32797 0.75398 0.0
C595 C 0.75256 0.28493 0.80235 0.0
Tb596 Tb 0.72672 0.761 0.76126 0.0
C597 C 0.75973 0.7657 0.79712 0.0
Tb598 Tb 0.77015 0.78114 0.75699 0.0
O599 O 0.72991 0.73257 0.74647 0.0
O600 O 0.75383 0.75273 0.76031 0.0
O601 O 0.74077 0.76146 0.79064 0.0
C602 C 0.80597 0.78626 0.74763 0.0
O603 O 0.77366 0.77231 0.78633 0.0
C604 C 0.74878 0.80794 0.76287 0.0
C605 C 0.73686 0.77512 0.72219 0.0
O606 O 0.80174 0.79037 0.76486 0.0
O607 O 0.79019 0.77907 0.73592 0.0
O608 O 0.76714 0.81245 0.76067 0.0
O609 O 0.74422 0.78939 0.76187 0.0
O610 O 0.7552 0.77391 0.72755 0.0
O611 O 0.72388 0.77463 0.7345 0.0
C612 C 0.69105 0.75669 0.77147 0.0
O613 O 0.69517 0.74938 0.75519 0.0
O614 O 0.70701 0.76579 0.78202 0.0
C615 C 0.74891 0.73704 0.7493 0.0
Tb616 Tb 0.51562 0.5527 0.50897 0.0
C617 C 0.51202 0.51906 0.4761 0.0
Tb618 Tb 0.5051 0.51011 0.51921 0.0
O619 O 0.54457 0.54834 0.50389 0.0
O620 O 0.52991 0.5334 0.52469 0.0
O621 O 0.51036 0.53771 0.47995 0.0
C622 C 0.50662 0.47292 0.5254 0.0
O623 O 0.51219 0.50651 0.48965 0.0
C624 C 0.47567 0.52733 0.512 0.0
C625 C 0.50661 0.54372 0.55178 0.0
O626 O 0.52074 0.48819 0.53036 0.0
O627 O 0.49149 0.47861 0.5172 0.0
O628 O 0.47572 0.51353 0.52375 0.0
O629 O 0.49082 0.52942 0.50367 0.0
O630 O 0.50686 0.52468 0.54801 0.0
O631 O 0.50904 0.55678 0.53867 0.0
C632 C 0.51654 0.59054 0.50305 0.0
O633 O 0.53167 0.58261 0.50598 0.0
O634 O 0.50086 0.57715 0.5033 0.0
C635 C 0.54499 0.53525 0.5163 0.0
Tb636 Tb 0.01728 0.51987 0.00363 0.0
C637 C 0.01056 0.51726 0.04717 0.0
Tb638 Tb 0.97766 0.52515 0.01465 0.0
O639 O 0.0311 0.54878 0.01916 0.0
O640 O 0.00226 0.54311 0.00577 0.0
O641 O 0.02134 0.51316 0.03359 0.0
C642 C 0.95088 0.54075 0.03044 0.0
O643 O 0.99362 0.52285 0.04315 0.0
C644 C 0.97987 0.48921 0.00254 0.0
C645 C 0.9847 0.52816 0.97115 0.0
O646 O 0.94784 0.52315 0.02135 0.0
O647 O 0.96893 0.54953 0.03052 0.0
O648 O 0.9639 0.4959 -0.00037 0.0
O649 O 0.99274 0.50203 0.01274 0.0
O650 O 0.97449 0.53317 0.98492 0.0
O651 O 0.00087 0.52112 0.97511 0.0
C652 C 0.04553 0.50548 0.98917 0.0
O653 O 0.047 0.52365 -0.0037 0.0
O654 O 0.0281 0.49551 0.99007 0.0
C655 C 0.0152 0.55554 0.01633 0.0
C656 C -0.00152 0.22948 0.9123 0.0
C657 C 0.01458 0.24522 0.91301 0.0
C658 C -9e-05 0.213 0.92231 0.0
C659 C 0.0272 0.19675 0.96371 0.0
H660 H 0.00262 0.14431 0.93919 0.0
C661 C 0.03543 0.12022 0.99078 0.0
C662 C 0.0177 0.10721 0.99206 0.0
C663 C 0.03552 0.13838 0.98307 0.0
C664 C 0.0094 0.1589 0.94622 0.0
H665 H 0.04479 0.25642 0.92466 0.0
H666 H 0.04735 0.22739 0.94266 0.0
H667 H 0.00312 0.17315 0.9208 0.0
H668 H 0.98621 0.10295 0.98695 0.0
H669 H 0.98641 0.13439 0.97264 0.0
H670 H 0.03377 0.18215 0.98907 0.0
C671 C 0.03365 0.22782 0.9342 0.0
C672 C 0.00971 0.17538 0.93574 0.0
C673 C 0.03228 0.24428 0.92383 0.0
C674 C 6e-05 0.11277 0.98605 0.0
C675 C 0.00015 0.13068 0.97791 0.0
C676 C 0.02708 0.18015 0.97416 0.0
C677 C 0.01744 0.21202 0.93349 0.0
C678 C 0.01843 0.19451 0.94441 0.0
C679 C 0.01789 0.14347 0.97614 0.0
C680 C 0.01801 0.16117 0.96549 0.0
H681 H 0.98469 0.22997 0.904 0.0
H682 H 0.98711 0.20121 0.92164 0.0
H683 H 0.03377 0.21134 0.97084 0.0
H684 H 0.04919 0.11624 0.99549 0.0
H685 H 0.04933 0.14805 0.98174 0.0
C686 C 0.04477 0.78037 0.19227 0.0
C687 C 0.04057 0.76343 0.17896 0.0
C688 C 0.06272 0.7853 0.20414 0.0
C689 C 0.11216 0.77809 0.20122 0.0
H690 H 0.12382 0.79528 0.25597 0.0
C691 C 0.18125 0.76952 0.24604 0.0
C692 C 0.19351 0.78674 0.2557 0.0
C693 C 0.16243 0.76994 0.23793 0.0
C694 C 0.1207 0.79085 0.2406 0.0
H695 H 0.05056 0.73728 0.16901 0.0
H696 H 0.08144 0.74545 0.19005 0.0
H697 H 0.08983 0.78871 0.24034 0.0
H698 H 0.19552 0.8178 0.26489 0.0
H699 H 0.16199 0.8183 0.25103 0.0
H700 H 0.14274 0.77939 0.20153 0.0
C701 C 0.07131 0.7553 0.19093 0.0
C702 C 0.10134 0.78704 0.23171 0.0
C703 C 0.05358 0.75051 0.17904 0.0
C704 C 0.18635 0.80431 0.25753 0.0
C705 C 0.16725 0.80462 0.24968 0.0
C706 C 0.13134 0.78178 0.21006 0.0
C707 C 0.0765 0.77325 0.2028 0.0
C708 C 0.09689 0.77989 0.21209 0.0
C709 C 0.15532 0.78747 0.23956 0.0
C710 C 0.13568 0.78753 0.22992 0.0
H711 H 0.03497 0.79063 0.19233 0.0
H712 H 0.06635 0.79915 0.21328 0.0
H713 H 0.10921 0.7732 0.18594 0.0
H714 H 0.18636 0.7558 0.24418 0.0
H715 H 0.15342 0.75654 0.23021 0.0
C716 C 0.52621 0.85111 0.41228 0.0
C717 C 0.51246 0.84483 0.39583 0.0
C718 C 0.52558 0.86829 0.42387 0.0
C719 C 0.48761 0.89345 0.43655 0.0
H720 H 0.52886 0.93514 0.46335 0.0
C721 C 0.47165 0.96292 0.4756 0.0
C722 C 0.4836 0.97141 0.49262 0.0
C723 C 0.47606 0.94696 0.4649 0.0
C724 C 0.51723 0.92342 0.45617 0.0
H725 H 0.48893 0.85239 0.37722 0.0
H726 H 0.48826 0.88265 0.39697 0.0
H727 H 0.53693 0.90992 0.44108 0.0
H728 H 0.50868 0.96933 0.51265 0.0
H729 H 0.51631 0.94118 0.49404 0.0
H730 H 0.4679 0.9066 0.45159 0.0
C731 C 0.4991 0.87413 0.40131 0.0
C732 C 0.52186 0.90909 0.44337 0.0
C733 C 0.49959 0.85696 0.38993 0.0
C734 C 0.49942 0.96311 0.49936 0.0
C735 C 0.50384 0.94712 0.48868 0.0
C736 C 0.48301 0.90764 0.44935 0.0
C737 C 0.51125 0.87928 0.41897 0.0
C738 C 0.507 0.89425 0.43313 0.0
C739 C 0.4924 0.9391 0.47115 0.0
C740 C 0.49769 0.92303 0.459 0.0
H741 H 0.53614 0.84181 0.41715 0.0
H742 H 0.53516 0.872 0.43739 0.0
H743 H 0.47592 0.88178 0.42931 0.0
H744 H 0.4594 0.96914 0.47013 0.0
H745 H 0.46706 0.94126 0.45135 0.0
C746 C 0.43186 0.25593 0.68019 0.0
C747 C 0.43643 0.27203 0.66905 0.0
C748 C 0.41566 0.25393 0.69033 0.0
C749 C 0.36779 0.26458 0.69087 0.0
H750 H 0.37683 0.26628 0.74671 0.0
C751 C 0.30806 0.27516 0.73832 0.0
C752 C 0.3084 0.26794 0.75659 0.0
C753 C 0.32286 0.27359 0.72694 0.0
C754 C 0.37384 0.26527 0.73112 0.0
H755 H 0.42739 0.29847 0.65957 0.0
H756 H 0.3988 0.29461 0.67697 0.0
H757 H 0.40405 0.26716 0.72799 0.0
H758 H 0.32387 0.2527 0.7771 0.0
H759 H 0.34922 0.24884 0.75686 0.0
H760 H 0.33756 0.26199 0.69369 0.0
C761 C 0.40789 0.28369 0.6779 0.0
C762 C 0.38954 0.26597 0.72044 0.0
C763 C 0.42429 0.28592 0.66805 0.0
C764 C 0.32343 0.25852 0.76309 0.0
C765 C 0.33803 0.25649 0.75151 0.0
C766 C 0.35197 0.26339 0.7015 0.0
C767 C 0.40353 0.26775 0.6892 0.0
C768 C 0.38668 0.26591 0.70028 0.0
C769 C 0.33822 0.2644 0.73342 0.0
C770 C 0.35479 0.26404 0.72185 0.0
H771 H 0.44092 0.245 0.68126 0.0
H772 H 0.41252 0.24151 0.69897 0.0
H773 H 0.36526 0.26434 0.67528 0.0
H774 H 0.29678 0.2828 0.73313 0.0
H775 H 0.32252 0.28026 0.71337 0.0
C776 C 0.01525 0.85197 0.60396 0.0
C777 C 0.00245 0.83426 0.59602 0.0
C778 C 0.017 0.86906 0.59396 0.0
C779 C 0.00603 0.88523 0.54485 0.0
H780 H 0.00887 0.93659 0.5724 0.0
C781 C 0.99033 0.95252 0.50594 0.0
C782 C 0.00307 0.97085 0.51161 0.0
C783 C 0.99144 0.93619 0.51652 0.0
C784 C 0.00825 0.92236 0.56453 0.0
H785 H 0.98141 0.82069 0.57139 0.0
H786 H 0.98412 0.85026 0.55434 0.0
H787 H 0.00927 0.90753 0.59047 0.0
H788 H 0.02724 0.98639 0.5325 0.0
H789 H 0.02892 0.958 0.55116 0.0
H790 H 0.00458 0.89995 0.51892 0.0
C791 C 0.99321 0.851 0.568 0.0
C792 C 0.00856 0.90572 0.57488 0.0
C793 C 0.99158 0.83399 0.57788 0.0
C794 C 0.01703 0.9725 0.52795 0.0
C795 C 0.01799 0.95626 0.53866 0.0
C796 C 0.00556 0.90179 0.53453 0.0
C797 C 0.00593 0.86878 0.57585 0.0
C798 C 0.00718 0.88687 0.56514 0.0
C799 C 0.00524 0.93789 0.53304 0.0
C800 C 0.00643 0.9205 0.54421 0.0
H801 H 0.02383 0.85267 0.61792 0.0
H802 H 0.02707 0.88245 0.60036 0.0
H803 H 0.00543 0.87108 0.53686 0.0
H804 H 0.97942 0.95085 0.49343 0.0
H805 H 0.98129 0.92227 0.51193 0.0
C806 C 0.47659 0.77218 0.8364 0.0
C807 C 0.46879 0.75855 0.84901 0.0
C808 C 0.46495 0.77561 0.81999 0.0
C809 C 0.41609 0.75881 0.79115 0.0
H810 H 0.41141 0.81348 0.80157 0.0
C811 C 0.34404 0.78012 0.79626 0.0
C812 C 0.33885 0.79511 0.78556 0.0
C813 C 0.3629 0.77672 0.79731 0.0
C814 C 0.41279 0.79834 0.79802 0.0
H815 H 0.4438 0.73608 0.85318 0.0
H816 H 0.42362 0.7418 0.82457 0.0
H817 H 0.44149 0.80336 0.81342 0.0
H818 H 0.34936 0.81897 0.76829 0.0
H819 H 0.38292 0.81343 0.77085 0.0
H820 H 0.38665 0.75345 0.77741 0.0
C821 C 0.43858 0.75 0.82729 0.0
C822 C 0.43003 0.79253 0.8047 0.0
C823 C 0.45006 0.74683 0.84382 0.0
C824 C 0.35309 0.80733 0.77668 0.0
C825 C 0.37216 0.80411 0.778 0.0
C826 C 0.39886 0.76459 0.78459 0.0
C827 C 0.44553 0.76517 0.81581 0.0
C828 C 0.43128 0.77242 0.80248 0.0
C829 C 0.37699 0.78839 0.78787 0.0
C830 C 0.39669 0.78409 0.78909 0.0
H831 H 0.49108 0.78135 0.84002 0.0
H832 H 0.47067 0.7873 0.81131 0.0
H833 H 0.41682 0.7433 0.78898 0.0
H834 H 0.33334 0.77047 0.8032 0.0
H835 H 0.36648 0.76481 0.80541 0.0
C836 C 0.51149 0.23442 0.10146 0.0
C837 C 0.49944 0.23187 0.11617 0.0
C838 C 0.5129 0.21818 0.08909 0.0
C839 C 0.49971 0.16295 0.08206 0.0
H840 H 0.4984 0.17176 0.02772 0.0
C841 C 0.47627 0.09921 0.02308 0.0
C842 C 0.49187 0.09627 0.01313 0.0
C843 C 0.4772 0.11725 0.0337 0.0
C844 C 0.4988 0.16921 0.04286 0.0
H845 H 0.48016 0.21031 0.13015 0.0
H846 H 0.48197 0.18221 0.10823 0.0
H847 H 0.50203 0.19999 0.05188 0.0
H848 H 0.5196 0.11052 0.00467 0.0
H849 H 0.5209 0.14235 0.02298 0.0
H850 H 0.49559 0.13206 0.07282 0.0
C851 C 0.49072 0.19657 0.10639 0.0
C852 C 0.50109 0.18531 0.05673 0.0
C853 C 0.48957 0.21272 0.11892 0.0
C854 C 0.50746 0.11233 0.01236 0.0
C855 C 0.50821 0.13051 0.02276 0.0
C856 C 0.49704 0.14689 0.06819 0.0
C857 C 0.50205 0.19917 0.09105 0.0
C858 C 0.50138 0.18233 0.07649 0.0
C859 C 0.49352 0.1327 0.0342 0.0
C860 C 0.49638 0.14991 0.04853 0.0
H861 H 0.51952 0.24902 0.09926 0.0
H862 H 0.52217 0.22061 0.07776 0.0
H863 H 0.50032 0.16013 0.09714 0.0
H864 H 0.46403 0.08716 0.02393 0.0
H865 H 0.46566 0.11881 0.04236 0.0
C866 C 0.06781 0.30102 0.35359 0.0
C867 C 0.05322 0.28551 0.35773 0.0
C868 C 0.07793 0.2985 0.3378 0.0
C869 C 0.09065 0.25777 0.3086 0.0
H870 H 0.11786 0.30128 0.28334 0.0
C871 C 0.15664 0.24941 0.27011 0.0
C872 C 0.17289 0.2644 0.27725 0.0
C873 C 0.1379 0.25173 0.27316 0.0
C874 C 0.11016 0.28892 0.2901 0.0
H875 H 0.03626 0.25611 0.34786 0.0
H876 H 0.05327 0.25198 0.31991 0.0
H877 H 0.09146 0.30636 0.30172 0.0
H878 H 0.18248 0.29375 0.29251 0.0
H879 H 0.15011 0.29756 0.29827 0.0
H880 H 0.10987 0.24062 0.2978 0.0
C881 C 0.05767 0.26569 0.32923 0.0
C882 C 0.09515 0.29186 0.30072 0.0
C883 C 0.04796 0.26802 0.34525 0.0
C884 C 0.17017 0.28188 0.28698 0.0
C885 C 0.15157 0.28421 0.29 0.0
C886 C 0.10555 0.25483 0.29793 0.0
C887 C 0.07322 0.28061 0.32565 0.0
C888 C 0.08591 0.27658 0.3109 0.0
C889 C 0.13524 0.2691 0.28334 0.0
C890 C 0.11615 0.27066 0.28947 0.0
H891 H 0.07185 0.31473 0.36296 0.0
H892 H 0.08998 0.31024 0.33564 0.0
H893 H 0.08399 0.24564 0.31629 0.0
H894 H 0.15841 0.23595 0.26225 0.0
H895 H 0.12553 0.23987 0.26784 0.0
C896 C 0.90142 0.0554 0.16383 0.0
C897 C 0.90554 0.0675 0.18134 0.0
C898 C 0.91376 0.05867 0.14959 0.0
C899 C 0.95019 0.08391 0.12599 0.0
H900 H 0.97946 0.04301 0.13708 0.0
C901 C 0.00664 0.06733 0.07748 0.0
C902 C 0.004 0.04713 0.07102 0.0
C903 C -0.00188 0.07321 0.09343 0.0
C904 C 0.9715 0.05453 0.13381 0.0
H905 H 0.92436 0.09367 0.19699 0.0
H906 H 0.94614 0.09933 0.17194 0.0
H907 H 0.95514 0.04934 0.15767 0.0
H908 H 0.99176 0.01719 0.07719 0.0
H909 H 0.97676 0.02738 0.10482 0.0
H910 H 0.96578 0.08848 0.10154 0.0
C911 C 0.93324 0.08754 0.16921 0.0
C912 C 0.95769 0.05819 0.14564 0.0
C913 C 0.92072 0.08438 0.18344 0.0
C914 C 0.99413 0.03287 0.08183 0.0
C915 C 0.98551 0.03875 0.09771 0.0
C916 C 0.96403 0.08021 0.11406 0.0
C917 C 0.93042 0.07398 0.15276 0.0
C918 C 0.94665 0.07256 0.14155 0.0
C919 C 0.98673 0.059 0.10319 0.0
C920 C 0.97446 0.0651 0.11755 0.0
H921 H 0.88993 0.04218 0.16204 0.0
H922 H 0.91142 0.04802 0.13699 0.0
H923 H 0.94172 0.09499 0.12261 0.0
H924 H 0.01442 0.07868 0.0696 0.0
H925 H -0.00025 0.08891 0.09759 0.0
C926 C 0.28548 0.6843 0.43398 0.0
C927 C 0.29585 0.69531 0.45082 0.0
C928 C 0.28315 0.69342 0.41688 0.0
C929 C 0.27815 0.74256 0.40463 0.0
H930 H 0.2731 0.72027 0.35149 0.0
C931 C 0.26173 0.78616 0.33941 0.0
C932 C 0.25021 0.77567 0.32288 0.0
C933 C 0.26701 0.77614 0.3552 0.0
C934 C 0.27421 0.72655 0.36629 0.0
H935 H 0.31324 0.72378 0.46288 0.0
H936 H 0.30968 0.73969 0.43284 0.0
H937 H 0.28645 0.70291 0.37743 0.0
H938 H 0.23334 0.74706 0.31075 0.0
H939 H 0.2426 0.72935 0.33816 0.0
H940 H 0.26563 0.76598 0.39364 0.0
C941 C 0.30314 0.7241 0.43284 0.0
C942 C 0.282 0.71669 0.3811 0.0
C943 C 0.30545 0.71497 0.44993 0.0
C944 C 0.24289 0.75528 0.32294 0.0
C945 C 0.24815 0.7452 0.3387 0.0
C946 C 0.27033 0.75236 0.38987 0.0
C947 C 0.291 0.71374 0.4165 0.0
C948 C 0.28414 0.72465 0.40044 0.0
C949 C 0.26079 0.75543 0.35475 0.0
C950 C 0.2683 0.74452 0.37052 0.0
H951 H 0.27763 0.66921 0.43453 0.0
H952 H 0.27369 0.68503 0.40457 0.0
H953 H 0.27904 0.74878 0.41942 0.0
H954 H 0.2676 0.80194 0.33971 0.0
H955 H 0.27679 0.78448 0.36732 0.0
C956 C 0.55762 0.98161 0.71269 0.0
C957 C 0.57783 0.98544 0.71834 0.0
C958 C 0.5502 0.98216 0.69337 0.0
C959 C 0.56358 0.00959 0.65286 0.0
H960 H 0.51985 0.9735 0.62238 0.0
C961 C 0.53952 0.01745 0.57261 0.0
C962 C 0.51944 0.01497 0.56661 0.0
C963 C 0.54625 0.01347 0.5912 0.0
C964 C 0.53193 0.98381 0.63084 0.0
H965 H 0.60617 0.99212 0.70835 0.0
H966 H 0.59325 0.99351 0.67461 0.0
H967 H 0.53267 0.9651 0.65412 0.0
H968 H 0.49065 0.00643 0.57536 0.0
H969 H 0.50243 -0.00096 0.60783 0.0
H970 H 0.56278 0.02842 0.62981 0.0
C971 C 0.58313 0.98977 0.68502 0.0
C972 C 0.53931 0.97895 0.64892 0.0
C973 C 0.59051 0.98871 0.70424 0.0
C974 C 0.50621 0.00858 0.57965 0.0
C975 C 0.51294 0.0042 0.59815 0.0
C976 C 0.5562 0.01446 0.63485 0.0
C977 C 0.56292 0.98716 0.67952 0.0
C978 C 0.5553 0.99174 0.66005 0.0
C979 C 0.53304 0.00655 0.6041 0.0
C980 C 0.54035 0.0016 0.62358 0.0
H981 H 0.54761 0.97933 0.72341 0.0
H982 H 0.53458 0.9801 0.68956 0.0
H983 H 0.5756 0.01997 0.66133 0.0
H984 H 0.55005 0.02245 0.5629 0.0
H985 H 0.56181 0.01535 0.59532 0.0
C986 C 0.19603 0.33899 0.95648 0.0
C987 C 0.20276 0.35886 0.96381 0.0
C988 C 0.19206 0.33411 0.9366 0.0
C989 C 0.22368 0.35278 0.90574 0.0
H990 H 0.19781 0.30721 0.87044 0.0
C991 C 0.26253 0.31927 0.8474 0.0
C992 C 0.25674 0.29882 0.8422 0.0
C993 C 0.25271 0.32853 0.86032 0.0
C994 C 0.20528 0.31988 0.8803 0.0
H995 H 0.20677 0.3894 0.9569 0.0
H996 H 0.2007 0.38081 0.92202 0.0
H997 H 0.17953 0.32123 0.89367 0.0
H998 H 0.23782 0.27156 0.8477 0.0
H999 H 0.22153 0.28749 0.87137 0.0
H1000 H 0.24983 0.35039 0.8941 0.0
C1001 C 0.19828 0.36903 0.9315 0.0
C1002 C 0.19467 0.32813 0.89324 0.0
C1003 C 0.20187 0.37393 0.95146 0.0
C1004 C 0.24237 0.28743 0.85145 0.0
C1005 C 0.23281 0.29662 0.86468 0.0
C1006 C 0.23435 0.3443 0.89318 0.0
C1007 C 0.1955 0.34911 0.92406 0.0
C1008 C 0.20395 0.34431 0.90644 0.0
C1009 C 0.23723 0.31739 0.86854 0.0
C1010 C 0.22544 0.32739 0.88071 0.0
H1011 H 0.19623 0.32717 0.9659 0.0
H1012 H 0.18962 0.31861 0.93121 0.0
H1013 H 0.23138 0.36492 0.91613 0.0
H1014 H 0.27354 0.32835 0.84033 0.0
H1015 H 0.25656 0.34454 0.86294 0.0
C1016 C 0.9253 0.07296 0.29772 0.0
C1017 C 0.93198 0.06584 0.28097 0.0
C1018 C 0.93691 0.07504 0.31561 0.0
C1019 C 0.97389 0.051 0.33864 0.0
H1020 H 0.97134 0.08637 0.38329 0.0
C1021 C 0.00097 0.03495 0.41586 0.0
C1022 C 0.98855 0.03765 0.42971 0.0
C1023 C -0.0017 0.04226 0.39776 0.0
C1024 C 0.97216 0.07634 0.37096 0.0
H1025 H 0.95684 0.05764 0.26935 0.0
H1026 H 0.97724 0.06171 0.30044 0.0
H1027 H 0.95963 0.09402 0.35106 0.0
H1028 H 0.96371 0.05011 0.43568 0.0
H1029 H 0.95859 0.06218 0.40406 0.0
H1030 H 0.98552 0.03282 0.35843 0.0
C1031 C 0.96282 0.06501 0.29993 0.0
C1032 C 0.96551 0.08077 0.35249 0.0
C1033 C 0.95115 0.06272 0.28212 0.0
C1034 C 0.97351 0.04781 0.42525 0.0
C1035 C 0.97073 0.05496 0.40718 0.0
C1036 C 0.98046 0.04653 0.35706 0.0
C1037 C 0.95547 0.07023 0.317 0.0
C1038 C 0.96574 0.06781 0.33617 0.0
C1039 C 0.98307 0.05228 0.39317 0.0
C1040 C 0.97907 0.05878 0.37351 0.0
H1041 H 0.91061 0.07556 0.29726 0.0
H1042 H 0.93074 0.07903 0.32846 0.0
H1043 H 0.97409 0.04053 0.32644 0.0
H1044 H 0.01283 0.02735 0.41906 0.0
H1045 H 0.00819 0.0401 0.38739 0.0
C1046 C 0.28746 0.72443 0.55886 0.0
C1047 C 0.29527 0.70747 0.55546 0.0
C1048 C 0.28705 0.73234 0.57765 0.0
C1049 C 0.30586 0.73452 0.6288 0.0
H1050 H 0.25328 0.73903 0.63673 0.0
C1051 C 0.28516 0.7531 0.70498 0.0
C1052 C 0.27086 0.7645 0.70648 0.0
C1053 C 0.28909 0.74615 0.68687 0.0
C1054 C 0.26814 0.73825 0.63481 0.0
H1055 H 0.31024 0.68651 0.56913 0.0
H1056 H 0.30964 0.70058 0.60226 0.0
H1057 H 0.25997 0.72812 0.60489 0.0
H1058 H 0.24969 0.77785 0.69028 0.0
H1059 H 0.25713 0.76664 0.65867 0.0
H1060 H 0.31419 0.74518 0.65862 0.0
C1061 C 0.30375 0.70759 0.59023 0.0
C1062 C 0.27194 0.73186 0.61652 0.0
C1063 C 0.30413 0.69958 0.57129 0.0
C1064 C 0.26068 0.76897 0.68953 0.0
C1065 C 0.26489 0.76238 0.67141 0.0
C1066 C 0.30213 0.74124 0.64712 0.0
C1067 C 0.29448 0.72356 0.59355 0.0
C1068 C 0.29083 0.73004 0.61326 0.0
C1069 C 0.27907 0.75074 0.66978 0.0
C1070 C 0.2832 0.74331 0.65037 0.0
H1071 H 0.28081 0.73109 0.54697 0.0
H1072 H 0.28021 0.74492 0.57977 0.0
H1073 H 0.32057 0.73328 0.62666 0.0
H1074 H 0.29304 0.74918 0.71784 0.0
H1075 H 0.29978 0.73691 0.68633 0.0
C1076 C 0.57948 0.99096 0.8338 0.0
C1077 C 0.58739 0.00771 0.82474 0.0
C1078 C 0.57178 0.99327 0.85129 0.0
C1079 C 0.55101 0.03027 0.87805 0.0
H1080 H 0.55225 0.99575 0.91944 0.0
C1081 C 0.51846 0.04421 0.94833 0.0
C1082 C 0.50441 0.02811 0.95237 0.0
C1083 C 0.53072 0.04167 0.9344 0.0
C1084 C 0.55185 0.00547 0.90793 0.0
H1085 H 0.59504 0.03992 0.82768 0.0
H1086 H 0.5822 0.04386 0.85808 0.0
H1087 H 0.57051 0.99127 0.8921 0.0
H1088 H 0.49248 0.99664 0.94578 0.0
H1089 H 0.51416 0.99212 0.92151 0.0
H1090 H 0.53248 0.0445 0.89383 0.0
C1091 C 0.58117 0.02897 0.85148 0.0
C1092 C 0.56219 0.00287 0.89229 0.0
C1093 C 0.58858 0.02669 0.83403 0.0
C1094 C 0.50308 0.00932 0.94268 0.0
C1095 C 0.51559 0.00669 0.92901 0.0
C1096 C 0.54093 0.03299 0.89372 0.0
C1097 C 0.57208 0.01235 0.86002 0.0
C1098 C 0.56179 0.0152 0.87711 0.0
C1099 C 0.52932 0.02291 0.92457 0.0
C1100 C 0.54112 0.02055 0.90871 0.0
H1101 H 0.57854 0.97616 0.82704 0.0
H1102 H 0.56488 0.98015 0.85752 0.0
H1103 H 0.54997 0.03974 0.86641 0.0
H1104 H 0.51976 0.0588 0.95575 0.0
H1105 H 0.54125 0.05438 0.93123 0.0
C1106 C 0.24246 0.33094 0.06475 0.0
C1107 C 0.23376 0.34721 0.06135 0.0
C1108 C 0.23977 0.32107 0.08122 0.0
C1109 C 0.20919 0.31028 0.11926 0.0
H1110 H 0.25754 0.30496 0.14866 0.0
C1111 C 0.21651 0.28539 0.19702 0.0
C1112 C 0.23117 0.27476 0.20173 0.0
C1113 C 0.21391 0.292 0.17866 0.0
C1114 C 0.24387 0.30597 0.14046 0.0
H1115 H 0.21477 0.36542 0.07221 0.0
H1116 H 0.21014 0.34801 0.1013 0.0
H1117 H 0.25853 0.32163 0.11922 0.0
H1118 H 0.25318 0.26089 0.19056 0.0
H1119 H 0.24823 0.27184 0.15833 0.0
H1120 H 0.19454 0.29446 0.14063 0.0
C1121 C 0.21901 0.34302 0.09106 0.0
C1122 C 0.24447 0.31564 0.12369 0.0
C1123 C 0.22179 0.35302 0.07453 0.0
C1124 C 0.242 0.26935 0.18737 0.0
C1125 C 0.23923 0.27571 0.16898 0.0
C1126 C 0.20857 0.30042 0.13609 0.0
C1127 C 0.22828 0.32719 0.09464 0.0
C1128 C 0.22717 0.3177 0.11284 0.0
C1129 C 0.22582 0.28789 0.16473 0.0
C1130 C 0.22594 0.29798 0.14671 0.0
H1131 H 0.25158 0.32591 0.05479 0.0
H1132 H 0.24686 0.30873 0.0836 0.0
H1133 H 0.19567 0.31173 0.11105 0.0
H1134 H 0.20797 0.2898 0.20787 0.0
H1135 H 0.20349 0.30137 0.17583 0.0
C1136 C 0.16103 0.92324 0.02134 0.0
C1137 C 0.17958 0.93111 0.03156 0.0
C1138 C 0.14641 0.93438 0.02066 0.0
C1139 C 0.13218 0.97724 0.04611 0.0
H1140 H 0.09792 0.97595 -0.00146 0.0
C1141 C 0.07647 0.02897 0.03627 0.0
C1142 C 0.05825 0.02045 0.02573 0.0
C1143 C 0.09155 0.01835 0.03748 0.0
C1144 C 0.10722 0.97633 0.01202 0.0
H1145 H 0.19738 0.95702 0.04878 0.0
H1146 H 0.17208 0.97644 0.04736 0.0
H1147 H 0.12343 0.95676 -0.00059 0.0
H1148 H 0.04155 0.99416 0.00825 0.0
H1149 H 0.06739 0.97561 0.01084 0.0
H1150 H 0.1159 0.99679 0.05871 0.0
C1151 C 0.16865 0.96153 0.0402 0.0
C1152 C 0.12186 0.96529 0.01251 0.0
C1153 C 0.1832 0.9504 0.04093 0.0
C1154 C 0.05533 0.00109 0.0167 0.0
C1155 C 0.07028 0.99052 0.01794 0.0
C1156 C 0.11751 0.98828 0.04562 0.0
C1157 C 0.15003 0.95366 0.03013 0.0
C1158 C 0.13449 0.96553 0.02958 0.0
C1159 C 0.08868 -0.00093 0.02812 0.0
C1160 C 0.10475 0.98787 0.0286 0.0
H1161 H 0.15773 0.90842 0.014 0.0
H1162 H 0.13218 0.92775 0.01295 0.0
H1163 H 0.14148 0.97759 0.05958 0.0
H1164 H 0.07916 0.04391 0.04326 0.0
H1165 H 0.10558 0.02544 0.04534 0.0
C1166 C 0.70196 0.64782 0.01807 0.0
C1167 C 0.71156 0.64763 0.00159 0.0
C1168 C 0.68487 0.63383 0.01902 0.0
C1169 C 0.65531 0.58546 0.9949 0.0
H1170 H 0.61539 0.60052 0.02318 0.0
C1171 C 0.57443 0.54313 0.98854 0.0
C1172 C 0.56622 0.54089 0.0059 0.0
C1173 C 0.59347 0.55391 0.98861 0.0
C1174 C 0.62652 0.59604 0.01541 0.0
H1175 H 0.71101 0.63323 0.97306 0.0
H1176 H 0.68052 0.60944 0.97409 0.0
H1177 H 0.64525 0.62463 0.02151 0.0
H1178 H 0.57203 0.54727 0.03708 0.0
H1179 H 0.6051 0.56634 0.0371 0.0
H1180 H 0.63585 0.55707 0.9881 0.0
C1181 C 0.68642 0.61979 0.98666 0.0
C1182 C 0.64372 0.60984 0.01449 0.0
C1183 C 0.70376 0.63353 0.98593 0.0
C1184 C 0.57785 0.54872 0.02343 0.0
C1185 C 0.59676 0.55974 0.02346 0.0
C1186 C 0.63791 0.57176 0.99554 0.0
C1187 C 0.67679 0.61962 0.00329 0.0
C1188 C 0.65842 0.60478 0.00425 0.0
C1189 C 0.60455 0.56288 0.00602 0.0
C1190 C 0.62338 0.57692 0.00585 0.0
H1191 H 0.70795 0.65849 0.0304 0.0
H1192 H 0.67821 0.63399 0.03224 0.0
H1193 H 0.66637 0.58081 0.98718 0.0
H1194 H 0.56592 0.53719 0.9748 0.0
H1195 H 0.59914 0.55613 0.97497 0.0
C1196 C 0.66501 0.4442 0.26792 0.0
C1197 C 0.65491 0.44396 0.28416 0.0
C1198 C 0.67478 0.42908 0.26351 0.0
C1199 C 0.6797 0.37811 0.27554 0.0
H1200 H 0.72825 0.39201 0.25362 0.0
C1201 C 0.7462 0.33934 0.27978 0.0
C1202 C 0.749 0.33031 0.26201 0.0
C1203 C 0.73234 0.35114 0.28061 0.0
C1204 C 0.71456 0.38793 0.25948 0.0
H1205 H 0.64731 0.4278 0.30865 0.0
H1206 H 0.66526 0.40194 0.30162 0.0
H1207 H 0.70938 0.41731 0.25943 0.0
H1208 H 0.73948 0.32614 0.23123 0.0
H1209 H 0.71571 0.34787 0.23259 0.0
H1210 H 0.68589 0.34891 0.27664 0.0
C1211 C 0.66509 0.41341 0.29183 0.0
C1212 C 0.70366 0.40236 0.26278 0.0
C1213 C 0.65496 0.42836 0.29602 0.0
C1214 C 0.7376 0.3331 0.24506 0.0
C1215 C 0.72403 0.34536 0.24583 0.0
C1216 C 0.69083 0.36376 0.27254 0.0
C1217 C 0.67509 0.4135 0.27544 0.0
C1218 C 0.68616 0.39775 0.27106 0.0
C1219 C 0.72138 0.35446 0.26364 0.0
C1220 C 0.70839 0.36866 0.26464 0.0
H1221 H 0.66497 0.45585 0.2583 0.0
H1222 H 0.68188 0.42952 0.25054 0.0
H1223 H 0.66612 0.37382 0.28153 0.0
H1224 H 0.75464 0.33715 0.29308 0.0
H1225 H 0.73052 0.35812 0.29445 0.0
C1226 C 0.7956 0.41435 0.52191 0.0
C1227 C 0.77786 0.41943 0.5253 0.0
C1228 C 0.81255 0.42893 0.52304 0.0
C1229 C 0.83071 0.48187 0.51959 0.0
H1230 H 0.87918 0.46918 0.54156 0.0
C1231 C 0.90632 0.51647 0.49894 0.0
C1232 C 0.92276 0.51791 0.51263 0.0
C1233 C 0.88769 0.50859 0.50356 0.0
C1234 C 0.86581 0.47324 0.53569 0.0
H1235 H 0.76403 0.44387 0.53261 0.0
H1236 H 0.79392 0.46949 0.53474 0.0
H1237 H 0.84849 0.4471 0.5444 0.0
H1238 H 0.93268 0.51408 0.54231 0.0
H1239 H 0.90023 0.50081 0.55053 0.0
H1240 H 0.84822 0.50798 0.51067 0.0
C1241 C 0.79455 0.45416 0.53104 0.0
C1242 C 0.8482 0.4604 0.53711 0.0
C1243 C 0.77748 0.4395 0.52988 0.0
C1244 C 0.92023 0.51275 0.53138 0.0
C1245 C 0.90165 0.50512 0.53606 0.0
C1246 C 0.84842 0.4948 0.51817 0.0
C1247 C 0.81227 0.44898 0.52769 0.0
C1248 C 0.83051 0.46423 0.52856 0.0
C1249 C 0.88523 0.50219 0.522 0.0
C1250 C 0.86621 0.49034 0.52578 0.0
H1251 H 0.79641 0.39908 0.51816 0.0
H1252 H 0.82587 0.4245 0.51994 0.0
H1253 H 0.81729 0.48522 0.51288 0.0
H1254 H 0.90793 0.52049 0.48441 0.0
H1255 H 0.87539 0.50647 0.49234 0.0
C1256 C 0.33804 0.10506 0.22033 0.0
C1257 C 0.35571 0.10672 0.23242 0.0
C1258 C 0.32667 0.11941 0.22207 0.0
C1259 C 0.31864 0.15993 0.25612 0.0
H1260 H 0.29062 0.17483 0.2104 0.0
C1261 C 0.27945 0.22577 0.25896 0.0
C1262 C 0.26068 0.22298 0.24868 0.0
C1263 C 0.29105 0.21179 0.25652 0.0
C1264 C 0.2982 0.17069 0.22332 0.0
H1265 H 0.37534 0.12498 0.25576 0.0
H1266 H 0.35572 0.15021 0.25858 0.0
H1267 H 0.31119 0.15054 0.20709 0.0
H1268 H 0.23937 0.20337 0.22768 0.0
H1269 H 0.25975 0.17878 0.22331 0.0
H1270 H 0.30581 0.18027 0.27231 0.0
C1271 C 0.35043 0.1376 0.24794 0.0
C1272 C 0.31 0.15672 0.22144 0.0
C1273 C 0.36177 0.12317 0.24626 0.0
C1274 C 0.2538 0.20591 0.23576 0.0
C1275 C 0.2655 0.19192 0.2332 0.0
C1276 C 0.30695 0.17398 0.25797 0.0
C1277 C 0.33268 0.1359 0.23589 0.0
C1278 C 0.32036 0.1511 0.23783 0.0
C1279 C 0.28423 0.19461 0.2437 0.0
C1280 C 0.29656 0.17953 0.24161 0.0
H1281 H 0.33284 0.09255 0.20956 0.0
H1282 H 0.31298 0.11735 0.21274 0.0
H1283 H 0.32606 0.15576 0.26911 0.0
H1284 H 0.28512 0.23868 0.26918 0.0
H1285 H 0.30546 0.21448 0.26466 0.0
C1286 C 0.3148 0.12194 0.51293 0.0
C1287 C 0.32092 0.13979 0.50469 0.0
C1288 C 0.32829 0.11061 0.519 0.0
C1289 C 0.37983 0.11577 0.53588 0.0
H1290 H 0.37209 0.05962 0.51996 0.0
C1291 C 0.44263 0.07516 0.5356 0.0
C1292 C 0.43897 0.0545 0.53602 0.0
C1293 C 0.4276 0.08537 0.53678 0.0
C1294 C 0.37432 0.07516 0.52505 0.0
H1295 H 0.34569 0.1592 0.49537 0.0
H1296 H 0.36918 0.13938 0.50599 0.0
H1297 H 0.34652 0.07741 0.51065 0.0
H1298 H 0.41757 0.02847 0.54015 0.0
H1299 H 0.39132 0.04645 0.54315 0.0
H1300 H 0.40756 0.11368 0.5503 0.0
C1301 C 0.35404 0.13441 0.50807 0.0
C1302 C 0.3597 0.08535 0.51953 0.0
C1303 C 0.34058 0.14567 0.50191 0.0
C1304 C 0.42058 0.0444 0.53949 0.0
C1305 C 0.40557 0.05468 0.54105 0.0
C1306 C 0.39433 0.10554 0.54168 0.0
C1307 C 0.34807 0.11703 0.517 0.0
C1308 C 0.36261 0.10583 0.52442 0.0
C1309 C 0.40867 0.07512 0.53874 0.0
C1310 C 0.39201 0.08523 0.53581 0.0
H1311 H 0.29972 0.117 0.51519 0.0
H1312 H 0.32337 0.0972 0.5258 0.0
H1313 H 0.3822 0.13154 0.54012 0.0
H1314 H 0.45676 0.08329 0.53299 0.0
H1315 H 0.43061 0.10105 0.53477 0.0
C1316 C 0.65726 0.56661 0.25275 0.0
C1317 C 0.65896 0.55535 0.26857 0.0
C1318 C 0.66852 0.5857 0.25328 0.0
C1319 C 0.71027 0.6226 0.28019 0.0
H1320 H 0.68079 0.65958 0.25862 0.0
C1321 C 0.73698 0.70895 0.28776 0.0
C1322 C 0.73529 0.71767 0.27019 0.0
C1323 C 0.72863 0.68889 0.28866 0.0
C1324 C 0.68923 0.64942 0.26464 0.0
H1325 H 0.67452 0.55467 0.29691 0.0
H1326 H 0.694 0.58843 0.29811 0.0
H1327 H 0.66534 0.62473 0.25774 0.0
H1328 H 0.72342 0.71215 0.23987 0.0
H1329 H 0.7087 0.67743 0.24157 0.0
H1330 H 0.73408 0.64772 0.28737 0.0
C1331 C 0.68415 0.58238 0.28515 0.0
C1332 C 0.68044 0.6294 0.26402 0.0
C1333 C 0.67305 0.56304 0.28447 0.0
C1334 C 0.72507 0.70594 0.25362 0.0
C1335 C 0.71653 0.68606 0.2546 0.0
C1336 C 0.71903 0.64278 0.28098 0.0
C1337 C 0.68147 0.59419 0.26983 0.0
C1338 C 0.69094 0.61563 0.2714 0.0
C1339 C 0.71818 0.67733 0.2721 0.0
C1340 C 0.70867 0.65628 0.27287 0.0
H1341 H 0.64664 0.56091 0.24023 0.0
H1342 H 0.66656 0.59408 0.24093 0.0
H1343 H 0.71878 0.61242 0.28602 0.0
H1344 H 0.74479 0.71757 0.30078 0.0
H1345 H 0.73002 0.68252 0.30235 0.0
C1346 C 0.84814 0.49961 0.71654 0.0
C1347 C 0.85313 0.51431 0.73212 0.0
C1348 C 0.83319 0.48321 0.71708 0.0
C1349 C 0.79513 0.45839 0.74535 0.0
H1350 H 0.81868 0.41338 0.73404 0.0
C1351 C 0.77343 0.38026 0.7735 0.0
C1352 C 0.77331 0.36395 0.76032 0.0
C1353 C 0.77949 0.39962 0.76846 0.0
C1354 C 0.8117 0.4257 0.73698 0.0
H1355 H 0.84543 0.52467 0.75952 0.0
H1356 H 0.81957 0.49544 0.7609 0.0
H1357 H 0.83434 0.44599 0.72676 0.0
H1358 H 0.77832 0.3549 0.73131 0.0
H1359 H 0.7888 0.38848 0.72257 0.0
H1360 H 0.77271 0.43773 0.75619 0.0
C1361 C 0.82693 0.49674 0.7481 0.0
C1362 C 0.82063 0.44443 0.73271 0.0
C1363 C 0.84172 0.51344 0.74736 0.0
C1364 C 0.77857 0.36722 0.74186 0.0
C1365 C 0.78456 0.38644 0.73685 0.0
C1366 C 0.78612 0.43947 0.74967 0.0
C1367 C 0.82338 0.48094 0.73349 0.0
C1368 C 0.81249 0.46102 0.7368 0.0
C1369 C 0.7855 0.40284 0.75021 0.0
C1370 C 0.79437 0.42297 0.7455 0.0
H1371 H 0.85667 0.50017 0.70454 0.0
H1372 H 0.83039 0.47152 0.70535 0.0
H1373 H 0.78858 0.47093 0.74872 0.0
H1374 H 0.76926 0.37805 0.78777 0.0
H1375 H 0.78018 0.41201 0.77907 0.0
C1376 C 0.01249 0.83213 0.11171 0.0
C1377 C 0.99619 0.81699 0.11268 0.0
C1378 C 0.01106 0.84733 0.09991 0.0
C1379 C 0.97721 0.87235 0.0723 0.0
H1380 H 0.0207 0.88567 0.04272 0.0
C1381 C 0.98115 0.93484 0.02202 0.0
C1382 C -0.00151 0.94914 0.02678 0.0
C1383 C 0.97974 0.91596 0.02849 0.0
C1384 C 0.00842 0.88202 0.0508 0.0
H1385 H 0.96532 0.80649 0.10318 0.0
H1386 H 0.96283 0.83312 0.08225 0.0
H1387 H 0.01986 0.85903 0.06396 0.0
H1388 H 0.02841 0.95471 0.04043 0.0
H1389 H 0.02599 0.92188 0.05174 0.0
H1390 H 0.96604 0.89572 0.05948 0.0
C1391 C 0.97669 0.83322 0.09069 0.0
C1392 C 0.00799 0.8669 0.06306 0.0
C1393 C 0.97808 0.81804 0.10269 0.0
C1394 C 0.01481 0.94395 0.03679 0.0
C1395 C 0.01347 0.9251 0.0431 0.0
C1396 C 0.97762 0.88747 0.05999 0.0
C1397 C 0.99335 0.84758 0.08867 0.0
C1398 C 0.99269 0.86233 0.07438 0.0
C1399 C 0.99573 0.91116 0.0396 0.0
C1400 C 0.99351 0.89281 0.04956 0.0
H1401 H 0.02656 0.83181 0.11952 0.0
H1402 H 0.024 0.85858 0.09914 0.0
H1403 H 0.96525 0.86914 0.08085 0.0
H1404 H 0.96844 0.93852 0.01412 0.0
H1405 H 0.96599 0.90536 0.02541 0.0
C1406 C 0.96431 0.29035 0.81942 0.0
C1407 C 0.96719 0.27457 0.83024 0.0
C1408 C 0.94641 0.28937 0.80809 0.0
C1409 C 0.89578 0.26574 0.81119 0.0
H1410 H 0.88354 0.29205 0.76556 0.0
C1411 C 0.81689 0.26262 0.77951 0.0
C1412 C 0.81174 0.2806 0.77502 0.0
C1413 C 0.83638 0.26145 0.78369 0.0
C1414 C 0.88682 0.28477 0.77839 0.0
H1415 H 0.95487 0.24463 0.83608 0.0
H1416 H 0.92412 0.24242 0.81556 0.0
H1417 H 0.91731 0.28913 0.77531 0.0
H1418 H 0.82321 0.31138 0.77095 0.0
H1419 H 0.85755 0.30926 0.77825 0.0
H1420 H 0.86553 0.26154 0.8145 0.0
C1421 C 0.93527 0.25583 0.81625 0.0
C1422 C 0.9061 0.28303 0.78393 0.0
C1423 C 0.95298 0.25693 0.82775 0.0
C1424 C 0.82668 0.29733 0.77438 0.0
C1425 C 0.84632 0.29609 0.77845 0.0
C1426 C 0.87663 0.26741 0.80565 0.0
C1427 C 0.93127 0.27253 0.80741 0.0
C1428 C 0.91078 0.27342 0.80038 0.0
C1429 C 0.85131 0.27818 0.78342 0.0
C1430 C 0.8719 0.27689 0.78919 0.0
H1431 H 0.97497 0.30421 0.82141 0.0
H1432 H 0.94385 0.30248 0.80144 0.0
H1433 H 0.89889 0.25884 0.82432 0.0
H1434 H 0.80586 0.24939 0.78014 0.0
H1435 H 0.83977 0.24739 0.78725 0.0
C1436 C 0.47567 0.19436 0.60581 0.0
C1437 C 0.47801 0.21184 0.59643 0.0
C1438 C 0.47548 0.17623 0.5955 0.0
C1439 C 0.49625 0.16006 0.55272 0.0
H1440 H 0.47425 0.10721 0.56557 0.0
C1441 C 0.50146 0.08547 0.51211 0.0
C1442 C 0.51266 0.0747 0.5233 0.0
C1443 C 0.49591 0.102 0.52054 0.0
C1444 C 0.48047 0.12195 0.56197 0.0
H1445 H 0.47929 0.22394 0.56873 0.0
H1446 H 0.47782 0.19222 0.55053 0.0
H1447 H 0.46327 0.13585 0.57985 0.0
H1448 H 0.52681 0.07229 0.55186 0.0
H1449 H 0.51653 0.1012 0.56689 0.0
H1450 H 0.51314 0.14601 0.53458 0.0
C1451 C 0.47712 0.19251 0.56594 0.0
C1452 C 0.47423 0.1383 0.57008 0.0
C1453 C 0.47773 0.21064 0.5763 0.0
C1454 C 0.51843 0.08068 0.54299 0.0
C1455 C 0.5124 0.09695 0.55156 0.0
C1456 C 0.50222 0.14372 0.54442 0.0
C1457 C 0.47731 0.17534 0.57562 0.0
C1458 C 0.48219 0.15759 0.56568 0.0
C1459 C 0.50102 0.10758 0.54036 0.0
C1460 C 0.49455 0.12465 0.54917 0.0
H1461 H 0.47594 0.19496 0.62137 0.0
H1462 H 0.47556 0.16332 0.60344 0.0
H1463 H 0.50314 0.17467 0.54937 0.0
H1464 H 0.49676 0.0809 0.49691 0.0
H1465 H 0.48717 0.11012 0.51172 0.0
C1466 C 0.58199 0.78368 0.35091 0.0
C1467 C 0.57156 0.79779 0.34422 0.0
C1468 C 0.60021 0.78286 0.34505 0.0
C1469 C 0.64057 0.81217 0.32183 0.0
H1470 H 0.65305 0.76075 0.31025 0.0
C1471 C 0.69491 0.79607 0.26968 0.0
C1472 C 0.70918 0.78582 0.27656 0.0
C1473 C 0.68017 0.79887 0.28075 0.0
C1474 C 0.64987 0.77522 0.3137 0.0
H1475 H 0.5722 0.8221 0.32608 0.0
H1476 H 0.60357 0.82038 0.31551 0.0
H1477 H 0.62295 0.76273 0.32383 0.0
H1478 H 0.71929 0.77035 0.30028 0.0
H1479 H 0.69293 0.77461 0.31946 0.0
H1480 H 0.66707 0.82446 0.31063 0.0
C1481 C 0.59797 0.8102 0.32564 0.0
C1482 C 0.63264 0.77639 0.32153 0.0
C1483 C 0.57983 0.81108 0.33158 0.0
C1484 C 0.70857 0.77852 0.2948 0.0
C1485 C 0.69347 0.78084 0.30568 0.0
C1486 C 0.65762 0.81094 0.31372 0.0
C1487 C 0.60844 0.79608 0.33227 0.0
C1488 C 0.62757 0.79488 0.3254 0.0
C1489 C 0.67909 0.79098 0.29868 0.0
C1490 C 0.66229 0.79245 0.30933 0.0
H1491 H 0.5761 0.77326 0.36073 0.0
H1492 H 0.60789 0.77195 0.35068 0.0
H1493 H 0.63748 0.8267 0.32506 0.0
H1494 H 0.69509 0.80184 0.25566 0.0
H1495 H 0.66919 0.80663 0.27499 0.0
C1496 C 0.02467 0.21279 0.43482 0.0
C1497 C 0.00589 0.21443 0.42704 0.0
C1498 C 0.02769 0.19519 0.44234 0.0
C1499 C 0.00699 0.14184 0.4409 0.0
H1500 H 0.02839 0.14652 0.4949 0.0
C1501 C 0.99307 0.07689 0.4885 0.0
C1502 C 0.00783 0.07513 0.50302 0.0
C1503 C 0.9954 0.09317 0.4775 0.0
C1504 C 0.02277 0.14488 0.4797 0.0
H1505 H 0.97578 0.19881 0.4201 0.0
H1506 H 0.98115 0.16802 0.43273 0.0
H1507 H 0.02866 0.17635 0.47811 0.0
H1508 H 0.03667 0.08866 0.51739 0.0
H1509 H 0.04088 0.11706 0.49816 0.0
H1510 H 0.00087 0.11039 0.44246 0.0
C1511 C 0.99346 0.18034 0.43328 0.0
C1512 C 0.02293 0.162 0.47011 0.0
C1513 C 0.99036 0.19801 0.42624 0.0
C1514 C 0.02499 0.08982 0.50636 0.0
C1515 C 0.02738 0.10606 0.49534 0.0
C1516 C 0.00701 0.12468 0.45042 0.0
C1517 C 0.01207 0.17884 0.44165 0.0
C1518 C 0.01461 0.16065 0.45078 0.0
C1519 C 0.01254 0.10804 0.48088 0.0
C1520 C 0.01445 0.12603 0.47009 0.0
H1521 H 0.03687 0.22525 0.43555 0.0
H1522 H 0.04217 0.19436 0.44875 0.0
H1523 H 0.00065 0.14043 0.4259 0.0
H1524 H 0.97952 0.06595 0.486 0.0
H1525 H 0.9835 0.09437 0.46676 0.0
C1526 C 0.54283 0.3035 0.17129 0.0
C1527 C 0.52958 0.29935 0.18488 0.0
C1528 C 0.5628 0.30606 0.17692 0.0
C1529 C 0.60448 0.31803 0.21023 0.0
H1530 H 0.61449 0.26502 0.20185 0.0
C1531 C 0.6742 0.29746 0.24589 0.0
C1532 C 0.68219 0.28326 0.23608 0.0
C1533 C 0.65629 0.30137 0.23855 0.0
C1534 C 0.61216 0.28 0.20396 0.0
H1535 H 0.52688 0.29703 0.21524 0.0
H1536 H 0.56212 0.30224 0.22518 0.0
H1537 H 0.58242 0.27125 0.19101 0.0
H1538 H 0.67816 0.26221 0.21082 0.0
H1539 H 0.64721 0.26953 0.19749 0.0
H1540 H 0.63423 0.32704 0.22283 0.0
C1541 C 0.55684 0.30309 0.21017 0.0
C1542 C 0.59376 0.28348 0.19788 0.0
C1543 C 0.53677 0.30011 0.20451 0.0
C1544 C 0.67211 0.27307 0.21875 0.0
C1545 C 0.65436 0.27725 0.21118 0.0
C1546 C 0.62305 0.31465 0.21607 0.0
C1547 C 0.5698 0.30512 0.19626 0.0
C1548 C 0.58976 0.3024 0.20129 0.0
C1549 C 0.6462 0.29144 0.22101 0.0
C1550 C 0.627 0.29549 0.21337 0.0
H1551 H 0.53777 0.30294 0.15601 0.0
H1552 H 0.57265 0.30743 0.166 0.0
H1553 H 0.60155 0.33274 0.21283 0.0
H1554 H 0.68177 0.30552 0.2593 0.0
H1555 H 0.6503 0.31204 0.24677 0.0
C1556 C 0.49343 0.83516 0.91978 0.0
C1557 C 0.50907 0.82561 0.9234 0.0
C1558 C 0.49497 0.85468 0.9271 0.0
C1559 C 0.5269 0.90102 0.94799 0.0
H1560 H 0.48305 0.90522 0.97592 0.0
C1561 C 0.5216 0.97352 0.99174 0.0
C1562 C 0.50313 0.97842 0.99032 0.0
C1563 C 0.52374 0.9549 0.98435 0.0
C1564 C 0.49528 0.9044 0.96802 0.0
H1565 H 0.5391 0.82926 0.93628 0.0
H1566 H 0.54166 0.86372 0.94974 0.0
H1567 H 0.48501 0.87338 0.9602 0.0
H1568 H 0.47246 0.96796 0.97992 0.0
H1569 H 0.47616 0.93564 0.96658 0.0
H1570 H 0.5369 0.93228 0.95544 0.0
C1571 C 0.52828 0.85597 0.94107 0.0
C1572 C 0.49644 0.88615 0.95909 0.0
C1573 C 0.52679 0.83632 0.93349 0.0
C1574 C 0.48679 0.96437 0.98159 0.0
C1575 C 0.48895 0.94587 0.97394 0.0
C1576 C 0.52565 0.91946 0.95683 0.0
C1577 C 0.5121 0.865 0.93843 0.0
C1578 C 0.51206 0.88434 0.94875 0.0
C1579 C 0.50746 0.94095 0.97516 0.0
C1580 C 0.50965 0.92136 0.96671 0.0
H1581 H 0.4798 0.82739 0.91155 0.0
H1582 H 0.48248 0.86153 0.92446 0.0
H1583 H 0.53907 0.89993 0.94008 0.0
H1584 H 0.53444 0.98416 -0.00159 0.0
H1585 H 0.53813 0.95147 0.9858 0.0
C1586 C 0.93397 0.78888 0.65054 0.0
C1587 C 0.94469 0.77391 0.65251 0.0
C1588 C 0.92086 0.79156 0.66356 0.0
C1589 C 0.89432 0.76703 0.70141 0.0
H1590 H 0.88818 0.82066 0.71498 0.0
C1591 C 0.84154 0.78675 0.7539 0.0
C1592 C 0.82546 0.78981 0.74169 0.0
C1593 C 0.85946 0.78758 0.74684 0.0
C1594 C 0.89015 0.8057 0.71159 0.0
H1595 H 0.94884 0.74889 0.66851 0.0
H1596 H 0.92701 0.75424 0.69175 0.0
H1597 H 0.91235 0.8152 0.69382 0.0
H1598 H 0.81541 0.79755 0.71338 0.0
H1599 H 0.8469 0.79979 0.70134 0.0
H1600 H 0.87203 0.75769 0.71925 0.0
C1601 C 0.92847 0.76387 0.68018 0.0
C1602 C 0.90366 0.80248 0.69922 0.0
C1603 C 0.94121 0.76095 0.66696 0.0
C1604 C 0.82769 0.79504 0.72294 0.0
C1605 C 0.84564 0.79648 0.71614 0.0
C1606 C 0.88117 0.77032 0.71411 0.0
C1607 C 0.91841 0.77946 0.67889 0.0
C1608 C 0.90542 0.78305 0.69346 0.0
C1609 C 0.86144 0.79218 0.72783 0.0
C1610 C 0.87863 0.78959 0.7188 0.0
H1611 H 0.93611 0.7989 0.63934 0.0
H1612 H 0.91282 0.80327 0.6617 0.0
H1613 H 0.89505 0.75185 0.69716 0.0
H1614 H 0.83997 0.78264 0.76841 0.0
H1615 H 0.87153 0.78401 0.75592 0.0
C1616 C 0.09231 0.98472 0.83727 0.0
C1617 C 0.09623 0.00315 0.82949 0.0
C1618 C 0.08034 0.98197 0.85204 0.0
C1619 C 0.0408 0.00225 0.87023 0.0
H1620 H 0.05444 0.98162 0.91888 0.0
C1621 C 0.0142 0.02469 0.941 0.0
C1622 C 0.01091 0.01086 0.95472 0.0
C1623 C 0.02046 0.01937 0.92351 0.0
C1624 C 0.05018 0.98698 0.90518 0.0
H1625 H 0.09211 0.03352 0.83219 0.0
H1626 H 0.07153 0.02872 0.85774 0.0
H1627 H 0.07525 0.98058 0.89319 0.0
H1628 H 0.01016 0.98014 0.96019 0.0
H1629 H 0.02127 0.97097 0.92967 0.0
H1630 H 0.01624 0.00943 0.88241 0.0
C1631 C 0.07718 0.01627 0.85216 0.0
C1632 C 0.06213 0.98642 0.89053 0.0
C1633 C 0.0891 0.01903 0.83761 0.0
C1634 C 0.01267 0.99121 0.94999 0.0
C1635 C 0.01913 0.98594 0.93256 0.0
C1636 C 0.0289 0.00282 0.88482 0.0
C1637 C 0.07212 -0.00242 0.85906 0.0
C1638 C 0.05793 0.99476 0.87323 0.0
C1639 C 0.02369 0.00015 0.91944 0.0
C1640 C 0.03386 0.99585 0.9027 0.0
H1641 H 0.09763 0.97223 0.83129 0.0
H1642 H 0.07681 0.96747 0.85733 0.0
H1643 H 0.03703 0.0084 0.85683 0.0
H1644 H 0.01283 0.0399 0.94411 0.0
H1645 H 0.02394 0.03068 0.91372 0.0
C1646 C 0.72422 0.36897 0.588 0.0
C1647 C 0.71692 0.35459 0.57239 0.0
C1648 C 0.72808 0.36324 0.60665 0.0
C1649 C 0.73789 0.31847 0.62958 0.0
H1650 H 0.73799 0.35031 0.67736 0.0
C1651 C 0.76172 0.29031 0.70188 0.0
C1652 C 0.75078 0.2934 0.71693 0.0
C1653 C 0.76035 0.30071 0.68544 0.0
C1654 C 0.7379 0.34109 0.66419 0.0
H1655 H 0.70618 0.32326 0.56407 0.0
H1656 H 0.71131 0.31331 0.59667 0.0
H1657 H 0.72688 0.36174 0.64678 0.0
H1658 H 0.73048 0.31032 0.7271 0.0
H1659 H 0.72715 0.3275 0.69823 0.0
H1660 H 0.74766 0.29724 0.64679 0.0
C1661 C 0.71516 0.32893 0.59457 0.0
C1662 C 0.73172 0.3478 0.64655 0.0
C1663 C 0.71182 0.33461 0.57592 0.0
C1664 C 0.73904 0.30759 0.71564 0.0
C1665 C 0.73731 0.31763 0.69908 0.0
C1666 C 0.74368 0.3116 0.64715 0.0
C1667 C 0.72437 0.34302 0.61002 0.0
C1668 C 0.73129 0.33639 0.62899 0.0
C1669 C 0.74757 0.31402 0.68349 0.0
C1670 C 0.7435 0.32262 0.66477 0.0
H1671 H 0.72855 0.38447 0.58554 0.0
H1672 H 0.73515 0.37458 0.61807 0.0
H1673 H 0.73851 0.30953 0.61642 0.0
H1674 H 0.77116 0.27971 0.70273 0.0
H1675 H 0.76902 0.29796 0.6741 0.0
C1676 C 0.42537 0.06885 0.30814 0.0
C1677 C 0.43493 0.0614 0.29355 0.0
C1678 C 0.43098 0.06656 0.32766 0.0
C1679 C 0.45527 0.0336 0.35701 0.0
H1680 H 0.45692 0.07281 0.39984 0.0
C1681 C 0.48747 0.02443 0.43492 0.0
C1682 C 0.47788 0.03025 0.45027 0.0
C1683 C 0.48184 0.02843 0.41598 0.0
C1684 C 0.45631 0.06161 0.38805 0.0
H1685 H 0.45885 0.04709 0.28822 0.0
H1686 H 0.46872 0.04346 0.32193 0.0
H1687 H 0.4484 0.08055 0.36675 0.0
H1688 H 0.45459 0.04468 0.45749 0.0
H1689 H 0.44479 0.05157 0.42453 0.0
H1690 H 0.46315 0.01464 0.37818 0.0
C1691 C 0.45655 0.05054 0.31839 0.0
C1692 C 0.45144 0.06607 0.36907 0.0
C1693 C 0.45095 0.05278 0.29902 0.0
C1694 C 0.46235 0.03997 0.4461 0.0
C1695 C 0.45681 0.04408 0.42718 0.0
C1696 C 0.46014 0.02915 0.37592 0.0
C1697 C 0.44627 0.0568 0.33294 0.0
C1698 C 0.45102 0.05217 0.35328 0.0
C1699 C 0.46653 0.03846 0.41187 0.0
C1700 C 0.46086 0.04312 0.39172 0.0
H1701 H 0.41293 0.07549 0.30443 0.0
H1702 H 0.42275 0.07159 0.33849 0.0
H1703 H 0.45466 0.02233 0.34527 0.0
H1704 H 0.49948 0.01691 0.43753 0.0
H1705 H 0.48979 0.02403 0.40461 0.0
C1706 C 0.7998 0.70723 0.06604 0.0
C1707 C 0.79592 0.71712 0.04966 0.0
C1708 C 0.80608 0.71808 0.08397 0.0
C1709 C 0.79299 0.76149 0.10452 0.0
H1710 H 0.81448 0.74431 0.15231 0.0
C1711 C 0.76599 0.77995 0.17694 0.0
C1712 C 0.76279 0.76405 0.18844 0.0
C1713 C 0.77611 0.7787 0.16099 0.0
C1714 C 0.80844 0.74929 0.13905 0.0
H1715 H 0.79889 0.74578 0.03818 0.0
H1716 H 0.81032 0.76477 0.06944 0.0
H1717 H 0.826 0.73495 0.12197 0.0
H1718 H 0.76685 0.73418 0.19213 0.0
H1719 H 0.78367 0.73157 0.16378 0.0
H1720 H 0.77437 0.77445 0.12111 0.0
C1721 C 0.80782 0.74872 0.06866 0.0
C1722 C 0.81517 0.7441 0.12176 0.0
C1723 C 0.80116 0.73789 0.05083 0.0
C1724 C 0.76916 0.74663 0.18342 0.0
C1725 C 0.77911 0.7453 0.16742 0.0
C1726 C 0.78619 0.76653 0.12171 0.0
C1727 C 0.8087 0.7389 0.08557 0.0
C1728 C 0.80679 0.74934 0.10421 0.0
C1729 C 0.78301 0.76145 0.15624 0.0
C1730 C 0.79315 0.75966 0.13898 0.0
H1731 H 0.79617 0.69118 0.06536 0.0
H1732 H 0.80671 0.71004 0.09671 0.0
H1733 H 0.78599 0.76557 0.09126 0.0
H1734 H 0.7614 0.79363 0.18072 0.0
H1735 H 0.77888 0.79138 0.15265 0.0
C1736 C 0.06672 0.96982 0.72475 0.0
C1737 C 0.08715 0.9751 0.72857 0.0
C1738 C 0.05753 0.96802 0.70581 0.0
C1739 C 0.05921 -0.00232 0.67157 0.0
H1740 H 0.03642 0.95936 0.62797 0.0
C1741 C 0.03648 0.02216 0.59728 0.0
C1742 C 0.02039 0.01048 0.58544 0.0
C1743 C 0.04339 0.01575 0.61469 0.0
C1744 C 0.04247 0.97021 0.64012 0.0
H1745 H 0.11406 0.9803 0.7157 0.0
H1746 H 0.09788 0.97757 0.6825 0.0
H1747 H 0.05117 0.94819 0.6576 0.0
H1748 H -0.00168 0.98337 0.58268 0.0
H1749 H 0.00989 0.97246 0.6136 0.0
H1750 H 0.05028 0.01968 0.65476 0.0
C1751 C 0.08908 0.97454 0.69414 0.0
C1752 C 0.05106 0.96379 0.65692 0.0
C1753 C 0.0983 0.97606 0.71309 0.0
C1754 C 0.01083 0.9926 0.59159 0.0
C1755 C 0.01758 0.98628 0.60918 0.0
C1756 C 0.05052 0.00407 0.65497 0.0
C1757 C 0.06869 0.97159 0.69056 0.0
C1758 C 0.05962 0.97759 0.67261 0.0
C1759 C 0.03416 -0.00237 0.62079 0.0
C1760 C 0.04225 0.99047 0.63891 0.0
H1761 H 0.05786 0.96898 0.7365 0.0
H1762 H 0.04179 0.96588 0.7033 0.0
H1763 H 0.06558 0.00847 0.68372 0.0
H1764 H 0.0442 0.03594 0.59277 0.0
H1765 H 0.05638 0.02474 0.62304 0.0
C1766 C 0.69966 0.33705 0.45528 0.0
C1767 C 0.71027 0.35569 0.4634 0.0
C1768 C 0.7006 0.33068 0.43603 0.0
C1769 C 0.72267 0.34652 0.39115 0.0
H1770 H 0.72293 0.29043 0.38337 0.0
C1771 C 0.75945 0.31096 0.33108 0.0
C1772 C 0.7466 0.29607 0.31857 0.0
C1773 C 0.75368 0.31831 0.34821 0.0
C1774 C 0.72283 0.3061 0.38534 0.0
H1775 H 0.72963 0.38257 0.45787 0.0
H1776 H 0.73217 0.3713 0.42477 0.0
H1777 H 0.71378 0.30368 0.41332 0.0
H1778 H 0.71791 0.27678 0.31448 0.0
H1779 H 0.70823 0.28903 0.34487 0.0
H1780 H 0.73293 0.34883 0.36341 0.0
C1781 C 0.72241 0.36172 0.43268 0.0
C1782 C 0.71733 0.31376 0.40244 0.0
C1783 C 0.72096 0.36829 0.45173 0.0
C1784 C 0.72815 0.28822 0.32386 0.0
C1785 C 0.72258 0.29521 0.34121 0.0
C1786 C 0.72862 0.33891 0.37424 0.0
C1787 C 0.71286 0.34248 0.42473 0.0
C1788 C 0.71722 0.33413 0.40571 0.0
C1789 C 0.73516 0.31057 0.35336 0.0
C1790 C 0.72881 0.31865 0.37123 0.0
H1791 H 0.69145 0.32702 0.46411 0.0
H1792 H 0.69241 0.31608 0.43035 0.0
H1793 H 0.72244 0.36217 0.39276 0.0
H1794 H 0.77366 0.31746 0.32727 0.0
H1795 H 0.76367 0.33009 0.35743 0.0
C1796 C 0.41753 0.06395 0.17111 0.0
C1797 C 0.42972 0.07429 0.18735 0.0
C1798 C 0.42497 0.06114 0.15362 0.0
C1799 C 0.47276 0.05791 0.13826 0.0
H1800 H 0.44402 0.0485 0.08684 0.0
C1801 C 0.50798 0.0447 0.06902 0.0
C1802 C 0.49687 0.03139 0.05397 0.0
C1803 C 0.49987 0.04909 0.08574 0.0
C1804 C 0.45214 0.05084 0.10117 0.0
H1805 H 0.45856 0.09143 0.19773 0.0
H1806 H 0.47128 0.08786 0.16686 0.0
H1807 H 0.42921 0.06132 0.11364 0.0
H1808 H 0.46952 0.0107 0.04526 0.0
H1809 H 0.45512 0.01844 0.07443 0.0
H1810 H 0.49572 0.04756 0.12576 0.0
C1811 C 0.45619 0.08117 0.16773 0.0
C1812 C 0.44369 0.0583 0.11653 0.0
C1813 C 0.44884 0.08361 0.18531 0.0
C1814 C 0.47807 0.02147 0.05645 0.0
C1815 C 0.4699 0.02588 0.07313 0.0
C1816 C 0.48124 0.0506 0.12292 0.0
C1817 C 0.44473 0.06882 0.15206 0.0
C1818 C 0.45392 0.062 0.13529 0.0
C1819 C 0.48049 0.04026 0.08768 0.0
C1820 C 0.47106 0.04701 0.10419 0.0
H1821 H 0.40286 0.05622 0.17251 0.0
H1822 H 0.41568 0.05152 0.14196 0.0
H1823 H 0.4809 0.05994 0.15257 0.0
H1824 H 0.52248 0.05268 0.06733 0.0
H1825 H 0.50841 0.06027 0.09664 0.0
C1826 C 0.79804 0.71623 0.9494 0.0
C1827 C 0.7904 0.69651 0.95245 0.0
C1828 C 0.8038 0.7208 0.93156 0.0
C1829 C 0.77719 0.7084 0.88956 0.0
H1830 H 0.81667 0.73975 0.86352 0.0
C1831 C 0.75498 0.7398 0.81955 0.0
C1832 C 0.76563 0.75803 0.81533 0.0
C1833 C 0.76177 0.73033 0.83493 0.0
C1834 C 0.80547 0.7312 0.87074 0.0
H1835 H 0.78496 0.66585 0.9406 0.0
H1836 H 0.7936 0.67403 0.90865 0.0
H1837 H 0.82638 0.72515 0.89318 0.0
H1838 H 0.79146 0.78103 0.82395 0.0
H1839 H 0.80259 0.76532 0.85226 0.0
H1840 H 0.75607 0.71609 0.86921 0.0
C1841 C 0.79585 0.6858 0.92025 0.0
C1842 C 0.8111 0.72254 0.8874 0.0
C1843 C 0.79063 0.68118 0.93834 0.0
C1844 C 0.78295 0.76702 0.82713 0.0
C1845 C 0.78945 0.75783 0.84308 0.0
C1846 C 0.77154 0.71753 0.87349 0.0
C1847 C 0.80129 0.70573 0.91648 0.0
C1848 C 0.7969 0.71119 0.89688 0.0
C1849 C 0.77901 0.73922 0.84702 0.0
C1850 C 0.78554 0.72915 0.86386 0.0
H1851 H 0.79831 0.7282 0.96035 0.0
H1852 H 0.80777 0.73626 0.92884 0.0
H1853 H 0.76599 0.70026 0.89712 0.0
H1854 H 0.74186 0.73226 0.81033 0.0
H1855 H 0.75361 0.71577 0.83698 0.0
C1856 C 0.85166 0.12975 0.97997 0.0
C1857 C 0.84161 0.13404 0.99549 0.0
C1858 C 0.86676 0.11937 0.98252 0.0
C1859 C 0.88434 0.08364 0.01243 0.0
H1860 H 0.93382 0.10184 0.99344 0.0
C1861 C 0.94841 0.0441 0.02795 0.0
C1862 C 0.96041 0.04264 0.01344 0.0
C1863 C 0.93456 0.05604 0.02629 0.0
C1864 C 0.92001 0.09635 -0.00141 0.0
H1865 H 0.83965 0.13088 0.02592 0.0
H1866 H 0.86584 0.11253 0.03026 0.0
H1867 H 0.90833 0.121 0.98916 0.0
H1868 H 0.96739 0.05229 0.98577 0.0
H1869 H 0.94282 0.07259 0.98245 0.0
H1870 H 0.89558 0.0587 0.02133 0.0
C1871 C 0.86201 0.11723 0.01613 0.0
C1872 C 0.90544 0.10741 -0.0038 0.0
C1873 C 0.84708 0.12781 0.01365 0.0
C1874 C 0.95841 0.05334 -0.00275 0.0
C1875 C 0.94437 0.06506 0.99543 0.0
C1876 C 0.89878 0.07243 0.01459 0.0
C1877 C 0.87197 0.11285 0.00059 0.0
C1878 C 0.88748 0.10119 0.00314 0.0
C1879 C 0.93218 0.06653 0.0099 0.0
C1880 C 0.91685 0.07863 0.00774 0.0
H1881 H 0.84783 0.13434 0.96579 0.0
H1882 H 0.8741 0.11607 0.97025 0.0
H1883 H 0.87053 0.07836 0.0177 0.0
H1884 H 0.94983 0.03611 0.04067 0.0
H1885 H 0.92579 0.0571 0.03794 0.0
C1886 C 0.297 0.43384 0.02564 0.0
C1887 C 0.29095 0.41888 0.01028 0.0
C1888 C 0.31466 0.44747 0.02622 0.0
C1889 C 0.35065 0.47149 -0.00257 0.0
H1890 H 0.39011 0.46703 0.03918 0.0
C1891 C 0.43256 0.49623 0.9922 0.0
C1892 C 0.44553 0.50322 0.00908 0.0
C1893 C 0.41275 0.48911 0.99322 0.0
C1894 C 0.37924 0.4689 0.02765 0.0
H1895 H 0.29794 0.40703 0.98304 0.0
H1896 H 0.32848 0.43136 0.98373 0.0
H1897 H 0.35647 0.44973 0.03938 0.0
H1898 H 0.44769 0.50895 0.04024 0.0
H1899 H 0.41314 0.49705 0.04196 0.0
H1900 H 0.37323 0.49069 0.98564 0.0
C1901 C 0.31971 0.43229 0.99542 0.0
C1902 C 0.35998 0.45891 0.02778 0.0
C1903 C 0.30236 0.41834 0.9951 0.0
C1904 C 0.43815 0.50343 0.02695 0.0
C1905 C 0.4183 0.49653 0.02796 0.0
C1906 C 0.36984 0.48178 -0.00254 0.0
C1907 C 0.32618 0.4467 0.01116 0.0
C1908 C 0.34568 0.45972 0.01242 0.0
C1909 C 0.40537 0.48902 0.01113 0.0
C1910 C 0.38451 0.48015 0.01228 0.0
H1911 H 0.28847 0.4345 0.03754 0.0
H1912 H 0.31945 0.45846 0.03851 0.0
H1913 H 0.33976 0.47239 0.98551 0.0
H1914 H 0.43776 0.49582 0.9782 0.0
H1915 H 0.40335 0.48313 0.97997 0.0
C1916 C 0.37046 0.63296 0.75082 0.0
C1917 C 0.36111 0.61281 0.74802 0.0
C1918 C 0.35966 0.64772 0.75292 0.0
C1919 C 0.31013 0.65681 0.74173 0.0
H1920 H 0.32749 0.70116 0.78101 0.0
C1921 C 0.26022 0.70987 0.76004 0.0
C1922 C 0.26851 0.73023 0.76249 0.0
C1923 C 0.27205 0.69594 0.75893 0.0
C1924 C 0.32256 0.68897 0.76985 0.0
H1925 H 0.3331 0.59237 0.74542 0.0
H1926 H 0.31429 0.61813 0.74916 0.0
H1927 H 0.34727 0.67609 0.77758 0.0
H1928 H 0.29562 0.75202 0.76587 0.0
H1929 H 0.31637 0.72775 0.76401 0.0
H1930 H 0.28549 0.66963 0.73393 0.0
C1931 C 0.32996 0.62251 0.74954 0.0
C1932 C 0.33389 0.67463 0.76788 0.0
C1933 C 0.34075 0.60774 0.74753 0.0
C1934 C 0.28887 0.73643 0.76426 0.0
C1935 C 0.30074 0.72251 0.76316 0.0
C1936 C 0.29885 0.67112 0.74368 0.0
C1937 C 0.33928 0.64266 0.75216 0.0
C1938 C 0.32768 0.65828 0.75392 0.0
C1939 C 0.29242 0.7021 0.76019 0.0
C1940 C 0.30482 0.68725 0.75789 0.0
H1941 H 0.38614 0.63737 0.75124 0.0
H1942 H 0.36724 0.66312 0.75475 0.0
H1943 H 0.30518 0.64463 0.73056 0.0
H1944 H 0.24455 0.70469 0.75866 0.0
H1945 H 0.26521 0.68033 0.75697 0.0
C1946 C 0.23619 0.61606 0.51701 0.0
C1947 C 0.24335 0.62158 0.49985 0.0
C1948 C 0.21803 0.60335 0.51633 0.0
C1949 C 0.17578 0.57097 0.48686 0.0
H1950 H 0.14672 0.60428 0.51336 0.0
C1951 C 0.0905 0.55734 0.47975 0.0
C1952 C 0.08282 0.56035 0.49716 0.0
C1953 C 0.11071 0.56214 0.47925 0.0
C1954 C 0.15461 0.59463 0.50611 0.0
H1955 H 0.23837 0.61705 0.46864 0.0
H1956 H 0.20662 0.59445 0.46742 0.0
H1957 H 0.18186 0.61461 0.51503 0.0
H1958 H 0.09002 0.5703 0.52764 0.0
H1959 H 0.12497 0.57856 0.52681 0.0
H1960 H 0.14824 0.55092 0.47801 0.0
C1961 C 0.21504 0.59978 0.48135 0.0
C1962 C 0.17474 0.60053 0.50711 0.0
C1963 C 0.23318 0.61264 0.48204 0.0
C1964 C 0.09555 0.56794 0.514 0.0
C1965 C 0.11558 0.57275 0.5135 0.0
C1966 C 0.15547 0.56489 0.48601 0.0
C1967 C 0.20682 0.59609 0.49847 0.0
C1968 C 0.18557 0.5887 0.49771 0.0
C1969 C 0.12342 0.57015 0.49612 0.0
C1970 C 0.14474 0.57662 0.49583 0.0
H1971 H 0.24369 0.62309 0.53086 0.0
H1972 H 0.21199 0.60062 0.52973 0.0
H1973 H 0.18385 0.56176 0.47928 0.0
H1974 H 0.08091 0.55139 0.46659 0.0
H1975 H 0.11635 0.56004 0.46563 0.0
C1976 C 0.66579 0.94513 0.76021 0.0
C1977 C 0.64851 0.9446 0.7686 0.0
C1978 C 0.67557 0.92949 0.76142 0.0
C1979 C 0.66951 0.8767 0.76627 0.0
H1980 H 0.72531 0.88976 0.78224 0.0
C1981 C 0.71725 0.8168 0.77016 0.0
C1982 C 0.73594 0.82224 0.76457 0.0
C1983 C 0.70566 0.83095 0.7722 0.0
C1984 C 0.70978 0.88582 0.77751 0.0
H1985 H 0.62777 0.92705 0.78463 0.0
H1986 H 0.64484 0.89937 0.78641 0.0
H1987 H 0.7067 0.91585 0.78285 0.0
H1988 H 0.75692 0.8464 0.75594 0.0
H1989 H 0.73664 0.87077 0.75867 0.0
H1990 H 0.6727 0.84676 0.76018 0.0
C1991 C 0.65077 0.91206 0.77901 0.0
C1992 C 0.69912 0.90079 0.778 0.0
C1993 C 0.64108 0.9279 0.77805 0.0
C1994 C 0.74266 0.84187 0.76057 0.0
C1995 C 0.73106 0.85588 0.7623 0.0
C1996 C 0.68025 0.86169 0.76553 0.0
C1997 C 0.66821 0.91282 0.77084 0.0
C1998 C 0.67896 0.89646 0.77206 0.0
C1999 C 0.71252 0.85075 0.76843 0.0
C2000 C 0.70061 0.86615 0.77076 0.0
H2001 H 0.67193 0.95775 0.75283 0.0
H2002 H 0.68887 0.93036 0.7548 0.0
H2003 H 0.65397 0.87301 0.76156 0.0
H2004 H 0.71172 0.80175 0.77324 0.0
H2005 H 0.69151 0.82646 0.77704 0.0
C2006 C 0.69401 0.93981 0.49065 0.0
C2007 C 0.69839 0.93196 0.50823 0.0
C2008 C 0.67742 0.9478 0.4874 0.0
C2009 C 0.643 0.97033 0.5112 0.0
H2010 H 0.60812 0.9525 0.46358 0.0
C2011 C 0.58234 0.01011 0.4875 0.0
C2012 C 0.56365 -0.00208 0.48448 0.0
C2013 C 0.59876 0.0017 0.4883 0.0
C2014 C 0.61776 0.95755 0.4769 0.0
H2015 H 0.6894 0.92711 0.53651 0.0
H2016 H 0.66054 0.94158 0.53092 0.0
H2017 H 0.63725 0.93853 0.47045 0.0
H2018 H 0.54724 0.96768 0.47834 0.0
H2019 H 0.57612 0.9529 0.47941 0.0
H2020 H 0.62364 0.9894 0.51764 0.0
C2021 C 0.66987 0.94129 0.51964 0.0
C2022 C 0.63439 0.94968 0.48079 0.0
C2023 C 0.68636 0.93306 0.52283 0.0
C2024 C 0.56156 0.97733 0.48069 0.0
C2025 C 0.57803 0.9689 0.48132 0.0
C2026 C 0.62655 0.97837 0.5072 0.0
C2027 C 0.66508 0.94833 0.50174 0.0
C2028 C 0.64719 0.95613 0.49791 0.0
C2029 C 0.5967 0.98102 0.48591 0.0
C2030 C 0.61392 0.97218 0.48995 0.0
H2031 H 0.70298 0.93915 0.4791 0.0
H2032 H 0.67415 0.95344 0.4736 0.0
H2033 H 0.65267 0.9755 0.52449 0.0
H2034 H 0.58429 0.02605 0.49037 0.0
H2035 H 0.61308 0.01132 0.49154 0.0
C2036 C 0.34924 0.48015 0.71983 0.0
C2037 C 0.35101 0.4962 0.73378 0.0
C2038 C 0.33803 0.46164 0.72218 0.0
C2039 C 0.30246 0.43386 0.75145 0.0
H2040 H 0.32791 0.39105 0.73721 0.0
C2041 C 0.28128 0.35259 0.77294 0.0
C2042 C 0.28008 0.33752 0.75797 0.0
C2043 C 0.2883 0.37253 0.77012 0.0
C2044 C 0.32052 0.4028 0.74112 0.0
H2045 H 0.3417 0.5059 0.76063 0.0
H2046 H 0.32243 0.47318 0.76517 0.0
H2047 H 0.34232 0.4248 0.73169 0.0
H2048 H 0.28509 0.33175 0.72821 0.0
H2049 H 0.29742 0.3663 0.72347 0.0
H2050 H 0.28087 0.41151 0.76136 0.0
C2051 C 0.32942 0.475 0.75219 0.0
C2052 C 0.32872 0.4222 0.73786 0.0
C2053 C 0.34042 0.49374 0.74961 0.0
C2054 C 0.28585 0.34288 0.74011 0.0
C2055 C 0.29299 0.36271 0.73737 0.0
C2056 C 0.29431 0.41435 0.7549 0.0
C2057 C 0.32869 0.45855 0.73881 0.0
C2058 C 0.3197 0.43799 0.74271 0.0
C2059 C 0.29445 0.37774 0.75237 0.0
C2060 C 0.30317 0.39861 0.74954 0.0
H2061 H 0.35713 0.48176 0.70738 0.0
H2062 H 0.33727 0.44954 0.71124 0.0
H2063 H 0.29509 0.44562 0.75533 0.0
H2064 H 0.27688 0.34901 0.78685 0.0
H2065 H 0.28937 0.38381 0.78196 0.0
C2066 C 0.17027 0.54551 0.27287 0.0
C2067 C 0.15959 0.54451 0.2887 0.0
C2068 C 0.18402 0.56269 0.27101 0.0
C2069 C 0.21185 0.61061 0.29584 0.0
H2070 H 0.19692 0.6321 0.24792 0.0
C2071 C 0.22491 0.69425 0.28701 0.0
C2072 C 0.23144 0.70079 0.26986 0.0
C2073 C 0.21987 0.67399 0.28915 0.0
C2074 C 0.20156 0.62619 0.2612 0.0
H2075 H 0.15622 0.55955 0.31592 0.0
H2076 H 0.18064 0.58927 0.313 0.0
H2077 H 0.18308 0.59771 0.25256 0.0
H2078 H 0.23782 0.69157 0.24148 0.0
H2079 H 0.22838 0.65595 0.24497 0.0
H2080 H 0.22978 0.63938 0.30474 0.0
C2081 C 0.17827 0.577 0.3019 0.0
C2082 C 0.19369 0.60648 0.26383 0.0
C2083 C 0.16428 0.56001 0.30358 0.0
C2084 C 0.23287 0.68681 0.25486 0.0
C2085 C 0.22743 0.66649 0.25684 0.0
C2086 C 0.21975 0.63033 0.29319 0.0
C2087 C 0.18754 0.5789 0.28514 0.0
C2088 C 0.19845 0.59862 0.28133 0.0
C2089 C 0.22091 0.65989 0.27404 0.0
C2090 C 0.21434 0.63843 0.27601 0.0
H2091 H 0.1668 0.5338 0.26114 0.0
H2092 H 0.1911 0.56375 0.25802 0.0
H2093 H 0.21581 0.60488 0.30942 0.0
H2094 H 0.22381 0.70481 0.29882 0.0
H2095 H 0.21469 0.66935 0.30248 0.0
C2096 C 0.49397 0.73903 0.4284 0.0
C2097 C 0.50788 0.74564 0.41605 0.0
C2098 C 0.49636 0.72408 0.44032 0.0
C2099 C 0.52193 0.68263 0.44432 0.0
H2100 H 0.50435 0.68115 0.49498 0.0
C2101 C 0.5344 0.62233 0.49337 0.0
C2102 C 0.51704 0.6109 0.49801 0.0
C2103 C 0.53443 0.64061 0.48605 0.0
C2104 C 0.5093 0.68146 0.48086 0.0
H2105 H 0.53558 0.74226 0.40706 0.0
H2106 H 0.54003 0.71643 0.42823 0.0
H2107 H 0.50296 0.71007 0.47686 0.0
H2108 H 0.48643 0.60997 0.50003 0.0
H2109 H 0.48659 0.64232 0.48749 0.0
H2110 H 0.52843 0.65412 0.44844 0.0
C2111 C 0.52701 0.7225 0.42835 0.0
C2112 C 0.50845 0.69791 0.47044 0.0
C2113 C 0.52453 0.73736 0.41628 0.0
C2114 C 0.49997 0.61853 0.49641 0.0
C2115 C 0.50007 0.63701 0.48936 0.0
C2116 C 0.52304 0.66638 0.45483 0.0
C2117 C 0.51281 0.71548 0.4403 0.0
C2118 C 0.51464 0.69861 0.45197 0.0
C2119 C 0.51718 0.64786 0.48356 0.0
C2120 C 0.51666 0.66561 0.47311 0.0
H2121 H 0.48094 0.74508 0.42859 0.0
H2122 H 0.485 0.71887 0.4491 0.0
H2123 H 0.52636 0.6824 0.42997 0.0
H2124 H 0.54777 0.61677 0.49458 0.0
H2125 H 0.54781 0.64884 0.48178 0.0
C2126 C 0.54394 0.27791 0.69222 0.0
C2127 C 0.54038 0.26127 0.67858 0.0
C2128 C 0.56137 0.28262 0.70494 0.0
C2129 C 0.61128 0.27528 0.70503 0.0
H2130 H 0.61943 0.29148 0.76004 0.0
C2131 C 0.67805 0.2663 0.75308 0.0
C2132 C 0.69101 0.2841 0.76046 0.0
C2133 C 0.65894 0.2664 0.74563 0.0
C2134 C 0.61727 0.28728 0.74462 0.0
H2135 H 0.55101 0.23547 0.66874 0.0
H2136 H 0.58092 0.24323 0.69123 0.0
H2137 H 0.58626 0.2853 0.74231 0.0
H2138 H 0.69362 0.31579 0.76697 0.0
H2139 H 0.65973 0.31575 0.75411 0.0
H2140 H 0.64198 0.27646 0.70737 0.0
C2141 C 0.57071 0.25304 0.69175 0.0
C2142 C 0.5984 0.28372 0.73452 0.0
C2143 C 0.55353 0.24848 0.67901 0.0
C2144 C 0.68401 0.30185 0.76132 0.0
C2145 C 0.66467 0.30186 0.75404 0.0
C2146 C 0.62995 0.27872 0.71507 0.0
C2147 C 0.57528 0.27064 0.70415 0.0
C2148 C 0.59519 0.27697 0.71477 0.0
C2149 C 0.65224 0.2842 0.74565 0.0
C2150 C 0.63301 0.28415 0.735 0.0
H2151 H 0.53405 0.28808 0.69204 0.0
H2152 H 0.5645 0.29622 0.71444 0.0
H2153 H 0.60933 0.2707 0.68969 0.0
H2154 H 0.68288 0.25237 0.75212 0.0
H2155 H 0.64952 0.25262 0.73918 0.0
C2156 C 0.03464 0.35587 0.91428 0.0
C2157 C 0.01938 0.34894 0.89927 0.0
C2158 C 0.03582 0.37416 0.9248 0.0
C2159 C 0.0155 0.41975 0.9267 0.0
H2160 H 0.0104 0.40974 0.98001 0.0
C2161 C 0.9754 0.46538 0.9733 0.0
C2162 C 0.9841 0.4717 0.99225 0.0
C2163 C 0.98241 0.45132 0.9623 0.0
C2164 C 0.0121 0.41294 0.96527 0.0
H2165 H 0.99457 0.35598 0.88221 0.0
H2166 H -0.00308 0.38804 0.90007 0.0
H2167 H 0.02151 0.38588 0.95894 0.0
H2168 H 0.00573 0.46753 0.01523 0.0
H2169 H 0.01794 0.4429 -0.00391 0.0
H2170 H 0.00559 0.44656 0.93288 0.0
C2171 C 0.00792 0.37954 0.90389 0.0
C2172 C 0.01861 0.39935 0.95324 0.0
C2173 C 0.00651 0.36119 0.89369 0.0
C2174 C -0.00112 0.46282 0.00055 0.0
C2175 C 0.00586 0.44876 0.9896 0.0
C2176 C 0.00909 0.4334 0.93875 0.0
C2177 C 0.02196 0.38575 0.92013 0.0
C2178 C 0.01974 0.40231 0.93369 0.0
C2179 C -0.00187 0.44334 0.97016 0.0
C2180 C 0.00668 0.42979 0.95797 0.0
H2181 H 0.04456 0.34647 0.91889 0.0
H2182 H 0.04682 0.37869 0.93723 0.0
H2183 H 0.0164 0.42244 0.91171 0.0
H2184 H 0.96395 0.47205 0.96667 0.0
H2185 H 0.9758 0.44702 0.9475 0.0
C2186 C 0.93052 0.75457 0.18064 0.0
C2187 C 0.93589 0.77159 0.17089 0.0
C2188 C 0.91367 0.75181 0.18985 0.0
C2189 C 0.86589 0.76431 0.18911 0.0
H2190 H 0.87047 0.75716 0.2438 0.0
C2191 C 0.80588 0.77541 0.23586 0.0
C2192 C 0.80393 0.76538 0.25256 0.0
C2193 C 0.82058 0.77325 0.22453 0.0
C2194 C 0.86872 0.75865 0.22843 0.0
H2195 H 0.92771 0.79894 0.16303 0.0
H2196 H 0.89807 0.79385 0.17879 0.0
H2197 H 0.89895 0.75898 0.22671 0.0
H2198 H 0.8149 0.74424 0.26988 0.0
H2199 H 0.8402 0.73981 0.24974 0.0
H2200 H 0.83564 0.76362 0.19056 0.0
C2201 C 0.90697 0.78274 0.17934 0.0
C2202 C 0.88514 0.75984 0.2187 0.0
C2203 C 0.92399 0.78569 0.17044 0.0
C2204 C 0.81628 0.75233 0.25719 0.0
C2205 C 0.83086 0.74994 0.24571 0.0
C2206 C 0.84936 0.76274 0.19874 0.0
C2207 C 0.90169 0.7658 0.18917 0.0
C2208 C 0.88395 0.76305 0.19905 0.0
C2209 C 0.83358 0.7608 0.22951 0.0
C2210 C 0.85061 0.7603 0.21866 0.0
H2211 H 0.9394 0.74345 0.18128 0.0
H2212 H 0.90988 0.73862 0.19734 0.0
H2213 H 0.86458 0.76655 0.17387 0.0
H2214 H 0.79653 0.78558 0.23192 0.0
H2215 H 0.82221 0.78206 0.21236 0.0
C2216 C 0.51692 0.35327 0.10696 0.0
C2217 C 0.51706 0.33512 0.09656 0.0
C2218 C 0.51826 0.37069 0.09763 0.0
C2219 C 0.50609 0.38567 0.04946 0.0
H2220 H 0.53541 0.43789 0.07006 0.0
C2221 C 0.50985 0.45219 0.00398 0.0
C2222 C 0.50911 0.47061 0.01328 0.0
C2223 C 0.51207 0.43627 0.01473 0.0
C2224 C 0.52696 0.42344 0.06421 0.0
H2225 H 0.52028 0.32135 0.06862 0.0
H2226 H 0.52276 0.35174 0.05244 0.0
H2227 H 0.53801 0.40918 0.08811 0.0
H2228 H 0.51051 0.48696 0.04102 0.0
H2229 H 0.51374 0.45909 0.0599 0.0
H2230 H 0.49465 0.39972 0.02585 0.0
C2231 C 0.52119 0.3524 0.06769 0.0
C2232 C 0.52852 0.40701 0.07453 0.0
C2233 C 0.51989 0.33502 0.07699 0.0
C2234 C 0.51088 0.4729 0.03353 0.0
C2235 C 0.51292 0.45694 0.04432 0.0
C2236 C 0.50443 0.40203 0.03925 0.0
C2237 C 0.51974 0.37028 0.07775 0.0
C2238 C 0.51826 0.38792 0.06712 0.0
C2239 C 0.51342 0.43836 0.03504 0.0
C2240 C 0.51499 0.42111 0.04635 0.0
H2241 H 0.51487 0.35388 0.1221 0.0
H2242 H 0.51711 0.38424 0.10577 0.0
H2243 H 0.49758 0.37123 0.04364 0.0
H2244 H 0.50871 0.45007 0.98837 0.0
H2245 H 0.51281 0.42231 0.00709 0.0
C2246 C 0.94958 0.25018 0.34136 0.0
C2247 C 0.96807 0.26175 0.34819 0.0
C2248 C 0.93958 0.25381 0.32409 0.0
C2249 C 0.93213 0.29684 0.30382 0.0
H2250 H 0.8931 0.25952 0.26886 0.0
C2251 C 0.85074 0.29239 0.29601 0.0
C2252 C 0.84083 0.29322 0.27772 0.0
C2253 C 0.87054 0.29203 0.29806 0.0
C2254 C 0.90421 0.27026 0.2781 0.0
H2255 H 0.99149 0.28483 0.34157 0.0
H2256 H 0.97348 0.29183 0.31172 0.0
H2257 H 0.92267 0.24936 0.28266 0.0
H2258 H 0.8435 0.29445 0.2472 0.0
H2259 H 0.8782 0.29273 0.25076 0.0
H2260 H 0.91255 0.31685 0.30111 0.0
C2261 C 0.96694 0.27975 0.31955 0.0
C2262 C 0.92107 0.26447 0.28597 0.0
C2263 C 0.97716 0.27579 0.33664 0.0
C2264 C 0.85098 0.29393 0.26149 0.0
C2265 C 0.87072 0.29298 0.26347 0.0
C2266 C 0.91514 0.30248 0.29624 0.0
C2267 C 0.94774 0.26935 0.31361 0.0
C2268 C 0.93457 0.27733 0.29978 0.0
C2269 C 0.88056 0.29199 0.28178 0.0
C2270 C 0.90064 0.28883 0.28419 0.0
H2271 H 0.94239 0.2391 0.3499 0.0
H2272 H 0.92472 0.24568 0.31994 0.0
H2273 H 0.94223 0.30699 0.31455 0.0
H2274 H 0.84315 0.29186 0.30869 0.0
H2275 H 0.8779 0.291 0.31229 0.0
C2276 C 0.99594 0.71371 0.62371 0.0
C2277 C 0.00599 0.73297 0.62155 0.0
C2278 C -0.00316 0.69783 0.61068 0.0
C2279 C 0.00794 0.68697 0.56093 0.0
H2280 H 0.00226 0.63363 0.57683 0.0
C2281 C 0.01335 0.61467 0.51432 0.0
C2282 C -0.00211 0.59849 0.51513 0.0
C2283 C 0.01465 0.63251 0.52566 0.0
C2284 C 0.0038 0.64847 0.57222 0.0
H2285 H 0.02581 0.75053 0.60469 0.0
H2286 H 0.02809 0.72258 0.58233 0.0
H2287 H 0.00628 0.66156 0.60114 0.0
H2288 H 0.97097 0.58887 0.52749 0.0
H2289 H 0.97355 0.61975 0.54738 0.0
H2290 H 0.00595 0.67355 0.53193 0.0
C2291 C 0.01893 0.71987 0.59371 0.0
C2292 C 0.00602 0.66448 0.58611 0.0
C2293 C 0.01778 0.73586 0.60662 0.0
C2294 C 0.98312 0.60096 0.5265 0.0
C2295 C 0.98461 0.6186 0.538 0.0
C2296 C 0.00607 0.67091 0.54704 0.0
C2297 C 0.00811 0.70072 0.59532 0.0
C2298 C 0.00772 0.68393 0.58064 0.0
C2299 C 0.00067 0.63427 0.53812 0.0
C2300 C 0.00362 0.65153 0.55258 0.0
H2301 H 0.98658 0.71098 0.63495 0.0
H2302 H 0.98801 0.68344 0.61225 0.0
H2303 H 0.00893 0.70167 0.55612 0.0
H2304 H 0.02492 0.61327 0.50567 0.0
H2305 H 0.02715 0.64448 0.52553 0.0
C2306 C 0.57236 0.80066 0.85459 0.0
C2307 C 0.55511 0.78716 0.85614 0.0
C2308 C 0.58233 0.79849 0.83864 0.0
C2309 C 0.58781 0.75893 0.80306 0.0
H2310 H 0.62556 0.80209 0.78778 0.0
C2311 C 0.65479 0.75045 0.76274 0.0
C2312 C 0.67155 0.75834 0.77588 0.0
C2313 C 0.63666 0.7542 0.76643 0.0
C2314 C 0.61474 0.78993 0.79153 0.0
H2315 H 0.53354 0.76211 0.84191 0.0
H2316 H 0.55047 0.75873 0.81365 0.0
H2317 H 0.59938 0.80953 0.8053 0.0
H2318 H 0.68264 0.77597 0.80314 0.0
H2319 H 0.6512 0.78259 0.80941 0.0
H2320 H 0.60381 0.73945 0.78991 0.0
C2321 C 0.55687 0.77043 0.82497 0.0
C2322 C 0.59993 0.79415 0.80175 0.0
C2323 C 0.5472 0.77232 0.84111 0.0
C2324 C 0.66995 0.76971 0.79278 0.0
C2325 C 0.65204 0.77369 0.79627 0.0
C2326 C 0.60247 0.75474 0.79259 0.0
C2327 C 0.57489 0.78307 0.82382 0.0
C2328 C 0.58703 0.77873 0.80866 0.0
C2329 C 0.63534 0.76619 0.78305 0.0
C2330 C 0.61664 0.77024 0.78776 0.0
H2331 H 0.57851 0.81232 0.86603 0.0
H2332 H 0.59631 0.80834 0.83845 0.0
H2333 H 0.57823 0.74663 0.80815 0.0
H2334 H 0.65575 0.74172 0.74955 0.0
H2335 H 0.6238 0.74809 0.75622 0.0
C2336 C 0.41966 0.58785 0.6838 0.0
C2337 C 0.40421 0.57124 0.68166 0.0
C2338 C 0.43114 0.59169 0.66885 0.0
C2339 C 0.45381 0.56298 0.64414 0.0
H2340 H 0.46089 0.59205 0.5991 0.0
C2341 C 0.49039 0.53629 0.58118 0.0
C2342 C 0.50074 0.55026 0.5704 0.0
C2343 C 0.48112 0.5425 0.59641 0.0
C2344 C 0.45936 0.58411 0.61186 0.0
H2345 H 0.38691 0.54725 0.66179 0.0
H2346 H 0.40662 0.55429 0.63548 0.0
H2347 H 0.43723 0.5991 0.6205 0.0
H2348 H 0.51088 0.58171 0.56816 0.0
H2349 H 0.49506 0.59255 0.59512 0.0
H2350 H 0.47541 0.54762 0.63557 0.0
C2351 C 0.40991 0.56427 0.64861 0.0
C2352 C 0.44577 0.58809 0.62395 0.0
C2353 C 0.39862 0.56029 0.6636 0.0
C2354 C 0.50283 0.57058 0.57608 0.0
C2355 C 0.49366 0.5768 0.59141 0.0
C2356 C 0.46734 0.559 0.63214 0.0
C2357 C 0.42699 0.57908 0.65166 0.0
C2358 C 0.44268 0.57722 0.63991 0.0
C2359 C 0.48215 0.56282 0.60131 0.0
C2360 C 0.46994 0.56914 0.61557 0.0
H2361 H 0.42438 0.59624 0.69776 0.0
H2362 H 0.44441 0.60302 0.67151 0.0
H2363 H 0.45158 0.55448 0.65647 0.0
H2364 H 0.48835 0.52053 0.57711 0.0
H2365 H 0.47222 0.53131 0.60358 0.0
C2366 C 0.79125 0.22099 0.95501 0.0
C2367 C 0.79228 0.20093 0.95513 0.0
C2368 C 0.79011 0.22978 0.93771 0.0
C2369 C 0.77102 0.21545 0.88693 0.0
H2370 H 0.78937 0.27156 0.88248 0.0
C2371 C 0.75954 0.25501 0.8173 0.0
C2372 C 0.75425 0.27355 0.81935 0.0
C2373 C 0.76369 0.24507 0.83344 0.0
C2374 C 0.78399 0.25591 0.88362 0.0
H2375 H 0.7944 0.17459 0.93761 0.0
H2376 H 0.79264 0.19008 0.907 0.0
H2377 H 0.80181 0.25661 0.91055 0.0
H2378 H 0.74833 0.29589 0.83983 0.0
H2379 H 0.75608 0.27863 0.86832 0.0
H2380 H 0.75336 0.21485 0.85978 0.0
C2381 C 0.79251 0.19895 0.92035 0.0
C2382 C 0.79119 0.24731 0.89962 0.0
C2383 C 0.7938 0.19016 0.93783 0.0
C2384 C 0.75243 0.28164 0.83785 0.0
C2385 C 0.75692 0.27182 0.8541 0.0
C2386 C 0.76398 0.22404 0.87078 0.0
C2387 C 0.78984 0.21864 0.92007 0.0
C2388 C 0.78453 0.22705 0.90168 0.0
C2389 C 0.76301 0.25366 0.85204 0.0
C2390 C 0.77017 0.24443 0.86916 0.0
H2391 H 0.78996 0.22954 0.96821 0.0
H2392 H 0.78792 0.24487 0.93812 0.0
H2393 H 0.7653 0.19989 0.88818 0.0
H2394 H 0.76135 0.24851 0.80327 0.0
H2395 H 0.76845 0.23117 0.83144 0.0
C2396 C 0.07033 0.48439 0.21224 0.0
C2397 C 0.0848 0.5006 0.22074 0.0
C2398 C 0.06113 0.48469 0.19341 0.0
C2399 C 0.05311 0.52106 0.15769 0.0
H2400 H 0.03592 0.47449 0.12102 0.0
C2401 C 0.03746 0.51937 0.07407 0.0
C2402 C 0.01742 0.5146 0.06738 0.0
C2403 C 0.04421 0.51666 0.09306 0.0
C2404 C 0.04054 0.48753 0.13125 0.0
H2405 H 0.10199 0.5291 0.21598 0.0
H2406 H 0.08693 0.52921 0.18309 0.0
H2407 H 0.05134 0.47119 0.15353 0.0
H2408 H 0.98872 0.50299 0.07518 0.0
H2409 H 0.00071 0.49767 0.10845 0.0
H2410 H 0.04306 0.53744 0.13505 0.0
C2411 C 0.08184 0.51667 0.19102 0.0
C2412 C 0.04929 0.48568 0.14987 0.0
C2413 C 0.09067 0.51653 0.20983 0.0
C2414 C 0.00423 0.50691 0.08003 0.0
C2415 C 0.01105 0.50376 0.09894 0.0
C2416 C 0.04463 0.52291 0.13907 0.0
C2417 C 0.06649 0.50109 0.18272 0.0
C2418 C 0.05601 0.5025 0.16324 0.0
C2419 C 0.03108 0.50869 0.10557 0.0
C2420 C 0.03847 0.50622 0.12567 0.0
H2421 H 0.06548 0.47199 0.22045 0.0
H2422 H 0.04936 0.47244 0.18755 0.0
H2423 H 0.05752 0.53428 0.16769 0.0
H2424 H 0.04792 0.52544 0.06466 0.0
H2425 H 0.05971 0.5207 0.09798 0.0
C2426 C 0.69889 0.83778 0.45361 0.0
C2427 C 0.70475 0.85759 0.46138 0.0
C2428 C 0.69617 0.83329 0.43368 0.0
C2429 C 0.72858 0.85471 0.40368 0.0
H2430 H 0.7076 0.80613 0.37069 0.0
C2431 C 0.77061 0.8212 0.34753 0.0
C2432 C 0.76643 0.80043 0.34443 0.0
C2433 C 0.76066 0.83062 0.36024 0.0
C2434 C 0.71366 0.8197 0.37989 0.0
H2435 H 0.70828 0.88826 0.455 0.0
H2436 H 0.70419 0.88039 0.42004 0.0
H2437 H 0.6869 0.8193 0.39185 0.0
H2438 H 0.75111 0.77312 0.35394 0.0
H2439 H 0.73459 0.78955 0.37701 0.0
H2440 H 0.75575 0.85433 0.39305 0.0
C2441 C 0.70169 0.86834 0.42921 0.0
C2442 C 0.70168 0.82742 0.39164 0.0
C2443 C 0.70409 0.87284 0.44922 0.0
C2444 C 0.75434 0.78919 0.35602 0.0
C2445 C 0.74462 0.79859 0.36889 0.0
C2446 C 0.74059 0.84689 0.39212 0.0
C2447 C 0.69993 0.84863 0.42153 0.0
C2448 C 0.7093 0.84453 0.40428 0.0
C2449 C 0.7467 0.81932 0.37014 0.0
C2450 C 0.73348 0.82886 0.38075 0.0
H2451 H 0.6989 0.82581 0.46286 0.0
H2452 H 0.69443 0.81791 0.42816 0.0
H2453 H 0.73503 0.86773 0.41353 0.0
H2454 H 0.77989 0.83014 0.33868 0.0
H2455 H 0.76278 0.84664 0.3611 0.0
C2456 C 0.42449 0.57213 0.79805 0.0
C2457 C 0.43198 0.56635 0.78127 0.0
C2458 C 0.43579 0.57406 0.81609 0.0
C2459 C 0.47391 0.55114 0.83841 0.0
H2460 H 0.46891 0.58345 0.88437 0.0
C2461 C 0.50244 0.53358 0.91453 0.0
C2462 C 0.48972 0.53452 0.92847 0.0
C2463 C 0.49905 0.54134 0.89679 0.0
C2464 C 0.47041 0.57428 0.87165 0.0
H2465 H 0.45785 0.56053 0.76983 0.0
H2466 H 0.4777 0.56436 0.80121 0.0
H2467 H 0.4571 0.59219 0.85257 0.0
H2468 H 0.46355 0.54422 0.93496 0.0
H2469 H 0.45727 0.55716 0.9039 0.0
H2470 H 0.48636 0.53273 0.85735 0.0
C2471 C 0.46291 0.5667 0.80057 0.0
C2472 C 0.46371 0.57934 0.85346 0.0
C2473 C 0.45156 0.56454 0.7826 0.0
C2474 C 0.47358 0.54329 0.92442 0.0
C2475 C 0.47013 0.55094 0.90671 0.0
C2476 C 0.48053 0.54607 0.85655 0.0
C2477 C 0.45483 0.57043 0.81759 0.0
C2478 C 0.4649 0.56749 0.83665 0.0
C2479 C 0.48282 0.55009 0.89266 0.0
C2480 C 0.47835 0.55722 0.87342 0.0
H2481 H 0.40948 0.57374 0.79744 0.0
H2482 H 0.42908 0.57693 0.8289 0.0
H2483 H 0.47479 0.54148 0.82583 0.0
H2484 H 0.51512 0.52708 0.91741 0.0
H2485 H 0.5092 0.54059 0.88634 0.0
C2486 C 0.7848 0.22059 0.06008 0.0
C2487 C 0.79188 0.20321 0.05666 0.0
C2488 C 0.78555 0.22914 0.07882 0.0
C2489 C 0.80574 0.23253 0.12942 0.0
H2490 H 0.75337 0.23695 0.13842 0.0
C2491 C 0.78581 0.25291 0.20556 0.0
C2492 C 0.772 0.26495 0.20678 0.0
C2493 C 0.78967 0.24553 0.1876 0.0
C2494 C 0.76815 0.23615 0.13616 0.0
H2495 H 0.80689 0.1821 0.06998 0.0
H2496 H 0.80817 0.1972 0.10317 0.0
H2497 H 0.75923 0.22477 0.10666 0.0
H2498 H 0.75163 0.27897 0.19015 0.0
H2499 H 0.75875 0.26667 0.1588 0.0
H2500 H 0.81475 0.24436 0.1589 0.0
C2501 C 0.80201 0.20409 0.09119 0.0
C2502 C 0.77147 0.22905 0.11796 0.0
C2503 C 0.80129 0.19548 0.07226 0.0
C2504 C 0.76225 0.26962 0.18967 0.0
C2505 C 0.76627 0.26245 0.1717 0.0
C2506 C 0.80246 0.2399 0.14769 0.0
C2507 C 0.79336 0.22048 0.0946 0.0
C2508 C 0.79029 0.22736 0.11434 0.0
C2509 C 0.77992 0.25017 0.17041 0.0
C2510 C 0.78361 0.24196 0.15122 0.0
H2511 H 0.77781 0.22711 0.04829 0.0
H2512 H 0.77917 0.24202 0.08105 0.0
H2513 H 0.82039 0.23137 0.12695 0.0
H2514 H 0.79341 0.24883 0.21851 0.0
H2515 H 0.8 0.23587 0.18721 0.0
C2516 C 0.05978 0.49466 0.32519 0.0
C2517 C 0.07823 0.49039 0.3236 0.0
C2518 C 0.05395 0.49813 0.34326 0.0
C2519 C 0.0579 0.49226 0.39362 0.0
H2520 H 0.04556 0.54466 0.39737 0.0
C2521 C 0.00285 0.51275 0.44141 0.0
C2522 C 0.00606 0.53187 0.45095 0.0
C2523 C 0.0156 0.50794 0.42886 0.0
C2524 C 0.04928 0.53017 0.39681 0.0
H2525 H 0.10423 0.48439 0.33962 0.0
H2526 H 0.09364 0.49008 0.37157 0.0
H2527 H 0.06036 0.53392 0.36971 0.0
H2528 H 0.02464 0.56117 0.45451 0.0
H2529 H 0.04707 0.55282 0.43229 0.0
H2530 H 0.04604 0.48821 0.42037 0.0
C2531 C 0.08395 0.49099 0.35868 0.0
C2532 C 0.05763 0.52398 0.38091 0.0
C2533 C 0.08989 0.48757 0.34044 0.0
C2534 C 0.02199 0.54628 0.44738 0.0
C2535 C 0.03478 0.54149 0.43471 0.0
C2536 C 0.04939 0.49842 0.40953 0.0
C2537 C 0.06635 0.49727 0.36013 0.0
C2538 C 0.06128 0.50472 0.37881 0.0
C2539 C 0.03176 0.52219 0.42539 0.0
C2540 C 0.04428 0.51715 0.41087 0.0
H2541 H 0.05041 0.49674 0.31247 0.0
H2542 H 0.04012 0.50254 0.34406 0.0
H2543 H 0.06073 0.47741 0.39233 0.0
H2544 H 0.99066 0.50133 0.44391 0.0
H2545 H 0.01256 0.4931 0.42156 0.0
C2546 C 0.73448 0.8254 0.56058 0.0
C2547 C 0.72913 0.84381 0.55897 0.0
C2548 C 0.73115 0.8152 0.57673 0.0
C2549 C 0.705 0.80964 0.61876 0.0
H2550 H 0.75346 0.79874 0.64303 0.0
C2551 C 0.71769 0.79048 0.69778 0.0
C2552 C 0.73111 0.7784 0.70211 0.0
C2553 C 0.7141 0.79568 0.67899 0.0
C2554 C 0.73967 0.8012 0.63628 0.0
H2555 H 0.71503 0.86543 0.57245 0.0
H2556 H 0.70947 0.84753 0.60108 0.0
H2557 H 0.75283 0.81323 0.61247 0.0
H2558 H 0.74991 0.7607 0.69025 0.0
H2559 H 0.74301 0.76899 0.65723 0.0
H2560 H 0.69185 0.79754 0.64275 0.0
C2561 C 0.71612 0.84107 0.58967 0.0
C2562 C 0.73937 0.80964 0.61883 0.0
C2563 C 0.71945 0.85134 0.5734 0.0
C2564 C 0.73981 0.77039 0.68725 0.0
C2565 C 0.73589 0.77519 0.66841 0.0
C2566 C 0.70523 0.80093 0.63625 0.0
C2567 C 0.72244 0.82319 0.59162 0.0
C2568 C 0.72208 0.81392 0.60993 0.0
C2569 C 0.72364 0.78856 0.66423 0.0
C2570 C 0.72262 0.79664 0.64517 0.0
H2571 H 0.74161 0.81899 0.54952 0.0
H2572 H 0.73591 0.80128 0.57788 0.0
H2573 H 0.69151 0.81286 0.61207 0.0
H2574 H 0.71081 0.79681 0.7091 0.0
H2575 H 0.7047 0.80609 0.67629 0.0
C2576 C 0.65343 0.41955 0.49727 0.0
C2577 C 0.66859 0.41994 0.51223 0.0
C2578 C 0.6407 0.43259 0.49853 0.0
C2579 C 0.61941 0.46171 0.53248 0.0
H2580 H 0.60907 0.4914 0.48881 0.0
C2581 C 0.56875 0.51856 0.5344 0.0
C2582 C 0.55853 0.52157 0.51688 0.0
C2583 C 0.58264 0.50657 0.53458 0.0
C2584 C 0.6114 0.48298 0.50104 0.0
H2585 H 0.68215 0.43428 0.54035 0.0
H2586 H 0.65958 0.45689 0.54266 0.0
H2587 H 0.63227 0.46978 0.4877 0.0
H2588 H 0.55389 0.51392 0.48599 0.0
H2589 H 0.5767 0.49177 0.48631 0.0
H2590 H 0.59798 0.47415 0.54557 0.0
C2591 C 0.65769 0.44649 0.52995 0.0
C2592 C 0.62489 0.4707 0.50042 0.0
C2593 C 0.67064 0.43362 0.52856 0.0
C2594 C 0.56178 0.51193 0.49966 0.0
C2595 C 0.5751 0.49942 0.49988 0.0
C2596 C 0.60558 0.47371 0.53297 0.0
C2597 C 0.64265 0.44615 0.51489 0.0
C2598 C 0.62895 0.45985 0.51607 0.0
C2599 C 0.58611 0.49688 0.51727 0.0
C2600 C 0.60123 0.48442 0.51717 0.0
H2601 H 0.65142 0.40923 0.48448 0.0
H2602 H 0.62913 0.43189 0.48679 0.0
H2603 H 0.6222 0.45341 0.54471 0.0
H2604 H 0.56651 0.52603 0.54784 0.0
H2605 H 0.59093 0.50532 0.54825 0.0
C2606 C 0.19978 0.14651 0.5155 0.0
C2607 C 0.21147 0.144 0.50098 0.0
C2608 C 0.18235 0.13295 0.51605 0.0
C2609 C 0.15343 0.08318 0.49456 0.0
H2610 H 0.11114 0.10385 0.51373 0.0
C2611 C 0.069 0.04833 0.48539 0.0
C2612 C 0.06242 0.04422 0.50325 0.0
C2613 C 0.08813 0.05847 0.4847 0.0
C2614 C 0.12289 0.09795 0.50838 0.0
H2615 H 0.21442 0.12566 0.4756 0.0
H2616 H 0.18331 0.10263 0.47565 0.0
H2617 H 0.14245 0.12608 0.51314 0.0
H2618 H 0.07079 0.04706 0.53429 0.0
H2619 H 0.10402 0.06531 0.53299 0.0
H2620 H 0.13309 0.05516 0.48899 0.0
C2621 C 0.18784 0.11448 0.48718 0.0
C2622 C 0.14092 0.11058 0.50821 0.0
C2623 C 0.2056 0.12773 0.48702 0.0
C2624 C 0.07546 0.04991 0.52031 0.0
C2625 C 0.09442 0.06035 0.51962 0.0
C2626 C 0.13519 0.07063 0.49435 0.0
C2627 C 0.17588 0.11697 0.50165 0.0
C2628 C 0.15656 0.10337 0.5015 0.0
C2629 C 0.10077 0.0649 0.50185 0.0
C2630 C 0.11991 0.07794 0.50145 0.0
H2631 H 0.20423 0.15888 0.52654 0.0
H2632 H 0.17395 0.13509 0.52779 0.0
H2633 H 0.16511 0.07695 0.48952 0.0
H2634 H 0.05928 0.04406 0.47201 0.0
H2635 H 0.09281 0.06199 0.47087 0.0
C2636 C 0.15057 0.92523 0.78546 0.0
C2637 C 0.1561 0.94523 0.78198 0.0
C2638 C 0.16175 0.91157 0.78029 0.0
C2639 C 0.21053 0.90749 0.76793 0.0
H2640 H 0.18321 0.85535 0.74492 0.0
C2641 C 0.25261 0.84774 0.7455 0.0
C2642 C 0.24583 0.82924 0.75219 0.0
C2643 C 0.24115 0.86218 0.74549 0.0
C2644 C 0.19107 0.86984 0.75135 0.0
H2645 H 0.17799 0.96669 0.77074 0.0
H2646 H 0.19734 0.94283 0.76155 0.0
H2647 H 0.16467 0.88014 0.75365 0.0
H2648 H 0.22153 0.81101 0.76338 0.0
H2649 H 0.20175 0.83587 0.76338 0.0
H2650 H 0.23692 0.89704 0.76605 0.0
C2651 C 0.18448 0.93772 0.76847 0.0
C2652 C 0.18044 0.88401 0.75644 0.0
C2653 C 0.17337 0.9514 0.77373 0.0
C2654 C 0.22709 0.82506 0.75794 0.0
C2655 C 0.21569 0.83935 0.75789 0.0
C2656 C 0.22118 0.89329 0.76287 0.0
C2657 C 0.17866 0.91759 0.77143 0.0
C2658 C 0.19003 0.90289 0.76512 0.0
C2659 C 0.22274 0.85827 0.75215 0.0
C2660 C 0.21156 0.87416 0.75488 0.0
H2661 H 0.13743 0.92004 0.79192 0.0
H2662 H 0.1571 0.89625 0.78317 0.0
H2663 H 0.21837 0.92185 0.77468 0.0
H2664 H 0.26699 0.8513 0.74095 0.0
H2665 H 0.24688 0.87653 0.74073 0.0
C2666 C 0.28932 0.93611 0.04463 0.0
C2667 C 0.27177 0.93295 0.03215 0.0
C2668 C 0.3043 0.95228 0.0432 0.0
C2669 C 0.32452 0.97989 0.00599 0.0
H2670 H 0.3612 0.00894 0.04864 0.0
C2671 C 0.40166 0.02109 0.99462 0.0
C2672 C 0.41657 0.01685 0.00767 0.0
C2673 C 0.38219 0.01612 -0.00187 0.0
C2674 C 0.35108 0.00098 0.03656 0.0
H2675 H 0.25557 0.94487 0.00924 0.0
H2676 H 0.28212 0.97301 0.00639 0.0
H2677 H 0.32915 0.99122 0.05473 0.0
H2678 H 0.42303 0.00473 0.03484 0.0
H2679 H 0.38922 0.99588 0.04087 0.0
H2680 H 0.34681 0.9885 0.988 0.0
C2681 C 0.28415 0.96301 0.01736 0.0
C2682 C 0.33272 0.99094 0.04005 0.0
C2683 C 0.26898 0.94698 0.01905 0.0
C2684 C 0.4118 0.00808 0.02449 0.0
C2685 C 0.39242 0.00322 0.02805 0.0
C2686 C 0.34293 0.98982 0.00252 0.0
C2687 C 0.30216 0.96545 0.02904 0.0
C2688 C 0.31955 0.97971 0.0249 0.0
C2689 C 0.37735 0.00697 0.01483 0.0
C2690 C 0.35669 -0.00017 0.01789 0.0
H2691 H 0.29179 0.92557 0.05495 0.0
H2692 H 0.31806 0.95368 0.05231 0.0
H2693 H 0.31474 0.97117 0.99407 0.0
H2694 H 0.40501 0.02795 0.98158 0.0
H2695 H 0.37092 0.01929 0.98772 0.0
C2696 C 0.86681 0.62681 0.74468 0.0
C2697 C 0.85999 0.60959 0.73191 0.0
C2698 C 0.85567 0.64148 0.74605 0.0
C2699 C 0.81345 0.65856 0.72003 0.0
H2700 H 0.81223 0.6862 0.76986 0.0
C2701 C 0.7554 0.70502 0.73479 0.0
C2702 C 0.7622 0.72343 0.74569 0.0
C2703 C 0.76794 0.69182 0.73251 0.0
C2704 C 0.81254 0.67873 0.7558 0.0
H2705 H 0.83597 0.59427 0.7107 0.0
H2706 H 0.81649 0.61932 0.71345 0.0
H2707 H 0.83307 0.6621 0.76725 0.0
H2708 H 0.78751 0.74258 0.76248 0.0
H2709 H 0.80925 0.71953 0.75865 0.0
H2710 H 0.7925 0.67487 0.70874 0.0
C2711 C 0.83063 0.62191 0.72207 0.0
C2712 C 0.82457 0.66494 0.75427 0.0
C2713 C 0.8418 0.6074 0.72059 0.0
C2714 C 0.78182 0.72848 0.75402 0.0
C2715 C 0.79426 0.71523 0.75193 0.0
C2716 C 0.80127 0.67217 0.72161 0.0
C2717 C 0.83736 0.63921 0.73478 0.0
C2718 C 0.82514 0.65455 0.73637 0.0
C2719 C 0.78746 0.69668 0.74126 0.0
C2720 C 0.80061 0.68237 0.73952 0.0
H2721 H 0.88078 0.629 0.75357 0.0
H2722 H 0.86151 0.65468 0.75583 0.0
H2723 H 0.81375 0.65125 0.7059 0.0
H2724 H 0.74035 0.70073 0.72825 0.0
H2725 H 0.76223 0.67759 0.72428 0.0
C2726 C 0.82558 0.62326 0.99161 0.0
C2727 C 0.81184 0.6273 0.00357 0.0
C2728 C 0.8408 0.61455 -0.00123 0.0
C2729 C 0.85612 0.58478 0.0367 0.0
H2730 H 0.90759 0.60601 0.02324 0.0
C2731 C 0.91609 0.54054 0.0333 0.0
C2732 C 0.93563 0.55059 0.03645 0.0
C2733 C 0.90125 0.55093 0.03517 0.0
C2734 C 0.89341 0.60015 0.02751 0.0
H2735 H 0.80272 0.62462 0.0321 0.0
H2736 H 0.82926 0.60926 0.04452 0.0
H2737 H 0.88072 0.62198 0.01356 0.0
H2738 H 0.95527 0.5788 0.04582 0.0
H2739 H 0.9293 0.59701 0.0493 0.0
H2740 H 0.8688 0.56273 0.05039 0.0
C2741 C 0.8283 0.61291 0.02968 0.0
C2742 C 0.87797 0.60911 0.02167 0.0
C2743 C 0.81314 0.62172 0.02256 0.0
C2744 C 0.94024 0.57079 0.04316 0.0
C2745 C 0.9254 0.58121 0.04506 0.0
C2746 C 0.87159 0.57579 0.04254 0.0
C2747 C 0.84247 0.60961 0.01797 0.0
C2748 C 0.85909 0.60117 0.02574 0.0
C2749 C 0.90577 0.57153 0.04024 0.0
C2750 C 0.89027 0.58307 0.03754 0.0
H2751 H 0.82498 0.62741 0.97693 0.0
H2752 H 0.85135 0.61181 0.98932 0.0
H2753 H 0.8417 0.57839 0.04006 0.0
H2754 H 0.91222 0.52492 0.02822 0.0
H2755 H 0.88628 0.54307 0.03123 0.0
C2756 C 0.15682 0.06767 0.75519 0.0
C2757 C 0.15868 0.0559 0.77058 0.0
C2758 C 0.16843 0.08661 0.75597 0.0
C2759 C 0.21155 0.12189 0.78229 0.0
H2760 H 0.18273 0.16038 0.76293 0.0
C2761 C 0.24026 0.20823 0.78906 0.0
C2762 C 0.23863 0.21635 0.77118 0.0
C2763 C 0.23157 0.18838 0.79057 0.0
C2764 C 0.19095 0.14979 0.76839 0.0
H2765 H 0.17486 0.05411 0.79835 0.0
H2766 H 0.19495 0.08762 0.80002 0.0
H2767 H 0.16629 0.12583 0.76215 0.0
H2768 H 0.22653 0.21006 0.74094 0.0
H2769 H 0.2112 0.17575 0.74373 0.0
H2770 H 0.23619 0.14629 0.78873 0.0
C2771 C 0.18469 0.08209 0.78721 0.0
C2772 C 0.18161 0.12996 0.7678 0.0
C2773 C 0.17322 0.06291 0.78626 0.0
C2774 C 0.22821 0.20426 0.7549 0.0
C2775 C 0.21931 0.18465 0.75649 0.0
C2776 C 0.22088 0.14189 0.78307 0.0
C2777 C 0.1819 0.0944 0.77236 0.0
C2778 C 0.19189 0.11565 0.77426 0.0
C2779 C 0.22083 0.17655 0.77432 0.0
C2780 C 0.21073 0.15588 0.77569 0.0
H2781 H 0.14588 0.06248 0.7428 0.0
H2782 H 0.16637 0.09542 0.74397 0.0
H2783 H 0.21988 0.11126 0.78742 0.0
H2784 H 0.2482 0.21718 0.80185 0.0
H2785 H 0.23286 0.18243 0.80448 0.0
C2786 C 0.36119 0.99122 0.21911 0.0
C2787 C 0.36025 0.01015 0.22725 0.0
C2788 C 0.34723 0.97465 0.2219 0.0
C2789 C 0.30272 0.9496 0.23311 0.0
H2790 H 0.33046 0.9294 0.27587 0.0
C2791 C 0.26729 0.88027 0.26856 0.0
C2792 C 0.27945 0.86706 0.27333 0.0
C2793 C 0.27519 0.89912 0.26337 0.0
C2794 C 0.32252 0.93467 0.26384 0.0
H2795 H 0.34272 0.02688 0.24261 0.0
H2796 H 0.31834 -0.00237 0.24763 0.0
H2797 H 0.34598 0.95932 0.26256 0.0
H2798 H 0.30925 0.86299 0.27664 0.0
H2799 H 0.32299 0.89537 0.26691 0.0
H2800 H 0.27954 0.92446 0.23374 0.0
C2801 C 0.32991 0.9958 0.23912 0.0
C2802 C 0.33137 0.95187 0.25636 0.0
C2803 C 0.3439 0.01246 0.23631 0.0
C2804 C 0.29961 0.87305 0.27326 0.0
C2805 C 0.30747 0.89167 0.26774 0.0
C2806 C 0.29387 0.93214 0.24046 0.0
C2807 C 0.33207 0.97678 0.23271 0.0
C2808 C 0.32165 0.9593 0.24086 0.0
C2809 C 0.29536 0.90491 0.26256 0.0
C2810 C 0.30383 0.92432 0.25574 0.0
H2811 H 0.37344 0.989 0.21177 0.0
H2812 H 0.3491 0.96002 0.21691 0.0
H2813 H 0.29506 0.95519 0.2211 0.0
H2814 H 0.25167 0.87593 0.26857 0.0
H2815 H 0.26549 0.90905 0.25982 0.0
C2816 C 0.48214 0.31881 0.60244 0.0
C2817 C 0.4995 0.31645 0.61303 0.0
C2818 C 0.48189 0.33568 0.59251 0.0
C2819 C 0.50839 0.38665 0.58982 0.0
H2820 H 0.48911 0.37765 0.5351 0.0
C2821 C 0.52366 0.44898 0.54122 0.0
C2822 C 0.50693 0.45281 0.53068 0.0
C2823 C 0.52297 0.431 0.54929 0.0
C2824 C 0.49445 0.38033 0.55038 0.0
H2825 H 0.52975 0.33014 0.62271 0.0
H2826 H 0.52921 0.35973 0.6058 0.0
H2827 H 0.48569 0.34968 0.55514 0.0
H2828 H 0.47697 0.44043 0.51861 0.0
H2829 H 0.47572 0.4089 0.53285 0.0
H2830 H 0.51721 0.4172 0.58518 0.0
C2831 C 0.51589 0.34856 0.60493 0.0
C2832 C 0.49237 0.36443 0.56183 0.0
C2833 C 0.51622 0.33163 0.61453 0.0
C2834 C 0.48999 0.43783 0.5269 0.0
C2835 C 0.48931 0.41979 0.53495 0.0
C2836 C 0.51048 0.4025 0.57841 0.0
C2837 C 0.49889 0.3505 0.59342 0.0
C2838 C 0.49947 0.36747 0.58162 0.0
C2839 C 0.50555 0.4166 0.54689 0.0
C2840 C 0.50369 0.39947 0.55857 0.0
H2841 H 0.4691 0.30721 0.60103 0.0
H2842 H 0.46857 0.33698 0.58384 0.0
H2843 H 0.5138 0.3894 0.60508 0.0
H2844 H 0.53699 0.46023 0.54404 0.0
H2845 H 0.53582 0.42868 0.5581 0.0
C2846 C 0.45362 0.75387 0.31916 0.0
C2847 C 0.46739 0.77163 0.32419 0.0
C2848 C 0.43607 0.7538 0.30776 0.0
C2849 C 0.40614 0.78465 0.281 0.0
H2850 H 0.36662 0.75854 0.3105 0.0
C2851 C 0.32661 0.79834 0.27643 0.0
C2852 C 0.31174 0.78138 0.27638 0.0
C2853 C 0.34629 0.797 0.27948 0.0
C2854 C 0.37739 0.7657 0.3019 0.0
H2855 H 0.47482 0.80272 0.3195 0.0
H2856 H 0.44404 0.80275 0.29972 0.0
H2857 H 0.40009 0.75515 0.318 0.0
H2858 H 0.30605 0.74965 0.27915 0.0
H2859 H 0.34003 0.7474 0.28433 0.0
H2860 H 0.38314 0.79555 0.26521 0.0
C2861 C 0.44677 0.7888 0.30436 0.0
C2862 C 0.39661 0.76365 0.30612 0.0
C2863 C 0.46451 0.78877 0.31556 0.0
C2864 C 0.31702 0.76308 0.27915 0.0
C2865 C 0.33656 0.76177 0.28223 0.0
C2866 C 0.38676 0.7867 0.27675 0.0
C2867 C 0.43185 0.77162 0.30156 0.0
C2868 C 0.41125 0.77298 0.29568 0.0
C2869 C 0.35145 0.77871 0.28264 0.0
C2870 C 0.37216 0.77714 0.28712 0.0
H2871 H 0.45549 0.7405 0.32576 0.0
H2872 H 0.42508 0.74019 0.30535 0.0
H2873 H 0.4171 0.79213 0.27279 0.0
H2874 H 0.32307 0.81268 0.27436 0.0
H2875 H 0.35744 0.81035 0.27987 0.0
C2876 C 0.97712 0.69592 0.10742 0.0
C2877 C 0.97938 0.71324 0.09779 0.0
C2878 C 0.97738 0.67773 0.09746 0.0
C2879 C -0.0019 0.66052 0.05486 0.0
H2880 H 0.97535 0.60822 0.06853 0.0
C2881 C 0.00216 0.58602 0.014 0.0
C2882 C 0.01181 0.57405 0.02529 0.0
C2883 C -0.00277 0.60284 0.02257 0.0
C2884 C 0.98178 0.6228 0.06468 0.0
H2885 H 0.98117 0.72496 0.06994 0.0
H2886 H 0.98049 0.69313 0.05234 0.0
H2887 H 0.96519 0.63738 0.08265 0.0
H2888 H 0.02359 0.56961 0.05418 0.0
H2889 H 0.01423 0.59893 0.06947 0.0
H2890 H 0.01428 0.64576 0.03653 0.0
C2891 C 0.97952 0.69361 0.06771 0.0
C2892 C 0.97603 0.63946 0.07274 0.0
C2893 C 0.97967 0.7118 0.07772 0.0
C2894 C 0.01644 0.57895 0.04527 0.0
C2895 C 0.01096 0.59548 0.05396 0.0
C2896 C 0.00355 0.64386 0.04657 0.0
C2897 C 0.97957 0.67659 0.07767 0.0
C2898 C 0.98423 0.65856 0.06802 0.0
C2899 C 0.00132 0.60748 0.04262 0.0
C2900 C 0.99555 0.62495 0.05155 0.0
H2901 H 0.97695 0.69669 0.12292 0.0
H2902 H 0.97737 0.66497 0.10563 0.0
H2903 H 0.00519 0.67498 0.05128 0.0
H2904 H -0.00163 0.58229 -0.00144 0.0
H2905 H 0.98982 0.61198 0.01364 0.0
C2906 C 0.07904 0.28305 0.84022 0.0
C2907 C 0.07902 0.30111 0.85079 0.0
C2908 C 0.09554 0.28018 0.83193 0.0
C2909 C 0.14876 0.29778 0.83488 0.0
H2910 H 0.14111 0.27421 0.78199 0.0
C2911 C 0.21307 0.29351 0.79019 0.0
C2912 C 0.21051 0.27772 0.77574 0.0
C2913 C 0.19775 0.29589 0.80073 0.0
C2914 C 0.14359 0.28045 0.7969 0.0
H2915 H 0.09644 0.33035 0.86087 0.0
H2916 H 0.12525 0.32528 0.84631 0.0
H2917 H 0.11313 0.27938 0.79744 0.0
H2918 H 0.19065 0.25124 0.76198 0.0
H2919 H 0.16431 0.25475 0.78085 0.0
H2920 H 0.17925 0.29858 0.83444 0.0
C2921 C 0.11251 0.3133 0.84463 0.0
C2922 C 0.12748 0.28351 0.80572 0.0
C2923 C 0.09594 0.31623 0.85286 0.0
C2924 C 0.19284 0.26377 0.77277 0.0
C2925 C 0.17769 0.26591 0.78352 0.0
C2926 C 0.16494 0.29448 0.82611 0.0
C2927 C 0.11247 0.29525 0.83403 0.0
C2928 C 0.12983 0.29219 0.8248 0.0
C2929 C 0.17966 0.28234 0.79722 0.0
C2930 C 0.16258 0.28571 0.80697 0.0
H2931 H 0.06632 0.27105 0.8384 0.0
H2932 H 0.09512 0.26603 0.82401 0.0
H2933 H 0.15103 0.30437 0.84968 0.0
H2934 H 0.22664 0.30443 0.79282 0.0
H2935 H 0.19989 0.30876 0.81108 0.0
C2936 C 0.50188 0.71699 0.9507 0.0
C2937 C 0.51068 0.72145 0.93403 0.0
C2938 C 0.50238 0.69909 0.95856 0.0
C2939 C 0.50467 0.64805 0.94422 0.0
H2940 H 0.51055 0.64404 -0.00048 0.0
C2941 C 0.50652 0.57518 0.98043 0.0
C2942 C 0.49753 0.57281 -0.00267 0.0
C2943 C 0.50732 0.5926 0.97128 0.0
C2944 C 0.50862 0.64492 0.98404 0.0
H2945 H 0.52775 0.71115 0.91303 0.0
H2946 H 0.5286 0.67959 0.92686 0.0
H2947 H 0.51649 0.6766 0.9873 0.0
H2948 H 0.48112 0.58597 0.01714 0.0
H2949 H 0.48246 0.61652 0.00111 0.0
H2950 H 0.49669 0.61626 0.94103 0.0
C2951 C 0.52121 0.68999 0.93371 0.0
C2952 C 0.51216 0.66355 0.97706 0.0
C2953 C 0.52088 0.70809 0.92592 0.0
C2954 C 0.48832 0.58758 0.00426 0.0
C2955 C 0.48917 0.60504 0.99514 0.0
C2956 C 0.50114 0.62935 0.95123 0.0
C2957 C 0.5116 0.68518 0.94987 0.0
C2958 C 0.50997 0.66534 0.9571 0.0
C2959 C 0.49925 0.60799 0.97896 0.0
C2960 C 0.50282 0.62764 0.97123 0.0
H2961 H 0.49398 0.72706 0.95731 0.0
H2962 H 0.49473 0.69576 0.97094 0.0
H2963 H 0.50262 0.64901 0.92876 0.0
H2964 H 0.51379 0.56401 0.97482 0.0
H2965 H 0.5152 0.59446 0.95885 0.0
C2966 C 0.03931 0.78039 0.67153 0.0
C2967 C 0.03114 0.7963 0.67758 0.0
C2968 C 0.05944 0.78212 0.67396 0.0
C2969 C 0.09992 0.80587 0.70886 0.0
H2970 H 0.12959 0.77954 0.67577 0.0
C2971 C 0.16521 0.7737 0.73866 0.0
C2972 C 0.18192 0.77787 0.72927 0.0
C2973 C 0.14784 0.77844 0.73067 0.0
C2974 C 0.12156 0.78713 0.6851 0.0
H2975 H 0.03717 0.82673 0.6901 0.0
H2976 H 0.07274 0.82984 0.69459 0.0
H2977 H 0.09797 0.78568 0.6626 0.0
H2978 H 0.19368 0.78976 0.70412 0.0
H2979 H 0.16327 0.79772 0.69002 0.0
H2980 H 0.1232 0.80675 0.73151 0.0
C2981 C 0.06355 0.8161 0.68778 0.0
C2982 C 0.1035 0.79063 0.67757 0.0
C2983 C 0.04332 0.8144 0.68512 0.0
C2984 C 0.18094 0.78638 0.71161 0.0
C2985 C 0.16357 0.79091 0.70353 0.0
C2986 C 0.11789 0.80224 0.71641 0.0
C2987 C 0.07171 0.79971 0.68283 0.0
C2988 C 0.09231 0.7996 0.68951 0.0
C2989 C 0.14693 0.78721 0.71309 0.0
C2990 C 0.12864 0.79242 0.70471 0.0
H2991 H 0.03011 0.76616 0.66618 0.0
H2992 H 0.06525 0.76914 0.67032 0.0
H2993 H 0.0915 0.8126 0.71846 0.0
H2994 H 0.16568 0.76721 0.75233 0.0
H2995 H 0.13511 0.77521 0.73819 0.0
C2996 C 0.02528 0.3335 0.43513 0.0
C2997 C 0.00639 0.32174 0.43034 0.0
C2998 C 0.02789 0.35371 0.44129 0.0
C2999 C 0.00332 0.3954 0.43702 0.0
H3000 H 0.03319 0.41837 0.48601 0.0
C3001 C 0.99054 0.46634 0.47634 0.0
C3002 C 0.00682 0.48056 0.48504 0.0
C3003 C 0.99279 0.44784 0.46865 0.0
C3004 C 0.02506 0.41226 0.47214 0.0
H3005 H 0.9755 0.32197 0.42828 0.0
H3006 H 0.9801 0.3571 0.43865 0.0
H3007 H 0.03356 0.38422 0.47423 0.0
H3008 H 0.03825 0.48648 0.49264 0.0
H3009 H 0.04208 0.45399 0.4795 0.0
H3010 H 0.99451 0.42318 0.43498 0.0
C3011 C 0.99286 0.35071 0.43775 0.0
C3012 C 0.0253 0.39275 0.46542 0.0
C3013 C 0.99024 0.33054 0.432 0.0
C3014 C 0.02538 0.47579 0.4861 0.0
C3015 C 0.0276 0.45719 0.47861 0.0
C3016 C 0.00313 0.41486 0.44367 0.0
C3017 C 0.01166 0.36253 0.4423 0.0
C3018 C 0.01394 0.38398 0.44808 0.0
C3019 C 0.01135 0.44308 0.46965 0.0
C3020 C 0.01351 0.4233 0.46158 0.0
H3021 H 0.03799 0.32712 0.43396 0.0
H3022 H 0.04255 0.36255 0.44479 0.0
H3023 H 0.99473 0.38906 0.42341 0.0
H3024 H 0.97609 0.46964 0.47505 0.0
H3025 H 0.97995 0.43718 0.46202 0.0
C3026 C 0.43566 0.26436 0.16259 0.0
C3027 C 0.44301 0.28006 0.15196 0.0
C3028 C 0.42287 0.26687 0.17594 0.0
C3029 C 0.38968 0.29879 0.19008 0.0
H3030 H 0.39517 0.27453 0.23831 0.0
C3031 C 0.33859 0.30626 0.2465 0.0
C3032 C 0.32755 0.28747 0.24865 0.0
C3033 C 0.35614 0.30789 0.23866 0.0
C3034 C 0.39368 0.28155 0.22499 0.0
H3035 H 0.44223 0.3104 0.14626 0.0
H3036 H 0.42019 0.31493 0.16983 0.0
H3037 H 0.41817 0.27194 0.215 0.0
H3038 H 0.32672 0.25585 0.24637 0.0
H3039 H 0.35761 0.25871 0.23306 0.0
H3040 H 0.36509 0.30821 0.20002 0.0
C3041 C 0.42414 0.30063 0.16778 0.0
C3042 C 0.40664 0.27989 0.21156 0.0
C3043 C 0.43678 0.29805 0.1543 0.0
C3044 C 0.33502 0.27049 0.24465 0.0
C3045 C 0.3527 0.27213 0.23718 0.0
C3046 C 0.37691 0.30066 0.2036 0.0
C3047 C 0.41732 0.28517 0.17897 0.0
C3048 C 0.40448 0.28811 0.19378 0.0
C3049 C 0.36292 0.29075 0.23332 0.0
C3050 C 0.37858 0.29172 0.22096 0.0
H3051 H 0.44003 0.25023 0.16082 0.0
H3052 H 0.41742 0.25449 0.18394 0.0
H3053 H 0.38746 0.30505 0.17643 0.0
H3054 H 0.33302 0.31953 0.24956 0.0
H3055 H 0.36389 0.32238 0.23582 0.0
C3056 C 0.58909 0.51903 0.33592 0.0
C3057 C 0.59629 0.50317 0.32784 0.0
C3058 C 0.57763 0.51638 0.35084 0.0
C3059 C 0.56497 0.48757 0.39047 0.0
H3060 H 0.51829 0.50949 0.38381 0.0
C3061 C 0.51851 0.49309 0.45237 0.0
C3062 C 0.51535 0.51236 0.45643 0.0
C3063 C 0.52466 0.48767 0.43484 0.0
C3064 C 0.53122 0.50323 0.38586 0.0
H3065 H 0.59817 0.47241 0.32995 0.0
H3066 H 0.57819 0.46788 0.35667 0.0
H3067 H 0.53779 0.50804 0.3572 0.0
H3068 H 0.51484 0.54056 0.44468 0.0
H3069 H 0.52566 0.53116 0.4142 0.0
H3070 H 0.55892 0.48362 0.41944 0.0
C3071 C 0.58131 0.48226 0.35106 0.0
C3072 C 0.54235 0.50239 0.37065 0.0
C3073 C 0.59281 0.48488 0.3359 0.0
C3074 C 0.51722 0.52564 0.44208 0.0
C3075 C 0.52332 0.52019 0.42453 0.0
C3076 C 0.55383 0.48845 0.40574 0.0
C3077 C 0.57313 0.49786 0.35818 0.0
C3078 C 0.55971 0.49525 0.37307 0.0
C3079 C 0.52768 0.50136 0.42097 0.0
C3080 C 0.53723 0.49696 0.40379 0.0
H3081 H 0.59175 0.53341 0.33026 0.0
H3082 H 0.57198 0.52882 0.35646 0.0
H3083 H 0.5783 0.48203 0.39268 0.0
H3084 H 0.51702 0.4824 0.46303 0.0
H3085 H 0.52763 0.47297 0.43238 0.0
C3086 C 0.21643 0.86545 0.08888 0.0
C3087 C 0.22002 0.85307 0.07345 0.0
C3088 C 0.21945 0.86045 0.10797 0.0
C3089 C 0.25015 0.83242 0.13575 0.0
H3090 H 0.21666 0.83422 0.17593 0.0
C3091 C 0.25237 0.78597 0.20008 0.0
C3092 C 0.25053 0.79428 0.21846 0.0
C3093 C 0.25081 0.79677 0.18402 0.0
C3094 C 0.22634 0.83403 0.16495 0.0
H3095 H 0.22754 0.82487 0.06569 0.0
H3096 H 0.2324 0.81606 0.09868 0.0
H3097 H 0.20744 0.84538 0.14427 0.0
H3098 H 0.24612 0.82051 0.23464 0.0
H3099 H 0.24288 0.83937 0.20635 0.0
H3100 H 0.26873 0.82055 0.15606 0.0
C3101 C 0.22788 0.82988 0.09621 0.0
C3102 C 0.22102 0.84034 0.14683 0.0
C3103 C 0.22491 0.83484 0.07728 0.0
C3104 C 0.24766 0.81382 0.22063 0.0
C3105 C 0.24569 0.82455 0.20445 0.0
C3106 C 0.25542 0.82613 0.15375 0.0
C3107 C 0.2261 0.84303 0.11182 0.0
C3108 C 0.23254 0.83889 0.13184 0.0
C3109 C 0.24703 0.816 0.18594 0.0
C3110 C 0.24326 0.82622 0.16833 0.0
H3111 H 0.21272 0.87963 0.08637 0.0
H3112 H 0.21779 0.87078 0.11973 0.0
H3113 H 0.25964 0.8317 0.12466 0.0
H3114 H 0.25463 0.77094 0.19804 0.0
H3115 H 0.25175 0.78971 0.16994 0.0
C3116 C 0.95048 0.54873 0.79847 0.0
C3117 C 0.93664 0.56017 0.79314 0.0
C3118 C 0.95653 0.54711 0.81789 0.0
C3119 C 0.95768 0.56823 0.86832 0.0
H3120 H 0.95884 0.51428 0.87989 0.0
C3121 C 0.96594 0.54485 0.94684 0.0
C3122 C 0.97879 0.53202 0.95088 0.0
C3123 C 0.96096 0.54909 0.92783 0.0
C3124 C 0.95881 0.52947 0.87692 0.0
H3125 H 0.91933 0.57999 0.80426 0.0
H3126 H 0.93005 0.57724 0.83839 0.0
H3127 H 0.95066 0.5212 0.84665 0.0
H3128 H 0.99621 0.51337 0.93795 0.0
H3129 H 0.98736 0.52058 0.90484 0.0
H3130 H 0.96576 0.57641 0.89874 0.0
C3131 C 0.93613 0.56945 0.8274 0.0
C3132 C 0.95413 0.53346 0.85782 0.0
C3133 C 0.93001 0.57107 0.80783 0.0
C3134 C 0.98632 0.52334 0.9354 0.0
C3135 C 0.98115 0.52741 0.91638 0.0
C3136 C 0.96236 0.56422 0.8875 0.0
C3137 C 0.94896 0.55689 0.83264 0.0
C3138 C 0.95366 0.55291 0.8532 0.0
C3139 C 0.96848 0.54042 0.91233 0.0
C3140 C 0.96311 0.54478 0.89202 0.0
H3141 H 0.95613 0.54032 0.78759 0.0
H3142 H 0.96683 0.53775 0.82135 0.0
H3143 H 0.95758 0.58338 0.86528 0.0
H3144 H 0.95992 0.55186 0.95839 0.0
H3145 H 0.95102 0.55901 0.92524 0.0
C3146 C 0.29906 0.20761 0.56153 0.0
C3147 C 0.29439 0.21708 0.54506 0.0
C3148 C 0.305 0.21872 0.57939 0.0
C3149 C 0.29078 0.26137 0.60071 0.0
H3150 H 0.31594 0.24607 0.64771 0.0
C3151 C 0.26711 0.27933 0.67517 0.0
C3152 C 0.26533 0.26348 0.68681 0.0
C3153 C 0.27642 0.27851 0.65857 0.0
C3154 C 0.30886 0.25053 0.63468 0.0
H3155 H 0.29547 0.24554 0.53346 0.0
H3156 H 0.30623 0.26497 0.56459 0.0
H3157 H 0.32594 0.23664 0.61662 0.0
H3158 H 0.27111 0.23416 0.69015 0.0
H3159 H 0.28649 0.23228 0.66083 0.0
H3160 H 0.2727 0.2739 0.61839 0.0
C3161 C 0.30463 0.249 0.5639 0.0
C3162 C 0.31471 0.24528 0.61695 0.0
C3163 C 0.29839 0.23789 0.54614 0.0
C3164 C 0.27236 0.24659 0.68137 0.0
C3165 C 0.28148 0.24567 0.66477 0.0
C3166 C 0.28486 0.26647 0.61837 0.0
C3167 C 0.30651 0.23942 0.58088 0.0
C3168 C 0.30504 0.24982 0.59971 0.0
C3169 C 0.28393 0.26175 0.65335 0.0
C3170 C 0.29315 0.26024 0.63542 0.0
H3171 H 0.29636 0.19157 0.56099 0.0
H3172 H 0.30639 0.21086 0.59219 0.0
H3173 H 0.28285 0.26494 0.58771 0.0
H3174 H 0.26199 0.29263 0.67927 0.0
H3175 H 0.27806 0.29112 0.65005 0.0
C3176 C 0.59976 0.47818 0.21137 0.0
C3177 C 0.58751 0.47709 0.22596 0.0
C3178 C 0.59201 0.47876 0.19223 0.0
C3179 C 0.54853 0.47491 0.15735 0.0
H3180 H 0.57099 0.52933 0.14927 0.0
C3181 C 0.51273 0.51412 0.09822 0.0
C3182 C 0.52532 0.52546 0.08711 0.0
C3183 C 0.52011 0.50785 0.11553 0.0
C3184 C 0.56474 0.51402 0.15106 0.0
H3185 H 0.5575 0.47227 0.23185 0.0
H3186 H 0.5439 0.4726 0.19826 0.0
H3187 H 0.58503 0.51392 0.17611 0.0
H3188 H 0.55514 0.54036 0.08573 0.0
H3189 H 0.56821 0.52895 0.11559 0.0
H3190 H 0.5284 0.47481 0.13216 0.0
C3191 C 0.55944 0.47349 0.20162 0.0
C3192 C 0.57284 0.50518 0.16639 0.0
C3193 C 0.56721 0.47331 0.22082 0.0
C3194 C 0.54516 0.53161 0.09411 0.0
C3195 C 0.55262 0.52507 0.11126 0.0
C3196 C 0.54062 0.48362 0.14175 0.0
C3197 C 0.57194 0.47774 0.18751 0.0
C3198 C 0.56474 0.48562 0.16971 0.0
C3199 C 0.54027 0.51253 0.12181 0.0
C3200 C 0.54852 0.50337 0.13854 0.0
H3201 H 0.61546 0.48107 0.21498 0.0
H3202 H 0.60185 0.48188 0.18145 0.0
H3203 H 0.54197 0.45987 0.15983 0.0
H3204 H 0.4973 0.50942 0.09315 0.0
H3205 H 0.5101 0.49879 0.12364 0.0
C3206 C 0.23755 0.86534 0.95642 0.0
C3207 C 0.22221 0.85846 0.96704 0.0
C3208 C 0.23699 0.8581 0.93724 0.0
C3209 C 0.21775 0.81387 0.90391 0.0
H3210 H 0.23925 0.84816 0.86648 0.0
C3211 C 0.22775 0.78669 0.82509 0.0
C3212 C 0.24589 0.79464 0.81911 0.0
C3213 C 0.22275 0.79368 0.84275 0.0
C3214 C 0.23329 0.83838 0.87679 0.0
H3215 H 0.19398 0.83887 0.96588 0.0
H3216 H 0.19306 0.82571 0.932 0.0
H3217 H 0.23252 0.86273 0.89713 0.0
H3218 H 0.27315 0.81591 0.82732 0.0
H3219 H 0.26432 0.82826 0.85794 0.0
H3220 H 0.21882 0.7895 0.88352 0.0
C3221 C 0.20548 0.83691 0.93863 0.0
C3222 C 0.22936 0.84671 0.89432 0.0
C3223 C 0.2059 0.84451 0.9579 0.0
C3224 C 0.25909 0.80939 0.83146 0.0
C3225 C 0.25396 0.8166 0.84894 0.0
C3226 C 0.22159 0.8055 0.88625 0.0
C3227 C 0.22117 0.8435 0.92817 0.0
C3228 C 0.22206 0.83458 0.90834 0.0
C3229 C 0.23563 0.80905 0.85466 0.0
C3230 C 0.2299 0.81768 0.87273 0.0
H3231 H 0.2503 0.87608 0.96316 0.0
H3232 H 0.24942 0.86335 0.92978 0.0
H3233 H 0.2123 0.8041 0.91445 0.0
H3234 H 0.21727 0.77524 0.81596 0.0
H3235 H 0.20853 0.78755 0.84678 0.0
C3236 C 0.93315 0.58088 0.67854 0.0
C3237 C 0.92364 0.56283 0.68438 0.0
C3238 C 0.93917 0.58154 0.66004 0.0
C3239 C 0.93434 0.55209 0.612 0.0
H3240 H 0.9889 0.57669 0.61322 0.0
C3241 C 0.983 0.53099 0.55533 0.0
C3242 C 0.99657 0.54651 0.54951 0.0
C3243 C 0.97189 0.53468 0.5701 0.0
C3244 C 0.97356 0.56999 0.61249 0.0
H3245 H 0.91152 0.53183 0.67517 0.0
H3246 H 0.92173 0.53296 0.6432 0.0
H3247 H 0.97244 0.58156 0.6414 0.0
H3248 H 0.0091 0.57802 0.55433 0.0
H3249 H 0.98977 0.58447 0.57986 0.0
H3250 H 0.93575 0.53996 0.58322 0.0
C3251 C 0.92473 0.5466 0.65264 0.0
C3252 C 0.96408 0.57288 0.62865 0.0
C3253 C 0.91902 0.54591 0.67106 0.0
C3254 C -0.00118 0.56572 0.55862 0.0
C3255 C 0.98775 0.56943 0.57327 0.0
C3256 C 0.94386 0.54914 0.59582 0.0
C3257 C 0.93546 0.56423 0.64707 0.0
C3258 C 0.94445 0.56368 0.62877 0.0
C3259 C 0.9743 0.55394 0.57937 0.0
C3260 C 0.96367 0.55783 0.596 0.0
H3261 H 0.93686 0.59412 0.68857 0.0
H3262 H 0.94725 0.59542 0.65609 0.0
H3263 H 0.91914 0.54495 0.61152 0.0
H3264 H 0.98129 0.51598 0.54874 0.0
H3265 H 0.96183 0.52237 0.57463 0.0
C3266 C 0.27549 0.19096 0.42883 0.0
C3267 C 0.28408 0.1978 0.44765 0.0
C3268 C 0.28347 0.19949 0.41326 0.0
C3269 C 0.30466 0.24777 0.4025 0.0
H3270 H 0.29936 0.2202 0.35141 0.0
C3271 C 0.28825 0.27853 0.32686 0.0
C3272 C 0.26972 0.26783 0.31847 0.0
C3273 C 0.29762 0.27253 0.34342 0.0
C3274 C 0.30141 0.22818 0.36562 0.0
H3275 H 0.30794 0.21792 0.46543 0.0
H3276 H 0.32165 0.23345 0.43805 0.0
H3277 H 0.3048 0.20242 0.37988 0.0
H3278 H 0.24607 0.24322 0.32142 0.0
H3279 H 0.26251 0.23276 0.35017 0.0
H3280 H 0.29955 0.27305 0.38809 0.0
C3281 C 0.30907 0.22129 0.43529 0.0
C3282 C 0.30451 0.21806 0.38185 0.0
C3283 C 0.30125 0.21249 0.45085 0.0
C3284 C 0.26028 0.25179 0.32753 0.0
C3285 C 0.26976 0.24566 0.34382 0.0
C3286 C 0.30162 0.25794 0.38622 0.0
C3287 C 0.29989 0.21524 0.41639 0.0
C3288 C 0.3047 0.22737 0.40035 0.0
C3289 C 0.28867 0.25562 0.35149 0.0
C3290 C 0.29867 0.24774 0.36778 0.0
H3291 H 0.26217 0.17968 0.42623 0.0
H3292 H 0.27588 0.19477 0.39886 0.0
H3293 H 0.30475 0.2553 0.41662 0.0
H3294 H 0.2958 0.29105 0.32021 0.0
H3295 H 0.31211 0.28054 0.3494 0.0
C3296 C 0.35038 0.62788 0.5142 0.0
C3297 C 0.34508 0.63485 0.49638 0.0
C3298 C 0.36497 0.6168 0.51611 0.0
C3299 C 0.40787 0.60654 0.49548 0.0
H3300 H 0.39604 0.55623 0.51763 0.0
C3301 C 0.45908 0.55071 0.49405 0.0
C3302 C 0.46092 0.53973 0.51005 0.0
C3303 C 0.44516 0.5626 0.49242 0.0
C3304 C 0.39977 0.57037 0.5117 0.0
H3305 H 0.35131 0.63614 0.46673 0.0
H3306 H 0.37704 0.61712 0.47022 0.0
H3307 H 0.3719 0.57705 0.51531 0.0
H3308 H 0.44993 0.5326 0.53699 0.0
H3309 H 0.42602 0.55367 0.53449 0.0
H3310 H 0.43588 0.60019 0.49223 0.0
C3311 C 0.3698 0.62013 0.48265 0.0
C3312 C 0.38587 0.58226 0.51032 0.0
C3313 C 0.35501 0.63093 0.48065 0.0
C3314 C 0.44866 0.5408 0.52441 0.0
C3315 C 0.4349 0.55283 0.5229 0.0
C3316 C 0.4219 0.59478 0.4971 0.0
C3317 C 0.37477 0.61276 0.50033 0.0
C3318 C 0.38975 0.60043 0.50215 0.0
C3319 C 0.43289 0.56385 0.50685 0.0
C3320 C 0.41802 0.57649 0.50518 0.0
H3321 H 0.34299 0.63062 0.52658 0.0
H3322 H 0.36863 0.61141 0.52995 0.0
H3323 H 0.41129 0.62057 0.48927 0.0
H3324 H 0.46827 0.54997 0.48271 0.0
H3325 H 0.44387 0.57059 0.4797 0.0
C3326 C 0.79503 0.93276 0.52839 0.0
C3327 C 0.79066 0.91744 0.51329 0.0
C3328 C 0.81225 0.9472 0.52979 0.0
C3329 C 0.84826 0.97322 0.5028 0.0
H3330 H 0.88813 0.97029 0.54474 0.0
C3331 C 0.92926 -0.00185 0.49634 0.0
C3332 C 0.94273 0.00542 0.51281 0.0
C3333 C 0.90957 0.99138 0.49798 0.0
C3334 C 0.8771 0.97176 0.5332 0.0
H3335 H 0.80029 0.90559 0.48741 0.0
H3336 H 0.83004 0.93128 0.48949 0.0
H3337 H 0.85491 0.95155 0.54468 0.0
H3338 H 0.94594 0.01191 0.54394 0.0
H3339 H 0.9114 0.00049 0.54677 0.0
H3340 H 0.87022 0.99332 0.49117 0.0
C3341 C 0.8203 0.93188 0.50037 0.0
C3342 C 0.8581 0.96096 0.53317 0.0
C3343 C 0.8034 0.91717 0.49925 0.0
C3344 C 0.93596 0.00622 0.53097 0.0
C3345 C 0.91616 -0.00037 0.5326 0.0
C3346 C 0.86713 0.98432 0.50299 0.0
C3347 C 0.82497 0.94682 0.51577 0.0
C3348 C 0.84377 0.96108 0.51763 0.0
C3349 C 0.90275 0.9919 0.51613 0.0
C3350 C 0.882 0.98309 0.51778 0.0
H3351 H 0.78543 0.93324 0.53942 0.0
H3352 H 0.81568 0.95858 0.54182 0.0
H3353 H 0.8373 0.97361 0.49077 0.0
H3354 H 0.93396 0.99718 0.48213 0.0
H3355 H 0.89984 0.98512 0.48501 0.0
C3356 C 0.84301 0.1125 0.24129 0.0
C3357 C 0.85737 0.11128 0.25652 0.0
C3358 C 0.83268 0.12781 0.24192 0.0
C3359 C 0.83414 0.17794 0.26526 0.0
H3360 H 0.77837 0.16444 0.24933 0.0
C3361 C 0.783 0.2334 0.2762 0.0
C3362 C 0.76728 0.23234 0.26173 0.0
C3363 C 0.79485 0.21933 0.27559 0.0
C3364 C 0.79397 0.16859 0.25358 0.0
H3365 H 0.87213 0.12528 0.28437 0.0
H3366 H 0.85393 0.15184 0.28555 0.0
H3367 H 0.79728 0.13869 0.24802 0.0
H3368 H 0.75214 0.21646 0.23482 0.0
H3369 H 0.77293 0.19239 0.23343 0.0
H3370 H 0.83078 0.20793 0.27071 0.0
C3371 C 0.85084 0.14109 0.273 0.0
C3372 C 0.80482 0.15376 0.25285 0.0
C3373 C 0.86117 0.12577 0.27238 0.0
C3374 C 0.76393 0.21739 0.24639 0.0
C3375 C 0.77583 0.20354 0.24564 0.0
C3376 C 0.82327 0.19285 0.2659 0.0
C3377 C 0.83643 0.14226 0.2578 0.0
C3378 C 0.82503 0.15823 0.25863 0.0
C3379 C 0.79125 0.20407 0.26038 0.0
C3380 C 0.80303 0.18836 0.26 0.0
H3381 H 0.83981 0.10171 0.22877 0.0
H3382 H 0.82186 0.12843 0.22984 0.0
H3383 H 0.84973 0.18191 0.26965 0.0
H3384 H 0.78589 0.24485 0.28815 0.0
H3385 H 0.80652 0.22015 0.28725 0.0
C3386 C 0.73389 0.11213 0.01555 0.0
C3387 C 0.73884 0.11891 -0.00205 0.0
C3388 C 0.71576 0.09976 0.01627 0.0
C3389 C 0.67043 0.07003 0.9895 0.0
H3390 H 0.64522 0.10411 0.01994 0.0
C3391 C 0.58629 0.05965 0.98374 0.0
C3392 C 0.57822 0.06374 0.00066 0.0
C3393 C 0.60654 0.06402 0.98363 0.0
C3394 C 0.65196 0.09411 0.01171 0.0
H3395 H 0.73002 0.11668 0.96713 0.0
H3396 H 0.69857 0.0944 0.96826 0.0
H3397 H 0.68031 0.11228 0.0202 0.0
H3398 H 0.58479 0.07544 0.0307 0.0
H3399 H 0.61994 0.08251 0.03078 0.0
H3400 H 0.64202 0.05173 0.98108 0.0
C3401 C 0.70856 0.09866 0.98147 0.0
C3402 C 0.67213 0.09883 0.01188 0.0
C3403 C 0.72654 0.11133 0.98081 0.0
C3404 C 0.59064 0.07232 0.01741 0.0
C3405 C 0.61082 0.07644 0.0174 0.0
C3406 C 0.65018 0.06505 0.98961 0.0
C3407 C 0.70253 0.09388 -0.00065 0.0
C3408 C 0.68154 0.08695 0.0007 0.0
C3409 C 0.61909 0.07238 0.00052 0.0
C3410 C 0.64066 0.07715 0.0006 0.0
H3411 H 0.74304 0.1181 0.02896 0.0
H3412 H 0.71139 0.09622 0.03021 0.0
H3413 H 0.67739 0.06077 0.98063 0.0
H3414 H 0.57698 0.05302 0.97062 0.0
H3415 H 0.6123 0.06101 0.97028 0.0
C3416 C 0.15024 0.43632 0.26513 0.0
C3417 C 0.14243 0.43832 0.28264 0.0
C3418 C 0.16088 0.42164 0.26175 0.0
C3419 C 0.16923 0.37361 0.27701 0.0
H3420 H 0.21781 0.38781 0.25521 0.0
C3421 C 0.2244 0.32209 0.27542 0.0
C3422 C 0.23393 0.3208 0.25892 0.0
C3423 C 0.21255 0.33589 0.27753 0.0
C3424 C 0.20414 0.3835 0.26103 0.0
H3425 H 0.13949 0.42621 0.31024 0.0
H3426 H 0.15797 0.40047 0.30426 0.0
H3427 H 0.1984 0.41279 0.26051 0.0
H3428 H 0.23888 0.33314 0.23183 0.0
H3429 H 0.2182 0.35745 0.2355 0.0
H3430 H 0.17496 0.34431 0.27754 0.0
C3431 C 0.15581 0.41027 0.29313 0.0
C3432 C 0.19303 0.39784 0.26411 0.0
C3433 C 0.1453 0.42509 0.29659 0.0
C3434 C 0.23163 0.3338 0.24467 0.0
C3435 C 0.21984 0.34773 0.24682 0.0
C3436 C 0.18031 0.35924 0.27387 0.0
C3437 C 0.16384 0.40847 0.27572 0.0
C3438 C 0.17549 0.39309 0.27221 0.0
C3439 C 0.21015 0.34894 0.26329 0.0
C3440 C 0.19797 0.36403 0.26594 0.0
H3441 H 0.14833 0.44626 0.25407 0.0
H3442 H 0.1667 0.42051 0.2481 0.0
H3443 H 0.15564 0.3694 0.28301 0.0
H3444 H 0.2265 0.31278 0.28698 0.0
H3445 H 0.20568 0.33667 0.29058 0.0
C3446 C 0.18469 0.43111 0.02436 0.0
C3447 C 0.19758 0.4323 0.01032 0.0
C3448 C 0.16735 0.4379 0.02107 0.0
C3449 C 0.13245 0.44763 0.98193 0.0
H3450 H 0.11817 0.48281 0.02093 0.0
C3451 C 0.05933 0.47602 0.98051 0.0
C3452 C 0.0621 0.49653 0.98549 0.0
C3453 C 0.07533 0.46684 0.98137 0.0
C3454 C 0.12201 0.47296 0.00995 0.0
H3455 H 0.20277 0.44217 0.98216 0.0
H3456 H 0.17258 0.45413 0.97657 0.0
H3457 H 0.1473 0.46919 0.02796 0.0
H3458 H 0.08356 0.52383 0.99358 0.0
H3459 H 0.11146 0.5078 0.99515 0.0
H3460 H 0.10709 0.45163 0.96388 0.0
C3461 C 0.17576 0.44765 0.98993 0.0
C3462 C 0.13854 0.46507 0.01402 0.0
C3463 C 0.19314 0.44103 0.99326 0.0
C3464 C 0.08107 0.50797 0.98981 0.0
C3465 C 0.09698 0.49882 0.99083 0.0
C3466 C 0.11573 0.45536 0.97793 0.0
C3467 C 0.1626 0.44587 0.00367 0.0
C3468 C 0.14414 0.4527 -0.0001 0.0
C3469 C 0.09416 0.47814 0.98736 0.0
C3470 C 0.11072 0.46848 0.99177 0.0
H3471 H 0.1877 0.42442 0.03762 0.0
H3472 H 0.15742 0.43643 0.03191 0.0
H3473 H 0.13637 0.43786 0.97092 0.0
H3474 H 0.04479 0.46693 0.977 0.0
H3475 H 0.0729 0.45086 0.97853 0.0
C3476 C 0.84433 0.98216 0.22271 0.0
C3477 C 0.84745 -0.00152 0.2366 0.0
C3478 C 0.83318 0.96391 0.22596 0.0
C3479 C 0.79988 0.9369 0.2576 0.0
H3480 H 0.8249 0.89402 0.24257 0.0
C3481 C 0.77846 0.85439 0.27742 0.0
C3482 C 0.77676 0.83998 0.26172 0.0
C3483 C 0.78566 0.87456 0.27542 0.0
C3484 C 0.81766 0.9058 0.24678 0.0
H3485 H 0.84049 0.00894 0.26431 0.0
H3486 H 0.82111 0.97668 0.2703 0.0
H3487 H 0.83896 0.92772 0.23652 0.0
H3488 H 0.78107 0.83572 0.23153 0.0
H3489 H 0.79365 0.87045 0.22826 0.0
H3490 H 0.77865 0.91457 0.26808 0.0
C3491 C 0.82708 0.97811 0.25673 0.0
C3492 C 0.82565 0.92515 0.2432 0.0
C3493 C 0.83809 0.99659 0.2533 0.0
C3494 C 0.78216 0.84627 0.244 0.0
C3495 C 0.78949 0.86624 0.2421 0.0
C3496 C 0.79189 0.91739 0.2613 0.0
C3497 C 0.82522 0.96135 0.24342 0.0
C3498 C 0.81669 0.94094 0.24817 0.0
C3499 C 0.79154 0.88061 0.25779 0.0
C3500 C 0.80054 0.9016 0.25558 0.0
H3501 H 0.85132 0.98329 0.20966 0.0
H3502 H 0.83154 0.95153 0.21511 0.0
H3503 H 0.79263 0.94871 0.26166 0.0
H3504 H 0.77437 0.85009 0.29125 0.0
H3505 H 0.78713 0.88534 0.28778 0.0
C3506 C 0.67117 0.04832 0.76216 0.0
C3507 C 0.66031 0.04127 0.77679 0.0
C3508 C 0.68464 0.06638 0.76552 0.0
C3509 C 0.68399 0.11295 0.78766 0.0
H3510 H 0.73684 0.13073 0.77614 0.0
C3511 C 0.71681 0.19589 0.78604 0.0
C3512 C 0.72787 0.20106 0.77097 0.0
C3513 C 0.71132 0.17606 0.78969 0.0
C3514 C 0.72201 0.12597 0.77926 0.0
H3515 H 0.65556 0.04654 0.80658 0.0
H3516 H 0.67862 0.07855 0.81224 0.0
H3517 H 0.72413 0.09529 0.7782 0.0
H3518 H 0.74207 0.18977 0.74799 0.0
H3519 H 0.73213 0.155 0.75403 0.0
H3520 H 0.68114 0.14312 0.78744 0.0
C3521 C 0.67718 0.0699 0.79844 0.0
C3522 C 0.71487 0.10577 0.78063 0.0
C3523 C 0.66411 0.05161 0.79523 0.0
C3524 C 0.73347 0.18612 0.75965 0.0
C3525 C 0.72795 0.16625 0.76327 0.0
C3526 C 0.69096 0.13303 0.78599 0.0
C3527 C 0.68687 0.07779 0.78333 0.0
C3528 C 0.69574 0.09913 0.78464 0.0
C3529 C 0.71674 0.16097 0.7783 0.0
C3530 C 0.70997 0.13978 0.78151 0.0
H3531 H 0.66816 0.04065 0.74777 0.0
H3532 H 0.69186 0.0723 0.75363 0.0
H3533 H 0.66902 0.10807 0.79035 0.0
H3534 H 0.71242 0.20718 0.79506 0.0
H3535 H 0.70291 0.17259 0.80152 0.0
loop_
_geom_bond_atom_site_label_1
_geom_bond_atom_site_label_2
_geom_bond_distance
_geom_bond_site_symmetry_2
_ccdc_geom_bond_type
Zn0 O3 2.026 1_655 S
Zn0 O5 2.049 . S
Zn0 O10 2.067 . S
Zn1 O2 1.962 . S
Zn1 O4 1.986 . S
Zn1 O6 1.996 . S
Zn1 O9 1.943 . S
O2 Zn1 1.962 . S
O2 C7 1.254 . S
O3 Zn0 2.026 1_455 S
O3 C7 1.292 . S
O4 Zn1 1.986 . S
O4 C11 1.262 . S
O5 Zn0 2.049 . S
O5 C13 1.260 1_655 S
O6 Zn1 1.996 . S
O6 C13 1.257 . S
C7 O2 1.254 . S
C7 O3 1.292 . S
C8 O9 1.249 1_655 S
C8 O10 1.270 . S
O9 Zn1 1.943 . S
O9 C8 1.249 1_455 S
O10 Zn0 2.067 . S
O10 C8 1.270 . S
C11 O4 1.262 . S
C11 O12 1.232 . S
O12 C11 1.232 . S
C13 O5 1.260 1_455 S
C13 O6 1.257 . S
Zn14 O17 2.031 1_455 S
Zn14 O19 2.049 . S
Zn14 O24 2.067 . S
Zn15 O16 1.920 1_455 S
Zn15 O18 2.005 . S
Zn15 O20 2.029 . S
Zn15 O23 1.951 1_455 S
O16 Zn15 1.920 1_655 S
O16 C21 1.254 . S
O17 Zn14 2.031 1_655 S
O17 C21 1.269 . S
O18 Zn15 2.005 . S
O18 C25 1.262 . S
O19 Zn14 2.049 . S
O19 C27 1.260 . S
O20 Zn15 2.029 . S
O20 C27 1.257 . S
C21 O16 1.254 . S
C21 O17 1.269 . S
C22 O23 1.249 . S
C22 O24 1.270 1_655 S
O23 Zn15 1.951 1_655 S
O23 C22 1.249 . S
O24 Zn14 2.067 . S
O24 C22 1.270 1_455 S
C25 O18 1.262 . S
C25 O26 1.232 1_455 S
O26 C25 1.232 1_655 S
C27 O19 1.260 . S
C27 O20 1.257 . S
Zn28 O31 2.031 . S
Zn28 O33 2.049 . S
Zn28 O38 2.067 . S
Zn29 O30 1.962 . S
Zn29 O32 1.986 . S
Zn29 O34 1.996 . S
Zn29 O37 1.943 . S
O30 Zn29 1.962 . S
O30 C35 1.254 . S
O31 Zn28 2.031 . S
O31 C35 1.269 . S
O32 Zn29 1.986 . S
O32 C39 1.262 . S
O33 Zn28 2.049 . S
O33 C41 1.260 . S
O34 Zn29 1.996 . S
O34 C41 1.257 . S
C35 O30 1.254 . S
C35 O31 1.269 . S
C36 O37 1.249 . S
C36 O38 1.270 . S
O37 Zn29 1.943 . S
O37 C36 1.249 . S
O38 Zn28 2.067 . S
O38 C36 1.270 . S
C39 O32 1.262 . S
C39 O40 1.232 . S
O40 C39 1.232 . S
C41 O33 1.260 . S
C41 O34 1.257 . S
Zn42 O45 2.031 . S
Zn42 O47 2.049 . S
Zn42 O52 2.067 . S
Zn43 O44 1.962 . S
Zn43 O46 1.986 . S
Zn43 O48 1.996 . S
Zn43 O51 1.943 . S
O44 Zn43 1.962 . S
O44 C49 1.254 . S
O45 Zn42 2.031 . S
O45 C49 1.269 . S
O46 Zn43 1.986 . S
O46 C53 1.262 . S
O47 Zn42 2.049 . S
O47 C55 1.260 . S
O48 Zn43 1.996 . S
O48 C55 1.257 . S
C49 O44 1.254 . S
C49 O45 1.269 . S
C50 O51 1.249 . S
C50 O52 1.270 . S
O51 Zn43 1.943 . S
O51 C50 1.249 . S
O52 Zn42 2.067 . S
O52 C50 1.270 . S
C53 O46 1.262 . S
C53 O54 1.232 . S
O54 C53 1.232 . S
C55 O47 1.260 . S
C55 O48 1.257 . S
Zn56 O59 2.031 . S
Zn56 O61 2.049 . S
Zn56 O66 2.067 . S
Zn57 O58 1.962 . S
Zn57 O60 1.986 . S
Zn57 O62 1.996 1_655 S
Zn57 O65 1.943 1_655 S
O58 Zn57 1.962 . S
O58 C63 1.254 1_655 S
O59 Zn56 2.031 . S
O59 C63 1.269 . S
O60 Zn57 1.986 . S
O60 C67 1.262 . S
O61 Zn56 2.049 . S
O61 C69 1.260 . S
O62 Zn57 1.996 1_455 S
O62 C69 1.257 . S
C63 O58 1.254 1_455 S
C63 O59 1.269 . S
C64 O65 1.249 . S
C64 O66 1.270 . S
O65 Zn57 1.943 1_455 S
O65 C64 1.249 . S
O66 Zn56 2.067 . S
O66 C64 1.270 . S
C67 O60 1.262 . S
C67 O68 1.232 . S
O68 C67 1.232 . S
C69 O61 1.260 . S
C69 O62 1.257 . S
Zn70 O73 2.031 . S
Zn70 O75 2.049 . S
Zn70 O80 2.067 . S
Zn71 O72 1.962 . S
Zn71 O74 1.986 . S
Zn71 O76 1.996 . S
Zn71 O79 1.943 . S
O72 Zn71 1.962 . S
O72 C77 1.254 . S
O73 Zn70 2.031 . S
O73 C77 1.269 . S
O74 Zn71 1.986 . S
O74 C81 1.262 . S
O75 Zn70 2.049 . S
O75 C83 1.260 . S
O76 Zn71 1.996 . S
O76 C83 1.257 . S
C77 O72 1.254 . S
C77 O73 1.269 . S
C78 O79 1.249 . S
C78 O80 1.270 . S
O79 Zn71 1.943 . S
O79 C78 1.249 . S
O80 Zn70 2.067 . S
O80 C78 1.270 . S
C81 O74 1.262 . S
C81 O82 1.232 . S
O82 C81 1.232 . S
C83 O75 1.260 . S
C83 O76 1.257 . S
Zn84 O87 2.031 . S
Zn84 O89 2.049 . S
Zn84 O94 2.067 . S
Zn85 O86 1.962 . S
Zn85 O88 1.986 . S
Zn85 O90 1.996 . S
Zn85 O93 1.943 . S
O86 Zn85 1.962 . S
O86 C91 1.254 . S
O87 Zn84 2.031 . S
O87 C91 1.269 . S
O88 Zn85 1.986 . S
O88 C95 1.262 . S
O89 Zn84 2.049 . S
O89 C97 1.260 . S
O90 Zn85 1.996 . S
O90 C97 1.257 . S
C91 O86 1.254 . S
C91 O87 1.269 . S
C92 O93 1.249 . S
C92 O94 1.270 . S
O93 Zn85 1.943 . S
O93 C92 1.249 . S
O94 Zn84 2.067 . S
O94 C92 1.270 . S
C95 O88 1.262 . S
C95 O96 1.232 . S
O96 C95 1.232 . S
C97 O89 1.260 . S
C97 O90 1.257 . S
Zn98 O101 2.031 . S
Zn98 O103 2.049 . S
Zn98 O108 2.067 . S
Zn99 O100 1.962 . S
Zn99 O102 1.986 . S
Zn99 O104 1.996 . S
Zn99 O107 1.943 1_455 S
O100 Zn99 1.962 . S
O100 C105 1.254 . S
O101 Zn98 2.031 . S
O101 C105 1.269 1_655 S
O102 Zn99 1.986 . S
O102 C109 1.262 . S
O103 Zn98 2.049 . S
O103 C111 1.260 1_655 S
O104 Zn99 1.996 . S
O104 C111 1.257 . S
C105 O100 1.254 . S
C105 O101 1.269 1_455 S
C106 O107 1.249 . S
C106 O108 1.270 . S
O107 Zn99 1.943 1_655 S
O107 C106 1.249 . S
O108 Zn98 2.067 . S
O108 C106 1.270 . S
C109 O102 1.262 . S
C109 O110 1.232 . S
O110 C109 1.232 . S
C111 O103 1.260 1_455 S
C111 O104 1.257 . S
Zn112 O115 2.031 . S
Zn112 O117 2.049 . S
Zn112 O122 2.067 . S
Zn113 O114 1.962 . S
Zn113 O116 1.986 . S
Zn113 O118 1.996 . S
Zn113 O121 1.943 . S
O114 Zn113 1.962 . S
O114 C119 1.254 . S
O115 Zn112 2.031 . S
O115 C119 1.269 . S
O116 Zn113 1.986 . S
O116 C123 1.262 . S
O117 Zn112 2.049 . S
O117 C125 1.260 . S
O118 Zn113 1.996 . S
O118 C125 1.257 . S
C119 O114 1.254 . S
C119 O115 1.269 . S
C120 O121 1.249 . S
C120 O122 1.270 . S
O121 Zn113 1.943 . S
O121 C120 1.249 . S
O122 Zn112 2.067 . S
O122 C120 1.270 . S
C123 O116 1.262 . S
C123 O124 1.232 . S
O124 C123 1.232 . S
C125 O117 1.260 . S
C125 O118 1.257 . S
Zn126 O129 2.031 . S
Zn126 O131 2.049 . S
Zn126 O136 2.067 . S
Zn127 O128 1.962 . S
Zn127 O130 1.986 . S
Zn127 O132 1.996 . S
Zn127 O135 1.943 . S
O128 Zn127 1.962 . S
O128 C133 1.254 . S
O129 Zn126 2.031 . S
O129 C133 1.269 . S
O130 Zn127 1.986 . S
O130 C137 1.262 . S
O131 Zn126 2.049 . S
O131 C139 1.260 . S
O132 Zn127 1.996 . S
O132 C139 1.257 . S
C133 O128 1.254 . S
C133 O129 1.269 . S
C134 O135 1.249 . S
C134 O136 1.270 . S
O135 Zn127 1.943 . S
O135 C134 1.249 . S
O136 Zn126 2.067 . S
O136 C134 1.270 . S
C137 O130 1.262 . S
C137 O138 1.232 . S
O138 C137 1.232 . S
C139 O131 1.260 . S
C139 O132 1.257 . S
Zn140 O143 2.031 . S
Zn140 O145 2.049 . S
Zn140 O150 2.067 . S
Zn141 O142 1.962 . S
Zn141 O144 1.986 . S
Zn141 O146 1.996 . S
Zn141 O149 1.943 1_565 S
O142 Zn141 1.962 . S
O142 C147 1.254 1_565 S
O143 Zn140 2.031 . S
O143 C147 1.269 . S
O144 Zn141 1.986 . S
O144 C151 1.262 . S
O145 Zn140 2.049 . S
O145 C153 1.260 . S
O146 Zn141 1.996 . S
O146 C153 1.257 1_565 S
C147 O142 1.254 1_545 S
C147 O143 1.269 . S
C148 O149 1.249 . S
C148 O150 1.270 . S
O149 Zn141 1.943 1_545 S
O149 C148 1.249 . S
O150 Zn140 2.067 . S
O150 C148 1.270 . S
C151 O144 1.262 . S
C151 O152 1.232 . S
O152 C151 1.232 . S
C153 O145 1.260 . S
C153 O146 1.257 1_545 S
Zn154 O157 2.031 . S
Zn154 O159 2.049 . S
Zn154 O164 2.067 . S
Zn155 O156 1.962 . S
Zn155 O158 1.986 . S
Zn155 O160 1.996 . S
Zn155 O163 1.943 . S
O156 Zn155 1.962 . S
O156 C161 1.254 1_554 S
O157 Zn154 2.031 . S
O157 C161 1.269 1_554 S
O158 Zn155 1.986 . S
O158 C165 1.262 . S
O159 Zn154 2.049 . S
O159 C167 1.260 . S
O160 Zn155 1.996 . S
O160 C167 1.257 . S
C161 O156 1.254 1_556 S
C161 O157 1.269 1_556 S
C162 O163 1.249 . S
C162 O164 1.270 . S
O163 Zn155 1.943 . S
O163 C162 1.249 . S
O164 Zn154 2.067 . S
O164 C162 1.270 . S
C165 O158 1.262 . S
C165 O166 1.232 . S
O166 C165 1.232 . S
C167 O159 1.260 . S
C167 O160 1.257 . S
Zn168 O171 2.031 1_554 S
Zn168 O173 2.049 . S
Zn168 O178 2.067 . S
Zn169 O170 1.962 1_554 S
Zn169 O172 1.986 . S
Zn169 O174 1.996 . S
Zn169 O177 1.943 . S
O170 Zn169 1.962 1_556 S
O170 C175 1.254 . S
O171 Zn168 2.031 1_556 S
O171 C175 1.269 . S
O172 Zn169 1.986 . S
O172 C179 1.262 . S
O173 Zn168 2.049 . S
O173 C181 1.260 . S
O174 Zn169 1.996 . S
O174 C181 1.257 . S
C175 O170 1.254 . S
C175 O171 1.269 . S
C176 O177 1.249 . S
C176 O178 1.270 . S
O177 Zn169 1.943 . S
O177 C176 1.249 . S
O178 Zn168 2.067 . S
O178 C176 1.270 . S
C179 O172 1.262 . S
C179 O180 1.232 . S
O180 C179 1.232 . S
C181 O173 1.260 . S
C181 O174 1.257 . S
Zn182 O185 2.031 1_554 S
Zn182 O187 2.049 . S
Zn182 O192 2.067 . S
Zn183 O184 1.962 1_554 S
Zn183 O186 1.986 . S
Zn183 O188 1.996 . S
Zn183 O191 1.943 . S
O184 Zn183 1.962 1_556 S
O184 C189 1.254 . S
O185 Zn182 2.031 1_556 S
O185 C189 1.269 . S
O186 Zn183 1.986 . S
O186 C193 1.262 . S
O187 Zn182 2.049 . S
O187 C195 1.260 . S
O188 Zn183 1.996 . S
O188 C195 1.257 . S
C189 O184 1.254 . S
C189 O185 1.269 . S
C190 O191 1.245 . S
C190 O192 1.283 . S
O191 Zn183 1.943 . S
O191 C190 1.245 . S
O192 Zn182 2.067 . S
O192 C190 1.283 . S
C193 O186 1.262 . S
C193 O194 1.232 1_554 S
O194 C193 1.232 1_556 S
C195 O187 1.260 . S
C195 O188 1.257 . S
Zn196 O199 2.031 . S
Zn196 O201 2.049 . S
Zn196 O206 2.067 . S
Zn197 O198 1.962 . S
Zn197 O200 1.986 . S
Zn197 O202 1.996 . S
Zn197 O205 1.943 . S
O198 Zn197 1.962 . S
O198 C203 1.254 . S
O199 Zn196 2.031 . S
O199 C203 1.269 . S
O200 Zn197 1.986 . S
O200 C207 1.262 . S
O201 Zn196 2.049 . S
O201 C209 1.260 . S
O202 Zn197 1.996 . S
O202 C209 1.257 . S
C203 O198 1.254 . S
C203 O199 1.269 . S
C204 O205 1.249 . S
C204 O206 1.270 . S
O205 Zn197 1.943 . S
O205 C204 1.249 . S
O206 Zn196 2.067 . S
O206 C204 1.270 . S
C207 O200 1.262 . S
C207 O208 1.232 . S
O208 C207 1.232 . S
C209 O201 1.260 . S
C209 O202 1.257 . S
Zn210 O213 2.031 . S
Zn210 O215 2.049 . S
Zn210 O220 2.067 . S
Zn211 O212 1.962 . S
Zn211 O214 1.986 . S
Zn211 O216 1.996 . S
Zn211 O219 1.943 . S
O212 Zn211 1.962 . S
O212 C217 1.254 . S
O213 Zn210 2.031 . S
O213 C217 1.269 . S
O214 Zn211 1.986 . S
O214 C221 1.262 . S
O215 Zn210 2.049 . S
O215 C223 1.260 . S
O216 Zn211 1.996 . S
O216 C223 1.257 . S
C217 O212 1.254 . S
C217 O213 1.269 . S
C218 O219 1.249 . S
C218 O220 1.270 . S
O219 Zn211 1.943 . S
O219 C218 1.249 . S
O220 Zn210 2.067 . S
O220 C218 1.270 . S
C221 O214 1.262 . S
C221 O222 1.232 . S
O222 C221 1.232 . S
C223 O215 1.260 . S
C223 O216 1.257 . S
Zn224 O227 2.031 . S
Zn224 O229 2.049 . S
Zn224 O234 2.067 . S
Zn225 O226 1.962 . S
Zn225 O228 1.986 . S
Zn225 O230 1.996 . S
Zn225 O233 1.943 . S
O226 Zn225 1.962 . S
O226 C231 1.254 . S
O227 Zn224 2.031 . S
O227 C231 1.269 . S
O228 Zn225 1.986 . S
O228 C235 1.262 . S
O229 Zn224 2.049 . S
O229 C237 1.260 . S
O230 Zn225 1.996 . S
O230 C237 1.257 . S
C231 O226 1.254 . S
C231 O227 1.269 . S
C232 O233 1.249 . S
C232 O234 1.270 . S
O233 Zn225 1.943 . S
O233 C232 1.249 . S
O234 Zn224 2.067 . S
O234 C232 1.270 . S
C235 O228 1.262 . S
C235 O236 1.232 . S
O236 C235 1.232 . S
C237 O229 1.260 . S
C237 O230 1.257 . S
Zn238 O241 2.031 . S
Zn238 O243 2.049 . S
Zn238 O248 2.067 . S
Zn239 O240 1.962 . S
Zn239 O242 1.986 . S
Zn239 O244 1.996 . S
Zn239 O247 1.943 . S
O240 Zn239 1.962 . S
O240 C245 1.254 . S
O241 Zn238 2.031 . S
O241 C245 1.269 . S
O242 Zn239 1.986 . S
O242 C249 1.262 . S
O243 Zn238 2.049 . S
O243 C251 1.260 . S
O244 Zn239 1.996 . S
O244 C251 1.257 . S
C245 O240 1.254 . S
C245 O241 1.269 . S
C246 O247 1.249 . S
C246 O248 1.270 . S
O247 Zn239 1.943 . S
O247 C246 1.249 . S
O248 Zn238 2.067 . S
O248 C246 1.270 . S
C249 O242 1.262 . S
C249 O250 1.232 . S
O250 C249 1.232 . S
C251 O243 1.260 . S
C251 O244 1.257 . S
Zn252 O255 2.031 . S
Zn252 O257 2.049 . S
Zn252 O262 2.067 . S
Zn253 O254 1.962 . S
Zn253 O256 1.986 . S
Zn253 O258 1.996 . S
Zn253 O261 1.943 . S
O254 Zn253 1.962 . S
O254 C259 1.254 . S
O255 Zn252 2.031 . S
O255 C259 1.269 . S
O256 Zn253 1.986 . S
O256 C263 1.262 . S
O257 Zn252 2.049 . S
O257 C265 1.260 . S
O258 Zn253 1.996 . S
O258 C265 1.257 . S
C259 O254 1.254 . S
C259 O255 1.269 . S
C260 O261 1.249 . S
C260 O262 1.270 . S
O261 Zn253 1.943 . S
O261 C260 1.249 . S
O262 Zn252 2.067 . S
O262 C260 1.270 . S
C263 O256 1.262 . S
C263 O264 1.232 . S
O264 C263 1.232 . S
C265 O257 1.260 . S
C265 O258 1.257 . S
Zn266 O269 2.031 . S
Zn266 O271 2.049 . S
Zn266 O276 2.067 . S
Zn267 O268 1.962 . S
Zn267 O270 1.986 1_545 S
Zn267 O272 1.996 . S
Zn267 O275 1.943 . S
O268 Zn267 1.962 . S
O268 C273 1.254 . S
O269 Zn266 2.031 . S
O269 C273 1.269 . S
O270 Zn267 1.986 1_565 S
O270 C277 1.262 . S
O271 Zn266 2.049 . S
O271 C279 1.260 . S
O272 Zn267 1.996 . S
O272 C279 1.257 . S
C273 O268 1.254 . S
C273 O269 1.269 . S
C274 O275 1.249 . S
C274 O276 1.270 . S
O275 Zn267 1.943 . S
O275 C274 1.249 . S
O276 Zn266 2.067 . S
O276 C274 1.270 . S
C277 O270 1.262 . S
C277 O278 1.232 . S
O278 C277 1.232 . S
C279 O271 1.260 . S
C279 O272 1.257 . S
Zn280 O283 2.031 1_554 S
Zn280 O285 2.049 . S
Zn280 O290 2.067 . S
Zn281 O282 1.962 1_554 S
Zn281 O284 1.986 . S
Zn281 O286 1.996 . S
Zn281 O289 1.943 . S
O282 Zn281 1.962 1_556 S
O282 C287 1.254 . S
O283 Zn280 2.031 1_556 S
O283 C287 1.269 . S
O284 Zn281 1.986 . S
O284 C291 1.262 . S
O285 Zn280 2.049 . S
O285 C293 1.260 . S
O286 Zn281 1.996 . S
O286 C293 1.257 . S
C287 O282 1.254 . S
C287 O283 1.269 . S
C288 O289 1.249 . S
C288 O290 1.270 . S
O289 Zn281 1.943 . S
O289 C288 1.249 . S
O290 Zn280 2.067 . S
O290 C288 1.270 . S
C291 O284 1.262 . S
C291 O292 1.232 1_554 S
O292 C291 1.232 1_556 S
C293 O285 1.260 . S
C293 O286 1.257 . S
Zn294 O297 2.031 . S
Zn294 O299 2.049 . S
Zn294 O304 2.067 . S
Zn295 O296 1.962 . S
Zn295 O298 1.986 . S
Zn295 O300 1.996 . S
Zn295 O303 1.943 . S
O296 Zn295 1.962 . S
O296 C301 1.254 . S
O297 Zn294 2.031 . S
O297 C301 1.269 . S
O298 Zn295 1.986 . S
O298 C305 1.262 . S
O299 Zn294 2.049 . S
O299 C307 1.260 . S
O300 Zn295 1.996 . S
O300 C307 1.257 . S
C301 O296 1.254 . S
C301 O297 1.269 . S
C302 O303 1.249 . S
C302 O304 1.270 . S
O303 Zn295 1.943 . S
O303 C302 1.249 . S
O304 Zn294 2.067 . S
O304 C302 1.270 . S
C305 O298 1.262 . S
C305 O306 1.232 . S
O306 C305 1.232 . S
C307 O299 1.260 . S
C307 O300 1.257 . S
Zn308 O311 2.031 . S
Zn308 O313 2.049 . S
Zn308 O318 2.067 . S
Zn309 O310 1.962 . S
Zn309 O312 1.986 . S
Zn309 O314 1.996 . S
Zn309 O317 1.943 . S
O310 Zn309 1.962 . S
O310 C315 1.254 . S
O311 Zn308 2.031 . S
O311 C315 1.269 . S
O312 Zn309 1.986 . S
O312 C319 1.262 . S
O313 Zn308 2.049 . S
O313 C321 1.260 . S
O314 Zn309 1.996 . S
O314 C321 1.257 . S
C315 O310 1.254 . S
C315 O311 1.269 . S
C316 O317 1.249 . S
C316 O318 1.270 . S
O317 Zn309 1.943 . S
O317 C316 1.249 . S
O318 Zn308 2.067 . S
O318 C316 1.270 . S
C319 O312 1.262 . S
C319 O320 1.232 . S
O320 C319 1.232 . S
C321 O313 1.260 . S
C321 O314 1.257 . S
Zn322 O325 2.031 . S
Zn322 O327 2.049 . S
Zn322 O332 2.067 . S
Zn323 O324 1.962 . S
Zn323 O326 1.986 . S
Zn323 O328 1.996 . S
Zn323 O331 1.943 . S
O324 Zn323 1.962 . S
O324 C329 1.254 . S
O325 Zn322 2.031 . S
O325 C329 1.269 . S
O326 Zn323 1.986 . S
O326 C333 1.262 . S
O327 Zn322 2.049 . S
O327 C335 1.260 . S
O328 Zn323 1.996 . S
O328 C335 1.257 . S
C329 O324 1.254 . S
C329 O325 1.269 . S
C330 O331 1.249 . S
C330 O332 1.270 . S
O331 Zn323 1.943 . S
O331 C330 1.249 . S
O332 Zn322 2.067 . S
O332 C330 1.270 . S
C333 O326 1.262 . S
C333 O334 1.232 . S
O334 C333 1.232 . S
C335 O327 1.260 . S
C335 O328 1.257 . S
Tb336 O339 2.453 . S
Tb336 O340 2.596 . S
Tb336 O341 2.374 1_554 S
Tb336 O349 2.343 1_455 S
Tb336 O351 2.353 . S
Tb336 O353 2.427 . S
Tb336 O354 2.513 1_554 S
C337 O341 1.251 . S
C337 O343 1.263 . S
Tb338 O340 2.343 1_655 S
Tb338 O343 2.353 1_654 S
Tb338 O346 2.427 1_645 S
Tb338 O347 2.513 1_645 S
Tb338 O348 2.453 . S
Tb338 O349 2.596 . S
Tb338 O350 2.374 . S
O339 Tb336 2.453 . S
O339 C355 1.245 . S
O340 Tb336 2.596 . S
O340 Tb338 2.343 1_455 S
O340 C355 1.259 . S
O341 Tb336 2.374 1_556 S
O341 C337 1.251 . S
C342 O346 1.275 . S
C342 O347 1.246 . S
O343 C337 1.263 . S
O343 Tb338 2.353 1_456 S
C344 O348 1.245 . S
C344 O349 1.259 . S
C345 O350 1.250 1_455 S
C345 O351 1.263 . S
O346 Tb338 2.427 1_465 S
O346 C342 1.275 . S
O347 Tb338 2.513 1_465 S
O347 C342 1.246 . S
O348 Tb338 2.453 . S
O348 C344 1.245 . S
O349 Tb336 2.343 1_655 S
O349 Tb338 2.596 . S
O349 C344 1.259 . S
O350 Tb338 2.374 . S
O350 C345 1.250 1_655 S
O351 Tb336 2.353 . S
O351 C345 1.263 . S
C352 O353 1.275 . S
C352 O354 1.246 1_554 S
O353 Tb336 2.427 . S
O353 C352 1.275 . S
O354 Tb336 2.513 1_556 S
O354 C352 1.246 1_556 S
C355 O339 1.245 . S
C355 O340 1.259 . S
Tb356 O359 2.453 . S
Tb356 O360 2.596 . S
Tb356 O361 2.374 . S
Tb356 O369 2.343 . S
Tb356 O371 2.353 . S
Tb356 O373 2.427 . S
Tb356 O374 2.513 . S
C357 O361 1.251 . S
C357 O363 1.263 . S
Tb358 O360 2.343 . S
Tb358 O363 2.353 . S
Tb358 O366 2.427 . S
Tb358 O367 2.513 . S
Tb358 O368 2.453 . S
Tb358 O369 2.596 . S
Tb358 O370 2.374 . S
O359 Tb356 2.453 . S
O359 C375 1.245 . S
O360 Tb356 2.596 . S
O360 Tb358 2.343 . S
O360 C375 1.259 . S
O361 Tb356 2.374 . S
O361 C357 1.251 . S
C362 O366 1.275 . S
C362 O367 1.246 . S
O363 C357 1.263 . S
O363 Tb358 2.353 . S
C364 O368 1.245 . S
C364 O369 1.259 . S
C365 O370 1.250 . S
C365 O371 1.263 . S
O366 Tb358 2.427 . S
O366 C362 1.275 . S
O367 Tb358 2.513 . S
O367 C362 1.246 . S
O368 Tb358 2.453 . S
O368 C364 1.245 . S
O369 Tb356 2.343 . S
O369 Tb358 2.596 . S
O369 C364 1.259 . S
O370 Tb358 2.374 . S
O370 C365 1.250 . S
O371 Tb356 2.353 . S
O371 C365 1.263 . S
C372 O373 1.275 . S
C372 O374 1.246 . S
O373 Tb356 2.427 . S
O373 C372 1.275 . S
O374 Tb356 2.513 . S
O374 C372 1.246 . S
C375 O359 1.245 . S
C375 O360 1.259 . S
Tb376 O379 2.453 . S
Tb376 O380 2.596 . S
Tb376 O381 2.374 . S
Tb376 O389 2.343 . S
Tb376 O391 2.353 . S
Tb376 O393 2.427 . S
Tb376 O394 2.513 . S
C377 O381 1.251 . S
C377 O383 1.263 . S
Tb378 O380 2.343 . S
Tb378 O383 2.353 . S
Tb378 O386 2.427 . S
Tb378 O387 2.513 . S
Tb378 O388 2.453 1_545 S
Tb378 O389 2.596 . S
Tb378 O390 2.374 . S
O379 Tb376 2.453 . S
O379 C395 1.245 . S
O380 Tb376 2.596 . S
O380 Tb378 2.343 . S
O380 C395 1.259 . S
O381 Tb376 2.374 . S
O381 C377 1.251 . S
C382 O386 1.275 . S
C382 O387 1.246 . S
O383 C377 1.263 . S
O383 Tb378 2.353 . S
C384 O388 1.245 . S
C384 O389 1.259 1_565 S
C385 O390 1.250 . S
C385 O391 1.263 . S
O386 Tb378 2.427 . S
O386 C382 1.275 . S
O387 Tb378 2.513 . S
O387 C382 1.246 . S
O388 Tb378 2.453 1_565 S
O388 C384 1.245 . S
O389 Tb376 2.343 . S
O389 Tb378 2.596 . S
O389 C384 1.259 1_545 S
O390 Tb378 2.374 . S
O390 C385 1.250 . S
O391 Tb376 2.353 . S
O391 C385 1.263 . S
C392 O393 1.275 . S
C392 O394 1.246 . S
O393 Tb376 2.427 . S
O393 C392 1.275 . S
O394 Tb376 2.513 . S
O394 C392 1.246 . S
C395 O379 1.245 . S
C395 O380 1.259 . S
Tb396 O399 2.453 . S
Tb396 O400 2.596 . S
Tb396 O401 2.374 . S
Tb396 O409 2.343 . S
Tb396 O411 2.353 . S
Tb396 O413 2.427 . S
Tb396 O414 2.513 . S
C397 O401 1.251 . S
C397 O403 1.263 . S
Tb398 O400 2.343 . S
Tb398 O403 2.353 . S
Tb398 O406 2.427 . S
Tb398 O407 2.513 . S
Tb398 O408 2.453 . S
Tb398 O409 2.596 . S
Tb398 O410 2.374 . S
O399 Tb396 2.453 . S
O399 C415 1.245 . S
O400 Tb396 2.596 . S
O400 Tb398 2.343 . S
O400 C415 1.259 . S
O401 Tb396 2.374 . S
O401 C397 1.251 . S
C402 O406 1.275 . S
C402 O407 1.246 . S
O403 C397 1.263 . S
O403 Tb398 2.353 . S
C404 O408 1.245 . S
C404 O409 1.259 . S
C405 O410 1.250 . S
C405 O411 1.263 . S
O406 Tb398 2.427 . S
O406 C402 1.275 . S
O407 Tb398 2.513 . S
O407 C402 1.246 . S
O408 Tb398 2.453 . S
O408 C404 1.245 . S
O409 Tb396 2.343 . S
O409 Tb398 2.596 . S
O409 C404 1.259 . S
O410 Tb398 2.374 . S
O410 C405 1.250 . S
O411 Tb396 2.353 . S
O411 C405 1.263 . S
C412 O413 1.275 . S
C412 O414 1.246 . S
O413 Tb396 2.427 . S
O413 C412 1.275 . S
O414 Tb396 2.513 . S
O414 C412 1.246 . S
C415 O399 1.245 . S
C415 O400 1.259 . S
Tb416 O419 2.453 1_545 S
Tb416 O420 2.596 . S
Tb416 O421 2.374 1_455 S
Tb416 O429 2.343 . S
Tb416 O431 2.353 . S
Tb416 O433 2.427 . S
Tb416 O434 2.513 1_455 S
C417 O421 1.251 . S
C417 O423 1.263 . S
Tb418 O420 2.343 . S
Tb418 O423 2.353 1_455 S
Tb418 O426 2.427 . S
Tb418 O427 2.513 . S
Tb418 O428 2.453 . S
Tb418 O429 2.596 . S
Tb418 O430 2.374 . S
O419 Tb416 2.453 1_565 S
O419 C435 1.245 . S
O420 Tb416 2.596 . S
O420 Tb418 2.343 . S
O420 C435 1.259 1_545 S
O421 Tb416 2.374 1_655 S
O421 C417 1.251 . S
C422 O426 1.275 . S
C422 O427 1.246 . S
O423 C417 1.263 . S
O423 Tb418 2.353 1_655 S
C424 O428 1.245 . S
C424 O429 1.259 . S
C425 O430 1.250 . S
C425 O431 1.263 . S
O426 Tb418 2.427 . S
O426 C422 1.275 . S
O427 Tb418 2.513 . S
O427 C422 1.246 . S
O428 Tb418 2.453 . S
O428 C424 1.245 . S
O429 Tb416 2.343 . S
O429 Tb418 2.596 . S
O429 C424 1.259 . S
O430 Tb418 2.374 . S
O430 C425 1.250 . S
O431 Tb416 2.353 . S
O431 C425 1.263 . S
C432 O433 1.275 1_655 S
C432 O434 1.246 . S
O433 Tb416 2.427 . S
O433 C432 1.275 1_455 S
O434 Tb416 2.513 1_655 S
O434 C432 1.246 . S
C435 O419 1.245 . S
C435 O420 1.259 1_565 S
Tb436 O439 2.453 . S
Tb436 O440 2.596 . S
Tb436 O441 2.374 . S
Tb436 O449 2.343 . S
Tb436 O451 2.353 . S
Tb436 O453 2.427 . S
Tb436 O454 2.513 . S
C437 O441 1.251 . S
C437 O443 1.263 . S
Tb438 O440 2.343 . S
Tb438 O443 2.353 . S
Tb438 O446 2.427 . S
Tb438 O447 2.513 . S
Tb438 O448 2.453 . S
Tb438 O449 2.596 . S
Tb438 O450 2.374 . S
O439 Tb436 2.453 . S
O439 C455 1.245 . S
O440 Tb436 2.596 . S
O440 Tb438 2.343 . S
O440 C455 1.259 . S
O441 Tb436 2.374 . S
O441 C437 1.251 . S
C442 O446 1.275 . S
C442 O447 1.246 . S
O443 C437 1.263 . S
O443 Tb438 2.353 . S
C444 O448 1.245 . S
C444 O449 1.259 . S
C445 O450 1.250 . S
C445 O451 1.263 . S
O446 Tb438 2.427 . S
O446 C442 1.275 . S
O447 Tb438 2.513 . S
O447 C442 1.246 . S
O448 Tb438 2.453 . S
O448 C444 1.245 . S
O449 Tb436 2.343 . S
O449 Tb438 2.596 . S
O449 C444 1.259 . S
O450 Tb438 2.374 . S
O450 C445 1.250 . S
O451 Tb436 2.353 . S
O451 C445 1.263 . S
C452 O453 1.275 . S
C452 O454 1.246 . S
O453 Tb436 2.427 . S
O453 C452 1.275 . S
O454 Tb436 2.513 . S
O454 C452 1.246 . S
C455 O439 1.245 . S
C455 O440 1.259 . S
Tb456 O459 2.453 . S
Tb456 O460 2.596 . S
Tb456 O461 2.374 . S
Tb456 O469 2.343 1_556 S
Tb456 O471 2.353 1_556 S
Tb456 O473 2.427 1_556 S
Tb456 O474 2.513 1_556 S
C457 O461 1.251 1_565 S
C457 O463 1.263 1_566 S
Tb458 O460 2.343 1_554 S
Tb458 O463 2.353 . S
Tb458 O466 2.427 . S
Tb458 O467 2.513 . S
Tb458 O468 2.453 . S
Tb458 O469 2.596 . S
Tb458 O470 2.374 . S
O459 Tb456 2.453 . S
O459 C475 1.245 . S
O460 Tb456 2.596 . S
O460 Tb458 2.343 1_556 S
O460 C475 1.259 . S
O461 Tb456 2.374 . S
O461 C457 1.251 1_545 S
C462 O466 1.275 . S
C462 O467 1.246 . S
O463 C457 1.263 1_544 S
O463 Tb458 2.353 . S
C464 O468 1.245 . S
C464 O469 1.259 . S
C465 O470 1.250 . S
C465 O471 1.263 . S
O466 Tb458 2.427 . S
O466 C462 1.275 . S
O467 Tb458 2.513 . S
O467 C462 1.246 . S
O468 Tb458 2.453 . S
O468 C464 1.245 . S
O469 Tb456 2.343 1_554 S
O469 Tb458 2.596 . S
O469 C464 1.259 . S
O470 Tb458 2.374 . S
O470 C465 1.250 . S
O471 Tb456 2.353 1_554 S
O471 C465 1.263 . S
C472 O473 1.275 . S
C472 O474 1.246 . S
O473 Tb456 2.427 1_554 S
O473 C472 1.275 . S
O474 Tb456 2.513 1_554 S
O474 C472 1.246 . S
C475 O459 1.245 . S
C475 O460 1.259 . S
Tb476 O479 2.453 . S
Tb476 O480 2.596 . S
Tb476 O481 2.374 . S
Tb476 O489 2.343 . S
Tb476 O491 2.353 . S
Tb476 O493 2.427 . S
Tb476 O494 2.513 . S
C477 O481 1.251 . S
C477 O483 1.263 . S
Tb478 O480 2.343 . S
Tb478 O483 2.353 . S
Tb478 O486 2.427 . S
Tb478 O487 2.513 . S
Tb478 O488 2.453 . S
Tb478 O489 2.596 . S
Tb478 O490 2.374 . S
O479 Tb476 2.453 . S
O479 C495 1.245 . S
O480 Tb476 2.596 . S
O480 Tb478 2.343 . S
O480 C495 1.259 . S
O481 Tb476 2.374 . S
O481 C477 1.251 . S
C482 O486 1.275 . S
C482 O487 1.246 . S
O483 C477 1.263 . S
O483 Tb478 2.353 . S
C484 O488 1.245 . S
C484 O489 1.259 . S
C485 O490 1.250 . S
C485 O491 1.263 . S
O486 Tb478 2.427 . S
O486 C482 1.275 . S
O487 Tb478 2.513 . S
O487 C482 1.246 . S
O488 Tb478 2.453 . S
O488 C484 1.245 . S
O489 Tb476 2.343 . S
O489 Tb478 2.596 . S
O489 C484 1.259 . S
O490 Tb478 2.374 . S
O490 C485 1.250 . S
O491 Tb476 2.353 . S
O491 C485 1.263 . S
C492 O493 1.275 . S
C492 O494 1.246 . S
O493 Tb476 2.427 . S
O493 C492 1.275 . S
O494 Tb476 2.513 . S
O494 C492 1.246 . S
C495 O479 1.245 . S
C495 O480 1.259 . S
Tb496 O499 2.453 1_556 S
Tb496 O500 2.596 1_556 S
Tb496 O501 2.374 . S
Tb496 O509 2.343 . S
Tb496 O511 2.353 . S
Tb496 O513 2.427 . S
Tb496 O514 2.513 . S
C497 O501 1.251 1_554 S
C497 O503 1.263 . S
Tb498 O500 2.343 . S
Tb498 O503 2.353 . S
Tb498 O506 2.427 . S
Tb498 O507 2.513 . S
Tb498 O508 2.453 . S
Tb498 O509 2.596 1_554 S
Tb498 O510 2.374 . S
O499 Tb496 2.453 1_554 S
O499 C515 1.245 . S
O500 Tb496 2.596 1_554 S
O500 Tb498 2.343 . S
O500 C515 1.259 . S
O501 Tb496 2.374 . S
O501 C497 1.251 1_556 S
C502 O506 1.275 . S
C502 O507 1.246 . S
O503 C497 1.263 . S
O503 Tb498 2.353 . S
C504 O508 1.240 1_556 S
C504 O509 1.260 . S
C505 O510 1.250 . S
C505 O511 1.263 1_554 S
O506 Tb498 2.427 . S
O506 C502 1.275 . S
O507 Tb498 2.513 . S
O507 C502 1.246 . S
O508 Tb498 2.453 . S
O508 C504 1.240 1_554 S
O509 Tb496 2.343 . S
O509 Tb498 2.596 1_556 S
O509 C504 1.260 . S
O510 Tb498 2.374 . S
O510 C505 1.250 . S
O511 Tb496 2.353 . S
O511 C505 1.263 1_556 S
C512 O513 1.275 . S
C512 O514 1.246 . S
O513 Tb496 2.427 . S
O513 C512 1.275 . S
O514 Tb496 2.513 . S
O514 C512 1.246 . S
C515 O499 1.245 . S
C515 O500 1.259 . S
Tb516 O519 2.453 . S
Tb516 O520 2.596 . S
Tb516 O521 2.374 . S
Tb516 O529 2.343 . S
Tb516 O531 2.353 . S
Tb516 O533 2.427 . S
Tb516 O534 2.513 . S
C517 O521 1.251 . S
C517 O523 1.263 . S
Tb518 O520 2.343 . S
Tb518 O523 2.353 . S
Tb518 O526 2.427 . S
Tb518 O527 2.513 . S
Tb518 O528 2.453 . S
Tb518 O529 2.596 . S
Tb518 O530 2.374 . S
O519 Tb516 2.453 . S
O519 C535 1.245 . S
O520 Tb516 2.596 . S
O520 Tb518 2.343 . S
O520 C535 1.259 . S
O521 Tb516 2.374 . S
O521 C517 1.251 . S
C522 O526 1.275 . S
C522 O527 1.246 . S
O523 C517 1.263 . S
O523 Tb518 2.353 . S
C524 O528 1.245 . S
C524 O529 1.259 . S
C525 O530 1.250 . S
C525 O531 1.263 . S
O526 Tb518 2.427 . S
O526 C522 1.275 . S
O527 Tb518 2.513 . S
O527 C522 1.246 . S
O528 Tb518 2.453 . S
O528 C524 1.245 . S
O529 Tb516 2.343 . S
O529 Tb518 2.596 . S
O529 C524 1.259 . S
O530 Tb518 2.374 . S
O530 C525 1.250 . S
O531 Tb516 2.353 . S
O531 C525 1.263 . S
C532 O533 1.275 . S
C532 O534 1.246 . S
O533 Tb516 2.427 . S
O533 C532 1.275 . S
O534 Tb516 2.513 . S
O534 C532 1.246 . S
C535 O519 1.245 . S
C535 O520 1.259 . S
Tb536 O539 2.453 . S
Tb536 O540 2.596 1_655 S
Tb536 O541 2.374 . S
Tb536 O549 2.343 . S
Tb536 O551 2.353 . S
Tb536 O553 2.427 . S
Tb536 O554 2.513 . S
C537 O541 1.251 1_455 S
C537 O543 1.263 . S
Tb538 O540 2.343 . S
Tb538 O543 2.353 . S
Tb538 O546 2.427 . S
Tb538 O547 2.513 . S
Tb538 O548 2.453 . S
Tb538 O549 2.596 1_455 S
Tb538 O550 2.374 . S
O539 Tb536 2.453 . S
O539 C555 1.245 1_655 S
O540 Tb536 2.596 1_455 S
O540 Tb538 2.343 . S
O540 C555 1.259 . S
O541 Tb536 2.374 . S
O541 C537 1.251 1_655 S
C542 O546 1.275 . S
C542 O547 1.246 . S
O543 C537 1.263 . S
O543 Tb538 2.353 . S
C544 O548 1.245 1_655 S
C544 O549 1.259 . S
C545 O550 1.251 . S
C545 O551 1.263 1_455 S
O546 Tb538 2.427 . S
O546 C542 1.275 . S
O547 Tb538 2.513 . S
O547 C542 1.246 . S
O548 Tb538 2.453 . S
O548 C544 1.245 1_455 S
O549 Tb536 2.343 . S
O549 Tb538 2.596 1_655 S
O549 C544 1.259 . S
O550 Tb538 2.374 . S
O550 C545 1.251 . S
O551 Tb536 2.353 . S
O551 C545 1.263 1_655 S
C552 O553 1.275 . S
C552 O554 1.246 . S
O553 Tb536 2.427 . S
O553 C552 1.275 . S
O554 Tb536 2.513 . S
O554 C552 1.246 . S
C555 O539 1.245 1_455 S
C555 O540 1.259 . S
Tb556 O559 2.453 . S
Tb556 O560 2.596 . S
Tb556 O561 2.374 . S
Tb556 O569 2.343 . S
Tb556 O571 2.353 . S
Tb556 O573 2.427 . S
Tb556 O574 2.513 . S
C557 O561 1.251 . S
C557 O563 1.263 . S
Tb558 O560 2.343 . S
Tb558 O563 2.353 . S
Tb558 O566 2.427 . S
Tb558 O567 2.513 . S
Tb558 O568 2.453 . S
Tb558 O569 2.596 . S
Tb558 O570 2.374 . S
O559 Tb556 2.453 . S
O559 C575 1.245 . S
O560 Tb556 2.596 . S
O560 Tb558 2.343 . S
O560 C575 1.259 . S
O561 Tb556 2.374 . S
O561 C557 1.251 . S
C562 O566 1.275 . S
C562 O567 1.246 . S
O563 C557 1.263 . S
O563 Tb558 2.353 . S
C564 O568 1.245 . S
C564 O569 1.259 . S
C565 O570 1.250 . S
C565 O571 1.263 . S
O566 Tb558 2.427 . S
O566 C562 1.275 . S
O567 Tb558 2.513 . S
O567 C562 1.246 . S
O568 Tb558 2.453 . S
O568 C564 1.245 . S
O569 Tb556 2.343 . S
O569 Tb558 2.596 . S
O569 C564 1.259 . S
O570 Tb558 2.374 . S
O570 C565 1.250 . S
O571 Tb556 2.353 . S
O571 C565 1.263 . S
C572 O573 1.275 . S
C572 O574 1.246 . S
O573 Tb556 2.427 . S
O573 C572 1.275 . S
O574 Tb556 2.513 . S
O574 C572 1.246 . S
C575 O559 1.245 . S
C575 O560 1.259 . S
Tb576 O579 2.453 . S
Tb576 O580 2.596 . S
Tb576 O581 2.374 . S
Tb576 O589 2.343 . S
Tb576 O591 2.353 . S
Tb576 O593 2.427 . S
Tb576 O594 2.513 . S
C577 O581 1.251 . S
C577 O583 1.263 . S
Tb578 O580 2.343 . S
Tb578 O583 2.353 . S
Tb578 O586 2.427 . S
Tb578 O587 2.513 . S
Tb578 O588 2.453 . S
Tb578 O589 2.596 . S
Tb578 O590 2.374 . S
O579 Tb576 2.453 . S
O579 C595 1.245 . S
O580 Tb576 2.596 . S
O580 Tb578 2.343 . S
O580 C595 1.259 . S
O581 Tb576 2.374 . S
O581 C577 1.251 . S
C582 O586 1.275 . S
C582 O587 1.246 . S
O583 C577 1.263 . S
O583 Tb578 2.353 . S
C584 O588 1.245 . S
C584 O589 1.259 . S
C585 O590 1.250 . S
C585 O591 1.263 . S
O586 Tb578 2.427 . S
O586 C582 1.275 . S
O587 Tb578 2.513 . S
O587 C582 1.246 . S
O588 Tb578 2.453 . S
O588 C584 1.245 . S
O589 Tb576 2.343 . S
O589 Tb578 2.596 . S
O589 C584 1.259 . S
O590 Tb578 2.374 . S
O590 C585 1.250 . S
O591 Tb576 2.353 . S
O591 C585 1.263 . S
C592 O593 1.275 . S
C592 O594 1.246 . S
O593 Tb576 2.427 . S
O593 C592 1.275 . S
O594 Tb576 2.513 . S
O594 C592 1.246 . S
C595 O579 1.245 . S
C595 O580 1.259 . S
Tb596 O599 2.453 . S
Tb596 O600 2.596 . S
Tb596 O601 2.374 . S
Tb596 O609 2.343 . S
Tb596 O611 2.353 . S
Tb596 O613 2.427 . S
Tb596 O614 2.513 . S
C597 O601 1.251 . S
C597 O603 1.263 . S
Tb598 O600 2.343 . S
Tb598 O603 2.353 . S
Tb598 O606 2.427 . S
Tb598 O607 2.513 . S
Tb598 O608 2.453 . S
Tb598 O609 2.596 . S
Tb598 O610 2.374 . S
O599 Tb596 2.453 . S
O599 C615 1.245 . S
O600 Tb596 2.596 . S
O600 Tb598 2.343 . S
O600 C615 1.259 . S
O601 Tb596 2.374 . S
O601 C597 1.251 . S
C602 O606 1.275 . S
C602 O607 1.246 . S
O603 C597 1.263 . S
O603 Tb598 2.353 . S
C604 O608 1.245 . S
C604 O609 1.259 . S
C605 O610 1.250 . S
C605 O611 1.263 . S
O606 Tb598 2.427 . S
O606 C602 1.275 . S
O607 Tb598 2.513 . S
O607 C602 1.246 . S
O608 Tb598 2.453 . S
O608 C604 1.245 . S
O609 Tb596 2.343 . S
O609 Tb598 2.596 . S
O609 C604 1.259 . S
O610 Tb598 2.374 . S
O610 C605 1.250 . S
O611 Tb596 2.353 . S
O611 C605 1.263 . S
C612 O613 1.275 . S
C612 O614 1.246 . S
O613 Tb596 2.427 . S
O613 C612 1.275 . S
O614 Tb596 2.513 . S
O614 C612 1.246 . S
C615 O599 1.245 . S
C615 O600 1.259 . S
Tb616 O619 2.453 . S
Tb616 O620 2.596 . S
Tb616 O621 2.374 . S
Tb616 O629 2.343 . S
Tb616 O631 2.353 . S
Tb616 O633 2.427 . S
Tb616 O634 2.513 . S
C617 O621 1.251 . S
C617 O623 1.263 . S
Tb618 O620 2.343 . S
Tb618 O623 2.353 . S
Tb618 O626 2.427 . S
Tb618 O627 2.513 . S
Tb618 O628 2.453 . S
Tb618 O629 2.596 . S
Tb618 O630 2.374 . S
O619 Tb616 2.453 . S
O619 C635 1.245 . S
O620 Tb616 2.596 . S
O620 Tb618 2.343 . S
O620 C635 1.259 . S
O621 Tb616 2.374 . S
O621 C617 1.251 . S
C622 O626 1.275 . S
C622 O627 1.246 . S
O623 C617 1.263 . S
O623 Tb618 2.353 . S
C624 O628 1.245 . S
C624 O629 1.259 . S
C625 O630 1.250 . S
C625 O631 1.263 . S
O626 Tb618 2.427 . S
O626 C622 1.275 . S
O627 Tb618 2.513 . S
O627 C622 1.246 . S
O628 Tb618 2.453 . S
O628 C624 1.245 . S
O629 Tb616 2.343 . S
O629 Tb618 2.596 . S
O629 C624 1.259 . S
O630 Tb618 2.374 . S
O630 C625 1.250 . S
O631 Tb616 2.353 . S
O631 C625 1.263 . S
C632 O633 1.275 . S
C632 O634 1.246 . S
O633 Tb616 2.427 . S
O633 C632 1.275 . S
O634 Tb616 2.513 . S
O634 C632 1.246 . S
C635 O619 1.245 . S
C635 O620 1.259 . S
Tb636 O639 2.453 . S
Tb636 O640 2.643 . S
Tb636 O641 2.374 . S
Tb636 O649 2.343 . S
Tb636 O651 2.353 1_554 S
Tb636 O653 2.427 1_554 S
Tb636 O654 2.513 . S
C637 O641 1.251 . S
C637 O643 1.263 1_455 S
Tb638 O640 2.314 1_655 S
Tb638 O643 2.353 . S
Tb638 O646 2.427 . S
Tb638 O647 2.513 . S
Tb638 O648 2.453 . S
Tb638 O649 2.596 1_655 S
Tb638 O650 2.374 1_554 S
O639 Tb636 2.453 . S
O639 C655 1.245 . S
O640 Tb636 2.643 . S
O640 Tb638 2.314 1_455 S
O640 C655 1.278 . S
O641 Tb636 2.374 . S
O641 C637 1.251 . S
C642 O646 1.275 . S
C642 O647 1.246 . S
O643 C637 1.263 1_655 S
O643 Tb638 2.353 . S
C644 O648 1.260 . S
C644 O649 1.266 1_655 S
C645 O650 1.250 . S
C645 O651 1.263 1_655 S
O646 Tb638 2.427 . S
O646 C642 1.275 . S
O647 Tb638 2.513 . S
O647 C642 1.246 . S
O648 Tb638 2.453 . S
O648 C644 1.260 . S
O649 Tb636 2.343 . S
O649 Tb638 2.596 1_455 S
O649 C644 1.266 1_455 S
O650 Tb638 2.374 1_556 S
O650 C645 1.250 . S
O651 Tb636 2.353 1_556 S
O651 C645 1.263 1_455 S
C652 O653 1.275 1_554 S
C652 O654 1.246 . S
O653 Tb636 2.427 1_556 S
O653 C652 1.275 1_556 S
O654 Tb636 2.513 . S
O654 C652 1.246 . S
C655 O639 1.245 . S
C655 O640 1.278 . S
C656 C657 1.349 1_655 S
C656 C658 1.327 . S
C656 H681 0.950 . S
C657 C656 1.349 1_455 S
C657 C673 1.349 . S
C658 C656 1.327 . S
C658 C677 1.429 1_655 S
C658 H682 0.950 . S
C659 C676 1.574 . S
C659 C678 1.368 . S
C659 H683 0.949 . S
H660 C664 0.949 . S
C661 C662 1.349 1_554 S
C661 C663 1.327 1_554 S
C661 H684 0.950 . S
C662 C661 1.349 1_556 S
C662 C674 1.378 . S
C663 C661 1.327 1_556 S
C663 C679 1.429 . S
C663 H685 0.950 1_556 S
C664 H660 0.949 . S
C664 C672 1.574 . S
C664 C680 1.368 1_655 S
H665 C673 0.950 . S
H666 C671 0.950 . S
H667 C672 0.949 . S
H668 C674 0.933 1_655 S
H669 C675 0.950 . S
H670 C676 0.949 . S
C671 H666 0.950 . S
C671 C673 1.327 . S
C671 C677 1.429 . S
C672 C664 1.574 . S
C672 H667 0.949 . S
C672 C678 1.368 1_655 S
C673 C657 1.349 . S
C673 H665 0.950 . S
C673 C671 1.327 . S
C674 C662 1.378 . S
C674 H668 0.933 1_455 S
C674 C675 1.319 1_455 S
C675 H669 0.950 . S
C675 C674 1.319 1_655 S
C675 C679 1.428 1_655 S
C676 C659 1.574 . S
C676 H670 0.949 . S
C676 C680 1.368 . S
C677 C658 1.429 1_455 S
C677 C671 1.429 . S
C677 C678 1.523 . S
C678 C659 1.368 . S
C678 C672 1.368 1_455 S
C678 C677 1.523 . S
C679 C663 1.429 . S
C679 C675 1.428 1_455 S
C679 C680 1.523 . S
C680 C664 1.368 1_455 S
C680 C676 1.368 . S
C680 C679 1.523 . S
H681 C656 0.950 . S
H682 C658 0.950 . S
H683 C659 0.949 . S
H684 C661 0.950 . S
H685 C663 0.950 1_554 S
C686 C687 1.349 . S
C686 C688 1.327 . S
C686 H711 0.950 . S
C687 C686 1.349 . S
C687 C703 1.349 . S
C688 C686 1.327 . S
C688 C707 1.429 . S
C688 H712 0.950 . S
C689 C706 1.574 . S
C689 C708 1.368 . S
C689 H713 0.949 . S
H690 C694 0.949 . S
C691 C692 1.349 . S
C691 C693 1.327 . S
C691 H714 0.950 . S
C692 C691 1.349 . S
C692 C704 1.349 . S
C693 C691 1.327 . S
C693 C709 1.429 . S
C693 H715 0.950 . S
C694 H690 0.949 . S
C694 C702 1.574 . S
C694 C710 1.368 . S
H695 C703 0.950 . S
H696 C701 0.950 . S
H697 C702 0.949 . S
H698 C704 0.950 . S
H699 C705 0.950 . S
H700 C706 0.949 . S
C701 H696 0.950 . S
C701 C703 1.327 . S
C701 C707 1.429 . S
C702 C694 1.574 . S
C702 H697 0.949 . S
C702 C708 1.368 . S
C703 C687 1.349 . S
C703 H695 0.950 . S
C703 C701 1.327 . S
C704 C692 1.349 . S
C704 H698 0.950 . S
C704 C705 1.327 . S
C705 H699 0.950 . S
C705 C704 1.327 . S
C705 C709 1.429 . S
C706 C689 1.574 . S
C706 H700 0.949 . S
C706 C710 1.368 . S
C707 C688 1.429 . S
C707 C701 1.429 . S
C707 C708 1.523 . S
C708 C689 1.368 . S
C708 C702 1.368 . S
C708 C707 1.523 . S
C709 C693 1.429 . S
C709 C705 1.429 . S
C709 C710 1.523 . S
C710 C694 1.368 . S
C710 C706 1.368 . S
C710 C709 1.523 . S
H711 C686 0.950 . S
H712 C688 0.950 . S
H713 C689 0.949 . S
H714 C691 0.950 . S
H715 C693 0.950 . S
C716 C717 1.349 . S
C716 C718 1.327 . S
C716 H741 0.950 . S
C717 C716 1.349 . S
C717 C733 1.349 . S
C718 C716 1.327 . S
C718 C737 1.429 . S
C718 H742 0.950 . S
C719 C736 1.574 . S
C719 C738 1.368 . S
C719 H743 0.949 . S
H720 C724 0.949 . S
C721 C722 1.349 . S
C721 C723 1.327 . S
C721 H744 0.950 . S
C722 C721 1.349 . S
C722 C734 1.349 . S
C723 C721 1.327 . S
C723 C739 1.429 . S
C723 H745 0.950 . S
C724 H720 0.949 . S
C724 C732 1.574 . S
C724 C740 1.368 . S
H725 C733 0.950 . S
H726 C731 0.950 . S
H727 C732 0.949 . S
H728 C734 0.950 . S
H729 C735 0.950 . S
H730 C736 0.949 . S
C731 H726 0.950 . S
C731 C733 1.327 . S
C731 C737 1.429 . S
C732 C724 1.574 . S
C732 H727 0.949 . S
C732 C738 1.368 . S
C733 C717 1.349 . S
C733 H725 0.950 . S
C733 C731 1.327 . S
C734 C722 1.349 . S
C734 H728 0.950 . S
C734 C735 1.327 . S
C735 H729 0.950 . S
C735 C734 1.327 . S
C735 C739 1.429 . S
C736 C719 1.574 . S
C736 H730 0.949 . S
C736 C740 1.368 . S
C737 C718 1.429 . S
C737 C731 1.429 . S
C737 C738 1.523 . S
C738 C719 1.368 . S
C738 C732 1.368 . S
C738 C737 1.523 . S
C739 C723 1.429 . S
C739 C735 1.429 . S
C739 C740 1.523 . S
C740 C724 1.368 . S
C740 C736 1.368 . S
C740 C739 1.523 . S
H741 C716 0.950 . S
H742 C718 0.950 . S
H743 C719 0.949 . S
H744 C721 0.950 . S
H745 C723 0.950 . S
C746 C747 1.349 . S
C746 C748 1.327 . S
C746 H771 0.950 . S
C747 C746 1.349 . S
C747 C763 1.349 . S
C748 C746 1.327 . S
C748 C767 1.429 . S
C748 H772 0.950 . S
C749 C766 1.574 . S
C749 C768 1.368 . S
C749 H773 0.949 . S
H750 C754 0.949 . S
C751 C752 1.349 . S
C751 C753 1.327 . S
C751 H774 0.950 . S
C752 C751 1.349 . S
C752 C764 1.349 . S
C753 C751 1.327 . S
C753 C769 1.429 . S
C753 H775 0.950 . S
C754 H750 0.949 . S
C754 C762 1.574 . S
C754 C770 1.368 . S
H755 C763 0.950 . S
H756 C761 0.950 . S
H757 C762 0.949 . S
H758 C764 0.950 . S
H759 C765 0.950 . S
H760 C766 0.949 . S
C761 H756 0.950 . S
C761 C763 1.327 . S
C761 C767 1.429 . S
C762 C754 1.574 . S
C762 H757 0.949 . S
C762 C768 1.368 . S
C763 C747 1.349 . S
C763 H755 0.950 . S
C763 C761 1.327 . S
C764 C752 1.349 . S
C764 H758 0.950 . S
C764 C765 1.327 . S
C765 H759 0.950 . S
C765 C764 1.327 . S
C765 C769 1.429 . S
C766 C749 1.574 . S
C766 H760 0.949 . S
C766 C770 1.368 . S
C767 C748 1.429 . S
C767 C761 1.429 . S
C767 C768 1.523 . S
C768 C749 1.368 . S
C768 C762 1.368 . S
C768 C767 1.523 . S
C769 C753 1.429 . S
C769 C765 1.429 . S
C769 C770 1.523 . S
C770 C754 1.368 . S
C770 C766 1.368 . S
C770 C769 1.523 . S
H771 C746 0.950 . S
H772 C748 0.950 . S
H773 C749 0.949 . S
H774 C751 0.950 . S
H775 C753 0.950 . S
C776 C777 1.349 . S
C776 C778 1.327 . S
C776 H801 0.950 . S
C777 C776 1.349 . S
C777 C793 1.349 1_455 S
C778 C776 1.327 . S
C778 C797 1.429 . S
C778 H802 0.950 . S
C779 C796 1.574 . S
C779 C798 1.368 1_655 S
C779 H803 0.949 . S
H780 C784 0.949 . S
C781 C782 1.349 1_655 S
C781 C783 1.327 . S
C781 H804 0.950 . S
C782 C781 1.349 1_455 S
C782 C794 1.349 . S
C783 C781 1.327 . S
C783 C799 1.429 1_655 S
C783 H805 0.950 . S
C784 H780 0.949 . S
C784 C792 1.574 . S
C784 C800 1.368 . S
H785 C793 0.950 . S
H786 C791 0.950 . S
H787 C792 0.949 . S
H788 C794 0.950 . S
H789 C795 0.950 . S
H790 C796 0.949 . S
C791 H786 0.950 . S
C791 C793 1.327 . S
C791 C797 1.429 1_655 S
C792 C784 1.574 . S
C792 H787 0.949 . S
C792 C798 1.368 . S
C793 C777 1.349 1_655 S
C793 H785 0.950 . S
C793 C791 1.327 . S
C794 C782 1.349 . S
C794 H788 0.950 . S
C794 C795 1.327 . S
C795 H789 0.950 . S
C795 C794 1.327 . S
C795 C799 1.429 . S
C796 C779 1.574 . S
C796 H790 0.949 . S
C796 C800 1.368 1_655 S
C797 C778 1.429 . S
C797 C791 1.429 1_455 S
C797 C798 1.523 . S
C798 C779 1.368 1_455 S
C798 C792 1.368 . S
C798 C797 1.523 . S
C799 C783 1.429 1_455 S
C799 C795 1.429 . S
C799 C800 1.523 . S
C800 C784 1.368 . S
C800 C796 1.368 1_455 S
C800 C799 1.523 . S
H801 C776 0.950 . S
H802 C778 0.950 . S
H803 C779 0.949 . S
H804 C781 0.950 . S
H805 C783 0.950 . S
C806 C807 1.349 . S
C806 C808 1.327 . S
C806 H831 0.950 . S
C807 C806 1.349 . S
C807 C823 1.349 . S
C808 C806 1.327 . S
C808 C827 1.429 . S
C808 H832 0.950 . S
C809 C826 1.574 . S
C809 C828 1.368 . S
C809 H833 0.949 . S
H810 C814 0.949 . S
C811 C812 1.349 . S
C811 C813 1.327 . S
C811 H834 0.950 . S
C812 C811 1.349 . S
C812 C824 1.349 . S
C813 C811 1.327 . S
C813 C829 1.429 . S
C813 H835 0.950 . S
C814 H810 0.949 . S
C814 C822 1.574 . S
C814 C830 1.368 . S
H815 C823 0.950 . S
H816 C821 0.950 . S
H817 C822 0.949 . S
H818 C824 0.950 . S
H819 C825 0.950 . S
H820 C826 0.949 . S
C821 H816 0.950 . S
C821 C823 1.327 . S
C821 C827 1.429 . S
C822 C814 1.574 . S
C822 H817 0.949 . S
C822 C828 1.368 . S
C823 C807 1.349 . S
C823 H815 0.950 . S
C823 C821 1.327 . S
C824 C812 1.349 . S
C824 H818 0.950 . S
C824 C825 1.327 . S
C825 H819 0.950 . S
C825 C824 1.327 . S
C825 C829 1.429 . S
C826 C809 1.574 . S
C826 H820 0.949 . S
C826 C830 1.368 . S
C827 C808 1.429 . S
C827 C821 1.429 . S
C827 C828 1.523 . S
C828 C809 1.368 . S
C828 C822 1.368 . S
C828 C827 1.523 . S
C829 C813 1.429 . S
C829 C825 1.429 . S
C829 C830 1.523 . S
C830 C814 1.368 . S
C830 C826 1.368 . S
C830 C829 1.523 . S
H831 C806 0.950 . S
H832 C808 0.950 . S
H833 C809 0.949 . S
H834 C811 0.950 . S
H835 C813 0.950 . S
C836 C837 1.349 . S
C836 C838 1.327 . S
C836 H861 0.950 . S
C837 C836 1.349 . S
C837 C853 1.349 . S
C838 C836 1.327 . S
C838 C857 1.429 . S
C838 H862 0.950 . S
C839 C856 1.574 . S
C839 C858 1.368 . S
C839 H863 0.949 . S
H840 C844 0.949 . S
C841 C842 1.349 . S
C841 C843 1.327 . S
C841 H864 0.950 . S
C842 C841 1.349 . S
C842 C854 1.349 . S
C843 C841 1.327 . S
C843 C859 1.429 . S
C843 H865 0.950 . S
C844 H840 0.949 . S
C844 C852 1.574 . S
C844 C860 1.368 . S
H845 C853 0.950 . S
H846 C851 0.950 . S
H847 C852 0.949 . S
H848 C854 0.950 . S
H849 C855 0.950 . S
H850 C856 0.949 . S
C851 H846 0.950 . S
C851 C853 1.327 . S
C851 C857 1.429 . S
C852 C844 1.574 . S
C852 H847 0.949 . S
C852 C858 1.368 . S
C853 C837 1.349 . S
C853 H845 0.950 . S
C853 C851 1.327 . S
C854 C842 1.349 . S
C854 H848 0.950 . S
C854 C855 1.327 . S
C855 H849 0.950 . S
C855 C854 1.327 . S
C855 C859 1.429 . S
C856 C839 1.574 . S
C856 H850 0.949 . S
C856 C860 1.368 . S
C857 C838 1.429 . S
C857 C851 1.429 . S
C857 C858 1.523 . S
C858 C839 1.368 . S
C858 C852 1.368 . S
C858 C857 1.523 . S
C859 C843 1.429 . S
C859 C855 1.429 . S
C859 C860 1.523 . S
C860 C844 1.368 . S
C860 C856 1.368 . S
C860 C859 1.523 . S
H861 C836 0.950 . S
H862 C838 0.950 . S
H863 C839 0.949 . S
H864 C841 0.950 . S
H865 C843 0.950 . S
C866 C867 1.349 . S
C866 C868 1.327 . S
C866 H891 0.950 . S
C867 C866 1.349 . S
C867 C883 1.349 . S
C868 C866 1.327 . S
C868 C887 1.429 . S
C868 H892 0.950 . S
C869 C886 1.574 . S
C869 C888 1.368 . S
C869 H893 0.949 . S
H870 C874 0.949 . S
C871 C872 1.349 . S
C871 C873 1.327 . S
C871 H894 0.950 . S
C872 C871 1.349 . S
C872 C884 1.349 . S
C873 C871 1.327 . S
C873 C889 1.429 . S
C873 H895 0.950 . S
C874 H870 0.949 . S
C874 C882 1.574 . S
C874 C890 1.368 . S
H875 C883 0.950 . S
H876 C881 0.950 . S
H877 C882 0.949 . S
H878 C884 0.950 . S
H879 C885 0.950 . S
H880 C886 0.949 . S
C881 H876 0.950 . S
C881 C883 1.327 . S
C881 C887 1.429 . S
C882 C874 1.574 . S
C882 H877 0.949 . S
C882 C888 1.368 . S
C883 C867 1.349 . S
C883 H875 0.950 . S
C883 C881 1.327 . S
C884 C872 1.349 . S
C884 H878 0.950 . S
C884 C885 1.327 . S
C885 H879 0.950 . S
C885 C884 1.327 . S
C885 C889 1.429 . S
C886 C869 1.574 . S
C886 H880 0.949 . S
C886 C890 1.368 . S
C887 C868 1.429 . S
C887 C881 1.429 . S
C887 C888 1.523 . S
C888 C869 1.368 . S
C888 C882 1.368 . S
C888 C887 1.523 . S
C889 C873 1.429 . S
C889 C885 1.429 . S
C889 C890 1.523 . S
C890 C874 1.368 . S
C890 C886 1.368 . S
C890 C889 1.523 . S
H891 C866 0.950 . S
H892 C868 0.950 . S
H893 C869 0.949 . S
H894 C871 0.950 . S
H895 C873 0.950 . S
C896 C897 1.349 . S
C896 C898 1.327 . S
C896 H921 0.950 . S
C897 C896 1.349 . S
C897 C913 1.349 . S
C898 C896 1.327 . S
C898 C917 1.429 . S
C898 H922 0.950 . S
C899 C916 1.574 . S
C899 C918 1.368 . S
C899 H923 0.949 . S
H900 C904 0.949 . S
C901 C902 1.349 . S
C901 C903 1.327 . S
C901 H924 0.950 1_655 S
C902 C901 1.349 . S
C902 C914 1.349 . S
C903 C901 1.327 . S
C903 C919 1.429 . S
C903 H925 0.950 . S
C904 H900 0.949 . S
C904 C912 1.574 . S
C904 C920 1.368 . S
H905 C913 0.950 . S
H906 C911 0.950 . S
H907 C912 0.949 . S
H908 C914 0.950 . S
H909 C915 0.950 . S
H910 C916 0.949 . S
C911 H906 0.950 . S
C911 C913 1.327 . S
C911 C917 1.429 . S
C912 C904 1.574 . S
C912 H907 0.949 . S
C912 C918 1.368 . S
C913 C897 1.349 . S
C913 H905 0.950 . S
C913 C911 1.327 . S
C914 C902 1.349 . S
C914 H908 0.950 . S
C914 C915 1.327 . S
C915 H909 0.950 . S
C915 C914 1.327 . S
C915 C919 1.429 . S
C916 C899 1.574 . S
C916 H910 0.949 . S
C916 C920 1.368 . S
C917 C898 1.429 . S
C917 C911 1.429 . S
C917 C918 1.523 . S
C918 C899 1.368 . S
C918 C912 1.368 . S
C918 C917 1.523 . S
C919 C903 1.429 . S
C919 C915 1.429 . S
C919 C920 1.523 . S
C920 C904 1.368 . S
C920 C916 1.368 . S
C920 C919 1.523 . S
H921 C896 0.950 . S
H922 C898 0.950 . S
H923 C899 0.949 . S
H924 C901 0.950 1_455 S
H925 C903 0.950 . S
C926 C927 1.349 . S
C926 C928 1.327 . S
C926 H951 0.950 . S
C927 C926 1.349 . S
C927 C943 1.349 . S
C928 C926 1.327 . S
C928 C947 1.429 . S
C928 H952 0.950 . S
C929 C946 1.574 . S
C929 C948 1.368 . S
C929 H953 0.949 . S
H930 C934 0.949 . S
C931 C932 1.349 . S
C931 C933 1.327 . S
C931 H954 0.950 . S
C932 C931 1.349 . S
C932 C944 1.349 . S
C933 C931 1.327 . S
C933 C949 1.429 . S
C933 H955 0.950 . S
C934 H930 0.949 . S
C934 C942 1.574 . S
C934 C950 1.368 . S
H935 C943 0.950 . S
H936 C941 0.950 . S
H937 C942 0.949 . S
H938 C944 0.950 . S
H939 C945 0.950 . S
H940 C946 0.949 . S
C941 H936 0.950 . S
C941 C943 1.327 . S
C941 C947 1.429 . S
C942 C934 1.574 . S
C942 H937 0.949 . S
C942 C948 1.368 . S
C943 C927 1.349 . S
C943 H935 0.950 . S
C943 C941 1.327 . S
C944 C932 1.349 . S
C944 H938 0.950 . S
C944 C945 1.327 . S
C945 H939 0.950 . S
C945 C944 1.327 . S
C945 C949 1.429 . S
C946 C929 1.574 . S
C946 H940 0.949 . S
C946 C950 1.368 . S
C947 C928 1.429 . S
C947 C941 1.429 . S
C947 C948 1.523 . S
C948 C929 1.368 . S
C948 C942 1.368 . S
C948 C947 1.523 . S
C949 C933 1.429 . S
C949 C945 1.429 . S
C949 C950 1.523 . S
C950 C934 1.368 . S
C950 C946 1.368 . S
C950 C949 1.523 . S
H951 C926 0.950 . S
H952 C928 0.950 . S
H953 C929 0.949 . S
H954 C931 0.950 . S
H955 C933 0.950 . S
C956 C957 1.349 1_565 S
C956 C958 1.327 . S
C956 H981 0.950 . S
C957 C956 1.349 1_545 S
C957 C973 1.349 . S
C958 C956 1.327 . S
C958 C977 1.429 1_565 S
C958 H982 0.950 . S
C959 C976 1.574 . S
C959 C978 1.368 . S
C959 H983 0.949 . S
H960 C964 0.949 1_565 S
C961 C962 1.349 . S
C961 C963 1.327 . S
C961 H984 0.950 . S
C962 C961 1.349 . S
C962 C974 1.349 . S
C963 C961 1.327 . S
C963 C979 1.429 . S
C963 H985 0.950 . S
C964 H960 0.949 1_545 S
C964 C972 1.573 . S
C964 C980 1.368 . S
H965 C973 0.950 . S
H966 C971 0.950 . S
H967 C972 0.952 1_565 S
H968 C974 0.950 1_565 S
H969 C975 0.950 1_565 S
H970 C976 0.949 . S
C971 H966 0.950 . S
C971 C973 1.327 . S
C971 C977 1.429 . S
C972 C964 1.573 . S
C972 H967 0.952 1_545 S
C972 C978 1.366 . S
C973 C957 1.349 . S
C973 H965 0.950 . S
C973 C971 1.327 . S
C974 C962 1.349 . S
C974 H968 0.950 1_545 S
C974 C975 1.327 . S
C975 H969 0.950 1_545 S
C975 C974 1.327 . S
C975 C979 1.429 . S
C976 C959 1.574 . S
C976 H970 0.949 . S
C976 C980 1.368 . S
C977 C958 1.429 1_545 S
C977 C971 1.429 . S
C977 C978 1.523 . S
C978 C959 1.368 . S
C978 C972 1.366 . S
C978 C977 1.523 . S
C979 C963 1.429 . S
C979 C975 1.429 . S
C979 C980 1.523 . S
C980 C964 1.368 . S
C980 C976 1.368 . S
C980 C979 1.523 . S
H981 C956 0.950 . S
H982 C958 0.950 . S
H983 C959 0.949 . S
H984 C961 0.950 . S
H985 C963 0.950 . S
C986 C987 1.349 . S
C986 C988 1.327 . S
C986 H1011 0.950 . S
C987 C986 1.349 . S
C987 C1003 1.349 . S
C988 C986 1.327 . S
C988 C1007 1.429 . S
C988 H1012 0.950 . S
C989 C1006 1.574 . S
C989 C1008 1.368 . S
C989 H1013 0.949 . S
H990 C994 0.949 . S
C991 C992 1.349 . S
C991 C993 1.327 . S
C991 H1014 0.950 . S
C992 C991 1.349 . S
C992 C1004 1.349 . S
C993 C991 1.327 . S
C993 C1009 1.429 . S
C993 H1015 0.950 . S
C994 H990 0.949 . S
C994 C1002 1.574 . S
C994 C1010 1.368 . S
H995 C1003 0.950 . S
H996 C1001 0.950 . S
H997 C1002 0.949 . S
H998 C1004 0.950 . S
H999 C1005 0.950 . S
H1000 C1006 0.949 . S
C1001 H996 0.950 . S
C1001 C1003 1.327 . S
C1001 C1007 1.429 . S
C1002 C994 1.574 . S
C1002 H997 0.949 . S
C1002 C1008 1.368 . S
C1003 C987 1.349 . S
C1003 H995 0.950 . S
C1003 C1001 1.327 . S
C1004 C992 1.349 . S
C1004 H998 0.950 . S
C1004 C1005 1.327 . S
C1005 H999 0.950 . S
C1005 C1004 1.327 . S
C1005 C1009 1.429 . S
C1006 C989 1.574 . S
C1006 H1000 0.949 . S
C1006 C1010 1.368 . S
C1007 C988 1.429 . S
C1007 C1001 1.429 . S
C1007 C1008 1.523 . S
C1008 C989 1.368 . S
C1008 C1002 1.368 . S
C1008 C1007 1.523 . S
C1009 C993 1.429 . S
C1009 C1005 1.429 . S
C1009 C1010 1.523 . S
C1010 C994 1.368 . S
C1010 C1006 1.368 . S
C1010 C1009 1.523 . S
H1011 C986 0.950 . S
H1012 C988 0.950 . S
H1013 C989 0.949 . S
H1014 C991 0.950 . S
H1015 C993 0.950 . S
C1016 C1017 1.349 . S
C1016 C1018 1.327 . S
C1016 H1041 0.950 . S
C1017 C1016 1.349 . S
C1017 C1033 1.349 . S
C1018 C1016 1.327 . S
C1018 C1037 1.429 . S
C1018 H1042 0.950 . S
C1019 C1036 1.574 . S
C1019 C1038 1.368 . S
C1019 H1043 0.949 . S
H1020 C1024 0.949 . S
C1021 C1022 1.349 . S
C1021 C1023 1.327 . S
C1021 H1044 0.950 1_655 S
C1022 C1021 1.349 . S
C1022 C1034 1.349 . S
C1023 C1021 1.327 . S
C1023 C1039 1.429 . S
C1023 H1045 0.950 . S
C1024 H1020 0.949 . S
C1024 C1032 1.574 . S
C1024 C1040 1.368 . S
H1025 C1033 0.950 . S
H1026 C1031 0.950 . S
H1027 C1032 0.949 . S
H1028 C1034 0.950 . S
H1029 C1035 0.950 . S
H1030 C1036 0.949 . S
C1031 H1026 0.950 . S
C1031 C1033 1.327 . S
C1031 C1037 1.429 . S
C1032 C1024 1.574 . S
C1032 H1027 0.949 . S
C1032 C1038 1.368 . S
C1033 C1017 1.349 . S
C1033 H1025 0.950 . S
C1033 C1031 1.327 . S
C1034 C1022 1.349 . S
C1034 H1028 0.950 . S
C1034 C1035 1.327 . S
C1035 H1029 0.950 . S
C1035 C1034 1.327 . S
C1035 C1039 1.429 . S
C1036 C1019 1.574 . S
C1036 H1030 0.949 . S
C1036 C1040 1.368 . S
C1037 C1018 1.429 . S
C1037 C1031 1.429 . S
C1037 C1038 1.523 . S
C1038 C1019 1.368 . S
C1038 C1032 1.368 . S
C1038 C1037 1.523 . S
C1039 C1023 1.429 . S
C1039 C1035 1.429 . S
C1039 C1040 1.523 . S
C1040 C1024 1.368 . S
C1040 C1036 1.368 . S
C1040 C1039 1.523 . S
H1041 C1016 0.950 . S
H1042 C1018 0.950 . S
H1043 C1019 0.949 . S
H1044 C1021 0.950 1_455 S
H1045 C1023 0.950 . S
C1046 C1047 1.349 . S
C1046 C1048 1.327 . S
C1046 H1071 0.950 . S
C1047 C1046 1.349 . S
C1047 C1063 1.349 . S
C1048 C1046 1.327 . S
C1048 C1067 1.429 . S
C1048 H1072 0.950 . S
C1049 C1066 1.574 . S
C1049 C1068 1.368 . S
C1049 H1073 0.949 . S
H1050 C1054 0.949 . S
C1051 C1052 1.349 . S
C1051 C1053 1.327 . S
C1051 H1074 0.950 . S
C1052 C1051 1.349 . S
C1052 C1064 1.349 . S
C1053 C1051 1.327 . S
C1053 C1069 1.429 . S
C1053 H1075 0.950 . S
C1054 H1050 0.949 . S
C1054 C1062 1.574 . S
C1054 C1070 1.368 . S
H1055 C1063 0.950 . S
H1056 C1061 0.950 . S
H1057 C1062 0.949 . S
H1058 C1064 0.950 . S
H1059 C1065 0.950 . S
H1060 C1066 0.949 . S
C1061 H1056 0.950 . S
C1061 C1063 1.327 . S
C1061 C1067 1.429 . S
C1062 C1054 1.574 . S
C1062 H1057 0.949 . S
C1062 C1068 1.368 . S
C1063 C1047 1.349 . S
C1063 H1055 0.950 . S
C1063 C1061 1.327 . S
C1064 C1052 1.349 . S
C1064 H1058 0.950 . S
C1064 C1065 1.327 . S
C1065 H1059 0.950 . S
C1065 C1064 1.327 . S
C1065 C1069 1.429 . S
C1066 C1049 1.574 . S
C1066 H1060 0.949 . S
C1066 C1070 1.368 . S
C1067 C1048 1.429 . S
C1067 C1061 1.429 . S
C1067 C1068 1.523 . S
C1068 C1049 1.368 . S
C1068 C1062 1.368 . S
C1068 C1067 1.523 . S
C1069 C1053 1.429 . S
C1069 C1065 1.429 . S
C1069 C1070 1.523 . S
C1070 C1054 1.368 . S
C1070 C1066 1.368 . S
C1070 C1069 1.523 . S
H1071 C1046 0.950 . S
H1072 C1048 0.950 . S
H1073 C1049 0.949 . S
H1074 C1051 0.950 . S
H1075 C1053 0.950 . S
C1076 C1077 1.349 . S
C1076 C1078 1.327 . S
C1076 H1101 0.950 1_545 S
C1077 C1076 1.349 . S
C1077 C1093 1.349 . S
C1078 C1076 1.327 . S
C1078 C1097 1.429 . S
C1078 H1102 0.950 . S
C1079 C1096 1.574 . S
C1079 C1098 1.368 . S
C1079 H1103 0.949 . S
H1080 C1084 0.949 . S
C1081 C1082 1.349 . S
C1081 C1083 1.327 . S
C1081 H1104 0.950 . S
C1082 C1081 1.349 . S
C1082 C1094 1.349 . S
C1083 C1081 1.327 . S
C1083 C1099 1.429 . S
C1083 H1105 0.950 . S
C1084 H1080 0.949 . S
C1084 C1092 1.574 . S
C1084 C1100 1.368 . S
H1085 C1093 0.950 . S
H1086 C1091 0.950 . S
H1087 C1092 0.949 . S
H1088 C1094 0.950 . S
H1089 C1095 0.950 . S
H1090 C1096 0.949 . S
C1091 H1086 0.950 . S
C1091 C1093 1.327 . S
C1091 C1097 1.429 . S
C1092 C1084 1.574 . S
C1092 H1087 0.949 . S
C1092 C1098 1.368 . S
C1093 C1077 1.349 . S
C1093 H1085 0.950 . S
C1093 C1091 1.327 . S
C1094 C1082 1.349 . S
C1094 H1088 0.950 . S
C1094 C1095 1.327 . S
C1095 H1089 0.950 . S
C1095 C1094 1.327 . S
C1095 C1099 1.429 . S
C1096 C1079 1.574 . S
C1096 H1090 0.949 . S
C1096 C1100 1.368 . S
C1097 C1078 1.429 . S
C1097 C1091 1.429 . S
C1097 C1098 1.523 . S
C1098 C1079 1.368 . S
C1098 C1092 1.368 . S
C1098 C1097 1.523 . S
C1099 C1083 1.429 . S
C1099 C1095 1.429 . S
C1099 C1100 1.523 . S
C1100 C1084 1.368 . S
C1100 C1096 1.368 . S
C1100 C1099 1.523 . S
H1101 C1076 0.950 1_565 S
H1102 C1078 0.950 . S
H1103 C1079 0.949 . S
H1104 C1081 0.950 . S
H1105 C1083 0.950 . S
C1106 C1107 1.349 . S
C1106 C1108 1.327 . S
C1106 H1131 0.950 . S
C1107 C1106 1.349 . S
C1107 C1123 1.349 . S
C1108 C1106 1.327 . S
C1108 C1127 1.429 . S
C1108 H1132 0.950 . S
C1109 C1126 1.574 . S
C1109 C1128 1.368 . S
C1109 H1133 0.949 . S
H1110 C1114 0.949 . S
C1111 C1112 1.349 . S
C1111 C1113 1.327 . S
C1111 H1134 0.950 . S
C1112 C1111 1.349 . S
C1112 C1124 1.349 . S
C1113 C1111 1.327 . S
C1113 C1129 1.429 . S
C1113 H1135 0.950 . S
C1114 H1110 0.949 . S
C1114 C1122 1.574 . S
C1114 C1130 1.368 . S
H1115 C1123 0.950 . S
H1116 C1121 0.950 . S
H1117 C1122 0.949 . S
H1118 C1124 0.950 . S
H1119 C1125 0.950 . S
H1120 C1126 0.949 . S
C1121 H1116 0.950 . S
C1121 C1123 1.327 . S
C1121 C1127 1.429 . S
C1122 C1114 1.574 . S
C1122 H1117 0.949 . S
C1122 C1128 1.368 . S
C1123 C1107 1.349 . S
C1123 H1115 0.950 . S
C1123 C1121 1.327 . S
C1124 C1112 1.349 . S
C1124 H1118 0.950 . S
C1124 C1125 1.327 . S
C1125 H1119 0.950 . S
C1125 C1124 1.327 . S
C1125 C1129 1.429 . S
C1126 C1109 1.574 . S
C1126 H1120 0.949 . S
C1126 C1130 1.368 . S
C1127 C1108 1.429 . S
C1127 C1121 1.429 . S
C1127 C1128 1.523 . S
C1128 C1109 1.368 . S
C1128 C1122 1.368 . S
C1128 C1127 1.523 . S
C1129 C1113 1.429 . S
C1129 C1125 1.429 . S
C1129 C1130 1.523 . S
C1130 C1114 1.368 . S
C1130 C1126 1.368 . S
C1130 C1129 1.523 . S
H1131 C1106 0.950 . S
H1132 C1108 0.950 . S
H1133 C1109 0.949 . S
H1134 C1111 0.950 . S
H1135 C1113 0.950 . S
C1136 C1137 1.349 . S
C1136 C1138 1.327 . S
C1136 H1161 0.950 . S
C1137 C1136 1.349 . S
C1137 C1153 1.349 . S
C1138 C1136 1.327 . S
C1138 C1157 1.429 . S
C1138 H1162 0.950 . S
C1139 C1156 1.574 . S
C1139 C1158 1.368 . S
C1139 H1163 0.949 . S
H1140 C1144 0.949 . S
C1141 C1142 1.349 . S
C1141 C1143 1.327 . S
C1141 H1164 0.950 . S
C1142 C1141 1.349 . S
C1142 C1154 1.339 1_545 S
C1143 C1141 1.327 . S
C1143 C1159 1.429 1_545 S
C1143 H1165 0.950 . S
C1144 H1140 0.949 . S
C1144 C1152 1.574 . S
C1144 C1160 1.368 . S
H1145 C1153 0.950 . S
H1146 C1151 0.950 . S
H1147 C1152 0.949 . S
H1148 C1154 0.950 . S
H1149 C1155 0.950 . S
H1150 C1156 0.949 . S
C1151 H1146 0.950 . S
C1151 C1153 1.327 . S
C1151 C1157 1.429 . S
C1152 C1144 1.574 . S
C1152 H1147 0.949 . S
C1152 C1158 1.368 . S
C1153 C1137 1.349 . S
C1153 H1145 0.950 . S
C1153 C1151 1.327 . S
C1154 C1142 1.339 1_565 S
C1154 H1148 0.950 . S
C1154 C1155 1.337 . S
C1155 H1149 0.950 . S
C1155 C1154 1.337 . S
C1155 C1159 1.429 . S
C1156 C1139 1.574 . S
C1156 H1150 0.949 . S
C1156 C1160 1.368 . S
C1157 C1138 1.429 . S
C1157 C1151 1.429 . S
C1157 C1158 1.523 . S
C1158 C1139 1.368 . S
C1158 C1152 1.368 . S
C1158 C1157 1.523 . S
C1159 C1143 1.429 1_565 S
C1159 C1155 1.429 . S
C1159 C1160 1.523 . S
C1160 C1144 1.368 . S
C1160 C1156 1.368 . S
C1160 C1159 1.523 . S
H1161 C1136 0.950 . S
H1162 C1138 0.950 . S
H1163 C1139 0.949 . S
H1164 C1141 0.950 . S
H1165 C1143 0.950 . S
C1166 C1167 1.349 1_554 S
C1166 C1168 1.327 . S
C1166 H1191 0.950 . S
C1167 C1166 1.349 1_556 S
C1167 C1183 1.349 . S
C1168 C1166 1.327 . S
C1168 C1187 1.408 1_554 S
C1168 H1192 0.950 . S
C1169 C1186 1.574 . S
C1169 C1188 1.378 . S
C1169 H1193 0.949 . S
H1170 C1174 0.949 . S
C1171 C1172 1.349 1_556 S
C1171 C1173 1.327 . S
C1171 H1194 0.950 . S
C1172 C1171 1.349 1_554 S
C1172 C1184 1.349 . S
C1173 C1171 1.327 . S
C1173 C1189 1.411 1_556 S
C1173 H1195 0.950 . S
C1174 H1170 0.949 . S
C1174 C1182 1.574 . S
C1174 C1190 1.374 . S
H1175 C1183 0.950 . S
H1176 C1181 0.950 . S
H1177 C1182 0.949 . S
H1178 C1184 0.950 . S
H1179 C1185 0.950 . S
H1180 C1186 0.949 . S
C1181 H1176 0.950 . S
C1181 C1183 1.327 . S
C1181 C1187 1.456 . S
C1182 C1174 1.574 . S
C1182 H1177 0.949 . S
C1182 C1188 1.357 1_554 S
C1183 C1167 1.349 . S
C1183 H1175 0.950 . S
C1183 C1181 1.327 . S
C1184 C1172 1.349 . S
C1184 H1178 0.950 . S
C1184 C1185 1.327 . S
C1185 H1179 0.950 . S
C1185 C1184 1.327 . S
C1185 C1189 1.451 . S
C1186 C1169 1.574 . S
C1186 H1180 0.949 . S
C1186 C1190 1.362 1_556 S
C1187 C1168 1.408 1_556 S
C1187 C1181 1.456 . S
C1187 C1188 1.520 . S
C1188 C1169 1.378 . S
C1188 C1182 1.357 1_556 S
C1188 C1187 1.520 . S
C1189 C1173 1.411 1_554 S
C1189 C1185 1.451 . S
C1189 C1190 1.520 . S
C1190 C1174 1.374 . S
C1190 C1186 1.362 1_554 S
C1190 C1189 1.520 . S
H1191 C1166 0.950 . S
H1192 C1168 0.950 . S
H1193 C1169 0.949 . S
H1194 C1171 0.950 . S
H1195 C1173 0.950 . S
C1196 C1197 1.349 . S
C1196 C1198 1.327 . S
C1196 H1221 0.950 . S
C1197 C1196 1.349 . S
C1197 C1213 1.349 . S
C1198 C1196 1.327 . S
C1198 C1217 1.429 . S
C1198 H1222 0.950 . S
C1199 C1216 1.574 . S
C1199 C1218 1.368 . S
C1199 H1223 0.949 . S
H1200 C1204 0.949 . S
C1201 C1202 1.349 . S
C1201 C1203 1.327 . S
C1201 H1224 0.950 . S
C1202 C1201 1.349 . S
C1202 C1214 1.349 . S
C1203 C1201 1.327 . S
C1203 C1219 1.429 . S
C1203 H1225 0.950 . S
C1204 H1200 0.949 . S
C1204 C1212 1.574 . S
C1204 C1220 1.368 . S
H1205 C1213 0.950 . S
H1206 C1211 0.950 . S
H1207 C1212 0.949 . S
H1208 C1214 0.950 . S
H1209 C1215 0.950 . S
H1210 C1216 0.949 . S
C1211 H1206 0.950 . S
C1211 C1213 1.327 . S
C1211 C1217 1.429 . S
C1212 C1204 1.574 . S
C1212 H1207 0.949 . S
C1212 C1218 1.368 . S
C1213 C1197 1.349 . S
C1213 H1205 0.950 . S
C1213 C1211 1.327 . S
C1214 C1202 1.349 . S
C1214 H1208 0.950 . S
C1214 C1215 1.327 . S
C1215 H1209 0.950 . S
C1215 C1214 1.327 . S
C1215 C1219 1.429 . S
C1216 C1199 1.574 . S
C1216 H1210 0.949 . S
C1216 C1220 1.368 . S
C1217 C1198 1.429 . S
C1217 C1211 1.429 . S
C1217 C1218 1.523 . S
C1218 C1199 1.368 . S
C1218 C1212 1.368 . S
C1218 C1217 1.523 . S
C1219 C1203 1.429 . S
C1219 C1215 1.429 . S
C1219 C1220 1.523 . S
C1220 C1204 1.368 . S
C1220 C1216 1.368 . S
C1220 C1219 1.523 . S
H1221 C1196 0.950 . S
H1222 C1198 0.950 . S
H1223 C1199 0.949 . S
H1224 C1201 0.950 . S
H1225 C1203 0.950 . S
C1226 C1227 1.349 . S
C1226 C1228 1.327 . S
C1226 H1251 0.950 . S
C1227 C1226 1.349 . S
C1227 C1243 1.349 . S
C1228 C1226 1.327 . S
C1228 C1247 1.429 . S
C1228 H1252 0.950 . S
C1229 C1246 1.574 . S
C1229 C1248 1.368 . S
C1229 H1253 0.949 . S
H1230 C1234 0.949 . S
C1231 C1232 1.349 . S
C1231 C1233 1.327 . S
C1231 H1254 0.950 . S
C1232 C1231 1.349 . S
C1232 C1244 1.349 . S
C1233 C1231 1.327 . S
C1233 C1249 1.429 . S
C1233 H1255 0.950 . S
C1234 H1230 0.949 . S
C1234 C1242 1.574 . S
C1234 C1250 1.368 . S
H1235 C1243 0.950 . S
H1236 C1241 0.950 . S
H1237 C1242 0.949 . S
H1238 C1244 0.950 . S
H1239 C1245 0.950 . S
H1240 C1246 0.949 . S
C1241 H1236 0.950 . S
C1241 C1243 1.327 . S
C1241 C1247 1.429 . S
C1242 C1234 1.574 . S
C1242 H1237 0.949 . S
C1242 C1248 1.368 . S
C1243 C1227 1.349 . S
C1243 H1235 0.950 . S
C1243 C1241 1.327 . S
C1244 C1232 1.349 . S
C1244 H1238 0.950 . S
C1244 C1245 1.327 . S
C1245 H1239 0.950 . S
C1245 C1244 1.327 . S
C1245 C1249 1.429 . S
C1246 C1229 1.574 . S
C1246 H1240 0.949 . S
C1246 C1250 1.368 . S
C1247 C1228 1.429 . S
C1247 C1241 1.429 . S
C1247 C1248 1.523 . S
C1248 C1229 1.368 . S
C1248 C1242 1.368 . S
C1248 C1247 1.523 . S
C1249 C1233 1.429 . S
C1249 C1245 1.429 . S
C1249 C1250 1.523 . S
C1250 C1234 1.368 . S
C1250 C1246 1.368 . S
C1250 C1249 1.523 . S
H1251 C1226 0.950 . S
H1252 C1228 0.950 . S
H1253 C1229 0.949 . S
H1254 C1231 0.950 . S
H1255 C1233 0.950 . S
C1256 C1257 1.349 . S
C1256 C1258 1.327 . S
C1256 H1281 0.950 . S
C1257 C1256 1.349 . S
C1257 C1273 1.349 . S
C1258 C1256 1.327 . S
C1258 C1277 1.429 . S
C1258 H1282 0.950 . S
C1259 C1276 1.574 . S
C1259 C1278 1.368 . S
C1259 H1283 0.949 . S
H1260 C1264 0.949 . S
C1261 C1262 1.349 . S
C1261 C1263 1.327 . S
C1261 H1284 0.950 . S
C1262 C1261 1.349 . S
C1262 C1274 1.349 . S
C1263 C1261 1.327 . S
C1263 C1279 1.429 . S
C1263 H1285 0.950 . S
C1264 H1260 0.949 . S
C1264 C1272 1.574 . S
C1264 C1280 1.368 . S
H1265 C1273 0.950 . S
H1266 C1271 0.950 . S
H1267 C1272 0.949 . S
H1268 C1274 0.950 . S
H1269 C1275 0.950 . S
H1270 C1276 0.949 . S
C1271 H1266 0.950 . S
C1271 C1273 1.327 . S
C1271 C1277 1.429 . S
C1272 C1264 1.574 . S
C1272 H1267 0.949 . S
C1272 C1278 1.368 . S
C1273 C1257 1.349 . S
C1273 H1265 0.950 . S
C1273 C1271 1.327 . S
C1274 C1262 1.349 . S
C1274 H1268 0.950 . S
C1274 C1275 1.327 . S
C1275 H1269 0.950 . S
C1275 C1274 1.327 . S
C1275 C1279 1.429 . S
C1276 C1259 1.574 . S
C1276 H1270 0.949 . S
C1276 C1280 1.368 . S
C1277 C1258 1.429 . S
C1277 C1271 1.429 . S
C1277 C1278 1.523 . S
C1278 C1259 1.368 . S
C1278 C1272 1.368 . S
C1278 C1277 1.523 . S
C1279 C1263 1.429 . S
C1279 C1275 1.429 . S
C1279 C1280 1.523 . S
C1280 C1264 1.368 . S
C1280 C1276 1.368 . S
C1280 C1279 1.523 . S
H1281 C1256 0.950 . S
H1282 C1258 0.950 . S
H1283 C1259 0.949 . S
H1284 C1261 0.950 . S
H1285 C1263 0.950 . S
C1286 C1287 1.349 . S
C1286 C1288 1.327 . S
C1286 H1311 0.950 . S
C1287 C1286 1.349 . S
C1287 C1303 1.349 . S
C1288 C1286 1.327 . S
C1288 C1307 1.429 . S
C1288 H1312 0.950 . S
C1289 C1306 1.574 . S
C1289 C1308 1.368 . S
C1289 H1313 0.949 . S
H1290 C1294 0.949 . S
C1291 C1292 1.349 . S
C1291 C1293 1.327 . S
C1291 H1314 0.950 . S
C1292 C1291 1.349 . S
C1292 C1304 1.349 . S
C1293 C1291 1.327 . S
C1293 C1309 1.429 . S
C1293 H1315 0.950 . S
C1294 H1290 0.949 . S
C1294 C1302 1.574 . S
C1294 C1310 1.368 . S
H1295 C1303 0.950 . S
H1296 C1301 0.950 . S
H1297 C1302 0.949 . S
H1298 C1304 0.950 . S
H1299 C1305 0.950 . S
H1300 C1306 0.949 . S
C1301 H1296 0.950 . S
C1301 C1303 1.327 . S
C1301 C1307 1.429 . S
C1302 C1294 1.574 . S
C1302 H1297 0.949 . S
C1302 C1308 1.368 . S
C1303 C1287 1.349 . S
C1303 H1295 0.950 . S
C1303 C1301 1.327 . S
C1304 C1292 1.349 . S
C1304 H1298 0.950 . S
C1304 C1305 1.327 . S
C1305 H1299 0.950 . S
C1305 C1304 1.327 . S
C1305 C1309 1.429 . S
C1306 C1289 1.574 . S
C1306 H1300 0.949 . S
C1306 C1310 1.368 . S
C1307 C1288 1.429 . S
C1307 C1301 1.429 . S
C1307 C1308 1.523 . S
C1308 C1289 1.368 . S
C1308 C1302 1.368 . S
C1308 C1307 1.523 . S
C1309 C1293 1.429 . S
C1309 C1305 1.429 . S
C1309 C1310 1.523 . S
C1310 C1294 1.368 . S
C1310 C1306 1.368 . S
C1310 C1309 1.523 . S
H1311 C1286 0.950 . S
H1312 C1288 0.950 . S
H1313 C1289 0.949 . S
H1314 C1291 0.950 . S
H1315 C1293 0.950 . S
C1316 C1317 1.349 . S
C1316 C1318 1.327 . S
C1316 H1341 0.950 . S
C1317 C1316 1.349 . S
C1317 C1333 1.349 . S
C1318 C1316 1.327 . S
C1318 C1337 1.429 . S
C1318 H1342 0.950 . S
C1319 C1336 1.574 . S
C1319 C1338 1.368 . S
C1319 H1343 0.949 . S
H1320 C1324 0.949 . S
C1321 C1322 1.349 . S
C1321 C1323 1.327 . S
C1321 H1344 0.950 . S
C1322 C1321 1.349 . S
C1322 C1334 1.349 . S
C1323 C1321 1.327 . S
C1323 C1339 1.429 . S
C1323 H1345 0.950 . S
C1324 H1320 0.949 . S
C1324 C1332 1.574 . S
C1324 C1340 1.368 . S
H1325 C1333 0.950 . S
H1326 C1331 0.950 . S
H1327 C1332 0.949 . S
H1328 C1334 0.950 . S
H1329 C1335 0.950 . S
H1330 C1336 0.949 . S
C1331 H1326 0.950 . S
C1331 C1333 1.327 . S
C1331 C1337 1.429 . S
C1332 C1324 1.574 . S
C1332 H1327 0.949 . S
C1332 C1338 1.368 . S
C1333 C1317 1.349 . S
C1333 H1325 0.950 . S
C1333 C1331 1.327 . S
C1334 C1322 1.349 . S
C1334 H1328 0.950 . S
C1334 C1335 1.327 . S
C1335 H1329 0.950 . S
C1335 C1334 1.327 . S
C1335 C1339 1.429 . S
C1336 C1319 1.574 . S
C1336 H1330 0.949 . S
C1336 C1340 1.368 . S
C1337 C1318 1.429 . S
C1337 C1331 1.429 . S
C1337 C1338 1.523 . S
C1338 C1319 1.368 . S
C1338 C1332 1.368 . S
C1338 C1337 1.523 . S
C1339 C1323 1.429 . S
C1339 C1335 1.429 . S
C1339 C1340 1.523 . S
C1340 C1324 1.368 . S
C1340 C1336 1.368 . S
C1340 C1339 1.523 . S
H1341 C1316 0.950 . S
H1342 C1318 0.950 . S
H1343 C1319 0.949 . S
H1344 C1321 0.950 . S
H1345 C1323 0.950 . S
C1346 C1347 1.349 . S
C1346 C1348 1.327 . S
C1346 H1371 0.950 . S
C1347 C1346 1.349 . S
C1347 C1363 1.349 . S
C1348 C1346 1.327 . S
C1348 C1367 1.429 . S
C1348 H1372 0.950 . S
C1349 C1366 1.574 . S
C1349 C1368 1.368 . S
C1349 H1373 0.949 . S
H1350 C1354 0.949 . S
C1351 C1352 1.349 . S
C1351 C1353 1.327 . S
C1351 H1374 0.950 . S
C1352 C1351 1.349 . S
C1352 C1364 1.349 . S
C1353 C1351 1.327 . S
C1353 C1369 1.429 . S
C1353 H1375 0.950 . S
C1354 H1350 0.949 . S
C1354 C1362 1.574 . S
C1354 C1370 1.368 . S
H1355 C1363 0.950 . S
H1356 C1361 0.950 . S
H1357 C1362 0.949 . S
H1358 C1364 0.950 . S
H1359 C1365 0.950 . S
H1360 C1366 0.949 . S
C1361 H1356 0.950 . S
C1361 C1363 1.327 . S
C1361 C1367 1.429 . S
C1362 C1354 1.574 . S
C1362 H1357 0.949 . S
C1362 C1368 1.368 . S
C1363 C1347 1.349 . S
C1363 H1355 0.950 . S
C1363 C1361 1.327 . S
C1364 C1352 1.349 . S
C1364 H1358 0.950 . S
C1364 C1365 1.327 . S
C1365 H1359 0.950 . S
C1365 C1364 1.327 . S
C1365 C1369 1.429 . S
C1366 C1349 1.574 . S
C1366 H1360 0.949 . S
C1366 C1370 1.368 . S
C1367 C1348 1.429 . S
C1367 C1361 1.429 . S
C1367 C1368 1.523 . S
C1368 C1349 1.368 . S
C1368 C1362 1.368 . S
C1368 C1367 1.523 . S
C1369 C1353 1.429 . S
C1369 C1365 1.429 . S
C1369 C1370 1.523 . S
C1370 C1354 1.368 . S
C1370 C1366 1.368 . S
C1370 C1369 1.523 . S
H1371 C1346 0.950 . S
H1372 C1348 0.950 . S
H1373 C1349 0.949 . S
H1374 C1351 0.950 . S
H1375 C1353 0.950 . S
C1376 C1377 1.349 . S
C1376 C1378 1.327 . S
C1376 H1401 0.950 . S
C1377 C1376 1.349 . S
C1377 C1393 1.349 1_455 S
C1378 C1376 1.327 . S
C1378 C1397 1.429 . S
C1378 H1402 0.950 . S
C1379 C1396 1.574 . S
C1379 C1398 1.368 1_655 S
C1379 H1403 0.949 . S
H1380 C1384 0.949 . S
C1381 C1382 1.349 1_655 S
C1381 C1383 1.327 . S
C1381 H1404 0.950 . S
C1382 C1381 1.349 1_455 S
C1382 C1394 1.349 . S
C1383 C1381 1.327 . S
C1383 C1399 1.429 1_655 S
C1383 H1405 0.950 . S
C1384 H1380 0.949 . S
C1384 C1392 1.574 . S
C1384 C1400 1.368 . S
H1385 C1393 0.950 . S
H1386 C1391 0.950 . S
H1387 C1392 0.949 . S
H1388 C1394 0.950 . S
H1389 C1395 0.950 . S
H1390 C1396 0.949 . S
C1391 H1386 0.950 . S
C1391 C1393 1.327 . S
C1391 C1397 1.429 1_655 S
C1392 C1384 1.574 . S
C1392 H1387 0.949 . S
C1392 C1398 1.368 . S
C1393 C1377 1.349 1_655 S
C1393 H1385 0.950 . S
C1393 C1391 1.327 . S
C1394 C1382 1.349 . S
C1394 H1388 0.950 . S
C1394 C1395 1.327 . S
C1395 H1389 0.950 . S
C1395 C1394 1.327 . S
C1395 C1399 1.429 . S
C1396 C1379 1.574 . S
C1396 H1390 0.949 . S
C1396 C1400 1.368 1_655 S
C1397 C1378 1.429 . S
C1397 C1391 1.429 1_455 S
C1397 C1398 1.523 . S
C1398 C1379 1.368 1_455 S
C1398 C1392 1.368 . S
C1398 C1397 1.523 . S
C1399 C1383 1.429 1_455 S
C1399 C1395 1.429 . S
C1399 C1400 1.523 . S
C1400 C1384 1.368 . S
C1400 C1396 1.368 1_455 S
C1400 C1399 1.523 . S
H1401 C1376 0.950 . S
H1402 C1378 0.950 . S
H1403 C1379 0.949 . S
H1404 C1381 0.950 . S
H1405 C1383 0.950 . S
C1406 C1407 1.349 . S
C1406 C1408 1.327 . S
C1406 H1431 0.950 . S
C1407 C1406 1.349 . S
C1407 C1423 1.349 . S
C1408 C1406 1.327 . S
C1408 C1427 1.429 . S
C1408 H1432 0.950 . S
C1409 C1426 1.574 . S
C1409 C1428 1.368 . S
C1409 H1433 0.949 . S
H1410 C1414 0.949 . S
C1411 C1412 1.349 . S
C1411 C1413 1.327 . S
C1411 H1434 0.950 . S
C1412 C1411 1.349 . S
C1412 C1424 1.349 . S
C1413 C1411 1.327 . S
C1413 C1429 1.429 . S
C1413 H1435 0.950 . S
C1414 H1410 0.949 . S
C1414 C1422 1.574 . S
C1414 C1430 1.368 . S
H1415 C1423 0.950 . S
H1416 C1421 0.950 . S
H1417 C1422 0.949 . S
H1418 C1424 0.950 . S
H1419 C1425 0.950 . S
H1420 C1426 0.949 . S
C1421 H1416 0.950 . S
C1421 C1423 1.327 . S
C1421 C1427 1.429 . S
C1422 C1414 1.574 . S
C1422 H1417 0.949 . S
C1422 C1428 1.368 . S
C1423 C1407 1.349 . S
C1423 H1415 0.950 . S
C1423 C1421 1.327 . S
C1424 C1412 1.349 . S
C1424 H1418 0.950 . S
C1424 C1425 1.327 . S
C1425 H1419 0.950 . S
C1425 C1424 1.327 . S
C1425 C1429 1.429 . S
C1426 C1409 1.574 . S
C1426 H1420 0.949 . S
C1426 C1430 1.368 . S
C1427 C1408 1.429 . S
C1427 C1421 1.429 . S
C1427 C1428 1.523 . S
C1428 C1409 1.368 . S
C1428 C1422 1.368 . S
C1428 C1427 1.523 . S
C1429 C1413 1.429 . S
C1429 C1425 1.429 . S
C1429 C1430 1.523 . S
C1430 C1414 1.368 . S
C1430 C1426 1.368 . S
C1430 C1429 1.523 . S
H1431 C1406 0.950 . S
H1432 C1408 0.950 . S
H1433 C1409 0.949 . S
H1434 C1411 0.950 . S
H1435 C1413 0.950 . S
C1436 C1437 1.349 . S
C1436 C1438 1.327 . S
C1436 H1461 0.950 . S
C1437 C1436 1.349 . S
C1437 C1453 1.349 . S
C1438 C1436 1.327 . S
C1438 C1457 1.429 . S
C1438 H1462 0.950 . S
C1439 C1456 1.574 . S
C1439 C1458 1.368 . S
C1439 H1463 0.949 . S
H1440 C1444 0.949 . S
C1441 C1442 1.349 . S
C1441 C1443 1.327 . S
C1441 H1464 0.950 . S
C1442 C1441 1.349 . S
C1442 C1454 1.349 . S
C1443 C1441 1.327 . S
C1443 C1459 1.429 . S
C1443 H1465 0.950 . S
C1444 H1440 0.949 . S
C1444 C1452 1.574 . S
C1444 C1460 1.368 . S
H1445 C1453 0.950 . S
H1446 C1451 0.950 . S
H1447 C1452 0.949 . S
H1448 C1454 0.950 . S
H1449 C1455 0.950 . S
H1450 C1456 0.949 . S
C1451 H1446 0.950 . S
C1451 C1453 1.327 . S
C1451 C1457 1.429 . S
C1452 C1444 1.574 . S
C1452 H1447 0.949 . S
C1452 C1458 1.368 . S
C1453 C1437 1.349 . S
C1453 H1445 0.950 . S
C1453 C1451 1.327 . S
C1454 C1442 1.349 . S
C1454 H1448 0.950 . S
C1454 C1455 1.327 . S
C1455 H1449 0.950 . S
C1455 C1454 1.327 . S
C1455 C1459 1.429 . S
C1456 C1439 1.574 . S
C1456 H1450 0.949 . S
C1456 C1460 1.368 . S
C1457 C1438 1.429 . S
C1457 C1451 1.429 . S
C1457 C1458 1.523 . S
C1458 C1439 1.368 . S
C1458 C1452 1.368 . S
C1458 C1457 1.523 . S
C1459 C1443 1.429 . S
C1459 C1455 1.429 . S
C1459 C1460 1.523 . S
C1460 C1444 1.368 . S
C1460 C1456 1.368 . S
C1460 C1459 1.523 . S
H1461 C1436 0.950 . S
H1462 C1438 0.950 . S
H1463 C1439 0.949 . S
H1464 C1441 0.950 . S
H1465 C1443 0.950 . S
C1466 C1467 1.349 . S
C1466 C1468 1.327 . S
C1466 H1491 0.950 . S
C1467 C1466 1.349 . S
C1467 C1483 1.349 . S
C1468 C1466 1.327 . S
C1468 C1487 1.429 . S
C1468 H1492 0.950 . S
C1469 C1486 1.574 . S
C1469 C1488 1.368 . S
C1469 H1493 0.949 . S
H1470 C1474 0.949 . S
C1471 C1472 1.349 . S
C1471 C1473 1.327 . S
C1471 H1494 0.950 . S
C1472 C1471 1.349 . S
C1472 C1484 1.349 . S
C1473 C1471 1.327 . S
C1473 C1489 1.429 . S
C1473 H1495 0.950 . S
C1474 H1470 0.949 . S
C1474 C1482 1.574 . S
C1474 C1490 1.368 . S
H1475 C1483 0.950 . S
H1476 C1481 0.950 . S
H1477 C1482 0.949 . S
H1478 C1484 0.950 . S
H1479 C1485 0.950 . S
H1480 C1486 0.949 . S
C1481 H1476 0.950 . S
C1481 C1483 1.327 . S
C1481 C1487 1.429 . S
C1482 C1474 1.574 . S
C1482 H1477 0.949 . S
C1482 C1488 1.368 . S
C1483 C1467 1.349 . S
C1483 H1475 0.950 . S
C1483 C1481 1.327 . S
C1484 C1472 1.349 . S
C1484 H1478 0.950 . S
C1484 C1485 1.327 . S
C1485 H1479 0.950 . S
C1485 C1484 1.327 . S
C1485 C1489 1.429 . S
C1486 C1469 1.574 . S
C1486 H1480 0.949 . S
C1486 C1490 1.368 . S
C1487 C1468 1.429 . S
C1487 C1481 1.429 . S
C1487 C1488 1.523 . S
C1488 C1469 1.368 . S
C1488 C1482 1.368 . S
C1488 C1487 1.523 . S
C1489 C1473 1.429 . S
C1489 C1485 1.429 . S
C1489 C1490 1.523 . S
C1490 C1474 1.368 . S
C1490 C1486 1.368 . S
C1490 C1489 1.523 . S
H1491 C1466 0.950 . S
H1492 C1468 0.950 . S
H1493 C1469 0.949 . S
H1494 C1471 0.950 . S
H1495 C1473 0.950 . S
C1496 C1497 1.349 . S
C1496 C1498 1.327 . S
C1496 H1521 0.950 . S
C1497 C1496 1.349 . S
C1497 C1513 1.349 . S
C1498 C1496 1.327 . S
C1498 C1517 1.429 . S
C1498 H1522 0.950 . S
C1499 C1516 1.570 . S
C1499 C1518 1.368 . S
C1499 H1523 0.949 1_455 S
H1500 C1504 0.949 . S
C1501 C1502 1.349 1_655 S
C1501 C1503 1.325 . S
C1501 H1524 0.950 . S
C1502 C1501 1.349 1_455 S
C1502 C1514 1.349 . S
C1503 C1501 1.325 . S
C1503 C1519 1.423 1_655 S
C1503 H1525 0.959 . S
C1504 H1500 0.949 . S
C1504 C1512 1.574 . S
C1504 C1520 1.368 . S
H1505 C1513 0.951 1_655 S
H1506 C1511 0.950 1_655 S
H1507 C1512 0.949 . S
H1508 C1514 0.950 . S
H1509 C1515 0.950 . S
H1510 C1516 0.942 1_655 S
C1511 H1506 0.950 1_455 S
C1511 C1513 1.327 . S
C1511 C1517 1.429 . S
C1512 C1504 1.574 . S
C1512 H1507 0.949 . S
C1512 C1518 1.368 . S
C1513 C1497 1.349 . S
C1513 H1505 0.951 1_455 S
C1513 C1511 1.327 . S
C1514 C1502 1.349 . S
C1514 H1508 0.950 . S
C1514 C1515 1.327 . S
C1515 H1509 0.950 . S
C1515 C1514 1.327 . S
C1515 C1519 1.429 . S
C1516 C1499 1.570 . S
C1516 H1510 0.942 1_455 S
C1516 C1520 1.383 . S
C1517 C1498 1.429 . S
C1517 C1511 1.429 . S
C1517 C1518 1.523 . S
C1518 C1499 1.368 . S
C1518 C1512 1.368 . S
C1518 C1517 1.523 . S
C1519 C1503 1.423 1_455 S
C1519 C1515 1.429 . S
C1519 C1520 1.523 . S
C1520 C1504 1.368 . S
C1520 C1516 1.383 . S
C1520 C1519 1.523 . S
H1521 C1496 0.950 . S
H1522 C1498 0.950 . S
H1523 C1499 0.949 1_655 S
H1524 C1501 0.950 . S
H1525 C1503 0.959 . S
C1526 C1527 1.349 . S
C1526 C1528 1.327 . S
C1526 H1551 0.950 . S
C1527 C1526 1.349 . S
C1527 C1543 1.349 . S
C1528 C1526 1.327 . S
C1528 C1547 1.429 . S
C1528 H1552 0.950 . S
C1529 C1546 1.574 . S
C1529 C1548 1.368 . S
C1529 H1553 0.949 . S
H1530 C1534 0.949 . S
C1531 C1532 1.349 . S
C1531 C1533 1.327 . S
C1531 H1554 0.950 . S
C1532 C1531 1.349 . S
C1532 C1544 1.349 . S
C1533 C1531 1.327 . S
C1533 C1549 1.429 . S
C1533 H1555 0.950 . S
C1534 H1530 0.949 . S
C1534 C1542 1.574 . S
C1534 C1550 1.368 . S
H1535 C1543 0.950 . S
H1536 C1541 0.950 . S
H1537 C1542 0.949 . S
H1538 C1544 0.950 . S
H1539 C1545 0.950 . S
H1540 C1546 0.949 . S
C1541 H1536 0.950 . S
C1541 C1543 1.327 . S
C1541 C1547 1.429 . S
C1542 C1534 1.574 . S
C1542 H1537 0.949 . S
C1542 C1548 1.368 . S
C1543 C1527 1.349 . S
C1543 H1535 0.950 . S
C1543 C1541 1.327 . S
C1544 C1532 1.349 . S
C1544 H1538 0.950 . S
C1544 C1545 1.327 . S
C1545 H1539 0.950 . S
C1545 C1544 1.327 . S
C1545 C1549 1.429 . S
C1546 C1529 1.574 . S
C1546 H1540 0.949 . S
C1546 C1550 1.368 . S
C1547 C1528 1.429 . S
C1547 C1541 1.429 . S
C1547 C1548 1.523 . S
C1548 C1529 1.368 . S
C1548 C1542 1.368 . S
C1548 C1547 1.523 . S
C1549 C1533 1.429 . S
C1549 C1545 1.429 . S
C1549 C1550 1.523 . S
C1550 C1534 1.368 . S
C1550 C1546 1.368 . S
C1550 C1549 1.523 . S
H1551 C1526 0.950 . S
H1552 C1528 0.950 . S
H1553 C1529 0.949 . S
H1554 C1531 0.950 . S
H1555 C1533 0.950 . S
C1556 C1557 1.349 . S
C1556 C1558 1.327 . S
C1556 H1581 0.950 . S
C1557 C1556 1.349 . S
C1557 C1573 1.349 . S
C1558 C1556 1.327 . S
C1558 C1577 1.429 . S
C1558 H1582 0.950 . S
C1559 C1576 1.574 . S
C1559 C1578 1.368 . S
C1559 H1583 0.949 . S
H1560 C1564 0.949 . S
C1561 C1562 1.349 . S
C1561 C1563 1.327 . S
C1561 H1584 0.950 . S
C1562 C1561 1.349 . S
C1562 C1574 1.349 . S
C1563 C1561 1.327 . S
C1563 C1579 1.429 . S
C1563 H1585 0.950 . S
C1564 H1560 0.949 . S
C1564 C1572 1.574 . S
C1564 C1580 1.368 . S
H1565 C1573 0.950 . S
H1566 C1571 0.950 . S
H1567 C1572 0.949 . S
H1568 C1574 0.950 . S
H1569 C1575 0.950 . S
H1570 C1576 0.949 . S
C1571 H1566 0.950 . S
C1571 C1573 1.327 . S
C1571 C1577 1.429 . S
C1572 C1564 1.574 . S
C1572 H1567 0.949 . S
C1572 C1578 1.368 . S
C1573 C1557 1.349 . S
C1573 H1565 0.950 . S
C1573 C1571 1.327 . S
C1574 C1562 1.349 . S
C1574 H1568 0.950 . S
C1574 C1575 1.327 . S
C1575 H1569 0.950 . S
C1575 C1574 1.327 . S
C1575 C1579 1.429 . S
C1576 C1559 1.574 . S
C1576 H1570 0.949 . S
C1576 C1580 1.368 . S
C1577 C1558 1.429 . S
C1577 C1571 1.429 . S
C1577 C1578 1.523 . S
C1578 C1559 1.368 . S
C1578 C1572 1.368 . S
C1578 C1577 1.523 . S
C1579 C1563 1.429 . S
C1579 C1575 1.429 . S
C1579 C1580 1.523 . S
C1580 C1564 1.368 . S
C1580 C1576 1.368 . S
C1580 C1579 1.523 . S
H1581 C1556 0.950 . S
H1582 C1558 0.950 . S
H1583 C1559 0.949 . S
H1584 C1561 0.950 . S
H1585 C1563 0.950 . S
C1586 C1587 1.349 . S
C1586 C1588 1.327 . S
C1586 H1611 0.950 . S
C1587 C1586 1.349 . S
C1587 C1603 1.349 . S
C1588 C1586 1.327 . S
C1588 C1607 1.429 . S
C1588 H1612 0.950 . S
C1589 C1606 1.574 . S
C1589 C1608 1.368 . S
C1589 H1613 0.949 . S
H1590 C1594 0.949 . S
C1591 C1592 1.349 . S
C1591 C1593 1.327 . S
C1591 H1614 0.950 . S
C1592 C1591 1.349 . S
C1592 C1604 1.349 . S
C1593 C1591 1.327 . S
C1593 C1609 1.429 . S
C1593 H1615 0.950 . S
C1594 H1590 0.949 . S
C1594 C1602 1.574 . S
C1594 C1610 1.368 . S
H1595 C1603 0.950 . S
H1596 C1601 0.950 . S
H1597 C1602 0.949 . S
H1598 C1604 0.950 . S
H1599 C1605 0.950 . S
H1600 C1606 0.949 . S
C1601 H1596 0.950 . S
C1601 C1603 1.327 . S
C1601 C1607 1.429 . S
C1602 C1594 1.574 . S
C1602 H1597 0.949 . S
C1602 C1608 1.368 . S
C1603 C1587 1.349 . S
C1603 H1595 0.950 . S
C1603 C1601 1.327 . S
C1604 C1592 1.349 . S
C1604 H1598 0.950 . S
C1604 C1605 1.327 . S
C1605 H1599 0.950 . S
C1605 C1604 1.327 . S
C1605 C1609 1.429 . S
C1606 C1589 1.574 . S
C1606 H1600 0.949 . S
C1606 C1610 1.368 . S
C1607 C1588 1.429 . S
C1607 C1601 1.429 . S
C1607 C1608 1.523 . S
C1608 C1589 1.368 . S
C1608 C1602 1.368 . S
C1608 C1607 1.523 . S
C1609 C1593 1.429 . S
C1609 C1605 1.429 . S
C1609 C1610 1.523 . S
C1610 C1594 1.368 . S
C1610 C1606 1.368 . S
C1610 C1609 1.523 . S
H1611 C1586 0.950 . S
H1612 C1588 0.950 . S
H1613 C1589 0.949 . S
H1614 C1591 0.950 . S
H1615 C1593 0.950 . S
C1616 C1617 1.349 1_565 S
C1616 C1618 1.327 . S
C1616 H1641 0.950 . S
C1617 C1616 1.349 1_545 S
C1617 C1633 1.349 . S
C1618 C1616 1.327 . S
C1618 C1637 1.429 1_565 S
C1618 H1642 0.950 . S
C1619 C1636 1.574 . S
C1619 C1638 1.368 . S
C1619 H1643 0.949 . S
H1620 C1624 0.971 . S
C1621 C1622 1.349 . S
C1621 C1623 1.327 . S
C1621 H1644 0.950 . S
C1622 C1621 1.349 . S
C1622 C1634 1.349 . S
C1623 C1621 1.327 . S
C1623 C1639 1.429 . S
C1623 H1645 0.950 . S
C1624 H1620 0.971 . S
C1624 C1632 1.578 . S
C1624 C1640 1.341 1_565 S
H1625 C1633 0.950 . S
H1626 C1631 0.950 . S
H1627 C1632 0.949 . S
H1628 C1634 0.950 1_565 S
H1629 C1635 0.950 1_565 S
H1630 C1636 0.949 . S
C1631 H1626 0.950 . S
C1631 C1633 1.327 . S
C1631 C1637 1.429 . S
C1632 C1624 1.578 . S
C1632 H1627 0.949 . S
C1632 C1638 1.368 1_565 S
C1633 C1617 1.349 . S
C1633 H1625 0.950 . S
C1633 C1631 1.327 . S
C1634 C1622 1.349 . S
C1634 H1628 0.950 1_545 S
C1634 C1635 1.327 . S
C1635 H1629 0.950 1_545 S
C1635 C1634 1.327 . S
C1635 C1639 1.429 . S
C1636 C1619 1.574 . S
C1636 H1630 0.949 . S
C1636 C1640 1.368 . S
C1637 C1618 1.429 1_545 S
C1637 C1631 1.429 . S
C1637 C1638 1.523 . S
C1638 C1619 1.368 . S
C1638 C1632 1.368 1_545 S
C1638 C1637 1.523 . S
C1639 C1623 1.429 . S
C1639 C1635 1.429 . S
C1639 C1640 1.523 . S
C1640 C1624 1.341 1_545 S
C1640 C1636 1.368 . S
C1640 C1639 1.523 . S
H1641 C1616 0.950 . S
H1642 C1618 0.950 . S
H1643 C1619 0.949 . S
H1644 C1621 0.950 . S
H1645 C1623 0.950 . S
C1646 C1647 1.349 . S
C1646 C1648 1.327 . S
C1646 H1671 0.950 . S
C1647 C1646 1.349 . S
C1647 C1663 1.349 . S
C1648 C1646 1.327 . S
C1648 C1667 1.429 . S
C1648 H1672 0.950 . S
C1649 C1666 1.574 . S
C1649 C1668 1.368 . S
C1649 H1673 0.949 . S
H1650 C1654 0.949 . S
C1651 C1652 1.349 . S
C1651 C1653 1.327 . S
C1651 H1674 0.950 . S
C1652 C1651 1.349 . S
C1652 C1664 1.349 . S
C1653 C1651 1.327 . S
C1653 C1669 1.429 . S
C1653 H1675 0.950 . S
C1654 H1650 0.949 . S
C1654 C1662 1.574 . S
C1654 C1670 1.368 . S
H1655 C1663 0.950 . S
H1656 C1661 0.950 . S
H1657 C1662 0.949 . S
H1658 C1664 0.950 . S
H1659 C1665 0.950 . S
H1660 C1666 0.949 . S
C1661 H1656 0.950 . S
C1661 C1663 1.327 . S
C1661 C1667 1.429 . S
C1662 C1654 1.574 . S
C1662 H1657 0.949 . S
C1662 C1668 1.368 . S
C1663 C1647 1.349 . S
C1663 H1655 0.950 . S
C1663 C1661 1.327 . S
C1664 C1652 1.349 . S
C1664 H1658 0.950 . S
C1664 C1665 1.327 . S
C1665 H1659 0.950 . S
C1665 C1664 1.327 . S
C1665 C1669 1.429 . S
C1666 C1649 1.574 . S
C1666 H1660 0.949 . S
C1666 C1670 1.368 . S
C1667 C1648 1.429 . S
C1667 C1661 1.429 . S
C1667 C1668 1.523 . S
C1668 C1649 1.368 . S
C1668 C1662 1.368 . S
C1668 C1667 1.523 . S
C1669 C1653 1.429 . S
C1669 C1665 1.429 . S
C1669 C1670 1.523 . S
C1670 C1654 1.368 . S
C1670 C1666 1.368 . S
C1670 C1669 1.523 . S
H1671 C1646 0.950 . S
H1672 C1648 0.950 . S
H1673 C1649 0.949 . S
H1674 C1651 0.950 . S
H1675 C1653 0.950 . S
C1676 C1677 1.349 . S
C1676 C1678 1.327 . S
C1676 H1701 0.950 . S
C1677 C1676 1.349 . S
C1677 C1693 1.349 . S
C1678 C1676 1.327 . S
C1678 C1697 1.429 . S
C1678 H1702 0.950 . S
C1679 C1696 1.574 . S
C1679 C1698 1.368 . S
C1679 H1703 0.949 . S
H1680 C1684 0.949 . S
C1681 C1682 1.349 . S
C1681 C1683 1.327 . S
C1681 H1704 0.950 . S
C1682 C1681 1.349 . S
C1682 C1694 1.349 . S
C1683 C1681 1.327 . S
C1683 C1699 1.429 . S
C1683 H1705 0.950 . S
C1684 H1680 0.949 . S
C1684 C1692 1.574 . S
C1684 C1700 1.368 . S
H1685 C1693 0.950 . S
H1686 C1691 0.950 . S
H1687 C1692 0.949 . S
H1688 C1694 0.950 . S
H1689 C1695 0.950 . S
H1690 C1696 0.949 . S
C1691 H1686 0.950 . S
C1691 C1693 1.327 . S
C1691 C1697 1.429 . S
C1692 C1684 1.574 . S
C1692 H1687 0.949 . S
C1692 C1698 1.368 . S
C1693 C1677 1.349 . S
C1693 H1685 0.950 . S
C1693 C1691 1.327 . S
C1694 C1682 1.349 . S
C1694 H1688 0.950 . S
C1694 C1695 1.327 . S
C1695 H1689 0.950 . S
C1695 C1694 1.327 . S
C1695 C1699 1.429 . S
C1696 C1679 1.574 . S
C1696 H1690 0.949 . S
C1696 C1700 1.368 . S
C1697 C1678 1.429 . S
C1697 C1691 1.429 . S
C1697 C1698 1.523 . S
C1698 C1679 1.368 . S
C1698 C1692 1.368 . S
C1698 C1697 1.523 . S
C1699 C1683 1.429 . S
C1699 C1695 1.429 . S
C1699 C1700 1.523 . S
C1700 C1684 1.368 . S
C1700 C1696 1.368 . S
C1700 C1699 1.523 . S
H1701 C1676 0.950 . S
H1702 C1678 0.950 . S
H1703 C1679 0.949 . S
H1704 C1681 0.950 . S
H1705 C1683 0.950 . S
C1706 C1707 1.349 . S
C1706 C1708 1.327 . S
C1706 H1731 0.950 . S
C1707 C1706 1.349 . S
C1707 C1723 1.349 . S
C1708 C1706 1.327 . S
C1708 C1727 1.429 . S
C1708 H1732 0.950 . S
C1709 C1726 1.574 . S
C1709 C1728 1.368 . S
C1709 H1733 0.949 . S
H1710 C1714 0.949 . S
C1711 C1712 1.349 . S
C1711 C1713 1.327 . S
C1711 H1734 0.950 . S
C1712 C1711 1.349 . S
C1712 C1724 1.349 . S
C1713 C1711 1.327 . S
C1713 C1729 1.429 . S
C1713 H1735 0.950 . S
C1714 H1710 0.949 . S
C1714 C1722 1.574 . S
C1714 C1730 1.368 . S
H1715 C1723 0.950 . S
H1716 C1721 0.950 . S
H1717 C1722 0.949 . S
H1718 C1724 0.950 . S
H1719 C1725 0.950 . S
H1720 C1726 0.949 . S
C1721 H1716 0.950 . S
C1721 C1723 1.327 . S
C1721 C1727 1.429 . S
C1722 C1714 1.574 . S
C1722 H1717 0.949 . S
C1722 C1728 1.368 . S
C1723 C1707 1.349 . S
C1723 H1715 0.950 . S
C1723 C1721 1.327 . S
C1724 C1712 1.349 . S
C1724 H1718 0.950 . S
C1724 C1725 1.327 . S
C1725 H1719 0.950 . S
C1725 C1724 1.327 . S
C1725 C1729 1.429 . S
C1726 C1709 1.574 . S
C1726 H1720 0.949 . S
C1726 C1730 1.368 . S
C1727 C1708 1.429 . S
C1727 C1721 1.429 . S
C1727 C1728 1.523 . S
C1728 C1709 1.368 . S
C1728 C1722 1.368 . S
C1728 C1727 1.523 . S
C1729 C1713 1.429 . S
C1729 C1725 1.429 . S
C1729 C1730 1.523 . S
C1730 C1714 1.368 . S
C1730 C1726 1.368 . S
C1730 C1729 1.523 . S
H1731 C1706 0.950 . S
H1732 C1708 0.950 . S
H1733 C1709 0.949 . S
H1734 C1711 0.950 . S
H1735 C1713 0.950 . S
C1736 C1737 1.349 . S
C1736 C1738 1.327 . S
C1736 H1761 0.950 . S
C1737 C1736 1.349 . S
C1737 C1753 1.349 1_565 S
C1738 C1736 1.327 . S
C1738 C1757 1.429 1_565 S
C1738 H1762 0.950 . S
C1739 C1756 1.574 . S
C1739 C1758 1.368 . S
C1739 H1763 0.949 . S
H1740 C1744 0.949 . S
C1741 C1742 1.349 . S
C1741 C1743 1.327 . S
C1741 H1764 0.950 . S
C1742 C1741 1.349 . S
C1742 C1754 1.349 . S
C1743 C1741 1.327 . S
C1743 C1759 1.429 . S
C1743 H1765 0.950 . S
C1744 H1740 0.949 . S
C1744 C1752 1.574 . S
C1744 C1760 1.368 1_565 S
H1745 C1753 0.950 . S
H1746 C1751 0.950 . S
H1747 C1752 0.949 . S
H1748 C1754 0.950 1_565 S
H1749 C1755 0.950 1_565 S
H1750 C1756 0.949 . S
C1751 H1746 0.950 . S
C1751 C1753 1.327 . S
C1751 C1757 1.429 . S
C1752 C1744 1.574 . S
C1752 H1747 0.949 . S
C1752 C1758 1.368 1_565 S
C1753 C1737 1.349 1_545 S
C1753 H1745 0.950 . S
C1753 C1751 1.327 . S
C1754 C1742 1.349 . S
C1754 H1748 0.950 1_545 S
C1754 C1755 1.327 . S
C1755 H1749 0.950 1_545 S
C1755 C1754 1.327 . S
C1755 C1759 1.429 . S
C1756 C1739 1.574 . S
C1756 H1750 0.949 . S
C1756 C1760 1.368 . S
C1757 C1738 1.429 1_545 S
C1757 C1751 1.429 . S
C1757 C1758 1.523 . S
C1758 C1739 1.368 . S
C1758 C1752 1.368 1_545 S
C1758 C1757 1.523 . S
C1759 C1743 1.429 . S
C1759 C1755 1.429 . S
C1759 C1760 1.523 . S
C1760 C1744 1.368 1_545 S
C1760 C1756 1.368 . S
C1760 C1759 1.523 . S
H1761 C1736 0.950 . S
H1762 C1738 0.950 . S
H1763 C1739 0.949 . S
H1764 C1741 0.950 . S
H1765 C1743 0.950 . S
C1766 C1767 1.349 . S
C1766 C1768 1.327 . S
C1766 H1791 0.950 . S
C1767 C1766 1.349 . S
C1767 C1783 1.349 . S
C1768 C1766 1.327 . S
C1768 C1787 1.429 . S
C1768 H1792 0.950 . S
C1769 C1786 1.574 . S
C1769 C1788 1.368 . S
C1769 H1793 0.949 . S
H1770 C1774 0.949 . S
C1771 C1772 1.349 . S
C1771 C1773 1.327 . S
C1771 H1794 0.950 . S
C1772 C1771 1.349 . S
C1772 C1784 1.349 . S
C1773 C1771 1.327 . S
C1773 C1789 1.429 . S
C1773 H1795 0.950 . S
C1774 H1770 0.949 . S
C1774 C1782 1.574 . S
C1774 C1790 1.368 . S
H1775 C1783 0.950 . S
H1776 C1781 0.950 . S
H1777 C1782 0.949 . S
H1778 C1784 0.950 . S
H1779 C1785 0.950 . S
H1780 C1786 0.949 . S
C1781 H1776 0.950 . S
C1781 C1783 1.327 . S
C1781 C1787 1.429 . S
C1782 C1774 1.574 . S
C1782 H1777 0.949 . S
C1782 C1788 1.368 . S
C1783 C1767 1.349 . S
C1783 H1775 0.950 . S
C1783 C1781 1.327 . S
C1784 C1772 1.349 . S
C1784 H1778 0.950 . S
C1784 C1785 1.327 . S
C1785 H1779 0.950 . S
C1785 C1784 1.327 . S
C1785 C1789 1.429 . S
C1786 C1769 1.574 . S
C1786 H1780 0.949 . S
C1786 C1790 1.368 . S
C1787 C1768 1.429 . S
C1787 C1781 1.429 . S
C1787 C1788 1.523 . S
C1788 C1769 1.368 . S
C1788 C1782 1.368 . S
C1788 C1787 1.523 . S
C1789 C1773 1.429 . S
C1789 C1785 1.429 . S
C1789 C1790 1.523 . S
C1790 C1774 1.368 . S
C1790 C1786 1.368 . S
C1790 C1789 1.523 . S
H1791 C1766 0.950 . S
H1792 C1768 0.950 . S
H1793 C1769 0.949 . S
H1794 C1771 0.950 . S
H1795 C1773 0.950 . S
C1796 C1797 1.349 . S
C1796 C1798 1.327 . S
C1796 H1821 0.950 . S
C1797 C1796 1.349 . S
C1797 C1813 1.349 . S
C1798 C1796 1.327 . S
C1798 C1817 1.429 . S
C1798 H1822 0.950 . S
C1799 C1816 1.574 . S
C1799 C1818 1.368 . S
C1799 H1823 0.949 . S
H1800 C1804 0.949 . S
C1801 C1802 1.349 . S
C1801 C1803 1.327 . S
C1801 H1824 0.950 . S
C1802 C1801 1.349 . S
C1802 C1814 1.349 . S
C1803 C1801 1.327 . S
C1803 C1819 1.429 . S
C1803 H1825 0.950 . S
C1804 H1800 0.949 . S
C1804 C1812 1.574 . S
C1804 C1820 1.368 . S
H1805 C1813 0.950 . S
H1806 C1811 0.950 . S
H1807 C1812 0.949 . S
H1808 C1814 0.950 . S
H1809 C1815 0.950 . S
H1810 C1816 0.949 . S
C1811 H1806 0.950 . S
C1811 C1813 1.327 . S
C1811 C1817 1.429 . S
C1812 C1804 1.574 . S
C1812 H1807 0.949 . S
C1812 C1818 1.368 . S
C1813 C1797 1.349 . S
C1813 H1805 0.950 . S
C1813 C1811 1.327 . S
C1814 C1802 1.349 . S
C1814 H1808 0.950 . S
C1814 C1815 1.327 . S
C1815 H1809 0.950 . S
C1815 C1814 1.327 . S
C1815 C1819 1.429 . S
C1816 C1799 1.574 . S
C1816 H1810 0.949 . S
C1816 C1820 1.368 . S
C1817 C1798 1.429 . S
C1817 C1811 1.429 . S
C1817 C1818 1.523 . S
C1818 C1799 1.368 . S
C1818 C1812 1.368 . S
C1818 C1817 1.523 . S
C1819 C1803 1.429 . S
C1819 C1815 1.429 . S
C1819 C1820 1.523 . S
C1820 C1804 1.368 . S
C1820 C1816 1.368 . S
C1820 C1819 1.523 . S
H1821 C1796 0.950 . S
H1822 C1798 0.950 . S
H1823 C1799 0.949 . S
H1824 C1801 0.950 . S
H1825 C1803 0.950 . S
C1826 C1827 1.349 . S
C1826 C1828 1.327 . S
C1826 H1851 0.950 . S
C1827 C1826 1.349 . S
C1827 C1843 1.349 . S
C1828 C1826 1.327 . S
C1828 C1847 1.429 . S
C1828 H1852 0.950 . S
C1829 C1846 1.574 . S
C1829 C1848 1.368 . S
C1829 H1853 0.949 . S
H1830 C1834 0.949 . S
C1831 C1832 1.349 . S
C1831 C1833 1.327 . S
C1831 H1854 0.950 . S
C1832 C1831 1.349 . S
C1832 C1844 1.349 . S
C1833 C1831 1.327 . S
C1833 C1849 1.429 . S
C1833 H1855 0.950 . S
C1834 H1830 0.949 . S
C1834 C1842 1.574 . S
C1834 C1850 1.368 . S
H1835 C1843 0.950 . S
H1836 C1841 0.950 . S
H1837 C1842 0.949 . S
H1838 C1844 0.950 . S
H1839 C1845 0.950 . S
H1840 C1846 0.949 . S
C1841 H1836 0.950 . S
C1841 C1843 1.327 . S
C1841 C1847 1.429 . S
C1842 C1834 1.574 . S
C1842 H1837 0.949 . S
C1842 C1848 1.368 . S
C1843 C1827 1.349 . S
C1843 H1835 0.950 . S
C1843 C1841 1.327 . S
C1844 C1832 1.349 . S
C1844 H1838 0.950 . S
C1844 C1845 1.327 . S
C1845 H1839 0.950 . S
C1845 C1844 1.327 . S
C1845 C1849 1.429 . S
C1846 C1829 1.574 . S
C1846 H1840 0.949 . S
C1846 C1850 1.368 . S
C1847 C1828 1.429 . S
C1847 C1841 1.429 . S
C1847 C1848 1.523 . S
C1848 C1829 1.368 . S
C1848 C1842 1.368 . S
C1848 C1847 1.523 . S
C1849 C1833 1.429 . S
C1849 C1845 1.429 . S
C1849 C1850 1.523 . S
C1850 C1834 1.368 . S
C1850 C1846 1.368 . S
C1850 C1849 1.523 . S
H1851 C1826 0.950 . S
H1852 C1828 0.950 . S
H1853 C1829 0.949 . S
H1854 C1831 0.950 . S
H1855 C1833 0.950 . S
C1856 C1857 1.349 1_556 S
C1856 C1858 1.327 . S
C1856 H1881 0.950 . S
C1857 C1856 1.349 1_554 S
C1857 C1873 1.349 . S
C1858 C1856 1.327 . S
C1858 C1877 1.429 1_556 S
C1858 H1882 0.950 . S
C1859 C1876 1.574 . S
C1859 C1878 1.368 . S
C1859 H1883 0.949 . S
H1860 C1864 0.949 . S
C1861 C1862 1.349 . S
C1861 C1863 1.327 . S
C1861 H1884 0.950 . S
C1862 C1861 1.349 . S
C1862 C1874 1.349 1_554 S
C1863 C1861 1.327 . S
C1863 C1879 1.429 . S
C1863 H1885 0.950 . S
C1864 H1860 0.949 . S
C1864 C1872 1.574 . S
C1864 C1880 1.368 1_556 S
H1865 C1873 0.950 . S
H1866 C1871 0.950 . S
H1867 C1872 0.949 . S
H1868 C1874 0.950 . S
H1869 C1875 0.950 . S
H1870 C1876 0.949 . S
C1871 H1866 0.950 . S
C1871 C1873 1.327 . S
C1871 C1877 1.429 . S
C1872 C1864 1.574 . S
C1872 H1867 0.949 . S
C1872 C1878 1.368 1_556 S
C1873 C1857 1.349 . S
C1873 H1865 0.950 . S
C1873 C1871 1.327 . S
C1874 C1862 1.349 1_556 S
C1874 H1868 0.950 . S
C1874 C1875 1.327 . S
C1875 H1869 0.950 . S
C1875 C1874 1.327 . S
C1875 C1879 1.429 1_556 S
C1876 C1859 1.574 . S
C1876 H1870 0.949 . S
C1876 C1880 1.368 . S
C1877 C1858 1.429 1_554 S
C1877 C1871 1.429 . S
C1877 C1878 1.523 . S
C1878 C1859 1.368 . S
C1878 C1872 1.368 1_554 S
C1878 C1877 1.523 . S
C1879 C1863 1.429 . S
C1879 C1875 1.429 1_554 S
C1879 C1880 1.523 . S
C1880 C1864 1.368 1_554 S
C1880 C1876 1.368 . S
C1880 C1879 1.523 . S
H1881 C1856 0.950 . S
H1882 C1858 0.950 . S
H1883 C1859 0.949 . S
H1884 C1861 0.950 . S
H1885 C1863 0.950 . S
C1886 C1887 1.349 . S
C1886 C1888 1.327 . S
C1886 H1911 0.950 . S
C1887 C1886 1.349 . S
C1887 C1903 1.349 . S
C1888 C1886 1.327 . S
C1888 C1907 1.429 . S
C1888 H1912 0.950 . S
C1889 C1906 1.574 . S
C1889 C1908 1.368 . S
C1889 H1913 0.949 1_554 S
H1890 C1894 0.949 . S
C1891 C1892 1.349 . S
C1891 C1893 1.327 . S
C1891 H1914 0.950 1_554 S
C1892 C1891 1.349 . S
C1892 C1904 1.349 . S
C1893 C1891 1.327 . S
C1893 C1909 1.429 . S
C1893 H1915 0.950 1_554 S
C1894 H1890 0.949 . S
C1894 C1902 1.574 . S
C1894 C1910 1.368 . S
H1895 C1903 0.950 1_556 S
H1896 C1901 0.950 1_556 S
H1897 C1902 0.949 . S
H1898 C1904 0.950 . S
H1899 C1905 0.950 . S
H1900 C1906 0.949 1_556 S
C1901 H1896 0.950 1_554 S
C1901 C1903 1.327 . S
C1901 C1907 1.429 . S
C1902 C1894 1.574 . S
C1902 H1897 0.949 . S
C1902 C1908 1.368 . S
C1903 C1887 1.349 . S
C1903 H1895 0.950 1_554 S
C1903 C1901 1.327 . S
C1904 C1892 1.349 . S
C1904 H1898 0.950 . S
C1904 C1905 1.327 . S
C1905 H1899 0.950 . S
C1905 C1904 1.327 . S
C1905 C1909 1.429 . S
C1906 C1889 1.574 . S
C1906 H1900 0.949 1_554 S
C1906 C1910 1.368 . S
C1907 C1888 1.429 . S
C1907 C1901 1.429 . S
C1907 C1908 1.523 . S
C1908 C1889 1.368 . S
C1908 C1902 1.368 . S
C1908 C1907 1.523 . S
C1909 C1893 1.429 . S
C1909 C1905 1.429 . S
C1909 C1910 1.523 . S
C1910 C1894 1.368 . S
C1910 C1906 1.368 . S
C1910 C1909 1.523 . S
H1911 C1886 0.950 . S
H1912 C1888 0.950 . S
H1913 C1889 0.949 1_556 S
H1914 C1891 0.950 1_556 S
H1915 C1893 0.950 1_556 S
C1916 C1917 1.349 . S
C1916 C1918 1.327 . S
C1916 H1941 0.950 . S
C1917 C1916 1.349 . S
C1917 C1933 1.349 . S
C1918 C1916 1.327 . S
C1918 C1937 1.429 . S
C1918 H1942 0.950 . S
C1919 C1936 1.574 . S
C1919 C1938 1.368 . S
C1919 H1943 0.949 . S
H1920 C1924 0.949 . S
C1921 C1922 1.349 . S
C1921 C1923 1.327 . S
C1921 H1944 0.950 . S
C1922 C1921 1.349 . S
C1922 C1934 1.349 . S
C1923 C1921 1.327 . S
C1923 C1939 1.429 . S
C1923 H1945 0.950 . S
C1924 H1920 0.949 . S
C1924 C1932 1.574 . S
C1924 C1940 1.368 . S
H1925 C1933 0.950 . S
H1926 C1931 0.950 . S
H1927 C1932 0.949 . S
H1928 C1934 0.950 . S
H1929 C1935 0.950 . S
H1930 C1936 0.949 . S
C1931 H1926 0.950 . S
C1931 C1933 1.327 . S
C1931 C1937 1.429 . S
C1932 C1924 1.574 . S
C1932 H1927 0.949 . S
C1932 C1938 1.368 . S
C1933 C1917 1.349 . S
C1933 H1925 0.950 . S
C1933 C1931 1.327 . S
C1934 C1922 1.349 . S
C1934 H1928 0.950 . S
C1934 C1935 1.327 . S
C1935 H1929 0.950 . S
C1935 C1934 1.327 . S
C1935 C1939 1.429 . S
C1936 C1919 1.574 . S
C1936 H1930 0.949 . S
C1936 C1940 1.368 . S
C1937 C1918 1.429 . S
C1937 C1931 1.429 . S
C1937 C1938 1.523 . S
C1938 C1919 1.368 . S
C1938 C1932 1.368 . S
C1938 C1937 1.523 . S
C1939 C1923 1.429 . S
C1939 C1935 1.429 . S
C1939 C1940 1.523 . S
C1940 C1924 1.368 . S
C1940 C1936 1.368 . S
C1940 C1939 1.523 . S
H1941 C1916 0.950 . S
H1942 C1918 0.950 . S
H1943 C1919 0.949 . S
H1944 C1921 0.950 . S
H1945 C1923 0.950 . S
C1946 C1947 1.349 . S
C1946 C1948 1.327 . S
C1946 H1971 0.950 . S
C1947 C1946 1.349 . S
C1947 C1963 1.349 . S
C1948 C1946 1.327 . S
C1948 C1967 1.429 . S
C1948 H1972 0.950 . S
C1949 C1966 1.574 . S
C1949 C1968 1.368 . S
C1949 H1973 0.949 . S
H1950 C1954 0.949 . S
C1951 C1952 1.349 . S
C1951 C1953 1.327 . S
C1951 H1974 0.950 . S
C1952 C1951 1.349 . S
C1952 C1964 1.349 . S
C1953 C1951 1.327 . S
C1953 C1969 1.429 . S
C1953 H1975 0.950 . S
C1954 H1950 0.949 . S
C1954 C1962 1.574 . S
C1954 C1970 1.368 . S
H1955 C1963 0.950 . S
H1956 C1961 0.950 . S
H1957 C1962 0.949 . S
H1958 C1964 0.950 . S
H1959 C1965 0.950 . S
H1960 C1966 0.949 . S
C1961 H1956 0.950 . S
C1961 C1963 1.327 . S
C1961 C1967 1.429 . S
C1962 C1954 1.574 . S
C1962 H1957 0.949 . S
C1962 C1968 1.368 . S
C1963 C1947 1.349 . S
C1963 H1955 0.950 . S
C1963 C1961 1.327 . S
C1964 C1952 1.349 . S
C1964 H1958 0.950 . S
C1964 C1965 1.327 . S
C1965 H1959 0.950 . S
C1965 C1964 1.327 . S
C1965 C1969 1.429 . S
C1966 C1949 1.574 . S
C1966 H1960 0.949 . S
C1966 C1970 1.368 . S
C1967 C1948 1.429 . S
C1967 C1961 1.429 . S
C1967 C1968 1.523 . S
C1968 C1949 1.368 . S
C1968 C1962 1.368 . S
C1968 C1967 1.523 . S
C1969 C1953 1.429 . S
C1969 C1965 1.429 . S
C1969 C1970 1.523 . S
C1970 C1954 1.368 . S
C1970 C1966 1.368 . S
C1970 C1969 1.523 . S
H1971 C1946 0.950 . S
H1972 C1948 0.950 . S
H1973 C1949 0.949 . S
H1974 C1951 0.950 . S
H1975 C1953 0.950 . S
C1976 C1977 1.349 . S
C1976 C1978 1.327 . S
C1976 H2001 0.950 . S
C1977 C1976 1.349 . S
C1977 C1993 1.349 . S
C1978 C1976 1.327 . S
C1978 C1997 1.429 . S
C1978 H2002 0.950 . S
C1979 C1996 1.574 . S
C1979 C1998 1.368 . S
C1979 H2003 0.949 . S
H1980 C1984 0.949 . S
C1981 C1982 1.349 . S
C1981 C1983 1.327 . S
C1981 H2004 0.950 . S
C1982 C1981 1.349 . S
C1982 C1994 1.349 . S
C1983 C1981 1.327 . S
C1983 C1999 1.429 . S
C1983 H2005 0.950 . S
C1984 H1980 0.949 . S
C1984 C1992 1.574 . S
C1984 C2000 1.368 . S
H1985 C1993 0.950 . S
H1986 C1991 0.950 . S
H1987 C1992 0.949 . S
H1988 C1994 0.950 . S
H1989 C1995 0.950 . S
H1990 C1996 0.949 . S
C1991 H1986 0.950 . S
C1991 C1993 1.327 . S
C1991 C1997 1.429 . S
C1992 C1984 1.574 . S
C1992 H1987 0.949 . S
C1992 C1998 1.368 . S
C1993 C1977 1.349 . S
C1993 H1985 0.950 . S
C1993 C1991 1.327 . S
C1994 C1982 1.349 . S
C1994 H1988 0.950 . S
C1994 C1995 1.327 . S
C1995 H1989 0.950 . S
C1995 C1994 1.327 . S
C1995 C1999 1.429 . S
C1996 C1979 1.574 . S
C1996 H1990 0.949 . S
C1996 C2000 1.368 . S
C1997 C1978 1.429 . S
C1997 C1991 1.429 . S
C1997 C1998 1.523 . S
C1998 C1979 1.368 . S
C1998 C1992 1.368 . S
C1998 C1997 1.523 . S
C1999 C1983 1.429 . S
C1999 C1995 1.429 . S
C1999 C2000 1.523 . S
C2000 C1984 1.368 . S
C2000 C1996 1.368 . S
C2000 C1999 1.523 . S
H2001 C1976 0.950 . S
H2002 C1978 0.950 . S
H2003 C1979 0.949 . S
H2004 C1981 0.950 . S
H2005 C1983 0.950 . S
C2006 C2007 1.349 . S
C2006 C2008 1.327 . S
C2006 H2031 0.950 . S
C2007 C2006 1.349 . S
C2007 C2023 1.349 . S
C2008 C2006 1.327 . S
C2008 C2027 1.429 . S
C2008 H2032 0.950 . S
C2009 C2026 1.574 . S
C2009 C2028 1.368 . S
C2009 H2033 0.949 . S
H2010 C2014 0.949 . S
C2011 C2012 1.349 1_545 S
C2011 C2013 1.327 1_545 S
C2011 H2034 0.950 . S
C2012 C2011 1.349 1_565 S
C2012 C2024 1.349 . S
C2013 C2011 1.327 1_565 S
C2013 C2029 1.429 . S
C2013 H2035 0.950 . S
C2014 H2010 0.949 . S
C2014 C2022 1.574 . S
C2014 C2030 1.368 . S
H2015 C2023 0.950 . S
H2016 C2021 0.950 . S
H2017 C2022 0.949 . S
H2018 C2024 0.950 . S
H2019 C2025 0.950 . S
H2020 C2026 0.949 . S
C2021 H2016 0.950 . S
C2021 C2023 1.327 . S
C2021 C2027 1.429 . S
C2022 C2014 1.574 . S
C2022 H2017 0.949 . S
C2022 C2028 1.368 . S
C2023 C2007 1.349 . S
C2023 H2015 0.950 . S
C2023 C2021 1.327 . S
C2024 C2012 1.349 . S
C2024 H2018 0.950 . S
C2024 C2025 1.327 . S
C2025 H2019 0.950 . S
C2025 C2024 1.327 . S
C2025 C2029 1.429 . S
C2026 C2009 1.574 . S
C2026 H2020 0.949 . S
C2026 C2030 1.368 . S
C2027 C2008 1.429 . S
C2027 C2021 1.429 . S
C2027 C2028 1.523 . S
C2028 C2009 1.368 . S
C2028 C2022 1.368 . S
C2028 C2027 1.523 . S
C2029 C2013 1.429 . S
C2029 C2025 1.429 . S
C2029 C2030 1.523 . S
C2030 C2014 1.368 . S
C2030 C2026 1.368 . S
C2030 C2029 1.523 . S
H2031 C2006 0.950 . S
H2032 C2008 0.950 . S
H2033 C2009 0.949 . S
H2034 C2011 0.950 . S
H2035 C2013 0.950 . S
C2036 C2037 1.349 . S
C2036 C2038 1.327 . S
C2036 H2061 0.950 . S
C2037 C2036 1.349 . S
C2037 C2053 1.349 . S
C2038 C2036 1.327 . S
C2038 C2057 1.429 . S
C2038 H2062 0.950 . S
C2039 C2056 1.574 . S
C2039 C2058 1.368 . S
C2039 H2063 0.949 . S
H2040 C2044 0.949 . S
C2041 C2042 1.349 . S
C2041 C2043 1.327 . S
C2041 H2064 0.950 . S
C2042 C2041 1.349 . S
C2042 C2054 1.349 . S
C2043 C2041 1.327 . S
C2043 C2059 1.429 . S
C2043 H2065 0.950 . S
C2044 H2040 0.949 . S
C2044 C2052 1.574 . S
C2044 C2060 1.368 . S
H2045 C2053 0.950 . S
H2046 C2051 0.950 . S
H2047 C2052 0.949 . S
H2048 C2054 0.950 . S
H2049 C2055 0.950 . S
H2050 C2056 0.949 . S
C2051 H2046 0.950 . S
C2051 C2053 1.327 . S
C2051 C2057 1.429 . S
C2052 C2044 1.574 . S
C2052 H2047 0.949 . S
C2052 C2058 1.368 . S
C2053 C2037 1.349 . S
C2053 H2045 0.950 . S
C2053 C2051 1.327 . S
C2054 C2042 1.349 . S
C2054 H2048 0.950 . S
C2054 C2055 1.327 . S
C2055 H2049 0.950 . S
C2055 C2054 1.327 . S
C2055 C2059 1.429 . S
C2056 C2039 1.574 . S
C2056 H2050 0.949 . S
C2056 C2060 1.368 . S
C2057 C2038 1.429 . S
C2057 C2051 1.429 . S
C2057 C2058 1.523 . S
C2058 C2039 1.368 . S
C2058 C2052 1.368 . S
C2058 C2057 1.523 . S
C2059 C2043 1.429 . S
C2059 C2055 1.429 . S
C2059 C2060 1.523 . S
C2060 C2044 1.368 . S
C2060 C2056 1.368 . S
C2060 C2059 1.523 . S
H2061 C2036 0.950 . S
H2062 C2038 0.950 . S
H2063 C2039 0.949 . S
H2064 C2041 0.950 . S
H2065 C2043 0.950 . S
C2066 C2067 1.349 . S
C2066 C2068 1.327 . S
C2066 H2091 0.950 . S
C2067 C2066 1.349 . S
C2067 C2083 1.349 . S
C2068 C2066 1.327 . S
C2068 C2087 1.429 . S
C2068 H2092 0.950 . S
C2069 C2086 1.574 . S
C2069 C2088 1.368 . S
C2069 H2093 0.949 . S
H2070 C2074 0.949 . S
C2071 C2072 1.349 . S
C2071 C2073 1.327 . S
C2071 H2094 0.950 . S
C2072 C2071 1.349 . S
C2072 C2084 1.349 . S
C2073 C2071 1.327 . S
C2073 C2089 1.429 . S
C2073 H2095 0.950 . S
C2074 H2070 0.949 . S
C2074 C2082 1.574 . S
C2074 C2090 1.368 . S
H2075 C2083 0.950 . S
H2076 C2081 0.950 . S
H2077 C2082 0.949 . S
H2078 C2084 0.950 . S
H2079 C2085 0.950 . S
H2080 C2086 0.949 . S
C2081 H2076 0.950 . S
C2081 C2083 1.327 . S
C2081 C2087 1.429 . S
C2082 C2074 1.574 . S
C2082 H2077 0.949 . S
C2082 C2088 1.368 . S
C2083 C2067 1.349 . S
C2083 H2075 0.950 . S
C2083 C2081 1.327 . S
C2084 C2072 1.349 . S
C2084 H2078 0.950 . S
C2084 C2085 1.327 . S
C2085 H2079 0.950 . S
C2085 C2084 1.327 . S
C2085 C2089 1.429 . S
C2086 C2069 1.574 . S
C2086 H2080 0.949 . S
C2086 C2090 1.368 . S
C2087 C2068 1.429 . S
C2087 C2081 1.429 . S
C2087 C2088 1.523 . S
C2088 C2069 1.368 . S
C2088 C2082 1.368 . S
C2088 C2087 1.523 . S
C2089 C2073 1.429 . S
C2089 C2085 1.429 . S
C2089 C2090 1.523 . S
C2090 C2074 1.368 . S
C2090 C2086 1.368 . S
C2090 C2089 1.523 . S
H2091 C2066 0.950 . S
H2092 C2068 0.950 . S
H2093 C2069 0.949 . S
H2094 C2071 0.950 . S
H2095 C2073 0.950 . S
C2096 C2097 1.349 . S
C2096 C2098 1.327 . S
C2096 H2121 0.950 . S
C2097 C2096 1.349 . S
C2097 C2113 1.349 . S
C2098 C2096 1.327 . S
C2098 C2117 1.429 . S
C2098 H2122 0.950 . S
C2099 C2116 1.574 . S
C2099 C2118 1.368 . S
C2099 H2123 0.949 . S
H2100 C2104 0.949 . S
C2101 C2102 1.349 . S
C2101 C2103 1.327 . S
C2101 H2124 0.950 . S
C2102 C2101 1.349 . S
C2102 C2114 1.349 . S
C2103 C2101 1.327 . S
C2103 C2119 1.429 . S
C2103 H2125 0.950 . S
C2104 H2100 0.949 . S
C2104 C2112 1.574 . S
C2104 C2120 1.368 . S
H2105 C2113 0.950 . S
H2106 C2111 0.950 . S
H2107 C2112 0.949 . S
H2108 C2114 0.950 . S
H2109 C2115 0.950 . S
H2110 C2116 0.949 . S
C2111 H2106 0.950 . S
C2111 C2113 1.327 . S
C2111 C2117 1.429 . S
C2112 C2104 1.574 . S
C2112 H2107 0.949 . S
C2112 C2118 1.368 . S
C2113 C2097 1.349 . S
C2113 H2105 0.950 . S
C2113 C2111 1.327 . S
C2114 C2102 1.349 . S
C2114 H2108 0.950 . S
C2114 C2115 1.327 . S
C2115 H2109 0.950 . S
C2115 C2114 1.327 . S
C2115 C2119 1.429 . S
C2116 C2099 1.574 . S
C2116 H2110 0.949 . S
C2116 C2120 1.368 . S
C2117 C2098 1.429 . S
C2117 C2111 1.429 . S
C2117 C2118 1.523 . S
C2118 C2099 1.368 . S
C2118 C2112 1.368 . S
C2118 C2117 1.523 . S
C2119 C2103 1.429 . S
C2119 C2115 1.429 . S
C2119 C2120 1.523 . S
C2120 C2104 1.368 . S
C2120 C2116 1.368 . S
C2120 C2119 1.523 . S
H2121 C2096 0.950 . S
H2122 C2098 0.950 . S
H2123 C2099 0.949 . S
H2124 C2101 0.950 . S
H2125 C2103 0.950 . S
C2126 C2127 1.349 . S
C2126 C2128 1.327 . S
C2126 H2151 0.950 . S
C2127 C2126 1.349 . S
C2127 C2143 1.349 . S
C2128 C2126 1.327 . S
C2128 C2147 1.429 . S
C2128 H2152 0.950 . S
C2129 C2146 1.574 . S
C2129 C2148 1.368 . S
C2129 H2153 0.949 . S
H2130 C2134 0.949 . S
C2131 C2132 1.349 . S
C2131 C2133 1.327 . S
C2131 H2154 0.950 . S
C2132 C2131 1.349 . S
C2132 C2144 1.349 . S
C2133 C2131 1.327 . S
C2133 C2149 1.429 . S
C2133 H2155 0.950 . S
C2134 H2130 0.949 . S
C2134 C2142 1.574 . S
C2134 C2150 1.368 . S
H2135 C2143 0.950 . S
H2136 C2141 0.950 . S
H2137 C2142 0.949 . S
H2138 C2144 0.950 . S
H2139 C2145 0.950 . S
H2140 C2146 0.949 . S
C2141 H2136 0.950 . S
C2141 C2143 1.327 . S
C2141 C2147 1.429 . S
C2142 C2134 1.574 . S
C2142 H2137 0.949 . S
C2142 C2148 1.368 . S
C2143 C2127 1.349 . S
C2143 H2135 0.950 . S
C2143 C2141 1.327 . S
C2144 C2132 1.349 . S
C2144 H2138 0.950 . S
C2144 C2145 1.327 . S
C2145 H2139 0.950 . S
C2145 C2144 1.327 . S
C2145 C2149 1.429 . S
C2146 C2129 1.574 . S
C2146 H2140 0.949 . S
C2146 C2150 1.368 . S
C2147 C2128 1.429 . S
C2147 C2141 1.429 . S
C2147 C2148 1.523 . S
C2148 C2129 1.368 . S
C2148 C2142 1.368 . S
C2148 C2147 1.523 . S
C2149 C2133 1.429 . S
C2149 C2145 1.429 . S
C2149 C2150 1.523 . S
C2150 C2134 1.368 . S
C2150 C2146 1.368 . S
C2150 C2149 1.523 . S
H2151 C2126 0.950 . S
H2152 C2128 0.950 . S
H2153 C2129 0.949 . S
H2154 C2131 0.950 . S
H2155 C2133 0.950 . S
C2156 C2157 1.349 . S
C2156 C2158 1.327 . S
C2156 H2181 0.950 . S
C2157 C2156 1.349 . S
C2157 C2173 1.319 1_455 S
C2158 C2156 1.327 . S
C2158 C2177 1.429 . S
C2158 H2182 0.950 . S
C2159 C2176 1.574 . S
C2159 C2178 1.368 1_655 S
C2159 H2183 0.949 . S
H2160 C2164 0.949 . S
C2161 C2162 1.337 1_655 S
C2161 C2163 1.327 . S
C2161 H2184 0.950 . S
C2162 C2161 1.337 1_455 S
C2162 C2174 1.356 1_556 S
C2163 C2161 1.327 . S
C2163 C2179 1.429 1_655 S
C2163 H2185 0.950 . S
C2164 H2160 0.949 . S
C2164 C2172 1.574 . S
C2164 C2180 1.368 . S
H2165 C2173 0.967 . S
H2166 C2171 0.950 . S
H2167 C2172 0.949 . S
H2168 C2174 0.980 . S
H2169 C2175 0.950 . S
H2170 C2176 0.949 . S
C2171 H2166 0.950 . S
C2171 C2173 1.342 . S
C2171 C2177 1.429 1_655 S
C2172 C2164 1.574 . S
C2172 H2167 0.949 . S
C2172 C2178 1.368 . S
C2173 C2157 1.319 1_655 S
C2173 H2165 0.967 . S
C2173 C2171 1.342 . S
C2174 C2162 1.356 1_554 S
C2174 H2168 0.980 . S
C2174 C2175 1.312 1_554 S
C2175 H2169 0.950 . S
C2175 C2174 1.312 1_556 S
C2175 C2179 1.429 . S
C2176 C2159 1.574 . S
C2176 H2170 0.949 . S
C2176 C2180 1.368 1_655 S
C2177 C2158 1.429 . S
C2177 C2171 1.429 1_455 S
C2177 C2178 1.523 . S
C2178 C2159 1.368 1_455 S
C2178 C2172 1.368 . S
C2178 C2177 1.523 . S
C2179 C2163 1.429 1_455 S
C2179 C2175 1.429 . S
C2179 C2180 1.523 . S
C2180 C2164 1.368 . S
C2180 C2176 1.368 1_455 S
C2180 C2179 1.523 . S
H2181 C2156 0.950 . S
H2182 C2158 0.950 . S
H2183 C2159 0.949 . S
H2184 C2161 0.950 . S
H2185 C2163 0.950 . S
C2186 C2187 1.349 . S
C2186 C2188 1.327 . S
C2186 H2211 0.950 . S
C2187 C2186 1.349 . S
C2187 C2203 1.349 . S
C2188 C2186 1.327 . S
C2188 C2207 1.429 . S
C2188 H2212 0.950 . S
C2189 C2206 1.574 . S
C2189 C2208 1.368 . S
C2189 H2213 0.949 . S
H2190 C2194 0.949 . S
C2191 C2192 1.349 . S
C2191 C2193 1.327 . S
C2191 H2214 0.950 . S
C2192 C2191 1.349 . S
C2192 C2204 1.349 . S
C2193 C2191 1.327 . S
C2193 C2209 1.429 . S
C2193 H2215 0.950 . S
C2194 H2190 0.949 . S
C2194 C2202 1.574 . S
C2194 C2210 1.368 . S
H2195 C2203 0.950 . S
H2196 C2201 0.950 . S
H2197 C2202 0.949 . S
H2198 C2204 0.950 . S
H2199 C2205 0.950 . S
H2200 C2206 0.949 . S
C2201 H2196 0.950 . S
C2201 C2203 1.327 . S
C2201 C2207 1.429 . S
C2202 C2194 1.574 . S
C2202 H2197 0.949 . S
C2202 C2208 1.368 . S
C2203 C2187 1.349 . S
C2203 H2195 0.950 . S
C2203 C2201 1.327 . S
C2204 C2192 1.349 . S
C2204 H2198 0.950 . S
C2204 C2205 1.327 . S
C2205 H2199 0.950 . S
C2205 C2204 1.327 . S
C2205 C2209 1.429 . S
C2206 C2189 1.574 . S
C2206 H2200 0.949 . S
C2206 C2210 1.368 . S
C2207 C2188 1.429 . S
C2207 C2201 1.429 . S
C2207 C2208 1.523 . S
C2208 C2189 1.368 . S
C2208 C2202 1.368 . S
C2208 C2207 1.523 . S
C2209 C2193 1.429 . S
C2209 C2205 1.429 . S
C2209 C2210 1.523 . S
C2210 C2194 1.368 . S
C2210 C2206 1.368 . S
C2210 C2209 1.523 . S
H2211 C2186 0.950 . S
H2212 C2188 0.950 . S
H2213 C2189 0.949 . S
H2214 C2191 0.950 . S
H2215 C2193 0.950 . S
C2216 C2217 1.349 . S
C2216 C2218 1.327 . S
C2216 H2241 0.950 . S
C2217 C2216 1.349 . S
C2217 C2233 1.349 . S
C2218 C2216 1.327 . S
C2218 C2237 1.429 . S
C2218 H2242 0.950 . S
C2219 C2236 1.574 . S
C2219 C2238 1.368 . S
C2219 H2243 0.949 . S
H2220 C2224 0.949 . S
C2221 C2222 1.349 . S
C2221 C2223 1.327 . S
C2221 H2244 0.950 . S
C2222 C2221 1.349 . S
C2222 C2234 1.349 . S
C2223 C2221 1.327 . S
C2223 C2239 1.429 . S
C2223 H2245 0.950 . S
C2224 H2220 0.949 . S
C2224 C2232 1.574 . S
C2224 C2240 1.368 . S
H2225 C2233 0.950 . S
H2226 C2231 0.950 . S
H2227 C2232 0.949 . S
H2228 C2234 0.950 . S
H2229 C2235 0.950 . S
H2230 C2236 0.949 . S
C2231 H2226 0.950 . S
C2231 C2233 1.327 . S
C2231 C2237 1.429 . S
C2232 C2224 1.574 . S
C2232 H2227 0.949 . S
C2232 C2238 1.368 . S
C2233 C2217 1.349 . S
C2233 H2225 0.950 . S
C2233 C2231 1.327 . S
C2234 C2222 1.349 . S
C2234 H2228 0.950 . S
C2234 C2235 1.327 . S
C2235 H2229 0.950 . S
C2235 C2234 1.327 . S
C2235 C2239 1.429 . S
C2236 C2219 1.574 . S
C2236 H2230 0.949 . S
C2236 C2240 1.368 . S
C2237 C2218 1.429 . S
C2237 C2231 1.429 . S
C2237 C2238 1.523 . S
C2238 C2219 1.368 . S
C2238 C2232 1.368 . S
C2238 C2237 1.523 . S
C2239 C2223 1.429 . S
C2239 C2235 1.429 . S
C2239 C2240 1.523 . S
C2240 C2224 1.368 . S
C2240 C2236 1.368 . S
C2240 C2239 1.523 . S
H2241 C2216 0.950 . S
H2242 C2218 0.950 . S
H2243 C2219 0.949 . S
H2244 C2221 0.950 . S
H2245 C2223 0.950 . S
C2246 C2247 1.349 . S
C2246 C2248 1.327 . S
C2246 H2271 0.950 . S
C2247 C2246 1.349 . S
C2247 C2263 1.349 . S
C2248 C2246 1.327 . S
C2248 C2267 1.429 . S
C2248 H2272 0.950 . S
C2249 C2266 1.574 . S
C2249 C2268 1.368 . S
C2249 H2273 0.949 . S
H2250 C2254 0.949 . S
C2251 C2252 1.349 . S
C2251 C2253 1.327 . S
C2251 H2274 0.950 . S
C2252 C2251 1.349 . S
C2252 C2264 1.349 . S
C2253 C2251 1.327 . S
C2253 C2269 1.429 . S
C2253 H2275 0.950 . S
C2254 H2250 0.949 . S
C2254 C2262 1.574 . S
C2254 C2270 1.368 . S
H2255 C2263 0.950 . S
H2256 C2261 0.950 . S
H2257 C2262 0.949 . S
H2258 C2264 0.950 . S
H2259 C2265 0.950 . S
H2260 C2266 0.949 . S
C2261 H2256 0.950 . S
C2261 C2263 1.327 . S
C2261 C2267 1.429 . S
C2262 C2254 1.574 . S
C2262 H2257 0.949 . S
C2262 C2268 1.368 . S
C2263 C2247 1.349 . S
C2263 H2255 0.950 . S
C2263 C2261 1.327 . S
C2264 C2252 1.349 . S
C2264 H2258 0.950 . S
C2264 C2265 1.327 . S
C2265 H2259 0.950 . S
C2265 C2264 1.327 . S
C2265 C2269 1.429 . S
C2266 C2249 1.574 . S
C2266 H2260 0.949 . S
C2266 C2270 1.368 . S
C2267 C2248 1.429 . S
C2267 C2261 1.429 . S
C2267 C2268 1.523 . S
C2268 C2249 1.368 . S
C2268 C2262 1.368 . S
C2268 C2267 1.523 . S
C2269 C2253 1.429 . S
C2269 C2265 1.429 . S
C2269 C2270 1.523 . S
C2270 C2254 1.368 . S
C2270 C2266 1.368 . S
C2270 C2269 1.523 . S
H2271 C2246 0.950 . S
H2272 C2248 0.950 . S
H2273 C2249 0.949 . S
H2274 C2251 0.950 . S
H2275 C2253 0.950 . S
C2276 C2277 1.349 . S
C2276 C2278 1.327 . S
C2276 H2301 0.950 . S
C2277 C2276 1.349 . S
C2277 C2293 1.349 1_655 S
C2278 C2276 1.327 . S
C2278 C2297 1.429 . S
C2278 H2302 0.950 . S
C2279 C2296 1.574 . S
C2279 C2298 1.368 1_455 S
C2279 H2303 0.949 . S
H2280 C2284 0.949 . S
C2281 C2282 1.349 1_455 S
C2281 C2283 1.327 . S
C2281 H2304 0.950 . S
C2282 C2281 1.349 1_655 S
C2282 C2294 1.349 . S
C2283 C2281 1.327 . S
C2283 C2299 1.429 1_455 S
C2283 H2305 0.950 . S
C2284 H2280 0.949 . S
C2284 C2292 1.574 . S
C2284 C2300 1.368 . S
H2285 C2293 0.950 . S
H2286 C2291 0.950 . S
H2287 C2292 0.949 . S
H2288 C2294 0.950 . S
H2289 C2295 0.950 . S
H2290 C2296 0.949 . S
C2291 H2286 0.950 . S
C2291 C2293 1.327 . S
C2291 C2297 1.429 1_455 S
C2292 C2284 1.574 . S
C2292 H2287 0.949 . S
C2292 C2298 1.368 . S
C2293 C2277 1.349 1_455 S
C2293 H2285 0.950 . S
C2293 C2291 1.327 . S
C2294 C2282 1.349 . S
C2294 H2288 0.950 . S
C2294 C2295 1.327 . S
C2295 H2289 0.950 . S
C2295 C2294 1.327 . S
C2295 C2299 1.429 . S
C2296 C2279 1.574 . S
C2296 H2290 0.949 . S
C2296 C2300 1.368 1_455 S
C2297 C2278 1.429 . S
C2297 C2291 1.429 1_655 S
C2297 C2298 1.523 . S
C2298 C2279 1.368 1_655 S
C2298 C2292 1.368 . S
C2298 C2297 1.523 . S
C2299 C2283 1.429 1_655 S
C2299 C2295 1.429 . S
C2299 C2300 1.523 . S
C2300 C2284 1.368 . S
C2300 C2296 1.368 1_655 S
C2300 C2299 1.523 . S
H2301 C2276 0.950 . S
H2302 C2278 0.950 . S
H2303 C2279 0.949 . S
H2304 C2281 0.950 . S
H2305 C2283 0.950 . S
C2306 C2307 1.349 . S
C2306 C2308 1.327 . S
C2306 H2331 0.950 . S
C2307 C2306 1.349 . S
C2307 C2323 1.349 . S
C2308 C2306 1.327 . S
C2308 C2327 1.429 . S
C2308 H2332 0.950 . S
C2309 C2326 1.574 . S
C2309 C2328 1.368 . S
C2309 H2333 0.949 . S
H2310 C2314 0.949 . S
C2311 C2312 1.349 . S
C2311 C2313 1.327 . S
C2311 H2334 0.950 . S
C2312 C2311 1.349 . S
C2312 C2324 1.349 . S
C2313 C2311 1.327 . S
C2313 C2329 1.429 . S
C2313 H2335 0.950 . S
C2314 H2310 0.949 . S
C2314 C2322 1.574 . S
C2314 C2330 1.368 . S
H2315 C2323 0.950 . S
H2316 C2321 0.950 . S
H2317 C2322 0.949 . S
H2318 C2324 0.950 . S
H2319 C2325 0.950 . S
H2320 C2326 0.949 . S
C2321 H2316 0.950 . S
C2321 C2323 1.327 . S
C2321 C2327 1.429 . S
C2322 C2314 1.574 . S
C2322 H2317 0.949 . S
C2322 C2328 1.368 . S
C2323 C2307 1.349 . S
C2323 H2315 0.950 . S
C2323 C2321 1.327 . S
C2324 C2312 1.349 . S
C2324 H2318 0.950 . S
C2324 C2325 1.327 . S
C2325 H2319 0.950 . S
C2325 C2324 1.327 . S
C2325 C2329 1.429 . S
C2326 C2309 1.574 . S
C2326 H2320 0.949 . S
C2326 C2330 1.368 . S
C2327 C2308 1.429 . S
C2327 C2321 1.429 . S
C2327 C2328 1.523 . S
C2328 C2309 1.368 . S
C2328 C2322 1.368 . S
C2328 C2327 1.523 . S
C2329 C2313 1.429 . S
C2329 C2325 1.429 . S
C2329 C2330 1.523 . S
C2330 C2314 1.368 . S
C2330 C2326 1.368 . S
C2330 C2329 1.523 . S
H2331 C2306 0.950 . S
H2332 C2308 0.950 . S
H2333 C2309 0.949 . S
H2334 C2311 0.950 . S
H2335 C2313 0.950 . S
C2336 C2337 1.349 . S
C2336 C2338 1.327 . S
C2336 H2361 0.950 . S
C2337 C2336 1.349 . S
C2337 C2353 1.349 . S
C2338 C2336 1.327 . S
C2338 C2357 1.429 . S
C2338 H2362 0.950 . S
C2339 C2356 1.574 . S
C2339 C2358 1.368 . S
C2339 H2363 0.949 . S
H2340 C2344 0.949 . S
C2341 C2342 1.349 . S
C2341 C2343 1.327 . S
C2341 H2364 0.950 . S
C2342 C2341 1.349 . S
C2342 C2354 1.349 . S
C2343 C2341 1.327 . S
C2343 C2359 1.429 . S
C2343 H2365 0.950 . S
C2344 H2340 0.949 . S
C2344 C2352 1.574 . S
C2344 C2360 1.368 . S
H2345 C2353 0.950 . S
H2346 C2351 0.950 . S
H2347 C2352 0.949 . S
H2348 C2354 0.950 . S
H2349 C2355 0.950 . S
H2350 C2356 0.949 . S
C2351 H2346 0.950 . S
C2351 C2353 1.327 . S
C2351 C2357 1.429 . S
C2352 C2344 1.574 . S
C2352 H2347 0.949 . S
C2352 C2358 1.368 . S
C2353 C2337 1.349 . S
C2353 H2345 0.950 . S
C2353 C2351 1.327 . S
C2354 C2342 1.349 . S
C2354 H2348 0.950 . S
C2354 C2355 1.327 . S
C2355 H2349 0.950 . S
C2355 C2354 1.327 . S
C2355 C2359 1.429 . S
C2356 C2339 1.574 . S
C2356 H2350 0.949 . S
C2356 C2360 1.368 . S
C2357 C2338 1.429 . S
C2357 C2351 1.429 . S
C2357 C2358 1.523 . S
C2358 C2339 1.368 . S
C2358 C2352 1.368 . S
C2358 C2357 1.523 . S
C2359 C2343 1.429 . S
C2359 C2355 1.429 . S
C2359 C2360 1.523 . S
C2360 C2344 1.368 . S
C2360 C2356 1.368 . S
C2360 C2359 1.523 . S
H2361 C2336 0.950 . S
H2362 C2338 0.950 . S
H2363 C2339 0.949 . S
H2364 C2341 0.950 . S
H2365 C2343 0.950 . S
C2366 C2367 1.349 . S
C2366 C2368 1.327 . S
C2366 H2391 0.950 . S
C2367 C2366 1.349 . S
C2367 C2383 1.349 . S
C2368 C2366 1.327 . S
C2368 C2387 1.429 . S
C2368 H2392 0.950 . S
C2369 C2386 1.574 . S
C2369 C2388 1.368 . S
C2369 H2393 0.949 . S
H2370 C2374 0.949 . S
C2371 C2372 1.349 . S
C2371 C2373 1.327 . S
C2371 H2394 0.950 . S
C2372 C2371 1.349 . S
C2372 C2384 1.349 . S
C2373 C2371 1.327 . S
C2373 C2389 1.429 . S
C2373 H2395 0.950 . S
C2374 H2370 0.949 . S
C2374 C2382 1.574 . S
C2374 C2390 1.368 . S
H2375 C2383 0.950 . S
H2376 C2381 0.950 . S
H2377 C2382 0.949 . S
H2378 C2384 0.950 . S
H2379 C2385 0.950 . S
H2380 C2386 0.949 . S
C2381 H2376 0.950 . S
C2381 C2383 1.327 . S
C2381 C2387 1.429 . S
C2382 C2374 1.574 . S
C2382 H2377 0.949 . S
C2382 C2388 1.368 . S
C2383 C2367 1.349 . S
C2383 H2375 0.950 . S
C2383 C2381 1.327 . S
C2384 C2372 1.349 . S
C2384 H2378 0.950 . S
C2384 C2385 1.327 . S
C2385 H2379 0.950 . S
C2385 C2384 1.327 . S
C2385 C2389 1.429 . S
C2386 C2369 1.574 . S
C2386 H2380 0.949 . S
C2386 C2390 1.368 . S
C2387 C2368 1.429 . S
C2387 C2381 1.429 . S
C2387 C2388 1.523 . S
C2388 C2369 1.368 . S
C2388 C2382 1.368 . S
C2388 C2387 1.523 . S
C2389 C2373 1.429 . S
C2389 C2385 1.429 . S
C2389 C2390 1.523 . S
C2390 C2374 1.368 . S
C2390 C2386 1.368 . S
C2390 C2389 1.523 . S
H2391 C2366 0.950 . S
H2392 C2368 0.950 . S
H2393 C2369 0.949 . S
H2394 C2371 0.950 . S
H2395 C2373 0.950 . S
C2396 C2397 1.349 . S
C2396 C2398 1.327 . S
C2396 H2421 0.950 . S
C2397 C2396 1.349 . S
C2397 C2413 1.349 . S
C2398 C2396 1.327 . S
C2398 C2417 1.429 . S
C2398 H2422 0.950 . S
C2399 C2416 1.574 . S
C2399 C2418 1.368 . S
C2399 H2423 0.949 . S
H2400 C2404 0.949 . S
C2401 C2402 1.349 . S
C2401 C2403 1.327 . S
C2401 H2424 0.950 . S
C2402 C2401 1.349 . S
C2402 C2414 1.349 . S
C2403 C2401 1.327 . S
C2403 C2419 1.429 . S
C2403 H2425 0.950 . S
C2404 H2400 0.949 . S
C2404 C2412 1.574 . S
C2404 C2420 1.368 . S
H2405 C2413 0.950 . S
H2406 C2411 0.950 . S
H2407 C2412 0.949 . S
H2408 C2414 0.950 . S
H2409 C2415 0.950 . S
H2410 C2416 0.949 . S
C2411 H2406 0.950 . S
C2411 C2413 1.327 . S
C2411 C2417 1.429 . S
C2412 C2404 1.574 . S
C2412 H2407 0.949 . S
C2412 C2418 1.368 . S
C2413 C2397 1.349 . S
C2413 H2405 0.950 . S
C2413 C2411 1.327 . S
C2414 C2402 1.349 . S
C2414 H2408 0.950 . S
C2414 C2415 1.327 . S
C2415 H2409 0.950 . S
C2415 C2414 1.327 . S
C2415 C2419 1.429 . S
C2416 C2399 1.574 . S
C2416 H2410 0.949 . S
C2416 C2420 1.368 . S
C2417 C2398 1.429 . S
C2417 C2411 1.429 . S
C2417 C2418 1.523 . S
C2418 C2399 1.368 . S
C2418 C2412 1.368 . S
C2418 C2417 1.523 . S
C2419 C2403 1.429 . S
C2419 C2415 1.429 . S
C2419 C2420 1.523 . S
C2420 C2404 1.368 . S
C2420 C2416 1.368 . S
C2420 C2419 1.523 . S
H2421 C2396 0.950 . S
H2422 C2398 0.950 . S
H2423 C2399 0.949 . S
H2424 C2401 0.950 . S
H2425 C2403 0.950 . S
C2426 C2427 1.349 . S
C2426 C2428 1.327 . S
C2426 H2451 0.950 . S
C2427 C2426 1.349 . S
C2427 C2443 1.349 . S
C2428 C2426 1.327 . S
C2428 C2447 1.429 . S
C2428 H2452 0.950 . S
C2429 C2446 1.574 . S
C2429 C2448 1.368 . S
C2429 H2453 0.949 . S
H2430 C2434 0.949 . S
C2431 C2432 1.349 . S
C2431 C2433 1.327 . S
C2431 H2454 0.950 . S
C2432 C2431 1.349 . S
C2432 C2444 1.349 . S
C2433 C2431 1.327 . S
C2433 C2449 1.429 . S
C2433 H2455 0.950 . S
C2434 H2430 0.949 . S
C2434 C2442 1.574 . S
C2434 C2450 1.368 . S
H2435 C2443 0.950 . S
H2436 C2441 0.950 . S
H2437 C2442 0.949 . S
H2438 C2444 0.950 . S
H2439 C2445 0.950 . S
H2440 C2446 0.949 . S
C2441 H2436 0.950 . S
C2441 C2443 1.327 . S
C2441 C2447 1.429 . S
C2442 C2434 1.574 . S
C2442 H2437 0.949 . S
C2442 C2448 1.368 . S
C2443 C2427 1.349 . S
C2443 H2435 0.950 . S
C2443 C2441 1.327 . S
C2444 C2432 1.349 . S
C2444 H2438 0.950 . S
C2444 C2445 1.327 . S
C2445 H2439 0.950 . S
C2445 C2444 1.327 . S
C2445 C2449 1.429 . S
C2446 C2429 1.574 . S
C2446 H2440 0.949 . S
C2446 C2450 1.368 . S
C2447 C2428 1.429 . S
C2447 C2441 1.429 . S
C2447 C2448 1.523 . S
C2448 C2429 1.368 . S
C2448 C2442 1.368 . S
C2448 C2447 1.523 . S
C2449 C2433 1.429 . S
C2449 C2445 1.429 . S
C2449 C2450 1.523 . S
C2450 C2434 1.368 . S
C2450 C2446 1.368 . S
C2450 C2449 1.523 . S
H2451 C2426 0.950 . S
H2452 C2428 0.950 . S
H2453 C2429 0.949 . S
H2454 C2431 0.950 . S
H2455 C2433 0.950 . S
C2456 C2457 1.349 . S
C2456 C2458 1.327 . S
C2456 H2481 0.950 . S
C2457 C2456 1.349 . S
C2457 C2473 1.349 . S
C2458 C2456 1.327 . S
C2458 C2477 1.429 . S
C2458 H2482 0.950 . S
C2459 C2476 1.574 . S
C2459 C2478 1.368 . S
C2459 H2483 0.949 . S
H2460 C2464 0.949 . S
C2461 C2462 1.349 . S
C2461 C2463 1.327 . S
C2461 H2484 0.950 . S
C2462 C2461 1.349 . S
C2462 C2474 1.349 . S
C2463 C2461 1.327 . S
C2463 C2479 1.429 . S
C2463 H2485 0.950 . S
C2464 H2460 0.949 . S
C2464 C2472 1.574 . S
C2464 C2480 1.368 . S
H2465 C2473 0.950 . S
H2466 C2471 0.950 . S
H2467 C2472 0.949 . S
H2468 C2474 0.950 . S
H2469 C2475 0.950 . S
H2470 C2476 0.949 . S
C2471 H2466 0.950 . S
C2471 C2473 1.327 . S
C2471 C2477 1.429 . S
C2472 C2464 1.574 . S
C2472 H2467 0.949 . S
C2472 C2478 1.368 . S
C2473 C2457 1.349 . S
C2473 H2465 0.950 . S
C2473 C2471 1.327 . S
C2474 C2462 1.349 . S
C2474 H2468 0.950 . S
C2474 C2475 1.327 . S
C2475 H2469 0.950 . S
C2475 C2474 1.327 . S
C2475 C2479 1.429 . S
C2476 C2459 1.574 . S
C2476 H2470 0.949 . S
C2476 C2480 1.368 . S
C2477 C2458 1.429 . S
C2477 C2471 1.429 . S
C2477 C2478 1.523 . S
C2478 C2459 1.368 . S
C2478 C2472 1.368 . S
C2478 C2477 1.523 . S
C2479 C2463 1.429 . S
C2479 C2475 1.429 . S
C2479 C2480 1.523 . S
C2480 C2464 1.368 . S
C2480 C2476 1.368 . S
C2480 C2479 1.523 . S
H2481 C2456 0.950 . S
H2482 C2458 0.950 . S
H2483 C2459 0.949 . S
H2484 C2461 0.950 . S
H2485 C2463 0.950 . S
C2486 C2487 1.349 . S
C2486 C2488 1.327 . S
C2486 H2511 0.950 . S
C2487 C2486 1.349 . S
C2487 C2503 1.349 . S
C2488 C2486 1.327 . S
C2488 C2507 1.429 . S
C2488 H2512 0.950 . S
C2489 C2506 1.574 . S
C2489 C2508 1.368 . S
C2489 H2513 0.949 . S
H2490 C2494 0.949 . S
C2491 C2492 1.349 . S
C2491 C2493 1.327 . S
C2491 H2514 0.950 . S
C2492 C2491 1.349 . S
C2492 C2504 1.349 . S
C2493 C2491 1.327 . S
C2493 C2509 1.429 . S
C2493 H2515 0.950 . S
C2494 H2490 0.949 . S
C2494 C2502 1.574 . S
C2494 C2510 1.368 . S
H2495 C2503 0.950 . S
H2496 C2501 0.950 . S
H2497 C2502 0.949 . S
H2498 C2504 0.950 . S
H2499 C2505 0.950 . S
H2500 C2506 0.949 . S
C2501 H2496 0.950 . S
C2501 C2503 1.327 . S
C2501 C2507 1.429 . S
C2502 C2494 1.574 . S
C2502 H2497 0.949 . S
C2502 C2508 1.368 . S
C2503 C2487 1.349 . S
C2503 H2495 0.950 . S
C2503 C2501 1.327 . S
C2504 C2492 1.349 . S
C2504 H2498 0.950 . S
C2504 C2505 1.327 . S
C2505 H2499 0.950 . S
C2505 C2504 1.327 . S
C2505 C2509 1.429 . S
C2506 C2489 1.574 . S
C2506 H2500 0.949 . S
C2506 C2510 1.368 . S
C2507 C2488 1.429 . S
C2507 C2501 1.429 . S
C2507 C2508 1.523 . S
C2508 C2489 1.368 . S
C2508 C2502 1.368 . S
C2508 C2507 1.523 . S
C2509 C2493 1.429 . S
C2509 C2505 1.429 . S
C2509 C2510 1.523 . S
C2510 C2494 1.368 . S
C2510 C2506 1.368 . S
C2510 C2509 1.523 . S
H2511 C2486 0.950 . S
H2512 C2488 0.950 . S
H2513 C2489 0.949 . S
H2514 C2491 0.950 . S
H2515 C2493 0.950 . S
C2516 C2517 1.349 . S
C2516 C2518 1.327 . S
C2516 H2541 0.950 . S
C2517 C2516 1.349 . S
C2517 C2533 1.349 . S
C2518 C2516 1.327 . S
C2518 C2537 1.429 . S
C2518 H2542 0.950 . S
C2519 C2536 1.574 . S
C2519 C2538 1.368 . S
C2519 H2543 0.949 . S
H2520 C2524 0.949 . S
C2521 C2522 1.349 . S
C2521 C2523 1.327 . S
C2521 H2544 0.950 . S
C2522 C2521 1.349 . S
C2522 C2534 1.349 . S
C2523 C2521 1.327 . S
C2523 C2539 1.429 . S
C2523 H2545 0.950 . S
C2524 H2520 0.949 . S
C2524 C2532 1.574 . S
C2524 C2540 1.368 . S
H2525 C2533 0.950 . S
H2526 C2531 0.950 . S
H2527 C2532 0.949 . S
H2528 C2534 0.950 . S
H2529 C2535 0.950 . S
H2530 C2536 0.949 . S
C2531 H2526 0.950 . S
C2531 C2533 1.327 . S
C2531 C2537 1.429 . S
C2532 C2524 1.574 . S
C2532 H2527 0.949 . S
C2532 C2538 1.368 . S
C2533 C2517 1.349 . S
C2533 H2525 0.950 . S
C2533 C2531 1.327 . S
C2534 C2522 1.349 . S
C2534 H2528 0.950 . S
C2534 C2535 1.327 . S
C2535 H2529 0.950 . S
C2535 C2534 1.327 . S
C2535 C2539 1.429 . S
C2536 C2519 1.574 . S
C2536 H2530 0.949 . S
C2536 C2540 1.368 . S
C2537 C2518 1.429 . S
C2537 C2531 1.429 . S
C2537 C2538 1.523 . S
C2538 C2519 1.368 . S
C2538 C2532 1.368 . S
C2538 C2537 1.523 . S
C2539 C2523 1.429 . S
C2539 C2535 1.429 . S
C2539 C2540 1.523 . S
C2540 C2524 1.368 . S
C2540 C2536 1.368 . S
C2540 C2539 1.523 . S
H2541 C2516 0.950 . S
H2542 C2518 0.950 . S
H2543 C2519 0.949 . S
H2544 C2521 0.950 . S
H2545 C2523 0.950 . S
C2546 C2547 1.349 . S
C2546 C2548 1.327 . S
C2546 H2571 0.950 . S
C2547 C2546 1.349 . S
C2547 C2563 1.349 . S
C2548 C2546 1.327 . S
C2548 C2567 1.429 . S
C2548 H2572 0.950 . S
C2549 C2566 1.574 . S
C2549 C2568 1.368 . S
C2549 H2573 0.949 . S
H2550 C2554 0.949 . S
C2551 C2552 1.349 . S
C2551 C2553 1.327 . S
C2551 H2574 0.950 . S
C2552 C2551 1.349 . S
C2552 C2564 1.349 . S
C2553 C2551 1.327 . S
C2553 C2569 1.429 . S
C2553 H2575 0.950 . S
C2554 H2550 0.949 . S
C2554 C2562 1.574 . S
C2554 C2570 1.368 . S
H2555 C2563 0.950 . S
H2556 C2561 0.950 . S
H2557 C2562 0.949 . S
H2558 C2564 0.950 . S
H2559 C2565 0.950 . S
H2560 C2566 0.949 . S
C2561 H2556 0.950 . S
C2561 C2563 1.327 . S
C2561 C2567 1.429 . S
C2562 C2554 1.574 . S
C2562 H2557 0.949 . S
C2562 C2568 1.368 . S
C2563 C2547 1.349 . S
C2563 H2555 0.950 . S
C2563 C2561 1.327 . S
C2564 C2552 1.349 . S
C2564 H2558 0.950 . S
C2564 C2565 1.327 . S
C2565 H2559 0.950 . S
C2565 C2564 1.327 . S
C2565 C2569 1.429 . S
C2566 C2549 1.574 . S
C2566 H2560 0.949 . S
C2566 C2570 1.368 . S
C2567 C2548 1.429 . S
C2567 C2561 1.429 . S
C2567 C2568 1.523 . S
C2568 C2549 1.368 . S
C2568 C2562 1.368 . S
C2568 C2567 1.523 . S
C2569 C2553 1.429 . S
C2569 C2565 1.429 . S
C2569 C2570 1.523 . S
C2570 C2554 1.368 . S
C2570 C2566 1.368 . S
C2570 C2569 1.523 . S
H2571 C2546 0.950 . S
H2572 C2548 0.950 . S
H2573 C2549 0.949 . S
H2574 C2551 0.950 . S
H2575 C2553 0.950 . S
C2576 C2577 1.349 . S
C2576 C2578 1.327 . S
C2576 H2601 0.950 . S
C2577 C2576 1.349 . S
C2577 C2593 1.349 . S
C2578 C2576 1.327 . S
C2578 C2597 1.429 . S
C2578 H2602 0.950 . S
C2579 C2596 1.574 . S
C2579 C2598 1.368 . S
C2579 H2603 0.949 . S
H2580 C2584 0.949 . S
C2581 C2582 1.349 . S
C2581 C2583 1.327 . S
C2581 H2604 0.950 . S
C2582 C2581 1.349 . S
C2582 C2594 1.349 . S
C2583 C2581 1.327 . S
C2583 C2599 1.429 . S
C2583 H2605 0.950 . S
C2584 H2580 0.949 . S
C2584 C2592 1.574 . S
C2584 C2600 1.368 . S
H2585 C2593 0.950 . S
H2586 C2591 0.950 . S
H2587 C2592 0.949 . S
H2588 C2594 0.950 . S
H2589 C2595 0.950 . S
H2590 C2596 0.949 . S
C2591 H2586 0.950 . S
C2591 C2593 1.327 . S
C2591 C2597 1.429 . S
C2592 C2584 1.574 . S
C2592 H2587 0.949 . S
C2592 C2598 1.368 . S
C2593 C2577 1.349 . S
C2593 H2585 0.950 . S
C2593 C2591 1.327 . S
C2594 C2582 1.349 . S
C2594 H2588 0.950 . S
C2594 C2595 1.327 . S
C2595 H2589 0.950 . S
C2595 C2594 1.327 . S
C2595 C2599 1.429 . S
C2596 C2579 1.574 . S
C2596 H2590 0.949 . S
C2596 C2600 1.368 . S
C2597 C2578 1.429 . S
C2597 C2591 1.429 . S
C2597 C2598 1.523 . S
C2598 C2579 1.368 . S
C2598 C2592 1.368 . S
C2598 C2597 1.523 . S
C2599 C2583 1.429 . S
C2599 C2595 1.429 . S
C2599 C2600 1.523 . S
C2600 C2584 1.368 . S
C2600 C2596 1.368 . S
C2600 C2599 1.523 . S
H2601 C2576 0.950 . S
H2602 C2578 0.950 . S
H2603 C2579 0.949 . S
H2604 C2581 0.950 . S
H2605 C2583 0.950 . S
C2606 C2607 1.349 . S
C2606 C2608 1.327 . S
C2606 H2631 0.950 . S
C2607 C2606 1.349 . S
C2607 C2623 1.349 . S
C2608 C2606 1.327 . S
C2608 C2627 1.429 . S
C2608 H2632 0.950 . S
C2609 C2626 1.574 . S
C2609 C2628 1.368 . S
C2609 H2633 0.949 . S
H2610 C2614 0.949 . S
C2611 C2612 1.349 . S
C2611 C2613 1.327 . S
C2611 H2634 0.950 . S
C2612 C2611 1.349 . S
C2612 C2624 1.349 . S
C2613 C2611 1.327 . S
C2613 C2629 1.429 . S
C2613 H2635 0.950 . S
C2614 H2610 0.949 . S
C2614 C2622 1.574 . S
C2614 C2630 1.368 . S
H2615 C2623 0.950 . S
H2616 C2621 0.950 . S
H2617 C2622 0.949 . S
H2618 C2624 0.950 . S
H2619 C2625 0.950 . S
H2620 C2626 0.949 . S
C2621 H2616 0.950 . S
C2621 C2623 1.327 . S
C2621 C2627 1.429 . S
C2622 C2614 1.574 . S
C2622 H2617 0.949 . S
C2622 C2628 1.368 . S
C2623 C2607 1.349 . S
C2623 H2615 0.950 . S
C2623 C2621 1.327 . S
C2624 C2612 1.349 . S
C2624 H2618 0.950 . S
C2624 C2625 1.327 . S
C2625 H2619 0.950 . S
C2625 C2624 1.327 . S
C2625 C2629 1.429 . S
C2626 C2609 1.574 . S
C2626 H2620 0.949 . S
C2626 C2630 1.368 . S
C2627 C2608 1.429 . S
C2627 C2621 1.429 . S
C2627 C2628 1.523 . S
C2628 C2609 1.368 . S
C2628 C2622 1.368 . S
C2628 C2627 1.523 . S
C2629 C2613 1.429 . S
C2629 C2625 1.429 . S
C2629 C2630 1.523 . S
C2630 C2614 1.368 . S
C2630 C2626 1.368 . S
C2630 C2629 1.523 . S
H2631 C2606 0.950 . S
H2632 C2608 0.950 . S
H2633 C2609 0.949 . S
H2634 C2611 0.950 . S
H2635 C2613 0.950 . S
C2636 C2637 1.349 . S
C2636 C2638 1.327 . S
C2636 H2661 0.950 . S
C2637 C2636 1.349 . S
C2637 C2653 1.349 . S
C2638 C2636 1.327 . S
C2638 C2657 1.429 . S
C2638 H2662 0.950 . S
C2639 C2656 1.574 . S
C2639 C2658 1.368 . S
C2639 H2663 0.949 . S
H2640 C2644 0.949 . S
C2641 C2642 1.349 . S
C2641 C2643 1.327 . S
C2641 H2664 0.950 . S
C2642 C2641 1.349 . S
C2642 C2654 1.349 . S
C2643 C2641 1.327 . S
C2643 C2659 1.429 . S
C2643 H2665 0.950 . S
C2644 H2640 0.949 . S
C2644 C2652 1.574 . S
C2644 C2660 1.368 . S
H2645 C2653 0.950 . S
H2646 C2651 0.950 . S
H2647 C2652 0.949 . S
H2648 C2654 0.950 . S
H2649 C2655 0.950 . S
H2650 C2656 0.949 . S
C2651 H2646 0.950 . S
C2651 C2653 1.327 . S
C2651 C2657 1.429 . S
C2652 C2644 1.574 . S
C2652 H2647 0.949 . S
C2652 C2658 1.368 . S
C2653 C2637 1.349 . S
C2653 H2645 0.950 . S
C2653 C2651 1.327 . S
C2654 C2642 1.349 . S
C2654 H2648 0.950 . S
C2654 C2655 1.327 . S
C2655 H2649 0.950 . S
C2655 C2654 1.327 . S
C2655 C2659 1.429 . S
C2656 C2639 1.574 . S
C2656 H2650 0.949 . S
C2656 C2660 1.368 . S
C2657 C2638 1.429 . S
C2657 C2651 1.429 . S
C2657 C2658 1.523 . S
C2658 C2639 1.368 . S
C2658 C2652 1.368 . S
C2658 C2657 1.523 . S
C2659 C2643 1.429 . S
C2659 C2655 1.429 . S
C2659 C2660 1.523 . S
C2660 C2644 1.368 . S
C2660 C2656 1.368 . S
C2660 C2659 1.523 . S
H2661 C2636 0.950 . S
H2662 C2638 0.950 . S
H2663 C2639 0.949 . S
H2664 C2641 0.950 . S
H2665 C2643 0.950 . S
C2666 C2667 1.349 . S
C2666 C2668 1.327 . S
C2666 H2691 0.950 . S
C2667 C2666 1.349 . S
C2667 C2683 1.349 . S
C2668 C2666 1.327 . S
C2668 C2687 1.429 . S
C2668 H2692 0.950 . S
C2669 C2686 1.574 . S
C2669 C2688 1.368 . S
C2669 H2693 0.949 1_554 S
H2670 C2674 0.949 . S
C2671 C2672 1.349 1_556 S
C2671 C2673 1.336 1_545 S
C2671 H2694 0.950 . S
C2672 C2671 1.349 1_554 S
C2672 C2684 1.349 . S
C2673 C2671 1.336 1_565 S
C2673 C2689 1.390 1_556 S
C2673 H2695 0.980 . S
C2674 H2670 0.949 . S
C2674 C2682 1.574 . S
C2674 C2690 1.368 . S
H2675 C2683 0.970 . S
H2676 C2681 0.950 1_556 S
H2677 C2682 0.949 . S
H2678 C2684 0.950 . S
H2679 C2685 0.950 . S
H2680 C2686 0.949 1_556 S
C2681 H2676 0.950 1_554 S
C2681 C2683 1.327 . S
C2681 C2687 1.429 . S
C2682 C2674 1.574 . S
C2682 H2677 0.949 . S
C2682 C2688 1.368 . S
C2683 C2667 1.349 . S
C2683 H2675 0.970 . S
C2683 C2681 1.327 . S
C2684 C2672 1.349 . S
C2684 H2678 0.950 . S
C2684 C2685 1.327 . S
C2685 H2679 0.950 . S
C2685 C2684 1.327 . S
C2685 C2689 1.429 1_545 S
C2686 C2669 1.574 . S
C2686 H2680 0.949 1_554 S
C2686 C2690 1.368 . S
C2687 C2668 1.429 . S
C2687 C2681 1.429 . S
C2687 C2688 1.523 . S
C2688 C2669 1.368 . S
C2688 C2682 1.368 . S
C2688 C2687 1.523 . S
C2689 C2673 1.390 1_554 S
C2689 C2685 1.429 1_565 S
C2689 C2690 1.523 . S
C2690 C2674 1.368 . S
C2690 C2686 1.368 . S
C2690 C2689 1.523 . S
H2691 C2666 0.950 . S
H2692 C2668 0.950 . S
H2693 C2669 0.949 1_556 S
H2694 C2671 0.950 . S
H2695 C2673 0.980 . S
C2696 C2697 1.349 . S
C2696 C2698 1.327 . S
C2696 H2721 0.950 . S
C2697 C2696 1.349 . S
C2697 C2713 1.349 . S
C2698 C2696 1.327 . S
C2698 C2717 1.429 . S
C2698 H2722 0.950 . S
C2699 C2716 1.574 . S
C2699 C2718 1.368 . S
C2699 H2723 0.949 . S
H2700 C2704 0.949 . S
C2701 C2702 1.349 . S
C2701 C2703 1.327 . S
C2701 H2724 0.950 . S
C2702 C2701 1.349 . S
C2702 C2714 1.349 . S
C2703 C2701 1.327 . S
C2703 C2719 1.429 . S
C2703 H2725 0.950 . S
C2704 H2700 0.949 . S
C2704 C2712 1.574 . S
C2704 C2720 1.368 . S
H2705 C2713 0.950 . S
H2706 C2711 0.950 . S
H2707 C2712 0.949 . S
H2708 C2714 0.950 . S
H2709 C2715 0.950 . S
H2710 C2716 0.949 . S
C2711 H2706 0.950 . S
C2711 C2713 1.327 . S
C2711 C2717 1.429 . S
C2712 C2704 1.574 . S
C2712 H2707 0.949 . S
C2712 C2718 1.368 . S
C2713 C2697 1.349 . S
C2713 H2705 0.950 . S
C2713 C2711 1.327 . S
C2714 C2702 1.349 . S
C2714 H2708 0.950 . S
C2714 C2715 1.327 . S
C2715 H2709 0.950 . S
C2715 C2714 1.327 . S
C2715 C2719 1.429 . S
C2716 C2699 1.574 . S
C2716 H2710 0.949 . S
C2716 C2720 1.368 . S
C2717 C2698 1.429 . S
C2717 C2711 1.429 . S
C2717 C2718 1.523 . S
C2718 C2699 1.368 . S
C2718 C2712 1.368 . S
C2718 C2717 1.523 . S
C2719 C2703 1.429 . S
C2719 C2715 1.429 . S
C2719 C2720 1.523 . S
C2720 C2704 1.368 . S
C2720 C2716 1.368 . S
C2720 C2719 1.523 . S
H2721 C2696 0.950 . S
H2722 C2698 0.950 . S
H2723 C2699 0.949 . S
H2724 C2701 0.950 . S
H2725 C2703 0.950 . S
C2726 C2727 1.321 1_556 S
C2726 C2728 1.324 1_556 S
C2726 H2751 0.984 . S
C2727 C2726 1.321 1_554 S
C2727 C2743 1.349 . S
C2728 C2726 1.324 1_554 S
C2728 C2747 1.429 . S
C2728 H2752 0.950 1_554 S
C2729 C2746 1.574 . S
C2729 C2748 1.368 . S
C2729 H2753 0.949 . S
H2730 C2734 0.949 . S
C2731 C2732 1.349 . S
C2731 C2733 1.327 . S
C2731 H2754 0.950 . S
C2732 C2731 1.349 . S
C2732 C2744 1.349 . S
C2733 C2731 1.327 . S
C2733 C2749 1.429 . S
C2733 H2755 0.950 . S
C2734 H2730 0.949 . S
C2734 C2742 1.574 . S
C2734 C2750 1.368 . S
H2735 C2743 0.950 . S
H2736 C2741 0.950 . S
H2737 C2742 0.939 1_556 S
H2738 C2744 0.950 . S
H2739 C2745 0.950 . S
H2740 C2746 0.949 . S
C2741 H2736 0.950 . S
C2741 C2743 1.327 . S
C2741 C2747 1.429 . S
C2742 C2734 1.574 . S
C2742 H2737 0.939 1_554 S
C2742 C2748 1.368 . S
C2743 C2727 1.349 . S
C2743 H2735 0.950 . S
C2743 C2741 1.327 . S
C2744 C2732 1.349 . S
C2744 H2738 0.950 . S
C2744 C2745 1.327 . S
C2745 H2739 0.950 . S
C2745 C2744 1.327 . S
C2745 C2749 1.429 . S
C2746 C2729 1.574 . S
C2746 H2740 0.949 . S
C2746 C2750 1.368 . S
C2747 C2728 1.429 . S
C2747 C2741 1.429 . S
C2747 C2748 1.523 . S
C2748 C2729 1.368 . S
C2748 C2742 1.368 . S
C2748 C2747 1.523 . S
C2749 C2733 1.429 . S
C2749 C2745 1.429 . S
C2749 C2750 1.523 . S
C2750 C2734 1.368 . S
C2750 C2746 1.368 . S
C2750 C2749 1.523 . S
H2751 C2726 0.984 . S
H2752 C2728 0.950 1_556 S
H2753 C2729 0.949 . S
H2754 C2731 0.950 . S
H2755 C2733 0.950 . S
C2756 C2757 1.349 . S
C2756 C2758 1.327 . S
C2756 H2781 0.950 . S
C2757 C2756 1.349 . S
C2757 C2773 1.349 . S
C2758 C2756 1.327 . S
C2758 C2777 1.429 . S
C2758 H2782 0.950 . S
C2759 C2776 1.574 . S
C2759 C2778 1.368 . S
C2759 H2783 0.949 . S
H2760 C2764 0.949 . S
C2761 C2762 1.349 . S
C2761 C2763 1.327 . S
C2761 H2784 0.950 . S
C2762 C2761 1.349 . S
C2762 C2774 1.349 . S
C2763 C2761 1.327 . S
C2763 C2779 1.429 . S
C2763 H2785 0.950 . S
C2764 H2760 0.949 . S
C2764 C2772 1.574 . S
C2764 C2780 1.368 . S
H2765 C2773 0.950 . S
H2766 C2771 0.950 . S
H2767 C2772 0.949 . S
H2768 C2774 0.950 . S
H2769 C2775 0.950 . S
H2770 C2776 0.949 . S
C2771 H2766 0.950 . S
C2771 C2773 1.327 . S
C2771 C2777 1.429 . S
C2772 C2764 1.574 . S
C2772 H2767 0.949 . S
C2772 C2778 1.368 . S
C2773 C2757 1.349 . S
C2773 H2765 0.950 . S
C2773 C2771 1.327 . S
C2774 C2762 1.349 . S
C2774 H2768 0.950 . S
C2774 C2775 1.327 . S
C2775 H2769 0.950 . S
C2775 C2774 1.327 . S
C2775 C2779 1.429 . S
C2776 C2759 1.574 . S
C2776 H2770 0.949 . S
C2776 C2780 1.368 . S
C2777 C2758 1.429 . S
C2777 C2771 1.429 . S
C2777 C2778 1.523 . S
C2778 C2759 1.368 . S
C2778 C2772 1.368 . S
C2778 C2777 1.523 . S
C2779 C2763 1.429 . S
C2779 C2775 1.429 . S
C2779 C2780 1.523 . S
C2780 C2764 1.368 . S
C2780 C2776 1.368 . S
C2780 C2779 1.523 . S
H2781 C2756 0.950 . S
H2782 C2758 0.950 . S
H2783 C2759 0.949 . S
H2784 C2761 0.950 . S
H2785 C2763 0.950 . S
C2786 C2787 1.349 1_565 S
C2786 C2788 1.327 . S
C2786 H2811 0.950 . S
C2787 C2786 1.349 1_545 S
C2787 C2803 1.349 . S
C2788 C2786 1.327 . S
C2788 C2807 1.429 . S
C2788 H2812 0.950 . S
C2789 C2806 1.574 . S
C2789 C2808 1.368 . S
C2789 H2813 0.949 . S
H2790 C2794 0.949 . S
C2791 C2792 1.349 . S
C2791 C2793 1.327 . S
C2791 H2814 0.950 . S
C2792 C2791 1.349 . S
C2792 C2804 1.349 . S
C2793 C2791 1.327 . S
C2793 C2809 1.429 . S
C2793 H2815 0.950 . S
C2794 H2790 0.949 . S
C2794 C2802 1.574 . S
C2794 C2810 1.368 . S
H2795 C2803 0.950 . S
H2796 C2801 0.950 . S
H2797 C2802 0.949 . S
H2798 C2804 0.950 . S
H2799 C2805 0.950 . S
H2800 C2806 0.949 . S
C2801 H2796 0.950 . S
C2801 C2803 1.327 1_565 S
C2801 C2807 1.429 . S
C2802 C2794 1.574 . S
C2802 H2797 0.949 . S
C2802 C2808 1.368 . S
C2803 C2787 1.349 . S
C2803 H2795 0.950 . S
C2803 C2801 1.327 1_545 S
C2804 C2792 1.349 . S
C2804 H2798 0.950 . S
C2804 C2805 1.327 . S
C2805 H2799 0.950 . S
C2805 C2804 1.327 . S
C2805 C2809 1.429 . S
C2806 C2789 1.574 . S
C2806 H2800 0.949 . S
C2806 C2810 1.368 . S
C2807 C2788 1.429 . S
C2807 C2801 1.429 . S
C2807 C2808 1.523 . S
C2808 C2789 1.368 . S
C2808 C2802 1.368 . S
C2808 C2807 1.523 . S
C2809 C2793 1.429 . S
C2809 C2805 1.429 . S
C2809 C2810 1.523 . S
C2810 C2794 1.368 . S
C2810 C2806 1.368 . S
C2810 C2809 1.523 . S
H2811 C2786 0.950 . S
H2812 C2788 0.950 . S
H2813 C2789 0.949 . S
H2814 C2791 0.950 . S
H2815 C2793 0.950 . S
C2816 C2817 1.349 . S
C2816 C2818 1.327 . S
C2816 H2841 0.950 . S
C2817 C2816 1.349 . S
C2817 C2833 1.349 . S
C2818 C2816 1.327 . S
C2818 C2837 1.429 . S
C2818 H2842 0.950 . S
C2819 C2836 1.574 . S
C2819 C2838 1.368 . S
C2819 H2843 0.949 . S
H2820 C2824 0.949 . S
C2821 C2822 1.349 . S
C2821 C2823 1.327 . S
C2821 H2844 0.950 . S
C2822 C2821 1.349 . S
C2822 C2834 1.349 . S
C2823 C2821 1.327 . S
C2823 C2839 1.429 . S
C2823 H2845 0.950 . S
C2824 H2820 0.949 . S
C2824 C2832 1.574 . S
C2824 C2840 1.368 . S
H2825 C2833 0.950 . S
H2826 C2831 0.950 . S
H2827 C2832 0.949 . S
H2828 C2834 0.950 . S
H2829 C2835 0.950 . S
H2830 C2836 0.949 . S
C2831 H2826 0.950 . S
C2831 C2833 1.327 . S
C2831 C2837 1.429 . S
C2832 C2824 1.574 . S
C2832 H2827 0.949 . S
C2832 C2838 1.368 . S
C2833 C2817 1.349 . S
C2833 H2825 0.950 . S
C2833 C2831 1.327 . S
C2834 C2822 1.349 . S
C2834 H2828 0.950 . S
C2834 C2835 1.327 . S
C2835 H2829 0.950 . S
C2835 C2834 1.327 . S
C2835 C2839 1.429 . S
C2836 C2819 1.574 . S
C2836 H2830 0.949 . S
C2836 C2840 1.368 . S
C2837 C2818 1.429 . S
C2837 C2831 1.429 . S
C2837 C2838 1.523 . S
C2838 C2819 1.368 . S
C2838 C2832 1.368 . S
C2838 C2837 1.523 . S
C2839 C2823 1.429 . S
C2839 C2835 1.429 . S
C2839 C2840 1.523 . S
C2840 C2824 1.368 . S
C2840 C2836 1.368 . S
C2840 C2839 1.523 . S
H2841 C2816 0.950 . S
H2842 C2818 0.950 . S
H2843 C2819 0.949 . S
H2844 C2821 0.950 . S
H2845 C2823 0.950 . S
C2846 C2847 1.349 . S
C2846 C2848 1.327 . S
C2846 H2871 0.950 . S
C2847 C2846 1.349 . S
C2847 C2863 1.349 . S
C2848 C2846 1.327 . S
C2848 C2867 1.429 . S
C2848 H2872 0.950 . S
C2849 C2866 1.574 . S
C2849 C2868 1.368 . S
C2849 H2873 0.949 . S
H2850 C2854 0.949 . S
C2851 C2852 1.349 . S
C2851 C2853 1.327 . S
C2851 H2874 0.950 . S
C2852 C2851 1.349 . S
C2852 C2864 1.349 . S
C2853 C2851 1.327 . S
C2853 C2869 1.429 . S
C2853 H2875 0.950 . S
C2854 H2850 0.949 . S
C2854 C2862 1.574 . S
C2854 C2870 1.368 . S
H2855 C2863 0.950 . S
H2856 C2861 0.950 . S
H2857 C2862 0.949 . S
H2858 C2864 0.950 . S
H2859 C2865 0.950 . S
H2860 C2866 0.949 . S
C2861 H2856 0.950 . S
C2861 C2863 1.327 . S
C2861 C2867 1.429 . S
C2862 C2854 1.574 . S
C2862 H2857 0.949 . S
C2862 C2868 1.368 . S
C2863 C2847 1.349 . S
C2863 H2855 0.950 . S
C2863 C2861 1.327 . S
C2864 C2852 1.349 . S
C2864 H2858 0.950 . S
C2864 C2865 1.327 . S
C2865 H2859 0.950 . S
C2865 C2864 1.327 . S
C2865 C2869 1.429 . S
C2866 C2849 1.574 . S
C2866 H2860 0.949 . S
C2866 C2870 1.368 . S
C2867 C2848 1.429 . S
C2867 C2861 1.429 . S
C2867 C2868 1.523 . S
C2868 C2849 1.368 . S
C2868 C2862 1.368 . S
C2868 C2867 1.523 . S
C2869 C2853 1.429 . S
C2869 C2865 1.429 . S
C2869 C2870 1.523 . S
C2870 C2854 1.368 . S
C2870 C2866 1.368 . S
C2870 C2869 1.523 . S
H2871 C2846 0.950 . S
H2872 C2848 0.950 . S
H2873 C2849 0.949 . S
H2874 C2851 0.950 . S
H2875 C2853 0.950 . S
C2876 C2877 1.349 1_655 S
C2876 C2878 1.327 . S
C2876 H2901 0.950 . S
C2877 C2876 1.349 1_455 S
C2877 C2893 1.349 . S
C2878 C2876 1.327 . S
C2878 C2897 1.429 1_655 S
C2878 H2902 0.950 . S
C2879 C2896 1.574 . S
C2879 C2898 1.368 . S
C2879 H2903 0.949 . S
H2880 C2884 0.949 . S
C2881 C2882 1.349 . S
C2881 C2883 1.327 . S
C2881 H2904 0.950 . S
C2882 C2881 1.349 . S
C2882 C2894 1.349 1_455 S
C2883 C2881 1.327 . S
C2883 C2899 1.429 . S
C2883 H2905 0.950 . S
C2884 H2880 0.949 . S
C2884 C2892 1.574 . S
C2884 C2900 1.368 1_655 S
H2885 C2893 0.950 . S
H2886 C2891 0.950 . S
H2887 C2892 0.949 . S
H2888 C2894 0.950 . S
H2889 C2895 0.950 . S
H2890 C2896 0.949 . S
C2891 H2886 0.950 . S
C2891 C2893 1.327 . S
C2891 C2897 1.429 . S
C2892 C2884 1.574 . S
C2892 H2887 0.949 . S
C2892 C2898 1.368 1_655 S
C2893 C2877 1.349 . S
C2893 H2885 0.950 . S
C2893 C2891 1.327 . S
C2894 C2882 1.349 1_655 S
C2894 H2888 0.950 . S
C2894 C2895 1.327 . S
C2895 H2889 0.950 . S
C2895 C2894 1.327 . S
C2895 C2899 1.429 1_655 S
C2896 C2879 1.574 . S
C2896 H2890 0.949 . S
C2896 C2900 1.368 . S
C2897 C2878 1.429 1_455 S
C2897 C2891 1.429 . S
C2897 C2898 1.523 . S
C2898 C2879 1.368 . S
C2898 C2892 1.368 1_455 S
C2898 C2897 1.523 . S
C2899 C2883 1.429 . S
C2899 C2895 1.429 1_455 S
C2899 C2900 1.523 . S
C2900 C2884 1.368 1_455 S
C2900 C2896 1.368 . S
C2900 C2899 1.523 . S
H2901 C2876 0.950 . S
H2902 C2878 0.950 . S
H2903 C2879 0.949 . S
H2904 C2881 0.950 . S
H2905 C2883 0.950 . S
C2906 C2907 1.349 . S
C2906 C2908 1.327 . S
C2906 H2931 0.950 . S
C2907 C2906 1.349 . S
C2907 C2923 1.349 . S
C2908 C2906 1.327 . S
C2908 C2927 1.429 . S
C2908 H2932 0.950 . S
C2909 C2926 1.574 . S
C2909 C2928 1.368 . S
C2909 H2933 0.949 . S
H2910 C2914 0.949 . S
C2911 C2912 1.349 . S
C2911 C2913 1.327 . S
C2911 H2934 0.950 . S
C2912 C2911 1.349 . S
C2912 C2924 1.349 . S
C2913 C2911 1.327 . S
C2913 C2929 1.429 . S
C2913 H2935 0.950 . S
C2914 H2910 0.949 . S
C2914 C2922 1.574 . S
C2914 C2930 1.368 . S
H2915 C2923 0.950 . S
H2916 C2921 0.950 . S
H2917 C2922 0.949 . S
H2918 C2924 0.950 . S
H2919 C2925 0.950 . S
H2920 C2926 0.949 . S
C2921 H2916 0.950 . S
C2921 C2923 1.327 . S
C2921 C2927 1.429 . S
C2922 C2914 1.574 . S
C2922 H2917 0.949 . S
C2922 C2928 1.368 . S
C2923 C2907 1.349 . S
C2923 H2915 0.950 . S
C2923 C2921 1.327 . S
C2924 C2912 1.349 . S
C2924 H2918 0.950 . S
C2924 C2925 1.327 . S
C2925 H2919 0.950 . S
C2925 C2924 1.327 . S
C2925 C2929 1.429 . S
C2926 C2909 1.574 . S
C2926 H2920 0.949 . S
C2926 C2930 1.368 . S
C2927 C2908 1.429 . S
C2927 C2921 1.429 . S
C2927 C2928 1.523 . S
C2928 C2909 1.368 . S
C2928 C2922 1.368 . S
C2928 C2927 1.523 . S
C2929 C2913 1.429 . S
C2929 C2925 1.429 . S
C2929 C2930 1.523 . S
C2930 C2914 1.368 . S
C2930 C2926 1.368 . S
C2930 C2929 1.523 . S
H2931 C2906 0.950 . S
H2932 C2908 0.950 . S
H2933 C2909 0.949 . S
H2934 C2911 0.950 . S
H2935 C2913 0.950 . S
C2936 C2937 1.349 . S
C2936 C2938 1.327 . S
C2936 H2961 0.950 . S
C2937 C2936 1.349 . S
C2937 C2953 1.349 . S
C2938 C2936 1.327 . S
C2938 C2957 1.429 . S
C2938 H2962 0.950 . S
C2939 C2956 1.574 . S
C2939 C2958 1.368 . S
C2939 H2963 0.949 . S
H2940 C2944 0.949 . S
C2941 C2942 1.349 . S
C2941 C2943 1.327 . S
C2941 H2964 0.950 . S
C2942 C2941 1.349 . S
C2942 C2954 1.349 . S
C2943 C2941 1.327 . S
C2943 C2959 1.429 . S
C2943 H2965 0.950 . S
C2944 H2940 0.949 . S
C2944 C2952 1.574 . S
C2944 C2960 1.368 . S
H2945 C2953 0.950 . S
H2946 C2951 0.950 . S
H2947 C2952 0.949 . S
H2948 C2954 0.950 1_554 S
H2949 C2955 0.950 . S
H2950 C2956 0.949 . S
C2951 H2946 0.950 . S
C2951 C2953 1.327 . S
C2951 C2957 1.429 . S
C2952 C2944 1.574 . S
C2952 H2947 0.949 . S
C2952 C2958 1.368 . S
C2953 C2937 1.349 . S
C2953 H2945 0.950 . S
C2953 C2951 1.327 . S
C2954 C2942 1.349 . S
C2954 H2948 0.950 1_556 S
C2954 C2955 1.327 . S
C2955 H2949 0.950 . S
C2955 C2954 1.327 . S
C2955 C2959 1.429 . S
C2956 C2939 1.574 . S
C2956 H2950 0.949 . S
C2956 C2960 1.368 . S
C2957 C2938 1.429 . S
C2957 C2951 1.429 . S
C2957 C2958 1.523 . S
C2958 C2939 1.368 . S
C2958 C2952 1.368 . S
C2958 C2957 1.523 . S
C2959 C2943 1.429 . S
C2959 C2955 1.429 . S
C2959 C2960 1.523 . S
C2960 C2944 1.368 . S
C2960 C2956 1.368 . S
C2960 C2959 1.523 . S
H2961 C2936 0.950 . S
H2962 C2938 0.950 . S
H2963 C2939 0.949 . S
H2964 C2941 0.950 . S
H2965 C2943 0.950 . S
C2966 C2967 1.349 . S
C2966 C2968 1.327 . S
C2966 H2991 0.950 . S
C2967 C2966 1.349 . S
C2967 C2983 1.349 . S
C2968 C2966 1.327 . S
C2968 C2987 1.429 . S
C2968 H2992 0.950 . S
C2969 C2986 1.574 . S
C2969 C2988 1.368 . S
C2969 H2993 0.949 . S
H2970 C2974 0.949 . S
C2971 C2972 1.349 . S
C2971 C2973 1.327 . S
C2971 H2994 0.950 . S
C2972 C2971 1.349 . S
C2972 C2984 1.349 . S
C2973 C2971 1.327 . S
C2973 C2989 1.429 . S
C2973 H2995 0.950 . S
C2974 H2970 0.949 . S
C2974 C2982 1.574 . S
C2974 C2990 1.368 . S
H2975 C2983 0.950 . S
H2976 C2981 0.950 . S
H2977 C2982 0.949 . S
H2978 C2984 0.950 . S
H2979 C2985 0.950 . S
H2980 C2986 0.949 . S
C2981 H2976 0.950 . S
C2981 C2983 1.327 . S
C2981 C2987 1.429 . S
C2982 C2974 1.574 . S
C2982 H2977 0.949 . S
C2982 C2988 1.368 . S
C2983 C2967 1.349 . S
C2983 H2975 0.950 . S
C2983 C2981 1.327 . S
C2984 C2972 1.349 . S
C2984 H2978 0.950 . S
C2984 C2985 1.327 . S
C2985 H2979 0.950 . S
C2985 C2984 1.327 . S
C2985 C2989 1.429 . S
C2986 C2969 1.574 . S
C2986 H2980 0.949 . S
C2986 C2990 1.368 . S
C2987 C2968 1.429 . S
C2987 C2981 1.429 . S
C2987 C2988 1.523 . S
C2988 C2969 1.368 . S
C2988 C2982 1.368 . S
C2988 C2987 1.523 . S
C2989 C2973 1.429 . S
C2989 C2985 1.429 . S
C2989 C2990 1.523 . S
C2990 C2974 1.368 . S
C2990 C2986 1.368 . S
C2990 C2989 1.523 . S
H2991 C2966 0.950 . S
H2992 C2968 0.950 . S
H2993 C2969 0.949 . S
H2994 C2971 0.950 . S
H2995 C2973 0.950 . S
C2996 C2997 1.349 . S
C2996 C2998 1.327 . S
C2996 H3021 0.950 . S
C2997 C2996 1.349 . S
C2997 C3013 1.349 . S
C2998 C2996 1.327 . S
C2998 C3017 1.429 . S
C2998 H3022 0.950 . S
C2999 C3016 1.574 . S
C2999 C3018 1.368 . S
C2999 H3023 0.947 1_455 S
H3000 C3004 0.949 . S
C3001 C3002 1.349 . S
C3001 C3003 1.327 . S
C3001 H3024 0.950 1_455 S
C3002 C3001 1.349 . S
C3002 C3014 1.349 . S
C3003 C3001 1.327 . S
C3003 C3019 1.429 . S
C3003 H3025 0.950 1_455 S
C3004 H3000 0.949 . S
C3004 C3012 1.574 . S
C3004 C3020 1.368 . S
H3005 C3013 0.950 . S
H3006 C3011 0.950 . S
H3007 C3012 0.949 . S
H3008 C3014 0.950 . S
H3009 C3015 0.950 . S
H3010 C3016 0.949 1_655 S
C3011 H3006 0.950 . S
C3011 C3013 1.327 . S
C3011 C3017 1.429 . S
C3012 C3004 1.574 . S
C3012 H3007 0.949 . S
C3012 C3018 1.368 . S
C3013 C2997 1.349 . S
C3013 H3005 0.950 . S
C3013 C3011 1.327 . S
C3014 C3002 1.349 . S
C3014 H3008 0.950 . S
C3014 C3015 1.327 . S
C3015 H3009 0.950 . S
C3015 C3014 1.327 . S
C3015 C3019 1.429 . S
C3016 C2999 1.574 . S
C3016 H3010 0.949 1_455 S
C3016 C3020 1.368 . S
C3017 C2998 1.429 . S
C3017 C3011 1.429 . S
C3017 C3018 1.523 . S
C3018 C2999 1.368 . S
C3018 C3012 1.368 . S
C3018 C3017 1.523 . S
C3019 C3003 1.429 . S
C3019 C3015 1.429 . S
C3019 C3020 1.523 . S
C3020 C3004 1.368 . S
C3020 C3016 1.368 . S
C3020 C3019 1.523 . S
H3021 C2996 0.950 . S
H3022 C2998 0.950 . S
H3023 C2999 0.947 1_655 S
H3024 C3001 0.950 1_655 S
H3025 C3003 0.950 1_655 S
C3026 C3027 1.349 . S
C3026 C3028 1.327 . S
C3026 H3051 0.950 . S
C3027 C3026 1.349 . S
C3027 C3043 1.349 . S
C3028 C3026 1.327 . S
C3028 C3047 1.429 . S
C3028 H3052 0.950 . S
C3029 C3046 1.574 . S
C3029 C3048 1.368 . S
C3029 H3053 0.949 . S
H3030 C3034 0.949 . S
C3031 C3032 1.349 . S
C3031 C3033 1.327 . S
C3031 H3054 0.950 . S
C3032 C3031 1.349 . S
C3032 C3044 1.349 . S
C3033 C3031 1.327 . S
C3033 C3049 1.429 . S
C3033 H3055 0.950 . S
C3034 H3030 0.949 . S
C3034 C3042 1.574 . S
C3034 C3050 1.368 . S
H3035 C3043 0.950 . S
H3036 C3041 0.950 . S
H3037 C3042 0.949 . S
H3038 C3044 0.950 . S
H3039 C3045 0.950 . S
H3040 C3046 0.949 . S
C3041 H3036 0.950 . S
C3041 C3043 1.327 . S
C3041 C3047 1.429 . S
C3042 C3034 1.574 . S
C3042 H3037 0.949 . S
C3042 C3048 1.368 . S
C3043 C3027 1.349 . S
C3043 H3035 0.950 . S
C3043 C3041 1.327 . S
C3044 C3032 1.349 . S
C3044 H3038 0.950 . S
C3044 C3045 1.327 . S
C3045 H3039 0.950 . S
C3045 C3044 1.327 . S
C3045 C3049 1.429 . S
C3046 C3029 1.574 . S
C3046 H3040 0.949 . S
C3046 C3050 1.368 . S
C3047 C3028 1.429 . S
C3047 C3041 1.429 . S
C3047 C3048 1.523 . S
C3048 C3029 1.368 . S
C3048 C3042 1.368 . S
C3048 C3047 1.523 . S
C3049 C3033 1.429 . S
C3049 C3045 1.429 . S
C3049 C3050 1.523 . S
C3050 C3034 1.368 . S
C3050 C3046 1.368 . S
C3050 C3049 1.523 . S
H3051 C3026 0.950 . S
H3052 C3028 0.950 . S
H3053 C3029 0.949 . S
H3054 C3031 0.950 . S
H3055 C3033 0.950 . S
C3056 C3057 1.349 . S
C3056 C3058 1.327 . S
C3056 H3081 0.950 . S
C3057 C3056 1.349 . S
C3057 C3073 1.349 . S
C3058 C3056 1.327 . S
C3058 C3077 1.429 . S
C3058 H3082 0.950 . S
C3059 C3076 1.574 . S
C3059 C3078 1.368 . S
C3059 H3083 0.949 . S
H3060 C3064 0.949 . S
C3061 C3062 1.349 . S
C3061 C3063 1.327 . S
C3061 H3084 0.950 . S
C3062 C3061 1.349 . S
C3062 C3074 1.349 . S
C3063 C3061 1.327 . S
C3063 C3079 1.429 . S
C3063 H3085 0.950 . S
C3064 H3060 0.949 . S
C3064 C3072 1.574 . S
C3064 C3080 1.368 . S
H3065 C3073 0.950 . S
H3066 C3071 0.950 . S
H3067 C3072 0.949 . S
H3068 C3074 0.950 . S
H3069 C3075 0.950 . S
H3070 C3076 0.949 . S
C3071 H3066 0.950 . S
C3071 C3073 1.327 . S
C3071 C3077 1.429 . S
C3072 C3064 1.574 . S
C3072 H3067 0.949 . S
C3072 C3078 1.368 . S
C3073 C3057 1.349 . S
C3073 H3065 0.950 . S
C3073 C3071 1.327 . S
C3074 C3062 1.349 . S
C3074 H3068 0.950 . S
C3074 C3075 1.327 . S
C3075 H3069 0.950 . S
C3075 C3074 1.327 . S
C3075 C3079 1.429 . S
C3076 C3059 1.574 . S
C3076 H3070 0.949 . S
C3076 C3080 1.368 . S
C3077 C3058 1.429 . S
C3077 C3071 1.429 . S
C3077 C3078 1.523 . S
C3078 C3059 1.368 . S
C3078 C3072 1.368 . S
C3078 C3077 1.523 . S
C3079 C3063 1.429 . S
C3079 C3075 1.429 . S
C3079 C3080 1.523 . S
C3080 C3064 1.368 . S
C3080 C3076 1.368 . S
C3080 C3079 1.523 . S
H3081 C3056 0.950 . S
H3082 C3058 0.950 . S
H3083 C3059 0.949 . S
H3084 C3061 0.950 . S
H3085 C3063 0.950 . S
C3086 C3087 1.349 . S
C3086 C3088 1.327 . S
C3086 H3111 0.950 . S
C3087 C3086 1.349 . S
C3087 C3103 1.349 . S
C3088 C3086 1.327 . S
C3088 C3107 1.429 . S
C3088 H3112 0.950 . S
C3089 C3106 1.574 . S
C3089 C3108 1.368 . S
C3089 H3113 0.949 . S
H3090 C3094 0.949 . S
C3091 C3092 1.349 . S
C3091 C3093 1.327 . S
C3091 H3114 0.950 . S
C3092 C3091 1.349 . S
C3092 C3104 1.349 . S
C3093 C3091 1.327 . S
C3093 C3109 1.429 . S
C3093 H3115 0.950 . S
C3094 H3090 0.949 . S
C3094 C3102 1.574 . S
C3094 C3110 1.368 . S
H3095 C3103 0.950 . S
H3096 C3101 0.950 . S
H3097 C3102 0.949 . S
H3098 C3104 0.950 . S
H3099 C3105 0.950 . S
H3100 C3106 0.949 . S
C3101 H3096 0.950 . S
C3101 C3103 1.327 . S
C3101 C3107 1.429 . S
C3102 C3094 1.574 . S
C3102 H3097 0.949 . S
C3102 C3108 1.368 . S
C3103 C3087 1.349 . S
C3103 H3095 0.950 . S
C3103 C3101 1.327 . S
C3104 C3092 1.349 . S
C3104 H3098 0.950 . S
C3104 C3105 1.327 . S
C3105 H3099 0.950 . S
C3105 C3104 1.327 . S
C3105 C3109 1.429 . S
C3106 C3089 1.574 . S
C3106 H3100 0.949 . S
C3106 C3110 1.368 . S
C3107 C3088 1.429 . S
C3107 C3101 1.429 . S
C3107 C3108 1.523 . S
C3108 C3089 1.368 . S
C3108 C3102 1.368 . S
C3108 C3107 1.523 . S
C3109 C3093 1.429 . S
C3109 C3105 1.429 . S
C3109 C3110 1.523 . S
C3110 C3094 1.368 . S
C3110 C3106 1.368 . S
C3110 C3109 1.523 . S
H3111 C3086 0.950 . S
H3112 C3088 0.950 . S
H3113 C3089 0.949 . S
H3114 C3091 0.950 . S
H3115 C3093 0.950 . S
C3116 C3117 1.349 . S
C3116 C3118 1.327 . S
C3116 H3141 0.950 . S
C3117 C3116 1.349 . S
C3117 C3133 1.349 . S
C3118 C3116 1.327 . S
C3118 C3137 1.429 . S
C3118 H3142 0.950 . S
C3119 C3136 1.574 . S
C3119 C3138 1.368 . S
C3119 H3143 0.949 . S
H3120 C3124 0.949 . S
C3121 C3122 1.349 . S
C3121 C3123 1.327 . S
C3121 H3144 0.950 . S
C3122 C3121 1.349 . S
C3122 C3134 1.349 . S
C3123 C3121 1.327 . S
C3123 C3139 1.429 . S
C3123 H3145 0.950 . S
C3124 H3120 0.949 . S
C3124 C3132 1.574 . S
C3124 C3140 1.368 . S
H3125 C3133 0.950 . S
H3126 C3131 0.950 . S
H3127 C3132 0.949 . S
H3128 C3134 0.950 . S
H3129 C3135 0.950 . S
H3130 C3136 0.949 . S
C3131 H3126 0.950 . S
C3131 C3133 1.327 . S
C3131 C3137 1.429 . S
C3132 C3124 1.574 . S
C3132 H3127 0.949 . S
C3132 C3138 1.368 . S
C3133 C3117 1.349 . S
C3133 H3125 0.950 . S
C3133 C3131 1.327 . S
C3134 C3122 1.349 . S
C3134 H3128 0.950 . S
C3134 C3135 1.327 . S
C3135 H3129 0.950 . S
C3135 C3134 1.327 . S
C3135 C3139 1.429 . S
C3136 C3119 1.574 . S
C3136 H3130 0.949 . S
C3136 C3140 1.368 . S
C3137 C3118 1.429 . S
C3137 C3131 1.429 . S
C3137 C3138 1.523 . S
C3138 C3119 1.368 . S
C3138 C3132 1.368 . S
C3138 C3137 1.523 . S
C3139 C3123 1.429 . S
C3139 C3135 1.429 . S
C3139 C3140 1.523 . S
C3140 C3124 1.368 . S
C3140 C3136 1.368 . S
C3140 C3139 1.523 . S
H3141 C3116 0.950 . S
H3142 C3118 0.950 . S
H3143 C3119 0.949 . S
H3144 C3121 0.950 . S
H3145 C3123 0.950 . S
C3146 C3147 1.349 . S
C3146 C3148 1.327 . S
C3146 H3171 0.950 . S
C3147 C3146 1.349 . S
C3147 C3163 1.349 . S
C3148 C3146 1.327 . S
C3148 C3167 1.429 . S
C3148 H3172 0.950 . S
C3149 C3166 1.574 . S
C3149 C3168 1.368 . S
C3149 H3173 0.949 . S
H3150 C3154 0.949 . S
C3151 C3152 1.349 . S
C3151 C3153 1.327 . S
C3151 H3174 0.950 . S
C3152 C3151 1.349 . S
C3152 C3164 1.349 . S
C3153 C3151 1.327 . S
C3153 C3169 1.429 . S
C3153 H3175 0.950 . S
C3154 H3150 0.949 . S
C3154 C3162 1.574 . S
C3154 C3170 1.368 . S
H3155 C3163 0.950 . S
H3156 C3161 0.950 . S
H3157 C3162 0.949 . S
H3158 C3164 0.950 . S
H3159 C3165 0.950 . S
H3160 C3166 0.949 . S
C3161 H3156 0.950 . S
C3161 C3163 1.327 . S
C3161 C3167 1.429 . S
C3162 C3154 1.574 . S
C3162 H3157 0.949 . S
C3162 C3168 1.368 . S
C3163 C3147 1.349 . S
C3163 H3155 0.950 . S
C3163 C3161 1.327 . S
C3164 C3152 1.349 . S
C3164 H3158 0.950 . S
C3164 C3165 1.327 . S
C3165 H3159 0.950 . S
C3165 C3164 1.327 . S
C3165 C3169 1.429 . S
C3166 C3149 1.574 . S
C3166 H3160 0.949 . S
C3166 C3170 1.368 . S
C3167 C3148 1.429 . S
C3167 C3161 1.429 . S
C3167 C3168 1.523 . S
C3168 C3149 1.368 . S
C3168 C3162 1.368 . S
C3168 C3167 1.523 . S
C3169 C3153 1.429 . S
C3169 C3165 1.429 . S
C3169 C3170 1.523 . S
C3170 C3154 1.368 . S
C3170 C3166 1.368 . S
C3170 C3169 1.523 . S
H3171 C3146 0.950 . S
H3172 C3148 0.950 . S
H3173 C3149 0.949 . S
H3174 C3151 0.950 . S
H3175 C3153 0.950 . S
C3176 C3177 1.349 . S
C3176 C3178 1.327 . S
C3176 H3201 0.950 . S
C3177 C3176 1.349 . S
C3177 C3193 1.349 . S
C3178 C3176 1.327 . S
C3178 C3197 1.429 . S
C3178 H3202 0.950 . S
C3179 C3196 1.574 . S
C3179 C3198 1.368 . S
C3179 H3203 0.949 . S
H3180 C3184 0.949 . S
C3181 C3182 1.349 . S
C3181 C3183 1.327 . S
C3181 H3204 0.950 . S
C3182 C3181 1.349 . S
C3182 C3194 1.349 . S
C3183 C3181 1.327 . S
C3183 C3199 1.429 . S
C3183 H3205 0.950 . S
C3184 H3180 0.949 . S
C3184 C3192 1.574 . S
C3184 C3200 1.368 . S
H3185 C3193 0.950 . S
H3186 C3191 0.950 . S
H3187 C3192 0.949 . S
H3188 C3194 0.950 . S
H3189 C3195 0.950 . S
H3190 C3196 0.949 . S
C3191 H3186 0.950 . S
C3191 C3193 1.327 . S
C3191 C3197 1.429 . S
C3192 C3184 1.574 . S
C3192 H3187 0.949 . S
C3192 C3198 1.368 . S
C3193 C3177 1.349 . S
C3193 H3185 0.950 . S
C3193 C3191 1.327 . S
C3194 C3182 1.349 . S
C3194 H3188 0.950 . S
C3194 C3195 1.327 . S
C3195 H3189 0.950 . S
C3195 C3194 1.327 . S
C3195 C3199 1.429 . S
C3196 C3179 1.574 . S
C3196 H3190 0.949 . S
C3196 C3200 1.368 . S
C3197 C3178 1.429 . S
C3197 C3191 1.429 . S
C3197 C3198 1.523 . S
C3198 C3179 1.368 . S
C3198 C3192 1.368 . S
C3198 C3197 1.523 . S
C3199 C3183 1.429 . S
C3199 C3195 1.429 . S
C3199 C3200 1.523 . S
C3200 C3184 1.368 . S
C3200 C3196 1.368 . S
C3200 C3199 1.523 . S
H3201 C3176 0.950 . S
H3202 C3178 0.950 . S
H3203 C3179 0.949 . S
H3204 C3181 0.950 . S
H3205 C3183 0.950 . S
C3206 C3207 1.349 . S
C3206 C3208 1.327 . S
C3206 H3231 0.950 . S
C3207 C3206 1.349 . S
C3207 C3223 1.349 . S
C3208 C3206 1.327 . S
C3208 C3227 1.429 . S
C3208 H3232 0.950 . S
C3209 C3226 1.574 . S
C3209 C3228 1.368 . S
C3209 H3233 0.949 . S
H3210 C3214 0.949 . S
C3211 C3212 1.349 . S
C3211 C3213 1.327 . S
C3211 H3234 0.950 . S
C3212 C3211 1.349 . S
C3212 C3224 1.349 . S
C3213 C3211 1.327 . S
C3213 C3229 1.429 . S
C3213 H3235 0.950 . S
C3214 H3210 0.949 . S
C3214 C3222 1.574 . S
C3214 C3230 1.368 . S
H3215 C3223 0.950 . S
H3216 C3221 0.950 . S
H3217 C3222 0.949 . S
H3218 C3224 0.950 . S
H3219 C3225 0.950 . S
H3220 C3226 0.949 . S
C3221 H3216 0.950 . S
C3221 C3223 1.327 . S
C3221 C3227 1.429 . S
C3222 C3214 1.574 . S
C3222 H3217 0.949 . S
C3222 C3228 1.368 . S
C3223 C3207 1.349 . S
C3223 H3215 0.950 . S
C3223 C3221 1.327 . S
C3224 C3212 1.349 . S
C3224 H3218 0.950 . S
C3224 C3225 1.327 . S
C3225 H3219 0.950 . S
C3225 C3224 1.327 . S
C3225 C3229 1.429 . S
C3226 C3209 1.574 . S
C3226 H3220 0.949 . S
C3226 C3230 1.368 . S
C3227 C3208 1.429 . S
C3227 C3221 1.429 . S
C3227 C3228 1.523 . S
C3228 C3209 1.368 . S
C3228 C3222 1.368 . S
C3228 C3227 1.523 . S
C3229 C3213 1.429 . S
C3229 C3225 1.429 . S
C3229 C3230 1.523 . S
C3230 C3214 1.368 . S
C3230 C3226 1.368 . S
C3230 C3229 1.523 . S
H3231 C3206 0.950 . S
H3232 C3208 0.950 . S
H3233 C3209 0.949 . S
H3234 C3211 0.950 . S
H3235 C3213 0.950 . S
C3236 C3237 1.349 . S
C3236 C3238 1.327 . S
C3236 H3261 0.950 . S
C3237 C3236 1.349 . S
C3237 C3253 1.349 . S
C3238 C3236 1.327 . S
C3238 C3257 1.429 . S
C3238 H3262 0.950 . S
C3239 C3256 1.574 . S
C3239 C3258 1.368 . S
C3239 H3263 0.949 . S
H3240 C3244 0.949 . S
C3241 C3242 1.349 . S
C3241 C3243 1.327 . S
C3241 H3264 0.950 . S
C3242 C3241 1.349 . S
C3242 C3254 1.349 . S
C3243 C3241 1.327 . S
C3243 C3259 1.429 . S
C3243 H3265 0.950 . S
C3244 H3240 0.949 . S
C3244 C3252 1.574 . S
C3244 C3260 1.368 . S
H3245 C3253 0.950 . S
H3246 C3251 0.950 . S
H3247 C3252 0.949 . S
H3248 C3254 0.923 1_455 S
H3249 C3255 0.950 . S
H3250 C3256 0.949 . S
C3251 H3246 0.950 . S
C3251 C3253 1.327 . S
C3251 C3257 1.429 . S
C3252 C3244 1.574 . S
C3252 H3247 0.949 . S
C3252 C3258 1.368 . S
C3253 C3237 1.349 . S
C3253 H3245 0.950 . S
C3253 C3251 1.327 . S
C3254 C3242 1.349 . S
C3254 H3248 0.923 1_655 S
C3254 C3255 1.327 . S
C3255 H3249 0.950 . S
C3255 C3254 1.327 . S
C3255 C3259 1.429 . S
C3256 C3239 1.574 . S
C3256 H3250 0.949 . S
C3256 C3260 1.368 . S
C3257 C3238 1.429 . S
C3257 C3251 1.429 . S
C3257 C3258 1.523 . S
C3258 C3239 1.368 . S
C3258 C3252 1.368 . S
C3258 C3257 1.523 . S
C3259 C3243 1.429 . S
C3259 C3255 1.429 . S
C3259 C3260 1.523 . S
C3260 C3244 1.368 . S
C3260 C3256 1.368 . S
C3260 C3259 1.523 . S
H3261 C3236 0.950 . S
H3262 C3238 0.950 . S
H3263 C3239 0.949 . S
H3264 C3241 0.950 . S
H3265 C3243 0.950 . S
C3266 C3267 1.349 . S
C3266 C3268 1.327 . S
C3266 H3291 0.950 . S
C3267 C3266 1.349 . S
C3267 C3283 1.349 . S
C3268 C3266 1.327 . S
C3268 C3287 1.429 . S
C3268 H3292 0.950 . S
C3269 C3286 1.574 . S
C3269 C3288 1.368 . S
C3269 H3293 0.949 . S
H3270 C3274 0.949 . S
C3271 C3272 1.349 . S
C3271 C3273 1.327 . S
C3271 H3294 0.950 . S
C3272 C3271 1.349 . S
C3272 C3284 1.349 . S
C3273 C3271 1.327 . S
C3273 C3289 1.429 . S
C3273 H3295 0.950 . S
C3274 H3270 0.949 . S
C3274 C3282 1.574 . S
C3274 C3290 1.368 . S
H3275 C3283 0.950 . S
H3276 C3281 0.950 . S
H3277 C3282 0.949 . S
H3278 C3284 0.950 . S
H3279 C3285 0.950 . S
H3280 C3286 0.949 . S
C3281 H3276 0.950 . S
C3281 C3283 1.327 . S
C3281 C3287 1.429 . S
C3282 C3274 1.574 . S
C3282 H3277 0.949 . S
C3282 C3288 1.368 . S
C3283 C3267 1.349 . S
C3283 H3275 0.950 . S
C3283 C3281 1.327 . S
C3284 C3272 1.349 . S
C3284 H3278 0.950 . S
C3284 C3285 1.327 . S
C3285 H3279 0.950 . S
C3285 C3284 1.327 . S
C3285 C3289 1.429 . S
C3286 C3269 1.574 . S
C3286 H3280 0.949 . S
C3286 C3290 1.368 . S
C3287 C3268 1.429 . S
C3287 C3281 1.429 . S
C3287 C3288 1.523 . S
C3288 C3269 1.368 . S
C3288 C3282 1.368 . S
C3288 C3287 1.523 . S
C3289 C3273 1.429 . S
C3289 C3285 1.429 . S
C3289 C3290 1.523 . S
C3290 C3274 1.368 . S
C3290 C3286 1.368 . S
C3290 C3289 1.523 . S
H3291 C3266 0.950 . S
H3292 C3268 0.950 . S
H3293 C3269 0.949 . S
H3294 C3271 0.950 . S
H3295 C3273 0.950 . S
C3296 C3297 1.349 . S
C3296 C3298 1.327 . S
C3296 H3321 0.950 . S
C3297 C3296 1.349 . S
C3297 C3313 1.349 . S
C3298 C3296 1.327 . S
C3298 C3317 1.429 . S
C3298 H3322 0.950 . S
C3299 C3316 1.574 . S
C3299 C3318 1.368 . S
C3299 H3323 0.949 . S
H3300 C3304 0.949 . S
C3301 C3302 1.349 . S
C3301 C3303 1.327 . S
C3301 H3324 0.950 . S
C3302 C3301 1.349 . S
C3302 C3314 1.349 . S
C3303 C3301 1.327 . S
C3303 C3319 1.429 . S
C3303 H3325 0.950 . S
C3304 H3300 0.949 . S
C3304 C3312 1.574 . S
C3304 C3320 1.368 . S
H3305 C3313 0.950 . S
H3306 C3311 0.950 . S
H3307 C3312 0.949 . S
H3308 C3314 0.950 . S
H3309 C3315 0.950 . S
H3310 C3316 0.949 . S
C3311 H3306 0.950 . S
C3311 C3313 1.327 . S
C3311 C3317 1.429 . S
C3312 C3304 1.574 . S
C3312 H3307 0.949 . S
C3312 C3318 1.368 . S
C3313 C3297 1.349 . S
C3313 H3305 0.950 . S
C3313 C3311 1.327 . S
C3314 C3302 1.349 . S
C3314 H3308 0.950 . S
C3314 C3315 1.327 . S
C3315 H3309 0.950 . S
C3315 C3314 1.327 . S
C3315 C3319 1.429 . S
C3316 C3299 1.574 . S
C3316 H3310 0.949 . S
C3316 C3320 1.368 . S
C3317 C3298 1.429 . S
C3317 C3311 1.429 . S
C3317 C3318 1.523 . S
C3318 C3299 1.368 . S
C3318 C3312 1.368 . S
C3318 C3317 1.523 . S
C3319 C3303 1.429 . S
C3319 C3315 1.429 . S
C3319 C3320 1.523 . S
C3320 C3304 1.368 . S
C3320 C3316 1.368 . S
C3320 C3319 1.523 . S
H3321 C3296 0.950 . S
H3322 C3298 0.950 . S
H3323 C3299 0.949 . S
H3324 C3301 0.950 . S
H3325 C3303 0.950 . S
C3326 C3327 1.349 . S
C3326 C3328 1.327 . S
C3326 H3351 0.950 . S
C3327 C3326 1.349 . S
C3327 C3343 1.349 . S
C3328 C3326 1.327 . S
C3328 C3347 1.429 . S
C3328 H3352 0.950 . S
C3329 C3346 1.574 . S
C3329 C3348 1.368 . S
C3329 H3353 0.949 . S
H3330 C3334 0.949 . S
C3331 C3332 1.349 1_565 S
C3331 C3333 1.327 . S
C3331 H3354 0.950 1_565 S
C3332 C3331 1.349 1_545 S
C3332 C3344 1.349 1_545 S
C3333 C3331 1.327 . S
C3333 C3349 1.429 . S
C3333 H3355 0.950 . S
C3334 H3330 0.949 . S
C3334 C3342 1.574 . S
C3334 C3350 1.368 . S
H3335 C3343 0.950 . S
H3336 C3341 0.950 . S
H3337 C3342 0.949 . S
H3338 C3344 0.950 . S
H3339 C3345 0.950 . S
H3340 C3346 0.949 . S
C3341 H3336 0.950 . S
C3341 C3343 1.327 . S
C3341 C3347 1.429 . S
C3342 C3334 1.574 . S
C3342 H3337 0.949 . S
C3342 C3348 1.368 . S
C3343 C3327 1.349 . S
C3343 H3335 0.950 . S
C3343 C3341 1.327 . S
C3344 C3332 1.349 1_565 S
C3344 H3338 0.950 . S
C3344 C3345 1.327 . S
C3345 H3339 0.950 . S
C3345 C3344 1.327 . S
C3345 C3349 1.429 . S
C3346 C3329 1.574 . S
C3346 H3340 0.949 . S
C3346 C3350 1.368 . S
C3347 C3328 1.429 . S
C3347 C3341 1.429 . S
C3347 C3348 1.523 . S
C3348 C3329 1.368 . S
C3348 C3342 1.368 . S
C3348 C3347 1.523 . S
C3349 C3333 1.429 . S
C3349 C3345 1.429 . S
C3349 C3350 1.523 . S
C3350 C3334 1.368 . S
C3350 C3346 1.368 . S
C3350 C3349 1.523 . S
H3351 C3326 0.950 . S
H3352 C3328 0.950 . S
H3353 C3329 0.949 . S
H3354 C3331 0.950 1_545 S
H3355 C3333 0.950 . S
C3356 C3357 1.349 . S
C3356 C3358 1.327 . S
C3356 H3381 0.950 . S
C3357 C3356 1.349 . S
C3357 C3373 1.349 . S
C3358 C3356 1.327 . S
C3358 C3377 1.429 . S
C3358 H3382 0.950 . S
C3359 C3376 1.574 . S
C3359 C3378 1.368 . S
C3359 H3383 0.949 . S
H3360 C3364 0.949 . S
C3361 C3362 1.349 . S
C3361 C3363 1.327 . S
C3361 H3384 0.950 . S
C3362 C3361 1.349 . S
C3362 C3374 1.349 . S
C3363 C3361 1.327 . S
C3363 C3379 1.429 . S
C3363 H3385 0.950 . S
C3364 H3360 0.949 . S
C3364 C3372 1.574 . S
C3364 C3380 1.368 . S
H3365 C3373 0.950 . S
H3366 C3371 0.950 . S
H3367 C3372 0.949 . S
H3368 C3374 0.950 . S
H3369 C3375 0.950 . S
H3370 C3376 0.949 . S
C3371 H3366 0.950 . S
C3371 C3373 1.327 . S
C3371 C3377 1.429 . S
C3372 C3364 1.574 . S
C3372 H3367 0.949 . S
C3372 C3378 1.368 . S
C3373 C3357 1.349 . S
C3373 H3365 0.950 . S
C3373 C3371 1.327 . S
C3374 C3362 1.349 . S
C3374 H3368 0.950 . S
C3374 C3375 1.327 . S
C3375 H3369 0.950 . S
C3375 C3374 1.327 . S
C3375 C3379 1.429 . S
C3376 C3359 1.574 . S
C3376 H3370 0.949 . S
C3376 C3380 1.368 . S
C3377 C3358 1.429 . S
C3377 C3371 1.429 . S
C3377 C3378 1.523 . S
C3378 C3359 1.368 . S
C3378 C3372 1.368 . S
C3378 C3377 1.523 . S
C3379 C3363 1.429 . S
C3379 C3375 1.429 . S
C3379 C3380 1.523 . S
C3380 C3364 1.368 . S
C3380 C3376 1.368 . S
C3380 C3379 1.523 . S
H3381 C3356 0.950 . S
H3382 C3358 0.950 . S
H3383 C3359 0.949 . S
H3384 C3361 0.950 . S
H3385 C3363 0.950 . S
C3386 C3387 1.349 1_554 S
C3386 C3388 1.327 . S
C3386 H3411 0.950 . S
C3387 C3386 1.349 1_556 S
C3387 C3403 1.349 . S
C3388 C3386 1.327 . S
C3388 C3407 1.429 1_554 S
C3388 H3412 0.950 . S
C3389 C3406 1.574 . S
C3389 C3408 1.368 . S
C3389 H3413 0.949 . S
H3390 C3394 0.949 . S
C3391 C3392 1.349 1_556 S
C3391 C3393 1.327 . S
C3391 H3414 0.950 . S
C3392 C3391 1.349 1_554 S
C3392 C3404 1.349 . S
C3393 C3391 1.327 . S
C3393 C3409 1.429 1_556 S
C3393 H3415 0.950 . S
C3394 H3390 0.949 . S
C3394 C3402 1.574 . S
C3394 C3410 1.375 . S
H3395 C3403 0.950 . S
H3396 C3401 0.950 . S
H3397 C3402 0.949 . S
H3398 C3404 0.950 . S
H3399 C3405 0.950 . S
H3400 C3406 0.949 . S
C3401 H3396 0.950 . S
C3401 C3403 1.327 . S
C3401 C3407 1.429 . S
C3402 C3394 1.574 . S
C3402 H3397 0.949 . S
C3402 C3408 1.368 1_554 S
C3403 C3387 1.349 . S
C3403 H3395 0.950 . S
C3403 C3401 1.327 . S
C3404 C3392 1.349 . S
C3404 H3398 0.950 . S
C3404 C3405 1.327 . S
C3405 H3399 0.950 . S
C3405 C3404 1.327 . S
C3405 C3409 1.429 . S
C3406 C3389 1.574 . S
C3406 H3400 0.949 . S
C3406 C3410 1.360 1_556 S
C3407 C3388 1.429 1_556 S
C3407 C3401 1.429 . S
C3407 C3408 1.523 . S
C3408 C3389 1.368 . S
C3408 C3402 1.368 1_556 S
C3408 C3407 1.523 . S
C3409 C3393 1.429 1_554 S
C3409 C3405 1.429 . S
C3409 C3410 1.525 . S
C3410 C3394 1.375 . S
C3410 C3406 1.360 1_554 S
C3410 C3409 1.525 . S
H3411 C3386 0.950 . S
H3412 C3388 0.950 . S
H3413 C3389 0.949 . S
H3414 C3391 0.950 . S
H3415 C3393 0.950 . S
C3416 C3417 1.349 . S
C3416 C3418 1.327 . S
C3416 H3441 0.950 . S
C3417 C3416 1.349 . S
C3417 C3433 1.349 . S
C3418 C3416 1.327 . S
C3418 C3437 1.429 . S
C3418 H3442 0.950 . S
C3419 C3436 1.574 . S
C3419 C3438 1.368 . S
C3419 H3443 0.949 . S
H3420 C3424 0.949 . S
C3421 C3422 1.349 . S
C3421 C3423 1.327 . S
C3421 H3444 0.950 . S
C3422 C3421 1.349 . S
C3422 C3434 1.349 . S
C3423 C3421 1.327 . S
C3423 C3439 1.429 . S
C3423 H3445 0.950 . S
C3424 H3420 0.949 . S
C3424 C3432 1.574 . S
C3424 C3440 1.368 . S
H3425 C3433 0.950 . S
H3426 C3431 0.950 . S
H3427 C3432 0.949 . S
H3428 C3434 0.950 . S
H3429 C3435 0.950 . S
H3430 C3436 0.949 . S
C3431 H3426 0.950 . S
C3431 C3433 1.327 . S
C3431 C3437 1.429 . S
C3432 C3424 1.574 . S
C3432 H3427 0.949 . S
C3432 C3438 1.368 . S
C3433 C3417 1.349 . S
C3433 H3425 0.950 . S
C3433 C3431 1.327 . S
C3434 C3422 1.349 . S
C3434 H3428 0.950 . S
C3434 C3435 1.327 . S
C3435 H3429 0.950 . S
C3435 C3434 1.327 . S
C3435 C3439 1.429 . S
C3436 C3419 1.574 . S
C3436 H3430 0.949 . S
C3436 C3440 1.368 . S
C3437 C3418 1.429 . S
C3437 C3431 1.429 . S
C3437 C3438 1.523 . S
C3438 C3419 1.368 . S
C3438 C3432 1.368 . S
C3438 C3437 1.523 . S
C3439 C3423 1.429 . S
C3439 C3435 1.429 . S
C3439 C3440 1.523 . S
C3440 C3424 1.368 . S
C3440 C3436 1.368 . S
C3440 C3439 1.523 . S
H3441 C3416 0.950 . S
H3442 C3418 0.950 . S
H3443 C3419 0.949 . S
H3444 C3421 0.950 . S
H3445 C3423 0.950 . S
C3446 C3447 1.349 . S
C3446 C3448 1.327 . S
C3446 H3471 0.950 . S
C3447 C3446 1.349 . S
C3447 C3463 1.349 . S
C3448 C3446 1.327 . S
C3448 C3467 1.429 . S
C3448 H3472 0.950 . S
C3449 C3466 1.574 . S
C3449 C3468 1.368 1_556 S
C3449 H3473 0.949 . S
H3450 C3454 0.949 . S
C3451 C3452 1.349 . S
C3451 C3453 1.327 . S
C3451 H3474 0.950 . S
C3452 C3451 1.349 . S
C3452 C3464 1.349 1_556 S
C3453 C3451 1.327 . S
C3453 C3469 1.429 1_556 S
C3453 H3475 0.950 . S
C3454 H3450 0.949 . S
C3454 C3462 1.574 . S
C3454 C3470 1.368 . S
H3455 C3463 0.950 1_556 S
H3456 C3461 0.970 . S
H3457 C3462 0.949 . S
H3458 C3464 0.950 . S
H3459 C3465 0.950 . S
H3460 C3466 0.949 . S
C3461 H3456 0.970 . S
C3461 C3463 1.325 1_556 S
C3461 C3467 1.411 1_556 S
C3462 C3454 1.574 . S
C3462 H3457 0.949 . S
C3462 C3468 1.368 . S
C3463 C3447 1.349 . S
C3463 H3455 0.950 1_554 S
C3463 C3461 1.325 1_554 S
C3464 C3452 1.349 1_554 S
C3464 H3458 0.950 . S
C3464 C3465 1.327 . S
C3465 H3459 0.950 . S
C3465 C3464 1.327 . S
C3465 C3469 1.429 . S
C3466 C3449 1.574 . S
C3466 H3460 0.949 . S
C3466 C3470 1.368 1_556 S
C3467 C3448 1.429 . S
C3467 C3461 1.411 1_554 S
C3467 C3468 1.523 . S
C3468 C3449 1.368 1_554 S
C3468 C3462 1.368 . S
C3468 C3467 1.523 . S
C3469 C3453 1.429 1_554 S
C3469 C3465 1.429 . S
C3469 C3470 1.523 . S
C3470 C3454 1.368 . S
C3470 C3466 1.368 1_554 S
C3470 C3469 1.523 . S
H3471 C3446 0.950 . S
H3472 C3448 0.950 . S
H3473 C3449 0.949 . S
H3474 C3451 0.950 . S
H3475 C3453 0.950 . S
C3476 C3477 1.349 1_565 S
C3476 C3478 1.327 . S
C3476 H3501 0.950 . S
C3477 C3476 1.349 1_545 S
C3477 C3493 1.353 . S
C3478 C3476 1.327 . S
C3478 C3497 1.429 . S
C3478 H3502 0.950 . S
C3479 C3496 1.574 . S
C3479 C3498 1.368 . S
C3479 H3503 0.949 . S
H3480 C3484 0.949 . S
C3481 C3482 1.349 . S
C3481 C3483 1.327 . S
C3481 H3504 0.950 . S
C3482 C3481 1.349 . S
C3482 C3494 1.349 . S
C3483 C3481 1.327 . S
C3483 C3499 1.429 . S
C3483 H3505 0.950 . S
C3484 H3480 0.949 . S
C3484 C3492 1.574 . S
C3484 C3500 1.368 . S
H3485 C3493 0.967 . S
H3486 C3491 0.950 . S
H3487 C3492 0.949 . S
H3488 C3494 0.950 . S
H3489 C3495 0.950 . S
H3490 C3496 0.949 . S
C3491 H3486 0.950 . S
C3491 C3493 1.306 1_565 S
C3491 C3497 1.429 . S
C3492 C3484 1.574 . S
C3492 H3487 0.949 . S
C3492 C3498 1.368 . S
C3493 C3477 1.353 . S
C3493 H3485 0.967 . S
C3493 C3491 1.306 1_545 S
C3494 C3482 1.349 . S
C3494 H3488 0.950 . S
C3494 C3495 1.327 . S
C3495 H3489 0.950 . S
C3495 C3494 1.327 . S
C3495 C3499 1.429 . S
C3496 C3479 1.574 . S
C3496 H3490 0.949 . S
C3496 C3500 1.368 . S
C3497 C3478 1.429 . S
C3497 C3491 1.429 . S
C3497 C3498 1.523 . S
C3498 C3479 1.368 . S
C3498 C3492 1.368 . S
C3498 C3497 1.523 . S
C3499 C3483 1.429 . S
C3499 C3495 1.429 . S
C3499 C3500 1.523 . S
C3500 C3484 1.368 . S
C3500 C3496 1.368 . S
C3500 C3499 1.523 . S
H3501 C3476 0.950 . S
H3502 C3478 0.950 . S
H3503 C3479 0.949 . S
H3504 C3481 0.950 . S
H3505 C3483 0.950 . S
C3506 C3507 1.349 . S
C3506 C3508 1.327 . S
C3506 H3531 0.950 . S
C3507 C3506 1.349 . S
C3507 C3523 1.349 . S
C3508 C3506 1.327 . S
C3508 C3527 1.429 . S
C3508 H3532 0.950 . S
C3509 C3526 1.574 . S
C3509 C3528 1.368 . S
C3509 H3533 0.949 . S
H3510 C3514 0.949 . S
C3511 C3512 1.349 . S
C3511 C3513 1.327 . S
C3511 H3534 0.950 . S
C3512 C3511 1.349 . S
C3512 C3524 1.349 . S
C3513 C3511 1.327 . S
C3513 C3529 1.429 . S
C3513 H3535 0.950 . S
C3514 H3510 0.949 . S
C3514 C3522 1.574 . S
C3514 C3530 1.368 . S
H3515 C3523 0.950 . S
H3516 C3521 0.950 . S
H3517 C3522 0.949 . S
H3518 C3524 0.950 . S
H3519 C3525 0.950 . S
H3520 C3526 0.949 . S
C3521 H3516 0.950 . S
C3521 C3523 1.327 . S
C3521 C3527 1.429 . S
C3522 C3514 1.574 . S
C3522 H3517 0.949 . S
C3522 C3528 1.368 . S
C3523 C3507 1.349 . S
C3523 H3515 0.950 . S
C3523 C3521 1.327 . S
C3524 C3512 1.349 . S
C3524 H3518 0.950 . S
C3524 C3525 1.327 . S
C3525 H3519 0.950 . S
C3525 C3524 1.327 . S
C3525 C3529 1.429 . S
C3526 C3509 1.574 . S
C3526 H3520 0.949 . S
C3526 C3530 1.368 . S
C3527 C3508 1.429 . S
C3527 C3521 1.429 . S
C3527 C3528 1.523 . S
C3528 C3509 1.368 . S
C3528 C3522 1.368 . S
C3528 C3527 1.523 . S
C3529 C3513 1.429 . S
C3529 C3525 1.429 . S
C3529 C3530 1.523 . S
C3530 C3514 1.368 . S
C3530 C3526 1.368 . S
C3530 C3529 1.523 . S
H3531 C3506 0.950 . S
H3532 C3508 0.950 . S
H3533 C3509 0.949 . S
H3534 C3511 0.950 . S
H3535 C3513 0.950 . S
C657 C111 1.025 . S
C662 C352 1.050 1_556 S
C687 C64 1.180 . S
C692 C365 1.211 . S
C717 C77 1.125 . S
C722 C384 1.116 . S
C752 C415 1.734 . S
C747 C95 1.758 . S
C777 C25 1.551 . S
C782 C435 1.527 . S
C812 C452 0.689 . S
C807 C36 0.692 . S
C842 C465 1.476 . S
C837 C50 1.424 . S
C867 C11 0.745 . S
C872 C492 0.745 . S
C902 C345 1.023 1_655 S
C897 C237 0.978 . S
C927 C245 1.298 . S
C932 C375 1.275 . S
C962 C377 1.576 . S
C957 C279 1.508 . S
C992 C412 0.642 . S
C987 C175 0.641 . S
C1017 C231 0.890 . S
C1022 C432 0.889 . S
C1052 C445 1.676 . S
C1047 C251 1.563 . S
C1082 C475 1.128 . S
C1077 C273 1.148 . S
C1112 C485 1.060 . S
C1107 C181 1.030 . S
C1142 C355 1.400 . S
C1137 C165 1.425 . S
C1167 C288 1.816 1_556 S
C1172 C505 1.873 . S
C1202 C535 1.471 . S
C1197 C333 1.497 . S
C1232 C552 1.057 . S
C1227 C316 1.051 . S
C1257 C123 1.813 . S
C1262 C495 1.791 . S
C1287 C137 1.015 . S
C1292 C382 0.992 . S
C1317 C330 1.853 . S
C1322 C565 1.919 . S
C1352 C592 0.760 . S
C1347 C302 0.760 . S
C1382 C342 1.196 . S
C1377 C63 1.222 . S
C1412 C577 1.247 . S
C1407 C106 1.220 . S
C1437 C97 1.157 . S
C1442 C395 1.218 . S
C1467 C81 1.862 . S
C1472 C564 1.818 . S
C1502 C424 1.670 . S
C1497 C13 1.631 . S
C1527 C55 0.727 . S
C1532 C522 0.720 . S
C1562 C457 1.409 . S
C1557 C35 1.408 . S
C1592 C602 0.957 . S
C1587 C21 0.973 . S
C1622 C337 1.163 . S
C1617 C147 1.176 . S
C1652 C584 1.322 . S
C1647 C321 1.269 . S
C1677 C119 1.686 . S
C1682 C385 1.655 . S
C1707 C293 0.782 . S
C1712 C562 0.792 . S
C1737 C153 1.015 1_565 S
C1742 C422 1.073 . S
C1772 C517 1.749 . S
C1767 C315 1.747 . S
C1797 C125 1.098 . S
C1802 C464 1.130 . S
C1827 C287 1.214 . S
C1832 C597 1.188 . S
C1857 C193 1.544 . S
C1862 C344 1.512 . S
C1887 C176 1.871 . S
C1892 C497 1.907 . S
C1917 C263 1.485 . S
C1922 C444 1.471 . S
C1947 C246 1.169 . S
C1952 C542 1.206 . S
C1982 C604 1.948 . S
C1977 C277 1.991 . S
C2007 C221 1.059 . S
C2012 C392 1.039 1_565 S
C2042 C397 1.973 . S
C2037 C260 1.938 . S
C2072 C362 0.887 . S
C2067 C204 0.878 . S
C2097 C83 1.025 . S
C2102 C632 1.050 . S
C2132 C585 1.211 . S
C2127 C92 1.179 . S
C2157 C105 1.125 . S
C2162 C644 1.079 1_456 S
C2187 C67 1.758 . S
C2192 C575 1.734 . S
C2217 C53 1.551 . S
C2222 C515 1.527 . S
C2252 C532 0.689 . S
C2247 C8 0.692 . S
C2282 C545 1.476 1_655 S
C2277 C22 1.423 . S
C2312 C612 0.745 . S
C2307 C39 0.745 . S
C2342 C625 1.023 . S
C2337 C265 0.978 . S
C2367 C189 1.298 . S
C2372 C595 1.275 . S
C2402 C637 1.576 . S
C2397 C209 1.508 . S
C2432 C572 0.642 . S
C2427 C217 0.641 . S
C2462 C512 0.889 . S
C2457 C259 0.890 . S
C2487 C195 1.563 . S
C2492 C525 1.676 . S
C2522 C555 1.128 . S
C2517 C203 1.148 . S
C2547 C223 1.030 . S
C2552 C605 1.060 . S
C2582 C635 1.400 . S
C2577 C319 1.425 . S
C2607 C134 1.816 . S
C2612 C425 1.873 . S
C2642 C455 1.471 . S
C2637 C151 1.503 . S
C2672 C472 1.057 . S
C2667 C162 1.052 . S
C2702 C615 1.791 . S
C2697 C305 1.813 . S
C2727 C291 1.015 . S
C2732 C642 0.992 . S
C2762 C405 1.919 . S
C2757 C148 1.847 . S
C2792 C372 0.760 . S
C2787 C120 0.760 . S
C2817 C91 1.222 . S
C2822 C622 1.196 . S
C2852 C357 1.247 . S
C2847 C78 1.221 . S
C2877 C69 1.156 . S
C2882 C655 1.217 . S
C2907 C109 1.861 . S
C2912 C404 1.818 . S
C2937 C41 1.631 . S
C2942 C504 1.673 . S
C2972 C442 0.720 . S
C2967 C27 0.727 . S
C2997 C7 1.408 . S
C3002 C537 1.409 . S
C3027 C49 0.973 . S
C3032 C482 0.957 . S
C3062 C617 1.163 . S
C3057 C329 1.176 . S
C3087 C167 1.269 . S
C3092 C364 1.322 . S
C3122 C645 1.655 . S
C3117 C301 1.686 . S
C3147 C139 0.782 . S
C3152 C402 0.793 . S
C3177 C335 1.015 . S
C3182 C502 1.076 . S
C3212 C437 1.749 . S
C3207 C161 1.747 . S
C3237 C307 1.098 . S
C3242 C544 1.130 . S
C3272 C477 1.188 . S
C3267 C133 1.214 . S
C3302 C624 1.512 . S
C3297 C249 1.544 . S
C3332 C417 1.907 . S
C3327 C218 1.871 . S
C3357 C235 1.485 . S
C3362 C524 1.471 . S
C3392 C462 1.206 . S
C3387 C190 1.166 1_556 S
C3417 C207 1.991 . S
C3422 C484 1.948 . S
C3447 C179 1.059 . S
C3452 C652 1.039 1_556 S
C3482 C557 1.974 . S
C3477 C232 1.939 . S
C3512 C582 0.887 . S
C3507 C274 0.878 . S
