# Generated by pormake.
# Topology ocu, (6,8)-cn, num edge types: 1
# Building blocks:
#     Node 0, Type 0, BuildingBlock: NUHQIS_clean_sbu_0, # of connection points: 6
#     Node 1, Type 0, BuildingBlock: NUHQIS_clean_sbu_0, # of connection points: 6
#     Node 2, Type 0, BuildingBlock: NUHQIS_clean_sbu_0, # of connection points: 6
#     Node 3, Type 0, BuildingBlock: NUHQIS_clean_sbu_0, # of connection points: 6
#     Node 4, Type 0, BuildingBlock: NUHQIS_clean_sbu_0, # of connection points: 6
#     Node 5, Type 0, BuildingBlock: NUHQIS_clean_sbu_0, # of connection points: 6
#     Node 6, Type 0, BuildingBlock: NUHQIS_clean_sbu_0, # of connection points: 6
#     Node 7, Type 0, BuildingBlock: NUHQIS_clean_sbu_0, # of connection points: 6
#     Node 8, Type 1, BuildingBlock: TAGTUT_clean_sbu_1, # of connection points: 8
#     Node 9, Type 1, BuildingBlock: TAGTUT_clean_sbu_1, # of connection points: 8
#     Node 10, Type 1, BuildingBlock: TAGTUT_clean_sbu_1, # of connection points: 8
#     Node 11, Type 1, BuildingBlock: TAGTUT_clean_sbu_1, # of connection points: 8
#     Node 12, Type 1, BuildingBlock: TAGTUT_clean_sbu_1, # of connection points: 8
#     Node 13, Type 1, BuildingBlock: TAGTUT_clean_sbu_1, # of connection points: 8
#     Edge 14, Type (0, 1), BuildingBlock: KIFKEQ_clean_linker_1, # of connection points: 2
#     Edge 15, Type (0, 1), BuildingBlock: KIFKEQ_clean_linker_1, # of connection points: 2
#     Edge 16, Type (0, 1), BuildingBlock: KIFKEQ_clean_linker_1, # of connection points: 2
#     Edge 17, Type (0, 1), BuildingBlock: KIFKEQ_clean_linker_1, # of connection points: 2
#     Edge 18, Type (0, 1), BuildingBlock: KIFKEQ_clean_linker_1, # of connection points: 2
#     Edge 19, Type (0, 1), BuildingBlock: KIFKEQ_clean_linker_1, # of connection points: 2
#     Edge 20, Type (0, 1), BuildingBlock: KIFKEQ_clean_linker_1, # of connection points: 2
#     Edge 21, Type (0, 1), BuildingBlock: KIFKEQ_clean_linker_1, # of connection points: 2
#     Edge 22, Type (0, 1), BuildingBlock: KIFKEQ_clean_linker_1, # of connection points: 2
#     Edge 23, Type (0, 1), BuildingBlock: KIFKEQ_clean_linker_1, # of connection points: 2
#     Edge 24, Type (0, 1), BuildingBlock: KIFKEQ_clean_linker_1, # of connection points: 2
#     Edge 25, Type (0, 1), BuildingBlock: KIFKEQ_clean_linker_1, # of connection points: 2
#     Edge 26, Type (0, 1), BuildingBlock: KIFKEQ_clean_linker_1, # of connection points: 2
#     Edge 27, Type (0, 1), BuildingBlock: KIFKEQ_clean_linker_1, # of connection points: 2
#     Edge 28, Type (0, 1), BuildingBlock: KIFKEQ_clean_linker_1, # of connection points: 2
#     Edge 29, Type (0, 1), BuildingBlock: KIFKEQ_clean_linker_1, # of connection points: 2
#     Edge 30, Type (0, 1), BuildingBlock: KIFKEQ_clean_linker_1, # of connection points: 2
#     Edge 31, Type (0, 1), BuildingBlock: KIFKEQ_clean_linker_1, # of connection points: 2
#     Edge 32, Type (0, 1), BuildingBlock: KIFKEQ_clean_linker_1, # of connection points: 2
#     Edge 33, Type (0, 1), BuildingBlock: KIFKEQ_clean_linker_1, # of connection points: 2
#     Edge 34, Type (0, 1), BuildingBlock: KIFKEQ_clean_linker_1, # of connection points: 2
#     Edge 35, Type (0, 1), BuildingBlock: KIFKEQ_clean_linker_1, # of connection points: 2
#     Edge 36, Type (0, 1), BuildingBlock: KIFKEQ_clean_linker_1, # of connection points: 2
#     Edge 37, Type (0, 1), BuildingBlock: KIFKEQ_clean_linker_1, # of connection points: 2
#     Edge 38, Type (0, 1), BuildingBlock: KIFKEQ_clean_linker_1, # of connection points: 2
#     Edge 39, Type (0, 1), BuildingBlock: KIFKEQ_clean_linker_1, # of connection points: 2
#     Edge 40, Type (0, 1), BuildingBlock: KIFKEQ_clean_linker_1, # of connection points: 2
#     Edge 41, Type (0, 1), BuildingBlock: KIFKEQ_clean_linker_1, # of connection points: 2
#     Edge 42, Type (0, 1), BuildingBlock: KIFKEQ_clean_linker_1, # of connection points: 2
#     Edge 43, Type (0, 1), BuildingBlock: KIFKEQ_clean_linker_1, # of connection points: 2
#     Edge 44, Type (0, 1), BuildingBlock: KIFKEQ_clean_linker_1, # of connection points: 2
#     Edge 45, Type (0, 1), BuildingBlock: KIFKEQ_clean_linker_1, # of connection points: 2
#     Edge 46, Type (0, 1), BuildingBlock: KIFKEQ_clean_linker_1, # of connection points: 2
#     Edge 47, Type (0, 1), BuildingBlock: KIFKEQ_clean_linker_1, # of connection points: 2
#     Edge 48, Type (0, 1), BuildingBlock: KIFKEQ_clean_linker_1, # of connection points: 2
#     Edge 49, Type (0, 1), BuildingBlock: KIFKEQ_clean_linker_1, # of connection points: 2
#     Edge 50, Type (0, 1), BuildingBlock: KIFKEQ_clean_linker_1, # of connection points: 2
#     Edge 51, Type (0, 1), BuildingBlock: KIFKEQ_clean_linker_1, # of connection points: 2
#     Edge 52, Type (0, 1), BuildingBlock: KIFKEQ_clean_linker_1, # of connection points: 2
#     Edge 53, Type (0, 1), BuildingBlock: KIFKEQ_clean_linker_1, # of connection points: 2
#     Edge 54, Type (0, 1), BuildingBlock: KIFKEQ_clean_linker_1, # of connection points: 2
#     Edge 55, Type (0, 1), BuildingBlock: KIFKEQ_clean_linker_1, # of connection points: 2
#     Edge 56, Type (0, 1), BuildingBlock: KIFKEQ_clean_linker_1, # of connection points: 2
#     Edge 57, Type (0, 1), BuildingBlock: KIFKEQ_clean_linker_1, # of connection points: 2
#     Edge 58, Type (0, 1), BuildingBlock: KIFKEQ_clean_linker_1, # of connection points: 2
#     Edge 59, Type (0, 1), BuildingBlock: KIFKEQ_clean_linker_1, # of connection points: 2
#     Edge 60, Type (0, 1), BuildingBlock: KIFKEQ_clean_linker_1, # of connection points: 2
#     Edge 61, Type (0, 1), BuildingBlock: KIFKEQ_clean_linker_1, # of connection points: 2
# Relax obj value: 0.135
# Max RMSD: 0.251
# Mean RMSD: 0.126
data_MOF--net-ocu--node1-NUHQIS_clean_sbu_0--node2-TAGTUT_clean_sbu_1--edge1-KIFKEQ_clean_linker_1
_symmetry_space_group_name_H-M    P1
_symmetry_Int_Tables_number       1
_symmetry_cell_setting            triclinic
loop_
_symmetry_equiv_pos_as_xyz
'x, y, z'
_cell_length_a     39.078628
_cell_length_b     40.107439
_cell_length_c     42.211004
_cell_angle_alpha  96.555135
_cell_angle_beta   86.270548
_cell_angle_gamma 112.13805
loop_
_atom_site_label
_atom_site_type_symbol
_atom_site_fract_x
_atom_site_fract_y
_atom_site_fract_z
_atom_type_partial_charge
Tb0 Tb 0.28992 0.26145 0.26293 0.0
Eu1 Eu 0.35603 0.29463 0.31194 0.0
C2 C 0.35761 0.23196 0.25355 0.0
C3 C 0.28483 0.22595 0.3256 0.0
C4 C 0.20143 0.24523 0.22648 0.0
C5 C 0.13873 0.22696 0.20829 0.0
C6 C 0.17028 0.21913 0.21159 0.0
C7 C 0.1997 0.27817 0.24006 0.0
C8 C 0.16859 0.28621 0.23642 0.0
C9 C 0.13815 0.2613 0.21938 0.0
C10 C 0.23666 0.23969 0.22543 0.0
O11 O 0.27672 0.30642 0.29162 0.0
O12 O 0.31423 0.319 0.33452 0.0
O13 O 0.36361 0.3367 0.27822 0.0
O14 O 0.33839 0.29476 0.23728 0.0
C15 C 0.28636 0.32255 0.32089 0.0
O16 O 0.37893 0.30439 0.35939 0.0
O17 O 0.41472 0.32558 0.31911 0.0
O18 O 0.37615 0.25918 0.27433 0.0
O19 O 0.32206 0.22534 0.24894 0.0
O20 O 0.26774 0.23851 0.30732 0.0
O21 O 0.32104 0.23869 0.3258 0.0
C22 C 0.36024 0.32737 0.24757 0.0
O23 O 0.26604 0.26887 0.22282 0.0
O24 O 0.24066 0.21995 0.24636 0.0
C25 C 0.43787 0.30129 0.35628 0.0
C26 C 0.48524 0.26675 0.3698 0.0
C27 C 0.49681 0.30471 0.37448 0.0
C28 C 0.47322 0.32185 0.36778 0.0
C29 C 0.42674 0.26364 0.35051 0.0
C30 C 0.45006 0.24652 0.35738 0.0
C31 C 0.41298 0.31876 0.34874 0.0
H32 H 0.11551 0.20672 0.19575 0.0
H33 H 0.17092 0.19335 0.20132 0.0
H34 H 0.22333 0.29873 0.25181 0.0
H35 H 0.16979 0.31309 0.24502 0.0
H36 H 0.52388 0.32111 0.38366 0.0
H37 H 0.48244 0.35105 0.37172 0.0
H38 H 0.39971 0.24738 0.34111 0.0
H39 H 0.43984 0.21727 0.35402 0.0
Tb40 Tb 0.81156 0.25079 0.29022 0.0
Eu41 Eu 0.73682 0.27088 0.28716 0.0
C42 C 0.73713 0.19298 0.26646 0.0
C43 C 0.80571 0.29889 0.24024 0.0
C44 C 0.88608 0.21283 0.29533 0.0
C45 C 0.92958 0.1828 0.28278 0.0
C46 C 0.91216 0.20514 0.27449 0.0
C47 C 0.87677 0.19708 0.32423 0.0
C48 C 0.89433 0.1749 0.33263 0.0
C49 C 0.92131 0.16786 0.31218 0.0
C50 C 0.87078 0.23894 0.28704 0.0
O51 O 0.82636 0.30766 0.30805 0.0
O52 O 0.76992 0.30879 0.32592 0.0
O53 O 0.72457 0.233 0.32518 0.0
O54 O 0.78237 0.23336 0.33505 0.0
C55 C 0.80594 0.32227 0.32611 0.0
O56 O 0.68881 0.2794 0.31008 0.0
O57 O 0.69643 0.27867 0.25862 0.0
O58 O 0.7301 0.21961 0.25689 0.0
O59 O 0.76666 0.19859 0.28254 0.0
O60 O 0.80794 0.26775 0.24377 0.0
O61 O 0.78258 0.30966 0.25849 0.0
C62 C 0.74702 0.22557 0.34256 0.0
O63 O 0.84654 0.22783 0.26455 0.0
O64 O 0.8618 0.25845 0.31055 0.0
C65 C 0.66568 0.31537 0.28479 0.0
C66 C 0.64033 0.37228 0.28399 0.0
C67 C 0.62059 0.34258 0.30125 0.0
C68 C 0.63314 0.31429 0.30153 0.0
C69 C 0.68656 0.34579 0.26906 0.0
C70 C 0.67392 0.37386 0.2685 0.0
C71 C 0.67691 0.28427 0.28355 0.0
H72 H 0.9498 0.17756 0.26629 0.0
H73 H 0.9196 0.21703 0.25202 0.0
H74 H 0.85665 0.20263 0.34066 0.0
H75 H 0.88764 0.16432 0.35568 0.0
H76 H 0.5949 0.34066 0.31371 0.0
H77 H 0.61696 0.29113 0.31418 0.0
H78 H 0.71203 0.34737 0.25632 0.0
H79 H 0.68959 0.39584 0.2544 0.0
Tb80 Tb 0.7945 0.76257 0.30067 0.0
Eu81 Eu 0.8728 0.82146 0.27954 0.0
C82 C 0.83256 0.74829 0.23891 0.0
C83 C 0.86843 0.75568 0.32548 0.0
C84 C 0.69642 0.71902 0.32007 0.0
C85 C 0.65015 0.71215 0.36241 0.0
C86 C 0.67547 0.69998 0.34501 0.0
C87 C 0.68861 0.7476 0.31018 0.0
C88 C 0.66316 0.75963 0.32742 0.0
C89 C 0.64558 0.74344 0.35491 0.0
C90 C 0.73157 0.71529 0.31059 0.0
O91 O 0.80136 0.80616 0.33853 0.0
O92 O 0.85369 0.8507 0.32048 0.0
O93 O 0.83265 0.84352 0.26007 0.0
O94 O 0.77843 0.79578 0.26855 0.0
C95 C 0.82642 0.83916 0.34119 0.0
O96 O 0.92755 0.86068 0.29274 0.0
O97 O 0.91185 0.84971 0.24338 0.0
O98 O 0.84978 0.78271 0.23657 0.0
O99 O 0.82405 0.73756 0.26731 0.0
O100 O 0.83212 0.74686 0.32811 0.0
O101 O 0.88806 0.78068 0.30621 0.0
C102 C 0.79661 0.82697 0.2559 0.0
O103 O 0.74483 0.72394 0.28222 0.0
O104 O 0.75668 0.72959 0.33217 0.0
C105 C 0.97096 0.8542 0.25355 0.0
C106 C 1.00607 0.81118 0.22033 0.0
C107 C 1.00612 0.84204 0.20747 0.0
C108 C 0.9885 0.86344 0.22404 0.0
C109 C 0.9762 0.82701 0.26851 0.0
C110 C 0.99358 0.80556 0.25196 0.0
C111 C 0.939 0.86394 0.26312 0.0
H112 H 0.63649 0.69899 0.3833 0.0
H113 H 0.68127 0.67795 0.35299 0.0
H114 H 0.70463 0.76287 0.2911 0.0
H115 H 0.66028 0.78388 0.32118 0.0
H116 H 1.01655 0.84756 0.18345 0.0
H117 H 0.98487 0.88444 0.2122 0.0
H118 H 0.9631 0.81944 0.2914 0.0
H119 H 0.99326 0.78216 0.26268 0.0
Tb120 Tb 0.33945 0.74251 0.2956 0.0
Eu121 Eu 0.3134 0.79545 0.25758 0.0
C122 C 0.34326 0.81791 0.32958 0.0
C123 C 0.2591 0.73972 0.3017 0.0
C124 C 0.35539 0.66189 0.30634 0.0
C125 C 0.32131 0.61327 0.26726 0.0
C126 C 0.32175 0.63928 0.29236 0.0
C127 C 0.38715 0.65392 0.29853 0.0
C128 C 0.38673 0.62815 0.27316 0.0
C129 C 0.35446 0.61003 0.25569 0.0
C130 C 0.36014 0.69889 0.31973 0.0
O131 O 0.32623 0.71371 0.24803 0.0
O132 O 0.29109 0.74174 0.22863 0.0
O133 O 0.3638 0.78992 0.2333 0.0
O134 O 0.38772 0.78691 0.27979 0.0
C135 C 0.30292 0.71501 0.22742 0.0
O136 O 0.27205 0.80762 0.23416 0.0
O137 O 0.32824 0.84678 0.23707 0.0
O138 O 0.34268 0.82899 0.30154 0.0
O139 O 0.33661 0.78375 0.3329 0.0
O140 O 0.27956 0.7204 0.29439 0.0
O141 O 0.27112 0.77379 0.29634 0.0
C142 C 0.39237 0.79456 0.25012 0.0
O143 O 0.38146 0.72366 0.30211 0.0
O144 O 0.33033 0.70488 0.32931 0.0
C145 C 0.27959 0.86753 0.25135 0.0
C146 C 0.24833 0.89364 0.30546 0.0
C147 C 0.28683 0.907 0.30057 0.0
C148 C 0.3024 0.89408 0.27367 0.0
C149 C 0.24127 0.85903 0.2536 0.0
C150 C 0.22567 0.87174 0.28065 0.0
C151 C 0.29362 0.84154 0.23297 0.0
H152 H 0.29601 0.59881 0.25443 0.0
H153 H 0.29668 0.64451 0.29799 0.0
H154 H 0.41336 0.67093 0.30903 0.0
H155 H 0.41265 0.62597 0.26467 0.0
H156 H 0.30496 0.92496 0.31882 0.0
H157 H 0.33215 0.90197 0.27232 0.0
H158 H 0.22307 0.83904 0.2365 0.0
H159 H 0.19586 0.86125 0.2835 0.0
Tb160 Tb 0.33185 0.74598 0.79332 0.0
Eu161 Eu 0.27338 0.78568 0.81546 0.0
C162 C 0.26262 0.73093 0.75102 0.0
C163 C 0.33775 0.81736 0.76462 0.0
C164 C 0.40762 0.7092 0.78849 0.0
C165 C 0.43306 0.665 0.79911 0.0
C166 C 0.40547 0.67333 0.78639 0.0
C167 C 0.43839 0.73683 0.80282 0.0
C168 C 0.46614 0.72854 0.81531 0.0
C169 C 0.4636 0.69248 0.81395 0.0
C170 C 0.37809 0.71721 0.77486 0.0
O171 O 0.36072 0.78741 0.8318 0.0
O172 O 0.31322 0.80201 0.85665 0.0
O173 O 0.25132 0.73176 0.83547 0.0
O174 O 0.30459 0.72048 0.83581 0.0
C175 C 0.34768 0.8037 0.8559 0.0
O176 O 0.25949 0.83188 0.83511 0.0
O177 O 0.21589 0.78118 0.82017 0.0
O178 O 0.26092 0.76184 0.76381 0.0
O179 O 0.28267 0.71639 0.76419 0.0
O180 O 0.33914 0.78502 0.75916 0.0
O181 O 0.31879 0.82565 0.78877 0.0
C182 C 0.27006 0.7138 0.84501 0.0
O183 O 0.34427 0.69899 0.78403 0.0
O184 O 0.38382 0.75116 0.77333 0.0
C185 C 0.20774 0.83442 0.81155 0.0
C186 C 0.17475 0.86932 0.7761 0.0
C187 C 0.16109 0.85987 0.80683 0.0
C188 C 0.17752 0.84257 0.82443 0.0
C189 C 0.22143 0.8437 0.78093 0.0
C190 C 0.20512 0.86099 0.76338 0.0
C191 C 0.22435 0.81537 0.82958 0.0
H192 H 0.42983 0.63688 0.79811 0.0
H193 H 0.38215 0.65163 0.77524 0.0
H194 H 0.44103 0.76484 0.80456 0.0
H195 H 0.48949 0.75041 0.82622 0.0
H196 H 0.13792 0.86611 0.81736 0.0
H197 H 0.16657 0.83545 0.84802 0.0
H198 H 0.24456 0.83727 0.77051 0.0
H199 H 0.21591 0.86726 0.73958 0.0
Tb200 Tb 0.30944 0.30212 0.77319 0.0
Eu201 Eu 0.30482 0.23785 0.81906 0.0
C202 C 0.36355 0.31918 0.82922 0.0
C203 C 0.36086 0.25642 0.75961 0.0
C204 C 0.27741 0.35739 0.72472 0.0
C205 C 0.25328 0.40342 0.71643 0.0
C206 C 0.27866 0.39296 0.73046 0.0
C207 C 0.24953 0.33213 0.70526 0.0
C208 C 0.22416 0.34262 0.69112 0.0
C209 C 0.22611 0.37859 0.69607 0.0
C210 C 0.30647 0.34786 0.73787 0.0
O211 O 0.25908 0.25554 0.76257 0.0
O212 O 0.27857 0.2111 0.77295 0.0
O213 O 0.25346 0.25017 0.83033 0.0
O214 O 0.27866 0.30839 0.81665 0.0
C215 C 0.25884 0.22263 0.75646 0.0
O216 O 0.30023 0.18298 0.82484 0.0
O217 O 0.30455 0.22098 0.86657 0.0
O218 O 0.33933 0.29171 0.8426 0.0
O219 O 0.36055 0.32517 0.79971 0.0
O220 O 0.34107 0.2723 0.74808 0.0
O221 O 0.35729 0.24896 0.78947 0.0
C222 C 0.25376 0.2832 0.83221 0.0
O223 O 0.3112 0.35456 0.76856 0.0
O224 O 0.30837 0.3168 0.72724 0.0
C225 C 0.33449 0.17995 0.86804 0.0
C226 C 0.39043 0.16315 0.89347 0.0
C227 C 0.36124 0.16669 0.91308 0.0
C228 C 0.3335 0.17489 0.90044 0.0
C229 C 0.36376 0.17667 0.84837 0.0
C230 C 0.39134 0.16809 0.86095 0.0
C231 C 0.30545 0.18961 0.85549 0.0
H232 H 0.25524 0.43117 0.72129 0.0
H233 H 0.29977 0.41293 0.7454 0.0
H234 H 0.24777 0.30444 0.70034 0.0
H235 H 0.20388 0.32283 0.67539 0.0
H236 H 0.35961 0.16264 0.93816 0.0
H237 H 0.31127 0.1774 0.91603 0.0
H238 H 0.36546 0.1809 0.82333 0.0
H239 H 0.41366 0.16583 0.84536 0.0
Tb240 Tb 0.84903 0.26776 0.78435 0.0
Eu241 Eu 0.77552 0.28297 0.77587 0.0
C242 C 0.83414 0.33023 0.82487 0.0
C243 C 0.77769 0.22905 0.82773 0.0
C244 C 0.94382 0.27633 0.77087 0.0
C245 C 0.98667 0.26091 0.73391 0.0
C246 C 0.96498 0.25523 0.76184 0.0
C247 C 0.94886 0.30651 0.75448 0.0
C248 C 0.97027 0.31198 0.72641 0.0
C249 C 0.98684 0.28741 0.71471 0.0
C250 C 0.90982 0.26096 0.78983 0.0
O251 O 0.81164 0.22031 0.75605 0.0
O252 O 0.78175 0.24921 0.73192 0.0
O253 O 0.82058 0.32409 0.74736 0.0
O254 O 0.86204 0.2958 0.74025 0.0
C255 C 0.79259 0.22218 0.73227 0.0
O256 O 0.71558 0.26488 0.77133 0.0
O257 O 0.74995 0.32169 0.77103 0.0
O258 O 0.79895 0.31102 0.82291 0.0
O259 O 0.85726 0.32271 0.80422 0.0
O260 O 0.81418 0.24351 0.82549 0.0
O261 O 0.75748 0.23609 0.80748 0.0
C262 C 0.85031 0.3208 0.73285 0.0
O263 O 0.89924 0.28381 0.80822 0.0
O264 O 0.88262 0.23761 0.77324 0.0
C265 C 0.69937 0.30772 0.80595 0.0
C266 C 0.70307 0.33866 0.86917 0.0
C267 C 0.70444 0.35925 0.84405 0.0
C268 C 0.70204 0.34371 0.81258 0.0
C269 C 0.69289 0.28599 0.83135 0.0
C270 C 0.69472 0.30142 0.86282 0.0
C271 C 0.71684 0.29813 0.77621 0.0
H272 H 0.9992 0.24154 0.72528 0.0
H273 H 0.96132 0.23179 0.77414 0.0
H274 H 0.9329 0.32332 0.76119 0.0
H275 H 0.97046 0.3328 0.71208 0.0
H276 H 0.70997 0.38792 0.84864 0.0
H277 H 0.70704 0.361 0.79347 0.0
H278 H 0.69063 0.25809 0.82713 0.0
H279 H 0.69307 0.28498 0.88196 0.0
Tb280 Tb 0.79082 0.7708 0.76661 0.0
Eu281 Eu 0.86706 0.79018 0.80638 0.0
C282 C 0.84849 0.7353 0.742 0.0
C283 C 0.79408 0.7252 0.82173 0.0
C284 C 0.70795 0.777 0.7317 0.0
C285 C 0.6946 0.81749 0.70013 0.0
C286 C 0.71675 0.79869 0.70621 0.0
C287 C 0.67614 0.77407 0.75062 0.0
C288 C 0.654 0.79296 0.74458 0.0
C289 C 0.6631 0.81505 0.71935 0.0
C290 C 0.73114 0.75681 0.73824 0.0
O291 O 0.79427 0.81835 0.7995 0.0
O292 O 0.82923 0.81116 0.83793 0.0
O293 O 0.87585 0.83995 0.78185 0.0
O294 O 0.83356 0.81278 0.74235 0.0
C295 C 0.8053 0.82403 0.82919 0.0
O296 O 0.89458 0.79472 0.8509 0.0
O297 O 0.92705 0.80658 0.80727 0.0
O298 O 0.87382 0.76086 0.75927 0.0
O299 O 0.81318 0.73017 0.74604 0.0
O300 O 0.77606 0.74166 0.80875 0.0
O301 O 0.82965 0.73383 0.8164 0.0
C302 C 0.86253 0.83988 0.75402 0.0
O303 O 0.76343 0.76526 0.72393 0.0
O304 O 0.73284 0.75178 0.7679 0.0
C305 C 0.94519 0.77647 0.84358 0.0
C306 C 0.97777 0.72869 0.859 0.0
C307 C 0.99488 0.76616 0.86733 0.0
C308 C 0.97861 0.78986 0.85974 0.0
C309 C 0.92867 0.73929 0.83431 0.0
C310 C 0.94476 0.71561 0.84198 0.0
C311 C 0.92692 0.80088 0.83707 0.0
H312 H 0.70194 0.83359 0.68003 0.0
H313 H 0.7407 0.80113 0.69084 0.0
H314 H 0.66839 0.7572 0.77022 0.0
H315 H 0.63001 0.7906 0.75988 0.0
H316 H 1.02011 0.77699 0.8807 0.0
H317 H 0.99174 0.81852 0.867 0.0
H318 H 0.90296 0.72853 0.82158 0.0
H319 H 0.93116 0.68697 0.8349 0.0
C320 C 1.01183 0.13011 0.54008 0.0
C321 C 1.04025 0.07807 0.45521 0.0
C322 C 0.98805 0.9567 0.5061 0.0
Mg323 Mg 0.07697 0.10563 0.51889 0.0
O324 O 0.04503 0.06565 0.53948 0.0
Mg325 Mg 0.99444 0.04112 0.52161 0.0
Mg326 Mg 0.06207 0.02466 0.53234 0.0
O327 O 0.08012 0.98433 0.52459 0.0
Mg328 Mg 0.05153 0.93751 0.53561 0.0
Mg329 Mg 0.13024 1.0096 0.54367 0.0
C330 C 0.13509 0.09114 0.55874 0.0
C331 C 0.13098 0.04872 0.48025 0.0
O332 O 0.98844 0.09706 0.53787 0.0
O333 O 0.04643 0.13853 0.53401 0.0
O334 O 1.01219 0.05978 0.47159 0.0
O335 O 0.07122 0.09646 0.46805 0.0
O336 O 0.12729 0.11307 0.54322 0.0
O337 O 0.11325 0.05808 0.55989 0.0
C338 C 0.99648 1.00602 0.58729 0.0
O339 O 1.02774 1.00444 0.57757 0.0
O340 O 0.97922 0.0198 0.57112 0.0
O341 O 0.14191 0.95948 0.52177 0.0
O342 O 0.08784 0.91344 0.51097 0.0
O343 O 0.11069 0.98369 0.59086 0.0
C344 C 0.12329 0.92733 0.50944 0.0
O345 O 0.05638 0.93756 0.58627 0.0
O346 O 0.99912 0.93313 0.51567 0.0
C347 C 0.08385 0.95839 0.60289 0.0
O348 O 1.00903 0.99035 0.50687 0.0
O349 O 0.09759 0.04629 0.48699 0.0
O350 O 0.14803 0.03622 0.49768 0.0
C351 C 0.51182 0.09116 0.12301 0.0
C352 C 0.54202 0.08072 0.02196 0.0
C353 C 0.53489 0.94218 0.03047 0.0
Mg354 Mg 0.58708 0.09744 0.08412 0.0
O355 O 0.57252 0.04619 0.08385 0.0
Mg356 Mg 0.52008 0.01595 0.07232 0.0
Mg357 Mg 0.60233 0.0138 0.06297 0.0
O358 O 0.62936 0.98092 0.04437 0.0
Mg359 Mg 0.61221 0.93082 0.04971 0.0
Mg360 Mg 0.68214 1.00925 0.05582 0.0
C361 C 0.64716 0.07238 0.10215 0.0
C362 C 0.66105 0.0583 1.00603 0.0
O363 O 0.49763 0.05868 0.10833 0.0
O364 O 0.54675 0.10957 0.11959 0.0
O365 O 0.52231 0.04961 0.03095 0.0
O366 O 0.56937 0.10289 0.03807 0.0
O367 O 0.64228 0.09388 0.08416 0.0
O368 O 0.65762 0.04692 0.09018 0.0
C369 C 0.54762 0.97315 0.12055 0.0
O370 O 0.57825 0.97968 0.1048 0.0
O371 O 0.52268 0.98436 0.11323 0.0
O372 O 0.69808 0.96968 1.01746 0.0
O373 O 0.6477 0.91832 1.01202 0.0
O374 O 0.68486 0.97077 0.09687 0.0
C375 C 0.68101 0.93757 1.00398 0.0
O376 O 0.63531 0.91973 0.09394 0.0
O377 O 0.55458 0.92325 0.03498 0.0
C378 C 0.66664 0.93924 0.10666 0.0
O379 O 0.5469 0.97706 0.0383 0.0
O380 O 0.6283 0.05052 0.01885 0.0
O381 O 0.68341 0.04565 1.01632 0.0
C382 C 1.02801 0.60153 0.07882 0.0
C383 C 0.05481 0.57487 0.98179 0.0
C384 C 0.98796 0.43859 1.00035 0.0
Mg385 Mg 0.08708 0.57533 0.045 0.0
O386 O 0.05013 0.53234 0.05702 0.0
Mg387 Mg 1.00141 0.51996 0.03651 0.0
Mg388 Mg 0.06197 0.48987 0.04036 0.0
O389 O 0.07526 0.44865 0.0217 0.0
Mg390 Mg 1.04126 0.40089 0.02094 0.0
Mg391 Mg 0.12384 0.4625 0.04284 0.0
C392 C 0.13895 0.54272 0.0739 0.0
C393 C 0.13307 0.52047 0.99166 0.0
O394 O 1.00128 0.57279 0.06776 0.0
O395 O 0.06203 0.60717 0.07227 0.0
O396 O 1.02478 0.55357 0.99378 0.0
O397 O 0.08511 0.5853 0.99639 0.0
O398 O 0.13454 0.56983 0.0639 0.0
O399 O 0.11369 0.5107 0.07161 0.0
C400 C 0.98999 0.46268 0.0894 0.0
O401 O 1.02069 0.45921 0.08006 0.0
O402 O 0.97881 0.48454 0.07724 0.0
O403 O 0.13022 0.41438 1.01044 0.0
O404 O 0.07489 0.37563 0.9927 0.0
O405 O 0.09577 0.42438 0.08249 0.0
C406 C 0.11018 0.38576 0.99345 0.0
O407 O 1.03848 0.38753 0.06889 0.0
O408 O 0.99431 0.40968 1.00257 0.0
C409 C 0.0647 0.39945 0.0887 0.0
O410 O 1.01119 0.47017 1.00961 0.0
O411 O 0.10103 0.51998 1.00108 0.0
O412 O 0.14802 0.50135 1.00363 0.0
C413 C 0.47908 0.58805 0.05441 0.0
C414 C 0.55757 0.59708 0.97248 0.0
C415 C 0.54538 0.46392 0.99607 0.0
Mg416 Mg 0.56454 0.61194 0.04567 0.0
O417 O 0.55019 0.56189 0.04697 0.0
Mg418 Mg 0.51207 0.52737 1.01694 0.0
Mg419 Mg 0.58586 0.5374 0.04335 0.0
O420 O 0.6214 0.51224 0.04003 0.0
Mg421 Mg 0.60095 0.46357 0.04791 0.0
Mg422 Mg 0.65829 0.5464 0.071 0.0
C423 C 0.62973 0.61254 0.08792 0.0
C424 C 0.66115 0.58446 1.00612 0.0
O425 O 0.47506 0.55855 0.03682 0.0
O426 O 0.51095 0.6123 0.06124 0.0
O427 O 0.53516 0.5649 0.97653 0.0
O428 O 0.57365 0.61956 0.99585 0.0
O429 O 0.61249 0.63055 0.07727 0.0
O430 O 0.62007 0.57834 0.08095 0.0
C431 C 0.51055 0.48711 0.07965 0.0
O432 O 0.54599 0.50138 0.07982 0.0
O433 O 0.49219 0.49218 0.05792 0.0
O434 O 0.69291 0.51036 0.05756 0.0
O435 O 0.65148 0.45451 0.04324 0.0
O436 O 0.63082 0.51342 0.11375 0.0
C437 C 0.68465 0.47663 0.04837 0.0
O438 O 0.58512 0.462 0.09717 0.0
O439 O 0.56042 0.44611 1.00998 0.0
C440 C 0.60354 0.48452 0.1195 0.0
O441 O 0.55237 0.49763 1.00414 0.0
O442 O 0.62568 0.57288 1.00759 0.0
O443 O 0.67985 0.57819 0.02708 0.0
C444 C 0.96314 0.6169 0.56284 0.0
C445 C 0.98829 0.62284 0.46351 0.0
C446 C 0.98493 0.47879 0.471 0.0
Mg447 Mg 1.03692 0.62571 0.52328 0.0
O448 O 1.01842 0.57544 0.52701 0.0
Mg449 Mg 0.96727 0.54805 0.50978 0.0
Mg450 Mg 0.04786 0.54372 0.5102 0.0
O451 O 0.0769 0.51291 0.48997 0.0
Mg452 Mg 0.05893 0.46197 0.48586 0.0
Mg453 Mg 0.12751 0.53946 0.50716 0.0
C454 C 0.11021 0.61206 0.54989 0.0
C455 C 0.11077 0.59072 0.46065 0.0
O456 O 0.94654 0.58585 0.54713 0.0
O457 O 0.99761 0.63541 0.55814 0.0
O458 O 0.96937 0.5901 0.4703 0.0
O459 O 1.01834 0.64107 0.47869 0.0
O460 O 0.09172 0.63138 0.54326 0.0
O461 O 0.09916 0.57747 0.54087 0.0
C462 C 0.98185 0.4953 0.56043 0.0
O463 O 1.01595 0.50391 0.55073 0.0
O464 O 0.96102 0.5087 0.54848 0.0
O465 O 0.15093 0.49769 0.46993 0.0
O466 O 0.10116 0.44953 0.4536 0.0
O467 O 0.11629 0.49975 0.54537 0.0
C468 C 0.1365 0.46656 0.45286 0.0
O469 O 0.06771 0.44891 0.53279 0.0
O470 O 1.00282 0.45746 0.47188 0.0
C471 C 0.09378 0.46835 0.5516 0.0
O472 O 0.99856 0.51283 0.47975 0.0
O473 O 0.07741 0.58126 0.47156 0.0
O474 O 0.13398 0.57843 0.46997 0.0
C475 C 0.48853 0.12821 0.6046 0.0
C476 C 0.53163 0.11475 0.50742 0.0
C477 C 0.45863 0.97158 0.51784 0.0
Mg478 Mg 0.55596 0.11238 0.57456 0.0
O479 O 0.5216 0.06485 0.574 0.0
Mg480 Mg 0.47293 0.05194 0.55347 0.0
Mg481 Mg 0.5347 0.02418 0.55375 0.0
O482 O 0.54724 0.98268 0.53493 0.0
Mg483 Mg 0.51154 0.93771 0.54422 0.0
Mg484 Mg 0.59682 0.99597 0.55432 0.0
C485 C 0.61009 0.07514 0.5923 0.0
C486 C 0.60435 0.05459 0.50424 0.0
O487 O 0.46729 0.1003 0.58742 0.0
O488 O 0.52372 0.1374 0.60428 0.0
O489 O 0.50032 0.09032 0.51387 0.0
O490 O 0.55808 0.12613 0.52696 0.0
O491 O 0.60379 0.10416 0.59102 0.0
O492 O 0.58648 0.04365 0.58357 0.0
C493 C 0.46577 0.9937 0.60354 0.0
O494 O 0.49708 0.99339 0.59273 0.0
O495 O 0.45047 0.01311 0.59255 0.0
O496 O 0.59855 0.94498 0.52178 0.0
O497 O 0.53879 0.90818 0.51528 0.0
O498 O 0.57416 0.96102 0.59585 0.0
C499 C 0.57335 0.91569 0.50967 0.0
O500 O 0.51438 0.92652 0.59243 0.0
O501 O 0.46374 0.94392 0.52599 0.0
C502 C 0.54462 0.93843 0.60732 0.0
O503 O 0.48294 1.00393 0.52286 0.0
O504 O 0.5732 0.05574 0.5148 0.0
O505 O 0.61816 0.03366 0.51465 0.0
H506 H 0.21243 0.20882 0.34346 0.0
H507 H 0.30616 0.17963 0.35523 0.0
H508 H 0.17512 0.16396 0.37842 0.0
H509 H 0.26828 0.13314 0.38901 0.0
H510 H 0.20511 0.08468 0.47746 0.0
H511 H 0.24154 0.12544 0.43934 0.0
H512 H 0.14328 0.10315 0.38589 0.0
H513 H 0.10639 0.06295 0.42526 0.0
C514 C 0.22499 0.19247 0.35326 0.0
C515 C 0.2624 0.19799 0.3467 0.0
C516 C 0.20339 0.16638 0.37315 0.0
C517 C 0.21838 0.14459 0.38673 0.0
C518 C 0.25575 0.14975 0.37963 0.0
C519 C 0.27756 0.17634 0.36011 0.0
C520 C 0.19121 0.08805 0.45737 0.0
C521 C 0.15269 0.07064 0.45454 0.0
C522 C 0.21228 0.11147 0.43528 0.0
C523 C 0.19567 0.11787 0.40926 0.0
C524 C 0.15714 0.09958 0.40588 0.0
C525 C 0.13588 0.07639 0.42838 0.0
H526 H 0.9952 0.18049 0.30312 0.0
H527 H 0.89468 0.10763 0.34468 0.0
H528 H 1.03048 0.1509 0.3262 0.0
H529 H 0.92995 0.07977 0.36943 0.0
H530 H 0.99058 0.02992 0.41374 0.0
H531 H 0.96633 0.04478 0.36786 0.0
H532 H 0.04974 0.15287 0.37821 0.0
H533 H 0.07506 0.13717 0.42274 0.0
C534 C 0.98049 0.15776 0.31672 0.0
C535 C 0.94212 0.14681 0.32249 0.0
C536 C 1.00083 0.14102 0.33024 0.0
C537 C 0.9833 0.11317 0.35005 0.0
C538 C 0.94459 0.10081 0.35408 0.0
C539 C 0.92428 0.11727 0.34034 0.0
C540 C 1.00457 0.05638 0.40532 0.0
C541 C 1.0341 0.0827 0.42219 0.0
C542 C 0.99046 0.06505 0.37924 0.0
C543 C 1.00509 0.10047 0.37007 0.0
C544 C 1.03754 0.12535 0.38456 0.0
C545 C 0.05213 0.11639 0.41024 0.0
H546 H 0.86153 0.91212 0.34994 0.0
H547 H 0.79825 0.81961 0.40048 0.0
H548 H 0.88866 0.94546 0.39913 0.0
H549 H 0.82404 0.85383 0.4506 0.0
H550 H 0.93772 0.88746 0.49907 0.0
H551 H 0.88348 0.86435 0.46683 0.0
H552 H 0.89779 0.97345 0.45065 0.0
H553 H 0.95367 0.99647 0.48158 0.0
C554 C 0.85211 0.89945 0.37189 0.0
C555 C 0.82897 0.86278 0.37119 0.0
C556 C 0.86755 0.91877 0.40039 0.0
C557 C 0.85981 0.90188 0.42887 0.0
C558 C 0.83176 0.86719 0.42889 0.0
C559 C 0.81655 0.84767 0.40019 0.0
C560 C 0.92907 0.90673 0.48912 0.0
C561 C 0.95082 0.94386 0.49226 0.0
C562 C 0.89739 0.89338 0.47087 0.0
C563 C 0.88632 0.9169 0.45549 0.0
C564 C 0.90593 0.95439 0.46143 0.0
C565 C 0.93803 0.96773 0.47936 0.0
H566 H 0.1844 0.90516 0.3219 0.0
H567 H 0.27509 0.88843 0.36201 0.0
H568 H 0.15468 0.90372 0.37462 0.0
H569 H 0.2456 0.8877 0.41473 0.0
H570 H 0.19788 0.94479 0.50247 0.0
H571 H 0.22968 0.93221 0.45384 0.0
H572 H 0.12558 0.85854 0.41523 0.0
H573 H 0.09351 0.87121 0.46371 0.0
C574 C 0.19802 0.90131 0.34195 0.0
C575 C 0.23219 0.89722 0.33779 0.0
C576 C 0.18088 0.90014 0.37204 0.0
C577 C 0.19763 0.89498 0.39858 0.0
C578 C 0.23213 0.89167 0.39463 0.0
C579 C 0.24917 0.89258 0.3645 0.0
C580 C 0.18186 0.92495 0.48409 0.0
C581 C 0.14305 0.90981 0.48657 0.0
C582 C 0.20013 0.91778 0.45622 0.0
C583 C 0.17985 0.89533 0.4305 0.0
C584 C 0.14164 0.87672 0.43451 0.0
C585 C 0.12337 0.88371 0.46244 0.0
H586 H 0.10081 0.85439 0.76954 0.0
H587 H 0.2092 0.92479 0.73924 0.0
H588 H 0.07258 0.88064 0.73436 0.0
H589 H 0.1813 0.94974 0.70324 0.0
H590 H 0.04783 0.89524 0.63019 0.0
H591 H 0.06584 0.87747 0.67777 0.0
H592 H 0.14619 0.98586 0.69755 0.0
H593 H 0.12907 1.00323 0.64935 0.0
C594 C 0.1186 0.87576 0.75568 0.0
C595 C 0.15728 0.88724 0.75694 0.0
C596 C 0.10243 0.89058 0.73531 0.0
C597 C 0.12459 0.91726 0.71584 0.0
C598 C 0.16325 0.92965 0.71814 0.0
C599 C 0.17934 0.91492 0.73846 0.0
C600 C 0.06869 0.91551 0.64512 0.0
C601 C 0.08765 0.95038 0.63558 0.0
C602 C 0.07899 0.90535 0.67252 0.0
C603 C 0.10816 0.92999 0.6911 0.0
C604 C 0.12441 0.96589 0.68325 0.0
C605 C 0.11442 0.97592 0.65572 0.0
H606 H 0.2611 0.15735 0.73297 0.0
H607 H 0.21889 0.23822 0.71359 0.0
H608 H 0.24064 0.12469 0.68128 0.0
H609 H 0.19761 0.20492 0.66214 0.0
H610 H 0.14926 0.0585 0.60689 0.0
H611 H 0.18325 0.08969 0.65441 0.0
H612 H 0.2235 0.18997 0.61031 0.0
H613 H 0.18869 0.15894 0.56284 0.0
C614 C 0.24698 0.16793 0.71789 0.0
C615 C 0.24161 0.20044 0.72734 0.0
C616 C 0.23544 0.14923 0.68822 0.0
C617 C 0.21819 0.1626 0.6675 0.0
C618 C 0.21181 0.19453 0.67731 0.0
C619 C 0.22346 0.21331 0.70696 0.0
C620 C 0.16629 0.08695 0.60682 0.0
C621 C 0.16535 0.10653 0.58152 0.0
C622 C 0.18576 0.10485 0.63416 0.0
C623 C 0.20492 0.14247 0.63638 0.0
C624 C 0.20785 0.16113 0.60953 0.0
C625 C 0.18823 0.14329 0.58225 0.0
H626 H 0.04916 0.28347 0.68401 0.0
H627 H 0.93806 0.27526 0.66842 0.0
H628 H 0.05095 0.25294 0.63071 0.0
H629 H 0.93951 0.24396 0.61558 0.0
H630 H 0.04808 0.20148 0.53312 0.0
H631 H 1.04158 0.25164 0.56781 0.0
H632 H 0.94377 0.17766 0.61159 0.0
H633 H 0.95066 0.12694 0.57742 0.0
C634 C 1.02587 0.27661 0.66861 0.0
C635 C 0.99357 0.28167 0.68017 0.0
C636 C 1.02678 0.25914 0.63821 0.0
C637 C 0.99514 0.2459 0.61938 0.0
C638 C 0.96413 0.25398 0.62975 0.0
C639 C 0.96352 0.27215 0.65983 0.0
C640 C 1.02453 0.19592 0.54953 0.0
C641 C 1.00043 0.16012 0.55328 0.0
C642 C 1.02084 0.22473 0.56921 0.0
C643 C 0.99257 0.2183 0.59248 0.0
C644 C 0.96577 0.18318 0.59362 0.0
C645 C 0.9697 0.15415 0.57412 0.0
H646 H 0.83815 0.85236 0.69916 0.0
H647 H 0.93047 0.89505 0.76263 0.0
H648 H 0.87129 0.89708 0.66277 0.0
H649 H 0.96359 0.94069 0.72618 0.0
H650 H 1.02574 0.97851 0.63043 0.0
H651 H 0.99349 0.94261 0.67369 0.0
H652 H 0.89449 0.96013 0.6549 0.0
H653 H 0.92636 0.99477 0.61082 0.0
C654 C 0.86539 0.87161 0.70562 0.0
C655 C 0.88169 0.86988 0.73381 0.0
C656 C 0.88434 0.89755 0.68477 0.0
C657 C 0.92018 0.92259 0.69146 0.0
C658 C 0.93617 0.92158 0.72012 0.0
C659 C 0.91708 0.89558 0.74113 0.0
C660 C 0.99714 0.97477 0.63553 0.0
C661 C 0.97851 0.98889 0.6166 0.0
C662 C 0.97871 0.9545 0.66065 0.0
C663 C 0.94118 0.94803 0.66759 0.0
C664 C 0.92316 0.96392 0.64981 0.0
C665 C 0.94156 0.98405 0.62463 0.0
H666 H 0.33377 0.17422 0.20445 0.0
H667 H 0.43004 0.23695 0.25925 0.0
H668 H 0.36848 0.14045 0.17449 0.0
H669 H 0.46435 0.20318 0.23019 0.0
H670 H 0.53349 0.15873 0.15799 0.0
H671 H 0.49725 0.19015 0.18751 0.0
H672 H 0.39736 0.09825 0.16477 0.0
H673 H 0.43418 0.06694 0.13437 0.0
C674 C 0.36226 0.18093 0.21046 0.0
C675 C 0.37837 0.20913 0.23484 0.0
C676 C 0.38257 0.16114 0.19307 0.0
C677 C 0.42034 0.16833 0.19888 0.0
C678 C 0.43606 0.19633 0.22359 0.0
C679 C 0.41585 0.21598 0.24086 0.0
C680 C 0.50379 0.14472 0.15921 0.0
C681 C 0.48765 0.10948 0.14326 0.0
C682 C 0.48248 0.16308 0.17671 0.0
C683 C 0.4433 0.14761 0.17959 0.0
C684 C 0.42703 0.1122 0.1636 0.0
C685 C 0.44852 0.09372 0.14605 0.0
H686 H 0.81802 0.36966 0.23291 0.0
H687 H 0.85374 0.28257 0.19691 0.0
H688 H 0.86442 0.40987 0.19884 0.0
H689 H 0.89938 0.3224 0.16215 0.0
H690 H 1.00066 0.41225 0.1234 0.0
H691 H 0.95685 0.37317 0.16032 0.0
H692 H 0.87801 0.42138 0.14515 0.0
H693 H 0.92156 0.46056 0.10947 0.0
C694 C 0.83538 0.35892 0.21739 0.0
C695 C 0.83184 0.32276 0.21756 0.0
C696 C 0.86209 0.382 0.19776 0.0
C697 C 0.88589 0.36954 0.17757 0.0
C698 C 0.8821 0.33325 0.17765 0.0
C699 C 0.85553 0.31023 0.19738 0.0
C700 C 0.97409 0.41462 0.12816 0.0
C701 C 0.96491 0.43972 0.11334 0.0
C702 C 0.94878 0.39203 0.1492 0.0
C703 C 0.91367 0.39401 0.15592 0.0
C704 C 0.90485 0.41936 0.14123 0.0
C705 C 0.93 0.44185 0.12045 0.0
H706 H 0.72111 0.80394 0.24093 0.0
H707 H 0.82524 0.88874 0.22269 0.0
H708 H 0.69024 0.83016 0.20803 0.0
H709 H 0.79504 0.91451 0.1892 0.0
H710 H 0.73359 0.97134 0.13929 0.0
H711 H 0.76261 0.94603 0.17447 0.0
H712 H 0.66982 0.8445 0.16409 0.0
H713 H 0.64055 0.87049 0.12961 0.0
C714 C 0.73778 0.82823 0.22999 0.0
C715 C 0.77635 0.84371 0.2354 0.0
C716 C 0.71979 0.84355 0.21047 0.0
C717 C 0.73913 0.87539 0.19485 0.0
C718 C 0.7778 0.89069 0.20041 0.0
C719 C 0.79567 0.87546 0.21996 0.0
C720 C 0.71893 0.94365 0.14459 0.0
C721 C 0.68393 0.92368 0.13094 0.0
C722 C 0.7361 0.92856 0.16498 0.0
C723 C 0.71967 0.89223 0.17311 0.0
C724 C 0.68436 0.87244 0.15963 0.0
C725 C 0.66714 0.88761 0.13931 0.0
H726 H 0.28975 0.71777 0.16557 0.0
H727 H 0.27936 0.64352 0.23489 0.0
H728 H 0.25803 0.66732 0.12681 0.0
H729 H 0.24906 0.59229 0.19571 0.0
H730 H 0.14173 0.52888 0.13488 0.0
H731 H 0.18961 0.56668 0.1719 0.0
H732 H 0.25867 0.61608 0.09272 0.0
H733 H 0.20985 0.57933 0.05608 0.0
C734 C 0.28146 0.69044 0.17218 0.0
C735 C 0.2876 0.68433 0.20294 0.0
C736 C 0.26364 0.6614 0.14988 0.0
C737 C 0.25126 0.62548 0.1579 0.0
C738 C 0.25817 0.61947 0.18863 0.0
C739 C 0.27594 0.64867 0.21095 0.0
C740 C 0.1679 0.5465 0.12534 0.0
C741 C 0.17211 0.55144 0.09275 0.0
C742 C 0.19537 0.56846 0.14658 0.0
C743 C 0.22759 0.59535 0.13539 0.0
C744 C 0.23372 0.5965 0.10225 0.0
C745 C 0.20606 0.57502 0.08116 0.0
H746 H 0.41393 0.80069 0.87118 0.0
H747 H 0.33969 0.8554 0.90233 0.0
H748 H 0.45512 0.83451 0.91462 0.0
H749 H 0.38145 0.88979 0.94576 0.0
H750 H 0.49291 0.97047 0.99824 0.0
H751 H 0.44644 0.93815 0.95738 0.0
H752 H 0.45559 0.83773 0.97371 0.0
H753 H 0.50082 0.8693 1.01438 0.0
C754 C 0.40627 0.81995 0.88722 0.0
C755 C 0.37303 0.82486 0.88297 0.0
C756 C 0.42999 0.8394 0.9124 0.0
C757 C 0.42188 0.86507 0.93414 0.0
C758 C 0.38896 0.87051 0.92962 0.0
C759 C 0.36479 0.8505 0.9047 0.0
C760 C 0.48437 0.94139 0.99372 0.0
C761 C 0.50119 0.92288 1.00999 0.0
C762 C 0.45776 0.92277 0.97002 0.0
C763 C 0.44748 0.88516 0.9615 0.0
C764 C 0.4631 0.86666 0.97883 0.0
C765 C 0.48909 0.885 1.00259 0.0
H766 H 0.25102 0.35019 0.84404 0.0
H767 H 0.19912 0.2413 0.87165 0.0
H768 H 0.21437 0.37065 0.88433 0.0
H769 H 0.16181 0.26231 0.91225 0.0
H770 H 0.07908 0.32275 0.95424 0.0
H771 H 0.11132 0.2939 0.91536 0.0
H772 H 0.21601 0.37434 0.94608 0.0
H773 H 0.18441 0.40303 0.98475 0.0
C774 C 0.2316 0.33045 0.85851 0.0
C775 C 0.22835 0.29409 0.85479 0.0
C776 C 0.2107 0.34232 0.88171 0.0
C777 C 0.18573 0.31815 0.90162 0.0
C778 C 0.18102 0.28144 0.89716 0.0
C779 C 0.20237 0.2695 0.874 0.0
C780 C 0.10899 0.334 0.95297 0.0
C781 C 0.1291 0.36551 0.97238 0.0
C782 C 0.12736 0.31737 0.93083 0.0
C783 C 0.16603 0.33223 0.92756 0.0
C784 C 0.18611 0.36267 0.94788 0.0
C785 C 0.16792 0.37902 0.9701 0.0
H786 H 0.80994 0.20917 0.87498 0.0
H787 H 0.70266 0.19298 0.84101 0.0
H788 H 0.78091 0.17004 0.91693 0.0
H789 H 0.67327 0.15273 0.88271 0.0
H790 H 0.62967 0.10129 0.9793 0.0
H791 H 0.65618 0.14239 0.93736 0.0
H792 H 0.75089 0.11114 0.9288 0.0
H793 H 0.72523 0.07149 0.97048 0.0
C794 C 0.78006 0.19712 0.8762 0.0
C795 C 0.75905 0.20451 0.85396 0.0
C796 C 0.76312 0.17414 0.90044 0.0
C797 C 0.72422 0.15717 0.90367 0.0
C798 C 0.70313 0.16503 0.88166 0.0
C799 C 0.72016 0.18814 0.85735 0.0
C800 C 0.65612 0.10315 0.96843 0.0
C801 C 0.67507 0.08275 0.97897 0.0
C802 C 0.67148 0.12684 0.94409 0.0
C803 C 0.70641 0.13113 0.92933 0.0
C804 C 0.72465 0.11002 0.93962 0.0
C805 C 0.7095 0.08665 0.96374 0.0
H806 H 0.04997 0.7336 0.85779 0.0
H807 H 0.93933 0.66614 0.88554 0.0
H808 H 0.07412 0.69265 0.87888 0.0
H809 H 0.9631 0.62602 0.90717 0.0
H810 H 1.00405 0.54783 0.93492 0.0
H811 H 0.98967 0.58223 0.89743 0.0
H812 H 0.0842 0.67668 0.92883 0.0
H813 H 0.09956 0.64159 0.96503 0.0
C814 C 1.03084 0.70997 0.86831 0.0
C815 C 0.99274 0.70304 0.86992 0.0
C816 C 1.04464 0.6865 0.8804 0.0
C817 C 1.02063 0.65577 0.89462 0.0
C818 C 0.98247 0.64873 0.89566 0.0
C819 C 0.96874 0.67192 0.88338 0.0
C820 C 1.02239 0.57563 0.93305 0.0
C821 C 0.05249 0.59222 0.95335 0.0
C822 C 1.01395 0.59552 0.91181 0.0
C823 C 1.03495 0.63266 0.91087 0.0
C824 C 0.06725 0.64823 0.92889 0.0
C825 C 0.0761 0.62808 0.94974 0.0
H826 H 0.10197 0.24203 0.16271 0.0
H827 H 0.10959 0.30932 0.2518 0.0
H828 H 0.06971 0.27405 0.13977 0.0
H829 H 0.07906 0.34295 0.22765 0.0
H830 H 0.10911 0.42106 0.14059 0.0
H831 H 0.11175 0.38316 0.18084 0.0
H832 H 1.01494 0.29673 0.14216 0.0
H833 H 1.01176 0.33469 0.1021 0.0
C834 C 0.09566 0.26268 0.17794 0.0
C835 C 0.10943 0.27358 0.20898 0.0
C836 C 0.07716 0.28119 0.16461 0.0
C837 C 0.07246 0.31131 0.18181 0.0
C838 C 0.08279 0.32004 0.21382 0.0
C839 C 0.10058 0.30095 0.22746 0.0
C840 C 0.08769 0.39441 0.14125 0.0
C841 C 0.06084 0.38057 0.11764 0.0
C842 C 0.08901 0.37281 0.1645 0.0
C843 C 0.06375 0.33691 0.1643 0.0
C844 C 1.03481 0.32427 0.14265 0.0
C845 C 1.03313 0.34605 0.1197 0.0
H846 H 0.29356 0.66186 0.8619 0.0
H847 H 0.20376 0.70034 0.87674 0.0
H848 H 0.26094 0.61315 0.89542 0.0
H849 H 0.17187 0.65268 0.91094 0.0
H850 H 0.10523 0.54414 0.94512 0.0
H851 H 0.13884 0.58973 0.90925 0.0
H852 H 0.24196 0.59972 0.94882 0.0
H853 H 0.20806 0.55346 0.98432 0.0
C854 C 0.26704 0.66015 0.87252 0.0
C855 C 0.25126 0.68497 0.86647 0.0
C856 C 0.24835 0.63227 0.89188 0.0
C857 C 0.21354 0.62867 0.90581 0.0
C858 C 0.19816 0.65394 0.9001 0.0
C859 C 0.21666 0.68156 0.88061 0.0
C860 C 0.13508 0.55607 0.94611 0.0
C861 C 0.15395 0.54549 0.96777 0.0
C862 C 0.15443 0.58235 0.92561 0.0
C863 C 0.19323 0.59892 0.92631 0.0
C864 C 0.21217 0.58742 0.94733 0.0
C865 C 0.19276 0.56089 0.96773 0.0
H866 H 0.42759 0.19303 0.94851 0.0
H867 H 0.41871 0.11242 0.8691 0.0
H868 H 0.47129 0.17444 0.97339 0.0
H869 H 0.46293 0.09401 0.89387 0.0
H870 H 0.48946 0.04018 0.97871 0.0
H871 H 0.45877 0.06247 0.94253 0.0
H872 H 0.53418 0.17175 0.96784 0.0
H873 H 0.5649 0.1496 1.00428 0.0
C874 C 0.43527 0.17154 0.93626 0.0
C875 C 0.41949 0.15395 0.90703 0.0
C876 C 0.46063 0.16117 0.9503 0.0
C877 C 0.47058 0.13277 0.93556 0.0
C878 C 0.45566 0.11588 0.90584 0.0
C879 C 0.43052 0.12653 0.89161 0.0
C880 C 0.5001 0.06889 0.97606 0.0
C881 C 0.52926 0.09315 0.99484 0.0
C882 C 0.48257 0.08164 0.95518 0.0
C883 C 0.49371 0.11892 0.95273 0.0
C884 C 0.52464 0.14292 0.96965 0.0
C885 C 0.54238 0.13015 0.99036 0.0
H886 H 0.9021 0.3839 0.8292 0.0
H887 H 0.79846 0.33962 0.88113 0.0
H888 H 0.93009 0.42188 0.87689 0.0
H889 H 0.82674 0.37777 0.9292 0.0
H890 H 0.97983 0.48564 0.9624 0.0
H891 H 0.93304 0.47027 0.92175 0.0
H892 H 0.87519 0.36717 0.95902 0.0
H893 H 0.92183 0.38244 0.99928 0.0
C894 C 0.88505 0.38296 0.85063 0.0
C895 C 0.84841 0.35823 0.85169 0.0
C896 C 0.90096 0.40508 0.87789 0.0
C897 C 0.88065 0.4026 0.90684 0.0
C898 C 0.84304 0.38007 0.90721 0.0
C899 C 0.82694 0.35821 0.87974 0.0
C900 C 0.95625 0.4604 0.9627 0.0
C901 C 0.95474 0.43485 0.98344 0.0
C902 C 0.92957 0.45156 0.93939 0.0
C903 C 0.90085 0.41731 0.93692 0.0
C904 C 0.89691 0.3938 0.96034 0.0
C905 C 0.92379 0.4024 0.98327 0.0
H906 H 0.79966 0.81768 0.89304 0.0
H907 H 0.77242 0.87274 0.82218 0.0
H908 H 0.76987 0.84582 0.93442 0.0
H909 H 0.74335 0.90184 0.86417 0.0
H910 H 0.73669 0.97378 0.96281 0.0
H911 H 0.7668 0.94773 0.91943 0.0
H912 H 0.69908 0.84054 0.94348 0.0
H913 H 0.66827 0.86629 0.98612 0.0
C914 C 0.78772 0.83616 0.88629 0.0
C915 C 0.7886 0.84303 0.85421 0.0
C916 C 0.77047 0.85211 0.91005 0.0
C917 C 0.7543 0.87603 0.90256 0.0
C918 C 0.75576 0.88363 0.87064 0.0
C919 C 0.7723 0.86691 0.84662 0.0
C920 C 0.72823 0.94466 0.95883 0.0
C921 C 0.7001 0.92214 0.97803 0.0
C922 C 0.7453 0.92978 0.93386 0.0
C923 C 0.73528 0.89211 0.92807 0.0
C924 C 0.70744 0.86966 0.94743 0.0
C925 C 0.68977 0.88444 0.97182 0.0
H926 H 0.98155 0.78698 0.15994 0.0
H927 H 1.04058 0.76667 0.23403 0.0
H928 H 0.9832 0.73338 0.12766 0.0
H929 H 1.04014 0.71177 0.20254 0.0
H930 H 0.07642 0.64841 0.12073 0.0
H931 H 0.07013 0.69792 0.155 0.0
H932 H 0.95773 0.66685 0.12492 0.0
H933 H 0.96457 0.61689 0.08887 0.0
C934 C 0.99539 0.77139 0.16915 0.0
C935 C 1.01152 0.7814 0.19935 0.0
C936 C 0.99544 0.74017 0.15097 0.0
C937 C 1.01144 0.71822 0.16268 0.0
C938 C 1.02779 0.72832 0.19278 0.0
C939 C 1.02805 0.75972 0.21083 0.0
C940 C 0.0502 0.65189 0.12121 0.0
C941 C 1.0211 0.62906 0.10161 0.0
C942 C 0.04651 0.68015 0.1413 0.0
C943 C 1.01349 0.68629 0.1427 0.0
C944 C 0.9837 0.66285 0.12398 0.0
C945 C 0.98744 0.63421 0.10359 0.0
H946 H 0.44715 0.85049 0.28106 0.0
H947 H 0.4188 0.787 0.19019 0.0
H948 H 0.4994 0.89594 0.25545 0.0
H949 H 0.47139 0.83161 0.16486 0.0
H950 H 0.56829 0.91618 0.12498 0.0
H951 H 0.54368 0.87055 0.16311 0.0
H952 H 0.48441 0.93295 0.21335 0.0
H953 H 0.50823 0.97793 0.175 0.0
C954 C 0.45317 0.8455 0.25595 0.0
C955 C 0.42902 0.81565 0.23737 0.0
C956 C 0.48293 0.87143 0.24136 0.0
C957 C 0.48923 0.86719 0.20826 0.0
C958 C 0.46735 0.8353 0.19047 0.0
C959 C 0.43717 0.80992 0.20487 0.0
C960 C 0.55092 0.92059 0.14476 0.0
C961 C 0.53954 0.95009 0.14688 0.0
C962 C 0.53696 0.8946 0.16653 0.0
C963 C 0.51225 0.89836 0.19106 0.0
C964 C 0.50376 0.92965 0.19485 0.0
C965 C 0.51701 0.95515 0.17273 0.0
H966 H 0.74669 0.1311 0.24223 0.0
H967 H 0.66426 0.17372 0.27892 0.0
H968 H 0.69891 0.07919 0.21543 0.0
H969 H 0.61602 0.12135 0.25281 0.0
H970 H 0.62183 0.11993 0.13778 0.0
H971 H 0.62161 0.12903 0.19522 0.0
H972 H 0.63945 0.02964 0.19942 0.0
H973 H 0.63926 0.0202 0.14165 0.0
C974 C 0.71806 0.12829 0.24584 0.0
C975 C 0.70897 0.15674 0.26102 0.0
C976 C 0.69044 0.09833 0.23087 0.0
C977 C 0.65384 0.09714 0.2309 0.0
C978 C 0.6441 0.12216 0.25169 0.0
C979 C 0.67172 0.15228 0.26623 0.0
C980 C 0.62377 0.09903 0.15087 0.0
C981 C 0.6324 0.07041 0.13521 0.0
C982 C 0.62328 0.10398 0.18405 0.0
C983 C 0.63237 0.08081 0.20174 0.0
C984 C 0.63346 0.0484 0.18627 0.0
C985 C 0.63376 0.04332 0.15307 0.0
H986 H 0.72337 0.70995 0.84368 0.0
H987 H 0.82006 0.68543 0.85603 0.0
H988 H 0.69233 0.67572 0.88754 0.0
H989 H 0.78794 0.64925 0.89952 0.0
H990 H 0.73519 0.62421 0.9991 0.0
H991 H 0.76728 0.65559 0.9533 0.0
H992 H 0.66375 0.61817 0.90428 0.0
H993 H 0.63169 0.58829 0.95041 0.0
C994 C 0.73787 0.69665 0.85537 0.0
C995 C 0.77435 0.70055 0.84626 0.0
C996 C 0.71983 0.6767 0.88057 0.0
C997 C 0.73747 0.65954 0.89722 0.0
C998 C 0.77366 0.66255 0.88759 0.0
C999 C 0.79198 0.68298 0.86244 0.0
C1000 C 0.71931 0.62284 0.97856 0.0
C1001 C 0.68082 0.60402 0.97857 0.0
C1002 C 0.73778 0.64054 0.95213 0.0
C1003 C 0.71823 0.63951 0.92495 0.0
C1004 C 0.67975 0.62024 0.92492 0.0
C1005 C 0.66128 0.60297 0.95144 0.0
H1006 H 0.49606 0.7226 0.871 0.0
H1007 H 0.49279 0.64086 0.79379 0.0
H1008 H 0.53281 0.70143 0.90156 0.0
H1009 H 0.52942 0.61915 0.82491 0.0
H1010 H 0.52118 0.56006 0.91848 0.0
H1011 H 0.51083 0.58657 0.87293 0.0
H1012 H 0.58963 0.69074 0.90845 0.0
H1013 H 0.59965 0.66435 0.95453 0.0
C1014 C 0.50412 0.7008 0.86009 0.0
C1015 C 0.49101 0.68314 0.83009 0.0
C1016 C 0.52537 0.68867 0.87764 0.0
C1017 C 0.53391 0.65847 0.86571 0.0
C1018 C 0.52291 0.64224 0.83485 0.0
C1019 C 0.50176 0.65454 0.81716 0.0
C1020 C 0.53718 0.5884 0.91619 0.0
C1021 C 0.56021 0.61037 0.94075 0.0
C1022 C 0.53141 0.60358 0.88986 0.0
C1023 C 0.5487 0.64097 0.88756 0.0
C1024 C 0.57525 0.662 0.91005 0.0
C1025 C 0.58101 0.64682 0.93642 0.0
H1026 H 0.39276 0.299 0.87594 0.0
H1027 H 0.40515 0.39188 0.82686 0.0
H1028 H 0.43933 0.33662 0.91309 0.0
H1029 H 0.45339 0.43024 0.86437 0.0
H1030 H 0.49615 0.48482 0.96759 0.0
H1031 H 0.45663 0.45242 0.92263 0.0
H1032 H 0.50439 0.3706 0.91593 0.0
H1033 H 0.54243 0.40184 0.9613 0.0
C1034 C 0.40584 0.32758 0.8729 0.0
C1035 C 0.39513 0.34263 0.8487 0.0
C1036 C 0.43287 0.34913 0.89407 0.0
C1037 C 0.45017 0.3864 0.89162 0.0
C1038 C 0.44029 0.40157 0.86688 0.0
C1039 C 0.41304 0.37969 0.84533 0.0
C1040 C 0.49805 0.45986 0.95658 0.0
C1041 C 0.52164 0.44536 0.96862 0.0
C1042 C 0.4758 0.44158 0.93056 0.0
C1043 C 0.47715 0.40878 0.91599 0.0
C1044 C 0.50212 0.3954 0.9271 0.0
C1045 C 0.52381 0.41326 0.95324 0.0
H1046 H 0.76666 0.39477 0.88524 0.0
H1047 H 0.66518 0.32211 0.92518 0.0
H1048 H 0.78342 0.42796 0.93772 0.0
H1049 H 0.68062 0.35585 0.97719 0.0
H1050 H 0.69275 0.41589 0.06289 0.0
H1051 H 0.71527 0.37893 0.02378 0.0
H1052 H 0.76033 0.46908 0.9663 0.0
H1053 H 0.73984 0.50614 1.0063 0.0
C1054 C 0.74801 0.38597 0.90541 0.0
C1055 C 0.71416 0.35668 0.9013 0.0
C1056 C 0.75769 0.40476 0.93544 0.0
C1057 C 0.7333 0.39498 0.96174 0.0
C1058 C 0.70053 0.36402 0.95776 0.0
C1059 C 0.69122 0.34491 0.92785 0.0
C1060 C 0.7097 0.42833 0.04289 0.0
C1061 C 0.71377 0.46333 0.03692 0.0
C1062 C 0.72214 0.40707 0.02024 0.0
C1063 C 0.73759 0.42036 0.99106 0.0
C1064 C 0.74793 0.45758 0.98818 0.0
C1065 C 0.73629 0.47908 1.01126 0.0
H1066 H 0.67569 0.445 0.27919 0.0
H1067 H 0.56743 0.35977 0.27482 0.0
H1068 H 0.65443 0.48026 0.24842 0.0
H1069 H 0.54503 0.39659 0.24664 0.0
H1070 H 0.62703 0.52923 0.17438 0.0
H1071 H 0.6225 0.51103 0.22815 0.0
H1072 H 0.55699 0.40102 0.19263 0.0
H1073 H 0.56009 0.41956 0.13991 0.0
C1074 C 0.64691 0.43436 0.27271 0.0
C1075 C 0.62392 0.39876 0.27783 0.0
C1076 C 0.63439 0.45494 0.25542 0.0
C1077 C 0.59833 0.4405 0.24356 0.0
C1078 C 0.57347 0.4078 0.25411 0.0
C1079 C 0.58627 0.3868 0.27071 0.0
C1080 C 0.61097 0.50134 0.17837 0.0
C1081 C 0.59505 0.47552 0.15277 0.0
C1082 C 0.60832 0.4909 0.20919 0.0
C1083 C 0.59035 0.45433 0.21478 0.0
C1084 C 0.57108 0.42946 0.18963 0.0
C1085 C 0.57331 0.43998 0.15903 0.0
H1086 H 0.78515 0.67832 0.23867 0.0
H1087 H 0.83195 0.76514 0.17787 0.0
H1088 H 0.73894 0.64525 0.19959 0.0
H1089 H 0.78646 0.73093 0.1376 0.0
H1090 H 0.66753 0.68582 0.0996 0.0
H1091 H 0.72202 0.71655 0.13209 0.0
H1092 H 0.72295 0.61297 0.15035 0.0
H1093 H 0.66717 0.5828 0.12072 0.0
C1094 C 0.78635 0.68986 0.21644 0.0
C1095 C 0.81186 0.72462 0.21161 0.0
C1096 C 0.7598 0.67076 0.19384 0.0
C1097 C 0.75854 0.68563 0.16553 0.0
C1098 C 0.78606 0.71911 0.1595 0.0
C1099 C 0.81246 0.73848 0.18238 0.0
C1100 C 0.67934 0.66968 0.11068 0.0
C1101 C 0.66309 0.63174 0.10717 0.0
C1102 C 0.71093 0.68728 0.12893 0.0
C1103 C 0.72709 0.66726 0.14377 0.0
C1104 C 0.71114 0.62936 0.13965 0.0
C1105 C 0.67929 0.61192 0.12208 0.0
H1106 H 0.34124 0.63906 0.20604 0.0
H1107 H 0.37936 0.55724 0.22939 0.0
H1108 H 0.35879 0.63007 0.15024 0.0
H1109 H 0.39769 0.54844 0.17325 0.0
H1110 H 0.47019 0.64778 0.08606 0.0
H1111 H 0.42764 0.64745 0.13105 0.0
H1112 H 0.37415 0.53154 0.11353 0.0
H1113 H 0.416 0.53172 0.06811 0.0
C1114 C 0.35164 0.61784 0.19885 0.0
C1115 C 0.35802 0.59811 0.22172 0.0
C1116 C 0.36219 0.6131 0.16704 0.0
C1117 C 0.37943 0.58854 0.15752 0.0
C1118 C 0.38387 0.56717 0.17999 0.0
C1119 C 0.37356 0.5722 0.21202 0.0
C1120 C 0.44841 0.62243 0.09097 0.0
C1121 C 0.44682 0.5898 0.07377 0.0
C1122 C 0.42407 0.62221 0.11673 0.0
C1123 C 0.39811 0.58933 0.12592 0.0
C1124 C 0.39419 0.55713 0.10699 0.0
C1125 C 0.41803 0.5574 0.08083 0.0
H1126 H 0.40677 0.39883 0.25824 0.0
H1127 H 0.36616 0.31136 0.18363 0.0
H1128 H 0.44405 0.43846 0.21851 0.0
H1129 H 0.40387 0.35016 0.14456 0.0
H1130 H 0.44089 0.43626 0.07686 0.0
H1131 H 0.4053 0.39984 0.11845 0.0
H1132 H 0.49709 0.44997 0.18198 0.0
H1133 H 0.53198 0.48821 0.1405 0.0
C1134 C 0.40586 0.38804 0.23346 0.0
C1135 C 0.38317 0.35203 0.22412 0.0
C1136 C 0.42742 0.41065 0.21072 0.0
C1137 C 0.42676 0.39763 0.17823 0.0
C1138 C 0.40449 0.36144 0.16918 0.0
C1139 C 0.38291 0.33906 0.19172 0.0
C1140 C 0.45356 0.43957 0.09969 0.0
C1141 C 0.48971 0.46447 0.10513 0.0
C1142 C 0.43321 0.41844 0.12352 0.0
C1143 C 0.44846 0.42145 0.15349 0.0
C1144 C 0.48444 0.44688 0.1592 0.0
C1145 C 0.50477 0.46827 0.13526 0.0
H1146 H 0.81038 0.69022 0.69055 0.0
H1147 H 0.91589 0.72961 0.73629 0.0
H1148 H 0.83525 0.6594 0.6467 0.0
H1149 H 0.94017 0.69879 0.6933 0.0
H1150 H 0.8914 0.58535 0.58669 0.0
H1151 H 0.86073 0.61072 0.63015 0.0
H1152 H 0.95804 0.70874 0.63846 0.0
H1153 H 0.9885 0.68369 0.59601 0.0
C1154 C 0.83863 0.69193 0.69153 0.0
C1155 C 0.86121 0.7129 0.71683 0.0
C1156 C 0.85288 0.67421 0.6664 0.0
C1157 C 0.89 0.67712 0.66606 0.0
C1158 C 0.9118 0.69667 0.69219 0.0
C1159 C 0.89772 0.7143 0.71705 0.0
C1160 C 0.90614 0.61236 0.59775 0.0
C1161 C 0.94269 0.63219 0.58788 0.0
C1162 C 0.88849 0.62695 0.62262 0.0
C1163 C 0.90706 0.66161 0.63827 0.0
C1164 C 0.9431 0.68164 0.62764 0.0
C1165 C 0.96059 0.66722 0.60299 0.0
H1166 H 0.38966 0.81536 0.71887 0.0
H1167 H 0.32782 0.88036 0.75885 0.0
H1168 H 0.42031 0.85971 0.68106 0.0
H1169 H 0.35871 0.92481 0.72095 0.0
H1170 H 0.49674 0.96619 0.64454 0.0
H1171 H 0.46554 0.92402 0.68383 0.0
H1172 H 0.3611 0.92818 0.66117 0.0
H1173 H 0.39235 0.96987 0.62106 0.0
C1174 C 0.38261 0.8391 0.7196 0.0
C1175 C 0.35639 0.8444 0.74189 0.0
C1176 C 0.40031 0.86457 0.69807 0.0
C1177 C 0.39192 0.8957 0.69819 0.0
C1178 C 0.3655 0.90092 0.72027 0.0
C1179 C 0.34804 0.8756 0.74206 0.0
C1180 C 0.46707 0.95771 0.64757 0.0
C1181 C 0.44688 0.97058 0.62913 0.0
C1182 C 0.44925 0.93375 0.67021 0.0
C1183 C 0.41087 0.92255 0.67526 0.0
C1184 C 0.39077 0.93649 0.65777 0.0
C1185 C 0.40862 0.96029 0.63483 0.0
H1186 H 0.24468 0.44185 0.66891 0.0
H1187 H 0.15202 0.34281 0.68303 0.0
H1188 H 0.20619 0.46178 0.63912 0.0
H1189 H 0.1131 0.36295 0.65285 0.0
H1190 H 0.07784 0.39703 0.55976 0.0
H1191 H 0.10539 0.37411 0.59842 0.0
H1192 H 0.15591 0.4824 0.64459 0.0
H1193 H 0.1294 0.50527 0.60553 0.0
C1194 C 0.21585 0.42456 0.66621 0.0
C1195 C 0.2015 0.39082 0.6787 0.0
C1196 C 0.19365 0.43605 0.64907 0.0
C1197 C 0.1563 0.41422 0.64384 0.0
C1198 C 0.14176 0.38041 0.65629 0.0
C1199 C 0.16411 0.36885 0.67355 0.0
C1200 C 0.09402 0.41574 0.57869 0.0
C1201 C 0.10194 0.45305 0.57926 0.0
C1202 C 0.10988 0.40262 0.60087 0.0
C1203 C 0.13371 0.42655 0.62416 0.0
C1204 C 0.13867 0.46334 0.6264 0.0
C1205 C 0.1232 0.47644 0.60415 0.0
H1206 H 0.77413 0.14931 0.7352 0.0
H1207 H 0.78204 0.22873 0.67134 0.0
H1208 H 0.73952 0.1009 0.69513 0.0
H1209 H 0.7474 0.18146 0.63208 0.0
H1210 H 0.62025 0.05613 0.64921 0.0
H1211 H 0.67684 0.08349 0.67935 0.0
H1212 H 0.7359 0.13048 0.59508 0.0
H1213 H 0.67838 0.10486 0.5658 0.0
C1214 C 0.76942 0.15629 0.71226 0.0
C1215 C 0.77999 0.19264 0.70648 0.0
C1216 C 0.74946 0.12867 0.6894 0.0
C1217 C 0.74017 0.13715 0.66044 0.0
C1218 C 0.75416 0.17353 0.65378 0.0
C1219 C 0.77372 0.20087 0.67653 0.0
C1220 C 0.64574 0.07111 0.63693 0.0
C1221 C 0.64522 0.07902 0.60555 0.0
C1222 C 0.67832 0.08673 0.65412 0.0
C1223 C 0.71078 0.1102 0.63992 0.0
C1224 C 0.71112 0.1135 0.60702 0.0
C1225 C 0.67836 0.09864 0.59013 0.0
H1226 H 0.87333 0.37516 0.31847 0.0
H1227 H 0.7787 0.3411 0.38299 0.0
H1228 H 0.90675 0.42314 0.35892 0.0
H1229 H 0.81274 0.38845 0.42375 0.0
H1230 H 0.95477 0.51186 0.43499 0.0
H1231 H 0.9008 0.48181 0.40142 0.0
H1232 H 0.87829 0.3825 0.44386 0.0
H1233 H 0.93288 0.41198 0.47653 0.0
C1234 C 0.85952 0.37849 0.34103 0.0
C1235 C 0.82387 0.35434 0.34798 0.0
C1236 C 0.87833 0.40611 0.3639 0.0
C1237 C 0.86193 0.40926 0.3941 0.0
C1238 C 0.82547 0.38657 0.40037 0.0
C1239 C 0.80629 0.3595 0.3772 0.0
C1240 C 0.93751 0.48395 0.43786 0.0
C1241 C 0.94809 0.46377 0.45763 0.0
C1242 C 0.90672 0.46698 0.41884 0.0
C1243 C 0.88583 0.43012 0.42031 0.0
C1244 C 0.89402 0.41112 0.44273 0.0
C1245 C 0.92532 0.42778 0.46108 0.0
H1246 H 0.59727 0.77572 0.345 0.0
H1247 H 0.65938 0.75808 0.41807 0.0
H1248 H 0.57992 0.81783 0.383 0.0
H1249 H 0.64167 0.79963 0.456 0.0
H1250 H 0.64192 0.91185 0.49802 0.0
H1251 H 0.65715 0.86762 0.4608 0.0
H1252 H 0.54284 0.8168 0.43411 0.0
H1253 H 0.52756 0.86053 0.47069 0.0
C1254 C 0.60655 0.78033 0.36931 0.0
C1255 C 0.62933 0.76346 0.3787 0.0
C1256 C 0.59673 0.80438 0.39099 0.0
C1257 C 0.60987 0.81215 0.42225 0.0
C1258 C 0.63164 0.7944 0.4319 0.0
C1259 C 0.64118 0.77018 0.41035 0.0
C1260 C 0.62014 0.89125 0.48417 0.0
C1261 C 0.58359 0.88964 0.48743 0.0
C1262 C 0.62878 0.8659 0.46306 0.0
C1263 C 0.60106 0.8389 0.44471 0.0
C1264 C 0.5647 0.83751 0.4478 0.0
C1265 C 0.55603 0.8625 0.46898 0.0
H1266 H 0.23171 0.77176 0.35179 0.0
H1267 H 0.21007 0.67079 0.29318 0.0
H1268 H 0.18508 0.74001 0.39096 0.0
H1269 H 0.16276 0.63943 0.3317 0.0
H1270 H 0.17678 0.64594 0.45977 0.0
H1271 H 0.20145 0.68836 0.41935 0.0
H1272 H 0.09938 0.63857 0.36855 0.0
H1273 H 0.07387 0.59666 0.41004 0.0
C1274 C 0.21576 0.74315 0.34662 0.0
C1275 C 0.22456 0.72347 0.31984 0.0
C1276 C 0.18918 0.72508 0.36894 0.0
C1277 C 0.17056 0.68742 0.36416 0.0
C1278 C 0.17654 0.66854 0.33565 0.0
C1279 C 0.20371 0.68639 0.31379 0.0
C1280 C 0.15938 0.6445 0.44028 0.0
C1281 C 0.12373 0.61789 0.43761 0.0
C1282 C 0.17328 0.66899 0.41745 0.0
C1283 C 0.15208 0.66677 0.39116 0.0
C1284 C 0.11592 0.64091 0.3889 0.0
C1285 C 0.10153 0.61696 0.4124 0.0
H1286 H 0.52624 0.2846 0.42355 0.0
H1287 H 0.49437 0.20531 0.34159 0.0
H1288 H 0.54959 0.24606 0.44838 0.0
H1289 H 0.51675 0.16603 0.36724 0.0
H1290 H 0.48345 0.09733 0.45848 0.0
H1291 H 0.48523 0.13485 0.41655 0.0
H1292 H 0.59205 0.21093 0.4475 0.0
H1293 H 0.59048 0.17344 0.48957 0.0
C1294 C 0.52538 0.25956 0.41027 0.0
C1295 C 0.50761 0.24769 0.38089 0.0
C1296 C 0.53881 0.2374 0.42456 0.0
C1297 C 0.53446 0.20284 0.40989 0.0
C1298 C 0.51996 0.19238 0.37919 0.0
C1299 C 0.50694 0.21477 0.36468 0.0
C1300 C 0.50774 0.12158 0.45592 0.0
C1301 C 0.53626 0.13295 0.47798 0.0
C1302 C 0.50893 0.14291 0.43166 0.0
C1303 C 0.53857 0.17604 0.42912 0.0
C1304 C 0.56869 0.18572 0.44925 0.0
C1305 C 0.56765 0.16425 0.47337 0.0
H1306 H 0.58728 0.79205 0.72084 0.0
H1307 H 0.68632 0.88398 0.70278 0.0
H1308 H 0.5497 0.82381 0.70486 0.0
H1309 H 0.64932 0.91472 0.68525 0.0
H1310 H 0.58547 0.9726 0.65927 0.0
H1311 H 0.6074 0.94393 0.69704 0.0
H1312 H 0.53603 0.83885 0.6555 0.0
H1313 H 0.51274 0.86785 0.6191 0.0
C1314 C 0.60102 0.8192 0.71386 0.0
C1315 C 0.63984 0.8353 0.71264 0.0
C1316 C 0.57948 0.83728 0.70446 0.0
C1317 C 0.59633 0.87183 0.69363 0.0
C1318 C 0.63513 0.88844 0.69389 0.0
C1319 C 0.65653 0.87051 0.7034 0.0
C1320 C 0.57344 0.94343 0.65921 0.0
C1321 C 0.54794 0.92233 0.63603 0.0
C1322 C 0.58626 0.92694 0.68056 0.0
C1323 C 0.57457 0.88903 0.67853 0.0
C1324 C 0.54582 0.86809 0.65776 0.0
C1325 C 0.53238 0.88469 0.63683 0.0
H1326 H 0.7674 0.17532 0.36642 0.0
H1327 H 0.68796 0.22711 0.37928 0.0
H1328 H 0.73334 0.13389 0.40569 0.0
H1329 H 0.65492 0.1872 0.41962 0.0
H1330 H 0.57897 0.08468 0.46071 0.0
H1331 H 0.61528 0.12743 0.42337 0.0
H1332 H 0.71569 0.12528 0.45904 0.0
H1333 H 0.67909 0.08144 0.49533 0.0
C1334 C 0.74318 0.1784 0.37827 0.0
C1335 C 0.7302 0.20425 0.36971 0.0
C1336 C 0.72358 0.15468 0.40082 0.0
C1337 C 0.69095 0.15675 0.41565 0.0
C1338 C 0.67922 0.18397 0.40811 0.0
C1339 C 0.6984 0.20716 0.38522 0.0
C1340 C 0.60879 0.09339 0.46048 0.0
C1341 C 0.62615 0.07967 0.48085 0.0
C1342 C 0.62974 0.11811 0.43922 0.0
C1343 C 0.66863 0.13014 0.43818 0.0
C1344 C 0.68588 0.1163 0.45868 0.0
C1345 C 0.66488 0.09118 0.47958 0.0
H1346 H 0.94399 0.7674 0.33191 0.0
H1347 H 0.83638 0.69844 0.36377 0.0
H1348 H 0.97255 0.73652 0.36245 0.0
H1349 H 0.8646 0.66773 0.39431 0.0
H1350 H 1.0193 0.69236 0.44167 0.0
H1351 H 0.99239 0.72304 0.40943 0.0
H1352 H 0.89314 0.62737 0.4005 0.0
H1353 H 0.92008 0.597 0.43282 0.0
C1354 C 0.92607 0.74568 0.34534 0.0
C1355 C 0.88719 0.73615 0.34462 0.0
C1356 C 0.94274 0.72769 0.36338 0.0
C1357 C 0.92171 0.69863 0.38172 0.0
C1358 C 0.8828 0.68914 0.38075 0.0
C1359 C 0.86622 0.70729 0.36299 0.0
C1360 C 0.99183 0.67743 0.43266 0.0
C1361 C 0.97264 0.64135 0.44043 0.0
C1362 C 0.97604 0.69537 0.41375 0.0
C1363 C 0.93969 0.67868 0.40155 0.0
C1364 C 0.92072 0.64242 0.40915 0.0
C1365 C 0.93664 0.62442 0.4278 0.0
H1366 H 0.35771 0.89096 0.33322 0.0
H1367 H 0.34899 0.80575 0.39104 0.0
H1368 H 0.37574 0.93512 0.38007 0.0
H1369 H 0.36748 0.84959 0.43732 0.0
H1370 H 0.38783 0.92398 0.52148 0.0
H1371 H 0.35116 0.89027 0.47556 0.0
H1372 H 0.42957 0.96277 0.41361 0.0
H1373 H 0.46533 0.9972 0.45984 0.0
C1374 C 0.35947 0.88157 0.35589 0.0
C1375 C 0.35225 0.84474 0.35822 0.0
C1376 C 0.36982 0.90694 0.38276 0.0
C1377 C 0.37298 0.89606 0.41262 0.0
C1378 C 0.36466 0.85905 0.41497 0.0
C1379 C 0.35441 0.8338 0.38823 0.0
C1380 C 0.39609 0.93382 0.49823 0.0
C1381 C 0.42951 0.96307 0.49422 0.0
C1382 C 0.37546 0.91412 0.47179 0.0
C1383 C 0.38813 0.92293 0.44071 0.0
C1384 C 0.41901 0.95502 0.43712 0.0
C1385 C 0.43943 0.97505 0.46372 0.0
H1386 H 0.30245 0.3662 0.37901 0.0
H1387 H 0.22133 0.33151 0.3058 0.0
H1388 H 0.26898 0.40087 0.40896 0.0
H1389 H 0.18785 0.36628 0.33555 0.0
H1390 H 0.1138 0.40611 0.4084 0.0
H1391 H 0.1487 0.37382 0.37774 0.0
H1392 H 0.24944 0.45065 0.41904 0.0
H1393 H 0.21403 0.48309 0.45009 0.0
C1394 C 0.27753 0.36588 0.36894 0.0
C1395 C 0.26536 0.34534 0.33929 0.0
C1396 C 0.25805 0.3863 0.38637 0.0
C1397 C 0.2248 0.38726 0.37553 0.0
C1398 C 0.21269 0.36668 0.34577 0.0
C1399 C 0.23238 0.34654 0.3282 0.0
C1400 C 0.14347 0.41664 0.41107 0.0
C1401 C 0.16032 0.44807 0.43233 0.0
C1402 C 0.16394 0.3978 0.39297 0.0
C1403 C 0.20281 0.40873 0.39502 0.0
C1404 C 0.21982 0.44029 0.4163 0.0
C1405 C 0.19925 0.45946 0.43425 0.0
H1406 H 0.40962 0.22569 0.77326 0.0
H1407 H 0.36445 0.25504 0.69473 0.0
H1408 H 0.44235 0.19677 0.73521 0.0
H1409 H 0.39695 0.22608 0.65706 0.0
H1410 H 0.41784 0.1268 0.60508 0.0
H1411 H 0.38989 0.16076 0.64259 0.0
H1412 H 0.493 0.21194 0.69171 0.0
H1413 H 0.52116 0.17817 0.65422 0.0
C1414 C 0.40704 0.22642 0.74797 0.0
C1415 C 0.38434 0.24266 0.7371 0.0
C1416 C 0.42582 0.2099 0.72621 0.0
C1417 C 0.42189 0.20892 0.69319 0.0
C1418 C 0.40009 0.22604 0.68236 0.0
C1419 C 0.38171 0.24288 0.70403 0.0
C1420 C 0.43463 0.14539 0.62377 0.0
C1421 C 0.47176 0.14975 0.62658 0.0
C1422 C 0.41866 0.16496 0.64516 0.0
C1423 C 0.43931 0.18899 0.67006 0.0
C1424 C 0.4764 0.19343 0.67288 0.0
C1425 C 0.49253 0.17422 0.65125 0.0
H1426 H 0.84024 0.38134 0.71689 0.0
H1427 H 0.90788 0.31847 0.69132 0.0
H1428 H 0.87315 0.42246 0.67731 0.0
H1429 H 0.94084 0.35946 0.65098 0.0
H1430 H 1.01323 0.45836 0.59515 0.0
H1431 H 0.98343 0.417 0.63628 0.0
H1432 H 0.88086 0.43049 0.6237 0.0
H1433 H 0.91041 0.47178 0.58389 0.0
C1434 C 0.86207 0.37601 0.70272 0.0
C1435 C 0.87106 0.34614 0.70777 0.0
C1436 C 0.88109 0.39976 0.67957 0.0
C1437 C 0.91 0.39479 0.66006 0.0
C1438 C 0.91926 0.36499 0.66533 0.0
C1439 C 0.90014 0.34117 0.68861 0.0
C1440 C 0.98436 0.45262 0.60125 0.0
C1441 C 0.96471 0.46916 0.58586 0.0
C1442 C 0.967 0.42852 0.62491 0.0
C1443 C 0.92933 0.42008 0.63421 0.0
C1444 C 0.90991 0.43643 0.61839 0.0
C1445 C 0.92709 0.46028 0.59498 0.0
H1446 H 0.24816 0.76318 0.70248 0.0
H1447 H 0.23316 0.65817 0.72943 0.0
H1448 H 0.2184 0.73579 0.65243 0.0
H1449 H 0.20007 0.62972 0.68036 0.0
H1450 H 0.15123 0.58256 0.58207 0.0
H1451 H 0.19035 0.61059 0.62826 0.0
H1452 H 0.16953 0.70851 0.62382 0.0
H1453 H 0.13403 0.68193 0.57712 0.0
C1454 C 0.23777 0.73398 0.69795 0.0
C1455 C 0.24295 0.71308 0.72039 0.0
C1456 C 0.22006 0.71783 0.66897 0.0
C1457 C 0.2054 0.67977 0.66148 0.0
C1458 C 0.21087 0.65891 0.68418 0.0
C1459 C 0.22972 0.67528 0.71281 0.0
C1460 C 0.15598 0.61045 0.59049 0.0
C1461 C 0.13921 0.62967 0.57519 0.0
C1462 C 0.17811 0.62661 0.61764 0.0
C1463 C 0.18379 0.66243 0.63093 0.0
C1464 C 0.16745 0.68151 0.61489 0.0
C1465 C 0.1463 0.66579 0.58762 0.0
loop_
_geom_bond_atom_site_label_1
_geom_bond_atom_site_label_2
_geom_bond_distance
_geom_bond_site_symmetry_2
_ccdc_geom_bond_type
Tb0 C10 2.825 . S
Tb0 O11 2.347 . S
Tb0 O14 2.366 . S
Tb0 O19 2.418 . S
Tb0 O20 2.384 . S
Tb0 O23 2.479 . S
Tb0 O24 2.471 . S
Eu1 O12 2.418 . S
Eu1 O13 2.384 . S
Eu1 O16 2.479 . S
Eu1 O17 2.471 . S
Eu1 O18 2.347 . S
Eu1 O21 2.366 . S
Eu1 C31 2.825 . S
C2 O18 1.259 . S
C2 O19 1.265 . S
C3 O20 1.255 . S
C3 O21 1.265 . S
C4 C6 1.380 . S
C4 C7 1.374 . S
C4 C10 1.507 . S
C5 C6 1.384 . S
C5 C9 1.387 . S
C5 H32 0.930 . S
C6 C4 1.380 . S
C6 C5 1.384 . S
C6 H33 0.931 . S
C7 C4 1.374 . S
C7 C8 1.390 . S
C7 H34 0.930 . S
C8 C7 1.390 . S
C8 C9 1.391 . S
C8 H35 0.930 . S
C9 C5 1.387 . S
C9 C8 1.391 . S
C10 Tb0 2.825 . S
C10 C4 1.507 . S
C10 O23 1.238 . S
C10 O24 1.247 . S
O11 Tb0 2.347 . S
O11 C15 1.259 . S
O12 Eu1 2.418 . S
O12 C15 1.265 . S
O13 Eu1 2.384 . S
O13 C22 1.255 . S
O14 Tb0 2.366 . S
O14 C22 1.265 . S
C15 O11 1.259 . S
C15 O12 1.265 . S
O16 Eu1 2.479 . S
O16 C31 1.238 . S
O17 Eu1 2.471 . S
O17 C31 1.247 . S
O18 Eu1 2.347 . S
O18 C2 1.259 . S
O19 Tb0 2.418 . S
O19 C2 1.265 . S
O20 Tb0 2.384 . S
O20 C3 1.255 . S
O21 Eu1 2.366 . S
O21 C3 1.265 . S
C22 O13 1.255 . S
C22 O14 1.265 . S
O23 Tb0 2.479 . S
O23 C10 1.238 . S
O24 Tb0 2.471 . S
O24 C10 1.247 . S
C25 C28 1.380 . S
C25 C29 1.374 . S
C25 C31 1.507 . S
C26 C27 1.387 . S
C26 C30 1.391 . S
C27 C26 1.387 . S
C27 C28 1.384 . S
C27 H36 0.930 . S
C28 C25 1.380 . S
C28 C27 1.384 . S
C28 H37 0.931 . S
C29 C25 1.374 . S
C29 C30 1.390 . S
C29 H38 0.930 . S
C30 C26 1.391 . S
C30 C29 1.390 . S
C30 H39 0.930 . S
C31 Eu1 2.825 . S
C31 O16 1.238 . S
C31 O17 1.247 . S
C31 C25 1.507 . S
H32 C5 0.930 . S
H33 C6 0.931 . S
H34 C7 0.930 . S
H35 C8 0.930 . S
H36 C27 0.930 . S
H37 C28 0.931 . S
H38 C29 0.930 . S
H39 C30 0.930 . S
Tb40 C50 2.825 . S
Tb40 O51 2.347 . S
Tb40 O54 2.366 . S
Tb40 O59 2.418 . S
Tb40 O60 2.384 . S
Tb40 O63 2.479 . S
Tb40 O64 2.471 . S
Eu41 O52 2.418 . S
Eu41 O53 2.384 . S
Eu41 O56 2.479 . S
Eu41 O57 2.471 . S
Eu41 O58 2.347 . S
Eu41 O61 2.366 . S
Eu41 C71 2.825 . S
C42 O58 1.259 . S
C42 O59 1.265 . S
C43 O60 1.255 . S
C43 O61 1.265 . S
C44 C46 1.380 . S
C44 C47 1.374 . S
C44 C50 1.507 . S
C45 C46 1.384 . S
C45 C49 1.387 . S
C45 H72 0.930 . S
C46 C44 1.380 . S
C46 C45 1.384 . S
C46 H73 0.931 . S
C47 C44 1.374 . S
C47 C48 1.390 . S
C47 H74 0.930 . S
C48 C47 1.390 . S
C48 C49 1.391 . S
C48 H75 0.930 . S
C49 C45 1.387 . S
C49 C48 1.391 . S
C50 Tb40 2.825 . S
C50 C44 1.507 . S
C50 O63 1.238 . S
C50 O64 1.247 . S
O51 Tb40 2.347 . S
O51 C55 1.259 . S
O52 Eu41 2.418 . S
O52 C55 1.265 . S
O53 Eu41 2.384 . S
O53 C62 1.255 . S
O54 Tb40 2.366 . S
O54 C62 1.265 . S
C55 O51 1.259 . S
C55 O52 1.265 . S
O56 Eu41 2.479 . S
O56 C71 1.238 . S
O57 Eu41 2.471 . S
O57 C71 1.247 . S
O58 Eu41 2.347 . S
O58 C42 1.259 . S
O59 Tb40 2.418 . S
O59 C42 1.265 . S
O60 Tb40 2.384 . S
O60 C43 1.255 . S
O61 Eu41 2.366 . S
O61 C43 1.265 . S
C62 O53 1.255 . S
C62 O54 1.265 . S
O63 Tb40 2.479 . S
O63 C50 1.238 . S
O64 Tb40 2.471 . S
O64 C50 1.247 . S
C65 C68 1.380 . S
C65 C69 1.374 . S
C65 C71 1.507 . S
C66 C67 1.387 . S
C66 C70 1.391 . S
C67 C66 1.387 . S
C67 C68 1.384 . S
C67 H76 0.930 . S
C68 C65 1.380 . S
C68 C67 1.384 . S
C68 H77 0.931 . S
C69 C65 1.374 . S
C69 C70 1.390 . S
C69 H78 0.930 . S
C70 C66 1.391 . S
C70 C69 1.390 . S
C70 H79 0.930 . S
C71 Eu41 2.825 . S
C71 O56 1.238 . S
C71 O57 1.247 . S
C71 C65 1.507 . S
H72 C45 0.930 . S
H73 C46 0.931 . S
H74 C47 0.930 . S
H75 C48 0.930 . S
H76 C67 0.930 . S
H77 C68 0.931 . S
H78 C69 0.930 . S
H79 C70 0.930 . S
Tb80 C90 2.825 . S
Tb80 O91 2.347 . S
Tb80 O94 2.366 . S
Tb80 O99 2.418 . S
Tb80 O100 2.384 . S
Tb80 O103 2.479 . S
Tb80 O104 2.471 . S
Eu81 O92 2.418 . S
Eu81 O93 2.384 . S
Eu81 O96 2.479 . S
Eu81 O97 2.471 . S
Eu81 O98 2.347 . S
Eu81 O101 2.366 . S
Eu81 C111 2.825 . S
C82 O98 1.259 . S
C82 O99 1.265 . S
C83 O100 1.255 . S
C83 O101 1.265 . S
C84 C86 1.380 . S
C84 C87 1.374 . S
C84 C90 1.507 . S
C85 C86 1.384 . S
C85 C89 1.387 . S
C85 H112 0.930 . S
C86 C84 1.380 . S
C86 C85 1.384 . S
C86 H113 0.931 . S
C87 C84 1.374 . S
C87 C88 1.390 . S
C87 H114 0.930 . S
C88 C87 1.390 . S
C88 C89 1.391 . S
C88 H115 0.930 . S
C89 C85 1.387 . S
C89 C88 1.391 . S
C90 Tb80 2.825 . S
C90 C84 1.507 . S
C90 O103 1.238 . S
C90 O104 1.247 . S
O91 Tb80 2.347 . S
O91 C95 1.259 . S
O92 Eu81 2.418 . S
O92 C95 1.265 . S
O93 Eu81 2.384 . S
O93 C102 1.255 . S
O94 Tb80 2.366 . S
O94 C102 1.265 . S
C95 O91 1.259 . S
C95 O92 1.265 . S
O96 Eu81 2.479 . S
O96 C111 1.238 . S
O97 Eu81 2.471 . S
O97 C111 1.247 . S
O98 Eu81 2.347 . S
O98 C82 1.259 . S
O99 Tb80 2.418 . S
O99 C82 1.265 . S
O100 Tb80 2.384 . S
O100 C83 1.255 . S
O101 Eu81 2.366 . S
O101 C83 1.265 . S
C102 O93 1.255 . S
C102 O94 1.265 . S
O103 Tb80 2.479 . S
O103 C90 1.238 . S
O104 Tb80 2.471 . S
O104 C90 1.247 . S
C105 C108 1.380 . S
C105 C109 1.374 . S
C105 C111 1.507 . S
C106 C107 1.387 . S
C106 C110 1.391 . S
C107 C106 1.387 . S
C107 C108 1.384 . S
C107 H116 0.930 . S
C108 C105 1.380 . S
C108 C107 1.384 . S
C108 H117 0.931 . S
C109 C105 1.374 . S
C109 C110 1.390 . S
C109 H118 0.930 . S
C110 C106 1.391 . S
C110 C109 1.390 . S
C110 H119 0.930 . S
C111 Eu81 2.825 . S
C111 O96 1.238 . S
C111 O97 1.247 . S
C111 C105 1.507 . S
H112 C85 0.930 . S
H113 C86 0.931 . S
H114 C87 0.930 . S
H115 C88 0.930 . S
H116 C107 0.930 . S
H117 C108 0.931 . S
H118 C109 0.930 . S
H119 C110 0.930 . S
Tb120 C130 2.825 . S
Tb120 O131 2.347 . S
Tb120 O134 2.366 . S
Tb120 O139 2.418 . S
Tb120 O140 2.384 . S
Tb120 O143 2.479 . S
Tb120 O144 2.471 . S
Eu121 O132 2.418 . S
Eu121 O133 2.384 . S
Eu121 O136 2.479 . S
Eu121 O137 2.471 . S
Eu121 O138 2.347 . S
Eu121 O141 2.366 . S
Eu121 C151 2.825 . S
C122 O138 1.259 . S
C122 O139 1.265 . S
C123 O140 1.255 . S
C123 O141 1.265 . S
C124 C126 1.380 . S
C124 C127 1.374 . S
C124 C130 1.507 . S
C125 C126 1.384 . S
C125 C129 1.387 . S
C125 H152 0.930 . S
C126 C124 1.380 . S
C126 C125 1.384 . S
C126 H153 0.931 . S
C127 C124 1.374 . S
C127 C128 1.390 . S
C127 H154 0.930 . S
C128 C127 1.390 . S
C128 C129 1.391 . S
C128 H155 0.930 . S
C129 C125 1.387 . S
C129 C128 1.391 . S
C130 Tb120 2.825 . S
C130 C124 1.507 . S
C130 O143 1.238 . S
C130 O144 1.247 . S
O131 Tb120 2.347 . S
O131 C135 1.259 . S
O132 Eu121 2.418 . S
O132 C135 1.265 . S
O133 Eu121 2.384 . S
O133 C142 1.255 . S
O134 Tb120 2.366 . S
O134 C142 1.265 . S
C135 O131 1.259 . S
C135 O132 1.265 . S
O136 Eu121 2.479 . S
O136 C151 1.238 . S
O137 Eu121 2.471 . S
O137 C151 1.247 . S
O138 Eu121 2.347 . S
O138 C122 1.259 . S
O139 Tb120 2.418 . S
O139 C122 1.265 . S
O140 Tb120 2.384 . S
O140 C123 1.255 . S
O141 Eu121 2.366 . S
O141 C123 1.265 . S
C142 O133 1.255 . S
C142 O134 1.265 . S
O143 Tb120 2.479 . S
O143 C130 1.238 . S
O144 Tb120 2.471 . S
O144 C130 1.247 . S
C145 C148 1.380 . S
C145 C149 1.374 . S
C145 C151 1.507 . S
C146 C147 1.387 . S
C146 C150 1.391 . S
C147 C146 1.387 . S
C147 C148 1.384 . S
C147 H156 0.930 . S
C148 C145 1.380 . S
C148 C147 1.384 . S
C148 H157 0.931 . S
C149 C145 1.374 . S
C149 C150 1.390 . S
C149 H158 0.930 . S
C150 C146 1.391 . S
C150 C149 1.390 . S
C150 H159 0.930 . S
C151 Eu121 2.825 . S
C151 O136 1.238 . S
C151 O137 1.247 . S
C151 C145 1.507 . S
H152 C125 0.930 . S
H153 C126 0.931 . S
H154 C127 0.930 . S
H155 C128 0.930 . S
H156 C147 0.930 . S
H157 C148 0.931 . S
H158 C149 0.930 . S
H159 C150 0.930 . S
Tb160 C170 2.825 . S
Tb160 O171 2.347 . S
Tb160 O174 2.366 . S
Tb160 O179 2.418 . S
Tb160 O180 2.384 . S
Tb160 O183 2.479 . S
Tb160 O184 2.471 . S
Eu161 O172 2.418 . S
Eu161 O173 2.384 . S
Eu161 O176 2.479 . S
Eu161 O177 2.471 . S
Eu161 O178 2.347 . S
Eu161 O181 2.366 . S
Eu161 C191 2.825 . S
C162 O178 1.259 . S
C162 O179 1.265 . S
C163 O180 1.255 . S
C163 O181 1.265 . S
C164 C166 1.380 . S
C164 C167 1.374 . S
C164 C170 1.507 . S
C165 C166 1.384 . S
C165 C169 1.387 . S
C165 H192 0.930 . S
C166 C164 1.380 . S
C166 C165 1.384 . S
C166 H193 0.931 . S
C167 C164 1.374 . S
C167 C168 1.390 . S
C167 H194 0.930 . S
C168 C167 1.390 . S
C168 C169 1.391 . S
C168 H195 0.930 . S
C169 C165 1.387 . S
C169 C168 1.391 . S
C170 Tb160 2.825 . S
C170 C164 1.507 . S
C170 O183 1.238 . S
C170 O184 1.247 . S
O171 Tb160 2.347 . S
O171 C175 1.259 . S
O172 Eu161 2.418 . S
O172 C175 1.265 . S
O173 Eu161 2.384 . S
O173 C182 1.255 . S
O174 Tb160 2.366 . S
O174 C182 1.265 . S
C175 O171 1.259 . S
C175 O172 1.265 . S
O176 Eu161 2.479 . S
O176 C191 1.238 . S
O177 Eu161 2.471 . S
O177 C191 1.247 . S
O178 Eu161 2.347 . S
O178 C162 1.259 . S
O179 Tb160 2.418 . S
O179 C162 1.265 . S
O180 Tb160 2.384 . S
O180 C163 1.255 . S
O181 Eu161 2.366 . S
O181 C163 1.265 . S
C182 O173 1.255 . S
C182 O174 1.265 . S
O183 Tb160 2.479 . S
O183 C170 1.238 . S
O184 Tb160 2.471 . S
O184 C170 1.247 . S
C185 C188 1.380 . S
C185 C189 1.374 . S
C185 C191 1.507 . S
C186 C187 1.387 . S
C186 C190 1.391 . S
C187 C186 1.387 . S
C187 C188 1.384 . S
C187 H196 0.930 . S
C188 C185 1.380 . S
C188 C187 1.384 . S
C188 H197 0.931 . S
C189 C185 1.374 . S
C189 C190 1.390 . S
C189 H198 0.930 . S
C190 C186 1.391 . S
C190 C189 1.390 . S
C190 H199 0.930 . S
C191 Eu161 2.825 . S
C191 O176 1.238 . S
C191 O177 1.247 . S
C191 C185 1.507 . S
H192 C165 0.930 . S
H193 C166 0.931 . S
H194 C167 0.930 . S
H195 C168 0.930 . S
H196 C187 0.930 . S
H197 C188 0.931 . S
H198 C189 0.930 . S
H199 C190 0.930 . S
Tb200 C210 2.825 . S
Tb200 O211 2.347 . S
Tb200 O214 2.366 . S
Tb200 O219 2.418 . S
Tb200 O220 2.384 . S
Tb200 O223 2.479 . S
Tb200 O224 2.471 . S
Eu201 O212 2.418 . S
Eu201 O213 2.384 . S
Eu201 O216 2.479 . S
Eu201 O217 2.471 . S
Eu201 O218 2.347 . S
Eu201 O221 2.366 . S
Eu201 C231 2.825 . S
C202 O218 1.259 . S
C202 O219 1.265 . S
C203 O220 1.255 . S
C203 O221 1.265 . S
C204 C206 1.380 . S
C204 C207 1.374 . S
C204 C210 1.507 . S
C205 C206 1.384 . S
C205 C209 1.387 . S
C205 H232 0.930 . S
C206 C204 1.380 . S
C206 C205 1.384 . S
C206 H233 0.931 . S
C207 C204 1.374 . S
C207 C208 1.390 . S
C207 H234 0.930 . S
C208 C207 1.390 . S
C208 C209 1.391 . S
C208 H235 0.930 . S
C209 C205 1.387 . S
C209 C208 1.391 . S
C210 Tb200 2.825 . S
C210 C204 1.507 . S
C210 O223 1.238 . S
C210 O224 1.247 . S
O211 Tb200 2.347 . S
O211 C215 1.259 . S
O212 Eu201 2.418 . S
O212 C215 1.265 . S
O213 Eu201 2.384 . S
O213 C222 1.255 . S
O214 Tb200 2.366 . S
O214 C222 1.265 . S
C215 O211 1.259 . S
C215 O212 1.265 . S
O216 Eu201 2.479 . S
O216 C231 1.238 . S
O217 Eu201 2.471 . S
O217 C231 1.247 . S
O218 Eu201 2.347 . S
O218 C202 1.259 . S
O219 Tb200 2.418 . S
O219 C202 1.265 . S
O220 Tb200 2.384 . S
O220 C203 1.255 . S
O221 Eu201 2.366 . S
O221 C203 1.265 . S
C222 O213 1.255 . S
C222 O214 1.265 . S
O223 Tb200 2.479 . S
O223 C210 1.238 . S
O224 Tb200 2.471 . S
O224 C210 1.247 . S
C225 C228 1.380 . S
C225 C229 1.374 . S
C225 C231 1.507 . S
C226 C227 1.387 . S
C226 C230 1.391 . S
C227 C226 1.387 . S
C227 C228 1.384 . S
C227 H236 0.930 . S
C228 C225 1.380 . S
C228 C227 1.384 . S
C228 H237 0.931 . S
C229 C225 1.374 . S
C229 C230 1.390 . S
C229 H238 0.930 . S
C230 C226 1.391 . S
C230 C229 1.390 . S
C230 H239 0.930 . S
C231 Eu201 2.825 . S
C231 O216 1.238 . S
C231 O217 1.247 . S
C231 C225 1.507 . S
H232 C205 0.930 . S
H233 C206 0.931 . S
H234 C207 0.930 . S
H235 C208 0.930 . S
H236 C227 0.930 . S
H237 C228 0.931 . S
H238 C229 0.930 . S
H239 C230 0.930 . S
Tb240 C250 2.825 . S
Tb240 O251 2.347 . S
Tb240 O254 2.366 . S
Tb240 O259 2.418 . S
Tb240 O260 2.384 . S
Tb240 O263 2.479 . S
Tb240 O264 2.471 . S
Eu241 O252 2.418 . S
Eu241 O253 2.384 . S
Eu241 O256 2.479 . S
Eu241 O257 2.471 . S
Eu241 O258 2.347 . S
Eu241 O261 2.366 . S
Eu241 C271 2.825 . S
C242 O258 1.259 . S
C242 O259 1.265 . S
C243 O260 1.255 . S
C243 O261 1.265 . S
C244 C246 1.380 . S
C244 C247 1.374 . S
C244 C250 1.507 . S
C245 C246 1.384 . S
C245 C249 1.387 . S
C245 H272 0.930 . S
C246 C244 1.380 . S
C246 C245 1.384 . S
C246 H273 0.931 . S
C247 C244 1.374 . S
C247 C248 1.390 . S
C247 H274 0.930 . S
C248 C247 1.390 . S
C248 C249 1.391 . S
C248 H275 0.930 . S
C249 C245 1.387 . S
C249 C248 1.391 . S
C250 Tb240 2.825 . S
C250 C244 1.507 . S
C250 O263 1.238 . S
C250 O264 1.247 . S
O251 Tb240 2.347 . S
O251 C255 1.259 . S
O252 Eu241 2.418 . S
O252 C255 1.265 . S
O253 Eu241 2.384 . S
O253 C262 1.255 . S
O254 Tb240 2.366 . S
O254 C262 1.265 . S
C255 O251 1.259 . S
C255 O252 1.265 . S
O256 Eu241 2.479 . S
O256 C271 1.238 . S
O257 Eu241 2.471 . S
O257 C271 1.247 . S
O258 Eu241 2.347 . S
O258 C242 1.259 . S
O259 Tb240 2.418 . S
O259 C242 1.265 . S
O260 Tb240 2.384 . S
O260 C243 1.255 . S
O261 Eu241 2.366 . S
O261 C243 1.265 . S
C262 O253 1.255 . S
C262 O254 1.265 . S
O263 Tb240 2.479 . S
O263 C250 1.238 . S
O264 Tb240 2.471 . S
O264 C250 1.247 . S
C265 C268 1.380 . S
C265 C269 1.374 . S
C265 C271 1.507 . S
C266 C267 1.387 . S
C266 C270 1.391 . S
C267 C266 1.387 . S
C267 C268 1.384 . S
C267 H276 0.930 . S
C268 C265 1.380 . S
C268 C267 1.384 . S
C268 H277 0.931 . S
C269 C265 1.374 . S
C269 C270 1.390 . S
C269 H278 0.930 . S
C270 C266 1.391 . S
C270 C269 1.390 . S
C270 H279 0.930 . S
C271 Eu241 2.825 . S
C271 O256 1.238 . S
C271 O257 1.247 . S
C271 C265 1.507 . S
H272 C245 0.930 . S
H273 C246 0.931 . S
H274 C247 0.930 . S
H275 C248 0.930 . S
H276 C267 0.930 . S
H277 C268 0.931 . S
H278 C269 0.930 . S
H279 C270 0.930 . S
Tb280 C290 2.825 . S
Tb280 O291 2.347 . S
Tb280 O294 2.366 . S
Tb280 O299 2.418 . S
Tb280 O300 2.384 . S
Tb280 O303 2.479 . S
Tb280 O304 2.471 . S
Eu281 O292 2.418 . S
Eu281 O293 2.384 . S
Eu281 O296 2.479 . S
Eu281 O297 2.471 . S
Eu281 O298 2.347 . S
Eu281 O301 2.366 . S
Eu281 C311 2.825 . S
C282 O298 1.259 . S
C282 O299 1.265 . S
C283 O300 1.255 . S
C283 O301 1.265 . S
C284 C286 1.380 . S
C284 C287 1.374 . S
C284 C290 1.507 . S
C285 C286 1.384 . S
C285 C289 1.387 . S
C285 H312 0.930 . S
C286 C284 1.380 . S
C286 C285 1.384 . S
C286 H313 0.931 . S
C287 C284 1.374 . S
C287 C288 1.390 . S
C287 H314 0.930 . S
C288 C287 1.390 . S
C288 C289 1.391 . S
C288 H315 0.930 . S
C289 C285 1.387 . S
C289 C288 1.391 . S
C290 Tb280 2.825 . S
C290 C284 1.507 . S
C290 O303 1.238 . S
C290 O304 1.247 . S
O291 Tb280 2.347 . S
O291 C295 1.259 . S
O292 Eu281 2.418 . S
O292 C295 1.265 . S
O293 Eu281 2.384 . S
O293 C302 1.255 . S
O294 Tb280 2.366 . S
O294 C302 1.265 . S
C295 O291 1.259 . S
C295 O292 1.265 . S
O296 Eu281 2.479 . S
O296 C311 1.238 . S
O297 Eu281 2.471 . S
O297 C311 1.247 . S
O298 Eu281 2.347 . S
O298 C282 1.259 . S
O299 Tb280 2.418 . S
O299 C282 1.265 . S
O300 Tb280 2.384 . S
O300 C283 1.255 . S
O301 Eu281 2.366 . S
O301 C283 1.265 . S
C302 O293 1.255 . S
C302 O294 1.265 . S
O303 Tb280 2.479 . S
O303 C290 1.238 . S
O304 Tb280 2.471 . S
O304 C290 1.247 . S
C305 C308 1.380 . S
C305 C309 1.374 . S
C305 C311 1.507 . S
C306 C307 1.387 . S
C306 C310 1.391 . S
C307 C306 1.387 . S
C307 C308 1.384 . S
C307 H316 0.930 . S
C308 C305 1.380 . S
C308 C307 1.384 . S
C308 H317 0.931 . S
C309 C305 1.374 . S
C309 C310 1.390 . S
C309 H318 0.930 . S
C310 C306 1.391 . S
C310 C309 1.390 . S
C310 H319 0.930 . S
C311 Eu281 2.825 . S
C311 O296 1.238 . S
C311 O297 1.247 . S
C311 C305 1.507 . S
H312 C285 0.930 . S
H313 C286 0.931 . S
H314 C287 0.930 . S
H315 C288 0.930 . S
H316 C307 0.930 . S
H317 C308 0.931 . S
H318 C309 0.930 . S
H319 C310 0.930 . S
C320 O332 1.241 . S
C320 O333 1.280 . S
C321 O334 1.277 . S
C321 O335 1.245 . S
C322 O346 1.247 . S
C322 O348 1.289 . S
Mg323 O324 1.926 1_455 S
Mg323 O333 1.984 1_455 S
Mg323 O335 1.988 1_455 S
Mg323 O336 2.061 . S
O324 Mg323 1.926 1_655 S
O324 Mg325 1.986 . S
O324 Mg326 1.917 1_655 S
Mg325 O324 1.986 . S
Mg325 O332 2.042 . S
Mg325 O334 2.041 . S
Mg325 O340 2.038 1_545 S
Mg325 O348 2.238 1_545 S
Mg326 O324 1.917 1_455 S
Mg326 O327 1.917 1_545 S
Mg326 O337 2.106 . S
Mg326 O339 2.079 1_445 S
Mg326 O348 2.106 1_445 S
Mg326 O349 2.079 . S
O327 Mg326 1.917 1_565 S
O327 Mg328 1.926 . S
O327 Mg329 1.986 1_565 S
Mg328 O327 1.926 . S
Mg328 O342 1.984 . S
Mg328 O345 1.988 . S
Mg328 O346 2.061 1_455 S
Mg329 O327 1.986 1_545 S
Mg329 O337 2.238 . S
Mg329 O341 2.042 1_545 S
Mg329 O343 2.041 1_545 S
Mg329 O350 2.038 . S
C330 O336 1.247 . S
C330 O337 1.289 . S
C331 O349 1.245 . S
C331 O350 1.274 . S
O332 C320 1.241 . S
O332 Mg325 2.042 . S
O333 C320 1.280 . S
O333 Mg323 1.984 1_655 S
O334 C321 1.277 . S
O334 Mg325 2.041 . S
O335 C321 1.245 . S
O335 Mg323 1.988 1_655 S
O336 Mg323 2.061 . S
O336 C330 1.247 . S
O337 Mg326 2.106 . S
O337 Mg329 2.238 . S
O337 C330 1.289 . S
C338 O339 1.245 . S
C338 O340 1.274 . S
O339 Mg326 2.079 1_665 S
O339 C338 1.245 . S
O340 Mg325 2.038 1_565 S
O340 C338 1.274 . S
O341 Mg329 2.042 1_565 S
O341 C344 1.241 . S
O342 Mg328 1.984 . S
O342 C344 1.280 . S
O343 Mg329 2.041 1_565 S
O343 C347 1.277 . S
C344 O341 1.241 . S
C344 O342 1.280 . S
O345 Mg328 1.988 . S
O345 C347 1.245 . S
O346 C322 1.247 . S
O346 Mg328 2.061 1_655 S
C347 O343 1.277 . S
C347 O345 1.245 . S
O348 C322 1.289 . S
O348 Mg325 2.238 1_565 S
O348 Mg326 2.106 1_665 S
O349 Mg326 2.079 . S
O349 C331 1.245 . S
O350 Mg329 2.038 . S
O350 C331 1.274 . S
C351 O363 1.241 . S
C351 O364 1.280 . S
C352 O365 1.277 1_556 S
C352 O366 1.245 1_556 S
C353 O377 1.247 . S
C353 O379 1.289 1_556 S
Mg354 O355 1.926 . S
Mg354 O364 1.984 . S
Mg354 O366 1.988 . S
Mg354 O367 2.061 . S
O355 Mg354 1.926 . S
O355 Mg356 1.985 1_545 S
O355 Mg357 1.917 . S
Mg356 O355 1.985 1_565 S
Mg356 O363 2.036 1_565 S
Mg356 O365 2.034 1_565 S
Mg356 O371 2.046 . S
Mg356 O379 2.245 . S
Mg357 O355 1.917 . S
Mg357 O358 1.917 1_545 S
Mg357 O368 2.106 . S
Mg357 O370 2.079 1_545 S
Mg357 O379 2.106 1_545 S
Mg357 O380 2.079 . S
O358 Mg357 1.917 1_565 S
O358 Mg359 1.926 . S
O358 Mg360 1.986 1_565 S
Mg359 O358 1.926 . S
Mg359 O373 1.984 1_554 S
Mg359 O376 1.988 . S
Mg359 O377 2.061 1_554 S
Mg360 O358 1.986 1_545 S
Mg360 O368 2.238 . S
Mg360 O372 2.042 1_545 S
Mg360 O374 2.041 1_545 S
Mg360 O381 2.038 . S
C361 O367 1.247 . S
C361 O368 1.289 . S
C362 O380 1.245 1_556 S
C362 O381 1.274 1_556 S
O363 C351 1.241 . S
O363 Mg356 2.036 1_545 S
O364 C351 1.280 . S
O364 Mg354 1.984 . S
O365 C352 1.277 1_554 S
O365 Mg356 2.034 1_545 S
O366 C352 1.245 1_554 S
O366 Mg354 1.988 . S
O367 Mg354 2.061 . S
O367 C361 1.247 . S
O368 Mg357 2.106 . S
O368 Mg360 2.238 . S
O368 C361 1.289 . S
C369 O370 1.245 . S
C369 O371 1.274 . S
O370 Mg357 2.079 1_565 S
O370 C369 1.245 . S
O371 Mg356 2.046 . S
O371 C369 1.274 . S
O372 Mg360 2.042 1_565 S
O372 C375 1.241 1_554 S
O373 Mg359 1.984 1_556 S
O373 C375 1.280 . S
O374 Mg360 2.041 1_565 S
O374 C378 1.277 . S
C375 O372 1.241 1_556 S
C375 O373 1.280 . S
O376 Mg359 1.988 . S
O376 C378 1.245 . S
O377 C353 1.247 . S
O377 Mg359 2.061 1_556 S
C378 O374 1.277 . S
C378 O376 1.245 . S
O379 C353 1.289 1_554 S
O379 Mg356 2.245 . S
O379 Mg357 2.106 1_565 S
O380 Mg357 2.079 . S
O380 C362 1.245 1_554 S
O381 Mg360 2.038 . S
O381 C362 1.274 1_554 S
C382 O394 1.241 . S
C382 O395 1.280 . S
C383 O396 1.277 . S
C383 O397 1.245 1_655 S
C384 O408 1.247 . S
C384 O410 1.289 . S
Mg385 O386 1.926 . S
Mg385 O395 1.984 1_455 S
Mg385 O397 1.988 1_554 S
Mg385 O398 2.061 . S
O386 Mg385 1.926 . S
O386 Mg387 1.986 1_455 S
O386 Mg388 1.917 . S
Mg387 O386 1.986 1_655 S
Mg387 O394 2.042 . S
Mg387 O396 2.041 1_554 S
Mg387 O402 2.038 . S
Mg387 O410 2.238 1_554 S
Mg388 O386 1.917 . S
Mg388 O389 1.917 1_554 S
Mg388 O399 2.106 . S
Mg388 O401 2.079 . S
Mg388 O410 2.106 1_454 S
Mg388 O411 2.079 1_554 S
O389 Mg388 1.917 1_556 S
O389 Mg390 1.926 . S
O389 Mg391 1.980 1_556 S
Mg390 O389 1.926 . S
Mg390 O404 1.984 . S
Mg390 O407 1.988 1_556 S
Mg390 O408 2.061 1_455 S
Mg391 O389 1.980 1_554 S
Mg391 O399 2.256 . S
Mg391 O403 2.021 1_554 S
Mg391 O405 2.069 . S
Mg391 O412 2.012 1_554 S
C392 O398 1.247 . S
C392 O399 1.289 . S
C393 O411 1.245 . S
C393 O412 1.274 . S
O394 C382 1.241 . S
O394 Mg387 2.042 . S
O395 C382 1.280 . S
O395 Mg385 1.984 1_655 S
O396 C383 1.277 . S
O396 Mg387 2.041 1_556 S
O397 C383 1.245 1_455 S
O397 Mg385 1.988 1_556 S
O398 Mg385 2.061 . S
O398 C392 1.247 . S
O399 Mg388 2.106 . S
O399 Mg391 2.256 . S
O399 C392 1.289 . S
C400 O401 1.245 1_655 S
C400 O402 1.274 . S
O401 Mg388 2.079 . S
O401 C400 1.245 1_455 S
O402 Mg387 2.038 . S
O402 C400 1.274 . S
O403 Mg391 2.021 1_556 S
O403 C406 1.241 . S
O404 Mg390 1.984 . S
O404 C406 1.280 . S
O405 Mg391 2.069 . S
O405 C409 1.277 . S
C406 O403 1.241 . S
C406 O404 1.280 . S
O407 Mg390 1.988 1_554 S
O407 C409 1.245 . S
O408 C384 1.247 . S
O408 Mg390 2.061 1_655 S
C409 O405 1.277 . S
C409 O407 1.245 . S
O410 C384 1.289 . S
O410 Mg387 2.238 1_556 S
O410 Mg388 2.106 1_656 S
O411 Mg388 2.079 1_556 S
O411 C393 1.245 . S
O412 Mg391 2.012 1_556 S
O412 C393 1.274 . S
C413 O425 1.241 . S
C413 O426 1.280 . S
C414 O427 1.277 . S
C414 O428 1.259 . S
C415 O439 1.247 . S
C415 O441 1.289 . S
Mg416 O417 1.926 . S
Mg416 O426 1.984 . S
Mg416 O428 1.960 1_554 S
Mg416 O429 2.061 . S
O417 Mg416 1.926 . S
O417 Mg418 1.986 . S
O417 Mg419 1.917 . S
Mg418 O417 1.986 . S
Mg418 O425 2.042 . S
Mg418 O427 2.041 1_554 S
Mg418 O433 2.038 . S
Mg418 O441 2.238 1_554 S
Mg419 O417 1.917 . S
Mg419 O420 1.917 . S
Mg419 O430 2.106 . S
Mg419 O432 2.079 . S
Mg419 O441 2.106 1_554 S
Mg419 O442 2.079 1_554 S
O420 Mg419 1.917 . S
O420 Mg421 1.926 . S
O420 Mg422 1.986 . S
Mg421 O420 1.926 . S
Mg421 O435 1.984 1_554 S
Mg421 O438 1.988 . S
Mg421 O439 2.061 1_554 S
Mg422 O420 1.986 . S
Mg422 O430 2.238 . S
Mg422 O434 2.042 1_554 S
Mg422 O436 2.041 . S
Mg422 O443 2.038 1_554 S
C423 O429 1.247 . S
C423 O430 1.289 . S
C424 O442 1.245 . S
C424 O443 1.274 . S
O425 C413 1.241 . S
O425 Mg418 2.042 . S
O426 C413 1.280 . S
O426 Mg416 1.984 . S
O427 C414 1.277 . S
O427 Mg418 2.041 1_556 S
O428 C414 1.259 . S
O428 Mg416 1.960 1_556 S
O429 Mg416 2.061 . S
O429 C423 1.247 . S
O430 Mg419 2.106 . S
O430 Mg422 2.238 . S
O430 C423 1.289 . S
C431 O432 1.245 . S
C431 O433 1.274 . S
O432 Mg419 2.079 . S
O432 C431 1.245 . S
O433 Mg418 2.038 . S
O433 C431 1.274 . S
O434 Mg422 2.042 1_556 S
O434 C437 1.241 . S
O435 Mg421 1.984 1_556 S
O435 C437 1.280 . S
O436 Mg422 2.041 . S
O436 C440 1.277 . S
C437 O434 1.241 . S
C437 O435 1.280 . S
O438 Mg421 1.988 . S
O438 C440 1.245 . S
O439 C415 1.247 . S
O439 Mg421 2.061 1_556 S
C440 O436 1.277 . S
C440 O438 1.245 . S
O441 C415 1.289 . S
O441 Mg418 2.238 1_556 S
O441 Mg419 2.106 1_556 S
O442 Mg419 2.079 1_556 S
O442 C424 1.245 . S
O443 Mg422 2.038 1_556 S
O443 C424 1.274 . S
C444 O456 1.241 . S
C444 O457 1.280 . S
C445 O458 1.277 . S
C445 O459 1.245 . S
C446 O470 1.247 . S
C446 O472 1.289 . S
Mg447 O448 1.927 1_455 S
Mg447 O457 1.976 1_455 S
Mg447 O459 1.983 1_455 S
Mg447 O460 2.071 . S
O448 Mg447 1.927 1_655 S
O448 Mg449 1.986 . S
O448 Mg450 1.917 1_655 S
Mg449 O448 1.986 . S
Mg449 O456 2.042 . S
Mg449 O458 2.041 . S
Mg449 O464 2.038 . S
Mg449 O472 2.238 . S
Mg450 O448 1.917 1_455 S
Mg450 O451 1.917 . S
Mg450 O461 2.106 . S
Mg450 O463 2.079 1_455 S
Mg450 O472 2.106 1_455 S
Mg450 O473 2.079 . S
O451 Mg450 1.917 . S
O451 Mg452 1.926 . S
O451 Mg453 1.986 . S
Mg452 O451 1.926 . S
Mg452 O466 1.984 . S
Mg452 O469 1.988 . S
Mg452 O470 2.061 1_455 S
Mg453 O451 1.986 . S
Mg453 O461 2.238 . S
Mg453 O465 2.042 . S
Mg453 O467 2.041 . S
Mg453 O474 2.038 . S
C454 O460 1.247 . S
C454 O461 1.289 . S
C455 O473 1.245 . S
C455 O474 1.274 . S
O456 C444 1.241 . S
O456 Mg449 2.042 . S
O457 C444 1.280 . S
O457 Mg447 1.976 1_655 S
O458 C445 1.277 . S
O458 Mg449 2.041 . S
O459 C445 1.245 . S
O459 Mg447 1.983 1_655 S
O460 Mg447 2.071 . S
O460 C454 1.247 . S
O461 Mg450 2.106 . S
O461 Mg453 2.238 . S
O461 C454 1.289 . S
C462 O463 1.245 . S
C462 O464 1.274 . S
O463 Mg450 2.079 1_655 S
O463 C462 1.245 . S
O464 Mg449 2.038 . S
O464 C462 1.274 . S
O465 Mg453 2.042 . S
O465 C468 1.241 . S
O466 Mg452 1.984 . S
O466 C468 1.280 . S
O467 Mg453 2.041 . S
O467 C471 1.277 . S
C468 O465 1.241 . S
C468 O466 1.280 . S
O469 Mg452 1.988 . S
O469 C471 1.245 . S
O470 C446 1.247 . S
O470 Mg452 2.061 1_655 S
C471 O467 1.277 . S
C471 O469 1.245 . S
O472 C446 1.289 . S
O472 Mg449 2.238 . S
O472 Mg450 2.106 1_655 S
O473 Mg450 2.079 . S
O473 C455 1.245 . S
O474 Mg453 2.038 . S
O474 C455 1.274 . S
C475 O487 1.241 . S
C475 O488 1.280 . S
C476 O489 1.277 . S
C476 O490 1.245 . S
C477 O501 1.247 . S
C477 O503 1.289 1_565 S
Mg478 O479 1.926 . S
Mg478 O488 1.984 . S
Mg478 O490 1.988 . S
Mg478 O491 2.061 . S
O479 Mg478 1.926 . S
O479 Mg480 1.986 . S
O479 Mg481 1.917 . S
Mg480 O479 1.986 . S
Mg480 O487 2.042 . S
Mg480 O489 2.041 . S
Mg480 O495 2.038 1_545 S
Mg480 O503 2.238 . S
Mg481 O479 1.917 . S
Mg481 O482 1.917 . S
Mg481 O492 2.106 . S
Mg481 O494 2.079 . S
Mg481 O503 2.106 . S
Mg481 O504 2.079 . S
O482 Mg481 1.917 . S
O482 Mg483 1.926 1_545 S
O482 Mg484 1.986 . S
Mg483 O482 1.926 1_565 S
Mg483 O497 1.984 . S
Mg483 O500 1.988 . S
Mg483 O501 2.061 . S
Mg484 O482 1.986 . S
Mg484 O492 2.238 . S
Mg484 O496 2.042 . S
Mg484 O498 2.041 . S
Mg484 O505 2.038 . S
C485 O491 1.247 . S
C485 O492 1.289 . S
C486 O504 1.245 . S
C486 O505 1.274 . S
O487 C475 1.241 . S
O487 Mg480 2.042 . S
O488 C475 1.280 . S
O488 Mg478 1.984 . S
O489 C476 1.277 . S
O489 Mg480 2.041 . S
O490 C476 1.245 . S
O490 Mg478 1.988 . S
O491 Mg478 2.061 . S
O491 C485 1.247 . S
O492 Mg481 2.106 . S
O492 Mg484 2.238 . S
O492 C485 1.289 . S
C493 O494 1.245 1_565 S
C493 O495 1.274 . S
O494 Mg481 2.079 . S
O494 C493 1.245 1_545 S
O495 Mg480 2.038 1_565 S
O495 C493 1.274 . S
O496 Mg484 2.042 . S
O496 C499 1.241 1_545 S
O497 Mg483 1.984 . S
O497 C499 1.280 . S
O498 Mg484 2.041 . S
O498 C502 1.277 1_545 S
C499 O496 1.241 1_565 S
C499 O497 1.280 . S
O500 Mg483 1.988 . S
O500 C502 1.245 . S
O501 C477 1.247 . S
O501 Mg483 2.061 . S
C502 O498 1.277 1_565 S
C502 O500 1.245 . S
O503 C477 1.289 1_545 S
O503 Mg480 2.238 . S
O503 Mg481 2.106 . S
O504 Mg481 2.079 . S
O504 C486 1.245 . S
O505 Mg484 2.038 . S
O505 C486 1.274 . S
H506 C514 0.950 . S
H507 C519 0.950 . S
H508 C516 0.950 . S
H509 C518 0.950 . S
H510 C520 0.950 . S
H511 C522 0.950 . S
H512 C524 0.950 . S
H513 C525 0.950 . S
C514 H506 0.950 . S
C514 C515 1.386 . S
C514 C516 1.391 . S
C515 C514 1.386 . S
C515 C519 1.393 . S
C516 H508 0.950 . S
C516 C514 1.391 . S
C516 C517 1.400 . S
C517 C516 1.400 . S
C517 C518 1.398 . S
C517 C523 1.491 . S
C518 H509 0.950 . S
C518 C517 1.398 . S
C518 C519 1.391 . S
C519 H507 0.950 . S
C519 C515 1.393 . S
C519 C518 1.391 . S
C520 H510 0.950 . S
C520 C521 1.386 . S
C520 C522 1.391 . S
C521 C520 1.386 . S
C521 C525 1.393 . S
C522 H511 0.950 . S
C522 C520 1.391 . S
C522 C523 1.400 . S
C523 C517 1.491 . S
C523 C522 1.400 . S
C523 C524 1.398 . S
C524 H512 0.950 . S
C524 C523 1.398 . S
C524 C525 1.391 . S
C525 H513 0.950 . S
C525 C521 1.393 . S
C525 C524 1.391 . S
H526 C534 0.950 . S
H527 C539 0.950 . S
H528 C536 0.950 . S
H529 C538 0.950 . S
H530 C540 0.950 . S
H531 C542 0.950 . S
H532 C544 0.950 . S
H533 C545 0.950 . S
C534 H526 0.950 . S
C534 C535 1.386 . S
C534 C536 1.391 . S
C535 C534 1.386 . S
C535 C539 1.393 . S
C536 H528 0.950 . S
C536 C534 1.391 . S
C536 C537 1.400 . S
C537 C536 1.400 . S
C537 C538 1.398 . S
C537 C543 1.491 . S
C538 H529 0.950 . S
C538 C537 1.398 . S
C538 C539 1.391 . S
C539 H527 0.950 . S
C539 C535 1.393 . S
C539 C538 1.391 . S
C540 H530 0.950 . S
C540 C541 1.386 . S
C540 C542 1.391 . S
C541 C540 1.386 . S
C541 C545 1.393 . S
C542 H531 0.950 . S
C542 C540 1.391 . S
C542 C543 1.400 . S
C543 C537 1.491 . S
C543 C542 1.400 . S
C543 C544 1.398 . S
C544 H532 0.950 . S
C544 C543 1.398 . S
C544 C545 1.391 . S
C545 H533 0.950 . S
C545 C541 1.393 . S
C545 C544 1.391 . S
H546 C554 0.950 . S
H547 C559 0.950 . S
H548 C556 0.950 . S
H549 C558 0.950 . S
H550 C560 0.950 . S
H551 C562 0.950 . S
H552 C564 0.950 . S
H553 C565 0.950 . S
C554 H546 0.950 . S
C554 C555 1.386 . S
C554 C556 1.391 . S
C555 C554 1.386 . S
C555 C559 1.393 . S
C556 H548 0.950 . S
C556 C554 1.391 . S
C556 C557 1.400 . S
C557 C556 1.400 . S
C557 C558 1.398 . S
C557 C563 1.491 . S
C558 H549 0.950 . S
C558 C557 1.398 . S
C558 C559 1.391 . S
C559 H547 0.950 . S
C559 C555 1.393 . S
C559 C558 1.391 . S
C560 H550 0.950 . S
C560 C561 1.386 . S
C560 C562 1.391 . S
C561 C560 1.386 . S
C561 C565 1.393 . S
C562 H551 0.950 . S
C562 C560 1.391 . S
C562 C563 1.400 . S
C563 C557 1.491 . S
C563 C562 1.400 . S
C563 C564 1.398 . S
C564 H552 0.950 . S
C564 C563 1.398 . S
C564 C565 1.391 . S
C565 H553 0.950 . S
C565 C561 1.393 . S
C565 C564 1.391 . S
H566 C574 0.950 . S
H567 C579 0.950 . S
H568 C576 0.950 . S
H569 C578 0.950 . S
H570 C580 0.950 . S
H571 C582 0.950 . S
H572 C584 0.950 . S
H573 C585 0.950 . S
C574 H566 0.950 . S
C574 C575 1.386 . S
C574 C576 1.391 . S
C575 C574 1.386 . S
C575 C579 1.393 . S
C576 H568 0.950 . S
C576 C574 1.391 . S
C576 C577 1.400 . S
C577 C576 1.400 . S
C577 C578 1.398 . S
C577 C583 1.491 . S
C578 H569 0.950 . S
C578 C577 1.398 . S
C578 C579 1.391 . S
C579 H567 0.950 . S
C579 C575 1.393 . S
C579 C578 1.391 . S
C580 H570 0.950 . S
C580 C581 1.386 . S
C580 C582 1.391 . S
C581 C580 1.386 . S
C581 C585 1.393 . S
C582 H571 0.950 . S
C582 C580 1.391 . S
C582 C583 1.400 . S
C583 C577 1.491 . S
C583 C582 1.400 . S
C583 C584 1.398 . S
C584 H572 0.950 . S
C584 C583 1.398 . S
C584 C585 1.391 . S
C585 H573 0.950 . S
C585 C581 1.393 . S
C585 C584 1.391 . S
H586 C594 0.950 . S
H587 C599 0.950 . S
H588 C596 0.950 . S
H589 C598 0.950 . S
H590 C600 0.950 . S
H591 C602 0.950 . S
H592 C604 0.950 . S
H593 C605 0.950 . S
C594 H586 0.950 . S
C594 C595 1.386 . S
C594 C596 1.391 . S
C595 C594 1.386 . S
C595 C599 1.393 . S
C596 H588 0.950 . S
C596 C594 1.391 . S
C596 C597 1.400 . S
C597 C596 1.400 . S
C597 C598 1.398 . S
C597 C603 1.491 . S
C598 H589 0.950 . S
C598 C597 1.398 . S
C598 C599 1.391 . S
C599 H587 0.950 . S
C599 C595 1.393 . S
C599 C598 1.391 . S
C600 H590 0.950 . S
C600 C601 1.386 . S
C600 C602 1.391 . S
C601 C600 1.386 . S
C601 C605 1.393 . S
C602 H591 0.950 . S
C602 C600 1.391 . S
C602 C603 1.400 . S
C603 C597 1.491 . S
C603 C602 1.400 . S
C603 C604 1.398 . S
C604 H592 0.950 . S
C604 C603 1.398 . S
C604 C605 1.391 . S
C605 H593 0.950 . S
C605 C601 1.393 . S
C605 C604 1.391 . S
H606 C614 0.950 . S
H607 C619 0.950 . S
H608 C616 0.950 . S
H609 C618 0.950 . S
H610 C620 0.950 . S
H611 C622 0.950 . S
H612 C624 0.950 . S
H613 C625 0.950 . S
C614 H606 0.950 . S
C614 C615 1.386 . S
C614 C616 1.391 . S
C615 C614 1.386 . S
C615 C619 1.393 . S
C616 H608 0.950 . S
C616 C614 1.391 . S
C616 C617 1.400 . S
C617 C616 1.400 . S
C617 C618 1.398 . S
C617 C623 1.491 . S
C618 H609 0.950 . S
C618 C617 1.398 . S
C618 C619 1.391 . S
C619 H607 0.950 . S
C619 C615 1.393 . S
C619 C618 1.391 . S
C620 H610 0.950 . S
C620 C621 1.386 . S
C620 C622 1.391 . S
C621 C620 1.386 . S
C621 C625 1.393 . S
C622 H611 0.950 . S
C622 C620 1.391 . S
C622 C623 1.400 . S
C623 C617 1.491 . S
C623 C622 1.400 . S
C623 C624 1.398 . S
C624 H612 0.950 . S
C624 C623 1.398 . S
C624 C625 1.391 . S
C625 H613 0.950 . S
C625 C621 1.393 . S
C625 C624 1.391 . S
H626 C634 0.950 . S
H627 C639 0.950 . S
H628 C636 0.950 . S
H629 C638 0.950 . S
H630 C640 0.950 . S
H631 C642 0.950 . S
H632 C644 0.950 . S
H633 C645 0.950 . S
C634 H626 0.950 . S
C634 C635 1.386 . S
C634 C636 1.391 . S
C635 C634 1.386 . S
C635 C639 1.393 . S
C636 H628 0.950 . S
C636 C634 1.391 . S
C636 C637 1.400 . S
C637 C636 1.400 . S
C637 C638 1.398 . S
C637 C643 1.491 . S
C638 H629 0.950 . S
C638 C637 1.398 . S
C638 C639 1.391 . S
C639 H627 0.950 . S
C639 C635 1.393 . S
C639 C638 1.391 . S
C640 H630 0.950 . S
C640 C641 1.386 . S
C640 C642 1.391 . S
C641 C640 1.386 . S
C641 C645 1.393 . S
C642 H631 0.950 . S
C642 C640 1.391 . S
C642 C643 1.400 . S
C643 C637 1.491 . S
C643 C642 1.400 . S
C643 C644 1.398 . S
C644 H632 0.950 . S
C644 C643 1.398 . S
C644 C645 1.391 . S
C645 H633 0.950 . S
C645 C641 1.393 . S
C645 C644 1.391 . S
H646 C654 0.950 . S
H647 C659 0.950 . S
H648 C656 0.950 . S
H649 C658 0.950 . S
H650 C660 0.950 . S
H651 C662 0.950 . S
H652 C664 0.950 . S
H653 C665 0.950 . S
C654 H646 0.950 . S
C654 C655 1.386 . S
C654 C656 1.391 . S
C655 C654 1.386 . S
C655 C659 1.393 . S
C656 H648 0.950 . S
C656 C654 1.391 . S
C656 C657 1.400 . S
C657 C656 1.400 . S
C657 C658 1.398 . S
C657 C663 1.491 . S
C658 H649 0.950 . S
C658 C657 1.398 . S
C658 C659 1.391 . S
C659 H647 0.950 . S
C659 C655 1.393 . S
C659 C658 1.391 . S
C660 H650 0.950 . S
C660 C661 1.386 . S
C660 C662 1.391 . S
C661 C660 1.386 . S
C661 C665 1.393 . S
C662 H651 0.950 . S
C662 C660 1.391 . S
C662 C663 1.400 . S
C663 C657 1.491 . S
C663 C662 1.400 . S
C663 C664 1.398 . S
C664 H652 0.950 . S
C664 C663 1.398 . S
C664 C665 1.391 . S
C665 H653 0.950 . S
C665 C661 1.393 . S
C665 C664 1.391 . S
H666 C674 0.950 . S
H667 C679 0.950 . S
H668 C676 0.950 . S
H669 C678 0.950 . S
H670 C680 0.950 . S
H671 C682 0.950 . S
H672 C684 0.950 . S
H673 C685 0.950 . S
C674 H666 0.950 . S
C674 C675 1.386 . S
C674 C676 1.391 . S
C675 C674 1.386 . S
C675 C679 1.393 . S
C676 H668 0.950 . S
C676 C674 1.391 . S
C676 C677 1.400 . S
C677 C676 1.400 . S
C677 C678 1.398 . S
C677 C683 1.491 . S
C678 H669 0.950 . S
C678 C677 1.398 . S
C678 C679 1.391 . S
C679 H667 0.950 . S
C679 C675 1.393 . S
C679 C678 1.391 . S
C680 H670 0.950 . S
C680 C681 1.386 . S
C680 C682 1.391 . S
C681 C680 1.386 . S
C681 C685 1.393 . S
C682 H671 0.950 . S
C682 C680 1.391 . S
C682 C683 1.400 . S
C683 C677 1.491 . S
C683 C682 1.400 . S
C683 C684 1.398 . S
C684 H672 0.950 . S
C684 C683 1.398 . S
C684 C685 1.391 . S
C685 H673 0.950 . S
C685 C681 1.393 . S
C685 C684 1.391 . S
H686 C694 0.950 . S
H687 C699 0.950 . S
H688 C696 0.950 . S
H689 C698 0.950 . S
H690 C700 0.950 . S
H691 C702 0.950 . S
H692 C704 0.950 . S
H693 C705 0.950 . S
C694 H686 0.950 . S
C694 C695 1.386 . S
C694 C696 1.391 . S
C695 C694 1.386 . S
C695 C699 1.393 . S
C696 H688 0.950 . S
C696 C694 1.391 . S
C696 C697 1.400 . S
C697 C696 1.400 . S
C697 C698 1.398 . S
C697 C703 1.491 . S
C698 H689 0.950 . S
C698 C697 1.398 . S
C698 C699 1.391 . S
C699 H687 0.950 . S
C699 C695 1.393 . S
C699 C698 1.391 . S
C700 H690 0.950 . S
C700 C701 1.386 . S
C700 C702 1.391 . S
C701 C700 1.386 . S
C701 C705 1.393 . S
C702 H691 0.950 . S
C702 C700 1.391 . S
C702 C703 1.400 . S
C703 C697 1.491 . S
C703 C702 1.400 . S
C703 C704 1.398 . S
C704 H692 0.950 . S
C704 C703 1.398 . S
C704 C705 1.391 . S
C705 H693 0.950 . S
C705 C701 1.393 . S
C705 C704 1.391 . S
H706 C714 0.950 . S
H707 C719 0.950 . S
H708 C716 0.950 . S
H709 C718 0.950 . S
H710 C720 0.950 . S
H711 C722 0.950 . S
H712 C724 0.950 . S
H713 C725 0.950 . S
C714 H706 0.950 . S
C714 C715 1.386 . S
C714 C716 1.391 . S
C715 C714 1.386 . S
C715 C719 1.393 . S
C716 H708 0.950 . S
C716 C714 1.391 . S
C716 C717 1.400 . S
C717 C716 1.400 . S
C717 C718 1.398 . S
C717 C723 1.491 . S
C718 H709 0.950 . S
C718 C717 1.398 . S
C718 C719 1.391 . S
C719 H707 0.950 . S
C719 C715 1.393 . S
C719 C718 1.391 . S
C720 H710 0.950 . S
C720 C721 1.386 . S
C720 C722 1.391 . S
C721 C720 1.386 . S
C721 C725 1.393 . S
C722 H711 0.950 . S
C722 C720 1.391 . S
C722 C723 1.400 . S
C723 C717 1.491 . S
C723 C722 1.400 . S
C723 C724 1.398 . S
C724 H712 0.950 . S
C724 C723 1.398 . S
C724 C725 1.391 . S
C725 H713 0.950 . S
C725 C721 1.393 . S
C725 C724 1.391 . S
H726 C734 0.950 . S
H727 C739 0.950 . S
H728 C736 0.950 . S
H729 C738 0.950 . S
H730 C740 0.950 . S
H731 C742 0.950 . S
H732 C744 0.950 . S
H733 C745 0.950 . S
C734 H726 0.950 . S
C734 C735 1.386 . S
C734 C736 1.391 . S
C735 C734 1.386 . S
C735 C739 1.393 . S
C736 H728 0.950 . S
C736 C734 1.391 . S
C736 C737 1.400 . S
C737 C736 1.400 . S
C737 C738 1.398 . S
C737 C743 1.491 . S
C738 H729 0.950 . S
C738 C737 1.398 . S
C738 C739 1.391 . S
C739 H727 0.950 . S
C739 C735 1.393 . S
C739 C738 1.391 . S
C740 H730 0.950 . S
C740 C741 1.386 . S
C740 C742 1.391 . S
C741 C740 1.386 . S
C741 C745 1.393 . S
C742 H731 0.950 . S
C742 C740 1.391 . S
C742 C743 1.400 . S
C743 C737 1.491 . S
C743 C742 1.400 . S
C743 C744 1.398 . S
C744 H732 0.950 . S
C744 C743 1.398 . S
C744 C745 1.391 . S
C745 H733 0.950 . S
C745 C741 1.393 . S
C745 C744 1.391 . S
H746 C754 0.950 . S
H747 C759 0.950 . S
H748 C756 0.950 . S
H749 C758 0.950 . S
H750 C760 0.950 . S
H751 C762 0.950 . S
H752 C764 0.950 . S
H753 C765 0.950 . S
C754 H746 0.950 . S
C754 C755 1.386 . S
C754 C756 1.391 . S
C755 C754 1.386 . S
C755 C759 1.393 . S
C756 H748 0.950 . S
C756 C754 1.391 . S
C756 C757 1.400 . S
C757 C756 1.400 . S
C757 C758 1.398 . S
C757 C763 1.491 . S
C758 H749 0.950 . S
C758 C757 1.398 . S
C758 C759 1.391 . S
C759 H747 0.950 . S
C759 C755 1.393 . S
C759 C758 1.391 . S
C760 H750 0.950 . S
C760 C761 1.386 . S
C760 C762 1.391 . S
C761 C760 1.386 . S
C761 C765 1.393 . S
C762 H751 0.950 . S
C762 C760 1.391 . S
C762 C763 1.400 . S
C763 C757 1.491 . S
C763 C762 1.400 . S
C763 C764 1.398 . S
C764 H752 0.950 . S
C764 C763 1.398 . S
C764 C765 1.391 . S
C765 H753 0.950 . S
C765 C761 1.393 . S
C765 C764 1.391 . S
H766 C774 0.950 . S
H767 C779 0.950 . S
H768 C776 0.950 . S
H769 C778 0.950 . S
H770 C780 0.950 . S
H771 C782 0.950 . S
H772 C784 0.950 . S
H773 C785 0.950 . S
C774 H766 0.950 . S
C774 C775 1.386 . S
C774 C776 1.391 . S
C775 C774 1.386 . S
C775 C779 1.393 . S
C776 H768 0.950 . S
C776 C774 1.391 . S
C776 C777 1.400 . S
C777 C776 1.400 . S
C777 C778 1.398 . S
C777 C783 1.491 . S
C778 H769 0.950 . S
C778 C777 1.398 . S
C778 C779 1.391 . S
C779 H767 0.950 . S
C779 C775 1.393 . S
C779 C778 1.391 . S
C780 H770 0.950 . S
C780 C781 1.386 . S
C780 C782 1.391 . S
C781 C780 1.386 . S
C781 C785 1.393 . S
C782 H771 0.950 . S
C782 C780 1.391 . S
C782 C783 1.400 . S
C783 C777 1.491 . S
C783 C782 1.400 . S
C783 C784 1.398 . S
C784 H772 0.950 . S
C784 C783 1.398 . S
C784 C785 1.391 . S
C785 H773 0.950 . S
C785 C781 1.393 . S
C785 C784 1.391 . S
H786 C794 0.950 . S
H787 C799 0.950 . S
H788 C796 0.950 . S
H789 C798 0.950 . S
H790 C800 0.950 . S
H791 C802 0.950 . S
H792 C804 0.950 . S
H793 C805 0.950 . S
C794 H786 0.950 . S
C794 C795 1.386 . S
C794 C796 1.391 . S
C795 C794 1.386 . S
C795 C799 1.393 . S
C796 H788 0.950 . S
C796 C794 1.391 . S
C796 C797 1.400 . S
C797 C796 1.400 . S
C797 C798 1.398 . S
C797 C803 1.491 . S
C798 H789 0.950 . S
C798 C797 1.398 . S
C798 C799 1.391 . S
C799 H787 0.950 . S
C799 C795 1.393 . S
C799 C798 1.391 . S
C800 H790 0.950 . S
C800 C801 1.386 . S
C800 C802 1.391 . S
C801 C800 1.386 . S
C801 C805 1.393 . S
C802 H791 0.950 . S
C802 C800 1.391 . S
C802 C803 1.400 . S
C803 C797 1.491 . S
C803 C802 1.400 . S
C803 C804 1.398 . S
C804 H792 0.950 . S
C804 C803 1.398 . S
C804 C805 1.391 . S
C805 H793 0.950 . S
C805 C801 1.393 . S
C805 C804 1.391 . S
H806 C814 0.950 . S
H807 C819 0.950 . S
H808 C816 0.950 . S
H809 C818 0.950 . S
H810 C820 0.950 . S
H811 C822 0.950 . S
H812 C824 0.950 . S
H813 C825 0.950 . S
C814 H806 0.950 . S
C814 C815 1.386 . S
C814 C816 1.391 . S
C815 C814 1.386 . S
C815 C819 1.393 . S
C816 H808 0.950 . S
C816 C814 1.391 . S
C816 C817 1.400 . S
C817 C816 1.400 . S
C817 C818 1.398 . S
C817 C823 1.491 . S
C818 H809 0.950 . S
C818 C817 1.398 . S
C818 C819 1.391 . S
C819 H807 0.950 . S
C819 C815 1.393 . S
C819 C818 1.391 . S
C820 H810 0.950 . S
C820 C821 1.386 . S
C820 C822 1.391 . S
C821 C820 1.386 . S
C821 C825 1.393 . S
C822 H811 0.950 . S
C822 C820 1.391 . S
C822 C823 1.400 . S
C823 C817 1.491 . S
C823 C822 1.400 . S
C823 C824 1.398 . S
C824 H812 0.950 . S
C824 C823 1.398 . S
C824 C825 1.391 . S
C825 H813 0.950 . S
C825 C821 1.393 . S
C825 C824 1.391 . S
H826 C834 0.950 . S
H827 C839 0.950 . S
H828 C836 0.950 . S
H829 C838 0.950 . S
H830 C840 0.950 . S
H831 C842 0.950 . S
H832 C844 0.950 . S
H833 C845 0.950 . S
C834 H826 0.950 . S
C834 C835 1.386 . S
C834 C836 1.391 . S
C835 C834 1.386 . S
C835 C839 1.393 . S
C836 H828 0.950 . S
C836 C834 1.391 . S
C836 C837 1.400 . S
C837 C836 1.400 . S
C837 C838 1.398 . S
C837 C843 1.491 . S
C838 H829 0.950 . S
C838 C837 1.398 . S
C838 C839 1.391 . S
C839 H827 0.950 . S
C839 C835 1.393 . S
C839 C838 1.391 . S
C840 H830 0.950 . S
C840 C841 1.386 . S
C840 C842 1.391 . S
C841 C840 1.386 . S
C841 C845 1.393 . S
C842 H831 0.950 . S
C842 C840 1.391 . S
C842 C843 1.400 . S
C843 C837 1.491 . S
C843 C842 1.400 . S
C843 C844 1.398 . S
C844 H832 0.950 . S
C844 C843 1.398 . S
C844 C845 1.391 . S
C845 H833 0.950 . S
C845 C841 1.393 . S
C845 C844 1.391 . S
H846 C854 0.950 . S
H847 C859 0.950 . S
H848 C856 0.950 . S
H849 C858 0.950 . S
H850 C860 0.950 . S
H851 C862 0.950 . S
H852 C864 0.950 . S
H853 C865 0.950 . S
C854 H846 0.950 . S
C854 C855 1.386 . S
C854 C856 1.391 . S
C855 C854 1.386 . S
C855 C859 1.393 . S
C856 H848 0.950 . S
C856 C854 1.391 . S
C856 C857 1.400 . S
C857 C856 1.400 . S
C857 C858 1.398 . S
C857 C863 1.491 . S
C858 H849 0.950 . S
C858 C857 1.398 . S
C858 C859 1.391 . S
C859 H847 0.950 . S
C859 C855 1.393 . S
C859 C858 1.391 . S
C860 H850 0.950 . S
C860 C861 1.386 . S
C860 C862 1.391 . S
C861 C860 1.386 . S
C861 C865 1.393 . S
C862 H851 0.950 . S
C862 C860 1.391 . S
C862 C863 1.400 . S
C863 C857 1.491 . S
C863 C862 1.400 . S
C863 C864 1.398 . S
C864 H852 0.950 . S
C864 C863 1.398 . S
C864 C865 1.391 . S
C865 H853 0.950 . S
C865 C861 1.393 . S
C865 C864 1.391 . S
H866 C874 0.950 . S
H867 C879 0.950 . S
H868 C876 0.950 . S
H869 C878 0.950 . S
H870 C880 0.950 . S
H871 C882 0.950 . S
H872 C884 0.950 . S
H873 C885 0.950 1_554 S
C874 H866 0.950 . S
C874 C875 1.386 . S
C874 C876 1.391 . S
C875 C874 1.386 . S
C875 C879 1.393 . S
C876 H868 0.950 . S
C876 C874 1.391 . S
C876 C877 1.400 . S
C877 C876 1.400 . S
C877 C878 1.398 . S
C877 C883 1.491 . S
C878 H869 0.950 . S
C878 C877 1.398 . S
C878 C879 1.391 . S
C879 H867 0.950 . S
C879 C875 1.393 . S
C879 C878 1.391 . S
C880 H870 0.950 . S
C880 C881 1.386 . S
C880 C882 1.391 . S
C881 C880 1.386 . S
C881 C885 1.393 . S
C882 H871 0.950 . S
C882 C880 1.391 . S
C882 C883 1.400 . S
C883 C877 1.491 . S
C883 C882 1.400 . S
C883 C884 1.398 . S
C884 H872 0.950 . S
C884 C883 1.398 . S
C884 C885 1.391 . S
C885 H873 0.950 1_556 S
C885 C881 1.393 . S
C885 C884 1.391 . S
H886 C894 0.950 . S
H887 C899 0.950 . S
H888 C896 0.950 . S
H889 C898 0.950 . S
H890 C900 0.950 . S
H891 C902 0.950 . S
H892 C904 0.950 . S
H893 C905 0.950 . S
C894 H886 0.950 . S
C894 C895 1.386 . S
C894 C896 1.391 . S
C895 C894 1.386 . S
C895 C899 1.393 . S
C896 H888 0.950 . S
C896 C894 1.391 . S
C896 C897 1.400 . S
C897 C896 1.400 . S
C897 C898 1.398 . S
C897 C903 1.491 . S
C898 H889 0.950 . S
C898 C897 1.398 . S
C898 C899 1.391 . S
C899 H887 0.950 . S
C899 C895 1.393 . S
C899 C898 1.391 . S
C900 H890 0.950 . S
C900 C901 1.386 . S
C900 C902 1.391 . S
C901 C900 1.386 . S
C901 C905 1.393 . S
C902 H891 0.950 . S
C902 C900 1.391 . S
C902 C903 1.400 . S
C903 C897 1.491 . S
C903 C902 1.400 . S
C903 C904 1.398 . S
C904 H892 0.950 . S
C904 C903 1.398 . S
C904 C905 1.391 . S
C905 H893 0.950 . S
C905 C901 1.393 . S
C905 C904 1.391 . S
H906 C914 0.950 . S
H907 C919 0.950 . S
H908 C916 0.950 . S
H909 C918 0.950 . S
H910 C920 0.950 . S
H911 C922 0.950 . S
H912 C924 0.950 . S
H913 C925 0.950 . S
C914 H906 0.950 . S
C914 C915 1.386 . S
C914 C916 1.391 . S
C915 C914 1.386 . S
C915 C919 1.393 . S
C916 H908 0.950 . S
C916 C914 1.391 . S
C916 C917 1.400 . S
C917 C916 1.400 . S
C917 C918 1.398 . S
C917 C923 1.491 . S
C918 H909 0.950 . S
C918 C917 1.398 . S
C918 C919 1.391 . S
C919 H907 0.950 . S
C919 C915 1.393 . S
C919 C918 1.391 . S
C920 H910 0.950 . S
C920 C921 1.386 . S
C920 C922 1.391 . S
C921 C920 1.386 . S
C921 C925 1.393 . S
C922 H911 0.950 . S
C922 C920 1.391 . S
C922 C923 1.400 . S
C923 C917 1.491 . S
C923 C922 1.400 . S
C923 C924 1.398 . S
C924 H912 0.950 . S
C924 C923 1.398 . S
C924 C925 1.391 . S
C925 H913 0.950 . S
C925 C921 1.393 . S
C925 C924 1.391 . S
H926 C934 0.950 . S
H927 C939 0.950 . S
H928 C936 0.950 . S
H929 C938 0.950 . S
H930 C940 0.950 . S
H931 C942 0.950 . S
H932 C944 0.950 . S
H933 C945 0.950 . S
C934 H926 0.950 . S
C934 C935 1.386 . S
C934 C936 1.391 . S
C935 C934 1.386 . S
C935 C939 1.393 . S
C936 H928 0.950 . S
C936 C934 1.391 . S
C936 C937 1.400 . S
C937 C936 1.400 . S
C937 C938 1.398 . S
C937 C943 1.491 . S
C938 H929 0.950 . S
C938 C937 1.398 . S
C938 C939 1.391 . S
C939 H927 0.950 . S
C939 C935 1.393 . S
C939 C938 1.391 . S
C940 H930 0.950 . S
C940 C941 1.386 . S
C940 C942 1.391 . S
C941 C940 1.386 . S
C941 C945 1.393 . S
C942 H931 0.950 . S
C942 C940 1.391 . S
C942 C943 1.400 . S
C943 C937 1.491 . S
C943 C942 1.400 . S
C943 C944 1.398 . S
C944 H932 0.950 . S
C944 C943 1.398 . S
C944 C945 1.391 . S
C945 H933 0.950 . S
C945 C941 1.393 . S
C945 C944 1.391 . S
H946 C954 0.950 . S
H947 C959 0.950 . S
H948 C956 0.950 . S
H949 C958 0.950 . S
H950 C960 0.950 . S
H951 C962 0.950 . S
H952 C964 0.950 . S
H953 C965 0.950 . S
C954 H946 0.950 . S
C954 C955 1.386 . S
C954 C956 1.391 . S
C955 C954 1.386 . S
C955 C959 1.393 . S
C956 H948 0.950 . S
C956 C954 1.391 . S
C956 C957 1.400 . S
C957 C956 1.400 . S
C957 C958 1.398 . S
C957 C963 1.491 . S
C958 H949 0.950 . S
C958 C957 1.398 . S
C958 C959 1.391 . S
C959 H947 0.950 . S
C959 C955 1.393 . S
C959 C958 1.391 . S
C960 H950 0.950 . S
C960 C961 1.386 . S
C960 C962 1.391 . S
C961 C960 1.386 . S
C961 C965 1.393 . S
C962 H951 0.950 . S
C962 C960 1.391 . S
C962 C963 1.400 . S
C963 C957 1.491 . S
C963 C962 1.400 . S
C963 C964 1.398 . S
C964 H952 0.950 . S
C964 C963 1.398 . S
C964 C965 1.391 . S
C965 H953 0.950 . S
C965 C961 1.393 . S
C965 C964 1.391 . S
H966 C974 0.950 . S
H967 C979 0.950 . S
H968 C976 0.950 . S
H969 C978 0.950 . S
H970 C980 0.950 . S
H971 C982 0.950 . S
H972 C984 0.950 . S
H973 C985 0.950 . S
C974 H966 0.950 . S
C974 C975 1.386 . S
C974 C976 1.391 . S
C975 C974 1.386 . S
C975 C979 1.393 . S
C976 H968 0.950 . S
C976 C974 1.391 . S
C976 C977 1.400 . S
C977 C976 1.400 . S
C977 C978 1.398 . S
C977 C983 1.491 . S
C978 H969 0.950 . S
C978 C977 1.398 . S
C978 C979 1.391 . S
C979 H967 0.950 . S
C979 C975 1.393 . S
C979 C978 1.391 . S
C980 H970 0.950 . S
C980 C981 1.386 . S
C980 C982 1.391 . S
C981 C980 1.386 . S
C981 C985 1.393 . S
C982 H971 0.950 . S
C982 C980 1.391 . S
C982 C983 1.400 . S
C983 C977 1.491 . S
C983 C982 1.400 . S
C983 C984 1.398 . S
C984 H972 0.950 . S
C984 C983 1.398 . S
C984 C985 1.391 . S
C985 H973 0.950 . S
C985 C981 1.393 . S
C985 C984 1.391 . S
H986 C994 0.950 . S
H987 C999 0.950 . S
H988 C996 0.950 . S
H989 C998 0.950 . S
H990 C1000 0.950 . S
H991 C1002 0.950 . S
H992 C1004 0.950 . S
H993 C1005 0.950 . S
C994 H986 0.950 . S
C994 C995 1.386 . S
C994 C996 1.391 . S
C995 C994 1.386 . S
C995 C999 1.393 . S
C996 H988 0.950 . S
C996 C994 1.391 . S
C996 C997 1.400 . S
C997 C996 1.400 . S
C997 C998 1.398 . S
C997 C1003 1.491 . S
C998 H989 0.950 . S
C998 C997 1.398 . S
C998 C999 1.391 . S
C999 H987 0.950 . S
C999 C995 1.393 . S
C999 C998 1.391 . S
C1000 H990 0.950 . S
C1000 C1001 1.386 . S
C1000 C1002 1.391 . S
C1001 C1000 1.386 . S
C1001 C1005 1.393 . S
C1002 H991 0.950 . S
C1002 C1000 1.391 . S
C1002 C1003 1.400 . S
C1003 C997 1.491 . S
C1003 C1002 1.400 . S
C1003 C1004 1.398 . S
C1004 H992 0.950 . S
C1004 C1003 1.398 . S
C1004 C1005 1.391 . S
C1005 H993 0.950 . S
C1005 C1001 1.393 . S
C1005 C1004 1.391 . S
H1006 C1014 0.950 . S
H1007 C1019 0.950 . S
H1008 C1016 0.950 . S
H1009 C1018 0.950 . S
H1010 C1020 0.950 . S
H1011 C1022 0.950 . S
H1012 C1024 0.950 . S
H1013 C1025 0.950 . S
C1014 H1006 0.950 . S
C1014 C1015 1.386 . S
C1014 C1016 1.391 . S
C1015 C1014 1.386 . S
C1015 C1019 1.393 . S
C1016 H1008 0.950 . S
C1016 C1014 1.391 . S
C1016 C1017 1.400 . S
C1017 C1016 1.400 . S
C1017 C1018 1.398 . S
C1017 C1023 1.491 . S
C1018 H1009 0.950 . S
C1018 C1017 1.398 . S
C1018 C1019 1.391 . S
C1019 H1007 0.950 . S
C1019 C1015 1.393 . S
C1019 C1018 1.391 . S
C1020 H1010 0.950 . S
C1020 C1021 1.386 . S
C1020 C1022 1.391 . S
C1021 C1020 1.386 . S
C1021 C1025 1.393 . S
C1022 H1011 0.950 . S
C1022 C1020 1.391 . S
C1022 C1023 1.400 . S
C1023 C1017 1.491 . S
C1023 C1022 1.400 . S
C1023 C1024 1.398 . S
C1024 H1012 0.950 . S
C1024 C1023 1.398 . S
C1024 C1025 1.391 . S
C1025 H1013 0.950 . S
C1025 C1021 1.393 . S
C1025 C1024 1.391 . S
H1026 C1034 0.950 . S
H1027 C1039 0.950 . S
H1028 C1036 0.950 . S
H1029 C1038 0.950 . S
H1030 C1040 0.950 . S
H1031 C1042 0.950 . S
H1032 C1044 0.950 . S
H1033 C1045 0.950 . S
C1034 H1026 0.950 . S
C1034 C1035 1.386 . S
C1034 C1036 1.391 . S
C1035 C1034 1.386 . S
C1035 C1039 1.393 . S
C1036 H1028 0.950 . S
C1036 C1034 1.391 . S
C1036 C1037 1.400 . S
C1037 C1036 1.400 . S
C1037 C1038 1.398 . S
C1037 C1043 1.491 . S
C1038 H1029 0.950 . S
C1038 C1037 1.398 . S
C1038 C1039 1.391 . S
C1039 H1027 0.950 . S
C1039 C1035 1.393 . S
C1039 C1038 1.391 . S
C1040 H1030 0.950 . S
C1040 C1041 1.386 . S
C1040 C1042 1.391 . S
C1041 C1040 1.386 . S
C1041 C1045 1.393 . S
C1042 H1031 0.950 . S
C1042 C1040 1.391 . S
C1042 C1043 1.400 . S
C1043 C1037 1.491 . S
C1043 C1042 1.400 . S
C1043 C1044 1.398 . S
C1044 H1032 0.950 . S
C1044 C1043 1.398 . S
C1044 C1045 1.391 . S
C1045 H1033 0.950 . S
C1045 C1041 1.393 . S
C1045 C1044 1.391 . S
H1046 C1054 0.950 . S
H1047 C1059 0.950 . S
H1048 C1056 0.950 . S
H1049 C1058 0.950 . S
H1050 C1060 0.950 . S
H1051 C1062 0.950 . S
H1052 C1064 0.950 . S
H1053 C1065 0.950 . S
C1054 H1046 0.950 . S
C1054 C1055 1.386 . S
C1054 C1056 1.391 . S
C1055 C1054 1.386 . S
C1055 C1059 1.393 . S
C1056 H1048 0.950 . S
C1056 C1054 1.391 . S
C1056 C1057 1.400 . S
C1057 C1056 1.400 . S
C1057 C1058 1.398 . S
C1057 C1063 1.491 . S
C1058 H1049 0.950 . S
C1058 C1057 1.398 . S
C1058 C1059 1.391 . S
C1059 H1047 0.950 . S
C1059 C1055 1.393 . S
C1059 C1058 1.391 . S
C1060 H1050 0.950 . S
C1060 C1061 1.386 . S
C1060 C1062 1.391 . S
C1061 C1060 1.386 . S
C1061 C1065 1.393 . S
C1062 H1051 0.950 . S
C1062 C1060 1.391 . S
C1062 C1063 1.400 . S
C1063 C1057 1.491 . S
C1063 C1062 1.400 . S
C1063 C1064 1.398 . S
C1064 H1052 0.950 . S
C1064 C1063 1.398 . S
C1064 C1065 1.391 . S
C1065 H1053 0.950 . S
C1065 C1061 1.393 . S
C1065 C1064 1.391 . S
H1066 C1074 0.950 . S
H1067 C1079 0.950 . S
H1068 C1076 0.950 . S
H1069 C1078 0.950 . S
H1070 C1080 0.950 . S
H1071 C1082 0.950 . S
H1072 C1084 0.950 . S
H1073 C1085 0.950 . S
C1074 H1066 0.950 . S
C1074 C1075 1.386 . S
C1074 C1076 1.391 . S
C1075 C1074 1.386 . S
C1075 C1079 1.393 . S
C1076 H1068 0.950 . S
C1076 C1074 1.391 . S
C1076 C1077 1.400 . S
C1077 C1076 1.400 . S
C1077 C1078 1.398 . S
C1077 C1083 1.491 . S
C1078 H1069 0.950 . S
C1078 C1077 1.398 . S
C1078 C1079 1.391 . S
C1079 H1067 0.950 . S
C1079 C1075 1.393 . S
C1079 C1078 1.391 . S
C1080 H1070 0.950 . S
C1080 C1081 1.386 . S
C1080 C1082 1.391 . S
C1081 C1080 1.386 . S
C1081 C1085 1.393 . S
C1082 H1071 0.950 . S
C1082 C1080 1.391 . S
C1082 C1083 1.400 . S
C1083 C1077 1.491 . S
C1083 C1082 1.400 . S
C1083 C1084 1.398 . S
C1084 H1072 0.950 . S
C1084 C1083 1.398 . S
C1084 C1085 1.391 . S
C1085 H1073 0.950 . S
C1085 C1081 1.393 . S
C1085 C1084 1.391 . S
H1086 C1094 0.950 . S
H1087 C1099 0.950 . S
H1088 C1096 0.950 . S
H1089 C1098 0.950 . S
H1090 C1100 0.950 . S
H1091 C1102 0.950 . S
H1092 C1104 0.950 . S
H1093 C1105 0.950 . S
C1094 H1086 0.950 . S
C1094 C1095 1.386 . S
C1094 C1096 1.391 . S
C1095 C1094 1.386 . S
C1095 C1099 1.393 . S
C1096 H1088 0.950 . S
C1096 C1094 1.391 . S
C1096 C1097 1.400 . S
C1097 C1096 1.400 . S
C1097 C1098 1.398 . S
C1097 C1103 1.491 . S
C1098 H1089 0.950 . S
C1098 C1097 1.398 . S
C1098 C1099 1.391 . S
C1099 H1087 0.950 . S
C1099 C1095 1.393 . S
C1099 C1098 1.391 . S
C1100 H1090 0.950 . S
C1100 C1101 1.386 . S
C1100 C1102 1.391 . S
C1101 C1100 1.386 . S
C1101 C1105 1.393 . S
C1102 H1091 0.950 . S
C1102 C1100 1.391 . S
C1102 C1103 1.400 . S
C1103 C1097 1.491 . S
C1103 C1102 1.400 . S
C1103 C1104 1.398 . S
C1104 H1092 0.950 . S
C1104 C1103 1.398 . S
C1104 C1105 1.391 . S
C1105 H1093 0.950 . S
C1105 C1101 1.393 . S
C1105 C1104 1.391 . S
H1106 C1114 0.950 . S
H1107 C1119 0.950 . S
H1108 C1116 0.950 . S
H1109 C1118 0.950 . S
H1110 C1120 0.950 . S
H1111 C1122 0.950 . S
H1112 C1124 0.950 . S
H1113 C1125 0.950 . S
C1114 H1106 0.950 . S
C1114 C1115 1.386 . S
C1114 C1116 1.391 . S
C1115 C1114 1.386 . S
C1115 C1119 1.393 . S
C1116 H1108 0.950 . S
C1116 C1114 1.391 . S
C1116 C1117 1.400 . S
C1117 C1116 1.400 . S
C1117 C1118 1.398 . S
C1117 C1123 1.491 . S
C1118 H1109 0.950 . S
C1118 C1117 1.398 . S
C1118 C1119 1.391 . S
C1119 H1107 0.950 . S
C1119 C1115 1.393 . S
C1119 C1118 1.391 . S
C1120 H1110 0.950 . S
C1120 C1121 1.386 . S
C1120 C1122 1.391 . S
C1121 C1120 1.386 . S
C1121 C1125 1.393 . S
C1122 H1111 0.950 . S
C1122 C1120 1.391 . S
C1122 C1123 1.400 . S
C1123 C1117 1.491 . S
C1123 C1122 1.400 . S
C1123 C1124 1.398 . S
C1124 H1112 0.950 . S
C1124 C1123 1.398 . S
C1124 C1125 1.391 . S
C1125 H1113 0.950 . S
C1125 C1121 1.393 . S
C1125 C1124 1.391 . S
H1126 C1134 0.950 . S
H1127 C1139 0.950 . S
H1128 C1136 0.950 . S
H1129 C1138 0.950 . S
H1130 C1140 0.950 . S
H1131 C1142 0.950 . S
H1132 C1144 0.950 . S
H1133 C1145 0.950 . S
C1134 H1126 0.950 . S
C1134 C1135 1.386 . S
C1134 C1136 1.391 . S
C1135 C1134 1.386 . S
C1135 C1139 1.393 . S
C1136 H1128 0.950 . S
C1136 C1134 1.391 . S
C1136 C1137 1.400 . S
C1137 C1136 1.400 . S
C1137 C1138 1.398 . S
C1137 C1143 1.491 . S
C1138 H1129 0.950 . S
C1138 C1137 1.398 . S
C1138 C1139 1.391 . S
C1139 H1127 0.950 . S
C1139 C1135 1.393 . S
C1139 C1138 1.391 . S
C1140 H1130 0.950 . S
C1140 C1141 1.386 . S
C1140 C1142 1.391 . S
C1141 C1140 1.386 . S
C1141 C1145 1.393 . S
C1142 H1131 0.950 . S
C1142 C1140 1.391 . S
C1142 C1143 1.400 . S
C1143 C1137 1.491 . S
C1143 C1142 1.400 . S
C1143 C1144 1.398 . S
C1144 H1132 0.950 . S
C1144 C1143 1.398 . S
C1144 C1145 1.391 . S
C1145 H1133 0.950 . S
C1145 C1141 1.393 . S
C1145 C1144 1.391 . S
H1146 C1154 0.950 . S
H1147 C1159 0.950 . S
H1148 C1156 0.950 . S
H1149 C1158 0.950 . S
H1150 C1160 0.950 . S
H1151 C1162 0.950 . S
H1152 C1164 0.950 . S
H1153 C1165 0.950 . S
C1154 H1146 0.950 . S
C1154 C1155 1.386 . S
C1154 C1156 1.391 . S
C1155 C1154 1.386 . S
C1155 C1159 1.393 . S
C1156 H1148 0.950 . S
C1156 C1154 1.391 . S
C1156 C1157 1.400 . S
C1157 C1156 1.400 . S
C1157 C1158 1.398 . S
C1157 C1163 1.491 . S
C1158 H1149 0.950 . S
C1158 C1157 1.398 . S
C1158 C1159 1.391 . S
C1159 H1147 0.950 . S
C1159 C1155 1.393 . S
C1159 C1158 1.391 . S
C1160 H1150 0.950 . S
C1160 C1161 1.386 . S
C1160 C1162 1.391 . S
C1161 C1160 1.386 . S
C1161 C1165 1.393 . S
C1162 H1151 0.950 . S
C1162 C1160 1.391 . S
C1162 C1163 1.400 . S
C1163 C1157 1.491 . S
C1163 C1162 1.400 . S
C1163 C1164 1.398 . S
C1164 H1152 0.950 . S
C1164 C1163 1.398 . S
C1164 C1165 1.391 . S
C1165 H1153 0.950 . S
C1165 C1161 1.393 . S
C1165 C1164 1.391 . S
H1166 C1174 0.950 . S
H1167 C1179 0.950 . S
H1168 C1176 0.950 . S
H1169 C1178 0.950 . S
H1170 C1180 0.950 . S
H1171 C1182 0.950 . S
H1172 C1184 0.950 . S
H1173 C1185 0.950 . S
C1174 H1166 0.950 . S
C1174 C1175 1.386 . S
C1174 C1176 1.391 . S
C1175 C1174 1.386 . S
C1175 C1179 1.393 . S
C1176 H1168 0.950 . S
C1176 C1174 1.391 . S
C1176 C1177 1.400 . S
C1177 C1176 1.400 . S
C1177 C1178 1.398 . S
C1177 C1183 1.491 . S
C1178 H1169 0.950 . S
C1178 C1177 1.398 . S
C1178 C1179 1.391 . S
C1179 H1167 0.950 . S
C1179 C1175 1.393 . S
C1179 C1178 1.391 . S
C1180 H1170 0.950 . S
C1180 C1181 1.386 . S
C1180 C1182 1.391 . S
C1181 C1180 1.386 . S
C1181 C1185 1.393 . S
C1182 H1171 0.950 . S
C1182 C1180 1.391 . S
C1182 C1183 1.400 . S
C1183 C1177 1.491 . S
C1183 C1182 1.400 . S
C1183 C1184 1.398 . S
C1184 H1172 0.950 . S
C1184 C1183 1.398 . S
C1184 C1185 1.391 . S
C1185 H1173 0.950 . S
C1185 C1181 1.393 . S
C1185 C1184 1.391 . S
H1186 C1194 0.950 . S
H1187 C1199 0.950 . S
H1188 C1196 0.950 . S
H1189 C1198 0.950 . S
H1190 C1200 0.950 . S
H1191 C1202 0.950 . S
H1192 C1204 0.950 . S
H1193 C1205 0.950 . S
C1194 H1186 0.950 . S
C1194 C1195 1.386 . S
C1194 C1196 1.391 . S
C1195 C1194 1.386 . S
C1195 C1199 1.393 . S
C1196 H1188 0.950 . S
C1196 C1194 1.391 . S
C1196 C1197 1.400 . S
C1197 C1196 1.400 . S
C1197 C1198 1.398 . S
C1197 C1203 1.491 . S
C1198 H1189 0.950 . S
C1198 C1197 1.398 . S
C1198 C1199 1.391 . S
C1199 H1187 0.950 . S
C1199 C1195 1.393 . S
C1199 C1198 1.391 . S
C1200 H1190 0.950 . S
C1200 C1201 1.386 . S
C1200 C1202 1.391 . S
C1201 C1200 1.386 . S
C1201 C1205 1.393 . S
C1202 H1191 0.950 . S
C1202 C1200 1.391 . S
C1202 C1203 1.400 . S
C1203 C1197 1.491 . S
C1203 C1202 1.400 . S
C1203 C1204 1.398 . S
C1204 H1192 0.950 . S
C1204 C1203 1.398 . S
C1204 C1205 1.391 . S
C1205 H1193 0.950 . S
C1205 C1201 1.393 . S
C1205 C1204 1.391 . S
H1206 C1214 0.950 . S
H1207 C1219 0.950 . S
H1208 C1216 0.950 . S
H1209 C1218 0.950 . S
H1210 C1220 0.950 . S
H1211 C1222 0.950 . S
H1212 C1224 0.950 . S
H1213 C1225 0.950 . S
C1214 H1206 0.950 . S
C1214 C1215 1.386 . S
C1214 C1216 1.391 . S
C1215 C1214 1.386 . S
C1215 C1219 1.393 . S
C1216 H1208 0.950 . S
C1216 C1214 1.391 . S
C1216 C1217 1.400 . S
C1217 C1216 1.400 . S
C1217 C1218 1.398 . S
C1217 C1223 1.491 . S
C1218 H1209 0.950 . S
C1218 C1217 1.398 . S
C1218 C1219 1.391 . S
C1219 H1207 0.950 . S
C1219 C1215 1.393 . S
C1219 C1218 1.391 . S
C1220 H1210 0.950 . S
C1220 C1221 1.386 . S
C1220 C1222 1.391 . S
C1221 C1220 1.386 . S
C1221 C1225 1.393 . S
C1222 H1211 0.950 . S
C1222 C1220 1.391 . S
C1222 C1223 1.400 . S
C1223 C1217 1.491 . S
C1223 C1222 1.400 . S
C1223 C1224 1.398 . S
C1224 H1212 0.950 . S
C1224 C1223 1.398 . S
C1224 C1225 1.391 . S
C1225 H1213 0.950 . S
C1225 C1221 1.393 . S
C1225 C1224 1.391 . S
H1226 C1234 0.950 . S
H1227 C1239 0.950 . S
H1228 C1236 0.950 . S
H1229 C1238 0.950 . S
H1230 C1240 0.950 . S
H1231 C1242 0.950 . S
H1232 C1244 0.950 . S
H1233 C1245 0.950 . S
C1234 H1226 0.950 . S
C1234 C1235 1.386 . S
C1234 C1236 1.391 . S
C1235 C1234 1.386 . S
C1235 C1239 1.393 . S
C1236 H1228 0.950 . S
C1236 C1234 1.391 . S
C1236 C1237 1.400 . S
C1237 C1236 1.400 . S
C1237 C1238 1.398 . S
C1237 C1243 1.491 . S
C1238 H1229 0.950 . S
C1238 C1237 1.398 . S
C1238 C1239 1.391 . S
C1239 H1227 0.950 . S
C1239 C1235 1.393 . S
C1239 C1238 1.391 . S
C1240 H1230 0.950 . S
C1240 C1241 1.386 . S
C1240 C1242 1.391 . S
C1241 C1240 1.386 . S
C1241 C1245 1.393 . S
C1242 H1231 0.950 . S
C1242 C1240 1.391 . S
C1242 C1243 1.400 . S
C1243 C1237 1.491 . S
C1243 C1242 1.400 . S
C1243 C1244 1.398 . S
C1244 H1232 0.950 . S
C1244 C1243 1.398 . S
C1244 C1245 1.391 . S
C1245 H1233 0.950 . S
C1245 C1241 1.393 . S
C1245 C1244 1.391 . S
H1246 C1254 0.950 . S
H1247 C1259 0.950 . S
H1248 C1256 0.950 . S
H1249 C1258 0.950 . S
H1250 C1260 0.950 . S
H1251 C1262 0.950 . S
H1252 C1264 0.950 . S
H1253 C1265 0.950 . S
C1254 H1246 0.950 . S
C1254 C1255 1.386 . S
C1254 C1256 1.391 . S
C1255 C1254 1.386 . S
C1255 C1259 1.393 . S
C1256 H1248 0.950 . S
C1256 C1254 1.391 . S
C1256 C1257 1.400 . S
C1257 C1256 1.400 . S
C1257 C1258 1.398 . S
C1257 C1263 1.491 . S
C1258 H1249 0.950 . S
C1258 C1257 1.398 . S
C1258 C1259 1.391 . S
C1259 H1247 0.950 . S
C1259 C1255 1.393 . S
C1259 C1258 1.391 . S
C1260 H1250 0.950 . S
C1260 C1261 1.386 . S
C1260 C1262 1.391 . S
C1261 C1260 1.386 . S
C1261 C1265 1.393 . S
C1262 H1251 0.950 . S
C1262 C1260 1.391 . S
C1262 C1263 1.400 . S
C1263 C1257 1.491 . S
C1263 C1262 1.400 . S
C1263 C1264 1.398 . S
C1264 H1252 0.950 . S
C1264 C1263 1.398 . S
C1264 C1265 1.391 . S
C1265 H1253 0.950 . S
C1265 C1261 1.393 . S
C1265 C1264 1.391 . S
H1266 C1274 0.950 . S
H1267 C1279 0.950 . S
H1268 C1276 0.950 . S
H1269 C1278 0.950 . S
H1270 C1280 0.950 . S
H1271 C1282 0.950 . S
H1272 C1284 0.950 . S
H1273 C1285 0.950 . S
C1274 H1266 0.950 . S
C1274 C1275 1.386 . S
C1274 C1276 1.391 . S
C1275 C1274 1.386 . S
C1275 C1279 1.393 . S
C1276 H1268 0.950 . S
C1276 C1274 1.391 . S
C1276 C1277 1.400 . S
C1277 C1276 1.400 . S
C1277 C1278 1.398 . S
C1277 C1283 1.491 . S
C1278 H1269 0.950 . S
C1278 C1277 1.398 . S
C1278 C1279 1.391 . S
C1279 H1267 0.950 . S
C1279 C1275 1.393 . S
C1279 C1278 1.391 . S
C1280 H1270 0.950 . S
C1280 C1281 1.386 . S
C1280 C1282 1.391 . S
C1281 C1280 1.386 . S
C1281 C1285 1.393 . S
C1282 H1271 0.950 . S
C1282 C1280 1.391 . S
C1282 C1283 1.400 . S
C1283 C1277 1.491 . S
C1283 C1282 1.400 . S
C1283 C1284 1.398 . S
C1284 H1272 0.950 . S
C1284 C1283 1.398 . S
C1284 C1285 1.391 . S
C1285 H1273 0.950 . S
C1285 C1281 1.393 . S
C1285 C1284 1.391 . S
H1286 C1294 0.950 . S
H1287 C1299 0.950 . S
H1288 C1296 0.950 . S
H1289 C1298 0.950 . S
H1290 C1300 0.950 . S
H1291 C1302 0.950 . S
H1292 C1304 0.950 . S
H1293 C1305 0.950 . S
C1294 H1286 0.950 . S
C1294 C1295 1.386 . S
C1294 C1296 1.391 . S
C1295 C1294 1.386 . S
C1295 C1299 1.393 . S
C1296 H1288 0.950 . S
C1296 C1294 1.391 . S
C1296 C1297 1.400 . S
C1297 C1296 1.400 . S
C1297 C1298 1.398 . S
C1297 C1303 1.491 . S
C1298 H1289 0.950 . S
C1298 C1297 1.398 . S
C1298 C1299 1.391 . S
C1299 H1287 0.950 . S
C1299 C1295 1.393 . S
C1299 C1298 1.391 . S
C1300 H1290 0.950 . S
C1300 C1301 1.386 . S
C1300 C1302 1.391 . S
C1301 C1300 1.386 . S
C1301 C1305 1.393 . S
C1302 H1291 0.950 . S
C1302 C1300 1.391 . S
C1302 C1303 1.400 . S
C1303 C1297 1.491 . S
C1303 C1302 1.400 . S
C1303 C1304 1.398 . S
C1304 H1292 0.950 . S
C1304 C1303 1.398 . S
C1304 C1305 1.391 . S
C1305 H1293 0.950 . S
C1305 C1301 1.393 . S
C1305 C1304 1.391 . S
H1306 C1314 0.950 . S
H1307 C1319 0.950 . S
H1308 C1316 0.950 . S
H1309 C1318 0.950 . S
H1310 C1320 0.950 . S
H1311 C1322 0.950 . S
H1312 C1324 0.950 . S
H1313 C1325 0.950 . S
C1314 H1306 0.950 . S
C1314 C1315 1.386 . S
C1314 C1316 1.391 . S
C1315 C1314 1.386 . S
C1315 C1319 1.393 . S
C1316 H1308 0.950 . S
C1316 C1314 1.391 . S
C1316 C1317 1.400 . S
C1317 C1316 1.400 . S
C1317 C1318 1.398 . S
C1317 C1323 1.491 . S
C1318 H1309 0.950 . S
C1318 C1317 1.398 . S
C1318 C1319 1.391 . S
C1319 H1307 0.950 . S
C1319 C1315 1.393 . S
C1319 C1318 1.391 . S
C1320 H1310 0.950 . S
C1320 C1321 1.386 . S
C1320 C1322 1.391 . S
C1321 C1320 1.386 . S
C1321 C1325 1.393 . S
C1322 H1311 0.950 . S
C1322 C1320 1.391 . S
C1322 C1323 1.400 . S
C1323 C1317 1.491 . S
C1323 C1322 1.400 . S
C1323 C1324 1.398 . S
C1324 H1312 0.950 . S
C1324 C1323 1.398 . S
C1324 C1325 1.391 . S
C1325 H1313 0.950 . S
C1325 C1321 1.393 . S
C1325 C1324 1.391 . S
H1326 C1334 0.950 . S
H1327 C1339 0.950 . S
H1328 C1336 0.950 . S
H1329 C1338 0.950 . S
H1330 C1340 0.950 . S
H1331 C1342 0.950 . S
H1332 C1344 0.950 . S
H1333 C1345 0.950 . S
C1334 H1326 0.950 . S
C1334 C1335 1.386 . S
C1334 C1336 1.391 . S
C1335 C1334 1.386 . S
C1335 C1339 1.393 . S
C1336 H1328 0.950 . S
C1336 C1334 1.391 . S
C1336 C1337 1.400 . S
C1337 C1336 1.400 . S
C1337 C1338 1.398 . S
C1337 C1343 1.491 . S
C1338 H1329 0.950 . S
C1338 C1337 1.398 . S
C1338 C1339 1.391 . S
C1339 H1327 0.950 . S
C1339 C1335 1.393 . S
C1339 C1338 1.391 . S
C1340 H1330 0.950 . S
C1340 C1341 1.386 . S
C1340 C1342 1.391 . S
C1341 C1340 1.386 . S
C1341 C1345 1.393 . S
C1342 H1331 0.950 . S
C1342 C1340 1.391 . S
C1342 C1343 1.400 . S
C1343 C1337 1.491 . S
C1343 C1342 1.400 . S
C1343 C1344 1.398 . S
C1344 H1332 0.950 . S
C1344 C1343 1.398 . S
C1344 C1345 1.391 . S
C1345 H1333 0.950 . S
C1345 C1341 1.393 . S
C1345 C1344 1.391 . S
H1346 C1354 0.950 . S
H1347 C1359 0.950 . S
H1348 C1356 0.950 . S
H1349 C1358 0.950 . S
H1350 C1360 0.950 . S
H1351 C1362 0.950 . S
H1352 C1364 0.950 . S
H1353 C1365 0.950 . S
C1354 H1346 0.950 . S
C1354 C1355 1.386 . S
C1354 C1356 1.391 . S
C1355 C1354 1.386 . S
C1355 C1359 1.393 . S
C1356 H1348 0.950 . S
C1356 C1354 1.391 . S
C1356 C1357 1.400 . S
C1357 C1356 1.400 . S
C1357 C1358 1.398 . S
C1357 C1363 1.491 . S
C1358 H1349 0.950 . S
C1358 C1357 1.398 . S
C1358 C1359 1.391 . S
C1359 H1347 0.950 . S
C1359 C1355 1.393 . S
C1359 C1358 1.391 . S
C1360 H1350 0.950 . S
C1360 C1361 1.386 . S
C1360 C1362 1.391 . S
C1361 C1360 1.386 . S
C1361 C1365 1.393 . S
C1362 H1351 0.950 . S
C1362 C1360 1.391 . S
C1362 C1363 1.400 . S
C1363 C1357 1.491 . S
C1363 C1362 1.400 . S
C1363 C1364 1.398 . S
C1364 H1352 0.950 . S
C1364 C1363 1.398 . S
C1364 C1365 1.391 . S
C1365 H1353 0.950 . S
C1365 C1361 1.393 . S
C1365 C1364 1.391 . S
H1366 C1374 0.950 . S
H1367 C1379 0.950 . S
H1368 C1376 0.950 . S
H1369 C1378 0.950 . S
H1370 C1380 0.950 . S
H1371 C1382 0.950 . S
H1372 C1384 0.950 . S
H1373 C1385 0.950 . S
C1374 H1366 0.950 . S
C1374 C1375 1.386 . S
C1374 C1376 1.391 . S
C1375 C1374 1.386 . S
C1375 C1379 1.393 . S
C1376 H1368 0.950 . S
C1376 C1374 1.391 . S
C1376 C1377 1.400 . S
C1377 C1376 1.400 . S
C1377 C1378 1.398 . S
C1377 C1383 1.491 . S
C1378 H1369 0.950 . S
C1378 C1377 1.398 . S
C1378 C1379 1.391 . S
C1379 H1367 0.950 . S
C1379 C1375 1.393 . S
C1379 C1378 1.391 . S
C1380 H1370 0.950 . S
C1380 C1381 1.386 . S
C1380 C1382 1.391 . S
C1381 C1380 1.386 . S
C1381 C1385 1.393 . S
C1382 H1371 0.950 . S
C1382 C1380 1.391 . S
C1382 C1383 1.400 . S
C1383 C1377 1.491 . S
C1383 C1382 1.400 . S
C1383 C1384 1.398 . S
C1384 H1372 0.950 . S
C1384 C1383 1.398 . S
C1384 C1385 1.391 . S
C1385 H1373 0.950 . S
C1385 C1381 1.393 . S
C1385 C1384 1.391 . S
H1386 C1394 0.950 . S
H1387 C1399 0.950 . S
H1388 C1396 0.950 . S
H1389 C1398 0.950 . S
H1390 C1400 0.950 . S
H1391 C1402 0.950 . S
H1392 C1404 0.950 . S
H1393 C1405 0.950 . S
C1394 H1386 0.950 . S
C1394 C1395 1.386 . S
C1394 C1396 1.391 . S
C1395 C1394 1.386 . S
C1395 C1399 1.393 . S
C1396 H1388 0.950 . S
C1396 C1394 1.391 . S
C1396 C1397 1.400 . S
C1397 C1396 1.400 . S
C1397 C1398 1.398 . S
C1397 C1403 1.491 . S
C1398 H1389 0.950 . S
C1398 C1397 1.398 . S
C1398 C1399 1.391 . S
C1399 H1387 0.950 . S
C1399 C1395 1.393 . S
C1399 C1398 1.391 . S
C1400 H1390 0.950 . S
C1400 C1401 1.386 . S
C1400 C1402 1.391 . S
C1401 C1400 1.386 . S
C1401 C1405 1.393 . S
C1402 H1391 0.950 . S
C1402 C1400 1.391 . S
C1402 C1403 1.400 . S
C1403 C1397 1.491 . S
C1403 C1402 1.400 . S
C1403 C1404 1.398 . S
C1404 H1392 0.950 . S
C1404 C1403 1.398 . S
C1404 C1405 1.391 . S
C1405 H1393 0.950 . S
C1405 C1401 1.393 . S
C1405 C1404 1.391 . S
H1406 C1414 0.950 . S
H1407 C1419 0.950 . S
H1408 C1416 0.950 . S
H1409 C1418 0.950 . S
H1410 C1420 0.950 . S
H1411 C1422 0.950 . S
H1412 C1424 0.950 . S
H1413 C1425 0.950 . S
C1414 H1406 0.950 . S
C1414 C1415 1.386 . S
C1414 C1416 1.391 . S
C1415 C1414 1.386 . S
C1415 C1419 1.393 . S
C1416 H1408 0.950 . S
C1416 C1414 1.391 . S
C1416 C1417 1.400 . S
C1417 C1416 1.400 . S
C1417 C1418 1.398 . S
C1417 C1423 1.491 . S
C1418 H1409 0.950 . S
C1418 C1417 1.398 . S
C1418 C1419 1.391 . S
C1419 H1407 0.950 . S
C1419 C1415 1.393 . S
C1419 C1418 1.391 . S
C1420 H1410 0.950 . S
C1420 C1421 1.386 . S
C1420 C1422 1.391 . S
C1421 C1420 1.386 . S
C1421 C1425 1.393 . S
C1422 H1411 0.950 . S
C1422 C1420 1.391 . S
C1422 C1423 1.400 . S
C1423 C1417 1.491 . S
C1423 C1422 1.400 . S
C1423 C1424 1.398 . S
C1424 H1412 0.950 . S
C1424 C1423 1.398 . S
C1424 C1425 1.391 . S
C1425 H1413 0.950 . S
C1425 C1421 1.393 . S
C1425 C1424 1.391 . S
H1426 C1434 0.950 . S
H1427 C1439 0.950 . S
H1428 C1436 0.950 . S
H1429 C1438 0.950 . S
H1430 C1440 0.950 . S
H1431 C1442 0.950 . S
H1432 C1444 0.950 . S
H1433 C1445 0.950 . S
C1434 H1426 0.950 . S
C1434 C1435 1.386 . S
C1434 C1436 1.391 . S
C1435 C1434 1.386 . S
C1435 C1439 1.393 . S
C1436 H1428 0.950 . S
C1436 C1434 1.391 . S
C1436 C1437 1.400 . S
C1437 C1436 1.400 . S
C1437 C1438 1.398 . S
C1437 C1443 1.491 . S
C1438 H1429 0.950 . S
C1438 C1437 1.398 . S
C1438 C1439 1.391 . S
C1439 H1427 0.950 . S
C1439 C1435 1.393 . S
C1439 C1438 1.391 . S
C1440 H1430 0.950 . S
C1440 C1441 1.386 . S
C1440 C1442 1.391 . S
C1441 C1440 1.386 . S
C1441 C1445 1.393 . S
C1442 H1431 0.950 . S
C1442 C1440 1.391 . S
C1442 C1443 1.400 . S
C1443 C1437 1.491 . S
C1443 C1442 1.400 . S
C1443 C1444 1.398 . S
C1444 H1432 0.950 . S
C1444 C1443 1.398 . S
C1444 C1445 1.391 . S
C1445 H1433 0.950 . S
C1445 C1441 1.393 . S
C1445 C1444 1.391 . S
H1446 C1454 0.950 . S
H1447 C1459 0.950 . S
H1448 C1456 0.950 . S
H1449 C1458 0.950 . S
H1450 C1460 0.950 . S
H1451 C1462 0.950 . S
H1452 C1464 0.950 . S
H1453 C1465 0.950 . S
C1454 H1446 0.950 . S
C1454 C1455 1.386 . S
C1454 C1456 1.391 . S
C1455 C1454 1.386 . S
C1455 C1459 1.393 . S
C1456 H1448 0.950 . S
C1456 C1454 1.391 . S
C1456 C1457 1.400 . S
C1457 C1456 1.400 . S
C1457 C1458 1.398 . S
C1457 C1463 1.491 . S
C1458 H1449 0.950 . S
C1458 C1457 1.398 . S
C1458 C1459 1.391 . S
C1459 H1447 0.950 . S
C1459 C1455 1.393 . S
C1459 C1458 1.391 . S
C1460 H1450 0.950 . S
C1460 C1461 1.386 . S
C1460 C1462 1.391 . S
C1461 C1460 1.386 . S
C1461 C1465 1.393 . S
C1462 H1451 0.950 . S
C1462 C1460 1.391 . S
C1462 C1463 1.400 . S
C1463 C1457 1.491 . S
C1463 C1462 1.400 . S
C1463 C1464 1.398 . S
C1464 H1452 0.950 . S
C1464 C1463 1.398 . S
C1464 C1465 1.391 . S
C1465 H1453 0.950 . S
C1465 C1461 1.393 . S
C1465 C1464 1.391 . S
C521 C331 1.925 . S
C515 C3 1.955 . S
C541 C321 0.999 . S
C535 C49 1.001 . S
C561 C322 1.032 . S
C555 C95 1.038 . S
C575 C146 0.414 . S
C581 C344 0.511 . S
C595 C186 1.134 . S
C601 C347 1.127 . S
C621 C330 0.990 . S
C615 C215 1.009 . S
C635 C249 0.383 . S
C641 C320 0.518 . S
C655 C302 1.939 . S
C661 C338 1.910 . S
C681 C351 3.195 . S
C675 C2 3.315 . S
C695 C43 2.192 . S
C701 C400 2.137 . S
C721 C378 3.278 . S
C715 C102 3.319 . S
C741 C392 1.309 . S
C735 C135 1.369 . S
C755 C175 1.333 . S
C761 C353 1.318 . S
C781 C406 2.220 . S
C775 C222 2.295 . S
C795 C243 2.179 . S
C801 C362 2.173 . S
C815 C306 1.456 . S
C821 C383 1.377 . S
C835 C9 0.939 . S
C841 C409 0.924 . S
C855 C182 1.693 . S
C861 C393 1.647 . S
C881 C352 1.670 . S
C875 C226 1.678 . S
C901 C384 0.691 . S
C895 C242 0.725 . S
C915 C295 2.867 . S
C921 C375 2.810 . S
C935 C106 0.876 . S
C941 C382 0.887 . S
C961 C369 1.641 . S
C955 C142 1.702 . S
C975 C42 0.736 . S
C981 C361 0.723 . S
C995 C283 1.945 . S
C1001 C424 1.923 . S
C1015 C169 1.134 . S
C1021 C414 1.127 . S
C1041 C415 0.990 . S
C1035 C202 1.009 . S
C1061 C437 0.561 . S
C1055 C266 0.442 . S
C1075 C66 0.974 . S
C1081 C440 0.965 . S
C1101 C423 1.039 . S
C1095 C82 1.025 . S
C1115 C129 0.441 . S
C1121 C413 0.540 . S
C1135 C22 1.944 . S
C1141 C431 1.922 . S
C1155 C282 2.870 . S
C1161 C444 2.808 . S
C1181 C493 1.655 . S
C1175 C163 1.695 . S
C1195 C209 1.665 . S
C1201 C471 1.672 . S
C1215 C255 0.708 . S
C1221 C485 0.700 . S
C1241 C446 0.723 . S
C1235 C55 0.736 . S
C1255 C89 0.878 . S
C1261 C499 0.886 . S
C1281 C455 1.649 . S
C1275 C123 1.694 . S
C1301 C476 0.915 . S
C1295 C26 0.940 . S
C1321 C502 1.368 . S
C1315 C289 1.451 . S
C1335 C62 2.190 . S
C1341 C486 2.137 . S
C1355 C83 3.318 . S
C1361 C445 3.279 . S
C1381 C477 1.319 . S
C1375 C122 1.365 . S
C1395 C15 3.315 . S
C1401 C468 3.191 . S
C1415 C203 2.287 . S
C1421 C475 2.217 . S
C1441 C462 2.166 . S
C1435 C262 2.178 . S
C1461 C454 1.329 . S
C1455 C162 1.332 . S
