# Generated by pormake.
# Topology pts, (4,4)-cn, num edge types: 1
# Building blocks:
#     Node 0, Type 0, BuildingBlock: ESEHIV_clean_sbu_0, # of connection points: 4
#     Node 1, Type 0, BuildingBlock: ESEHIV_clean_sbu_0, # of connection points: 4
#     Node 2, Type 1, BuildingBlock: AZAVOO_clean_sbu_0, # of connection points: 4
#     Node 3, Type 1, BuildingBlock: AZAVOO_clean_sbu_0, # of connection points: 4
#     Edge 4, Type (0, 1), BuildingBlock: MIFKUJ_clean_linker_0, # of connection points: 2
#     Edge 5, Type (0, 1), BuildingBlock: MIFKUJ_clean_linker_0, # of connection points: 2
#     Edge 6, Type (0, 1), BuildingBlock: MIFKUJ_clean_linker_0, # of connection points: 2
#     Edge 7, Type (0, 1), BuildingBlock: MIFKUJ_clean_linker_0, # of connection points: 2
#     Edge 8, Type (0, 1), BuildingBlock: MIFKUJ_clean_linker_0, # of connection points: 2
#     Edge 9, Type (0, 1), BuildingBlock: MIFKUJ_clean_linker_0, # of connection points: 2
#     Edge 10, Type (0, 1), BuildingBlock: MIFKUJ_clean_linker_0, # of connection points: 2
#     Edge 11, Type (0, 1), BuildingBlock: MIFKUJ_clean_linker_0, # of connection points: 2
# Relax obj value: 0.001
# Max RMSD: 0.095
# Mean RMSD: 0.063
data_MOF--net-pts--node1-ESEHIV_clean_sbu_0--node2-AZAVOO_clean_sbu_0--edge1-MIFKUJ_clean_linker_0
_symmetry_space_group_name_H-M    P1
_symmetry_Int_Tables_number       1
_symmetry_cell_setting            triclinic
loop_
_symmetry_equiv_pos_as_xyz
'x, y, z'
_cell_length_a     31.440697
_cell_length_b     32.46741
_cell_length_c     47.884966
_cell_angle_alpha  92.699119
_cell_angle_beta   98.422977
_cell_angle_gamma 89.253724
loop_
_atom_site_label
_atom_site_type_symbol
_atom_site_fract_x
_atom_site_fract_y
_atom_site_fract_z
_atom_type_partial_charge
Cu0 Cu 0.55254 0.08009 0.02186 0.0
N1 N 0.57892 0.1101 0.99667 0.0
N2 N 0.62508 0.12733 0.96773 0.0
C3 C 0.61822 0.10363 0.98909 0.0
C4 C 0.58874 0.14991 0.96191 0.0
C5 C 0.56042 0.13921 0.97975 0.0
O6 O 0.59613 0.05441 0.04866 0.0
C7 C 0.51079 0.02959 0.97545 0.0
O8 O 0.54475 0.03612 0.96326 0.0
H9 H 0.64053 0.08056 0.99805 0.0
H10 H 0.52796 0.15072 0.97969 0.0
N11 N 0.52015 0.11469 0.04292 0.0
N12 N 0.46988 0.13272 0.06987 0.0
C13 C 0.48957 0.10136 0.05719 0.0
C14 C 0.52002 0.15603 0.0466 0.0
C15 C 0.4889 0.16728 0.06319 0.0
C16 C 0.62369 0.02745 0.04292 0.0
O17 O 0.6217 0.01171 0.01698 0.0
H18 H 0.48134 0.06916 0.05764 0.0
H19 H 0.5408 0.17651 0.03771 0.0
O20 O 0.51055 0.04245 1.00093 0.0
H21 H 0.58257 0.17197 0.94552 0.0
H22 H 0.48116 0.1984 0.06995 0.0
Cu23 Cu 0.07587 0.54052 0.52397 0.0
N24 N 0.10759 0.50995 0.55196 0.0
N25 N 0.12316 0.46186 0.58382 0.0
C26 C 0.09323 0.47695 0.5637 0.0
C27 C 0.15793 0.48605 0.58453 0.0
C28 C 0.14814 0.51585 0.56491 0.0
O29 O 0.04243 0.50126 0.49781 0.0
C30 C 0.02842 0.57888 0.56501 0.0
O31 O 0.03078 0.54298 0.57668 0.0
H32 H 0.06135 0.46432 0.5576 0.0
H33 H 0.16893 0.54031 0.56058 0.0
N34 N 0.11244 0.56906 0.50442 0.0
N35 N 0.13279 0.61651 0.47676 0.0
C36 C 0.10282 0.60529 0.49241 0.0
C37 C 0.15006 0.55689 0.49643 0.0
C38 C 0.16276 0.58615 0.47938 0.0
C39 C 0.03691 0.50443 0.4711 0.0
O40 O 0.04827 0.5385 0.46054 0.0
H41 H 0.07295 0.62169 0.49379 0.0
H42 H 0.16628 0.52812 0.5018 0.0
O43 O 0.04235 0.58235 0.54158 0.0
H44 H 0.18789 0.48299 0.59866 0.0
H45 H 0.19135 0.58462 0.46925 0.0
Mg46 Mg 0.09134 0.0411 0.28741 0.0
O47 O 0.02644 0.03062 0.25826 0.0
O48 O 0.97874 0.01634 0.28677 0.0
Mg49 Mg 1.01214 0.01301 0.33235 0.0
C50 C 0.98812 0.02248 0.26224 0.0
C51 C 0.15818 0.05222 0.24906 0.0
O52 O 0.1724 0.02264 0.26587 0.0
O53 O 0.06732 0.10384 0.30395 0.0
O54 O 0.02418 0.08257 0.33355 0.0
O55 O 0.1085 0.97367 0.28402 0.0
O56 O 0.07339 1.00135 0.31677 0.0
C57 C 0.04284 0.11137 0.32277 0.0
C58 C 0.08957 0.96892 0.30586 0.0
O59 O 0.12228 0.06924 0.25201 0.0
Mg60 Mg 0.01755 0.02603 0.75807 0.0
O61 O 0.08459 0.01371 0.78431 0.0
O62 O 0.12784 0.9951 0.75268 0.0
Mg63 Mg 0.0915 0.99603 0.70792 0.0
C64 C 0.12146 1.00236 0.77819 0.0
C65 C 0.95183 0.06938 0.78928 0.0
O66 O 0.93654 0.07006 0.76225 0.0
O67 O 0.04115 0.08824 0.74507 0.0
O68 O 0.08427 0.06618 0.71406 0.0
O69 O 0.99996 0.95892 0.75745 0.0
O70 O 0.03195 0.98674 0.72506 0.0
C71 C 0.06667 0.09525 0.72733 0.0
C72 C 0.0169 0.95437 0.73444 0.0
O73 O 0.98934 0.05448 0.79627 0.0
H74 H 0.45332 0.06806 0.10025 0.0
H75 H 0.39356 0.06084 0.12674 0.0
H76 H 0.34809 0.18254 0.10446 0.0
H77 H 0.40817 0.18999 0.07771 0.0
H78 H 0.34312 0.17003 0.15931 0.0
H79 H 0.29698 0.09862 0.07151 0.0
H80 H 0.30254 0.05027 0.03091 0.0
H81 H 0.31638 0.94881 0.08597 0.0
H82 H 0.31159 0.99663 0.12699 0.0
H83 H 0.15006 0.12181 0.21763 0.0
H84 H 0.19635 0.14203 0.18338 0.0
H85 H 0.27098 0.03061 0.19759 0.0
H86 H 0.22552 0.01048 0.23155 0.0
H87 H 0.25128 0.04573 0.14103 0.0
H88 H 0.30711 0.12009 0.2291 0.0
H89 H 0.30178 0.16916 0.26937 0.0
H90 H 0.26745 0.26622 0.21222 0.0
H91 H 0.27204 0.21752 0.17158 0.0
C92 C 0.43049 0.09321 0.10072 0.0
C93 C 0.43536 0.12942 0.08652 0.0
C94 C 0.39628 0.08906 0.11594 0.0
C95 C 0.36578 0.12082 0.11716 0.0
C96 C 0.37109 0.15753 0.1037 0.0
C97 C 0.40553 0.16178 0.08848 0.0
C98 C 0.32861 0.11524 0.13262 0.0
C99 C 0.32245 0.14331 0.15492 0.0
C100 C 0.30165 0.0803 0.12702 0.0
C101 C 0.30419 0.05129 0.10237 0.0
C102 C 0.30149 0.06603 0.075 0.0
C103 C 0.30447 0.03871 0.0519 0.0
C104 C 0.30987 0.9965 0.05587 0.0
C105 C 0.3122 0.98152 0.08294 0.0
C106 C 0.3093 0.00872 0.10611 0.0
C107 C 0.17622 0.10161 0.21329 0.0
C108 C 0.18419 0.06463 0.2274 0.0
C109 C 0.20269 0.11324 0.19382 0.0
C110 C 0.23724 0.08786 0.18801 0.0
C111 C 0.24451 0.05063 0.20166 0.0
C112 C 0.21852 0.03926 0.22121 0.0
C113 C 0.26677 0.09977 0.16822 0.0
C114 C 0.27143 0.07286 0.14504 0.0
C115 C 0.29207 0.13587 0.17291 0.0
C116 C 0.28936 0.16508 0.19731 0.0
C117 C 0.29804 0.15181 0.22512 0.0
C118 C 0.29524 0.17957 0.24801 0.0
C119 C 0.28413 0.22075 0.24335 0.0
C120 C 0.27594 0.23429 0.21579 0.0
C121 C 0.27865 0.20663 0.19283 0.0
H122 H 0.282 0.2422 0.2611 0.0
H123 H 0.31218 0.9754 0.03796 0.0
H124 H 0.05068 0.43893 0.60308 0.0
H125 H 0.0421 0.38005 0.63191 0.0
H126 H 0.17601 0.34865 0.63299 0.0
H127 H 0.18473 0.40758 0.60414 0.0
H128 H 0.11919 0.28202 0.61799 0.0
H129 H 0.14594 0.39038 0.69055 0.0
H130 H 0.13304 0.45797 0.7136 0.0
H131 H 1.00459 0.42174 0.72138 0.0
H132 H 0.01653 0.3541 0.69798 0.0
H133 H 0.13988 0.12475 0.71222 0.0
H134 H 0.15023 0.19116 0.69251 0.0
H135 H 0.02165 0.22811 0.70467 0.0
H136 H 1.01175 0.16184 0.72557 0.0
H137 H 0.07349 0.29312 0.71299 0.0
H138 H 0.04314 0.18747 0.64038 0.0
H139 H 0.05156 0.12023 0.61557 0.0
H140 H 0.18037 0.15166 0.60515 0.0
H141 H 0.17293 0.2189 0.63027 0.0
C142 C 0.07825 0.41943 0.60943 0.0
C143 C 0.11837 0.42776 0.60129 0.0
C144 C 0.07339 0.38604 0.62608 0.0
C145 C 0.10848 0.36017 0.63472 0.0
C146 C 0.14857 0.36837 0.62662 0.0
C147 C 0.15358 0.40209 0.61028 0.0
C148 C 0.10298 0.32353 0.65121 0.0
C149 C 0.10986 0.28444 0.63894 0.0
C150 C 0.08915 0.32675 0.67807 0.0
C151 C 0.08199 0.36732 0.69225 0.0
C152 C 0.11482 0.39695 0.69694 0.0
C153 C 0.10771 0.43525 0.71012 0.0
C154 C 0.06798 0.44419 0.71888 0.0
C155 C 0.03533 0.41479 0.71455 0.0
C156 C 0.04226 0.37646 0.70135 0.0
C157 C 0.11406 0.14731 0.71118 0.0
C158 C 0.07482 0.13797 0.72013 0.0
C159 C 0.11992 0.18519 0.69976 0.0
C160 C 0.08627 0.21419 0.69628 0.0
C161 C 0.04796 0.20609 0.70691 0.0
C162 C 0.04234 0.16827 0.71888 0.0
C163 C 0.0904 0.25148 0.67994 0.0
C164 C 0.08297 0.29065 0.69209 0.0
C165 C 0.10305 0.24841 0.65268 0.0
C166 C 0.10761 0.20806 0.63745 0.0
C167 C 0.07337 0.17993 0.63298 0.0
C168 C 0.07795 0.14183 0.61884 0.0
C169 C 0.11651 0.13164 0.60886 0.0
C170 C 0.15054 0.15958 0.61293 0.0
C171 C 0.14615 0.1977 0.6271 0.0
H172 H 0.12 0.10213 0.59791 0.0
H173 H 0.06254 0.47385 0.72908 0.0
H174 H 0.63046 0.04217 0.09992 0.0
H175 H 0.69476 0.03709 0.13493 0.0
H176 H 0.76679 0.99044 0.07003 0.0
H177 H 0.70196 0.99432 0.03489 0.0
H178 H 0.79259 0.95276 0.11777 0.0
H179 H 0.77241 0.09227 0.09249 0.0
H180 H 0.733 0.1576 0.08363 0.0
H181 H 0.71387 0.16906 0.17063 0.0
H182 H 0.75262 0.10343 0.17992 0.0
H183 H 0.99393 0.01031 0.20564 0.0
H184 H 0.93447 0.00726 0.16605 0.0
H185 H 0.84355 0.02879 0.22444 0.0
H186 H 0.90224 0.03115 0.26393 0.0
H187 H 0.83264 0.0803 0.17647 0.0
H188 H 0.85159 0.93671 0.19959 0.0
H189 H 0.8935 0.87239 0.20681 0.0
H190 H 0.91943 0.87133 0.12119 0.0
H191 H 0.87815 0.93604 0.1136 0.0
C192 C 0.65981 0.0303 0.09312 0.0
C193 C 0.66117 0.019 0.06456 0.0
C194 C 0.69667 0.02762 0.11315 0.0
C195 C 0.73598 0.0144 0.10503 0.0
C196 C 0.73694 1.00101 0.07679 0.0
C197 C 0.69983 1.00321 0.05673 0.0
C198 C 0.77613 0.01643 0.12585 0.0
C199 C 0.80167 0.98084 0.13028 0.0
C200 C 0.78818 0.05304 0.14225 0.0
C201 C 0.76513 0.09273 0.13684 0.0
C202 C 0.75955 0.10857 0.10969 0.0
C203 C 0.73735 0.14568 0.1046 0.0
C204 C 0.72086 0.16743 0.12654 0.0
C205 C 0.72663 0.15216 0.15365 0.0
C206 C 0.74875 0.11502 0.15885 0.0
C207 C 0.96126 0.01437 0.21 0.0
C208 C 0.95284 0.02087 0.23795 0.0
C209 C 0.92737 0.01248 0.1874 0.0
C210 C 0.88465 0.0177 0.19237 0.0
C211 C 0.87628 0.02467 0.22017 0.0
C212 C 0.90992 0.02585 0.24272 0.0
C213 C 0.84832 0.01648 0.16877 0.0
C214 C 0.82364 0.05236 0.16376 0.0
C215 C 0.83758 0.98039 0.1516 0.0
C216 C 0.86225 0.94147 0.15614 0.0
C217 C 0.86659 0.92298 0.18239 0.0
C218 C 0.89015 0.88641 0.18653 0.0
C219 C 0.90924 0.86785 0.1645 0.0
C220 C 0.9047 0.88578 0.13825 0.0
C221 C 0.88121 0.92239 0.13401 0.0
H222 H 0.92746 0.83953 0.16774 0.0
H223 H 0.70368 0.19615 0.12255 0.0
H224 H 1.0038 0.58417 0.61768 0.0
H225 H 0.99763 0.64661 0.64749 0.0
H226 H 0.0233 0.72113 0.5797 0.0
H227 H 0.02974 0.659 0.54981 0.0
H228 H 0.07612 0.73976 0.62884 0.0
H229 H 0.92413 0.71986 0.59949 0.0
H230 H 0.85632 0.68091 0.59299 0.0
H231 H 0.86806 0.66712 0.68254 0.0
H232 H 0.93627 0.70553 0.68954 0.0
H233 H 0.03703 0.9395 0.68154 0.0
H234 H 0.03592 0.87402 0.65459 0.0
H235 H 0.99918 0.81175 0.72497 0.0
H236 H 0.999 0.87793 0.75195 0.0
H237 H 0.95316 0.78385 0.6775 0.0
H238 H 0.10295 0.80446 0.70785 0.0
H239 H 0.17146 0.84232 0.7155 0.0
H240 H 0.16583 0.85231 0.62594 0.0
H241 H 0.09695 0.81503 0.61775 0.0
C242 C 1.00733 0.61386 0.6089 0.0
C243 C 0.01752 0.61651 0.58138 0.0
C244 C 1.00374 0.64955 0.62599 0.0
C245 C 1.01013 0.68854 0.61585 0.0
C246 C 0.01845 0.69134 0.58799 0.0
C247 C 0.02191 0.65574 0.57088 0.0
C248 C 1.01128 0.72621 0.63479 0.0
C249 C 0.04901 0.74971 0.63918 0.0
C250 C 0.97658 0.73824 0.64919 0.0
C251 C 0.93554 0.7152 0.645 0.0
C252 C 0.91245 0.70821 0.61777 0.0
C253 C 0.8739 0.6863 0.614 0.0
C254 C 0.85795 0.67144 0.63732 0.0
C255 C 0.88048 0.67858 0.66448 0.0
C256 C 0.91906 0.70046 0.66837 0.0
C257 C 0.02917 0.91188 0.69149 0.0
C258 C 0.01854 0.91388 0.71903 0.0
C259 C 0.0286 0.87435 0.67602 0.0
C260 C 0.01819 0.83772 0.68787 0.0
C261 C 1.00747 0.83956 0.7154 0.0
C262 C 1.00758 0.87734 0.73084 0.0
C263 C 0.01777 0.79788 0.67114 0.0
C264 C 0.98033 0.77385 0.66725 0.0
C265 C 0.05295 0.78504 0.65738 0.0
C266 C 0.09459 0.80721 0.66221 0.0
C267 C 0.11617 0.81497 0.68979 0.0
C268 C 0.15509 0.83629 0.69422 0.0
C269 C 0.17294 0.84978 0.67123 0.0
C270 C 0.15195 0.84187 0.64374 0.0
C271 C 0.11299 0.8206 0.63918 0.0
H272 H 0.20308 0.8663 0.67471 0.0
H273 H 0.8281 0.65449 0.63436 0.0
H274 H 0.4995 0.99542 0.92151 0.0
H275 H 0.43142 0.98328 0.89052 0.0
H276 H 0.36179 0.02157 0.95861 0.0
H277 H 0.42966 0.03243 0.98998 0.0
H278 H 0.31895 0.96209 0.92715 0.0
H279 H 0.38278 0.0895 0.90907 0.0
H280 H 0.44057 0.13408 0.89822 0.0
H281 H 0.44212 0.06661 0.81906 0.0
H282 H 0.38474 0.02122 0.82963 0.0
H283 H 0.1259 0.02126 0.83542 0.0
H284 H 0.18995 0.01958 0.8715 0.0
H285 H 0.2656 0.97389 0.80836 0.0
H286 H 0.2025 0.97563 0.77243 0.0
H287 H 0.30363 0.03841 0.83885 0.0
H288 H 0.23723 0.91144 0.85781 0.0
H289 H 0.17857 0.86888 0.86968 0.0
H290 H 0.17974 0.93904 0.94807 0.0
H291 H 0.23804 0.98241 0.93649 0.0
C292 C 0.46972 1.00048 0.93006 0.0
C293 C 0.47011 0.01538 0.95814 0.0
C294 C 0.43077 0.99375 0.91226 0.0
C295 C 0.39139 1.00259 0.92198 0.0
C296 C 0.39167 0.0148 0.95052 0.0
C297 C 0.43061 0.02104 0.96845 0.0
C298 C 0.35034 1.00205 0.90196 0.0
C299 C 0.31545 0.9791 0.90798 0.0
C300 C 0.34564 0.02415 0.87686 0.0
C301 C 0.37975 0.05173 0.87026 0.0
C302 C 0.39562 0.08402 0.88942 0.0
C303 C 0.42829 0.10944 0.88332 0.0
C304 C 0.44508 0.10312 0.85799 0.0
C305 C 0.42913 0.07144 0.83868 0.0
C306 C 0.39651 0.04587 0.84471 0.0
C307 C 0.15609 0.01049 0.82928 0.0
C308 C 0.15892 0.99882 0.80091 0.0
C309 C 0.19266 0.00944 0.84995 0.0
C310 C 0.23264 0.99656 0.84264 0.0
C311 C 0.23522 0.98411 0.81451 0.0
C312 C 0.19891 0.9851 0.79395 0.0
C313 C 0.27248 0.99781 0.86371 0.0
C314 C 0.30711 0.02126 0.85797 0.0
C315 C 0.27664 0.97656 0.88914 0.0
C316 C 0.24167 0.95046 0.89614 0.0
C317 C 0.22472 0.91803 0.87747 0.0
C318 C 0.19159 0.89371 0.88416 0.0
C319 C 0.17535 0.90133 0.90957 0.0
C320 C 0.1923 0.93322 0.92838 0.0
C321 C 0.22541 0.95766 0.92176 0.0
H322 H 0.1497 0.88247 0.91472 0.0
H323 H 0.47038 0.12282 0.85331 0.0
H324 H 1.00488 0.43083 0.48421 0.0
H325 H 0.99947 0.36651 0.45527 0.0
H326 H 0.04262 0.42899 0.38706 0.0
H327 H 0.04641 0.49366 0.41541 0.0
H328 H 0.98679 0.37275 0.36568 0.0
H329 H 0.11311 0.37452 0.43482 0.0
H330 H 0.15428 0.38237 0.48271 0.0
H331 H 0.08608 0.28092 0.50924 0.0
H332 H 0.04402 0.27285 0.4616 0.0
H333 H 0.06992 0.18432 0.30373 0.0
H334 H 0.0638 0.25404 0.32526 0.0
H335 H 0.99813 0.20464 0.38911 0.0
H336 H 1.00351 0.13567 0.36791 0.0
H337 H 0.06822 0.25547 0.41079 0.0
H338 H 0.94189 0.25536 0.33959 0.0
H339 H 0.90347 0.2488 0.29088 0.0
H340 H 0.97746 0.34807 0.26694 0.0
H341 H 0.01677 0.35483 0.31545 0.0
C342 C 1.01238 0.43105 0.46284 0.0
C343 C 0.02654 0.46728 0.45225 0.0
C344 C 1.00956 0.3942 0.44637 0.0
C345 C 0.02184 0.39261 0.41925 0.0
C346 C 0.03328 0.4293 0.40797 0.0
C347 C 0.03545 0.46631 0.42426 0.0
C348 C 0.0256 0.3524 0.4035 0.0
C349 C 1.00501 0.34728 0.37546 0.0
C350 C 0.04941 0.31903 0.41615 0.0
C351 C 0.07515 0.32333 0.44471 0.0
C352 C 0.10673 0.35402 0.45091 0.0
C353 C 0.13023 0.35851 0.47801 0.0
C354 C 0.12272 0.33223 0.49902 0.0
C355 C 0.09181 0.30129 0.49295 0.0
C356 C 0.06816 0.29673 0.4659 0.0
C357 C 0.05385 0.1884 0.3222 0.0
C358 C 0.03732 0.15425 0.33406 0.0
C359 C 0.05032 0.22822 0.33443 0.0
C360 C 0.03056 0.2344 0.35881 0.0
C361 C 1.01359 0.20053 0.37037 0.0
C362 C 0.01664 0.16104 0.35807 0.0
C363 C 0.02882 0.27569 0.37326 0.0
C364 C 0.05009 0.28103 0.40104 0.0
C365 C 1.00626 0.3093 0.36019 0.0
C366 C 0.98262 0.30527 0.33106 0.0
C367 C 0.95026 0.27552 0.32387 0.0
C368 C 0.92826 0.27182 0.29631 0.0
C369 C 0.93811 0.29791 0.2758 0.0
C370 C 0.96992 0.32783 0.28283 0.0
C371 C 0.99205 0.33163 0.31036 0.0
H372 H 0.92103 0.29501 0.25448 0.0
H373 H 0.14091 0.33578 0.52 0.0
H374 H 0.62572 0.14543 0.913 0.0
H375 H 0.68579 0.13798 0.88618 0.0
H376 H 0.76704 0.09581 0.95991 0.0
H377 H 0.70711 0.10413 0.98721 0.0
H378 H 0.80983 0.149 0.9302 0.0
H379 H 0.72581 0.02683 0.91059 0.0
H380 H 0.6596 0.98634 0.89702 0.0
H381 H 0.64052 0.03916 0.81556 0.0
H382 H 0.70631 0.08048 0.82879 0.0
H383 H 0.96704 0.06168 0.84704 0.0
H384 H 0.91577 0.07416 0.88064 0.0
H385 H 0.82104 0.11552 0.81316 0.0
H386 H 0.87159 0.10306 0.77969 0.0
H387 H 0.78823 0.05871 0.84285 0.0
H388 H 0.87144 0.18298 0.8636 0.0
H389 H 0.93767 0.22331 0.87764 0.0
H390 H 0.95913 0.16524 0.95727 0.0
H391 H 0.89327 0.12414 0.94354 0.0
C392 C 0.65645 0.13521 0.92373 0.0
C393 C 0.66138 0.12521 0.95231 0.0
C394 C 0.69076 0.13062 0.90826 0.0
C395 C 0.73081 0.11581 0.92091 0.0
C396 C 0.73639 0.10712 0.94966 0.0
C397 C 0.70197 0.11157 0.96518 0.0
C398 C 0.76614 0.1081 0.9037 0.0
C399 C 0.80539 0.12879 0.91132 0.0
C400 C 0.76025 0.08204 0.87892 0.0
C401 C 0.7208 0.05703 0.87078 0.0
C402 C 0.70733 0.03006 0.88986 0.0
C403 C 0.6699 0.00691 0.88222 0.0
C404 C 0.64582 0.01024 0.85547 0.0
C405 C 0.65919 0.03665 0.83628 0.0
C406 C 0.69657 0.05991 0.84383 0.0
C407 C 0.9355 0.07399 0.83947 0.0
C408 C 0.92341 0.08116 0.81062 0.0
C409 C 0.90622 0.08114 0.8587 0.0
C410 C 0.86444 0.0957 0.84942 0.0
C411 C 0.85293 0.10404 0.82082 0.0
C412 C 0.88203 0.09699 0.80169 0.0
C413 C 0.83166 0.10037 0.86891 0.0
C414 C 0.79285 0.07883 0.86178 0.0
C415 C 0.83812 0.1255 0.89414 0.0
C416 C 0.87771 0.15014 0.9024 0.0
C417 C 0.89049 0.17853 0.884 0.0
C418 C 0.92792 0.20159 0.89192 0.0
C419 C 0.95267 0.19674 0.91829 0.0
C420 C 0.93997 0.1689 0.93683 0.0
C421 C 0.90258 0.14574 0.92899 0.0
H422 H 0.98162 0.21463 0.92439 0.0
H423 H 0.61684 0.9923 0.84959 0.0
H424 H 0.17185 0.62448 0.43016 0.0
H425 H 0.16423 0.68178 0.39848 0.0
H426 H 0.07998 0.74447 0.45016 0.0
H427 H 0.08798 0.68777 0.48221 0.0
H428 H 0.04712 0.74417 0.39423 0.0
H429 H 0.18142 0.77641 0.45244 0.0
H430 H 0.25569 0.76315 0.47495 0.0
H431 H 0.29556 0.74347 0.39332 0.0
H432 H 0.22134 0.75607 0.37031 0.0
H433 H 0.04932 0.94944 0.35038 0.0
H434 H 0.05514 0.88549 0.37536 0.0
H435 H 0.13569 0.83316 0.3171 0.0
H436 H 0.12977 0.89727 0.29171 0.0
H437 H 0.17062 0.8244 0.37271 0.0
H438 H 0.03653 0.79744 0.31451 0.0
H439 H 0.96233 0.81215 0.29252 0.0
H440 H 0.92191 0.82286 0.37442 0.0
H441 H 0.99603 0.80882 0.39695 0.0
C442 C 0.15222 0.65067 0.4351 0.0
C443 C 0.13043 0.65128 0.4588 0.0
C444 C 0.14775 0.68337 0.41685 0.0
C445 C 0.12152 0.71742 0.42194 0.0
C446 C 0.10012 0.71836 0.44569 0.0
C447 C 0.10468 0.6858 0.46399 0.0
C448 C 0.11583 0.75189 0.40238 0.0
C449 C 0.07408 0.76198 0.38973 0.0
C450 C 0.15111 0.77437 0.39589 0.0
C451 C 0.19573 0.76669 0.40966 0.0
C452 C 0.20594 0.76887 0.43929 0.0
C453 C 0.24804 0.76156 0.45214 0.0
C454 C 0.2803 0.75234 0.43557 0.0
C455 C 0.27053 0.75053 0.40612 0.0
C456 C 0.22845 0.75778 0.39316 0.0
C457 C 0.06758 0.92416 0.34245 0.0
C458 C 0.08889 0.92848 0.31892 0.0
C459 C 0.0709 0.88754 0.35682 0.0
C460 C 0.0957 0.85447 0.34804 0.0
C461 C 0.11635 0.8583 0.32421 0.0
C462 C 0.11274 0.89488 0.30965 0.0
C463 C 0.10187 0.81697 0.3648 0.0
C464 C 0.1437 0.80633 0.37696 0.0
C465 C 0.06664 0.79405 0.3709 0.0
C466 C 0.02196 0.80242 0.35744 0.0
C467 C 1.0119 0.80327 0.32786 0.0
C468 C 0.96984 0.81142 0.31529 0.0
C469 C 0.93745 0.81852 0.33207 0.0
C470 C 0.94704 0.81739 0.36145 0.0
C471 C 0.98907 0.80929 0.37413 0.0
H472 H 0.90489 0.82482 0.3223 0.0
H473 H 0.31288 0.74671 0.44556 0.0
loop_
_geom_bond_atom_site_label_1
_geom_bond_atom_site_label_2
_geom_bond_distance
_geom_bond_site_symmetry_2
_ccdc_geom_bond_type
Cu0 N1 1.999 1_554 S
Cu0 O6 1.974 . S
Cu0 N11 1.985 . S
Cu0 O20 1.959 1_554 S
N1 Cu0 1.999 1_556 S
N1 C3 1.263 . S
N1 C5 1.389 . S
N2 C3 1.358 . S
N2 C4 1.400 . S
C3 N1 1.263 . S
C3 N2 1.358 . S
C3 H9 0.930 . S
C4 N2 1.400 . S
C4 C5 1.351 . S
C4 H21 0.930 . S
C5 N1 1.389 . S
C5 C4 1.351 . S
C5 H10 0.930 . S
O6 Cu0 1.974 . S
O6 C16 1.282 . S
C7 O8 1.261 1_545 S
C7 O20 1.251 . S
O8 C7 1.261 1_565 S
H9 C3 0.930 . S
H10 C5 0.930 . S
N11 Cu0 1.985 . S
N11 C13 1.335 . S
N11 C14 1.390 . S
N12 C13 1.345 . S
N12 C15 1.336 . S
C13 N11 1.335 . S
C13 N12 1.345 . S
C13 H18 0.930 . S
C14 N11 1.390 . S
C14 C15 1.346 . S
C14 H19 0.930 . S
C15 N12 1.336 . S
C15 C14 1.346 . S
C15 H22 0.929 . S
C16 O6 1.282 . S
C16 O17 1.216 1_545 S
O17 C16 1.216 1_565 S
H18 C13 0.930 . S
H19 C14 0.930 . S
O20 Cu0 1.959 1_556 S
O20 C7 1.251 . S
H21 C4 0.930 . S
H22 C15 0.929 . S
Cu23 N24 1.999 . S
Cu23 O29 1.974 . S
Cu23 N34 1.985 . S
Cu23 O43 1.959 . S
N24 Cu23 1.999 . S
N24 C26 1.263 . S
N24 C28 1.389 1_455 S
N25 C26 1.358 . S
N25 C27 1.400 1_455 S
C26 N24 1.263 . S
C26 N25 1.358 . S
C26 H32 0.930 . S
C27 N25 1.400 1_655 S
C27 C28 1.351 . S
C27 H44 0.930 . S
C28 N24 1.389 1_655 S
C28 C27 1.351 . S
C28 H33 0.930 . S
O29 Cu23 1.974 . S
O29 C39 1.282 . S
C30 O31 1.261 . S
C30 O43 1.251 . S
O31 C30 1.261 . S
H32 C26 0.930 . S
H33 C28 0.930 . S
N34 Cu23 1.985 . S
N34 C36 1.335 . S
N34 C37 1.390 . S
N35 C36 1.345 . S
N35 C38 1.336 . S
C36 N34 1.335 . S
C36 N35 1.345 . S
C36 H41 0.930 . S
C37 N34 1.390 . S
C37 C38 1.346 . S
C37 H42 0.930 . S
C38 N35 1.336 . S
C38 C37 1.346 . S
C38 H45 0.929 . S
C39 O29 1.282 . S
C39 O40 1.216 . S
O40 C39 1.216 . S
H41 C36 0.930 . S
H42 C37 0.930 . S
O43 Cu23 1.959 . S
O43 C30 1.251 . S
H44 C27 0.930 . S
H45 C38 0.929 . S
Mg46 O47 2.028 . S
Mg46 O53 1.986 . S
Mg46 O55 2.114 1_545 S
Mg46 O56 2.251 . S
Mg46 O59 2.010 . S
O47 Mg46 2.028 . S
O47 C50 1.250 1_455 S
O48 Mg49 2.028 . S
O48 C50 1.248 . S
Mg49 O48 2.028 . S
Mg49 O54 2.032 1_655 S
Mg49 O56 2.079 1_655 S
C50 O47 1.250 1_655 S
C50 O48 1.248 . S
C51 O52 1.264 . S
C51 O59 1.249 . S
O52 C51 1.264 . S
O53 Mg46 1.986 . S
O53 C57 1.246 . S
O54 Mg49 2.032 1_455 S
O54 C57 1.259 . S
O55 Mg46 2.114 1_565 S
O55 C58 1.252 . S
O56 Mg46 2.251 . S
O56 Mg49 2.079 1_455 S
O56 C58 1.273 1_545 S
C57 O53 1.246 . S
C57 O54 1.259 . S
C58 O55 1.252 . S
C58 O56 1.273 1_565 S
O59 Mg46 2.010 . S
O59 C51 1.249 . S
Mg60 O61 2.028 . S
Mg60 O67 1.986 . S
Mg60 O69 2.114 1_545 S
Mg60 O70 2.251 . S
Mg60 O73 2.010 1_455 S
O61 Mg60 2.028 . S
O61 C64 1.250 . S
O62 Mg63 2.028 . S
O62 C64 1.248 . S
Mg63 O62 2.028 . S
Mg63 O68 2.032 . S
Mg63 O70 2.079 . S
C64 O61 1.250 . S
C64 O62 1.248 . S
C65 O66 1.264 . S
C65 O73 1.249 . S
O66 C65 1.264 . S
O67 Mg60 1.986 . S
O67 C71 1.246 . S
O68 Mg63 2.032 . S
O68 C71 1.259 . S
O69 Mg60 2.114 1_565 S
O69 C72 1.252 . S
O70 Mg60 2.251 . S
O70 Mg63 2.079 . S
O70 C72 1.273 1_545 S
C71 O67 1.246 . S
C71 O68 1.259 . S
C72 O69 1.252 . S
C72 O70 1.273 1_565 S
O73 Mg60 2.010 1_655 S
O73 C65 1.249 . S
H74 C92 0.951 1_565 S
H75 C94 0.951 1_565 S
H76 C96 0.950 . S
H77 C97 0.950 . S
H78 C99 0.950 . S
H79 C102 0.952 1_545 S
H80 C103 0.950 . S
H81 C105 0.950 . S
H82 C106 0.950 . S
H83 C107 0.951 . S
H84 C109 0.951 . S
H85 C111 0.950 1_565 S
H86 C112 0.950 1_565 S
H87 C114 0.950 1_565 S
H88 C117 0.950 . S
H89 C118 0.950 . S
H90 C120 0.950 . S
H91 C121 0.950 . S
C92 H74 0.951 1_545 S
C92 C93 1.366 . S
C92 C94 1.388 . S
C93 C92 1.366 . S
C93 C97 1.385 . S
C94 H75 0.951 1_545 S
C94 C92 1.388 . S
C94 C95 1.366 . S
C95 C94 1.366 . S
C95 C96 1.414 . S
C95 C98 1.499 . S
C96 H76 0.950 . S
C96 C95 1.414 . S
C96 C97 1.374 . S
C97 H77 0.950 . S
C97 C93 1.385 . S
C97 C96 1.374 . S
C98 C95 1.499 . S
C98 C99 1.373 . S
C98 C100 1.389 . S
C99 H78 0.950 . S
C99 C98 1.373 . S
C99 C115 1.377 . S
C100 C98 1.389 . S
C100 C101 1.524 1_545 S
C100 C114 1.377 . S
C101 C100 1.524 1_565 S
C101 C102 1.396 . S
C101 C106 1.363 . S
C102 H79 0.952 1_565 S
C102 C101 1.396 . S
C102 C103 1.333 . S
C103 H80 0.950 . S
C103 C102 1.333 . S
C103 C104 1.287 . S
C104 C103 1.287 . S
C104 C105 1.524 . S
C104 H123 0.913 . S
C105 H81 0.950 . S
C105 C104 1.524 . S
C105 C106 1.415 . S
C106 H82 0.950 . S
C106 C101 1.363 . S
C106 C105 1.415 . S
C107 H83 0.951 . S
C107 C108 1.366 . S
C107 C109 1.388 . S
C108 C107 1.366 . S
C108 C112 1.385 . S
C109 H84 0.951 . S
C109 C107 1.388 . S
C109 C110 1.366 . S
C110 C109 1.366 . S
C110 C111 1.414 . S
C110 C113 1.499 . S
C111 H85 0.950 1_545 S
C111 C110 1.414 . S
C111 C112 1.374 . S
C112 H86 0.950 1_545 S
C112 C108 1.385 . S
C112 C111 1.374 . S
C113 C110 1.499 . S
C113 C114 1.373 . S
C113 C115 1.389 . S
C114 H87 0.950 1_545 S
C114 C100 1.377 . S
C114 C113 1.373 . S
C115 C99 1.377 . S
C115 C113 1.389 . S
C115 C116 1.524 . S
C116 C115 1.524 . S
C116 C117 1.397 . S
C116 C121 1.363 . S
C117 H88 0.950 . S
C117 C116 1.397 . S
C117 C118 1.334 . S
C118 H89 0.950 . S
C118 C117 1.334 . S
C118 C119 1.287 . S
C119 C118 1.287 . S
C119 C120 1.524 . S
C119 H122 0.999 . S
C120 H90 0.950 . S
C120 C119 1.524 . S
C120 C121 1.415 . S
C121 H91 0.950 . S
C121 C116 1.363 . S
C121 C120 1.415 . S
H122 C119 0.999 . S
H123 C104 0.913 . S
H124 C142 0.951 1_655 S
H125 C144 0.951 1_655 S
H126 C146 0.950 . S
H127 C147 0.950 . S
H128 C149 0.950 . S
H129 C152 0.950 . S
H130 C153 0.950 . S
H131 C155 0.950 1_655 S
H132 C156 0.950 1_655 S
H133 C157 0.951 . S
H134 C159 0.951 . S
H135 C161 0.950 1_655 S
H136 C162 0.950 1_655 S
H137 C164 0.950 . S
H138 C167 0.950 . S
H139 C168 0.950 . S
H140 C170 0.950 . S
H141 C171 0.950 . S
C142 H124 0.951 1_455 S
C142 C143 1.366 . S
C142 C144 1.388 . S
C143 C142 1.366 . S
C143 C147 1.385 . S
C144 H125 0.951 1_455 S
C144 C142 1.388 . S
C144 C145 1.366 . S
C145 C144 1.366 . S
C145 C146 1.414 . S
C145 C148 1.499 . S
C146 H126 0.950 . S
C146 C145 1.414 . S
C146 C147 1.374 . S
C147 H127 0.950 . S
C147 C143 1.385 . S
C147 C146 1.374 . S
C148 C145 1.499 . S
C148 C149 1.373 . S
C148 C150 1.389 . S
C149 H128 0.950 . S
C149 C148 1.373 . S
C149 C165 1.377 . S
C150 C148 1.389 . S
C150 C151 1.524 . S
C150 C164 1.377 . S
C151 C150 1.524 . S
C151 C152 1.397 . S
C151 C156 1.363 . S
C152 H129 0.950 . S
C152 C151 1.397 . S
C152 C153 1.334 . S
C153 H130 0.950 . S
C153 C152 1.334 . S
C153 C154 1.287 . S
C154 C153 1.287 . S
C154 C155 1.524 . S
C154 H173 0.913 . S
C155 H131 0.950 1_455 S
C155 C154 1.524 . S
C155 C156 1.415 . S
C156 H132 0.950 1_455 S
C156 C151 1.363 . S
C156 C155 1.415 . S
C157 H133 0.951 . S
C157 C158 1.366 . S
C157 C159 1.388 . S
C158 C157 1.366 . S
C158 C162 1.385 . S
C159 H134 0.951 . S
C159 C157 1.388 . S
C159 C160 1.366 . S
C160 C159 1.366 . S
C160 C161 1.414 . S
C160 C163 1.499 . S
C161 H135 0.950 1_455 S
C161 C160 1.414 . S
C161 C162 1.374 . S
C162 H136 0.950 1_455 S
C162 C158 1.385 . S
C162 C161 1.374 . S
C163 C160 1.499 . S
C163 C164 1.373 . S
C163 C165 1.389 . S
C164 H137 0.950 . S
C164 C150 1.377 . S
C164 C163 1.373 . S
C165 C149 1.377 . S
C165 C163 1.389 . S
C165 C166 1.524 . S
C166 C165 1.524 . S
C166 C167 1.397 1_455 S
C166 C171 1.363 . S
C167 H138 0.950 . S
C167 C166 1.397 1_655 S
C167 C168 1.334 . S
C168 H139 0.950 . S
C168 C167 1.334 . S
C168 C169 1.287 1_655 S
C169 C168 1.287 1_455 S
C169 C170 1.524 . S
C169 H172 0.999 . S
C170 H140 0.950 . S
C170 C169 1.524 . S
C170 C171 1.415 . S
C171 H141 0.950 . S
C171 C166 1.363 . S
C171 C170 1.415 . S
H172 C169 0.999 . S
H173 C154 0.913 . S
H174 C192 0.951 . S
H175 C194 0.951 . S
H176 C196 0.950 1_565 S
H177 C197 0.950 1_565 S
H178 C199 0.950 1_565 S
H179 C202 0.950 . S
H180 C203 0.950 . S
H181 C205 0.950 . S
H182 C206 0.950 . S
H183 C207 0.951 . S
H184 C209 0.951 . S
H185 C211 0.950 . S
H186 C212 0.950 . S
H187 C214 0.950 . S
H188 C217 0.950 . S
H189 C218 0.950 . S
H190 C220 0.950 . S
H191 C221 0.950 . S
C192 H174 0.951 . S
C192 C193 1.366 . S
C192 C194 1.388 . S
C193 C192 1.366 . S
C193 C197 1.385 . S
C194 H175 0.951 . S
C194 C192 1.388 . S
C194 C195 1.366 . S
C195 C194 1.366 . S
C195 C196 1.414 . S
C195 C198 1.499 . S
C196 H176 0.950 1_545 S
C196 C195 1.414 . S
C196 C197 1.374 . S
C197 H177 0.950 1_545 S
C197 C193 1.385 . S
C197 C196 1.374 . S
C198 C195 1.499 . S
C198 C199 1.373 . S
C198 C200 1.389 . S
C199 H178 0.950 1_545 S
C199 C198 1.373 . S
C199 C215 1.377 . S
C200 C198 1.389 . S
C200 C201 1.524 . S
C200 C214 1.377 . S
C201 C200 1.524 . S
C201 C202 1.397 . S
C201 C206 1.363 . S
C202 H179 0.950 . S
C202 C201 1.397 . S
C202 C203 1.334 . S
C203 H180 0.950 . S
C203 C202 1.334 . S
C203 C204 1.287 . S
C204 C203 1.287 . S
C204 C205 1.524 . S
C204 H223 0.913 . S
C205 H181 0.950 . S
C205 C204 1.524 . S
C205 C206 1.415 . S
C206 H182 0.950 . S
C206 C201 1.363 . S
C206 C205 1.415 . S
C207 H183 0.951 . S
C207 C208 1.366 . S
C207 C209 1.388 . S
C208 C207 1.366 . S
C208 C212 1.385 . S
C209 H184 0.951 . S
C209 C207 1.388 . S
C209 C210 1.366 . S
C210 C209 1.366 . S
C210 C211 1.414 . S
C210 C213 1.499 . S
C211 H185 0.950 . S
C211 C210 1.414 . S
C211 C212 1.374 . S
C212 H186 0.950 . S
C212 C208 1.385 . S
C212 C211 1.374 . S
C213 C210 1.499 . S
C213 C214 1.373 . S
C213 C215 1.389 . S
C214 H187 0.950 . S
C214 C200 1.377 . S
C214 C213 1.373 . S
C215 C199 1.377 . S
C215 C213 1.389 . S
C215 C216 1.524 1_545 S
C216 C215 1.524 1_565 S
C216 C217 1.397 . S
C216 C221 1.363 . S
C217 H188 0.950 . S
C217 C216 1.397 . S
C217 C218 1.334 . S
C218 H189 0.950 . S
C218 C217 1.334 . S
C218 C219 1.287 . S
C219 C218 1.287 . S
C219 C220 1.524 . S
C219 H222 0.999 . S
C220 H190 0.950 . S
C220 C219 1.524 . S
C220 C221 1.415 . S
C221 H191 0.950 . S
C221 C216 1.363 . S
C221 C220 1.415 . S
H222 C219 0.999 . S
H223 C204 0.913 . S
H224 C242 0.951 . S
H225 C244 0.951 . S
H226 C246 0.950 . S
H227 C247 0.950 . S
H228 C249 0.950 . S
H229 C252 0.950 . S
H230 C253 0.950 . S
H231 C255 0.950 . S
H232 C256 0.950 . S
H233 C257 0.951 . S
H234 C259 0.951 . S
H235 C261 0.950 . S
H236 C262 0.950 . S
H237 C264 0.950 . S
H238 C267 0.950 . S
H239 C268 0.950 . S
H240 C270 0.950 . S
H241 C271 0.950 . S
C242 H224 0.951 . S
C242 C243 1.366 . S
C242 C244 1.388 . S
C243 C242 1.366 . S
C243 C247 1.385 . S
C244 H225 0.951 . S
C244 C242 1.388 . S
C244 C245 1.366 . S
C245 C244 1.366 . S
C245 C246 1.414 . S
C245 C248 1.499 . S
C246 H226 0.950 . S
C246 C245 1.414 . S
C246 C247 1.374 . S
C247 H227 0.950 . S
C247 C243 1.385 . S
C247 C246 1.374 . S
C248 C245 1.499 . S
C248 C249 1.373 . S
C248 C250 1.389 . S
C249 H228 0.950 . S
C249 C248 1.373 . S
C249 C265 1.377 . S
C250 C248 1.389 . S
C250 C251 1.524 1_455 S
C250 C264 1.377 . S
C251 C250 1.524 1_655 S
C251 C252 1.397 . S
C251 C256 1.363 1_655 S
C252 H229 0.950 . S
C252 C251 1.397 . S
C252 C253 1.334 . S
C253 H230 0.950 . S
C253 C252 1.334 . S
C253 C254 1.287 . S
C254 C253 1.287 . S
C254 C255 1.524 . S
C254 H273 0.913 . S
C255 H231 0.950 . S
C255 C254 1.524 . S
C255 C256 1.415 1_655 S
C256 H232 0.950 . S
C256 C251 1.363 1_455 S
C256 C255 1.415 1_455 S
C257 H233 0.951 . S
C257 C258 1.366 . S
C257 C259 1.388 . S
C258 C257 1.366 . S
C258 C262 1.385 . S
C259 H234 0.951 . S
C259 C257 1.388 . S
C259 C260 1.366 . S
C260 C259 1.366 . S
C260 C261 1.414 . S
C260 C263 1.499 . S
C261 H235 0.950 . S
C261 C260 1.414 . S
C261 C262 1.374 . S
C262 H236 0.950 . S
C262 C258 1.385 . S
C262 C261 1.374 . S
C263 C260 1.499 . S
C263 C264 1.373 . S
C263 C265 1.389 . S
C264 H237 0.950 . S
C264 C250 1.377 . S
C264 C263 1.373 . S
C265 C249 1.377 . S
C265 C263 1.389 . S
C265 C266 1.524 . S
C266 C265 1.524 . S
C266 C267 1.397 . S
C266 C271 1.363 . S
C267 H238 0.950 . S
C267 C266 1.397 . S
C267 C268 1.334 . S
C268 H239 0.950 . S
C268 C267 1.334 . S
C268 C269 1.287 . S
C269 C268 1.287 . S
C269 C270 1.524 . S
C269 H272 0.999 . S
C270 H240 0.950 . S
C270 C269 1.524 . S
C270 C271 1.415 . S
C271 H241 0.950 . S
C271 C266 1.363 . S
C271 C270 1.415 . S
H272 C269 0.999 . S
H273 C254 0.913 . S
H274 C292 0.951 . S
H275 C294 0.951 . S
H276 C296 0.950 . S
H277 C297 0.950 . S
H278 C299 0.950 . S
H279 C302 0.950 . S
H280 C303 0.950 . S
H281 C305 0.950 . S
H282 C306 0.950 . S
H283 C307 0.951 . S
H284 C309 0.951 . S
H285 C311 0.950 . S
H286 C312 0.949 . S
H287 C314 0.950 . S
H288 C317 0.950 1_565 S
H289 C318 0.950 . S
H290 C320 0.950 . S
H291 C321 0.950 . S
C292 H274 0.951 . S
C292 C293 1.366 1_565 S
C292 C294 1.388 . S
C293 C292 1.366 1_545 S
C293 C297 1.385 . S
C294 H275 0.951 . S
C294 C292 1.388 . S
C294 C295 1.366 1_565 S
C295 C294 1.366 1_545 S
C295 C296 1.414 . S
C295 C298 1.499 . S
C296 H276 0.950 . S
C296 C295 1.414 . S
C296 C297 1.374 . S
C297 H277 0.950 . S
C297 C293 1.385 . S
C297 C296 1.374 . S
C298 C295 1.499 . S
C298 C299 1.373 . S
C298 C300 1.389 . S
C299 H278 0.950 . S
C299 C298 1.373 . S
C299 C315 1.377 . S
C300 C298 1.389 . S
C300 C301 1.524 . S
C300 C314 1.377 . S
C301 C300 1.524 . S
C301 C302 1.397 . S
C301 C306 1.363 1_545 S
C302 H279 0.950 . S
C302 C301 1.397 . S
C302 C303 1.334 . S
C303 H280 0.950 . S
C303 C302 1.334 . S
C303 C304 1.287 1_545 S
C304 C303 1.287 1_565 S
C304 C305 1.524 . S
C304 H323 0.913 . S
C305 H281 0.950 . S
C305 C304 1.524 . S
C305 C306 1.415 . S
C306 H282 0.950 . S
C306 C301 1.363 1_565 S
C306 C305 1.415 . S
C307 H283 0.951 . S
C307 C308 1.366 . S
C307 C309 1.388 . S
C308 C307 1.366 . S
C308 C312 1.386 1_545 S
C309 H284 0.951 . S
C309 C307 1.388 . S
C309 C310 1.366 . S
C310 C309 1.366 . S
C310 C311 1.414 1_545 S
C310 C313 1.499 . S
C311 H285 0.950 . S
C311 C310 1.414 1_565 S
C311 C312 1.374 . S
C312 H286 0.949 . S
C312 C308 1.386 1_565 S
C312 C311 1.374 . S
C313 C310 1.499 . S
C313 C314 1.373 . S
C313 C315 1.389 . S
C314 H287 0.950 . S
C314 C300 1.377 . S
C314 C313 1.373 . S
C315 C299 1.377 . S
C315 C313 1.389 . S
C315 C316 1.524 . S
C316 C315 1.524 . S
C316 C317 1.397 . S
C316 C321 1.363 . S
C317 H288 0.950 1_545 S
C317 C316 1.397 . S
C317 C318 1.334 . S
C318 H289 0.950 . S
C318 C317 1.334 . S
C318 C319 1.287 . S
C319 C318 1.287 . S
C319 C320 1.524 . S
C319 H322 0.999 . S
C320 H290 0.950 . S
C320 C319 1.524 . S
C320 C321 1.415 . S
C321 H291 0.950 . S
C321 C316 1.363 . S
C321 C320 1.415 . S
H322 C319 0.999 . S
H323 C304 0.913 . S
H324 C342 0.951 . S
H325 C344 0.951 . S
H326 C346 0.950 . S
H327 C347 0.950 . S
H328 C349 0.950 . S
H329 C352 0.950 . S
H330 C353 0.950 . S
H331 C355 0.950 . S
H332 C356 0.950 . S
H333 C357 0.951 . S
H334 C359 0.951 . S
H335 C361 0.950 . S
H336 C362 0.950 . S
H337 C364 0.950 . S
H338 C367 0.950 . S
H339 C368 0.950 . S
H340 C370 0.950 . S
H341 C371 0.950 . S
C342 H324 0.951 . S
C342 C343 1.366 . S
C342 C344 1.388 . S
C343 C342 1.366 . S
C343 C347 1.385 . S
C344 H325 0.951 . S
C344 C342 1.388 . S
C344 C345 1.366 . S
C345 C344 1.366 . S
C345 C346 1.414 . S
C345 C348 1.499 . S
C346 H326 0.950 . S
C346 C345 1.414 . S
C346 C347 1.374 . S
C347 H327 0.950 . S
C347 C343 1.385 . S
C347 C346 1.374 . S
C348 C345 1.499 . S
C348 C349 1.373 . S
C348 C350 1.389 . S
C349 H328 0.950 . S
C349 C348 1.373 . S
C349 C365 1.377 . S
C350 C348 1.389 . S
C350 C351 1.524 . S
C350 C364 1.377 . S
C351 C350 1.524 . S
C351 C352 1.397 . S
C351 C356 1.363 . S
C352 H329 0.950 . S
C352 C351 1.397 . S
C352 C353 1.334 . S
C353 H330 0.950 . S
C353 C352 1.334 . S
C353 C354 1.287 . S
C354 C353 1.287 . S
C354 C355 1.524 . S
C354 H373 0.913 . S
C355 H331 0.950 . S
C355 C354 1.524 . S
C355 C356 1.415 . S
C356 H332 0.950 . S
C356 C351 1.363 . S
C356 C355 1.415 . S
C357 H333 0.951 . S
C357 C358 1.366 . S
C357 C359 1.388 . S
C358 C357 1.366 . S
C358 C362 1.385 . S
C359 H334 0.951 . S
C359 C357 1.388 . S
C359 C360 1.366 . S
C360 C359 1.366 . S
C360 C361 1.414 . S
C360 C363 1.499 . S
C361 H335 0.950 . S
C361 C360 1.414 . S
C361 C362 1.374 . S
C362 H336 0.950 . S
C362 C358 1.385 . S
C362 C361 1.374 . S
C363 C360 1.499 . S
C363 C364 1.373 . S
C363 C365 1.389 . S
C364 H337 0.950 . S
C364 C350 1.377 . S
C364 C363 1.373 . S
C365 C349 1.377 . S
C365 C363 1.389 . S
C365 C366 1.524 1_455 S
C366 C365 1.524 1_655 S
C366 C367 1.397 . S
C366 C371 1.363 . S
C367 H338 0.950 . S
C367 C366 1.397 . S
C367 C368 1.334 . S
C368 H339 0.950 . S
C368 C367 1.334 . S
C368 C369 1.287 . S
C369 C368 1.287 . S
C369 C370 1.524 . S
C369 H372 0.999 . S
C370 H340 0.950 . S
C370 C369 1.524 . S
C370 C371 1.415 . S
C371 H341 0.950 . S
C371 C366 1.363 . S
C371 C370 1.415 . S
H372 C369 0.999 . S
H373 C354 0.913 . S
H374 C392 0.951 . S
H375 C394 0.951 . S
H376 C396 0.950 . S
H377 C397 0.950 . S
H378 C399 0.950 . S
H379 C402 0.950 . S
H380 C403 0.950 . S
H381 C405 0.950 . S
H382 C406 0.950 . S
H383 C407 0.951 . S
H384 C409 0.951 . S
H385 C411 0.950 . S
H386 C412 0.950 . S
H387 C414 0.950 1_565 S
H388 C417 0.950 . S
H389 C418 0.950 . S
H390 C420 0.950 . S
H391 C421 0.950 . S
C392 H374 0.951 . S
C392 C393 1.366 . S
C392 C394 1.388 . S
C393 C392 1.366 . S
C393 C397 1.385 . S
C394 H375 0.951 . S
C394 C392 1.388 . S
C394 C395 1.366 . S
C395 C394 1.366 . S
C395 C396 1.414 . S
C395 C398 1.499 . S
C396 H376 0.950 . S
C396 C395 1.414 . S
C396 C397 1.374 . S
C397 H377 0.950 . S
C397 C393 1.385 . S
C397 C396 1.374 . S
C398 C395 1.499 . S
C398 C399 1.373 . S
C398 C400 1.389 . S
C399 H378 0.950 . S
C399 C398 1.373 . S
C399 C415 1.377 . S
C400 C398 1.389 . S
C400 C401 1.524 1_545 S
C400 C414 1.377 . S
C401 C400 1.524 1_565 S
C401 C402 1.397 . S
C401 C406 1.363 . S
C402 H379 0.950 . S
C402 C401 1.397 . S
C402 C403 1.334 . S
C403 H380 0.950 . S
C403 C402 1.334 . S
C403 C404 1.287 . S
C404 C403 1.287 . S
C404 C405 1.524 . S
C404 H423 0.913 . S
C405 H381 0.950 . S
C405 C404 1.524 . S
C405 C406 1.415 . S
C406 H382 0.950 . S
C406 C401 1.363 . S
C406 C405 1.415 . S
C407 H383 0.951 . S
C407 C408 1.366 . S
C407 C409 1.388 . S
C408 C407 1.366 . S
C408 C412 1.385 . S
C409 H384 0.951 . S
C409 C407 1.388 . S
C409 C410 1.366 . S
C410 C409 1.366 . S
C410 C411 1.414 . S
C410 C413 1.499 . S
C411 H385 0.950 . S
C411 C410 1.414 . S
C411 C412 1.374 . S
C412 H386 0.950 . S
C412 C408 1.385 . S
C412 C411 1.374 . S
C413 C410 1.499 . S
C413 C414 1.373 . S
C413 C415 1.389 . S
C414 H387 0.950 1_545 S
C414 C400 1.377 . S
C414 C413 1.373 . S
C415 C399 1.377 . S
C415 C413 1.389 . S
C415 C416 1.524 . S
C416 C415 1.524 . S
C416 C417 1.397 . S
C416 C421 1.363 . S
C417 H388 0.950 . S
C417 C416 1.397 . S
C417 C418 1.334 . S
C418 H389 0.950 . S
C418 C417 1.334 . S
C418 C419 1.287 . S
C419 C418 1.287 . S
C419 C420 1.524 . S
C419 H422 0.999 . S
C420 H390 0.950 . S
C420 C419 1.524 . S
C420 C421 1.415 . S
C421 H391 0.950 . S
C421 C416 1.363 . S
C421 C420 1.415 . S
H422 C419 0.999 . S
H423 C404 0.913 . S
H424 C442 0.951 . S
H425 C444 0.951 . S
H426 C446 0.950 1_655 S
H427 C447 0.950 1_655 S
H428 C449 0.950 1_655 S
H429 C452 0.950 . S
H430 C453 0.950 . S
H431 C455 0.950 . S
H432 C456 0.950 . S
H433 C457 0.951 1_655 S
H434 C459 0.951 1_655 S
H435 C461 0.950 . S
H436 C462 0.950 . S
H437 C464 0.950 . S
H438 C467 0.950 1_455 S
H439 C468 0.950 . S
H440 C470 0.950 . S
H441 C471 0.950 . S
C442 H424 0.951 . S
C442 C443 1.366 . S
C442 C444 1.388 . S
C443 C442 1.366 . S
C443 C447 1.385 . S
C444 H425 0.951 . S
C444 C442 1.388 . S
C444 C445 1.366 . S
C445 C444 1.366 . S
C445 C446 1.414 . S
C445 C448 1.499 . S
C446 H426 0.950 1_455 S
C446 C445 1.414 . S
C446 C447 1.374 . S
C447 H427 0.950 1_455 S
C447 C443 1.385 . S
C447 C446 1.374 . S
C448 C445 1.499 . S
C448 C449 1.373 . S
C448 C450 1.389 . S
C449 H428 0.950 1_455 S
C449 C448 1.373 . S
C449 C465 1.377 . S
C450 C448 1.389 . S
C450 C451 1.524 . S
C450 C464 1.377 . S
C451 C450 1.524 . S
C451 C452 1.397 . S
C451 C456 1.363 . S
C452 H429 0.950 . S
C452 C451 1.397 . S
C452 C453 1.334 . S
C453 H430 0.950 . S
C453 C452 1.334 . S
C453 C454 1.287 . S
C454 C453 1.287 . S
C454 C455 1.524 . S
C454 H473 0.913 . S
C455 H431 0.950 . S
C455 C454 1.524 . S
C455 C456 1.415 . S
C456 H432 0.950 . S
C456 C451 1.363 . S
C456 C455 1.415 . S
C457 H433 0.951 1_455 S
C457 C458 1.366 . S
C457 C459 1.388 . S
C458 C457 1.366 . S
C458 C462 1.385 . S
C459 H434 0.951 1_455 S
C459 C457 1.388 . S
C459 C460 1.366 . S
C460 C459 1.366 . S
C460 C461 1.414 . S
C460 C463 1.499 . S
C461 H435 0.950 . S
C461 C460 1.414 . S
C461 C462 1.374 . S
C462 H436 0.950 . S
C462 C458 1.385 . S
C462 C461 1.374 . S
C463 C460 1.499 . S
C463 C464 1.373 . S
C463 C465 1.389 . S
C464 H437 0.950 . S
C464 C450 1.377 . S
C464 C463 1.373 . S
C465 C449 1.377 . S
C465 C463 1.389 . S
C465 C466 1.524 1_455 S
C466 C465 1.524 1_655 S
C466 C467 1.397 . S
C466 C471 1.363 . S
C467 H438 0.950 1_655 S
C467 C466 1.397 . S
C467 C468 1.334 . S
C468 H439 0.950 . S
C468 C467 1.334 . S
C468 C469 1.287 . S
C469 C468 1.287 . S
C469 C470 1.524 . S
C469 H472 0.999 . S
C470 H440 0.950 . S
C470 C469 1.524 . S
C470 C471 1.415 . S
C471 H441 0.950 . S
C471 C466 1.363 . S
C471 C470 1.415 . S
H472 C469 0.999 . S
H473 C454 0.913 . S
C108 C51 1.236 . S
C93 N12 1.429 . S
C158 C71 1.479 . S
C143 N25 1.471 . S
C208 C50 1.426 . S
C193 C16 1.458 . S
C258 C72 1.508 . S
C243 C30 1.507 . S
C308 C64 1.471 . S
C293 C7 1.510 . S
C358 C57 1.424 . S
C343 C39 1.443 . S
C408 C65 1.264 . S
C393 N2 1.465 . S
C443 N35 1.439 . S
C458 C58 1.474 . S
