# Generated by pormake.
# Topology ssb, (4,4)-cn, num edge types: 1
# Building blocks:
#     Node 0, Type 0, BuildingBlock: ESEHIV_clean_sbu_0, # of connection points: 4
#     Node 1, Type 0, BuildingBlock: ESEHIV_clean_sbu_0, # of connection points: 4
#     Node 2, Type 0, BuildingBlock: ESEHIV_clean_sbu_0, # of connection points: 4
#     Node 3, Type 0, BuildingBlock: ESEHIV_clean_sbu_0, # of connection points: 4
#     Node 4, Type 0, BuildingBlock: ESEHIV_clean_sbu_0, # of connection points: 4
#     Node 5, Type 0, BuildingBlock: ESEHIV_clean_sbu_0, # of connection points: 4
#     Node 6, Type 0, BuildingBlock: ESEHIV_clean_sbu_0, # of connection points: 4
#     Node 7, Type 0, BuildingBlock: ESEHIV_clean_sbu_0, # of connection points: 4
#     Node 8, Type 1, BuildingBlock: KOZSID_clean_sbu_0, # of connection points: 4
#     Node 9, Type 1, BuildingBlock: KOZSID_clean_sbu_0, # of connection points: 4
#     Node 10, Type 1, BuildingBlock: KOZSID_clean_sbu_0, # of connection points: 4
#     Node 11, Type 1, BuildingBlock: KOZSID_clean_sbu_0, # of connection points: 4
#     Node 12, Type 1, BuildingBlock: KOZSID_clean_sbu_0, # of connection points: 4
#     Node 13, Type 1, BuildingBlock: KOZSID_clean_sbu_0, # of connection points: 4
#     Node 14, Type 1, BuildingBlock: KOZSID_clean_sbu_0, # of connection points: 4
#     Node 15, Type 1, BuildingBlock: KOZSID_clean_sbu_0, # of connection points: 4
#     Edge 16, Type (0, 1), BuildingBlock: AJUNOK_clean_linker_0, # of connection points: 2
#     Edge 17, Type (0, 1), BuildingBlock: AJUNOK_clean_linker_0, # of connection points: 2
#     Edge 18, Type (0, 1), BuildingBlock: AJUNOK_clean_linker_0, # of connection points: 2
#     Edge 19, Type (0, 1), BuildingBlock: AJUNOK_clean_linker_0, # of connection points: 2
#     Edge 20, Type (0, 1), BuildingBlock: AJUNOK_clean_linker_0, # of connection points: 2
#     Edge 21, Type (0, 1), BuildingBlock: AJUNOK_clean_linker_0, # of connection points: 2
#     Edge 22, Type (0, 1), BuildingBlock: AJUNOK_clean_linker_0, # of connection points: 2
#     Edge 23, Type (0, 1), BuildingBlock: AJUNOK_clean_linker_0, # of connection points: 2
#     Edge 24, Type (0, 1), BuildingBlock: AJUNOK_clean_linker_0, # of connection points: 2
#     Edge 25, Type (0, 1), BuildingBlock: AJUNOK_clean_linker_0, # of connection points: 2
#     Edge 26, Type (0, 1), BuildingBlock: AJUNOK_clean_linker_0, # of connection points: 2
#     Edge 27, Type (0, 1), BuildingBlock: AJUNOK_clean_linker_0, # of connection points: 2
#     Edge 28, Type (0, 1), BuildingBlock: AJUNOK_clean_linker_0, # of connection points: 2
#     Edge 29, Type (0, 1), BuildingBlock: AJUNOK_clean_linker_0, # of connection points: 2
#     Edge 30, Type (0, 1), BuildingBlock: AJUNOK_clean_linker_0, # of connection points: 2
#     Edge 31, Type (0, 1), BuildingBlock: AJUNOK_clean_linker_0, # of connection points: 2
#     Edge 32, Type (0, 1), BuildingBlock: AJUNOK_clean_linker_0, # of connection points: 2
#     Edge 33, Type (0, 1), BuildingBlock: AJUNOK_clean_linker_0, # of connection points: 2
#     Edge 34, Type (0, 1), BuildingBlock: AJUNOK_clean_linker_0, # of connection points: 2
#     Edge 35, Type (0, 1), BuildingBlock: AJUNOK_clean_linker_0, # of connection points: 2
#     Edge 36, Type (0, 1), BuildingBlock: AJUNOK_clean_linker_0, # of connection points: 2
#     Edge 37, Type (0, 1), BuildingBlock: AJUNOK_clean_linker_0, # of connection points: 2
#     Edge 38, Type (0, 1), BuildingBlock: AJUNOK_clean_linker_0, # of connection points: 2
#     Edge 39, Type (0, 1), BuildingBlock: AJUNOK_clean_linker_0, # of connection points: 2
#     Edge 40, Type (0, 1), BuildingBlock: AJUNOK_clean_linker_0, # of connection points: 2
#     Edge 41, Type (0, 1), BuildingBlock: AJUNOK_clean_linker_0, # of connection points: 2
#     Edge 42, Type (0, 1), BuildingBlock: AJUNOK_clean_linker_0, # of connection points: 2
#     Edge 43, Type (0, 1), BuildingBlock: AJUNOK_clean_linker_0, # of connection points: 2
#     Edge 44, Type (0, 1), BuildingBlock: AJUNOK_clean_linker_0, # of connection points: 2
#     Edge 45, Type (0, 1), BuildingBlock: AJUNOK_clean_linker_0, # of connection points: 2
#     Edge 46, Type (0, 1), BuildingBlock: AJUNOK_clean_linker_0, # of connection points: 2
#     Edge 47, Type (0, 1), BuildingBlock: AJUNOK_clean_linker_0, # of connection points: 2
# Relax obj value: 0.007
# Max RMSD: 0.117
# Mean RMSD: 0.060
data_MOF--net-ssb--node1-ESEHIV_clean_sbu_0--node2-KOZSID_clean_sbu_0--edge1-AJUNOK_clean_linker_0
_symmetry_space_group_name_H-M    P1
_symmetry_Int_Tables_number       1
_symmetry_cell_setting            triclinic
loop_
_symmetry_equiv_pos_as_xyz
'x, y, z'
_cell_length_a     42.363748
_cell_length_b     42.226021
_cell_length_c     30.987419
_cell_angle_alpha  93.049294
_cell_angle_beta   95.892999
_cell_angle_gamma 90.126268
loop_
_atom_site_label
_atom_site_type_symbol
_atom_site_fract_x
_atom_site_fract_y
_atom_site_fract_z
_atom_type_partial_charge
Cu0 Cu 0.30255 0.27932 0.31063 0.0
N1 N 0.29502 0.23452 0.31638 0.0
N2 N 0.29111 0.18692 0.34749 0.0
C3 C 0.29407 0.21912 0.354 0.0
C4 C 0.29074 0.18221 0.30383 0.0
C5 C 0.2929 0.21109 0.2851 0.0
O6 O 0.2874 0.29951 0.36326 0.0
C7 C 0.35252 0.27817 0.26006 0.0
O8 O 0.32969 0.26371 0.2345 0.0
H9 H 0.29585 0.2314 0.38573 0.0
H10 H 0.29384 0.21455 0.25093 0.0
N11 N 0.28021 0.30126 0.26398 0.0
N12 N 0.26841 0.34186 0.22021 0.0
C13 C 0.28973 0.3296 0.25043 0.0
C14 C 0.25184 0.29544 0.24096 0.0
C15 C 0.24447 0.32042 0.21438 0.0
C16 C 0.25756 0.29536 0.36438 0.0
O17 O 0.24152 0.27883 0.33233 0.0
H18 H 0.31151 0.34156 0.2636 0.0
H19 H 0.23707 0.27493 0.24406 0.0
O20 O 0.34733 0.28598 0.29927 0.0
H21 H 0.29038 0.15944 0.28618 0.0
H22 H 0.22297 0.3228 0.19273 0.0
Cu23 Cu 0.81614 0.31266 0.3037 0.0
N24 N 0.77193 0.3179 0.30452 0.0
N25 N 0.72041 0.31696 0.27759 0.0
C26 C 0.75098 0.31569 0.26846 0.0
C27 C 0.72239 0.32106 0.32141 0.0
C28 C 0.75407 0.32143 0.33786 0.0
O29 O 0.82601 0.33573 0.25385 0.0
C30 C 0.80414 0.24561 0.29204 0.0
O31 O 0.77633 0.25235 0.27212 0.0
H32 H 0.75813 0.31149 0.23613 0.0
H33 H 0.76332 0.32343 0.37175 0.0
N34 N 0.84198 0.32724 0.35459 0.0
N35 N 0.88468 0.3308 0.40472 0.0
C36 C 0.87183 0.31713 0.36625 0.0
C37 C 0.83552 0.34788 0.38702 0.0
C38 C 0.86165 0.35012 0.41779 0.0
C39 C 0.82943 0.36577 0.2588 0.0
O40 O 0.83087 0.37927 0.29811 0.0
H41 H 0.88347 0.29933 0.34721 0.0
H42 H 0.81338 0.36044 0.38826 0.0
O43 O 0.82494 0.26748 0.30035 0.0
H44 H 0.70251 0.3237 0.34055 0.0
H45 H 0.86358 0.3651 0.44738 0.0
Cu46 Cu 0.7833 0.80056 0.251 0.0
N47 N 0.80045 0.77686 0.20373 0.0
N48 N 0.80985 0.73433 0.15834 0.0
C49 C 0.79293 0.74615 0.19068 0.0
C50 C 0.82901 0.75889 0.15135 0.0
C51 C 0.82306 0.78476 0.17873 0.0
O52 O 0.73692 0.79543 0.23533 0.0
C53 C 0.83529 0.78716 0.30421 0.0
O54 O 0.84604 0.80156 0.2721 0.0
H55 H 0.77536 0.73264 0.20505 0.0
H56 H 0.83521 0.80744 0.18112 0.0
N57 N 0.79169 0.84548 0.26224 0.0
N58 N 0.79556 0.89396 0.29873 0.0
C59 C 0.78801 0.86262 0.30007 0.0
C60 C 0.80239 0.8668 0.23634 0.0
C61 C 0.80481 0.89629 0.25847 0.0
C62 C 0.72809 0.80631 0.19815 0.0
O63 O 0.74964 0.82069 0.17844 0.0
H64 H 0.7796 0.85228 0.32804 0.0
H65 H 0.80825 0.86131 0.20363 0.0
O66 O 0.80527 0.78279 0.30328 0.0
H67 H 0.84722 0.75823 0.12936 0.0
H68 H 0.81347 0.91772 0.24589 0.0
Cu69 Cu 0.27414 0.78137 0.26518 0.0
N70 N 0.29174 0.79469 0.21538 0.0
N71 N 0.32855 0.79936 0.16839 0.0
C72 C 0.32084 0.7861 0.20479 0.0
C73 C 0.30318 0.8174 0.15597 0.0
C74 C 0.28058 0.81432 0.18471 0.0
O75 O 0.28686 0.73718 0.26752 0.0
C76 C 0.27899 0.83853 0.3084 0.0
O77 O 0.26185 0.84394 0.27179 0.0
H78 H 0.33604 0.7702 0.22361 0.0
H79 H 0.25793 0.82618 0.18378 0.0
N80 N 0.22943 0.78244 0.26425 0.0
N81 N 0.18184 0.77944 0.29002 0.0
C82 C 0.21369 0.77782 0.29923 0.0
C83 C 0.20672 0.78753 0.23174 0.0
C84 C 0.1774 0.78568 0.24752 0.0
C85 C 0.27332 0.72088 0.235 0.0
O86 O 0.25218 0.73471 0.20841 0.0
H87 H 0.22547 0.7731 0.3309 0.0
H88 H 0.21111 0.79227 0.19893 0.0
O89 O 0.28935 0.81051 0.3137 0.0
H90 H 0.30132 0.83273 0.12901 0.0
H91 H 0.15464 0.78935 0.22926 0.0
Cu92 Cu 0.27806 0.78728 0.76087 0.0
N93 N 0.32129 0.7769 0.76096 0.0
N94 N 0.37191 0.77293 0.79045 0.0
C95 C 0.34107 0.77577 0.79789 0.0
C96 C 0.3713 0.77224 0.74665 0.0
C97 C 0.34017 0.77457 0.72863 0.0
O98 O 0.26754 0.76785 0.81601 0.0
C99 C 0.27979 0.84018 0.70905 0.0
O100 O 0.28482 0.81611 0.68211 0.0
H101 H 0.3329 0.77811 0.82982 0.0
H102 H 0.33219 0.77606 0.69454 0.0
N103 N 0.25059 0.76785 0.71494 0.0
N104 N 0.2067 0.76033 0.66794 0.0
C105 C 0.22019 0.77653 0.70409 0.0
C106 C 0.25652 0.74517 0.68475 0.0
C107 C 0.22953 0.74037 0.65595 0.0
C108 C 0.26759 0.73722 0.81501 0.0
O109 O 0.2718 0.72193 0.77807 0.0
H110 H 0.20848 0.79508 0.72176 0.0
H111 H 0.27897 0.73317 0.68352 0.0
O112 O 0.27587 0.83401 0.74858 0.0
H113 H 0.39183 0.77203 0.7286 0.0
H114 H 0.22692 0.72319 0.62861 0.0
Cu115 Cu 0.29674 0.29078 0.8472 0.0
N116 N 0.27851 0.31111 0.89292 0.0
N117 N 0.26272 0.35343 0.93106 0.0
C118 C 0.27487 0.34268 0.89464 0.0
C119 C 0.25899 0.32747 0.95374 0.0
C120 C 0.26861 0.30119 0.92987 0.0
O121 O 0.3425 0.30073 0.86127 0.0
C122 C 0.27041 0.30182 0.75569 0.0
O123 O 0.29442 0.28702 0.74025 0.0
H124 H 0.28249 0.35761 0.87027 0.0
H125 H 0.26906 0.27687 0.93923 0.0
N126 N 0.29036 0.2469 0.84487 0.0
N127 N 0.28695 0.19822 0.81281 0.0
C128 C 0.28318 0.22945 0.80762 0.0
C129 C 0.29809 0.2258 0.87528 0.0
C130 C 0.29588 0.19557 0.85548 0.0
C131 C 0.36489 0.28048 0.86032 0.0
O132 O 0.35897 0.2527 0.83999 0.0
H133 H 0.27708 0.23941 0.77659 0.0
H134 H 0.30705 0.23204 0.9086 0.0
O135 O 0.2708 0.30733 0.79666 0.0
H136 H 0.25038 0.32755 0.98546 0.0
H137 H 0.30269 0.1737 0.87049 0.0
Cu138 Cu 0.79753 0.28745 0.78533 0.0
N139 N 0.84159 0.28033 0.79222 0.0
N140 N 0.89118 0.2828 0.77274 0.0
C141 C 0.863 0.29772 0.77405 0.0
C142 C 0.88753 0.25539 0.79235 0.0
C143 C 0.85697 0.25383 0.80398 0.0
O144 O 0.78279 0.2603 0.73045 0.0
C145 C 0.80554 0.34439 0.83525 0.0
O146 O 0.82002 0.32294 0.85919 0.0
H147 H 0.85712 0.31995 0.75949 0.0
H148 H 0.84605 0.23365 0.81676 0.0
N149 N 0.77557 0.27036 0.82924 0.0
N150 N 0.739 0.26524 0.87656 0.0
C151 C 0.75256 0.28483 0.85032 0.0
C152 C 0.77617 0.24042 0.84201 0.0
C153 C 0.75382 0.23721 0.87102 0.0
C154 C 0.79998 0.25258 0.69948 0.0
O155 O 0.82594 0.26904 0.69679 0.0
H156 H 0.74546 0.30913 0.84582 0.0
H157 H 0.79081 0.2218 0.82964 0.0
O158 O 0.79306 0.33485 0.79695 0.0
H159 H 0.90489 0.23663 0.79502 0.0
H160 H 0.74796 0.21534 0.88514 0.0
Cu161 Cu 0.78349 0.80237 0.77463 0.0
N162 N 0.8094 0.7829 0.81746 0.0
N163 N 0.82424 0.74394 0.86084 0.0
C164 C 0.79971 0.75942 0.8407 0.0
C165 C 0.85058 0.75841 0.8502 0.0
C166 C 0.84132 0.78268 0.82357 0.0
O167 O 0.73965 0.79924 0.78995 0.0
C168 C 0.8143 0.76372 0.71183 0.0
O169 O 0.81632 0.74137 0.73984 0.0
H170 H 0.77531 0.75171 0.83948 0.0
H171 H 0.85667 0.79718 0.80679 0.0
N172 N 0.79161 0.84576 0.77611 0.0
N173 N 0.79165 0.89416 0.75015 0.0
C174 C 0.78951 0.86266 0.74037 0.0
C175 C 0.79565 0.86717 0.80996 0.0
C176 C 0.79597 0.89714 0.79398 0.0
C177 C 0.72189 0.77525 0.79339 0.0
O178 O 0.72957 0.74738 0.77683 0.0
H179 H 0.78602 0.85186 0.70779 0.0
H180 H 0.79699 0.86148 0.84372 0.0
O181 O 0.79627 0.78743 0.71782 0.0
H182 H 0.87466 0.75068 0.85868 0.0
H183 H 0.79793 0.9194 0.8131 0.0
C184 C 0.13086 0.34122 0.64338 0.0
C185 C 0.14208 0.36997 0.66295 0.0
C186 C 0.12231 0.39284 0.64653 0.0
C187 C 0.10024 0.37695 0.61787 0.0
N188 N 0.1044 0.3452 0.61539 0.0
Co189 Co 0.07842 0.31363 0.57578 0.0
N190 N 0.05269 0.34788 0.54654 0.0
C191 C 0.05706 0.37949 0.55404 0.0
C192 C 0.03553 0.39734 0.52998 0.0
C193 C 0.01586 0.37587 0.50608 0.0
C194 C 0.02646 0.34602 0.51719 0.0
N195 N 0.05153 0.28205 0.53717 0.0
C196 C 0.02478 0.28627 0.50968 0.0
C197 C 1.01196 0.25754 0.49233 0.0
C198 C 0.03084 0.23436 0.50988 0.0
C199 C 0.05401 0.25013 0.53699 0.0
N200 N 0.105 0.27945 0.60376 0.0
C201 C 0.10187 0.24787 0.59444 0.0
C202 C 0.1247 0.23023 0.61649 0.0
C203 C 0.14408 0.25185 0.6406 0.0
C204 C 0.13197 0.2816 0.63177 0.0
N205 N 0.04709 0.31115 0.61967 0.0
C206 C 0.9981 0.3061 0.67476 0.0
C207 C 0.01558 0.27965 0.66289 0.0
C208 C 0.03959 0.28262 0.63547 0.0
C209 C 1.0064 0.33542 0.66004 0.0
C210 C 0.03103 0.33746 0.63321 0.0
N211 N 0.10998 0.31582 0.53229 0.0
C212 C 0.14564 0.28839 0.48685 0.0
C213 C 0.16228 0.3164 0.48219 0.0
C214 C 0.15129 0.34445 0.50135 0.0
C215 C 0.12525 0.34366 0.52596 0.0
C216 C 0.11961 0.28869 0.51126 0.0
H217 H 0.11835 0.36574 0.54041 0.0
H218 H 0.10807 0.2665 0.5134 0.0
H219 H 0.05125 0.26128 0.62692 0.0
H220 H 0.03631 0.36054 0.62332 0.0
C221 C 0.07864 0.39144 0.58813 0.0
C222 C 0.14742 0.31115 0.65001 0.0
C223 C 1.00977 0.3168 0.50065 0.0
C224 C 0.07772 0.23569 0.56382 0.0
H225 H 0.16314 0.37423 0.68538 0.0
H226 H 0.12486 0.41823 0.65284 0.0
H227 H 0.03341 0.4229 0.53125 0.0
H228 H 0.99538 0.38151 0.48408 0.0
H229 H 0.9907 0.25373 0.47011 0.0
H230 H 0.02756 0.20898 0.50444 0.0
H231 H 0.12737 0.20472 0.61449 0.0
H232 H 0.16512 0.24639 0.66167 0.0
H233 H 1.01006 0.25645 0.67359 0.0
H234 H 0.99389 0.3567 0.6691 0.0
H235 H 0.15267 0.26619 0.47159 0.0
H236 H 0.1632 0.36683 0.49832 0.0
C237 C 0.76279 0.1194 0.56371 0.0
C238 C 0.73318 0.13195 0.56953 0.0
C239 C 0.71128 0.11296 0.54517 0.0
C240 C 0.72853 0.09002 0.5255 0.0
N241 N 0.76025 0.09311 0.53563 0.0
Co242 Co 0.79341 0.06462 0.51193 0.0
N243 N 0.76098 0.03778 0.47408 0.0
C244 C 0.72924 0.04204 0.47096 0.0
C245 C 0.71253 0.02058 0.44262 0.0
C246 C 0.7349 1.00147 0.42629 0.0
C247 C 0.7642 1.01242 0.44547 0.0
N248 N 0.82648 0.03568 0.48888 0.0
C249 C 0.82385 1.01014 0.4595 0.0
C250 C 0.85336 0.99745 0.45353 0.0
C251 C 0.87527 0.01526 0.47984 0.0
C252 C 0.85811 0.03787 0.50041 0.0
N253 N 0.82584 0.09199 0.54898 0.0
C254 C 0.85762 0.08795 0.55163 0.0
C255 C 0.87433 0.11001 0.57902 0.0
C256 C 0.85197 0.12954 0.59464 0.0
C257 C 0.82263 0.11848 0.57572 0.0
N258 N 0.79054 0.0362 0.5607 0.0
C259 C 0.78737 0.99269 0.6264 0.0
C260 C 0.81643 1.00456 0.61672 0.0
C261 C 0.81744 0.0262 0.58437 0.0
C262 C 0.75976 1.00401 0.60377 0.0
C263 C 0.76187 0.02544 0.57116 0.0
N264 N 0.7966 0.09294 0.46331 0.0
C265 C 0.82881 0.12097 0.41744 0.0
C266 C 0.80239 0.13706 0.39929 0.0
C267 C 0.77269 0.12932 0.41192 0.0
C268 C 0.77031 0.10715 0.44346 0.0
C269 C 0.82546 0.09949 0.44936 0.0
H270 H 0.74708 0.10232 0.45179 0.0
H271 H 0.84676 0.08887 0.46261 0.0
H272 H 0.8404 0.03411 0.57887 0.0
H273 H 0.74003 0.03276 0.55471 0.0
C274 C 0.71584 0.0663 0.49543 0.0
C275 C 0.79253 0.1339 0.58488 0.0
C276 C 0.79424 0.99752 0.43546 0.0
C277 C 0.87099 0.06263 0.52884 0.0
H278 H 0.72786 0.15296 0.58889 0.0
H279 H 0.68578 0.11592 0.54153 0.0
H280 H 0.68706 0.01898 0.43479 0.0
H281 H 0.73015 0.98164 0.4029 0.0
H282 H 0.85858 0.97761 0.43193 0.0
H283 H 0.90077 1.01241 0.48298 0.0
H284 H 0.89979 0.11159 0.58696 0.0
H285 H 0.85679 0.14959 0.61762 0.0
H286 H 0.83851 0.99664 0.63336 0.0
H287 H 0.73655 0.99637 0.61101 0.0
H288 H 0.85218 0.12525 0.4076 0.0
H289 H 0.75143 0.14098 0.39851 0.0
C290 C 0.06021 0.79922 0.5799 0.0
C291 C 0.07143 0.82818 0.59854 0.0
C292 C 0.05151 0.85076 0.58142 0.0
C293 C 0.02928 0.8344 0.55339 0.0
N294 N 0.03352 0.80267 0.55218 0.0
Co295 Co 1.00756 0.77023 0.51414 0.0
N296 N 0.98302 0.80368 0.48168 0.0
C297 C 0.98779 0.83538 0.4872 0.0
C298 C 0.96709 0.85255 0.46086 0.0
C299 C 0.94771 0.83054 0.43748 0.0
C300 C 0.95756 0.80105 0.45122 0.0
N301 N 0.98078 0.73765 0.47753 0.0
C302 C 0.95481 0.74118 0.44862 0.0
C303 C 0.94147 0.71209 0.43358 0.0
C304 C 0.95934 0.68942 0.45402 0.0
C305 C 0.98238 0.70586 0.48045 0.0
N306 N 0.03333 0.73682 0.54507 0.0
C307 C 0.02963 0.70508 0.53857 0.0
C308 C 0.05242 0.688 0.56163 0.0
C309 C 0.07247 0.71017 0.58333 0.0
C310 C 0.06064 0.73957 0.57219 0.0
N311 N 0.97521 0.77032 0.55729 0.0
C312 C 0.9231 0.76923 0.60872 0.0
C313 C 0.94195 0.74237 0.60261 0.0
C314 C 0.96746 0.74336 0.5769 0.0
C315 C 0.93153 0.7967 0.58915 0.0
C316 C 0.95778 0.79699 0.56515 0.0
N317 N 0.0394 0.77032 0.47076 0.0
C318 C 0.07038 0.74271 0.41892 0.0
C319 C 0.08598 0.77082 0.41117 0.0
C320 C 0.0778 0.79856 0.43388 0.0
C321 C 0.05458 0.79785 0.46291 0.0
C322 C 0.04742 0.74296 0.44868 0.0
H323 H 0.04941 0.81996 0.47877 0.0
H324 H 0.03659 0.72072 0.45363 0.0
H325 H 0.98028 0.72184 0.57298 0.0
H326 H 0.96291 0.81914 0.55252 0.0
C327 C 1.0085 0.84822 0.52186 0.0
C328 C 0.07692 0.76935 0.58684 0.0
C329 C 0.94103 0.77145 0.43594 0.0
C330 C 1.00545 0.69217 0.50887 0.0
H331 H 0.09261 0.83263 0.6207 0.0
H332 H 0.05423 0.87622 0.58651 0.0
H333 H 0.96526 0.8781 0.46028 0.0
H334 H 0.92785 0.83567 0.41411 0.0
H335 H 0.92051 0.70772 0.41096 0.0
H336 H 0.95554 0.66401 0.45078 0.0
H337 H 0.05478 0.66248 0.56152 0.0
H338 H 0.09383 0.7053 0.60413 0.0
H339 H 0.93704 0.72049 0.61743 0.0
H340 H 0.91759 0.81805 0.59122 0.0
H341 H 0.07619 0.72048 0.40263 0.0
H342 H 0.08902 0.82096 0.42886 0.0
C343 C 0.31389 0.97675 0.61565 0.0
C344 C 0.34279 0.96593 0.63419 0.0
C345 C 0.36586 0.98341 0.6185 0.0
C346 C 0.34992 1.0039 0.59125 0.0
N347 N 0.31801 1.00065 0.58856 0.0
Co348 Co 0.28638 0.0261 0.55181 0.0
N349 N 0.3204 0.0508 0.52672 0.0
C350 C 0.35202 0.04656 0.53521 0.0
C351 C 0.36992 0.06581 0.51289 0.0
C352 C 0.34854 0.08347 0.48856 0.0
C353 C 0.31857 0.07424 0.4976 0.0
N354 N 0.25473 0.05212 0.5159 0.0
C355 C 0.25872 0.07629 0.48912 0.0
C356 C 0.22973 0.08891 0.47377 0.0
C357 C 0.20678 0.07198 0.49038 0.0
C358 C 0.22282 0.05024 0.51541 0.0
N359 N 0.25229 1.00099 0.57588 0.0
C360 C 0.22067 1.00431 0.56612 0.0
C361 C 0.20274 0.98374 0.58637 0.0
C362 C 0.22414 0.96592 0.61032 0.0
C363 C 0.25409 0.9766 0.60329 0.0
N364 N 0.28614 0.05837 0.60092 0.0
C365 C 0.28658 0.10299 0.67196 0.0
C366 C 0.25809 0.09012 0.6519 0.0
C367 C 0.25839 0.0681 0.61655 0.0
C368 C 0.3148 0.09295 0.65631 0.0
C369 C 0.31404 0.07095 0.62103 0.0
N370 N 0.28677 0.99341 0.50329 0.0
C371 C 0.25854 0.95818 0.44833 0.0
C372 C 0.28657 0.94242 0.44075 0.0
C373 C 0.31483 0.95331 0.46379 0.0
C374 C 0.31443 0.97877 0.49442 0.0
C375 C 0.25916 0.98342 0.47951 0.0
H376 H 0.3368 0.98594 0.51069 0.0
H377 H 0.23697 0.99423 0.48419 0.0
H378 H 0.23588 0.0594 0.60243 0.0
H379 H 0.3364 0.0645 0.61075 0.0
C380 C 0.36415 0.02502 0.56553 0.0
C381 C 0.28333 0.96271 0.62375 0.0
C382 C 0.28921 0.08835 0.4772 0.0
C383 C 0.20859 0.02754 0.53856 0.0
H384 H 0.34682 0.94701 0.65629 0.0
H385 H 0.39128 0.98098 0.62542 0.0
H386 H 0.39553 0.06698 0.51427 0.0
H387 H 0.35443 0.10115 0.46662 0.0
H388 H 0.22554 0.10846 0.45277 0.0
H389 H 0.18137 0.07524 0.485 0.0
H390 H 0.17712 0.98198 0.58411 0.0
H391 H 0.21836 0.9472 0.63079 0.0
H392 H 0.23563 0.09741 0.66293 0.0
H393 H 0.3375 0.10198 0.67132 0.0
H394 H 0.23609 0.95075 0.43073 0.0
H395 H 0.33725 0.94243 0.45795 0.0
C396 C 0.58729 0.82118 0.08034 0.0
C397 C 0.59657 0.85156 0.09589 0.0
C398 C 0.5787 0.87207 0.0712 0.0
C399 C 0.55943 0.85319 0.04222 0.0
N400 N 0.56361 0.82179 0.04716 0.0
Co401 Co 0.54039 0.78624 1.01144 0.0
N402 N 0.51667 0.8164 0.972 0.0
C403 C 0.51975 0.84836 0.97412 0.0
C404 C 0.50086 0.86288 0.94258 0.0
C405 C 0.48448 0.8388 0.91903 0.0
C406 C 0.49415 0.81084 0.93787 0.0
N407 N 0.51686 0.75066 0.97627 0.0
C408 C 0.49339 0.75123 0.94285 0.0
C409 C 0.48194 0.72093 0.9303 0.0
C410 C 0.49887 0.70055 0.95624 0.0
C411 C 0.51941 0.71942 0.9834 0.0
N412 N 0.56475 0.75614 0.05053 0.0
C413 C 0.56222 0.72416 0.04786 0.0
C414 C 0.5832 0.70947 0.0768 0.0
C415 C 0.60055 0.73344 0.09907 0.0
C416 C 0.58897 0.76156 0.08261 0.0
N417 N 0.50525 0.78867 0.05031 0.0
C418 C 0.44907 0.79065 0.09296 0.0
C419 C 0.46637 0.76266 0.08935 0.0
C420 C 0.49414 0.76216 0.06795 0.0
C421 C 0.46131 0.81794 0.07718 0.0
C422 C 0.48939 0.81656 0.05689 0.0
N423 N 0.5749 0.78386 0.97182 0.0
C424 C 0.61039 0.7535 0.92885 0.0
C425 C 0.62262 0.78114 0.91347 0.0
C426 C 0.61014 0.81007 0.92772 0.0
C427 C 0.58697 0.8109 0.95692 0.0
C428 C 0.58675 0.75536 0.95765 0.0
H429 H 0.57907 0.8338 0.96679 0.0
H430 H 0.57839 0.73344 0.96805 0.0
H431 H 0.50576 0.73988 0.06519 0.0
H432 H 0.49734 0.83834 0.0459 0.0
C433 C 0.53934 0.86412 1.00762 0.0
C434 C 0.60261 0.79266 0.09733 0.0
C435 C 0.48061 0.77978 0.92275 0.0
C436 C 0.5408 0.70858 0.01654 0.0
H437 H 0.61486 0.85816 0.12183 0.0
H438 H 0.58029 0.8977 0.07324 0.0
H439 H 0.49883 0.88802 0.93775 0.0
H440 H 0.46706 0.84158 0.89145 0.0
H441 H 0.46298 0.71419 0.9054 0.0
H442 H 0.49613 0.67504 0.95587 0.0
H443 H 0.58608 0.68426 0.08049 0.0
H444 H 0.61997 0.73043 0.12399 0.0
H445 H 0.45794 0.74099 0.10163 0.0
H446 H 0.44902 0.84031 0.08009 0.0
H447 H 0.61922 0.73044 0.91908 0.0
H448 H 0.61789 0.83222 0.91607 0.0
C449 C 0.25283 0.59628 0.11995 0.0
C450 C 0.226 0.61168 0.13271 0.0
C451 C 0.20155 0.60425 0.1014 0.0
C452 C 0.21453 0.58482 0.07123 0.0
N453 N 0.24557 0.57904 0.08198 0.0
Co454 Co 0.27331 0.55418 0.04523 0.0
N455 N 0.23638 0.5349 1.00883 0.0
C456 C 0.20651 0.54574 1.00511 0.0
C457 C 0.18588 0.52542 0.97997 0.0
C458 C 0.20402 0.50024 0.96755 0.0
C459 C 0.23476 0.50683 0.98568 0.0
N460 N 0.30064 0.52916 1.0085 0.0
C461 C 0.29354 0.50174 0.98512 0.0
C462 C 0.31953 0.49029 0.96562 0.0
C463 C 0.34394 0.51142 0.97799 0.0
C464 C 0.33139 0.53446 1.00418 0.0
N465 N 0.31064 0.57335 0.08118 0.0
C466 C 0.34078 0.57296 0.07071 0.0
C467 C 0.36185 0.58734 0.10236 0.0
C468 C 0.34382 0.598 0.1343 0.0
C469 C 0.31253 0.5899 0.12005 0.0
N470 N 0.27309 0.51817 0.08446 0.0
C471 C 0.27176 0.46233 0.1327 0.0
C472 C 0.30047 0.47562 0.12249 0.0
C473 C 0.30062 0.50312 0.09842 0.0
C474 C 0.2438 0.47833 0.11819 0.0
C475 C 0.24501 0.50617 0.09514 0.0
N476 N 0.27323 0.59001 1.00535 0.0
C477 C 0.27418 0.64663 0.9937 0.0
C478 C 0.2707 0.64134 0.94821 0.0
C479 C 0.26867 0.60934 0.93242 0.0
C480 C 0.2699 0.58434 0.96114 0.0
C481 C 0.27554 0.62096 0.0213 0.0
H482 H 0.26789 0.56028 0.94741 0.0
H483 H 0.27796 0.62635 0.05574 0.0
H484 H 0.32313 0.5118 0.0904 0.0
H485 H 0.22291 0.51742 0.08476 0.0
C486 C 0.19781 0.56966 0.03443 0.0
C487 C 0.28526 0.60277 0.14088 0.0
C488 C 0.26228 0.48656 0.98104 0.0
C489 C 0.34893 0.55566 0.03362 0.0
H490 H 0.22431 0.62773 0.16072 0.0
H491 H 0.17723 0.61215 0.10074 0.0
H492 H 0.16033 0.52737 0.97426 0.0
H493 H 0.19541 0.47918 0.94855 0.0
H494 H 0.32083 0.46864 0.94559 0.0
H495 H 0.36843 0.50892 0.97138 0.0
H496 H 0.38733 0.58947 0.10249 0.0
H497 H 0.3525 0.61145 0.16387 0.0
H498 H 0.32293 0.4648 0.13282 0.0
H499 H 0.22074 0.46907 0.12328 0.0
H500 H 0.27506 0.67051 1.00829 0.0
H501 H 0.26625 0.60343 0.89781 0.0
C502 C 0.49557 0.32097 0.99704 0.0
C503 C 0.48619 0.34901 0.9782 0.0
C504 C 0.50397 0.37273 1.00033 0.0
C505 C 0.52345 0.35792 0.03093 0.0
N506 N 0.51937 0.32612 0.02971 0.0
Co507 Co 0.54464 0.29578 0.06724 0.0
N508 N 0.56933 0.3311 0.10132 0.0
C509 C 0.56455 0.36247 0.09726 0.0
C510 C 0.58402 0.38137 0.1259 0.0
C511 C 0.60251 0.36086 0.1497 0.0
C512 C 0.59345 0.33047 0.13381 0.0
N513 N 0.5711 0.2654 0.10321 0.0
C514 C 0.59644 0.27069 0.13357 0.0
C515 C 0.60954 0.24239 0.14738 0.0
C516 C 0.59177 0.2185 0.12547 0.0
C517 C 0.56912 0.23341 0.09918 0.0
N518 N 0.51871 0.26065 0.0344 0.0
C519 C 0.52081 0.22948 0.04216 0.0
C520 C 0.49826 0.21101 0.01779 0.0
C521 C 0.48042 0.2316 0.9932 0.0
C522 C 0.49337 0.26162 1.00351 0.0
N523 N 0.57708 0.29295 0.02442 0.0
C524 C 0.62922 0.28687 0.97379 0.0
C525 C 0.61153 0.26045 0.98265 0.0
C526 C 0.58572 0.26399 1.00732 0.0
C527 C 0.61911 0.31672 0.98859 0.0
C528 C 0.59323 0.31922 1.01375 0.0
N529 N 0.51244 0.29809 0.1106 0.0
C530 C 0.48289 0.27246 0.16255 0.0
C531 C 0.46397 0.29912 0.1678 0.0
C532 C 0.47061 0.32579 0.1451 0.0
C533 C 0.49488 0.32489 0.11723 0.0
C534 C 0.50656 0.27237 0.13404 0.0
H535 H 0.49871 0.34603 0.10092 0.0
H536 H 0.51932 0.25082 0.13103 0.0
H537 H 0.57353 0.24274 1.01291 0.0
H538 H 0.58711 0.34255 0.02508 0.0
C539 C 0.54379 0.37338 0.06358 0.0
C540 C 0.48045 0.29029 0.98346 0.0
C541 C 0.60904 0.30191 0.15007 0.0
C542 C 0.5449 0.21823 0.07155 0.0
H543 H 0.46801 0.35213 0.95162 0.0
H544 H 0.5024 0.39788 0.99533 0.0
H545 H 0.58518 0.40702 0.12844 0.0
H546 H 0.62091 0.36759 0.17541 0.0
H547 H 0.6299 0.23928 0.17081 0.0
H548 H 0.595 0.19325 0.12834 0.0
H549 H 0.49508 0.18558 0.01801 0.0
H550 H 0.46002 0.22517 0.97048 0.0
H551 H 0.61782 0.23692 0.9709 0.0
H552 H 0.63179 0.33796 0.98207 0.0
H553 H 0.47866 0.25115 0.17916 0.0
H554 H 0.4569 0.34724 0.14848 0.0
C555 C 0.77621 0.58674 0.0645 0.0
C556 C 0.74705 0.59706 0.07616 0.0
C557 C 0.72518 0.57426 0.06021 0.0
C558 C 0.74203 0.55136 0.03953 0.0
N559 N 0.77316 0.5582 0.04149 0.0
Co560 Co 0.80534 0.53191 1.01332 0.0
N561 N 0.77238 0.50699 0.97454 0.0
C562 C 0.74121 0.50656 0.97991 0.0
C563 C 0.72379 0.48625 0.95064 0.0
C564 C 0.7453 0.4724 0.92562 0.0
C565 C 0.77487 0.48506 0.94096 0.0
N566 N 0.83776 0.50578 0.98538 0.0
C567 C 0.83494 0.48421 0.95065 0.0
C568 C 0.86421 0.47108 0.94416 0.0
C569 C 0.88568 0.48376 0.97659 0.0
C570 C 0.86859 0.50416 1.00096 0.0
N571 N 0.83792 0.55699 0.05215 0.0
C572 C 0.86845 0.54876 0.06093 0.0
C573 C 0.88572 0.57093 0.08771 0.0
C574 C 0.86475 0.59464 0.09627 0.0
C575 C 0.83576 0.5857 0.07407 0.0
N576 N 0.80417 0.50033 0.0576 0.0
C577 C 0.80991 0.45506 0.12132 0.0
C578 C 0.80759 0.48754 0.13286 0.0
C579 C 0.80479 0.50972 0.10062 0.0
C580 C 0.80842 0.44585 0.07711 0.0
C581 C 0.8051 0.46865 0.04601 0.0
N582 N 0.80714 0.56357 0.96995 0.0
C583 C 0.83849 0.60343 0.94138 0.0
C584 C 0.81102 0.61964 0.92667 0.0
C585 C 0.78149 0.60546 0.93037 0.0
C586 C 0.78007 0.57744 0.95225 0.0
C587 C 0.83601 0.57532 0.96234 0.0
H588 H 0.75709 0.56797 0.95684 0.0
H589 H 0.85764 0.56434 0.97496 0.0
H590 H 0.80386 0.53454 0.11059 0.0
H591 H 0.80428 0.46037 1.01261 0.0
C592 C 0.72892 0.52686 1.01113 0.0
C593 C 0.80636 0.60413 0.07672 0.0
C594 C 0.80479 0.47209 0.92683 0.0
C595 C 0.88102 0.52377 0.03668 0.0
H596 H 0.74194 0.61895 0.09375 0.0
H597 H 0.69975 0.57518 0.06147 0.0
H598 H 0.69847 0.48183 0.94798 0.0
H599 H 0.73991 0.45411 0.90012 0.0
H600 H 0.86929 0.45323 0.91951 0.0
H601 H 0.91076 0.47865 0.98179 0.0
H602 H 0.91091 0.57069 0.09803 0.0
H603 H 0.87016 0.61612 0.11633 0.0
H604 H 0.80828 0.49584 0.16662 0.0
H605 H 0.81084 0.42125 0.06635 0.0
H606 H 0.86185 0.61322 0.93892 0.0
H607 H 0.75962 0.61641 0.91775 0.0
C608 C 0.23884 0.28907 0.43707 0.0
C609 C 0.23992 0.30731 0.40059 0.0
C610 C 0.21455 0.29328 0.46462 0.0
C611 C 0.19043 0.31587 0.45669 0.0
H612 H 0.25553 0.26994 0.4426 0.0
H613 H 0.21388 0.27782 0.49132 0.0
S614 S 0.18356 0.37035 0.3662 0.0
N615 N 0.21561 0.34938 0.35875 0.0
N616 N 0.17029 0.35763 0.41056 0.0
C617 C 0.19233 0.33537 0.4216 0.0
C618 C 0.21692 0.3309 0.39348 0.0
C619 C 0.78542 0.19096 0.30512 0.0
C620 C 0.8079 0.21559 0.315 0.0
C621 C 0.78447 0.16509 0.33159 0.0
C622 C 0.8059 0.16284 0.36911 0.0
H623 H 0.76763 0.19218 0.27754 0.0
H624 H 0.76633 0.14706 0.32314 0.0
S625 S 0.87002 0.2205 0.4091 0.0
N626 N 0.85311 0.2352 0.36424 0.0
N627 N 0.85064 0.18725 0.41445 0.0
C628 C 0.82925 0.18668 0.37854 0.0
C629 C 0.83046 0.21283 0.35136 0.0
C630 C 0.88861 0.76653 0.32861 0.0
C631 C 0.859 0.77768 0.33977 0.0
C632 C 0.91457 0.76363 0.36004 0.0
C633 C 0.91209 0.77202 0.40396 0.0
H634 H 0.89211 0.76106 0.29487 0.0
H635 H 0.93708 0.75577 0.34974 0.0
S636 S 0.84001 0.80161 0.4509 0.0
N637 N 0.82864 0.7963 0.39834 0.0
N638 N 0.87762 0.79087 0.45762 0.0
C639 C 0.88247 0.7822 0.41601 0.0
C640 C 0.85583 0.78494 0.38389 0.0
C641 C 0.26985 0.89439 0.33409 0.0
C642 C 0.28329 0.86456 0.34281 0.0
C643 C 0.27123 0.91927 0.36585 0.0
C644 C 0.28633 0.91562 0.4077 0.0
H645 H 0.25769 0.89866 0.30249 0.0
H646 H 0.26039 0.94165 0.35749 0.0
S647 S 0.32563 0.84282 0.4478 0.0
N648 N 0.31255 0.83303 0.39675 0.0
N649 N 0.31523 0.88011 0.45658 0.0
C650 C 0.3004 0.88623 0.41695 0.0
C651 C 0.29885 0.86065 0.38452 0.0
C652 C 0.14919 0.77048 0.672 0.0
C653 C 0.17464 0.76368 0.64702 0.0
C654 C 0.11777 0.77289 0.65249 0.0
C655 C 0.11059 0.76888 0.60719 0.0
H656 H 0.15349 0.77324 0.70704 0.0
H657 H 0.09888 0.77745 0.67299 0.0
S658 S 0.16818 0.75341 0.52653 0.0
N659 N 0.19017 0.75495 0.57385 0.0
N660 N 0.13128 0.7592 0.5377 0.0
C661 C 0.13568 0.76277 0.58176 0.0
C662 C 0.16763 0.76024 0.60148 0.0
C663 C 0.27175 0.14511 0.77975 0.0
C664 C 0.28776 0.17414 0.77832 0.0
C665 C 0.27112 0.1222 0.74501 0.0
C666 C 0.28697 0.12745 0.70819 0.0
H667 H 0.25919 0.14043 0.80749 0.0
H668 H 0.25841 0.10013 0.74711 0.0
S669 S 0.33319 0.19929 0.68965 0.0
N670 N 0.32062 0.2065 0.73787 0.0
N671 N 0.31913 0.16381 0.67262 0.0
C672 C 0.30336 0.15627 0.70679 0.0
C673 C 0.30385 0.17952 0.74186 0.0
C674 C 0.94877 0.28172 0.76414 0.0
C675 C 0.9178 0.29116 0.7494 0.0
C676 C 0.97468 0.2872 0.74042 0.0
C677 C 0.9708 0.30263 0.70108 0.0
H678 H 0.95299 0.26969 0.79416 0.0
H679 H 0.99794 0.27911 0.75285 0.0
S680 S 0.89477 0.33051 0.64635 0.0
N681 N 0.88487 0.31558 0.6913 0.0
N682 N 0.93359 0.32642 0.64765 0.0
C683 C 0.94014 0.31249 0.68606 0.0
C684 C 0.91367 0.30666 0.70995 0.0
C685 C 0.80714 0.9471 0.72859 0.0
C686 C 0.78878 0.91926 0.72008 0.0
C687 C 0.80602 0.971 0.69864 0.0
C688 C 0.78636 0.96809 0.65905 0.0
H689 H 0.8231 0.95008 0.75813 0.0
H690 H 0.82088 0.99185 0.70646 0.0
S691 S 0.73202 0.90069 0.62241 0.0
N692 N 0.74868 0.89116 0.67043 0.0
N693 N 0.74758 0.9353 0.61351 0.0
C694 C 0.76729 0.94069 0.65065 0.0
C695 C 0.76831 0.91646 0.68123 0.0
C696 C 0.84874 0.73994 0.65691 0.0
C697 C 0.83998 0.76627 0.68267 0.0
C698 C 0.87523 0.74119 0.63288 0.0
C699 C 0.89477 0.76853 0.63459 0.0
H700 H 0.835 0.71817 0.65534 0.0
H701 H 0.88036 0.72048 0.61276 0.0
S702 S 0.88402 0.84256 0.70216 0.0
N703 N 0.85373 0.81984 0.71044 0.0
N704 N 0.90433 0.82172 0.66803 0.0
C705 C 0.88653 0.79475 0.66136 0.0
C706 C 0.85905 0.79372 0.68471 0.0
C707 C 0.27169 0.87481 0.64507 0.0
C708 C 0.27853 0.87279 0.6906 0.0
C709 C 0.27318 0.90364 0.62435 0.0
C710 C 0.28184 0.93228 0.64776 0.0
H711 H 0.2653 0.85363 0.62475 0.0
H712 H 0.26782 0.90344 0.58938 0.0
S713 S 0.30142 0.94139 0.76741 0.0
N714 N 0.29374 0.90305 0.75843 0.0
N715 N 0.29657 0.95717 0.71948 0.0
C716 C 0.28826 0.93105 0.69333 0.0
C717 C 0.28653 0.90149 0.71468 0.0
C718 C 0.21229 0.31609 0.74591 0.0
C719 C 0.2401 0.30683 0.72708 0.0
C720 C 0.18267 0.31767 0.72093 0.0
C721 C 0.17946 0.31044 0.67588 0.0
H722 H 0.21312 0.32141 0.78058 0.0
H723 H 0.16197 0.32423 0.73712 0.0
S724 S 0.24425 0.28651 0.60951 0.0
N725 N 0.26201 0.2912 0.65949 0.0
N726 N 0.20647 0.29478 0.61296 0.0
C727 C 0.20693 0.30189 0.6563 0.0
C728 C 0.23714 0.30003 0.68169 0.0
C729 C 0.8076 0.22088 0.62915 0.0
C730 C 0.79397 0.2231 0.66909 0.0
C731 C 0.80656 0.19256 0.60228 0.0
C732 C 0.79228 0.16448 0.61396 0.0
H733 H 0.81973 0.24126 0.61864 0.0
H734 H 0.81751 0.19253 0.57219 0.0
S735 S 0.75376 0.15638 0.71538 0.0
N736 N 0.76563 0.19382 0.71861 0.0
N737 N 0.76441 0.14081 0.66904 0.0
C738 C 0.77836 0.16628 0.65362 0.0
C739 C 0.779 0.19534 0.68077 0.0
C740 C 0.92046 0.32917 0.47374 0.0
C741 C 0.9159 0.32582 0.42789 0.0
C742 C 0.95058 0.32563 0.49692 0.0
C743 C 0.97754 0.31845 0.47537 0.0
H744 H 0.90053 0.33455 0.49203 0.0
H745 H 0.95288 0.32878 0.53203 0.0
S746 S 0.97963 0.30827 0.35623 0.0
N747 N 0.94199 0.31566 0.36212 0.0
N748 N 0.99812 0.30862 0.40585 0.0
C749 C 0.97353 0.31486 0.42981 0.0
C750 C 0.9429 0.31855 0.40606 0.0
C751 C 0.80201 0.91429 0.37723 0.0
C752 C 0.79444 0.91963 0.33265 0.0
C753 C 0.80223 0.93926 0.41002 0.0
C754 C 0.79456 0.97082 0.40005 0.0
H755 H 0.80838 0.89068 0.38685 0.0
H756 H 0.80838 0.93379 0.44358 0.0
S757 S 0.77106 0.9977 0.28937 0.0
N758 N 0.7776 0.9594 0.2813 0.0
N759 N 0.77829 1.00553 0.34225 0.0
C760 C 0.78651 0.97635 0.35587 0.0
C761 C 0.7864 0.95111 0.32252 0.0
C762 C 0.16333 0.78886 0.36307 0.0
C763 C 0.15792 0.77626 0.31991 0.0
C764 C 0.14012 0.78681 0.39229 0.0
C765 C 0.11067 0.77161 0.37985 0.0
H766 H 0.18546 0.80098 0.37413 0.0
H767 H 0.14533 0.79716 0.425 0.0
S768 S 0.08509 0.73357 0.27112 0.0
N769 N 0.12114 0.74718 0.26669 0.0
N770 N 0.07766 0.74339 0.32137 0.0
C771 C 0.10519 0.75843 0.33703 0.0
C772 C 0.12869 0.7608 0.30714 0.0
C773 C 0.30382 0.16767 0.42318 0.0
C774 C 0.29003 0.16247 0.37972 0.0
C775 C 0.30378 0.14391 0.45413 0.0
C776 C 0.29003 0.11358 0.44345 0.0
H777 H 0.31513 0.1902 0.4334 0.0
H778 H 0.31457 0.14942 0.4869 0.0
S779 S 0.2493 0.08743 0.33566 0.0
N780 N 0.26048 0.12421 0.32926 0.0
N781 N 0.26197 0.07999 0.38622 0.0
C782 C 0.27611 0.10808 0.4004 0.0
C783 C 0.27573 0.13225 0.36905 0.0
C784 C 0.67058 0.75597 0.81867 0.0
C785 C 0.69602 0.77786 0.82291 0.0
C786 C 0.64705 0.75713 0.84784 0.0
C787 C 0.64811 0.77999 0.88293 0.0
H788 H 0.66874 0.73782 0.79247 0.0
H789 H 0.62771 0.7401 0.84259 0.0
S790 S 0.71181 0.84041 0.91161 0.0
N791 N 0.72175 0.82194 0.86678 0.0
N792 N 0.6785 0.8234 0.92195 0.0
C793 C 0.67389 0.80151 0.88808 0.0
C794 C 0.69753 0.80063 0.85809 0.0
C795 C 0.24599 0.6894 0.84755 0.0
C796 C 0.26469 0.71731 0.85357 0.0
C797 C 0.24747 0.6659 0.87852 0.0
C798 C 0.26824 0.66849 0.91727 0.0
H799 H 0.23054 0.68515 0.81769 0.0
H800 H 0.23237 0.64516 0.87149 0.0
S801 S 0.32354 0.73654 0.94851 0.0
N802 N 0.30492 0.74611 0.90155 0.0
N803 N 0.30848 0.70203 0.95923 0.0
C804 C 0.28677 0.69672 0.92418 0.0
C805 C 0.28488 0.72094 0.8926 0.0
C806 C 0.39599 0.3029 0.92917 0.0
C807 C 0.39544 0.28545 0.88898 0.0
C808 C 0.42334 0.30424 0.95937 0.0
C809 C 0.45154 0.28866 0.95046 0.0
H810 H 0.37473 0.31465 0.93816 0.0
H811 H 0.42232 0.3173 0.99024 0.0
S812 S 0.46374 0.24223 0.84862 0.0
N813 N 0.4263 0.25338 0.8414 0.0
N814 N 0.47781 0.25714 0.89717 0.0
C815 C 0.45169 0.27216 0.90982 0.0
C816 C 0.4237 0.27025 0.87943 0.0
C817 C 0.81371 0.38268 0.9009 0.0
C818 C 0.80378 0.37777 0.85591 0.0
C819 C 0.81383 0.41279 0.92282 0.0
C820 C 0.80427 0.44016 0.90125 0.0
H821 H 0.82157 0.3629 0.92 0.0
H822 H 0.82155 0.41465 0.9573 0.0
S823 S 0.77536 0.44167 0.78405 0.0
N824 N 0.78337 0.40384 0.79086 0.0
N825 N 0.7839 0.46047 0.83204 0.0
C826 C 0.7939 0.43595 0.85643 0.0
C827 C 0.79359 0.40494 0.83387 0.0
C828 C 0.69275 0.32219 0.20346 0.0
C829 C 0.6922 0.31309 0.24659 0.0
C830 C 0.66606 0.31817 0.17253 0.0
C831 C 0.63756 0.30494 0.18328 0.0
H832 H 0.71391 0.33286 0.19354 0.0
H833 H 0.66765 0.32567 0.13992 0.0
S834 S 0.62321 0.27621 0.29052 0.0
N835 N 0.66038 0.28893 0.2974 0.0
N836 N 0.6102 0.28269 0.23971 0.0
C837 C 0.63652 0.29572 0.226 0.0
C838 C 0.66375 0.29951 0.25751 0.0
C839 C 0.79799 0.67579 0.15842 0.0
C840 C 0.80876 0.70211 0.13728 0.0
C841 C 0.79731 0.64451 0.13906 0.0
C842 C 0.80721 0.63774 0.09742 0.0
H843 H 0.79043 0.67921 0.19061 0.0
H844 H 0.78909 0.62534 0.15704 0.0
S845 S 0.83676 0.69698 0.02688 0.0
N846 N 0.8287 0.71824 0.07061 0.0
N847 N 0.82804 0.65991 0.03569 0.0
C848 C 0.81803 0.66352 0.07592 0.0
C849 C 0.8186 0.69542 0.09532 0.0
C850 C 0.38685 0.78941 0.17407 0.0
C851 C 0.35823 0.79603 0.1486 0.0
C852 C 0.41601 0.78703 0.1559 0.0
C853 C 0.41789 0.79146 0.11158 0.0
H854 H 0.38693 0.78669 0.20859 0.0
H855 H 0.43738 0.78238 0.17688 0.0
S856 S 0.35028 0.80586 0.02941 0.0
N857 N 0.3339 0.80406 0.07534 0.0
N858 N 0.38868 0.8008 0.04206 0.0
C859 C 0.3896 0.79736 0.08553 0.0
C860 C 0.35985 0.79936 0.10377 0.0
C861 C 0.29257 0.3783 0.17157 0.0
C862 C 0.26975 0.37223 0.20012 0.0
C863 C 0.29307 0.40716 0.15023 0.0
C864 C 0.27107 0.43176 0.15692 0.0
H865 H 0.30972 0.36025 0.1649 0.0
H866 H 0.3106 0.40984 0.12759 0.0
S867 S 0.20852 0.42853 0.23288 0.0
N868 N 0.22561 0.39348 0.23572 0.0
N869 N 0.22727 0.448 0.19819 0.0
C870 C 0.24872 0.42606 0.18676 0.0
C871 C 0.24791 0.39639 0.20766 0.0
C872 C 0.41232 0.28255 0.25941 0.0
C873 C 0.38142 0.2881 0.24012 0.0
C874 C 0.43911 0.28699 0.23649 0.0
C875 C 0.43603 0.29784 0.19386 0.0
H876 H 0.41572 0.27325 0.29145 0.0
H877 H 0.46236 0.28131 0.2519 0.0
S878 S 0.36039 0.31727 0.12985 0.0
N879 N 0.34956 0.30607 0.17644 0.0
N880 N 0.39944 0.31477 0.13421 0.0
C881 C 0.40534 0.30467 0.17517 0.0
C882 C 0.37822 0.2997 0.19805 0.0
C883 C 0.84217 0.41585 0.2247 0.0
C884 C 0.82659 0.38624 0.22119 0.0
C885 C 0.83683 0.4377 0.19221 0.0
C886 C 0.81521 0.43111 0.15514 0.0
H887 H 0.85846 0.42235 0.25308 0.0
H888 H 0.84977 0.45999 0.19627 0.0
S889 S 0.76659 0.35762 0.13195 0.0
N890 N 0.78812 0.35163 0.17825 0.0
N891 N 0.77706 0.39304 0.11797 0.0
C892 C 0.79937 0.40151 0.15131 0.0
C893 C 0.8053 0.37901 0.1841 0.0
C894 C 0.69064 0.80897 0.13023 0.0
C895 C 0.69541 0.80192 0.17455 0.0
C896 C 0.66082 0.80572 0.10598 0.0
C897 C 0.63412 0.79536 0.12469 0.0
H898 H 0.71021 0.81702 0.11364 0.0
H899 H 0.65863 0.81139 0.0721 0.0
S900 S 0.63261 0.77447 0.23928 0.0
N901 N 0.67009 0.7842 0.23605 0.0
N902 N 0.61386 0.77866 0.19046 0.0
C903 C 0.63818 0.78835 0.16889 0.0
C904 C 0.66879 0.79143 0.19374 0.0
C905 C 0.27706 0.66189 0.23616 0.0
C906 C 0.28592 0.69047 0.21936 0.0
C907 C 0.27945 0.63283 0.21223 0.0
C908 C 0.29019 0.63179 0.17062 0.0
H909 H 0.26598 0.66224 0.26617 0.0
H910 H 0.27062 0.61143 0.22478 0.0
S911 S 0.31907 0.70017 0.11473 0.0
N912 N 0.30859 0.71574 0.16107 0.0
N913 N 0.31222 0.66174 0.11566 0.0
C914 C 0.30118 0.66008 0.15516 0.0
C915 C 0.29919 0.68931 0.17967 0.0
C916 C 0.39737 0.78876 0.86456 0.0
C917 C 0.39937 0.77393 0.82295 0.0
C918 C 0.42353 0.79037 0.89646 0.0
C919 C 0.45301 0.77749 0.88819 0.0
H920 H 0.37553 0.79971 0.87263 0.0
H921 H 0.42075 0.80194 0.92788 0.0
S922 S 0.47151 0.73541 0.78596 0.0
N923 N 0.43372 0.74489 0.77653 0.0
N924 N 0.48302 0.74948 0.83584 0.0
C925 C 0.4556 0.76271 0.84703 0.0
C926 C 0.42885 0.76058 0.81462 0.0
C927 C 0.2674 0.39733 0.98748 0.0
C928 C 0.25858 0.38629 0.94426 0.0
C929 C 0.2677 0.42989 0.99938 0.0
C930 C 0.25889 0.45233 0.96854 0.0
H931 H 0.27545 0.38084 1.01177 0.0
H932 H 0.27557 0.43766 0.03265 0.0
S933 S 0.23178 0.43581 0.85216 0.0
N934 N 0.23869 0.40047 0.87137 0.0
N935 N 0.24035 0.46161 0.89367 0.0
C936 C 0.24915 0.44167 0.92569 0.0
C937 C 0.24865 0.40863 0.91358 0.0
C938 C 0.68868 0.29352 0.889 0.0
C939 C 0.71271 0.27195 0.90245 0.0
C940 C 0.66215 0.29889 0.91256 0.0
C941 C 0.65841 0.28278 0.95041 0.0
H942 H 0.68991 0.30576 0.8594 0.0
H943 H 0.64401 0.31512 0.90038 0.0
S944 S 0.71633 0.22736 1.00305 0.0
N945 N 0.73222 0.23706 0.95905 0.0
N946 N 0.68242 0.2466 1.00231 0.0
C947 C 0.68274 0.26208 0.96501 0.0
C948 C 0.70979 0.2568 0.94135 0.0
C949 C 0.84116 0.68843 0.86733 0.0
C950 C 0.82198 0.71373 0.87969 0.0
C951 C 0.83701 0.658 0.88192 0.0
C952 C 0.81363 0.65174 0.90964 0.0
H953 H 0.85887 0.692 0.8452 0.0
H954 H 0.85204 0.63913 0.87096 0.0
S955 S 0.75893 0.71089 0.95392 0.0
N956 N 0.77976 0.73117 0.92242 0.0
N957 N 0.7722 0.67418 0.95071 0.0
C958 C 0.79461 0.6771 0.92274 0.0
C959 C 0.79878 0.70803 0.90765 0.0
loop_
_geom_bond_atom_site_label_1
_geom_bond_atom_site_label_2
_geom_bond_distance
_geom_bond_site_symmetry_2
_ccdc_geom_bond_type
Cu0 N1 1.999 . S
Cu0 O6 1.974 . S
Cu0 N11 1.985 . S
Cu0 O20 1.959 . S
N1 Cu0 1.999 . S
N1 C3 1.263 . S
N1 C5 1.389 . S
N2 C3 1.358 . S
N2 C4 1.400 . S
C3 N1 1.263 . S
C3 N2 1.358 . S
C3 H9 0.930 . S
C4 N2 1.400 . S
C4 C5 1.351 . S
C4 H21 0.930 . S
C5 N1 1.389 . S
C5 C4 1.351 . S
C5 H10 0.930 . S
O6 Cu0 1.974 . S
O6 C16 1.282 . S
C7 O8 1.261 . S
C7 O20 1.251 . S
O8 C7 1.261 . S
H9 C3 0.930 . S
H10 C5 0.930 . S
N11 Cu0 1.985 . S
N11 C13 1.335 . S
N11 C14 1.390 . S
N12 C13 1.345 . S
N12 C15 1.336 . S
C13 N11 1.335 . S
C13 N12 1.345 . S
C13 H18 0.930 . S
C14 N11 1.390 . S
C14 C15 1.346 . S
C14 H19 0.930 . S
C15 N12 1.336 . S
C15 C14 1.346 . S
C15 H22 0.929 . S
C16 O6 1.282 . S
C16 O17 1.216 . S
O17 C16 1.216 . S
H18 C13 0.930 . S
H19 C14 0.930 . S
O20 Cu0 1.959 . S
O20 C7 1.251 . S
H21 C4 0.930 . S
H22 C15 0.929 . S
Cu23 N24 1.999 . S
Cu23 O29 1.974 . S
Cu23 N34 1.985 . S
Cu23 O43 1.959 . S
N24 Cu23 1.999 . S
N24 C26 1.263 . S
N24 C28 1.389 . S
N25 C26 1.358 . S
N25 C27 1.400 . S
C26 N24 1.263 . S
C26 N25 1.358 . S
C26 H32 0.930 . S
C27 N25 1.400 . S
C27 C28 1.351 . S
C27 H44 0.930 . S
C28 N24 1.389 . S
C28 C27 1.351 . S
C28 H33 0.930 . S
O29 Cu23 1.974 . S
O29 C39 1.282 . S
C30 O31 1.261 . S
C30 O43 1.251 . S
O31 C30 1.261 . S
H32 C26 0.930 . S
H33 C28 0.930 . S
N34 Cu23 1.985 . S
N34 C36 1.335 . S
N34 C37 1.390 . S
N35 C36 1.345 . S
N35 C38 1.336 . S
C36 N34 1.335 . S
C36 N35 1.345 . S
C36 H41 0.930 . S
C37 N34 1.390 . S
C37 C38 1.346 . S
C37 H42 0.930 . S
C38 N35 1.336 . S
C38 C37 1.346 . S
C38 H45 0.929 . S
C39 O29 1.282 . S
C39 O40 1.216 . S
O40 C39 1.216 . S
H41 C36 0.930 . S
H42 C37 0.930 . S
O43 Cu23 1.959 . S
O43 C30 1.251 . S
H44 C27 0.930 . S
H45 C38 0.929 . S
Cu46 N47 1.999 . S
Cu46 O52 1.974 . S
Cu46 N57 1.985 . S
Cu46 O66 1.959 . S
N47 Cu46 1.999 . S
N47 C49 1.263 . S
N47 C51 1.389 . S
N48 C49 1.358 . S
N48 C50 1.400 . S
C49 N47 1.263 . S
C49 N48 1.358 . S
C49 H55 0.930 . S
C50 N48 1.400 . S
C50 C51 1.351 . S
C50 H67 0.930 . S
C51 N47 1.389 . S
C51 C50 1.351 . S
C51 H56 0.930 . S
O52 Cu46 1.974 . S
O52 C62 1.282 . S
C53 O54 1.261 . S
C53 O66 1.251 . S
O54 C53 1.261 . S
H55 C49 0.930 . S
H56 C51 0.930 . S
N57 Cu46 1.985 . S
N57 C59 1.335 . S
N57 C60 1.390 . S
N58 C59 1.345 . S
N58 C61 1.336 . S
C59 N57 1.335 . S
C59 N58 1.345 . S
C59 H64 0.930 . S
C60 N57 1.390 . S
C60 C61 1.346 . S
C60 H65 0.930 . S
C61 N58 1.336 . S
C61 C60 1.346 . S
C61 H68 0.929 . S
C62 O52 1.282 . S
C62 O63 1.216 . S
O63 C62 1.216 . S
H64 C59 0.930 . S
H65 C60 0.930 . S
O66 Cu46 1.959 . S
O66 C53 1.251 . S
H67 C50 0.930 . S
H68 C61 0.929 . S
Cu69 N70 1.999 . S
Cu69 O75 1.974 . S
Cu69 N80 1.985 . S
Cu69 O89 1.959 . S
N70 Cu69 1.999 . S
N70 C72 1.263 . S
N70 C74 1.389 . S
N71 C72 1.358 . S
N71 C73 1.400 . S
C72 N70 1.263 . S
C72 N71 1.358 . S
C72 H78 0.930 . S
C73 N71 1.400 . S
C73 C74 1.351 . S
C73 H90 0.930 . S
C74 N70 1.389 . S
C74 C73 1.351 . S
C74 H79 0.930 . S
O75 Cu69 1.974 . S
O75 C85 1.282 . S
C76 O77 1.261 . S
C76 O89 1.251 . S
O77 C76 1.261 . S
H78 C72 0.930 . S
H79 C74 0.930 . S
N80 Cu69 1.985 . S
N80 C82 1.335 . S
N80 C83 1.390 . S
N81 C82 1.345 . S
N81 C84 1.336 . S
C82 N80 1.335 . S
C82 N81 1.345 . S
C82 H87 0.930 . S
C83 N80 1.390 . S
C83 C84 1.346 . S
C83 H88 0.930 . S
C84 N81 1.336 . S
C84 C83 1.346 . S
C84 H91 0.929 . S
C85 O75 1.282 . S
C85 O86 1.216 . S
O86 C85 1.216 . S
H87 C82 0.930 . S
H88 C83 0.930 . S
O89 Cu69 1.959 . S
O89 C76 1.251 . S
H90 C73 0.930 . S
H91 C84 0.929 . S
Cu92 N93 1.999 . S
Cu92 O98 1.974 . S
Cu92 N103 1.985 . S
Cu92 O112 1.959 . S
N93 Cu92 1.999 . S
N93 C95 1.263 . S
N93 C97 1.389 . S
N94 C95 1.358 . S
N94 C96 1.400 . S
C95 N93 1.263 . S
C95 N94 1.358 . S
C95 H101 0.930 . S
C96 N94 1.400 . S
C96 C97 1.351 . S
C96 H113 0.930 . S
C97 N93 1.389 . S
C97 C96 1.351 . S
C97 H102 0.930 . S
O98 Cu92 1.974 . S
O98 C108 1.282 . S
C99 O100 1.261 . S
C99 O112 1.251 . S
O100 C99 1.261 . S
H101 C95 0.930 . S
H102 C97 0.930 . S
N103 Cu92 1.985 . S
N103 C105 1.335 . S
N103 C106 1.390 . S
N104 C105 1.345 . S
N104 C107 1.336 . S
C105 N103 1.335 . S
C105 N104 1.345 . S
C105 H110 0.930 . S
C106 N103 1.390 . S
C106 C107 1.346 . S
C106 H111 0.930 . S
C107 N104 1.336 . S
C107 C106 1.346 . S
C107 H114 0.929 . S
C108 O98 1.282 . S
C108 O109 1.216 . S
O109 C108 1.216 . S
H110 C105 0.930 . S
H111 C106 0.930 . S
O112 Cu92 1.959 . S
O112 C99 1.251 . S
H113 C96 0.930 . S
H114 C107 0.929 . S
Cu115 N116 1.999 . S
Cu115 O121 1.974 . S
Cu115 N126 1.985 . S
Cu115 O135 1.959 . S
N116 Cu115 1.999 . S
N116 C118 1.263 . S
N116 C120 1.389 . S
N117 C118 1.358 . S
N117 C119 1.400 . S
C118 N116 1.263 . S
C118 N117 1.358 . S
C118 H124 0.930 . S
C119 N117 1.400 . S
C119 C120 1.351 . S
C119 H136 0.930 . S
C120 N116 1.389 . S
C120 C119 1.351 . S
C120 H125 0.930 . S
O121 Cu115 1.974 . S
O121 C131 1.282 . S
C122 O123 1.261 . S
C122 O135 1.251 . S
O123 C122 1.261 . S
H124 C118 0.930 . S
H125 C120 0.930 . S
N126 Cu115 1.985 . S
N126 C128 1.335 . S
N126 C129 1.390 . S
N127 C128 1.345 . S
N127 C130 1.336 . S
C128 N126 1.335 . S
C128 N127 1.345 . S
C128 H133 0.930 . S
C129 N126 1.390 . S
C129 C130 1.346 . S
C129 H134 0.930 . S
C130 N127 1.336 . S
C130 C129 1.346 . S
C130 H137 0.929 . S
C131 O121 1.282 . S
C131 O132 1.216 . S
O132 C131 1.216 . S
H133 C128 0.930 . S
H134 C129 0.930 . S
O135 Cu115 1.959 . S
O135 C122 1.251 . S
H136 C119 0.930 . S
H137 C130 0.929 . S
Cu138 N139 1.999 . S
Cu138 O144 1.974 . S
Cu138 N149 1.985 . S
Cu138 O158 1.959 . S
N139 Cu138 1.999 . S
N139 C141 1.263 . S
N139 C143 1.389 . S
N140 C141 1.358 . S
N140 C142 1.400 . S
C141 N139 1.263 . S
C141 N140 1.358 . S
C141 H147 0.930 . S
C142 N140 1.400 . S
C142 C143 1.351 . S
C142 H159 0.930 . S
C143 N139 1.389 . S
C143 C142 1.351 . S
C143 H148 0.930 . S
O144 Cu138 1.974 . S
O144 C154 1.282 . S
C145 O146 1.261 . S
C145 O158 1.251 . S
O146 C145 1.261 . S
H147 C141 0.930 . S
H148 C143 0.930 . S
N149 Cu138 1.985 . S
N149 C151 1.335 . S
N149 C152 1.390 . S
N150 C151 1.345 . S
N150 C153 1.336 . S
C151 N149 1.335 . S
C151 N150 1.345 . S
C151 H156 0.930 . S
C152 N149 1.390 . S
C152 C153 1.346 . S
C152 H157 0.930 . S
C153 N150 1.336 . S
C153 C152 1.346 . S
C153 H160 0.929 . S
C154 O144 1.282 . S
C154 O155 1.216 . S
O155 C154 1.216 . S
H156 C151 0.930 . S
H157 C152 0.930 . S
O158 Cu138 1.959 . S
O158 C145 1.251 . S
H159 C142 0.930 . S
H160 C153 0.929 . S
Cu161 N162 1.999 . S
Cu161 O167 1.974 . S
Cu161 N172 1.985 . S
Cu161 O181 1.959 . S
N162 Cu161 1.999 . S
N162 C164 1.263 . S
N162 C166 1.389 . S
N163 C164 1.358 . S
N163 C165 1.400 . S
C164 N162 1.263 . S
C164 N163 1.358 . S
C164 H170 0.930 . S
C165 N163 1.400 . S
C165 C166 1.351 . S
C165 H182 0.930 . S
C166 N162 1.389 . S
C166 C165 1.351 . S
C166 H171 0.930 . S
O167 Cu161 1.974 . S
O167 C177 1.282 . S
C168 O169 1.261 . S
C168 O181 1.251 . S
O169 C168 1.261 . S
H170 C164 0.930 . S
H171 C166 0.930 . S
N172 Cu161 1.985 . S
N172 C174 1.335 . S
N172 C175 1.390 . S
N173 C174 1.345 . S
N173 C176 1.336 . S
C174 N172 1.335 . S
C174 N173 1.345 . S
C174 H179 0.930 . S
C175 N172 1.390 . S
C175 C176 1.346 . S
C175 H180 0.930 . S
C176 N173 1.336 . S
C176 C175 1.346 . S
C176 H183 0.929 . S
C177 O167 1.282 . S
C177 O178 1.216 . S
O178 C177 1.216 . S
H179 C174 0.930 . S
H180 C175 0.930 . S
O181 Cu161 1.959 . S
O181 C168 1.251 . S
H182 C165 0.930 . S
H183 C176 0.929 . S
C184 C185 1.443 . S
C184 N188 1.376 . S
C184 C222 1.389 . S
C185 C184 1.443 . S
C185 C186 1.340 . S
C185 H225 0.951 . S
C186 C185 1.340 . S
C186 C187 1.439 . S
C186 H226 0.950 . S
C187 C186 1.439 . S
C187 N188 1.374 . S
C187 C221 1.395 . S
N188 C184 1.376 . S
N188 C187 1.374 . S
N188 Co189 2.008 . S
Co189 N188 2.008 . S
Co189 N190 1.995 . S
Co189 N195 2.008 . S
Co189 N200 1.995 . S
Co189 N205 2.282 . S
Co189 N211 2.282 . S
N190 Co189 1.995 . S
N190 C191 1.376 . S
N190 C194 1.383 1_455 S
C191 N190 1.376 . S
C191 C192 1.446 . S
C191 C221 1.391 . S
C192 C191 1.446 . S
C192 C193 1.339 1_455 S
C192 H227 0.949 . S
C193 C192 1.339 1_655 S
C193 C194 1.439 . S
C193 H228 0.950 . S
C194 N190 1.383 1_655 S
C194 C193 1.439 . S
C194 C223 1.392 . S
N195 Co189 2.008 . S
N195 C196 1.376 1_455 S
N195 C199 1.374 . S
C196 N195 1.376 1_655 S
C196 C197 1.443 . S
C196 C223 1.389 . S
C197 C196 1.443 . S
C197 C198 1.340 . S
C197 H229 0.951 . S
C198 C197 1.340 . S
C198 C199 1.439 1_655 S
C198 H230 0.950 . S
C199 N195 1.374 . S
C199 C198 1.439 1_455 S
C199 C224 1.395 . S
N200 Co189 1.995 . S
N200 C201 1.376 . S
N200 C204 1.383 . S
C201 N200 1.376 . S
C201 C202 1.446 . S
C201 C224 1.391 . S
C202 C201 1.446 . S
C202 C203 1.339 . S
C202 H231 0.949 . S
C203 C202 1.339 . S
C203 C204 1.439 . S
C203 H232 0.950 . S
C204 N200 1.383 . S
C204 C203 1.439 . S
C204 C222 1.392 . S
N205 Co189 2.282 . S
N205 C208 1.332 . S
N205 C210 1.332 1_455 S
C206 C207 1.386 . S
C206 C209 1.388 . S
C207 C206 1.386 . S
C207 C208 1.382 1_655 S
C207 H233 0.950 . S
C208 N205 1.332 . S
C208 C207 1.382 1_455 S
C208 H219 0.952 . S
C209 C206 1.388 . S
C209 C210 1.382 . S
C209 H234 0.950 . S
C210 N205 1.332 1_655 S
C210 C209 1.382 . S
C210 H220 0.948 1_655 S
N211 Co189 2.282 . S
N211 C215 1.332 . S
N211 C216 1.332 . S
C212 C213 1.388 . S
C212 C216 1.382 . S
C212 H235 0.950 . S
C213 C212 1.388 . S
C213 C214 1.386 . S
C214 C213 1.386 . S
C214 C215 1.382 . S
C214 H236 0.950 . S
C215 N211 1.332 . S
C215 C214 1.382 . S
C215 H217 0.952 . S
C216 N211 1.332 . S
C216 C212 1.382 . S
C216 H218 0.948 . S
H217 C215 0.952 . S
H218 C216 0.948 . S
H219 C208 0.952 . S
H220 C210 0.948 1_455 S
C221 C187 1.395 . S
C221 C191 1.391 . S
C222 C184 1.389 . S
C222 C204 1.392 . S
C223 C194 1.392 . S
C223 C196 1.389 . S
C224 C199 1.395 . S
C224 C201 1.391 . S
H225 C185 0.951 . S
H226 C186 0.950 . S
H227 C192 0.949 . S
H228 C193 0.950 . S
H229 C197 0.951 . S
H230 C198 0.950 . S
H231 C202 0.949 . S
H232 C203 0.950 . S
H233 C207 0.950 . S
H234 C209 0.950 . S
H235 C212 0.950 . S
H236 C214 0.950 . S
C237 C238 1.443 . S
C237 N241 1.376 . S
C237 C275 1.389 . S
C238 C237 1.443 . S
C238 C239 1.340 . S
C238 H278 0.951 . S
C239 C238 1.340 . S
C239 C240 1.439 . S
C239 H279 0.950 . S
C240 C239 1.439 . S
C240 N241 1.374 . S
C240 C274 1.395 . S
N241 C237 1.376 . S
N241 C240 1.374 . S
N241 Co242 2.008 . S
Co242 N241 2.008 . S
Co242 N243 1.995 . S
Co242 N248 2.008 . S
Co242 N253 1.995 . S
Co242 N258 2.282 . S
Co242 N264 2.282 . S
N243 Co242 1.995 . S
N243 C244 1.376 . S
N243 C247 1.383 . S
C244 N243 1.376 . S
C244 C245 1.446 . S
C244 C274 1.391 . S
C245 C244 1.446 . S
C245 C246 1.339 1_545 S
C245 H280 0.949 . S
C246 C245 1.339 1_565 S
C246 C247 1.439 1_565 S
C246 H281 0.950 . S
C247 N243 1.383 . S
C247 C246 1.439 1_545 S
C247 C276 1.392 1_545 S
N248 Co242 2.008 . S
N248 C249 1.376 1_545 S
N248 C252 1.374 . S
C249 N248 1.376 1_565 S
C249 C250 1.443 . S
C249 C276 1.389 . S
C250 C249 1.443 . S
C250 C251 1.340 . S
C250 H282 0.951 . S
C251 C250 1.340 . S
C251 C252 1.439 1_565 S
C251 H283 0.950 . S
C252 N248 1.374 . S
C252 C251 1.439 1_545 S
C252 C277 1.395 . S
N253 Co242 1.995 . S
N253 C254 1.376 . S
N253 C257 1.383 . S
C254 N253 1.376 . S
C254 C255 1.446 . S
C254 C277 1.391 . S
C255 C254 1.446 . S
C255 C256 1.339 . S
C255 H284 0.949 . S
C256 C255 1.339 . S
C256 C257 1.439 . S
C256 H285 0.950 . S
C257 N253 1.383 . S
C257 C256 1.439 . S
C257 C275 1.392 . S
N258 Co242 2.282 . S
N258 C261 1.331 1_545 S
N258 C263 1.332 1_545 S
C259 C260 1.386 . S
C259 C262 1.388 . S
C260 C259 1.386 . S
C260 C261 1.385 . S
C260 H286 0.950 . S
C261 N258 1.331 1_565 S
C261 C260 1.385 . S
C261 H272 0.949 1_565 S
C262 C259 1.388 . S
C262 C263 1.382 . S
C262 H287 0.950 . S
C263 N258 1.332 1_565 S
C263 C262 1.382 . S
C263 H273 0.948 . S
N264 Co242 2.282 . S
N264 C268 1.332 . S
N264 C269 1.332 . S
C265 C266 1.388 . S
C265 C269 1.382 . S
C265 H288 0.950 . S
C266 C265 1.388 . S
C266 C267 1.386 . S
C267 C266 1.386 . S
C267 C268 1.382 . S
C267 H289 0.950 . S
C268 N264 1.332 . S
C268 C267 1.382 . S
C268 H270 0.952 . S
C269 N264 1.332 . S
C269 C265 1.382 . S
C269 H271 0.948 . S
H270 C268 0.952 . S
H271 C269 0.948 . S
H272 C261 0.949 1_545 S
H273 C263 0.948 . S
C274 C240 1.395 . S
C274 C244 1.391 . S
C275 C237 1.389 . S
C275 C257 1.392 . S
C276 C247 1.392 1_565 S
C276 C249 1.389 . S
C277 C252 1.395 . S
C277 C254 1.391 . S
H278 C238 0.951 . S
H279 C239 0.950 . S
H280 C245 0.949 . S
H281 C246 0.950 . S
H282 C250 0.951 . S
H283 C251 0.950 . S
H284 C255 0.949 . S
H285 C256 0.950 . S
H286 C260 0.950 . S
H287 C262 0.950 . S
H288 C265 0.950 . S
H289 C267 0.950 . S
C290 C291 1.443 . S
C290 N294 1.376 . S
C290 C328 1.389 . S
C291 C290 1.443 . S
C291 C292 1.340 . S
C291 H331 0.951 . S
C292 C291 1.340 . S
C292 C293 1.439 . S
C292 H332 0.950 . S
C293 C292 1.439 . S
C293 N294 1.374 . S
C293 C327 1.395 . S
N294 C290 1.376 . S
N294 C293 1.374 . S
N294 Co295 2.008 . S
Co295 N294 2.008 . S
Co295 N296 1.995 1_455 S
Co295 N301 2.008 1_455 S
Co295 N306 1.995 . S
Co295 N311 2.282 1_455 S
Co295 N317 2.282 . S
N296 Co295 1.995 1_655 S
N296 C297 1.376 . S
N296 C300 1.383 . S
C297 N296 1.376 . S
C297 C298 1.446 . S
C297 C327 1.391 1_655 S
C298 C297 1.446 . S
C298 C299 1.339 . S
C298 H333 0.949 . S
C299 C298 1.339 . S
C299 C300 1.439 . S
C299 H334 0.950 . S
C300 N296 1.383 . S
C300 C299 1.439 . S
C300 C329 1.392 . S
N301 Co295 2.008 1_655 S
N301 C302 1.376 . S
N301 C305 1.374 . S
C302 N301 1.376 . S
C302 C303 1.443 . S
C302 C329 1.389 . S
C303 C302 1.443 . S
C303 C304 1.340 . S
C303 H335 0.951 . S
C304 C303 1.340 . S
C304 C305 1.439 . S
C304 H336 0.950 . S
C305 N301 1.374 . S
C305 C304 1.439 . S
C305 C330 1.373 1_655 S
N306 Co295 1.995 . S
N306 C307 1.376 . S
N306 C310 1.383 . S
C307 N306 1.376 . S
C307 C308 1.446 . S
C307 C330 1.415 . S
C308 C307 1.446 . S
C308 C309 1.339 . S
C308 H337 0.949 . S
C309 C308 1.339 . S
C309 C310 1.439 . S
C309 H338 0.950 . S
C310 N306 1.383 . S
C310 C309 1.439 . S
C310 C328 1.392 . S
N311 Co295 2.282 1_655 S
N311 C314 1.332 . S
N311 C316 1.332 . S
C312 C313 1.386 . S
C312 C315 1.388 . S
C313 C312 1.386 . S
C313 C314 1.382 . S
C313 H339 0.950 . S
C314 N311 1.332 . S
C314 C313 1.382 . S
C314 H325 0.952 . S
C315 C312 1.388 . S
C315 C316 1.382 . S
C315 H340 0.950 . S
C316 N311 1.332 . S
C316 C315 1.382 . S
C316 H326 0.948 . S
N317 Co295 2.282 . S
N317 C321 1.332 . S
N317 C322 1.332 . S
C318 C319 1.388 . S
C318 C322 1.382 . S
C318 H341 0.950 . S
C319 C318 1.388 . S
C319 C320 1.386 . S
C320 C319 1.386 . S
C320 C321 1.382 . S
C320 H342 0.950 . S
C321 N317 1.332 . S
C321 C320 1.382 . S
C321 H323 0.952 . S
C322 N317 1.332 . S
C322 C318 1.382 . S
C322 H324 0.948 . S
H323 C321 0.952 . S
H324 C322 0.948 . S
H325 C314 0.952 . S
H326 C316 0.948 . S
C327 C293 1.395 . S
C327 C297 1.391 1_455 S
C328 C290 1.389 . S
C328 C310 1.392 . S
C329 C300 1.392 . S
C329 C302 1.389 . S
C330 C305 1.373 1_455 S
C330 C307 1.415 . S
H331 C291 0.951 . S
H332 C292 0.950 . S
H333 C298 0.949 . S
H334 C299 0.950 . S
H335 C303 0.951 . S
H336 C304 0.950 . S
H337 C308 0.949 . S
H338 C309 0.950 . S
H339 C313 0.950 . S
H340 C315 0.950 . S
H341 C318 0.950 . S
H342 C320 0.950 . S
C343 C344 1.443 . S
C343 N347 1.376 . S
C343 C381 1.389 . S
C344 C343 1.443 . S
C344 C345 1.340 . S
C344 H384 0.951 . S
C345 C344 1.340 . S
C345 C346 1.439 . S
C345 H385 0.950 . S
C346 C345 1.439 . S
C346 N347 1.374 . S
C346 C380 1.395 1_565 S
N347 C343 1.376 . S
N347 C346 1.374 . S
N347 Co348 2.008 1_565 S
Co348 N347 2.008 1_545 S
Co348 N349 1.995 . S
Co348 N354 2.008 . S
Co348 N359 1.995 1_545 S
Co348 N364 2.282 . S
Co348 N370 2.282 1_545 S
N349 Co348 1.995 . S
N349 C350 1.376 . S
N349 C353 1.383 . S
C350 N349 1.376 . S
C350 C351 1.446 . S
C350 C380 1.391 . S
C351 C350 1.446 . S
C351 C352 1.339 . S
C351 H386 0.949 . S
C352 C351 1.339 . S
C352 C353 1.439 . S
C352 H387 0.950 . S
C353 N349 1.383 . S
C353 C352 1.439 . S
C353 C382 1.392 . S
N354 Co348 2.008 . S
N354 C355 1.376 . S
N354 C358 1.374 . S
C355 N354 1.376 . S
C355 C356 1.443 . S
C355 C382 1.389 . S
C356 C355 1.443 . S
C356 C357 1.340 . S
C356 H388 0.951 . S
C357 C356 1.340 . S
C357 C358 1.439 . S
C357 H389 0.950 . S
C358 N354 1.374 . S
C358 C357 1.439 . S
C358 C383 1.395 . S
N359 Co348 1.995 1_565 S
N359 C360 1.376 . S
N359 C363 1.383 . S
C360 N359 1.376 . S
C360 C361 1.446 . S
C360 C383 1.391 1_565 S
C361 C360 1.446 . S
C361 C362 1.339 . S
C361 H390 0.949 . S
C362 C361 1.339 . S
C362 C363 1.439 . S
C362 H391 0.950 . S
C363 N359 1.383 . S
C363 C362 1.439 . S
C363 C381 1.392 . S
N364 Co348 2.282 . S
N364 C367 1.332 . S
N364 C369 1.332 . S
C365 C366 1.386 . S
C365 C368 1.388 . S
C366 C365 1.386 . S
C366 C367 1.382 . S
C366 H392 0.950 . S
C367 N364 1.332 . S
C367 C366 1.382 . S
C367 H378 0.952 . S
C368 C365 1.388 . S
C368 C369 1.382 . S
C368 H393 0.950 . S
C369 N364 1.332 . S
C369 C368 1.382 . S
C369 H379 0.948 . S
N370 Co348 2.282 1_565 S
N370 C374 1.332 . S
N370 C375 1.332 . S
C371 C372 1.388 . S
C371 C375 1.382 . S
C371 H394 0.950 . S
C372 C371 1.388 . S
C372 C373 1.386 . S
C373 C372 1.386 . S
C373 C374 1.382 . S
C373 H395 0.950 . S
C374 N370 1.332 . S
C374 C373 1.382 . S
C374 H376 0.952 . S
C375 N370 1.332 . S
C375 C371 1.382 . S
C375 H377 0.948 . S
H376 C374 0.952 . S
H377 C375 0.948 . S
H378 C367 0.952 . S
H379 C369 0.948 . S
C380 C346 1.395 1_545 S
C380 C350 1.391 . S
C381 C343 1.389 . S
C381 C363 1.392 . S
C382 C353 1.392 . S
C382 C355 1.389 . S
C383 C358 1.395 . S
C383 C360 1.391 1_545 S
H384 C344 0.951 . S
H385 C345 0.950 . S
H386 C351 0.949 . S
H387 C352 0.950 . S
H388 C356 0.951 . S
H389 C357 0.950 . S
H390 C361 0.949 . S
H391 C362 0.950 . S
H392 C366 0.950 . S
H393 C368 0.950 . S
H394 C371 0.950 . S
H395 C373 0.950 . S
C396 C397 1.443 . S
C396 N400 1.376 . S
C396 C434 1.389 . S
C397 C396 1.443 . S
C397 C398 1.340 . S
C397 H437 0.951 . S
C398 C397 1.340 . S
C398 C399 1.439 . S
C398 H438 0.950 . S
C399 C398 1.439 . S
C399 N400 1.374 . S
C399 C433 1.395 . S
N400 C396 1.376 . S
N400 C399 1.374 . S
N400 Co401 2.008 . S
Co401 N400 2.008 . S
Co401 N402 1.995 1_554 S
Co401 N407 2.008 1_554 S
Co401 N412 1.995 . S
Co401 N417 2.282 . S
Co401 N423 2.282 1_554 S
N402 Co401 1.995 1_556 S
N402 C403 1.376 . S
N402 C406 1.383 . S
C403 N402 1.376 . S
C403 C404 1.446 . S
C403 C433 1.391 1_556 S
C404 C403 1.446 . S
C404 C405 1.339 . S
C404 H439 0.949 . S
C405 C404 1.339 . S
C405 C406 1.439 . S
C405 H440 0.950 . S
C406 N402 1.383 . S
C406 C405 1.439 . S
C406 C435 1.392 . S
N407 Co401 2.008 1_556 S
N407 C408 1.376 . S
N407 C411 1.374 . S
C408 N407 1.376 . S
C408 C409 1.443 . S
C408 C435 1.389 . S
C409 C408 1.443 . S
C409 C410 1.340 . S
C409 H441 0.951 . S
C410 C409 1.340 . S
C410 C411 1.439 . S
C410 H442 0.950 . S
C411 N407 1.374 . S
C411 C410 1.439 . S
C411 C436 1.395 1_556 S
N412 Co401 1.995 . S
N412 C413 1.376 . S
N412 C416 1.383 . S
C413 N412 1.376 . S
C413 C414 1.446 . S
C413 C436 1.391 . S
C414 C413 1.446 . S
C414 C415 1.339 . S
C414 H443 0.949 . S
C415 C414 1.339 . S
C415 C416 1.439 . S
C415 H444 0.950 . S
C416 N412 1.383 . S
C416 C415 1.439 . S
C416 C434 1.392 . S
N417 Co401 2.282 . S
N417 C420 1.332 . S
N417 C422 1.332 . S
C418 C419 1.386 . S
C418 C421 1.388 . S
C419 C418 1.386 . S
C419 C420 1.382 . S
C419 H445 0.950 . S
C420 N417 1.332 . S
C420 C419 1.382 . S
C420 H431 0.952 . S
C421 C418 1.388 . S
C421 C422 1.382 . S
C421 H446 0.950 . S
C422 N417 1.332 . S
C422 C421 1.382 . S
C422 H432 0.948 . S
N423 Co401 2.282 1_556 S
N423 C427 1.332 . S
N423 C428 1.332 . S
C424 C425 1.388 . S
C424 C428 1.382 . S
C424 H447 0.950 . S
C425 C424 1.388 . S
C425 C426 1.386 . S
C426 C425 1.386 . S
C426 C427 1.382 . S
C426 H448 0.950 . S
C427 N423 1.332 . S
C427 C426 1.382 . S
C427 H429 0.952 . S
C428 N423 1.332 . S
C428 C424 1.382 . S
C428 H430 0.948 . S
H429 C427 0.952 . S
H430 C428 0.948 . S
H431 C420 0.952 . S
H432 C422 0.948 . S
C433 C399 1.395 . S
C433 C403 1.391 1_554 S
C434 C396 1.389 . S
C434 C416 1.392 . S
C435 C406 1.392 . S
C435 C408 1.389 . S
C436 C411 1.395 1_554 S
C436 C413 1.391 . S
H437 C397 0.951 . S
H438 C398 0.950 . S
H439 C404 0.949 . S
H440 C405 0.950 . S
H441 C409 0.951 . S
H442 C410 0.950 . S
H443 C414 0.949 . S
H444 C415 0.950 . S
H445 C419 0.950 . S
H446 C421 0.950 . S
H447 C424 0.950 . S
H448 C426 0.950 . S
C449 C450 1.443 . S
C449 N453 1.376 . S
C449 C487 1.389 . S
C450 C449 1.443 . S
C450 C451 1.340 . S
C450 H490 0.951 . S
C451 C450 1.340 . S
C451 C452 1.439 . S
C451 H491 0.950 . S
C452 C451 1.439 . S
C452 N453 1.374 . S
C452 C486 1.398 . S
N453 C449 1.376 . S
N453 C452 1.374 . S
N453 Co454 2.008 . S
Co454 N453 2.008 . S
Co454 N455 1.995 1_554 S
Co454 N460 2.017 . S
Co454 N465 1.995 . S
Co454 N470 2.282 . S
Co454 N476 2.282 1_554 S
N455 Co454 1.995 1_556 S
N455 C456 1.376 . S
N455 C459 1.383 . S
C456 N455 1.376 . S
C456 C457 1.446 . S
C456 C486 1.388 1_556 S
C457 C456 1.446 . S
C457 C458 1.339 . S
C457 H492 0.949 . S
C458 C457 1.339 . S
C458 C459 1.439 . S
C458 H493 0.950 . S
C459 N455 1.383 . S
C459 C458 1.439 . S
C459 C488 1.392 . S
N460 Co454 2.017 . S
N460 C461 1.364 1_554 S
N460 C464 1.378 . S
C461 N460 1.364 1_556 S
C461 C462 1.443 . S
C461 C488 1.389 . S
C462 C461 1.443 . S
C462 C463 1.340 . S
C462 H494 0.951 . S
C463 C462 1.340 . S
C463 C464 1.439 1_556 S
C463 H495 0.950 1_556 S
C464 N460 1.378 . S
C464 C463 1.439 1_554 S
C464 C489 1.395 . S
N465 Co454 1.995 . S
N465 C466 1.376 . S
N465 C469 1.383 . S
C466 N465 1.376 . S
C466 C467 1.446 . S
C466 C489 1.391 . S
C467 C466 1.446 . S
C467 C468 1.339 . S
C467 H496 0.949 . S
C468 C467 1.339 . S
C468 C469 1.439 . S
C468 H497 0.950 . S
C469 N465 1.383 . S
C469 C468 1.439 . S
C469 C487 1.392 . S
N470 Co454 2.282 . S
N470 C473 1.332 . S
N470 C475 1.332 . S
C471 C472 1.386 . S
C471 C474 1.388 . S
C472 C471 1.386 . S
C472 C473 1.382 . S
C472 H498 0.950 . S
C473 N470 1.332 . S
C473 C472 1.382 . S
C473 H484 0.952 . S
C474 C471 1.388 . S
C474 C475 1.382 . S
C474 H499 0.950 . S
C475 N470 1.332 . S
C475 C474 1.382 . S
C475 H485 0.948 . S
N476 Co454 2.282 1_556 S
N476 C480 1.332 . S
N476 C481 1.332 . S
C477 C478 1.388 . S
C477 C481 1.382 . S
C477 H500 0.950 . S
C478 C477 1.388 . S
C478 C479 1.386 . S
C479 C478 1.386 . S
C479 C480 1.382 . S
C479 H501 0.950 . S
C480 N476 1.332 . S
C480 C479 1.382 . S
C480 H482 0.952 . S
C481 N476 1.332 . S
C481 C477 1.382 . S
C481 H483 0.948 . S
H482 C480 0.952 . S
H483 C481 0.948 . S
H484 C473 0.952 . S
H485 C475 0.948 . S
C486 C452 1.398 . S
C486 C456 1.388 1_554 S
C487 C449 1.389 . S
C487 C469 1.392 . S
C488 C459 1.392 . S
C488 C461 1.389 . S
C489 C464 1.395 . S
C489 C466 1.391 . S
H490 C450 0.951 . S
H491 C451 0.950 . S
H492 C457 0.949 . S
H493 C458 0.950 . S
H494 C462 0.951 . S
H495 C463 0.950 1_554 S
H496 C467 0.949 . S
H497 C468 0.950 . S
H498 C472 0.950 . S
H499 C474 0.950 . S
H500 C477 0.950 . S
H501 C479 0.950 . S
C502 C503 1.443 . S
C502 N506 1.376 1_556 S
C502 C540 1.389 . S
C503 C502 1.443 . S
C503 C504 1.340 1_556 S
C503 H543 0.951 . S
C504 C503 1.340 1_554 S
C504 C505 1.439 . S
C504 H544 0.950 . S
C505 C504 1.439 . S
C505 N506 1.374 . S
C505 C539 1.395 . S
N506 C502 1.376 1_554 S
N506 C505 1.374 . S
N506 Co507 2.008 . S
Co507 N506 2.008 . S
Co507 N508 1.995 . S
Co507 N513 2.008 . S
Co507 N518 1.995 . S
Co507 N523 2.282 1_554 S
Co507 N529 2.282 . S
N508 Co507 1.995 . S
N508 C509 1.376 . S
N508 C512 1.383 . S
C509 N508 1.376 . S
C509 C510 1.446 . S
C509 C539 1.391 . S
C510 C509 1.446 . S
C510 C511 1.339 . S
C510 H545 0.949 . S
C511 C510 1.339 . S
C511 C512 1.439 . S
C511 H546 0.950 . S
C512 N508 1.383 . S
C512 C511 1.439 . S
C512 C541 1.392 . S
N513 Co507 2.008 . S
N513 C514 1.376 . S
N513 C517 1.374 . S
C514 N513 1.376 . S
C514 C515 1.443 . S
C514 C541 1.389 . S
C515 C514 1.443 . S
C515 C516 1.340 . S
C515 H547 0.951 . S
C516 C515 1.340 . S
C516 C517 1.439 . S
C516 H548 0.950 . S
C517 N513 1.374 . S
C517 C516 1.439 . S
C517 C542 1.395 . S
N518 Co507 1.995 . S
N518 C519 1.376 . S
N518 C522 1.383 1_554 S
C519 N518 1.376 . S
C519 C520 1.446 1_554 S
C519 C542 1.391 . S
C520 C519 1.446 1_556 S
C520 C521 1.339 . S
C520 H549 0.949 . S
C521 C520 1.339 . S
C521 C522 1.439 . S
C521 H550 0.950 . S
C522 N518 1.383 1_556 S
C522 C521 1.439 . S
C522 C540 1.392 . S
N523 Co507 2.282 1_556 S
N523 C526 1.332 . S
N523 C528 1.332 . S
C524 C525 1.386 . S
C524 C527 1.388 . S
C525 C524 1.386 . S
C525 C526 1.382 . S
C525 H551 0.950 . S
C526 N523 1.332 . S
C526 C525 1.382 . S
C526 H537 0.952 . S
C527 C524 1.388 . S
C527 C528 1.382 . S
C527 H552 0.950 . S
C528 N523 1.332 . S
C528 C527 1.382 . S
C528 H538 0.948 1_556 S
N529 Co507 2.282 . S
N529 C533 1.332 . S
N529 C534 1.332 . S
C530 C531 1.388 . S
C530 C534 1.382 . S
C530 H553 0.950 . S
C531 C530 1.388 . S
C531 C532 1.386 . S
C532 C531 1.386 . S
C532 C533 1.382 . S
C532 H554 0.950 . S
C533 N529 1.332 . S
C533 C532 1.382 . S
C533 H535 0.952 . S
C534 N529 1.332 . S
C534 C530 1.382 . S
C534 H536 0.948 . S
H535 C533 0.952 . S
H536 C534 0.948 . S
H537 C526 0.952 . S
H538 C528 0.948 1_554 S
C539 C505 1.395 . S
C539 C509 1.391 . S
C540 C502 1.389 . S
C540 C522 1.392 . S
C541 C512 1.392 . S
C541 C514 1.389 . S
C542 C517 1.395 . S
C542 C519 1.391 . S
H543 C503 0.951 . S
H544 C504 0.950 . S
H545 C510 0.949 . S
H546 C511 0.950 . S
H547 C515 0.951 . S
H548 C516 0.950 . S
H549 C520 0.949 . S
H550 C521 0.950 . S
H551 C525 0.950 . S
H552 C527 0.950 . S
H553 C530 0.950 . S
H554 C532 0.950 . S
C555 C556 1.443 . S
C555 N559 1.376 . S
C555 C593 1.389 . S
C556 C555 1.443 . S
C556 C557 1.340 . S
C556 H596 0.951 . S
C557 C556 1.340 . S
C557 C558 1.439 . S
C557 H597 0.950 . S
C558 C557 1.439 . S
C558 N559 1.374 . S
C558 C592 1.395 1_554 S
N559 C555 1.376 . S
N559 C558 1.374 . S
N559 Co560 2.008 . S
Co560 N559 2.008 . S
Co560 N561 1.995 1_554 S
Co560 N566 2.012 . S
Co560 N571 1.995 . S
Co560 N576 2.282 . S
Co560 N582 2.282 1_554 S
N561 Co560 1.995 1_556 S
N561 C562 1.376 . S
N561 C565 1.383 . S
C562 N561 1.376 . S
C562 C563 1.446 . S
C562 C592 1.391 . S
C563 C562 1.446 . S
C563 C564 1.339 . S
C563 H598 0.949 . S
C564 C563 1.339 . S
C564 C565 1.439 . S
C564 H599 0.950 . S
C565 N561 1.383 . S
C565 C564 1.439 . S
C565 C594 1.392 . S
N566 Co560 2.012 . S
N566 C567 1.371 1_554 S
N566 C570 1.376 . S
C567 N566 1.371 1_556 S
C567 C568 1.443 . S
C567 C594 1.389 . S
C568 C567 1.443 . S
C568 C569 1.340 . S
C568 H600 0.951 . S
C569 C568 1.340 . S
C569 C570 1.439 1_556 S
C569 H601 0.950 1_556 S
C570 N566 1.376 . S
C570 C569 1.439 1_554 S
C570 C595 1.395 . S
N571 Co560 1.995 . S
N571 C572 1.376 . S
N571 C575 1.383 . S
C572 N571 1.376 . S
C572 C573 1.446 . S
C572 C595 1.391 . S
C573 C572 1.446 . S
C573 C574 1.339 . S
C573 H602 0.949 . S
C574 C573 1.339 . S
C574 C575 1.439 . S
C574 H603 0.950 . S
C575 N571 1.383 . S
C575 C574 1.439 . S
C575 C593 1.392 . S
N576 Co560 2.282 . S
N576 C579 1.332 . S
N576 C581 1.332 . S
C577 C578 1.386 . S
C577 C580 1.388 . S
C578 C577 1.386 . S
C578 C579 1.382 . S
C578 H604 0.950 . S
C579 N576 1.332 . S
C579 C578 1.382 . S
C579 H590 0.952 . S
C580 C577 1.388 . S
C580 C581 1.382 . S
C580 H605 0.950 . S
C581 N576 1.332 . S
C581 C580 1.382 . S
C581 H591 0.948 . S
N582 Co560 2.282 1_556 S
N582 C586 1.332 . S
N582 C587 1.332 . S
C583 C584 1.388 . S
C583 C587 1.382 . S
C583 H606 0.950 . S
C584 C583 1.388 . S
C584 C585 1.386 . S
C585 C584 1.386 . S
C585 C586 1.382 . S
C585 H607 0.950 . S
C586 N582 1.332 . S
C586 C585 1.382 . S
C586 H588 0.952 . S
C587 N582 1.332 . S
C587 C583 1.382 . S
C587 H589 0.948 . S
H588 C586 0.952 . S
H589 C587 0.948 . S
H590 C579 0.952 . S
H591 C581 0.948 . S
C592 C558 1.395 1_556 S
C592 C562 1.391 . S
C593 C555 1.389 . S
C593 C575 1.392 . S
C594 C565 1.392 . S
C594 C567 1.389 . S
C595 C570 1.395 . S
C595 C572 1.391 . S
H596 C556 0.951 . S
H597 C557 0.950 . S
H598 C563 0.949 . S
H599 C564 0.950 . S
H600 C568 0.951 . S
H601 C569 0.950 1_554 S
H602 C573 0.949 . S
H603 C574 0.950 . S
H604 C578 0.950 . S
H605 C580 0.950 . S
H606 C583 0.950 . S
H607 C585 0.950 . S
C608 C609 1.369 . S
C608 C610 1.419 . S
C608 H612 0.930 . S
C609 C608 1.369 . S
C609 C618 1.429 . S
C610 C608 1.419 . S
C610 C611 1.363 . S
C610 H613 0.929 . S
C611 C610 1.363 . S
C611 C617 1.428 . S
H612 C608 0.930 . S
H613 C610 0.929 . S
S614 N615 1.613 . S
S614 N616 1.610 . S
N615 S614 1.613 . S
N615 C618 1.350 . S
N616 S614 1.610 . S
N616 C617 1.351 . S
C617 C611 1.428 . S
C617 N616 1.351 . S
C617 C618 1.434 . S
C618 C609 1.429 . S
C618 N615 1.350 . S
C618 C617 1.434 . S
C619 C620 1.369 . S
C619 C621 1.419 . S
C619 H623 0.930 . S
C620 C619 1.369 . S
C620 C629 1.429 . S
C621 C619 1.419 . S
C621 C622 1.363 . S
C621 H624 0.929 . S
C622 C621 1.363 . S
C622 C628 1.428 . S
H623 C619 0.930 . S
H624 C621 0.929 . S
S625 N626 1.613 . S
S625 N627 1.610 . S
N626 S625 1.613 . S
N626 C629 1.350 . S
N627 S625 1.610 . S
N627 C628 1.351 . S
C628 C622 1.428 . S
C628 N627 1.351 . S
C628 C629 1.434 . S
C629 C620 1.429 . S
C629 N626 1.350 . S
C629 C628 1.434 . S
C630 C631 1.369 . S
C630 C632 1.419 . S
C630 H634 0.930 . S
C631 C630 1.369 . S
C631 C640 1.429 . S
C632 C630 1.419 . S
C632 C633 1.363 . S
C632 H635 0.929 . S
C633 C632 1.363 . S
C633 C639 1.428 . S
H634 C630 0.930 . S
H635 C632 0.929 . S
S636 N637 1.613 . S
S636 N638 1.610 . S
N637 S636 1.613 . S
N637 C640 1.350 . S
N638 S636 1.610 . S
N638 C639 1.351 . S
C639 C633 1.428 . S
C639 N638 1.351 . S
C639 C640 1.434 . S
C640 C631 1.429 . S
C640 N637 1.350 . S
C640 C639 1.434 . S
C641 C642 1.369 . S
C641 C643 1.419 . S
C641 H645 0.930 . S
C642 C641 1.369 . S
C642 C651 1.429 . S
C643 C641 1.419 . S
C643 C644 1.363 . S
C643 H646 0.929 . S
C644 C643 1.363 . S
C644 C650 1.428 . S
H645 C641 0.930 . S
H646 C643 0.929 . S
S647 N648 1.613 . S
S647 N649 1.610 . S
N648 S647 1.613 . S
N648 C651 1.350 . S
N649 S647 1.610 . S
N649 C650 1.351 . S
C650 C644 1.428 . S
C650 N649 1.351 . S
C650 C651 1.434 . S
C651 C642 1.429 . S
C651 N648 1.350 . S
C651 C650 1.434 . S
C652 C653 1.369 . S
C652 C654 1.419 . S
C652 H656 0.930 . S
C653 C652 1.369 . S
C653 C662 1.429 . S
C654 C652 1.419 . S
C654 C655 1.363 . S
C654 H657 0.929 . S
C655 C654 1.363 . S
C655 C661 1.428 . S
H656 C652 0.930 . S
H657 C654 0.929 . S
S658 N659 1.613 . S
S658 N660 1.610 . S
N659 S658 1.613 . S
N659 C662 1.350 . S
N660 S658 1.610 . S
N660 C661 1.351 . S
C661 C655 1.428 . S
C661 N660 1.351 . S
C661 C662 1.434 . S
C662 C653 1.429 . S
C662 N659 1.350 . S
C662 C661 1.434 . S
C663 C664 1.369 . S
C663 C665 1.419 . S
C663 H667 0.930 . S
C664 C663 1.369 . S
C664 C673 1.429 . S
C665 C663 1.419 . S
C665 C666 1.363 . S
C665 H668 0.929 . S
C666 C665 1.363 . S
C666 C672 1.428 . S
H667 C663 0.930 . S
H668 C665 0.929 . S
S669 N670 1.613 . S
S669 N671 1.610 . S
N670 S669 1.613 . S
N670 C673 1.350 . S
N671 S669 1.610 . S
N671 C672 1.351 . S
C672 C666 1.428 . S
C672 N671 1.351 . S
C672 C673 1.434 . S
C673 C664 1.429 . S
C673 N670 1.350 . S
C673 C672 1.434 . S
C674 C675 1.369 . S
C674 C676 1.419 . S
C674 H678 0.930 . S
C675 C674 1.369 . S
C675 C684 1.429 . S
C676 C674 1.419 . S
C676 C677 1.363 . S
C676 H679 0.929 . S
C677 C676 1.363 . S
C677 C683 1.428 . S
H678 C674 0.930 . S
H679 C676 0.929 . S
S680 N681 1.613 . S
S680 N682 1.610 . S
N681 S680 1.613 . S
N681 C684 1.350 . S
N682 S680 1.610 . S
N682 C683 1.351 . S
C683 C677 1.428 . S
C683 N682 1.351 . S
C683 C684 1.434 . S
C684 C675 1.429 . S
C684 N681 1.350 . S
C684 C683 1.434 . S
C685 C686 1.369 . S
C685 C687 1.419 . S
C685 H689 0.930 . S
C686 C685 1.369 . S
C686 C695 1.429 . S
C687 C685 1.419 . S
C687 C688 1.363 . S
C687 H690 0.929 . S
C688 C687 1.363 . S
C688 C694 1.428 . S
H689 C685 0.930 . S
H690 C687 0.929 . S
S691 N692 1.613 . S
S691 N693 1.610 . S
N692 S691 1.613 . S
N692 C695 1.350 . S
N693 S691 1.610 . S
N693 C694 1.351 . S
C694 C688 1.428 . S
C694 N693 1.351 . S
C694 C695 1.434 . S
C695 C686 1.429 . S
C695 N692 1.350 . S
C695 C694 1.434 . S
C696 C697 1.369 . S
C696 C698 1.419 . S
C696 H700 0.930 . S
C697 C696 1.369 . S
C697 C706 1.429 . S
C698 C696 1.419 . S
C698 C699 1.363 . S
C698 H701 0.929 . S
C699 C698 1.363 . S
C699 C705 1.428 . S
H700 C696 0.930 . S
H701 C698 0.929 . S
S702 N703 1.613 . S
S702 N704 1.610 . S
N703 S702 1.613 . S
N703 C706 1.350 . S
N704 S702 1.610 . S
N704 C705 1.351 . S
C705 C699 1.428 . S
C705 N704 1.351 . S
C705 C706 1.434 . S
C706 C697 1.429 . S
C706 N703 1.350 . S
C706 C705 1.434 . S
C707 C708 1.369 . S
C707 C709 1.419 . S
C707 H711 0.930 . S
C708 C707 1.369 . S
C708 C717 1.429 . S
C709 C707 1.419 . S
C709 C710 1.363 . S
C709 H712 0.929 . S
C710 C709 1.363 . S
C710 C716 1.428 . S
H711 C707 0.930 . S
H712 C709 0.929 . S
S713 N714 1.613 . S
S713 N715 1.610 . S
N714 S713 1.613 . S
N714 C717 1.350 . S
N715 S713 1.610 . S
N715 C716 1.351 . S
C716 C710 1.428 . S
C716 N715 1.351 . S
C716 C717 1.434 . S
C717 C708 1.429 . S
C717 N714 1.350 . S
C717 C716 1.434 . S
C718 C719 1.369 . S
C718 C720 1.419 . S
C718 H722 0.930 . S
C719 C718 1.369 . S
C719 C728 1.429 . S
C720 C718 1.419 . S
C720 C721 1.363 . S
C720 H723 0.929 . S
C721 C720 1.363 . S
C721 C727 1.428 . S
H722 C718 0.930 . S
H723 C720 0.929 . S
S724 N725 1.613 . S
S724 N726 1.610 . S
N725 S724 1.613 . S
N725 C728 1.350 . S
N726 S724 1.610 . S
N726 C727 1.351 . S
C727 C721 1.428 . S
C727 N726 1.351 . S
C727 C728 1.434 . S
C728 C719 1.429 . S
C728 N725 1.350 . S
C728 C727 1.434 . S
C729 C730 1.369 . S
C729 C731 1.419 . S
C729 H733 0.930 . S
C730 C729 1.369 . S
C730 C739 1.429 . S
C731 C729 1.419 . S
C731 C732 1.363 . S
C731 H734 0.929 . S
C732 C731 1.363 . S
C732 C738 1.428 . S
H733 C729 0.930 . S
H734 C731 0.929 . S
S735 N736 1.613 . S
S735 N737 1.610 . S
N736 S735 1.613 . S
N736 C739 1.350 . S
N737 S735 1.610 . S
N737 C738 1.351 . S
C738 C732 1.428 . S
C738 N737 1.351 . S
C738 C739 1.434 . S
C739 C730 1.429 . S
C739 N736 1.350 . S
C739 C738 1.434 . S
C740 C741 1.369 . S
C740 C742 1.419 . S
C740 H744 0.930 . S
C741 C740 1.369 . S
C741 C750 1.429 . S
C742 C740 1.419 . S
C742 C743 1.363 . S
C742 H745 0.929 . S
C743 C742 1.363 . S
C743 C749 1.428 . S
H744 C740 0.930 . S
H745 C742 0.929 . S
S746 N747 1.613 . S
S746 N748 1.610 . S
N747 S746 1.613 . S
N747 C750 1.350 . S
N748 S746 1.610 . S
N748 C749 1.351 . S
C749 C743 1.428 . S
C749 N748 1.351 . S
C749 C750 1.434 . S
C750 C741 1.429 . S
C750 N747 1.350 . S
C750 C749 1.434 . S
C751 C752 1.369 . S
C751 C753 1.419 . S
C751 H755 0.930 . S
C752 C751 1.369 . S
C752 C761 1.429 . S
C753 C751 1.419 . S
C753 C754 1.363 . S
C753 H756 0.929 . S
C754 C753 1.363 . S
C754 C760 1.428 . S
H755 C751 0.930 . S
H756 C753 0.929 . S
S757 N758 1.613 . S
S757 N759 1.610 . S
N758 S757 1.613 . S
N758 C761 1.350 . S
N759 S757 1.610 . S
N759 C760 1.351 . S
C760 C754 1.428 . S
C760 N759 1.351 . S
C760 C761 1.434 . S
C761 C752 1.429 . S
C761 N758 1.350 . S
C761 C760 1.434 . S
C762 C763 1.369 . S
C762 C764 1.419 . S
C762 H766 0.930 . S
C763 C762 1.369 . S
C763 C772 1.429 . S
C764 C762 1.419 . S
C764 C765 1.363 . S
C764 H767 0.929 . S
C765 C764 1.363 . S
C765 C771 1.428 . S
H766 C762 0.930 . S
H767 C764 0.929 . S
S768 N769 1.613 . S
S768 N770 1.610 . S
N769 S768 1.613 . S
N769 C772 1.350 . S
N770 S768 1.610 . S
N770 C771 1.351 . S
C771 C765 1.428 . S
C771 N770 1.351 . S
C771 C772 1.434 . S
C772 C763 1.429 . S
C772 N769 1.350 . S
C772 C771 1.434 . S
C773 C774 1.369 . S
C773 C775 1.419 . S
C773 H777 0.930 . S
C774 C773 1.369 . S
C774 C783 1.429 . S
C775 C773 1.419 . S
C775 C776 1.363 . S
C775 H778 0.929 . S
C776 C775 1.363 . S
C776 C782 1.428 . S
H777 C773 0.930 . S
H778 C775 0.929 . S
S779 N780 1.613 . S
S779 N781 1.610 . S
N780 S779 1.613 . S
N780 C783 1.350 . S
N781 S779 1.610 . S
N781 C782 1.351 . S
C782 C776 1.428 . S
C782 N781 1.351 . S
C782 C783 1.434 . S
C783 C774 1.429 . S
C783 N780 1.350 . S
C783 C782 1.434 . S
C784 C785 1.369 . S
C784 C786 1.419 . S
C784 H788 0.930 . S
C785 C784 1.369 . S
C785 C794 1.429 . S
C786 C784 1.419 . S
C786 C787 1.363 . S
C786 H789 0.929 . S
C787 C786 1.363 . S
C787 C793 1.428 . S
H788 C784 0.930 . S
H789 C786 0.929 . S
S790 N791 1.613 . S
S790 N792 1.610 . S
N791 S790 1.613 . S
N791 C794 1.350 . S
N792 S790 1.610 . S
N792 C793 1.351 . S
C793 C787 1.428 . S
C793 N792 1.351 . S
C793 C794 1.434 . S
C794 C785 1.429 . S
C794 N791 1.350 . S
C794 C793 1.434 . S
C795 C796 1.369 . S
C795 C797 1.419 . S
C795 H799 0.930 . S
C796 C795 1.369 . S
C796 C805 1.429 . S
C797 C795 1.419 . S
C797 C798 1.363 . S
C797 H800 0.929 . S
C798 C797 1.363 . S
C798 C804 1.428 . S
H799 C795 0.930 . S
H800 C797 0.929 . S
S801 N802 1.613 . S
S801 N803 1.610 . S
N802 S801 1.613 . S
N802 C805 1.350 . S
N803 S801 1.610 . S
N803 C804 1.351 . S
C804 C798 1.428 . S
C804 N803 1.351 . S
C804 C805 1.434 . S
C805 C796 1.429 . S
C805 N802 1.350 . S
C805 C804 1.434 . S
C806 C807 1.369 . S
C806 C808 1.419 . S
C806 H810 0.930 . S
C807 C806 1.369 . S
C807 C816 1.429 . S
C808 C806 1.419 . S
C808 C809 1.363 . S
C808 H811 0.929 . S
C809 C808 1.363 . S
C809 C815 1.428 . S
H810 C806 0.930 . S
H811 C808 0.929 . S
S812 N813 1.613 . S
S812 N814 1.610 . S
N813 S812 1.613 . S
N813 C816 1.350 . S
N814 S812 1.610 . S
N814 C815 1.351 . S
C815 C809 1.428 . S
C815 N814 1.351 . S
C815 C816 1.434 . S
C816 C807 1.429 . S
C816 N813 1.350 . S
C816 C815 1.434 . S
C817 C818 1.369 . S
C817 C819 1.419 . S
C817 H821 0.930 . S
C818 C817 1.369 . S
C818 C827 1.429 . S
C819 C817 1.419 . S
C819 C820 1.363 . S
C819 H822 0.929 . S
C820 C819 1.363 . S
C820 C826 1.428 . S
H821 C817 0.930 . S
H822 C819 0.929 . S
S823 N824 1.613 . S
S823 N825 1.610 . S
N824 S823 1.613 . S
N824 C827 1.350 . S
N825 S823 1.610 . S
N825 C826 1.351 . S
C826 C820 1.428 . S
C826 N825 1.351 . S
C826 C827 1.434 . S
C827 C818 1.429 . S
C827 N824 1.350 . S
C827 C826 1.434 . S
C828 C829 1.369 . S
C828 C830 1.419 . S
C828 H832 0.930 . S
C829 C828 1.369 . S
C829 C838 1.429 . S
C830 C828 1.419 . S
C830 C831 1.363 . S
C830 H833 0.929 . S
C831 C830 1.363 . S
C831 C837 1.428 . S
H832 C828 0.930 . S
H833 C830 0.929 . S
S834 N835 1.613 . S
S834 N836 1.610 . S
N835 S834 1.613 . S
N835 C838 1.350 . S
N836 S834 1.610 . S
N836 C837 1.351 . S
C837 C831 1.428 . S
C837 N836 1.351 . S
C837 C838 1.434 . S
C838 C829 1.429 . S
C838 N835 1.350 . S
C838 C837 1.434 . S
C839 C840 1.369 . S
C839 C841 1.419 . S
C839 H843 0.930 . S
C840 C839 1.369 . S
C840 C849 1.429 . S
C841 C839 1.419 . S
C841 C842 1.363 . S
C841 H844 0.929 . S
C842 C841 1.363 . S
C842 C848 1.428 . S
H843 C839 0.930 . S
H844 C841 0.929 . S
S845 N846 1.613 . S
S845 N847 1.610 . S
N846 S845 1.613 . S
N846 C849 1.350 . S
N847 S845 1.610 . S
N847 C848 1.351 . S
C848 C842 1.428 . S
C848 N847 1.351 . S
C848 C849 1.434 . S
C849 C840 1.429 . S
C849 N846 1.350 . S
C849 C848 1.434 . S
C850 C851 1.369 . S
C850 C852 1.419 . S
C850 H854 0.930 . S
C851 C850 1.369 . S
C851 C860 1.429 . S
C852 C850 1.419 . S
C852 C853 1.363 . S
C852 H855 0.929 . S
C853 C852 1.363 . S
C853 C859 1.428 . S
H854 C850 0.930 . S
H855 C852 0.929 . S
S856 N857 1.613 . S
S856 N858 1.610 . S
N857 S856 1.613 . S
N857 C860 1.350 . S
N858 S856 1.610 . S
N858 C859 1.351 . S
C859 C853 1.428 . S
C859 N858 1.351 . S
C859 C860 1.434 . S
C860 C851 1.429 . S
C860 N857 1.350 . S
C860 C859 1.434 . S
C861 C862 1.369 . S
C861 C863 1.419 . S
C861 H865 0.930 . S
C862 C861 1.369 . S
C862 C871 1.429 . S
C863 C861 1.419 . S
C863 C864 1.363 . S
C863 H866 0.929 . S
C864 C863 1.363 . S
C864 C870 1.428 . S
H865 C861 0.930 . S
H866 C863 0.929 . S
S867 N868 1.613 . S
S867 N869 1.610 . S
N868 S867 1.613 . S
N868 C871 1.350 . S
N869 S867 1.610 . S
N869 C870 1.351 . S
C870 C864 1.428 . S
C870 N869 1.351 . S
C870 C871 1.434 . S
C871 C862 1.429 . S
C871 N868 1.350 . S
C871 C870 1.434 . S
C872 C873 1.369 . S
C872 C874 1.419 . S
C872 H876 0.930 . S
C873 C872 1.369 . S
C873 C882 1.429 . S
C874 C872 1.419 . S
C874 C875 1.363 . S
C874 H877 0.929 . S
C875 C874 1.363 . S
C875 C881 1.428 . S
H876 C872 0.930 . S
H877 C874 0.929 . S
S878 N879 1.613 . S
S878 N880 1.610 . S
N879 S878 1.613 . S
N879 C882 1.350 . S
N880 S878 1.610 . S
N880 C881 1.351 . S
C881 C875 1.428 . S
C881 N880 1.351 . S
C881 C882 1.434 . S
C882 C873 1.429 . S
C882 N879 1.350 . S
C882 C881 1.434 . S
C883 C884 1.369 . S
C883 C885 1.419 . S
C883 H887 0.930 . S
C884 C883 1.369 . S
C884 C893 1.429 . S
C885 C883 1.419 . S
C885 C886 1.363 . S
C885 H888 0.929 . S
C886 C885 1.363 . S
C886 C892 1.428 . S
H887 C883 0.930 . S
H888 C885 0.929 . S
S889 N890 1.613 . S
S889 N891 1.610 . S
N890 S889 1.613 . S
N890 C893 1.350 . S
N891 S889 1.610 . S
N891 C892 1.351 . S
C892 C886 1.428 . S
C892 N891 1.351 . S
C892 C893 1.434 . S
C893 C884 1.429 . S
C893 N890 1.350 . S
C893 C892 1.434 . S
C894 C895 1.369 . S
C894 C896 1.419 . S
C894 H898 0.930 . S
C895 C894 1.369 . S
C895 C904 1.429 . S
C896 C894 1.419 . S
C896 C897 1.363 . S
C896 H899 0.929 . S
C897 C896 1.363 . S
C897 C903 1.428 . S
H898 C894 0.930 . S
H899 C896 0.929 . S
S900 N901 1.613 . S
S900 N902 1.610 . S
N901 S900 1.613 . S
N901 C904 1.350 . S
N902 S900 1.610 . S
N902 C903 1.351 . S
C903 C897 1.428 . S
C903 N902 1.351 . S
C903 C904 1.434 . S
C904 C895 1.429 . S
C904 N901 1.350 . S
C904 C903 1.434 . S
C905 C906 1.369 . S
C905 C907 1.419 . S
C905 H909 0.930 . S
C906 C905 1.369 . S
C906 C915 1.429 . S
C907 C905 1.419 . S
C907 C908 1.363 . S
C907 H910 0.929 . S
C908 C907 1.363 . S
C908 C914 1.428 . S
H909 C905 0.930 . S
H910 C907 0.929 . S
S911 N912 1.613 . S
S911 N913 1.610 . S
N912 S911 1.613 . S
N912 C915 1.350 . S
N913 S911 1.610 . S
N913 C914 1.351 . S
C914 C908 1.428 . S
C914 N913 1.351 . S
C914 C915 1.434 . S
C915 C906 1.429 . S
C915 N912 1.350 . S
C915 C914 1.434 . S
C916 C917 1.369 . S
C916 C918 1.419 . S
C916 H920 0.930 . S
C917 C916 1.369 . S
C917 C926 1.429 . S
C918 C916 1.419 . S
C918 C919 1.363 . S
C918 H921 0.929 . S
C919 C918 1.363 . S
C919 C925 1.428 . S
H920 C916 0.930 . S
H921 C918 0.929 . S
S922 N923 1.613 . S
S922 N924 1.610 . S
N923 S922 1.613 . S
N923 C926 1.350 . S
N924 S922 1.610 . S
N924 C925 1.351 . S
C925 C919 1.428 . S
C925 N924 1.351 . S
C925 C926 1.434 . S
C926 C917 1.429 . S
C926 N923 1.350 . S
C926 C925 1.434 . S
C927 C928 1.369 . S
C927 C929 1.419 . S
C927 H931 0.930 . S
C928 C927 1.369 . S
C928 C937 1.429 . S
C929 C927 1.419 . S
C929 C930 1.363 . S
C929 H932 0.929 . S
C930 C929 1.363 . S
C930 C936 1.428 . S
H931 C927 0.930 . S
H932 C929 0.929 . S
S933 N934 1.613 . S
S933 N935 1.610 . S
N934 S933 1.613 . S
N934 C937 1.350 . S
N935 S933 1.610 . S
N935 C936 1.351 . S
C936 C930 1.428 . S
C936 N935 1.351 . S
C936 C937 1.434 . S
C937 C928 1.429 . S
C937 N934 1.350 . S
C937 C936 1.434 . S
C938 C939 1.369 . S
C938 C940 1.419 . S
C938 H942 0.930 . S
C939 C938 1.369 . S
C939 C948 1.429 . S
C940 C938 1.419 . S
C940 C941 1.363 . S
C940 H943 0.929 . S
C941 C940 1.363 . S
C941 C947 1.428 . S
H942 C938 0.930 . S
H943 C940 0.929 . S
S944 N945 1.613 1_554 S
S944 N946 1.610 1_554 S
N945 S944 1.613 1_556 S
N945 C948 1.350 . S
N946 S944 1.610 1_556 S
N946 C947 1.351 . S
C947 C941 1.428 . S
C947 N946 1.351 . S
C947 C948 1.434 . S
C948 C939 1.429 . S
C948 N945 1.350 . S
C948 C947 1.434 . S
C949 C950 1.369 . S
C949 C951 1.419 . S
C949 H953 0.930 . S
C950 C949 1.369 . S
C950 C959 1.429 . S
C951 C949 1.419 . S
C951 C952 1.363 . S
C951 H954 0.929 . S
C952 C951 1.363 . S
C952 C958 1.428 . S
H953 C949 0.930 . S
H954 C951 0.929 . S
S955 N956 1.613 . S
S955 N957 1.610 . S
N956 S955 1.613 . S
N956 C959 1.350 . S
N957 S955 1.610 . S
N957 C958 1.351 . S
C958 C952 1.428 . S
C958 N957 1.351 . S
C958 C959 1.434 . S
C959 C950 1.429 . S
C959 N956 1.350 . S
C959 C958 1.434 . S
C611 C213 1.567 . S
C609 C16 1.580 . S
C622 C266 1.340 . S
C620 C30 1.345 . S
C633 C329 1.639 . S
C631 C53 1.637 . S
C644 C372 1.324 . S
C642 C76 1.328 . S
C653 N104 1.478 . S
C655 C328 1.542 . S
C666 C365 1.320 . S
C664 N127 1.267 . S
C677 C206 1.452 . S
C675 N140 1.426 . S
C688 C259 1.197 . S
C686 N173 1.164 . S
C699 C312 1.525 . S
C697 C168 1.522 . S
C710 C381 1.881 . S
C708 C99 1.880 . S
C721 C222 1.608 . S
C719 C122 1.606 . S
C732 C275 1.767 . S
C730 C154 1.755 . S
C743 C223 1.537 . S
C741 N35 1.485 . S
C754 C276 1.748 . S
C752 N58 1.695 . S
C765 C319 1.461 . S
C763 N81 1.419 . S
C776 C382 1.694 . S
C774 N2 1.663 . S
C787 C425 1.520 . S
C785 C177 1.536 . S
C796 C108 1.728 . S
C798 C478 1.720 . S
C807 C131 1.684 . S
C809 C540 1.673 . S
C818 C145 1.739 . S
C820 C594 1.735 . S
C829 N25 1.485 . S
C831 C541 1.524 . S
C840 N48 1.669 . S
C842 C593 1.725 . S
C851 N71 1.474 . S
C853 C418 1.504 . S
C864 C471 1.559 . S
C862 N12 1.512 . S
C875 C531 1.505 . S
C873 C7 1.504 . S
C884 C39 1.405 . S
C886 C577 1.414 . S
C895 C62 1.646 . S
C897 C434 1.652 . S
C906 C85 1.322 . S
C908 C487 1.330 . S
C919 C435 1.504 . S
C917 N94 1.484 . S
C930 C488 1.370 . S
C928 N117 1.325 . S
C939 N150 1.441 . S
C941 C524 1.479 . S
C952 C584 1.271 . S
C950 N163 1.228 . S
