# Generated by pormake.
# Topology gar, (4,6)-cn, num edge types: 1
# Building blocks:
#     Node 0, Type 0, BuildingBlock: AZAVOO_clean_sbu_0, # of connection points: 4
#     Node 1, Type 0, BuildingBlock: AZAVOO_clean_sbu_0, # of connection points: 4
#     Node 2, Type 0, BuildingBlock: AZAVOO_clean_sbu_0, # of connection points: 4
#     Node 3, Type 0, BuildingBlock: AZAVOO_clean_sbu_0, # of connection points: 4
#     Node 4, Type 0, BuildingBlock: AZAVOO_clean_sbu_0, # of connection points: 4
#     Node 5, Type 0, BuildingBlock: AZAVOO_clean_sbu_0, # of connection points: 4
#     Node 6, Type 0, BuildingBlock: AZAVOO_clean_sbu_0, # of connection points: 4
#     Node 7, Type 0, BuildingBlock: AZAVOO_clean_sbu_0, # of connection points: 4
#     Node 8, Type 0, BuildingBlock: AZAVOO_clean_sbu_0, # of connection points: 4
#     Node 9, Type 0, BuildingBlock: AZAVOO_clean_sbu_0, # of connection points: 4
#     Node 10, Type 0, BuildingBlock: AZAVOO_clean_sbu_0, # of connection points: 4
#     Node 11, Type 0, BuildingBlock: AZAVOO_clean_sbu_0, # of connection points: 4
#     Node 12, Type 0, BuildingBlock: AZAVOO_clean_sbu_0, # of connection points: 4
#     Node 13, Type 0, BuildingBlock: AZAVOO_clean_sbu_0, # of connection points: 4
#     Node 14, Type 0, BuildingBlock: AZAVOO_clean_sbu_0, # of connection points: 4
#     Node 15, Type 0, BuildingBlock: AZAVOO_clean_sbu_0, # of connection points: 4
#     Node 16, Type 0, BuildingBlock: AZAVOO_clean_sbu_0, # of connection points: 4
#     Node 17, Type 0, BuildingBlock: AZAVOO_clean_sbu_0, # of connection points: 4
#     Node 18, Type 0, BuildingBlock: AZAVOO_clean_sbu_0, # of connection points: 4
#     Node 19, Type 0, BuildingBlock: AZAVOO_clean_sbu_0, # of connection points: 4
#     Node 20, Type 0, BuildingBlock: AZAVOO_clean_sbu_0, # of connection points: 4
#     Node 21, Type 0, BuildingBlock: AZAVOO_clean_sbu_0, # of connection points: 4
#     Node 22, Type 0, BuildingBlock: AZAVOO_clean_sbu_0, # of connection points: 4
#     Node 23, Type 0, BuildingBlock: AZAVOO_clean_sbu_0, # of connection points: 4
#     Node 24, Type 1, BuildingBlock: CUWYAW_clean_sbu_0, # of connection points: 6
#     Node 25, Type 1, BuildingBlock: CUWYAW_clean_sbu_0, # of connection points: 6
#     Node 26, Type 1, BuildingBlock: CUWYAW_clean_sbu_0, # of connection points: 6
#     Node 27, Type 1, BuildingBlock: CUWYAW_clean_sbu_0, # of connection points: 6
#     Node 28, Type 1, BuildingBlock: CUWYAW_clean_sbu_0, # of connection points: 6
#     Node 29, Type 1, BuildingBlock: CUWYAW_clean_sbu_0, # of connection points: 6
#     Node 30, Type 1, BuildingBlock: CUWYAW_clean_sbu_0, # of connection points: 6
#     Node 31, Type 1, BuildingBlock: CUWYAW_clean_sbu_0, # of connection points: 6
#     Node 32, Type 1, BuildingBlock: CUWYAW_clean_sbu_0, # of connection points: 6
#     Node 33, Type 1, BuildingBlock: CUWYAW_clean_sbu_0, # of connection points: 6
#     Node 34, Type 1, BuildingBlock: CUWYAW_clean_sbu_0, # of connection points: 6
#     Node 35, Type 1, BuildingBlock: CUWYAW_clean_sbu_0, # of connection points: 6
#     Node 36, Type 1, BuildingBlock: CUWYAW_clean_sbu_0, # of connection points: 6
#     Node 37, Type 1, BuildingBlock: CUWYAW_clean_sbu_0, # of connection points: 6
#     Node 38, Type 1, BuildingBlock: CUWYAW_clean_sbu_0, # of connection points: 6
#     Node 39, Type 1, BuildingBlock: CUWYAW_clean_sbu_0, # of connection points: 6
#     Edge 40, Type (0, 1), BuildingBlock: XIVTED_clean_linker_0, # of connection points: 2
#     Edge 41, Type (0, 1), BuildingBlock: XIVTED_clean_linker_0, # of connection points: 2
#     Edge 42, Type (0, 1), BuildingBlock: XIVTED_clean_linker_0, # of connection points: 2
#     Edge 43, Type (0, 1), BuildingBlock: XIVTED_clean_linker_0, # of connection points: 2
#     Edge 44, Type (0, 1), BuildingBlock: XIVTED_clean_linker_0, # of connection points: 2
#     Edge 45, Type (0, 1), BuildingBlock: XIVTED_clean_linker_0, # of connection points: 2
#     Edge 46, Type (0, 1), BuildingBlock: XIVTED_clean_linker_0, # of connection points: 2
#     Edge 47, Type (0, 1), BuildingBlock: XIVTED_clean_linker_0, # of connection points: 2
#     Edge 48, Type (0, 1), BuildingBlock: XIVTED_clean_linker_0, # of connection points: 2
#     Edge 49, Type (0, 1), BuildingBlock: XIVTED_clean_linker_0, # of connection points: 2
#     Edge 50, Type (0, 1), BuildingBlock: XIVTED_clean_linker_0, # of connection points: 2
#     Edge 51, Type (0, 1), BuildingBlock: XIVTED_clean_linker_0, # of connection points: 2
#     Edge 52, Type (0, 1), BuildingBlock: XIVTED_clean_linker_0, # of connection points: 2
#     Edge 53, Type (0, 1), BuildingBlock: XIVTED_clean_linker_0, # of connection points: 2
#     Edge 54, Type (0, 1), BuildingBlock: XIVTED_clean_linker_0, # of connection points: 2
#     Edge 55, Type (0, 1), BuildingBlock: XIVTED_clean_linker_0, # of connection points: 2
#     Edge 56, Type (0, 1), BuildingBlock: XIVTED_clean_linker_0, # of connection points: 2
#     Edge 57, Type (0, 1), BuildingBlock: XIVTED_clean_linker_0, # of connection points: 2
#     Edge 58, Type (0, 1), BuildingBlock: XIVTED_clean_linker_0, # of connection points: 2
#     Edge 59, Type (0, 1), BuildingBlock: XIVTED_clean_linker_0, # of connection points: 2
#     Edge 60, Type (0, 1), BuildingBlock: XIVTED_clean_linker_0, # of connection points: 2
#     Edge 61, Type (0, 1), BuildingBlock: XIVTED_clean_linker_0, # of connection points: 2
#     Edge 62, Type (0, 1), BuildingBlock: XIVTED_clean_linker_0, # of connection points: 2
#     Edge 63, Type (0, 1), BuildingBlock: XIVTED_clean_linker_0, # of connection points: 2
#     Edge 64, Type (0, 1), BuildingBlock: XIVTED_clean_linker_0, # of connection points: 2
#     Edge 65, Type (0, 1), BuildingBlock: XIVTED_clean_linker_0, # of connection points: 2
#     Edge 66, Type (0, 1), BuildingBlock: XIVTED_clean_linker_0, # of connection points: 2
#     Edge 67, Type (0, 1), BuildingBlock: XIVTED_clean_linker_0, # of connection points: 2
#     Edge 68, Type (0, 1), BuildingBlock: XIVTED_clean_linker_0, # of connection points: 2
#     Edge 69, Type (0, 1), BuildingBlock: XIVTED_clean_linker_0, # of connection points: 2
#     Edge 70, Type (0, 1), BuildingBlock: XIVTED_clean_linker_0, # of connection points: 2
#     Edge 71, Type (0, 1), BuildingBlock: XIVTED_clean_linker_0, # of connection points: 2
#     Edge 72, Type (0, 1), BuildingBlock: XIVTED_clean_linker_0, # of connection points: 2
#     Edge 73, Type (0, 1), BuildingBlock: XIVTED_clean_linker_0, # of connection points: 2
#     Edge 74, Type (0, 1), BuildingBlock: XIVTED_clean_linker_0, # of connection points: 2
#     Edge 75, Type (0, 1), BuildingBlock: XIVTED_clean_linker_0, # of connection points: 2
#     Edge 76, Type (0, 1), BuildingBlock: XIVTED_clean_linker_0, # of connection points: 2
#     Edge 77, Type (0, 1), BuildingBlock: XIVTED_clean_linker_0, # of connection points: 2
#     Edge 78, Type (0, 1), BuildingBlock: XIVTED_clean_linker_0, # of connection points: 2
#     Edge 79, Type (0, 1), BuildingBlock: XIVTED_clean_linker_0, # of connection points: 2
#     Edge 80, Type (0, 1), BuildingBlock: XIVTED_clean_linker_0, # of connection points: 2
#     Edge 81, Type (0, 1), BuildingBlock: XIVTED_clean_linker_0, # of connection points: 2
#     Edge 82, Type (0, 1), BuildingBlock: XIVTED_clean_linker_0, # of connection points: 2
#     Edge 83, Type (0, 1), BuildingBlock: XIVTED_clean_linker_0, # of connection points: 2
#     Edge 84, Type (0, 1), BuildingBlock: XIVTED_clean_linker_0, # of connection points: 2
#     Edge 85, Type (0, 1), BuildingBlock: XIVTED_clean_linker_0, # of connection points: 2
#     Edge 86, Type (0, 1), BuildingBlock: XIVTED_clean_linker_0, # of connection points: 2
#     Edge 87, Type (0, 1), BuildingBlock: XIVTED_clean_linker_0, # of connection points: 2
#     Edge 88, Type (0, 1), BuildingBlock: XIVTED_clean_linker_0, # of connection points: 2
#     Edge 89, Type (0, 1), BuildingBlock: XIVTED_clean_linker_0, # of connection points: 2
#     Edge 90, Type (0, 1), BuildingBlock: XIVTED_clean_linker_0, # of connection points: 2
#     Edge 91, Type (0, 1), BuildingBlock: XIVTED_clean_linker_0, # of connection points: 2
#     Edge 92, Type (0, 1), BuildingBlock: XIVTED_clean_linker_0, # of connection points: 2
#     Edge 93, Type (0, 1), BuildingBlock: XIVTED_clean_linker_0, # of connection points: 2
#     Edge 94, Type (0, 1), BuildingBlock: XIVTED_clean_linker_0, # of connection points: 2
#     Edge 95, Type (0, 1), BuildingBlock: XIVTED_clean_linker_0, # of connection points: 2
#     Edge 96, Type (0, 1), BuildingBlock: XIVTED_clean_linker_0, # of connection points: 2
#     Edge 97, Type (0, 1), BuildingBlock: XIVTED_clean_linker_0, # of connection points: 2
#     Edge 98, Type (0, 1), BuildingBlock: XIVTED_clean_linker_0, # of connection points: 2
#     Edge 99, Type (0, 1), BuildingBlock: XIVTED_clean_linker_0, # of connection points: 2
#     Edge 100, Type (0, 1), BuildingBlock: XIVTED_clean_linker_0, # of connection points: 2
#     Edge 101, Type (0, 1), BuildingBlock: XIVTED_clean_linker_0, # of connection points: 2
#     Edge 102, Type (0, 1), BuildingBlock: XIVTED_clean_linker_0, # of connection points: 2
#     Edge 103, Type (0, 1), BuildingBlock: XIVTED_clean_linker_0, # of connection points: 2
#     Edge 104, Type (0, 1), BuildingBlock: XIVTED_clean_linker_0, # of connection points: 2
#     Edge 105, Type (0, 1), BuildingBlock: XIVTED_clean_linker_0, # of connection points: 2
#     Edge 106, Type (0, 1), BuildingBlock: XIVTED_clean_linker_0, # of connection points: 2
#     Edge 107, Type (0, 1), BuildingBlock: XIVTED_clean_linker_0, # of connection points: 2
#     Edge 108, Type (0, 1), BuildingBlock: XIVTED_clean_linker_0, # of connection points: 2
#     Edge 109, Type (0, 1), BuildingBlock: XIVTED_clean_linker_0, # of connection points: 2
#     Edge 110, Type (0, 1), BuildingBlock: XIVTED_clean_linker_0, # of connection points: 2
#     Edge 111, Type (0, 1), BuildingBlock: XIVTED_clean_linker_0, # of connection points: 2
#     Edge 112, Type (0, 1), BuildingBlock: XIVTED_clean_linker_0, # of connection points: 2
#     Edge 113, Type (0, 1), BuildingBlock: XIVTED_clean_linker_0, # of connection points: 2
#     Edge 114, Type (0, 1), BuildingBlock: XIVTED_clean_linker_0, # of connection points: 2
#     Edge 115, Type (0, 1), BuildingBlock: XIVTED_clean_linker_0, # of connection points: 2
#     Edge 116, Type (0, 1), BuildingBlock: XIVTED_clean_linker_0, # of connection points: 2
#     Edge 117, Type (0, 1), BuildingBlock: XIVTED_clean_linker_0, # of connection points: 2
#     Edge 118, Type (0, 1), BuildingBlock: XIVTED_clean_linker_0, # of connection points: 2
#     Edge 119, Type (0, 1), BuildingBlock: XIVTED_clean_linker_0, # of connection points: 2
#     Edge 120, Type (0, 1), BuildingBlock: XIVTED_clean_linker_0, # of connection points: 2
#     Edge 121, Type (0, 1), BuildingBlock: XIVTED_clean_linker_0, # of connection points: 2
#     Edge 122, Type (0, 1), BuildingBlock: XIVTED_clean_linker_0, # of connection points: 2
#     Edge 123, Type (0, 1), BuildingBlock: XIVTED_clean_linker_0, # of connection points: 2
#     Edge 124, Type (0, 1), BuildingBlock: XIVTED_clean_linker_0, # of connection points: 2
#     Edge 125, Type (0, 1), BuildingBlock: XIVTED_clean_linker_0, # of connection points: 2
#     Edge 126, Type (0, 1), BuildingBlock: XIVTED_clean_linker_0, # of connection points: 2
#     Edge 127, Type (0, 1), BuildingBlock: XIVTED_clean_linker_0, # of connection points: 2
#     Edge 128, Type (0, 1), BuildingBlock: XIVTED_clean_linker_0, # of connection points: 2
#     Edge 129, Type (0, 1), BuildingBlock: XIVTED_clean_linker_0, # of connection points: 2
#     Edge 130, Type (0, 1), BuildingBlock: XIVTED_clean_linker_0, # of connection points: 2
#     Edge 131, Type (0, 1), BuildingBlock: XIVTED_clean_linker_0, # of connection points: 2
#     Edge 132, Type (0, 1), BuildingBlock: XIVTED_clean_linker_0, # of connection points: 2
#     Edge 133, Type (0, 1), BuildingBlock: XIVTED_clean_linker_0, # of connection points: 2
#     Edge 134, Type (0, 1), BuildingBlock: XIVTED_clean_linker_0, # of connection points: 2
#     Edge 135, Type (0, 1), BuildingBlock: XIVTED_clean_linker_0, # of connection points: 2
# Relax obj value: 0.235
# Max RMSD: 0.308
# Mean RMSD: 0.182
data_MOF--net-gar--node1-AZAVOO_clean_sbu_0--node2-CUWYAW_clean_sbu_0--edge1-XIVTED_clean_linker_0
_symmetry_space_group_name_H-M    P1
_symmetry_Int_Tables_number       1
_symmetry_cell_setting            triclinic
loop_
_symmetry_equiv_pos_as_xyz
'x, y, z'
_cell_length_a     65.906515
_cell_length_b     53.999818
_cell_length_c     55.185245
_cell_angle_alpha  100.73815
_cell_angle_beta   95.980825
_cell_angle_gamma 100.04669
loop_
_atom_site_label
_atom_site_type_symbol
_atom_site_fract_x
_atom_site_fract_y
_atom_site_fract_z
_atom_type_partial_charge
Mg0 Mg 0.06977 0.33331 0.4633 0.0
O1 O 0.09374 0.36857 0.48121 0.0
O2 O 0.08044 0.3851 0.5143 0.0
Mg3 Mg 0.04635 0.36694 0.51228 0.0
C4 C 0.09546 0.38476 0.50144 0.0
C5 C 0.09293 0.3217 0.4214 0.0
O6 O 0.07468 0.32327 0.41046 0.0
O7 O 0.07582 0.31349 0.49505 0.0
O8 O 0.05474 0.33016 0.51987 0.0
O9 O 0.05622 0.35511 0.43803 0.0
O10 O 0.04418 0.34886 0.47267 0.0
C11 C 0.06549 0.31321 0.51336 0.0
C12 C 0.04228 0.35764 0.45261 0.0
O13 O 0.09536 0.32119 0.44436 0.0
Mg14 Mg 0.99715 0.76664 0.66518 0.0
O15 O 0.99761 0.72746 0.63963 0.0
O16 O 0.96803 0.7068 0.61517 0.0
Mg17 Mg 0.9486 0.73855 0.62065 0.0
C18 C 0.9866 0.70738 0.62484 0.0
C19 C 0.03784 0.75133 0.68057 0.0
O20 O 0.02365 0.73205 0.68305 0.0
O21 O 0.99953 0.7541 0.62496 0.0
O22 O 0.97323 0.76612 0.60578 0.0
O23 O 0.98511 0.73472 0.68192 0.0
O24 O 0.96327 0.75195 0.66109 0.0
C25 C 0.99258 0.76591 0.60931 0.0
C26 C 0.96632 0.73572 0.67482 0.0
O27 O 0.0322 0.77092 0.67445 0.0
Mg28 Mg 0.57685 0.80913 0.94882 0.0
O29 O 0.59158 0.85151 0.95814 0.0
O30 O 0.56479 0.87084 0.96483 0.0
Mg31 Mg 0.53364 0.84368 0.95819 0.0
C32 C 0.58415 0.87163 0.96381 0.0
C33 C 0.62597 0.81046 0.95166 0.0
O34 O 0.64378 0.80758 0.96275 0.0
O35 O 0.57206 0.81128 0.98912 0.0
O36 O 0.5438 0.82864 0.99246 0.0
O37 O 0.56827 0.80976 0.90735 0.0
O38 O 0.54807 0.81584 0.93614 0.0
C39 C 0.55794 0.81817 1.00155 0.0
C40 C 0.55093 0.81503 0.91364 0.0
O41 O 0.60927 0.80185 0.95947 0.0
Mg42 Mg 0.49897 0.24929 0.15416 0.0
O43 O 0.49282 0.20672 0.14238 0.0
O44 O 0.47051 0.20419 0.10853 0.0
Mg45 Mg 0.44869 0.232 0.12052 0.0
C46 C 0.48523 0.19632 0.11997 0.0
C47 C 0.54428 0.24265 0.1448 0.0
O48 O 0.53581 0.23045 0.12219 0.0
O49 O 0.50004 0.2507 0.11412 0.0
O50 O 0.47016 0.26274 0.10518 0.0
O51 O 0.4905 0.24479 0.19002 0.0
O52 O 0.46835 0.24584 0.15713 0.0
C53 C 0.4891 0.2626 0.10208 0.0
C54 C 0.47148 0.24158 0.17937 0.0
O55 O 0.53317 0.25181 0.16022 0.0
Mg56 Mg 0.07629 0.82238 0.19138 0.0
O57 O 0.06899 0.7842 0.16257 0.0
O58 O 0.03649 0.77934 0.14353 0.0
Mg59 Mg 0.02269 0.81372 0.15941 0.0
C60 C 0.05359 0.77152 0.14649 0.0
C61 C 0.11594 0.79906 0.20335 0.0
O62 O 0.10114 0.77916 0.20291 0.0
O63 O 0.08031 0.84507 0.15973 0.0
O64 O 0.04681 0.83837 0.14295 0.0
O65 O 0.06074 0.80267 0.21965 0.0
O66 O 0.04486 0.82154 0.19332 0.0
C67 C 0.06598 0.84817 0.14359 0.0
C68 C 0.04385 0.80893 0.21075 0.0
O69 O 0.1109 0.81947 0.19831 0.0
Mg70 Mg 0.4969 0.7491 0.41425 0.0
O71 O 0.49912 0.78526 0.44411 0.0
O72 O 0.47074 0.78146 0.46312 0.0
Mg73 Mg 0.45055 0.74198 0.44587 0.0
C74 C 0.48824 0.79416 0.46022 0.0
C75 C 0.53571 0.76637 0.38958 0.0
O76 O 0.52044 0.76371 0.3714 0.0
O77 O 0.50522 0.72739 0.44421 0.0
O78 O 0.47614 0.72297 0.46185 0.0
O79 O 0.47965 0.7667 0.38739 0.0
O80 O 0.46426 0.74283 0.41123 0.0
C81 C 0.49462 0.71921 0.46021 0.0
C82 C 0.46277 0.75748 0.39545 0.0
O83 O 0.53133 0.76161 0.41036 0.0
Mg84 Mg 0.57411 0.31718 0.68786 0.0
O85 O 0.56843 0.2813 0.65695 0.0
O86 O 0.53748 0.27795 0.63456 0.0
Mg87 Mg 0.52225 0.31035 0.65197 0.0
C88 C 0.55434 0.26993 0.63877 0.0
C89 C 0.61779 0.32433 0.71697 0.0
O90 O 0.60804 0.33789 0.73248 0.0
O91 O 0.58037 0.34338 0.65964 0.0
O92 O 0.54738 0.33945 0.64211 0.0
O93 O 0.55709 0.29485 0.71322 0.0
O94 O 0.54215 0.31501 0.68746 0.0
C95 C 0.5667 0.34942 0.64477 0.0
C96 C 0.54031 0.30089 0.70367 0.0
O97 O 0.60817 0.31326 0.69547 0.0
Mg98 Mg 0.99635 0.25355 0.91565 0.0
O99 O 0.99757 0.28873 0.94611 0.0
O100 O 0.96868 0.28393 0.96406 0.0
Mg101 Mg 0.94912 0.24436 0.94535 0.0
C102 C 0.98629 0.297 0.96201 0.0
C103 C 0.0378 0.25229 0.89662 0.0
O104 O 0.02547 0.23108 0.88378 0.0
O105 O 1.00434 0.23092 0.94505 0.0
O106 O 0.9745 0.22531 0.96115 0.0
O107 O 0.97872 0.27102 0.88868 0.0
O108 O 0.9642 0.24561 0.91188 0.0
C109 C 0.99311 0.22185 0.96012 0.0
C110 C 0.96209 0.25998 0.89605 0.0
O111 O 0.03049 0.26711 0.9126 0.0
Mg112 Mg 0.42837 0.06077 0.29968 0.0
O113 O 0.40278 0.02245 0.29606 0.0
O114 O 0.38803 0.03037 0.33063 0.0
Mg115 Mg 0.40328 0.06939 0.35661 0.0
C116 C 0.38948 1.01545 0.31022 0.0
C117 C 0.45422 0.06099 0.25422 0.0
O118 O 0.46684 0.07459 0.27406 0.0
O119 O 0.40365 0.08728 0.29212 0.0
O120 O 0.39308 0.09469 0.32957 0.0
O121 O 0.45224 0.04386 0.32156 0.0
O122 O 0.43191 0.0666 0.3401 0.0
C123 C 0.3935 0.09923 0.30767 0.0
C124 C 0.44625 0.05343 0.34224 0.0
O125 O 0.43563 0.0515 0.25732 0.0
Mg126 Mg 0.26091 0.15595 0.51871 0.0
O127 O 0.26407 0.1833 0.55686 0.0
O128 O 0.29452 0.21092 0.56298 0.0
Mg129 Mg 0.3118 0.20018 0.52989 0.0
C130 C 0.27731 0.20241 0.57006 0.0
C131 C 0.22109 0.13014 0.53688 0.0
O132 O 0.23625 0.12627 0.55229 0.0
O133 O 0.25567 0.18732 0.49681 0.0
O134 O 0.28771 0.21172 0.50346 0.0
O135 O 0.27717 0.12919 0.53686 0.0
O136 O 0.29342 0.16062 0.52145 0.0
C137 C 0.26876 0.20633 0.49319 0.0
C138 C 0.29452 0.14217 0.53293 0.0
O139 O 0.22579 0.14268 0.52019 0.0
Mg140 Mg 0.15508 1.01359 0.81765 0.0
O141 O 0.17816 0.05358 0.82073 0.0
O142 O 0.19839 0.06246 0.85729 0.0
Mg143 Mg 0.18875 0.02872 0.87767 0.0
C144 C 0.19281 0.06855 0.83666 0.0
C145 C 0.12478 1.00773 0.76564 0.0
O146 O 0.11152 0.9992 0.77983 0.0
O147 O 0.18102 0.98695 0.81103 0.0
O148 O 0.1986 0.99632 0.8495 0.0
O149 O 0.13146 0.03217 0.83975 0.0
O150 O 0.15603 0.01731 0.85823 0.0
C151 C 0.19513 0.98293 0.82717 0.0
C152 C 0.13986 0.02755 0.86023 0.0
O153 O 0.14412 1.01424 0.77483 0.0
Mg154 Mg 0.25455 0.85292 0.04704 0.0
O155 O 0.23722 0.83636 1.00846 0.0
O156 O 0.25589 0.80968 0.99009 0.0
Mg157 Mg 0.28691 0.81347 0.01341 0.0
C158 C 0.23949 0.81915 0.99058 0.0
C159 C 0.21914 0.8789 0.04122 0.0
O160 O 0.22995 0.88233 0.02302 0.0
O161 O 0.24496 0.81402 0.05662 0.0
O162 O 0.26936 0.7948 0.04055 0.0
O163 O 0.27216 0.8866 0.03536 0.0
O164 O 0.28357 0.85057 0.03522 0.0
C165 C 0.25474 0.79544 0.05402 0.0
C166 C 0.28641 0.87339 0.03081 0.0
O167 O 0.2253 0.86633 0.05688 0.0
Mg168 Mg 0.32328 0.4194 0.08543 0.0
O169 O 0.31969 0.38887 0.04922 0.0
O170 O 0.34806 0.37147 0.05074 0.0
Mg171 Mg 0.36937 0.38946 0.08749 0.0
C172 C 0.3306 0.37331 0.03953 0.0
C173 C 0.28052 0.4265 0.05744 0.0
O174 O 0.29147 0.42702 0.0389 0.0
O175 O 0.31548 0.38842 0.10836 0.0
O176 O 0.34511 0.37356 0.11023 0.0
O177 O 0.34231 0.44876 0.06773 0.0
O178 O 0.35545 0.42346 0.08929 0.0
C179 C 0.327 0.37401 0.11634 0.0
C180 C 0.35847 0.44081 0.07638 0.0
O181 O 0.28901 0.42308 0.07803 0.0
Mg182 Mg 0.83737 0.21529 0.06406 0.0
O183 O 0.85039 0.2178 0.10372 0.0
O184 O 0.87058 0.25657 0.10877 0.0
Mg185 Mg 0.88681 0.25508 0.07334 0.0
C186 C 0.8591 0.23951 0.11733 0.0
C187 C 0.79679 0.20262 0.08997 0.0
O188 O 0.80988 0.20843 0.11068 0.0
O189 O 0.83681 0.25727 0.07611 0.0
O190 O 0.86024 0.27072 0.0537 0.0
O191 O 0.84642 0.17841 0.05387 0.0
O192 O 0.86767 0.21612 0.05772 0.0
C193 C 0.84234 0.27062 0.06059 0.0
C194 C 0.86508 0.19146 0.05498 0.0
O195 O 0.80352 0.20413 0.06946 0.0
Mg196 Mg 0.15124 0.50588 0.30891 0.0
O197 O 0.17448 0.54573 0.31341 0.0
O198 O 0.19401 0.553 0.35043 0.0
Mg199 Mg 0.18392 0.51966 0.37044 0.0
C200 C 0.18907 0.55985 0.33001 0.0
C201 C 0.12746 0.52083 0.26181 0.0
O202 O 0.122 0.53456 0.28143 0.0
O203 O 0.17759 0.4803 0.30296 0.0
O204 O 0.19464 0.48912 0.34179 0.0
O205 O 0.12721 0.52366 0.33089 0.0
O206 O 0.15219 0.50934 0.34917 0.0
C207 C 0.19171 0.47655 0.31922 0.0
C208 C 0.13594 0.51928 0.35129 0.0
O209 O 0.14043 0.50634 0.26579 0.0
Mg210 Mg 0.82317 0.91563 0.58525 0.0
O211 O 0.82016 0.88473 0.54987 0.0
O212 O 0.8478 0.86616 0.55226 0.0
Mg213 Mg 0.86882 0.88557 0.58922 0.0
C214 C 0.83065 0.86845 0.54065 0.0
C215 C 0.78229 0.93568 0.58943 0.0
O216 O 0.79467 0.94972 0.60925 0.0
O217 O 0.8146 0.88546 0.60885 0.0
O218 O 0.84445 0.87131 0.61315 0.0
O219 O 0.8413 0.94421 0.56697 0.0
O220 O 0.85577 0.92039 0.58932 0.0
C221 C 0.82611 0.87199 0.61845 0.0
C222 C 0.85794 0.93708 0.57543 0.0
O223 O 0.78916 0.91864 0.57525 0.0
Mg224 Mg 0.92303 0.05345 0.29066 0.0
O225 O 0.89775 1.0144 0.28872 0.0
O226 O 0.8836 0.02282 0.32378 0.0
Mg227 Mg 0.89942 0.06216 0.34908 0.0
C228 C 0.88484 1.00755 0.30349 0.0
C229 C 0.94775 0.05782 0.24354 0.0
O230 O 0.95888 0.07476 0.26259 0.0
O231 O 0.898 0.08085 0.28485 0.0
O232 O 0.8883 0.0876 0.32284 0.0
O233 O 0.94782 0.03735 0.31255 0.0
O234 O 0.92741 0.05995 0.33103 0.0
C235 C 0.88816 0.09261 0.30108 0.0
C236 C 0.94208 0.04734 0.33324 0.0
O237 O 0.93061 0.04465 0.24762 0.0
Mg238 Mg 0.33091 0.71174 0.54772 0.0
O239 O 0.33768 0.72678 0.59104 0.0
O240 O 0.37042 0.74512 0.6078 0.0
Mg241 Mg 0.38387 0.75176 0.5719 0.0
C242 C 0.35187 0.73514 0.61003 0.0
C243 C 0.2918 0.69154 0.56994 0.0
O244 O 0.30659 0.68806 0.58607 0.0
O245 O 0.33433 0.74926 0.57454 0.0
O246 O 0.35832 0.77441 0.56116 0.0
O247 O 0.34443 0.68287 0.56302 0.0
O248 O 0.3645 0.71377 0.55078 0.0
C249 C 0.34003 0.76965 0.56695 0.0
C250 C 0.3627 0.69361 0.56025 0.0
O251 O 0.29656 0.70079 0.55124 0.0
Mg252 Mg 0.42471 0.55508 0.78992 0.0
O253 O 0.39983 0.51575 0.78817 0.0
O254 O 0.38713 0.52404 0.82421 0.0
Mg255 Mg 0.40238 0.56331 0.84948 0.0
C256 C 0.3877 0.50878 0.80366 0.0
C257 C 0.45141 0.55232 0.74489 0.0
O258 O 0.46421 0.56202 0.76572 0.0
O259 O 0.3995 0.58253 0.78487 0.0
O260 O 0.391 0.58836 0.82342 0.0
O261 O 0.45008 0.53954 0.81167 0.0
O262 O 0.42956 0.56179 0.83022 0.0
C263 C 0.39025 0.59404 0.80192 0.0
C264 C 0.44444 0.5496 0.83238 0.0
O265 O 0.43196 0.54619 0.74691 0.0
Mg266 Mg 0.65136 1.0105 0.80949 0.0
O267 O 0.67459 0.04994 0.81352 0.0
O268 O 0.6952 0.05742 0.84977 0.0
Mg269 Mg 0.68498 0.02458 0.87037 0.0
C270 C 0.68969 0.064 0.82938 0.0
C271 C 0.62162 1.00569 0.75788 0.0
O272 O 0.60848 0.99876 0.77288 0.0
O273 O 0.67742 0.98489 0.80322 0.0
O274 O 0.69525 0.99375 0.84169 0.0
O275 O 0.62776 0.02858 0.83186 0.0
O276 O 0.65293 1.0141 0.84968 0.0
C277 C 0.6918 0.98114 0.81912 0.0
C278 C 0.63676 0.02413 0.85212 0.0
O279 O 0.64106 1.01126 0.76651 0.0
Mg280 Mg 0.76117 0.65973 0.02006 0.0
O281 O 0.76752 0.68943 0.05723 0.0
O282 O 0.79978 0.71218 0.06052 0.0
Mg283 Mg 0.81395 0.69878 0.02558 0.0
C284 C 0.78271 0.70695 0.06923 0.0
C285 C 0.72107 0.6265 0.02894 0.0
O286 O 0.73529 0.61225 0.02937 0.0
O287 O 0.75649 0.69062 0.99709 0.0
O288 O 0.78943 0.71214 1.00148 0.0
O289 O 0.77713 0.63298 0.03892 0.0
O290 O 0.79323 0.66118 0.01978 0.0
C291 C 0.77021 0.70852 0.99261 0.0
C292 C 0.79428 0.64376 0.03253 0.0
O293 O 0.7263 0.64906 0.0249 0.0
Mg294 Mg 0.92842 0.56636 0.80119 0.0
O295 O 0.90349 0.52722 0.79726 0.0
O296 O 0.88987 0.53355 0.83278 0.0
Mg297 Mg 0.90336 0.57299 0.85824 0.0
C298 C 0.89114 0.51918 0.81201 0.0
C299 C 0.95427 0.56293 0.75492 0.0
O300 O 0.96816 0.57331 0.77469 0.0
O301 O 0.90298 0.59237 0.79422 0.0
O302 O 0.89012 0.59572 0.83033 0.0
O303 O 0.95268 0.54965 0.82263 0.0
O304 O 0.93237 0.57191 0.84185 0.0
C305 C 0.89084 0.60153 0.80894 0.0
C306 C 0.94682 0.55876 0.84354 0.0
O307 O 0.9352 0.55709 0.75847 0.0
Mg308 Mg 0.74714 0.37209 0.55789 0.0
O309 O 0.74327 0.34272 0.51908 0.0
O310 O 0.76992 0.32174 0.51621 0.0
Mg311 Mg 0.7923 0.33784 0.55102 0.0
C312 C 0.75213 0.32528 0.50784 0.0
C313 C 0.72885 0.38245 0.50672 0.0
O314 O 0.738 0.38745 0.48764 0.0
O315 O 0.73521 0.33402 0.56924 0.0
O316 O 0.76453 0.31905 0.56619 0.0
O317 O 0.76829 0.40574 0.54641 0.0
O318 O 0.7794 0.37257 0.55426 0.0
C319 C 0.74589 0.31672 0.57114 0.0
C320 C 0.78323 0.39353 0.54686 0.0
O321 O 0.73371 0.36456 0.51703 0.0
Mg322 Mg 0.65379 0.51304 0.31587 0.0
O323 O 0.67771 0.55262 0.31958 0.0
O324 O 0.69892 0.55834 0.35502 0.0
Mg325 Mg 0.68793 0.52516 0.37528 0.0
C326 C 0.69335 0.5659 0.33519 0.0
C327 C 0.62686 0.49956 0.25984 0.0
O328 O 0.61729 0.48039 0.26861 0.0
O329 O 0.67878 0.48555 0.30799 0.0
O330 O 0.69684 0.49316 0.34613 0.0
O331 O 0.63103 0.53226 0.33861 0.0
O332 O 0.6551 0.51584 0.35619 0.0
C333 C 0.69289 0.48061 0.3235 0.0
C334 C 0.63937 0.52683 0.35873 0.0
O335 O 0.64264 0.51489 0.27361 0.0
C336 C 0.10056 0.07073 0.08448 0.0
Eu337 Eu 0.06186 0.05309 0.0672 0.0
C338 C 0.11703 0.05673 0.0782 0.0
C339 C 0.1316 0.05348 0.09715 0.0
C340 C 0.14259 0.03352 0.09272 0.0
C341 C 0.13894 0.01656 0.06934 0.0
C342 C 0.12511 0.0208 0.05015 0.0
C343 C 0.11437 0.04074 0.05451 0.0
C344 C 0.0292 0.05202 0.09525 0.0
C345 C 0.05227 0.99065 0.05989 0.0
C346 C 0.98268 1.00117 0.0174 0.0
Eu347 Eu 0.02165 0.02023 0.03281 0.0
C348 C 0.96525 1.01295 0.02471 0.0
C349 C 0.94938 1.01462 1.00644 0.0
C350 C 0.9367 0.03258 0.01177 0.0
C351 C 0.9398 0.04897 0.03541 0.0
C352 C 0.95458 0.04574 0.05416 0.0
C353 C 0.96726 0.028 0.0488 0.0
C354 C 0.05392 0.02328 1.00422 0.0
C355 C 0.03319 0.0824 0.03833 0.0
O356 O 0.09109 0.07885 0.06622 0.0
O357 O 0.08757 0.05893 0.09696 0.0
O358 O 0.04785 0.06539 0.10248 0.0
O359 O 0.02841 0.04122 0.07247 0.0
O360 O 0.0662 1.01233 0.06543 0.0
O361 O 0.0332 0.98906 0.04882 0.0
O362 O 0.99338 0.99335 0.03492 0.0
O363 O 0.99457 1.01445 1.00483 0.0
O364 O 0.03501 1.01097 0.99625 0.0
O365 O 0.0547 0.0328 0.02733 0.0
O366 O 0.01823 0.06171 0.03491 0.0
O367 O 0.05235 0.08306 0.04828 0.0
H368 H 0.13344 0.0652 0.11575 0.0
H369 H 0.15337 0.03085 0.10777 0.0
H370 H 0.12162 1.0078 0.03212 0.0
H371 H 0.10271 0.04234 0.03986 0.0
H372 H 0.94786 1.0035 0.98762 0.0
H373 H 0.92524 0.03459 0.99708 0.0
H374 H 0.95756 0.05835 0.07242 0.0
H375 H 0.97979 0.02766 0.06295 0.0
C376 C 0.27746 0.80493 0.37549 0.0
Eu377 Eu 0.28366 0.7947 0.32952 0.0
C378 C 0.26616 0.79181 0.39255 0.0
C379 C 0.24945 0.80142 0.40192 0.0
C380 C 0.24154 0.79337 0.42222 0.0
C381 C 0.25065 0.77612 0.43372 0.0
C382 C 0.26523 0.76372 0.42201 0.0
C383 C 0.27304 0.77163 0.40158 0.0
C384 C 0.25672 0.79914 0.2909 0.0
C385 C 0.26784 0.73208 0.30677 0.0
C386 C 0.2939 0.76543 0.23128 0.0
Eu387 Eu 0.293 0.77205 0.27819 0.0
C388 C 0.30889 0.78044 0.21885 0.0
C389 C 0.32654 0.77143 0.21165 0.0
C390 C 0.33989 0.7852 0.19857 0.0
C391 C 0.33514 0.80747 0.1913 0.0
C392 C 0.31963 0.81857 0.20254 0.0
C393 C 0.30641 0.80495 0.21561 0.0
C394 C 0.32717 0.77471 0.31139 0.0
C395 C 0.31147 0.8335 0.30318 0.0
O396 O 0.29407 0.7969 0.36866 0.0
O397 O 0.26601 0.81076 0.35743 0.0
O398 O 0.26406 0.8175 0.31017 0.0
O399 O 0.26406 0.77936 0.29279 0.0
O400 O 0.27041 0.75179 0.326 0.0
O401 O 0.27455 0.73505 0.28543 0.0
O402 O 0.28095 0.77812 0.24225 0.0
O403 O 0.30132 0.75034 0.24453 0.0
O404 O 0.32583 0.76575 0.28776 0.0
O405 O 0.31046 0.78144 0.31613 0.0
O406 O 0.30547 0.81554 0.28245 0.0
O407 O 0.30713 0.82873 0.32492 0.0
H408 H 0.24362 0.81665 0.39486 0.0
H409 H 0.2301 0.80292 0.43072 0.0
H410 H 0.27255 0.75028 0.43038 0.0
H411 H 0.28557 0.76339 0.39427 0.0
H412 H 0.32958 0.75326 0.21519 0.0
H413 H 0.35258 0.77686 0.19192 0.0
H414 H 0.31584 0.83639 0.19903 0.0
H415 H 0.29366 0.81328 0.22216 0.0
C416 C 0.47806 0.03838 0.5655 0.0
Eu417 Eu 0.51617 0.03491 0.55923 0.0
C418 C 0.46165 0.05371 0.56375 0.0
C419 C 0.4526 0.06124 0.58518 0.0
C420 C 0.43588 0.07389 0.58414 0.0
C421 C 0.42772 0.07928 0.56158 0.0
C422 C 0.43724 0.0725 0.54024 0.0
C423 C 0.45403 0.05975 0.54129 0.0
C424 C 0.54532 0.02708 0.59584 0.0
C425 C 0.54846 0.08876 0.56166 0.0
C426 C 0.59941 0.03196 0.53488 0.0
Eu427 Eu 0.56107 0.03519 0.53991 0.0
C428 C 0.61506 1.01631 0.53917 0.0
C429 C 0.63005 1.01453 0.52302 0.0
C430 C 0.64562 1.00058 0.52691 0.0
C431 C 0.64653 0.98816 0.54712 0.0
C432 C 0.63099 0.98926 0.56281 0.0
C433 C 0.61534 1.00319 0.55883 0.0
C434 C 0.53176 0.04111 0.50255 0.0
C435 C 0.52867 0.98132 0.53647 0.0
O436 O 0.48289 0.02536 0.54503 0.0
O437 O 0.49417 0.04843 0.58263 0.0
O438 O 0.52589 0.02693 0.59769 0.0
O439 O 0.54788 0.03088 0.57433 0.0
O440 O 0.52891 0.07668 0.56008 0.0
O441 O 0.56407 0.07683 0.55772 0.0
O442 O 0.59417 0.0461 0.55439 0.0
O443 O 0.58357 0.02091 0.51769 0.0
O444 O 0.55114 0.04079 0.5007 0.0
O445 O 0.52929 0.03899 0.52459 0.0
O446 O 0.54826 0.99334 0.53832 0.0
O447 O 0.51315 0.99332 0.54106 0.0
H448 H 0.45823 0.05683 0.60273 0.0
H449 H 0.42919 0.07921 0.601 0.0
H450 H 0.43126 0.07623 0.52253 0.0
H451 H 0.46072 0.05418 0.52448 0.0
H452 H 0.62995 0.02438 0.50761 0.0
H453 H 0.65742 1.00039 0.51464 0.0
H454 H 0.63108 0.9796 0.57833 0.0
H455 H 0.60368 1.004 0.57127 0.0
C456 C 0.34995 0.26769 0.80535 0.0
Eu457 Eu 0.31124 0.27238 0.80451 0.0
C458 C 0.36763 0.26817 0.79109 0.0
C459 C 0.37847 0.24792 0.79005 0.0
C460 C 0.39607 0.24812 0.77804 0.0
C461 C 0.4033 0.2687 0.76687 0.0
C462 C 0.39207 0.28869 0.76732 0.0
C463 C 0.37436 0.28844 0.77935 0.0
C464 C 0.27889 0.23485 0.81116 0.0
C465 C 0.28304 0.26902 0.75161 0.0
C466 C 0.23004 0.29856 0.80489 0.0
Eu467 Eu 0.26849 0.29362 0.80391 0.0
C468 C 0.2132 0.29498 0.82007 0.0
C469 C 0.19856 0.31092 0.81997 0.0
C470 C 0.18212 0.30788 0.83384 0.0
C471 C 0.18 0.28877 0.84806 0.0
C472 C 0.19514 0.27334 0.84876 0.0
C473 C 0.21168 0.27648 0.83492 0.0
C474 C 0.30062 0.33194 0.79865 0.0
C475 C 0.29672 0.29665 0.85671 0.0
O476 O 0.34436 0.28943 0.81403 0.0
O477 O 0.33418 0.24852 0.79724 0.0
O478 O 0.29784 0.23189 0.80994 0.0
O479 O 0.27839 0.25764 0.80872 0.0
O480 O 0.30125 0.26762 0.76333 0.0
O481 O 0.26789 0.27697 0.763 0.0
O482 O 0.23533 0.27789 0.7927 0.0
O483 O 0.246 0.31692 0.81504 0.0
O484 O 0.28147 0.33419 0.79945 0.0
O485 O 0.30157 0.309 0.80045 0.0
O486 O 0.27801 0.29621 0.84503 0.0
O487 O 0.31219 0.29047 0.8449 0.0
H488 H 0.37345 0.23203 0.7989 0.0
H489 H 0.40408 0.2322 0.77764 0.0
H490 H 0.39731 0.30493 0.75906 0.0
H491 H 0.36619 0.30424 0.77982 0.0
H492 H 0.19967 0.32549 0.8088 0.0
H493 H 0.17063 0.31986 0.83265 0.0
H494 H 0.19405 0.25865 0.85979 0.0
H495 H 0.2231 0.26432 0.83556 0.0
C496 C 0.03538 0.9587 0.52167 0.0
Eu497 Eu 0.0384 1.00703 0.53963 0.0
C498 C 0.04461 0.93997 0.53295 0.0
C499 C 0.05941 0.928 0.52146 0.0
C500 C 0.06871 0.91073 0.53246 0.0
C501 C 0.06323 0.90515 0.55504 0.0
C502 C 0.04927 0.91831 0.56717 0.0
C503 C 0.04007 0.93555 0.55625 0.0
C504 C 0.0755 0.03922 0.54284 0.0
C505 C 0.05616 0.02664 0.59722 0.0
C506 C 0.04 0.1073 0.57642 0.0
Eu507 Eu 0.03693 0.05902 0.55913 0.0
C508 C 0.02905 0.12442 0.56457 0.0
C509 C 1.00938 0.12827 0.57037 0.0
C510 C 0.99816 0.14241 0.55721 0.0
C511 C 1.00642 0.15285 0.53805 0.0
C512 C 0.02578 0.14819 0.5318 0.0
C513 C 0.037 0.13437 0.545 0.0
C514 C 0.99985 0.02703 0.55607 0.0
C515 C 0.01789 0.03872 0.5016 0.0
O516 O 0.02072 0.96784 0.53253 0.0
O517 O 0.04876 0.97646 0.51549 0.0
O518 O 0.0732 0.01739 0.54969 0.0
O519 O 0.05812 0.04351 0.53461 0.0
O520 O 0.04686 1.00596 0.58037 0.0
O521 O 0.05661 0.04966 0.59198 0.0
O522 O 0.05411 0.09821 0.56436 0.0
O523 O 0.02821 0.08976 0.58495 0.0
O524 O 1.00205 0.04913 0.5498 0.0
O525 O 0.01726 0.02267 0.56411 0.0
O526 O 0.0258 0.0597 0.51879 0.0
O527 O 0.01934 1.01591 0.50629 0.0
H528 H 0.06355 0.93173 0.5038 0.0
H529 H 0.07941 0.90081 0.52278 0.0
H530 H 0.04433 0.91407 0.58432 0.0
H531 H 0.02909 0.94497 0.56592 0.0
H532 H 1.00271 0.12045 0.58512 0.0
H533 H 0.98345 0.14609 0.56263 0.0
H534 H 0.03303 0.1566 0.5177 0.0
H535 H 0.05199 0.1316 0.53984 0.0
C536 C 0.24529 0.73509 0.76141 0.0
Eu537 Eu 0.27426 0.76949 0.79072 0.0
C538 C 0.22459 0.73542 0.74905 0.0
C539 C 0.2071 0.7193 0.75402 0.0
C540 C 0.18719 0.72085 0.74394 0.0
C541 C 0.18452 0.73846 0.7286 0.0
C542 C 0.20209 0.7543 0.72341 0.0
C543 C 0.22195 0.7529 0.73364 0.0
C544 C 0.27633 0.78099 0.83987 0.0
C545 C 0.26994 0.82902 0.80551 0.0
C546 C 0.34384 0.83971 0.84637 0.0
Eu547 Eu 0.31326 0.8068 0.81778 0.0
C548 C 0.36592 0.83929 0.85417 0.0
C549 C 0.38167 0.85506 0.84557 0.0
C550 C 0.40252 0.85347 0.85113 0.0
C551 C 0.40808 0.83611 0.86548 0.0
C552 C 0.39236 0.8208 0.87462 0.0
C553 C 0.3715 0.82235 0.86903 0.0
C554 C 0.31057 0.79437 0.76794 0.0
C555 C 0.31699 0.74685 0.80336 0.0
O556 O 0.26127 0.7477 0.75351 0.0
O557 O 0.24713 0.73871 0.7857 0.0
O558 O 0.25928 0.77788 0.82474 0.0
O559 O 0.29153 0.77684 0.82889 0.0
O560 O 0.26205 0.80669 0.78981 0.0
O561 O 0.28822 0.83218 0.81978 0.0
O562 O 0.32974 0.82464 0.85493 0.0
O563 O 0.33879 0.8397 0.8228 0.0
O564 O 0.32761 0.79698 0.78299 0.0
O565 O 0.29604 0.79926 0.77979 0.0
O566 O 0.32551 0.76955 0.81803 0.0
O567 O 0.2984 0.74338 0.78995 0.0
H568 H 0.20883 0.70592 0.76613 0.0
H569 H 0.1739 0.70871 0.7486 0.0
H570 H 0.2005 0.76781 0.71143 0.0
H571 H 0.23517 0.76575 0.72971 0.0
H572 H 0.3778 0.86824 0.83404 0.0
H573 H 0.41423 0.86532 0.84357 0.0
H574 H 0.39616 0.8075 0.88602 0.0
H575 H 0.35977 0.80995 0.87602 0.0
C576 C 0.59874 0.05095 0.09274 0.0
Eu577 Eu 0.5615 0.03761 0.06798 0.0
C578 C 0.61865 0.06506 0.08868 0.0
C579 C 0.63709 0.06165 0.10141 0.0
C580 C 0.65605 0.07663 0.09934 0.0
C581 C 0.65675 0.0953 0.08459 0.0
C582 C 0.63829 0.09771 0.07083 0.0
C583 C 0.61933 0.08262 0.07283 0.0
C584 C 0.53926 0.98876 0.06014 0.0
C585 C 0.56374 0.0287 1.00724 0.0
C586 C 0.4854 1.01289 1.00802 0.0
Eu587 Eu 0.52249 0.02851 0.03303 0.0
C588 C 0.4653 0.99892 0.01196 0.0
C589 C 0.44699 1.00541 1.00209 0.0
C590 C 0.42767 0.99181 1.00492 0.0
C591 C 0.42638 0.97142 0.01762 0.0
C592 C 0.4448 0.96525 0.02789 0.0
C593 C 0.46414 0.979 0.0252 0.0
C594 C 0.54616 0.07628 0.03951 0.0
C595 C 0.5205 0.04008 0.09364 0.0
O596 O 0.58428 0.06452 0.09619 0.0
O597 O 0.59183 0.02853 0.07784 0.0
O598 O 0.54822 1.00223 0.08172 0.0
O599 O 0.54205 1.00239 0.0441 0.0
O600 O 0.57375 0.03857 0.03017 0.0
O601 O 0.54335 0.02027 1.00364 0.0
O602 O 0.50022 0.99966 1.00587 0.0
O603 O 0.49183 0.03604 0.02179 0.0
O604 O 0.53492 0.064 0.01868 0.0
O605 O 0.54262 0.06381 0.05621 0.0
O606 O 0.51048 0.02864 0.07106 0.0
O607 O 0.54085 0.04862 0.09681 0.0
H608 H 0.63676 0.04785 0.1134 0.0
H609 H 0.67013 0.07398 0.10967 0.0
H610 H 0.63836 0.11195 0.05936 0.0
H611 H 0.60515 0.0852 0.06263 0.0
H612 H 0.44764 0.02082 0.99193 0.0
H613 H 0.41373 0.99685 0.99663 0.0
H614 H 0.44424 0.94986 0.03806 0.0
H615 H 0.47816 0.97394 0.03326 0.0
C616 C 0.34695 0.33399 0.3366 0.0
Eu617 Eu 0.31047 0.30589 0.31956 0.0
C618 C 0.36605 0.33178 0.32567 0.0
C619 C 0.38258 0.32454 0.33904 0.0
C620 C 0.39744 0.31402 0.32644 0.0
C621 C 0.3959 0.31102 0.30047 0.0
C622 C 0.38034 0.32025 0.28755 0.0
C623 C 0.36563 0.33061 0.3 0.0
C624 C 0.28309 0.288 0.3488 0.0
C625 C 0.31658 0.24612 0.29777 0.0
C626 C 0.23797 0.23721 0.28146 0.0
Eu627 Eu 0.27409 0.26704 0.29063 0.0
C628 C 0.22126 0.24266 0.29563 0.0
C629 C 0.20163 0.24312 0.28335 0.0
C630 C 0.18813 0.25627 0.29612 0.0
C631 C 0.19436 0.26894 0.3211 0.0
C632 C 0.21378 0.26793 0.33331 0.0
C633 C 0.22697 0.25481 0.32075 0.0
C634 C 0.29377 0.28693 0.25614 0.0
C635 C 0.2698 0.3277 0.30622 0.0
O636 O 0.33267 0.34175 0.32324 0.0
O637 O 0.33927 0.31407 0.34546 0.0
O638 O 0.29244 0.31175 0.35207 0.0
O639 O 0.28871 0.27486 0.33021 0.0
O640 O 0.32539 0.27047 0.30803 0.0
O641 O 0.2964 0.23953 0.28968 0.0
O642 O 0.25398 0.23148 0.29388 0.0
O643 O 0.24344 0.25467 0.26865 0.0
O644 O 0.27816 0.26785 0.25108 0.0
O645 O 0.29972 0.29363 0.27933 0.0
O646 O 0.26013 0.30326 0.30237 0.0
O647 O 0.29032 0.3336 0.31015 0.0
H648 H 0.38304 0.32509 0.35882 0.0
H649 H 0.40942 0.3071 0.3367 0.0
H650 H 0.37851 0.31769 0.26744 0.0
H651 H 0.35296 0.33563 0.28901 0.0
H652 H 0.1973 0.23467 0.26368 0.0
H653 H 0.17309 0.25686 0.2865 0.0
H654 H 0.21907 0.27802 0.35245 0.0
H655 H 0.24231 0.25586 0.33025 0.0
C656 C 0.53021 0.45572 0.0261 0.0
Eu657 Eu 0.53855 0.5051 0.03612 0.0
C658 C 0.54018 0.43791 0.03805 0.0
C659 C 0.55978 0.43291 0.03308 0.0
C660 C 0.56968 0.4177 0.04643 0.0
C661 C 0.56027 0.4078 0.06519 0.0
C662 C 0.54084 0.41318 0.07026 0.0
C663 C 0.53084 0.42778 0.05669 0.0
C664 C 0.57656 0.5353 0.03756 0.0
C665 C 0.55808 0.52738 0.09517 0.0
C666 C 0.53724 0.60854 0.0718 0.0
Eu667 Eu 0.53644 0.55981 0.06057 0.0
C668 C 0.52747 0.6259 0.05901 0.0
C669 C 0.50768 0.63056 0.06339 0.0
C670 C 0.49927 0.64861 0.05265 0.0
C671 C 0.51056 0.66219 0.03746 0.0
C672 C 0.5296 0.65604 0.03162 0.0
C673 C 0.53804 0.63823 0.04243 0.0
C674 C 0.50395 0.52323 0.06397 0.0
C675 C 0.51935 0.53839 0.99994 0.0
O676 O 0.51994 0.46958 0.04056 0.0
O677 O 0.54129 0.46897 0.01266 0.0
O678 O 0.5721 0.5108 0.02831 0.0
O679 O 0.56077 0.54222 0.04539 0.0
O680 O 0.54929 0.50691 0.07752 0.0
O681 O 0.55754 0.55087 0.09167 0.0
O682 O 0.55187 0.59888 0.06129 0.0
O683 O 0.52469 0.59176 0.08036 0.0
O684 O 0.51295 0.54179 0.08247 0.0
O685 O 0.51264 0.52483 0.04488 0.0
O686 O 0.52276 0.55782 0.01968 0.0
O687 O 0.5241 0.51592 1.00168 0.0
H688 H 0.56743 0.44065 0.01889 0.0
H689 H 0.58438 0.41319 0.0418 0.0
H690 H 0.53277 0.40499 0.08394 0.0
H691 H 0.51576 0.43125 0.06093 0.0
H692 H 0.49907 0.62106 0.07589 0.0
H693 H 0.48462 0.65313 0.05745 0.0
H694 H 0.53893 0.66657 0.02039 0.0
H695 H 0.55325 0.63496 0.03858 0.0
C696 C 0.73937 0.22793 0.26808 0.0
Eu697 Eu 0.76898 0.26512 0.29212 0.0
C698 C 0.7185 0.22611 0.25499 0.0
C699 C 0.7009 0.21926 0.26649 0.0
C700 C 0.68112 0.21918 0.25476 0.0
C701 C 0.67878 0.22552 0.23127 0.0
C702 C 0.69629 0.23192 0.21964 0.0
C703 C 0.71601 0.23221 0.23137 0.0
C704 C 0.77463 0.27993 0.34117 0.0
C705 C 0.764 0.32451 0.30248 0.0
C706 C 0.83799 0.33798 0.33708 0.0
Eu707 Eu 0.80749 0.30266 0.31215 0.0
C708 C 0.85837 0.33657 0.34959 0.0
C709 C 0.87637 0.34624 0.34018 0.0
C710 C 0.89576 0.34361 0.35076 0.0
C711 C 0.89745 0.33151 0.37109 0.0
C712 C 0.87945 0.32169 0.38045 0.0
C713 C 0.86001 0.3241 0.36971 0.0
C714 C 0.80033 0.28895 0.26236 0.0
C715 C 0.81289 0.24381 0.30209 0.0
O716 O 0.75506 0.23796 0.2579 0.0
O717 O 0.74174 0.23606 0.29222 0.0
O718 O 0.75683 0.27673 0.32754 0.0
O719 O 0.78882 0.27438 0.32887 0.0
O720 O 0.75528 0.30113 0.28924 0.0
O721 O 0.78318 0.32863 0.31459 0.0
O722 O 0.8217 0.32902 0.34686 0.0
O723 O 0.8354 0.33105 0.31279 0.0
O724 O 0.81835 0.29114 0.27525 0.0
O725 O 0.78696 0.29406 0.27597 0.0
O726 O 0.82145 0.2672 0.31507 0.0
O727 O 0.79363 0.2394 0.29019 0.0
H728 H 0.70247 0.21437 0.28468 0.0
H729 H 0.6677 0.21415 0.26395 0.0
H730 H 0.69477 0.23727 0.20166 0.0
H731 H 0.72926 0.23761 0.22206 0.0
H732 H 0.87543 0.35575 0.32457 0.0
H733 H 0.90949 0.35171 0.3435 0.0
H734 H 0.88044 0.31225 0.3961 0.0
H735 H 0.84635 0.3161 0.37713 0.0
C736 C 0.09485 0.55362 0.59639 0.0
Eu737 Eu 0.06025 0.53594 0.56632 0.0
C738 C 0.11453 0.57045 0.59486 0.0
C739 C 0.13332 0.562 0.59889 0.0
C740 C 0.15205 0.57729 0.59635 0.0
C741 C 0.15211 0.60111 0.5897 0.0
C742 C 0.13342 0.60962 0.58566 0.0
C743 C 0.11471 0.59439 0.5882 0.0
C744 C 0.03885 0.48689 0.55242 0.0
C745 C 0.06156 0.52834 0.50582 0.0
C746 C 0.98337 0.51144 0.50157 0.0
Eu747 Eu 0.01813 0.52926 0.53153 0.0
C748 C 0.9627 0.49686 0.50362 0.0
C749 C 0.94511 0.50793 0.50062 0.0
C750 C 0.92554 0.49481 0.50346 0.0
C751 C 0.92311 0.47019 0.50913 0.0
C752 C 0.94076 0.45902 0.51179 0.0
C753 C 0.96033 0.47224 0.50918 0.0
C754 C 0.03976 0.57772 0.54624 0.0
C755 C 0.01746 0.53938 0.592 0.0
O756 O 0.0785 0.56428 0.59764 0.0
O757 O 0.09087 0.53103 0.58132 0.0
O758 O 0.05871 0.49346 0.55994 0.0
O759 O 0.03105 0.50666 0.55595 0.0
O760 O 0.07246 0.53517 0.52859 0.0
O761 O 0.04083 0.52427 0.50263 0.0
O762 O 0.99887 0.49925 0.50228 0.0
O763 O 0.98841 0.5351 0.51452 0.0
O764 O 0.0196 0.57191 0.54164 0.0
O765 O 0.04751 0.55812 0.54122 0.0
O766 O 1.00628 0.53015 0.56955 0.0
O767 O 0.03813 0.54486 0.59466 0.0
H768 H 0.13347 0.54349 0.60376 0.0
H769 H 0.16645 0.5705 0.5994 0.0
H770 H 0.13334 0.62803 0.58055 0.0
H771 H 0.10042 0.60127 0.58472 0.0
H772 H 0.94654 0.52693 0.49642 0.0
H773 H 0.91241 0.50424 0.50169 0.0
H774 H 0.93948 0.43997 0.51577 0.0
H775 H 0.9736 0.46315 0.51165 0.0
C776 C 0.84861 0.76082 0.29968 0.0
Eu777 Eu 0.81225 0.77215 0.3053 0.0
C778 C 0.86581 0.76331 0.28478 0.0
C779 C 0.87874 0.74524 0.28381 0.0
C780 C 0.89652 0.74834 0.27211 0.0
C781 C 0.90175 0.76963 0.26106 0.0
C782 C 0.88813 0.7871 0.26104 0.0
C783 C 0.87031 0.78399 0.27286 0.0
C784 C 0.7816 0.73491 0.31468 0.0
C785 C 0.78656 0.77092 0.25186 0.0
C786 C 0.73087 0.78021 0.30759 0.0
Eu787 Eu 0.77039 0.78584 0.30362 0.0
C788 C 0.71538 0.78882 0.32319 0.0
C789 C 0.70518 0.80854 0.31838 0.0
C790 C 0.688 0.81325 0.33018 0.0
C791 C 0.6805 0.79813 0.34682 0.0
C792 C 0.6915 0.77945 0.35265 0.0
C793 C 0.70867 0.77483 0.34097 0.0
C794 C 0.79758 0.83086 0.30302 0.0
C795 C 0.80049 0.79831 0.3567 0.0
O796 O 0.846 0.78173 0.31432 0.0
O797 O 0.83106 0.74571 0.28883 0.0
O798 O 0.79997 0.74264 0.32737 0.0
O799 O 0.78 0.74773 0.29771 0.0
O800 O 0.80512 0.77503 0.26511 0.0
O801 O 0.76963 0.77076 0.26262 0.0
O802 O 0.74336 0.767 0.317 0.0
O803 O 0.73993 0.79548 0.29428 0.0
O804 O 0.77763 0.82833 0.3029 0.0
O805 O 0.80268 0.80929 0.30385 0.0
O806 O 0.78124 0.79379 0.34513 0.0
O807 O 0.8162 0.79447 0.34454 0.0
H808 H 0.87545 0.72913 0.29289 0.0
H809 H 0.90666 0.73465 0.27278 0.0
H810 H 0.89144 0.80345 0.25232 0.0
H811 H 0.86038 0.79803 0.27322 0.0
H812 H 0.70991 0.81962 0.30474 0.0
H813 H 0.68012 0.8281 0.32555 0.0
H814 H 0.68611 0.76718 0.36507 0.0
H815 H 0.71599 0.75929 0.34495 0.0
C816 C 0.78862 0.30494 0.87606 0.0
Eu817 Eu 0.7872 0.2967 0.8284 0.0
C818 C 0.77453 0.29401 0.89211 0.0
C819 C 0.75944 0.30703 0.9016 0.0
C820 C 0.74788 0.29791 0.91908 0.0
C821 C 0.7516 0.27598 0.92774 0.0
C822 C 0.76496 0.26145 0.91591 0.0
C823 C 0.77638 0.27046 0.89849 0.0
C824 C 0.75324 0.2989 0.79735 0.0
C825 C 0.76694 0.23601 0.80434 0.0
C826 C 0.80512 0.2634 0.73371 0.0
Eu827 Eu 0.79522 0.27398 0.77806 0.0
C828 C 0.81788 0.27892 0.71968 0.0
C829 C 0.83317 0.26897 0.70734 0.0
C830 C 0.84279 0.28178 0.69054 0.0
C831 C 0.83608 0.30366 0.68483 0.0
C832 C 0.82442 0.31634 0.70149 0.0
C833 C 0.81499 0.30374 0.71839 0.0
C834 C 0.82203 0.26897 0.81627 0.0
C835 C 0.81284 0.33633 0.80072 0.0
O836 O 0.79869 0.28898 0.86379 0.0
O837 O 0.78174 0.32028 0.86276 0.0
O838 O 0.75615 0.3073 0.82117 0.0
O839 O 0.76859 0.2898 0.79033 0.0
O840 O 0.7741 0.25398 0.82468 0.0
O841 O 0.7706 0.24038 0.78223 0.0
O842 O 0.78726 0.26962 0.73801 0.0
O843 O 0.81533 0.25826 0.75304 0.0
O844 O 0.81289 0.24992 0.7984 0.0
O845 O 0.81574 0.28915 0.81377 0.0
O846 O 0.80893 0.31717 0.78078 0.0
O847 O 0.807 0.33256 0.82211 0.0
H848 H 0.75729 0.32491 0.89648 0.0
H849 H 0.73738 0.30924 0.92738 0.0
H850 H 0.76843 0.24445 0.92186 0.0
H851 H 0.78753 0.25958 0.89113 0.0
H852 H 0.83658 0.25049 0.70936 0.0
H853 H 0.85298 0.27244 0.67938 0.0
H854 H 0.81978 0.33411 0.69916 0.0
H855 H 0.80423 0.31259 0.72898 0.0
C856 C 0.84895 0.83411 0.82332 0.0
Eu857 Eu 0.81076 0.80935 0.81665 0.0
C858 C 0.86694 0.82536 0.8133 0.0
C859 C 0.88139 0.81675 0.82873 0.0
C860 C 0.89384 0.80034 0.81823 0.0
C861 C 0.89183 0.79254 0.79229 0.0
C862 C 0.87943 0.80379 0.77704 0.0
C863 C 0.86717 0.82019 0.78744 0.0
C864 C 0.78835 0.79411 0.85156 0.0
C865 C 0.81066 0.74622 0.79837 0.0
C866 C 0.73144 0.74592 0.7989 0.0
Eu867 Eu 0.76855 0.76967 0.79659 0.0
C868 C 0.71384 0.75806 0.806 0.0
C869 C 0.69904 0.76239 0.78773 0.0
C870 C 0.68463 0.77777 0.79453 0.0
C871 C 0.68511 0.78932 0.8196 0.0
C872 C 0.69933 0.78418 0.83784 0.0
C873 C 0.71341 0.76862 0.83119 0.0
C874 C 0.78396 0.7876 0.75797 0.0
C875 C 0.76937 0.83272 0.80943 0.0
O876 O 0.83446 0.83789 0.80701 0.0
O877 O 0.84119 0.82144 0.83939 0.0
O878 O 0.79899 0.81731 0.85407 0.0
O879 O 0.79078 0.7804 0.83139 0.0
O880 O 0.82124 0.77055 0.80429 0.0
O881 O 0.78993 0.74066 0.79499 0.0
O882 O 0.74702 0.74907 0.81665 0.0
O883 O 0.7377 0.74918 0.77776 0.0
O884 O 0.76737 0.7698 0.75522 0.0
O885 O 0.79183 0.79335 0.78057 0.0
O886 O 0.75866 0.80887 0.80709 0.0
O887 O 0.78994 0.83764 0.81125 0.0
H888 H 0.88174 0.82084 0.84877 0.0
H889 H 0.90371 0.79223 0.83026 0.0
H890 H 0.87825 0.79862 0.75692 0.0
H891 H 0.85666 0.827 0.77498 0.0
H892 H 0.699 0.75453 0.76818 0.0
H893 H 0.67348 0.78112 0.78024 0.0
H894 H 0.69953 0.79219 0.85742 0.0
H895 H 0.72442 0.76561 0.84584 0.0
C896 C 0.60241 0.56188 0.58154 0.0
Eu897 Eu 0.56316 0.5488 0.56522 0.0
C898 C 0.61732 0.54605 0.57363 0.0
C899 C 0.63441 0.54433 0.59018 0.0
C900 C 0.64556 0.52476 0.58397 0.0
C901 C 0.6395 0.50666 0.56132 0.0
C902 C 0.62242 0.50868 0.54492 0.0
C903 C 0.61157 0.52822 0.55098 0.0
C904 C 0.53161 0.54847 0.59492 0.0
C905 C 0.54926 0.48642 0.555 0.0
C906 C 0.48193 0.50566 0.5154 0.0
Eu907 Eu 0.52125 0.52037 0.5312 0.0
C908 C 0.46642 0.52063 0.52299 0.0
C909 C 0.4484 0.51985 0.5067 0.0
C910 C 0.43668 0.53902 0.51171 0.0
C911 C 0.44328 0.55908 0.53273 0.0
C912 C 0.46075 0.55915 0.5494 0.0
C913 C 0.47222 0.54008 0.54457 0.0
C914 C 0.55315 0.522 0.50193 0.0
C915 C 0.5357 0.58276 0.54104 0.0
O916 O 0.59361 0.57189 0.56422 0.0
O917 O 0.58895 0.55064 0.59384 0.0
O918 O 0.55086 0.55986 0.60178 0.0
O919 O 0.52965 0.53896 0.57161 0.0
O920 O 0.56465 0.50662 0.55977 0.0
O921 O 0.53016 0.48734 0.54597 0.0
O922 O 0.49129 0.49661 0.53303 0.0
O923 O 0.49497 0.5172 0.5028 0.0
O924 O 0.53386 0.51138 0.49398 0.0
O925 O 0.55435 0.53046 0.52524 0.0
O926 O 0.52009 0.56274 0.53687 0.0
O927 O 0.55488 0.58161 0.54954 0.0
H928 H 0.63861 0.55746 0.60813 0.0
H929 H 0.65876 0.52366 0.59689 0.0
H930 H 0.61702 0.49465 0.52768 0.0
H931 H 0.59786 0.5286 0.53857 0.0
H932 H 0.44409 0.50538 0.4896 0.0
H933 H 0.42317 0.53891 0.49867 0.0
H934 H 0.46598 0.57455 0.56569 0.0
H935 H 0.48649 0.54159 0.55684 0.0
C936 C 0.97701 0.53846 0.06616 0.0
Eu937 Eu 0.01565 0.53724 0.06089 0.0
C938 C 0.95961 0.55165 0.0623 0.0
C939 C 0.94075 0.54226 0.07006 0.0
C940 C 0.92423 0.55518 0.06853 0.0
C941 C 0.92623 0.57793 0.05928 0.0
C942 C 0.94524 0.58726 0.05132 0.0
C943 C 0.96183 0.57423 0.05287 0.0
C944 C 0.04503 0.53155 0.09843 0.0
C945 C 0.04739 0.59092 0.06267 0.0
C946 C 0.09915 0.53518 0.03693 0.0
Eu947 Eu 0.06046 0.53707 0.04164 0.0
C948 C 0.11558 0.5202 0.03974 0.0
C949 C 0.13169 0.52304 0.02521 0.0
C950 C 0.14735 0.50879 0.02655 0.0
C951 C 0.1473 0.49129 0.0425 0.0
C952 C 0.13109 0.48846 0.05716 0.0
C953 C 0.11525 0.50271 0.05567 0.0
C954 C 0.03103 0.54275 1.004 0.0
C955 C 0.02862 0.48321 0.03973 0.0
O956 O 0.98246 0.52453 0.04667 0.0
O957 O 0.99288 0.55134 0.08258 0.0
O958 O 0.02585 0.53279 0.10053 0.0
O959 O 0.04734 0.53333 0.07629 0.0
O960 O 0.02779 0.57879 0.06044 0.0
O961 O 0.06307 0.57891 0.05927 0.0
O962 O 0.09347 0.54761 0.05707 0.0
O963 O 0.08353 0.52463 0.0193 0.0
O964 O 0.05035 0.54207 1.00211 0.0
O965 O 0.02866 0.54081 0.02612 0.0
O966 O 0.0481 0.49519 0.0406 0.0
O967 O 0.0132 0.49535 0.04431 0.0
H968 H 0.93884 0.52497 0.07759 0.0
H969 H 0.90979 0.54709 0.07438 0.0
H970 H 0.94743 0.60483 0.0443 0.0
H971 H 0.97643 0.58192 0.04708 0.0
H972 H 0.13215 0.53635 0.01271 0.0
H973 H 0.15973 0.51183 0.01531 0.0
H974 H 0.1305 0.47501 0.06949 0.0
H975 H 0.10276 0.49999 0.06678 0.0
H976 H 0.97411 0.20084 0.9953 0.0
H977 H 0.06035 0.11988 0.02486 0.0
H978 H 0.03007 0.20459 0.96055 0.0
H979 H 0.99558 0.09705 0.0324 0.0
H980 H 0.05221 0.15681 1.00872 0.0
H981 H 0.98504 0.16913 0.01714 0.0
C982 C 0.98879 0.19518 0.99236 0.0
C983 C 1.00104 0.20514 0.97571 0.0
C984 C 0.03985 0.1438 0.01409 0.0
C985 C 0.01357 0.16878 1.00078 0.0
C986 C 0.04446 0.12282 0.0234 0.0
C987 C 0.02857 0.10542 0.02995 0.0
C988 C 0.0193 0.14759 0.01174 0.0
C989 C 1.00824 0.10995 0.02744 0.0
C990 C 0.99496 0.177 1.00482 0.0
C991 C 0.02005 0.19728 0.97303 0.0
N992 N 1.00419 0.13068 0.01858 0.0
N993 N 0.02569 0.17939 0.98533 0.0
H994 H 0.13242 0.75725 0.21023 0.0
H995 H 0.24045 0.84054 0.28357 0.0
H996 H 0.14959 0.83931 0.21672 0.0
H997 H 0.23005 0.75809 0.25968 0.0
H998 H 0.2073 0.84046 0.25907 0.0
H999 H 0.1679 0.75694 0.22815 0.0
C1000 C 0.14368 0.77519 0.21522 0.0
C1001 C 0.13793 0.79837 0.21203 0.0
C1002 C 0.21233 0.82239 0.25893 0.0
C1003 C 0.17863 0.79815 0.23283 0.0
C1004 C 0.23126 0.82243 0.27293 0.0
C1005 C 0.23794 0.79928 0.27374 0.0
C1006 C 0.19979 0.79897 0.24587 0.0
C1007 C 0.22545 0.77637 0.25957 0.0
C1008 C 0.16397 0.77498 0.22542 0.0
C1009 C 0.15327 0.82099 0.21881 0.0
N1010 N 0.20685 0.77675 0.24644 0.0
N1011 N 0.17282 0.82035 0.22912 0.0
H1012 H 0.47073 0.81992 0.49777 0.0
H1013 H 0.55195 0.95177 0.51063 0.0
H1014 H 0.52258 0.82893 0.45611 0.0
H1015 H 0.49485 0.94684 0.54296 0.0
H1016 H 0.54352 0.90546 0.49486 0.0
H1017 H 0.48169 0.86502 0.51907 0.0
C1018 C 0.48446 0.8313 0.49318 0.0
C1019 C 0.49562 0.82066 0.47491 0.0
C1020 C 0.53288 0.91443 0.50555 0.0
C1021 C 0.50814 0.87222 0.49915 0.0
C1022 C 0.53772 0.94088 0.51464 0.0
C1023 C 0.52403 0.95315 0.52805 0.0
C1024 C 0.51429 0.90006 0.51003 0.0
C1025 C 0.50573 0.93813 0.5325 0.0
C1026 C 0.49067 0.85705 0.50532 0.0
C1027 C 0.51341 0.83628 0.46994 0.0
N1028 N 0.50136 0.9123 0.52347 0.0
N1029 N 0.51903 0.86129 0.48187 0.0
H1030 H 0.50361 0.31275 0.68687 0.0
H1031 H 0.43946 0.25527 0.78454 0.0
H1032 H 0.52964 0.27043 0.73725 0.0
H1033 H 0.41209 0.28456 0.72395 0.0
H1034 H 0.47221 0.25919 0.7672 0.0
H1035 H 0.46992 0.30121 0.69973 0.0
C1036 C 0.50224 0.30058 0.70033 0.0
C1037 C 0.51957 0.29228 0.71072 0.0
C1038 C 0.45899 0.26454 0.7576 0.0
C1039 C 0.48071 0.27962 0.72629 0.0
C1040 C 0.44022 0.26223 0.76741 0.0
C1041 C 0.42296 0.26975 0.75577 0.0
C1042 C 0.46059 0.27462 0.73607 0.0
C1043 C 0.42505 0.27898 0.73384 0.0
C1044 C 0.48288 0.29413 0.70782 0.0
C1045 C 0.51671 0.27717 0.72868 0.0
N1046 N 0.44353 0.28129 0.72481 0.0
N1047 N 0.49764 0.27148 0.73607 0.0
H1048 H 0.99283 0.77454 0.56188 0.0
H1049 H 0.07483 0.89865 0.60239 0.0
H1050 H 0.0276 0.79587 0.63581 0.0
H1051 H 0.06032 0.85803 0.52568 0.0
H1052 H 0.06327 0.85839 0.6154 0.0
H1053 H 0.0203 0.80312 0.5477 0.0
C1054 C 1.00621 0.78532 0.57503 0.0
C1055 C 1.00797 0.78332 0.59999 0.0
C1056 C 0.06335 0.85808 0.59572 0.0
C1057 C 0.03928 0.81543 0.58419 0.0
C1058 C 0.07011 0.88104 0.58833 0.0
C1059 C 0.06752 0.88177 0.56294 0.0
C1060 C 0.05383 0.83614 0.57749 0.0
C1061 C 0.06192 0.85842 0.54547 0.0
C1062 C 0.02203 0.8012 0.56695 0.0
C1063 C 0.02574 0.79711 0.61638 0.0
N1064 N 0.05441 0.83659 0.55303 0.0
N1065 N 0.04059 0.81292 0.60829 0.0
H1066 H 0.54045 0.86113 0.91345 0.0
H1067 H 0.42316 0.79173 0.86372 0.0
H1068 H 0.52236 0.78064 0.87947 0.0
H1069 H 0.44319 0.87421 0.8778 0.0
H1070 H 0.45951 0.7875 0.87046 0.0
H1071 H 0.50541 0.867 0.89961 0.0
C1072 C 0.52935 0.84497 0.90191 0.0
C1073 C 0.5344 0.82053 0.89683 0.0
C1074 C 0.45597 0.80652 0.87187 0.0
C1075 C 0.49401 0.82668 0.88224 0.0
C1076 C 0.4352 0.80897 0.86832 0.0
C1077 C 0.43011 0.83337 0.87015 0.0
C1078 C 0.47183 0.82863 0.87746 0.0
C1079 C 0.44641 0.85501 0.8759 0.0
C1080 C 0.50926 0.84821 0.89441 0.0
C1081 C 0.51922 0.79992 0.88298 0.0
N1082 N 0.46653 0.85214 0.87946 0.0
N1083 N 0.49959 0.80336 0.87648 0.0
H1084 H 0.48697 0.19014 0.07003 0.0
H1085 H 0.5703 0.1057 0.08135 0.0
H1086 H 0.51497 0.17248 0.13747 0.0
H1087 H 0.53663 0.11069 0.01177 0.0
H1088 H 0.56294 0.14693 0.10057 0.0
H1089 H 0.51383 0.17392 0.04814 0.0
C1090 C 0.49851 0.18239 0.08011 0.0
C1091 C 0.49845 0.18204 0.10545 0.0
C1092 C 0.55775 0.13948 0.08085 0.0
C1093 C 0.52965 0.16459 0.08083 0.0
C1094 C 0.56214 0.11608 0.06984 0.0
C1095 C 0.55263 0.10421 0.0456 0.0
C1096 C 0.54348 0.15018 0.06741 0.0
C1097 C 0.54312 0.11874 0.03105 0.0
C1098 C 0.51414 0.1738 0.06778 0.0
C1099 C 0.5142 0.17263 0.11781 0.0
N1100 N 0.53787 0.14068 0.04251 0.0
N1101 N 0.5291 0.16416 0.10532 0.0
H1102 H 0.13307 0.32281 0.43969 0.0
H1103 H 0.17383 0.30591 0.30858 0.0
H1104 H 0.09371 0.32554 0.37286 0.0
H1105 H 0.18497 0.26364 0.36617 0.0
H1106 H 0.15266 0.32985 0.33517 0.0
H1107 H 0.162 0.32075 0.41585 0.0
C1108 C 0.13054 0.32312 0.42004 0.0
C1109 C 0.11081 0.32302 0.40784 0.0
C1110 C 0.16006 0.31552 0.34184 0.0
C1111 C 0.14367 0.32092 0.38085 0.0
C1112 C 0.17173 0.30169 0.3267 0.0
C1113 C 0.18082 0.28276 0.33532 0.0
C1114 C 0.15802 0.31034 0.36554 0.0
C1115 C 0.17823 0.2782 0.35901 0.0
C1116 C 0.14708 0.3223 0.40659 0.0
C1117 C 0.10856 0.3245 0.38263 0.0
N1118 N 0.16705 0.29192 0.3733 0.0
N1119 N 0.12479 0.32277 0.36967 0.0
H1120 H 0.93681 0.0188 0.19924 0.0
H1121 H 0.02631 0.09115 0.13212 0.0
H1122 H 0.97851 0.09128 0.23035 0.0
H1123 H 0.99518 1.01326 0.09958 0.0
H1124 H 1.00488 0.0917 0.16536 0.0
H1125 H 0.95381 1.01631 0.16089 0.0
C1126 C 0.94932 0.03427 0.1981 0.0
C1127 C 0.95607 0.0553 0.21855 0.0
C1128 C 1.00237 0.07443 0.15094 0.0
C1129 C 0.97574 0.05255 0.17432 0.0
C1130 C 0.01465 0.07416 0.13163 0.0
C1131 C 0.01262 0.05228 0.11248 0.0
C1132 C 0.98762 0.05251 0.15191 0.0
C1133 C 0.99717 0.03084 0.11348 0.0
C1134 C 0.95913 0.03277 0.17614 0.0
C1135 C 0.97255 0.07455 0.21555 0.0
N1136 N 0.9854 0.03144 0.13284 0.0
N1137 N 0.98158 0.07267 0.19428 0.0
H1138 H 0.34121 0.80283 0.53462 0.0
H1139 H 0.24785 0.7372 0.45989 0.0
H1140 H 0.30025 0.76244 0.57702 0.0
H1141 H 0.25602 0.81967 0.46905 0.0
H1142 H 0.26516 0.74331 0.50269 0.0
H1143 H 0.31054 0.80959 0.50949 0.0
C1144 C 0.32589 0.79621 0.53922 0.0
C1145 C 0.32323 0.78146 0.55739 0.0
C1146 C 0.26221 0.75995 0.49559 0.0
C1147 C 0.28849 0.78856 0.52865 0.0
C1148 C 0.2523 0.75646 0.47127 0.0
C1149 C 0.25097 0.77795 0.46076 0.0
C1150 C 0.2711 0.78497 0.50885 0.0
C1151 C 0.25696 0.80255 0.4763 0.0
C1152 C 0.30844 0.80003 0.52492 0.0
C1153 C 0.30294 0.77332 0.56264 0.0
N1154 N 0.26767 0.80548 0.49928 0.0
N1155 N 0.28623 0.77604 0.54762 0.0
H1156 H 0.58332 0.98273 0.73265 0.0
H1157 H 0.58872 0.04432 0.61022 0.0
H1158 H 0.63974 0.03158 0.72304 0.0
H1159 H 0.53493 0.99742 0.62844 0.0
H1160 H 0.60938 0.03841 0.64837 0.0
H1161 H 0.56729 0.98626 0.69224 0.0
C1162 C 0.59248 0.99423 0.72202 0.0
C1163 C 0.61303 1.0069 0.73169 0.0
C1164 C 0.59311 0.0292 0.64377 0.0
C1165 C 0.59425 1.01137 0.68428 0.0
C1166 C 0.58135 0.0324 0.62185 0.0
C1167 C 0.55995 0.0213 0.61594 0.0
C1168 C 0.58343 1.01465 0.65974 0.0
C1169 C 0.55127 1.00643 0.63206 0.0
C1170 C 0.58321 0.99627 0.69868 0.0
C1171 C 0.62391 0.02134 0.71649 0.0
N1172 N 0.56288 1.00365 0.6529 0.0
N1173 N 0.61438 0.02334 0.69369 0.0
H1174 H 0.29226 0.36522 0.01091 0.0
H1175 H 0.33384 0.30432 0.88696 0.0
H1176 H 0.35376 0.34821 1.00873 0.0
H1177 H 0.26922 0.30866 0.8893 0.0
H1178 H 0.34101 0.32037 0.93178 0.0
H1179 H 0.28296 0.34414 0.96678 0.0
C1180 C 0.30375 0.35692 1.00124 0.0
C1181 C 0.32386 0.35859 0.01358 0.0
C1182 C 0.32521 0.31763 0.92258 0.0
C1183 C 0.3134 0.33478 0.96306 0.0
C1184 C 0.32108 0.30844 0.89689 0.0
C1185 C 0.30087 0.30514 0.88422 0.0
C1186 C 0.30907 0.32371 0.93588 0.0
C1187 C 0.28505 0.31099 0.89823 0.0
C1188 C 0.29843 0.34489 0.97606 0.0
C1189 C 0.33807 0.34738 1.0001 0.0
N1190 N 0.28951 0.3201 0.9233 0.0
N1191 N 0.33263 0.3362 0.97559 0.0
H1192 H 0.96766 1.01413 0.34364 0.0
H1193 H 1.00069 0.07877 0.48909 0.0
H1194 H 0.94018 0.07516 0.38013 0.0
H1195 H 1.00872 1.00242 0.4576 0.0
H1196 H 0.98147 0.08034 0.44885 0.0
H1197 H 0.98552 1.01188 0.3843 0.0
C1198 C 0.96527 0.02701 0.36017 0.0
C1199 C 0.95221 0.04479 0.35823 0.0
C1200 C 0.98746 0.06325 0.45073 0.0
C1201 C 0.97315 0.04265 0.40524 0.0
C1202 C 0.99857 0.06238 0.47373 0.0
C1203 C 1.00653 0.04044 0.47695 0.0
C1204 C 0.98451 0.04225 0.4304 0.0
C1205 C 1.00297 0.01977 0.45621 0.0
C1206 C 0.97551 0.02571 0.38347 0.0
C1207 C 0.94992 0.06101 0.38055 0.0
N1208 N 0.99246 0.02126 0.43396 0.0
N1209 N 0.96036 0.05971 0.40294 0.0
H1210 H 0.35014 0.70729 0.64621 0.0
H1211 H 0.2914 0.80383 0.72537 0.0
H1212 H 0.33357 0.77466 0.62469 0.0
H1213 H 0.32255 0.74934 0.7542 0.0
H1214 H 0.29548 0.78318 0.68299 0.0
H1215 H 0.33054 0.71404 0.68159 0.0
C1216 C 0.34277 0.72381 0.64943 0.0
C1217 C 0.34415 0.74121 0.63361 0.0
C1218 C 0.30084 0.77533 0.69862 0.0
C1219 C 0.32101 0.74828 0.67259 0.0
C1220 C 0.29847 0.78703 0.72263 0.0
C1221 C 0.30735 0.77864 0.74295 0.0
C1222 C 0.31202 0.75526 0.69549 0.0
C1223 C 0.31602 0.75666 0.73885 0.0
C1224 C 0.33125 0.72736 0.66911 0.0
C1225 C 0.33347 0.76155 0.63736 0.0
N1226 N 0.31844 0.74588 0.71551 0.0
N1227 N 0.32243 0.76468 0.65665 0.0
H1228 H 0.65288 0.01797 0.89866 0.0
H1229 H 0.54757 0.02655 0.95871 0.0
H1230 H 0.59912 0.03739 0.86092 0.0
H1231 H 0.60597 0.03101 1.00402 0.0
H1232 H 0.56576 0.02718 0.92227 0.0
H1233 H 0.63599 0.01979 0.93652 0.0
C1234 C 0.63764 0.02291 0.89831 0.0
C1235 C 0.6276 0.02771 0.8763 0.0
C1236 C 0.57467 0.028 0.94013 0.0
C1237 C 0.60778 0.02927 0.91992 0.0
C1238 C 0.56423 0.02751 0.96107 0.0
C1239 C 0.57511 0.02867 0.98477 0.0
C1240 C 0.59631 0.0292 0.94239 0.0
C1241 C 0.59681 0.03013 0.98631 0.0
C1242 C 0.62795 0.02387 0.92003 0.0
C1243 C 0.60767 0.03371 0.87726 0.0
N1244 N 0.6066 0.03014 0.96552 0.0
N1245 N 0.59846 0.0341 0.89844 0.0
H1246 H 0.29006 0.36924 0.1361 0.0
H1247 H 0.33285 0.307 0.24682 0.0
H1248 H 0.34976 0.34637 0.14108 0.0
H1249 H 0.26738 0.30025 0.22288 0.0
H1250 H 0.34062 0.32813 0.21194 0.0
H1251 H 0.28221 0.34929 0.17139 0.0
C1252 C 0.30142 0.35987 0.1444 0.0
C1253 C 0.32062 0.35958 0.13558 0.0
C1254 C 0.32457 0.32214 0.2145 0.0
C1255 C 0.31194 0.33735 0.17622 0.0
C1256 C 0.32022 0.31036 0.23444 0.0
C1257 C 0.29952 0.30194 0.23746 0.0
C1258 C 0.30808 0.32586 0.19803 0.0
C1259 C 0.28356 0.30637 0.2209 0.0
C1260 C 0.29697 0.3486 0.16459 0.0
C1261 C 0.33477 0.34718 0.14719 0.0
N1262 N 0.28815 0.31811 0.20193 0.0
N1263 N 0.33023 0.33678 0.16701 0.0
H1264 H 0.20143 0.89137 0.0836 0.0
H1265 H 0.15401 0.99674 0.02737 0.0
H1266 H 0.19778 0.89721 1.00636 0.0
H1267 H 0.14538 0.98402 0.10095 0.0
H1268 H 0.16804 0.95796 0.01914 0.0
H1269 H 0.17802 0.92196 0.09007 0.0
C1270 C 0.19534 0.89867 0.06794 0.0
C1271 C 0.20187 0.89238 0.0446 0.0
C1272 C 0.16302 0.96349 0.03709 0.0
C1273 C 0.17557 0.92725 0.05183 0.0
C1274 C 0.155 0.98571 0.04181 0.0
C1275 C 0.1486 0.99372 0.06492 0.0
C1276 C 0.16506 0.94931 0.05577 0.0
C1277 C 0.15056 0.97882 0.08305 0.0
C1278 C 0.18209 0.91615 0.07164 0.0
C1279 C 0.1935 0.90209 0.02482 0.0
N1280 N 0.15879 0.95735 0.07815 0.0
N1281 N 0.18101 0.91934 0.02899 0.0
H1282 H 0.70822 0.58162 0.04323 0.0
H1283 H 0.58736 0.58774 0.03991 0.0
H1284 H 0.68495 0.64645 0.02409 0.0
H1285 H 0.61305 0.51943 0.03848 0.0
H1286 H 0.62266 0.61248 0.03969 0.0
H1287 H 0.67335 0.56189 0.04788 0.0
C1288 C 0.69575 0.5918 0.03997 0.0
C1289 C 0.69961 0.61566 0.03293 0.0
C1290 C 0.62049 0.59212 0.03958 0.0
C1291 C 0.65909 0.59279 0.0382 0.0
C1292 C 0.60044 0.57807 0.03985 0.0
C1293 C 0.59737 0.55152 0.03916 0.0
C1294 C 0.63745 0.57947 0.0391 0.0
C1295 C 0.61471 0.53981 0.03885 0.0
C1296 C 0.67573 0.58043 0.04263 0.0
C1297 C 0.68268 0.62794 0.02938 0.0
N1298 N 0.6339 0.55382 0.03889 0.0
N1299 N 0.66308 0.61629 0.03191 0.0
H1300 H 0.73081 0.4753 0.34524 0.0
H1301 H 0.72498 0.32708 0.27844 0.0
H1302 H 0.68084 0.43458 0.28733 0.0
H1303 H 0.77728 0.3742 0.32964 0.0
H1304 H 0.70803 0.36471 0.28125 0.0
H1305 H 0.74741 0.43802 0.33922 0.0
C1306 C 0.72334 0.45862 0.33098 0.0
C1307 C 0.70427 0.45858 0.31672 0.0
C1308 C 0.72324 0.36682 0.29181 0.0
C1309 C 0.72343 0.41459 0.30996 0.0
C1310 C 0.73297 0.34521 0.29027 0.0
C1311 C 0.75279 0.34706 0.30376 0.0
C1312 C 0.73321 0.39074 0.3071 0.0
C1313 C 0.76212 0.3714 0.31876 0.0
C1314 C 0.7329 0.4371 0.3276 0.0
C1315 C 0.69559 0.43595 0.29863 0.0
N1316 N 0.75234 0.39192 0.32001 0.0
N1317 N 0.70508 0.41497 0.29595 0.0
H1318 H 0.79204 0.43 0.51908 0.0
H1319 H 0.91412 0.43949 0.54271 0.0
H1320 H 0.82006 0.37759 0.55544 0.0
H1321 H 0.88463 0.4695 0.48394 0.0
H1322 H 0.87992 0.41811 0.54909 0.0
H1323 H 0.8259 0.44641 0.5074 0.0
C1324 C 0.8053 0.42191 0.52455 0.0
C1325 C 0.80328 0.40261 0.53849 0.0
C1326 C 0.88097 0.42923 0.53468 0.0
C1327 C 0.84201 0.42135 0.52533 0.0
C1328 C 0.90052 0.44139 0.53092 0.0
C1329 C 0.90237 0.45645 0.51275 0.0
C1330 C 0.86304 0.43241 0.52047 0.0
C1331 C 0.88403 0.45855 0.49848 0.0
C1332 C 0.82457 0.43117 0.51777 0.0
C1333 C 0.82091 0.39253 0.54476 0.0
N1334 N 0.86514 0.44685 0.50278 0.0
N1335 N 0.83959 0.40223 0.5384 0.0
H1336 H 0.36234 0.09996 0.26945 0.0
H1337 H 0.3574 0.24935 0.31869 0.0
H1338 H 0.40162 0.14857 0.33407 0.0
H1339 H 0.30531 0.19484 0.27367 0.0
H1340 H 0.37681 0.21442 0.31873 0.0
H1341 H 0.34432 0.13583 0.2651 0.0
C1342 C 0.36746 0.11826 0.28242 0.0
C1343 C 0.38368 0.12117 0.30208 0.0
C1344 C 0.36116 0.21008 0.30875 0.0
C1345 C 0.36311 0.16255 0.29719 0.0
C1346 C 0.35002 0.23014 0.30863 0.0
C1347 C 0.32945 0.22531 0.2963 0.0
C1348 C 0.35195 0.18475 0.29618 0.0
C1349 C 0.321 0.19974 0.28359 0.0
C1350 C 0.35705 0.13872 0.28007 0.0
C1351 C 0.38929 0.14535 0.31858 0.0
N1352 N 0.33219 0.18061 0.28385 0.0
N1353 N 0.37919 0.16493 0.31571 0.0
H1354 H 0.33269 0.1632 0.52277 0.0
H1355 H 0.39268 0.06791 0.58341 0.0
H1356 H 0.30287 0.10644 0.5602 0.0
H1357 H 0.41937 0.1167 0.53646 0.0
H1358 H 0.36107 0.08553 0.57958 0.0
H1359 H 0.36573 0.15018 0.53223 0.0
C1360 C 0.33311 0.14818 0.53325 0.0
C1361 C 0.31491 0.13585 0.54064 0.0
C1362 C 0.37386 0.09246 0.57019 0.0
C1363 C 0.35283 0.12063 0.55133 0.0
C1364 C 0.392 0.08253 0.57249 0.0
C1365 C 0.40875 0.09075 0.56015 0.0
C1366 C 0.37238 0.11084 0.55549 0.0
C1367 C 0.40678 0.1095 0.546 0.0
C1368 C 0.35201 0.14067 0.53853 0.0
C1369 C 0.31647 0.11641 0.55404 0.0
N1370 N 0.38894 0.11887 0.54403 0.0
N1371 N 0.33508 0.10932 0.55887 0.0
H1372 H 0.68629 0.59189 0.2966 0.0
H1373 H 0.78564 0.70718 0.35069 0.0
H1374 H 0.72827 0.59786 0.36372 0.0
H1375 H 0.74462 0.7069 0.2845 0.0
H1376 H 0.76411 0.66711 0.35489 0.0
H1377 H 0.70644 0.63298 0.29095 0.0
C1378 C 0.6997 0.60167 0.31016 0.0
C1379 C 0.70541 0.59096 0.33073 0.0
C1380 C 0.75964 0.67565 0.3394 0.0
C1381 C 0.72875 0.63851 0.32428 0.0
C1382 C 0.77202 0.69875 0.33697 0.0
C1383 C 0.76714 0.71073 0.31715 0.0
C1384 C 0.74192 0.66381 0.32189 0.0
C1385 C 0.74911 0.69854 0.30011 0.0
C1386 C 0.71122 0.62527 0.3069 0.0
C1387 C 0.72304 0.60495 0.34756 0.0
N1388 N 0.73725 0.67582 0.30281 0.0
N1389 N 0.7339 0.62766 0.34395 0.0
H1390 H 0.88579 0.47925 0.76944 0.0
H1391 H 0.82556 0.37718 0.83975 0.0
H1392 H 0.86879 0.49595 0.84333 0.0
H1393 H 0.8275 0.35633 0.76076 0.0
H1394 H 0.84414 0.42002 0.84031 0.0
H1395 H 0.86686 0.43426 0.76453 0.0
C1396 C 0.87809 0.47367 0.78455 0.0
C1397 C 0.87901 0.49183 0.80685 0.0
C1398 C 0.84052 0.4063 0.8227 0.0
C1399 C 0.85758 0.4402 0.80146 0.0
C1400 C 0.82979 0.38153 0.82234 0.0
C1401 C 0.82461 0.36275 0.80012 0.0
C1402 C 0.84643 0.41306 0.80069 0.0
C1403 C 0.83099 0.37005 0.77836 0.0
C1404 C 0.86729 0.44794 0.78172 0.0
C1405 C 0.86866 0.48313 0.8257 0.0
N1406 N 0.84153 0.3946 0.77916 0.0
N1407 N 0.85866 0.45829 0.8226 0.0
H1408 H 0.04683 0.84215 0.0965 0.0
H1409 H 0.08751 0.98852 0.08987 0.0
H1410 H 0.09434 0.89382 0.1514 0.0
H1411 H 0.03045 0.94077 0.04834 0.0
H1412 H 0.09525 0.95177 0.10645 0.0
H1413 H 0.04661 0.87544 0.07219 0.0
C1414 C 0.05763 0.86036 0.10311 0.0
C1415 C 0.07051 0.86535 0.1261 0.0
C1416 C 0.08116 0.9493 0.09351 0.0
C1417 C 0.07 0.90379 0.09858 0.0
C1418 C 0.07671 0.97025 0.08396 0.0
C1419 C 0.05815 0.96782 0.06782 0.0
C1420 C 0.06709 0.92566 0.08672 0.0
C1421 C 0.04483 0.94363 0.06086 0.0
C1422 C 0.05737 0.87942 0.08931 0.0
C1423 C 0.08424 0.88919 0.13374 0.0
N1424 N 0.04952 0.92355 0.07044 0.0
N1425 N 0.08338 0.90775 0.12018 0.0
H1426 H 0.95158 0.29911 0.87498 0.0
H1427 H 0.83569 0.2272 0.82713 0.0
H1428 H 0.9252 0.229 0.89676 0.0
H1429 H 0.85229 0.30996 0.84036 0.0
H1430 H 0.86965 0.22648 0.84933 0.0
H1431 H 0.91632 0.30293 0.85867 0.0
C1432 C 0.93838 0.28461 0.87637 0.0
C1433 C 0.94123 0.26366 0.88708 0.0
C1434 C 0.86574 0.24481 0.84763 0.0
C1435 C 0.90127 0.26771 0.86837 0.0
C1436 C 0.84643 0.24521 0.83498 0.0
C1437 C 0.84131 0.26864 0.83199 0.0
C1438 C 0.88013 0.26798 0.85684 0.0
C1439 C 0.85572 0.2915 0.8424 0.0
C1440 C 0.91834 0.28687 0.86724 0.0
C1441 C 0.92367 0.24548 0.88865 0.0
N1442 N 0.87469 0.2906 0.85411 0.0
N1443 N 0.90445 0.24774 0.8791 0.0
H1444 H 0.53097 0.24397 0.59464 0.0
H1445 H 0.58381 0.12095 0.58794 0.0
H1446 H 0.58387 0.24106 0.64654 0.0
H1447 H 0.52282 0.12053 0.55065 0.0
H1448 H 0.58862 0.16766 0.60288 0.0
H1449 H 0.53281 0.20162 0.57135 0.0
C1450 C 0.54307 0.23451 0.60106 0.0
C1451 C 0.557 0.24584 0.62288 0.0
C1452 C 0.57433 0.15733 0.59115 0.0
C1453 C 0.55911 0.19728 0.59634 0.0
C1454 C 0.57161 0.13078 0.58258 0.0
C1455 C 0.55278 0.11698 0.56838 0.0
C1456 C 0.5582 0.16999 0.5851 0.0
C1457 C 0.53743 0.13047 0.56194 0.0
C1458 C 0.54411 0.21033 0.58774 0.0
C1459 C 0.57264 0.23289 0.62999 0.0
N1460 N 0.54044 0.15623 0.57044 0.0
N1461 N 0.5731 0.20908 0.61693 0.0
H1462 H 0.57174 0.77223 0.42216 0.0
H1463 H 0.64507 0.80555 0.32093 0.0
H1464 H 0.54958 0.77896 0.34771 0.0
H1465 H 0.66887 0.79305 0.39264 0.0
H1466 H 0.61045 0.80152 0.33312 0.0
H1467 H 0.60764 0.78427 0.41391 0.0
C1468 C 0.57439 0.77632 0.40413 0.0
C1469 C 0.55758 0.77441 0.38554 0.0
C1470 C 0.62325 0.79985 0.34632 0.0
C1471 C 0.59857 0.78829 0.37605 0.0
C1472 C 0.64315 0.80246 0.33946 0.0
C1473 C 0.66002 0.79948 0.35568 0.0
C1474 C 0.61999 0.79405 0.36956 0.0
C1475 C 0.6563 0.79502 0.37931 0.0
C1476 C 0.59489 0.78321 0.39946 0.0
C1477 C 0.56198 0.78004 0.36258 0.0
N1478 N 0.63667 0.79222 0.38546 0.0
N1479 N 0.58198 0.78661 0.3585 0.0
H1480 H 0.06736 0.26542 0.48801 0.0
H1481 H 0.99435 0.19344 0.56581 0.0
H1482 H 0.04718 0.30484 0.554 0.0
H1483 H 1.00116 0.16138 0.49025 0.0
H1484 H 1.00774 0.23603 0.55933 0.0
H1485 H 0.04262 0.22679 0.48923 0.0
C1486 C 0.05822 0.26576 0.50325 0.0
C1487 C 0.05897 0.28857 0.52062 0.0
C1488 C 1.00576 0.21979 0.54386 0.0
C1489 C 0.03006 0.2448 0.52145 0.0
C1490 C 0.99759 0.1954 0.54734 0.0
C1491 C 0.99841 0.17384 0.52913 0.0
C1492 C 0.01434 0.22206 0.52198 0.0
C1493 C 1.00166 0.17766 0.50527 0.0
C1494 C 0.04363 0.24391 0.50346 0.0
C1495 C 0.04684 0.28773 0.54001 0.0
N1496 N 1.01076 0.20135 0.50268 0.0
N1497 N 0.03261 0.26627 0.53971 0.0
H1498 H 0.5692 0.21053 0.12555 0.0
H1499 H 0.64974 0.25026 0.25082 0.0
H1500 H 0.56782 0.27362 0.18596 0.0
H1501 H 0.66174 0.20313 0.1837 0.0
H1502 H 0.61736 0.25549 0.2282 0.0
H1503 H 0.60232 0.20549 0.14674 0.0
C1504 C 0.57608 0.22361 0.14298 0.0
C1505 C 0.56577 0.2423 0.15423 0.0
C1506 C 0.62708 0.24397 0.21844 0.0
C1507 C 0.60303 0.23635 0.17859 0.0
C1508 C 0.64535 0.24077 0.23139 0.0
C1509 C 0.65826 0.22637 0.21891 0.0
C1510 C 0.62179 0.23254 0.19299 0.0
C1511 C 0.65214 0.21459 0.19375 0.0
C1512 C 0.59482 0.2206 0.15514 0.0
C1513 C 0.57519 0.2587 0.17687 0.0
N1514 N 0.63428 0.21797 0.18151 0.0
N1515 N 0.59322 0.25516 0.18847 0.0
H1516 H 0.61081 0.88033 1.00703 0.0
H1517 H 0.52096 0.95449 0.01813 0.0
H1518 H 0.58885 0.91968 0.95213 0.0
H1519 H 0.56373 0.96261 0.08507 0.0
H1520 H 0.54299 0.93009 0.99474 0.0
H1521 H 0.59619 0.90735 0.03861 0.0
C1522 C 0.60401 0.89581 1.00185 0.0
C1523 C 0.59806 0.89566 0.97662 0.0
C1524 C 0.54735 0.93692 0.01467 0.0
C1525 C 0.58226 0.92649 0.01184 0.0
C1526 C 0.53441 0.94995 0.02815 0.0
C1527 C 0.54143 0.96201 0.05306 0.0
C1528 C 0.56671 0.93509 0.0267 0.0
C1529 C 0.55848 0.95475 0.06545 0.0
C1530 C 0.59513 0.91063 0.01978 0.0
C1531 C 0.59154 0.91757 0.97127 0.0
N1532 N 0.5712 0.94248 0.05189 0.0
N1533 N 0.58209 0.93106 0.98837 0.0
H1534 H 0.92424 0.73397 0.66725 0.0
H1535 H 0.93255 0.78725 0.79782 0.0
H1536 H 0.97235 0.7138 0.71479 0.0
H1537 H 0.87133 0.74948 0.75989 0.0
H1538 H 0.94748 0.7567 0.76974 0.0
H1539 H 0.90247 0.73362 0.70042 0.0
C1540 C 0.92991 0.72857 0.68426 0.0
C1541 C 0.95036 0.72509 0.68875 0.0
C1542 C 0.93071 0.75445 0.76832 0.0
C1543 C 0.92615 0.72563 0.72675 0.0
C1544 C 0.92227 0.77194 0.7842 0.0
C1545 C 0.90083 0.7711 0.78055 0.0
C1546 C 0.91749 0.73656 0.74872 0.0
C1547 C 0.88803 0.75098 0.76276 0.0
C1548 C 0.91754 0.72837 0.70322 0.0
C1549 C 0.95687 0.71758 0.71094 0.0
N1550 N 0.89659 0.73486 0.74698 0.0
N1551 N 0.94517 0.71935 0.72971 0.0
H1552 H 0.1513 1.01459 0.90561 0.0
H1553 H 0.04846 0.04533 0.96414 0.0
H1554 H 0.1042 0.04645 0.8689 0.0
H1555 H 0.09339 1.0112 1.00148 0.0
H1556 H 0.07005 0.04833 0.93079 0.0
H1557 H 0.13225 1.01574 0.94184 0.0
C1558 C 0.13711 0.02214 0.90517 0.0
C1559 C 0.1296 0.03056 0.88384 0.0
C1560 C 0.07554 0.04064 0.94646 0.0
C1561 C 0.10728 0.03169 0.92578 0.0
C1562 C 0.06322 0.03911 0.96575 0.0
C1563 C 0.06939 0.02902 0.9865 0.0
C1564 C 0.09435 0.03159 0.94725 0.0
C1565 C 0.0884 0.02037 0.98674 0.0
C1566 C 0.12613 0.02267 0.92596 0.0
C1567 C 0.11088 0.03985 0.8847 0.0
N1568 N 0.10009 0.02181 0.96757 0.0
N1569 N 0.1005 0.04007 0.90503 0.0
H1570 H 0.7443 0.26335 0.56044 0.0
H1571 H 0.83161 0.34651 0.6644 0.0
H1572 H 0.73456 0.32283 0.61813 0.0
H1573 H 0.83246 0.26605 0.64155 0.0
H1574 H 0.79903 0.33988 0.63639 0.0
H1575 H 0.77643 0.26041 0.5856 0.0
C1576 C 0.74839 0.27508 0.5791 0.0
C1577 C 0.73979 0.29712 0.58564 0.0
C1578 C 0.8065 0.3237 0.63754 0.0
C1579 C 0.7747 0.29304 0.61455 0.0
C1580 C 0.82539 0.32755 0.65295 0.0
C1581 C 0.83276 0.30599 0.65826 0.0
C1582 C 0.79661 0.29853 0.62569 0.0
C1583 C 0.82573 0.28277 0.6405 0.0
C1584 C 0.76711 0.27392 0.59299 0.0
C1585 C 0.74322 0.30844 0.611 0.0
N1586 N 0.80718 0.2791 0.62583 0.0
N1587 N 0.76182 0.30838 0.62408 0.0
H1588 H 0.43822 0.07202 0.3903 0.0
H1589 H 0.53555 0.0248 0.45453 0.0
H1590 H 0.47715 0.02689 0.35111 0.0
H1591 H 0.49288 0.05694 0.49926 0.0
H1592 H 0.51356 0.02647 0.41711 0.0
H1593 H 0.45674 0.06779 0.4302 0.0
C1594 C 0.45049 0.06104 0.38998 0.0
C1595 C 0.45603 0.0498 0.36701 0.0
C1596 C 0.50873 0.03308 0.43495 0.0
C1597 C 0.47751 0.0451 0.41291 0.0
C1598 C 0.52139 0.03214 0.45656 0.0
C1599 C 0.51621 0.04067 0.48035 0.0
C1600 C 0.4905 0.04305 0.43655 0.0
C1601 C 0.49751 0.04993 0.4814 0.0
C1602 C 0.46108 0.05866 0.41285 0.0
C1603 C 0.47218 0.03594 0.36807 0.0
N1604 N 0.48544 0.0511 0.45984 0.0
N1605 N 0.48227 0.03416 0.39037 0.0
H1606 H 0.74944 0.70163 0.09558 0.0
H1607 H 0.81799 0.77807 0.22379 0.0
H1608 H 0.81283 0.74254 0.1017 0.0
H1609 H 0.75158 0.75129 0.21716 0.0
H1610 H 0.81582 0.76594 0.1787 0.0
H1611 H 0.74915 0.72049 0.13948 0.0
C1612 C 0.76322 0.71474 0.10602 0.0
C1613 C 0.78126 0.72026 0.0949 0.0
C1614 C 0.80166 0.76289 0.18702 0.0
C1615 C 0.78106 0.74172 0.1452 0.0
C1616 C 0.80289 0.76977 0.21284 0.0
C1617 C 0.78495 0.76553 0.22433 0.0
C1618 C 0.78238 0.75136 0.17247 0.0
C1619 C 0.76582 0.75486 0.20909 0.0
C1620 C 0.76303 0.72551 0.1311 0.0
C1621 C 0.7986 0.73751 0.10941 0.0
N1622 N 0.76506 0.74787 0.18394 0.0
N1623 N 0.79812 0.74737 0.13379 0.0
H1624 H 0.14286 0.03759 0.73416 0.0
H1625 H 0.04841 0.98626 0.62108 0.0
H1626 H 0.08723 0.98385 0.73795 0.0
H1627 H 0.0884 0.06046 0.62977 0.0
H1628 H 0.0658 0.98166 0.66105 0.0
H1629 H 0.1268 0.04275 0.6933 0.0
C1630 C 0.12742 0.02668 0.7264 0.0
C1631 C 0.1165 1.0102 0.73978 0.0
C1632 C 0.07083 0.99897 0.65426 0.0
C1633 C 0.09799 1.01595 0.69273 0.0
C1634 C 0.06088 1.0016 0.63132 0.0
C1635 C 0.06675 0.02387 0.62189 0.0
C1636 C 0.08726 0.01843 0.66794 0.0
C1637 C 0.08314 0.04304 0.63627 0.0
C1638 C 0.11818 0.02979 0.7031 0.0
C1639 C 0.09638 0.9968 0.72859 0.0
N1640 N 0.09288 0.03982 0.65836 0.0
N1641 N 0.08794 0.99984 0.70592 0.0
H1642 H 0.75023 0.27489 0.4876 0.0
H1643 H 0.77802 0.32637 0.36975 0.0
H1644 H 0.73418 0.3438 0.46979 0.0
H1645 H 0.77214 0.24595 0.37108 0.0
H1646 H 0.76394 0.33327 0.40908 0.0
H1647 H 0.75445 0.26052 0.44408 0.0
C1648 C 0.74701 0.2867 0.47437 0.0
C1649 C 0.74348 0.31153 0.4825 0.0
C1650 C 0.7659 0.31412 0.40093 0.0
C1651 C 0.7492 0.29608 0.43382 0.0
C1652 C 0.77454 0.31043 0.37904 0.0
C1653 C 0.77632 0.28571 0.36781 0.0
C1654 C 0.75908 0.29281 0.4113 0.0
C1655 C 0.77121 0.26535 0.37979 0.0
C1656 C 0.74968 0.27869 0.4497 0.0
C1657 C 0.73841 0.32553 0.46469 0.0
N1658 N 0.76255 0.26928 0.401 0.0
N1659 N 0.74234 0.3182 0.44118 0.0
H1660 H 0.4928 0.08129 0.2449 0.0
H1661 H 0.47905 0.02066 0.09763 0.0
H1662 H 0.43514 0.03267 0.20648 0.0
H1663 H 0.53591 0.06563 0.14173 0.0
H1664 H 0.46183 0.02506 0.13547 0.0
H1665 H 0.50754 0.07611 0.20626 0.0
C1666 C 0.48308 0.06944 0.22834 0.0
C1667 C 0.46251 0.0574 0.22941 0.0
C1668 C 0.47806 0.03397 0.13682 0.0
C1669 C 0.47981 0.05127 0.18394 0.0
C1670 C 0.48795 0.03152 0.11514 0.0
C1671 C 0.50913 0.04276 0.11618 0.0
C1672 C 0.48932 0.04789 0.1599 0.0
C1673 C 0.51966 0.05651 0.13966 0.0
C1674 C 0.49165 0.06648 0.20603 0.0
C1675 C 0.45101 0.04238 0.20684 0.0
N1676 N 0.50974 0.05864 0.16026 0.0
N1677 N 0.45979 0.03974 0.18514 0.0
H1678 H 0.74656 0.69084 0.94691 0.0
H1679 H 0.78689 0.81965 0.89897 0.0
H1680 H 0.78374 0.75952 0.99482 0.0
H1681 H 0.77346 0.74371 0.85206 0.0
H1682 H 0.77735 0.80052 0.93427 0.0
H1683 H 0.74702 0.71314 0.91194 0.0
C1684 C 0.75412 0.7109 0.95026 0.0
C1685 C 0.76505 0.72343 0.97376 0.0
C1686 C 0.77614 0.78815 0.9161 0.0
C1687 C 0.76591 0.74885 0.93395 0.0
C1688 C 0.78155 0.79904 0.89598 0.0
C1689 C 0.78071 0.78329 0.87246 0.0
C1690 C 0.76963 0.76136 0.91259 0.0
C1691 C 0.77389 0.75665 0.86969 0.0
C1692 C 0.75463 0.72349 0.93026 0.0
C1693 C 0.77507 0.74924 0.97697 0.0
N1694 N 0.76863 0.74653 0.8895 0.0
N1695 N 0.77538 0.76105 0.95727 0.0
H1696 H 0.89493 0.18768 0.02461 0.0
H1697 H 0.92276 0.06727 0.07654 0.0
H1698 H 0.87321 0.16421 0.08941 0.0
H1699 H 0.93517 0.0825 1.00488 0.0
H1700 H 0.90982 0.10725 0.08528 0.0
H1701 H 0.9165 0.15469 0.02175 0.0
C1702 C 0.89533 0.17612 0.03867 0.0
C1703 C 0.88238 0.17823 0.05712 0.0
C1704 C 0.91535 0.10182 0.06762 0.0
C1705 C 0.90619 0.1405 0.05374 0.0
C1706 C 0.92262 0.07898 0.0626 0.0
C1707 C 0.9298 0.07148 0.03986 0.0
C1708 C 0.91528 0.11726 0.04976 0.0
C1709 C 0.92934 0.08733 0.02243 0.0
C1710 C 0.90735 0.15716 0.0369 0.0
C1711 C 0.88302 0.16282 0.07483 0.0
N1712 N 0.92217 0.10951 0.02774 0.0
N1713 N 0.89456 0.14432 0.07254 0.0
H1714 H 0.39434 0.43614 0.1022 0.0
H1715 H 0.47336 0.50376 0.02391 0.0
H1716 H 0.37151 0.46827 0.0412 0.0
H1717 H 0.4868 0.50897 0.10307 0.0
H1718 H 0.43735 0.48219 0.02487 0.0
H1719 H 0.42984 0.4538 0.09722 0.0
C1720 C 0.39677 0.44674 0.08756 0.0
C1721 C 0.37988 0.45084 0.07214 0.0
C1722 C 0.44828 0.48796 0.04193 0.0
C1723 C 0.4207 0.47108 0.06638 0.0
C1724 C 0.46879 0.50003 0.04139 0.0
C1725 C 0.48297 0.50808 0.06349 0.0
C1726 C 0.44222 0.48343 0.0646 0.0
C1727 C 0.4763 0.50307 0.08567 0.0
C1728 C 0.41708 0.45691 0.08485 0.0
C1729 C 0.38409 0.46486 0.05359 0.0
N1730 N 0.45644 0.49093 0.08564 0.0
N1731 N 0.40417 0.47449 0.05116 0.0
H1732 H 0.39366 0.6376 0.83693 0.0
H1733 H 0.30759 0.70004 0.76962 0.0
H1734 H 0.36455 0.60385 0.76165 0.0
H1735 H 0.35265 0.74213 0.83247 0.0
H1736 H 0.32584 0.66378 0.76706 0.0
H1737 H 0.37688 0.67429 0.83616 0.0
C1738 C 0.38376 0.63786 0.82006 0.0
C1739 C 0.3807 0.61723 0.79931 0.0
C1740 C 0.3318 0.68096 0.78134 0.0
C1741 C 0.36073 0.65998 0.79851 0.0
C1742 C 0.3213 0.70179 0.78295 0.0
C1743 C 0.32838 0.72453 0.80143 0.0
C1744 C 0.34951 0.68237 0.79855 0.0
C1745 C 0.34641 0.72525 0.81793 0.0
C1746 C 0.37414 0.65905 0.81968 0.0
C1747 C 0.36762 0.61917 0.77808 0.0
N1748 N 0.35611 0.70461 0.81621 0.0
N1749 N 0.35798 0.63991 0.77834 0.0
H1750 H 0.25772 0.67832 0.53394 0.0
H1751 H 0.1804 0.63243 0.62664 0.0
H1752 H 0.27637 0.68511 0.61261 0.0
H1753 H 0.16776 0.60618 0.54693 0.0
H1754 H 0.21352 0.65887 0.62212 0.0
H1755 H 0.22225 0.65901 0.53878 0.0
C1756 C 0.25426 0.67606 0.55226 0.0
C1757 C 0.26996 0.68291 0.57285 0.0
C1758 C 0.2035 0.64735 0.60561 0.0
C1759 C 0.22968 0.66106 0.5785 0.0
C1760 C 0.18474 0.63233 0.60822 0.0
C1761 C 0.17172 0.61721 0.58712 0.0
C1762 C 0.20916 0.64705 0.58172 0.0
C1763 C 0.17762 0.61769 0.56356 0.0
C1764 C 0.2341 0.66495 0.55498 0.0
C1765 C 0.26473 0.67966 0.5962 0.0
N1766 N 0.19605 0.63233 0.56145 0.0
N1767 N 0.24502 0.66886 0.59838 0.0
H1768 H 0.67892 0.93266 0.78814 0.0
H1769 H 0.78546 0.88481 0.82317 0.0
H1770 H 0.73195 0.98058 0.83746 0.0
H1771 H 0.72716 0.83149 0.79664 0.0
H1772 H 0.76716 0.92057 0.82314 0.0
H1773 H 0.69738 0.89634 0.78504 0.0
C1774 C 0.6946 0.93579 0.79782 0.0
C1775 C 0.70386 0.95999 0.81292 0.0
C1776 C 0.75832 0.90107 0.81729 0.0
C1777 C 0.72513 0.91819 0.80965 0.0
C1778 C 0.76881 0.8805 0.81728 0.0
C1779 C 0.75798 0.8548 0.80993 0.0
C1780 C 0.73671 0.89628 0.8095 0.0
C1781 C 0.73629 0.85083 0.80255 0.0
C1782 C 0.70505 0.9149 0.79631 0.0
C1783 C 0.72411 0.96246 0.82548 0.0
N1784 N 0.72646 0.87121 0.80239 0.0
N1785 N 0.73397 0.94205 0.82352 0.0
H1786 H 0.7616 0.96565 0.61917 0.0
H1787 H 0.66623 0.95826 0.51475 0.0
H1788 H 0.7547 0.91718 0.54599 0.0
H1789 H 0.66834 0.991 0.59276 0.0
H1790 H 0.69839 0.94297 0.52488 0.0
H1791 H 0.72746 0.97541 0.60893 0.0
C1792 C 0.75286 0.95694 0.60095 0.0
C1793 C 0.76107 0.94057 0.58344 0.0
C1794 C 0.69166 0.95325 0.53977 0.0
C1795 C 0.72178 0.95184 0.57146 0.0
C1796 C 0.67335 0.96207 0.53401 0.0
C1797 C 0.66458 0.97606 0.55294 0.0
C1798 C 0.70137 0.9587 0.56459 0.0
C1799 C 0.67436 0.98013 0.57757 0.0
C1800 C 0.73329 0.96248 0.59512 0.0
C1801 C 0.74895 0.92986 0.5601 0.0
N1802 N 0.69228 0.97173 0.58262 0.0
N1803 N 0.72996 0.93583 0.5547 0.0
H1804 H 0.35445 0.49315 0.8265 0.0
H1805 H 0.33508 0.33985 0.77248 0.0
H1806 H 0.39157 0.46211 0.77305 0.0
H1807 H 0.30364 0.37821 0.82834 0.0
H1808 H 0.35683 0.38222 0.77175 0.0
H1809 H 0.33607 0.45005 0.82577 0.0
C1810 C 0.35872 0.47728 0.81433 0.0
C1811 C 0.37479 0.48179 0.7998 0.0
C1812 C 0.34535 0.38123 0.78439 0.0
C1813 C 0.35335 0.43092 0.79907 0.0
C1814 C 0.3331 0.35695 0.78505 0.0
C1815 C 0.31757 0.35525 0.80076 0.0
C1816 C 0.34199 0.40396 0.7995 0.0
C1817 C 0.31542 0.37832 0.81604 0.0
C1818 C 0.34814 0.45236 0.81402 0.0
C1819 C 0.37925 0.45989 0.78446 0.0
N1820 N 0.32726 0.40133 0.81495 0.0
N1821 N 0.36869 0.4355 0.78456 0.0
H1822 H 0.21218 0.60055 0.36519 0.0
H1823 H 0.25294 0.68786 0.2702 0.0
H1824 H 0.19225 0.57752 0.28596 0.0
H1825 H 0.25635 0.71675 0.34914 0.0
H1826 H 0.23357 0.64621 0.27509 0.0
H1827 H 0.231 0.64165 0.35919 0.0
C1828 C 0.21177 0.60402 0.34645 0.0
C1829 C 0.20049 0.58523 0.32608 0.0
C1830 C 0.23856 0.66168 0.29132 0.0
C1831 C 0.22249 0.63284 0.319 0.0
C1832 C 0.24973 0.68552 0.28858 0.0
C1833 C 0.25643 0.70613 0.30926 0.0
C1834 C 0.23417 0.65808 0.31501 0.0
C1835 C 0.2516 0.70167 0.33256 0.0
C1836 C 0.22254 0.62767 0.34305 0.0
C1837 C 0.20061 0.59128 0.30229 0.0
N1838 N 0.24094 0.67829 0.33477 0.0
N1839 N 0.2115 0.61437 0.29941 0.0
H1840 H 0.53197 0.70298 0.46033 0.0
H1841 H 0.49948 0.60051 0.54177 0.0
H1842 H 0.47726 0.69986 0.4974 0.0
H1843 H 0.56222 0.61935 0.52533 0.0
H1844 H 0.49151 0.63783 0.52639 0.0
H1845 H 0.54402 0.67336 0.48451 0.0
C1846 C 0.52259 0.69633 0.47372 0.0
C1847 C 0.50339 0.70364 0.47652 0.0
C1848 C 0.50709 0.63398 0.52639 0.0
C1849 C 0.51706 0.6697 0.50413 0.0
C1850 C 0.51162 0.61268 0.53512 0.0
C1851 C 0.53149 0.60685 0.53469 0.0
C1852 C 0.52239 0.64917 0.51657 0.0
C1853 C 0.54672 0.62329 0.52603 0.0
C1854 C 0.52952 0.67946 0.48756 0.0
C1855 C 0.492 0.6945 0.49428 0.0
N1856 N 0.54175 0.64351 0.51691 0.0
N1857 N 0.49889 0.67779 0.50717 0.0
H1858 H 0.63989 0.28893 0.69556 0.0
H1859 H 0.73491 0.33944 0.80674 0.0
H1860 H 0.64448 0.3528 0.75725 0.0
H1861 H 0.7317 0.27004 0.75201 0.0
H1862 H 0.70366 0.34681 0.78442 0.0
H1863 H 0.67469 0.28335 0.71197 0.0
C1864 C 0.64827 0.30192 0.71237 0.0
C1865 C 0.63922 0.32133 0.72513 0.0
C1866 C 0.70966 0.32994 0.77706 0.0
C1867 C 0.67886 0.31511 0.74381 0.0
C1868 C 0.72759 0.32575 0.78983 0.0
C1869 C 0.73575 0.30399 0.78131 0.0
C1870 C 0.69937 0.31201 0.75566 0.0
C1871 C 0.72581 0.28707 0.75912 0.0
C1872 C 0.66807 0.29867 0.72173 0.0
C1873 C 0.6507 0.33749 0.74685 0.0
N1874 N 0.70787 0.29125 0.74713 0.0
N1875 N 0.6698 0.33398 0.75543 0.0
H1876 H 0.96571 0.324 0.99532 0.0
H1877 H 0.05394 0.4515 0.0211 0.0
H1878 H 0.02356 0.32951 0.96447 0.0
H1879 H 0.99236 0.45028 0.04173 0.0
H1880 H 0.04485 0.40509 1.00601 0.0
H1881 H 0.97716 0.36855 0.01816 0.0
C1882 C 0.98086 0.33447 0.99347 0.0
C1883 C 0.99357 0.32307 0.97768 0.0
C1884 C 0.03337 0.41494 0.014 0.0
C1885 C 1.0067 0.37396 1.00372 0.0
C1886 C 0.03856 0.44147 0.02269 0.0
C1887 C 0.02381 0.45487 0.03245 0.0
C1888 C 0.01331 0.40165 0.01513 0.0
C1889 C 1.00414 0.44078 0.03406 0.0
C1890 C 0.98736 0.3599 1.00648 0.0
C1891 C 0.01312 0.33753 0.97619 0.0
N1892 N 0.99942 0.41492 0.02534 0.0
N1893 N 0.01901 0.36225 0.9889 0.0
H1894 H 0.01792 0.84116 0.22171 0.0
H1895 H 0.92243 0.73466 0.2361 0.0
H1896 H 0.02392 0.76257 0.21935 0.0
H1897 H 0.92794 0.81598 0.2648 0.0
H1898 H 0.95757 0.74342 0.22472 0.0
H1899 H 0.98306 0.83122 0.23295 0.0
C1900 C 1.01186 0.82179 0.22378 0.0
C1901 C 0.02378 0.80269 0.21989 0.0
C1902 C 0.95101 0.75927 0.2335 0.0
C1903 C 0.98364 0.79096 0.23212 0.0
C1904 C 0.93096 0.75433 0.24001 0.0
C1905 C 0.92213 0.7746 0.25158 0.0
C1906 C 0.96225 0.78465 0.23836 0.0
C1907 C 0.93383 0.79973 0.25564 0.0
C1908 C 0.99197 0.81612 0.23015 0.0
C1909 C 0.01525 0.77787 0.22262 0.0
N1910 N 0.95322 0.804 0.24907 0.0
N1911 N 0.99552 0.7726 0.22837 0.0
H1912 H 0.51662 0.25646 0.06935 0.0
H1913 H 0.56626 0.40446 0.11422 0.0
H1914 H 0.49128 0.31356 0.11567 0.0
H1915 H 0.56965 0.36385 0.04025 0.0
H1916 H 0.55237 0.36363 0.125 0.0
H1917 H 0.54574 0.29026 0.06563 0.0
C1918 C 0.51685 0.27628 0.07794 0.0
C1919 C 0.50128 0.28257 0.09213 0.0
C1920 C 0.55703 0.36358 0.10673 0.0
C1921 C 0.53509 0.32035 0.0898 0.0
C1922 C 0.56535 0.38678 0.10073 0.0
C1923 C 0.56762 0.38741 0.07585 0.0
C1924 C 0.5518 0.34132 0.08781 0.0
C1925 C 0.567 0.36411 0.05932 0.0
C1926 C 0.53367 0.29526 0.0764 0.0
C1927 C 0.50261 0.30819 0.10386 0.0
N1928 N 0.55816 0.34179 0.06521 0.0
N1929 N 0.5194 0.32616 0.10265 0.0
H1930 H 1.00903 0.36334 0.47724 0.0
H1931 H 0.93078 0.31829 0.35012 0.0
H1932 H 0.0283 0.35668 0.40422 0.0
H1933 H 0.91103 0.34509 0.42083 0.0
H1934 H 0.96664 0.32654 0.37091 0.0
H1935 H 0.97275 0.35416 0.45774 0.0
C1936 C 1.00565 0.36064 0.45718 0.0
C1937 C 0.02165 0.36061 0.44232 0.0
C1938 C 0.95443 0.33054 0.38187 0.0
C1939 C 0.98042 0.34928 0.41999 0.0
C1940 C 0.93404 0.32569 0.37006 0.0
C1941 C 0.91815 0.33149 0.3838 0.0
C1942 C 0.95883 0.34134 0.40748 0.0
C1943 C 0.92294 0.34046 0.40963 0.0
C1944 C 0.98498 0.35508 0.44607 0.0
C1945 C 0.01646 0.35691 0.41641 0.0
N1946 N 0.94297 0.34541 0.42067 0.0
N1947 N 0.99623 0.35097 0.40603 0.0
H1948 H 1.00954 0.68169 0.65042 0.0
H1949 H 0.0487 0.62048 0.5278 0.0
H1950 H 0.99209 0.69381 0.57673 0.0
H1951 H 0.05299 0.5922 0.59562 0.0
H1952 H 0.04273 0.66096 0.55115 0.0
H1953 H 0.03625 0.65921 0.63478 0.0
C1954 C 1.01108 0.67896 0.63078 0.0
C1955 C 0.99823 0.68848 0.61449 0.0
C1956 C 0.046 0.64632 0.56115 0.0
C1957 C 0.0293 0.66449 0.5969 0.0
C1958 C 0.04979 0.62343 0.5479 0.0
C1959 C 0.05073 0.60292 0.55984 0.0
C1960 C 0.04295 0.64799 0.58615 0.0
C1961 C 0.0522 0.60751 0.58577 0.0
C1962 C 0.02658 0.66679 0.62204 0.0
C1963 C 1.00119 0.68562 0.5895 0.0
N1964 N 0.04746 0.62936 0.59809 0.0
N1965 N 0.01645 0.67375 0.58139 0.0
H1966 H 0.65061 0.85347 0.94392 0.0
H1967 H 0.64272 0.77656 0.81045 0.0
H1968 H 0.60157 0.78966 0.90757 0.0
H1969 H 0.69339 0.83792 0.8479 0.0
H1970 H 0.61967 0.79483 0.83762 0.0
H1971 H 0.65777 0.86146 0.90316 0.0
C1972 C 0.64085 0.84176 0.92729 0.0
C1973 C 0.62566 0.82072 0.92886 0.0
C1974 C 0.63565 0.80488 0.83937 0.0
C1975 C 0.63426 0.8289 0.88235 0.0
C1976 C 0.64876 0.79451 0.82372 0.0
C1977 C 0.67005 0.80526 0.82775 0.0
C1978 C 0.64418 0.82565 0.85937 0.0
C1979 C 0.67712 0.82863 0.84491 0.0
C1980 C 0.64491 0.84628 0.90402 0.0
C1981 C 0.61335 0.80616 0.90698 0.0
N1982 N 0.66435 0.83766 0.86066 0.0
N1983 N 0.61828 0.81007 0.88454 0.0
H1984 H 0.4924 0.56219 0.73962 0.0
H1985 H 0.4893 0.5216 0.59117 0.0
H1986 H 0.43246 0.53592 0.69398 0.0
H1987 H 0.539 0.57332 0.64297 0.0
H1988 H 0.46762 0.52157 0.62555 0.0
H1989 H 0.50903 0.56003 0.70257 0.0
C1990 C 0.48251 0.55592 0.72179 0.0
C1991 C 0.4607 0.54947 0.72051 0.0
C1992 C 0.48324 0.53304 0.62919 0.0
C1993 C 0.48042 0.54688 0.67651 0.0
C1994 C 0.49563 0.53323 0.60943 0.0
C1995 C 0.5162 0.54778 0.6137 0.0
C1996 C 0.49159 0.547 0.65359 0.0
C1997 C 0.52341 0.56179 0.63824 0.0
C1998 C 0.49222 0.55474 0.70032 0.0
C1999 C 0.44926 0.54123 0.69624 0.0
N2000 N 0.51139 0.56086 0.65682 0.0
N2001 N 0.4592 0.54018 0.67529 0.0
H2002 H 0.82436 0.23454 0.02075 0.0
H2003 H 0.75232 0.31369 0.96893 0.0
H2004 H 0.81996 0.30877 0.06241 0.0
H2005 H 0.74204 0.23116 0.9456 0.0
H2006 H 0.76965 0.31078 1.00871 0.0
H2007 H 0.79085 0.23187 0.99613 0.0
C2008 C 0.8165 0.25064 0.02409 0.0
C2009 C 0.82517 0.27244 0.04265 0.0
C2010 C 0.76303 0.29315 0.99525 0.0
C2011 C 0.7865 0.2692 0.01544 0.0
C2012 C 0.75274 0.2947 0.97242 0.0
C2013 C 0.74746 0.27275 0.95302 0.0
C2014 C 0.76786 0.26956 0.9983 0.0
C2015 C 0.74742 0.2488 0.95947 0.0
C2016 C 0.79713 0.24883 0.01059 0.0
C2017 C 0.81402 0.29218 0.04745 0.0
N2018 N 0.75869 0.24784 0.98117 0.0
N2019 N 0.79532 0.29032 0.03356 0.0
H2020 H 0.09853 0.54894 0.2512 0.0
H2021 H 0.08266 0.51288 0.10092 0.0
H2022 H 0.13339 0.49679 0.2135 0.0
H2023 H 0.04233 0.54863 0.14669 0.0
H2024 H 0.10443 0.5097 0.1395 0.0
H2025 H 0.08124 0.55209 0.21144 0.0
C2026 C 0.1027 0.53806 0.23455 0.0
C2027 C 0.1176 0.52244 0.2362 0.0
C2028 C 0.09087 0.51836 0.14097 0.0
C2029 C 0.09722 0.52609 0.18924 0.0
C2030 C 0.07854 0.52038 0.11893 0.0
C2031 C 0.06057 0.53116 0.12039 0.0
C2032 C 0.08532 0.52752 0.16461 0.0
C2033 C 0.05591 0.54015 0.14436 0.0
C2034 C 0.09264 0.53988 0.21156 0.0
C2035 C 0.12203 0.50903 0.21341 0.0
N2036 N 0.06806 0.53819 0.16514 0.0
N2037 N 0.11191 0.51113 0.19093 0.0
H2038 H 0.79513 0.86798 0.5096 0.0
H2039 H 0.83519 0.79799 0.38846 0.0
H2040 H 0.85087 0.83613 0.51199 0.0
H2041 H 0.77444 0.81774 0.38751 0.0
H2042 H 0.84106 0.81169 0.4338 0.0
H2043 H 0.78679 0.84886 0.46517 0.0
C2044 C 0.80551 0.85672 0.5009 0.0
C2045 C 0.82387 0.85392 0.51461 0.0
C2046 C 0.82643 0.81298 0.4237 0.0
C2047 C 0.81447 0.83219 0.46354 0.0
C2048 C 0.82311 0.80531 0.39777 0.0
C2049 C 0.80435 0.80688 0.38414 0.0
C2050 C 0.81097 0.82257 0.43612 0.0
C2051 C 0.78916 0.81623 0.39726 0.0
C2052 C 0.80074 0.84584 0.47547 0.0
C2053 C 0.83663 0.83899 0.50222 0.0
N2054 N 0.79286 0.82388 0.42249 0.0
N2055 N 0.8318 0.82893 0.47737 0.0
H2056 H 0.43983 0.57522 0.87902 0.0
H2057 H 0.51702 0.50683 0.95418 0.0
H2058 H 0.47284 0.51974 0.8432 0.0
H2059 H 0.49719 0.57529 0.98881 0.0
H2060 H 0.49871 0.50934 0.91417 0.0
H2061 H 0.45801 0.57331 0.91961 0.0
C2062 C 0.45077 0.56246 0.87962 0.0
C2063 C 0.45467 0.54754 0.85742 0.0
C2064 C 0.49837 0.5239 0.93044 0.0
C2065 C 0.47573 0.54533 0.90425 0.0
C2066 C 0.50887 0.5225 0.95346 0.0
C2067 C 0.50885 0.54093 0.97518 0.0
C2068 C 0.48735 0.54372 0.92879 0.0
C2069 C 0.49787 0.56071 0.97269 0.0
C2070 C 0.46126 0.56152 0.9029 0.0
C2071 C 0.46922 0.53158 0.85964 0.0
N2072 N 0.48751 0.56148 0.95006 0.0
N2073 N 0.47908 0.53085 0.88249 0.0
H2074 H 0.84259 0.28202 0.12768 0.0
H2075 H 0.7981 0.23881 0.24325 0.0
H2076 H 0.85078 0.21337 0.15363 0.0
H2077 H 0.79328 0.31109 0.22312 0.0
H2078 H 0.80643 0.22289 0.20204 0.0
H2079 H 0.8173 0.28869 0.15638 0.0
C2080 C 0.83957 0.26887 0.1401 0.0
C2081 C 0.84915 0.24755 0.139 0.0
C2082 C 0.80296 0.24199 0.20627 0.0
C2083 C 0.81977 0.2544 0.17092 0.0
C2084 C 0.79796 0.25091 0.22967 0.0
C2085 C 0.79563 0.27637 0.23637 0.0
C2086 C 0.80642 0.25919 0.19026 0.0
C2087 C 0.79543 0.29141 0.21841 0.0
C2088 C 0.82475 0.27228 0.15594 0.0
C2089 C 0.84407 0.2304 0.15455 0.0
N2090 N 0.80151 0.28286 0.19618 0.0
N2091 N 0.82974 0.23426 0.16999 0.0
H2092 H 0.15098 0.51233 0.39798 0.0
H2093 H 0.04614 0.52884 0.45746 0.0
H2094 H 0.09859 0.53375 0.35944 0.0
H2095 H 0.10281 0.52499 0.50192 0.0
H2096 H 0.06455 0.52796 0.42103 0.0
H2097 H 0.13355 0.51471 0.43545 0.0
C2098 C 0.13593 0.51781 0.39737 0.0
C2099 C 0.12644 0.523 0.37525 0.0
C2100 C 0.07303 0.5273 0.43872 0.0
C2101 C 0.10598 0.52528 0.41845 0.0
C2102 C 0.06244 0.5277 0.45966 0.0
C2103 C 0.0728 0.5271 0.48314 0.0
C2104 C 0.09426 0.52589 0.4408 0.0
C2105 C 0.09407 0.52568 0.48442 0.0
C2106 C 0.12591 0.51908 0.41886 0.0
C2107 C 0.10672 0.52971 0.37588 0.0
N2108 N 0.10398 0.52501 0.46369 0.0
N2109 N 0.09721 0.53048 0.39687 0.0
H2110 H 0.78603 0.8538 0.62629 0.0
H2111 H 0.82027 0.82159 0.75812 0.0
H2112 H 0.8504 0.86069 0.65622 0.0
H2113 H 0.76265 0.78243 0.71194 0.0
H2114 H 0.83032 0.84234 0.72389 0.0
H2115 H 0.77563 0.83334 0.6606 0.0
C2116 C 0.79794 0.85097 0.64 0.0
C2117 C 0.8191 0.85873 0.63824 0.0
C2118 C 0.81551 0.82913 0.72128 0.0
C2119 C 0.80737 0.83602 0.6777 0.0
C2120 C 0.80982 0.81733 0.74079 0.0
C2121 C 0.79077 0.80012 0.73774 0.0
C2122 C 0.80181 0.82401 0.69882 0.0
C2123 C 0.7776 0.79542 0.71497 0.0
C2124 C 0.79202 0.83931 0.65952 0.0
C2125 C 0.8339 0.8547 0.65662 0.0
N2126 N 0.78329 0.80739 0.69642 0.0
N2127 N 0.82777 0.84384 0.67565 0.0
H2128 H 0.7094 0.4107 0.48052 0.0
H2129 H 0.65454 0.47564 0.59034 0.0
H2130 H 0.71204 0.38715 0.55121 0.0
H2131 H 0.65008 0.49005 0.51577 0.0
H2132 H 0.6735 0.44119 0.57698 0.0
H2133 H 0.68486 0.43696 0.49322 0.0
C2134 C 0.70495 0.41126 0.49894 0.0
C2135 C 0.71339 0.39747 0.51519 0.0
C2136 C 0.66816 0.45181 0.56359 0.0
C2137 C 0.685 0.42784 0.53006 0.0
C2138 C 0.65759 0.47159 0.57124 0.0
C2139 C 0.6509 0.48582 0.55417 0.0
C2140 C 0.67208 0.44652 0.53882 0.0
C2141 C 0.65481 0.47951 0.52954 0.0
C2142 C 0.69073 0.42619 0.50615 0.0
C2143 C 0.70634 0.39815 0.53842 0.0
N2144 N 0.66517 0.46045 0.5227 0.0
N2145 N 0.69271 0.41353 0.54541 0.0
H2146 H 0.20755 0.09671 0.56576 0.0
H2147 H 0.08528 0.08272 0.52318 0.0
H2148 H 0.18458 0.13737 0.51181 0.0
H2149 H 0.11285 0.03121 0.56128 0.0
H2150 H 0.12056 0.10674 0.522 0.0
H2151 H 0.17201 0.07657 0.56779 0.0
C2152 C 0.19501 0.10153 0.55436 0.0
C2153 C 0.19916 0.11872 0.53848 0.0
C2154 C 0.11879 0.09017 0.53058 0.0
C2155 C 0.15802 0.09548 0.54075 0.0
C2156 C 0.09872 0.07652 0.53131 0.0
C2157 C 0.09618 0.05488 0.54224 0.0
C2158 C 0.13629 0.08216 0.5411 0.0
C2159 C 0.11405 0.0477 0.55257 0.0
C2160 C 0.17464 0.08991 0.55549 0.0
C2161 C 0.18213 0.12411 0.5242 0.0
N2162 N 0.13324 0.06126 0.55175 0.0
N2163 N 0.16227 0.11253 0.52567 0.0
H2164 H 0.22847 0.97363 0.85605 0.0
H2165 H 0.23485 0.83451 0.77521 0.0
H2166 H 0.18877 0.94075 0.78622 0.0
H2167 H 0.278 0.87496 0.84035 0.0
H2168 H 0.217 0.87137 0.77877 0.0
H2169 H 0.24565 0.93693 0.85032 0.0
C2170 C 0.22337 0.95886 0.83927 0.0
C2171 C 0.20695 0.96093 0.82158 0.0
C2172 C 0.23039 0.87222 0.79227 0.0
C2173 C 0.22703 0.91751 0.81494 0.0
C2174 C 0.24065 0.85102 0.7903 0.0
C2175 C 0.25827 0.85127 0.8074 0.0
C2176 C 0.23749 0.8941 0.81168 0.0
C2177 C 0.26472 0.87355 0.82651 0.0
C2178 C 0.2333 0.93763 0.83606 0.0
C2179 C 0.20135 0.94053 0.80039 0.0
N2180 N 0.25444 0.89369 0.82809 0.0
N2181 N 0.21122 0.91983 0.79776 0.0
H2182 H 0.32111 0.85256 0.02409 0.0
H2183 H 0.39163 0.98959 0.02878 0.0
H2184 H 0.29702 0.92172 0.0224 0.0
H2185 H 0.4144 0.91908 0.01082 0.0
H2186 H 0.35715 0.96452 0.02906 0.0
H2187 H 0.35559 0.87579 0.02003 0.0
C2188 C 0.32298 0.87248 0.02244 0.0
C2189 C 0.30622 0.88532 0.02382 0.0
C2190 C 0.36965 0.95448 0.02494 0.0
C2191 C 0.34554 0.912 0.01969 0.0
C2192 C 0.38932 0.9688 0.02479 0.0
C2193 C 0.40581 0.95637 0.01953 0.0
C2194 C 0.3664 0.92752 0.01984 0.0
C2195 C 0.4021 0.92939 0.01509 0.0
C2196 C 0.34267 0.88574 0.02027 0.0
C2197 C 0.30951 0.91111 0.02162 0.0
N2198 N 0.38272 0.91581 0.01529 0.0
N2199 N 0.32884 0.92367 0.01995 0.0
H2200 H 0.85222 0.60622 0.82109 0.0
H2201 H 0.85277 0.74726 0.79578 0.0
H2202 H 0.9 0.6418 0.78385 0.0
H2203 H 0.79606 0.69488 0.79827 0.0
H2204 H 0.87169 0.71154 0.79487 0.0
H2205 H 0.83288 0.64031 0.81644 0.0
C2206 C 0.85859 0.62101 0.81161 0.0
C2207 C 0.87782 0.62066 0.80262 0.0
C2208 C 0.85508 0.70782 0.7954 0.0
C2209 C 0.85572 0.66092 0.79794 0.0
C2210 C 0.84419 0.72828 0.79589 0.0
C2211 C 0.82255 0.72434 0.79677 0.0
C2212 C 0.84451 0.68311 0.79658 0.0
C2213 C 0.81258 0.69913 0.79733 0.0
C2214 C 0.84748 0.64062 0.80901 0.0
C2215 C 0.88517 0.64083 0.79077 0.0
N2216 N 0.82358 0.67981 0.79752 0.0
N2217 N 0.87433 0.6602 0.78911 0.0
H2218 H 0.80433 0.61545 0.06709 0.0
H2219 H 0.91357 0.60203 0.02231 0.0
H2220 H 0.83021 0.65565 0.01325 0.0
H2221 H 0.89777 0.58426 0.09199 0.0
H2222 H 0.88253 0.62064 0.01802 0.0
H2223 H 0.83769 0.60218 0.07584 0.0
C2224 C 0.81703 0.62159 0.05723 0.0
C2225 C 0.81448 0.63664 0.0394 0.0
C2226 C 0.88594 0.61283 0.03435 0.0
C2227 C 0.85248 0.62134 0.04904 0.0
C2228 C 0.90377 0.60231 0.03689 0.0
C2229 C 0.90829 0.59127 0.05743 0.0
C2230 C 0.87235 0.61213 0.05232 0.0
C2231 C 0.8947 0.59194 0.07552 0.0
C2232 C 0.83607 0.61409 0.06227 0.0
C2233 C 0.83148 0.64412 0.02721 0.0
N2234 N 0.87727 0.60194 0.07243 0.0
N2235 N 0.84965 0.6362 0.03207 0.0
H2236 H 0.19929 0.08167 0.79132 0.0
H2237 H 0.2514 0.23117 0.84594 0.0
H2238 H 0.21078 0.11384 0.87016 0.0
H2239 H 0.26838 0.18769 0.7802 0.0
H2240 H 0.22921 0.19133 0.85181 0.0
H2241 H 0.21768 0.12283 0.78386 0.0
C2242 C 0.2055 0.09737 0.80708 0.0
C2243 C 0.20347 0.09392 0.83147 0.0
C2244 C 0.23751 0.19062 0.83585 0.0
C2245 C 0.22425 0.14178 0.82291 0.0
C2246 C 0.24996 0.21349 0.83229 0.0
C2247 C 0.26154 0.21303 0.81224 0.0
C2248 C 0.23626 0.16706 0.81901 0.0
C2249 C 0.25951 0.18916 0.79568 0.0
C2250 C 0.21606 0.12093 0.80279 0.0
C2251 C 0.21202 0.11528 0.85105 0.0
N2252 N 0.24716 0.16738 0.79932 0.0
N2253 N 0.2218 0.13813 0.84636 0.0
H2254 H 0.3916 0.97182 0.27458 0.0
H2255 H 0.31543 0.87791 0.33803 0.0
H2256 H 0.35758 0.99701 0.33413 0.0
H2257 H 0.33282 0.85032 0.26619 0.0
H2258 H 0.3331 0.9212 0.33716 0.0
H2259 H 0.37228 0.92736 0.27084 0.0
C2260 C 0.37996 0.96821 0.28664 0.0
C2261 C 0.37644 0.98855 0.30482 0.0
C2262 C 0.33313 0.90579 0.3215 0.0
C2263 C 0.35446 0.9374 0.30089 0.0
C2264 C 0.32305 0.88086 0.32204 0.0
C2265 C 0.32256 0.86012 0.30222 0.0
C2266 C 0.34329 0.91051 0.30113 0.0
C2267 C 0.3327 0.8656 0.28194 0.0
C2268 C 0.36897 0.94273 0.28455 0.0
C2269 C 0.36115 0.9823 0.31995 0.0
N2270 N 0.34275 0.89014 0.282 0.0
N2271 N 0.35102 0.95757 0.31777 0.0
H2272 H 0.58867 0.35463 0.60547 0.0
H2273 H 0.52154 0.45079 0.56974 0.0
H2274 H 0.55395 0.39354 0.65711 0.0
H2275 H 0.58613 0.4695 0.55969 0.0
H2276 H 0.52965 0.41737 0.59135 0.0
H2277 H 0.58612 0.38741 0.57984 0.0
C2278 C 0.58126 0.37058 0.61183 0.0
C2279 C 0.57173 0.3718 0.63347 0.0
C2280 C 0.54192 0.42852 0.58394 0.0
C2281 C 0.5678 0.40775 0.60404 0.0
C2282 C 0.5373 0.4474 0.57146 0.0
C2283 C 0.55324 0.46302 0.56313 0.0
C2284 C 0.56249 0.42491 0.58768 0.0
C2285 C 0.57347 0.45794 0.5661 0.0
C2286 C 0.57958 0.38894 0.59714 0.0
C2287 C 0.56167 0.39222 0.64064 0.0
N2288 N 0.57761 0.43927 0.57828 0.0
N2289 N 0.5596 0.40911 0.62572 0.0
H2290 H 0.45614 0.79269 0.36744 0.0
H2291 H 0.33163 0.75902 0.35587 0.0
H2292 H 0.42367 0.73794 0.40504 0.0
H2293 H 0.36586 0.79647 0.30593 0.0
H2294 H 0.36491 0.75812 0.38046 0.0
H2295 H 0.42285 0.8015 0.35138 0.0
C2296 C 0.44201 0.78258 0.37243 0.0
C2297 C 0.4427 0.7643 0.38735 0.0
C2298 C 0.36507 0.76694 0.36438 0.0
C2299 C 0.4044 0.77427 0.36891 0.0
C2300 C 0.34616 0.76762 0.35053 0.0
C2301 C 0.34621 0.77784 0.32898 0.0
C2302 C 0.38396 0.77695 0.35669 0.0
C2303 C 0.36529 0.78836 0.32244 0.0
C2304 C 0.42298 0.78764 0.36326 0.0
C2305 C 0.42385 0.75209 0.39347 0.0
N2306 N 0.38339 0.78764 0.33621 0.0
N2307 N 0.40543 0.75712 0.38405 0.0
H2308 H 0.02831 0.74497 0.10399 0.0
H2309 H 0.08268 0.6227 0.08987 0.0
H2310 H 0.08312 0.74202 0.15276 0.0
H2311 H 0.02164 0.62321 0.05334 0.0
H2312 H 0.08696 0.6689 0.10744 0.0
H2313 H 0.02973 0.70301 0.07966 0.0
C2314 C 0.04068 0.7355 0.1096 0.0
C2315 C 0.05539 0.74685 0.13074 0.0
C2316 C 0.07277 0.65891 0.09531 0.0
C2317 C 0.05706 0.69857 0.10288 0.0
C2318 C 0.07037 0.63265 0.08518 0.0
C2319 C 0.05169 0.61916 0.07038 0.0
C2320 C 0.05644 0.67166 0.09029 0.0
C2321 C 0.03618 0.63284 0.06495 0.0
C2322 C 0.0415 0.71153 0.09563 0.0
C2323 C 0.07133 0.73386 0.13674 0.0
N2324 N 0.03887 0.65828 0.07499 0.0
N2325 N 0.07161 0.71023 0.12302 0.0
H2326 H 0.06659 0.29729 0.91471 0.0
H2327 H 0.1566 0.24205 0.84868 0.0
H2328 H 0.05898 0.2213 0.86885 0.0
H2329 H 0.15994 0.32341 0.8743 0.0
H2330 H 0.1231 0.23343 0.86357 0.0
H2331 H 0.10276 0.30662 0.90641 0.0
C2332 C 0.07253 0.28256 0.90301 0.0
C2333 C 0.05974 0.25847 0.89241 0.0
C2334 C 0.13121 0.25319 0.86611 0.0
C2335 C 0.10096 0.26892 0.88312 0.0
C2336 C 0.15047 0.25811 0.85785 0.0
C2337 C 0.16104 0.28349 0.86009 0.0
C2338 C 0.12238 0.27375 0.87676 0.0
C2339 C 0.15214 0.30355 0.87186 0.0
C2340 C 0.09312 0.28791 0.89828 0.0
C2341 C 0.06821 0.24013 0.87737 0.0
N2342 N 0.13323 0.29827 0.87965 0.0
N2343 N 0.08826 0.24573 0.87322 0.0
H2344 H 0.52699 0.82321 0.03094 0.0
H2345 H 0.51118 0.68038 0.99449 0.0
H2346 H 0.57845 0.78445 0.02047 0.0
H2347 H 0.50087 0.70043 0.07105 0.0
H2348 H 0.52268 0.72607 0.99505 0.0
H2349 H 0.50795 0.78527 0.04299 0.0
C2350 C 0.53472 0.80727 0.03225 0.0
C2351 C 0.55365 0.80608 0.02281 0.0
C2352 C 0.51711 0.72034 0.01137 0.0
C2353 C 0.53213 0.76347 0.03635 0.0
C2354 C 0.51032 0.69445 0.01097 0.0
C2355 C 0.50594 0.68677 0.03305 0.0
C2356 C 0.51897 0.73829 0.03378 0.0
C2357 C 0.50465 0.70568 0.05382 0.0
C2358 C 0.5237 0.78563 0.03886 0.0
C2359 C 0.56335 0.7856 0.02618 0.0
N2360 N 0.5119 0.73084 0.05404 0.0
N2361 N 0.552 0.76438 0.03147 0.0
H2362 H 0.05298 0.7089 0.68599 0.0
H2363 H 0.17016 0.78234 0.72464 0.0
H2364 H 0.07257 0.78878 0.68297 0.0
H2365 H 0.15103 0.69963 0.70941 0.0
H2366 H 0.13488 0.78553 0.70898 0.0
H2367 H 0.08909 0.70551 0.6943 0.0
C2368 C 0.06492 0.72579 0.68706 0.0
C2369 C 0.05981 0.74932 0.68425 0.0
C2370 C 0.13848 0.7667 0.70887 0.0
C2371 C 0.10128 0.74548 0.69368 0.0
C2372 C 0.1586 0.76484 0.71773 0.0
C2373 C 0.16348 0.74066 0.71842 0.0
C2374 C 0.12316 0.74425 0.70092 0.0
C2375 C 0.14785 0.71866 0.70963 0.0
C2376 C 0.08557 0.72377 0.69166 0.0
C2377 C 0.07591 0.77039 0.68536 0.0
N2378 N 0.12833 0.72101 0.70138 0.0
N2379 N 0.09604 0.76805 0.69027 0.0
H2380 H 0.12085 0.41662 0.54483 0.0
H2381 H 0.02823 0.47809 0.49959 0.0
H2382 H 0.10783 0.41524 0.46761 0.0
H2383 H 0.03185 0.43636 0.55744 0.0
H2384 H 0.06056 0.46661 0.48692 0.0
H2385 H 0.0973 0.44652 0.55373 0.0
C2386 C 0.11359 0.42352 0.52956 0.0
C2387 C 0.11095 0.40896 0.50519 0.0
C2388 C 0.05449 0.46028 0.50272 0.0
C2389 C 0.08667 0.44398 0.51443 0.0
C2390 C 0.03594 0.4665 0.50982 0.0
C2391 C 0.03103 0.46339 0.53337 0.0
C2392 C 0.06557 0.44758 0.51779 0.0
C2393 C 0.03767 0.44276 0.54154 0.0
C2394 C 0.09979 0.44012 0.53467 0.0
C2395 C 0.10584 0.42241 0.48671 0.0
N2396 N 0.05607 0.43725 0.53547 0.0
N2397 N 0.09141 0.43731 0.49094 0.0
H2398 H 0.43129 0.24652 0.16868 0.0
H2399 H 0.40407 0.26383 0.30499 0.0
H2400 H 0.47318 0.22493 0.22295 0.0
H2401 H 0.41529 0.32286 0.26211 0.0
H2402 H 0.41737 0.23456 0.27329 0.0
H2403 H 0.40868 0.25491 0.20034 0.0
C2404 C 0.43528 0.24252 0.18691 0.0
C2405 C 0.45449 0.23635 0.19377 0.0
C2406 C 0.41678 0.25395 0.27108 0.0
C2407 C 0.4291 0.24594 0.22952 0.0
C2408 C 0.4097 0.27075 0.28923 0.0
C2409 C 0.40846 0.29565 0.28587 0.0
C2410 C 0.42191 0.26219 0.24952 0.0
C2411 C 0.41568 0.30368 0.2651 0.0
C2412 C 0.42243 0.24729 0.2049 0.0
C2413 C 0.4588 0.23081 0.21743 0.0
N2414 N 0.42178 0.28682 0.24747 0.0
N2415 N 0.44648 0.23663 0.23495 0.0
H2416 H 0.65011 0.51172 0.40316 0.0
H2417 H 0.54928 0.54678 0.46362 0.0
H2418 H 0.60489 0.54776 0.36847 0.0
H2419 H 0.59128 0.50653 0.49773 0.0
H2420 H 0.57113 0.55003 0.43056 0.0
H2421 H 0.63105 0.51263 0.43936 0.0
C2422 C 0.63635 0.52014 0.40318 0.0
C2423 C 0.62932 0.52977 0.38242 0.0
C2424 C 0.57595 0.54096 0.44552 0.0
C2425 C 0.60702 0.53064 0.42426 0.0
C2426 C 0.56348 0.53926 0.46463 0.0
C2427 C 0.56881 0.52742 0.48441 0.0
C2428 C 0.59403 0.53037 0.44557 0.0
C2429 C 0.58707 0.51716 0.4839 0.0
C2430 C 0.62536 0.52053 0.42393 0.0
C2431 C 0.61115 0.54017 0.38382 0.0
N2432 N 0.59892 0.51885 0.46494 0.0
N2433 N 0.60075 0.54024 0.4041 0.0
H2434 H 0.2689 0.75014 0.05527 0.0
H2435 H 0.33419 0.85176 0.17059 0.0
H2436 H 0.24468 0.80818 0.10127 0.0
H2437 H 0.34881 0.77701 0.1511 0.0
H2438 H 0.30636 0.8401 0.13516 0.0
H2439 H 0.29975 0.75838 0.08657 0.0
C2440 C 0.26954 0.76379 0.07257 0.0
C2441 C 0.25597 0.78128 0.07431 0.0
C2442 C 0.31569 0.82617 0.13872 0.0
C2443 C 0.29041 0.79048 0.10966 0.0
C2444 C 0.3319 0.83292 0.15856 0.0
C2445 C 0.34013 0.81306 0.16674 0.0
C2446 C 0.31059 0.80055 0.1254 0.0
C2447 C 0.33978 0.79131 0.14798 0.0
C2448 C 0.28754 0.76914 0.0899 0.0
C2449 C 0.25625 0.7964 0.09798 0.0
N2450 N 0.32385 0.78449 0.12887 0.0
N2451 N 0.27414 0.80228 0.11419 0.0
H2452 H 0.97738 0.53136 0.851 0.0
H2453 H 0.99208 0.55837 1.00179 0.0
H2454 H 0.93956 0.57639 0.89237 0.0
H2455 H 0.03482 0.52886 0.95544 0.0
H2456 H 0.96992 0.56151 0.96356 0.0
H2457 H 0.99545 0.52631 0.89007 0.0
C2458 C 0.97271 0.54013 0.86829 0.0
C2459 C 0.9568 0.55442 0.86802 0.0
C2460 C 0.98411 0.55422 0.96185 0.0
C2461 C 0.97792 0.5487 0.91381 0.0
C2462 C 0.99671 0.55228 0.98371 0.0
C2463 C 0.01549 0.54332 0.98203 0.0
C2464 C 0.99014 0.54679 0.93811 0.0
C2465 C 0.02064 0.53597 0.95794 0.0
C2466 C 0.98317 0.53728 0.89081 0.0
C2467 C 0.95167 0.5652 0.89143 0.0
N2468 N 1.00819 0.5378 0.93728 0.0
N2469 N 0.96217 0.56219 0.91326 0.0
H2470 H 0.25703 0.17738 0.60187 0.0
H2471 H 0.27177 0.29535 0.7162 0.0
H2472 H 0.28999 0.25207 0.59634 0.0
H2473 H 0.28581 0.22239 0.72552 0.0
H2474 H 0.26742 0.27997 0.67054 0.0
H2475 H 0.25585 0.19422 0.6461 0.0
C2476 C 0.2636 0.19745 0.60982 0.0
C2477 C 0.27374 0.21335 0.59551 0.0
C2478 C 0.27127 0.26737 0.6827 0.0
C2479 C 0.27214 0.23264 0.64575 0.0
C2480 C 0.27369 0.27604 0.70857 0.0
C2481 C 0.27925 0.26006 0.72439 0.0
C2482 C 0.27373 0.24233 0.67285 0.0
C2483 C 0.28165 0.23526 0.71381 0.0
C2484 C 0.26302 0.20694 0.63501 0.0
C2485 C 0.28217 0.23916 0.60681 0.0
N2486 N 0.27872 0.22703 0.68866 0.0
N2487 N 0.28116 0.24807 0.63132 0.0
H2488 H 0.6005 0.46461 0.22231 0.0
H2489 H 0.58011 0.56438 0.13531 0.0
H2490 H 0.63279 0.54372 0.24001 0.0
H2491 H 0.56059 0.48215 0.11103 0.0
H2492 H 0.59755 0.558 0.17458 0.0
H2493 H 0.58434 0.47135 0.18274 0.0
C2494 C 0.60432 0.48344 0.21788 0.0
C2495 C 0.61822 0.50357 0.23475 0.0
C2496 C 0.58951 0.54134 0.16065 0.0
C2497 C 0.59922 0.51161 0.189 0.0
C2498 C 0.57945 0.54496 0.13813 0.0
C2499 C 0.56877 0.52381 0.1195 0.0
C2500 C 0.58887 0.51635 0.16496 0.0
C2501 C 0.56856 0.49914 0.1246 0.0
C2502 C 0.59501 0.48727 0.19515 0.0
C2503 C 0.62238 0.52752 0.22768 0.0
N2504 N 0.57833 0.49615 0.1467 0.0
N2505 N 0.61284 0.5309 0.20555 0.0
H2506 H 0.23107 0.85393 0.96346 0.0
H2507 H 0.27159 0.74937 0.87185 0.0
H2508 H 0.21723 0.77314 0.96287 0.0
H2509 H 0.27951 0.82883 0.86614 0.0
H2510 H 0.25147 0.7582 0.90603 0.0
H2511 H 0.24267 0.84461 0.92292 0.0
C2512 C 0.22921 0.83401 0.95402 0.0
C2513 C 0.22564 0.81428 0.96721 0.0
C2514 C 0.25781 0.77382 0.89752 0.0
C2515 C 0.23862 0.80347 0.92176 0.0
C2516 C 0.26988 0.76896 0.8787 0.0
C2517 C 0.27681 0.78842 0.86634 0.0
C2518 C 0.25287 0.7983 0.90366 0.0
C2519 C 0.27418 0.8134 0.8754 0.0
C2520 C 0.23651 0.82875 0.93124 0.0
C2521 C 0.22174 0.78893 0.95373 0.0
N2522 N 0.26196 0.81763 0.89334 0.0
N2523 N 0.22973 0.78404 0.93214 0.0
H2524 H 0.93198 0.54112 0.70695 0.0
H2525 H 0.03573 0.56004 0.6403 0.0
H2526 H 0.99403 0.57503 0.74462 0.0
H2527 H 0.97533 0.5268 0.59764 0.0
H2528 H 0.01969 0.56517 0.67823 0.0
H2529 H 0.94622 0.53518 0.66688 0.0
C2530 C 0.94851 0.54735 0.70694 0.0
C2531 C 0.96168 0.55865 0.72958 0.0
C2532 C 1.00979 0.55674 0.66066 0.0
C2533 C 0.97819 0.55186 0.68348 0.0
C2534 C 0.01903 0.55376 0.63876 0.0
C2535 C 1.00704 0.54287 0.61532 0.0
C2536 C 0.98815 0.54881 0.65971 0.0
C2537 C 0.98535 0.5353 0.61509 0.0
C2538 C 0.95666 0.54394 0.68397 0.0
C2539 C 0.98303 0.56623 0.728 0.0
N2540 N 0.97667 0.53835 0.6368 0.0
N2541 N 0.99045 0.56272 0.70568 0.0
H2542 H 0.24485 0.18677 0.44784 0.0
H2543 H 0.28011 0.31384 0.39541 0.0
H2544 H 0.28173 0.2571 0.49333 0.0
H2545 H 0.26993 0.23724 0.35023 0.0
H2546 H 0.27169 0.29532 0.43128 0.0
H2547 H 0.24424 0.20758 0.41184 0.0
C2548 C 0.25218 0.20685 0.45044 0.0
C2549 C 0.26335 0.22028 0.47356 0.0
C2550 C 0.27098 0.28262 0.4134 0.0
C2551 C 0.26288 0.24399 0.43259 0.0
C2552 C 0.27574 0.29314 0.3929 0.0
C2553 C 0.27568 0.27705 0.36975 0.0
C2554 C 0.26577 0.25582 0.41066 0.0
C2555 C 0.27006 0.25035 0.3677 0.0
C2556 C 0.25206 0.21857 0.42986 0.0
C2557 C 0.27296 0.24609 0.4758 0.0
N2558 N 0.26531 0.24056 0.38788 0.0
N2559 N 0.2726 0.25708 0.45555 0.0
H2560 H 0.36443 0.65808 0.58875 0.0
H2561 H 0.45874 0.60811 0.53015 0.0
H2562 H 0.40029 0.69992 0.54281 0.0
H2563 H 0.40513 0.55944 0.54673 0.0
H2564 H 0.44332 0.64587 0.54343 0.0
H2565 H 0.38705 0.62683 0.585 0.0
C2566 C 0.37744 0.66105 0.5784 0.0
C2567 C 0.38016 0.681 0.56529 0.0
C2568 C 0.43497 0.62691 0.54408 0.0
C2569 C 0.40574 0.6453 0.56075 0.0
C2570 C 0.4436 0.60552 0.53635 0.0
C2571 C 0.43291 0.58095 0.53719 0.0
C2572 C 0.4158 0.62349 0.55311 0.0
C2573 C 0.41357 0.57818 0.54558 0.0
C2574 C 0.39019 0.64311 0.57612 0.0
C2575 C 0.3975 0.68442 0.55273 0.0
N2576 N 0.40562 0.59932 0.55338 0.0
N2577 N 0.40949 0.66629 0.55027 0.0
H2578 H 0.86752 0.9729 0.5471 0.0
H2579 H 0.99102 0.98198 0.57292 0.0
H2580 H 0.89577 0.92608 0.59071 0.0
H2581 H 0.96195 0.03683 0.54168 0.0
H2582 H 0.95629 0.9578 0.57544 0.0
H2583 H 0.90211 0.99295 0.54045 0.0
C2584 C 0.88097 0.96666 0.55511 0.0
C2585 C 0.8787 0.94783 0.56957 0.0
C2586 C 0.95756 0.97511 0.56799 0.0
C2587 C 0.91845 0.97081 0.56211 0.0
C2588 C 0.97734 0.98887 0.56656 0.0
C2589 C 0.97932 1.01148 0.55721 0.0
C2590 C 0.93973 0.98404 0.55992 0.0
C2591 C 0.96114 0.01954 0.54909 0.0
C2592 C 0.90075 0.97817 0.55137 0.0
C2593 C 0.89674 0.9405 0.57943 0.0
N2594 N 0.94215 1.00589 0.55068 0.0
N2595 N 0.91585 0.95206 0.5756 0.0
H2596 H 0.8536 0.09427 0.26759 0.0
H2597 H 0.85236 0.24368 0.32556 0.0
H2598 H 0.89943 0.14236 0.32649 0.0
H2599 H 0.80093 0.19336 0.27537 0.0
H2600 H 0.871 0.20784 0.32324 0.0
H2601 H 0.83559 0.13079 0.26694 0.0
C2602 C 0.86019 0.11261 0.27996 0.0
C2603 C 0.87838 0.11515 0.29683 0.0
C2604 C 0.85563 0.20455 0.31269 0.0
C2605 C 0.85752 0.15735 0.29651 0.0
C2606 C 0.8449 0.22517 0.31402 0.0
C2607 C 0.8248 0.2219 0.30076 0.0
C2608 C 0.84648 0.1801 0.29785 0.0
C2609 C 0.81627 0.19712 0.28607 0.0
C2610 C 0.84975 0.13349 0.27979 0.0
C2611 C 0.88567 0.13941 0.31293 0.0
N2612 N 0.82704 0.17742 0.28503 0.0
N2613 N 0.87538 0.1593 0.31232 0.0
H2614 H 0.77751 0.1936 0.12991 0.0
H2615 H 0.67266 0.11237 0.04527 0.0
H2616 H 0.76595 0.18586 0.05009 0.0
H2617 H 0.68538 0.11963 0.12489 0.0
H2618 H 0.70545 0.14242 0.0469 0.0
H2619 H 0.74219 0.17011 0.1288 0.0
C2620 C 0.76749 0.18717 0.11218 0.0
C2621 C 0.77477 0.19134 0.09001 0.0
C2622 C 0.70102 0.13746 0.064 0.0
C2623 C 0.73441 0.16429 0.08857 0.0
C2624 C 0.68233 0.12036 0.06307 0.0
C2625 C 0.67647 0.11329 0.08493 0.0
C2626 C 0.71385 0.14753 0.08696 0.0
C2627 C 0.68955 0.12412 0.10751 0.0
C2628 C 0.74733 0.1737 0.11154 0.0
C2629 C 0.76104 0.18279 0.06759 0.0
N2630 N 0.70765 0.14062 0.10792 0.0
N2631 N 0.74156 0.16943 0.06741 0.0
H2632 H 0.23053 0.47522 0.34146 0.0
H2633 H 0.22816 0.32541 0.28844 0.0
H2634 H 0.18133 0.4293 0.28508 0.0
H2635 H 0.28365 0.37957 0.32534 0.0
H2636 H 0.20957 0.36142 0.28903 0.0
H2637 H 0.24895 0.43945 0.33747 0.0
C2638 C 0.22366 0.45773 0.32791 0.0
C2639 C 0.20427 0.4557 0.31343 0.0
C2640 C 0.22583 0.36541 0.29694 0.0
C2641 C 0.22542 0.41364 0.30921 0.0
C2642 C 0.23648 0.34478 0.29673 0.0
C2643 C 0.25768 0.34919 0.30679 0.0
C2644 C 0.23623 0.39083 0.30771 0.0
C2645 C 0.26743 0.37494 0.31721 0.0
C2646 C 0.23424 0.43714 0.32571 0.0
C2647 C 0.19629 0.43214 0.29642 0.0
N2648 N 0.2567 0.3945 0.31754 0.0
N2649 N 0.20673 0.41207 0.29499 0.0
H2650 H 0.25483 0.43203 0.09346 0.0
H2651 H 0.16569 0.46849 1.00425 0.0
H2652 H 0.25728 0.43311 0.0158 0.0
H2653 H 0.16821 0.48084 0.08413 0.0
H2654 H 0.19652 0.44932 1.00738 0.0
H2655 H 0.2206 0.44387 0.08952 0.0
C2656 C 0.24813 0.43456 0.07553 0.0
C2657 C 0.25909 0.43176 0.05497 0.0
C2658 C 0.19029 0.45609 0.02423 0.0
C2659 C 0.21984 0.44532 0.05037 0.0
C2660 C 0.1727 0.46713 0.02248 0.0
C2661 C 0.1645 0.47673 0.04401 0.0
C2662 C 0.19987 0.45455 0.04771 0.0
C2663 C 0.17395 0.47373 0.06703 0.0
C2664 C 0.22859 0.44137 0.07332 0.0
C2665 C 0.24953 0.43521 0.0322 0.0
N2666 N 0.19124 0.46313 0.0683 0.0
N2667 N 0.23055 0.4419 0.03056 0.0
H2668 H 0.89339 0.96023 0.28077 0.0
H2669 H 0.78751 0.87812 0.31018 0.0
H2670 H 0.84663 0.9929 0.31735 0.0
H2671 H 0.83921 0.84196 0.29365 0.0
H2672 H 0.80824 0.91947 0.30806 0.0
H2673 H 0.87332 0.91672 0.2801 0.0
C2674 C 0.87875 0.95838 0.28819 0.0
C2675 C 0.87174 0.98062 0.29895 0.0
C2676 C 0.81523 0.90263 0.3049 0.0
C2677 C 0.84864 0.93051 0.29846 0.0
C2678 C 0.80331 0.87878 0.30612 0.0
C2679 C 0.81147 0.85617 0.30225 0.0
C2680 C 0.83574 0.90449 0.29942 0.0
C2681 C 0.83217 0.85873 0.29697 0.0
C2682 C 0.8674 0.93344 0.28807 0.0
C2683 C 0.85279 0.97662 0.30875 0.0
N2684 N 0.84351 0.88232 0.29561 0.0
N2685 N 0.84206 0.95241 0.30818 0.0
H2686 H 0.68661 0.0833 0.78613 0.0
H2687 H 0.7639 0.21807 0.84739 0.0
H2688 H 0.71895 0.10198 0.86128 0.0
H2689 H 0.74386 0.19483 0.76816 0.0
H2690 H 0.74561 0.17656 0.8527 0.0
H2691 H 0.70537 0.12438 0.77915 0.0
C2692 C 0.69761 0.09594 0.80119 0.0
C2693 C 0.70106 0.08889 0.8244 0.0
C2694 C 0.74516 0.18041 0.83411 0.0
C2695 C 0.72261 0.13635 0.81647 0.0
C2696 C 0.75561 0.2043 0.83101 0.0
C2697 C 0.75551 0.21027 0.80722 0.0
C2698 C 0.73414 0.16202 0.81336 0.0
C2699 C 0.74446 0.19125 0.78686 0.0
C2700 C 0.70837 0.11944 0.79714 0.0
C2701 C 0.71564 0.1063 0.84307 0.0
N2702 N 0.73417 0.16813 0.79039 0.0
N2703 N 0.72569 0.12905 0.83874 0.0
loop_
_geom_bond_atom_site_label_1
_geom_bond_atom_site_label_2
_geom_bond_distance
_geom_bond_site_symmetry_2
_ccdc_geom_bond_type
Mg0 O1 2.028 . S
Mg0 O7 1.986 . S
Mg0 O9 2.114 . S
Mg0 O10 2.251 . S
Mg0 O13 2.010 . S
O1 Mg0 2.028 . S
O1 C4 1.250 . S
O2 Mg3 2.028 . S
O2 C4 1.248 . S
Mg3 O2 2.028 . S
Mg3 O8 2.032 . S
Mg3 O10 2.079 . S
C4 O1 1.250 . S
C4 O2 1.248 . S
C5 O6 1.264 . S
C5 O13 1.249 . S
O6 C5 1.264 . S
O7 Mg0 1.986 . S
O7 C11 1.246 . S
O8 Mg3 2.032 . S
O8 C11 1.259 . S
O9 Mg0 2.114 . S
O9 C12 1.252 . S
O10 Mg0 2.251 . S
O10 Mg3 2.079 . S
O10 C12 1.273 . S
C11 O7 1.246 . S
C11 O8 1.259 . S
C12 O9 1.252 . S
C12 O10 1.273 . S
O13 Mg0 2.010 . S
O13 C5 1.249 . S
Mg14 O15 2.028 . S
Mg14 O21 1.986 . S
Mg14 O23 2.114 1_455 S
Mg14 O24 2.251 1_455 S
Mg14 O27 2.010 . S
O15 Mg14 2.028 . S
O15 C18 1.257 . S
O16 Mg17 2.028 . S
O16 C18 1.235 1_655 S
Mg17 O16 2.028 . S
Mg17 O22 2.032 . S
Mg17 O24 2.079 . S
C18 O15 1.257 . S
C18 O16 1.235 1_455 S
C19 O20 1.264 . S
C19 O27 1.249 . S
O20 C19 1.264 . S
O21 Mg14 1.986 . S
O21 C25 1.246 . S
O22 Mg17 2.032 . S
O22 C25 1.259 1_655 S
O23 Mg14 2.114 1_655 S
O23 C26 1.252 . S
O24 Mg14 2.251 1_655 S
O24 Mg17 2.079 . S
O24 C26 1.273 . S
C25 O21 1.246 . S
C25 O22 1.259 1_455 S
C26 O23 1.252 . S
C26 O24 1.273 . S
O27 Mg14 2.010 . S
O27 C19 1.249 . S
Mg28 O29 2.028 . S
Mg28 O35 1.986 . S
Mg28 O37 2.114 . S
Mg28 O38 2.251 . S
Mg28 O41 2.010 . S
O29 Mg28 2.028 . S
O29 C32 1.250 . S
O30 Mg31 2.028 . S
O30 C32 1.248 . S
Mg31 O30 2.028 . S
Mg31 O36 2.032 . S
Mg31 O38 2.079 . S
C32 O29 1.250 . S
C32 O30 1.248 . S
C33 O34 1.264 . S
C33 O41 1.249 . S
O34 C33 1.264 . S
O35 Mg28 1.986 . S
O35 C39 1.246 . S
O36 Mg31 2.032 . S
O36 C39 1.259 . S
O37 Mg28 2.114 . S
O37 C40 1.252 . S
O38 Mg28 2.251 . S
O38 Mg31 2.079 . S
O38 C40 1.273 . S
C39 O35 1.246 . S
C39 O36 1.259 . S
C40 O37 1.252 . S
C40 O38 1.273 . S
O41 Mg28 2.010 . S
O41 C33 1.249 . S
Mg42 O43 2.028 . S
Mg42 O49 1.986 . S
Mg42 O51 2.114 . S
Mg42 O52 2.251 . S
Mg42 O55 2.010 . S
O43 Mg42 2.028 . S
O43 C46 1.250 . S
O44 Mg45 2.028 . S
O44 C46 1.248 . S
Mg45 O44 2.028 . S
Mg45 O50 2.032 . S
Mg45 O52 2.079 . S
C46 O43 1.250 . S
C46 O44 1.248 . S
C47 O48 1.264 . S
C47 O55 1.249 . S
O48 C47 1.264 . S
O49 Mg42 1.986 . S
O49 C53 1.246 . S
O50 Mg45 2.032 . S
O50 C53 1.259 . S
O51 Mg42 2.114 . S
O51 C54 1.252 . S
O52 Mg42 2.251 . S
O52 Mg45 2.079 . S
O52 C54 1.273 . S
C53 O49 1.246 . S
C53 O50 1.259 . S
C54 O51 1.252 . S
C54 O52 1.273 . S
O55 Mg42 2.010 . S
O55 C47 1.249 . S
Mg56 O57 2.028 . S
Mg56 O63 1.986 . S
Mg56 O65 2.114 . S
Mg56 O66 2.251 . S
Mg56 O69 2.010 . S
O57 Mg56 2.028 . S
O57 C60 1.250 . S
O58 Mg59 2.028 . S
O58 C60 1.248 . S
Mg59 O58 2.028 . S
Mg59 O64 2.032 . S
Mg59 O66 2.079 . S
C60 O57 1.250 . S
C60 O58 1.248 . S
C61 O62 1.264 . S
C61 O69 1.249 . S
O62 C61 1.264 . S
O63 Mg56 1.986 . S
O63 C67 1.246 . S
O64 Mg59 2.032 . S
O64 C67 1.259 . S
O65 Mg56 2.114 . S
O65 C68 1.252 . S
O66 Mg56 2.251 . S
O66 Mg59 2.079 . S
O66 C68 1.273 . S
C67 O63 1.246 . S
C67 O64 1.259 . S
C68 O65 1.252 . S
C68 O66 1.273 . S
O69 Mg56 2.010 . S
O69 C61 1.249 . S
Mg70 O71 2.028 . S
Mg70 O77 1.986 . S
Mg70 O79 2.114 . S
Mg70 O80 2.251 . S
Mg70 O83 2.010 . S
O71 Mg70 2.028 . S
O71 C74 1.250 . S
O72 Mg73 2.028 . S
O72 C74 1.248 . S
Mg73 O72 2.028 . S
Mg73 O78 2.032 . S
Mg73 O80 2.079 . S
C74 O71 1.250 . S
C74 O72 1.248 . S
C75 O76 1.264 . S
C75 O83 1.249 . S
O76 C75 1.264 . S
O77 Mg70 1.986 . S
O77 C81 1.246 . S
O78 Mg73 2.032 . S
O78 C81 1.259 . S
O79 Mg70 2.114 . S
O79 C82 1.252 . S
O80 Mg70 2.251 . S
O80 Mg73 2.079 . S
O80 C82 1.273 . S
C81 O77 1.246 . S
C81 O78 1.259 . S
C82 O79 1.252 . S
C82 O80 1.273 . S
O83 Mg70 2.010 . S
O83 C75 1.249 . S
Mg84 O85 2.028 . S
Mg84 O91 1.986 . S
Mg84 O93 2.114 . S
Mg84 O94 2.251 . S
Mg84 O97 2.010 . S
O85 Mg84 2.028 . S
O85 C88 1.250 . S
O86 Mg87 2.028 . S
O86 C88 1.248 . S
Mg87 O86 2.028 . S
Mg87 O92 2.032 . S
Mg87 O94 2.079 . S
C88 O85 1.250 . S
C88 O86 1.248 . S
C89 O90 1.264 . S
C89 O97 1.249 . S
O90 C89 1.264 . S
O91 Mg84 1.986 . S
O91 C95 1.246 . S
O92 Mg87 2.032 . S
O92 C95 1.259 . S
O93 Mg84 2.114 . S
O93 C96 1.252 . S
O94 Mg84 2.251 . S
O94 Mg87 2.079 . S
O94 C96 1.273 . S
C95 O91 1.246 . S
C95 O92 1.259 . S
C96 O93 1.252 . S
C96 O94 1.273 . S
O97 Mg84 2.010 . S
O97 C89 1.249 . S
Mg98 O99 2.025 1_655 S
Mg98 O105 1.976 1_655 S
Mg98 O107 2.140 . S
Mg98 O108 2.298 . S
Mg98 O111 1.968 1_655 S
O99 Mg98 2.025 1_455 S
O99 C102 1.286 . S
O100 Mg101 2.028 . S
O100 C102 1.197 1_655 S
Mg101 O100 2.028 . S
Mg101 O106 2.032 . S
Mg101 O108 2.079 . S
C102 O99 1.286 . S
C102 O100 1.197 1_455 S
C103 O104 1.264 . S
C103 O111 1.249 . S
O104 C103 1.264 . S
O105 Mg98 1.976 1_455 S
O105 C109 1.246 1_455 S
O106 Mg101 2.032 . S
O106 C109 1.259 . S
O107 Mg98 2.140 . S
O107 C110 1.252 . S
O108 Mg98 2.298 . S
O108 Mg101 2.079 . S
O108 C110 1.273 . S
C109 O105 1.246 1_655 S
C109 O106 1.259 . S
C110 O107 1.252 . S
C110 O108 1.273 . S
O111 Mg98 1.968 1_455 S
O111 C103 1.249 . S
Mg112 O113 2.028 . S
Mg112 O119 1.986 . S
Mg112 O121 2.114 . S
Mg112 O122 2.251 . S
Mg112 O125 2.010 . S
O113 Mg112 2.028 . S
O113 C116 1.250 1_545 S
O114 Mg115 2.028 1_565 S
O114 C116 1.248 . S
Mg115 O114 2.028 1_545 S
Mg115 O120 2.032 . S
Mg115 O122 2.079 . S
C116 O113 1.250 1_565 S
C116 O114 1.248 . S
C117 O118 1.264 . S
C117 O125 1.249 . S
O118 C117 1.264 . S
O119 Mg112 1.986 . S
O119 C123 1.246 . S
O120 Mg115 2.032 . S
O120 C123 1.259 . S
O121 Mg112 2.114 . S
O121 C124 1.252 . S
O122 Mg112 2.251 . S
O122 Mg115 2.079 . S
O122 C124 1.273 . S
C123 O119 1.246 . S
C123 O120 1.259 . S
C124 O121 1.252 . S
C124 O122 1.273 . S
O125 Mg112 2.010 . S
O125 C117 1.249 . S
Mg126 O127 2.028 . S
Mg126 O133 1.986 . S
Mg126 O135 2.114 . S
Mg126 O136 2.251 . S
Mg126 O139 2.010 . S
O127 Mg126 2.028 . S
O127 C130 1.250 . S
O128 Mg129 2.028 . S
O128 C130 1.248 . S
Mg129 O128 2.028 . S
Mg129 O134 2.032 . S
Mg129 O136 2.079 . S
C130 O127 1.250 . S
C130 O128 1.248 . S
C131 O132 1.264 . S
C131 O139 1.249 . S
O132 C131 1.264 . S
O133 Mg126 1.986 . S
O133 C137 1.246 . S
O134 Mg129 2.032 . S
O134 C137 1.259 . S
O135 Mg126 2.114 . S
O135 C138 1.252 . S
O136 Mg126 2.251 . S
O136 Mg129 2.079 . S
O136 C138 1.273 . S
C137 O133 1.246 . S
C137 O134 1.259 . S
C138 O135 1.252 . S
C138 O136 1.273 . S
O139 Mg126 2.010 . S
O139 C131 1.249 . S
Mg140 O141 2.028 1_565 S
Mg140 O147 1.986 . S
Mg140 O149 2.114 1_565 S
Mg140 O150 2.251 . S
Mg140 O153 2.010 . S
O141 Mg140 2.028 1_545 S
O141 C144 1.250 . S
O142 Mg143 2.028 . S
O142 C144 1.248 . S
Mg143 O142 2.028 . S
Mg143 O148 2.032 1_545 S
Mg143 O150 2.079 1_545 S
C144 O141 1.250 . S
C144 O142 1.248 . S
C145 O146 1.264 . S
C145 O153 1.249 . S
O146 C145 1.264 . S
O147 Mg140 1.986 . S
O147 C151 1.246 . S
O148 Mg143 2.032 1_565 S
O148 C151 1.259 . S
O149 Mg140 2.114 1_545 S
O149 C152 1.252 . S
O150 Mg140 2.251 . S
O150 Mg143 2.079 1_565 S
O150 C152 1.273 1_565 S
C151 O147 1.246 . S
C151 O148 1.259 . S
C152 O149 1.252 . S
C152 O150 1.273 1_545 S
O153 Mg140 2.010 . S
O153 C145 1.249 . S
Mg154 O155 2.028 1_554 S
Mg154 O161 1.986 . S
Mg154 O163 2.114 1_554 S
Mg154 O164 2.251 . S
Mg154 O167 2.010 . S
O155 Mg154 2.028 1_556 S
O155 C158 1.250 . S
O156 Mg157 2.028 1_556 S
O156 C158 1.248 . S
Mg157 O156 2.028 1_554 S
Mg157 O162 2.032 . S
Mg157 O164 2.079 . S
C158 O155 1.250 . S
C158 O156 1.248 . S
C159 O160 1.264 . S
C159 O167 1.249 . S
O160 C159 1.264 . S
O161 Mg154 1.986 . S
O161 C165 1.246 . S
O162 Mg157 2.032 . S
O162 C165 1.259 . S
O163 Mg154 2.114 1_556 S
O163 C166 1.252 1_556 S
O164 Mg154 2.251 . S
O164 Mg157 2.079 . S
O164 C166 1.273 . S
C165 O161 1.246 . S
C165 O162 1.259 . S
C166 O163 1.252 1_554 S
C166 O164 1.273 . S
O167 Mg154 2.010 . S
O167 C159 1.249 . S
Mg168 O169 2.028 . S
Mg168 O175 1.986 . S
Mg168 O177 2.114 . S
Mg168 O178 2.251 . S
Mg168 O181 2.010 . S
O169 Mg168 2.028 . S
O169 C172 1.250 . S
O170 Mg171 2.028 . S
O170 C172 1.248 . S
Mg171 O170 2.028 . S
Mg171 O176 2.032 . S
Mg171 O178 2.079 . S
C172 O169 1.250 . S
C172 O170 1.248 . S
C173 O174 1.264 . S
C173 O181 1.249 . S
O174 C173 1.264 . S
O175 Mg168 1.986 . S
O175 C179 1.246 . S
O176 Mg171 2.032 . S
O176 C179 1.259 . S
O177 Mg168 2.114 . S
O177 C180 1.252 . S
O178 Mg168 2.251 . S
O178 Mg171 2.079 . S
O178 C180 1.273 . S
C179 O175 1.246 . S
C179 O176 1.259 . S
C180 O177 1.252 . S
C180 O178 1.273 . S
O181 Mg168 2.010 . S
O181 C173 1.249 . S
Mg182 O183 2.028 . S
Mg182 O189 1.986 . S
Mg182 O191 2.114 . S
Mg182 O192 2.251 . S
Mg182 O195 2.010 . S
O183 Mg182 2.028 . S
O183 C186 1.250 . S
O184 Mg185 2.028 . S
O184 C186 1.248 . S
Mg185 O184 2.028 . S
Mg185 O190 2.032 . S
Mg185 O192 2.079 . S
C186 O183 1.250 . S
C186 O184 1.248 . S
C187 O188 1.264 . S
C187 O195 1.249 . S
O188 C187 1.264 . S
O189 Mg182 1.986 . S
O189 C193 1.246 . S
O190 Mg185 2.032 . S
O190 C193 1.259 . S
O191 Mg182 2.114 . S
O191 C194 1.252 . S
O192 Mg182 2.251 . S
O192 Mg185 2.079 . S
O192 C194 1.273 . S
C193 O189 1.246 . S
C193 O190 1.259 . S
C194 O191 1.252 . S
C194 O192 1.273 . S
O195 Mg182 2.010 . S
O195 C187 1.249 . S
Mg196 O197 2.028 . S
Mg196 O203 1.986 . S
Mg196 O205 2.114 . S
Mg196 O206 2.251 . S
Mg196 O209 2.010 . S
O197 Mg196 2.028 . S
O197 C200 1.250 . S
O198 Mg199 2.028 . S
O198 C200 1.248 . S
Mg199 O198 2.028 . S
Mg199 O204 2.032 . S
Mg199 O206 2.079 . S
C200 O197 1.250 . S
C200 O198 1.248 . S
C201 O202 1.264 . S
C201 O209 1.249 . S
O202 C201 1.264 . S
O203 Mg196 1.986 . S
O203 C207 1.246 . S
O204 Mg199 2.032 . S
O204 C207 1.259 . S
O205 Mg196 2.114 . S
O205 C208 1.252 . S
O206 Mg196 2.251 . S
O206 Mg199 2.079 . S
O206 C208 1.273 . S
C207 O203 1.246 . S
C207 O204 1.259 . S
C208 O205 1.252 . S
C208 O206 1.273 . S
O209 Mg196 2.010 . S
O209 C201 1.249 . S
Mg210 O211 2.028 . S
Mg210 O217 1.986 . S
Mg210 O219 2.114 . S
Mg210 O220 2.251 . S
Mg210 O223 2.010 . S
O211 Mg210 2.028 . S
O211 C214 1.250 . S
O212 Mg213 2.028 . S
O212 C214 1.248 . S
Mg213 O212 2.028 . S
Mg213 O218 2.032 . S
Mg213 O220 2.079 . S
C214 O211 1.250 . S
C214 O212 1.248 . S
C215 O216 1.264 . S
C215 O223 1.249 . S
O216 C215 1.264 . S
O217 Mg210 1.986 . S
O217 C221 1.246 . S
O218 Mg213 2.032 . S
O218 C221 1.259 . S
O219 Mg210 2.114 . S
O219 C222 1.252 . S
O220 Mg210 2.251 . S
O220 Mg213 2.079 . S
O220 C222 1.273 . S
C221 O217 1.246 . S
C221 O218 1.259 . S
C222 O219 1.252 . S
C222 O220 1.273 . S
O223 Mg210 2.010 . S
O223 C215 1.249 . S
Mg224 O225 2.028 . S
Mg224 O231 1.986 . S
Mg224 O233 2.114 . S
Mg224 O234 2.251 . S
Mg224 O237 2.010 . S
O225 Mg224 2.028 . S
O225 C228 1.252 1_545 S
O226 Mg227 2.028 . S
O226 C228 1.248 1_545 S
Mg227 O226 2.028 . S
Mg227 O232 2.032 . S
Mg227 O234 2.079 . S
C228 O225 1.252 1_565 S
C228 O226 1.248 1_565 S
C229 O230 1.264 . S
C229 O237 1.249 . S
O230 C229 1.264 . S
O231 Mg224 1.986 . S
O231 C235 1.246 . S
O232 Mg227 2.032 . S
O232 C235 1.259 . S
O233 Mg224 2.114 . S
O233 C236 1.252 . S
O234 Mg224 2.251 . S
O234 Mg227 2.079 . S
O234 C236 1.273 . S
C235 O231 1.246 . S
C235 O232 1.259 . S
C236 O233 1.252 . S
C236 O234 1.273 . S
O237 Mg224 2.010 . S
O237 C229 1.249 . S
Mg238 O239 2.028 . S
Mg238 O245 1.986 . S
Mg238 O247 2.114 . S
Mg238 O248 2.251 . S
Mg238 O251 2.010 . S
O239 Mg238 2.028 . S
O239 C242 1.250 . S
O240 Mg241 2.028 . S
O240 C242 1.248 . S
Mg241 O240 2.028 . S
Mg241 O246 2.032 . S
Mg241 O248 2.079 . S
C242 O239 1.250 . S
C242 O240 1.248 . S
C243 O244 1.264 . S
C243 O251 1.249 . S
O244 C243 1.264 . S
O245 Mg238 1.986 . S
O245 C249 1.246 . S
O246 Mg241 2.032 . S
O246 C249 1.259 . S
O247 Mg238 2.114 . S
O247 C250 1.252 . S
O248 Mg238 2.251 . S
O248 Mg241 2.079 . S
O248 C250 1.273 . S
C249 O245 1.246 . S
C249 O246 1.259 . S
C250 O247 1.252 . S
C250 O248 1.273 . S
O251 Mg238 2.010 . S
O251 C243 1.249 . S
Mg252 O253 2.028 . S
Mg252 O259 1.986 . S
Mg252 O261 2.114 . S
Mg252 O262 2.251 . S
Mg252 O265 2.010 . S
O253 Mg252 2.028 . S
O253 C256 1.250 . S
O254 Mg255 2.028 . S
O254 C256 1.248 . S
Mg255 O254 2.028 . S
Mg255 O260 2.032 . S
Mg255 O262 2.079 . S
C256 O253 1.250 . S
C256 O254 1.248 . S
C257 O258 1.264 . S
C257 O265 1.249 . S
O258 C257 1.264 . S
O259 Mg252 1.986 . S
O259 C263 1.246 . S
O260 Mg255 2.032 . S
O260 C263 1.259 . S
O261 Mg252 2.114 . S
O261 C264 1.252 . S
O262 Mg252 2.251 . S
O262 Mg255 2.079 . S
O262 C264 1.273 . S
C263 O259 1.246 . S
C263 O260 1.259 . S
C264 O261 1.252 . S
C264 O262 1.273 . S
O265 Mg252 2.010 . S
O265 C257 1.249 . S
Mg266 O267 2.028 . S
Mg266 O273 1.986 1_545 S
Mg266 O275 2.114 . S
Mg266 O276 2.251 . S
Mg266 O279 2.010 1_545 S
O267 Mg266 2.028 . S
O267 C270 1.250 . S
O268 Mg269 2.028 . S
O268 C270 1.248 . S
Mg269 O268 2.028 . S
Mg269 O274 2.032 1_545 S
Mg269 O276 2.079 . S
C270 O267 1.250 . S
C270 O268 1.248 . S
C271 O272 1.264 . S
C271 O279 1.249 . S
O272 C271 1.264 . S
O273 Mg266 1.986 1_565 S
O273 C277 1.246 . S
O274 Mg269 2.032 1_565 S
O274 C277 1.259 . S
O275 Mg266 2.114 . S
O275 C278 1.252 . S
O276 Mg266 2.251 . S
O276 Mg269 2.079 . S
O276 C278 1.273 . S
C277 O273 1.246 . S
C277 O274 1.259 . S
C278 O275 1.252 . S
C278 O276 1.273 . S
O279 Mg266 2.010 1_565 S
O279 C271 1.249 . S
Mg280 O281 2.028 . S
Mg280 O287 1.986 . S
Mg280 O289 2.114 . S
Mg280 O290 2.251 . S
Mg280 O293 2.010 . S
O281 Mg280 2.028 . S
O281 C284 1.250 . S
O282 Mg283 2.028 . S
O282 C284 1.248 . S
Mg283 O282 2.028 . S
Mg283 O288 2.032 . S
Mg283 O290 2.079 . S
C284 O281 1.250 . S
C284 O282 1.248 . S
C285 O286 1.270 . S
C285 O293 1.249 . S
O286 C285 1.270 . S
O287 Mg280 1.986 . S
O287 C291 1.246 1_554 S
O288 Mg283 2.032 . S
O288 C291 1.259 1_554 S
O289 Mg280 2.114 . S
O289 C292 1.252 . S
O290 Mg280 2.251 . S
O290 Mg283 2.079 . S
O290 C292 1.273 . S
C291 O287 1.246 1_556 S
C291 O288 1.259 1_556 S
C292 O289 1.252 . S
C292 O290 1.273 . S
O293 Mg280 2.010 . S
O293 C285 1.249 . S
Mg294 O295 2.028 . S
Mg294 O301 1.986 . S
Mg294 O303 2.114 . S
Mg294 O304 2.251 . S
Mg294 O307 2.010 . S
O295 Mg294 2.028 . S
O295 C298 1.250 . S
O296 Mg297 2.028 . S
O296 C298 1.248 . S
Mg297 O296 2.028 . S
Mg297 O302 2.032 . S
Mg297 O304 2.079 . S
C298 O295 1.250 . S
C298 O296 1.248 . S
C299 O300 1.264 . S
C299 O307 1.249 . S
O300 C299 1.264 . S
O301 Mg294 1.986 . S
O301 C305 1.246 . S
O302 Mg297 2.032 . S
O302 C305 1.259 . S
O303 Mg294 2.114 . S
O303 C306 1.252 . S
O304 Mg294 2.251 . S
O304 Mg297 2.079 . S
O304 C306 1.273 . S
C305 O301 1.246 . S
C305 O302 1.259 . S
C306 O303 1.252 . S
C306 O304 1.273 . S
O307 Mg294 2.010 . S
O307 C299 1.249 . S
Mg308 O309 2.028 . S
Mg308 O315 1.986 . S
Mg308 O317 2.114 . S
Mg308 O318 2.251 . S
Mg308 O321 2.010 . S
O309 Mg308 2.028 . S
O309 C312 1.250 . S
O310 Mg311 2.028 . S
O310 C312 1.248 . S
Mg311 O310 2.028 . S
Mg311 O316 2.032 . S
Mg311 O318 2.079 . S
C312 O309 1.250 . S
C312 O310 1.248 . S
C313 O314 1.264 . S
C313 O321 1.249 . S
O314 C313 1.264 . S
O315 Mg308 1.986 . S
O315 C319 1.246 . S
O316 Mg311 2.032 . S
O316 C319 1.259 . S
O317 Mg308 2.114 . S
O317 C320 1.252 . S
O318 Mg308 2.251 . S
O318 Mg311 2.079 . S
O318 C320 1.273 . S
C319 O315 1.246 . S
C319 O316 1.259 . S
C320 O317 1.252 . S
C320 O318 1.273 . S
O321 Mg308 2.010 . S
O321 C313 1.249 . S
Mg322 O323 2.028 . S
Mg322 O329 1.986 . S
Mg322 O331 2.114 . S
Mg322 O332 2.251 . S
Mg322 O335 2.010 . S
O323 Mg322 2.028 . S
O323 C326 1.250 . S
O324 Mg325 2.028 . S
O324 C326 1.248 . S
Mg325 O324 2.028 . S
Mg325 O330 2.032 . S
Mg325 O332 2.079 . S
C326 O323 1.250 . S
C326 O324 1.248 . S
C327 O328 1.264 . S
C327 O335 1.249 . S
O328 C327 1.264 . S
O329 Mg322 1.986 . S
O329 C333 1.246 . S
O330 Mg325 2.032 . S
O330 C333 1.259 . S
O331 Mg322 2.114 . S
O331 C334 1.252 . S
O332 Mg322 2.251 . S
O332 Mg325 2.079 . S
O332 C334 1.273 . S
C333 O329 1.246 . S
C333 O330 1.259 . S
C334 O331 1.252 . S
C334 O332 1.273 . S
O335 Mg322 2.010 . S
O335 C327 1.249 . S
C336 Eu337 2.801 1_565 S
C336 C338 1.534 . S
C336 O356 1.249 . S
C336 O357 1.237 1_565 S
Eu337 C336 2.801 1_545 S
Eu337 O356 2.473 1_545 S
Eu337 O357 2.480 . S
Eu337 O358 2.430 . S
Eu337 O359 2.670 . S
Eu337 O360 2.394 1_545 S
Eu337 O365 2.355 . S
Eu337 O367 2.374 . S
C338 C336 1.534 . S
C338 C339 1.377 . S
C338 C343 1.377 . S
C339 C338 1.377 . S
C339 C340 1.395 . S
C339 H368 0.931 . S
C340 C339 1.395 . S
C340 C341 1.383 . S
C340 H369 0.931 . S
C341 C340 1.383 . S
C341 C342 1.394 . S
C342 C341 1.394 . S
C342 C343 1.378 . S
C342 H370 0.931 . S
C343 C338 1.377 . S
C343 C342 1.378 . S
C343 H371 0.931 . S
C344 O358 1.259 . S
C344 O359 1.270 . S
C345 O360 1.251 . S
C345 O361 1.251 . S
C346 Eu347 2.835 . S
C346 C348 1.500 . S
C346 O362 1.257 . S
C346 O363 1.260 1_554 S
Eu347 C346 2.835 . S
Eu347 O359 2.355 1_655 S
Eu347 O361 2.374 1_645 S
Eu347 O362 2.473 . S
Eu347 O363 2.480 1_554 S
Eu347 O364 2.430 1_644 S
Eu347 O365 2.670 1_655 S
Eu347 O366 2.394 1_655 S
C348 C346 1.500 . S
C348 C349 1.377 1_554 S
C348 C353 1.377 . S
C349 C348 1.377 1_556 S
C349 C350 1.395 . S
C349 H372 0.931 . S
C350 C349 1.395 . S
C350 C351 1.383 1_556 S
C350 H373 0.931 . S
C351 C350 1.383 1_554 S
C351 C352 1.394 . S
C352 C351 1.394 . S
C352 C353 1.378 . S
C352 H374 0.931 . S
C353 C348 1.377 . S
C353 C352 1.378 . S
C353 H375 0.931 . S
C354 O364 1.259 1_545 S
C354 O365 1.270 1_556 S
C355 O366 1.251 . S
C355 O367 1.251 . S
O356 C336 1.249 . S
O356 Eu337 2.473 1_565 S
O357 C336 1.237 1_545 S
O357 Eu337 2.480 . S
O358 Eu337 2.430 . S
O358 C344 1.259 . S
O359 Eu337 2.670 . S
O359 C344 1.270 . S
O359 Eu347 2.355 1_455 S
O360 Eu337 2.394 1_565 S
O360 C345 1.251 . S
O361 C345 1.251 . S
O361 Eu347 2.374 1_465 S
O362 C346 1.257 . S
O362 Eu347 2.473 . S
O363 C346 1.260 1_556 S
O363 Eu347 2.480 1_556 S
O364 Eu347 2.430 1_466 S
O364 C354 1.259 1_565 S
O365 Eu337 2.355 . S
O365 Eu347 2.670 1_455 S
O365 C354 1.270 1_554 S
O366 Eu347 2.394 1_455 S
O366 C355 1.251 . S
O367 Eu337 2.374 . S
O367 C355 1.251 . S
H368 C339 0.931 . S
H369 C340 0.931 . S
H370 C342 0.931 . S
H371 C343 0.931 . S
H372 C349 0.931 . S
H373 C350 0.931 . S
H374 C352 0.931 . S
H375 C353 0.931 . S
C376 Eu377 2.835 . S
C376 C378 1.500 . S
C376 O396 1.257 . S
C376 O397 1.260 . S
Eu377 C376 2.835 . S
Eu377 O396 2.473 . S
Eu377 O397 2.480 . S
Eu377 O398 2.430 . S
Eu377 O399 2.670 . S
Eu377 O400 2.394 . S
Eu377 O405 2.355 . S
Eu377 O407 2.374 . S
C378 C376 1.500 . S
C378 C379 1.377 . S
C378 C383 1.377 . S
C379 C378 1.377 . S
C379 C380 1.395 . S
C379 H408 0.931 . S
C380 C379 1.395 . S
C380 C381 1.383 . S
C380 H409 0.931 . S
C381 C380 1.383 . S
C381 C382 1.394 . S
C382 C381 1.394 . S
C382 C383 1.378 . S
C382 H410 0.931 . S
C383 C378 1.377 . S
C383 C382 1.378 . S
C383 H411 0.931 . S
C384 O398 1.259 . S
C384 O399 1.270 . S
C385 O400 1.251 . S
C385 O401 1.251 . S
C386 Eu387 2.835 . S
C386 C388 1.500 . S
C386 O402 1.257 . S
C386 O403 1.260 . S
Eu387 C386 2.835 . S
Eu387 O399 2.355 . S
Eu387 O401 2.374 . S
Eu387 O402 2.473 . S
Eu387 O403 2.480 . S
Eu387 O404 2.430 . S
Eu387 O405 2.670 . S
Eu387 O406 2.394 . S
C388 C386 1.500 . S
C388 C389 1.377 . S
C388 C393 1.377 . S
C389 C388 1.377 . S
C389 C390 1.395 . S
C389 H412 0.931 . S
C390 C389 1.395 . S
C390 C391 1.383 . S
C390 H413 0.931 . S
C391 C390 1.383 . S
C391 C392 1.394 . S
C392 C391 1.394 . S
C392 C393 1.378 . S
C392 H414 0.931 . S
C393 C388 1.377 . S
C393 C392 1.378 . S
C393 H415 0.931 . S
C394 O404 1.259 . S
C394 O405 1.270 . S
C395 O406 1.251 . S
C395 O407 1.251 . S
O396 C376 1.257 . S
O396 Eu377 2.473 . S
O397 C376 1.260 . S
O397 Eu377 2.480 . S
O398 Eu377 2.430 . S
O398 C384 1.259 . S
O399 Eu377 2.670 . S
O399 C384 1.270 . S
O399 Eu387 2.355 . S
O400 Eu377 2.394 . S
O400 C385 1.251 . S
O401 C385 1.251 . S
O401 Eu387 2.374 . S
O402 C386 1.257 . S
O402 Eu387 2.473 . S
O403 C386 1.260 . S
O403 Eu387 2.480 . S
O404 Eu387 2.430 . S
O404 C394 1.259 . S
O405 Eu377 2.355 . S
O405 Eu387 2.670 . S
O405 C394 1.270 . S
O406 Eu387 2.394 . S
O406 C395 1.251 . S
O407 Eu377 2.374 . S
O407 C395 1.251 . S
H408 C379 0.931 . S
H409 C380 0.931 . S
H410 C382 0.931 . S
H411 C383 0.931 . S
H412 C389 0.931 . S
H413 C390 0.931 . S
H414 C392 0.931 . S
H415 C393 0.931 . S
C416 Eu417 2.835 . S
C416 C418 1.500 . S
C416 O436 1.257 . S
C416 O437 1.260 . S
Eu417 C416 2.835 . S
Eu417 O436 2.473 . S
Eu417 O437 2.480 . S
Eu417 O438 2.430 . S
Eu417 O439 2.670 . S
Eu417 O440 2.394 . S
Eu417 O445 2.355 . S
Eu417 O447 2.374 1_545 S
C418 C416 1.500 . S
C418 C419 1.377 . S
C418 C423 1.377 . S
C419 C418 1.377 . S
C419 C420 1.395 . S
C419 H448 0.931 . S
C420 C419 1.395 . S
C420 C421 1.383 . S
C420 H449 0.931 . S
C421 C420 1.383 . S
C421 C422 1.394 . S
C422 C421 1.394 . S
C422 C423 1.378 . S
C422 H450 0.931 . S
C423 C418 1.377 . S
C423 C422 1.378 . S
C423 H451 0.931 . S
C424 O438 1.259 . S
C424 O439 1.270 . S
C425 O440 1.251 . S
C425 O441 1.251 . S
C426 Eu427 2.835 1_565 S
C426 C428 1.500 . S
C426 O442 1.257 . S
C426 O443 1.260 1_565 S
Eu427 C426 2.835 1_545 S
Eu427 O439 2.355 . S
Eu427 O441 2.374 . S
Eu427 O442 2.473 1_545 S
Eu427 O443 2.480 . S
Eu427 O444 2.430 . S
Eu427 O445 2.670 . S
Eu427 O446 2.394 1_545 S
C428 C426 1.500 . S
C428 C429 1.377 . S
C428 C433 1.377 . S
C429 C428 1.377 . S
C429 C430 1.395 . S
C429 H452 0.931 . S
C430 C429 1.395 . S
C430 C431 1.383 . S
C430 H453 0.931 . S
C431 C430 1.383 . S
C431 C432 1.394 . S
C432 C431 1.394 . S
C432 C433 1.378 . S
C432 H454 0.931 . S
C433 C428 1.377 . S
C433 C432 1.378 . S
C433 H455 0.931 . S
C434 O444 1.259 . S
C434 O445 1.270 . S
C435 O446 1.251 . S
C435 O447 1.251 . S
O436 C416 1.257 . S
O436 Eu417 2.473 . S
O437 C416 1.260 . S
O437 Eu417 2.480 . S
O438 Eu417 2.430 . S
O438 C424 1.259 . S
O439 Eu417 2.670 . S
O439 C424 1.270 . S
O439 Eu427 2.355 . S
O440 Eu417 2.394 . S
O440 C425 1.251 . S
O441 C425 1.251 . S
O441 Eu427 2.374 . S
O442 C426 1.257 . S
O442 Eu427 2.473 1_565 S
O443 C426 1.260 1_545 S
O443 Eu427 2.480 . S
O444 Eu427 2.430 . S
O444 C434 1.259 . S
O445 Eu417 2.355 . S
O445 Eu427 2.670 . S
O445 C434 1.270 . S
O446 Eu427 2.394 1_565 S
O446 C435 1.251 . S
O447 Eu417 2.374 1_565 S
O447 C435 1.251 . S
H448 C419 0.931 . S
H449 C420 0.931 . S
H450 C422 0.931 . S
H451 C423 0.931 . S
H452 C429 0.931 . S
H453 C430 0.931 . S
H454 C432 0.931 . S
H455 C433 0.931 . S
C456 Eu457 2.835 . S
C456 C458 1.500 . S
C456 O476 1.257 . S
C456 O477 1.260 . S
Eu457 C456 2.835 . S
Eu457 O476 2.473 . S
Eu457 O477 2.480 . S
Eu457 O478 2.430 . S
Eu457 O479 2.670 . S
Eu457 O480 2.394 . S
Eu457 O485 2.355 . S
Eu457 O487 2.374 . S
C458 C456 1.500 . S
C458 C459 1.377 . S
C458 C463 1.377 . S
C459 C458 1.377 . S
C459 C460 1.395 . S
C459 H488 0.931 . S
C460 C459 1.395 . S
C460 C461 1.383 . S
C460 H489 0.931 . S
C461 C460 1.383 . S
C461 C462 1.394 . S
C462 C461 1.394 . S
C462 C463 1.378 . S
C462 H490 0.931 . S
C463 C458 1.377 . S
C463 C462 1.378 . S
C463 H491 0.931 . S
C464 O478 1.259 . S
C464 O479 1.270 . S
C465 O480 1.251 . S
C465 O481 1.251 . S
C466 Eu467 2.835 . S
C466 C468 1.500 . S
C466 O482 1.257 . S
C466 O483 1.260 . S
Eu467 C466 2.835 . S
Eu467 O479 2.355 . S
Eu467 O481 2.374 . S
Eu467 O482 2.473 . S
Eu467 O483 2.480 . S
Eu467 O484 2.430 . S
Eu467 O485 2.670 . S
Eu467 O486 2.394 . S
C468 C466 1.500 . S
C468 C469 1.377 . S
C468 C473 1.377 . S
C469 C468 1.377 . S
C469 C470 1.395 . S
C469 H492 0.931 . S
C470 C469 1.395 . S
C470 C471 1.383 . S
C470 H493 0.931 . S
C471 C470 1.383 . S
C471 C472 1.394 . S
C472 C471 1.394 . S
C472 C473 1.378 . S
C472 H494 0.931 . S
C473 C468 1.377 . S
C473 C472 1.378 . S
C473 H495 0.931 . S
C474 O484 1.259 . S
C474 O485 1.270 . S
C475 O486 1.251 . S
C475 O487 1.251 . S
O476 C456 1.257 . S
O476 Eu457 2.473 . S
O477 C456 1.260 . S
O477 Eu457 2.480 . S
O478 Eu457 2.430 . S
O478 C464 1.259 . S
O479 Eu457 2.670 . S
O479 C464 1.270 . S
O479 Eu467 2.355 . S
O480 Eu457 2.394 . S
O480 C465 1.251 . S
O481 C465 1.251 . S
O481 Eu467 2.374 . S
O482 C466 1.257 . S
O482 Eu467 2.473 . S
O483 C466 1.260 . S
O483 Eu467 2.480 . S
O484 Eu467 2.430 . S
O484 C474 1.259 . S
O485 Eu457 2.355 . S
O485 Eu467 2.670 . S
O485 C474 1.270 . S
O486 Eu467 2.394 . S
O486 C475 1.251 . S
O487 Eu457 2.374 . S
O487 C475 1.251 . S
H488 C459 0.931 . S
H489 C460 0.931 . S
H490 C462 0.931 . S
H491 C463 0.931 . S
H492 C469 0.931 . S
H493 C470 0.931 . S
H494 C472 0.931 . S
H495 C473 0.931 . S
C496 Eu497 2.835 . S
C496 C498 1.500 . S
C496 O516 1.257 . S
C496 O517 1.260 . S
Eu497 C496 2.835 . S
Eu497 O516 2.473 . S
Eu497 O517 2.480 . S
Eu497 O518 2.430 1_565 S
Eu497 O519 2.670 1_565 S
Eu497 O520 2.394 1_565 S
Eu497 O525 2.355 1_565 S
Eu497 O527 2.374 1_565 S
C498 C496 1.500 . S
C498 C499 1.377 . S
C498 C503 1.377 . S
C499 C498 1.377 . S
C499 C500 1.395 . S
C499 H528 0.931 . S
C500 C499 1.395 . S
C500 C501 1.383 . S
C500 H529 0.931 . S
C501 C500 1.383 . S
C501 C502 1.394 . S
C502 C501 1.394 . S
C502 C503 1.378 . S
C502 H530 0.931 . S
C503 C498 1.377 . S
C503 C502 1.378 . S
C503 H531 0.931 . S
C504 O518 1.259 . S
C504 O519 1.270 . S
C505 O520 1.251 . S
C505 O521 1.251 . S
C506 Eu507 2.835 . S
C506 C508 1.500 . S
C506 O522 1.257 . S
C506 O523 1.260 1_455 S
Eu507 C506 2.835 . S
Eu507 O519 2.355 . S
Eu507 O521 2.374 . S
Eu507 O522 2.473 . S
Eu507 O523 2.480 1_455 S
Eu507 O524 2.430 1_455 S
Eu507 O525 2.670 . S
Eu507 O526 2.394 . S
C508 C506 1.500 . S
C508 C509 1.377 1_455 S
C508 C513 1.377 . S
C509 C508 1.377 1_655 S
C509 C510 1.395 . S
C509 H532 0.931 . S
C510 C509 1.395 . S
C510 C511 1.383 1_655 S
C510 H533 0.931 . S
C511 C510 1.383 1_455 S
C511 C512 1.394 . S
C512 C511 1.394 . S
C512 C513 1.378 . S
C512 H534 0.931 . S
C513 C508 1.377 . S
C513 C512 1.378 . S
C513 H535 0.931 . S
C514 O524 1.259 . S
C514 O525 1.270 1_655 S
C515 O526 1.251 . S
C515 O527 1.251 . S
O516 C496 1.257 . S
O516 Eu497 2.473 . S
O517 C496 1.260 . S
O517 Eu497 2.480 . S
O518 Eu497 2.430 1_545 S
O518 C504 1.259 . S
O519 Eu497 2.670 1_545 S
O519 C504 1.270 . S
O519 Eu507 2.355 . S
O520 Eu497 2.394 1_545 S
O520 C505 1.251 . S
O521 C505 1.251 . S
O521 Eu507 2.374 . S
O522 C506 1.257 . S
O522 Eu507 2.473 . S
O523 C506 1.260 1_655 S
O523 Eu507 2.480 1_655 S
O524 Eu507 2.430 1_655 S
O524 C514 1.259 . S
O525 Eu497 2.355 1_545 S
O525 Eu507 2.670 . S
O525 C514 1.270 1_455 S
O526 Eu507 2.394 . S
O526 C515 1.251 . S
O527 Eu497 2.374 1_545 S
O527 C515 1.251 . S
H528 C499 0.931 . S
H529 C500 0.931 . S
H530 C502 0.931 . S
H531 C503 0.931 . S
H532 C509 0.931 . S
H533 C510 0.931 . S
H534 C512 0.931 . S
H535 C513 0.931 . S
C536 Eu537 2.835 . S
C536 C538 1.500 . S
C536 O556 1.257 . S
C536 O557 1.260 . S
Eu537 C536 2.835 . S
Eu537 O556 2.473 . S
Eu537 O557 2.480 . S
Eu537 O558 2.430 . S
Eu537 O559 2.670 . S
Eu537 O560 2.394 . S
Eu537 O565 2.355 . S
Eu537 O567 2.374 . S
C538 C536 1.500 . S
C538 C539 1.377 . S
C538 C543 1.377 . S
C539 C538 1.377 . S
C539 C540 1.395 . S
C539 H568 0.931 . S
C540 C539 1.395 . S
C540 C541 1.383 . S
C540 H569 0.931 . S
C541 C540 1.383 . S
C541 C542 1.394 . S
C542 C541 1.394 . S
C542 C543 1.378 . S
C542 H570 0.931 . S
C543 C538 1.377 . S
C543 C542 1.378 . S
C543 H571 0.931 . S
C544 O558 1.259 . S
C544 O559 1.270 . S
C545 O560 1.251 . S
C545 O561 1.251 . S
C546 Eu547 2.835 . S
C546 C548 1.500 . S
C546 O562 1.257 . S
C546 O563 1.260 . S
Eu547 C546 2.835 . S
Eu547 O559 2.355 . S
Eu547 O561 2.374 . S
Eu547 O562 2.473 . S
Eu547 O563 2.480 . S
Eu547 O564 2.430 . S
Eu547 O565 2.670 . S
Eu547 O566 2.394 . S
C548 C546 1.500 . S
C548 C549 1.377 . S
C548 C553 1.377 . S
C549 C548 1.377 . S
C549 C550 1.395 . S
C549 H572 0.931 . S
C550 C549 1.395 . S
C550 C551 1.383 . S
C550 H573 0.931 . S
C551 C550 1.383 . S
C551 C552 1.394 . S
C552 C551 1.394 . S
C552 C553 1.378 . S
C552 H574 0.931 . S
C553 C548 1.377 . S
C553 C552 1.378 . S
C553 H575 0.931 . S
C554 O564 1.259 . S
C554 O565 1.270 . S
C555 O566 1.251 . S
C555 O567 1.251 . S
O556 C536 1.257 . S
O556 Eu537 2.473 . S
O557 C536 1.260 . S
O557 Eu537 2.480 . S
O558 Eu537 2.430 . S
O558 C544 1.259 . S
O559 Eu537 2.670 . S
O559 C544 1.270 . S
O559 Eu547 2.355 . S
O560 Eu537 2.394 . S
O560 C545 1.251 . S
O561 C545 1.251 . S
O561 Eu547 2.374 . S
O562 C546 1.257 . S
O562 Eu547 2.473 . S
O563 C546 1.260 . S
O563 Eu547 2.480 . S
O564 Eu547 2.430 . S
O564 C554 1.259 . S
O565 Eu537 2.355 . S
O565 Eu547 2.670 . S
O565 C554 1.270 . S
O566 Eu547 2.394 . S
O566 C555 1.251 . S
O567 Eu537 2.374 . S
O567 C555 1.251 . S
H568 C539 0.931 . S
H569 C540 0.931 . S
H570 C542 0.931 . S
H571 C543 0.931 . S
H572 C549 0.931 . S
H573 C550 0.931 . S
H574 C552 0.931 . S
H575 C553 0.931 . S
C576 Eu577 2.835 . S
C576 C578 1.500 . S
C576 O596 1.257 . S
C576 O597 1.260 . S
Eu577 C576 2.835 . S
Eu577 O596 2.473 . S
Eu577 O597 2.480 . S
Eu577 O598 2.430 1_545 S
Eu577 O599 2.670 1_545 S
Eu577 O600 2.394 . S
Eu577 O605 2.355 . S
Eu577 O607 2.374 . S
C578 C576 1.500 . S
C578 C579 1.377 . S
C578 C583 1.377 . S
C579 C578 1.377 . S
C579 C580 1.395 . S
C579 H608 0.931 . S
C580 C579 1.395 . S
C580 C581 1.383 . S
C580 H609 0.931 . S
C581 C580 1.383 . S
C581 C582 1.394 . S
C582 C581 1.394 . S
C582 C583 1.378 . S
C582 H610 0.931 . S
C583 C578 1.377 . S
C583 C582 1.378 . S
C583 H611 0.931 . S
C584 O598 1.259 . S
C584 O599 1.270 . S
C585 O600 1.251 . S
C585 O601 1.250 1_554 S
C586 Eu587 2.835 1_565 S
C586 C588 1.500 . S
C586 O602 1.257 . S
C586 O603 1.260 1_565 S
Eu587 C586 2.835 1_545 S
Eu587 O599 2.355 1_545 S
Eu587 O601 2.341 1_554 S
Eu587 O602 2.473 1_545 S
Eu587 O603 2.480 . S
Eu587 O604 2.430 . S
Eu587 O605 2.670 . S
Eu587 O606 2.394 . S
C588 C586 1.500 . S
C588 C589 1.377 . S
C588 C593 1.377 . S
C589 C588 1.377 . S
C589 C590 1.395 . S
C589 H612 0.931 1_565 S
C590 C589 1.395 . S
C590 C591 1.383 . S
C590 H613 0.931 . S
C591 C590 1.383 . S
C591 C592 1.394 . S
C592 C591 1.394 . S
C592 C593 1.378 . S
C592 H614 0.931 . S
C593 C588 1.377 . S
C593 C592 1.378 . S
C593 H615 0.931 . S
C594 O604 1.259 . S
C594 O605 1.270 . S
C595 O606 1.251 . S
C595 O607 1.251 . S
O596 C576 1.257 . S
O596 Eu577 2.473 . S
O597 C576 1.260 . S
O597 Eu577 2.480 . S
O598 Eu577 2.430 1_565 S
O598 C584 1.259 . S
O599 Eu577 2.670 1_565 S
O599 C584 1.270 . S
O599 Eu587 2.355 1_565 S
O600 Eu577 2.394 . S
O600 C585 1.251 . S
O601 C585 1.250 1_556 S
O601 Eu587 2.341 1_556 S
O602 C586 1.257 . S
O602 Eu587 2.473 1_565 S
O603 C586 1.260 1_545 S
O603 Eu587 2.480 . S
O604 Eu587 2.430 . S
O604 C594 1.259 . S
O605 Eu577 2.355 . S
O605 Eu587 2.670 . S
O605 C594 1.270 . S
O606 Eu587 2.394 . S
O606 C595 1.251 . S
O607 Eu577 2.374 . S
O607 C595 1.251 . S
H608 C579 0.931 . S
H609 C580 0.931 . S
H610 C582 0.931 . S
H611 C583 0.931 . S
H612 C589 0.931 1_545 S
H613 C590 0.931 . S
H614 C592 0.931 . S
H615 C593 0.931 . S
C616 Eu617 2.835 . S
C616 C618 1.500 . S
C616 O636 1.257 . S
C616 O637 1.260 . S
Eu617 C616 2.835 . S
Eu617 O636 2.473 . S
Eu617 O637 2.480 . S
Eu617 O638 2.430 . S
Eu617 O639 2.670 . S
Eu617 O640 2.394 . S
Eu617 O645 2.355 . S
Eu617 O647 2.374 . S
C618 C616 1.500 . S
C618 C619 1.377 . S
C618 C623 1.377 . S
C619 C618 1.377 . S
C619 C620 1.395 . S
C619 H648 0.931 . S
C620 C619 1.395 . S
C620 C621 1.383 . S
C620 H649 0.931 . S
C621 C620 1.383 . S
C621 C622 1.394 . S
C622 C621 1.394 . S
C622 C623 1.378 . S
C622 H650 0.931 . S
C623 C618 1.377 . S
C623 C622 1.378 . S
C623 H651 0.931 . S
C624 O638 1.259 . S
C624 O639 1.270 . S
C625 O640 1.251 . S
C625 O641 1.251 . S
C626 Eu627 2.835 . S
C626 C628 1.500 . S
C626 O642 1.257 . S
C626 O643 1.260 . S
Eu627 C626 2.835 . S
Eu627 O639 2.355 . S
Eu627 O641 2.374 . S
Eu627 O642 2.473 . S
Eu627 O643 2.480 . S
Eu627 O644 2.430 . S
Eu627 O645 2.670 . S
Eu627 O646 2.394 . S
C628 C626 1.500 . S
C628 C629 1.377 . S
C628 C633 1.377 . S
C629 C628 1.377 . S
C629 C630 1.395 . S
C629 H652 0.931 . S
C630 C629 1.395 . S
C630 C631 1.383 . S
C630 H653 0.931 . S
C631 C630 1.383 . S
C631 C632 1.394 . S
C632 C631 1.394 . S
C632 C633 1.378 . S
C632 H654 0.931 . S
C633 C628 1.377 . S
C633 C632 1.378 . S
C633 H655 0.931 . S
C634 O644 1.259 . S
C634 O645 1.270 . S
C635 O646 1.251 . S
C635 O647 1.251 . S
O636 C616 1.257 . S
O636 Eu617 2.473 . S
O637 C616 1.260 . S
O637 Eu617 2.480 . S
O638 Eu617 2.430 . S
O638 C624 1.259 . S
O639 Eu617 2.670 . S
O639 C624 1.270 . S
O639 Eu627 2.355 . S
O640 Eu617 2.394 . S
O640 C625 1.251 . S
O641 C625 1.251 . S
O641 Eu627 2.374 . S
O642 C626 1.257 . S
O642 Eu627 2.473 . S
O643 C626 1.260 . S
O643 Eu627 2.480 . S
O644 Eu627 2.430 . S
O644 C634 1.259 . S
O645 Eu617 2.355 . S
O645 Eu627 2.670 . S
O645 C634 1.270 . S
O646 Eu627 2.394 . S
O646 C635 1.251 . S
O647 Eu617 2.374 . S
O647 C635 1.251 . S
H648 C619 0.931 . S
H649 C620 0.931 . S
H650 C622 0.931 . S
H651 C623 0.931 . S
H652 C629 0.931 . S
H653 C630 0.931 . S
H654 C632 0.931 . S
H655 C633 0.931 . S
C656 Eu657 2.835 . S
C656 C658 1.500 . S
C656 O676 1.257 . S
C656 O677 1.260 . S
Eu657 C656 2.835 . S
Eu657 O676 2.473 . S
Eu657 O677 2.480 . S
Eu657 O678 2.430 . S
Eu657 O679 2.670 . S
Eu657 O680 2.394 . S
Eu657 O685 2.355 . S
Eu657 O687 2.374 1_554 S
C658 C656 1.500 . S
C658 C659 1.377 . S
C658 C663 1.377 . S
C659 C658 1.377 . S
C659 C660 1.395 . S
C659 H688 0.931 . S
C660 C659 1.395 . S
C660 C661 1.383 . S
C660 H689 0.931 . S
C661 C660 1.383 . S
C661 C662 1.394 . S
C662 C661 1.394 . S
C662 C663 1.378 . S
C662 H690 0.931 . S
C663 C658 1.377 . S
C663 C662 1.378 . S
C663 H691 0.931 . S
C664 O678 1.259 . S
C664 O679 1.270 . S
C665 O680 1.251 . S
C665 O681 1.251 . S
C666 Eu667 2.835 . S
C666 C668 1.500 . S
C666 O682 1.257 . S
C666 O683 1.260 . S
Eu667 C666 2.835 . S
Eu667 O679 2.355 . S
Eu667 O681 2.374 . S
Eu667 O682 2.473 . S
Eu667 O683 2.480 . S
Eu667 O684 2.430 . S
Eu667 O685 2.670 . S
Eu667 O686 2.394 . S
C668 C666 1.500 . S
C668 C669 1.377 . S
C668 C673 1.377 . S
C669 C668 1.377 . S
C669 C670 1.395 . S
C669 H692 0.931 . S
C670 C669 1.395 . S
C670 C671 1.383 . S
C670 H693 0.931 . S
C671 C670 1.383 . S
C671 C672 1.394 . S
C672 C671 1.394 . S
C672 C673 1.378 . S
C672 H694 0.931 1_554 S
C673 C668 1.377 . S
C673 C672 1.378 . S
C673 H695 0.931 . S
C674 O684 1.259 . S
C674 O685 1.270 . S
C675 O686 1.251 1_556 S
C675 O687 1.251 . S
O676 C656 1.257 . S
O676 Eu657 2.473 . S
O677 C656 1.260 . S
O677 Eu657 2.480 . S
O678 Eu657 2.430 . S
O678 C664 1.259 . S
O679 Eu657 2.670 . S
O679 C664 1.270 . S
O679 Eu667 2.355 . S
O680 Eu657 2.394 . S
O680 C665 1.251 . S
O681 C665 1.251 . S
O681 Eu667 2.374 . S
O682 C666 1.257 . S
O682 Eu667 2.473 . S
O683 C666 1.260 . S
O683 Eu667 2.480 . S
O684 Eu667 2.430 . S
O684 C674 1.259 . S
O685 Eu657 2.355 . S
O685 Eu667 2.670 . S
O685 C674 1.270 . S
O686 Eu667 2.394 . S
O686 C675 1.251 1_554 S
O687 Eu657 2.374 1_556 S
O687 C675 1.251 . S
H688 C659 0.931 . S
H689 C660 0.931 . S
H690 C662 0.931 . S
H691 C663 0.931 . S
H692 C669 0.931 . S
H693 C670 0.931 . S
H694 C672 0.931 1_556 S
H695 C673 0.931 . S
C696 Eu697 2.835 . S
C696 C698 1.500 . S
C696 O716 1.257 . S
C696 O717 1.260 . S
Eu697 C696 2.835 . S
Eu697 O716 2.473 . S
Eu697 O717 2.480 . S
Eu697 O718 2.430 . S
Eu697 O719 2.670 . S
Eu697 O720 2.394 . S
Eu697 O725 2.355 . S
Eu697 O727 2.374 . S
C698 C696 1.500 . S
C698 C699 1.377 . S
C698 C703 1.377 . S
C699 C698 1.377 . S
C699 C700 1.395 . S
C699 H728 0.931 . S
C700 C699 1.395 . S
C700 C701 1.383 . S
C700 H729 0.931 . S
C701 C700 1.383 . S
C701 C702 1.394 . S
C702 C701 1.394 . S
C702 C703 1.378 . S
C702 H730 0.931 . S
C703 C698 1.377 . S
C703 C702 1.378 . S
C703 H731 0.931 . S
C704 O718 1.259 . S
C704 O719 1.270 . S
C705 O720 1.251 . S
C705 O721 1.251 . S
C706 Eu707 2.835 . S
C706 C708 1.500 . S
C706 O722 1.257 . S
C706 O723 1.260 . S
Eu707 C706 2.835 . S
Eu707 O719 2.355 . S
Eu707 O721 2.374 . S
Eu707 O722 2.473 . S
Eu707 O723 2.480 . S
Eu707 O724 2.430 . S
Eu707 O725 2.670 . S
Eu707 O726 2.394 . S
C708 C706 1.500 . S
C708 C709 1.377 . S
C708 C713 1.377 . S
C709 C708 1.377 . S
C709 C710 1.395 . S
C709 H732 0.931 . S
C710 C709 1.395 . S
C710 C711 1.383 . S
C710 H733 0.931 . S
C711 C710 1.383 . S
C711 C712 1.394 . S
C712 C711 1.394 . S
C712 C713 1.378 . S
C712 H734 0.931 . S
C713 C708 1.377 . S
C713 C712 1.378 . S
C713 H735 0.931 . S
C714 O724 1.259 . S
C714 O725 1.270 . S
C715 O726 1.251 . S
C715 O727 1.251 . S
O716 C696 1.257 . S
O716 Eu697 2.473 . S
O717 C696 1.260 . S
O717 Eu697 2.480 . S
O718 Eu697 2.430 . S
O718 C704 1.259 . S
O719 Eu697 2.670 . S
O719 C704 1.270 . S
O719 Eu707 2.355 . S
O720 Eu697 2.394 . S
O720 C705 1.251 . S
O721 C705 1.251 . S
O721 Eu707 2.374 . S
O722 C706 1.257 . S
O722 Eu707 2.473 . S
O723 C706 1.260 . S
O723 Eu707 2.480 . S
O724 Eu707 2.430 . S
O724 C714 1.259 . S
O725 Eu697 2.355 . S
O725 Eu707 2.670 . S
O725 C714 1.270 . S
O726 Eu707 2.394 . S
O726 C715 1.251 . S
O727 Eu697 2.374 . S
O727 C715 1.251 . S
H728 C699 0.931 . S
H729 C700 0.931 . S
H730 C702 0.931 . S
H731 C703 0.931 . S
H732 C709 0.931 . S
H733 C710 0.931 . S
H734 C712 0.931 . S
H735 C713 0.931 . S
C736 Eu737 2.835 . S
C736 C738 1.500 . S
C736 O756 1.257 . S
C736 O757 1.260 . S
Eu737 C736 2.835 . S
Eu737 O756 2.473 . S
Eu737 O757 2.480 . S
Eu737 O758 2.430 . S
Eu737 O759 2.670 . S
Eu737 O760 2.394 . S
Eu737 O765 2.355 . S
Eu737 O767 2.374 . S
C738 C736 1.500 . S
C738 C739 1.377 . S
C738 C743 1.377 . S
C739 C738 1.377 . S
C739 C740 1.395 . S
C739 H768 0.931 . S
C740 C739 1.395 . S
C740 C741 1.383 . S
C740 H769 0.931 . S
C741 C740 1.383 . S
C741 C742 1.394 . S
C742 C741 1.394 . S
C742 C743 1.378 . S
C742 H770 0.931 . S
C743 C738 1.377 . S
C743 C742 1.378 . S
C743 H771 0.931 . S
C744 O758 1.259 . S
C744 O759 1.270 . S
C745 O760 1.251 . S
C745 O761 1.251 . S
C746 Eu747 2.869 . S
C746 C748 1.500 . S
C746 O762 1.257 . S
C746 O763 1.260 . S
Eu747 C746 2.869 . S
Eu747 O759 2.327 1_655 S
Eu747 O761 2.342 1_655 S
Eu747 O762 2.495 . S
Eu747 O763 2.520 . S
Eu747 O764 2.441 1_655 S
Eu747 O765 2.647 1_655 S
Eu747 O766 2.402 . S
C748 C746 1.500 . S
C748 C749 1.377 . S
C748 C753 1.377 . S
C749 C748 1.377 . S
C749 C750 1.395 . S
C749 H772 0.931 . S
C750 C749 1.395 . S
C750 C751 1.383 . S
C750 H773 0.931 . S
C751 C750 1.383 . S
C751 C752 1.394 . S
C752 C751 1.394 . S
C752 C753 1.378 . S
C752 H774 0.931 . S
C753 C748 1.377 . S
C753 C752 1.378 . S
C753 H775 0.931 . S
C754 O764 1.269 . S
C754 O765 1.270 . S
C755 O766 1.251 1_455 S
C755 O767 1.251 . S
O756 C736 1.257 . S
O756 Eu737 2.473 . S
O757 C736 1.260 . S
O757 Eu737 2.480 . S
O758 Eu737 2.430 . S
O758 C744 1.259 . S
O759 Eu737 2.670 . S
O759 C744 1.270 . S
O759 Eu747 2.327 1_455 S
O760 Eu737 2.394 . S
O760 C745 1.251 . S
O761 C745 1.251 . S
O761 Eu747 2.342 1_455 S
O762 C746 1.257 . S
O762 Eu747 2.495 . S
O763 C746 1.260 . S
O763 Eu747 2.520 . S
O764 Eu747 2.441 1_455 S
O764 C754 1.269 . S
O765 Eu737 2.355 . S
O765 Eu747 2.647 1_455 S
O765 C754 1.270 . S
O766 Eu747 2.402 . S
O766 C755 1.251 1_655 S
O767 Eu737 2.374 . S
O767 C755 1.251 . S
H768 C739 0.931 . S
H769 C740 0.931 . S
H770 C742 0.931 . S
H771 C743 0.931 . S
H772 C749 0.931 . S
H773 C750 0.931 . S
H774 C752 0.931 . S
H775 C753 0.931 . S
C776 Eu777 2.835 . S
C776 C778 1.500 . S
C776 O796 1.257 . S
C776 O797 1.260 . S
Eu777 C776 2.835 . S
Eu777 O796 2.473 . S
Eu777 O797 2.480 . S
Eu777 O798 2.430 . S
Eu777 O799 2.670 . S
Eu777 O800 2.394 . S
Eu777 O805 2.355 . S
Eu777 O807 2.374 . S
C778 C776 1.500 . S
C778 C779 1.377 . S
C778 C783 1.377 . S
C779 C778 1.377 . S
C779 C780 1.395 . S
C779 H808 0.931 . S
C780 C779 1.395 . S
C780 C781 1.383 . S
C780 H809 0.931 . S
C781 C780 1.383 . S
C781 C782 1.394 . S
C782 C781 1.394 . S
C782 C783 1.378 . S
C782 H810 0.931 . S
C783 C778 1.377 . S
C783 C782 1.378 . S
C783 H811 0.931 . S
C784 O798 1.259 . S
C784 O799 1.270 . S
C785 O800 1.251 . S
C785 O801 1.251 . S
C786 Eu787 2.835 . S
C786 C788 1.500 . S
C786 O802 1.257 . S
C786 O803 1.260 . S
Eu787 C786 2.835 . S
Eu787 O799 2.355 . S
Eu787 O801 2.374 . S
Eu787 O802 2.473 . S
Eu787 O803 2.480 . S
Eu787 O804 2.430 . S
Eu787 O805 2.670 . S
Eu787 O806 2.394 . S
C788 C786 1.500 . S
C788 C789 1.377 . S
C788 C793 1.377 . S
C789 C788 1.377 . S
C789 C790 1.395 . S
C789 H812 0.931 . S
C790 C789 1.395 . S
C790 C791 1.383 . S
C790 H813 0.931 . S
C791 C790 1.383 . S
C791 C792 1.394 . S
C792 C791 1.394 . S
C792 C793 1.378 . S
C792 H814 0.931 . S
C793 C788 1.377 . S
C793 C792 1.378 . S
C793 H815 0.931 . S
C794 O804 1.259 . S
C794 O805 1.270 . S
C795 O806 1.251 . S
C795 O807 1.251 . S
O796 C776 1.257 . S
O796 Eu777 2.473 . S
O797 C776 1.260 . S
O797 Eu777 2.480 . S
O798 Eu777 2.430 . S
O798 C784 1.259 . S
O799 Eu777 2.670 . S
O799 C784 1.270 . S
O799 Eu787 2.355 . S
O800 Eu777 2.394 . S
O800 C785 1.251 . S
O801 C785 1.251 . S
O801 Eu787 2.374 . S
O802 C786 1.257 . S
O802 Eu787 2.473 . S
O803 C786 1.260 . S
O803 Eu787 2.480 . S
O804 Eu787 2.430 . S
O804 C794 1.259 . S
O805 Eu777 2.355 . S
O805 Eu787 2.670 . S
O805 C794 1.270 . S
O806 Eu787 2.394 . S
O806 C795 1.251 . S
O807 Eu777 2.374 . S
O807 C795 1.251 . S
H808 C779 0.931 . S
H809 C780 0.931 . S
H810 C782 0.931 . S
H811 C783 0.931 . S
H812 C789 0.931 . S
H813 C790 0.931 . S
H814 C792 0.931 . S
H815 C793 0.931 . S
C816 Eu817 2.835 . S
C816 C818 1.500 . S
C816 O836 1.257 . S
C816 O837 1.260 . S
Eu817 C816 2.835 . S
Eu817 O836 2.473 . S
Eu817 O837 2.480 . S
Eu817 O838 2.430 . S
Eu817 O839 2.670 . S
Eu817 O840 2.394 . S
Eu817 O845 2.355 . S
Eu817 O847 2.374 . S
C818 C816 1.500 . S
C818 C819 1.377 . S
C818 C823 1.377 . S
C819 C818 1.377 . S
C819 C820 1.395 . S
C819 H848 0.931 . S
C820 C819 1.395 . S
C820 C821 1.383 . S
C820 H849 0.931 . S
C821 C820 1.383 . S
C821 C822 1.394 . S
C822 C821 1.394 . S
C822 C823 1.378 . S
C822 H850 0.931 . S
C823 C818 1.377 . S
C823 C822 1.378 . S
C823 H851 0.931 . S
C824 O838 1.259 . S
C824 O839 1.270 . S
C825 O840 1.251 . S
C825 O841 1.251 . S
C826 Eu827 2.835 . S
C826 C828 1.500 . S
C826 O842 1.257 . S
C826 O843 1.260 . S
Eu827 C826 2.835 . S
Eu827 O839 2.355 . S
Eu827 O841 2.374 . S
Eu827 O842 2.473 . S
Eu827 O843 2.480 . S
Eu827 O844 2.430 . S
Eu827 O845 2.670 . S
Eu827 O846 2.394 . S
C828 C826 1.500 . S
C828 C829 1.377 . S
C828 C833 1.377 . S
C829 C828 1.377 . S
C829 C830 1.395 . S
C829 H852 0.931 . S
C830 C829 1.395 . S
C830 C831 1.383 . S
C830 H853 0.931 . S
C831 C830 1.383 . S
C831 C832 1.394 . S
C832 C831 1.394 . S
C832 C833 1.378 . S
C832 H854 0.931 . S
C833 C828 1.377 . S
C833 C832 1.378 . S
C833 H855 0.931 . S
C834 O844 1.259 . S
C834 O845 1.270 . S
C835 O846 1.251 . S
C835 O847 1.251 . S
O836 C816 1.257 . S
O836 Eu817 2.473 . S
O837 C816 1.260 . S
O837 Eu817 2.480 . S
O838 Eu817 2.430 . S
O838 C824 1.259 . S
O839 Eu817 2.670 . S
O839 C824 1.270 . S
O839 Eu827 2.355 . S
O840 Eu817 2.394 . S
O840 C825 1.251 . S
O841 C825 1.251 . S
O841 Eu827 2.374 . S
O842 C826 1.257 . S
O842 Eu827 2.473 . S
O843 C826 1.260 . S
O843 Eu827 2.480 . S
O844 Eu827 2.430 . S
O844 C834 1.259 . S
O845 Eu817 2.355 . S
O845 Eu827 2.670 . S
O845 C834 1.270 . S
O846 Eu827 2.394 . S
O846 C835 1.251 . S
O847 Eu817 2.374 . S
O847 C835 1.251 . S
H848 C819 0.931 . S
H849 C820 0.931 . S
H850 C822 0.931 . S
H851 C823 0.931 . S
H852 C829 0.931 . S
H853 C830 0.931 . S
H854 C832 0.931 . S
H855 C833 0.931 . S
C856 Eu857 2.835 . S
C856 C858 1.500 . S
C856 O876 1.257 . S
C856 O877 1.260 . S
Eu857 C856 2.835 . S
Eu857 O876 2.473 . S
Eu857 O877 2.480 . S
Eu857 O878 2.430 . S
Eu857 O879 2.670 . S
Eu857 O880 2.394 . S
Eu857 O885 2.355 . S
Eu857 O887 2.374 . S
C858 C856 1.500 . S
C858 C859 1.377 . S
C858 C863 1.377 . S
C859 C858 1.377 . S
C859 C860 1.395 . S
C859 H888 0.931 . S
C860 C859 1.395 . S
C860 C861 1.383 . S
C860 H889 0.931 . S
C861 C860 1.383 . S
C861 C862 1.394 . S
C862 C861 1.394 . S
C862 C863 1.378 . S
C862 H890 0.931 . S
C863 C858 1.377 . S
C863 C862 1.378 . S
C863 H891 0.931 . S
C864 O878 1.259 . S
C864 O879 1.270 . S
C865 O880 1.251 . S
C865 O881 1.251 . S
C866 Eu867 2.835 . S
C866 C868 1.500 . S
C866 O882 1.257 . S
C866 O883 1.260 . S
Eu867 C866 2.835 . S
Eu867 O879 2.355 . S
Eu867 O881 2.374 . S
Eu867 O882 2.473 . S
Eu867 O883 2.480 . S
Eu867 O884 2.430 . S
Eu867 O885 2.670 . S
Eu867 O886 2.394 . S
C868 C866 1.500 . S
C868 C869 1.377 . S
C868 C873 1.377 . S
C869 C868 1.377 . S
C869 C870 1.395 . S
C869 H892 0.931 . S
C870 C869 1.395 . S
C870 C871 1.383 . S
C870 H893 0.931 . S
C871 C870 1.383 . S
C871 C872 1.394 . S
C872 C871 1.394 . S
C872 C873 1.378 . S
C872 H894 0.931 . S
C873 C868 1.377 . S
C873 C872 1.378 . S
C873 H895 0.931 . S
C874 O884 1.259 . S
C874 O885 1.270 . S
C875 O886 1.251 . S
C875 O887 1.251 . S
O876 C856 1.257 . S
O876 Eu857 2.473 . S
O877 C856 1.260 . S
O877 Eu857 2.480 . S
O878 Eu857 2.430 . S
O878 C864 1.259 . S
O879 Eu857 2.670 . S
O879 C864 1.270 . S
O879 Eu867 2.355 . S
O880 Eu857 2.394 . S
O880 C865 1.251 . S
O881 C865 1.251 . S
O881 Eu867 2.374 . S
O882 C866 1.257 . S
O882 Eu867 2.473 . S
O883 C866 1.260 . S
O883 Eu867 2.480 . S
O884 Eu867 2.430 . S
O884 C874 1.259 . S
O885 Eu857 2.355 . S
O885 Eu867 2.670 . S
O885 C874 1.270 . S
O886 Eu867 2.394 . S
O886 C875 1.251 . S
O887 Eu857 2.374 . S
O887 C875 1.251 . S
H888 C859 0.931 . S
H889 C860 0.931 . S
H890 C862 0.931 . S
H891 C863 0.931 . S
H892 C869 0.931 . S
H893 C870 0.931 . S
H894 C872 0.931 . S
H895 C873 0.931 . S
C896 Eu897 2.835 . S
C896 C898 1.500 . S
C896 O916 1.257 . S
C896 O917 1.260 . S
Eu897 C896 2.835 . S
Eu897 O916 2.473 . S
Eu897 O917 2.480 . S
Eu897 O918 2.430 . S
Eu897 O919 2.670 . S
Eu897 O920 2.394 . S
Eu897 O925 2.355 . S
Eu897 O927 2.374 . S
C898 C896 1.500 . S
C898 C899 1.377 . S
C898 C903 1.377 . S
C899 C898 1.377 . S
C899 C900 1.395 . S
C899 H928 0.931 . S
C900 C899 1.395 . S
C900 C901 1.383 . S
C900 H929 0.931 . S
C901 C900 1.383 . S
C901 C902 1.394 . S
C902 C901 1.394 . S
C902 C903 1.378 . S
C902 H930 0.931 . S
C903 C898 1.377 . S
C903 C902 1.378 . S
C903 H931 0.931 . S
C904 O918 1.259 . S
C904 O919 1.270 . S
C905 O920 1.251 . S
C905 O921 1.251 . S
C906 Eu907 2.835 . S
C906 C908 1.500 . S
C906 O922 1.257 . S
C906 O923 1.260 . S
Eu907 C906 2.835 . S
Eu907 O919 2.355 . S
Eu907 O921 2.374 . S
Eu907 O922 2.473 . S
Eu907 O923 2.480 . S
Eu907 O924 2.430 . S
Eu907 O925 2.670 . S
Eu907 O926 2.394 . S
C908 C906 1.500 . S
C908 C909 1.377 . S
C908 C913 1.377 . S
C909 C908 1.377 . S
C909 C910 1.395 . S
C909 H932 0.931 . S
C910 C909 1.395 . S
C910 C911 1.383 . S
C910 H933 0.931 . S
C911 C910 1.383 . S
C911 C912 1.394 . S
C912 C911 1.394 . S
C912 C913 1.378 . S
C912 H934 0.931 . S
C913 C908 1.377 . S
C913 C912 1.378 . S
C913 H935 0.931 . S
C914 O924 1.259 . S
C914 O925 1.270 . S
C915 O926 1.251 . S
C915 O927 1.251 . S
O916 C896 1.257 . S
O916 Eu897 2.473 . S
O917 C896 1.260 . S
O917 Eu897 2.480 . S
O918 Eu897 2.430 . S
O918 C904 1.259 . S
O919 Eu897 2.670 . S
O919 C904 1.270 . S
O919 Eu907 2.355 . S
O920 Eu897 2.394 . S
O920 C905 1.251 . S
O921 C905 1.251 . S
O921 Eu907 2.374 . S
O922 C906 1.257 . S
O922 Eu907 2.473 . S
O923 C906 1.260 . S
O923 Eu907 2.480 . S
O924 Eu907 2.430 . S
O924 C914 1.259 . S
O925 Eu897 2.355 . S
O925 Eu907 2.670 . S
O925 C914 1.270 . S
O926 Eu907 2.394 . S
O926 C915 1.251 . S
O927 Eu897 2.374 . S
O927 C915 1.251 . S
H928 C899 0.931 . S
H929 C900 0.931 . S
H930 C902 0.931 . S
H931 C903 0.931 . S
H932 C909 0.931 . S
H933 C910 0.931 . S
H934 C912 0.931 . S
H935 C913 0.931 . S
C936 Eu937 2.835 . S
C936 C938 1.500 . S
C936 O956 1.257 . S
C936 O957 1.260 . S
Eu937 C936 2.835 . S
Eu937 O956 2.473 . S
Eu937 O957 2.480 . S
Eu937 O958 2.430 1_655 S
Eu937 O959 2.670 1_655 S
Eu937 O960 2.394 1_655 S
Eu937 O965 2.355 1_655 S
Eu937 O967 2.374 1_655 S
C938 C936 1.500 . S
C938 C939 1.377 . S
C938 C943 1.377 . S
C939 C938 1.377 . S
C939 C940 1.395 . S
C939 H968 0.931 . S
C940 C939 1.395 . S
C940 C941 1.383 . S
C940 H969 0.931 . S
C941 C940 1.383 . S
C941 C942 1.394 . S
C942 C941 1.394 . S
C942 C943 1.378 . S
C942 H970 0.931 . S
C943 C938 1.377 . S
C943 C942 1.378 . S
C943 H971 0.931 . S
C944 O958 1.259 . S
C944 O959 1.270 . S
C945 O960 1.251 . S
C945 O961 1.251 . S
C946 Eu947 2.835 . S
C946 C948 1.500 . S
C946 O962 1.257 . S
C946 O963 1.260 . S
Eu947 C946 2.835 . S
Eu947 O959 2.355 . S
Eu947 O961 2.374 . S
Eu947 O962 2.473 . S
Eu947 O963 2.480 . S
Eu947 O964 2.430 1_554 S
Eu947 O965 2.670 . S
Eu947 O966 2.394 . S
C948 C946 1.500 . S
C948 C949 1.377 1_554 S
C948 C953 1.377 . S
C949 C948 1.377 1_556 S
C949 C950 1.395 . S
C949 H972 0.931 . S
C950 C949 1.395 . S
C950 C951 1.383 1_556 S
C950 H973 0.931 . S
C951 C950 1.383 1_554 S
C951 C952 1.394 . S
C952 C951 1.394 . S
C952 C953 1.378 . S
C952 H974 0.931 . S
C953 C948 1.377 . S
C953 C952 1.378 . S
C953 H975 0.931 . S
C954 O964 1.259 . S
C954 O965 1.270 1_556 S
C955 O966 1.251 . S
C955 O967 1.251 . S
O956 C936 1.257 . S
O956 Eu937 2.473 . S
O957 C936 1.260 . S
O957 Eu937 2.480 . S
O958 Eu937 2.430 1_455 S
O958 C944 1.259 . S
O959 Eu937 2.670 1_455 S
O959 C944 1.270 . S
O959 Eu947 2.355 . S
O960 Eu937 2.394 1_455 S
O960 C945 1.251 . S
O961 C945 1.251 . S
O961 Eu947 2.374 . S
O962 C946 1.257 . S
O962 Eu947 2.473 . S
O963 C946 1.260 . S
O963 Eu947 2.480 . S
O964 Eu947 2.430 1_556 S
O964 C954 1.259 . S
O965 Eu937 2.355 1_455 S
O965 Eu947 2.670 . S
O965 C954 1.270 1_554 S
O966 Eu947 2.394 . S
O966 C955 1.251 . S
O967 Eu937 2.374 1_455 S
O967 C955 1.251 . S
H968 C939 0.931 . S
H969 C940 0.931 . S
H970 C942 0.931 . S
H971 C943 0.931 . S
H972 C949 0.931 . S
H973 C950 0.931 . S
H974 C952 0.931 . S
H975 C953 0.931 . S
H976 C982 0.930 1_554 S
H977 C986 0.930 1_556 S
H978 C991 0.929 . S
H979 C989 0.929 1_655 S
H980 C984 0.929 . S
H981 C990 0.929 . S
C982 H976 0.930 1_556 S
C982 C983 1.358 1_655 S
C982 C990 1.378 1_556 S
C983 C982 1.358 1_455 S
C983 C991 1.448 . S
C984 H980 0.929 . S
C984 C986 1.378 1_556 S
C984 C988 1.350 1_556 S
C985 C988 1.463 1_556 S
C985 C990 1.350 1_456 S
C985 N993 1.427 . S
C986 H977 0.930 1_554 S
C986 C984 1.378 1_554 S
C986 C987 1.367 . S
C987 C986 1.367 . S
C987 C989 1.433 . S
C988 C984 1.350 1_554 S
C988 C985 1.463 1_554 S
C988 N992 1.427 . S
C989 H979 0.929 1_455 S
C989 C987 1.433 . S
C989 N992 1.384 . S
C990 H981 0.929 . S
C990 C982 1.378 1_554 S
C990 C985 1.350 1_654 S
C991 H978 0.929 . S
C991 C983 1.448 . S
C991 N993 1.384 . S
N992 C988 1.427 . S
N992 C989 1.384 . S
N993 C985 1.427 . S
N993 C991 1.384 . S
H994 C1000 0.930 . S
H995 C1004 0.930 . S
H996 C1009 0.929 . S
H997 C1007 0.929 . S
H998 C1002 0.929 . S
H999 C1008 0.929 . S
C1000 H994 0.930 . S
C1000 C1001 1.367 . S
C1000 C1008 1.378 . S
C1001 C1000 1.367 . S
C1001 C1009 1.433 . S
C1002 H998 0.929 . S
C1002 C1004 1.378 . S
C1002 C1006 1.350 . S
C1003 C1006 1.463 . S
C1003 C1008 1.350 . S
C1003 N1011 1.427 . S
C1004 H995 0.930 . S
C1004 C1002 1.378 . S
C1004 C1005 1.367 . S
C1005 C1004 1.367 . S
C1005 C1007 1.433 . S
C1006 C1002 1.350 . S
C1006 C1003 1.463 . S
C1006 N1010 1.427 . S
C1007 H997 0.929 . S
C1007 C1005 1.433 . S
C1007 N1010 1.384 . S
C1008 H999 0.929 . S
C1008 C1000 1.378 . S
C1008 C1003 1.350 . S
C1009 H996 0.929 . S
C1009 C1001 1.433 . S
C1009 N1011 1.384 . S
N1010 C1006 1.427 . S
N1010 C1007 1.384 . S
N1011 C1003 1.427 . S
N1011 C1009 1.384 . S
H1012 C1018 0.930 . S
H1013 C1022 0.930 . S
H1014 C1027 0.929 . S
H1015 C1025 0.929 . S
H1016 C1020 0.929 . S
H1017 C1026 0.929 . S
C1018 H1012 0.930 . S
C1018 C1019 1.367 . S
C1018 C1026 1.378 . S
C1019 C1018 1.367 . S
C1019 C1027 1.433 . S
C1020 H1016 0.929 . S
C1020 C1022 1.378 . S
C1020 C1024 1.350 . S
C1021 C1024 1.463 . S
C1021 C1026 1.350 . S
C1021 N1029 1.427 . S
C1022 H1013 0.930 . S
C1022 C1020 1.378 . S
C1022 C1023 1.367 . S
C1023 C1022 1.367 . S
C1023 C1025 1.433 . S
C1024 C1020 1.350 . S
C1024 C1021 1.463 . S
C1024 N1028 1.427 . S
C1025 H1015 0.929 . S
C1025 C1023 1.433 . S
C1025 N1028 1.384 . S
C1026 H1017 0.929 . S
C1026 C1018 1.378 . S
C1026 C1021 1.350 . S
C1027 H1014 0.929 . S
C1027 C1019 1.433 . S
C1027 N1029 1.384 . S
N1028 C1024 1.427 . S
N1028 C1025 1.384 . S
N1029 C1021 1.427 . S
N1029 C1027 1.384 . S
H1030 C1036 0.930 . S
H1031 C1040 0.930 . S
H1032 C1045 0.929 . S
H1033 C1043 0.929 . S
H1034 C1038 0.929 . S
H1035 C1044 0.929 . S
C1036 H1030 0.930 . S
C1036 C1037 1.367 . S
C1036 C1044 1.378 . S
C1037 C1036 1.367 . S
C1037 C1045 1.433 . S
C1038 H1034 0.929 . S
C1038 C1040 1.378 . S
C1038 C1042 1.350 . S
C1039 C1042 1.463 . S
C1039 C1044 1.350 . S
C1039 N1047 1.427 . S
C1040 H1031 0.930 . S
C1040 C1038 1.378 . S
C1040 C1041 1.367 . S
C1041 C1040 1.367 . S
C1041 C1043 1.433 . S
C1042 C1038 1.350 . S
C1042 C1039 1.463 . S
C1042 N1046 1.427 . S
C1043 H1033 0.929 . S
C1043 C1041 1.433 . S
C1043 N1046 1.384 . S
C1044 H1035 0.929 . S
C1044 C1036 1.378 . S
C1044 C1039 1.350 . S
C1045 H1032 0.929 . S
C1045 C1037 1.433 . S
C1045 N1047 1.384 . S
N1046 C1042 1.427 . S
N1046 C1043 1.384 . S
N1047 C1039 1.427 . S
N1047 C1045 1.384 . S
H1048 C1054 0.930 1_655 S
H1049 C1058 0.930 . S
H1050 C1063 0.929 . S
H1051 C1061 0.929 . S
H1052 C1056 0.929 . S
H1053 C1062 0.929 . S
C1054 H1048 0.930 1_455 S
C1054 C1055 1.367 . S
C1054 C1062 1.378 . S
C1055 C1054 1.367 . S
C1055 C1063 1.433 . S
C1056 H1052 0.929 . S
C1056 C1058 1.378 . S
C1056 C1060 1.350 . S
C1057 C1060 1.463 . S
C1057 C1062 1.350 . S
C1057 N1065 1.427 . S
C1058 H1049 0.930 . S
C1058 C1056 1.378 . S
C1058 C1059 1.367 . S
C1059 C1058 1.367 . S
C1059 C1061 1.433 . S
C1060 C1056 1.350 . S
C1060 C1057 1.463 . S
C1060 N1064 1.427 . S
C1061 H1051 0.929 . S
C1061 C1059 1.433 . S
C1061 N1064 1.384 . S
C1062 H1053 0.929 . S
C1062 C1054 1.378 . S
C1062 C1057 1.350 . S
C1063 H1050 0.929 . S
C1063 C1055 1.433 . S
C1063 N1065 1.384 . S
N1064 C1060 1.427 . S
N1064 C1061 1.384 . S
N1065 C1057 1.427 . S
N1065 C1063 1.384 . S
H1066 C1072 0.930 . S
H1067 C1076 0.930 . S
H1068 C1081 0.929 . S
H1069 C1079 0.929 . S
H1070 C1074 0.929 . S
H1071 C1080 0.929 . S
C1072 H1066 0.930 . S
C1072 C1073 1.367 . S
C1072 C1080 1.378 . S
C1073 C1072 1.367 . S
C1073 C1081 1.433 . S
C1074 H1070 0.929 . S
C1074 C1076 1.378 . S
C1074 C1078 1.350 . S
C1075 C1078 1.463 . S
C1075 C1080 1.350 . S
C1075 N1083 1.427 . S
C1076 H1067 0.930 . S
C1076 C1074 1.378 . S
C1076 C1077 1.367 . S
C1077 C1076 1.367 . S
C1077 C1079 1.433 . S
C1078 C1074 1.350 . S
C1078 C1075 1.463 . S
C1078 N1082 1.427 . S
C1079 H1069 0.929 . S
C1079 C1077 1.433 . S
C1079 N1082 1.384 . S
C1080 H1071 0.929 . S
C1080 C1072 1.378 . S
C1080 C1075 1.350 . S
C1081 H1068 0.929 . S
C1081 C1073 1.433 . S
C1081 N1083 1.384 . S
N1082 C1078 1.427 . S
N1082 C1079 1.384 . S
N1083 C1075 1.427 . S
N1083 C1081 1.384 . S
H1084 C1090 0.930 . S
H1085 C1094 0.930 . S
H1086 C1099 0.929 . S
H1087 C1097 0.929 . S
H1088 C1092 0.929 . S
H1089 C1098 0.929 . S
C1090 H1084 0.930 . S
C1090 C1091 1.367 . S
C1090 C1098 1.378 . S
C1091 C1090 1.367 . S
C1091 C1099 1.433 . S
C1092 H1088 0.929 . S
C1092 C1094 1.378 . S
C1092 C1096 1.350 . S
C1093 C1096 1.463 . S
C1093 C1098 1.350 . S
C1093 N1101 1.427 . S
C1094 H1085 0.930 . S
C1094 C1092 1.378 . S
C1094 C1095 1.367 . S
C1095 C1094 1.367 . S
C1095 C1097 1.433 . S
C1096 C1092 1.350 . S
C1096 C1093 1.463 . S
C1096 N1100 1.427 . S
C1097 H1087 0.929 . S
C1097 C1095 1.433 . S
C1097 N1100 1.384 . S
C1098 H1089 0.929 . S
C1098 C1090 1.378 . S
C1098 C1093 1.350 . S
C1099 H1086 0.929 . S
C1099 C1091 1.433 . S
C1099 N1101 1.384 . S
N1100 C1096 1.427 . S
N1100 C1097 1.384 . S
N1101 C1093 1.427 . S
N1101 C1099 1.384 . S
H1102 C1108 0.930 . S
H1103 C1112 0.930 . S
H1104 C1117 0.929 . S
H1105 C1115 0.929 . S
H1106 C1110 0.929 . S
H1107 C1116 0.929 . S
C1108 H1102 0.930 . S
C1108 C1109 1.367 . S
C1108 C1116 1.378 . S
C1109 C1108 1.367 . S
C1109 C1117 1.433 . S
C1110 H1106 0.929 . S
C1110 C1112 1.378 . S
C1110 C1114 1.350 . S
C1111 C1114 1.463 . S
C1111 C1116 1.350 . S
C1111 N1119 1.427 . S
C1112 H1103 0.930 . S
C1112 C1110 1.378 . S
C1112 C1113 1.367 . S
C1113 C1112 1.367 . S
C1113 C1115 1.433 . S
C1114 C1110 1.350 . S
C1114 C1111 1.463 . S
C1114 N1118 1.427 . S
C1115 H1105 0.929 . S
C1115 C1113 1.433 . S
C1115 N1118 1.384 . S
C1116 H1107 0.929 . S
C1116 C1108 1.378 . S
C1116 C1111 1.350 . S
C1117 H1104 0.929 . S
C1117 C1109 1.433 . S
C1117 N1119 1.384 . S
N1118 C1114 1.427 . S
N1118 C1115 1.384 . S
N1119 C1111 1.427 . S
N1119 C1117 1.384 . S
H1120 C1126 0.930 1_565 S
H1121 C1130 0.930 . S
H1122 C1135 0.929 . S
H1123 C1133 0.929 1_565 S
H1124 C1128 0.929 . S
H1125 C1134 0.929 1_565 S
C1126 H1120 0.930 1_545 S
C1126 C1127 1.367 . S
C1126 C1134 1.378 . S
C1127 C1126 1.367 . S
C1127 C1135 1.433 . S
C1128 H1124 0.929 . S
C1128 C1130 1.378 1_655 S
C1128 C1132 1.350 . S
C1129 C1132 1.463 . S
C1129 C1134 1.350 . S
C1129 N1137 1.427 . S
C1130 H1121 0.930 . S
C1130 C1128 1.378 1_455 S
C1130 C1131 1.361 . S
C1131 C1130 1.361 . S
C1131 C1133 1.407 1_455 S
C1132 C1128 1.350 . S
C1132 C1129 1.463 . S
C1132 N1136 1.427 . S
C1133 H1123 0.929 1_545 S
C1133 C1131 1.407 1_655 S
C1133 N1136 1.384 . S
C1134 H1125 0.929 1_545 S
C1134 C1126 1.378 . S
C1134 C1129 1.350 . S
C1135 H1122 0.929 . S
C1135 C1127 1.433 . S
C1135 N1137 1.384 . S
N1136 C1132 1.427 . S
N1136 C1133 1.384 . S
N1137 C1129 1.427 . S
N1137 C1135 1.384 . S
H1138 C1144 0.930 . S
H1139 C1148 0.930 . S
H1140 C1153 0.929 . S
H1141 C1151 0.929 . S
H1142 C1146 0.929 . S
H1143 C1152 0.929 . S
C1144 H1138 0.930 . S
C1144 C1145 1.367 . S
C1144 C1152 1.378 . S
C1145 C1144 1.367 . S
C1145 C1153 1.433 . S
C1146 H1142 0.929 . S
C1146 C1148 1.378 . S
C1146 C1150 1.350 . S
C1147 C1150 1.463 . S
C1147 C1152 1.350 . S
C1147 N1155 1.427 . S
C1148 H1139 0.930 . S
C1148 C1146 1.378 . S
C1148 C1149 1.367 . S
C1149 C1148 1.367 . S
C1149 C1151 1.433 . S
C1150 C1146 1.350 . S
C1150 C1147 1.463 . S
C1150 N1154 1.427 . S
C1151 H1141 0.929 . S
C1151 C1149 1.433 . S
C1151 N1154 1.384 . S
C1152 H1143 0.929 . S
C1152 C1144 1.378 . S
C1152 C1147 1.350 . S
C1153 H1140 0.929 . S
C1153 C1145 1.433 . S
C1153 N1155 1.384 . S
N1154 C1150 1.427 . S
N1154 C1151 1.384 . S
N1155 C1147 1.427 . S
N1155 C1153 1.384 . S
H1156 C1162 0.930 . S
H1157 C1166 0.930 . S
H1158 C1171 0.929 . S
H1159 C1169 0.929 . S
H1160 C1164 0.929 . S
H1161 C1170 0.929 . S
C1162 H1156 0.930 . S
C1162 C1163 1.367 1_565 S
C1162 C1170 1.378 . S
C1163 C1162 1.367 1_545 S
C1163 C1171 1.433 . S
C1164 H1160 0.929 . S
C1164 C1166 1.378 . S
C1164 C1168 1.350 . S
C1165 C1168 1.463 . S
C1165 C1170 1.350 1_545 S
C1165 N1173 1.427 . S
C1166 H1157 0.930 . S
C1166 C1164 1.378 . S
C1166 C1167 1.367 . S
C1167 C1166 1.367 . S
C1167 C1169 1.433 1_545 S
C1168 C1164 1.350 . S
C1168 C1165 1.463 . S
C1168 N1172 1.427 1_545 S
C1169 H1159 0.929 . S
C1169 C1167 1.433 1_565 S
C1169 N1172 1.384 . S
C1170 H1161 0.929 . S
C1170 C1162 1.378 . S
C1170 C1165 1.350 1_565 S
C1171 H1158 0.929 . S
C1171 C1163 1.433 . S
C1171 N1173 1.384 . S
N1172 C1168 1.427 1_565 S
N1172 C1169 1.384 . S
N1173 C1165 1.427 . S
N1173 C1171 1.384 . S
H1174 C1180 0.930 . S
H1175 C1184 0.930 . S
H1176 C1189 0.929 . S
H1177 C1187 0.929 . S
H1178 C1182 0.929 . S
H1179 C1188 0.929 . S
C1180 H1174 0.930 . S
C1180 C1181 1.367 . S
C1180 C1188 1.378 . S
C1181 C1180 1.367 . S
C1181 C1189 1.433 . S
C1182 H1178 0.929 . S
C1182 C1184 1.378 . S
C1182 C1186 1.350 . S
C1183 C1186 1.463 . S
C1183 C1188 1.350 . S
C1183 N1191 1.427 . S
C1184 H1175 0.930 . S
C1184 C1182 1.378 . S
C1184 C1185 1.367 . S
C1185 C1184 1.367 . S
C1185 C1187 1.433 . S
C1186 C1182 1.350 . S
C1186 C1183 1.463 . S
C1186 N1190 1.427 . S
C1187 H1177 0.929 . S
C1187 C1185 1.433 . S
C1187 N1190 1.384 . S
C1188 H1179 0.929 . S
C1188 C1180 1.378 . S
C1188 C1183 1.350 . S
C1189 H1176 0.929 . S
C1189 C1181 1.433 . S
C1189 N1191 1.384 . S
N1190 C1186 1.427 . S
N1190 C1187 1.384 . S
N1191 C1183 1.427 . S
N1191 C1189 1.384 . S
H1192 C1198 0.930 . S
H1193 C1202 0.930 . S
H1194 C1207 0.929 . S
H1195 C1205 0.929 1_565 S
H1196 C1200 0.929 . S
H1197 C1206 0.933 1_565 S
C1198 H1192 0.930 . S
C1198 C1199 1.367 . S
C1198 C1206 1.378 . S
C1199 C1198 1.367 . S
C1199 C1207 1.433 . S
C1200 H1196 0.929 . S
C1200 C1202 1.378 . S
C1200 C1204 1.350 . S
C1201 C1204 1.463 . S
C1201 C1206 1.350 . S
C1201 N1209 1.427 . S
C1202 H1193 0.930 . S
C1202 C1200 1.378 . S
C1202 C1203 1.367 . S
C1203 C1202 1.367 . S
C1203 C1205 1.433 . S
C1204 C1200 1.350 . S
C1204 C1201 1.463 . S
C1204 N1208 1.427 . S
C1205 H1195 0.929 1_545 S
C1205 C1203 1.433 . S
C1205 N1208 1.384 . S
C1206 H1197 0.933 1_545 S
C1206 C1198 1.378 . S
C1206 C1201 1.350 . S
C1207 H1194 0.929 . S
C1207 C1199 1.433 . S
C1207 N1209 1.384 . S
N1208 C1204 1.427 . S
N1208 C1205 1.384 . S
N1209 C1201 1.427 . S
N1209 C1207 1.384 . S
H1210 C1216 0.930 . S
H1211 C1220 0.930 . S
H1212 C1225 0.929 . S
H1213 C1223 0.929 . S
H1214 C1218 0.929 . S
H1215 C1224 0.929 . S
C1216 H1210 0.930 . S
C1216 C1217 1.367 . S
C1216 C1224 1.378 . S
C1217 C1216 1.367 . S
C1217 C1225 1.433 . S
C1218 H1214 0.929 . S
C1218 C1220 1.378 . S
C1218 C1222 1.350 . S
C1219 C1222 1.463 . S
C1219 C1224 1.350 . S
C1219 N1227 1.427 . S
C1220 H1211 0.930 . S
C1220 C1218 1.378 . S
C1220 C1221 1.367 . S
C1221 C1220 1.367 . S
C1221 C1223 1.433 . S
C1222 C1218 1.350 . S
C1222 C1219 1.463 . S
C1222 N1226 1.427 . S
C1223 H1213 0.929 . S
C1223 C1221 1.433 . S
C1223 N1226 1.384 . S
C1224 H1215 0.929 . S
C1224 C1216 1.378 . S
C1224 C1219 1.350 . S
C1225 H1212 0.929 . S
C1225 C1217 1.433 . S
C1225 N1227 1.384 . S
N1226 C1222 1.427 . S
N1226 C1223 1.384 . S
N1227 C1219 1.427 . S
N1227 C1225 1.384 . S
H1228 C1234 0.930 1_565 S
H1229 C1238 0.930 . S
H1230 C1243 0.929 . S
H1231 C1241 0.929 1_565 S
H1232 C1236 0.929 . S
H1233 C1242 0.929 1_565 S
C1234 H1228 0.930 1_545 S
C1234 C1235 1.367 . S
C1234 C1242 1.378 . S
C1235 C1234 1.367 . S
C1235 C1243 1.433 . S
C1236 H1232 0.929 . S
C1236 C1238 1.378 . S
C1236 C1240 1.350 . S
C1237 C1240 1.463 . S
C1237 C1242 1.350 . S
C1237 N1245 1.427 . S
C1238 H1229 0.930 . S
C1238 C1236 1.378 . S
C1238 C1239 1.367 . S
C1239 C1238 1.367 . S
C1239 C1241 1.433 . S
C1240 C1236 1.350 . S
C1240 C1237 1.463 . S
C1240 N1244 1.427 . S
C1241 H1231 0.929 1_545 S
C1241 C1239 1.433 . S
C1241 N1244 1.384 . S
C1242 H1233 0.929 1_545 S
C1242 C1234 1.378 . S
C1242 C1237 1.350 . S
C1243 H1230 0.929 . S
C1243 C1235 1.433 . S
C1243 N1245 1.384 . S
N1244 C1240 1.427 . S
N1244 C1241 1.384 . S
N1245 C1237 1.427 . S
N1245 C1243 1.384 . S
H1246 C1252 0.930 . S
H1247 C1256 0.930 . S
H1248 C1261 0.929 . S
H1249 C1259 0.929 . S
H1250 C1254 0.929 . S
H1251 C1260 0.929 . S
C1252 H1246 0.930 . S
C1252 C1253 1.367 . S
C1252 C1260 1.378 . S
C1253 C1252 1.367 . S
C1253 C1261 1.433 . S
C1254 H1250 0.929 . S
C1254 C1256 1.378 . S
C1254 C1258 1.350 . S
C1255 C1258 1.463 . S
C1255 C1260 1.350 . S
C1255 N1263 1.427 . S
C1256 H1247 0.930 . S
C1256 C1254 1.378 . S
C1256 C1257 1.367 . S
C1257 C1256 1.367 . S
C1257 C1259 1.433 . S
C1258 C1254 1.350 . S
C1258 C1255 1.463 . S
C1258 N1262 1.427 . S
C1259 H1249 0.929 . S
C1259 C1257 1.433 . S
C1259 N1262 1.384 . S
C1260 H1251 0.929 . S
C1260 C1252 1.378 . S
C1260 C1255 1.350 . S
C1261 H1248 0.929 . S
C1261 C1253 1.433 . S
C1261 N1263 1.384 . S
N1262 C1258 1.427 . S
N1262 C1259 1.384 . S
N1263 C1255 1.427 . S
N1263 C1261 1.384 . S
H1264 C1270 0.930 . S
H1265 C1274 0.930 . S
H1266 C1279 0.929 . S
H1267 C1277 0.929 . S
H1268 C1272 0.929 . S
H1269 C1278 0.929 . S
C1270 H1264 0.930 . S
C1270 C1271 1.367 . S
C1270 C1278 1.378 . S
C1271 C1270 1.367 . S
C1271 C1279 1.433 1_554 S
C1272 H1268 0.929 . S
C1272 C1274 1.378 . S
C1272 C1276 1.350 . S
C1273 C1276 1.463 . S
C1273 C1278 1.350 . S
C1273 N1281 1.427 . S
C1274 H1265 0.930 . S
C1274 C1272 1.378 . S
C1274 C1275 1.367 . S
C1275 C1274 1.367 . S
C1275 C1277 1.433 . S
C1276 C1272 1.350 . S
C1276 C1273 1.463 . S
C1276 N1280 1.427 . S
C1277 H1267 0.929 . S
C1277 C1275 1.433 . S
C1277 N1280 1.384 . S
C1278 H1269 0.929 . S
C1278 C1270 1.378 . S
C1278 C1273 1.350 . S
C1279 H1266 0.929 . S
C1279 C1271 1.433 1_556 S
C1279 N1281 1.384 1_556 S
N1280 C1276 1.427 . S
N1280 C1277 1.384 . S
N1281 C1273 1.427 . S
N1281 C1279 1.384 1_554 S
H1282 C1288 0.930 . S
H1283 C1292 0.930 . S
H1284 C1297 0.929 . S
H1285 C1295 0.929 . S
H1286 C1290 0.929 . S
H1287 C1296 0.929 . S
C1288 H1282 0.930 . S
C1288 C1289 1.367 . S
C1288 C1296 1.378 . S
C1289 C1288 1.367 . S
C1289 C1297 1.433 . S
C1290 H1286 0.929 . S
C1290 C1292 1.378 . S
C1290 C1294 1.350 . S
C1291 C1294 1.463 . S
C1291 C1296 1.350 . S
C1291 N1299 1.427 . S
C1292 H1283 0.930 . S
C1292 C1290 1.378 . S
C1292 C1293 1.367 . S
C1293 C1292 1.367 . S
C1293 C1295 1.433 . S
C1294 C1290 1.350 . S
C1294 C1291 1.463 . S
C1294 N1298 1.427 . S
C1295 H1285 0.929 . S
C1295 C1293 1.433 . S
C1295 N1298 1.384 . S
C1296 H1287 0.929 . S
C1296 C1288 1.378 . S
C1296 C1291 1.350 . S
C1297 H1284 0.929 . S
C1297 C1289 1.433 . S
C1297 N1299 1.384 . S
N1298 C1294 1.427 . S
N1298 C1295 1.384 . S
N1299 C1291 1.427 . S
N1299 C1297 1.384 . S
H1300 C1306 0.930 . S
H1301 C1310 0.930 . S
H1302 C1315 0.929 . S
H1303 C1313 0.929 . S
H1304 C1308 0.929 . S
H1305 C1314 0.929 . S
C1306 H1300 0.930 . S
C1306 C1307 1.367 . S
C1306 C1314 1.378 . S
C1307 C1306 1.367 . S
C1307 C1315 1.433 . S
C1308 H1304 0.929 . S
C1308 C1310 1.378 . S
C1308 C1312 1.350 . S
C1309 C1312 1.463 . S
C1309 C1314 1.350 . S
C1309 N1317 1.427 . S
C1310 H1301 0.930 . S
C1310 C1308 1.378 . S
C1310 C1311 1.367 . S
C1311 C1310 1.367 . S
C1311 C1313 1.433 . S
C1312 C1308 1.350 . S
C1312 C1309 1.463 . S
C1312 N1316 1.427 . S
C1313 H1303 0.929 . S
C1313 C1311 1.433 . S
C1313 N1316 1.384 . S
C1314 H1305 0.929 . S
C1314 C1306 1.378 . S
C1314 C1309 1.350 . S
C1315 H1302 0.929 . S
C1315 C1307 1.433 . S
C1315 N1317 1.384 . S
N1316 C1312 1.427 . S
N1316 C1313 1.384 . S
N1317 C1309 1.427 . S
N1317 C1315 1.384 . S
H1318 C1324 0.930 . S
H1319 C1328 0.930 . S
H1320 C1333 0.929 . S
H1321 C1331 0.929 . S
H1322 C1326 0.929 . S
H1323 C1332 0.929 . S
C1324 H1318 0.930 . S
C1324 C1325 1.367 . S
C1324 C1332 1.378 . S
C1325 C1324 1.367 . S
C1325 C1333 1.433 . S
C1326 H1322 0.929 . S
C1326 C1328 1.378 . S
C1326 C1330 1.350 . S
C1327 C1330 1.463 . S
C1327 C1332 1.350 . S
C1327 N1335 1.427 . S
C1328 H1319 0.930 . S
C1328 C1326 1.378 . S
C1328 C1329 1.367 . S
C1329 C1328 1.367 . S
C1329 C1331 1.433 . S
C1330 C1326 1.350 . S
C1330 C1327 1.463 . S
C1330 N1334 1.427 . S
C1331 H1321 0.929 . S
C1331 C1329 1.433 . S
C1331 N1334 1.384 . S
C1332 H1323 0.929 . S
C1332 C1324 1.378 . S
C1332 C1327 1.350 . S
C1333 H1320 0.929 . S
C1333 C1325 1.433 . S
C1333 N1335 1.384 . S
N1334 C1330 1.427 . S
N1334 C1331 1.384 . S
N1335 C1327 1.427 . S
N1335 C1333 1.384 . S
H1336 C1342 0.930 . S
H1337 C1346 0.930 . S
H1338 C1351 0.929 . S
H1339 C1349 0.929 . S
H1340 C1344 0.929 . S
H1341 C1350 0.929 . S
C1342 H1336 0.930 . S
C1342 C1343 1.367 . S
C1342 C1350 1.378 . S
C1343 C1342 1.367 . S
C1343 C1351 1.433 . S
C1344 H1340 0.929 . S
C1344 C1346 1.378 . S
C1344 C1348 1.350 . S
C1345 C1348 1.463 . S
C1345 C1350 1.350 . S
C1345 N1353 1.427 . S
C1346 H1337 0.930 . S
C1346 C1344 1.378 . S
C1346 C1347 1.367 . S
C1347 C1346 1.367 . S
C1347 C1349 1.433 . S
C1348 C1344 1.350 . S
C1348 C1345 1.463 . S
C1348 N1352 1.427 . S
C1349 H1339 0.929 . S
C1349 C1347 1.433 . S
C1349 N1352 1.384 . S
C1350 H1341 0.929 . S
C1350 C1342 1.378 . S
C1350 C1345 1.350 . S
C1351 H1338 0.929 . S
C1351 C1343 1.433 . S
C1351 N1353 1.384 . S
N1352 C1348 1.427 . S
N1352 C1349 1.384 . S
N1353 C1345 1.427 . S
N1353 C1351 1.384 . S
H1354 C1360 0.930 . S
H1355 C1364 0.930 . S
H1356 C1369 0.929 . S
H1357 C1367 0.929 . S
H1358 C1362 0.929 . S
H1359 C1368 0.929 . S
C1360 H1354 0.930 . S
C1360 C1361 1.367 . S
C1360 C1368 1.378 . S
C1361 C1360 1.367 . S
C1361 C1369 1.433 . S
C1362 H1358 0.929 . S
C1362 C1364 1.378 . S
C1362 C1366 1.350 . S
C1363 C1366 1.463 . S
C1363 C1368 1.350 . S
C1363 N1371 1.427 . S
C1364 H1355 0.930 . S
C1364 C1362 1.378 . S
C1364 C1365 1.367 . S
C1365 C1364 1.367 . S
C1365 C1367 1.433 . S
C1366 C1362 1.350 . S
C1366 C1363 1.463 . S
C1366 N1370 1.427 . S
C1367 H1357 0.929 . S
C1367 C1365 1.433 . S
C1367 N1370 1.384 . S
C1368 H1359 0.929 . S
C1368 C1360 1.378 . S
C1368 C1363 1.350 . S
C1369 H1356 0.929 . S
C1369 C1361 1.433 . S
C1369 N1371 1.384 . S
N1370 C1366 1.427 . S
N1370 C1367 1.384 . S
N1371 C1363 1.427 . S
N1371 C1369 1.384 . S
H1372 C1378 0.930 . S
H1373 C1382 0.930 . S
H1374 C1387 0.929 . S
H1375 C1385 0.929 . S
H1376 C1380 0.929 . S
H1377 C1386 0.929 . S
C1378 H1372 0.930 . S
C1378 C1379 1.367 . S
C1378 C1386 1.378 . S
C1379 C1378 1.367 . S
C1379 C1387 1.433 . S
C1380 H1376 0.929 . S
C1380 C1382 1.378 . S
C1380 C1384 1.350 . S
C1381 C1384 1.463 . S
C1381 C1386 1.350 . S
C1381 N1389 1.427 . S
C1382 H1373 0.930 . S
C1382 C1380 1.378 . S
C1382 C1383 1.367 . S
C1383 C1382 1.367 . S
C1383 C1385 1.433 . S
C1384 C1380 1.350 . S
C1384 C1381 1.463 . S
C1384 N1388 1.427 . S
C1385 H1375 0.929 . S
C1385 C1383 1.433 . S
C1385 N1388 1.384 . S
C1386 H1377 0.929 . S
C1386 C1378 1.378 . S
C1386 C1381 1.350 . S
C1387 H1374 0.929 . S
C1387 C1379 1.433 . S
C1387 N1389 1.384 . S
N1388 C1384 1.427 . S
N1388 C1385 1.384 . S
N1389 C1381 1.427 . S
N1389 C1387 1.384 . S
H1390 C1396 0.930 . S
H1391 C1400 0.930 . S
H1392 C1405 0.929 . S
H1393 C1403 0.929 . S
H1394 C1398 0.929 . S
H1395 C1404 0.929 . S
C1396 H1390 0.930 . S
C1396 C1397 1.367 . S
C1396 C1404 1.378 . S
C1397 C1396 1.367 . S
C1397 C1405 1.433 . S
C1398 H1394 0.929 . S
C1398 C1400 1.378 . S
C1398 C1402 1.350 . S
C1399 C1402 1.463 . S
C1399 C1404 1.350 . S
C1399 N1407 1.427 . S
C1400 H1391 0.930 . S
C1400 C1398 1.378 . S
C1400 C1401 1.367 . S
C1401 C1400 1.367 . S
C1401 C1403 1.433 . S
C1402 C1398 1.350 . S
C1402 C1399 1.463 . S
C1402 N1406 1.427 . S
C1403 H1393 0.929 . S
C1403 C1401 1.433 . S
C1403 N1406 1.384 . S
C1404 H1395 0.929 . S
C1404 C1396 1.378 . S
C1404 C1399 1.350 . S
C1405 H1392 0.929 . S
C1405 C1397 1.433 . S
C1405 N1407 1.384 . S
N1406 C1402 1.427 . S
N1406 C1403 1.384 . S
N1407 C1399 1.427 . S
N1407 C1405 1.384 . S
H1408 C1414 0.930 . S
H1409 C1418 0.930 . S
H1410 C1423 0.929 . S
H1411 C1421 0.929 . S
H1412 C1416 0.929 . S
H1413 C1422 0.929 . S
C1414 H1408 0.930 . S
C1414 C1415 1.367 . S
C1414 C1422 1.378 . S
C1415 C1414 1.367 . S
C1415 C1423 1.433 . S
C1416 H1412 0.929 . S
C1416 C1418 1.378 . S
C1416 C1420 1.350 . S
C1417 C1420 1.463 . S
C1417 C1422 1.350 . S
C1417 N1425 1.427 . S
C1418 H1409 0.930 . S
C1418 C1416 1.378 . S
C1418 C1419 1.367 . S
C1419 C1418 1.367 . S
C1419 C1421 1.433 . S
C1420 C1416 1.350 . S
C1420 C1417 1.463 . S
C1420 N1424 1.427 . S
C1421 H1411 0.929 . S
C1421 C1419 1.433 . S
C1421 N1424 1.384 . S
C1422 H1413 0.929 . S
C1422 C1414 1.378 . S
C1422 C1417 1.350 . S
C1423 H1410 0.929 . S
C1423 C1415 1.433 . S
C1423 N1425 1.384 . S
N1424 C1420 1.427 . S
N1424 C1421 1.384 . S
N1425 C1417 1.427 . S
N1425 C1423 1.384 . S
H1426 C1432 0.930 . S
H1427 C1436 0.930 . S
H1428 C1441 0.929 . S
H1429 C1439 0.929 . S
H1430 C1434 0.929 . S
H1431 C1440 0.929 . S
C1432 H1426 0.930 . S
C1432 C1433 1.367 . S
C1432 C1440 1.378 . S
C1433 C1432 1.367 . S
C1433 C1441 1.433 . S
C1434 H1430 0.929 . S
C1434 C1436 1.378 . S
C1434 C1438 1.350 . S
C1435 C1438 1.463 . S
C1435 C1440 1.350 . S
C1435 N1443 1.427 . S
C1436 H1427 0.930 . S
C1436 C1434 1.378 . S
C1436 C1437 1.367 . S
C1437 C1436 1.367 . S
C1437 C1439 1.433 . S
C1438 C1434 1.350 . S
C1438 C1435 1.463 . S
C1438 N1442 1.427 . S
C1439 H1429 0.929 . S
C1439 C1437 1.433 . S
C1439 N1442 1.384 . S
C1440 H1431 0.929 . S
C1440 C1432 1.378 . S
C1440 C1435 1.350 . S
C1441 H1428 0.929 . S
C1441 C1433 1.433 . S
C1441 N1443 1.384 . S
N1442 C1438 1.427 . S
N1442 C1439 1.384 . S
N1443 C1435 1.427 . S
N1443 C1441 1.384 . S
H1444 C1450 0.930 . S
H1445 C1454 0.930 . S
H1446 C1459 0.929 . S
H1447 C1457 0.929 . S
H1448 C1452 0.929 . S
H1449 C1458 0.929 . S
C1450 H1444 0.930 . S
C1450 C1451 1.367 . S
C1450 C1458 1.378 . S
C1451 C1450 1.367 . S
C1451 C1459 1.433 . S
C1452 H1448 0.929 . S
C1452 C1454 1.378 . S
C1452 C1456 1.350 . S
C1453 C1456 1.463 . S
C1453 C1458 1.350 . S
C1453 N1461 1.427 . S
C1454 H1445 0.930 . S
C1454 C1452 1.378 . S
C1454 C1455 1.367 . S
C1455 C1454 1.367 . S
C1455 C1457 1.433 . S
C1456 C1452 1.350 . S
C1456 C1453 1.463 . S
C1456 N1460 1.427 . S
C1457 H1447 0.929 . S
C1457 C1455 1.433 . S
C1457 N1460 1.384 . S
C1458 H1449 0.929 . S
C1458 C1450 1.378 . S
C1458 C1453 1.350 . S
C1459 H1446 0.929 . S
C1459 C1451 1.433 . S
C1459 N1461 1.384 . S
N1460 C1456 1.427 . S
N1460 C1457 1.384 . S
N1461 C1453 1.427 . S
N1461 C1459 1.384 . S
H1462 C1468 0.930 . S
H1463 C1472 0.930 . S
H1464 C1477 0.929 . S
H1465 C1475 0.929 . S
H1466 C1470 0.929 . S
H1467 C1476 0.929 . S
C1468 H1462 0.930 . S
C1468 C1469 1.367 . S
C1468 C1476 1.378 . S
C1469 C1468 1.367 . S
C1469 C1477 1.433 . S
C1470 H1466 0.929 . S
C1470 C1472 1.378 . S
C1470 C1474 1.350 . S
C1471 C1474 1.463 . S
C1471 C1476 1.350 . S
C1471 N1479 1.427 . S
C1472 H1463 0.930 . S
C1472 C1470 1.378 . S
C1472 C1473 1.367 . S
C1473 C1472 1.367 . S
C1473 C1475 1.433 . S
C1474 C1470 1.350 . S
C1474 C1471 1.463 . S
C1474 N1478 1.427 . S
C1475 H1465 0.929 . S
C1475 C1473 1.433 . S
C1475 N1478 1.384 . S
C1476 H1467 0.929 . S
C1476 C1468 1.378 . S
C1476 C1471 1.350 . S
C1477 H1464 0.929 . S
C1477 C1469 1.433 . S
C1477 N1479 1.384 . S
N1478 C1474 1.427 . S
N1478 C1475 1.384 . S
N1479 C1471 1.427 . S
N1479 C1477 1.384 . S
H1480 C1486 0.930 . S
H1481 C1490 0.930 . S
H1482 C1495 0.929 . S
H1483 C1493 0.929 . S
H1484 C1488 0.929 . S
H1485 C1494 0.929 . S
C1486 H1480 0.930 . S
C1486 C1487 1.367 . S
C1486 C1494 1.378 . S
C1487 C1486 1.367 . S
C1487 C1495 1.433 . S
C1488 H1484 0.929 . S
C1488 C1490 1.378 . S
C1488 C1492 1.350 . S
C1489 C1492 1.463 . S
C1489 C1494 1.350 . S
C1489 N1497 1.427 . S
C1490 H1481 0.930 . S
C1490 C1488 1.378 . S
C1490 C1491 1.367 . S
C1491 C1490 1.367 . S
C1491 C1493 1.433 . S
C1492 C1488 1.350 . S
C1492 C1489 1.463 . S
C1492 N1496 1.427 . S
C1493 H1483 0.929 . S
C1493 C1491 1.433 . S
C1493 N1496 1.384 . S
C1494 H1485 0.929 . S
C1494 C1486 1.378 . S
C1494 C1489 1.350 . S
C1495 H1482 0.929 . S
C1495 C1487 1.433 . S
C1495 N1497 1.384 . S
N1496 C1492 1.427 . S
N1496 C1493 1.384 . S
N1497 C1489 1.427 . S
N1497 C1495 1.384 . S
H1498 C1504 0.930 . S
H1499 C1508 0.930 . S
H1500 C1513 0.929 . S
H1501 C1511 0.929 . S
H1502 C1506 0.929 . S
H1503 C1512 0.929 . S
C1504 H1498 0.930 . S
C1504 C1505 1.367 . S
C1504 C1512 1.378 . S
C1505 C1504 1.367 . S
C1505 C1513 1.433 . S
C1506 H1502 0.929 . S
C1506 C1508 1.378 . S
C1506 C1510 1.350 . S
C1507 C1510 1.463 . S
C1507 C1512 1.350 . S
C1507 N1515 1.427 . S
C1508 H1499 0.930 . S
C1508 C1506 1.378 . S
C1508 C1509 1.367 . S
C1509 C1508 1.367 . S
C1509 C1511 1.433 . S
C1510 C1506 1.350 . S
C1510 C1507 1.463 . S
C1510 N1514 1.427 . S
C1511 H1501 0.929 . S
C1511 C1509 1.433 . S
C1511 N1514 1.384 . S
C1512 H1503 0.929 . S
C1512 C1504 1.378 . S
C1512 C1507 1.350 . S
C1513 H1500 0.929 . S
C1513 C1505 1.433 . S
C1513 N1515 1.384 . S
N1514 C1510 1.427 . S
N1514 C1511 1.384 . S
N1515 C1507 1.427 . S
N1515 C1513 1.384 . S
H1516 C1522 0.930 . S
H1517 C1526 0.930 . S
H1518 C1531 0.929 . S
H1519 C1529 0.929 . S
H1520 C1524 0.929 1_556 S
H1521 C1530 0.929 . S
C1522 H1516 0.930 . S
C1522 C1523 1.367 1_554 S
C1522 C1530 1.378 . S
C1523 C1522 1.367 1_556 S
C1523 C1531 1.433 . S
C1524 H1520 0.929 1_554 S
C1524 C1526 1.378 . S
C1524 C1528 1.350 . S
C1525 C1528 1.463 . S
C1525 C1530 1.350 . S
C1525 N1533 1.427 1_554 S
C1526 H1517 0.930 . S
C1526 C1524 1.378 . S
C1526 C1527 1.367 . S
C1527 C1526 1.367 . S
C1527 C1529 1.433 . S
C1528 C1524 1.350 . S
C1528 C1525 1.463 . S
C1528 N1532 1.427 . S
C1529 H1519 0.929 . S
C1529 C1527 1.433 . S
C1529 N1532 1.384 . S
C1530 H1521 0.929 . S
C1530 C1522 1.378 . S
C1530 C1525 1.350 . S
C1531 H1518 0.929 . S
C1531 C1523 1.433 . S
C1531 N1533 1.384 . S
N1532 C1528 1.427 . S
N1532 C1529 1.384 . S
N1533 C1525 1.427 1_556 S
N1533 C1531 1.384 . S
H1534 C1540 0.930 . S
H1535 C1544 0.930 . S
H1536 C1549 0.929 . S
H1537 C1547 0.929 . S
H1538 C1542 0.929 . S
H1539 C1548 0.929 . S
C1540 H1534 0.930 . S
C1540 C1541 1.367 . S
C1540 C1548 1.378 . S
C1541 C1540 1.367 . S
C1541 C1549 1.433 . S
C1542 H1538 0.929 . S
C1542 C1544 1.378 . S
C1542 C1546 1.350 . S
C1543 C1546 1.463 . S
C1543 C1548 1.350 . S
C1543 N1551 1.427 . S
C1544 H1535 0.930 . S
C1544 C1542 1.378 . S
C1544 C1545 1.367 . S
C1545 C1544 1.367 . S
C1545 C1547 1.433 . S
C1546 C1542 1.350 . S
C1546 C1543 1.463 . S
C1546 N1550 1.427 . S
C1547 H1537 0.929 . S
C1547 C1545 1.433 . S
C1547 N1550 1.384 . S
C1548 H1539 0.929 . S
C1548 C1540 1.378 . S
C1548 C1543 1.350 . S
C1549 H1536 0.929 . S
C1549 C1541 1.433 . S
C1549 N1551 1.384 . S
N1550 C1546 1.427 . S
N1550 C1547 1.384 . S
N1551 C1543 1.427 . S
N1551 C1549 1.384 . S
H1552 C1558 0.930 . S
H1553 C1562 0.930 . S
H1554 C1567 0.929 . S
H1555 C1565 0.929 . S
H1556 C1560 0.929 . S
H1557 C1566 0.929 . S
C1558 H1552 0.930 . S
C1558 C1559 1.367 1_565 S
C1558 C1566 1.378 . S
C1559 C1558 1.367 1_545 S
C1559 C1567 1.433 . S
C1560 H1556 0.929 . S
C1560 C1562 1.378 . S
C1560 C1564 1.350 . S
C1561 C1564 1.463 . S
C1561 C1566 1.350 1_545 S
C1561 N1569 1.427 . S
C1562 H1553 0.930 . S
C1562 C1560 1.378 . S
C1562 C1563 1.367 . S
C1563 C1562 1.367 . S
C1563 C1565 1.433 1_545 S
C1564 C1560 1.350 . S
C1564 C1561 1.463 . S
C1564 N1568 1.427 1_545 S
C1565 H1555 0.929 . S
C1565 C1563 1.433 1_565 S
C1565 N1568 1.384 . S
C1566 H1557 0.929 . S
C1566 C1558 1.378 . S
C1566 C1561 1.350 1_565 S
C1567 H1554 0.929 . S
C1567 C1559 1.433 . S
C1567 N1569 1.384 . S
N1568 C1564 1.427 1_565 S
N1568 C1565 1.384 . S
N1569 C1561 1.427 . S
N1569 C1567 1.384 . S
H1570 C1576 0.930 . S
H1571 C1580 0.930 . S
H1572 C1585 0.929 . S
H1573 C1583 0.929 . S
H1574 C1578 0.929 . S
H1575 C1584 0.929 . S
C1576 H1570 0.930 . S
C1576 C1577 1.367 . S
C1576 C1584 1.378 . S
C1577 C1576 1.367 . S
C1577 C1585 1.433 . S
C1578 H1574 0.929 . S
C1578 C1580 1.378 . S
C1578 C1582 1.350 . S
C1579 C1582 1.463 . S
C1579 C1584 1.350 . S
C1579 N1587 1.427 . S
C1580 H1571 0.930 . S
C1580 C1578 1.378 . S
C1580 C1581 1.367 . S
C1581 C1580 1.367 . S
C1581 C1583 1.433 . S
C1582 C1578 1.350 . S
C1582 C1579 1.463 . S
C1582 N1586 1.427 . S
C1583 H1573 0.929 . S
C1583 C1581 1.433 . S
C1583 N1586 1.384 . S
C1584 H1575 0.929 . S
C1584 C1576 1.378 . S
C1584 C1579 1.350 . S
C1585 H1572 0.929 . S
C1585 C1577 1.433 . S
C1585 N1587 1.384 . S
N1586 C1582 1.427 . S
N1586 C1583 1.384 . S
N1587 C1579 1.427 . S
N1587 C1585 1.384 . S
H1588 C1594 0.930 . S
H1589 C1598 0.930 . S
H1590 C1603 0.929 . S
H1591 C1601 0.929 . S
H1592 C1596 0.929 . S
H1593 C1602 0.929 . S
C1594 H1588 0.930 . S
C1594 C1595 1.367 . S
C1594 C1602 1.378 . S
C1595 C1594 1.367 . S
C1595 C1603 1.433 . S
C1596 H1592 0.929 . S
C1596 C1598 1.378 . S
C1596 C1600 1.350 . S
C1597 C1600 1.463 . S
C1597 C1602 1.350 . S
C1597 N1605 1.427 . S
C1598 H1589 0.930 . S
C1598 C1596 1.378 . S
C1598 C1599 1.367 . S
C1599 C1598 1.367 . S
C1599 C1601 1.433 . S
C1600 C1596 1.350 . S
C1600 C1597 1.463 . S
C1600 N1604 1.427 . S
C1601 H1591 0.929 . S
C1601 C1599 1.433 . S
C1601 N1604 1.384 . S
C1602 H1593 0.929 . S
C1602 C1594 1.378 . S
C1602 C1597 1.350 . S
C1603 H1590 0.929 . S
C1603 C1595 1.433 . S
C1603 N1605 1.384 . S
N1604 C1600 1.427 . S
N1604 C1601 1.384 . S
N1605 C1597 1.427 . S
N1605 C1603 1.384 . S
H1606 C1612 0.930 . S
H1607 C1616 0.930 . S
H1608 C1621 0.929 . S
H1609 C1619 0.929 . S
H1610 C1614 0.929 . S
H1611 C1620 0.929 . S
C1612 H1606 0.930 . S
C1612 C1613 1.367 . S
C1612 C1620 1.378 . S
C1613 C1612 1.367 . S
C1613 C1621 1.433 . S
C1614 H1610 0.929 . S
C1614 C1616 1.378 . S
C1614 C1618 1.350 . S
C1615 C1618 1.463 . S
C1615 C1620 1.350 . S
C1615 N1623 1.427 . S
C1616 H1607 0.930 . S
C1616 C1614 1.378 . S
C1616 C1617 1.367 . S
C1617 C1616 1.367 . S
C1617 C1619 1.433 . S
C1618 C1614 1.350 . S
C1618 C1615 1.463 . S
C1618 N1622 1.427 . S
C1619 H1609 0.929 . S
C1619 C1617 1.433 . S
C1619 N1622 1.384 . S
C1620 H1611 0.929 . S
C1620 C1612 1.378 . S
C1620 C1615 1.350 . S
C1621 H1608 0.929 . S
C1621 C1613 1.433 . S
C1621 N1623 1.384 . S
N1622 C1618 1.427 . S
N1622 C1619 1.384 . S
N1623 C1615 1.427 . S
N1623 C1621 1.384 . S
H1624 C1630 0.930 . S
H1625 C1634 0.930 . S
H1626 C1639 0.929 . S
H1627 C1637 0.929 . S
H1628 C1632 0.929 . S
H1629 C1638 0.929 . S
C1630 H1624 0.930 . S
C1630 C1631 1.367 1_545 S
C1630 C1638 1.378 . S
C1631 C1630 1.367 1_565 S
C1631 C1639 1.433 . S
C1632 H1628 0.929 . S
C1632 C1634 1.378 . S
C1632 C1636 1.350 1_565 S
C1633 C1636 1.463 . S
C1633 C1638 1.350 . S
C1633 N1641 1.427 1_545 S
C1634 H1625 0.930 . S
C1634 C1632 1.378 . S
C1634 C1635 1.367 1_565 S
C1635 C1634 1.367 1_545 S
C1635 C1637 1.433 . S
C1636 C1632 1.350 1_545 S
C1636 C1633 1.463 . S
C1636 N1640 1.427 . S
C1637 H1627 0.929 . S
C1637 C1635 1.433 . S
C1637 N1640 1.384 . S
C1638 H1629 0.929 . S
C1638 C1630 1.378 . S
C1638 C1633 1.350 . S
C1639 H1626 0.929 . S
C1639 C1631 1.433 . S
C1639 N1641 1.384 . S
N1640 C1636 1.427 . S
N1640 C1637 1.384 . S
N1641 C1633 1.427 1_565 S
N1641 C1639 1.384 . S
H1642 C1648 0.930 . S
H1643 C1652 0.930 . S
H1644 C1657 0.929 . S
H1645 C1655 0.929 . S
H1646 C1650 0.929 . S
H1647 C1656 0.929 . S
C1648 H1642 0.930 . S
C1648 C1649 1.367 . S
C1648 C1656 1.378 . S
C1649 C1648 1.367 . S
C1649 C1657 1.433 . S
C1650 H1646 0.929 . S
C1650 C1652 1.378 . S
C1650 C1654 1.350 . S
C1651 C1654 1.463 . S
C1651 C1656 1.350 . S
C1651 N1659 1.427 . S
C1652 H1643 0.930 . S
C1652 C1650 1.378 . S
C1652 C1653 1.367 . S
C1653 C1652 1.367 . S
C1653 C1655 1.433 . S
C1654 C1650 1.350 . S
C1654 C1651 1.463 . S
C1654 N1658 1.427 . S
C1655 H1645 0.929 . S
C1655 C1653 1.433 . S
C1655 N1658 1.384 . S
C1656 H1647 0.929 . S
C1656 C1648 1.378 . S
C1656 C1651 1.350 . S
C1657 H1644 0.929 . S
C1657 C1649 1.433 . S
C1657 N1659 1.384 . S
N1658 C1654 1.427 . S
N1658 C1655 1.384 . S
N1659 C1651 1.427 . S
N1659 C1657 1.384 . S
H1660 C1666 0.930 . S
H1661 C1670 0.930 . S
H1662 C1675 0.929 . S
H1663 C1673 0.929 . S
H1664 C1668 0.929 . S
H1665 C1674 0.929 . S
C1666 H1660 0.930 . S
C1666 C1667 1.367 . S
C1666 C1674 1.378 . S
C1667 C1666 1.367 . S
C1667 C1675 1.433 1_545 S
C1668 H1664 0.929 . S
C1668 C1670 1.378 . S
C1668 C1672 1.350 1_565 S
C1669 C1672 1.463 . S
C1669 C1674 1.350 . S
C1669 N1677 1.427 1_545 S
C1670 H1661 0.930 . S
C1670 C1668 1.378 . S
C1670 C1671 1.367 1_565 S
C1671 C1670 1.367 1_545 S
C1671 C1673 1.433 . S
C1672 C1668 1.350 1_545 S
C1672 C1669 1.463 . S
C1672 N1676 1.427 . S
C1673 H1663 0.929 . S
C1673 C1671 1.433 . S
C1673 N1676 1.384 . S
C1674 H1665 0.929 . S
C1674 C1666 1.378 . S
C1674 C1669 1.350 . S
C1675 H1662 0.929 . S
C1675 C1667 1.433 1_565 S
C1675 N1677 1.384 . S
N1676 C1672 1.427 . S
N1676 C1673 1.384 . S
N1677 C1669 1.427 1_565 S
N1677 C1675 1.384 . S
H1678 C1684 0.930 . S
H1679 C1688 0.930 . S
H1680 C1693 0.929 . S
H1681 C1691 0.929 . S
H1682 C1686 0.929 . S
H1683 C1692 0.929 . S
C1684 H1678 0.930 . S
C1684 C1685 1.367 . S
C1684 C1692 1.378 . S
C1685 C1684 1.367 . S
C1685 C1693 1.433 . S
C1686 H1682 0.929 . S
C1686 C1688 1.378 . S
C1686 C1690 1.350 . S
C1687 C1690 1.463 . S
C1687 C1692 1.350 . S
C1687 N1695 1.427 . S
C1688 H1679 0.930 . S
C1688 C1686 1.378 . S
C1688 C1689 1.367 . S
C1689 C1688 1.367 . S
C1689 C1691 1.433 . S
C1690 C1686 1.350 . S
C1690 C1687 1.463 . S
C1690 N1694 1.427 . S
C1691 H1681 0.929 . S
C1691 C1689 1.433 . S
C1691 N1694 1.384 . S
C1692 H1683 0.929 . S
C1692 C1684 1.378 . S
C1692 C1687 1.350 . S
C1693 H1680 0.929 . S
C1693 C1685 1.433 . S
C1693 N1695 1.384 . S
N1694 C1690 1.427 . S
N1694 C1691 1.384 . S
N1695 C1687 1.427 . S
N1695 C1693 1.384 . S
H1696 C1702 0.930 . S
H1697 C1706 0.930 . S
H1698 C1711 0.929 . S
H1699 C1709 0.929 . S
H1700 C1704 0.929 . S
H1701 C1710 0.929 . S
C1702 H1696 0.930 . S
C1702 C1703 1.367 . S
C1702 C1710 1.378 . S
C1703 C1702 1.367 . S
C1703 C1711 1.433 . S
C1704 H1700 0.929 . S
C1704 C1706 1.378 . S
C1704 C1708 1.350 . S
C1705 C1708 1.463 . S
C1705 C1710 1.350 . S
C1705 N1713 1.427 . S
C1706 H1697 0.930 . S
C1706 C1704 1.378 . S
C1706 C1707 1.367 . S
C1707 C1706 1.367 . S
C1707 C1709 1.433 1_554 S
C1708 C1704 1.350 . S
C1708 C1705 1.463 . S
C1708 N1712 1.427 . S
C1709 H1699 0.929 . S
C1709 C1707 1.433 1_556 S
C1709 N1712 1.384 1_556 S
C1710 H1701 0.929 . S
C1710 C1702 1.378 . S
C1710 C1705 1.350 . S
C1711 H1698 0.929 . S
C1711 C1703 1.433 . S
C1711 N1713 1.384 . S
N1712 C1708 1.427 . S
N1712 C1709 1.384 1_554 S
N1713 C1705 1.427 . S
N1713 C1711 1.384 . S
H1714 C1720 0.930 . S
H1715 C1724 0.930 . S
H1716 C1729 0.929 . S
H1717 C1727 0.929 . S
H1718 C1722 0.929 . S
H1719 C1728 0.929 . S
C1720 H1714 0.930 . S
C1720 C1721 1.367 . S
C1720 C1728 1.378 . S
C1721 C1720 1.367 . S
C1721 C1729 1.433 . S
C1722 H1718 0.929 . S
C1722 C1724 1.378 . S
C1722 C1726 1.350 . S
C1723 C1726 1.463 . S
C1723 C1728 1.350 . S
C1723 N1731 1.427 . S
C1724 H1715 0.930 . S
C1724 C1722 1.378 . S
C1724 C1725 1.367 . S
C1725 C1724 1.367 . S
C1725 C1727 1.433 . S
C1726 C1722 1.350 . S
C1726 C1723 1.463 . S
C1726 N1730 1.427 . S
C1727 H1717 0.929 . S
C1727 C1725 1.433 . S
C1727 N1730 1.384 . S
C1728 H1719 0.929 . S
C1728 C1720 1.378 . S
C1728 C1723 1.350 . S
C1729 H1716 0.929 . S
C1729 C1721 1.433 . S
C1729 N1731 1.384 . S
N1730 C1726 1.427 . S
N1730 C1727 1.384 . S
N1731 C1723 1.427 . S
N1731 C1729 1.384 . S
H1732 C1738 0.930 . S
H1733 C1742 0.930 . S
H1734 C1747 0.929 . S
H1735 C1745 0.929 . S
H1736 C1740 0.929 . S
H1737 C1746 0.929 . S
C1738 H1732 0.930 . S
C1738 C1739 1.367 . S
C1738 C1746 1.378 . S
C1739 C1738 1.367 . S
C1739 C1747 1.433 . S
C1740 H1736 0.929 . S
C1740 C1742 1.378 . S
C1740 C1744 1.350 . S
C1741 C1744 1.463 . S
C1741 C1746 1.350 . S
C1741 N1749 1.427 . S
C1742 H1733 0.930 . S
C1742 C1740 1.378 . S
C1742 C1743 1.367 . S
C1743 C1742 1.367 . S
C1743 C1745 1.433 . S
C1744 C1740 1.350 . S
C1744 C1741 1.463 . S
C1744 N1748 1.427 . S
C1745 H1735 0.929 . S
C1745 C1743 1.433 . S
C1745 N1748 1.384 . S
C1746 H1737 0.929 . S
C1746 C1738 1.378 . S
C1746 C1741 1.350 . S
C1747 H1734 0.929 . S
C1747 C1739 1.433 . S
C1747 N1749 1.384 . S
N1748 C1744 1.427 . S
N1748 C1745 1.384 . S
N1749 C1741 1.427 . S
N1749 C1747 1.384 . S
H1750 C1756 0.930 . S
H1751 C1760 0.930 . S
H1752 C1765 0.929 . S
H1753 C1763 0.929 . S
H1754 C1758 0.929 . S
H1755 C1764 0.929 . S
C1756 H1750 0.930 . S
C1756 C1757 1.367 . S
C1756 C1764 1.378 . S
C1757 C1756 1.367 . S
C1757 C1765 1.433 . S
C1758 H1754 0.929 . S
C1758 C1760 1.378 . S
C1758 C1762 1.350 . S
C1759 C1762 1.463 . S
C1759 C1764 1.350 . S
C1759 N1767 1.427 . S
C1760 H1751 0.930 . S
C1760 C1758 1.378 . S
C1760 C1761 1.367 . S
C1761 C1760 1.367 . S
C1761 C1763 1.433 . S
C1762 C1758 1.350 . S
C1762 C1759 1.463 . S
C1762 N1766 1.427 . S
C1763 H1753 0.929 . S
C1763 C1761 1.433 . S
C1763 N1766 1.384 . S
C1764 H1755 0.929 . S
C1764 C1756 1.378 . S
C1764 C1759 1.350 . S
C1765 H1752 0.929 . S
C1765 C1757 1.433 . S
C1765 N1767 1.384 . S
N1766 C1762 1.427 . S
N1766 C1763 1.384 . S
N1767 C1759 1.427 . S
N1767 C1765 1.384 . S
H1768 C1774 0.930 . S
H1769 C1778 0.930 . S
H1770 C1783 0.929 . S
H1771 C1781 0.929 . S
H1772 C1776 0.929 . S
H1773 C1782 0.929 . S
C1774 H1768 0.930 . S
C1774 C1775 1.367 . S
C1774 C1782 1.378 . S
C1775 C1774 1.367 . S
C1775 C1783 1.433 . S
C1776 H1772 0.929 . S
C1776 C1778 1.378 . S
C1776 C1780 1.350 . S
C1777 C1780 1.463 . S
C1777 C1782 1.350 . S
C1777 N1785 1.427 . S
C1778 H1769 0.930 . S
C1778 C1776 1.378 . S
C1778 C1779 1.367 . S
C1779 C1778 1.367 . S
C1779 C1781 1.433 . S
C1780 C1776 1.350 . S
C1780 C1777 1.463 . S
C1780 N1784 1.427 . S
C1781 H1771 0.929 . S
C1781 C1779 1.433 . S
C1781 N1784 1.384 . S
C1782 H1773 0.929 . S
C1782 C1774 1.378 . S
C1782 C1777 1.350 . S
C1783 H1770 0.929 . S
C1783 C1775 1.433 . S
C1783 N1785 1.384 . S
N1784 C1780 1.427 . S
N1784 C1781 1.384 . S
N1785 C1777 1.427 . S
N1785 C1783 1.384 . S
H1786 C1792 0.930 . S
H1787 C1796 0.930 . S
H1788 C1801 0.929 . S
H1789 C1799 0.929 . S
H1790 C1794 0.929 . S
H1791 C1800 0.929 . S
C1792 H1786 0.930 . S
C1792 C1793 1.367 . S
C1792 C1800 1.378 . S
C1793 C1792 1.367 . S
C1793 C1801 1.433 . S
C1794 H1790 0.929 . S
C1794 C1796 1.378 . S
C1794 C1798 1.350 . S
C1795 C1798 1.463 . S
C1795 C1800 1.350 . S
C1795 N1803 1.427 . S
C1796 H1787 0.930 . S
C1796 C1794 1.378 . S
C1796 C1797 1.367 . S
C1797 C1796 1.367 . S
C1797 C1799 1.433 . S
C1798 C1794 1.350 . S
C1798 C1795 1.463 . S
C1798 N1802 1.427 . S
C1799 H1789 0.929 . S
C1799 C1797 1.433 . S
C1799 N1802 1.384 . S
C1800 H1791 0.929 . S
C1800 C1792 1.378 . S
C1800 C1795 1.350 . S
C1801 H1788 0.929 . S
C1801 C1793 1.433 . S
C1801 N1803 1.384 . S
N1802 C1798 1.427 . S
N1802 C1799 1.384 . S
N1803 C1795 1.427 . S
N1803 C1801 1.384 . S
H1804 C1810 0.930 . S
H1805 C1814 0.930 . S
H1806 C1819 0.929 . S
H1807 C1817 0.929 . S
H1808 C1812 0.929 . S
H1809 C1818 0.929 . S
C1810 H1804 0.930 . S
C1810 C1811 1.367 . S
C1810 C1818 1.378 . S
C1811 C1810 1.367 . S
C1811 C1819 1.433 . S
C1812 H1808 0.929 . S
C1812 C1814 1.378 . S
C1812 C1816 1.350 . S
C1813 C1816 1.463 . S
C1813 C1818 1.350 . S
C1813 N1821 1.427 . S
C1814 H1805 0.930 . S
C1814 C1812 1.378 . S
C1814 C1815 1.367 . S
C1815 C1814 1.367 . S
C1815 C1817 1.433 . S
C1816 C1812 1.350 . S
C1816 C1813 1.463 . S
C1816 N1820 1.427 . S
C1817 H1807 0.929 . S
C1817 C1815 1.433 . S
C1817 N1820 1.384 . S
C1818 H1809 0.929 . S
C1818 C1810 1.378 . S
C1818 C1813 1.350 . S
C1819 H1806 0.929 . S
C1819 C1811 1.433 . S
C1819 N1821 1.384 . S
N1820 C1816 1.427 . S
N1820 C1817 1.384 . S
N1821 C1813 1.427 . S
N1821 C1819 1.384 . S
H1822 C1828 0.930 . S
H1823 C1832 0.930 . S
H1824 C1837 0.929 . S
H1825 C1835 0.929 . S
H1826 C1830 0.929 . S
H1827 C1836 0.929 . S
C1828 H1822 0.930 . S
C1828 C1829 1.367 . S
C1828 C1836 1.378 . S
C1829 C1828 1.367 . S
C1829 C1837 1.433 . S
C1830 H1826 0.929 . S
C1830 C1832 1.378 . S
C1830 C1834 1.350 . S
C1831 C1834 1.463 . S
C1831 C1836 1.350 . S
C1831 N1839 1.427 . S
C1832 H1823 0.930 . S
C1832 C1830 1.378 . S
C1832 C1833 1.367 . S
C1833 C1832 1.367 . S
C1833 C1835 1.433 . S
C1834 C1830 1.350 . S
C1834 C1831 1.463 . S
C1834 N1838 1.427 . S
C1835 H1825 0.929 . S
C1835 C1833 1.433 . S
C1835 N1838 1.384 . S
C1836 H1827 0.929 . S
C1836 C1828 1.378 . S
C1836 C1831 1.350 . S
C1837 H1824 0.929 . S
C1837 C1829 1.433 . S
C1837 N1839 1.384 . S
N1838 C1834 1.427 . S
N1838 C1835 1.384 . S
N1839 C1831 1.427 . S
N1839 C1837 1.384 . S
H1840 C1846 0.930 . S
H1841 C1850 0.930 . S
H1842 C1855 0.929 . S
H1843 C1853 0.929 . S
H1844 C1848 0.929 . S
H1845 C1854 0.929 . S
C1846 H1840 0.930 . S
C1846 C1847 1.367 . S
C1846 C1854 1.378 . S
C1847 C1846 1.367 . S
C1847 C1855 1.433 . S
C1848 H1844 0.929 . S
C1848 C1850 1.378 . S
C1848 C1852 1.350 . S
C1849 C1852 1.463 . S
C1849 C1854 1.350 . S
C1849 N1857 1.427 . S
C1850 H1841 0.930 . S
C1850 C1848 1.378 . S
C1850 C1851 1.367 . S
C1851 C1850 1.367 . S
C1851 C1853 1.433 . S
C1852 C1848 1.350 . S
C1852 C1849 1.463 . S
C1852 N1856 1.427 . S
C1853 H1843 0.929 . S
C1853 C1851 1.433 . S
C1853 N1856 1.384 . S
C1854 H1845 0.929 . S
C1854 C1846 1.378 . S
C1854 C1849 1.350 . S
C1855 H1842 0.929 . S
C1855 C1847 1.433 . S
C1855 N1857 1.384 . S
N1856 C1852 1.427 . S
N1856 C1853 1.384 . S
N1857 C1849 1.427 . S
N1857 C1855 1.384 . S
H1858 C1864 0.930 . S
H1859 C1868 0.930 . S
H1860 C1873 0.929 . S
H1861 C1871 0.929 . S
H1862 C1866 0.929 . S
H1863 C1872 0.929 . S
C1864 H1858 0.930 . S
C1864 C1865 1.367 . S
C1864 C1872 1.378 . S
C1865 C1864 1.367 . S
C1865 C1873 1.433 . S
C1866 H1862 0.929 . S
C1866 C1868 1.378 . S
C1866 C1870 1.350 . S
C1867 C1870 1.463 . S
C1867 C1872 1.350 . S
C1867 N1875 1.427 . S
C1868 H1859 0.930 . S
C1868 C1866 1.378 . S
C1868 C1869 1.367 . S
C1869 C1868 1.367 . S
C1869 C1871 1.433 . S
C1870 C1866 1.350 . S
C1870 C1867 1.463 . S
C1870 N1874 1.427 . S
C1871 H1861 0.929 . S
C1871 C1869 1.433 . S
C1871 N1874 1.384 . S
C1872 H1863 0.929 . S
C1872 C1864 1.378 . S
C1872 C1867 1.350 . S
C1873 H1860 0.929 . S
C1873 C1865 1.433 . S
C1873 N1875 1.384 . S
N1874 C1870 1.427 . S
N1874 C1871 1.384 . S
N1875 C1867 1.427 . S
N1875 C1873 1.384 . S
H1876 C1882 0.930 . S
H1877 C1886 0.930 . S
H1878 C1891 0.929 . S
H1879 C1889 0.929 . S
H1880 C1884 0.929 . S
H1881 C1890 0.900 1_654 S
C1882 H1876 0.930 . S
C1882 C1883 1.367 1_655 S
C1882 C1890 1.383 1_655 S
C1883 C1882 1.367 1_455 S
C1883 C1891 1.433 . S
C1884 H1880 0.929 . S
C1884 C1886 1.378 . S
C1884 C1888 1.350 . S
C1885 C1888 1.463 . S
C1885 C1890 1.374 . S
C1885 N1893 1.427 . S
C1886 H1877 0.930 . S
C1886 C1884 1.378 . S
C1886 C1887 1.367 1_556 S
C1887 C1886 1.367 1_554 S
C1887 C1889 1.433 . S
C1888 C1884 1.350 . S
C1888 C1885 1.463 . S
C1888 N1892 1.427 1_556 S
C1889 H1879 0.929 . S
C1889 C1887 1.433 . S
C1889 N1892 1.384 . S
C1890 H1881 0.900 1_456 S
C1890 C1882 1.383 1_455 S
C1890 C1885 1.374 . S
C1891 H1878 0.929 . S
C1891 C1883 1.433 . S
C1891 N1893 1.384 . S
N1892 C1888 1.427 1_554 S
N1892 C1889 1.384 . S
N1893 C1885 1.427 . S
N1893 C1891 1.384 . S
H1894 C1900 0.930 1_455 S
H1895 C1904 0.930 . S
H1896 C1909 0.929 . S
H1897 C1907 0.929 . S
H1898 C1902 0.929 . S
H1899 C1908 0.929 . S
C1900 H1894 0.930 1_655 S
C1900 C1901 1.367 1_655 S
C1900 C1908 1.378 . S
C1901 C1900 1.367 1_455 S
C1901 C1909 1.433 1_455 S
C1902 H1898 0.929 . S
C1902 C1904 1.378 . S
C1902 C1906 1.350 . S
C1903 C1906 1.463 . S
C1903 C1908 1.350 . S
C1903 N1911 1.427 . S
C1904 H1895 0.930 . S
C1904 C1902 1.378 . S
C1904 C1905 1.367 . S
C1905 C1904 1.367 . S
C1905 C1907 1.433 . S
C1906 C1902 1.350 . S
C1906 C1903 1.463 . S
C1906 N1910 1.427 . S
C1907 H1897 0.929 . S
C1907 C1905 1.433 . S
C1907 N1910 1.384 . S
C1908 H1899 0.929 . S
C1908 C1900 1.378 . S
C1908 C1903 1.350 . S
C1909 H1896 0.929 . S
C1909 C1901 1.433 1_655 S
C1909 N1911 1.384 . S
N1910 C1906 1.427 . S
N1910 C1907 1.384 . S
N1911 C1903 1.427 . S
N1911 C1909 1.384 . S
H1912 C1918 0.930 . S
H1913 C1922 0.930 . S
H1914 C1927 0.929 . S
H1915 C1925 0.929 . S
H1916 C1920 0.929 . S
H1917 C1926 0.929 . S
C1918 H1912 0.930 . S
C1918 C1919 1.367 . S
C1918 C1926 1.378 . S
C1919 C1918 1.367 . S
C1919 C1927 1.433 . S
C1920 H1916 0.929 . S
C1920 C1922 1.378 . S
C1920 C1924 1.350 . S
C1921 C1924 1.463 . S
C1921 C1926 1.350 . S
C1921 N1929 1.427 . S
C1922 H1913 0.930 . S
C1922 C1920 1.378 . S
C1922 C1923 1.367 . S
C1923 C1922 1.367 . S
C1923 C1925 1.433 . S
C1924 C1920 1.350 . S
C1924 C1921 1.463 . S
C1924 N1928 1.427 . S
C1925 H1915 0.929 . S
C1925 C1923 1.433 . S
C1925 N1928 1.384 . S
C1926 H1917 0.929 . S
C1926 C1918 1.378 . S
C1926 C1921 1.350 . S
C1927 H1914 0.929 . S
C1927 C1919 1.433 . S
C1927 N1929 1.384 . S
N1928 C1924 1.427 . S
N1928 C1925 1.384 . S
N1929 C1921 1.427 . S
N1929 C1927 1.384 . S
H1930 C1936 0.930 . S
H1931 C1940 0.930 . S
H1932 C1945 0.929 . S
H1933 C1943 0.929 . S
H1934 C1938 0.929 . S
H1935 C1944 0.929 . S
C1936 H1930 0.930 . S
C1936 C1937 1.367 1_655 S
C1936 C1944 1.378 . S
C1937 C1936 1.367 1_455 S
C1937 C1945 1.433 . S
C1938 H1934 0.929 . S
C1938 C1940 1.378 . S
C1938 C1942 1.350 . S
C1939 C1942 1.463 . S
C1939 C1944 1.350 . S
C1939 N1947 1.427 . S
C1940 H1931 0.930 . S
C1940 C1938 1.378 . S
C1940 C1941 1.367 . S
C1941 C1940 1.367 . S
C1941 C1943 1.433 . S
C1942 C1938 1.350 . S
C1942 C1939 1.463 . S
C1942 N1946 1.427 . S
C1943 H1933 0.929 . S
C1943 C1941 1.433 . S
C1943 N1946 1.384 . S
C1944 H1935 0.929 . S
C1944 C1936 1.378 . S
C1944 C1939 1.350 . S
C1945 H1932 0.929 . S
C1945 C1937 1.433 . S
C1945 N1947 1.384 1_455 S
N1946 C1942 1.427 . S
N1946 C1943 1.384 . S
N1947 C1939 1.427 . S
N1947 C1945 1.384 1_655 S
H1948 C1954 0.930 . S
H1949 C1958 0.930 . S
H1950 C1963 0.929 . S
H1951 C1961 0.929 . S
H1952 C1956 0.929 . S
H1953 C1962 0.929 . S
C1954 H1948 0.930 . S
C1954 C1955 1.371 . S
C1954 C1962 1.378 . S
C1955 C1954 1.371 . S
C1955 C1963 1.420 1_655 S
C1956 H1952 0.929 . S
C1956 C1958 1.378 . S
C1956 C1960 1.350 . S
C1957 C1960 1.463 . S
C1957 C1962 1.350 1_455 S
C1957 N1965 1.427 . S
C1958 H1949 0.930 . S
C1958 C1956 1.378 . S
C1958 C1959 1.367 . S
C1959 C1958 1.367 . S
C1959 C1961 1.433 . S
C1960 C1956 1.350 . S
C1960 C1957 1.463 . S
C1960 N1964 1.427 . S
C1961 H1951 0.929 . S
C1961 C1959 1.433 . S
C1961 N1964 1.384 . S
C1962 H1953 0.929 . S
C1962 C1954 1.378 . S
C1962 C1957 1.350 1_655 S
C1963 H1950 0.929 . S
C1963 C1955 1.420 1_455 S
C1963 N1965 1.384 . S
N1964 C1960 1.427 . S
N1964 C1961 1.384 . S
N1965 C1957 1.427 . S
N1965 C1963 1.384 . S
H1966 C1972 0.930 . S
H1967 C1976 0.930 . S
H1968 C1981 0.929 . S
H1969 C1979 0.929 . S
H1970 C1974 0.929 . S
H1971 C1980 0.929 . S
C1972 H1966 0.930 . S
C1972 C1973 1.367 . S
C1972 C1980 1.378 . S
C1973 C1972 1.367 . S
C1973 C1981 1.433 . S
C1974 H1970 0.929 . S
C1974 C1976 1.378 . S
C1974 C1978 1.350 . S
C1975 C1978 1.463 . S
C1975 C1980 1.350 . S
C1975 N1983 1.427 . S
C1976 H1967 0.930 . S
C1976 C1974 1.378 . S
C1976 C1977 1.367 . S
C1977 C1976 1.367 . S
C1977 C1979 1.433 . S
C1978 C1974 1.350 . S
C1978 C1975 1.463 . S
C1978 N1982 1.427 . S
C1979 H1969 0.929 . S
C1979 C1977 1.433 . S
C1979 N1982 1.384 . S
C1980 H1971 0.929 . S
C1980 C1972 1.378 . S
C1980 C1975 1.350 . S
C1981 H1968 0.929 . S
C1981 C1973 1.433 . S
C1981 N1983 1.384 . S
N1982 C1978 1.427 . S
N1982 C1979 1.384 . S
N1983 C1975 1.427 . S
N1983 C1981 1.384 . S
H1984 C1990 0.930 . S
H1985 C1994 0.930 . S
H1986 C1999 0.929 . S
H1987 C1997 0.929 . S
H1988 C1992 0.929 . S
H1989 C1998 0.929 . S
C1990 H1984 0.930 . S
C1990 C1991 1.367 . S
C1990 C1998 1.378 . S
C1991 C1990 1.367 . S
C1991 C1999 1.433 . S
C1992 H1988 0.929 . S
C1992 C1994 1.378 . S
C1992 C1996 1.350 . S
C1993 C1996 1.463 . S
C1993 C1998 1.350 . S
C1993 N2001 1.427 . S
C1994 H1985 0.930 . S
C1994 C1992 1.378 . S
C1994 C1995 1.367 . S
C1995 C1994 1.367 . S
C1995 C1997 1.433 . S
C1996 C1992 1.350 . S
C1996 C1993 1.463 . S
C1996 N2000 1.427 . S
C1997 H1987 0.929 . S
C1997 C1995 1.433 . S
C1997 N2000 1.384 . S
C1998 H1989 0.929 . S
C1998 C1990 1.378 . S
C1998 C1993 1.350 . S
C1999 H1986 0.929 . S
C1999 C1991 1.433 . S
C1999 N2001 1.384 . S
N2000 C1996 1.427 . S
N2000 C1997 1.384 . S
N2001 C1993 1.427 . S
N2001 C1999 1.384 . S
H2002 C2008 0.930 . S
H2003 C2012 0.930 . S
H2004 C2017 0.929 . S
H2005 C2015 0.929 . S
H2006 C2010 0.929 . S
H2007 C2016 0.929 . S
C2008 H2002 0.930 . S
C2008 C2009 1.367 . S
C2008 C2016 1.378 . S
C2009 C2008 1.367 . S
C2009 C2017 1.433 . S
C2010 H2006 0.929 . S
C2010 C2012 1.378 . S
C2010 C2014 1.350 . S
C2011 C2014 1.463 1_554 S
C2011 C2016 1.350 . S
C2011 N2019 1.427 . S
C2012 H2003 0.930 . S
C2012 C2010 1.378 . S
C2012 C2013 1.367 . S
C2013 C2012 1.367 . S
C2013 C2015 1.433 . S
C2014 C2010 1.350 . S
C2014 C2011 1.463 1_556 S
C2014 N2018 1.427 . S
C2015 H2005 0.929 . S
C2015 C2013 1.433 . S
C2015 N2018 1.384 . S
C2016 H2007 0.929 . S
C2016 C2008 1.378 . S
C2016 C2011 1.350 . S
C2017 H2004 0.929 . S
C2017 C2009 1.433 . S
C2017 N2019 1.384 . S
N2018 C2014 1.427 . S
N2018 C2015 1.384 . S
N2019 C2011 1.427 . S
N2019 C2017 1.384 . S
H2020 C2026 0.930 . S
H2021 C2030 0.930 . S
H2022 C2035 0.929 . S
H2023 C2033 0.929 . S
H2024 C2028 0.929 . S
H2025 C2034 0.929 . S
C2026 H2020 0.930 . S
C2026 C2027 1.367 . S
C2026 C2034 1.378 . S
C2027 C2026 1.367 . S
C2027 C2035 1.433 . S
C2028 H2024 0.929 . S
C2028 C2030 1.378 . S
C2028 C2032 1.350 . S
C2029 C2032 1.463 . S
C2029 C2034 1.350 . S
C2029 N2037 1.427 . S
C2030 H2021 0.930 . S
C2030 C2028 1.378 . S
C2030 C2031 1.367 . S
C2031 C2030 1.367 . S
C2031 C2033 1.433 . S
C2032 C2028 1.350 . S
C2032 C2029 1.463 . S
C2032 N2036 1.427 . S
C2033 H2023 0.929 . S
C2033 C2031 1.433 . S
C2033 N2036 1.384 . S
C2034 H2025 0.929 . S
C2034 C2026 1.378 . S
C2034 C2029 1.350 . S
C2035 H2022 0.929 . S
C2035 C2027 1.433 . S
C2035 N2037 1.384 . S
N2036 C2032 1.427 . S
N2036 C2033 1.384 . S
N2037 C2029 1.427 . S
N2037 C2035 1.384 . S
H2038 C2044 0.930 . S
H2039 C2048 0.930 . S
H2040 C2053 0.929 . S
H2041 C2051 0.929 . S
H2042 C2046 0.929 . S
H2043 C2052 0.929 . S
C2044 H2038 0.930 . S
C2044 C2045 1.367 . S
C2044 C2052 1.378 . S
C2045 C2044 1.367 . S
C2045 C2053 1.433 . S
C2046 H2042 0.929 . S
C2046 C2048 1.378 . S
C2046 C2050 1.350 . S
C2047 C2050 1.463 . S
C2047 C2052 1.350 . S
C2047 N2055 1.427 . S
C2048 H2039 0.930 . S
C2048 C2046 1.378 . S
C2048 C2049 1.367 . S
C2049 C2048 1.367 . S
C2049 C2051 1.433 . S
C2050 C2046 1.350 . S
C2050 C2047 1.463 . S
C2050 N2054 1.427 . S
C2051 H2041 0.929 . S
C2051 C2049 1.433 . S
C2051 N2054 1.384 . S
C2052 H2043 0.929 . S
C2052 C2044 1.378 . S
C2052 C2047 1.350 . S
C2053 H2040 0.929 . S
C2053 C2045 1.433 . S
C2053 N2055 1.384 . S
N2054 C2050 1.427 . S
N2054 C2051 1.384 . S
N2055 C2047 1.427 . S
N2055 C2053 1.384 . S
H2056 C2062 0.930 . S
H2057 C2066 0.930 . S
H2058 C2071 0.929 . S
H2059 C2069 0.929 . S
H2060 C2064 0.929 . S
H2061 C2070 0.929 . S
C2062 H2056 0.930 . S
C2062 C2063 1.367 . S
C2062 C2070 1.378 . S
C2063 C2062 1.367 . S
C2063 C2071 1.433 . S
C2064 H2060 0.929 . S
C2064 C2066 1.378 . S
C2064 C2068 1.350 . S
C2065 C2068 1.463 . S
C2065 C2070 1.350 . S
C2065 N2073 1.427 . S
C2066 H2057 0.930 . S
C2066 C2064 1.378 . S
C2066 C2067 1.367 . S
C2067 C2066 1.367 . S
C2067 C2069 1.433 . S
C2068 C2064 1.350 . S
C2068 C2065 1.463 . S
C2068 N2072 1.427 . S
C2069 H2059 0.929 . S
C2069 C2067 1.433 . S
C2069 N2072 1.384 . S
C2070 H2061 0.929 . S
C2070 C2062 1.378 . S
C2070 C2065 1.350 . S
C2071 H2058 0.929 . S
C2071 C2063 1.433 . S
C2071 N2073 1.384 . S
N2072 C2068 1.427 . S
N2072 C2069 1.384 . S
N2073 C2065 1.427 . S
N2073 C2071 1.384 . S
H2074 C2080 0.930 . S
H2075 C2084 0.930 . S
H2076 C2089 0.929 . S
H2077 C2087 0.929 . S
H2078 C2082 0.929 . S
H2079 C2088 0.929 . S
C2080 H2074 0.930 . S
C2080 C2081 1.367 . S
C2080 C2088 1.378 . S
C2081 C2080 1.367 . S
C2081 C2089 1.433 . S
C2082 H2078 0.929 . S
C2082 C2084 1.378 . S
C2082 C2086 1.350 . S
C2083 C2086 1.463 . S
C2083 C2088 1.350 . S
C2083 N2091 1.427 . S
C2084 H2075 0.930 . S
C2084 C2082 1.378 . S
C2084 C2085 1.367 . S
C2085 C2084 1.367 . S
C2085 C2087 1.433 . S
C2086 C2082 1.350 . S
C2086 C2083 1.463 . S
C2086 N2090 1.427 . S
C2087 H2077 0.929 . S
C2087 C2085 1.433 . S
C2087 N2090 1.384 . S
C2088 H2079 0.929 . S
C2088 C2080 1.378 . S
C2088 C2083 1.350 . S
C2089 H2076 0.929 . S
C2089 C2081 1.433 . S
C2089 N2091 1.384 . S
N2090 C2086 1.427 . S
N2090 C2087 1.384 . S
N2091 C2083 1.427 . S
N2091 C2089 1.384 . S
H2092 C2098 0.930 . S
H2093 C2102 0.930 . S
H2094 C2107 0.929 . S
H2095 C2105 0.929 . S
H2096 C2100 0.929 . S
H2097 C2106 0.929 . S
C2098 H2092 0.930 . S
C2098 C2099 1.367 . S
C2098 C2106 1.378 . S
C2099 C2098 1.367 . S
C2099 C2107 1.433 . S
C2100 H2096 0.929 . S
C2100 C2102 1.378 . S
C2100 C2104 1.350 . S
C2101 C2104 1.463 . S
C2101 C2106 1.350 . S
C2101 N2109 1.427 . S
C2102 H2093 0.930 . S
C2102 C2100 1.378 . S
C2102 C2103 1.367 . S
C2103 C2102 1.367 . S
C2103 C2105 1.433 . S
C2104 C2100 1.350 . S
C2104 C2101 1.463 . S
C2104 N2108 1.427 . S
C2105 H2095 0.929 . S
C2105 C2103 1.433 . S
C2105 N2108 1.384 . S
C2106 H2097 0.929 . S
C2106 C2098 1.378 . S
C2106 C2101 1.350 . S
C2107 H2094 0.929 . S
C2107 C2099 1.433 . S
C2107 N2109 1.384 . S
N2108 C2104 1.427 . S
N2108 C2105 1.384 . S
N2109 C2101 1.427 . S
N2109 C2107 1.384 . S
H2110 C2116 0.930 . S
H2111 C2120 0.930 . S
H2112 C2125 0.929 . S
H2113 C2123 0.929 . S
H2114 C2118 0.929 . S
H2115 C2124 0.929 . S
C2116 H2110 0.930 . S
C2116 C2117 1.367 . S
C2116 C2124 1.378 . S
C2117 C2116 1.367 . S
C2117 C2125 1.433 . S
C2118 H2114 0.929 . S
C2118 C2120 1.378 . S
C2118 C2122 1.350 . S
C2119 C2122 1.463 . S
C2119 C2124 1.350 . S
C2119 N2127 1.427 . S
C2120 H2111 0.930 . S
C2120 C2118 1.378 . S
C2120 C2121 1.367 . S
C2121 C2120 1.367 . S
C2121 C2123 1.433 . S
C2122 C2118 1.350 . S
C2122 C2119 1.463 . S
C2122 N2126 1.427 . S
C2123 H2113 0.929 . S
C2123 C2121 1.433 . S
C2123 N2126 1.384 . S
C2124 H2115 0.929 . S
C2124 C2116 1.378 . S
C2124 C2119 1.350 . S
C2125 H2112 0.929 . S
C2125 C2117 1.433 . S
C2125 N2127 1.384 . S
N2126 C2122 1.427 . S
N2126 C2123 1.384 . S
N2127 C2119 1.427 . S
N2127 C2125 1.384 . S
H2128 C2134 0.930 . S
H2129 C2138 0.930 . S
H2130 C2143 0.929 . S
H2131 C2141 0.929 . S
H2132 C2136 0.929 . S
H2133 C2142 0.929 . S
C2134 H2128 0.930 . S
C2134 C2135 1.367 . S
C2134 C2142 1.378 . S
C2135 C2134 1.367 . S
C2135 C2143 1.433 . S
C2136 H2132 0.929 . S
C2136 C2138 1.378 . S
C2136 C2140 1.350 . S
C2137 C2140 1.463 . S
C2137 C2142 1.350 . S
C2137 N2145 1.427 . S
C2138 H2129 0.930 . S
C2138 C2136 1.378 . S
C2138 C2139 1.367 . S
C2139 C2138 1.367 . S
C2139 C2141 1.433 . S
C2140 C2136 1.350 . S
C2140 C2137 1.463 . S
C2140 N2144 1.427 . S
C2141 H2131 0.929 . S
C2141 C2139 1.433 . S
C2141 N2144 1.384 . S
C2142 H2133 0.929 . S
C2142 C2134 1.378 . S
C2142 C2137 1.350 . S
C2143 H2130 0.929 . S
C2143 C2135 1.433 . S
C2143 N2145 1.384 . S
N2144 C2140 1.427 . S
N2144 C2141 1.384 . S
N2145 C2137 1.427 . S
N2145 C2143 1.384 . S
H2146 C2152 0.930 . S
H2147 C2156 0.930 . S
H2148 C2161 0.929 . S
H2149 C2159 0.929 . S
H2150 C2154 0.929 . S
H2151 C2160 0.929 . S
C2152 H2146 0.930 . S
C2152 C2153 1.367 . S
C2152 C2160 1.378 . S
C2153 C2152 1.367 . S
C2153 C2161 1.433 . S
C2154 H2150 0.929 . S
C2154 C2156 1.378 . S
C2154 C2158 1.350 . S
C2155 C2158 1.463 . S
C2155 C2160 1.350 . S
C2155 N2163 1.427 . S
C2156 H2147 0.930 . S
C2156 C2154 1.378 . S
C2156 C2157 1.367 . S
C2157 C2156 1.367 . S
C2157 C2159 1.433 . S
C2158 C2154 1.350 . S
C2158 C2155 1.463 . S
C2158 N2162 1.427 . S
C2159 H2149 0.929 . S
C2159 C2157 1.433 . S
C2159 N2162 1.384 . S
C2160 H2151 0.929 . S
C2160 C2152 1.378 . S
C2160 C2155 1.350 . S
C2161 H2148 0.929 . S
C2161 C2153 1.433 . S
C2161 N2163 1.384 . S
N2162 C2158 1.427 . S
N2162 C2159 1.384 . S
N2163 C2155 1.427 . S
N2163 C2161 1.384 . S
H2164 C2170 0.930 . S
H2165 C2174 0.930 . S
H2166 C2179 0.929 . S
H2167 C2177 0.929 . S
H2168 C2172 0.929 . S
H2169 C2178 0.929 . S
C2170 H2164 0.930 . S
C2170 C2171 1.367 . S
C2170 C2178 1.378 . S
C2171 C2170 1.367 . S
C2171 C2179 1.433 . S
C2172 H2168 0.929 . S
C2172 C2174 1.378 . S
C2172 C2176 1.350 . S
C2173 C2176 1.463 . S
C2173 C2178 1.350 . S
C2173 N2181 1.427 . S
C2174 H2165 0.930 . S
C2174 C2172 1.378 . S
C2174 C2175 1.367 . S
C2175 C2174 1.367 . S
C2175 C2177 1.433 . S
C2176 C2172 1.350 . S
C2176 C2173 1.463 . S
C2176 N2180 1.427 . S
C2177 H2167 0.929 . S
C2177 C2175 1.433 . S
C2177 N2180 1.384 . S
C2178 H2169 0.929 . S
C2178 C2170 1.378 . S
C2178 C2173 1.350 . S
C2179 H2166 0.929 . S
C2179 C2171 1.433 . S
C2179 N2181 1.384 . S
N2180 C2176 1.427 . S
N2180 C2177 1.384 . S
N2181 C2173 1.427 . S
N2181 C2179 1.384 . S
H2182 C2188 0.933 . S
H2183 C2192 0.930 . S
H2184 C2197 0.929 . S
H2185 C2195 0.929 . S
H2186 C2190 0.929 . S
H2187 C2196 0.929 . S
C2188 H2182 0.933 . S
C2188 C2189 1.364 1_556 S
C2188 C2196 1.379 1_556 S
C2189 C2188 1.364 1_554 S
C2189 C2197 1.433 . S
C2190 H2186 0.929 . S
C2190 C2192 1.378 . S
C2190 C2194 1.350 . S
C2191 C2194 1.463 . S
C2191 C2196 1.350 . S
C2191 N2199 1.427 . S
C2192 H2183 0.930 . S
C2192 C2190 1.378 . S
C2192 C2193 1.367 . S
C2193 C2192 1.367 . S
C2193 C2195 1.433 . S
C2194 C2190 1.350 . S
C2194 C2191 1.463 . S
C2194 N2198 1.427 . S
C2195 H2185 0.929 . S
C2195 C2193 1.433 . S
C2195 N2198 1.384 . S
C2196 H2187 0.929 . S
C2196 C2188 1.379 1_554 S
C2196 C2191 1.350 . S
C2197 H2184 0.929 . S
C2197 C2189 1.433 . S
C2197 N2199 1.384 . S
N2198 C2194 1.427 . S
N2198 C2195 1.384 . S
N2199 C2191 1.427 . S
N2199 C2197 1.384 . S
H2200 C2206 0.930 . S
H2201 C2210 0.930 . S
H2202 C2215 0.929 . S
H2203 C2213 0.929 . S
H2204 C2208 0.929 . S
H2205 C2214 0.929 . S
C2206 H2200 0.930 . S
C2206 C2207 1.367 . S
C2206 C2214 1.378 . S
C2207 C2206 1.367 . S
C2207 C2215 1.433 . S
C2208 H2204 0.929 . S
C2208 C2210 1.378 . S
C2208 C2212 1.350 . S
C2209 C2212 1.463 . S
C2209 C2214 1.350 . S
C2209 N2217 1.427 . S
C2210 H2201 0.930 . S
C2210 C2208 1.378 . S
C2210 C2211 1.367 . S
C2211 C2210 1.367 . S
C2211 C2213 1.433 . S
C2212 C2208 1.350 . S
C2212 C2209 1.463 . S
C2212 N2216 1.427 . S
C2213 H2203 0.929 . S
C2213 C2211 1.433 . S
C2213 N2216 1.384 . S
C2214 H2205 0.929 . S
C2214 C2206 1.378 . S
C2214 C2209 1.350 . S
C2215 H2202 0.929 . S
C2215 C2207 1.433 . S
C2215 N2217 1.384 . S
N2216 C2212 1.427 . S
N2216 C2213 1.384 . S
N2217 C2209 1.427 . S
N2217 C2215 1.384 . S
H2218 C2224 0.930 . S
H2219 C2228 0.930 . S
H2220 C2233 0.929 . S
H2221 C2231 0.929 . S
H2222 C2226 0.929 . S
H2223 C2232 0.929 . S
C2224 H2218 0.930 . S
C2224 C2225 1.367 . S
C2224 C2232 1.378 . S
C2225 C2224 1.367 . S
C2225 C2233 1.433 . S
C2226 H2222 0.929 . S
C2226 C2228 1.378 . S
C2226 C2230 1.350 . S
C2227 C2230 1.463 . S
C2227 C2232 1.350 . S
C2227 N2235 1.427 . S
C2228 H2219 0.930 . S
C2228 C2226 1.378 . S
C2228 C2229 1.367 . S
C2229 C2228 1.367 . S
C2229 C2231 1.433 . S
C2230 C2226 1.350 . S
C2230 C2227 1.463 . S
C2230 N2234 1.427 . S
C2231 H2221 0.929 . S
C2231 C2229 1.433 . S
C2231 N2234 1.384 . S
C2232 H2223 0.929 . S
C2232 C2224 1.378 . S
C2232 C2227 1.350 . S
C2233 H2220 0.929 . S
C2233 C2225 1.433 . S
C2233 N2235 1.384 . S
N2234 C2230 1.427 . S
N2234 C2231 1.384 . S
N2235 C2227 1.427 . S
N2235 C2233 1.384 . S
H2236 C2242 0.930 . S
H2237 C2246 0.930 . S
H2238 C2251 0.929 . S
H2239 C2249 0.929 . S
H2240 C2244 0.929 . S
H2241 C2250 0.929 . S
C2242 H2236 0.930 . S
C2242 C2243 1.367 . S
C2242 C2250 1.378 . S
C2243 C2242 1.367 . S
C2243 C2251 1.433 . S
C2244 H2240 0.929 . S
C2244 C2246 1.378 . S
C2244 C2248 1.350 . S
C2245 C2248 1.463 . S
C2245 C2250 1.350 . S
C2245 N2253 1.427 . S
C2246 H2237 0.930 . S
C2246 C2244 1.378 . S
C2246 C2247 1.367 . S
C2247 C2246 1.367 . S
C2247 C2249 1.433 . S
C2248 C2244 1.350 . S
C2248 C2245 1.463 . S
C2248 N2252 1.427 . S
C2249 H2239 0.929 . S
C2249 C2247 1.433 . S
C2249 N2252 1.384 . S
C2250 H2241 0.929 . S
C2250 C2242 1.378 . S
C2250 C2245 1.350 . S
C2251 H2238 0.929 . S
C2251 C2243 1.433 . S
C2251 N2253 1.384 . S
N2252 C2248 1.427 . S
N2252 C2249 1.384 . S
N2253 C2245 1.427 . S
N2253 C2251 1.384 . S
H2254 C2260 0.930 . S
H2255 C2264 0.930 . S
H2256 C2269 0.929 . S
H2257 C2267 0.929 . S
H2258 C2262 0.929 . S
H2259 C2268 0.929 . S
C2260 H2254 0.930 . S
C2260 C2261 1.367 . S
C2260 C2268 1.378 . S
C2261 C2260 1.367 . S
C2261 C2269 1.433 . S
C2262 H2258 0.929 . S
C2262 C2264 1.378 . S
C2262 C2266 1.350 . S
C2263 C2266 1.463 . S
C2263 C2268 1.350 . S
C2263 N2271 1.427 . S
C2264 H2255 0.930 . S
C2264 C2262 1.378 . S
C2264 C2265 1.367 . S
C2265 C2264 1.367 . S
C2265 C2267 1.433 . S
C2266 C2262 1.350 . S
C2266 C2263 1.463 . S
C2266 N2270 1.427 . S
C2267 H2257 0.929 . S
C2267 C2265 1.433 . S
C2267 N2270 1.384 . S
C2268 H2259 0.929 . S
C2268 C2260 1.378 . S
C2268 C2263 1.350 . S
C2269 H2256 0.929 . S
C2269 C2261 1.433 . S
C2269 N2271 1.384 . S
N2270 C2266 1.427 . S
N2270 C2267 1.384 . S
N2271 C2263 1.427 . S
N2271 C2269 1.384 . S
H2272 C2278 0.930 . S
H2273 C2282 0.930 . S
H2274 C2287 0.929 . S
H2275 C2285 0.929 . S
H2276 C2280 0.929 . S
H2277 C2286 0.929 . S
C2278 H2272 0.930 . S
C2278 C2279 1.367 . S
C2278 C2286 1.378 . S
C2279 C2278 1.367 . S
C2279 C2287 1.433 . S
C2280 H2276 0.929 . S
C2280 C2282 1.378 . S
C2280 C2284 1.350 . S
C2281 C2284 1.463 . S
C2281 C2286 1.350 . S
C2281 N2289 1.427 . S
C2282 H2273 0.930 . S
C2282 C2280 1.378 . S
C2282 C2283 1.367 . S
C2283 C2282 1.367 . S
C2283 C2285 1.433 . S
C2284 C2280 1.350 . S
C2284 C2281 1.463 . S
C2284 N2288 1.427 . S
C2285 H2275 0.929 . S
C2285 C2283 1.433 . S
C2285 N2288 1.384 . S
C2286 H2277 0.929 . S
C2286 C2278 1.378 . S
C2286 C2281 1.350 . S
C2287 H2274 0.929 . S
C2287 C2279 1.433 . S
C2287 N2289 1.384 . S
N2288 C2284 1.427 . S
N2288 C2285 1.384 . S
N2289 C2281 1.427 . S
N2289 C2287 1.384 . S
H2290 C2296 0.930 . S
H2291 C2300 0.930 . S
H2292 C2305 0.929 . S
H2293 C2303 0.929 . S
H2294 C2298 0.929 . S
H2295 C2304 0.929 . S
C2296 H2290 0.930 . S
C2296 C2297 1.367 . S
C2296 C2304 1.378 . S
C2297 C2296 1.367 . S
C2297 C2305 1.433 . S
C2298 H2294 0.929 . S
C2298 C2300 1.378 . S
C2298 C2302 1.350 . S
C2299 C2302 1.463 . S
C2299 C2304 1.350 . S
C2299 N2307 1.427 . S
C2300 H2291 0.930 . S
C2300 C2298 1.378 . S
C2300 C2301 1.367 . S
C2301 C2300 1.367 . S
C2301 C2303 1.433 . S
C2302 C2298 1.350 . S
C2302 C2299 1.463 . S
C2302 N2306 1.427 . S
C2303 H2293 0.929 . S
C2303 C2301 1.433 . S
C2303 N2306 1.384 . S
C2304 H2295 0.929 . S
C2304 C2296 1.378 . S
C2304 C2299 1.350 . S
C2305 H2292 0.929 . S
C2305 C2297 1.433 . S
C2305 N2307 1.384 . S
N2306 C2302 1.427 . S
N2306 C2303 1.384 . S
N2307 C2299 1.427 . S
N2307 C2305 1.384 . S
H2308 C2314 0.930 . S
H2309 C2318 0.930 . S
H2310 C2323 0.929 . S
H2311 C2321 0.929 . S
H2312 C2316 0.929 . S
H2313 C2322 0.929 . S
C2314 H2308 0.930 . S
C2314 C2315 1.367 . S
C2314 C2322 1.378 . S
C2315 C2314 1.367 . S
C2315 C2323 1.433 . S
C2316 H2312 0.929 . S
C2316 C2318 1.378 . S
C2316 C2320 1.350 . S
C2317 C2320 1.463 . S
C2317 C2322 1.350 . S
C2317 N2325 1.427 . S
C2318 H2309 0.930 . S
C2318 C2316 1.378 . S
C2318 C2319 1.367 . S
C2319 C2318 1.367 . S
C2319 C2321 1.433 . S
C2320 C2316 1.350 . S
C2320 C2317 1.463 . S
C2320 N2324 1.427 . S
C2321 H2311 0.929 . S
C2321 C2319 1.433 . S
C2321 N2324 1.384 . S
C2322 H2313 0.929 . S
C2322 C2314 1.378 . S
C2322 C2317 1.350 . S
C2323 H2310 0.929 . S
C2323 C2315 1.433 . S
C2323 N2325 1.384 . S
N2324 C2320 1.427 . S
N2324 C2321 1.384 . S
N2325 C2317 1.427 . S
N2325 C2323 1.384 . S
H2326 C2332 0.930 . S
H2327 C2336 0.930 . S
H2328 C2341 0.929 . S
H2329 C2339 0.929 . S
H2330 C2334 0.929 . S
H2331 C2340 0.929 . S
C2332 H2326 0.930 . S
C2332 C2333 1.367 . S
C2332 C2340 1.378 . S
C2333 C2332 1.367 . S
C2333 C2341 1.433 . S
C2334 H2330 0.929 . S
C2334 C2336 1.378 . S
C2334 C2338 1.350 . S
C2335 C2338 1.463 . S
C2335 C2340 1.350 . S
C2335 N2343 1.427 . S
C2336 H2327 0.930 . S
C2336 C2334 1.378 . S
C2336 C2337 1.367 . S
C2337 C2336 1.367 . S
C2337 C2339 1.433 . S
C2338 C2334 1.350 . S
C2338 C2335 1.463 . S
C2338 N2342 1.427 . S
C2339 H2329 0.929 . S
C2339 C2337 1.433 . S
C2339 N2342 1.384 . S
C2340 H2331 0.929 . S
C2340 C2332 1.378 . S
C2340 C2335 1.350 . S
C2341 H2328 0.929 . S
C2341 C2333 1.433 . S
C2341 N2343 1.384 . S
N2342 C2338 1.427 . S
N2342 C2339 1.384 . S
N2343 C2335 1.427 . S
N2343 C2341 1.384 . S
H2344 C2350 0.930 . S
H2345 C2354 0.930 . S
H2346 C2359 0.929 . S
H2347 C2357 0.929 . S
H2348 C2352 0.929 . S
H2349 C2358 0.929 . S
C2350 H2344 0.930 . S
C2350 C2351 1.367 1_554 S
C2350 C2358 1.378 . S
C2351 C2350 1.367 1_556 S
C2351 C2359 1.433 . S
C2352 H2348 0.929 . S
C2352 C2354 1.378 . S
C2352 C2356 1.350 1_556 S
C2353 C2356 1.462 . S
C2353 C2358 1.349 . S
C2353 N2361 1.430 1_554 S
C2354 H2345 0.930 . S
C2354 C2352 1.378 . S
C2354 C2355 1.367 1_556 S
C2355 C2354 1.367 1_554 S
C2355 C2357 1.433 . S
C2356 C2352 1.350 1_554 S
C2356 C2353 1.462 . S
C2356 N2360 1.427 . S
C2357 H2347 0.929 . S
C2357 C2355 1.433 . S
C2357 N2360 1.384 . S
C2358 H2349 0.929 . S
C2358 C2350 1.378 . S
C2358 C2353 1.349 . S
C2359 H2346 0.929 . S
C2359 C2351 1.433 . S
C2359 N2361 1.384 . S
N2360 C2356 1.427 . S
N2360 C2357 1.384 . S
N2361 C2353 1.430 1_556 S
N2361 C2359 1.384 . S
H2362 C2368 0.930 . S
H2363 C2372 0.930 . S
H2364 C2377 0.929 . S
H2365 C2375 0.929 . S
H2366 C2370 0.929 . S
H2367 C2376 0.929 . S
C2368 H2362 0.930 . S
C2368 C2369 1.367 . S
C2368 C2376 1.378 . S
C2369 C2368 1.367 . S
C2369 C2377 1.433 . S
C2370 H2366 0.929 . S
C2370 C2372 1.378 . S
C2370 C2374 1.350 . S
C2371 C2374 1.463 . S
C2371 C2376 1.350 . S
C2371 N2379 1.427 . S
C2372 H2363 0.930 . S
C2372 C2370 1.378 . S
C2372 C2373 1.367 . S
C2373 C2372 1.367 . S
C2373 C2375 1.433 . S
C2374 C2370 1.350 . S
C2374 C2371 1.463 . S
C2374 N2378 1.427 . S
C2375 H2365 0.929 . S
C2375 C2373 1.433 . S
C2375 N2378 1.384 . S
C2376 H2367 0.929 . S
C2376 C2368 1.378 . S
C2376 C2371 1.350 . S
C2377 H2364 0.929 . S
C2377 C2369 1.433 . S
C2377 N2379 1.384 . S
N2378 C2374 1.427 . S
N2378 C2375 1.384 . S
N2379 C2371 1.427 . S
N2379 C2377 1.384 . S
H2380 C2386 0.930 . S
H2381 C2390 0.930 . S
H2382 C2395 0.929 . S
H2383 C2393 0.929 . S
H2384 C2388 0.929 . S
H2385 C2394 0.929 . S
C2386 H2380 0.930 . S
C2386 C2387 1.367 . S
C2386 C2394 1.378 . S
C2387 C2386 1.367 . S
C2387 C2395 1.433 . S
C2388 H2384 0.929 . S
C2388 C2390 1.378 . S
C2388 C2392 1.350 . S
C2389 C2392 1.463 . S
C2389 C2394 1.350 . S
C2389 N2397 1.427 . S
C2390 H2381 0.930 . S
C2390 C2388 1.378 . S
C2390 C2391 1.367 . S
C2391 C2390 1.367 . S
C2391 C2393 1.433 . S
C2392 C2388 1.350 . S
C2392 C2389 1.463 . S
C2392 N2396 1.427 . S
C2393 H2383 0.929 . S
C2393 C2391 1.433 . S
C2393 N2396 1.384 . S
C2394 H2385 0.929 . S
C2394 C2386 1.378 . S
C2394 C2389 1.350 . S
C2395 H2382 0.929 . S
C2395 C2387 1.433 . S
C2395 N2397 1.384 . S
N2396 C2392 1.427 . S
N2396 C2393 1.384 . S
N2397 C2389 1.427 . S
N2397 C2395 1.384 . S
H2398 C2404 0.930 . S
H2399 C2408 0.930 . S
H2400 C2413 0.929 . S
H2401 C2411 0.929 . S
H2402 C2406 0.929 . S
H2403 C2412 0.929 . S
C2404 H2398 0.930 . S
C2404 C2405 1.367 . S
C2404 C2412 1.378 . S
C2405 C2404 1.367 . S
C2405 C2413 1.433 . S
C2406 H2402 0.929 . S
C2406 C2408 1.378 . S
C2406 C2410 1.350 . S
C2407 C2410 1.463 . S
C2407 C2412 1.350 . S
C2407 N2415 1.427 . S
C2408 H2399 0.930 . S
C2408 C2406 1.378 . S
C2408 C2409 1.367 . S
C2409 C2408 1.367 . S
C2409 C2411 1.433 . S
C2410 C2406 1.350 . S
C2410 C2407 1.463 . S
C2410 N2414 1.427 . S
C2411 H2401 0.929 . S
C2411 C2409 1.433 . S
C2411 N2414 1.384 . S
C2412 H2403 0.929 . S
C2412 C2404 1.378 . S
C2412 C2407 1.350 . S
C2413 H2400 0.929 . S
C2413 C2405 1.433 . S
C2413 N2415 1.384 . S
N2414 C2410 1.427 . S
N2414 C2411 1.384 . S
N2415 C2407 1.427 . S
N2415 C2413 1.384 . S
H2416 C2422 0.930 . S
H2417 C2426 0.930 . S
H2418 C2431 0.929 . S
H2419 C2429 0.929 . S
H2420 C2424 0.929 . S
H2421 C2430 0.929 . S
C2422 H2416 0.930 . S
C2422 C2423 1.367 . S
C2422 C2430 1.378 . S
C2423 C2422 1.367 . S
C2423 C2431 1.433 . S
C2424 H2420 0.929 . S
C2424 C2426 1.378 . S
C2424 C2428 1.350 . S
C2425 C2428 1.463 . S
C2425 C2430 1.350 . S
C2425 N2433 1.427 . S
C2426 H2417 0.930 . S
C2426 C2424 1.378 . S
C2426 C2427 1.367 . S
C2427 C2426 1.367 . S
C2427 C2429 1.433 . S
C2428 C2424 1.350 . S
C2428 C2425 1.463 . S
C2428 N2432 1.427 . S
C2429 H2419 0.929 . S
C2429 C2427 1.433 . S
C2429 N2432 1.384 . S
C2430 H2421 0.929 . S
C2430 C2422 1.378 . S
C2430 C2425 1.350 . S
C2431 H2418 0.929 . S
C2431 C2423 1.433 . S
C2431 N2433 1.384 . S
N2432 C2428 1.427 . S
N2432 C2429 1.384 . S
N2433 C2425 1.427 . S
N2433 C2431 1.384 . S
H2434 C2440 0.930 . S
H2435 C2444 0.930 . S
H2436 C2449 0.929 . S
H2437 C2447 0.929 . S
H2438 C2442 0.929 . S
H2439 C2448 0.929 . S
C2440 H2434 0.930 . S
C2440 C2441 1.367 . S
C2440 C2448 1.378 . S
C2441 C2440 1.367 . S
C2441 C2449 1.433 . S
C2442 H2438 0.929 . S
C2442 C2444 1.378 . S
C2442 C2446 1.350 . S
C2443 C2446 1.463 . S
C2443 C2448 1.350 . S
C2443 N2451 1.427 . S
C2444 H2435 0.930 . S
C2444 C2442 1.378 . S
C2444 C2445 1.367 . S
C2445 C2444 1.367 . S
C2445 C2447 1.433 . S
C2446 C2442 1.350 . S
C2446 C2443 1.463 . S
C2446 N2450 1.427 . S
C2447 H2437 0.929 . S
C2447 C2445 1.433 . S
C2447 N2450 1.384 . S
C2448 H2439 0.929 . S
C2448 C2440 1.378 . S
C2448 C2443 1.350 . S
C2449 H2436 0.929 . S
C2449 C2441 1.433 . S
C2449 N2451 1.384 . S
N2450 C2446 1.427 . S
N2450 C2447 1.384 . S
N2451 C2443 1.427 . S
N2451 C2449 1.384 . S
H2452 C2458 0.930 . S
H2453 C2462 0.930 . S
H2454 C2467 0.929 . S
H2455 C2465 0.938 . S
H2456 C2460 0.929 . S
H2457 C2466 0.929 . S
C2458 H2452 0.930 . S
C2458 C2459 1.367 . S
C2458 C2466 1.378 . S
C2459 C2458 1.367 . S
C2459 C2467 1.433 . S
C2460 H2456 0.929 . S
C2460 C2462 1.378 . S
C2460 C2464 1.350 . S
C2461 C2464 1.463 . S
C2461 C2466 1.350 . S
C2461 N2469 1.427 . S
C2462 H2453 0.930 . S
C2462 C2460 1.378 . S
C2462 C2463 1.367 . S
C2463 C2462 1.367 . S
C2463 C2465 1.429 1_655 S
C2464 C2460 1.350 . S
C2464 C2461 1.463 . S
C2464 N2468 1.427 . S
C2465 H2455 0.938 . S
C2465 C2463 1.429 1_455 S
C2465 N2468 1.379 1_455 S
C2466 H2457 0.929 . S
C2466 C2458 1.378 . S
C2466 C2461 1.350 . S
C2467 H2454 0.929 . S
C2467 C2459 1.433 . S
C2467 N2469 1.384 . S
N2468 C2464 1.427 . S
N2468 C2465 1.379 1_655 S
N2469 C2461 1.427 . S
N2469 C2467 1.384 . S
H2470 C2476 0.930 . S
H2471 C2480 0.930 . S
H2472 C2485 0.929 . S
H2473 C2483 0.929 . S
H2474 C2478 0.929 . S
H2475 C2484 0.929 . S
C2476 H2470 0.930 . S
C2476 C2477 1.367 . S
C2476 C2484 1.378 . S
C2477 C2476 1.367 . S
C2477 C2485 1.433 . S
C2478 H2474 0.929 . S
C2478 C2480 1.378 . S
C2478 C2482 1.350 . S
C2479 C2482 1.463 . S
C2479 C2484 1.350 . S
C2479 N2487 1.427 . S
C2480 H2471 0.930 . S
C2480 C2478 1.378 . S
C2480 C2481 1.367 . S
C2481 C2480 1.367 . S
C2481 C2483 1.433 . S
C2482 C2478 1.350 . S
C2482 C2479 1.463 . S
C2482 N2486 1.427 . S
C2483 H2473 0.929 . S
C2483 C2481 1.433 . S
C2483 N2486 1.384 . S
C2484 H2475 0.929 . S
C2484 C2476 1.378 . S
C2484 C2479 1.350 . S
C2485 H2472 0.929 . S
C2485 C2477 1.433 . S
C2485 N2487 1.384 . S
N2486 C2482 1.427 . S
N2486 C2483 1.384 . S
N2487 C2479 1.427 . S
N2487 C2485 1.384 . S
H2488 C2494 0.930 . S
H2489 C2498 0.930 . S
H2490 C2503 0.929 . S
H2491 C2501 0.929 . S
H2492 C2496 0.929 . S
H2493 C2502 0.929 . S
C2494 H2488 0.930 . S
C2494 C2495 1.367 . S
C2494 C2502 1.378 . S
C2495 C2494 1.367 . S
C2495 C2503 1.433 . S
C2496 H2492 0.929 . S
C2496 C2498 1.378 . S
C2496 C2500 1.350 . S
C2497 C2500 1.463 . S
C2497 C2502 1.350 . S
C2497 N2505 1.427 . S
C2498 H2489 0.930 . S
C2498 C2496 1.378 . S
C2498 C2499 1.367 . S
C2499 C2498 1.367 . S
C2499 C2501 1.433 . S
C2500 C2496 1.350 . S
C2500 C2497 1.463 . S
C2500 N2504 1.427 . S
C2501 H2491 0.929 . S
C2501 C2499 1.433 . S
C2501 N2504 1.384 . S
C2502 H2493 0.929 . S
C2502 C2494 1.378 . S
C2502 C2497 1.350 . S
C2503 H2490 0.929 . S
C2503 C2495 1.433 . S
C2503 N2505 1.384 . S
N2504 C2500 1.427 . S
N2504 C2501 1.384 . S
N2505 C2497 1.427 . S
N2505 C2503 1.384 . S
H2506 C2512 0.930 . S
H2507 C2516 0.930 . S
H2508 C2521 0.929 . S
H2509 C2519 0.929 . S
H2510 C2514 0.929 . S
H2511 C2520 0.929 . S
C2512 H2506 0.930 . S
C2512 C2513 1.367 . S
C2512 C2520 1.378 . S
C2513 C2512 1.367 . S
C2513 C2521 1.433 . S
C2514 H2510 0.929 . S
C2514 C2516 1.378 . S
C2514 C2518 1.350 . S
C2515 C2518 1.463 . S
C2515 C2520 1.350 . S
C2515 N2523 1.427 . S
C2516 H2507 0.930 . S
C2516 C2514 1.378 . S
C2516 C2517 1.367 . S
C2517 C2516 1.367 . S
C2517 C2519 1.433 . S
C2518 C2514 1.350 . S
C2518 C2515 1.463 . S
C2518 N2522 1.427 . S
C2519 H2509 0.929 . S
C2519 C2517 1.433 . S
C2519 N2522 1.384 . S
C2520 H2511 0.929 . S
C2520 C2512 1.378 . S
C2520 C2515 1.350 . S
C2521 H2508 0.929 . S
C2521 C2513 1.433 . S
C2521 N2523 1.384 . S
N2522 C2518 1.427 . S
N2522 C2519 1.384 . S
N2523 C2515 1.427 . S
N2523 C2521 1.384 . S
H2524 C2530 0.930 . S
H2525 C2534 0.930 . S
H2526 C2539 0.929 . S
H2527 C2537 0.929 . S
H2528 C2532 0.929 . S
H2529 C2538 0.929 . S
C2530 H2524 0.930 . S
C2530 C2531 1.367 . S
C2530 C2538 1.378 . S
C2531 C2530 1.367 . S
C2531 C2539 1.433 . S
C2532 H2528 0.929 . S
C2532 C2534 1.378 1_655 S
C2532 C2536 1.350 . S
C2533 C2536 1.463 . S
C2533 C2538 1.350 . S
C2533 N2541 1.427 . S
C2534 H2525 0.930 . S
C2534 C2532 1.378 1_455 S
C2534 C2535 1.367 1_455 S
C2535 C2534 1.367 1_655 S
C2535 C2537 1.433 . S
C2536 C2532 1.350 . S
C2536 C2533 1.463 . S
C2536 N2540 1.427 . S
C2537 H2527 0.929 . S
C2537 C2535 1.433 . S
C2537 N2540 1.384 . S
C2538 H2529 0.929 . S
C2538 C2530 1.378 . S
C2538 C2533 1.350 . S
C2539 H2526 0.929 . S
C2539 C2531 1.433 . S
C2539 N2541 1.384 . S
N2540 C2536 1.427 . S
N2540 C2537 1.384 . S
N2541 C2533 1.427 . S
N2541 C2539 1.384 . S
H2542 C2548 0.930 . S
H2543 C2552 0.930 . S
H2544 C2557 0.929 . S
H2545 C2555 0.929 . S
H2546 C2550 0.929 . S
H2547 C2556 0.929 . S
C2548 H2542 0.930 . S
C2548 C2549 1.367 . S
C2548 C2556 1.378 . S
C2549 C2548 1.367 . S
C2549 C2557 1.433 . S
C2550 H2546 0.929 . S
C2550 C2552 1.378 . S
C2550 C2554 1.350 . S
C2551 C2554 1.463 . S
C2551 C2556 1.350 . S
C2551 N2559 1.427 . S
C2552 H2543 0.930 . S
C2552 C2550 1.378 . S
C2552 C2553 1.367 . S
C2553 C2552 1.367 . S
C2553 C2555 1.433 . S
C2554 C2550 1.350 . S
C2554 C2551 1.463 . S
C2554 N2558 1.427 . S
C2555 H2545 0.929 . S
C2555 C2553 1.433 . S
C2555 N2558 1.384 . S
C2556 H2547 0.929 . S
C2556 C2548 1.378 . S
C2556 C2551 1.350 . S
C2557 H2544 0.929 . S
C2557 C2549 1.433 . S
C2557 N2559 1.384 . S
N2558 C2554 1.427 . S
N2558 C2555 1.384 . S
N2559 C2551 1.427 . S
N2559 C2557 1.384 . S
H2560 C2566 0.930 . S
H2561 C2570 0.930 . S
H2562 C2575 0.929 . S
H2563 C2573 0.929 . S
H2564 C2568 0.929 . S
H2565 C2574 0.929 . S
C2566 H2560 0.930 . S
C2566 C2567 1.367 . S
C2566 C2574 1.378 . S
C2567 C2566 1.367 . S
C2567 C2575 1.433 . S
C2568 H2564 0.929 . S
C2568 C2570 1.378 . S
C2568 C2572 1.350 . S
C2569 C2572 1.463 . S
C2569 C2574 1.350 . S
C2569 N2577 1.427 . S
C2570 H2561 0.930 . S
C2570 C2568 1.378 . S
C2570 C2571 1.367 . S
C2571 C2570 1.367 . S
C2571 C2573 1.433 . S
C2572 C2568 1.350 . S
C2572 C2569 1.463 . S
C2572 N2576 1.427 . S
C2573 H2563 0.929 . S
C2573 C2571 1.433 . S
C2573 N2576 1.384 . S
C2574 H2565 0.929 . S
C2574 C2566 1.378 . S
C2574 C2569 1.350 . S
C2575 H2562 0.929 . S
C2575 C2567 1.433 . S
C2575 N2577 1.384 . S
N2576 C2572 1.427 . S
N2576 C2573 1.384 . S
N2577 C2569 1.427 . S
N2577 C2575 1.384 . S
H2578 C2584 0.930 . S
H2579 C2588 0.930 . S
H2580 C2593 0.929 . S
H2581 C2591 0.929 1_545 S
H2582 C2586 0.929 . S
H2583 C2592 0.929 . S
C2584 H2578 0.930 . S
C2584 C2585 1.367 . S
C2584 C2592 1.378 . S
C2585 C2584 1.367 . S
C2585 C2593 1.433 . S
C2586 H2582 0.929 . S
C2586 C2588 1.378 . S
C2586 C2590 1.350 . S
C2587 C2590 1.463 . S
C2587 C2592 1.350 . S
C2587 N2595 1.427 . S
C2588 H2579 0.930 . S
C2588 C2586 1.378 . S
C2588 C2589 1.367 . S
C2589 C2588 1.367 . S
C2589 C2591 1.433 . S
C2590 C2586 1.350 . S
C2590 C2587 1.463 . S
C2590 N2594 1.427 . S
C2591 H2581 0.929 1_565 S
C2591 C2589 1.433 . S
C2591 N2594 1.384 . S
C2592 H2583 0.929 . S
C2592 C2584 1.378 . S
C2592 C2587 1.350 . S
C2593 H2580 0.929 . S
C2593 C2585 1.433 . S
C2593 N2595 1.384 . S
N2594 C2590 1.427 . S
N2594 C2591 1.384 . S
N2595 C2587 1.427 . S
N2595 C2593 1.384 . S
H2596 C2602 0.930 . S
H2597 C2606 0.930 . S
H2598 C2611 0.929 . S
H2599 C2609 0.929 . S
H2600 C2604 0.929 . S
H2601 C2610 0.929 . S
C2602 H2596 0.930 . S
C2602 C2603 1.367 . S
C2602 C2610 1.378 . S
C2603 C2602 1.367 . S
C2603 C2611 1.433 . S
C2604 H2600 0.929 . S
C2604 C2606 1.378 . S
C2604 C2608 1.350 . S
C2605 C2608 1.463 . S
C2605 C2610 1.350 . S
C2605 N2613 1.427 . S
C2606 H2597 0.930 . S
C2606 C2604 1.378 . S
C2606 C2607 1.367 . S
C2607 C2606 1.367 . S
C2607 C2609 1.433 . S
C2608 C2604 1.350 . S
C2608 C2605 1.463 . S
C2608 N2612 1.427 . S
C2609 H2599 0.929 . S
C2609 C2607 1.433 . S
C2609 N2612 1.384 . S
C2610 H2601 0.929 . S
C2610 C2602 1.378 . S
C2610 C2605 1.350 . S
C2611 H2598 0.929 . S
C2611 C2603 1.433 . S
C2611 N2613 1.384 . S
N2612 C2608 1.427 . S
N2612 C2609 1.384 . S
N2613 C2605 1.427 . S
N2613 C2611 1.384 . S
H2614 C2620 0.930 . S
H2615 C2624 0.930 . S
H2616 C2629 0.929 . S
H2617 C2627 0.929 . S
H2618 C2622 0.929 . S
H2619 C2628 0.929 . S
C2620 H2614 0.930 . S
C2620 C2621 1.367 . S
C2620 C2628 1.378 . S
C2621 C2620 1.367 . S
C2621 C2629 1.433 . S
C2622 H2618 0.929 . S
C2622 C2624 1.378 . S
C2622 C2626 1.350 . S
C2623 C2626 1.463 . S
C2623 C2628 1.350 . S
C2623 N2631 1.427 . S
C2624 H2615 0.930 . S
C2624 C2622 1.378 . S
C2624 C2625 1.367 . S
C2625 C2624 1.367 . S
C2625 C2627 1.433 . S
C2626 C2622 1.350 . S
C2626 C2623 1.463 . S
C2626 N2630 1.427 . S
C2627 H2617 0.929 . S
C2627 C2625 1.433 . S
C2627 N2630 1.384 . S
C2628 H2619 0.929 . S
C2628 C2620 1.378 . S
C2628 C2623 1.350 . S
C2629 H2616 0.929 . S
C2629 C2621 1.433 . S
C2629 N2631 1.384 . S
N2630 C2626 1.427 . S
N2630 C2627 1.384 . S
N2631 C2623 1.427 . S
N2631 C2629 1.384 . S
H2632 C2638 0.930 . S
H2633 C2642 0.930 . S
H2634 C2647 0.929 . S
H2635 C2645 0.929 . S
H2636 C2640 0.929 . S
H2637 C2646 0.929 . S
C2638 H2632 0.930 . S
C2638 C2639 1.367 . S
C2638 C2646 1.378 . S
C2639 C2638 1.367 . S
C2639 C2647 1.433 . S
C2640 H2636 0.929 . S
C2640 C2642 1.378 . S
C2640 C2644 1.350 . S
C2641 C2644 1.463 . S
C2641 C2646 1.350 . S
C2641 N2649 1.427 . S
C2642 H2633 0.930 . S
C2642 C2640 1.378 . S
C2642 C2643 1.367 . S
C2643 C2642 1.367 . S
C2643 C2645 1.433 . S
C2644 C2640 1.350 . S
C2644 C2641 1.463 . S
C2644 N2648 1.427 . S
C2645 H2635 0.929 . S
C2645 C2643 1.433 . S
C2645 N2648 1.384 . S
C2646 H2637 0.929 . S
C2646 C2638 1.378 . S
C2646 C2641 1.350 . S
C2647 H2634 0.929 . S
C2647 C2639 1.433 . S
C2647 N2649 1.384 . S
N2648 C2644 1.427 . S
N2648 C2645 1.384 . S
N2649 C2641 1.427 . S
N2649 C2647 1.384 . S
H2650 C2656 0.930 . S
H2651 C2660 0.930 . S
H2652 C2665 0.929 . S
H2653 C2663 0.929 . S
H2654 C2658 0.929 1_556 S
H2655 C2664 0.929 . S
C2656 H2650 0.930 . S
C2656 C2657 1.367 . S
C2656 C2664 1.378 . S
C2657 C2656 1.367 . S
C2657 C2665 1.433 . S
C2658 H2654 0.929 1_554 S
C2658 C2660 1.378 1_554 S
C2658 C2662 1.350 . S
C2659 C2662 1.463 . S
C2659 C2664 1.350 . S
C2659 N2667 1.427 . S
C2660 H2651 0.930 . S
C2660 C2658 1.378 1_556 S
C2660 C2661 1.367 1_556 S
C2661 C2660 1.367 1_554 S
C2661 C2663 1.433 . S
C2662 C2658 1.350 . S
C2662 C2659 1.463 . S
C2662 N2666 1.427 . S
C2663 H2653 0.929 . S
C2663 C2661 1.433 . S
C2663 N2666 1.384 . S
C2664 H2655 0.929 . S
C2664 C2656 1.378 . S
C2664 C2659 1.350 . S
C2665 H2652 0.929 . S
C2665 C2657 1.433 . S
C2665 N2667 1.384 . S
N2666 C2662 1.427 . S
N2666 C2663 1.384 . S
N2667 C2659 1.427 . S
N2667 C2665 1.384 . S
H2668 C2674 0.930 . S
H2669 C2678 0.930 . S
H2670 C2683 0.929 . S
H2671 C2681 0.929 . S
H2672 C2676 0.929 . S
H2673 C2682 0.929 . S
C2674 H2668 0.930 . S
C2674 C2675 1.367 . S
C2674 C2682 1.378 . S
C2675 C2674 1.367 . S
C2675 C2683 1.433 . S
C2676 H2672 0.929 . S
C2676 C2678 1.378 . S
C2676 C2680 1.350 . S
C2677 C2680 1.463 . S
C2677 C2682 1.350 . S
C2677 N2685 1.427 . S
C2678 H2669 0.930 . S
C2678 C2676 1.378 . S
C2678 C2679 1.367 . S
C2679 C2678 1.367 . S
C2679 C2681 1.433 . S
C2680 C2676 1.350 . S
C2680 C2677 1.463 . S
C2680 N2684 1.427 . S
C2681 H2671 0.929 . S
C2681 C2679 1.433 . S
C2681 N2684 1.384 . S
C2682 H2673 0.929 . S
C2682 C2674 1.378 . S
C2682 C2677 1.350 . S
C2683 H2670 0.929 . S
C2683 C2675 1.433 . S
C2683 N2685 1.384 . S
N2684 C2680 1.427 . S
N2684 C2681 1.384 . S
N2685 C2677 1.427 . S
N2685 C2683 1.384 . S
H2686 C2692 0.930 . S
H2687 C2696 0.930 . S
H2688 C2701 0.929 . S
H2689 C2699 0.929 . S
H2690 C2694 0.929 . S
H2691 C2700 0.929 . S
C2692 H2686 0.930 . S
C2692 C2693 1.367 . S
C2692 C2700 1.378 . S
C2693 C2692 1.367 . S
C2693 C2701 1.433 . S
C2694 H2690 0.929 . S
C2694 C2696 1.378 . S
C2694 C2698 1.350 . S
C2695 C2698 1.463 . S
C2695 C2700 1.350 . S
C2695 N2703 1.427 . S
C2696 H2687 0.930 . S
C2696 C2694 1.378 . S
C2696 C2697 1.367 . S
C2697 C2696 1.367 . S
C2697 C2699 1.433 . S
C2698 C2694 1.350 . S
C2698 C2695 1.463 . S
C2698 N2702 1.427 . S
C2699 H2689 0.929 . S
C2699 C2697 1.433 . S
C2699 N2702 1.384 . S
C2700 H2691 0.929 . S
C2700 C2692 1.378 . S
C2700 C2695 1.350 . S
C2701 H2688 0.929 . S
C2701 C2693 1.433 . S
C2701 N2703 1.384 . S
N2702 C2698 1.427 . S
N2702 C2699 1.384 . S
N2703 C2695 1.427 . S
N2703 C2701 1.384 . S
C983 C109 2.036 1_455 S
C987 C355 1.984 . S
C1001 C61 1.949 . S
C1005 C384 2.142 . S
C1019 C74 1.204 . S
C1023 C435 1.209 . S
C1041 C461 1.518 . S
C1037 C96 1.532 . S
C1055 C25 0.551 . S
C1059 C501 0.560 . S
C1077 C551 0.243 . S
C1073 C40 0.261 . S
C1095 C594 0.503 . S
C1091 C46 0.192 . S
C1109 C5 0.791 . S
C1113 C631 1.056 . S
C1131 C344 2.298 . S
C1127 C229 1.918 . S
C1145 C249 0.396 . S
C1149 C381 0.487 . S
C1167 C424 2.256 . S
C1163 C271 2.046 1_545 S
C1185 C475 1.399 . S
C1181 C172 1.386 1_556 S
C1199 C236 1.817 . S
C1203 C515 1.803 1_655 S
C1221 C554 0.526 . S
C1217 C242 0.447 . S
C1239 C585 1.889 1_556 S
C1235 C278 1.940 . S
C1257 C634 2.025 . S
C1253 C179 2.034 . S
C1275 C341 1.329 . S
C1271 C159 0.921 . S
C1289 C285 1.992 . S
C1293 C664 2.194 . S
C1311 C705 2.304 . S
C1307 C333 2.314 . S
C1329 C751 0.496 . S
C1325 C320 0.497 . S
C1343 C123 2.501 . S
C1347 C625 2.434 . S
C1361 C138 1.476 . S
C1365 C421 1.462 . S
C1379 C326 2.300 . S
C1383 C784 2.280 . S
C1401 C835 1.908 . S
C1397 C298 1.850 . S
C1419 C345 1.990 . S
C1415 C67 1.996 . S
C1437 C834 2.061 . S
C1433 C110 2.076 . S
C1451 C88 1.201 . S
C1455 C425 1.205 . S
C1469 C75 1.316 . S
C1473 C791 1.430 . S
C1491 C511 0.572 . S
C1487 C11 0.590 . S
C1505 C47 0.792 . S
C1509 C701 0.213 . S
C1527 C584 0.580 . S
C1523 C32 0.728 . S
C1545 C861 1.208 . S
C1541 C26 1.229 . S
C1563 C354 2.392 . S
C1559 C152 2.390 . S
C1581 C831 0.486 . S
C1577 C319 0.586 . S
C1595 C124 2.269 . S
C1599 C434 2.244 . S
C1613 C284 1.421 . S
C1617 C785 1.429 . S
C1631 C145 1.638 . S
C1635 C505 1.790 . S
C1653 C704 0.481 . S
C1649 C312 0.560 . S
C1667 C117 1.456 . S
C1671 C595 1.695 . S
C1685 C291 1.964 . S
C1689 C864 2.001 . S
C1703 C194 1.508 . S
C1707 C351 1.465 . S
C1721 C180 2.147 . S
C1725 C674 2.124 . S
C1739 C263 2.186 . S
C1743 C555 2.165 . S
C1757 C243 0.689 . S
C1761 C741 0.407 . S
C1779 C875 2.462 . S
C1775 C277 2.507 . S
C1793 C215 1.290 . S
C1797 C431 1.414 . S
C1815 C474 2.178 . S
C1811 C256 2.115 . S
C1833 C385 1.974 . S
C1829 C200 2.004 . S
C1847 C81 2.042 . S
C1851 C915 1.992 . S
C1869 C824 2.142 . S
C1865 C89 1.950 . S
C1883 C102 1.209 . S
C1887 C955 1.211 . S
C1901 C68 1.538 . S
C1905 C781 1.525 . S
C1919 C53 0.552 . S
C1923 C661 0.553 . S
C1941 C711 0.245 . S
C1937 C12 0.256 . S
C1959 C754 0.499 . S
C1955 C18 0.172 1_655 S
C1977 C871 1.065 . S
C1973 C33 0.823 . S
C1995 C904 2.261 . S
C1991 C257 1.902 . S
C2009 C193 0.346 . S
C2013 C821 0.443 . S
C2031 C944 2.254 . S
C2027 C201 2.057 . S
C2049 C795 1.404 . S
C2045 C214 1.383 . S
C2067 C675 1.805 . S
C2063 C264 1.819 . S
C2081 C186 0.464 . S
C2085 C714 0.510 . S
C2103 C745 1.889 . S
C2099 C208 1.940 . S
C2117 C221 2.034 . S
C2121 C874 2.026 . S
C2139 C901 1.349 . S
C2135 C313 0.961 . S
C2153 C131 1.997 . S
C2157 C504 2.193 . S
C2175 C545 2.305 . S
C2171 C151 2.314 . S
C2193 C591 0.503 . S
C2189 C166 0.498 . S
C2211 C865 2.441 . S
C2207 C305 2.498 . S
C2225 C292 1.473 . S
C2229 C941 1.454 . S
C2247 C464 2.282 . S
C2243 C144 2.299 . S
C2265 C395 1.911 . S
C2261 C116 1.850 . S
C2279 C95 2.002 . S
C2283 C905 1.991 . S
C2301 C394 2.062 . S
C2297 C82 2.076 . S
C2315 C60 1.201 . S
C2319 C945 1.205 . S
C2333 C103 1.321 . S
C2337 C471 1.428 . S
C2351 C39 0.593 . S
C2355 C671 0.568 . S
C2373 C541 0.210 . S
C2369 C19 0.793 . S
C2387 C4 0.707 . S
C2391 C744 0.563 . S
C2405 C54 1.219 . S
C2409 C621 1.201 . S
C2427 C914 2.391 . S
C2423 C334 2.390 . S
C2441 C165 0.594 . S
C2445 C391 0.490 . S
C2463 C954 2.246 1_655 S
C2459 C306 2.268 . S
C2477 C130 1.413 . S
C2481 C465 1.428 . S
C2495 C327 1.621 . S
C2499 C665 1.784 . S
C2517 C544 0.438 . S
C2513 C158 0.527 . S
C2531 C299 1.482 . S
C2535 C755 1.685 1_655 S
C2553 C624 2.001 . S
C2549 C137 1.964 . S
C2571 C911 1.472 . S
C2567 C250 1.513 . S
C2589 C514 2.124 1_565 S
C2585 C222 2.146 . S
C2603 C235 2.188 . S
C2607 C715 2.170 . S
C2625 C581 0.417 . S
C2621 C187 0.744 . S
C2639 C207 2.502 . S
C2643 C635 2.455 . S
C2657 C173 1.292 . S
C2661 C951 1.413 . S
C2679 C794 2.176 . S
C2675 C228 2.120 . S
C2697 C825 1.976 . S
C2693 C270 2.006 . S
