# Generated by pormake.
# Topology rtl, (3,6)-cn, num edge types: 1
# Building blocks:
#     Node 0, Type 0, BuildingBlock: OLANEW_clean_sbu_2, # of connection points: 3
#     Node 1, Type 0, BuildingBlock: OLANEW_clean_sbu_2, # of connection points: 3
#     Node 2, Type 0, BuildingBlock: OLANEW_clean_sbu_2, # of connection points: 3
#     Node 3, Type 0, BuildingBlock: OLANEW_clean_sbu_2, # of connection points: 3
#     Node 4, Type 1, BuildingBlock: VOLQOD_clean_sbu_1, # of connection points: 6
#     Node 5, Type 1, BuildingBlock: VOLQOD_clean_sbu_1, # of connection points: 6
#     Edge 6, Type (0, 1), BuildingBlock: MIFKUJ_clean_linker_0, # of connection points: 2
#     Edge 7, Type (0, 1), BuildingBlock: MIFKUJ_clean_linker_0, # of connection points: 2
#     Edge 8, Type (0, 1), BuildingBlock: MIFKUJ_clean_linker_0, # of connection points: 2
#     Edge 9, Type (0, 1), BuildingBlock: MIFKUJ_clean_linker_0, # of connection points: 2
#     Edge 10, Type (0, 1), BuildingBlock: MIFKUJ_clean_linker_0, # of connection points: 2
#     Edge 11, Type (0, 1), BuildingBlock: MIFKUJ_clean_linker_0, # of connection points: 2
#     Edge 12, Type (0, 1), BuildingBlock: MIFKUJ_clean_linker_0, # of connection points: 2
#     Edge 13, Type (0, 1), BuildingBlock: MIFKUJ_clean_linker_0, # of connection points: 2
#     Edge 14, Type (0, 1), BuildingBlock: MIFKUJ_clean_linker_0, # of connection points: 2
#     Edge 15, Type (0, 1), BuildingBlock: MIFKUJ_clean_linker_0, # of connection points: 2
#     Edge 16, Type (0, 1), BuildingBlock: MIFKUJ_clean_linker_0, # of connection points: 2
#     Edge 17, Type (0, 1), BuildingBlock: MIFKUJ_clean_linker_0, # of connection points: 2
# Relax obj value: 0.052
# Max RMSD: 0.146
# Mean RMSD: 0.102
data_MOF--net-rtl--node1-OLANEW_clean_sbu_2--node2-VOLQOD_clean_sbu_1--edge1-MIFKUJ_clean_linker_0
_symmetry_space_group_name_H-M    P1
_symmetry_Int_Tables_number       1
_symmetry_cell_setting            triclinic
loop_
_symmetry_equiv_pos_as_xyz
'x, y, z'
_cell_length_a     51.686252
_cell_length_b     49.028823
_cell_length_c     30.345153
_cell_angle_alpha  87.370198
_cell_angle_beta   92.422788
_cell_angle_gamma 89.903494
loop_
_atom_site_label
_atom_site_type_symbol
_atom_site_fract_x
_atom_site_fract_y
_atom_site_fract_z
_atom_type_partial_charge
O0 O 0.16599 0.76134 0.97131 0.0
Cd1 Cd 0.18042 0.73448 0.03759 0.0
O2 O 0.18909 0.79686 -0.00963 0.0
Cd3 Cd 0.19623 0.78193 0.05857 0.0
O4 O 0.18352 0.79566 0.1216 0.0
C5 C 0.17515 0.8201 0.11853 0.0
O6 O 0.17592 0.83361 0.08019 0.0
C7 C 0.17438 0.78524 0.96237 0.0
C8 C 0.22498 0.7046 0.02286 0.0
O9 O 0.2024 0.69444 0.0161 0.0
O10 O 0.22647 0.72887 0.03671 0.0
O11 O 0.65197 0.75995 0.61102 0.0
Cd12 Cd 0.6654 0.79269 0.55326 0.0
O13 O 0.66323 0.72862 0.56653 0.0
Cd14 Cd 0.66302 0.68802 0.53985 0.0
O15 O 0.65517 0.65834 0.4897 0.0
C16 C 0.63179 0.65644 0.47554 0.0
O17 O 0.61404 0.67112 0.49333 0.0
C18 C 0.65342 0.73489 0.60243 0.0
C19 C 0.71572 0.81267 0.56201 0.0
O20 O 0.69664 0.82521 0.57778 0.0
O21 O 0.7111 0.79021 0.54319 0.0
O22 O 0.85451 0.22601 0.09094 0.0
Cd23 Cd 0.83918 0.24394 0.01785 0.0
O24 O 0.89423 0.24043 0.08115 0.0
Cd25 Cd 0.88722 0.25209 0.01153 0.0
O26 O 0.89456 0.2384 0.94587 0.0
C27 C 0.88187 0.21797 0.93255 0.0
O28 O 0.8635 0.2078 0.95697 0.0
C29 C 0.87775 0.22879 0.10557 0.0
C30 C 0.79464 0.27602 0.01921 0.0
O31 O 0.79314 0.25016 0.01502 0.0
O32 O 0.81722 0.28663 0.02321 0.0
O33 O 0.3626 0.2612 0.58 0.0
Cd34 Cd 0.35227 0.23526 0.5144 0.0
O35 O 0.33546 0.29451 0.5599 0.0
Cd36 Cd 0.32875 0.27999 0.49368 0.0
O37 O 0.33936 0.28983 0.42609 0.0
C38 C 0.34223 0.31528 0.41813 0.0
O39 O 0.33735 0.33208 0.44931 0.0
C40 C 0.35177 0.28367 0.58798 0.0
C41 C 0.30762 0.20359 0.52139 0.0
O42 O 0.32989 0.19389 0.53404 0.0
O43 O 0.30645 0.22832 0.50579 0.0
O44 O 0.95443 0.98265 0.53619 0.0
Zn45 Zn 0.97955 0.01373 0.53519 0.0
O46 O 0.01526 0.00074 0.53521 0.0
Zn47 Zn 0.03448 0.01334 0.58751 0.0
Zn48 Zn 0.01522 0.96068 0.53583 0.0
Zn49 Zn 0.03151 0.01547 0.48214 0.0
O50 O 0.0655 0.03562 0.57067 0.0
O51 O 0.06352 0.03719 0.49746 0.0
O52 O 0.97358 0.03517 0.58849 0.0
O53 O 0.0121 0.03692 0.62359 0.0
O54 O 0.0479 0.9813 0.62592 0.0
O55 O 0.03453 0.94501 0.59021 0.0
O56 O 0.03321 0.94714 0.48324 0.0
O57 O 0.9707 0.03853 0.48192 0.0
O58 O 0.04281 0.98514 0.44471 0.0
O59 O 0.00712 0.04039 0.4457 0.0
C60 C 0.95664 0.9568 0.53629 0.0
C61 C 0.07463 0.0434 0.53388 0.0
C62 C 0.04655 0.95551 0.62275 0.0
C63 C 0.98815 0.04323 0.62009 0.0
C64 C 0.04283 0.9592 0.44966 0.0
C65 C 0.98364 0.04752 0.44958 0.0
O66 O 0.97879 0.94537 0.53566 0.0
O67 O 0.5713 0.47414 -0.00773 0.0
Zn68 Zn 0.54684 0.50625 -0.00888 0.0
O69 O 0.51065 0.49407 0.98866 0.0
Zn70 Zn 0.49209 0.50945 0.93526 0.0
Zn71 Zn 0.50975 0.45405 0.98958 0.0
Zn72 Zn 0.49357 0.50648 0.04002 0.0
O73 O 0.46206 0.5337 0.94999 0.0
O74 O 0.46445 0.53229 0.02316 0.0
O75 O 0.55403 0.53048 0.93731 0.0
O76 O 0.51638 0.53259 0.8988 0.0
O77 O 0.4774 0.47925 0.89824 0.0
O78 O 0.49135 0.44134 0.93477 0.0
O79 O 0.49008 0.43827 0.04102 0.0
O80 O 0.55555 0.52649 0.04687 0.0
O81 O 0.47844 0.47522 0.07482 0.0
O82 O 0.51823 0.52557 0.08043 0.0
C83 C 0.56823 0.44835 -0.00659 0.0
C84 C 0.45378 0.54098 0.98665 0.0
C85 C 0.47905 0.45328 0.90212 0.0
C86 C 0.5402 0.53905 0.90367 0.0
C87 C 0.47853 0.44943 0.07182 0.0
C88 C 0.54198 0.53221 0.07935 0.0
O89 O 0.54571 0.43784 -0.00706 0.0
H90 H 0.25779 0.21867 0.498 0.0
H91 H 0.21885 0.19062 0.50198 0.0
H92 H 0.26483 0.12237 0.55525 0.0
H93 H 0.30396 0.15021 0.5509 0.0
H94 H 0.23056 0.10644 0.49284 0.0
H95 H 0.22852 0.15837 0.62218 0.0
H96 H 0.22965 0.19999 0.66485 0.0
H97 H 0.16153 0.23028 0.59261 0.0
H98 H 0.1602 0.18899 0.54906 0.0
H99 H 0.10377 0.06027 0.60493 0.0
H100 H 0.14398 0.08632 0.60437 0.0
H101 H 0.14034 0.08983 0.46195 0.0
H102 H 0.10028 0.06344 0.4621 0.0
H103 H 0.15466 0.13636 0.57331 0.0
H104 H 0.20171 0.08798 0.42515 0.0
H105 H 0.20243 0.04388 0.38912 0.0
H106 H 0.18337 0.002 0.51077 0.0
H107 H 0.18285 0.04578 0.54765 0.0
C108 C 0.25964 0.1977 0.51063 0.0
C109 C 0.28397 0.1867 0.52427 0.0
C110 C 0.23734 0.18172 0.513 0.0
C111 C 0.2389 0.15447 0.52928 0.0
C112 C 0.26319 0.14335 0.54257 0.0
C113 C 0.28551 0.15933 0.54023 0.0
C114 C 0.21519 0.13757 0.53233 0.0
C115 C 0.21395 0.11299 0.51039 0.0
C116 C 0.1937 0.14586 0.55592 0.0
C117 C 0.19441 0.1707 0.58208 0.0
C118 C 0.2139 0.17401 0.61515 0.0
C119 C 0.21456 0.19752 0.63954 0.0
C120 C 0.19572 0.2178 0.63137 0.0
C121 C 0.17614 0.21457 0.59886 0.0
C122 C 0.17541 0.19111 0.57434 0.0
C123 C 0.11149 0.06654 0.57342 0.0
C124 C 0.09879 0.05966 0.53354 0.0
C125 C 0.13446 0.08151 0.5732 0.0
C126 C 0.14529 0.08981 0.53316 0.0
C127 C 0.13253 0.08328 0.49327 0.0
C128 C 0.10956 0.06828 0.49343 0.0
C129 C 0.16985 0.10544 0.5332 0.0
C130 C 0.17124 0.12983 0.55566 0.0
C131 C 0.19166 0.09666 0.51088 0.0
C132 C 0.19202 0.07021 0.48902 0.0
C133 C 0.19775 0.06935 0.44423 0.0
C134 C 0.19812 0.04441 0.42366 0.0
C135 C 0.19292 0.02017 0.44764 0.0
C136 C 0.18732 0.02081 0.49221 0.0
C137 C 0.18695 0.04568 0.51294 0.0
H138 H 0.19333 0.00088 0.43172 0.0
H139 H 0.19625 0.23599 0.6503 0.0
H140 H 0.22806 0.65236 -0.00457 0.0
H141 H 0.26716 0.62562 0.98533 0.0
H142 H 0.31442 0.69376 0.02338 0.0
H143 H 0.27542 0.72077 0.03312 0.0
H144 H 0.33391 0.66922 0.95361 0.0
H145 H 0.30402 0.64203 0.09684 0.0
H146 H 0.2723 0.62515 0.15001 0.0
H147 H 0.26471 0.55044 0.08214 0.0
H148 H 0.29614 0.56706 0.02818 0.0
H149 H 0.43346 0.56309 0.05855 0.0
H150 H 0.39528 0.59203 0.0609 0.0
H151 H 0.38371 0.58919 0.91957 0.0
H152 H 0.42235 0.56041 0.91673 0.0
H153 H 0.34643 0.58155 0.04028 0.0
H154 H 0.35445 0.64944 0.88078 0.0
H155 H 0.38813 0.66835 0.83296 0.0
H156 H 0.44323 0.66524 0.94305 0.0
H157 H 0.4098 0.64666 -0.00839 0.0
C158 C 0.24676 0.66172 0.00148 0.0
C159 C 0.24863 0.68864 0.01538 0.0
C160 C 0.26909 0.64638 -0.00425 0.0
C161 C 0.29369 0.65762 0.004 0.0
C162 C 0.29562 0.6847 0.0168 0.0
C163 C 0.27331 0.70006 0.02256 0.0
C164 C 0.3174 0.64084 0.0008 0.0
C165 C 0.33664 0.65 0.97241 0.0
C166 C 0.3211 0.61596 0.02581 0.0
C167 C 0.30222 0.60591 0.05822 0.0
C168 C 0.29543 0.6221 0.09305 0.0
C169 C 0.27753 0.61256 0.12336 0.0
C170 C 0.26644 0.58677 0.11938 0.0
C171 C 0.27328 0.57044 0.08513 0.0
C172 C 0.29115 0.57989 0.0547 0.0
C173 C 0.42293 0.56866 0.02782 0.0
C174 C 0.43101 0.55937 0.98741 0.0
C175 C 0.40102 0.58518 0.02929 0.0
C176 C 0.38666 0.59285 -0.00955 0.0
C177 C 0.39468 0.58378 0.94992 0.0
C178 C 0.41673 0.56727 0.94838 0.0
C179 C 0.36299 0.60983 -0.00707 0.0
C180 C 0.34368 0.60066 0.02116 0.0
C181 C 0.3595 0.63493 0.96843 0.0
C182 C 0.37969 0.64638 0.93967 0.0
C183 C 0.37374 0.65287 0.89479 0.0
C184 C 0.39278 0.66352 0.86756 0.0
C185 C 0.41783 0.6679 0.88492 0.0
C186 C 0.42385 0.66173 0.9296 0.0
C187 C 0.40487 0.65111 0.95697 0.0
H188 H 0.43255 0.67612 0.86378 0.0
H189 H 0.2526 0.57942 0.14289 0.0
H190 H 0.72986 0.86338 0.58751 0.0
H191 H 0.77241 0.88471 0.58301 0.0
H192 H 0.80363 0.81071 0.53466 0.0
H193 H 0.76099 0.78914 0.53878 0.0
H194 H 0.83648 0.83623 0.5993 0.0
H195 H 0.78968 0.85846 0.46216 0.0
H196 H 0.75231 0.87531 0.41543 0.0
H197 H 0.75923 0.95401 0.47125 0.0
H198 H 0.79643 0.9375 0.51881 0.0
H199 H 0.95181 0.90161 0.52583 0.0
H200 H 0.91231 0.87424 0.52977 0.0
H201 H 0.86868 0.94629 0.55664 0.0
H202 H 0.90769 0.97377 0.55156 0.0
H203 H 0.84296 0.91844 0.49879 0.0
H204 H 0.88762 0.89666 0.63857 0.0
H205 H 0.92428 0.88049 0.68763 0.0
H206 H 0.92098 0.80216 0.62991 0.0
H207 H 0.8845 0.818 0.58008 0.0
C208 C 0.74581 0.8515 0.57634 0.0
C209 C 0.74201 0.82462 0.56322 0.0
C210 C 0.77009 0.86376 0.57369 0.0
C211 C 0.79105 0.84935 0.55807 0.0
C212 C 0.78765 0.82215 0.54671 0.0
C213 C 0.76327 0.80992 0.54897 0.0
C214 C 0.81612 0.86326 0.55181 0.0
C215 C 0.83808 0.85397 0.57688 0.0
C216 C 0.81798 0.88663 0.52307 0.0
C217 C 0.7957 0.89666 0.49433 0.0
C218 C 0.7831 0.87929 0.46474 0.0
C219 C 0.76198 0.8888 0.43805 0.0
C220 C 0.75336 0.91569 0.44044 0.0
C221 C 0.76591 0.93317 0.46946 0.0
C222 C 0.78703 0.92376 0.49626 0.0
C223 C 0.93378 0.91161 0.53255 0.0
C224 C 0.93293 0.9399 0.53834 0.0
C225 C 0.91124 0.89591 0.53501 0.0
C226 C 0.88754 0.90814 0.54398 0.0
C227 C 0.88669 0.93637 0.54959 0.0
C228 C 0.90908 0.95207 0.54672 0.0
C229 C 0.8634 0.89186 0.54702 0.0
C230 C 0.84154 0.90064 0.52113 0.0
C231 C 0.86164 0.86818 0.5753 0.0
C232 C 0.88354 0.85862 0.60526 0.0
C233 C 0.89485 0.87606 0.6361 0.0
C234 C 0.91557 0.86694 0.66409 0.0
C235 C 0.92501 0.84034 0.66179 0.0
C236 C 0.91369 0.82278 0.63159 0.0
C237 C 0.89298 0.83181 0.60349 0.0
H238 H 0.94105 0.83332 0.6835 0.0
H239 H 0.73701 0.92301 0.41975 0.0
H240 H 0.79161 0.33129 0.02668 0.0
H241 H 0.75265 0.35972 0.02368 0.0
H242 H 0.70528 0.2882 0.00768 0.0
H243 H 0.7442 0.25962 0.01006 0.0
H244 H 0.68982 0.32887 0.95037 0.0
H245 H 0.70948 0.31909 0.10586 0.0
H246 H 0.73676 0.32065 0.17434 0.0
H247 H 0.74759 0.40685 0.15118 0.0
H248 H 0.72065 0.40574 0.0822 0.0
H249 H 0.56967 0.39256 -0.00942 0.0
H250 H 0.60784 0.36291 -0.00431 0.0
H251 H 0.65719 0.43329 0.0071 0.0
H252 H 0.61918 0.46314 0.0023 0.0
H253 H 0.67102 0.39243 0.06766 0.0
H254 H 0.65183 0.40179 0.91138 0.0
H255 H 0.62427 0.40004 0.84323 0.0
H256 H 0.61224 0.31421 0.86856 0.0
H257 H 0.63944 0.31553 0.93723 0.0
C258 C 0.77291 0.32157 0.0227 0.0
C259 C 0.77101 0.29318 0.01869 0.0
C260 C 0.75064 0.33785 0.02116 0.0
C261 C 0.72603 0.32605 0.0159 0.0
C262 C 0.72407 0.29772 0.01181 0.0
C263 C 0.74634 0.28142 0.01332 0.0
C264 C 0.70238 0.34336 0.01372 0.0
C265 C 0.6855 0.34247 0.97634 0.0
C266 C 0.69705 0.36153 0.04715 0.0
C267 C 0.71325 0.36227 0.08863 0.0
C268 C 0.71785 0.33834 0.11517 0.0
C269 C 0.73322 0.33915 0.15412 0.0
C270 C 0.74396 0.36382 0.16704 0.0
C271 C 0.73929 0.38775 0.1411 0.0
C272 C 0.72395 0.38704 0.10209 0.0
C273 C 0.58863 0.40178 -0.0059 0.0
C274 C 0.59133 0.43027 -0.00409 0.0
C275 C 0.61043 0.38478 -0.00312 0.0
C276 C 0.63535 0.39592 0.00143 0.0
C277 C 0.63812 0.42429 0.00358 0.0
C278 C 0.61636 0.44132 0.00065 0.0
C279 C 0.65855 0.37799 0.00428 0.0
C280 C 0.67533 0.37877 0.04178 0.0
C281 C 0.66376 0.35968 0.97102 0.0
C282 C 0.64745 0.35882 0.92969 0.0
C283 C 0.64313 0.38259 0.90261 0.0
C284 C 0.62761 0.38167 0.86385 0.0
C285 C 0.61645 0.35705 0.85164 0.0
C286 C 0.62086 0.33328 0.8781 0.0
C287 C 0.63634 0.33409 0.91693 0.0
H288 H 0.60444 0.35637 0.82161 0.0
H289 H 0.75584 0.36441 0.19721 0.0
H290 H 0.16763 0.79756 0.20165 0.0
H291 H 0.14678 0.81906 0.26243 0.0
H292 H 0.13548 0.89295 0.18107 0.0
H293 H 0.15648 0.87191 0.12076 0.0
H294 H 0.15223 0.90422 0.26291 0.0
H295 H 0.08628 0.8472 0.19652 0.0
H296 H 0.06803 0.80373 0.17188 0.0
H297 H 0.07584 0.76924 0.30444 0.0
H298 H 0.09445 0.81242 0.32976 0.0
H299 H 0.05641 0.97589 0.36671 0.0
H300 H 0.07986 0.94996 0.31436 0.0
H301 H 0.08237 0.88007 0.40622 0.0
H302 H 0.05812 0.90564 0.45829 0.0
H303 H 0.07289 0.86418 0.32544 0.0
H304 H 0.13547 0.92281 0.3931 0.0
H305 H 0.15283 0.96671 0.41756 0.0
H306 H 0.15168 -0.00175 0.28313 0.0
H307 H 0.13393 0.9547 0.25791 0.0
C308 C 0.16082 0.81843 0.19685 0.0
C309 C 0.16363 0.83299 0.15631 0.0
C310 C 0.14883 0.83064 0.23153 0.0
C311 C 0.13936 0.85752 0.22611 0.0
C312 C 0.14265 0.8722 0.186 0.0
C313 C 0.15461 0.86008 0.15147 0.0
C314 C 0.12561 0.87051 0.26167 0.0
C315 C 0.13479 0.89556 0.2764 0.0
C316 C 0.10325 0.85883 0.28012 0.0
C317 C 0.09202 0.83292 0.26492 0.0
C318 C 0.08429 0.83027 0.22034 0.0
C319 C 0.07385 0.8057 0.20626 0.0
C320 C 0.07085 0.78371 0.23654 0.0
C321 C 0.07822 0.78627 0.281 0.0
C322 C 0.0887 0.81079 0.29524 0.0
C323 C 0.06182 0.95496 0.37573 0.0
C324 C 0.05555 0.9429 0.41681 0.0
C325 C 0.07537 0.9402 0.34585 0.0
C326 C 0.08343 0.91327 0.35678 0.0
C327 C 0.0765 0.90088 0.39719 0.0
C328 C 0.06264 0.91553 0.42691 0.0
C329 C 0.09922 0.8982 0.32608 0.0
C330 C 0.09049 0.87273 0.31236 0.0
C331 C 0.12205 0.90947 0.3086 0.0
C332 C 0.13319 0.93553 0.32365 0.0
C333 C 0.1388 0.93915 0.36877 0.0
C334 C 0.14872 0.96398 0.38277 0.0
C335 C 0.1533 0.98527 0.35191 0.0
C336 C 0.1481 0.98174 0.30699 0.0
C337 C 0.13813 0.95698 0.29282 0.0
H338 H 0.16089 0.00451 0.36278 0.0
H339 H 0.06276 0.76471 0.22559 0.0
H340 H 0.67088 0.68291 0.62202 0.0
H341 H 0.65172 0.6483 0.6712 0.0
H342 H 0.59078 0.70482 0.69795 0.0
H343 H 0.61058 0.73972 0.65028 0.0
H344 H 0.6044 0.68069 0.76995 0.0
H345 H 0.58177 0.64844 0.62763 0.0
H346 H 0.58892 0.63451 0.55202 0.0
H347 H 0.63927 0.56985 0.60342 0.0
H348 H 0.6325 0.58347 0.67941 0.0
H349 H 0.51563 0.57592 0.8459 0.0
H350 H 0.53545 0.60769 0.79253 0.0
H351 H 0.61088 0.57481 0.83072 0.0
H352 H 0.59137 0.54348 0.88516 0.0
H353 H 0.58914 0.58565 0.72575 0.0
H354 H 0.61088 0.62393 0.87093 0.0
H355 H 0.59799 0.63865 0.94353 0.0
H356 H 0.54175 0.69357 0.87995 0.0
H357 H 0.5541 0.67882 0.80698 0.0
C358 C 0.65327 0.68779 0.63813 0.0
C359 C 0.64203 0.71385 0.63202 0.0
C360 C 0.64227 0.66799 0.66616 0.0
C361 C 0.61944 0.67367 0.68776 0.0
C362 C 0.60835 0.69984 0.68176 0.0
C363 C 0.61964 0.71978 0.65447 0.0
C364 C 0.60748 0.65269 0.7175 0.0
C365 C 0.60092 0.66003 0.75987 0.0
C366 C 0.60285 0.62557 0.70478 0.0
C367 C 0.60683 0.61715 0.65919 0.0
C368 C 0.5945 0.63135 0.6228 0.0
C369 C 0.59846 0.6235 0.57988 0.0
C370 C 0.61466 0.60141 0.57289 0.0
C371 C 0.62678 0.587 0.60887 0.0
C372 C 0.62284 0.59473 0.65189 0.0
C373 C 0.53642 0.57532 0.84276 0.0
C374 C 0.55197 0.55729 0.86987 0.0
C375 C 0.54767 0.59344 0.81227 0.0
C376 C 0.57455 0.59346 0.80779 0.0
C377 C 0.59007 0.57497 0.83375 0.0
C378 C 0.57891 0.55723 0.86494 0.0
C379 C 0.58653 0.61383 0.77765 0.0
C380 C 0.59287 0.60636 0.73539 0.0
C381 C 0.59036 0.64099 0.78988 0.0
C382 C 0.58319 0.65005 0.83363 0.0
C383 C 0.5956 0.63894 0.87249 0.0
C384 C 0.58843 0.64733 0.91369 0.0
C385 C 0.569 0.66697 0.91637 0.0
C386 C 0.55677 0.67832 0.87784 0.0
C387 C 0.56385 0.66997 0.83657 0.0
H388 H 0.56348 0.67344 0.94828 0.0
H389 H 0.61774 0.59541 0.53962 0.0
H390 H 0.92723 0.22451 0.14025 0.0
H391 H 0.94268 0.19602 0.20394 0.0
H392 H 0.8641 0.17433 0.23207 0.0
H393 H 0.84828 0.20266 0.16777 0.0
H394 H 0.90035 0.18431 0.30991 0.0
H395 H 0.89111 0.1317 0.17944 0.0
H396 H 0.89729 0.12295 0.10119 0.0
H397 H 0.97979 0.12441 0.12441 0.0
H398 H 0.97408 0.13361 0.2027 0.0
H399 H 0.93288 0.06405 0.44223 0.0
H400 H 0.913 0.09695 0.38804 0.0
H401 H 0.98676 0.10896 0.32867 0.0
H402 H 0.00665 0.07567 0.38198 0.0
H403 H 0.95029 0.10379 0.2672 0.0
H404 H 0.96078 0.15603 0.3966 0.0
H405 H 0.95591 0.16649 0.47457 0.0
H406 H 0.87319 0.16735 0.45435 0.0
H407 H 0.87755 0.15648 0.37641 0.0
C408 C 0.91311 0.21416 0.16036 0.0
C409 C 0.8865 0.21562 0.14856 0.0
C410 C 0.92202 0.19787 0.19676 0.0
C411 C 0.90453 0.18292 0.22228 0.0
C412 C 0.87786 0.18576 0.21264 0.0
C413 C 0.86889 0.20188 0.17584 0.0
C414 C 0.91442 0.16233 0.25599 0.0
C415 C 0.91095 0.16646 0.30076 0.0
C416 C 0.92867 0.13944 0.24378 0.0
C417 C 0.93216 0.13362 0.19682 0.0
C418 C 0.91057 0.1304 0.16777 0.0
C419 C 0.91398 0.12531 0.12343 0.0
C420 C 0.93892 0.1232 0.10781 0.0
C421 C 0.96049 0.12609 0.13654 0.0
C422 C 0.95717 0.13122 0.18091 0.0
C423 C 0.94489 0.07367 0.41764 0.0
C424 C 0.97138 0.0672 0.41648 0.0
C425 C 0.93351 0.09262 0.38683 0.0
C426 C 0.94846 0.1057 0.35463 0.0
C427 C 0.97485 0.09914 0.35324 0.0
C428 C 0.9862 0.08008 0.3838 0.0
C429 C 0.93659 0.12577 0.32162 0.0
C430 C 0.93963 0.12152 0.2767 0.0
C431 C 0.92215 0.14863 0.33387 0.0
C432 C 0.91949 0.15515 0.38076 0.0
C433 C 0.94154 0.15821 0.40887 0.0
C434 C 0.93888 0.16426 0.45304 0.0
C435 C 0.91426 0.16752 0.46941 0.0
C436 C 0.89225 0.16478 0.44163 0.0
C437 C 0.8948 0.15869 0.39745 0.0
H438 H 0.91223 0.17226 0.50358 0.0
H439 H 0.94152 0.11926 0.07346 0.0
H440 H 0.38949 0.26924 0.651 0.0
H441 H 0.40805 0.29776 0.70815 0.0
H442 H 0.35243 0.36115 0.67035 0.0
H443 H 0.33389 0.33293 0.61287 0.0
H444 H 0.40119 0.38047 0.67277 0.0
H445 H 0.34907 0.32515 0.76863 0.0
H446 H 0.33242 0.28214 0.80173 0.0
H447 H 0.40911 0.25991 0.85057 0.0
H448 H 0.42628 0.30263 0.81725 0.0
H449 H 0.43927 0.4684 0.84358 0.0
H450 H 0.41507 0.43932 0.79321 0.0
H451 H 0.46428 0.37103 0.83551 0.0
H452 H 0.48787 0.3997 0.88706 0.0
H453 H 0.41672 0.35475 0.83165 0.0
H454 H 0.46964 0.40751 0.73317 0.0
H455 H 0.4876 0.44955 0.69887 0.0
H456 H 0.41124 0.47533 0.65345 0.0
H457 H 0.39279 0.43359 0.68796 0.0
C458 C 0.38086 0.28903 0.65536 0.0
C459 C 0.36029 0.29884 0.62713 0.0
C460 C 0.39148 0.3053 0.68814 0.0
C461 C 0.38162 0.33159 0.6935 0.0
C462 C 0.36038 0.34096 0.66666 0.0
C463 C 0.34975 0.32473 0.63392 0.0
C464 C 0.39469 0.3501 0.72467 0.0
C465 C 0.40421 0.37506 0.70769 0.0
C466 C 0.3993 0.34266 0.7699 0.0
C467 C 0.38899 0.317 0.7901 0.0
C468 C 0.36242 0.31099 0.78613 0.0
C469 C 0.35288 0.28668 0.805 0.0
C470 C 0.36971 0.26827 0.82815 0.0
C471 C 0.3961 0.27417 0.83259 0.0
C472 C 0.40574 0.29845 0.81377 0.0
C473 C 0.44506 0.44724 0.84186 0.0
C474 C 0.46552 0.43637 0.86923 0.0
C475 C 0.43124 0.43063 0.81298 0.0
C476 C 0.438 0.403 0.81017 0.0
C477 C 0.45862 0.39223 0.83715 0.0
C478 C 0.47217 0.40869 0.86649 0.0
C479 C 0.42338 0.38511 0.77973 0.0
C480 C 0.4136 0.36025 0.79679 0.0
C481 C 0.41875 0.3925 0.73443 0.0
C482 C 0.42982 0.41757 0.71354 0.0
C483 C 0.45667 0.42224 0.71614 0.0
C484 C 0.46694 0.446 0.69661 0.0
C485 C 0.45057 0.46513 0.6741 0.0
C486 C 0.42389 0.46051 0.67095 0.0
C487 C 0.41352 0.4368 0.69045 0.0
H488 H 0.45855 0.48351 0.65901 0.0
H489 H 0.36229 0.24946 0.84273 0.0
H490 H 0.58352 0.64672 0.44014 0.0
H491 H 0.57216 0.62284 0.37331 0.0
H492 H 0.65286 0.60525 0.35651 0.0
H493 H 0.66448 0.62945 0.42337 0.0
H494 H 0.62857 0.62514 0.27977 0.0
H495 H 0.61341 0.555 0.38995 0.0
H496 H 0.59586 0.53519 0.45856 0.0
H497 H 0.51838 0.55057 0.40658 0.0
H498 H 0.53547 0.57088 0.33791 0.0
H499 H 0.59372 0.53819 0.10159 0.0
H500 H 0.61268 0.55698 0.16908 0.0
H501 H 0.53617 0.57566 0.21107 0.0
H502 H 0.51717 0.55646 0.14464 0.0
H503 H 0.56335 0.55109 0.27632 0.0
H504 H 0.57819 0.6254 0.17016 0.0
H505 H 0.5952 0.64659 0.10205 0.0
H506 H 0.67261 0.62413 0.14656 0.0
H507 H 0.65601 0.60248 0.21471 0.0
C508 C 0.59887 0.63761 0.4225 0.0
C509 C 0.62491 0.64002 0.43707 0.0
C510 C 0.59233 0.62387 0.38434 0.0
C511 C 0.61166 0.61211 0.36009 0.0
C512 C 0.63766 0.61419 0.37477 0.0
C513 C 0.64423 0.62789 0.41308 0.0
C514 C 0.60455 0.59843 0.31872 0.0
C515 C 0.61468 0.60858 0.27903 0.0
C516 C 0.58612 0.57716 0.31778 0.0
C517 C 0.57575 0.56464 0.35886 0.0
C518 C 0.59263 0.55432 0.39325 0.0
C519 C 0.58276 0.54298 0.43214 0.0
C520 C 0.55602 0.54166 0.43695 0.0
C521 C 0.53909 0.55161 0.40282 0.0
C522 C 0.54886 0.56301 0.36387 0.0
C523 C 0.58098 0.54656 0.12502 0.0
C524 C 0.55393 0.54573 0.11781 0.0
C525 C 0.59184 0.55732 0.16356 0.0
C526 C 0.57584 0.56777 0.19516 0.0
C527 C 0.5489 0.56753 0.18738 0.0
C528 C 0.53807 0.55661 0.14924 0.0
C529 C 0.5868 0.57829 0.2371 0.0
C530 C 0.57746 0.56744 0.27701 0.0
C531 C 0.60585 0.59899 0.23817 0.0
C532 C 0.61583 0.61205 0.19727 0.0
C533 C 0.59882 0.62479 0.16525 0.0
C534 C 0.60839 0.63692 0.12667 0.0
C535 C 0.63496 0.63663 0.11991 0.0
C536 C 0.65203 0.62429 0.15179 0.0
C537 C 0.64256 0.6121 0.19041 0.0
H538 H 0.64233 0.64603 0.09003 0.0
H539 H 0.54842 0.53288 0.4671 0.0
H540 H 0.85824 0.17465 0.89445 0.0
H541 H 0.87513 0.14649 0.83782 0.0
H542 H 0.9416 0.19915 0.82781 0.0
H543 H 0.92458 0.2278 0.88385 0.0
H544 H 0.92602 0.18249 0.74786 0.0
H545 H 0.94539 0.14049 0.89098 0.0
H546 H 0.93588 0.12202 0.9655 0.0
H547 H 0.88538 0.06225 0.90907 0.0
H548 H 0.89431 0.08064 0.83419 0.0
H549 H 0.01282 0.08204 0.66796 0.0
H550 H 0.99332 0.11326 0.71827 0.0
H551 H 0.91908 0.07515 0.69626 0.0
H552 H 0.93818 0.04446 0.64493 0.0
H553 H 0.93901 0.08441 0.79148 0.0
H554 H 0.92059 0.12784 0.64727 0.0
H555 H 0.93248 0.14608 0.57386 0.0
H556 H 0.98418 0.20318 0.63444 0.0
H557 H 0.97297 0.18485 0.70831 0.0
C558 C 0.87626 0.1805 0.87977 0.0
C559 C 0.89022 0.20328 0.89404 0.0
C560 C 0.88595 0.16431 0.84753 0.0
C561 C 0.9099 0.17039 0.82932 0.0
C562 C 0.92315 0.194 0.84162 0.0
C563 C 0.91339 0.21033 0.8737 0.0
C564 C 0.92179 0.15129 0.79945 0.0
C565 C 0.92908 0.16112 0.7576 0.0
C566 C 0.92564 0.12333 0.81202 0.0
C567 C 0.92031 0.11213 0.85699 0.0
C568 C 0.9321 0.12354 0.89447 0.0
C569 C 0.92684 0.11307 0.93677 0.0
C570 C 0.90998 0.09103 0.94202 0.0
C571 C 0.89841 0.07936 0.90496 0.0
C572 C 0.90357 0.08978 0.86258 0.0
C573 C 0.99239 0.08024 0.67407 0.0
C574 C 0.97698 0.0609 0.65254 0.0
C575 C 0.9813 0.0981 0.7026 0.0
C576 C 0.95481 0.09646 0.71064 0.0
C577 C 0.93956 0.07667 0.69026 0.0
C578 C 0.95048 0.05925 0.66096 0.0
C579 C 0.94294 0.11562 0.74007 0.0
C580 C 0.93582 0.10578 0.78186 0.0
C581 C 0.93952 0.14356 0.72764 0.0
C582 C 0.94619 0.15473 0.68331 0.0
C583 C 0.93472 0.14407 0.64495 0.0
C584 C 0.94128 0.15448 0.60325 0.0
C585 C 0.95912 0.17574 0.59947 0.0
C586 C 0.9704 0.18668 0.63741 0.0
C587 C 0.96395 0.17628 0.67921 0.0
H588 H 0.96415 0.18379 0.56714 0.0
H589 H 0.90593 0.08295 0.97479 0.0
H590 H 0.35025 0.36845 0.39283 0.0
H591 H 0.37071 0.38632 0.32684 0.0
H592 H 0.37892 0.30457 0.28228 0.0
H593 H 0.35868 0.28632 0.34908 0.0
H594 H 0.42338 0.33303 0.27551 0.0
H595 H 0.33496 0.34811 0.2305 0.0
H596 H 0.2899 0.36338 0.23736 0.0
H597 H 0.31569 0.44608 0.24849 0.0
H598 H 0.36096 0.43127 0.24233 0.0
H599 H 0.47114 0.39387 0.07405 0.0
H600 H 0.44582 0.36656 0.12628 0.0
H601 H 0.42838 0.43913 0.1947 0.0
H602 H 0.45321 0.46651 0.14271 0.0
H603 H 0.38567 0.40917 0.18017 0.0
H604 H 0.47393 0.393 0.23578 0.0
H605 H 0.51925 0.37807 0.23057 0.0
H606 H 0.49356 0.2976 0.19996 0.0
H607 H 0.44805 0.31218 0.20445 0.0
C608 C 0.35615 0.3542 0.36888 0.0
C609 C 0.35282 0.32594 0.37622 0.0
C610 C 0.36775 0.36449 0.331 0.0
C611 C 0.37606 0.34681 0.29935 0.0
C612 C 0.37254 0.31857 0.30623 0.0
C613 C 0.36091 0.3082 0.3443 0.0
C614 C 0.38955 0.35804 0.26039 0.0
C615 C 0.41493 0.34926 0.25399 0.0
C616 C 0.37865 0.37947 0.23275 0.0
C617 C 0.3514 0.38853 0.23618 0.0
C618 C 0.33105 0.36953 0.23469 0.0
C619 C 0.30546 0.37811 0.23842 0.0
C620 C 0.29994 0.40568 0.24342 0.0
C621 C 0.31999 0.42473 0.24461 0.0
C622 C 0.34562 0.41626 0.24093 0.0
C623 C 0.462 0.40398 0.10033 0.0
C624 C 0.46422 0.4324 0.10414 0.0
C625 C 0.44757 0.38834 0.13017 0.0
C626 C 0.43527 0.40082 0.16442 0.0
C627 C 0.4376 0.4291 0.16838 0.0
C628 C 0.45192 0.44471 0.13866 0.0
C629 C 0.41973 0.38475 0.19625 0.0
C630 C 0.39394 0.3926 0.20119 0.0
C631 C 0.43027 0.36252 0.22254 0.0
C632 C 0.4576 0.35377 0.2199 0.0
C633 C 0.47795 0.37219 0.22756 0.0
C634 C 0.50366 0.36378 0.22482 0.0
C635 C 0.50928 0.33693 0.21479 0.0
C636 C 0.48918 0.31841 0.20763 0.0
C637 C 0.46343 0.32673 0.21029 0.0
H638 H 0.5292 0.33045 0.21269 0.0
H639 H 0.28011 0.41228 0.24631 0.0
H640 H 0.14093 0.76812 0.89677 0.0
H641 H 0.12113 0.79598 0.83535 0.0
H642 H 0.16645 0.86518 0.87491 0.0
H643 H 0.18623 0.83764 0.93638 0.0
H644 H 0.11496 0.87703 0.86516 0.0
H645 H 0.17947 0.83374 0.78206 0.0
H646 H 0.20321 0.79472 0.75467 0.0
H647 H 0.13279 0.76468 0.69465 0.0
H648 H 0.10855 0.80334 0.72221 0.0
H649 H 0.08217 0.96965 0.68681 0.0
H650 H 0.10516 0.9395 0.74147 0.0
H651 H 0.06395 0.87023 0.69122 0.0
H652 H 0.04141 0.90018 0.63549 0.0
H653 H 0.113 0.85751 0.70611 0.0
H654 H 0.0481 0.89912 0.78898 0.0
H655 H 0.02309 0.937 0.81713 0.0
H656 H 0.09232 0.9686 0.87892 0.0
H657 H 0.11781 0.93109 0.85063 0.0
C658 C 0.14701 0.78914 0.89198 0.0
C659 C 0.16506 0.80068 0.92167 0.0
C660 C 0.13571 0.80501 0.8568 0.0
C661 C 0.14232 0.83264 0.85065 0.0
C662 C 0.16103 0.84391 0.87921 0.0
C663 C 0.17238 0.82808 0.91425 0.0
C664 C 0.12846 0.85036 0.81649 0.0
C665 C 0.11484 0.87301 0.83028 0.0
C666 C 0.12759 0.84452 0.77126 0.0
C667 C 0.14215 0.82129 0.75458 0.0
C668 C 0.169 0.81869 0.76334 0.0
C669 C 0.18256 0.79667 0.74772 0.0
C670 C 0.1695 0.7772 0.72303 0.0
C671 C 0.14287 0.77976 0.71382 0.0
C672 C 0.12922 0.80174 0.7294 0.0
C673 C 0.07788 0.94803 0.68748 0.0
C674 C 0.05985 0.93735 0.6569 0.0
C675 C 0.09101 0.9308 0.71886 0.0
C676 C 0.08603 0.90263 0.72088 0.0
C677 C 0.0681 0.89189 0.6903 0.0
C678 C 0.05517 0.90907 0.65857 0.0
C679 C 0.09966 0.88437 0.75472 0.0
C680 C 0.11313 0.86157 0.74096 0.0
C681 C 0.1002 0.88989 0.80014 0.0
C682 C 0.0849 0.91243 0.81733 0.0
C683 C 0.05802 0.91426 0.80829 0.0
C684 C 0.04375 0.93564 0.82432 0.0
C685 C 0.05612 0.95523 0.8497 0.0
C686 C 0.08277 0.95343 0.85921 0.0
C687 C 0.09714 0.9321 0.84322 0.0
H688 H 0.04504 0.97177 0.86208 0.0
H689 H 0.18004 0.76016 0.71096 0.0
loop_
_geom_bond_atom_site_label_1
_geom_bond_atom_site_label_2
_geom_bond_distance
_geom_bond_site_symmetry_2
_ccdc_geom_bond_type
O0 Cd1 2.300 1_556 S
O0 C7 1.275 . S
Cd1 O0 2.300 1_554 S
Cd1 O9 2.381 . S
Cd1 O10 2.378 . S
O2 Cd3 2.385 . S
O2 C7 1.255 1_554 S
Cd3 O2 2.385 . S
Cd3 O4 2.317 . S
O4 Cd3 2.317 . S
O4 C5 1.232 . S
C5 O4 1.232 . S
C5 O6 1.218 . S
O6 C5 1.218 . S
C7 O0 1.275 . S
C7 O2 1.255 1_556 S
C8 O9 1.258 . S
C8 O10 1.256 . S
O9 Cd1 2.381 . S
O9 C8 1.258 . S
O10 Cd1 2.378 . S
O10 C8 1.256 . S
O11 Cd12 2.300 . S
O11 C18 1.275 . S
Cd12 O11 2.300 . S
Cd12 O20 2.381 . S
Cd12 O21 2.378 . S
O13 Cd14 2.385 . S
O13 C18 1.255 . S
Cd14 O13 2.385 . S
Cd14 O15 2.317 . S
O15 Cd14 2.317 . S
O15 C16 1.232 . S
C16 O15 1.232 . S
C16 O17 1.218 . S
O17 C16 1.218 . S
C18 O11 1.275 . S
C18 O13 1.255 . S
C19 O20 1.258 . S
C19 O21 1.256 . S
O20 Cd12 2.381 . S
O20 C19 1.258 . S
O21 Cd12 2.378 . S
O21 C19 1.256 . S
O22 Cd23 2.300 . S
O22 C29 1.275 . S
Cd23 O22 2.300 . S
Cd23 O31 2.381 . S
Cd23 O32 2.378 . S
O24 Cd25 2.385 . S
O24 C29 1.255 . S
Cd25 O24 2.385 . S
Cd25 O26 2.317 1_554 S
O26 Cd25 2.317 1_556 S
O26 C27 1.232 . S
C27 O26 1.232 . S
C27 O28 1.218 . S
O28 C27 1.218 . S
C29 O22 1.275 . S
C29 O24 1.255 . S
C30 O31 1.258 . S
C30 O32 1.256 . S
O31 Cd23 2.381 . S
O31 C30 1.258 . S
O32 Cd23 2.378 . S
O32 C30 1.256 . S
O33 Cd34 2.300 . S
O33 C40 1.275 . S
Cd34 O33 2.300 . S
Cd34 O42 2.381 . S
Cd34 O43 2.378 . S
O35 Cd36 2.385 . S
O35 C40 1.255 . S
Cd36 O35 2.385 . S
Cd36 O37 2.317 . S
O37 Cd36 2.317 . S
O37 C38 1.232 . S
C38 O37 1.232 . S
C38 O39 1.218 . S
O39 C38 1.218 . S
C40 O33 1.275 . S
C40 O35 1.255 . S
C41 O42 1.258 . S
C41 O43 1.256 . S
O42 Cd34 2.381 . S
O42 C41 1.258 . S
O43 Cd34 2.378 . S
O43 C41 1.256 . S
O44 Zn45 1.953 1_565 S
O44 C60 1.225 . S
Zn45 O44 1.953 1_545 S
Zn45 O46 1.949 1_655 S
Zn45 O52 1.919 . S
Zn45 O57 1.924 . S
O46 Zn45 1.949 1_455 S
O46 Zn47 1.923 . S
O46 Zn48 1.950 1_545 S
O46 Zn49 1.945 . S
Zn47 O46 1.923 . S
Zn47 O50 1.933 . S
Zn47 O53 1.941 . S
Zn47 O54 1.965 1_545 S
Zn48 O46 1.950 1_565 S
Zn48 O55 1.938 . S
Zn48 O56 1.906 . S
Zn48 O66 1.953 1_455 S
Zn49 O46 1.945 . S
Zn49 O51 1.932 . S
Zn49 O58 1.977 1_545 S
Zn49 O59 1.910 . S
O50 Zn47 1.933 . S
O50 C61 1.226 . S
O51 Zn49 1.932 . S
O51 C61 1.307 . S
O52 Zn45 1.919 . S
O52 C63 1.253 . S
O53 Zn47 1.941 . S
O53 C63 1.283 1_455 S
O54 Zn47 1.965 1_565 S
O54 C62 1.303 . S
O55 Zn48 1.938 . S
O55 C62 1.247 . S
O56 Zn48 1.906 . S
O56 C64 1.304 . S
O57 Zn45 1.924 . S
O57 C65 1.311 . S
O58 Zn49 1.977 1_565 S
O58 C64 1.272 . S
O59 Zn49 1.910 . S
O59 C65 1.231 1_455 S
C60 O44 1.225 . S
C60 O66 1.298 . S
C61 O50 1.226 . S
C61 O51 1.307 . S
C62 O54 1.303 . S
C62 O55 1.247 . S
C63 O52 1.253 . S
C63 O53 1.283 1_655 S
C64 O56 1.304 . S
C64 O58 1.272 . S
C65 O57 1.311 . S
C65 O59 1.231 1_655 S
O66 Zn48 1.953 1_655 S
O66 C60 1.298 . S
O67 Zn68 1.955 . S
O67 C83 1.230 . S
Zn68 O67 1.955 . S
Zn68 O69 1.949 . S
Zn68 O75 1.919 1_554 S
Zn68 O80 1.924 . S
O69 Zn68 1.949 . S
O69 Zn70 1.923 1_554 S
O69 Zn71 1.950 . S
O69 Zn72 1.945 . S
Zn70 O69 1.923 1_556 S
Zn70 O73 1.933 . S
Zn70 O76 1.941 . S
Zn70 O77 1.965 . S
Zn71 O69 1.950 . S
Zn71 O78 1.938 1_554 S
Zn71 O79 1.906 . S
Zn71 O89 1.953 . S
Zn72 O69 1.945 . S
Zn72 O74 1.932 . S
Zn72 O81 1.977 . S
Zn72 O82 1.910 . S
O73 Zn70 1.933 . S
O73 C84 1.226 1_556 S
O74 Zn72 1.932 . S
O74 C84 1.307 . S
O75 Zn68 1.919 1_556 S
O75 C86 1.253 . S
O76 Zn70 1.941 . S
O76 C86 1.283 . S
O77 Zn70 1.965 . S
O77 C85 1.303 . S
O78 Zn71 1.938 1_556 S
O78 C85 1.247 . S
O79 Zn71 1.906 . S
O79 C87 1.304 . S
O80 Zn68 1.924 . S
O80 C88 1.311 . S
O81 Zn72 1.977 . S
O81 C87 1.272 . S
O82 Zn72 1.910 . S
O82 C88 1.231 . S
C83 O67 1.230 . S
C83 O89 1.298 . S
C84 O73 1.226 1_554 S
C84 O74 1.307 . S
C85 O77 1.303 . S
C85 O78 1.247 . S
C86 O75 1.253 . S
C86 O76 1.283 . S
C87 O79 1.304 . S
C87 O81 1.272 . S
C88 O80 1.311 . S
C88 O82 1.231 . S
O89 Zn71 1.953 . S
O89 C83 1.298 . S
H90 C108 0.951 . S
H91 C110 0.951 . S
H92 C112 0.950 . S
H93 C113 0.950 . S
H94 C115 0.950 . S
H95 C118 0.950 . S
H96 C119 0.950 . S
H97 C121 0.950 . S
H98 C122 0.950 . S
H99 C123 0.951 . S
H100 C125 0.951 . S
H101 C127 0.950 . S
H102 C128 0.950 . S
H103 C130 0.950 . S
H104 C133 0.950 . S
H105 C134 0.950 . S
H106 C136 0.950 . S
H107 C137 0.950 . S
C108 H90 0.951 . S
C108 C109 1.366 . S
C108 C110 1.388 . S
C109 C108 1.366 . S
C109 C113 1.385 . S
C110 H91 0.951 . S
C110 C108 1.388 . S
C110 C111 1.366 . S
C111 C110 1.366 . S
C111 C112 1.414 . S
C111 C114 1.499 . S
C112 H92 0.950 . S
C112 C111 1.414 . S
C112 C113 1.374 . S
C113 H93 0.950 . S
C113 C109 1.385 . S
C113 C112 1.374 . S
C114 C111 1.499 . S
C114 C115 1.373 . S
C114 C116 1.389 . S
C115 H94 0.950 . S
C115 C114 1.373 . S
C115 C131 1.377 . S
C116 C114 1.389 . S
C116 C117 1.524 . S
C116 C130 1.377 . S
C117 C116 1.524 . S
C117 C118 1.397 . S
C117 C122 1.363 . S
C118 H95 0.950 . S
C118 C117 1.397 . S
C118 C119 1.334 . S
C119 H96 0.950 . S
C119 C118 1.334 . S
C119 C120 1.287 . S
C120 C119 1.287 . S
C120 C121 1.524 . S
C120 H139 0.913 . S
C121 H97 0.950 . S
C121 C120 1.524 . S
C121 C122 1.415 . S
C122 H98 0.950 . S
C122 C117 1.363 . S
C122 C121 1.415 . S
C123 H99 0.951 . S
C123 C124 1.366 . S
C123 C125 1.388 . S
C124 C123 1.366 . S
C124 C128 1.385 . S
C125 H100 0.951 . S
C125 C123 1.388 . S
C125 C126 1.366 . S
C126 C125 1.366 . S
C126 C127 1.414 . S
C126 C129 1.499 . S
C127 H101 0.950 . S
C127 C126 1.414 . S
C127 C128 1.374 . S
C128 H102 0.950 . S
C128 C124 1.385 . S
C128 C127 1.374 . S
C129 C126 1.499 . S
C129 C130 1.373 . S
C129 C131 1.389 . S
C130 H103 0.950 . S
C130 C116 1.377 . S
C130 C129 1.373 . S
C131 C115 1.377 . S
C131 C129 1.389 . S
C131 C132 1.524 . S
C132 C131 1.524 . S
C132 C133 1.397 . S
C132 C137 1.363 . S
C133 H104 0.950 . S
C133 C132 1.397 . S
C133 C134 1.334 . S
C134 H105 0.950 . S
C134 C133 1.334 . S
C134 C135 1.287 . S
C135 C134 1.287 . S
C135 C136 1.524 . S
C135 H138 0.999 . S
C136 H106 0.950 . S
C136 C135 1.524 . S
C136 C137 1.415 . S
C137 H107 0.950 . S
C137 C132 1.363 . S
C137 C136 1.415 . S
H138 C135 0.999 . S
H139 C120 0.913 . S
H140 C158 0.951 . S
H141 C160 0.951 . S
H142 C162 0.950 . S
H143 C163 0.950 . S
H144 C165 0.950 . S
H145 C168 0.950 . S
H146 C169 0.950 . S
H147 C171 0.950 . S
H148 C172 0.950 . S
H149 C173 0.951 . S
H150 C175 0.951 . S
H151 C177 0.950 . S
H152 C178 0.950 . S
H153 C180 0.950 . S
H154 C183 0.950 . S
H155 C184 0.950 . S
H156 C186 0.950 . S
H157 C187 0.950 . S
C158 H140 0.951 . S
C158 C159 1.366 . S
C158 C160 1.388 . S
C159 C158 1.366 . S
C159 C163 1.385 . S
C160 H141 0.951 . S
C160 C158 1.388 . S
C160 C161 1.366 . S
C161 C160 1.366 . S
C161 C162 1.414 . S
C161 C164 1.499 . S
C162 H142 0.950 . S
C162 C161 1.414 . S
C162 C163 1.374 . S
C163 H143 0.950 . S
C163 C159 1.385 . S
C163 C162 1.374 . S
C164 C161 1.499 . S
C164 C165 1.373 1_554 S
C164 C166 1.389 . S
C165 H144 0.950 . S
C165 C164 1.373 1_556 S
C165 C181 1.377 . S
C166 C164 1.389 . S
C166 C167 1.524 . S
C166 C180 1.377 . S
C167 C166 1.524 . S
C167 C168 1.397 . S
C167 C172 1.363 . S
C168 H145 0.950 . S
C168 C167 1.397 . S
C168 C169 1.334 . S
C169 H146 0.950 . S
C169 C168 1.334 . S
C169 C170 1.287 . S
C170 C169 1.287 . S
C170 C171 1.524 . S
C170 H189 0.913 . S
C171 H147 0.950 . S
C171 C170 1.524 . S
C171 C172 1.415 . S
C172 H148 0.950 . S
C172 C167 1.363 . S
C172 C171 1.415 . S
C173 H149 0.951 . S
C173 C174 1.366 . S
C173 C175 1.388 . S
C174 C173 1.366 . S
C174 C178 1.385 . S
C175 H150 0.951 . S
C175 C173 1.388 . S
C175 C176 1.366 . S
C176 C175 1.366 . S
C176 C177 1.414 . S
C176 C179 1.499 . S
C177 H151 0.950 . S
C177 C176 1.414 . S
C177 C178 1.374 . S
C178 H152 0.950 . S
C178 C174 1.385 . S
C178 C177 1.374 . S
C179 C176 1.499 . S
C179 C180 1.373 . S
C179 C181 1.389 1_554 S
C180 H153 0.950 . S
C180 C166 1.377 . S
C180 C179 1.373 . S
C181 C165 1.377 . S
C181 C179 1.389 1_556 S
C181 C182 1.524 . S
C182 C181 1.524 . S
C182 C183 1.397 . S
C182 C187 1.363 . S
C183 H154 0.950 . S
C183 C182 1.397 . S
C183 C184 1.334 . S
C184 H155 0.950 . S
C184 C183 1.334 . S
C184 C185 1.287 . S
C185 C184 1.287 . S
C185 C186 1.524 . S
C185 H188 0.999 . S
C186 H156 0.950 . S
C186 C185 1.524 . S
C186 C187 1.415 . S
C187 H157 0.950 . S
C187 C182 1.363 . S
C187 C186 1.415 . S
H188 C185 0.999 . S
H189 C170 0.913 . S
H190 C208 0.951 . S
H191 C210 0.951 . S
H192 C212 0.950 . S
H193 C213 0.950 . S
H194 C215 0.950 . S
H195 C218 0.950 . S
H196 C219 0.950 . S
H197 C221 0.950 . S
H198 C222 0.950 . S
H199 C223 0.951 . S
H200 C225 0.951 . S
H201 C227 0.950 . S
H202 C228 0.950 . S
H203 C230 0.950 . S
H204 C233 0.950 . S
H205 C234 0.950 . S
H206 C236 0.950 . S
H207 C237 0.950 . S
C208 H190 0.951 . S
C208 C209 1.366 . S
C208 C210 1.388 . S
C209 C208 1.366 . S
C209 C213 1.385 . S
C210 H191 0.951 . S
C210 C208 1.388 . S
C210 C211 1.366 . S
C211 C210 1.366 . S
C211 C212 1.414 . S
C211 C214 1.499 . S
C212 H192 0.950 . S
C212 C211 1.414 . S
C212 C213 1.374 . S
C213 H193 0.950 . S
C213 C209 1.385 . S
C213 C212 1.374 . S
C214 C211 1.499 . S
C214 C215 1.373 . S
C214 C216 1.389 . S
C215 H194 0.950 . S
C215 C214 1.373 . S
C215 C231 1.377 . S
C216 C214 1.389 . S
C216 C217 1.524 . S
C216 C230 1.377 . S
C217 C216 1.524 . S
C217 C218 1.397 . S
C217 C222 1.363 . S
C218 H195 0.950 . S
C218 C217 1.397 . S
C218 C219 1.334 . S
C219 H196 0.950 . S
C219 C218 1.334 . S
C219 C220 1.287 . S
C220 C219 1.287 . S
C220 C221 1.524 . S
C220 H239 0.913 . S
C221 H197 0.950 . S
C221 C220 1.524 . S
C221 C222 1.415 . S
C222 H198 0.950 . S
C222 C217 1.363 . S
C222 C221 1.415 . S
C223 H199 0.951 . S
C223 C224 1.366 . S
C223 C225 1.388 . S
C224 C223 1.366 . S
C224 C228 1.385 . S
C225 H200 0.951 . S
C225 C223 1.388 . S
C225 C226 1.366 . S
C226 C225 1.366 . S
C226 C227 1.414 . S
C226 C229 1.499 . S
C227 H201 0.950 . S
C227 C226 1.414 . S
C227 C228 1.374 . S
C228 H202 0.950 . S
C228 C224 1.385 . S
C228 C227 1.374 . S
C229 C226 1.499 . S
C229 C230 1.373 . S
C229 C231 1.389 . S
C230 H203 0.950 . S
C230 C216 1.377 . S
C230 C229 1.373 . S
C231 C215 1.377 . S
C231 C229 1.389 . S
C231 C232 1.524 . S
C232 C231 1.524 . S
C232 C233 1.397 . S
C232 C237 1.363 . S
C233 H204 0.950 . S
C233 C232 1.397 . S
C233 C234 1.334 . S
C234 H205 0.950 . S
C234 C233 1.334 . S
C234 C235 1.287 . S
C235 C234 1.287 . S
C235 C236 1.524 . S
C235 H238 0.999 . S
C236 H206 0.950 . S
C236 C235 1.524 . S
C236 C237 1.415 . S
C237 H207 0.950 . S
C237 C232 1.363 . S
C237 C236 1.415 . S
H238 C235 0.999 . S
H239 C220 0.913 . S
H240 C258 0.951 . S
H241 C260 0.951 . S
H242 C262 0.961 . S
H243 C263 0.950 . S
H244 C265 0.950 . S
H245 C268 0.950 . S
H246 C269 0.950 . S
H247 C271 0.950 . S
H248 C272 0.950 . S
H249 C273 0.951 . S
H250 C275 0.956 . S
H251 C277 0.950 . S
H252 C278 0.950 . S
H253 C280 0.950 . S
H254 C283 0.950 . S
H255 C284 0.950 . S
H256 C286 0.950 . S
H257 C287 0.950 . S
C258 H240 0.951 . S
C258 C259 1.366 . S
C258 C260 1.388 . S
C259 C258 1.366 . S
C259 C263 1.385 . S
C260 H241 0.951 . S
C260 C258 1.388 . S
C260 C261 1.366 . S
C261 C260 1.366 . S
C261 C262 1.414 . S
C261 C264 1.499 . S
C262 H242 0.961 . S
C262 C261 1.414 . S
C262 C263 1.374 . S
C263 H243 0.950 . S
C263 C259 1.385 . S
C263 C262 1.374 . S
C264 C261 1.499 . S
C264 C265 1.373 1_554 S
C264 C266 1.389 . S
C265 H244 0.950 . S
C265 C264 1.373 1_556 S
C265 C281 1.377 . S
C266 C264 1.389 . S
C266 C267 1.524 . S
C266 C280 1.377 . S
C267 C266 1.524 . S
C267 C268 1.397 . S
C267 C272 1.363 . S
C268 H245 0.950 . S
C268 C267 1.397 . S
C268 C269 1.334 . S
C269 H246 0.950 . S
C269 C268 1.334 . S
C269 C270 1.287 . S
C270 C269 1.287 . S
C270 C271 1.524 . S
C270 H289 0.913 . S
C271 H247 0.950 . S
C271 C270 1.524 . S
C271 C272 1.415 . S
C272 H248 0.950 . S
C272 C267 1.363 . S
C272 C271 1.415 . S
C273 H249 0.951 . S
C273 C274 1.366 1_556 S
C273 C275 1.388 . S
C274 C273 1.366 1_554 S
C274 C278 1.385 . S
C275 H250 0.956 . S
C275 C273 1.388 . S
C275 C276 1.361 1_556 S
C276 C275 1.361 1_554 S
C276 C277 1.414 . S
C276 C279 1.499 . S
C277 H251 0.950 . S
C277 C276 1.414 . S
C277 C278 1.374 . S
C278 H252 0.950 . S
C278 C274 1.385 . S
C278 C277 1.374 . S
C279 C276 1.499 . S
C279 C280 1.373 . S
C279 C281 1.389 1_554 S
C280 H253 0.950 . S
C280 C266 1.377 . S
C280 C279 1.373 . S
C281 C265 1.377 . S
C281 C279 1.389 1_556 S
C281 C282 1.524 . S
C282 C281 1.524 . S
C282 C283 1.397 . S
C282 C287 1.363 . S
C283 H254 0.950 . S
C283 C282 1.397 . S
C283 C284 1.334 . S
C284 H255 0.950 . S
C284 C283 1.334 . S
C284 C285 1.287 . S
C285 C284 1.287 . S
C285 C286 1.524 . S
C285 H288 0.999 . S
C286 H256 0.950 . S
C286 C285 1.524 . S
C286 C287 1.415 . S
C287 H257 0.950 . S
C287 C282 1.363 . S
C287 C286 1.415 . S
H288 C285 0.999 . S
H289 C270 0.913 . S
H290 C308 0.951 . S
H291 C310 0.951 . S
H292 C312 0.950 . S
H293 C313 0.950 . S
H294 C315 0.950 . S
H295 C318 0.950 . S
H296 C319 0.950 . S
H297 C321 0.950 . S
H298 C322 0.950 . S
H299 C323 0.951 . S
H300 C325 0.951 . S
H301 C327 0.950 . S
H302 C328 0.950 . S
H303 C330 0.950 . S
H304 C333 0.950 . S
H305 C334 0.950 . S
H306 C336 0.950 . S
H307 C337 0.950 . S
C308 H290 0.951 . S
C308 C309 1.366 . S
C308 C310 1.388 . S
C309 C308 1.366 . S
C309 C313 1.385 . S
C310 H291 0.951 . S
C310 C308 1.388 . S
C310 C311 1.366 . S
C311 C310 1.366 . S
C311 C312 1.414 . S
C311 C314 1.499 . S
C312 H292 0.950 . S
C312 C311 1.414 . S
C312 C313 1.374 . S
C313 H293 0.950 . S
C313 C309 1.385 . S
C313 C312 1.374 . S
C314 C311 1.499 . S
C314 C315 1.373 . S
C314 C316 1.389 . S
C315 H294 0.950 . S
C315 C314 1.373 . S
C315 C331 1.377 . S
C316 C314 1.389 . S
C316 C317 1.524 . S
C316 C330 1.377 . S
C317 C316 1.524 . S
C317 C318 1.397 . S
C317 C322 1.363 . S
C318 H295 0.950 . S
C318 C317 1.397 . S
C318 C319 1.334 . S
C319 H296 0.950 . S
C319 C318 1.334 . S
C319 C320 1.287 . S
C320 C319 1.287 . S
C320 C321 1.524 . S
C320 H339 0.913 . S
C321 H297 0.950 . S
C321 C320 1.524 . S
C321 C322 1.415 . S
C322 H298 0.950 . S
C322 C317 1.363 . S
C322 C321 1.415 . S
C323 H299 0.951 . S
C323 C324 1.366 . S
C323 C325 1.388 . S
C324 C323 1.366 . S
C324 C328 1.385 . S
C325 H300 0.951 . S
C325 C323 1.388 . S
C325 C326 1.366 . S
C326 C325 1.366 . S
C326 C327 1.414 . S
C326 C329 1.499 . S
C327 H301 0.950 . S
C327 C326 1.414 . S
C327 C328 1.374 . S
C328 H302 0.950 . S
C328 C324 1.385 . S
C328 C327 1.374 . S
C329 C326 1.499 . S
C329 C330 1.373 . S
C329 C331 1.389 . S
C330 H303 0.950 . S
C330 C316 1.377 . S
C330 C329 1.373 . S
C331 C315 1.377 . S
C331 C329 1.389 . S
C331 C332 1.524 . S
C332 C331 1.524 . S
C332 C333 1.397 . S
C332 C337 1.363 . S
C333 H304 0.950 . S
C333 C332 1.397 . S
C333 C334 1.334 . S
C334 H305 0.950 . S
C334 C333 1.334 . S
C334 C335 1.287 . S
C335 C334 1.287 . S
C335 C336 1.524 . S
C335 H338 0.999 1_565 S
C336 H306 0.950 . S
C336 C335 1.524 . S
C336 C337 1.415 . S
C337 H307 0.950 . S
C337 C332 1.363 . S
C337 C336 1.415 . S
H338 C335 0.999 1_545 S
H339 C320 0.913 . S
H340 C358 0.951 . S
H341 C360 0.951 . S
H342 C362 0.950 . S
H343 C363 0.950 . S
H344 C365 0.950 . S
H345 C368 0.950 . S
H346 C369 0.950 . S
H347 C371 0.950 . S
H348 C372 0.950 . S
H349 C373 0.951 . S
H350 C375 0.951 . S
H351 C377 0.950 . S
H352 C378 0.950 . S
H353 C380 0.950 . S
H354 C383 0.950 . S
H355 C384 0.950 . S
H356 C386 0.950 . S
H357 C387 0.950 . S
C358 H340 0.951 . S
C358 C359 1.366 . S
C358 C360 1.388 . S
C359 C358 1.366 . S
C359 C363 1.385 . S
C360 H341 0.951 . S
C360 C358 1.388 . S
C360 C361 1.366 . S
C361 C360 1.366 . S
C361 C362 1.414 . S
C361 C364 1.499 . S
C362 H342 0.950 . S
C362 C361 1.414 . S
C362 C363 1.374 . S
C363 H343 0.950 . S
C363 C359 1.385 . S
C363 C362 1.374 . S
C364 C361 1.499 . S
C364 C365 1.373 . S
C364 C366 1.389 . S
C365 H344 0.950 . S
C365 C364 1.373 . S
C365 C381 1.377 . S
C366 C364 1.389 . S
C366 C367 1.524 . S
C366 C380 1.377 . S
C367 C366 1.524 . S
C367 C368 1.397 . S
C367 C372 1.363 . S
C368 H345 0.950 . S
C368 C367 1.397 . S
C368 C369 1.334 . S
C369 H346 0.950 . S
C369 C368 1.334 . S
C369 C370 1.287 . S
C370 C369 1.287 . S
C370 C371 1.524 . S
C370 H389 0.913 . S
C371 H347 0.950 . S
C371 C370 1.524 . S
C371 C372 1.415 . S
C372 H348 0.950 . S
C372 C367 1.363 . S
C372 C371 1.415 . S
C373 H349 0.951 . S
C373 C374 1.366 . S
C373 C375 1.388 . S
C374 C373 1.366 . S
C374 C378 1.385 . S
C375 H350 0.951 . S
C375 C373 1.388 . S
C375 C376 1.366 . S
C376 C375 1.366 . S
C376 C377 1.414 . S
C376 C379 1.499 . S
C377 H351 0.950 . S
C377 C376 1.414 . S
C377 C378 1.374 . S
C378 H352 0.950 . S
C378 C374 1.385 . S
C378 C377 1.374 . S
C379 C376 1.499 . S
C379 C380 1.373 . S
C379 C381 1.389 . S
C380 H353 0.950 . S
C380 C366 1.377 . S
C380 C379 1.373 . S
C381 C365 1.377 . S
C381 C379 1.389 . S
C381 C382 1.524 . S
C382 C381 1.524 . S
C382 C383 1.397 . S
C382 C387 1.363 . S
C383 H354 0.950 . S
C383 C382 1.397 . S
C383 C384 1.334 . S
C384 H355 0.950 . S
C384 C383 1.334 . S
C384 C385 1.287 . S
C385 C384 1.287 . S
C385 C386 1.524 . S
C385 H388 0.999 . S
C386 H356 0.950 . S
C386 C385 1.524 . S
C386 C387 1.415 . S
C387 H357 0.950 . S
C387 C382 1.363 . S
C387 C386 1.415 . S
H388 C385 0.999 . S
H389 C370 0.913 . S
H390 C408 0.951 . S
H391 C410 0.951 . S
H392 C412 0.950 . S
H393 C413 0.950 . S
H394 C415 0.950 . S
H395 C418 0.950 . S
H396 C419 0.950 . S
H397 C421 0.950 . S
H398 C422 0.950 . S
H399 C423 0.951 . S
H400 C425 0.951 . S
H401 C427 0.950 . S
H402 C428 0.950 . S
H403 C430 0.950 . S
H404 C433 0.950 . S
H405 C434 0.950 . S
H406 C436 0.950 . S
H407 C437 0.950 . S
C408 H390 0.951 . S
C408 C409 1.366 . S
C408 C410 1.388 . S
C409 C408 1.366 . S
C409 C413 1.385 . S
C410 H391 0.951 . S
C410 C408 1.388 . S
C410 C411 1.366 . S
C411 C410 1.366 . S
C411 C412 1.414 . S
C411 C414 1.499 . S
C412 H392 0.950 . S
C412 C411 1.414 . S
C412 C413 1.374 . S
C413 H393 0.950 . S
C413 C409 1.385 . S
C413 C412 1.374 . S
C414 C411 1.499 . S
C414 C415 1.373 . S
C414 C416 1.389 . S
C415 H394 0.950 . S
C415 C414 1.373 . S
C415 C431 1.377 . S
C416 C414 1.389 . S
C416 C417 1.524 . S
C416 C430 1.377 . S
C417 C416 1.524 . S
C417 C418 1.397 . S
C417 C422 1.363 . S
C418 H395 0.950 . S
C418 C417 1.397 . S
C418 C419 1.334 . S
C419 H396 0.950 . S
C419 C418 1.334 . S
C419 C420 1.287 . S
C420 C419 1.287 . S
C420 C421 1.524 . S
C420 H439 0.913 . S
C421 H397 0.950 . S
C421 C420 1.524 . S
C421 C422 1.415 . S
C422 H398 0.950 . S
C422 C417 1.363 . S
C422 C421 1.415 . S
C423 H399 0.951 . S
C423 C424 1.366 . S
C423 C425 1.388 . S
C424 C423 1.366 . S
C424 C428 1.385 . S
C425 H400 0.951 . S
C425 C423 1.388 . S
C425 C426 1.366 . S
C426 C425 1.366 . S
C426 C427 1.414 . S
C426 C429 1.499 . S
C427 H401 0.950 . S
C427 C426 1.414 . S
C427 C428 1.374 . S
C428 H402 0.950 . S
C428 C424 1.385 . S
C428 C427 1.374 . S
C429 C426 1.499 . S
C429 C430 1.373 . S
C429 C431 1.389 . S
C430 H403 0.950 . S
C430 C416 1.377 . S
C430 C429 1.373 . S
C431 C415 1.377 . S
C431 C429 1.389 . S
C431 C432 1.524 . S
C432 C431 1.524 . S
C432 C433 1.397 . S
C432 C437 1.363 . S
C433 H404 0.950 . S
C433 C432 1.397 . S
C433 C434 1.334 . S
C434 H405 0.950 . S
C434 C433 1.334 . S
C434 C435 1.287 . S
C435 C434 1.287 . S
C435 C436 1.524 . S
C435 H438 0.999 . S
C436 H406 0.950 . S
C436 C435 1.524 . S
C436 C437 1.415 . S
C437 H407 0.950 . S
C437 C432 1.363 . S
C437 C436 1.415 . S
H438 C435 0.999 . S
H439 C420 0.913 . S
H440 C458 0.951 . S
H441 C460 0.951 . S
H442 C462 0.950 . S
H443 C463 0.950 . S
H444 C465 0.950 . S
H445 C468 0.950 . S
H446 C469 0.950 . S
H447 C471 0.950 . S
H448 C472 0.950 . S
H449 C473 0.951 . S
H450 C475 0.951 . S
H451 C477 0.950 . S
H452 C478 0.950 . S
H453 C480 0.950 . S
H454 C483 0.950 . S
H455 C484 0.950 . S
H456 C486 0.950 . S
H457 C487 0.950 . S
C458 H440 0.951 . S
C458 C459 1.366 . S
C458 C460 1.388 . S
C459 C458 1.366 . S
C459 C463 1.385 . S
C460 H441 0.951 . S
C460 C458 1.388 . S
C460 C461 1.366 . S
C461 C460 1.366 . S
C461 C462 1.414 . S
C461 C464 1.499 . S
C462 H442 0.950 . S
C462 C461 1.414 . S
C462 C463 1.374 . S
C463 H443 0.950 . S
C463 C459 1.385 . S
C463 C462 1.374 . S
C464 C461 1.499 . S
C464 C465 1.373 . S
C464 C466 1.389 . S
C465 H444 0.950 . S
C465 C464 1.373 . S
C465 C481 1.377 . S
C466 C464 1.389 . S
C466 C467 1.524 . S
C466 C480 1.377 . S
C467 C466 1.524 . S
C467 C468 1.397 . S
C467 C472 1.363 . S
C468 H445 0.950 . S
C468 C467 1.397 . S
C468 C469 1.334 . S
C469 H446 0.950 . S
C469 C468 1.334 . S
C469 C470 1.287 . S
C470 C469 1.287 . S
C470 C471 1.524 . S
C470 H489 0.913 . S
C471 H447 0.950 . S
C471 C470 1.524 . S
C471 C472 1.415 . S
C472 H448 0.950 . S
C472 C467 1.363 . S
C472 C471 1.415 . S
C473 H449 0.951 . S
C473 C474 1.366 . S
C473 C475 1.388 . S
C474 C473 1.366 . S
C474 C478 1.385 . S
C475 H450 0.951 . S
C475 C473 1.388 . S
C475 C476 1.366 . S
C476 C475 1.366 . S
C476 C477 1.414 . S
C476 C479 1.499 . S
C477 H451 0.950 . S
C477 C476 1.414 . S
C477 C478 1.374 . S
C478 H452 0.950 . S
C478 C474 1.385 . S
C478 C477 1.374 . S
C479 C476 1.499 . S
C479 C480 1.373 . S
C479 C481 1.389 . S
C480 H453 0.950 . S
C480 C466 1.377 . S
C480 C479 1.373 . S
C481 C465 1.377 . S
C481 C479 1.389 . S
C481 C482 1.524 . S
C482 C481 1.524 . S
C482 C483 1.397 . S
C482 C487 1.363 . S
C483 H454 0.950 . S
C483 C482 1.397 . S
C483 C484 1.334 . S
C484 H455 0.950 . S
C484 C483 1.334 . S
C484 C485 1.287 . S
C485 C484 1.287 . S
C485 C486 1.524 . S
C485 H488 0.999 . S
C486 H456 0.950 . S
C486 C485 1.524 . S
C486 C487 1.415 . S
C487 H457 0.950 . S
C487 C482 1.363 . S
C487 C486 1.415 . S
H488 C485 0.999 . S
H489 C470 0.913 . S
H490 C508 0.951 . S
H491 C510 0.951 . S
H492 C512 0.950 . S
H493 C513 0.950 . S
H494 C515 0.950 . S
H495 C518 0.950 . S
H496 C519 0.950 . S
H497 C521 0.950 . S
H498 C522 0.950 . S
H499 C523 0.951 . S
H500 C525 0.951 . S
H501 C527 0.950 . S
H502 C528 0.950 . S
H503 C530 0.950 . S
H504 C533 0.950 . S
H505 C534 0.950 . S
H506 C536 0.950 . S
H507 C537 0.950 . S
C508 H490 0.951 . S
C508 C509 1.366 . S
C508 C510 1.388 . S
C509 C508 1.366 . S
C509 C513 1.385 . S
C510 H491 0.951 . S
C510 C508 1.388 . S
C510 C511 1.366 . S
C511 C510 1.366 . S
C511 C512 1.414 . S
C511 C514 1.499 . S
C512 H492 0.950 . S
C512 C511 1.414 . S
C512 C513 1.374 . S
C513 H493 0.950 . S
C513 C509 1.385 . S
C513 C512 1.374 . S
C514 C511 1.499 . S
C514 C515 1.373 . S
C514 C516 1.389 . S
C515 H494 0.950 . S
C515 C514 1.373 . S
C515 C531 1.377 . S
C516 C514 1.389 . S
C516 C517 1.524 . S
C516 C530 1.377 . S
C517 C516 1.524 . S
C517 C518 1.397 . S
C517 C522 1.363 . S
C518 H495 0.950 . S
C518 C517 1.397 . S
C518 C519 1.334 . S
C519 H496 0.950 . S
C519 C518 1.334 . S
C519 C520 1.287 . S
C520 C519 1.287 . S
C520 C521 1.524 . S
C520 H539 0.913 . S
C521 H497 0.950 . S
C521 C520 1.524 . S
C521 C522 1.415 . S
C522 H498 0.950 . S
C522 C517 1.363 . S
C522 C521 1.415 . S
C523 H499 0.951 . S
C523 C524 1.366 . S
C523 C525 1.388 . S
C524 C523 1.366 . S
C524 C528 1.385 . S
C525 H500 0.951 . S
C525 C523 1.388 . S
C525 C526 1.366 . S
C526 C525 1.366 . S
C526 C527 1.414 . S
C526 C529 1.499 . S
C527 H501 0.950 . S
C527 C526 1.414 . S
C527 C528 1.374 . S
C528 H502 0.950 . S
C528 C524 1.385 . S
C528 C527 1.374 . S
C529 C526 1.499 . S
C529 C530 1.373 . S
C529 C531 1.389 . S
C530 H503 0.950 . S
C530 C516 1.377 . S
C530 C529 1.373 . S
C531 C515 1.377 . S
C531 C529 1.389 . S
C531 C532 1.524 . S
C532 C531 1.524 . S
C532 C533 1.397 . S
C532 C537 1.363 . S
C533 H504 0.950 . S
C533 C532 1.397 . S
C533 C534 1.334 . S
C534 H505 0.950 . S
C534 C533 1.334 . S
C534 C535 1.287 . S
C535 C534 1.287 . S
C535 C536 1.524 . S
C535 H538 0.999 . S
C536 H506 0.950 . S
C536 C535 1.524 . S
C536 C537 1.415 . S
C537 H507 0.950 . S
C537 C532 1.363 . S
C537 C536 1.415 . S
H538 C535 0.999 . S
H539 C520 0.913 . S
H540 C558 0.951 . S
H541 C560 0.951 . S
H542 C562 0.950 . S
H543 C563 0.950 . S
H544 C565 0.950 . S
H545 C568 0.950 . S
H546 C569 0.950 . S
H547 C571 0.950 . S
H548 C572 0.950 . S
H549 C573 0.951 1_455 S
H550 C575 0.951 . S
H551 C577 0.950 . S
H552 C578 0.950 . S
H553 C580 0.950 . S
H554 C583 0.950 . S
H555 C584 0.950 . S
H556 C586 0.950 . S
H557 C587 0.950 . S
C558 H540 0.951 . S
C558 C559 1.366 . S
C558 C560 1.388 . S
C559 C558 1.366 . S
C559 C563 1.385 . S
C560 H541 0.951 . S
C560 C558 1.388 . S
C560 C561 1.366 . S
C561 C560 1.366 . S
C561 C562 1.414 . S
C561 C564 1.499 . S
C562 H542 0.950 . S
C562 C561 1.414 . S
C562 C563 1.374 . S
C563 H543 0.950 . S
C563 C559 1.385 . S
C563 C562 1.374 . S
C564 C561 1.499 . S
C564 C565 1.373 . S
C564 C566 1.389 . S
C565 H544 0.950 . S
C565 C564 1.373 . S
C565 C581 1.377 . S
C566 C564 1.389 . S
C566 C567 1.524 . S
C566 C580 1.377 . S
C567 C566 1.524 . S
C567 C568 1.397 . S
C567 C572 1.363 . S
C568 H545 0.950 . S
C568 C567 1.397 . S
C568 C569 1.334 . S
C569 H546 0.950 . S
C569 C568 1.334 . S
C569 C570 1.287 . S
C570 C569 1.287 . S
C570 C571 1.524 . S
C570 H589 0.913 . S
C571 H547 0.950 . S
C571 C570 1.524 . S
C571 C572 1.415 . S
C572 H548 0.950 . S
C572 C567 1.363 . S
C572 C571 1.415 . S
C573 H549 0.951 1_655 S
C573 C574 1.366 . S
C573 C575 1.388 . S
C574 C573 1.366 . S
C574 C578 1.385 . S
C575 H550 0.951 . S
C575 C573 1.388 . S
C575 C576 1.366 . S
C576 C575 1.366 . S
C576 C577 1.414 . S
C576 C579 1.499 . S
C577 H551 0.950 . S
C577 C576 1.414 . S
C577 C578 1.374 . S
C578 H552 0.950 . S
C578 C574 1.385 . S
C578 C577 1.374 . S
C579 C576 1.499 . S
C579 C580 1.373 . S
C579 C581 1.389 . S
C580 H553 0.950 . S
C580 C566 1.377 . S
C580 C579 1.373 . S
C581 C565 1.377 . S
C581 C579 1.389 . S
C581 C582 1.524 . S
C582 C581 1.524 . S
C582 C583 1.397 . S
C582 C587 1.363 . S
C583 H554 0.950 . S
C583 C582 1.397 . S
C583 C584 1.334 . S
C584 H555 0.950 . S
C584 C583 1.334 . S
C584 C585 1.287 . S
C585 C584 1.287 . S
C585 C586 1.524 . S
C585 H588 0.999 . S
C586 H556 0.950 . S
C586 C585 1.524 . S
C586 C587 1.415 . S
C587 H557 0.950 . S
C587 C582 1.363 . S
C587 C586 1.415 . S
H588 C585 0.999 . S
H589 C570 0.913 . S
H590 C608 0.951 . S
H591 C610 0.951 . S
H592 C612 0.950 . S
H593 C613 0.950 . S
H594 C615 0.950 . S
H595 C618 0.950 . S
H596 C619 0.950 . S
H597 C621 0.950 . S
H598 C622 0.950 . S
H599 C623 0.951 . S
H600 C625 0.951 . S
H601 C627 0.950 . S
H602 C628 0.950 . S
H603 C630 0.950 . S
H604 C633 0.950 . S
H605 C634 0.950 . S
H606 C636 0.950 . S
H607 C637 0.950 . S
C608 H590 0.951 . S
C608 C609 1.366 . S
C608 C610 1.388 . S
C609 C608 1.366 . S
C609 C613 1.385 . S
C610 H591 0.951 . S
C610 C608 1.388 . S
C610 C611 1.366 . S
C611 C610 1.366 . S
C611 C612 1.414 . S
C611 C614 1.499 . S
C612 H592 0.950 . S
C612 C611 1.414 . S
C612 C613 1.374 . S
C613 H593 0.950 . S
C613 C609 1.385 . S
C613 C612 1.374 . S
C614 C611 1.499 . S
C614 C615 1.373 . S
C614 C616 1.389 . S
C615 H594 0.950 . S
C615 C614 1.373 . S
C615 C631 1.377 . S
C616 C614 1.389 . S
C616 C617 1.524 . S
C616 C630 1.377 . S
C617 C616 1.524 . S
C617 C618 1.397 . S
C617 C622 1.363 . S
C618 H595 0.950 . S
C618 C617 1.397 . S
C618 C619 1.334 . S
C619 H596 0.950 . S
C619 C618 1.334 . S
C619 C620 1.287 . S
C620 C619 1.287 . S
C620 C621 1.524 . S
C620 H639 0.913 . S
C621 H597 0.950 . S
C621 C620 1.524 . S
C621 C622 1.415 . S
C622 H598 0.950 . S
C622 C617 1.363 . S
C622 C621 1.415 . S
C623 H599 0.951 . S
C623 C624 1.366 . S
C623 C625 1.388 . S
C624 C623 1.366 . S
C624 C628 1.385 . S
C625 H600 0.951 . S
C625 C623 1.388 . S
C625 C626 1.366 . S
C626 C625 1.366 . S
C626 C627 1.414 . S
C626 C629 1.499 . S
C627 H601 0.950 . S
C627 C626 1.414 . S
C627 C628 1.374 . S
C628 H602 0.950 . S
C628 C624 1.385 . S
C628 C627 1.374 . S
C629 C626 1.499 . S
C629 C630 1.373 . S
C629 C631 1.389 . S
C630 H603 0.950 . S
C630 C616 1.377 . S
C630 C629 1.373 . S
C631 C615 1.377 . S
C631 C629 1.389 . S
C631 C632 1.524 . S
C632 C631 1.524 . S
C632 C633 1.397 . S
C632 C637 1.363 . S
C633 H604 0.950 . S
C633 C632 1.397 . S
C633 C634 1.334 . S
C634 H605 0.950 . S
C634 C633 1.334 . S
C634 C635 1.287 . S
C635 C634 1.287 . S
C635 C636 1.524 . S
C635 H638 0.999 . S
C636 H606 0.950 . S
C636 C635 1.524 . S
C636 C637 1.415 . S
C637 H607 0.950 . S
C637 C632 1.363 . S
C637 C636 1.415 . S
H638 C635 0.999 . S
H639 C620 0.913 . S
H640 C658 0.951 . S
H641 C660 0.951 . S
H642 C662 0.950 . S
H643 C663 0.950 . S
H644 C665 0.950 . S
H645 C668 0.950 . S
H646 C669 0.950 . S
H647 C671 0.950 . S
H648 C672 0.950 . S
H649 C673 0.951 . S
H650 C675 0.951 . S
H651 C677 0.950 . S
H652 C678 0.950 . S
H653 C680 0.950 . S
H654 C683 0.950 . S
H655 C684 0.950 . S
H656 C686 0.950 . S
H657 C687 0.950 . S
C658 H640 0.951 . S
C658 C659 1.366 . S
C658 C660 1.388 . S
C659 C658 1.366 . S
C659 C663 1.385 . S
C660 H641 0.951 . S
C660 C658 1.388 . S
C660 C661 1.366 . S
C661 C660 1.366 . S
C661 C662 1.414 . S
C661 C664 1.499 . S
C662 H642 0.950 . S
C662 C661 1.414 . S
C662 C663 1.374 . S
C663 H643 0.950 . S
C663 C659 1.385 . S
C663 C662 1.374 . S
C664 C661 1.499 . S
C664 C665 1.373 . S
C664 C666 1.389 . S
C665 H644 0.950 . S
C665 C664 1.373 . S
C665 C681 1.377 . S
C666 C664 1.389 . S
C666 C667 1.524 . S
C666 C680 1.377 . S
C667 C666 1.524 . S
C667 C668 1.397 . S
C667 C672 1.363 . S
C668 H645 0.950 . S
C668 C667 1.397 . S
C668 C669 1.334 . S
C669 H646 0.950 . S
C669 C668 1.334 . S
C669 C670 1.287 . S
C670 C669 1.287 . S
C670 C671 1.524 . S
C670 H689 0.913 . S
C671 H647 0.950 . S
C671 C670 1.524 . S
C671 C672 1.415 . S
C672 H648 0.950 . S
C672 C667 1.363 . S
C672 C671 1.415 . S
C673 H649 0.951 . S
C673 C674 1.366 . S
C673 C675 1.388 . S
C674 C673 1.366 . S
C674 C678 1.385 . S
C675 H650 0.951 . S
C675 C673 1.388 . S
C675 C676 1.366 . S
C676 C675 1.366 . S
C676 C677 1.414 . S
C676 C679 1.499 . S
C677 H651 0.950 . S
C677 C676 1.414 . S
C677 C678 1.374 . S
C678 H652 0.950 . S
C678 C674 1.385 . S
C678 C677 1.374 . S
C679 C676 1.499 . S
C679 C680 1.373 . S
C679 C681 1.389 . S
C680 H653 0.950 . S
C680 C666 1.377 . S
C680 C679 1.373 . S
C681 C665 1.377 . S
C681 C679 1.389 . S
C681 C682 1.524 . S
C682 C681 1.524 . S
C682 C683 1.397 . S
C682 C687 1.363 . S
C683 H654 0.950 . S
C683 C682 1.397 . S
C683 C684 1.334 . S
C684 H655 0.950 . S
C684 C683 1.334 . S
C684 C685 1.287 . S
C685 C684 1.287 . S
C685 C686 1.524 . S
C685 H688 0.999 . S
C686 H656 0.950 . S
C686 C685 1.524 . S
C686 C687 1.415 . S
C687 H657 0.950 . S
C687 C682 1.363 . S
C687 C686 1.415 . S
H688 C685 0.999 . S
H689 C670 0.913 . S
C124 C61 1.518 . S
C109 C41 1.496 . S
C159 C8 1.487 . S
C174 C84 1.508 . S
C209 C19 1.524 . S
C224 C60 1.548 . S
C259 C30 1.558 . S
C274 C83 1.558 . S
C324 C64 1.507 . S
C309 C5 1.273 . S
C374 C86 1.616 . S
C359 C18 1.630 . S
C409 C29 1.566 . S
C424 C65 1.527 . S
C459 C40 1.594 . S
C474 C85 1.591 . S
C524 C88 1.316 . S
C509 C16 1.120 . S
C574 C63 1.389 . S
C559 C27 1.276 . S
C624 C87 1.293 . S
C609 C38 1.097 . S
C659 C7 1.377 . S
C674 C62 1.370 . S
