# Generated by pormake.
# Topology pyr, (3,6)-cn, num edge types: 1
# Building blocks:
#     Node 0, Type 0, BuildingBlock: OLANEW_clean_sbu_2, # of connection points: 3
#     Node 1, Type 0, BuildingBlock: OLANEW_clean_sbu_2, # of connection points: 3
#     Node 2, Type 0, BuildingBlock: OLANEW_clean_sbu_2, # of connection points: 3
#     Node 3, Type 0, BuildingBlock: OLANEW_clean_sbu_2, # of connection points: 3
#     Node 4, Type 0, BuildingBlock: OLANEW_clean_sbu_2, # of connection points: 3
#     Node 5, Type 0, BuildingBlock: OLANEW_clean_sbu_2, # of connection points: 3
#     Node 6, Type 0, BuildingBlock: OLANEW_clean_sbu_2, # of connection points: 3
#     Node 7, Type 0, BuildingBlock: OLANEW_clean_sbu_2, # of connection points: 3
#     Node 8, Type 1, BuildingBlock: MIDCAF_clean_sbu_0, # of connection points: 6
#     Node 9, Type 1, BuildingBlock: MIDCAF_clean_sbu_0, # of connection points: 6
#     Node 10, Type 1, BuildingBlock: MIDCAF_clean_sbu_0, # of connection points: 6
#     Node 11, Type 1, BuildingBlock: MIDCAF_clean_sbu_0, # of connection points: 6
#     Edge 12, Type (0, 1), BuildingBlock: ZUJKAS_clean_linker_0, # of connection points: 2
#     Edge 13, Type (0, 1), BuildingBlock: ZUJKAS_clean_linker_0, # of connection points: 2
#     Edge 14, Type (0, 1), BuildingBlock: ZUJKAS_clean_linker_0, # of connection points: 2
#     Edge 15, Type (0, 1), BuildingBlock: ZUJKAS_clean_linker_0, # of connection points: 2
#     Edge 16, Type (0, 1), BuildingBlock: ZUJKAS_clean_linker_0, # of connection points: 2
#     Edge 17, Type (0, 1), BuildingBlock: ZUJKAS_clean_linker_0, # of connection points: 2
#     Edge 18, Type (0, 1), BuildingBlock: ZUJKAS_clean_linker_0, # of connection points: 2
#     Edge 19, Type (0, 1), BuildingBlock: ZUJKAS_clean_linker_0, # of connection points: 2
#     Edge 20, Type (0, 1), BuildingBlock: ZUJKAS_clean_linker_0, # of connection points: 2
#     Edge 21, Type (0, 1), BuildingBlock: ZUJKAS_clean_linker_0, # of connection points: 2
#     Edge 22, Type (0, 1), BuildingBlock: ZUJKAS_clean_linker_0, # of connection points: 2
#     Edge 23, Type (0, 1), BuildingBlock: ZUJKAS_clean_linker_0, # of connection points: 2
#     Edge 24, Type (0, 1), BuildingBlock: ZUJKAS_clean_linker_0, # of connection points: 2
#     Edge 25, Type (0, 1), BuildingBlock: ZUJKAS_clean_linker_0, # of connection points: 2
#     Edge 26, Type (0, 1), BuildingBlock: ZUJKAS_clean_linker_0, # of connection points: 2
#     Edge 27, Type (0, 1), BuildingBlock: ZUJKAS_clean_linker_0, # of connection points: 2
#     Edge 28, Type (0, 1), BuildingBlock: ZUJKAS_clean_linker_0, # of connection points: 2
#     Edge 29, Type (0, 1), BuildingBlock: ZUJKAS_clean_linker_0, # of connection points: 2
#     Edge 30, Type (0, 1), BuildingBlock: ZUJKAS_clean_linker_0, # of connection points: 2
#     Edge 31, Type (0, 1), BuildingBlock: ZUJKAS_clean_linker_0, # of connection points: 2
#     Edge 32, Type (0, 1), BuildingBlock: ZUJKAS_clean_linker_0, # of connection points: 2
#     Edge 33, Type (0, 1), BuildingBlock: ZUJKAS_clean_linker_0, # of connection points: 2
#     Edge 34, Type (0, 1), BuildingBlock: ZUJKAS_clean_linker_0, # of connection points: 2
#     Edge 35, Type (0, 1), BuildingBlock: ZUJKAS_clean_linker_0, # of connection points: 2
# Relax obj value: 0.070
# Max RMSD: 0.158
# Mean RMSD: 0.121
data_MOF--net-pry--node1-OLANEW_clean_sbu_2--node2-MIDCAF_clean_sbu_0--edge1-ZUJKAS_clean_linker_0
_symmetry_space_group_name_H-M    P1
_symmetry_Int_Tables_number       1
_symmetry_cell_setting            triclinic
loop_
_symmetry_equiv_pos_as_xyz
'x, y, z'
_cell_length_a     48.549955
_cell_length_b     48.689361
_cell_length_c     47.85709
_cell_angle_alpha  93.987527
_cell_angle_beta   89.141086
_cell_angle_gamma 95.24069
loop_
_atom_site_label
_atom_site_type_symbol
_atom_site_fract_x
_atom_site_fract_y
_atom_site_fract_z
_atom_type_partial_charge
O0 O 0.27637 0.22077 0.24223 0.0
Cd1 Cd 0.23896 0.24781 0.2605 0.0
O2 O 0.27307 0.19133 0.27543 0.0
Cd3 Cd 0.23816 0.20645 0.29966 0.0
O4 O 0.20739 0.20144 0.3335 0.0
C5 C 0.19845 0.1766 0.3373 0.0
O6 O 0.20732 0.15672 0.32048 0.0
C7 C 0.28471 0.2 0.25329 0.0
C8 C 0.22074 0.28364 0.22257 0.0
O9 O 0.24149 0.29107 0.23847 0.0
O10 O 0.20884 0.2592 0.22429 0.0
O11 O 0.32843 0.79289 0.81902 0.0
Cd12 Cd 0.30006 0.76493 0.78376 0.0
O13 O 0.29423 0.81904 0.82227 0.0
Cd14 Cd 0.26916 0.85365 0.83252 0.0
O15 O 0.23372 0.8755 0.82178 0.0
C16 C 0.23615 0.90044 0.81514 0.0
O17 O 0.2606 0.91443 0.81652 0.0
C18 C 0.31808 0.8141 0.8302 0.0
C19 C 0.32962 0.73057 0.74779 0.0
O20 O 0.32648 0.75539 0.74199 0.0
O21 O 0.31908 0.72217 0.77075 0.0
O22 O 0.78503 0.3334 0.80003 0.0
Cd23 Cd 0.74108 0.30908 0.78351 0.0
O24 O 0.78419 0.29903 0.82684 0.0
Cd25 Cd 0.79181 0.26911 0.85745 0.0
O26 O 0.77786 0.23273 0.88009 0.0
C27 C 0.7736 0.2343 0.9064 0.0
O28 O 0.77948 0.25809 0.9207 0.0
C29 C 0.79624 0.32173 0.81934 0.0
C30 C 0.71271 0.33399 0.74321 0.0
O31 O 0.71056 0.34143 0.76932 0.0
O32 O 0.72883 0.31523 0.73604 0.0
O33 O 0.87404 0.80644 0.29098 0.0
Cd34 Cd 0.85526 0.776 0.25157 0.0
O35 O 0.84494 0.78038 0.31495 0.0
Cd36 Cd 0.82212 0.76205 0.34981 0.0
O37 O 0.79246 0.73553 0.37279 0.0
C38 C 0.76685 0.73827 0.3703 0.0
O39 O 0.75932 0.7576 0.35494 0.0
C40 C 0.86301 0.801 0.31446 0.0
C41 C 0.89189 0.74344 0.22211 0.0
O42 O 0.88579 0.76624 0.21295 0.0
O43 O 0.88135 0.73647 0.24559 0.0
O44 O 0.98578 0.91067 0.94465 0.0
Cd45 Cd 0.98109 0.89836 0.99338 0.0
O46 O 0.94676 0.92963 0.95019 0.0
Cd47 Cd 0.91264 0.95416 0.94118 0.0
O48 O 0.87593 0.97647 0.95012 0.0
C49 C 0.8525 0.96725 0.94018 0.0
O50 O 0.85081 0.94478 0.92318 0.0
C51 C 0.96715 0.92375 0.9346 0.0
C52 C 0.99137 0.84389 0.00104 0.0
O53 O 0.96688 0.85008 0.99612 0.0
O54 O 0.01099 0.86342 0.00206 0.0
O55 O 0.60581 0.03584 0.41205 0.0
Cd56 Cd 0.62073 0.02419 0.45794 0.0
O57 O 0.60215 0.07773 0.43048 0.0
Cd58 Cd 0.5962 0.12185 0.43262 0.0
O59 O 0.59533 0.16565 0.44591 0.0
C60 C 0.57481 0.17363 0.46003 0.0
O61 O 0.55415 0.15539 0.46557 0.0
C62 C 0.59972 0.06036 0.40935 0.0
C63 C 0.67635 0.01428 0.46 0.0
O64 O 0.65751 0.99418 0.45633 0.0
O65 O 0.6689 0.03893 0.46223 0.0
O66 O 0.51984 0.67607 0.11934 0.0
Cd67 Cd 0.53131 0.63109 0.13314 0.0
O68 O 0.4766 0.65961 0.12173 0.0
Cd69 Cd 0.43164 0.65466 0.11711 0.0
O70 O 0.38987 0.63387 0.11321 0.0
C71 C 0.38688 0.60788 0.11543 0.0
O72 O 0.40876 0.59495 0.12023 0.0
C73 C 0.49442 0.67938 0.11625 0.0
C74 C 0.53344 0.62588 0.19073 0.0
O75 O 0.55547 0.63236 0.17666 0.0
O76 O 0.51038 0.6225 0.17768 0.0
O77 O 0.0931 0.50468 0.6571 0.0
Cd78 Cd 0.1108 0.51658 0.61105 0.0
O79 O 0.10431 0.46294 0.64607 0.0
Cd80 Cd 0.11129 0.41926 0.64678 0.0
O81 O 0.11266 0.37513 0.636 0.0
C82 C 0.09553 0.36405 0.61781 0.0
O83 O 0.07825 0.37953 0.6069 0.0
C84 C 0.09393 0.47995 0.66376 0.0
C85 C 0.16806 0.51554 0.60661 0.0
O86 O 0.15724 0.53807 0.61373 0.0
O87 O 0.15181 0.49352 0.60174 0.0
Zn88 Zn 0.96857 0.047 0.61674 0.0
Zn89 Zn 0.04361 0.98587 0.56271 0.0
Zn90 Zn 0.00479 0.01517 0.5892 0.0
C91 C 0.05597 0.04113 0.55109 0.0
C92 C 0.99112 0.96774 0.53943 0.0
O93 O 0.00398 0.00651 0.63418 0.0
O94 O 0.97595 0.03543 0.65469 0.0
C95 C 0.00823 0.08259 0.59216 0.0
O96 O 0.03418 0.04344 0.56649 0.0
O97 O 0.06566 0.01796 0.54688 0.0
O98 O 0.01644 0.96364 0.53754 0.0
O99 O 0.98284 0.98609 0.55758 0.0
O100 O 0.98575 0.08336 0.60568 0.0
O101 O 0.01767 0.05927 0.58467 0.0
O102 O 0.96369 0.003 0.57078 0.0
O103 O 0.93587 0.02879 0.59609 0.0
C104 C 0.9394 0.01062 0.57654 0.0
O105 O 0.02614 0.99374 0.62081 0.0
O106 O 0.05662 0.9701 0.59688 0.0
C107 C 0.99178 0.01642 0.65627 0.0
C108 C 0.04571 0.97749 0.62001 0.0
Zn109 Zn 0.50578 0.05224 0.03793 0.0
Zn110 Zn 0.55505 0.98496 0.09987 0.0
Zn111 Zn 0.52816 0.01778 0.06932 0.0
C112 C 0.59471 0.01019 0.0663 0.0
C113 C 0.51534 0.9512 0.06836 0.0
O114 O 0.50526 0.04605 0.09782 0.0
O115 O 0.48421 0.07014 0.06841 0.0
C116 C 0.56164 0.06216 0.02961 0.0
O117 O 0.573 0.02081 0.05826 0.0
O118 O 0.59307 0.99344 0.08532 0.0
O119 O 0.53459 0.95005 0.08554 0.0
O120 O 0.50965 0.97458 0.05986 0.0
O121 O 0.53981 0.07322 0.02502 0.0
O122 O 0.56076 0.04074 0.04417 0.0
O123 O 0.49818 0.99228 0.04191 0.0
O124 O 0.48711 0.02241 0.01229 0.0
C125 C 0.48547 0.99795 0.01986 0.0
O126 O 0.52217 0.03149 0.11403 0.0
O127 O 0.5442 0.00201 0.13665 0.0
C128 C 0.4885 0.06429 0.09318 0.0
C129 C 0.53009 0.02257 0.13708 0.0
Zn130 Zn 0.55042 0.54709 0.56654 0.0
Zn131 Zn 0.48889 0.48562 0.49203 0.0
Zn132 Zn 0.52003 0.51644 0.52922 0.0
C133 C 0.51929 0.44976 0.51866 0.0
C134 C 0.52269 0.52239 0.462 0.0
O135 O 0.49211 0.53803 0.55911 0.0
O136 O 0.52035 0.55973 0.59098 0.0
C137 C 0.56472 0.49348 0.56981 0.0
O138 O 0.52998 0.47291 0.53029 0.0
O139 O 0.49928 0.44922 0.50205 0.0
O140 O 0.50592 0.50115 0.45807 0.0
O141 O 0.52978 0.53152 0.48706 0.0
O142 O 0.57194 0.51787 0.57931 0.0
O143 O 0.54546 0.48889 0.55133 0.0
O144 O 0.54714 0.54708 0.50673 0.0
O145 O 0.56854 0.57341 0.54079 0.0
C146 C 0.56418 0.56783 0.515 0.0
O147 O 0.47581 0.52016 0.54026 0.0
O148 O 0.45264 0.49745 0.50499 0.0
C149 C 0.49614 0.55357 0.5819 0.0
C150 C 0.45278 0.51185 0.52796 0.0
Zn151 Zn 0.09742 0.5295 0.98453 0.0
Zn152 Zn 0.02276 0.47348 0.04655 0.0
Zn153 Zn 0.06056 0.50159 0.01467 0.0
C154 C 0.07559 0.46104 0.06265 0.0
C155 C 0.01236 0.45573 0.9902 0.0
O156 O 0.05425 0.54629 0.02061 0.0
O157 O 0.08874 0.56734 0.99725 0.0
C158 C 0.12733 0.50138 0.01968 0.0
O159 O 0.08315 0.47717 0.04309 0.0
O160 O 0.05027 0.45657 0.0689 0.0
O161 O 0.00422 0.45094 0.01473 0.0
O162 O 0.03296 0.4738 0.98628 0.0
O163 O 0.13101 0.51573 0.99878 0.0
O164 O 0.10267 0.49448 0.0287 0.0
O165 O 0.05343 0.48746 0.96979 0.0
O166 O 0.08388 0.51488 0.94745 0.0
C167 C 0.06449 0.49576 0.94682 0.0
O168 O 0.03674 0.53164 0.03938 0.0
O169 O 0.00531 0.50654 0.06308 0.0
C170 C 0.06733 0.56861 0.01239 0.0
C171 C 0.01627 0.52987 0.05683 0.0
H172 H 0.17579 0.12556 0.34955 0.0
H173 H 0.14676 0.11326 0.38948 0.0
H174 H 0.14905 0.19915 0.41897 0.0
H175 H 0.17868 0.21176 0.37893 0.0
H176 H 0.15924 0.1654 0.461 0.0
H177 H 0.06547 0.12269 0.40359 0.0
H178 H 0.09544 0.10748 0.38957 0.0
H179 H 0.09288 0.14397 0.38753 0.0
C180 C 0.16998 0.14196 0.36431 0.0
C181 C 0.17952 0.16969 0.36094 0.0
C182 C 0.15318 0.13487 0.38709 0.0
C183 C 0.14528 0.15531 0.40696 0.0
C184 C 0.1547 0.18307 0.40374 0.0
H185 H 0.03004 0.08284 0.53047 0.0
H186 H 0.05001 0.11824 0.50024 0.0
C187 C 0.17158 0.19023 0.38083 0.0
C188 C 0.12843 0.14707 0.43169 0.0
H189 H 0.07126 0.10562 0.44934 0.0
C190 C 0.1397 0.15281 0.45855 0.0
C191 C 0.10259 0.13126 0.42868 0.0
C192 C 0.08825 0.12626 0.4008 0.0
C193 C 0.1269 0.14122 0.4821 0.0
C194 C 0.10258 0.12302 0.47853 0.0
C195 C 0.09015 0.1192 0.45207 0.0
C196 C 0.09145 0.10527 0.50086 0.0
C197 C 0.1399 0.14802 0.51045 0.0
C198 C 0.10816 0.08652 0.51168 0.0
C199 C 0.09685 0.06651 0.52915 0.0
C200 C 0.06859 0.06481 0.53616 0.0
C201 C 0.05202 0.08411 0.52603 0.0
C202 C 0.06337 0.10421 0.50858 0.0
H203 H 0.1513 0.16891 0.51162 0.0
H204 H 0.12415 0.14716 0.52751 0.0
H205 H 0.155 0.13284 0.51397 0.0
H206 H 0.12969 0.08641 0.50545 0.0
H207 H 0.11005 0.05173 0.53641 0.0
H208 H 0.29837 0.84882 0.87204 0.0
H209 H 0.32528 0.87847 0.90709 0.0
H210 H 0.40065 0.84987 0.87177 0.0
H211 H 0.37387 0.82006 0.83686 0.0
H212 H 0.39992 0.85093 0.92897 0.0
H213 H 0.37076 0.95051 0.89355 0.0
H214 H 0.34194 0.92684 0.90245 0.0
H215 H 0.36377 0.91817 0.87306 0.0
C216 C 0.32067 0.84924 0.87139 0.0
C217 C 0.33401 0.83254 0.85128 0.0
C218 C 0.33604 0.8661 0.89155 0.0
C219 C 0.36503 0.86674 0.89178 0.0
C220 C 0.37832 0.84978 0.87196 0.0
H221 H 0.48231 0.99328 0.96336 0.0
H222 H 0.45314 0.95967 0.9341 0.0
C223 C 0.36298 0.83281 0.85197 0.0
C224 C 0.38169 0.88507 0.91253 0.0
H225 H 0.39787 0.95278 0.93429 0.0
C226 C 0.39947 0.87321 0.93021 0.0
C227 C 0.38121 0.91414 0.91394 0.0
C228 C 0.36361 0.92826 0.89459 0.0
C229 C 0.417 0.88965 0.94905 0.0
C230 C 0.41635 0.9187 0.95058 0.0
C231 C 0.39827 0.93049 0.93318 0.0
C232 C 0.43534 0.93757 0.96873 0.0
C233 C 0.43666 0.87582 0.96645 0.0
C234 C 0.43528 0.93622 0.998 0.0
C235 C 0.45224 0.95534 0.01476 0.0
C236 C 0.46927 0.97617 0.00254 0.0
C237 C 0.4694 0.97735 0.97331 0.0
C238 C 0.45273 0.95819 0.95659 0.0
H239 H 0.43938 0.85441 0.95793 0.0
H240 H 0.45726 0.88777 0.96763 0.0
H241 H 0.42824 0.8747 0.98807 0.0
H242 H 0.42153 0.92097 0.00794 0.0
H243 H 0.4511 0.95469 0.03728 0.0
H244 H 0.70168 0.31403 0.68932 0.0
H245 H 0.67361 0.33369 0.65503 0.0
H246 H 0.65968 0.40158 0.71487 0.0
H247 H 0.68671 0.38143 0.74956 0.0
H248 H 0.6131 0.38286 0.68897 0.0
H249 H 0.69649 0.39764 0.60927 0.0
H250 H 0.68911 0.36251 0.61812 0.0
H251 H 0.7032 0.38823 0.64413 0.0
C252 C 0.69274 0.33323 0.6951 0.0
C253 C 0.69656 0.3463 0.72208 0.0
C254 C 0.67679 0.34451 0.67542 0.0
C255 C 0.66491 0.3694 0.68215 0.0
C256 C 0.66865 0.38238 0.70915 0.0
H257 H 0.61772 0.4956 0.5868 0.0
H258 H 0.63972 0.46108 0.61087 0.0
C259 C 0.68419 0.3709 0.72894 0.0
C260 C 0.64846 0.3821 0.66134 0.0
H261 H 0.6525 0.40985 0.59764 0.0
C262 C 0.62164 0.38864 0.66891 0.0
C263 C 0.65963 0.38961 0.63516 0.0
C264 C 0.68876 0.38439 0.62622 0.0
C265 C 0.60616 0.40352 0.65166 0.0
C266 C 0.61747 0.41132 0.62563 0.0
C267 C 0.64378 0.40367 0.6175 0.0
C268 C 0.60424 0.43067 0.60845 0.0
C269 C 0.57856 0.41208 0.66228 0.0
C270 C 0.57708 0.42491 0.59845 0.0
C271 C 0.56421 0.44501 0.5851 0.0
C272 C 0.5786 0.47077 0.58083 0.0
C273 C 0.60612 0.4759 0.58974 0.0
C274 C 0.61878 0.4561 0.60338 0.0
H275 H 0.57562 0.4094 0.68503 0.0
H276 H 0.57645 0.43405 0.65856 0.0
H277 H 0.56173 0.39913 0.65095 0.0
H278 H 0.5656 0.40524 0.60163 0.0
H279 H 0.54275 0.4408 0.57913 0.0
H280 H 0.90043 0.74108 0.16561 0.0
H281 H 0.92416 0.7067 0.13712 0.0
H282 H 0.94711 0.67029 0.2121 0.0
H283 H 0.92197 0.70365 0.24056 0.0
H284 H 0.97416 0.69278 0.13121 0.0
H285 H 0.91017 0.60377 0.17141 0.0
H286 H 0.90267 0.63895 0.17984 0.0
H287 H 0.92879 0.6241 0.19882 0.0
C288 C 0.91065 0.72581 0.17602 0.0
C289 C 0.90905 0.72479 0.20527 0.0
C290 C 0.92422 0.70615 0.15971 0.0
C291 C 0.93681 0.68535 0.17236 0.0
C292 C 0.93669 0.68543 0.20174 0.0
H293 H 0.0459 0.57583 0.08026 0.0
H294 H 0.02772 0.61487 0.10746 0.0
C295 C 0.92254 0.70467 0.21802 0.0
C296 C 0.94937 0.66331 0.1547 0.0
H297 H 0.94862 0.59329 0.14287 0.0
C298 C 0.9685 0.67101 0.13369 0.0
C299 C 0.94162 0.63486 0.15752 0.0
C300 C 0.91948 0.62492 0.1779 0.0
C301 C 0.98003 0.65115 0.11548 0.0
C302 C 0.97314 0.6227 0.11905 0.0
C303 C 0.95411 0.61505 0.14016 0.0
C304 C 0.98461 0.60034 0.10083 0.0
C305 C 0.99855 0.66095 0.09195 0.0
C306 C 0.96659 0.57887 0.08835 0.0
C307 C 0.97698 0.55629 0.07353 0.0
C308 C 0.0056 0.55494 0.07037 0.0
C309 C 0.02372 0.57668 0.08209 0.0
C310 C 0.01331 0.59907 0.09745 0.0
H311 H 0.99483 0.68225 0.08698 0.0
H312 H 0.02048 0.66123 0.09825 0.0
H313 H 0.99525 0.64705 0.07272 0.0
H314 H 0.94439 0.5793 0.09057 0.0
H315 H 0.96262 0.53971 0.06471 0.0
H316 H 0.30534 0.15317 0.2696 0.0
H317 H 0.34378 0.12959 0.24871 0.0
H318 H 0.3554 0.1904 0.18729 0.0
H319 H 0.31705 0.21429 0.20809 0.0
H320 H 0.34844 0.10697 0.19327 0.0
H321 H 0.43363 0.18816 0.21891 0.0
H322 H 0.40015 0.1878 0.23594 0.0
H323 H 0.405 0.20042 0.20162 0.0
C324 C 0.31613 0.16168 0.25172 0.0
C325 C 0.30811 0.18574 0.24058 0.0
C326 C 0.33811 0.14812 0.23983 0.0
C327 C 0.35272 0.15847 0.21675 0.0
C328 C 0.34475 0.18238 0.20547 0.0
H329 H 0.47089 0.11549 0.09413 0.0
H330 H 0.44016 0.13682 0.1282 0.0
C331 C 0.32269 0.19591 0.21727 0.0
C332 C 0.37553 0.14361 0.20367 0.0
H333 H 0.44379 0.15202 0.18502 0.0
C334 C 0.3694 0.11662 0.19178 0.0
C335 C 0.40287 0.15622 0.20194 0.0
C336 C 0.41095 0.18465 0.21551 0.0
C337 C 0.38952 0.10244 0.17684 0.0
C338 C 0.41666 0.11544 0.17424 0.0
C339 C 0.42302 0.14205 0.18708 0.0
C340 C 0.43772 0.10317 0.15562 0.0
C341 C 0.38117 0.07429 0.16271 0.0
C342 C 0.44728 0.07743 0.1601 0.0
C343 C 0.46482 0.06502 0.14041 0.0
C344 C 0.47326 0.07834 0.11618 0.0
C345 C 0.46466 0.10465 0.11254 0.0
C346 C 0.44717 0.11694 0.13207 0.0
H347 H 0.35835 0.0695 0.16239 0.0
H348 H 0.3891 0.07286 0.14082 0.0
H349 H 0.39018 0.05828 0.1742 0.0
H350 H 0.44058 0.06662 0.17838 0.0
H351 H 0.47072 0.04456 0.14353 0.0
H352 H 0.18444 0.87497 0.80426 0.0
H353 H 0.1481 0.8918 0.777 0.0
H354 H 0.19765 0.96917 0.77 0.0
H355 H 0.23441 0.95236 0.79686 0.0
H356 H 0.11694 0.93852 0.78155 0.0
H357 H 0.18697 0.93803 0.68848 0.0
H358 H 0.19465 0.92204 0.71999 0.0
H359 H 0.20011 0.95893 0.71861 0.0
C360 C 0.18752 0.89572 0.79726 0.0
C361 C 0.21256 0.91215 0.80236 0.0
C362 C 0.16665 0.90533 0.78175 0.0
C363 C 0.17039 0.93152 0.77107 0.0
C364 C 0.19458 0.94868 0.77764 0.0
H365 H 0.05241 0.00741 0.67039 0.0
H366 H 0.07967 0.99633 0.71015 0.0
C367 C 0.21553 0.93906 0.79307 0.0
C368 C 0.15007 0.93974 0.75111 0.0
H369 H 0.14277 0.95272 0.68257 0.0
C370 C 0.12257 0.94184 0.75995 0.0
C371 C 0.15742 0.94361 0.72284 0.0
C372 C 0.18631 0.94033 0.71174 0.0
C373 C 0.1022 0.94764 0.74115 0.0
C374 C 0.10963 0.95157 0.71296 0.0
C375 C 0.13716 0.94975 0.70426 0.0
C376 C 0.08921 0.95647 0.69155 0.0
C377 C 0.07272 0.94852 0.75121 0.0
C378 C 0.08508 0.93754 0.6682 0.0
C379 C 0.06944 0.94375 0.64564 0.0
C380 C 0.05755 0.96901 0.64599 0.0
C381 C 0.0606 0.98744 0.66992 0.0
C382 C 0.07632 0.9812 0.69258 0.0
H383 H 0.06945 0.94039 0.77225 0.0
H384 H 0.0672 0.97019 0.75242 0.0
H385 H 0.05846 0.93626 0.73616 0.0
H386 H 0.09491 0.91838 0.66697 0.0
H387 H 0.06752 0.92923 0.62741 0.0
H388 H 0.82147 0.30838 0.86729 0.0
H389 H 0.86289 0.33164 0.88956 0.0
H390 H 0.8708 0.3891 0.82477 0.0
H391 H 0.82951 0.36568 0.80199 0.0
H392 H 0.91919 0.34334 0.86525 0.0
H393 H 0.86758 0.43745 0.90064 0.0
H394 H 0.84826 0.40496 0.89031 0.0
H395 H 0.86459 0.4258 0.86421 0.0
C396 C 0.83214 0.32555 0.85738 0.0
C397 C 0.8221 0.33489 0.83264 0.0
C398 C 0.85583 0.33897 0.87028 0.0
C399 C 0.86979 0.36217 0.8589 0.0
C400 C 0.86016 0.37137 0.83402 0.0
H401 H 0.99917 0.47642 0.94089 0.0
H402 H 0.96844 0.45364 0.90428 0.0
C403 C 0.83656 0.3579 0.82104 0.0
C404 C 0.89394 0.37714 0.87359 0.0
H405 H 0.91412 0.43658 0.9129 0.0
C406 C 0.9182 0.36381 0.87551 0.0
C407 C 0.89265 0.40393 0.88669 0.0
C408 C 0.86687 0.41895 0.88562 0.0
C409 C 0.9411 0.37641 0.89065 0.0
C410 C 0.93939 0.40273 0.90479 0.0
C411 C 0.91544 0.41643 0.90203 0.0
C412 C 0.96096 0.41529 0.92466 0.0
C413 C 0.96689 0.3614 0.89138 0.0
C414 C 0.96717 0.40126 0.94809 0.0
C415 C 0.98492 0.41409 0.96872 0.0
C416 C 0.99681 0.44124 0.96639 0.0
C417 C 0.991 0.45517 0.94274 0.0
C418 C 0.97323 0.44228 0.92199 0.0
H419 H 0.96853 0.34691 0.87257 0.0
H420 H 0.9858 0.3761 0.89265 0.0
H421 H 0.96606 0.34906 0.91007 0.0
H422 H 0.95739 0.38076 0.95105 0.0
H423 H 0.98874 0.40302 0.98694 0.0
H424 H 0.77501 0.69224 0.39776 0.0
H425 H 0.73988 0.66031 0.41841 0.0
H426 H 0.67607 0.70968 0.39394 0.0
H427 H 0.71095 0.74133 0.37269 0.0
H428 H 0.70451 0.66911 0.46042 0.0
H429 H 0.64598 0.63317 0.36474 0.0
H430 H 0.67876 0.65369 0.36363 0.0
H431 H 0.64731 0.67006 0.37057 0.0
C432 C 0.75349 0.69626 0.39668 0.0
C433 C 0.74576 0.71927 0.38348 0.0
C434 C 0.73344 0.67796 0.40846 0.0
C435 C 0.7053 0.68231 0.40725 0.0
C436 C 0.69758 0.7055 0.39446 0.0
H437 H 0.57843 0.6229 0.52053 0.0
H438 H 0.61195 0.6497 0.49232 0.0
C439 C 0.71758 0.7237 0.38253 0.0
C440 C 0.68413 0.66334 0.42049 0.0
H441 H 0.62283 0.62443 0.40867 0.0
C442 C 0.68677 0.65914 0.449 0.0
C443 C 0.66128 0.64983 0.40548 0.0
C444 C 0.65831 0.65168 0.37435 0.0
C445 C 0.66668 0.64266 0.46315 0.0
C446 C 0.64285 0.63074 0.44859 0.0
C447 C 0.64077 0.63401 0.41986 0.0
C448 C 0.61977 0.61527 0.46311 0.0
C449 C 0.67134 0.63804 0.49352 0.0
C450 C 0.61156 0.5875 0.45484 0.0
C451 C 0.59195 0.57222 0.47071 0.0
C452 C 0.58032 0.58461 0.49494 0.0
C453 C 0.58729 0.61282 0.50205 0.0
C454 C 0.60659 0.62808 0.48611 0.0
H455 H 0.69367 0.64097 0.4988 0.0
H456 H 0.66059 0.65327 0.50699 0.0
H457 H 0.6631 0.61694 0.49864 0.0
H458 H 0.62124 0.57731 0.43692 0.0
H459 H 0.58715 0.55041 0.46499 0.0
H460 H 0.24532 0.33386 0.20867 0.0
H461 H 0.22698 0.36647 0.17864 0.0
H462 H 0.15392 0.31026 0.1639 0.0
H463 H 0.17251 0.27721 0.19309 0.0
H464 H 0.17165 0.33272 0.11648 0.0
H465 H 0.16737 0.41579 0.20159 0.0
H466 H 0.20128 0.40479 0.19502 0.0
H467 H 0.17437 0.38111 0.20823 0.0
C468 C 0.22539 0.3284 0.19895 0.0
C469 C 0.21029 0.303 0.20345 0.0
C470 C 0.21484 0.34717 0.18192 0.0
C471 C 0.18878 0.34113 0.16945 0.0
C472 C 0.17402 0.31547 0.17336 0.0
H473 H 0.07061 0.44423 0.1155 0.0
H474 H 0.10133 0.41698 0.13962 0.0
C475 C 0.18467 0.29659 0.19012 0.0
C476 C 0.17651 0.36151 0.15266 0.0
H477 H 0.15413 0.42624 0.15664 0.0
C478 C 0.16795 0.35323 0.1252 0.0
C479 C 0.17151 0.38824 0.1641 0.0
C480 C 0.17886 0.398 0.19392 0.0
C481 C 0.15395 0.37059 0.10915 0.0
C482 C 0.14896 0.39732 0.1206 0.0
C483 C 0.15818 0.40586 0.14778 0.0
C484 C 0.13166 0.41553 0.10606 0.0
C485 C 0.14348 0.35961 0.08062 0.0
C486 C 0.13865 0.42432 0.07927 0.0
C487 C 0.12079 0.43965 0.0652 0.0
C488 C 0.09598 0.44699 0.07794 0.0
C489 C 0.08957 0.43894 0.10509 0.0
C490 C 0.1072 0.42345 0.11898 0.0
H491 H 0.14359 0.33678 0.0776 0.0
H492 H 0.12209 0.36508 0.07742 0.0
H493 H 0.15701 0.36894 0.06425 0.0
H494 H 0.15761 0.41886 0.06902 0.0
H495 H 0.12589 0.44481 0.04402 0.0
H496 H 0.75454 0.18375 0.88189 0.0
H497 H 0.72411 0.14778 0.90287 0.0
H498 H 0.72803 0.19545 0.98226 0.0
H499 H 0.75857 0.23155 0.96158 0.0
H500 H 0.72921 0.13395 0.98386 0.0
H501 H 0.64316 0.16772 0.92258 0.0
H502 H 0.67364 0.15912 0.90329 0.0
H503 H 0.67547 0.18877 0.92789 0.0
C504 C 0.74934 0.18642 0.90394 0.0
C505 C 0.75869 0.21074 0.91997 0.0
C506 C 0.73195 0.16582 0.91587 0.0
C507 C 0.72363 0.16915 0.94399 0.0
C508 C 0.73425 0.19254 0.96049 0.0
H509 H 0.57854 0.11655 0.03301 0.0
H510 H 0.62021 0.13949 0.01254 0.0
C511 C 0.75161 0.2132 0.94859 0.0
C512 C 0.70164 0.14988 0.95544 0.0
H513 H 0.63202 0.13228 0.95268 0.0
C514 C 0.70799 0.13331 0.97692 0.0
C515 C 0.67399 0.1493 0.94637 0.0
C516 C 0.66594 0.16726 0.9239 0.0
C517 C 0.68718 0.11644 0.98988 0.0
C518 C 0.6595 0.11629 0.9811 0.0
C519 C 0.65333 0.13241 0.95925 0.0
C520 C 0.63611 0.1016 0.99575 0.0
C521 C 0.69465 0.09957 0.0134 0.0
C522 C 0.63135 0.07264 0.99319 0.0
C523 C 0.60736 0.0595 0.00478 0.0
C524 C 0.5881 0.07515 0.01925 0.0
C525 C 0.5932 0.10403 0.0221 0.0
C526 C 0.61699 0.11712 0.01051 0.0
H527 H 0.71653 0.10435 0.01989 0.0
H528 H 0.68095 0.10319 0.03183 0.0
H529 H 0.69144 0.07734 0.00643 0.0
H530 H 0.6456 0.06035 0.98139 0.0
H531 H 0.60322 0.03734 0.00136 0.0
H532 H 0.83335 0.8088 0.36346 0.0
H533 H 0.84738 0.83833 0.40522 0.0
H534 H 0.92453 0.86369 0.36472 0.0
H535 H 0.911 0.83371 0.3232 0.0
H536 H 0.8961 0.83769 0.43912 0.0
H537 H 0.89168 0.93709 0.39042 0.0
H538 H 0.87484 0.90488 0.37549 0.0
H539 H 0.91133 0.91314 0.37019 0.0
C540 C 0.85357 0.82006 0.36365 0.0
C541 C 0.87129 0.81839 0.34016 0.0
C542 C 0.86139 0.83725 0.38742 0.0
C543 C 0.88684 0.8534 0.38793 0.0
C544 C 0.90459 0.85171 0.36459 0.0
H545 H 0.00209 0.95259 0.48543 0.0
H546 H 0.97167 0.92585 0.45145 0.0
C547 C 0.89686 0.83448 0.34091 0.0
C548 C 0.89535 0.87176 0.4129 0.0
H549 H 0.91793 0.93862 0.4327 0.0
C550 C 0.90037 0.85984 0.438 0.0
C551 C 0.90059 0.90067 0.41139 0.0
C552 C 0.89408 0.91478 0.38551 0.0
C553 C 0.91244 0.87586 0.46097 0.0
C554 C 0.9193 0.90449 0.45878 0.0
C555 C 0.91271 0.91663 0.43427 0.0
C556 C 0.93673 0.92139 0.47986 0.0
C557 C 0.91937 0.86184 0.48678 0.0
C558 C 0.92707 0.92788 0.50714 0.0
C559 C 0.94458 0.94318 0.52675 0.0
C560 C 0.97181 0.95228 0.5192 0.0
C561 C 0.98121 0.94583 0.49184 0.0
C562 C 0.96382 0.93068 0.47237 0.0
H563 H 0.91526 0.83899 0.484 0.0
H564 H 0.94149 0.86704 0.49218 0.0
H565 H 0.90675 0.86941 0.50473 0.0
H566 H 0.90614 0.92102 0.51326 0.0
H567 H 0.93705 0.94743 0.54787 0.0
H568 H 0.33813 0.67658 0.75368 0.0
H569 H 0.36334 0.64602 0.72198 0.0
H570 H 0.38014 0.7116 0.66635 0.0
H571 H 0.35512 0.74248 0.69807 0.0
H572 H 0.35373 0.62991 0.66402 0.0
H573 H 0.45722 0.68677 0.68274 0.0
H574 H 0.42789 0.69211 0.70546 0.0
H575 H 0.43053 0.70702 0.67214 0.0
C576 C 0.34721 0.68456 0.73474 0.0
C577 C 0.34477 0.71203 0.72849 0.0
C578 C 0.36152 0.66703 0.7166 0.0
C579 C 0.37379 0.67664 0.69198 0.0
C580 C 0.37112 0.70392 0.68546 0.0
H581 H 0.45012 0.57258 0.5601 0.0
H582 H 0.41751 0.6014 0.58522 0.0
C583 C 0.35677 0.72149 0.70357 0.0
C584 C 0.38968 0.65808 0.67346 0.0
H585 H 0.45503 0.64809 0.65021 0.0
C586 C 0.37586 0.63391 0.66082 0.0
C587 C 0.41854 0.66336 0.66951 0.0
C588 C 0.43457 0.68859 0.6833 0.0
C589 C 0.39025 0.61464 0.6446 0.0
C590 C 0.41913 0.61979 0.64084 0.0
C591 C 0.43284 0.64421 0.6531 0.0
C592 C 0.436 0.59945 0.62585 0.0
C593 C 0.37471 0.58847 0.63245 0.0
C594 C 0.45676 0.58838 0.64041 0.0
C595 C 0.4752 0.57195 0.62619 0.0
C596 C 0.47325 0.56617 0.59709 0.0
C597 C 0.45166 0.57615 0.58262 0.0
C598 C 0.43314 0.59274 0.59693 0.0
H599 H 0.35347 0.58541 0.64134 0.0
H600 H 0.37304 0.58946 0.60945 0.0
H601 H 0.38597 0.57028 0.63636 0.0
H602 H 0.45927 0.59323 0.66273 0.0
H603 H 0.4917 0.56458 0.63784 0.0
H604 H 0.92593 0.92764 0.89709 0.0
H605 H 0.93106 0.94016 0.84847 0.0
H606 H 0.01965 0.95227 0.85842 0.0
H607 H 0.01461 0.93866 0.90655 0.0
H608 H 0.94935 0.98508 0.8266 0.0
H609 H 0.0167 0.90503 0.78756 0.0
H610 H 0.00011 0.90445 0.82151 0.0
H611 H 0.03211 0.92555 0.81672 0.0
C612 C 0.94646 0.9331 0.88889 0.0
C613 C 0.96986 0.93229 0.90558 0.0
C614 C 0.94941 0.94008 0.86106 0.0
C615 C 0.97581 0.94659 0.84947 0.0
C616 C 0.99914 0.9464 0.86644 0.0
H617 H 0.00069 0.04531 0.70617 0.0
H618 H 0.99865 0.02725 0.75262 0.0
C619 C 0.99622 0.9389 0.89406 0.0
C620 C 0.97884 0.95473 0.82009 0.0
H621 H 0.01392 0.94286 0.75869 0.0
C622 C 0.96342 0.97573 0.81175 0.0
C623 C 0.99666 0.94213 0.80034 0.0
C624 C 0.01207 0.91783 0.8069 0.0
C625 C 0.96588 0.98501 0.78464 0.0
C626 C 0.98526 0.97386 0.76557 0.0
C627 C -0.00014 0.95212 0.77353 0.0
C628 C 0.99046 0.98439 0.7373 0.0
C629 C 0.94702 0.00614 0.77664 0.0
C630 C 0.98914 0.96619 0.71309 0.0
C631 C 0.99147 0.97649 0.68645 0.0
C632 C 0.99478 0.00511 0.6837 0.0
C633 C 0.99775 0.02315 0.70784 0.0
C634 C 0.99621 0.01286 0.73437 0.0
H635 H 0.92761 0.00498 0.78928 0.0
H636 H 0.95757 0.02719 0.78081 0.0
H637 H 0.94146 0.00323 0.75414 0.0
H638 H 0.98517 0.94411 0.71474 0.0
H639 H 0.98915 0.96221 0.66807 0.0
H640 H 0.61366 0.03851 0.35804 0.0
H641 H 0.59533 0.04764 0.31274 0.0
H642 H 0.54512 0.10765 0.35316 0.0
H643 H 0.56322 0.0983 0.39886 0.0
H644 H 0.51583 0.06797 0.31611 0.0
H645 H 0.60969 0.11435 0.26466 0.0
H646 H 0.61627 0.08352 0.28093 0.0
H647 H 0.60655 0.11311 0.30225 0.0
C648 C 0.59903 0.05396 0.35728 0.0
C649 C 0.59022 0.06801 0.38196 0.0
C650 C 0.58872 0.05932 0.33135 0.0
C651 C 0.56928 0.07874 0.32952 0.0
C652 C 0.56046 0.09293 0.3541 0.0
H653 H 0.53211 0.07829 0.15092 0.0
H654 H 0.53428 0.10062 0.19869 0.0
C655 C 0.571 0.08774 0.38014 0.0
C656 C 0.55676 0.08201 0.30203 0.0
H657 H 0.57518 0.08941 0.23378 0.0
C658 C 0.52859 0.07343 0.29818 0.0
C659 C 0.57318 0.08975 0.27873 0.0
C660 C 0.60304 0.101 0.28189 0.0
C661 C 0.5172 0.06963 0.27123 0.0
C662 C 0.53453 0.07417 0.24766 0.0
C663 C 0.5619 0.08559 0.25179 0.0
C664 C 0.5267 0.06235 0.21918 0.0
C665 C 0.48707 0.05938 0.26815 0.0
C666 C 0.52098 0.03361 0.21488 0.0
C667 C 0.51998 0.02095 0.18786 0.0
C668 C 0.52456 0.03676 0.16454 0.0
C669 C 0.52826 0.06571 0.16861 0.0
C670 C 0.52957 0.07844 0.19583 0.0
H671 H 0.47477 0.06718 0.28629 0.0
H672 H 0.47836 0.06584 0.24856 0.0
H673 H 0.48489 0.03646 0.26762 0.0
H674 H 0.51934 0.02066 0.23245 0.0
H675 H 0.51717 0.99859 0.18524 0.0
H676 H 0.57894 0.61748 0.22085 0.0
H677 H 0.58007 0.60395 0.26907 0.0
H678 H 0.49225 0.61049 0.27715 0.0
H679 H 0.49079 0.62294 0.22859 0.0
H680 H 0.56744 0.62664 0.31989 0.0
H681 H 0.49707 0.53202 0.29575 0.0
H682 H 0.51165 0.55321 0.26886 0.0
H683 H 0.4819 0.56303 0.28875 0.0
C684 C 0.5599 0.61622 0.23296 0.0
C685 C 0.5347 0.62087 0.22081 0.0
C686 C 0.56058 0.60851 0.26054 0.0
C687 C 0.53613 0.60555 0.27652 0.0
C688 C 0.51123 0.61183 0.26495 0.0
H689 H 0.52536 0.57783 0.45539 0.0
H690 H 0.53117 0.60002 0.41092 0.0
C691 C 0.51045 0.6191 0.23725 0.0
C692 C 0.53653 0.59473 0.30476 0.0
H693 H 0.50823 0.54283 0.34342 0.0
C694 C 0.55454 0.60828 0.32507 0.0
C695 C 0.52008 0.57047 0.31133 0.0
C696 C 0.50181 0.55366 0.28995 0.0
C697 C 0.55639 0.5983 0.35179 0.0
C698 C 0.53929 0.57457 0.35863 0.0
C699 C 0.5213 0.5611 0.33829 0.0
C700 C 0.5399 0.56264 0.38638 0.0
C701 C 0.57731 0.61268 0.37206 0.0
C702 C 0.54317 0.53439 0.38756 0.0
C703 C 0.53924 0.52169 0.41272 0.0
C704 C 0.53248 0.53707 0.43734 0.0
C705 C 0.53098 0.56567 0.4367 0.0
C706 C 0.53438 0.57834 0.41131 0.0
H707 H 0.59391 0.62514 0.36112 0.0
H708 H 0.56689 0.62692 0.38698 0.0
H709 H 0.58686 0.59745 0.38418 0.0
H710 H 0.54756 0.52185 0.3687 0.0
H711 H 0.54044 0.49957 0.41274 0.0
H712 H 0.08127 0.42766 0.68299 0.0
H713 H 0.06553 0.41641 0.72997 0.0
H714 H 0.06503 0.50323 0.75441 0.0
H715 H 0.08164 0.51472 0.70807 0.0
H716 H 0.09402 0.43625 0.78217 0.0
H717 H 0.98767 0.46793 0.77917 0.0
H718 H 0.00728 0.4593 0.74786 0.0
H719 H 0.01303 0.49301 0.76582 0.0
C720 C 0.07834 0.4444 0.69836 0.0
C721 C 0.0834 0.47215 0.69172 0.0
C722 C 0.0689 0.43787 0.72515 0.0
C723 C 0.06378 0.45897 0.74551 0.0
C724 C 0.06838 0.4866 0.73883 0.0
H725 H 0.05534 0.52435 0.90248 0.0
H726 H 0.04833 0.50652 0.85409 0.0
C727 C 0.07804 0.49312 0.7123 0.0
C728 C 0.0555 0.45283 0.77448 0.0
H729 H 0.00855 0.46975 0.82503 0.0
C730 C 0.07495 0.44268 0.79153 0.0
C731 C 0.0305 0.461 0.78646 0.0
C732 C 0.00828 0.47067 0.76881 0.0
C733 C 0.0714 0.44336 0.82076 0.0
C734 C 0.04753 0.45407 0.83303 0.0
C735 C 0.02685 0.46161 0.81563 0.0
C736 C 0.04673 0.46345 0.86315 0.0
C737 C 0.09438 0.43511 0.83843 0.0
C738 C 0.04711 0.44511 0.88457 0.0
C739 C 0.05119 0.4554 0.91249 0.0
C740 C 0.05481 0.48406 0.91911 0.0
C741 C 0.05267 0.50216 0.89786 0.0
C742 C 0.04855 0.49198 0.87023 0.0
H743 H 0.11251 0.42936 0.82562 0.0
H744 H 0.10133 0.45235 0.85386 0.0
H745 H 0.08664 0.41712 0.85024 0.0
H746 H 0.04538 0.42299 0.87957 0.0
H747 H 0.0529 0.44109 0.92859 0.0
H748 H 0.79919 0.95148 0.92442 0.0
H749 H 0.75704 0.96923 0.94386 0.0
H750 H 0.8058 0.02946 0.99721 0.0
H751 H 0.8482 0.01157 0.9781 0.0
H752 H 0.76614 -0.00025 0.02609 0.0
H753 H 0.71903 0.03877 0.934 0.0
H754 H 0.72811 0.00404 0.92703 0.0
H755 H 0.75486 0.03158 0.93452 0.0
C756 C 0.80102 0.96879 0.93996 0.0
C757 C 0.8271 0.98003 0.94976 0.0
C758 C 0.77686 0.97908 0.95091 0.0
C759 C 0.77824 0.00096 0.97171 0.0
C760 C 0.80426 0.01271 0.98102 0.0
H761 H 0.63751 0.04939 0.07812 0.0
H762 H 0.68336 0.0526 0.05514 0.0
C763 C 0.82847 0.00244 0.97007 0.0
C764 C 0.75252 0.00946 0.98562 0.0
H765 H 0.68794 0.02763 0.9723 0.0
C766 C 0.74923 0.00642 0.01447 0.0
C767 C 0.73052 0.01826 0.97045 0.0
C768 C 0.73339 0.02364 0.93984 0.0
C769 C 0.72395 0.01019 0.02819 0.0
C770 C 0.70149 0.01754 0.01267 0.0
C771 C 0.70517 0.02186 0.98411 0.0
C772 C 0.67335 0.01793 0.02505 0.0
C773 C 0.72098 0.00472 0.0588 0.0
C774 C 0.65246 0.99792 0.01526 0.0
C775 C 0.62655 0.99607 0.02835 0.0
C776 C 0.62099 0.0145 0.0511 0.0
C777 C 0.64149 0.03512 0.06044 0.0
C778 C 0.66757 0.03687 0.04742 0.0
H779 H 0.73888 0.99485 0.06653 0.0
H780 H 0.71946 0.02457 0.07134 0.0
H781 H 0.7018 0.99115 0.06251 0.0
H782 H 0.65652 0.98309 0.9981 0.0
H783 H 0.61097 0.9799 0.02106 0.0
H784 H 0.72169 0.05108 0.45527 0.0
H785 H 0.76955 0.04455 0.46612 0.0
H786 H 0.74496 0.96026 0.48454 0.0
H787 H 0.69722 0.96636 0.47258 0.0
H788 H 0.78544 0.03557 0.51585 0.0
H789 H 0.81636 0.94971 0.44384 0.0
H790 H 0.78597 0.96733 0.43817 0.0
H791 H 0.78478 0.94036 0.46218 0.0
C792 C 0.72659 0.03097 0.46104 0.0
C793 C 0.70569 0.00928 0.46323 0.0
C794 C 0.75397 0.02724 0.46718 0.0
C795 C 0.761 0.00184 0.47594 0.0
C796 C 0.74029 0.97982 0.47715 0.0
H797 H 0.88868 0.99242 0.59515 0.0
H798 H 0.84601 0.98579 0.56801 0.0
C799 C 0.71292 0.98342 0.47055 0.0
C800 C 0.78897 -0.00025 0.48738 0.0
H801 H 0.84415 0.96062 0.48519 0.0
C802 C 0.79834 0.01934 0.50883 0.0
C803 C 0.80598 0.97868 0.47818 0.0
C804 C 0.79789 0.95801 0.45412 0.0
C805 C 0.82382 0.01817 0.52175 0.0
C806 C 0.84013 0.99627 0.51367 0.0
C807 C 0.83132 0.97707 0.49166 0.0
C808 C 0.86623 0.99337 0.52834 0.0
C809 C 0.83307 0.04054 0.54397 0.0
C810 C 0.89186 0.99793 0.51464 0.0
C811 C 0.91635 0.00132 0.53012 0.0
C812 C 0.91534 0.00015 0.55936 0.0
C813 C 0.8899 0.99342 0.57261 0.0
C814 C 0.86557 0.98971 0.55716 0.0
H815 H 0.82211 0.05942 0.54229 0.0
H816 H 0.82841 0.03285 0.56497 0.0
H817 H 0.85568 0.04632 0.54248 0.0
H818 H 0.89277 0.00073 0.49238 0.0
H819 H 0.93578 0.00672 0.51954 0.0
H820 H 0.37496 0.55173 0.11235 0.0
H821 H 0.33057 0.52569 0.10092 0.0
H822 H 0.29255 0.60205 0.09779 0.0
H823 H 0.33691 0.62829 0.10865 0.0
H824 H 0.27678 0.52391 0.12527 0.0
H825 H 0.27997 0.56386 0.01941 0.0
H826 H 0.30959 0.56765 0.0421 0.0
H827 H 0.28271 0.59066 0.04719 0.0
C828 C 0.35711 0.56301 0.10943 0.0
C829 C 0.35956 0.59211 0.111 0.0
C830 C 0.33175 0.54807 0.10301 0.0
C831 C 0.30842 0.56195 0.09809 0.0
C832 C 0.31047 0.59095 0.10103 0.0
H833 H 0.1362 0.51185 0.07547 0.0
H834 H 0.18174 0.52003 0.09734 0.0
C835 C 0.33582 0.60592 0.10726 0.0
C836 C 0.28244 0.5463 0.08802 0.0
H837 H 0.23783 0.53998 0.03324 0.0
C838 C 0.26827 0.52719 0.10507 0.0
C839 C 0.27176 0.55017 0.06141 0.0
C840 C 0.2869 0.56898 0.04132 0.0
C841 C 0.24311 0.51255 0.09652 0.0
C842 C 0.23178 0.51751 0.07047 0.0
C843 C 0.24645 0.53608 0.05322 0.0
C844 C 0.2042 0.50508 0.06074 0.0
C845 C 0.22906 0.49186 0.11533 0.0
C846 C 0.20146 0.49288 0.03333 0.0
C847 C 0.17559 0.48889 0.02068 0.0
C848 C 0.15196 0.49645 0.03543 0.0
C849 C 0.15417 0.50559 0.06384 0.0
C850 C 0.18021 0.51019 0.07636 0.0
H851 H 0.2442 0.48367 0.12906 0.0
H852 H 0.21391 0.50218 0.12904 0.0
H853 H 0.21782 0.47426 0.10301 0.0
H854 H 0.21963 0.48865 0.02091 0.0
H855 H 0.17431 0.48186 0.99871 0.0
H856 H 0.19755 0.47034 0.59948 0.0
H857 H 0.24742 0.46962 0.59212 0.0
H858 H 0.25683 0.55881 0.59794 0.0
H859 H 0.20712 0.55967 0.60617 0.0
H860 H 0.27744 0.48771 0.55023 0.0
H861 H 0.31826 0.54262 0.64779 0.0
H862 H 0.28208 0.5312 0.6435 0.0
H863 H 0.29615 0.5634 0.63036 0.0
C864 C 0.21028 0.48981 0.59952 0.0
C865 C 0.19839 0.51507 0.60344 0.0
C866 C 0.2388 0.48936 0.59533 0.0
C867 C 0.25598 0.51415 0.59487 0.0
C868 C 0.24415 0.53941 0.59894 0.0
H869 H 0.40928 0.53003 0.50251 0.0
H870 H 0.36218 0.53166 0.52087 0.0
C871 C 0.21567 0.53987 0.60342 0.0
C872 C 0.28588 0.51358 0.58805 0.0
H873 H 0.35051 0.53916 0.60925 0.0
C874 C 0.29341 0.49892 0.56324 0.0
C875 C 0.30684 0.52755 0.60534 0.0
C876 C 0.30043 0.5418 0.63338 0.0
C877 C 0.32115 0.49873 0.55469 0.0
C878 C 0.34195 0.51456 0.57084 0.0
C879 C 0.33455 0.52803 0.59635 0.0
C880 C 0.37133 0.51753 0.56136 0.0
C881 C 0.32777 0.48102 0.52873 0.0
C882 C 0.39272 0.51155 0.57886 0.0
C883 C 0.41994 0.51165 0.56868 0.0
C884 C 0.42599 0.5175 0.54082 0.0
C885 C 0.40498 0.52518 0.52399 0.0
C886 C 0.37802 0.52574 0.53435 0.0
H887 H 0.31182 0.46331 0.52501 0.0
H888 H 0.32799 0.49359 0.51024 0.0
H889 H 0.34822 0.47276 0.53025 0.0
H890 H 0.38819 0.50561 0.59996 0.0
H891 H 0.43588 0.50561 0.58199 0.0
H892 H 0.95387 0.79847 0.00282 0.0
H893 H 0.96314 0.75097 0.0104 0.0
H894 H 0.05038 0.77658 0.01643 0.0
H895 H 0.04129 0.82412 0.00939 0.0
H896 H 0.99444 0.71697 0.9785 0.0
H897 H 0.03707 0.73334 0.08552 0.0
H898 H 0.01878 0.75894 0.06983 0.0
H899 H 0.05476 0.75594 0.0617 0.0
C900 C 0.97502 0.79403 0.00594 0.0
C901 C 0.99684 0.81511 0.0056 0.0
C902 C 0.98026 0.76688 0.01029 0.0
C903 C 0.00738 0.76032 0.01451 0.0
C904 C 0.02921 0.78128 0.01396 0.0
H905 H 0.09738 0.61825 0.02008 0.0
H906 H 0.08024 0.66404 0.02293 0.0
C907 C 0.02399 0.80842 0.0097 0.0
C908 C 0.01312 0.73134 0.01798 0.0
H909 H 0.04613 0.691 0.05982 0.0
C910 C 0.0053 0.71114 0.99651 0.0
C911 C 0.02731 0.7238 0.04149 0.0
C912 C 0.03471 0.7441 0.06607 0.0
C913 C 0.01232 0.68386 0.99733 0.0
C914 C 0.02721 0.67652 0.02048 0.0
C915 C 0.03459 0.69662 0.04217 0.0
C916 C 0.03701 0.64865 0.02159 0.0
C917 C 0.00489 0.66353 0.97276 0.0
C918 C 0.01835 0.62478 0.0208 0.0
C919 C 0.02814 0.59855 0.01913 0.0
C920 C 0.0567 0.59584 0.01855 0.0
C921 C 0.07525 0.61977 0.02057 0.0
C922 C 0.06549 0.64592 0.02223 0.0
H923 H 0.99924 0.67403 0.95405 0.0
H924 H 0.02234 0.65095 0.96701 0.0
H925 H 0.98684 0.64931 0.97851 0.0
H926 H 0.99626 0.62642 0.02078 0.0
H927 H 0.0134 0.58046 0.01707 0.0
H928 H 0.52612 0.71473 0.08513 0.0
H929 H 0.51512 0.75914 0.0697 0.0
H930 H 0.43413 0.74773 0.10759 0.0
H931 H 0.44526 0.70336 0.12376 0.0
H932 H 0.47006 0.77399 0.03588 0.0
H933 H 0.47017 0.8214 0.14538 0.0
H934 H 0.48457 0.78901 0.13651 0.0
H935 H 0.44777 0.79038 0.13764 0.0
C936 C 0.50588 0.72154 0.09008 0.0
C937 C 0.48651 0.7054 0.10558 0.0
C938 C 0.49957 0.74686 0.08106 0.0
C939 C 0.47386 0.75676 0.08754 0.0
C940 C 0.45413 0.74047 0.10243 0.0
H941 H 0.4626 0.93392 0.08273 0.0
H942 H 0.44301 0.88555 0.08148 0.0
C943 C 0.46043 0.71497 0.11142 0.0
C944 C 0.46893 0.785 0.08024 0.0
H945 H 0.46859 0.85093 0.10925 0.0
C946 C 0.46918 0.7908 0.05189 0.0
C947 C 0.46754 0.80684 0.10113 0.0
C948 C 0.46763 0.80183 0.13191 0.0
C949 C 0.46948 0.81807 0.04391 0.0
C950 C 0.47017 0.84012 0.06485 0.0
C951 C 0.46802 0.83409 0.09314 0.0
C952 C 0.47748 0.8694 0.05853 0.0
C953 C 0.46979 0.82297 0.01315 0.0
C954 C 0.5027 0.87659 0.04495 0.0
C955 C 0.51362 0.90415 0.04535 0.0
C956 C 0.49954 0.92502 0.0593 0.0
C957 C 0.4734 0.91821 0.07111 0.0
C958 C 0.46236 0.89058 0.07062 0.0
H959 H 0.45775 0.80574 0.00103 0.0
H960 H 0.46117 0.84266 0.00921 0.0
H961 H 0.49142 0.8238 0.00519 0.0
H962 H 0.5152 0.86074 0.03617 0.0
H963 H 0.53417 0.90889 0.03681 0.0
H964 H 0.05601 0.33311 0.58654 0.0
H965 H 0.0516 0.2831 0.57636 0.0
H966 H 0.12776 0.27708 0.61985 0.0
H967 H 0.13193 0.32716 0.63091 0.0
H968 H 0.08412 0.24603 0.54882 0.0
H969 H 0.07317 0.22704 0.66207 0.0
H970 H 0.07227 0.26098 0.64949 0.0
H971 H 0.10471 0.24635 0.65233 0.0
C972 C 0.07192 0.3212 0.59385 0.0
C973 C 0.09411 0.33404 0.6099 0.0
C974 C 0.06943 0.29262 0.58789 0.0
C975 C 0.08911 0.27632 0.59772 0.0
C976 C 0.11202 0.28921 0.61258 0.0
H977 H 0.06403 0.09471 0.59551 0.0
H978 H 0.08971 0.1403 0.59219 0.0
C979 C 0.11439 0.31782 0.61883 0.0
C980 C 0.0844 0.24579 0.59386 0.0
H981 H 0.06833 0.18837 0.63003 0.0
C982 C 0.08105 0.23335 0.56656 0.0
C983 C 0.08041 0.22927 0.61705 0.0
C984 C 0.08258 0.24152 0.6469 0.0
C985 C 0.07278 0.20501 0.56195 0.0
C986 C 0.0677 0.18892 0.58518 0.0
C987 C 0.07245 0.20094 0.61232 0.0
C988 C 0.05371 0.16071 0.58227 0.0
C989 C 0.0686 0.19251 0.53243 0.0
C990 C 0.02515 0.15727 0.57751 0.0
C991 C 0.01047 0.13152 0.57978 0.0
C992 C 0.02423 0.10877 0.58646 0.0
C993 C 0.05306 0.11194 0.59002 0.0
C994 C 0.06771 0.13786 0.58812 0.0
H995 H 0.07877 0.20599 0.51677 0.0
H996 H 0.07685 0.17192 0.52996 0.0
H997 H 0.04612 0.18949 0.52796 0.0
H998 H 0.014 0.17484 0.57338 0.0
H999 H 0.98825 0.12954 0.57701 0.0
H1000 H 0.53166 0.19844 0.48498 0.0
H1001 H 0.53037 0.24701 0.50118 0.0
H1002 H 0.61555 0.26361 0.47583 0.0
H1003 H 0.61682 0.21514 0.45888 0.0
H1004 H 0.56091 0.28014 0.54081 0.0
H1005 H 0.57774 0.31969 0.43499 0.0
H1006 H 0.56972 0.28347 0.44005 0.0
H1007 H 0.60412 0.29951 0.44627 0.0
C1008 C 0.55013 0.2124 0.48279 0.0
C1009 C 0.57425 0.20297 0.47035 0.0
C1010 C 0.54939 0.24015 0.49217 0.0
C1011 C 0.57274 0.25902 0.48938 0.0
C1012 C 0.59711 0.24954 0.47766 0.0
H1013 H 0.57369 0.43971 0.51796 0.0
H1014 H 0.59197 0.39409 0.51617 0.0
C1015 C 0.59781 0.22181 0.46805 0.0
C1016 C 0.5711 0.28867 0.4981 0.0
H1017 H 0.57226 0.3525 0.47249 0.0
C1018 C 0.56367 0.29601 0.52594 0.0
C1019 C 0.57485 0.3094 0.47871 0.0
C1020 C 0.58182 0.30271 0.44828 0.0
C1021 C 0.55903 0.32336 0.53464 0.0
C1022 C 0.56171 0.34376 0.51497 0.0
C1023 C 0.57042 0.33676 0.48754 0.0
C1024 C 0.55191 0.37145 0.52111 0.0
C1025 C 0.55068 0.33018 0.56462 0.0
C1026 C 0.52349 0.37373 0.52488 0.0
C1027 C 0.5131 0.39953 0.5256 0.0
C1028 C 0.53098 0.42354 0.5229 0.0
C1029 C 0.55959 0.42146 0.52047 0.0
C1030 C 0.57 0.39551 0.5194 0.0
H1031 H 0.55687 0.31462 0.57867 0.0
H1032 H 0.56006 0.35096 0.57228 0.0
H1033 H 0.52785 0.33034 0.56593 0.0
H1034 H 0.50916 0.35539 0.5257 0.0
H1035 H 0.49094 0.40066 0.52724 0.0
loop_
_geom_bond_atom_site_label_1
_geom_bond_atom_site_label_2
_geom_bond_distance
_geom_bond_site_symmetry_2
_ccdc_geom_bond_type
O0 Cd1 2.300 . S
O0 C7 1.275 . S
Cd1 O0 2.300 . S
Cd1 O9 2.381 . S
Cd1 O10 2.378 . S
O2 Cd3 2.385 . S
O2 C7 1.255 . S
Cd3 O2 2.385 . S
Cd3 O4 2.317 . S
O4 Cd3 2.317 . S
O4 C5 1.232 . S
C5 O4 1.232 . S
C5 O6 1.218 . S
O6 C5 1.218 . S
C7 O0 1.275 . S
C7 O2 1.255 . S
C8 O9 1.258 . S
C8 O10 1.256 . S
O9 Cd1 2.381 . S
O9 C8 1.258 . S
O10 Cd1 2.378 . S
O10 C8 1.256 . S
O11 Cd12 2.300 . S
O11 C18 1.275 . S
Cd12 O11 2.300 . S
Cd12 O20 2.381 . S
Cd12 O21 2.378 . S
O13 Cd14 2.385 . S
O13 C18 1.255 . S
Cd14 O13 2.385 . S
Cd14 O15 2.317 . S
O15 Cd14 2.317 . S
O15 C16 1.232 . S
C16 O15 1.232 . S
C16 O17 1.218 . S
O17 C16 1.218 . S
C18 O11 1.275 . S
C18 O13 1.255 . S
C19 O20 1.258 . S
C19 O21 1.256 . S
O20 Cd12 2.381 . S
O20 C19 1.258 . S
O21 Cd12 2.378 . S
O21 C19 1.256 . S
O22 Cd23 2.300 . S
O22 C29 1.275 . S
Cd23 O22 2.300 . S
Cd23 O31 2.381 . S
Cd23 O32 2.378 . S
O24 Cd25 2.385 . S
O24 C29 1.255 . S
Cd25 O24 2.385 . S
Cd25 O26 2.317 . S
O26 Cd25 2.317 . S
O26 C27 1.232 . S
C27 O26 1.232 . S
C27 O28 1.218 . S
O28 C27 1.218 . S
C29 O22 1.275 . S
C29 O24 1.255 . S
C30 O31 1.258 . S
C30 O32 1.256 . S
O31 Cd23 2.381 . S
O31 C30 1.258 . S
O32 Cd23 2.378 . S
O32 C30 1.256 . S
O33 Cd34 2.300 . S
O33 C40 1.275 . S
Cd34 O33 2.300 . S
Cd34 O42 2.381 . S
Cd34 O43 2.378 . S
O35 Cd36 2.385 . S
O35 C40 1.255 . S
Cd36 O35 2.385 . S
Cd36 O37 2.317 . S
O37 Cd36 2.317 . S
O37 C38 1.232 . S
C38 O37 1.232 . S
C38 O39 1.218 . S
O39 C38 1.218 . S
C40 O33 1.275 . S
C40 O35 1.255 . S
C41 O42 1.258 . S
C41 O43 1.256 . S
O42 Cd34 2.381 . S
O42 C41 1.258 . S
O43 Cd34 2.378 . S
O43 C41 1.256 . S
O44 Cd45 2.300 . S
O44 C51 1.275 . S
Cd45 O44 2.300 . S
Cd45 O53 2.381 . S
Cd45 O54 2.378 1_556 S
O46 Cd47 2.385 1_556 S
O46 C51 1.255 . S
Cd47 O46 2.385 1_554 S
Cd47 O48 2.317 . S
O48 Cd47 2.317 . S
O48 C49 1.230 1_554 S
C49 O48 1.230 1_556 S
C49 O50 1.220 1_565 S
O50 C49 1.220 1_545 S
C51 O44 1.275 . S
C51 O46 1.255 . S
C52 O53 1.258 . S
C52 O54 1.256 1_556 S
O53 Cd45 2.381 . S
O53 C52 1.258 . S
O54 Cd45 2.378 1_554 S
O54 C52 1.256 1_554 S
O55 Cd56 2.300 . S
O55 C62 1.275 . S
Cd56 O55 2.300 . S
Cd56 O64 2.381 . S
Cd56 O65 2.378 . S
O57 Cd58 2.385 . S
O57 C62 1.255 . S
Cd58 O57 2.385 . S
Cd58 O59 2.317 . S
O59 Cd58 2.317 . S
O59 C60 1.232 . S
C60 O59 1.232 . S
C60 O61 1.218 . S
O61 C60 1.218 . S
C62 O55 1.275 . S
C62 O57 1.255 . S
C63 O64 1.258 . S
C63 O65 1.256 . S
O64 Cd56 2.381 . S
O64 C63 1.258 . S
O65 Cd56 2.378 . S
O65 C63 1.256 . S
O66 Cd67 2.300 . S
O66 C73 1.275 . S
Cd67 O66 2.300 . S
Cd67 O75 2.381 . S
Cd67 O76 2.378 . S
O68 Cd69 2.385 . S
O68 C73 1.255 . S
Cd69 O68 2.385 . S
Cd69 O70 2.317 . S
O70 Cd69 2.317 . S
O70 C71 1.232 . S
C71 O70 1.232 . S
C71 O72 1.218 . S
O72 C71 1.218 . S
C73 O66 1.275 . S
C73 O68 1.255 . S
C74 O75 1.258 . S
C74 O76 1.256 . S
O75 Cd67 2.381 . S
O75 C74 1.258 . S
O76 Cd67 2.378 . S
O76 C74 1.256 . S
O77 Cd78 2.300 . S
O77 C84 1.275 . S
Cd78 O77 2.300 . S
Cd78 O86 2.381 . S
Cd78 O87 2.378 . S
O79 Cd80 2.385 . S
O79 C84 1.255 . S
Cd80 O79 2.385 . S
Cd80 O81 2.317 . S
O81 Cd80 2.317 . S
O81 C82 1.232 . S
C82 O81 1.232 . S
C82 O83 1.218 . S
O83 C82 1.218 . S
C84 O77 1.275 . S
C84 O79 1.255 . S
C85 O86 1.258 . S
C85 O87 1.256 . S
O86 Cd78 2.381 . S
O86 C85 1.258 . S
O87 Cd78 2.378 . S
O87 C85 1.256 . S
Zn88 O94 1.920 . S
Zn88 O100 1.898 . S
Zn88 O103 1.905 . S
Zn89 O97 1.905 1_565 S
Zn89 O98 1.898 . S
Zn89 O106 1.920 . S
Zn90 O93 2.080 1_455 S
Zn90 O96 2.114 . S
Zn90 O99 2.120 1_445 S
Zn90 O101 2.120 . S
Zn90 O102 2.114 1_455 S
Zn90 O105 2.080 . S
C91 O96 1.166 . S
C91 O97 1.182 . S
C92 O98 1.167 1_655 S
C92 O99 1.299 . S
O93 Zn90 2.080 1_655 S
O93 C107 1.305 . S
O94 Zn88 1.920 . S
O94 C107 1.234 . S
C95 O100 1.167 1_455 S
C95 O101 1.299 . S
O96 Zn90 2.114 . S
O96 C91 1.166 . S
O97 Zn89 1.905 1_545 S
O97 C91 1.182 . S
O98 Zn89 1.898 . S
O98 C92 1.167 1_455 S
O99 Zn90 2.120 1_665 S
O99 C92 1.299 . S
O100 Zn88 1.898 . S
O100 C95 1.167 1_655 S
O101 Zn90 2.120 . S
O101 C95 1.299 . S
O102 Zn90 2.114 1_655 S
O102 C104 1.166 . S
O103 Zn88 1.905 . S
O103 C104 1.182 . S
C104 O102 1.166 . S
C104 O103 1.182 . S
O105 Zn90 2.080 . S
O105 C108 1.305 1_545 S
O106 Zn89 1.920 . S
O106 C108 1.234 . S
C107 O93 1.305 . S
C107 O94 1.234 . S
C108 O105 1.305 1_565 S
C108 O106 1.234 . S
Zn109 O115 1.920 . S
Zn109 O121 1.898 . S
Zn109 O124 1.905 . S
Zn110 O118 1.905 . S
Zn110 O119 1.898 . S
Zn110 O127 1.920 1_565 S
Zn111 O114 2.080 . S
Zn111 O117 2.114 . S
Zn111 O120 2.120 1_545 S
Zn111 O122 2.120 . S
Zn111 O123 2.114 . S
Zn111 O126 2.080 . S
C112 O117 1.166 . S
C112 O118 1.182 1_545 S
C113 O119 1.167 . S
C113 O120 1.299 . S
O114 Zn111 2.080 . S
O114 C128 1.305 . S
O115 Zn109 1.920 . S
O115 C128 1.234 . S
C116 O121 1.167 . S
C116 O122 1.299 . S
O117 Zn111 2.114 . S
O117 C112 1.166 . S
O118 Zn110 1.905 . S
O118 C112 1.182 1_565 S
O119 Zn110 1.898 . S
O119 C113 1.167 . S
O120 Zn111 2.120 1_565 S
O120 C113 1.299 . S
O121 Zn109 1.898 . S
O121 C116 1.167 . S
O122 Zn111 2.120 . S
O122 C116 1.299 . S
O123 Zn111 2.114 . S
O123 C125 1.166 . S
O124 Zn109 1.905 . S
O124 C125 1.182 . S
C125 O123 1.166 . S
C125 O124 1.182 . S
O126 Zn111 2.080 . S
O126 C129 1.305 . S
O127 Zn110 1.920 1_545 S
O127 C129 1.234 . S
C128 O114 1.305 . S
C128 O115 1.234 . S
C129 O126 1.305 . S
C129 O127 1.234 . S
Zn130 O136 1.920 . S
Zn130 O142 1.898 . S
Zn130 O145 1.905 . S
Zn131 O139 1.905 . S
Zn131 O140 1.898 . S
Zn131 O148 1.920 . S
Zn132 O135 2.080 . S
Zn132 O138 2.114 . S
Zn132 O141 2.120 . S
Zn132 O143 2.120 . S
Zn132 O144 2.114 . S
Zn132 O147 2.080 . S
C133 O138 1.166 . S
C133 O139 1.182 . S
C134 O140 1.167 . S
C134 O141 1.299 . S
O135 Zn132 2.080 . S
O135 C149 1.305 . S
O136 Zn130 1.920 . S
O136 C149 1.234 . S
C137 O142 1.167 . S
C137 O143 1.299 . S
O138 Zn132 2.114 . S
O138 C133 1.166 . S
O139 Zn131 1.905 . S
O139 C133 1.182 . S
O140 Zn131 1.898 . S
O140 C134 1.167 . S
O141 Zn132 2.120 . S
O141 C134 1.299 . S
O142 Zn130 1.898 . S
O142 C137 1.167 . S
O143 Zn132 2.120 . S
O143 C137 1.299 . S
O144 Zn132 2.114 . S
O144 C146 1.166 . S
O145 Zn130 1.905 . S
O145 C146 1.182 . S
C146 O144 1.166 . S
C146 O145 1.182 . S
O147 Zn132 2.080 . S
O147 C150 1.305 . S
O148 Zn131 1.920 . S
O148 C150 1.234 . S
C149 O135 1.305 . S
C149 O136 1.234 . S
C150 O147 1.305 . S
C150 O148 1.234 . S
Zn151 O157 1.920 . S
Zn151 O163 1.898 . S
Zn151 O166 1.905 . S
Zn152 O160 1.905 . S
Zn152 O161 1.898 1_455 S
Zn152 O169 1.917 1_455 S
Zn153 O156 2.080 1_554 S
Zn153 O159 2.114 . S
Zn153 O162 2.120 1_554 S
Zn153 O164 2.120 . S
Zn153 O165 2.114 1_554 S
Zn153 O168 2.080 . S
C154 O159 1.166 . S
C154 O160 1.182 . S
C155 O161 1.167 1_556 S
C155 O162 1.299 1_655 S
O156 Zn153 2.080 1_556 S
O156 C170 1.305 . S
O157 Zn151 1.920 . S
O157 C170 1.234 . S
C158 O163 1.167 1_554 S
C158 O164 1.299 . S
O159 Zn153 2.114 . S
O159 C154 1.166 . S
O160 Zn152 1.905 . S
O160 C154 1.182 . S
O161 Zn152 1.898 1_655 S
O161 C155 1.167 1_554 S
O162 Zn153 2.120 1_556 S
O162 C155 1.299 1_455 S
O163 Zn151 1.898 . S
O163 C158 1.167 1_556 S
O164 Zn153 2.120 . S
O164 C158 1.299 . S
O165 Zn153 2.114 1_556 S
O165 C167 1.166 . S
O166 Zn151 1.905 . S
O166 C167 1.182 . S
C167 O165 1.166 . S
C167 O166 1.182 . S
O168 Zn153 2.080 . S
O168 C171 1.305 . S
O169 Zn152 1.917 1_655 S
O169 C171 1.228 1_655 S
C170 O156 1.305 . S
C170 O157 1.234 . S
C171 O168 1.305 . S
C171 O169 1.228 1_455 S
H172 C180 0.929 . S
H173 C182 0.930 . S
H174 C184 0.930 . S
H175 C187 0.929 . S
H176 C190 0.930 . S
H177 C192 0.960 . S
H178 C192 0.960 . S
H179 C192 0.960 . S
C180 H172 0.929 . S
C180 C181 1.377 . S
C180 C182 1.384 . S
C181 C180 1.377 . S
C181 C187 1.390 . S
C182 H173 0.930 . S
C182 C180 1.384 . S
C182 C183 1.372 . S
C183 C182 1.372 . S
C183 C184 1.400 . S
C183 C188 1.490 . S
C184 H174 0.930 . S
C184 C183 1.400 . S
C184 C187 1.386 . S
H185 C201 0.930 . S
H186 C202 0.931 . S
C187 H175 0.929 . S
C187 C181 1.390 . S
C187 C184 1.386 . S
C188 C183 1.490 . S
C188 C190 1.395 . S
C188 C191 1.403 . S
H189 C195 0.930 . S
C190 H176 0.930 . S
C190 C188 1.395 . S
C190 C193 1.403 . S
C191 C188 1.403 . S
C191 C192 1.524 . S
C191 C195 1.400 . S
C192 H177 0.960 . S
C192 H178 0.960 . S
C192 H179 0.960 . S
C192 C191 1.524 . S
C193 C190 1.403 . S
C193 C194 1.392 . S
C193 C197 1.495 . S
C194 C193 1.392 . S
C194 C195 1.385 . S
C194 C196 1.478 . S
C195 H189 0.930 . S
C195 C191 1.400 . S
C195 C194 1.385 . S
C196 C194 1.478 . S
C196 C198 1.381 . S
C196 C202 1.383 . S
C197 C193 1.495 . S
C197 H203 0.959 . S
C197 H204 0.961 . S
C197 H205 0.960 . S
C198 C196 1.381 . S
C198 C199 1.394 . S
C198 H206 0.930 . S
C199 C198 1.394 . S
C199 C200 1.383 . S
C199 H207 0.929 . S
C200 C199 1.383 . S
C200 C201 1.377 . S
C201 H185 0.930 . S
C201 C200 1.377 . S
C201 C202 1.379 . S
C202 H186 0.931 . S
C202 C196 1.383 . S
C202 C201 1.379 . S
H203 C197 0.959 . S
H204 C197 0.961 . S
H205 C197 0.960 . S
H206 C198 0.930 . S
H207 C199 0.929 . S
H208 C216 0.929 . S
H209 C218 0.930 . S
H210 C220 0.930 . S
H211 C223 0.929 . S
H212 C226 0.930 . S
H213 C228 0.960 . S
H214 C228 0.960 . S
H215 C228 0.960 . S
C216 H208 0.929 . S
C216 C217 1.377 . S
C216 C218 1.384 . S
C217 C216 1.377 . S
C217 C223 1.390 . S
C218 H209 0.930 . S
C218 C216 1.384 . S
C218 C219 1.372 . S
C219 C218 1.372 . S
C219 C220 1.400 . S
C219 C224 1.490 . S
C220 H210 0.930 . S
C220 C219 1.400 . S
C220 C223 1.386 . S
H221 C237 0.930 1_545 S
H222 C238 0.931 . S
C223 H211 0.929 . S
C223 C217 1.390 . S
C223 C220 1.386 . S
C224 C219 1.490 . S
C224 C226 1.395 . S
C224 C227 1.403 . S
H225 C231 0.930 . S
C226 H212 0.930 . S
C226 C224 1.395 . S
C226 C229 1.403 . S
C227 C224 1.403 . S
C227 C228 1.524 . S
C227 C231 1.400 . S
C228 H213 0.960 . S
C228 H214 0.960 . S
C228 H215 0.960 . S
C228 C227 1.524 . S
C229 C226 1.403 . S
C229 C230 1.392 . S
C229 C233 1.495 . S
C230 C229 1.392 . S
C230 C231 1.385 . S
C230 C232 1.478 . S
C231 H225 0.930 . S
C231 C227 1.400 . S
C231 C230 1.385 . S
C232 C230 1.478 . S
C232 C234 1.381 . S
C232 C238 1.383 . S
C233 C229 1.495 . S
C233 H239 0.959 . S
C233 H240 0.961 . S
C233 H241 0.960 . S
C234 C232 1.381 . S
C234 C235 1.394 . S
C234 H242 0.930 . S
C235 C234 1.394 . S
C235 C236 1.383 . S
C235 H243 0.929 1_556 S
C236 C235 1.383 . S
C236 C237 1.377 . S
C237 H221 0.930 1_565 S
C237 C236 1.377 . S
C237 C238 1.379 . S
C238 H222 0.931 . S
C238 C232 1.383 . S
C238 C237 1.379 . S
H239 C233 0.959 . S
H240 C233 0.961 . S
H241 C233 0.960 . S
H242 C234 0.930 . S
H243 C235 0.929 1_554 S
H244 C252 0.929 . S
H245 C254 0.930 . S
H246 C256 0.930 . S
H247 C259 0.929 . S
H248 C262 0.930 . S
H249 C264 0.960 . S
H250 C264 0.960 . S
H251 C264 0.960 . S
C252 H244 0.929 . S
C252 C253 1.377 . S
C252 C254 1.384 . S
C253 C252 1.377 . S
C253 C259 1.390 . S
C254 H245 0.930 . S
C254 C252 1.384 . S
C254 C255 1.372 . S
C255 C254 1.372 . S
C255 C256 1.400 . S
C255 C260 1.490 . S
C256 H246 0.930 . S
C256 C255 1.400 . S
C256 C259 1.386 . S
H257 C273 0.930 . S
H258 C274 0.931 . S
C259 H247 0.929 . S
C259 C253 1.390 . S
C259 C256 1.386 . S
C260 C255 1.490 . S
C260 C262 1.395 . S
C260 C263 1.403 . S
H261 C267 0.930 . S
C262 H248 0.930 . S
C262 C260 1.395 . S
C262 C265 1.403 . S
C263 C260 1.403 . S
C263 C264 1.524 . S
C263 C267 1.400 . S
C264 H249 0.960 . S
C264 H250 0.960 . S
C264 H251 0.960 . S
C264 C263 1.524 . S
C265 C262 1.403 . S
C265 C266 1.392 . S
C265 C269 1.495 . S
C266 C265 1.392 . S
C266 C267 1.385 . S
C266 C268 1.478 . S
C267 H261 0.930 . S
C267 C263 1.400 . S
C267 C266 1.385 . S
C268 C266 1.478 . S
C268 C270 1.381 . S
C268 C274 1.383 . S
C269 C265 1.495 . S
C269 H275 0.959 . S
C269 H276 0.961 . S
C269 H277 0.960 . S
C270 C268 1.381 . S
C270 C271 1.394 . S
C270 H278 0.930 . S
C271 C270 1.394 . S
C271 C272 1.383 . S
C271 H279 0.929 . S
C272 C271 1.383 . S
C272 C273 1.377 . S
C273 H257 0.930 . S
C273 C272 1.377 . S
C273 C274 1.379 . S
C274 H258 0.931 . S
C274 C268 1.383 . S
C274 C273 1.379 . S
H275 C269 0.959 . S
H276 C269 0.961 . S
H277 C269 0.960 . S
H278 C270 0.930 . S
H279 C271 0.929 . S
H280 C288 0.929 . S
H281 C290 0.930 . S
H282 C292 0.930 . S
H283 C295 0.929 . S
H284 C298 0.930 . S
H285 C300 0.960 . S
H286 C300 0.960 . S
H287 C300 0.960 . S
C288 H280 0.929 . S
C288 C289 1.377 . S
C288 C290 1.384 . S
C289 C288 1.377 . S
C289 C295 1.390 . S
C290 H281 0.930 . S
C290 C288 1.384 . S
C290 C291 1.372 . S
C291 C290 1.372 . S
C291 C292 1.400 . S
C291 C296 1.490 . S
C292 H282 0.930 . S
C292 C291 1.400 . S
C292 C295 1.386 . S
H293 C309 0.930 . S
H294 C310 0.931 . S
C295 H283 0.929 . S
C295 C289 1.390 . S
C295 C292 1.386 . S
C296 C291 1.490 . S
C296 C298 1.395 . S
C296 C299 1.403 . S
H297 C303 0.930 . S
C298 H284 0.930 . S
C298 C296 1.395 . S
C298 C301 1.403 . S
C299 C296 1.403 . S
C299 C300 1.524 . S
C299 C303 1.400 . S
C300 H285 0.960 . S
C300 H286 0.960 . S
C300 H287 0.960 . S
C300 C299 1.524 . S
C301 C298 1.403 . S
C301 C302 1.392 . S
C301 C305 1.495 1_655 S
C302 C301 1.392 . S
C302 C303 1.385 . S
C302 C304 1.478 . S
C303 H297 0.930 . S
C303 C299 1.400 . S
C303 C302 1.385 . S
C304 C302 1.478 . S
C304 C306 1.381 . S
C304 C310 1.383 1_655 S
C305 C301 1.495 1_455 S
C305 H311 0.959 . S
C305 H312 0.961 . S
C305 H313 0.960 . S
C306 C304 1.381 . S
C306 C307 1.394 . S
C306 H314 0.930 . S
C307 C306 1.394 . S
C307 C308 1.383 1_655 S
C307 H315 0.929 . S
C308 C307 1.383 1_455 S
C308 C309 1.377 . S
C309 H293 0.930 . S
C309 C308 1.377 . S
C309 C310 1.379 . S
C310 H294 0.931 . S
C310 C304 1.383 1_455 S
C310 C309 1.379 . S
H311 C305 0.959 . S
H312 C305 0.961 . S
H313 C305 0.960 . S
H314 C306 0.930 . S
H315 C307 0.929 . S
H316 C324 0.929 . S
H317 C326 0.930 . S
H318 C328 0.930 . S
H319 C331 0.929 . S
H320 C334 0.930 . S
H321 C336 0.960 . S
H322 C336 0.960 . S
H323 C336 0.960 . S
C324 H316 0.929 . S
C324 C325 1.377 . S
C324 C326 1.384 . S
C325 C324 1.377 . S
C325 C331 1.390 . S
C326 H317 0.930 . S
C326 C324 1.384 . S
C326 C327 1.372 . S
C327 C326 1.372 . S
C327 C328 1.400 . S
C327 C332 1.490 . S
C328 H318 0.930 . S
C328 C327 1.400 . S
C328 C331 1.386 . S
H329 C345 0.930 . S
H330 C346 0.931 . S
C331 H319 0.929 . S
C331 C325 1.390 . S
C331 C328 1.386 . S
C332 C327 1.490 . S
C332 C334 1.395 . S
C332 C335 1.403 . S
H333 C339 0.930 . S
C334 H320 0.930 . S
C334 C332 1.395 . S
C334 C337 1.403 . S
C335 C332 1.403 . S
C335 C336 1.524 . S
C335 C339 1.400 . S
C336 H321 0.960 . S
C336 H322 0.960 . S
C336 H323 0.960 . S
C336 C335 1.524 . S
C337 C334 1.403 . S
C337 C338 1.392 . S
C337 C341 1.495 . S
C338 C337 1.392 . S
C338 C339 1.385 . S
C338 C340 1.478 . S
C339 H333 0.930 . S
C339 C335 1.400 . S
C339 C338 1.385 . S
C340 C338 1.478 . S
C340 C342 1.381 . S
C340 C346 1.383 . S
C341 C337 1.495 . S
C341 H347 0.959 . S
C341 H348 0.961 . S
C341 H349 0.960 . S
C342 C340 1.381 . S
C342 C343 1.394 . S
C342 H350 0.930 . S
C343 C342 1.394 . S
C343 C344 1.383 . S
C343 H351 0.929 . S
C344 C343 1.383 . S
C344 C345 1.377 . S
C345 H329 0.930 . S
C345 C344 1.377 . S
C345 C346 1.379 . S
C346 H330 0.931 . S
C346 C340 1.383 . S
C346 C345 1.379 . S
H347 C341 0.959 . S
H348 C341 0.961 . S
H349 C341 0.960 . S
H350 C342 0.930 . S
H351 C343 0.929 . S
H352 C360 0.929 . S
H353 C362 0.930 . S
H354 C364 0.930 . S
H355 C367 0.929 . S
H356 C370 0.930 . S
H357 C372 0.960 . S
H358 C372 0.960 . S
H359 C372 0.960 . S
C360 H352 0.929 . S
C360 C361 1.377 . S
C360 C362 1.384 . S
C361 C360 1.377 . S
C361 C367 1.390 . S
C362 H353 0.930 . S
C362 C360 1.384 . S
C362 C363 1.372 . S
C363 C362 1.372 . S
C363 C364 1.400 . S
C363 C368 1.490 . S
C364 H354 0.930 . S
C364 C363 1.400 . S
C364 C367 1.386 . S
H365 C381 0.930 1_545 S
H366 C382 0.931 . S
C367 H355 0.929 . S
C367 C361 1.390 . S
C367 C364 1.386 . S
C368 C363 1.490 . S
C368 C370 1.395 . S
C368 C371 1.403 . S
H369 C375 0.930 . S
C370 H356 0.930 . S
C370 C368 1.395 . S
C370 C373 1.403 . S
C371 C368 1.403 . S
C371 C372 1.524 . S
C371 C375 1.400 . S
C372 H357 0.960 . S
C372 H358 0.960 . S
C372 H359 0.960 . S
C372 C371 1.524 . S
C373 C370 1.403 . S
C373 C374 1.392 . S
C373 C377 1.495 . S
C374 C373 1.392 . S
C374 C375 1.385 . S
C374 C376 1.478 . S
C375 H369 0.930 . S
C375 C371 1.400 . S
C375 C374 1.385 . S
C376 C374 1.478 . S
C376 C378 1.381 . S
C376 C382 1.383 . S
C377 C373 1.495 . S
C377 H383 0.959 . S
C377 H384 0.961 . S
C377 H385 0.960 . S
C378 C376 1.381 . S
C378 C379 1.394 . S
C378 H386 0.930 . S
C379 C378 1.394 . S
C379 C380 1.383 . S
C379 H387 0.929 . S
C380 C379 1.383 . S
C380 C381 1.377 . S
C381 H365 0.930 1_565 S
C381 C380 1.377 . S
C381 C382 1.379 . S
C382 H366 0.931 . S
C382 C376 1.383 . S
C382 C381 1.379 . S
H383 C377 0.959 . S
H384 C377 0.961 . S
H385 C377 0.960 . S
H386 C378 0.930 . S
H387 C379 0.929 . S
H388 C396 0.929 . S
H389 C398 0.930 . S
H390 C400 0.930 . S
H391 C403 0.929 . S
H392 C406 0.930 . S
H393 C408 0.960 . S
H394 C408 0.960 . S
H395 C408 0.960 . S
C396 H388 0.929 . S
C396 C397 1.377 . S
C396 C398 1.384 . S
C397 C396 1.377 . S
C397 C403 1.390 . S
C398 H389 0.930 . S
C398 C396 1.384 . S
C398 C399 1.372 . S
C399 C398 1.372 . S
C399 C400 1.400 . S
C399 C404 1.490 . S
C400 H390 0.930 . S
C400 C399 1.400 . S
C400 C403 1.386 . S
H401 C417 0.930 . S
H402 C418 0.931 . S
C403 H391 0.929 . S
C403 C397 1.390 . S
C403 C400 1.386 . S
C404 C399 1.490 . S
C404 C406 1.395 . S
C404 C407 1.403 . S
H405 C411 0.930 . S
C406 H392 0.930 . S
C406 C404 1.395 . S
C406 C409 1.403 . S
C407 C404 1.403 . S
C407 C408 1.524 . S
C407 C411 1.400 . S
C408 H393 0.960 . S
C408 H394 0.960 . S
C408 H395 0.960 . S
C408 C407 1.524 . S
C409 C406 1.403 . S
C409 C410 1.392 . S
C409 C413 1.495 . S
C410 C409 1.392 . S
C410 C411 1.385 . S
C410 C412 1.478 . S
C411 H405 0.930 . S
C411 C407 1.400 . S
C411 C410 1.385 . S
C412 C410 1.478 . S
C412 C414 1.381 . S
C412 C418 1.383 . S
C413 C409 1.495 . S
C413 H419 0.959 . S
C413 H420 0.961 . S
C413 H421 0.960 . S
C414 C412 1.381 . S
C414 C415 1.394 . S
C414 H422 0.930 . S
C415 C414 1.394 . S
C415 C416 1.383 . S
C415 H423 0.929 1_556 S
C416 C415 1.383 . S
C416 C417 1.377 . S
C417 H401 0.930 . S
C417 C416 1.377 . S
C417 C418 1.379 . S
C418 H402 0.931 . S
C418 C412 1.383 . S
C418 C417 1.379 . S
H419 C413 0.959 . S
H420 C413 0.961 . S
H421 C413 0.960 . S
H422 C414 0.930 . S
H423 C415 0.929 1_554 S
H424 C432 0.929 . S
H425 C434 0.930 . S
H426 C436 0.930 . S
H427 C439 0.929 . S
H428 C442 0.930 . S
H429 C444 0.960 . S
H430 C444 0.960 . S
H431 C444 0.960 . S
C432 H424 0.929 . S
C432 C433 1.377 . S
C432 C434 1.384 . S
C433 C432 1.377 . S
C433 C439 1.390 . S
C434 H425 0.930 . S
C434 C432 1.384 . S
C434 C435 1.372 . S
C435 C434 1.372 . S
C435 C436 1.400 . S
C435 C440 1.490 . S
C436 H426 0.930 . S
C436 C435 1.400 . S
C436 C439 1.386 . S
H437 C453 0.930 . S
H438 C454 0.931 . S
C439 H427 0.929 . S
C439 C433 1.390 . S
C439 C436 1.386 . S
C440 C435 1.490 . S
C440 C442 1.395 . S
C440 C443 1.403 . S
H441 C447 0.930 . S
C442 H428 0.930 . S
C442 C440 1.395 . S
C442 C445 1.403 . S
C443 C440 1.403 . S
C443 C444 1.524 . S
C443 C447 1.400 . S
C444 H429 0.960 . S
C444 H430 0.960 . S
C444 H431 0.960 . S
C444 C443 1.524 . S
C445 C442 1.403 . S
C445 C446 1.392 . S
C445 C449 1.495 . S
C446 C445 1.392 . S
C446 C447 1.385 . S
C446 C448 1.478 . S
C447 H441 0.930 . S
C447 C443 1.400 . S
C447 C446 1.385 . S
C448 C446 1.478 . S
C448 C450 1.381 . S
C448 C454 1.383 . S
C449 C445 1.495 . S
C449 H455 0.959 . S
C449 H456 0.961 . S
C449 H457 0.960 . S
C450 C448 1.381 . S
C450 C451 1.394 . S
C450 H458 0.930 . S
C451 C450 1.394 . S
C451 C452 1.383 . S
C451 H459 0.929 . S
C452 C451 1.383 . S
C452 C453 1.377 . S
C453 H437 0.930 . S
C453 C452 1.377 . S
C453 C454 1.379 . S
C454 H438 0.931 . S
C454 C448 1.383 . S
C454 C453 1.379 . S
H455 C449 0.959 . S
H456 C449 0.961 . S
H457 C449 0.960 . S
H458 C450 0.930 . S
H459 C451 0.929 . S
H460 C468 0.929 . S
H461 C470 0.930 . S
H462 C472 0.930 . S
H463 C475 0.929 . S
H464 C478 0.930 . S
H465 C480 0.960 . S
H466 C480 0.960 . S
H467 C480 0.960 . S
C468 H460 0.929 . S
C468 C469 1.377 . S
C468 C470 1.384 . S
C469 C468 1.377 . S
C469 C475 1.390 . S
C470 H461 0.930 . S
C470 C468 1.384 . S
C470 C471 1.372 . S
C471 C470 1.372 . S
C471 C472 1.400 . S
C471 C476 1.490 . S
C472 H462 0.930 . S
C472 C471 1.400 . S
C472 C475 1.386 . S
H473 C489 0.930 . S
H474 C490 0.931 . S
C475 H463 0.929 . S
C475 C469 1.390 . S
C475 C472 1.386 . S
C476 C471 1.490 . S
C476 C478 1.395 . S
C476 C479 1.403 . S
H477 C483 0.930 . S
C478 H464 0.930 . S
C478 C476 1.395 . S
C478 C481 1.403 . S
C479 C476 1.403 . S
C479 C480 1.524 . S
C479 C483 1.400 . S
C480 H465 0.960 . S
C480 H466 0.960 . S
C480 H467 0.960 . S
C480 C479 1.524 . S
C481 C478 1.403 . S
C481 C482 1.392 . S
C481 C485 1.495 . S
C482 C481 1.392 . S
C482 C483 1.385 . S
C482 C484 1.478 . S
C483 H477 0.930 . S
C483 C479 1.400 . S
C483 C482 1.385 . S
C484 C482 1.478 . S
C484 C486 1.381 . S
C484 C490 1.383 . S
C485 C481 1.495 . S
C485 H491 0.959 . S
C485 H492 0.961 . S
C485 H493 0.960 . S
C486 C484 1.381 . S
C486 C487 1.394 . S
C486 H494 0.930 . S
C487 C486 1.394 . S
C487 C488 1.383 . S
C487 H495 0.929 . S
C488 C487 1.383 . S
C488 C489 1.377 . S
C489 H473 0.930 . S
C489 C488 1.377 . S
C489 C490 1.379 . S
C490 H474 0.931 . S
C490 C484 1.383 . S
C490 C489 1.379 . S
H491 C485 0.959 . S
H492 C485 0.961 . S
H493 C485 0.960 . S
H494 C486 0.930 . S
H495 C487 0.929 . S
H496 C504 0.929 . S
H497 C506 0.930 . S
H498 C508 0.930 . S
H499 C511 0.929 . S
H500 C514 0.930 . S
H501 C516 0.960 . S
H502 C516 0.960 . S
H503 C516 0.960 . S
C504 H496 0.929 . S
C504 C505 1.377 . S
C504 C506 1.384 . S
C505 C504 1.377 . S
C505 C511 1.390 . S
C506 H497 0.930 . S
C506 C504 1.384 . S
C506 C507 1.372 . S
C507 C506 1.372 . S
C507 C508 1.400 . S
C507 C512 1.490 . S
C508 H498 0.930 . S
C508 C507 1.400 . S
C508 C511 1.386 . S
H509 C525 0.930 . S
H510 C526 0.931 . S
C511 H499 0.929 . S
C511 C505 1.390 . S
C511 C508 1.386 . S
C512 C507 1.490 . S
C512 C514 1.395 . S
C512 C515 1.403 . S
H513 C519 0.930 . S
C514 H500 0.930 . S
C514 C512 1.395 . S
C514 C517 1.403 . S
C515 C512 1.403 . S
C515 C516 1.524 . S
C515 C519 1.400 . S
C516 H501 0.960 . S
C516 H502 0.960 . S
C516 H503 0.960 . S
C516 C515 1.524 . S
C517 C514 1.403 . S
C517 C518 1.392 . S
C517 C521 1.495 . S
C518 C517 1.392 . S
C518 C519 1.385 . S
C518 C520 1.456 1_556 S
C519 H513 0.930 . S
C519 C515 1.400 . S
C519 C518 1.385 . S
C520 C518 1.456 1_554 S
C520 C522 1.368 1_554 S
C520 C526 1.419 . S
C521 C517 1.495 . S
C521 H527 0.959 . S
C521 H528 0.961 1_556 S
C521 H529 0.960 . S
C522 C520 1.368 1_556 S
C522 C523 1.394 1_556 S
C522 H530 0.930 . S
C523 C522 1.394 1_554 S
C523 C524 1.383 . S
C523 H531 0.929 1_554 S
C524 C523 1.383 . S
C524 C525 1.377 . S
C525 H509 0.930 . S
C525 C524 1.377 . S
C525 C526 1.379 . S
C526 H510 0.931 . S
C526 C520 1.419 . S
C526 C525 1.379 . S
H527 C521 0.959 . S
H528 C521 0.961 1_554 S
H529 C521 0.960 . S
H530 C522 0.930 . S
H531 C523 0.929 1_556 S
H532 C540 0.929 . S
H533 C542 0.930 . S
H534 C544 0.930 . S
H535 C547 0.929 . S
H536 C550 0.930 . S
H537 C552 0.960 . S
H538 C552 0.960 . S
H539 C552 0.960 . S
C540 H532 0.929 . S
C540 C541 1.377 . S
C540 C542 1.384 . S
C541 C540 1.377 . S
C541 C547 1.390 . S
C542 H533 0.930 . S
C542 C540 1.384 . S
C542 C543 1.372 . S
C543 C542 1.372 . S
C543 C544 1.400 . S
C543 C548 1.490 . S
C544 H534 0.930 . S
C544 C543 1.400 . S
C544 C547 1.386 . S
H545 C561 0.930 . S
H546 C562 0.931 . S
C547 H535 0.929 . S
C547 C541 1.390 . S
C547 C544 1.386 . S
C548 C543 1.490 . S
C548 C550 1.395 . S
C548 C551 1.403 . S
H549 C555 0.930 . S
C550 H536 0.930 . S
C550 C548 1.395 . S
C550 C553 1.403 . S
C551 C548 1.403 . S
C551 C552 1.524 . S
C551 C555 1.400 . S
C552 H537 0.960 . S
C552 H538 0.960 . S
C552 H539 0.960 . S
C552 C551 1.524 . S
C553 C550 1.403 . S
C553 C554 1.392 . S
C553 C557 1.495 . S
C554 C553 1.392 . S
C554 C555 1.385 . S
C554 C556 1.478 . S
C555 H549 0.930 . S
C555 C551 1.400 . S
C555 C554 1.385 . S
C556 C554 1.478 . S
C556 C558 1.381 . S
C556 C562 1.383 . S
C557 C553 1.495 . S
C557 H563 0.959 . S
C557 H564 0.961 . S
C557 H565 0.960 . S
C558 C556 1.381 . S
C558 C559 1.394 . S
C558 H566 0.930 . S
C559 C558 1.394 . S
C559 C560 1.383 . S
C559 H567 0.929 . S
C560 C559 1.383 . S
C560 C561 1.377 . S
C561 H545 0.930 . S
C561 C560 1.377 . S
C561 C562 1.379 . S
C562 H546 0.931 . S
C562 C556 1.383 . S
C562 C561 1.379 . S
H563 C557 0.959 . S
H564 C557 0.961 . S
H565 C557 0.960 . S
H566 C558 0.930 . S
H567 C559 0.929 . S
H568 C576 0.929 . S
H569 C578 0.930 . S
H570 C580 0.930 . S
H571 C583 0.929 . S
H572 C586 0.930 . S
H573 C588 0.960 . S
H574 C588 0.960 . S
H575 C588 0.960 . S
C576 H568 0.929 . S
C576 C577 1.377 . S
C576 C578 1.384 . S
C577 C576 1.377 . S
C577 C583 1.390 . S
C578 H569 0.930 . S
C578 C576 1.384 . S
C578 C579 1.372 . S
C579 C578 1.372 . S
C579 C580 1.400 . S
C579 C584 1.490 . S
C580 H570 0.930 . S
C580 C579 1.400 . S
C580 C583 1.386 . S
H581 C597 0.930 . S
H582 C598 0.931 . S
C583 H571 0.929 . S
C583 C577 1.390 . S
C583 C580 1.386 . S
C584 C579 1.490 . S
C584 C586 1.395 . S
C584 C587 1.403 . S
H585 C591 0.930 . S
C586 H572 0.930 . S
C586 C584 1.395 . S
C586 C589 1.403 . S
C587 C584 1.403 . S
C587 C588 1.524 . S
C587 C591 1.400 . S
C588 H573 0.960 . S
C588 H574 0.960 . S
C588 H575 0.960 . S
C588 C587 1.524 . S
C589 C586 1.403 . S
C589 C590 1.392 . S
C589 C593 1.495 . S
C590 C589 1.392 . S
C590 C591 1.385 . S
C590 C592 1.478 . S
C591 H585 0.930 . S
C591 C587 1.400 . S
C591 C590 1.385 . S
C592 C590 1.478 . S
C592 C594 1.381 . S
C592 C598 1.383 . S
C593 C589 1.495 . S
C593 H599 0.959 . S
C593 H600 0.961 . S
C593 H601 0.960 . S
C594 C592 1.381 . S
C594 C595 1.394 . S
C594 H602 0.930 . S
C595 C594 1.394 . S
C595 C596 1.383 . S
C595 H603 0.929 . S
C596 C595 1.383 . S
C596 C597 1.377 . S
C597 H581 0.930 . S
C597 C596 1.377 . S
C597 C598 1.379 . S
C598 H582 0.931 . S
C598 C592 1.383 . S
C598 C597 1.379 . S
H599 C593 0.959 . S
H600 C593 0.961 . S
H601 C593 0.960 . S
H602 C594 0.930 . S
H603 C595 0.929 . S
H604 C612 0.929 . S
H605 C614 0.930 . S
H606 C616 0.930 1_455 S
H607 C619 0.929 . S
H608 C622 0.930 . S
H609 C624 0.960 . S
H610 C624 0.960 . S
H611 C624 0.960 . S
C612 H604 0.929 . S
C612 C613 1.377 . S
C612 C614 1.384 . S
C613 C612 1.377 . S
C613 C619 1.390 . S
C614 H605 0.930 . S
C614 C612 1.384 . S
C614 C615 1.372 . S
C615 C614 1.372 . S
C615 C616 1.400 . S
C615 C620 1.490 . S
C616 H606 0.930 1_655 S
C616 C615 1.400 . S
C616 C619 1.386 . S
H617 C633 0.937 . S
H618 C634 0.931 . S
C619 H607 0.929 . S
C619 C613 1.390 . S
C619 C616 1.386 . S
C620 C615 1.490 . S
C620 C622 1.395 1_565 S
C620 C623 1.403 . S
H621 C627 0.930 . S
C622 H608 0.930 . S
C622 C620 1.395 1_545 S
C622 C625 1.403 . S
C623 C620 1.403 . S
C623 C624 1.524 . S
C623 C627 1.400 . S
C624 H609 0.960 . S
C624 H610 0.960 . S
C624 H611 0.960 . S
C624 C623 1.524 . S
C625 C622 1.403 . S
C625 C626 1.392 1_545 S
C625 C629 1.495 . S
C626 C625 1.392 1_565 S
C626 C627 1.385 . S
C626 C628 1.482 . S
C627 H621 0.930 . S
C627 C623 1.400 . S
C627 C626 1.385 . S
C628 C626 1.482 . S
C628 C630 1.375 1_565 S
C628 C634 1.386 1_655 S
C629 C625 1.495 . S
C629 H635 0.959 . S
C629 H636 0.961 . S
C629 H637 0.960 . S
C630 C628 1.375 1_545 S
C630 C631 1.394 . S
C630 H638 0.930 . S
C631 C630 1.394 . S
C631 C632 1.383 . S
C631 H639 0.929 . S
C632 C631 1.383 . S
C632 C633 1.364 1_645 S
C633 H617 0.937 . S
C633 C632 1.364 1_465 S
C633 C634 1.386 . S
C634 H618 0.931 . S
C634 C628 1.386 1_455 S
C634 C633 1.386 . S
H635 C629 0.959 . S
H636 C629 0.961 . S
H637 C629 0.960 . S
H638 C630 0.930 . S
H639 C631 0.929 . S
H640 C648 0.929 . S
H641 C650 0.930 . S
H642 C652 0.930 . S
H643 C655 0.929 . S
H644 C658 0.930 . S
H645 C660 0.960 . S
H646 C660 0.960 . S
H647 C660 0.960 . S
C648 H640 0.929 . S
C648 C649 1.377 . S
C648 C650 1.384 . S
C649 C648 1.377 . S
C649 C655 1.390 . S
C650 H641 0.930 . S
C650 C648 1.384 . S
C650 C651 1.372 . S
C651 C650 1.372 . S
C651 C652 1.400 . S
C651 C656 1.490 . S
C652 H642 0.930 . S
C652 C651 1.400 . S
C652 C655 1.386 . S
H653 C669 0.930 . S
H654 C670 0.931 . S
C655 H643 0.929 . S
C655 C649 1.390 . S
C655 C652 1.386 . S
C656 C651 1.490 . S
C656 C658 1.395 . S
C656 C659 1.403 . S
H657 C663 0.930 . S
C658 H644 0.930 . S
C658 C656 1.395 . S
C658 C661 1.403 . S
C659 C656 1.403 . S
C659 C660 1.524 . S
C659 C663 1.400 . S
C660 H645 0.960 . S
C660 H646 0.960 . S
C660 H647 0.960 . S
C660 C659 1.524 . S
C661 C658 1.403 . S
C661 C662 1.392 . S
C661 C665 1.495 . S
C662 C661 1.392 . S
C662 C663 1.385 . S
C662 C664 1.478 . S
C663 H657 0.930 . S
C663 C659 1.400 . S
C663 C662 1.385 . S
C664 C662 1.478 . S
C664 C666 1.381 . S
C664 C670 1.383 . S
C665 C661 1.495 . S
C665 H671 0.959 . S
C665 H672 0.961 . S
C665 H673 0.960 1_545 S
C666 C664 1.381 . S
C666 C667 1.394 . S
C666 H674 0.930 . S
C667 C666 1.394 . S
C667 C668 1.383 . S
C667 H675 0.929 . S
C668 C667 1.383 . S
C668 C669 1.377 . S
C669 H653 0.930 . S
C669 C668 1.377 . S
C669 C670 1.379 . S
C670 H654 0.931 . S
C670 C664 1.383 . S
C670 C669 1.379 . S
H671 C665 0.959 . S
H672 C665 0.961 . S
H673 C665 0.960 1_565 S
H674 C666 0.930 . S
H675 C667 0.929 . S
H676 C684 0.929 . S
H677 C686 0.930 . S
H678 C688 0.930 . S
H679 C691 0.929 . S
H680 C694 0.930 . S
H681 C696 0.960 . S
H682 C696 0.960 . S
H683 C696 0.960 . S
C684 H676 0.929 . S
C684 C685 1.377 . S
C684 C686 1.384 . S
C685 C684 1.377 . S
C685 C691 1.390 . S
C686 H677 0.930 . S
C686 C684 1.384 . S
C686 C687 1.372 . S
C687 C686 1.372 . S
C687 C688 1.400 . S
C687 C692 1.490 . S
C688 H678 0.930 . S
C688 C687 1.400 . S
C688 C691 1.386 . S
H689 C705 0.930 . S
H690 C706 0.931 . S
C691 H679 0.929 . S
C691 C685 1.390 . S
C691 C688 1.386 . S
C692 C687 1.490 . S
C692 C694 1.395 . S
C692 C695 1.403 . S
H693 C699 0.930 . S
C694 H680 0.930 . S
C694 C692 1.395 . S
C694 C697 1.403 . S
C695 C692 1.403 . S
C695 C696 1.524 . S
C695 C699 1.400 . S
C696 H681 0.960 . S
C696 H682 0.960 . S
C696 H683 0.960 . S
C696 C695 1.524 . S
C697 C694 1.403 . S
C697 C698 1.392 . S
C697 C701 1.495 . S
C698 C697 1.392 . S
C698 C699 1.385 . S
C698 C700 1.478 . S
C699 H693 0.930 . S
C699 C695 1.400 . S
C699 C698 1.385 . S
C700 C698 1.478 . S
C700 C702 1.381 . S
C700 C706 1.383 . S
C701 C697 1.495 . S
C701 H707 0.959 . S
C701 H708 0.961 . S
C701 H709 0.960 . S
C702 C700 1.381 . S
C702 C703 1.394 . S
C702 H710 0.930 . S
C703 C702 1.394 . S
C703 C704 1.383 . S
C703 H711 0.929 . S
C704 C703 1.383 . S
C704 C705 1.377 . S
C705 H689 0.930 . S
C705 C704 1.377 . S
C705 C706 1.379 . S
C706 H690 0.931 . S
C706 C700 1.383 . S
C706 C705 1.379 . S
H707 C701 0.959 . S
H708 C701 0.961 . S
H709 C701 0.960 . S
H710 C702 0.930 . S
H711 C703 0.929 . S
H712 C720 0.929 . S
H713 C722 0.930 . S
H714 C724 0.930 . S
H715 C727 0.929 . S
H716 C730 0.930 . S
H717 C732 0.960 . S
H718 C732 0.960 . S
H719 C732 0.960 . S
C720 H712 0.929 . S
C720 C721 1.377 . S
C720 C722 1.384 . S
C721 C720 1.377 . S
C721 C727 1.390 . S
C722 H713 0.930 . S
C722 C720 1.384 . S
C722 C723 1.372 . S
C723 C722 1.372 . S
C723 C724 1.400 . S
C723 C728 1.490 . S
C724 H714 0.930 . S
C724 C723 1.400 . S
C724 C727 1.386 . S
H725 C741 0.930 . S
H726 C742 0.931 . S
C727 H715 0.929 . S
C727 C721 1.390 . S
C727 C724 1.386 . S
C728 C723 1.490 . S
C728 C730 1.395 . S
C728 C731 1.403 . S
H729 C735 0.930 . S
C730 H716 0.930 . S
C730 C728 1.395 . S
C730 C733 1.403 . S
C731 C728 1.403 . S
C731 C732 1.524 . S
C731 C735 1.400 . S
C732 H717 0.960 . S
C732 H718 0.960 . S
C732 H719 0.960 . S
C732 C731 1.524 . S
C733 C730 1.403 . S
C733 C734 1.392 . S
C733 C737 1.495 . S
C734 C733 1.392 . S
C734 C735 1.385 . S
C734 C736 1.478 . S
C735 H729 0.930 . S
C735 C731 1.400 . S
C735 C734 1.385 . S
C736 C734 1.478 . S
C736 C738 1.381 . S
C736 C742 1.383 . S
C737 C733 1.495 . S
C737 H743 0.959 . S
C737 H744 0.961 . S
C737 H745 0.960 . S
C738 C736 1.381 . S
C738 C739 1.394 . S
C738 H746 0.930 . S
C739 C738 1.394 . S
C739 C740 1.383 . S
C739 H747 0.929 . S
C740 C739 1.383 . S
C740 C741 1.377 . S
C741 H725 0.930 . S
C741 C740 1.377 . S
C741 C742 1.379 . S
C742 H726 0.931 . S
C742 C736 1.383 . S
C742 C741 1.379 . S
H743 C737 0.959 . S
H744 C737 0.961 . S
H745 C737 0.960 . S
H746 C738 0.930 . S
H747 C739 0.929 . S
H748 C756 0.929 . S
H749 C758 0.933 . S
H750 C760 0.930 . S
H751 C763 0.946 . S
H752 C766 0.930 . S
H753 C768 0.960 . S
H754 C768 0.960 . S
H755 C768 0.960 . S
C756 H748 0.929 . S
C756 C757 1.377 1_556 S
C756 C758 1.384 1_556 S
C757 C756 1.377 1_554 S
C757 C763 1.369 1_565 S
C758 H749 0.933 . S
C758 C756 1.384 1_554 S
C758 C759 1.372 . S
C759 C758 1.372 . S
C759 C760 1.400 1_565 S
C759 C764 1.490 . S
C760 H750 0.930 . S
C760 C759 1.400 1_545 S
C760 C763 1.390 . S
H761 C777 0.930 . S
H762 C778 0.931 . S
C763 H751 0.946 . S
C763 C757 1.369 1_545 S
C763 C760 1.390 . S
C764 C759 1.490 . S
C764 C766 1.395 . S
C764 C767 1.403 1_565 S
H765 C771 0.930 . S
C766 H752 0.930 . S
C766 C764 1.395 . S
C766 C769 1.403 . S
C767 C764 1.403 1_545 S
C767 C768 1.524 1_554 S
C767 C771 1.400 . S
C768 H753 0.960 . S
C768 H754 0.960 . S
C768 H755 0.960 . S
C768 C767 1.524 1_556 S
C769 C766 1.403 . S
C769 C770 1.392 . S
C769 C773 1.495 . S
C770 C769 1.392 . S
C770 C771 1.385 1_565 S
C770 C772 1.478 . S
C771 H765 0.930 . S
C771 C767 1.400 . S
C771 C770 1.385 1_545 S
C772 C770 1.478 . S
C772 C774 1.381 . S
C772 C778 1.383 1_565 S
C773 C769 1.495 . S
C773 H779 0.959 . S
C773 H780 0.961 . S
C773 H781 0.960 . S
C774 C772 1.381 . S
C774 C775 1.394 . S
C774 H782 0.930 . S
C775 C774 1.394 . S
C775 C776 1.383 1_565 S
C775 H783 0.929 . S
C776 C775 1.383 1_545 S
C776 C777 1.377 . S
C777 H761 0.930 . S
C777 C776 1.377 . S
C777 C778 1.379 . S
C778 H762 0.931 . S
C778 C772 1.383 1_545 S
C778 C777 1.379 . S
H779 C773 0.959 . S
H780 C773 0.961 . S
H781 C773 0.960 . S
H782 C774 0.930 . S
H783 C775 0.929 . S
H784 C792 0.929 . S
H785 C794 0.930 . S
H786 C796 0.930 . S
H787 C799 0.929 . S
H788 C802 0.930 . S
H789 C804 0.960 . S
H790 C804 0.960 . S
H791 C804 0.960 . S
C792 H784 0.929 . S
C792 C793 1.377 . S
C792 C794 1.384 . S
C793 C792 1.377 . S
C793 C799 1.390 . S
C794 H785 0.930 . S
C794 C792 1.384 . S
C794 C795 1.372 . S
C795 C794 1.372 . S
C795 C796 1.400 . S
C795 C800 1.490 . S
C796 H786 0.930 . S
C796 C795 1.400 . S
C796 C799 1.386 . S
H797 C813 0.930 . S
H798 C814 0.931 . S
C799 H787 0.929 . S
C799 C793 1.390 . S
C799 C796 1.386 . S
C800 C795 1.490 . S
C800 C802 1.395 . S
C800 C803 1.403 . S
H801 C807 0.930 . S
C802 H788 0.930 . S
C802 C800 1.395 . S
C802 C805 1.403 . S
C803 C800 1.403 . S
C803 C804 1.524 . S
C803 C807 1.400 . S
C804 H789 0.960 . S
C804 H790 0.960 . S
C804 H791 0.960 . S
C804 C803 1.524 . S
C805 C802 1.403 . S
C805 C806 1.392 . S
C805 C809 1.495 . S
C806 C805 1.392 . S
C806 C807 1.385 . S
C806 C808 1.478 . S
C807 H801 0.930 . S
C807 C803 1.400 . S
C807 C806 1.385 . S
C808 C806 1.478 . S
C808 C810 1.381 . S
C808 C814 1.383 . S
C809 C805 1.495 . S
C809 H815 0.959 . S
C809 H816 0.961 . S
C809 H817 0.960 . S
C810 C808 1.381 . S
C810 C811 1.394 . S
C810 H818 0.930 . S
C811 C810 1.394 . S
C811 C812 1.383 . S
C811 H819 0.929 . S
C812 C811 1.383 . S
C812 C813 1.377 . S
C813 H797 0.930 . S
C813 C812 1.377 . S
C813 C814 1.379 . S
C814 H798 0.931 . S
C814 C808 1.383 . S
C814 C813 1.379 . S
H815 C809 0.959 . S
H816 C809 0.961 . S
H817 C809 0.960 . S
H818 C810 0.930 . S
H819 C811 0.929 . S
H820 C828 0.929 . S
H821 C830 0.930 . S
H822 C832 0.930 . S
H823 C835 0.929 . S
H824 C838 0.930 . S
H825 C840 0.960 1_556 S
H826 C840 0.960 . S
H827 C840 0.960 . S
C828 H820 0.929 . S
C828 C829 1.377 . S
C828 C830 1.384 . S
C829 C828 1.377 . S
C829 C835 1.390 . S
C830 H821 0.930 . S
C830 C828 1.384 . S
C830 C831 1.372 . S
C831 C830 1.372 . S
C831 C832 1.400 . S
C831 C836 1.490 . S
C832 H822 0.930 . S
C832 C831 1.400 . S
C832 C835 1.386 . S
H833 C849 0.930 . S
H834 C850 0.931 . S
C835 H823 0.929 . S
C835 C829 1.390 . S
C835 C832 1.386 . S
C836 C831 1.490 . S
C836 C838 1.395 . S
C836 C839 1.403 . S
H837 C843 0.930 . S
C838 H824 0.930 . S
C838 C836 1.395 . S
C838 C841 1.403 . S
C839 C836 1.403 . S
C839 C840 1.524 . S
C839 C843 1.400 . S
C840 H825 0.960 1_554 S
C840 H826 0.960 . S
C840 H827 0.960 . S
C840 C839 1.524 . S
C841 C838 1.403 . S
C841 C842 1.392 . S
C841 C845 1.495 . S
C842 C841 1.392 . S
C842 C843 1.385 . S
C842 C844 1.478 . S
C843 H837 0.930 . S
C843 C839 1.400 . S
C843 C842 1.385 . S
C844 C842 1.478 . S
C844 C846 1.381 . S
C844 C850 1.383 . S
C845 C841 1.495 . S
C845 H851 0.959 . S
C845 H852 0.961 . S
C845 H853 0.960 . S
C846 C844 1.381 . S
C846 C847 1.394 . S
C846 H854 0.930 . S
C847 C846 1.394 . S
C847 C848 1.383 . S
C847 H855 0.929 . S
C848 C847 1.383 . S
C848 C849 1.377 . S
C849 H833 0.930 . S
C849 C848 1.377 . S
C849 C850 1.379 . S
C850 H834 0.931 . S
C850 C844 1.383 . S
C850 C849 1.379 . S
H851 C845 0.959 . S
H852 C845 0.961 . S
H853 C845 0.960 . S
H854 C846 0.930 . S
H855 C847 0.929 . S
H856 C864 0.929 . S
H857 C866 0.930 . S
H858 C868 0.930 . S
H859 C871 0.929 . S
H860 C874 0.930 . S
H861 C876 0.960 . S
H862 C876 0.960 . S
H863 C876 0.960 . S
C864 H856 0.929 . S
C864 C865 1.377 . S
C864 C866 1.384 . S
C865 C864 1.377 . S
C865 C871 1.390 . S
C866 H857 0.930 . S
C866 C864 1.384 . S
C866 C867 1.372 . S
C867 C866 1.372 . S
C867 C868 1.400 . S
C867 C872 1.490 . S
C868 H858 0.930 . S
C868 C867 1.400 . S
C868 C871 1.386 . S
H869 C885 0.930 . S
H870 C886 0.931 . S
C871 H859 0.929 . S
C871 C865 1.390 . S
C871 C868 1.386 . S
C872 C867 1.490 . S
C872 C874 1.395 . S
C872 C875 1.403 . S
H873 C879 0.930 . S
C874 H860 0.930 . S
C874 C872 1.395 . S
C874 C877 1.403 . S
C875 C872 1.403 . S
C875 C876 1.524 . S
C875 C879 1.400 . S
C876 H861 0.960 . S
C876 H862 0.960 . S
C876 H863 0.960 . S
C876 C875 1.524 . S
C877 C874 1.403 . S
C877 C878 1.392 . S
C877 C881 1.495 . S
C878 C877 1.392 . S
C878 C879 1.385 . S
C878 C880 1.478 . S
C879 H873 0.930 . S
C879 C875 1.400 . S
C879 C878 1.385 . S
C880 C878 1.478 . S
C880 C882 1.381 . S
C880 C886 1.383 . S
C881 C877 1.495 . S
C881 H887 0.959 . S
C881 H888 0.961 . S
C881 H889 0.960 . S
C882 C880 1.381 . S
C882 C883 1.394 . S
C882 H890 0.930 . S
C883 C882 1.394 . S
C883 C884 1.383 . S
C883 H891 0.929 . S
C884 C883 1.383 . S
C884 C885 1.377 . S
C885 H869 0.930 . S
C885 C884 1.377 . S
C885 C886 1.379 . S
C886 H870 0.931 . S
C886 C880 1.383 . S
C886 C885 1.379 . S
H887 C881 0.959 . S
H888 C881 0.961 . S
H889 C881 0.960 . S
H890 C882 0.930 . S
H891 C883 0.929 . S
H892 C900 0.929 1_554 S
H893 C902 0.928 1_554 S
H894 C904 0.930 . S
H895 C907 0.929 . S
H896 C910 0.930 . S
H897 C912 0.960 . S
H898 C912 0.960 . S
H899 C912 0.960 . S
C900 H892 0.929 1_556 S
C900 C901 1.379 . S
C900 C902 1.383 . S
C901 C900 1.379 . S
C901 C907 1.390 1_655 S
C902 H893 0.928 1_556 S
C902 C900 1.383 . S
C902 C903 1.387 . S
C903 C902 1.387 . S
C903 C904 1.389 1_655 S
C903 C908 1.486 1_655 S
C904 H894 0.930 . S
C904 C903 1.389 1_455 S
C904 C907 1.386 . S
H905 C921 0.930 . S
H906 C922 0.931 . S
C907 H895 0.929 . S
C907 C901 1.390 1_455 S
C907 C904 1.386 . S
C908 C903 1.486 1_455 S
C908 C910 1.395 1_455 S
C908 C911 1.403 1_556 S
H909 C915 0.930 . S
C910 H896 0.930 . S
C910 C908 1.395 1_655 S
C910 C913 1.403 . S
C911 C908 1.403 1_554 S
C911 C912 1.524 . S
C911 C915 1.400 . S
C912 H897 0.960 . S
C912 H898 0.960 . S
C912 H899 0.960 . S
C912 C911 1.524 . S
C913 C910 1.403 . S
C913 C914 1.394 1_655 S
C913 C917 1.494 . S
C914 C913 1.394 1_455 S
C914 C915 1.385 1_556 S
C914 C916 1.478 . S
C915 H909 0.930 . S
C915 C911 1.400 . S
C915 C914 1.385 1_554 S
C916 C914 1.478 . S
C916 C918 1.383 . S
C916 C922 1.383 . S
C917 C913 1.494 . S
C917 H923 0.959 . S
C917 H924 0.961 1_655 S
C917 H925 0.960 . S
C918 C916 1.383 . S
C918 C919 1.393 1_556 S
C918 H926 0.929 1_456 S
C919 C918 1.393 1_554 S
C919 C920 1.383 1_554 S
C919 H927 0.929 1_455 S
C920 C919 1.383 1_556 S
C920 C921 1.377 . S
C921 H905 0.930 . S
C921 C920 1.377 . S
C921 C922 1.379 . S
C922 H906 0.931 . S
C922 C916 1.383 . S
C922 C921 1.379 . S
H923 C917 0.959 . S
H924 C917 0.961 1_455 S
H925 C917 0.960 . S
H926 C918 0.929 1_654 S
H927 C919 0.929 1_655 S
H928 C936 0.929 . S
H929 C938 0.930 . S
H930 C940 0.930 . S
H931 C943 0.929 . S
H932 C946 0.930 . S
H933 C948 0.960 . S
H934 C948 0.960 . S
H935 C948 0.960 . S
C936 H928 0.929 . S
C936 C937 1.377 . S
C936 C938 1.384 . S
C937 C936 1.377 . S
C937 C943 1.390 . S
C938 H929 0.930 . S
C938 C936 1.384 . S
C938 C939 1.372 . S
C939 C938 1.372 . S
C939 C940 1.400 . S
C939 C944 1.490 . S
C940 H930 0.930 . S
C940 C939 1.400 . S
C940 C943 1.386 . S
H941 C957 0.930 . S
H942 C958 0.931 . S
C943 H931 0.929 . S
C943 C937 1.390 . S
C943 C940 1.386 . S
C944 C939 1.490 . S
C944 C946 1.395 . S
C944 C947 1.403 . S
H945 C951 0.930 . S
C946 H932 0.930 . S
C946 C944 1.395 . S
C946 C949 1.403 . S
C947 C944 1.403 . S
C947 C948 1.524 . S
C947 C951 1.400 . S
C948 H933 0.960 . S
C948 H934 0.960 . S
C948 H935 0.960 . S
C948 C947 1.524 . S
C949 C946 1.403 . S
C949 C950 1.392 . S
C949 C953 1.495 . S
C950 C949 1.392 . S
C950 C951 1.385 . S
C950 C952 1.478 . S
C951 H945 0.930 . S
C951 C947 1.400 . S
C951 C950 1.385 . S
C952 C950 1.478 . S
C952 C954 1.381 . S
C952 C958 1.383 . S
C953 C949 1.495 . S
C953 H959 0.959 . S
C953 H960 0.961 . S
C953 H961 0.960 . S
C954 C952 1.381 . S
C954 C955 1.394 . S
C954 H962 0.930 . S
C955 C954 1.394 . S
C955 C956 1.383 . S
C955 H963 0.929 . S
C956 C955 1.383 . S
C956 C957 1.377 . S
C957 H941 0.930 . S
C957 C956 1.377 . S
C957 C958 1.379 . S
C958 H942 0.931 . S
C958 C952 1.383 . S
C958 C957 1.379 . S
H959 C953 0.959 . S
H960 C953 0.961 . S
H961 C953 0.960 . S
H962 C954 0.930 . S
H963 C955 0.929 . S
H964 C972 0.929 . S
H965 C974 0.930 . S
H966 C976 0.930 . S
H967 C979 0.929 . S
H968 C982 0.930 . S
H969 C984 0.960 . S
H970 C984 0.960 . S
H971 C984 0.960 . S
C972 H964 0.929 . S
C972 C973 1.377 . S
C972 C974 1.384 . S
C973 C972 1.377 . S
C973 C979 1.390 . S
C974 H965 0.930 . S
C974 C972 1.384 . S
C974 C975 1.372 . S
C975 C974 1.372 . S
C975 C976 1.400 . S
C975 C980 1.490 . S
C976 H966 0.930 . S
C976 C975 1.400 . S
C976 C979 1.386 . S
H977 C993 0.930 . S
H978 C994 0.931 . S
C979 H967 0.929 . S
C979 C973 1.390 . S
C979 C976 1.386 . S
C980 C975 1.490 . S
C980 C982 1.395 . S
C980 C983 1.403 . S
H981 C987 0.930 . S
C982 H968 0.930 . S
C982 C980 1.395 . S
C982 C985 1.403 . S
C983 C980 1.403 . S
C983 C984 1.524 . S
C983 C987 1.400 . S
C984 H969 0.960 . S
C984 H970 0.960 . S
C984 H971 0.960 . S
C984 C983 1.524 . S
C985 C982 1.403 . S
C985 C986 1.392 . S
C985 C989 1.495 1_455 S
C986 C985 1.392 . S
C986 C987 1.385 . S
C986 C988 1.478 . S
C987 H981 0.930 . S
C987 C983 1.400 . S
C987 C986 1.385 . S
C988 C986 1.478 . S
C988 C990 1.381 . S
C988 C994 1.383 . S
C989 C985 1.495 1_655 S
C989 H995 0.959 . S
C989 H996 0.961 . S
C989 H997 0.960 . S
C990 C988 1.381 . S
C990 C991 1.394 . S
C990 H998 0.930 . S
C991 C990 1.394 . S
C991 C992 1.383 . S
C991 H999 0.929 . S
C992 C991 1.383 . S
C992 C993 1.377 . S
C993 H977 0.930 . S
C993 C992 1.377 . S
C993 C994 1.379 . S
C994 H978 0.931 . S
C994 C988 1.383 . S
C994 C993 1.379 . S
H995 C989 0.959 . S
H996 C989 0.961 . S
H997 C989 0.960 . S
H998 C990 0.930 . S
H999 C991 0.929 . S
H1000 C1008 0.929 . S
H1001 C1010 0.930 . S
H1002 C1012 0.930 . S
H1003 C1015 0.929 . S
H1004 C1018 0.930 . S
H1005 C1020 0.960 . S
H1006 C1020 0.960 . S
H1007 C1020 0.960 . S
C1008 H1000 0.929 . S
C1008 C1009 1.377 . S
C1008 C1010 1.384 . S
C1009 C1008 1.377 . S
C1009 C1015 1.390 . S
C1010 H1001 0.930 . S
C1010 C1008 1.384 . S
C1010 C1011 1.372 . S
C1011 C1010 1.372 . S
C1011 C1012 1.400 . S
C1011 C1016 1.490 . S
C1012 H1002 0.930 . S
C1012 C1011 1.400 . S
C1012 C1015 1.386 . S
H1013 C1029 0.930 . S
H1014 C1030 0.931 . S
C1015 H1003 0.929 . S
C1015 C1009 1.390 . S
C1015 C1012 1.386 . S
C1016 C1011 1.490 . S
C1016 C1018 1.395 . S
C1016 C1019 1.403 . S
H1017 C1023 0.930 . S
C1018 H1004 0.930 . S
C1018 C1016 1.395 . S
C1018 C1021 1.403 . S
C1019 C1016 1.403 . S
C1019 C1020 1.524 . S
C1019 C1023 1.400 . S
C1020 H1005 0.960 . S
C1020 H1006 0.960 . S
C1020 H1007 0.960 . S
C1020 C1019 1.524 . S
C1021 C1018 1.403 . S
C1021 C1022 1.392 . S
C1021 C1025 1.495 . S
C1022 C1021 1.392 . S
C1022 C1023 1.385 . S
C1022 C1024 1.478 . S
C1023 H1017 0.930 . S
C1023 C1019 1.400 . S
C1023 C1022 1.385 . S
C1024 C1022 1.478 . S
C1024 C1026 1.381 . S
C1024 C1030 1.383 . S
C1025 C1021 1.495 . S
C1025 H1031 0.959 . S
C1025 H1032 0.961 . S
C1025 H1033 0.960 . S
C1026 C1024 1.381 . S
C1026 C1027 1.394 . S
C1026 H1034 0.930 . S
C1027 C1026 1.394 . S
C1027 C1028 1.383 . S
C1027 H1035 0.929 . S
C1028 C1027 1.383 . S
C1028 C1029 1.377 . S
C1029 H1013 0.930 . S
C1029 C1028 1.377 . S
C1029 C1030 1.379 . S
C1030 H1014 0.931 . S
C1030 C1024 1.383 . S
C1030 C1029 1.379 . S
H1031 C1025 0.959 . S
H1032 C1025 0.961 . S
H1033 C1025 0.960 . S
H1034 C1026 0.930 . S
H1035 C1027 0.929 . S
C181 C5 1.707 . S
C200 C91 1.777 . S
C217 C18 1.575 . S
C236 C125 1.535 1_566 S
C272 C137 1.199 . S
C253 C30 1.260 . S
C289 C41 1.182 . S
C308 C171 1.157 . S
C344 C128 1.693 . S
C325 C7 1.778 . S
C380 C108 1.686 . S
C361 C16 1.586 . S
C416 C155 1.403 . S
C397 C29 1.479 . S
C452 C146 0.931 . S
C433 C38 0.930 . S
C469 C8 1.708 . S
C488 C154 1.597 . S
C524 C116 1.610 . S
C505 C27 1.513 . S
C541 C40 1.486 . S
C560 C92 1.348 . S
C577 C19 1.194 . S
C596 C149 1.174 . S
C632 C107 1.552 . S
C613 C51 1.677 . S
C649 C62 1.670 . S
C668 C129 1.650 . S
C685 C74 1.462 . S
C704 C134 1.448 . S
C721 C84 1.353 . S
C740 C167 1.360 . S
C757 C49 1.978 1_554 S
C776 C112 1.886 . S
C812 C104 1.514 . S
C793 C63 1.573 . S
C848 C158 1.433 . S
C829 C71 1.189 . S
C884 C150 1.142 . S
C865 C85 1.196 . S
C901 C52 1.726 . S
C920 C170 1.622 . S
C956 C113 1.856 . S
C937 C73 1.839 . S
C992 C95 1.336 . S
C973 C82 1.112 . S
C1009 C60 1.385 . S
C1028 C133 1.637 . S
