# Generated by pormake.
# Topology iac, (4,6)-cn, num edge types: 1
# Building blocks:
#     Node 0, Type 0, BuildingBlock: KUFVIS_clean_sbu_0, # of connection points: 4
#     Node 1, Type 0, BuildingBlock: KUFVIS_clean_sbu_0, # of connection points: 4
#     Node 2, Type 0, BuildingBlock: KUFVIS_clean_sbu_0, # of connection points: 4
#     Node 3, Type 0, BuildingBlock: KUFVIS_clean_sbu_0, # of connection points: 4
#     Node 4, Type 0, BuildingBlock: KUFVIS_clean_sbu_0, # of connection points: 4
#     Node 5, Type 0, BuildingBlock: KUFVIS_clean_sbu_0, # of connection points: 4
#     Node 6, Type 0, BuildingBlock: KUFVIS_clean_sbu_0, # of connection points: 4
#     Node 7, Type 0, BuildingBlock: KUFVIS_clean_sbu_0, # of connection points: 4
#     Node 8, Type 0, BuildingBlock: KUFVIS_clean_sbu_0, # of connection points: 4
#     Node 9, Type 0, BuildingBlock: KUFVIS_clean_sbu_0, # of connection points: 4
#     Node 10, Type 0, BuildingBlock: KUFVIS_clean_sbu_0, # of connection points: 4
#     Node 11, Type 0, BuildingBlock: KUFVIS_clean_sbu_0, # of connection points: 4
#     Node 12, Type 0, BuildingBlock: KUFVIS_clean_sbu_0, # of connection points: 4
#     Node 13, Type 0, BuildingBlock: KUFVIS_clean_sbu_0, # of connection points: 4
#     Node 14, Type 0, BuildingBlock: KUFVIS_clean_sbu_0, # of connection points: 4
#     Node 15, Type 0, BuildingBlock: KUFVIS_clean_sbu_0, # of connection points: 4
#     Node 16, Type 0, BuildingBlock: KUFVIS_clean_sbu_0, # of connection points: 4
#     Node 17, Type 0, BuildingBlock: KUFVIS_clean_sbu_0, # of connection points: 4
#     Node 18, Type 0, BuildingBlock: KUFVIS_clean_sbu_0, # of connection points: 4
#     Node 19, Type 0, BuildingBlock: KUFVIS_clean_sbu_0, # of connection points: 4
#     Node 20, Type 0, BuildingBlock: KUFVIS_clean_sbu_0, # of connection points: 4
#     Node 21, Type 0, BuildingBlock: KUFVIS_clean_sbu_0, # of connection points: 4
#     Node 22, Type 0, BuildingBlock: KUFVIS_clean_sbu_0, # of connection points: 4
#     Node 23, Type 0, BuildingBlock: KUFVIS_clean_sbu_0, # of connection points: 4
#     Node 24, Type 1, BuildingBlock: VOLQOD_clean_sbu_1, # of connection points: 6
#     Node 25, Type 1, BuildingBlock: VOLQOD_clean_sbu_1, # of connection points: 6
#     Node 26, Type 1, BuildingBlock: VOLQOD_clean_sbu_1, # of connection points: 6
#     Node 27, Type 1, BuildingBlock: VOLQOD_clean_sbu_1, # of connection points: 6
#     Node 28, Type 1, BuildingBlock: VOLQOD_clean_sbu_1, # of connection points: 6
#     Node 29, Type 1, BuildingBlock: VOLQOD_clean_sbu_1, # of connection points: 6
#     Node 30, Type 1, BuildingBlock: VOLQOD_clean_sbu_1, # of connection points: 6
#     Node 31, Type 1, BuildingBlock: VOLQOD_clean_sbu_1, # of connection points: 6
#     Node 32, Type 1, BuildingBlock: VOLQOD_clean_sbu_1, # of connection points: 6
#     Node 33, Type 1, BuildingBlock: VOLQOD_clean_sbu_1, # of connection points: 6
#     Node 34, Type 1, BuildingBlock: VOLQOD_clean_sbu_1, # of connection points: 6
#     Node 35, Type 1, BuildingBlock: VOLQOD_clean_sbu_1, # of connection points: 6
#     Node 36, Type 1, BuildingBlock: VOLQOD_clean_sbu_1, # of connection points: 6
#     Node 37, Type 1, BuildingBlock: VOLQOD_clean_sbu_1, # of connection points: 6
#     Node 38, Type 1, BuildingBlock: VOLQOD_clean_sbu_1, # of connection points: 6
#     Node 39, Type 1, BuildingBlock: VOLQOD_clean_sbu_1, # of connection points: 6
#     Edge 40, Type (0, 1), None
#     Edge 41, Type (0, 1), None
#     Edge 42, Type (0, 1), None
#     Edge 43, Type (0, 1), None
#     Edge 44, Type (0, 1), None
#     Edge 45, Type (0, 1), None
#     Edge 46, Type (0, 1), None
#     Edge 47, Type (0, 1), None
#     Edge 48, Type (0, 1), None
#     Edge 49, Type (0, 1), None
#     Edge 50, Type (0, 1), None
#     Edge 51, Type (0, 1), None
#     Edge 52, Type (0, 1), None
#     Edge 53, Type (0, 1), None
#     Edge 54, Type (0, 1), None
#     Edge 55, Type (0, 1), None
#     Edge 56, Type (0, 1), None
#     Edge 57, Type (0, 1), None
#     Edge 58, Type (0, 1), None
#     Edge 59, Type (0, 1), None
#     Edge 60, Type (0, 1), None
#     Edge 61, Type (0, 1), None
#     Edge 62, Type (0, 1), None
#     Edge 63, Type (0, 1), None
#     Edge 64, Type (0, 1), None
#     Edge 65, Type (0, 1), None
#     Edge 66, Type (0, 1), None
#     Edge 67, Type (0, 1), None
#     Edge 68, Type (0, 1), None
#     Edge 69, Type (0, 1), None
#     Edge 70, Type (0, 1), None
#     Edge 71, Type (0, 1), None
#     Edge 72, Type (0, 1), None
#     Edge 73, Type (0, 1), None
#     Edge 74, Type (0, 1), None
#     Edge 75, Type (0, 1), None
#     Edge 76, Type (0, 1), None
#     Edge 77, Type (0, 1), None
#     Edge 78, Type (0, 1), None
#     Edge 79, Type (0, 1), None
#     Edge 80, Type (0, 1), None
#     Edge 81, Type (0, 1), None
#     Edge 82, Type (0, 1), None
#     Edge 83, Type (0, 1), None
#     Edge 84, Type (0, 1), None
#     Edge 85, Type (0, 1), None
#     Edge 86, Type (0, 1), None
#     Edge 87, Type (0, 1), None
#     Edge 88, Type (0, 1), None
#     Edge 89, Type (0, 1), None
#     Edge 90, Type (0, 1), None
#     Edge 91, Type (0, 1), None
#     Edge 92, Type (0, 1), None
#     Edge 93, Type (0, 1), None
#     Edge 94, Type (0, 1), None
#     Edge 95, Type (0, 1), None
#     Edge 96, Type (0, 1), None
#     Edge 97, Type (0, 1), None
#     Edge 98, Type (0, 1), None
#     Edge 99, Type (0, 1), None
#     Edge 100, Type (0, 1), None
#     Edge 101, Type (0, 1), None
#     Edge 102, Type (0, 1), None
#     Edge 103, Type (0, 1), None
#     Edge 104, Type (0, 1), None
#     Edge 105, Type (0, 1), None
#     Edge 106, Type (0, 1), None
#     Edge 107, Type (0, 1), None
#     Edge 108, Type (0, 1), None
#     Edge 109, Type (0, 1), None
#     Edge 110, Type (0, 1), None
#     Edge 111, Type (0, 1), None
#     Edge 112, Type (0, 1), None
#     Edge 113, Type (0, 1), None
#     Edge 114, Type (0, 1), None
#     Edge 115, Type (0, 1), None
#     Edge 116, Type (0, 1), None
#     Edge 117, Type (0, 1), None
#     Edge 118, Type (0, 1), None
#     Edge 119, Type (0, 1), None
#     Edge 120, Type (0, 1), None
#     Edge 121, Type (0, 1), None
#     Edge 122, Type (0, 1), None
#     Edge 123, Type (0, 1), None
#     Edge 124, Type (0, 1), None
#     Edge 125, Type (0, 1), None
#     Edge 126, Type (0, 1), None
#     Edge 127, Type (0, 1), None
#     Edge 128, Type (0, 1), None
#     Edge 129, Type (0, 1), None
#     Edge 130, Type (0, 1), None
#     Edge 131, Type (0, 1), None
#     Edge 132, Type (0, 1), None
#     Edge 133, Type (0, 1), None
#     Edge 134, Type (0, 1), None
#     Edge 135, Type (0, 1), None
# Relax obj value: 0.303
# Max RMSD: 0.291
# Mean RMSD: 0.133
data_MOF--net-iac--node1-KUFVIS_clean_sbu_0--node2-VOLQOD_clean_sbu_1--edge1-none
_symmetry_space_group_name_H-M    P1
_symmetry_Int_Tables_number       1
_symmetry_cell_setting            triclinic
loop_
_symmetry_equiv_pos_as_xyz
'x, y, z'
_cell_length_a     27.138929
_cell_length_b     26.6538
_cell_length_c     27.449264
_cell_angle_alpha  88.835465
_cell_angle_beta   89.126603
_cell_angle_gamma 90.980932
loop_
_atom_site_label
_atom_site_type_symbol
_atom_site_fract_x
_atom_site_fract_y
_atom_site_fract_z
_atom_type_partial_charge
Mn0 Mn -0.00517 0.22508 0.14346 0.0
Mn1 Mn 0.91809 0.23733 0.04894 0.0
C2 C -0.02167 0.1569 0.09454 0.0
C3 C 0.0688 0.24837 0.17668 0.0
C4 C 0.88462 0.21265 0.15291 0.0
O5 O -0.01567 0.29994 0.13904 0.0
O6 O 0.94664 0.30211 0.06761 0.0
C7 C -0.00337 0.27062 0.97856 0.0
N8 N 0.95522 0.24282 0.98943 0.0
C9 C 0.95428 0.20987 0.90893 0.0
C10 C -0.00601 0.24177 0.89547 0.0
C11 C 0.01606 0.27152 0.93089 0.0
C12 C 0.93619 0.21127 0.95693 0.0
H13 H 0.01573 0.29017 0.00646 0.0
C14 C 0.97224 0.32252 0.10034 0.0
O15 O 0.03053 0.23775 0.20405 0.0
O16 O 0.06585 0.23982 0.13022 0.0
N17 N 0.88933 0.17863 0.02256 0.0
C18 C 0.85766 0.1443 0.04384 0.0
C19 C 0.84092 0.10391 0.01658 0.0
C20 C 0.8546 0.10102 0.96727 0.0
C21 C 0.88373 0.13916 0.94504 0.0
C22 C 0.90146 0.17695 0.97458 0.0
H23 H 0.84702 0.14646 0.08174 0.0
O24 O 0.00096 0.15082 0.13565 0.0
O25 O 0.97259 0.20289 0.0799 0.0
O26 O 0.92695 0.21155 0.17178 0.0
O27 O 0.87674 0.2287 0.10938 0.0
C28 C 0.89826 0.1399 0.89549 0.0
C29 C 0.93353 0.17499 0.87738 0.0
H30 H 0.00933 0.24185 0.85879 0.0
H31 H 0.04843 0.29428 0.92178 0.0
H32 H 0.81777 0.07506 0.03366 0.0
H33 H 0.84319 0.06883 0.94729 0.0
H34 H 0.8854 0.11177 0.87139 0.0
H35 H 0.9461 0.17314 0.83981 0.0
Mn36 Mn -0.00535 0.74967 0.36859 0.0
Mn37 Mn 0.90955 0.73451 0.45887 0.0
C38 C -0.01719 0.81323 0.42647 0.0
C39 C 0.06869 0.73083 0.32923 0.0
C40 C 0.88593 0.75452 0.35067 0.0
O41 O -0.01775 0.6743 0.37421 0.0
O42 O 0.94405 0.67114 0.44731 0.0
C43 C 0.96866 0.70482 0.54478 0.0
N44 N 0.93517 0.73557 0.52357 0.0
C45 C 0.91872 0.77535 0.59993 0.0
C46 C 0.95279 0.74392 0.62252 0.0
C47 C -0.0218 0.7088 0.59469 0.0
C48 C 0.91159 0.77042 0.54977 0.0
H49 H -0.01217 0.67726 0.52396 0.0
C50 C 0.97364 0.65338 0.41572 0.0
O51 O 0.02928 0.74043 0.30568 0.0
O52 O 0.06691 0.73588 0.37651 0.0
N53 N 0.87627 0.79464 0.47628 0.0
C54 C 0.84573 0.82359 0.44905 0.0
C55 C 0.81753 0.8603 0.47166 0.0
C56 C 0.82042 0.86656 0.5222 0.0
C57 C 0.85244 0.83705 0.54945 0.0
C58 C 0.87993 0.8012 0.5249 0.0
H59 H 0.84208 0.81842 0.41051 0.0
O60 O 0.00405 0.82287 0.38422 0.0
O61 O 0.97023 0.76718 0.43408 0.0
O62 O 0.92939 0.76533 0.33706 0.0
O63 O 0.87616 0.73507 0.39313 0.0
C64 C 0.85759 0.8414 0.60019 0.0
C65 C 0.8912 0.81103 0.62533 0.0
H66 H 0.95974 0.74644 0.66116 0.0
H67 H 0.00463 0.6844 0.61179 0.0
H68 H 0.79309 0.88316 0.45019 0.0
H69 H 0.79805 0.89424 0.53988 0.0
H70 H 0.83637 0.86851 0.62013 0.0
H71 H 0.89547 0.81533 0.66422 0.0
Mn72 Mn 0.49116 0.72792 0.64323 0.0
Mn73 Mn 0.40822 0.74597 0.55634 0.0
C74 C 0.47263 0.66312 0.59013 0.0
C75 C 0.56634 0.74766 0.677 0.0
C76 C 0.38273 0.71986 0.66054 0.0
O77 O 0.47995 0.80318 0.64187 0.0
O78 O 0.44271 0.8093 0.56997 0.0
C79 C 0.46745 0.78229 0.47024 0.0
N80 N 0.43529 0.74846 0.49175 0.0
C81 C 0.42096 0.70964 0.41521 0.0
C82 C 0.45331 0.74432 0.3921 0.0
C83 C 0.47711 0.78063 0.41995 0.0
C84 C 0.413 0.71298 0.46555 0.0
H85 H 0.48541 0.81051 0.49097 0.0
C86 C 0.47029 0.82701 0.6028 0.0
O87 O 0.52759 0.73617 0.70306 0.0
O88 O 0.56316 0.7437 0.62981 0.0
N89 N 0.37543 0.68568 0.53874 0.0
C90 C 0.34868 0.65164 0.56663 0.0
C91 C 0.32951 0.60841 0.5454 0.0
C92 C 0.33679 0.60161 0.49556 0.0
C93 C 0.36188 0.6386 0.46759 0.0
C94 C 0.38237 0.67926 0.4907 0.0
H95 H 0.34365 0.65569 0.60499 0.0
O96 O 0.49698 0.65419 0.62982 0.0
O97 O 0.46574 0.7101 0.57975 0.0
O98 O 0.42556 0.71136 0.67534 0.0
O99 O 0.37419 0.7428 0.62046 0.0
C100 C 0.36769 0.63615 0.41751 0.0
C101 C 0.3962 0.67166 0.39051 0.0
H102 H 0.46047 0.74309 0.35321 0.0
H103 H 0.50251 0.8075 0.40269 0.0
H104 H 0.30983 0.58025 0.56741 0.0
H105 H 0.32377 0.56756 0.47915 0.0
H106 H 0.34926 0.60688 0.40057 0.0
H107 H 0.40013 0.66828 0.35139 0.0
Mn108 Mn 0.49153 0.24273 0.86871 0.0
Mn109 Mn 0.39531 0.22989 0.94873 0.0
C110 C 0.47807 0.30456 0.92942 0.0
C111 C 0.56855 0.21858 0.83424 0.0
C112 C 0.38563 0.25457 0.84032 0.0
O113 O 0.47299 0.1686 0.87073 0.0
O114 O 0.42611 0.16527 0.93909 0.0
C115 C 0.42939 0.18651 0.0423 0.0
N116 N 0.4076 0.22445 0.01703 0.0
C117 C 0.36566 0.25108 0.08958 0.0
C118 C 0.38708 0.21184 0.1161 0.0
C119 C 0.41974 0.17985 0.09243 0.0
C120 C 0.37731 0.25627 0.03985 0.0
H121 H 0.45277 0.16054 0.02424 0.0
C122 C 0.45835 0.14728 0.91053 0.0
O123 O 0.53208 0.23253 0.80829 0.0
O124 O 0.5625 0.22247 0.88136 0.0
N125 N 0.36506 0.29203 0.96303 0.0
C126 C 0.34693 0.3279 0.93241 0.0
C127 C 0.31929 0.36691 0.95172 0.0
C128 C 0.30975 0.36774 0.00205 0.0
C129 C 0.32715 0.32966 0.0324 0.0
C130 C 0.3565 0.29324 0.01155 0.0
H131 H 0.35382 0.32728 0.89375 0.0
O132 O 0.50412 0.31425 0.8898 0.0
O133 O 0.46135 0.25919 0.93329 0.0
O134 O 0.43041 0.26488 0.83104 0.0
O135 O 0.3717 0.23409 0.88067 0.0
C136 C 0.31572 0.32603 0.08241 0.0
C137 C 0.33419 0.28614 0.11081 0.0
H138 H 0.37953 0.20665 0.15476 0.0
H139 H 0.43681 0.14962 0.11256 0.0
H140 H 0.30515 0.39599 0.92793 0.0
H141 H 0.28932 0.39783 0.01754 0.0
H142 H 0.29246 0.35357 0.09913 0.0
H143 H 0.32488 0.28337 0.1493 0.0
Mn144 Mn 0.08458 0.00564 0.23896 0.0
Mn145 Mn 0.17878 -0.01007 0.31435 0.0
C146 C 0.14149 0.07497 0.25083 0.0
C147 C 0.04286 -0.01679 0.16896 0.0
C148 C 0.07015 0.00105 0.34737 0.0
O149 O 0.09348 0.92939 0.24627 0.0
O150 O 0.16899 0.92786 0.27626 0.0
C151 C 0.26395 0.96994 0.24886 0.0
N152 N 0.24215 -0.00177 0.2838 0.0
C153 C 0.31132 0.05515 0.28347 0.0
C154 C 0.3345 0.02691 0.24755 0.0
C155 C 0.31076 -0.01616 0.23036 0.0
C156 C 0.26524 0.03887 0.30153 0.0
H157 H 0.246 0.93702 0.23481 0.0
C158 C 0.13668 0.91115 0.24716 0.0
O159 O 0.0199 -0.00734 0.20895 0.0
O160 O 0.09027 -0.00668 0.16708 0.0
N161 N 0.19448 0.0492 0.34938 0.0
C162 C 0.16747 0.07353 0.3836 0.0
C163 C 0.18659 0.117 0.40466 0.0
C164 C 0.23322 0.13532 0.39008 0.0
C165 C 0.26026 0.10968 0.35493 0.0
C166 C 0.24023 0.06553 0.33651 0.0
H167 H 0.13174 0.06015 0.39509 0.0
O168 O 0.09789 0.08128 0.23243 0.0
O169 O 0.1511 0.02815 0.25944 0.0
O170 O 0.05492 0.01579 0.3065 0.0
O171 O 0.11351 -0.01745 0.3521 0.0
C172 C 0.30638 0.12644 0.33743 0.0
C173 C 0.33215 0.09905 0.30192 0.0
H174 H 0.37046 0.03797 0.23291 0.0
H175 H 0.32832 0.96163 0.20269 0.0
H176 H 0.16542 0.13634 0.43198 0.0
H177 H 0.24816 0.16876 0.40647 0.0
H178 H 0.3231 0.15943 0.35294 0.0
H179 H 0.36881 0.11105 0.29009 0.0
Mn180 Mn 0.23942 0.84496 0.50466 0.0
Mn181 Mn 0.24879 0.94651 0.43116 0.0
C182 C 0.31642 0.8863 0.49485 0.0
C183 C 0.21559 0.80847 0.58101 0.0
C184 C 0.24077 0.83999 0.39316 0.0
O185 O 0.16832 0.87154 0.4984 0.0
O186 O 0.1843 0.94822 0.46635 0.0
C187 C 0.24432 0.03222 0.49797 0.0
N188 N 0.26808 0.00679 0.46224 0.0
C189 C 0.3255 0.0749 0.44824 0.0
C190 C 0.30169 0.10213 0.48458 0.0
C191 C 0.26124 0.08037 0.51004 0.0
C192 C 0.30795 0.02665 0.43873 0.0
H193 H 0.21235 0.01629 0.51678 0.0
C194 C 0.15789 0.91823 0.49303 0.0
O195 O 0.21527 0.78291 0.54135 0.0
O196 O 0.23111 0.85475 0.57679 0.0
N197 N 0.31101 0.95125 0.39728 0.0
C198 C 0.33206 0.91958 0.3648 0.0
C199 C 0.3743 0.93501 0.33822 0.0
C200 C 0.39426 -0.01693 0.34473 0.0
C201 C 0.37275 0.0145 0.37897 0.0
C202 C 0.33085 -0.00283 0.40462 0.0
H203 H 0.31691 0.88307 0.35818 0.0
O204 O 0.31322 0.84018 0.51129 0.0
O205 O 0.27463 0.90674 0.48555 0.0
O206 O 0.24633 0.81667 0.43378 0.0
O207 O 0.22962 0.88659 0.39205 0.0
C208 C 0.38991 0.06343 0.38668 0.0
C209 C 0.36516 0.09428 0.42005 0.0
H210 H 0.31409 0.13974 0.49311 0.0
H211 H 0.24254 0.10104 0.53814 0.0
H212 H 0.39078 0.91032 0.31198 0.0
H213 H 0.42588 -0.00433 0.32299 0.0
H214 H 0.42039 0.07806 0.36478 0.0
H215 H 0.37696 0.13287 0.42417 0.0
Mn216 Mn 0.36517 -0.01723 0.74927 0.0
Mn217 Mn 0.26709 -0.01359 0.8226 0.0
C218 C 0.31783 0.90891 0.76367 0.0
C219 C 0.40261 0.00578 0.6766 0.0
C220 C 0.37241 -0.01716 0.85745 0.0
O221 O 0.34938 0.05793 0.75477 0.0
O222 O 0.27249 0.05008 0.78431 0.0
C223 C 0.1832 -0.00173 0.75566 0.0
N224 N 0.20638 0.97187 0.79147 0.0
C225 C 0.13951 0.91232 0.79769 0.0
C226 C 0.11463 0.93886 0.76129 0.0
C227 C 0.1368 -0.01805 0.73992 0.0
C228 C 0.18577 0.93006 0.81171 0.0
H229 H 0.19968 0.03163 0.73916 0.0
C230 C 0.30496 0.07285 0.75753 0.0
O231 O 0.42765 0.00162 0.71615 0.0
O232 O 0.3561 -0.00741 0.67825 0.0
N233 N 0.25676 0.92471 0.8584 0.0
C234 C 0.2852 0.90191 0.89271 0.0
C235 C 0.26946 0.85652 0.91478 0.0
C236 C 0.22396 0.83555 0.90247 0.0
C237 C 0.19491 0.86027 0.86814 0.0
C238 C 0.21257 0.90496 0.84674 0.0
H239 H 0.31932 0.91788 0.90412 0.0
O240 O 0.36221 0.90712 0.74507 0.0
O241 O 0.30167 0.95372 0.76971 0.0
O242 O 0.39297 0.97322 0.8173 0.0
O243 O 0.32863 0.00028 0.85986 0.0
C244 C 0.14804 0.84318 0.85605 0.0
C245 C 0.11962 0.86971 0.82174 0.0
H246 H 0.07853 0.92655 0.74959 0.0
H247 H 0.11802 0.00277 0.71171 0.0
H248 H 0.29188 0.83833 0.94198 0.0
H249 H 0.21102 0.80125 0.92062 0.0
H250 H 0.13311 0.81109 0.8756 0.0
H251 H 0.08236 0.85719 0.81432 0.0
Mn252 Mn 0.21253 0.12666 0.01362 0.0
Mn253 Mn 0.21913 0.02908 0.93976 0.0
C254 C 0.1413 0.07367 0.00378 0.0
C255 C 0.23873 0.16562 0.08452 0.0
C256 C 0.21233 0.13917 0.90461 0.0
O257 O 0.28597 0.11496 0.00207 0.0
O258 O 0.2823 0.03678 0.97505 0.0
C259 C 0.23537 0.94357 0.00827 0.0
N260 N 0.20831 0.96591 0.97263 0.0
C261 C 0.15049 0.89687 0.9739 0.0
C262 C 0.17777 0.87294 0.01024 0.0
C263 C 0.22041 0.8965 0.02758 0.0
C264 C 0.16726 0.94362 0.95574 0.0
H265 H 0.26815 0.96132 0.02211 0.0
C266 C 0.30256 0.07056 0.00071 0.0
O267 O 0.22982 0.19061 0.04496 0.0
O268 O 0.22715 0.11781 0.08518 0.0
N269 N 0.15866 0.01575 0.90716 0.0
C270 C 0.13443 0.04438 0.87375 0.0
C271 C 0.09036 0.02648 0.85401 0.0
C272 C 0.07171 -0.02082 0.86853 0.0
C273 C 0.09725 0.95046 0.9028 0.0
C274 C 0.14127 0.96979 0.92085 0.0
H275 H 0.14823 0.08053 0.86185 0.0
O276 O 0.13813 0.11793 0.02292 0.0
O277 O 0.1861 0.0609 -0.00574 0.0
O278 O 0.2012 0.15689 0.94567 0.0
O279 O 0.22836 0.09413 0.90051 0.0
C280 C 0.08114 0.90277 0.91887 0.0
C281 C 0.10765 0.87579 0.95438 0.0
H282 H 0.16631 0.83653 0.02506 0.0
H283 H 0.24174 0.87842 0.05572 0.0
H284 H 0.07108 0.04888 0.82733 0.0
H285 H 0.03827 0.96483 0.85246 0.0
H286 H 0.04931 0.88585 0.90236 0.0
H287 H 0.0952 0.83847 0.96576 0.0
Mn288 Mn 0.739 0.3421 0.00804 0.0
Mn289 Mn 0.7499 0.44323 0.93353 0.0
C290 C 0.81684 0.38211 -0.00321 0.0
C291 C 0.71417 0.30675 0.08507 0.0
C292 C 0.74507 0.33567 0.89558 0.0
O293 O 0.66771 0.36803 0.00124 0.0
O294 O 0.68318 0.44227 0.96432 0.0
C295 C 0.73977 0.52293 0.00648 0.0
N296 N 0.76468 0.50234 0.96848 0.0
C297 C 0.81887 0.57369 0.96089 0.0
C298 C 0.79343 0.59645 -0.00083 0.0
C299 C 0.75418 0.57046 0.02272 0.0
C300 C 0.80412 0.52564 0.94755 0.0
H301 H 0.70882 0.50359 0.02397 0.0
C302 C 0.65614 0.41363 -0.00843 0.0
O303 O 0.71409 0.28092 0.04556 0.0
O304 O 0.73042 0.35276 0.08046 0.0
N305 N 0.81299 0.45298 0.90257 0.0
C306 C 0.83619 0.42463 0.86867 0.0
C307 C 0.87758 0.44445 0.84325 0.0
C308 C 0.89386 0.49366 0.85193 0.0
C309 C 0.86973 0.52183 0.88728 0.0
C310 C 0.82926 0.49992 0.91201 0.0
H311 H 0.82285 0.38763 0.86013 0.0
O312 O 0.81294 0.33657 0.01458 0.0
O313 O 0.77519 0.40314 0.98786 0.0
O314 O 0.74591 0.31311 0.93725 0.0
O315 O 0.73667 0.38298 0.89219 0.0
C316 C 0.88208 0.57207 0.89672 0.0
C317 C 0.8567 0.59776 0.93381 0.0
H318 H 0.80366 0.6338 0.01065 0.0
H319 H 0.73441 0.58747 0.05249 0.0
H320 H 0.89599 0.42243 0.81598 0.0
H321 H 0.92475 0.50954 0.83106 0.0
H322 H 0.91041 0.59149 0.8751 0.0
H323 H 0.8648 0.63663 0.94015 0.0
Mn324 Mn 0.87092 0.47922 0.24474 0.0
Mn325 Mn 0.77469 0.48245 0.32059 0.0
C326 C 0.82519 0.40417 0.26196 0.0
C327 C 0.9058 0.50219 0.17038 0.0
C328 C 0.88104 0.47929 0.35364 0.0
O329 O 0.85486 0.55474 0.24914 0.0
O330 O 0.78046 0.5469 0.28412 0.0
C331 C 0.69263 0.49634 0.25198 0.0
N332 N 0.71407 0.46993 0.2889 0.0
C333 C 0.6454 0.41297 0.29478 0.0
C334 C 0.62188 0.43992 0.25773 0.0
C335 C 0.64592 0.48165 0.23586 0.0
C336 C 0.69193 0.42915 0.30932 0.0
H337 H 0.71086 0.52827 0.23466 0.0
C338 C 0.81112 0.57028 0.256 0.0
O339 O 0.93196 0.49866 0.20928 0.0
O340 O 0.85966 0.48781 0.17349 0.0
N341 N 0.76287 0.42089 0.35571 0.0
C342 C 0.79095 0.397 0.38958 0.0
C343 C 0.77332 0.35246 0.41214 0.0
C344 C 0.72657 0.33366 0.40056 0.0
C345 C 0.69813 0.35964 0.36651 0.0
C346 C 0.71768 0.40324 0.34463 0.0
H347 H 0.82637 0.4115 0.3998 0.0
O348 O 0.869 0.40317 0.24204 0.0
O349 O 0.80842 0.44898 0.26751 0.0
O350 O 0.90086 0.47152 0.31255 0.0
O351 O 0.83649 0.49426 0.35786 0.0
C352 C 0.65017 0.34503 0.35488 0.0
C353 C 0.6237 0.37161 0.319 0.0
H354 H 0.58555 0.42874 0.2457 0.0
H355 H 0.62845 0.50254 0.20685 0.0
H356 H 0.79534 0.33317 0.43894 0.0
H357 H 0.71247 0.2998 0.4187 0.0
H358 H 0.63305 0.31433 0.37521 0.0
H359 H 0.58635 0.36118 0.31048 0.0
Mn360 Mn 0.72463 0.62993 0.52233 0.0
Mn361 Mn 0.73286 0.53079 0.4478 0.0
C362 C 0.65318 0.58206 0.50356 0.0
C363 C 0.74404 0.66423 0.59889 0.0
C364 C 0.7193 0.63973 0.41017 0.0
O365 O 0.79843 0.61885 0.51765 0.0
O366 O 0.79817 0.54883 0.47451 0.0
C367 C 0.76437 0.45801 0.52434 0.0
N368 N 0.73332 0.47087 0.48766 0.0
C369 C 0.6874 0.39384 0.49987 0.0
C370 C 0.71988 0.37914 0.53639 0.0
C371 C 0.75844 0.41164 0.54892 0.0
C372 C 0.69552 0.44039 0.47609 0.0
H373 H 0.79308 0.48299 0.53557 0.0
C374 C 0.81872 0.57922 0.50343 0.0
O375 O 0.74003 0.69187 0.55976 0.0
O376 O 0.73171 0.61708 0.59492 0.0
N377 N 0.67363 0.50418 0.4213 0.0
C378 C 0.64485 0.52395 0.38572 0.0
C379 C 0.60281 0.49726 0.37131 0.0
C380 C 0.59195 0.44981 0.39224 0.0
C381 C 0.62333 0.42911 0.42733 0.0
C382 C 0.66428 0.45772 0.44064 0.0
H383 H 0.65332 0.56016 0.3691 0.0
O384 O 0.65026 0.62544 0.52427 0.0
O385 O 0.6977 0.56505 0.49985 0.0
O386 O 0.71959 0.66028 0.45198 0.0
O387 O 0.72904 0.59289 0.4046 0.0
C388 C 0.61643 0.38086 0.44903 0.0
C389 C 0.64764 0.36369 0.48578 0.0
H390 H 0.71519 0.34332 0.55541 0.0
H391 H 0.7833 0.40119 0.57773 0.0
H392 H 0.57927 0.5128 0.34356 0.0
H393 H 0.56026 0.42909 0.37959 0.0
H394 H 0.58911 0.35482 0.43587 0.0
H395 H 0.64146 0.32667 0.50198 0.0
Mn396 Mn 0.58019 0.49149 0.73567 0.0
Mn397 Mn 0.6661 0.4691 0.81991 0.0
C398 C 0.63355 0.5593 0.76009 0.0
C399 C 0.54803 0.47789 0.65777 0.0
C400 C 0.55668 0.48412 0.84407 0.0
O401 O 0.58743 0.41463 0.73779 0.0
O402 O 0.65728 0.40943 0.77905 0.0
C403 C 0.75419 0.45137 0.7575 0.0
N404 N 0.73089 0.47784 0.79285 0.0
C405 C 0.79604 0.53948 0.79232 0.0
C406 C 0.82066 0.51338 0.75572 0.0
C407 C 0.79986 0.46868 0.73864 0.0
C408 C 0.75142 0.51976 0.81069 0.0
H409 H 0.73805 0.41762 0.7432 0.0
C410 C 0.62849 0.39377 0.74627 0.0
O411 O 0.52037 0.48274 0.69592 0.0
O412 O 0.5952 0.48615 0.66331 0.0
N413 N 0.68091 0.52468 0.85945 0.0
C414 C 0.65608 0.54181 0.89899 0.0
C415 C 0.67235 0.58558 0.92152 0.0
C416 C 0.7156 0.60961 0.90441 0.0
C417 C 0.743 0.58775 0.86695 0.0
C418 C 0.72525 0.54393 0.84654 0.0
H419 H 0.62581 0.52092 0.91451 0.0
O420 O 0.59283 0.56713 0.73673 0.0
O421 O 0.64326 0.51194 0.76566 0.0
O422 O 0.54382 0.49703 0.80153 0.0
O423 O 0.59845 0.46337 0.85209 0.0
C424 C 0.7875 0.60766 0.84944 0.0
C425 C 0.81397 0.58436 0.8115 0.0
H426 H 0.85562 0.52712 0.74076 0.0
H427 H 0.8186 0.44801 0.71055 0.0
H428 H 0.65229 0.60004 0.95243 0.0
H429 H 0.72843 0.64362 0.92147 0.0
H430 H 0.80226 0.63931 0.86797 0.0
H431 H 0.84934 0.5995 0.79911 0.0
Mn432 Mn -0.00557 0.74078 0.87923 0.0
Mn433 Mn 0.9231 0.72716 0.9789 0.0
C434 C -0.02203 0.81126 0.93007 0.0
C435 C 0.06493 0.75164 0.83057 0.0
C436 C 0.88321 0.7221 0.8739 0.0
O437 O 0.00335 0.66487 0.89873 0.0
O438 O 0.94535 0.66439 0.95782 0.0
C439 C 0.0011 0.68893 0.04532 0.0
N440 N 0.96528 0.72269 0.03482 0.0
C441 C -0.01956 0.76588 0.10949 0.0
C442 C 0.01708 0.73144 0.12109 0.0
C443 C 0.02758 0.69288 0.0887 0.0
C444 C 0.95575 0.76023 0.0654 0.0
H445 H 0.00989 0.65918 0.021 0.0
C446 C 0.97656 0.64259 0.93224 0.0
O447 O 0.02403 0.73698 0.81212 0.0
O448 O 0.06599 0.75482 0.87787 0.0
N449 N 0.89961 0.78527 0.00716 0.0
C450 C 0.86327 0.814 -0.00963 0.0
C451 C 0.84907 0.85412 0.01781 0.0
C452 C 0.86925 0.86301 0.06381 0.0
C453 C 0.90646 0.83226 0.08069 0.0
C454 C 0.92044 0.79303 0.05098 0.0
H455 H 0.84667 0.80725 0.95556 0.0
O456 O -0.01577 0.81639 0.88316 0.0
O457 O 0.97657 0.76474 0.94514 0.0
O458 O 0.9255 0.72475 0.85467 0.0
O459 O 0.87683 0.73025 0.92007 0.0
C460 C 0.92999 0.83873 0.1256 0.0
C461 C 0.96738 0.80567 0.13986 0.0
H462 H 0.03743 0.73432 0.15461 0.0
H463 H 0.056 0.66618 0.09713 0.0
H464 H 0.82255 0.87687 0.00195 0.0
H465 H 0.85581 0.89265 0.08634 0.0
H466 H 0.91982 0.86907 0.14921 0.0
H467 H -0.01435 0.81104 0.17423 0.0
Mn468 Mn -0.00603 0.23397 0.63428 0.0
Mn469 Mn 0.9222 0.24693 0.5401 0.0
C470 C -0.02274 0.156 0.59383 0.0
C471 C 0.07469 0.22738 0.66199 0.0
C472 C 0.88968 0.26495 0.64752 0.0
O473 O -0.01053 0.313 0.61704 0.0
O474 O 0.97282 0.29687 0.54131 0.0
C475 C -0.01728 0.24769 0.44972 0.0
N476 N 0.94793 0.2255 0.47982 0.0
C477 C 0.95213 0.14895 0.4381 0.0
C478 C -0.0122 0.17004 0.40592 0.0
C479 C 0.00232 0.22039 0.41104 0.0
C480 C 0.92941 0.17982 0.47168 0.0
H481 H -0.00394 0.28545 0.45577 0.0
C482 C 0.97482 0.32782 0.57466 0.0
O483 O 0.03906 0.23925 0.69156 0.0
O484 O 0.06507 0.22811 0.61607 0.0
N485 N 0.87598 0.1951 0.53693 0.0
C486 C 0.84649 0.18125 0.57526 0.0
C487 C 0.84328 0.13137 0.58865 0.0
C488 C 0.86579 0.09682 0.55918 0.0
C489 C 0.88883 0.11101 0.51404 0.0
C490 C 0.89373 0.16207 0.50472 0.0
H491 H 0.82917 0.20832 0.59809 0.0
O492 O -0.00889 0.15792 0.63837 0.0
O493 O 0.97007 0.2014 0.57451 0.0
O494 O 0.92481 0.23998 0.66612 0.0
O495 O 0.88869 0.27395 0.60133 0.0
C496 C 0.91631 0.07906 0.48365 0.0
C497 C 0.94378 0.09762 0.44328 0.0
H498 H 0.00588 0.14739 0.37886 0.0
H499 H 0.03032 0.23714 0.38705 0.0
H500 H 0.82522 0.11971 0.6226 0.0
H501 H 0.8678 0.06136 0.57667 0.0
H502 H 0.92136 0.04079 0.49169 0.0
H503 H 0.96314 0.07204 0.42021 0.0
Mn504 Mn 0.47927 0.21981 0.3895 0.0
Mn505 Mn 0.49703 0.29655 0.29596 0.0
C506 C 0.41162 0.23283 0.33268 0.0
C507 C 0.47401 0.1475 0.43982 0.0
C508 C 0.48486 0.33642 0.39563 0.0
O509 O 0.55418 0.21119 0.37215 0.0
O510 O 0.55202 0.28398 0.33627 0.0
C511 C 0.5455 0.21281 0.23926 0.0
N512 N 0.51912 0.25595 0.2419 0.0
C513 C 0.51099 0.25836 0.15458 0.0
C514 C 0.54409 0.2189 0.15079 0.0
C515 C 0.55981 0.19464 0.1935 0.0
C516 C 0.49795 0.27403 0.20129 0.0
H517 H 0.55389 0.19071 0.27113 0.0
C518 C 0.57329 0.24389 0.3424 0.0
O519 O 0.48403 0.19079 0.45704 0.0
O520 O 0.4697 0.14525 0.39275 0.0
N521 N 0.44779 0.31608 0.25485 0.0
C522 C 0.41281 0.34876 0.26628 0.0
C523 C 0.38381 0.36649 0.2299 0.0
C524 C 0.39282 0.35474 0.18112 0.0
C525 C 0.43336 0.32511 0.16955 0.0
C526 C 0.45941 0.30539 0.2084 0.0
H527 H 0.40614 0.36006 0.3033 0.0
O528 O 0.40425 0.2259 0.37936 0.0
O529 O 0.45827 0.23759 0.32134 0.0
O530 O 0.49032 0.29298 0.4143 0.0
O531 O 0.4757 0.34173 0.35002 0.0
C532 C 0.45008 0.31553 0.12183 0.0
C533 C 0.48857 0.28146 0.11422 0.0
H534 H 0.55492 0.20482 0.11554 0.0
H535 H 0.58198 0.16142 0.19116 0.0
H536 H 0.35764 0.39157 0.24159 0.0
H537 H 0.37029 0.3712 0.15317 0.0
H538 H 0.43235 0.33259 0.0908 0.0
H539 H 0.49911 0.27172 0.07744 0.0
Mn540 Mn 0.49522 0.73257 0.1347 0.0
Mn541 Mn 0.42804 0.74851 0.03736 0.0
C542 C 0.48056 0.65452 0.09182 0.0
C543 C 0.57679 0.7263 0.16323 0.0
C544 C 0.39101 0.76578 0.14438 0.0
O545 O 0.4895 0.81217 0.1192 0.0
O546 O 0.48126 0.79593 0.04263 0.0
C547 C 0.49445 0.7453 0.95105 0.0
N548 N 0.45643 0.72552 0.97868 0.0
C549 C 0.45906 0.64827 0.93758 0.0
C550 C 0.49778 0.6671 0.90768 0.0
C551 C 0.51487 0.71657 0.91376 0.0
C552 C 0.43615 0.68073 0.96957 0.0
H553 H 0.50959 0.78218 0.95804 0.0
C554 C 0.47868 0.82714 0.07575 0.0
O555 O 0.54058 0.73744 0.19242 0.0
O556 O 0.56718 0.72735 0.1173 0.0
N557 N 0.37924 0.6995 0.03069 0.0
C558 C 0.34613 0.68753 0.06667 0.0
C559 C 0.3407 0.63801 0.08102 0.0
C560 C 0.36463 0.60212 0.05422 0.0
C561 C 0.39012 0.61447 0.0101 0.0
C562 C 0.39764 0.66517 0.00024 0.0
H563 H 0.32847 0.71581 0.08788 0.0
O564 O 0.49429 0.65577 0.13643 0.0
O565 O 0.47013 0.70027 0.07515 0.0
O566 O 0.4246 0.73912 0.16432 0.0
O567 O 0.3924 0.77563 0.09806 0.0
C568 C 0.41707 0.58054 0.98151 0.0
C569 C 0.44707 0.5974 0.94212 0.0
H570 H 0.51618 0.64329 0.88183 0.0
H571 H 0.54524 0.73147 0.89163 0.0
H572 H 0.32062 0.62772 0.11424 0.0
H573 H 0.36579 0.56721 0.07269 0.0
H574 H 0.41783 0.5416 0.98955 0.0
H575 H 0.46506 0.57062 0.91938 0.0
Mn576 Mn 0.86805 -0.0203 0.74334 0.0
Mn577 Mn 0.76874 -0.02079 0.82248 0.0
C578 C 0.81245 0.90169 0.75287 0.0
C579 C 0.91635 0.95996 0.67095 0.0
C580 C 0.91134 0.01962 0.85575 0.0
O581 O 0.83594 0.05412 0.72695 0.0
O582 O 0.76095 0.03975 0.76648 0.0
C583 C 0.69114 -0.02568 0.74459 0.0
N584 N 0.70483 0.96732 0.79211 0.0
C585 C 0.62003 0.95475 0.81696 0.0
C586 C 0.60509 0.96622 0.76948 0.0
C587 C 0.64096 -0.02542 0.73276 0.0
C588 C 0.67066 0.95463 0.82593 0.0
H589 H 0.7183 -0.01885 0.71589 0.0
C590 C 0.78998 0.06683 0.73784 0.0
O591 O 0.93597 -0.0196 0.70752 0.0
O592 O 0.86893 0.96031 0.67204 0.0
N593 N 0.73764 0.91809 0.86076 0.0
C594 C 0.75917 0.88155 0.89164 0.0
C595 C 0.73748 0.87166 0.94088 0.0
C596 C 0.67847 0.89123 0.95039 0.0
C597 C 0.65629 0.91949 0.90717 0.0
C598 C 0.6889 0.93295 0.86629 0.0
H599 H 0.7908 0.86004 0.88037 0.0
O600 O 0.86011 0.90065 0.74871 0.0
O601 O 0.79635 0.94605 0.75823 0.0
O602 O 0.91787 0.00383 0.81002 0.0
O603 O 0.86747 0.01771 0.8784 0.0
C604 C 0.60519 0.92102 0.89915 0.0
C605 C 0.58703 0.93883 0.85436 0.0
H606 H 0.5664 0.96609 0.76031 0.0
H607 H 0.63003 -0.01852 0.69549 0.0
H608 H 0.76353 0.84279 0.96146 0.0
H609 H 0.70919 0.87857 0.95458 0.0
H610 H 0.58003 0.90207 0.92422 0.0
H611 H 0.54775 0.93699 0.84795 0.0
Mn612 Mn 0.73029 0.09754 0.51885 0.0
Mn613 Mn 0.71588 0.01399 0.42847 0.0
C614 C 0.66597 0.02404 0.53405 0.0
C615 C 0.70451 0.16792 0.56813 0.0
C616 C 0.77826 0.15496 0.40828 0.0
O617 O 0.78928 0.04191 0.52526 0.0
O618 O 0.77335 -0.01826 0.46953 0.0
C619 C 0.70369 0.92401 0.50181 0.0
N620 N 0.69813 0.9455 0.45603 0.0
C621 C 0.67001 0.86512 0.42665 0.0
C622 C 0.67966 0.84238 0.47169 0.0
C623 C 0.69523 0.87235 0.50992 0.0
C624 C 0.67974 0.9168 0.4211 0.0
H625 H 0.71754 0.94526 0.53184 0.0
C626 C 0.79915 -0.00057 0.50384 0.0
O627 O 0.67733 0.15095 0.53383 0.0
O628 O 0.74621 0.14648 0.57159 0.0
N629 N 0.65262 -0.00657 0.3981 0.0
C630 C 0.6182 0.02519 0.37692 0.0
C631 C 0.60167 0.01343 0.32762 0.0
C632 C 0.60943 0.95352 0.30901 0.0
C633 C 0.63746 0.91934 0.34438 0.0
C634 C 0.6599 0.94366 0.38545 0.0
H635 H 0.60219 0.05588 0.3969 0.0
O636 O 0.68581 0.05001 0.56735 0.0
O637 O 0.68418 0.03854 0.49419 0.0
O638 O 0.76928 0.15517 0.4576 0.0
O639 O 0.76495 0.11634 0.38044 0.0
C640 C 0.62842 0.86711 0.34869 0.0
C641 C 0.64541 0.83988 0.38937 0.0
H642 H 0.67242 0.80268 0.47816 0.0
H643 H 0.70129 0.85565 0.54555 0.0
H644 H 0.57354 0.04611 0.31896 0.0
H645 H 0.60216 -0.01287 0.3097 0.0
H646 H 0.60442 0.8484 0.32343 0.0
H647 H 0.63615 0.80029 0.3933 0.0
Mn648 Mn 0.57685 -0.01046 0.24236 0.0
Mn649 Mn 0.67251 -0.01317 0.32023 0.0
C650 C 0.63652 0.06556 0.24665 0.0
C651 C 0.53399 0.008 0.16867 0.0
C652 C 0.52912 0.95377 0.35969 0.0
O653 O 0.60738 0.91341 0.22978 0.0
O654 O 0.68109 0.92708 0.26833 0.0
C655 C 0.75206 -0.01191 0.24022 0.0
N656 N 0.73768 -0.00519 0.28783 0.0
C657 C 0.82252 0.00162 0.31161 0.0
C658 C 0.83787 -0.0101 0.26433 0.0
C659 C 0.8024 -0.01533 0.22801 0.0
C660 C 0.77193 0.00502 0.32074 0.0
H661 H 0.72522 -0.01673 0.21188 0.0
C662 C 0.65211 0.89934 0.24297 0.0
O663 O 0.51254 -0.01204 0.20599 0.0
O664 O 0.5813 0.0081 0.16977 0.0
N665 N 0.70721 0.04634 0.35357 0.0
C666 C 0.68729 0.08435 0.38232 0.0
C667 C 0.70634 0.09089 0.43202 0.0
C668 C 0.76302 0.06644 0.44391 0.0
C669 C 0.78561 0.03789 0.40107 0.0
C670 C 0.75429 0.02811 0.35993 0.0
H671 H 0.65754 0.10775 0.36967 0.0
O672 O 0.58917 0.06895 0.24185 0.0
O673 O 0.64934 0.02044 0.25484 0.0
O674 O 0.52253 0.96924 0.31296 0.0
O675 O 0.57277 0.95451 0.3799 0.0
C676 C 0.83645 0.03256 0.39325 0.0
C677 C 0.85517 0.0146 0.34879 0.0
H678 H 0.87667 -0.01248 0.25496 0.0
H679 H 0.81372 -0.02234 0.19082 0.0
H680 H 0.6792 0.11883 0.45197 0.0
H681 H 0.73298 0.08138 0.44713 0.0
H682 H 0.86141 0.04709 0.41907 0.0
H683 H 0.89467 0.01345 0.34274 0.0
Mn684 Mn 0.7004 0.85913 0.02819 0.0
Mn685 Mn 0.72341 0.94711 0.93577 0.0
C686 C 0.7772 0.94577 0.04039 0.0
C687 C 0.75178 0.83083 0.09496 0.0
C688 C 0.67182 0.80349 0.91462 0.0
O689 O 0.63772 0.90769 0.02883 0.0
O690 O 0.6604 0.97212 0.97694 0.0
C691 C 0.72107 0.03979 0.00137 0.0
N692 N 0.7337 0.01703 0.95839 0.0
C693 C 0.74796 0.09843 0.92014 0.0
C694 C 0.7296 0.12173 0.96167 0.0
C695 C 0.71753 0.09225 0.00309 0.0
C696 C 0.75011 0.04595 0.92095 0.0
H697 H 0.71005 0.018 0.03347 0.0
C698 C 0.63076 0.9514 0.00855 0.0
O699 O 0.75729 0.81383 0.05167 0.0
O700 O 0.71982 0.86597 0.09826 0.0
N701 N 0.7881 0.97276 0.90388 0.0
C702 C 0.82513 0.94449 0.88246 0.0
C703 C 0.84029 0.95647 0.83166 0.0
C704 C 0.82956 0.01572 0.8101 0.0
C705 C 0.79802 0.04697 0.84551 0.0
C706 C 0.77739 0.02123 0.88852 0.0
H707 H 0.84311 0.91472 0.90275 0.0
O708 O 0.74924 0.92349 0.0114 0.0
O709 O 0.74848 0.92375 0.00866 0.0
O710 O 0.6776 0.80241 0.9635 0.0
O711 O 0.68445 0.84377 0.88711 0.0
C712 C 0.79587 0.09957 0.84448 0.0
C713 C 0.77011 0.12536 0.88084 0.0
H714 H 0.7279 0.16224 0.96333 0.0
H715 H 0.70546 0.10983 0.0363 0.0
H716 H 0.87032 0.92538 0.82445 0.0
H717 H 0.83886 -0.01756 0.81198 0.0
H718 H 0.8203 0.12042 0.82046 0.0
H719 H 0.77145 0.166 0.88055 0.0
Mn720 Mn 0.22526 0.60284 0.01948 0.0
Mn721 Mn 0.21323 0.51806 0.92881 0.0
C722 C 0.16278 0.52778 0.0339 0.0
C723 C 0.19974 0.67656 0.06502 0.0
C724 C 0.27205 0.6602 0.9088 0.0
O725 O 0.28485 0.54733 0.0267 0.0
O726 O 0.26932 0.48659 0.97109 0.0
C727 C 0.19983 0.42818 0.00297 0.0
N728 N 0.19686 0.44892 0.95655 0.0
C729 C 0.17273 0.36722 0.92689 0.0
C730 C 0.17944 0.34555 0.97295 0.0
C731 C 0.19134 0.37658 0.01159 0.0
C732 C 0.1816 0.41905 0.92103 0.0
H733 H 0.21233 0.44973 0.03335 0.0
C734 C 0.29456 0.50438 0.00578 0.0
O735 O 0.17212 0.65667 0.03252 0.0
O736 O 0.24123 0.65483 0.07013 0.0
N737 N 0.15201 0.49395 0.8974 0.0
C738 C 0.1166 0.52405 0.87581 0.0
C739 C 0.10134 0.51165 0.82636 0.0
C740 C 0.11243 0.45257 0.80745 0.0
C741 C 0.14172 0.41964 0.84298 0.0
C742 C 0.16218 0.44486 0.88454 0.0
H743 H 0.09915 0.55401 0.89553 0.0
O744 O 0.18018 0.55512 0.06763 0.0
O745 O 0.18149 0.54221 -0.00546 0.0
O746 O 0.26327 0.66025 0.95803 0.0
O747 O 0.26023 0.62098 0.88098 0.0
C748 C 0.13453 0.36715 0.84729 0.0
C749 C 0.15084 0.34083 0.88877 0.0
H750 H 0.17247 0.30585 0.97973 0.0
H751 H 0.19532 0.36064 0.04789 0.0
H752 H 0.07112 0.54244 0.81805 0.0
H753 H 0.10357 0.48576 0.80807 0.0
H754 H 0.11143 0.34754 0.8219 0.0
H755 H 0.14236 0.30108 0.89286 0.0
Mn756 Mn 0.07966 0.4889 0.74071 0.0
Mn757 Mn 0.17376 0.48845 0.81941 0.0
C758 C 0.13533 0.56741 0.74743 0.0
C759 C 0.04361 0.5081 0.66491 0.0
C760 C 0.03157 0.44689 0.85633 0.0
O761 O 0.11104 0.41447 0.72714 0.0
O762 O 0.18424 0.42907 0.7662 0.0
C763 C 0.25461 0.49265 0.74104 0.0
N764 N 0.23895 0.49911 0.78826 0.0
C765 C 0.32283 0.50758 0.81426 0.0
C766 C 0.33968 0.49627 0.76736 0.0
C767 C 0.30531 0.49044 0.73009 0.0
C768 C 0.272 0.51018 0.82203 0.0
H769 H 0.22856 0.4872 0.71211 0.0
C770 C 0.15572 0.40107 0.7403 0.0
O771 O 0.01875 0.48782 0.70019 0.0
O772 O 0.0906 0.50816 0.66947 0.0
N773 N 0.20511 0.54922 0.85383 0.0
C774 C 0.18327 0.58644 0.88239 0.0
C775 C 0.20182 0.59446 0.93209 0.0
C776 C 0.2591 0.5715 0.94495 0.0
C777 C 0.28297 0.54323 0.90274 0.0
C778 C 0.25275 0.53262 0.86095 0.0
H779 H 0.15245 0.60831 0.86971 0.0
O780 O 0.08785 0.56868 0.74249 0.0
O781 O 0.15033 0.52276 0.75478 0.0
O782 O 0.02494 0.46304 0.80973 0.0
O783 O 0.07457 0.45099 0.87772 0.0
C784 C 0.33388 0.53767 0.89656 0.0
C785 C 0.35416 0.52038 0.85253 0.0
H786 H 0.37876 0.49455 0.75903 0.0
H787 H 0.31776 0.48372 0.69319 0.0
H788 H 0.17374 0.6217 0.95164 0.0
H789 H 0.22872 0.5859 0.94736 0.0
H790 H 0.35761 0.55113 0.92366 0.0
H791 H 0.39382 0.51935 0.84776 0.0
Mn792 Mn 0.23988 0.3646 0.50617 0.0
Mn793 Mn 0.24095 0.45543 0.41605 0.0
C794 C 0.31332 0.42361 0.49741 0.0
C795 C 0.25354 0.3279 0.58614 0.0
C796 C 0.21455 0.30507 0.39624 0.0
O797 O 0.16416 0.39255 0.51194 0.0
O798 O 0.17609 0.46414 0.46409 0.0
C799 C 0.22661 0.54294 0.48374 0.0
N800 N 0.24236 0.5242 0.44 0.0
C801 C 0.24571 0.60742 0.40471 0.0
C802 C 0.22406 0.62634 0.447 0.0
C803 C 0.21589 0.5941 0.48736 0.0
C804 C 0.25535 0.55593 0.40374 0.0
H805 H 0.22042 0.51864 0.51535 0.0
C806 C 0.15 0.43658 0.49447 0.0
O807 O 0.23886 0.30198 0.55053 0.0
O808 O 0.25104 0.37559 0.57885 0.0
N809 N 0.30224 0.48817 0.3818 0.0
C810 C 0.34208 0.46583 0.3569 0.0
C811 C 0.35524 0.4839 0.30665 0.0
C812 C 0.33445 0.54198 0.29019 0.0
C813 C 0.30133 0.56622 0.32805 0.0
C814 C 0.28524 0.53594 0.36988 0.0
H815 H 0.36398 0.43677 0.37381 0.0
O816 O 0.31628 0.37591 0.50728 0.0
O817 O 0.26981 0.43734 0.4857 0.0
O818 O 0.22596 0.30446 0.44377 0.0
O819 O 0.21634 0.34669 0.36853 0.0
C820 C 0.29305 0.61808 0.32938 0.0
C821 C 0.26352 0.63852 0.36628 0.0
H822 H 0.21673 0.66599 0.45001 0.0
H823 H 0.20173 0.6086 0.52125 0.0
H824 H 0.38508 0.45597 0.29083 0.0
H825 H 0.3489 0.51122 0.29043 0.0
H826 H 0.31628 0.64283 0.30755 0.0
H827 H 0.25951 0.67879 0.3677 0.0
Mn828 Mn 0.37417 0.5202 0.22046 0.0
Mn829 Mn 0.28032 0.49457 0.30305 0.0
C830 C 0.29388 0.43613 0.20222 0.0
C831 C 0.42065 0.46824 0.16493 0.0
C832 C 0.41675 0.55641 0.33489 0.0
O833 O 0.323 0.58044 0.20881 0.0
O834 O 0.25641 0.55487 0.25483 0.0
C835 C 0.19596 0.48513 0.22958 0.0
N836 N 0.21479 0.47626 0.27526 0.0
C837 C 0.13316 0.45171 0.30489 0.0
C838 C 0.11339 0.46421 0.25961 0.0
C839 C 0.1452 0.47968 0.22137 0.0
C840 C 0.18421 0.45727 0.31021 0.0
H841 H 0.21907 0.49856 0.19951 0.0
C842 C 0.27761 0.58522 0.22361 0.0
O843 O 0.42602 0.4646 0.21111 0.0
O844 O 0.38553 0.49723 0.15185 0.0
N845 N 0.25694 0.42894 0.33837 0.0
C846 C 0.28473 0.39529 0.36571 0.0
C847 C 0.26969 0.38426 0.4169 0.0
C848 C 0.20915 0.39223 0.43211 0.0
C849 C 0.17941 0.41721 0.39055 0.0
C850 C 0.2072 0.43601 0.34778 0.0
H851 H 0.31686 0.37752 0.34995 0.0
O852 O 0.31249 0.46677 0.23128 0.0
O853 O 0.31178 0.46753 0.2341 0.0
O854 O 0.42274 0.54925 0.28684 0.0
O855 O 0.37478 0.54349 0.35799 0.0
C856 C 0.1279 0.41281 0.38623 0.0
C857 C 0.10478 0.43006 0.34356 0.0
H858 H 0.07426 0.45997 0.2532 0.0
H859 H 0.13062 0.48803 0.18568 0.0
H860 H 0.30166 0.35741 0.4301 0.0
H861 H 0.24257 0.38562 0.43411 0.0
H862 H 0.10657 0.39149 0.41307 0.0
H863 H 0.06541 0.42425 0.33989 0.0
O864 O 0.97314 0.11271 0.02153 0.0
Zn865 Zn -0.01259 0.05411 0.98057 0.0
O866 O 0.9675 -0.01063 0.01246 0.0
Zn867 Zn 0.02614 0.94932 0.01921 0.0
Zn868 Zn 0.93058 0.00328 0.07066 0.0
Zn869 Zn 0.92442 0.9552 0.96842 0.0
O870 O 0.0106 0.87539 0.98604 0.0
O871 O 0.93587 0.88325 0.95601 0.0
O872 O 0.05901 0.06781 0.97907 0.0
O873 O 0.09028 -0.00353 0.00575 0.0
O874 O 0.0389 0.95002 0.09028 0.0
O875 O 0.96844 0.97281 0.12618 0.0
O876 O 0.8547 -0.01687 0.06342 0.0
O877 O 0.95769 0.05818 0.91435 0.0
O878 O 0.84821 0.96288 0.98562 0.0
O879 O 0.95723 -0.02289 0.90666 0.0
C880 C 0.96253 0.11341 0.06659 0.0
C881 C 0.97368 0.85696 0.96225 0.0
C882 C 0.01484 0.96487 0.12718 0.0
C883 C 0.0956 0.04316 -0.00672 0.0
C884 C 0.82772 0.96949 0.02751 0.0
C885 C 0.95173 0.01993 0.88814 0.0
O886 O 0.94466 0.07499 0.08917 0.0
O887 O 0.15702 0.69556 0.13768 0.0
Zn888 Zn 0.17272 0.70177 0.20977 0.0
O889 O 0.22004 0.75644 0.2219 0.0
Zn890 Zn 0.27795 0.74433 0.25778 0.0
Zn891 Zn 0.22987 0.79815 0.16647 0.0
Zn892 Zn 0.18194 0.78725 0.27041 0.0
O893 O 0.26736 0.77424 0.33372 0.0
O894 O 0.21741 0.8343 0.31108 0.0
O895 O 0.20944 0.63842 0.2183 0.0
O896 O 0.28174 0.67111 0.23927 0.0
O897 O 0.34104 0.76457 0.21832 0.0
O898 O 0.30741 0.79763 0.15178 0.0
O899 O 0.18884 0.86269 0.19353 0.0
O900 O 0.11188 0.70808 0.2568 0.0
O901 O 0.12997 0.82461 0.23818 0.0
O902 O 0.15354 0.73815 0.31776 0.0
C903 C 0.18294 0.71354 0.10211 0.0
C904 C 0.24215 0.81381 0.34436 0.0
C905 C 0.34504 0.77943 0.17373 0.0
C906 C 0.25582 0.63492 0.22293 0.0
C907 C 0.14879 0.86466 0.22028 0.0
C908 C 0.114 0.72025 0.30171 0.0
O909 O 0.20953 0.75318 0.10782 0.0
O910 O 0.51336 0.87388 0.5429 0.0
Zn911 Zn 0.47244 0.91415 0.49789 0.0
O912 O 0.48057 -0.02101 0.52458 0.0
Zn913 Zn 0.42005 0.01146 0.52222 0.0
Zn914 Zn 0.51499 -0.02152 0.58538 0.0
Zn915 Zn 0.52108 0.01188 0.47955 0.0
O916 O 0.43447 0.07873 0.48404 0.0
O917 O 0.51593 0.08412 0.48026 0.0
O918 O 0.40286 0.88942 0.5011 0.0
O919 O 0.36511 0.96254 0.49817 0.0
O920 O 0.4026 0.01696 0.59222 0.0
O921 O 0.47486 0.01952 0.63033 0.0
O922 O 0.58904 0.0011 0.57546 0.0
O923 O 0.49344 0.91507 0.42642 0.0
O924 O 0.59319 -0.00092 0.49427 0.0
O925 O 0.48909 -0.00391 0.41581 0.0
C926 C 0.50075 0.87052 0.58772 0.0
C927 C 0.47439 0.10244 0.47154 0.0
C928 C 0.42777 0.01888 0.63086 0.0
C929 C 0.36388 0.91454 0.49616 0.0
C930 C 0.61425 0.00388 0.53551 0.0
C931 C 0.49229 0.95321 0.39754 0.0
O932 O 0.50197 0.90907 0.61401 0.0
O933 O 0.20854 0.21967 0.86039 0.0
Zn934 Zn 0.23341 0.26761 0.80224 0.0
O935 O 0.23565 0.23266 0.74436 0.0
Zn936 Zn 0.29968 0.22966 0.71234 0.0
Zn937 Zn 0.1991 0.17259 0.74943 0.0
Zn938 Zn 0.19723 0.27129 0.6998 0.0
O939 O 0.28911 0.26443 0.64082 0.0
O940 O 0.23984 0.32196 0.66883 0.0
O941 O 0.30362 0.27184 0.82245 0.0
O942 O 0.35295 0.25759 0.75886 0.0
O943 O 0.31667 0.15528 0.72193 0.0
O944 O 0.24178 0.12009 0.72038 0.0
O945 O 0.12994 0.18991 0.71998 0.0
O946 O 0.2037 0.33612 0.77677 0.0
O947 O 0.16118 0.22917 0.65467 0.0
O948 O 0.14612 0.31388 0.72519 0.0
C949 C 0.20629 0.17137 0.85951 0.0
C950 C 0.26463 0.30517 0.63429 0.0
C951 C 0.28793 0.11737 0.72911 0.0
C952 C 0.34648 0.26554 0.80442 0.0
C953 C 0.12395 0.21277 0.67887 0.0
C954 C 0.16977 0.34792 0.74604 0.0
O955 O 0.20114 0.14914 0.81936 0.0
O956 O -0.00735 -0.0125 0.39166 0.0
Zn957 Zn 0.95 0.96285 0.45222 0.0
O958 O -0.0141 -0.02463 0.51092 0.0
Zn959 Zn 0.00698 0.91473 0.54687 0.0
Zn960 Zn 0.03834 0.02455 0.50172 0.0
Zn961 Zn 0.93964 -0.00392 0.55778 0.0
O962 O -0.01037 0.92897 0.62456 0.0
O963 O 0.92012 0.93571 0.59162 0.0
O964 O 0.95908 0.89385 0.4388 0.0
O965 O -0.01693 0.85272 0.50558 0.0
O966 O 0.07863 0.90762 0.53029 0.0
O967 O 0.10392 -0.0137 0.51382 0.0
O968 O 0.01628 0.09636 0.53583 0.0
O969 O 0.873 0.97032 0.46475 0.0
O970 O 0.95755 0.06722 0.58724 0.0
O971 O 0.87233 -0.00881 0.54163 0.0
C972 C 0.03666 0.00618 0.39114 0.0
C973 C 0.94363 0.93752 0.62932 0.0
C974 C 0.11158 0.93862 0.51479 0.0
C975 C 0.97152 0.85396 0.46011 0.0
C976 C -0.01724 0.10475 0.56901 0.0
C977 C 0.84959 -0.01845 0.50416 0.0
O978 O 0.05454 0.02573 0.4292 0.0
O979 O 0.34429 0.73161 0.73454 0.0
Zn980 Zn 0.29602 0.75027 0.78299 0.0
O981 O 0.23172 0.73843 0.75336 0.0
Zn982 Zn 0.19675 0.79893 0.73953 0.0
Zn983 Zn 0.22979 0.69787 0.69587 0.0
Zn984 Zn 0.2034 0.69898 0.80514 0.0
O985 O 0.12505 0.78498 0.77091 0.0
O986 O 0.13936 0.71789 0.81739 0.0
O987 O 0.31138 0.82341 0.78547 0.0
O988 O 0.24331 0.8591 0.75767 0.0
O989 O 0.19752 0.81223 0.66603 0.0
O990 O 0.2115 0.73769 0.63503 0.0
O991 O 0.18134 0.63582 0.70766 0.0
O992 O 0.30737 0.71025 0.84692 0.0
O993 O 0.18692 0.62684 0.78781 0.0
O994 O 0.23162 0.72008 0.86915 0.0
C995 C 0.3417 0.71011 0.69401 0.0
C996 C 0.11089 0.75073 0.80225 0.0
C997 C 0.20495 0.7846 0.62944 0.0
C998 C 0.28808 0.86215 0.77212 0.0
C999 C 0.16936 0.61241 0.74755 0.0
C1000 C 0.27419 0.70635 0.8801 0.0
O1001 O 0.30187 0.6904 0.67803 0.0
O1002 O 0.52933 0.04763 0.0909 0.0
Zn1003 Zn 0.515 0.04721 0.01943 0.0
O1004 O 0.46317 -0.00034 0.01468 0.0
Zn1005 Zn 0.47586 0.94469 0.9774 0.0
Zn1006 Zn 0.42499 -0.01481 0.07034 0.0
Zn1007 Zn 0.42483 0.03372 0.97153 0.0
O1008 O 0.44313 0.95717 0.9068 0.0
O1009 O 0.37808 -0.01039 0.94181 0.0
O1010 O 0.5761 0.01692 0.00102 0.0
O1011 O 0.54743 0.93935 -0.00714 0.0
O1012 O 0.45373 0.88307 0.01363 0.0
O1013 O 0.44314 0.91027 0.08869 0.0
O1014 O 0.35613 0.01648 0.04696 0.0
O1015 O 0.50085 0.10735 0.97324 0.0
O1016 O 0.3872 0.08296 0.00669 0.0
O1017 O 0.46568 0.06224 0.91765 0.0
C1018 C 0.50579 0.02772 0.12715 0.0
C1019 C 0.39922 -0.02519 0.90372 0.0
C1020 C 0.45782 0.87647 0.05966 0.0
C1021 C 0.58148 0.96995 0.00477 0.0
C1022 C 0.35013 0.05879 0.02363 0.0
C1023 C 0.48332 0.10368 0.93018 0.0
O1024 O 0.45974 0.01715 0.12567 0.0
O1025 O 0.11837 0.261 0.24431 0.0
Zn1026 Zn 0.17493 0.23065 0.27678 0.0
O1027 O 0.23874 0.24682 0.24259 0.0
Zn1028 Zn 0.27436 0.18409 0.23713 0.0
Zn1029 Zn 0.2238 0.28358 0.18395 0.0
Zn1030 Zn 0.27537 0.29067 0.28417 0.0
O1031 O 0.34753 0.19869 0.27585 0.0
O1032 O 0.3457 0.278 0.29736 0.0
O1033 O 0.15317 0.15965 0.27169 0.0
O1034 O 0.22185 0.12154 0.2511 0.0
O1035 O 0.27386 0.16987 0.16395 0.0
O1036 O 0.24129 0.23858 0.12988 0.0
O1037 O 0.25254 0.35793 0.18332 0.0
O1038 O 0.17492 0.25359 0.3453 0.0
O1039 O 0.27261 0.36769 0.26078 0.0
O1040 O 0.25498 0.2565 0.34718 0.0
C1041 C 0.11451 0.26593 0.19857 0.0
C1042 C 0.36832 0.23699 0.29691 0.0
C1043 C 0.25463 0.19305 0.12782 0.0
C1044 C 0.17494 0.1199 0.26047 0.0
C1045 C 0.26807 0.38636 0.21738 0.0
C1046 C 0.21419 0.261 0.36868 0.0
O1047 O 0.15148 0.27679 0.17135 0.0
O1048 O 0.48008 0.47488 0.89028 0.0
Zn1049 Zn 0.44138 0.45483 0.95367 0.0
O1050 O 0.48088 0.47136 0.00953 0.0
Zn1051 Zn 0.50494 0.41088 0.04594 0.0
Zn1052 Zn 0.53269 0.52018 -0.00379 0.0
Zn1053 Zn 0.43611 0.49497 0.05702 0.0
O1054 O 0.4907 0.42635 0.12378 0.0
O1055 O 0.42181 0.43274 0.09008 0.0
O1056 O 0.44835 0.38375 0.94217 0.0
O1057 O 0.48159 0.34678 0.0069 0.0
O1058 O 0.57659 0.40417 0.02876 0.0
O1059 O 0.59952 0.48175 0.00517 0.0
O1060 O 0.51446 0.59309 0.03199 0.0
O1061 O 0.36645 0.47017 0.9678 0.0
O1062 O 0.45665 0.56631 0.08545 0.0
O1063 O 0.3679 0.4936 0.04409 0.0
C1064 C 0.5232 0.495 0.88665 0.0
C1065 C 0.44504 0.43628 0.12797 0.0
C1066 C 0.6086 0.43453 0.0103 0.0
C1067 C 0.465 0.34522 0.96317 0.0
C1068 C 0.48259 0.60296 0.06642 0.0
C1069 C 0.34436 0.48472 0.00685 0.0
O1070 O 0.54178 0.51854 0.92228 0.0
O1071 O 0.84734 0.22354 0.22794 0.0
Zn1072 Zn 0.80329 0.24343 0.28058 0.0
O1073 O 0.73735 0.23225 0.2542 0.0
Zn1074 Zn 0.70276 0.29289 0.24545 0.0
Zn1075 Zn 0.73191 0.19394 0.19523 0.0
Zn1076 Zn 0.71095 0.19034 0.30645 0.0
O1077 O 0.63687 0.27499 0.28654 0.0
O1078 O 0.64612 0.20255 0.32667 0.0
O1079 O 0.82061 0.31733 0.28212 0.0
O1080 O 0.7505 0.35324 0.26109 0.0
O1081 O 0.6978 0.30882 0.17139 0.0
O1082 O 0.71103 0.23553 0.13759 0.0
O1083 O 0.68136 0.13456 0.20736 0.0
O1084 O 0.81567 0.20306 0.34539 0.0
O1085 O 0.69634 0.11862 0.2852 0.0
O1086 O 0.74096 0.21619 0.36815 0.0
C1087 C 0.84296 0.2042 0.18632 0.0
C1088 C 0.62127 0.24025 0.31717 0.0
C1089 C 0.7041 0.28238 0.13359 0.0
C1090 C 0.79638 0.35647 0.27164 0.0
C1091 C 0.67265 0.1088 0.24655 0.0
C1092 C 0.78284 0.20095 0.37921 0.0
O1093 O 0.80243 0.18529 0.17119 0.0
O1094 O 0.04598 0.54287 0.58546 0.0
Zn1095 Zn 0.03478 0.54134 0.51388 0.0
O1096 O -0.02025 0.49921 0.50781 0.0
Zn1097 Zn -0.00989 0.44239 0.47087 0.0
Zn1098 Zn 0.93996 0.48916 0.56392 0.0
Zn1099 Zn 0.94079 0.53658 0.46624 0.0
O1100 O 0.95305 0.45383 0.40168 0.0
O1101 O 0.89219 0.49459 0.43603 0.0
O1102 O 0.09423 0.50199 0.49905 0.0
O1103 O 0.06366 0.42723 0.48073 0.0
O1104 O 0.96404 0.3856 0.51091 0.0
O1105 O 0.9507 0.41465 0.58508 0.0
O1106 O 0.87303 0.52321 0.54456 0.0
O1107 O 0.01969 0.60582 0.47194 0.0
O1108 O 0.90436 0.58738 0.50165 0.0
O1109 O -0.01906 0.56739 0.41359 0.0
C1110 C 0.01936 0.52806 0.62167 0.0
C1111 C 0.91031 0.47443 0.39891 0.0
C1112 C 0.96459 0.37961 0.55726 0.0
C1113 C 0.09905 0.4546 0.49621 0.0
C1114 C 0.86757 0.56573 0.52197 0.0
C1115 C -0.00114 0.60725 0.43007 0.0
O1116 O 0.97307 0.52087 0.61869 0.0
O1117 O 0.70927 0.71939 0.3656 0.0
Zn1118 Zn 0.73304 0.76677 0.30722 0.0
O1119 O 0.73723 0.73122 0.24883 0.0
Zn1120 Zn 0.80262 0.72949 0.21762 0.0
Zn1121 Zn 0.70107 0.6712 0.25382 0.0
Zn1122 Zn 0.70044 0.77015 0.20304 0.0
O1123 O 0.79539 0.76624 0.14469 0.0
O1124 O 0.74782 0.82096 0.17811 0.0
O1125 O 0.80258 0.77086 0.33182 0.0
O1126 O 0.85283 0.75472 0.26924 0.0
O1127 O 0.82027 0.65479 0.22413 0.0
O1128 O 0.74541 0.61875 0.22577 0.0
O1129 O 0.63227 0.68899 0.22184 0.0
O1130 O 0.70022 0.83472 0.28117 0.0
O1131 O 0.6641 0.7287 0.1568 0.0
O1132 O 0.64709 0.81234 0.22513 0.0
C1133 C 0.70891 0.67114 0.36511 0.0
C1134 C 0.77072 0.80714 0.14097 0.0
C1135 C 0.79223 0.61626 0.23113 0.0
C1136 C 0.84547 0.76226 0.31493 0.0
C1137 C 0.62651 0.71203 0.18062 0.0
C1138 C 0.667 0.84621 0.24929 0.0
O1139 O 0.70326 0.64846 0.32508 0.0
O1140 O 0.66741 0.17713 0.64553 0.0
Zn1141 Zn 0.68072 0.1839 0.71871 0.0
O1142 O 0.72336 0.24165 0.7298 0.0
Zn1143 Zn 0.78348 0.23222 0.76459 0.0
Zn1144 Zn 0.72866 0.28478 0.67353 0.0
Zn1145 Zn 0.68292 0.27312 0.77711 0.0
O1146 O 0.77283 0.26813 0.83844 0.0
O1147 O 0.71723 0.32327 0.81573 0.0
O1148 O 0.72461 0.12335 0.72725 0.0
O1149 O 0.79622 0.15608 0.75024 0.0
O1150 O 0.84211 0.25825 0.7221 0.0
O1151 O 0.80492 0.29112 0.65728 0.0
O1152 O 0.68365 0.34702 0.69582 0.0
O1153 O 0.61693 0.19014 0.7656 0.0
O1154 O 0.62883 0.30692 0.74329 0.0
O1155 O 0.65436 0.22558 0.82647 0.0
C1156 C 0.68718 0.2002 0.6087 0.0
C1157 C 0.74568 0.30681 0.84817 0.0
C1158 C 0.84405 0.27522 0.67812 0.0
C1159 C 0.77105 0.11912 0.73343 0.0
C1160 C 0.64322 0.347 0.72179 0.0
C1161 C 0.61594 0.20567 0.80982 0.0
O1162 O 0.70934 0.24244 0.61396 0.0
O1163 O 0.61372 0.73174 0.74326 0.0
Zn1164 Zn 0.65797 0.71316 0.79368 0.0
O1165 O 0.72424 0.72918 0.76723 0.0
Zn1166 Zn 0.76391 0.67113 0.75848 0.0
Zn1167 Zn 0.72143 0.77166 0.70823 0.0
Zn1168 Zn 0.74767 0.76848 0.82016 0.0
O1169 O 0.83253 0.68952 0.80439 0.0
O1170 O 0.80895 0.75393 0.84802 0.0
O1171 O 0.64097 0.63969 0.79486 0.0
O1172 O 0.71063 0.609 0.765 0.0
O1173 O 0.76998 0.6613 0.68301 0.0
O1174 O 0.74221 0.73257 0.65113 0.0
O1175 O 0.76722 0.834 0.71704 0.0
O1176 O 0.63924 0.75387 0.85383 0.0
O1177 O 0.76445 0.84032 0.79783 0.0
O1178 O 0.71234 0.74178 0.87975 0.0
C1179 C 0.61238 0.75508 0.70292 0.0
C1180 C 0.84 0.72122 0.83954 0.0
C1181 C 0.75542 0.68753 0.6464 0.0
C1182 C 0.66453 0.60334 0.77707 0.0
C1183 C 0.77958 0.85641 0.75602 0.0
C1184 C 0.67001 0.75748 0.88799 0.0
O1185 O 0.64972 0.77952 0.68539 0.0
O1186 O 0.483 0.62526 0.51444 0.0
Zn1187 Zn 0.50031 0.57435 0.46506 0.0
O1188 O 0.48281 0.50651 0.49062 0.0
Zn1189 Zn 0.5367 0.46188 0.50087 0.0
Zn1190 Zn 0.44276 0.50958 0.54846 0.0
Zn1191 Zn 0.44365 0.48092 0.43836 0.0
O1192 O 0.51823 0.39344 0.45869 0.0
O1193 O 0.45124 0.41264 0.41846 0.0
O1194 O 0.57387 0.58438 0.46878 0.0
O1195 O 0.59911 0.50964 0.49531 0.0
O1196 O 0.54882 0.45281 0.57403 0.0
O1197 O 0.48123 0.48587 0.60529 0.0
O1198 O 0.38026 0.4654 0.53673 0.0
O1199 O 0.46455 0.58892 0.39922 0.0
O1200 O 0.37135 0.47869 0.45702 0.0
O1201 O 0.47161 0.51198 0.37724 0.0
C1202 C 0.46186 0.62249 0.55596 0.0
C1203 C 0.4843 0.38184 0.42777 0.0
C1204 C 0.52458 0.46957 0.61017 0.0
C1205 C 0.60743 0.55646 0.48587 0.0
C1206 C 0.35636 0.45874 0.49734 0.0
C1207 C 0.45966 0.55596 0.36647 0.0
O1208 O 0.4403 0.58214 0.57159 0.0
O1209 O 0.0139 0.36994 0.04002 0.0
Zn1210 Zn 0.97403 0.40728 -0.00697 0.0
O1211 O -0.01647 0.47373 0.01815 0.0
Zn1212 Zn 0.92418 0.5061 0.01497 0.0
Zn1213 Zn 0.01529 0.47464 0.08027 0.0
Zn1214 Zn 0.02494 0.50172 0.96967 0.0
O1215 O 0.94444 0.56975 0.97298 0.0
O1216 O 0.02402 0.57273 0.95429 0.0
O1217 O 0.90397 0.38302 -0.00148 0.0
O1218 O 0.86805 0.45691 -0.00538 0.0
O1219 O 0.90484 0.51394 0.08531 0.0
O1220 O 0.97666 0.51804 0.12313 0.0
O1221 O 0.08707 0.49961 0.07243 0.0
O1222 O -0.00289 0.40284 0.92141 0.0
O1223 O 0.096 0.49197 -0.00829 0.0
O1224 O -0.01484 0.48184 0.91164 0.0
C1225 C 6e-05 0.36739 0.08448 0.0
C1226 C -0.0182 0.59091 0.95052 0.0
C1227 C 0.92978 0.51639 0.12407 0.0
C1228 C 0.86534 0.40891 -0.00535 0.0
C1229 C 0.11391 0.50182 0.03374 0.0
C1230 C -0.00678 0.4406 0.89247 0.0
O1231 O 0.00155 0.40606 0.1106 0.0
loop_
_geom_bond_atom_site_label_1
_geom_bond_atom_site_label_2
_geom_bond_distance
_geom_bond_site_symmetry_2
_ccdc_geom_bond_type
Mn0 O5 2.092 1_455 S
Mn0 O15 2.162 . S
Mn0 O16 2.297 . S
Mn0 O24 2.385 . S
Mn0 O25 2.209 1_455 S
Mn0 O26 2.094 1_455 S
Mn1 O6 2.121 . S
Mn1 N8 2.257 1_554 S
Mn1 N17 2.282 . S
Mn1 O25 2.215 . S
Mn1 O27 2.117 . S
C2 O24 1.234 . S
C2 O25 1.283 1_455 S
C3 O15 1.281 . S
C3 O16 1.236 . S
C4 O26 1.240 . S
C4 O27 1.264 . S
O5 Mn0 2.092 1_655 S
O5 C14 1.252 . S
O6 Mn1 2.121 . S
O6 C14 1.258 . S
C7 N8 1.326 . S
C7 C11 1.460 . S
C7 H13 0.929 . S
N8 Mn1 2.257 1_556 S
N8 C7 1.326 . S
N8 C12 1.362 . S
C9 C10 1.258 . S
C9 C12 1.431 . S
C9 C29 1.449 . S
C10 C9 1.258 . S
C10 C11 1.477 . S
C10 H30 0.931 . S
C11 C7 1.460 . S
C11 C10 1.477 . S
C11 H31 0.930 . S
C12 N8 1.362 . S
C12 C9 1.431 . S
C12 C22 1.476 1_556 S
H13 C7 0.929 . S
C14 O5 1.252 . S
C14 O6 1.258 . S
O15 Mn0 2.162 . S
O15 C3 1.281 . S
O16 Mn0 2.297 . S
O16 C3 1.236 . S
N17 Mn1 2.282 . S
N17 C18 1.328 . S
N17 C22 1.318 . S
C18 N17 1.328 . S
C18 C19 1.457 . S
C18 H23 0.929 . S
C19 C18 1.457 . S
C19 C20 1.291 . S
C19 H32 0.931 . S
C20 C19 1.291 . S
C20 C21 1.373 1_554 S
C20 H33 0.929 . S
C21 C20 1.373 1_556 S
C21 C22 1.396 1_556 S
C21 C28 1.403 . S
C22 C12 1.476 1_554 S
C22 N17 1.318 . S
C22 C21 1.396 1_554 S
H23 C18 0.929 . S
O24 Mn0 2.385 . S
O24 C2 1.234 . S
O25 Mn0 2.209 1_655 S
O25 Mn1 2.215 . S
O25 C2 1.283 1_655 S
O26 Mn0 2.094 1_655 S
O26 C4 1.240 . S
O27 Mn1 2.117 . S
O27 C4 1.264 . S
C28 C21 1.403 . S
C28 C29 1.399 . S
C28 H34 0.929 . S
C29 C9 1.449 . S
C29 C28 1.399 . S
C29 H35 0.930 . S
H30 C10 0.931 . S
H31 C11 0.930 . S
H32 C19 0.931 . S
H33 C20 0.929 . S
H34 C28 0.929 . S
H35 C29 0.930 . S
Mn36 O41 2.095 1_455 S
Mn36 O51 2.162 . S
Mn36 O52 2.297 . S
Mn36 O60 2.385 . S
Mn36 O61 2.208 1_455 S
Mn36 O62 2.094 1_455 S
Mn37 O42 2.121 . S
Mn37 N44 2.257 . S
Mn37 N53 2.282 . S
Mn37 O61 2.217 . S
Mn37 O63 2.117 . S
C38 O60 1.234 . S
C38 O61 1.283 1_455 S
C39 O51 1.281 . S
C39 O52 1.236 . S
C40 O62 1.240 . S
C40 O63 1.264 . S
O41 Mn36 2.095 1_655 S
O41 C50 1.250 . S
O42 Mn37 2.121 . S
O42 C50 1.258 . S
C43 N44 1.326 . S
C43 C47 1.460 . S
C43 H49 0.929 . S
N44 Mn37 2.257 . S
N44 C43 1.326 . S
N44 C48 1.362 . S
C45 C46 1.258 . S
C45 C48 1.431 . S
C45 C65 1.449 . S
C46 C45 1.258 . S
C46 C47 1.477 . S
C46 H66 0.931 . S
C47 C43 1.460 . S
C47 C46 1.477 . S
C47 H67 0.930 . S
C48 N44 1.362 . S
C48 C45 1.431 . S
C48 C58 1.476 . S
H49 C43 0.929 . S
C50 O41 1.250 . S
C50 O42 1.258 . S
O51 Mn36 2.162 . S
O51 C39 1.281 . S
O52 Mn36 2.297 . S
O52 C39 1.236 . S
N53 Mn37 2.282 . S
N53 C54 1.328 . S
N53 C58 1.318 . S
C54 N53 1.328 . S
C54 C55 1.457 . S
C54 H59 0.929 . S
C55 C54 1.457 . S
C55 C56 1.291 . S
C55 H68 0.931 . S
C56 C55 1.291 . S
C56 C57 1.373 . S
C56 H69 0.929 . S
C57 C56 1.373 . S
C57 C58 1.396 . S
C57 C64 1.403 . S
C58 C48 1.476 . S
C58 N53 1.318 . S
C58 C57 1.396 . S
H59 C54 0.929 . S
O60 Mn36 2.385 . S
O60 C38 1.234 . S
O61 Mn36 2.208 1_655 S
O61 Mn37 2.217 . S
O61 C38 1.283 1_655 S
O62 Mn36 2.094 1_655 S
O62 C40 1.240 . S
O63 Mn37 2.117 . S
O63 C40 1.264 . S
C64 C57 1.403 . S
C64 C65 1.399 . S
C64 H70 0.929 . S
C65 C45 1.449 . S
C65 C64 1.399 . S
C65 H71 0.930 . S
H66 C46 0.931 . S
H67 C47 0.930 . S
H68 C55 0.931 . S
H69 C56 0.929 . S
H70 C64 0.929 . S
H71 C65 0.930 . S
Mn72 O77 2.095 . S
Mn72 O87 2.162 . S
Mn72 O88 2.297 . S
Mn72 O96 2.385 . S
Mn72 O97 2.209 . S
Mn72 O98 2.094 . S
Mn73 O78 2.121 . S
Mn73 N80 2.257 . S
Mn73 N89 2.282 . S
Mn73 O97 2.215 . S
Mn73 O99 2.117 . S
C74 O96 1.234 . S
C74 O97 1.283 . S
C75 O87 1.281 . S
C75 O88 1.236 . S
C76 O98 1.240 . S
C76 O99 1.264 . S
O77 Mn72 2.095 . S
O77 C86 1.250 . S
O78 Mn73 2.121 . S
O78 C86 1.258 . S
C79 N80 1.326 . S
C79 C83 1.460 . S
C79 H85 0.929 . S
N80 Mn73 2.257 . S
N80 C79 1.326 . S
N80 C84 1.362 . S
C81 C82 1.258 . S
C81 C84 1.431 . S
C81 C101 1.449 . S
C82 C81 1.258 . S
C82 C83 1.477 . S
C82 H102 0.931 . S
C83 C79 1.460 . S
C83 C82 1.477 . S
C83 H103 0.930 . S
C84 N80 1.362 . S
C84 C81 1.431 . S
C84 C94 1.476 . S
H85 C79 0.929 . S
C86 O77 1.250 . S
C86 O78 1.258 . S
O87 Mn72 2.162 . S
O87 C75 1.281 . S
O88 Mn72 2.297 . S
O88 C75 1.236 . S
N89 Mn73 2.282 . S
N89 C90 1.328 . S
N89 C94 1.318 . S
C90 N89 1.328 . S
C90 C91 1.457 . S
C90 H95 0.929 . S
C91 C90 1.457 . S
C91 C92 1.291 . S
C91 H104 0.931 . S
C92 C91 1.291 . S
C92 C93 1.373 . S
C92 H105 0.929 . S
C93 C92 1.373 . S
C93 C94 1.396 . S
C93 C100 1.403 . S
C94 C84 1.476 . S
C94 N89 1.318 . S
C94 C93 1.396 . S
H95 C90 0.929 . S
O96 Mn72 2.385 . S
O96 C74 1.234 . S
O97 Mn72 2.209 . S
O97 Mn73 2.215 . S
O97 C74 1.283 . S
O98 Mn72 2.094 . S
O98 C76 1.240 . S
O99 Mn73 2.117 . S
O99 C76 1.264 . S
C100 C93 1.403 . S
C100 C101 1.399 . S
C100 H106 0.929 . S
C101 C81 1.449 . S
C101 C100 1.399 . S
C101 H107 0.930 . S
H102 C82 0.931 . S
H103 C83 0.930 . S
H104 C91 0.931 . S
H105 C92 0.929 . S
H106 C100 0.929 . S
H107 C101 0.930 . S
Mn108 O113 2.095 . S
Mn108 O123 2.162 . S
Mn108 O124 2.297 . S
Mn108 O132 2.385 . S
Mn108 O133 2.209 . S
Mn108 O134 2.094 . S
Mn109 O114 2.121 . S
Mn109 N116 2.257 1_556 S
Mn109 N125 2.282 . S
Mn109 O133 2.215 . S
Mn109 O135 2.117 . S
C110 O132 1.234 . S
C110 O133 1.283 . S
C111 O123 1.281 . S
C111 O124 1.236 . S
C112 O134 1.240 . S
C112 O135 1.264 . S
O113 Mn108 2.095 . S
O113 C122 1.250 . S
O114 Mn109 2.121 . S
O114 C122 1.258 . S
C115 N116 1.326 . S
C115 C119 1.460 . S
C115 H121 0.929 . S
N116 Mn109 2.257 1_554 S
N116 C115 1.326 . S
N116 C120 1.362 . S
C117 C118 1.258 . S
C117 C120 1.431 . S
C117 C137 1.449 . S
C118 C117 1.258 . S
C118 C119 1.477 . S
C118 H138 0.931 . S
C119 C115 1.460 . S
C119 C118 1.477 . S
C119 H139 0.930 . S
C120 N116 1.362 . S
C120 C117 1.431 . S
C120 C130 1.476 . S
H121 C115 0.929 . S
C122 O113 1.250 . S
C122 O114 1.258 . S
O123 Mn108 2.162 . S
O123 C111 1.281 . S
O124 Mn108 2.297 . S
O124 C111 1.236 . S
N125 Mn109 2.282 . S
N125 C126 1.328 . S
N125 C130 1.318 1_556 S
C126 N125 1.328 . S
C126 C127 1.457 . S
C126 H131 0.929 . S
C127 C126 1.457 . S
C127 C128 1.291 1_556 S
C127 H140 0.931 . S
C128 C127 1.291 1_554 S
C128 C129 1.373 . S
C128 H141 0.929 . S
C129 C128 1.373 . S
C129 C130 1.396 . S
C129 C136 1.403 . S
C130 C120 1.476 . S
C130 N125 1.318 1_554 S
C130 C129 1.396 . S
H131 C126 0.929 . S
O132 Mn108 2.385 . S
O132 C110 1.234 . S
O133 Mn108 2.209 . S
O133 Mn109 2.215 . S
O133 C110 1.283 . S
O134 Mn108 2.094 . S
O134 C112 1.240 . S
O135 Mn109 2.117 . S
O135 C112 1.264 . S
C136 C129 1.403 . S
C136 C137 1.399 . S
C136 H142 0.929 . S
C137 C117 1.449 . S
C137 C136 1.399 . S
C137 H143 0.930 . S
H138 C118 0.931 . S
H139 C119 0.930 . S
H140 C127 0.931 . S
H141 C128 0.929 . S
H142 C136 0.929 . S
H143 C137 0.930 . S
Mn144 O149 2.095 1_545 S
Mn144 O159 2.162 . S
Mn144 O160 2.297 . S
Mn144 O168 2.385 . S
Mn144 O169 2.209 . S
Mn144 O170 2.094 . S
Mn145 O150 2.121 1_545 S
Mn145 N152 2.257 . S
Mn145 N161 2.282 . S
Mn145 O169 2.215 . S
Mn145 O171 2.117 . S
C146 O168 1.234 . S
C146 O169 1.283 . S
C147 O159 1.281 . S
C147 O160 1.236 . S
C148 O170 1.240 . S
C148 O171 1.264 . S
O149 Mn144 2.095 1_565 S
O149 C158 1.250 . S
O150 Mn145 2.121 1_565 S
O150 C158 1.258 . S
C151 N152 1.326 . S
C151 C155 1.460 . S
C151 H157 0.929 1_545 S
N152 Mn145 2.257 . S
N152 C151 1.326 . S
N152 C156 1.362 . S
C153 C154 1.258 . S
C153 C156 1.431 . S
C153 C173 1.449 . S
C154 C153 1.258 . S
C154 C155 1.477 . S
C154 H174 0.931 . S
C155 C151 1.460 . S
C155 C154 1.477 . S
C155 H175 0.930 . S
C156 N152 1.362 . S
C156 C153 1.431 . S
C156 C166 1.476 . S
H157 C151 0.929 1_565 S
C158 O149 1.250 . S
C158 O150 1.258 . S
O159 Mn144 2.162 . S
O159 C147 1.281 . S
O160 Mn144 2.297 . S
O160 C147 1.236 . S
N161 Mn145 2.282 . S
N161 C162 1.328 . S
N161 C166 1.318 . S
C162 N161 1.328 . S
C162 C163 1.457 . S
C162 H167 0.929 . S
C163 C162 1.457 . S
C163 C164 1.291 . S
C163 H176 0.931 . S
C164 C163 1.291 . S
C164 C165 1.373 . S
C164 H177 0.929 . S
C165 C164 1.373 . S
C165 C166 1.396 . S
C165 C172 1.403 . S
C166 C156 1.476 . S
C166 N161 1.318 . S
C166 C165 1.396 . S
H167 C162 0.929 . S
O168 Mn144 2.385 . S
O168 C146 1.234 . S
O169 Mn144 2.209 . S
O169 Mn145 2.215 . S
O169 C146 1.283 . S
O170 Mn144 2.094 . S
O170 C148 1.240 . S
O171 Mn145 2.117 . S
O171 C148 1.264 . S
C172 C165 1.403 . S
C172 C173 1.399 . S
C172 H178 0.929 . S
C173 C153 1.449 . S
C173 C172 1.399 . S
C173 H179 0.930 . S
H174 C154 0.931 . S
H175 C155 0.930 . S
H176 C163 0.931 . S
H177 C164 0.929 . S
H178 C172 0.929 . S
H179 C173 0.930 . S
Mn180 O185 2.095 . S
Mn180 O195 2.162 . S
Mn180 O196 2.297 . S
Mn180 O204 2.385 . S
Mn180 O205 2.209 . S
Mn180 O206 2.094 . S
Mn181 O186 2.121 . S
Mn181 N188 2.257 1_565 S
Mn181 N197 2.282 . S
Mn181 O205 2.215 . S
Mn181 O207 2.117 . S
C182 O204 1.234 . S
C182 O205 1.283 . S
C183 O195 1.281 . S
C183 O196 1.236 . S
C184 O206 1.240 . S
C184 O207 1.264 . S
O185 Mn180 2.095 . S
O185 C194 1.250 . S
O186 Mn181 2.121 . S
O186 C194 1.258 . S
C187 N188 1.326 . S
C187 C191 1.460 . S
C187 H193 0.929 . S
N188 Mn181 2.257 1_545 S
N188 C187 1.326 . S
N188 C192 1.362 . S
C189 C190 1.258 . S
C189 C192 1.431 . S
C189 C209 1.449 . S
C190 C189 1.258 . S
C190 C191 1.477 . S
C190 H210 0.931 . S
C191 C187 1.460 . S
C191 C190 1.477 . S
C191 H211 0.930 . S
C192 N188 1.362 . S
C192 C189 1.431 . S
C192 C202 1.476 . S
H193 C187 0.929 . S
C194 O185 1.250 . S
C194 O186 1.258 . S
O195 Mn180 2.162 . S
O195 C183 1.281 . S
O196 Mn180 2.297 . S
O196 C183 1.236 . S
N197 Mn181 2.282 . S
N197 C198 1.328 . S
N197 C202 1.318 1_565 S
C198 N197 1.328 . S
C198 C199 1.457 . S
C198 H203 0.929 . S
C199 C198 1.457 . S
C199 C200 1.291 1_565 S
C199 H212 0.931 . S
C200 C199 1.291 1_545 S
C200 C201 1.373 . S
C200 H213 0.929 . S
C201 C200 1.373 . S
C201 C202 1.396 . S
C201 C208 1.403 . S
C202 C192 1.476 . S
C202 N197 1.318 1_545 S
C202 C201 1.396 . S
H203 C198 0.929 . S
O204 Mn180 2.385 . S
O204 C182 1.234 . S
O205 Mn180 2.209 . S
O205 Mn181 2.215 . S
O205 C182 1.283 . S
O206 Mn180 2.094 . S
O206 C184 1.240 . S
O207 Mn181 2.117 . S
O207 C184 1.264 . S
C208 C201 1.403 . S
C208 C209 1.399 . S
C208 H214 0.929 . S
C209 C189 1.449 . S
C209 C208 1.399 . S
C209 H215 0.930 . S
H210 C190 0.931 . S
H211 C191 0.930 . S
H212 C199 0.931 . S
H213 C200 0.929 . S
H214 C208 0.929 . S
H215 C209 0.930 . S
Mn216 O221 2.095 1_565 S
Mn216 O231 2.162 1_565 S
Mn216 O232 2.297 . S
Mn216 O240 2.385 . S
Mn216 O241 2.209 . S
Mn216 O242 2.094 . S
Mn217 O222 2.121 1_565 S
Mn217 N224 2.257 . S
Mn217 N233 2.282 . S
Mn217 O241 2.215 . S
Mn217 O243 2.117 . S
C218 O240 1.234 . S
C218 O241 1.283 . S
C219 O231 1.280 1_565 S
C219 O232 1.236 . S
C220 O242 1.240 . S
C220 O243 1.264 . S
O221 Mn216 2.095 1_545 S
O221 C230 1.250 . S
O222 Mn217 2.121 1_545 S
O222 C230 1.258 . S
C223 N224 1.314 1_545 S
C223 C227 1.454 1_545 S
C223 H229 0.948 . S
N224 Mn217 2.257 . S
N224 C223 1.314 1_565 S
N224 C228 1.362 . S
C225 C226 1.258 . S
C225 C228 1.431 . S
C225 C245 1.449 . S
C226 C225 1.258 . S
C226 C227 1.477 . S
C226 H246 0.931 . S
C227 C223 1.454 1_565 S
C227 C226 1.477 . S
C227 H247 0.930 1_565 S
C228 N224 1.362 . S
C228 C225 1.431 . S
C228 C238 1.476 . S
H229 C223 0.948 . S
C230 O221 1.250 . S
C230 O222 1.258 . S
O231 Mn216 2.162 1_545 S
O231 C219 1.280 1_545 S
O232 Mn216 2.297 . S
O232 C219 1.236 . S
N233 Mn217 2.282 . S
N233 C234 1.328 . S
N233 C238 1.318 . S
C234 N233 1.328 . S
C234 C235 1.457 . S
C234 H239 0.929 . S
C235 C234 1.457 . S
C235 C236 1.291 . S
C235 H248 0.931 . S
C236 C235 1.291 . S
C236 C237 1.373 . S
C236 H249 0.929 . S
C237 C236 1.373 . S
C237 C238 1.396 . S
C237 C244 1.403 . S
C238 C228 1.476 . S
C238 N233 1.318 . S
C238 C237 1.396 . S
H239 C234 0.929 . S
O240 Mn216 2.385 . S
O240 C218 1.234 . S
O241 Mn216 2.209 . S
O241 Mn217 2.215 . S
O241 C218 1.283 . S
O242 Mn216 2.094 . S
O242 C220 1.240 . S
O243 Mn217 2.117 . S
O243 C220 1.264 . S
C244 C237 1.403 . S
C244 C245 1.399 . S
C244 H250 0.929 . S
C245 C225 1.449 . S
C245 C244 1.399 . S
C245 H251 0.930 . S
H246 C226 0.931 . S
H247 C227 0.930 1_545 S
H248 C235 0.931 . S
H249 C236 0.929 . S
H250 C244 0.929 . S
H251 C245 0.930 . S
Mn252 O257 2.097 . S
Mn252 O267 2.162 . S
Mn252 O268 2.297 . S
Mn252 O276 2.385 . S
Mn252 O277 2.209 . S
Mn252 O278 2.094 1_554 S
Mn253 O258 2.121 . S
Mn253 N260 2.257 1_545 S
Mn253 N269 2.282 . S
Mn253 O277 2.215 1_556 S
Mn253 O279 2.117 . S
C254 O276 1.234 . S
C254 O277 1.283 . S
C255 O267 1.281 . S
C255 O268 1.236 . S
C256 O278 1.240 . S
C256 O279 1.264 . S
O257 Mn252 2.097 . S
O257 C266 1.249 1_554 S
O258 Mn253 2.121 . S
O258 C266 1.258 . S
C259 N260 1.326 . S
C259 C263 1.460 . S
C259 H265 0.929 . S
N260 Mn253 2.257 1_565 S
N260 C259 1.326 . S
N260 C264 1.362 . S
C261 C262 1.258 . S
C261 C264 1.431 . S
C261 C281 1.449 . S
C262 C261 1.258 . S
C262 C263 1.477 . S
C262 H282 0.931 . S
C263 C259 1.460 . S
C263 C262 1.477 . S
C263 H283 0.930 . S
C264 N260 1.362 . S
C264 C261 1.431 . S
C264 C274 1.476 . S
H265 C259 0.929 . S
C266 O257 1.249 1_556 S
C266 O258 1.258 . S
O267 Mn252 2.162 . S
O267 C255 1.281 . S
O268 Mn252 2.297 . S
O268 C255 1.236 . S
N269 Mn253 2.282 . S
N269 C270 1.328 . S
N269 C274 1.318 1_545 S
C270 N269 1.328 . S
C270 C271 1.457 . S
C270 H275 0.929 . S
C271 C270 1.457 . S
C271 C272 1.291 . S
C271 H284 0.931 . S
C272 C271 1.291 . S
C272 C273 1.373 1_545 S
C272 H285 0.929 1_545 S
C273 C272 1.373 1_565 S
C273 C274 1.396 . S
C273 C280 1.403 . S
C274 C264 1.476 . S
C274 N269 1.318 1_565 S
C274 C273 1.396 . S
H275 C270 0.929 . S
O276 Mn252 2.385 . S
O276 C254 1.234 . S
O277 Mn252 2.209 . S
O277 Mn253 2.215 1_554 S
O277 C254 1.283 . S
O278 Mn252 2.094 1_556 S
O278 C256 1.240 . S
O279 Mn253 2.117 . S
O279 C256 1.264 . S
C280 C273 1.403 . S
C280 C281 1.399 . S
C280 H286 0.929 . S
C281 C261 1.449 . S
C281 C280 1.399 . S
C281 H287 0.930 . S
H282 C262 0.931 . S
H283 C263 0.930 . S
H284 C271 0.931 . S
H285 C272 0.929 1_565 S
H286 C280 0.929 . S
H287 C281 0.930 . S
Mn288 O293 2.093 1_554 S
Mn288 O303 2.162 . S
Mn288 O304 2.297 . S
Mn288 O312 2.385 . S
Mn288 O313 2.209 . S
Mn288 O314 2.094 1_554 S
Mn289 O294 2.121 . S
Mn289 N296 2.257 . S
Mn289 N305 2.282 . S
Mn289 O313 2.215 1_556 S
Mn289 O315 2.117 . S
C290 O312 1.234 . S
C290 O313 1.283 . S
C291 O303 1.281 . S
C291 O304 1.236 . S
C292 O314 1.240 . S
C292 O315 1.264 . S
O293 Mn288 2.093 1_556 S
O293 C302 1.251 . S
O294 Mn289 2.121 . S
O294 C302 1.258 . S
C295 N296 1.326 . S
C295 C299 1.460 . S
C295 H301 0.929 . S
N296 Mn289 2.257 . S
N296 C295 1.326 . S
N296 C300 1.362 . S
C297 C298 1.258 . S
C297 C300 1.431 . S
C297 C317 1.449 . S
C298 C297 1.258 . S
C298 C299 1.477 . S
C298 H318 0.931 . S
C299 C295 1.460 . S
C299 C298 1.477 . S
C299 H319 0.930 . S
C300 N296 1.362 . S
C300 C297 1.431 . S
C300 C310 1.476 . S
H301 C295 0.929 . S
C302 O293 1.251 . S
C302 O294 1.258 . S
O303 Mn288 2.162 . S
O303 C291 1.281 . S
O304 Mn288 2.297 . S
O304 C291 1.236 . S
N305 Mn289 2.282 . S
N305 C306 1.328 . S
N305 C310 1.318 . S
C306 N305 1.328 . S
C306 C307 1.457 . S
C306 H311 0.929 . S
C307 C306 1.457 . S
C307 C308 1.291 . S
C307 H320 0.931 . S
C308 C307 1.291 . S
C308 C309 1.373 . S
C308 H321 0.929 . S
C309 C308 1.373 . S
C309 C310 1.396 . S
C309 C316 1.403 . S
C310 C300 1.476 . S
C310 N305 1.318 . S
C310 C309 1.396 . S
H311 C306 0.929 . S
O312 Mn288 2.385 . S
O312 C290 1.234 . S
O313 Mn288 2.209 . S
O313 Mn289 2.215 1_554 S
O313 C290 1.283 . S
O314 Mn288 2.094 1_556 S
O314 C292 1.240 . S
O315 Mn289 2.117 . S
O315 C292 1.264 . S
C316 C309 1.403 . S
C316 C317 1.399 . S
C316 H322 0.929 . S
C317 C297 1.449 . S
C317 C316 1.399 . S
C317 H323 0.930 . S
H318 C298 0.931 . S
H319 C299 0.930 . S
H320 C307 0.931 . S
H321 C308 0.929 . S
H322 C316 0.929 . S
H323 C317 0.930 . S
Mn324 O329 2.095 . S
Mn324 O339 2.162 . S
Mn324 O340 2.297 . S
Mn324 O348 2.385 . S
Mn324 O349 2.209 . S
Mn324 O350 2.094 . S
Mn325 O330 2.121 . S
Mn325 N332 2.257 . S
Mn325 N341 2.282 . S
Mn325 O349 2.215 . S
Mn325 O351 2.117 . S
C326 O348 1.234 . S
C326 O349 1.283 . S
C327 O339 1.281 . S
C327 O340 1.236 . S
C328 O350 1.240 . S
C328 O351 1.264 . S
O329 Mn324 2.095 . S
O329 C338 1.250 . S
O330 Mn325 2.121 . S
O330 C338 1.258 . S
C331 N332 1.326 . S
C331 C335 1.460 . S
C331 H337 0.929 . S
N332 Mn325 2.257 . S
N332 C331 1.326 . S
N332 C336 1.362 . S
C333 C334 1.258 . S
C333 C336 1.431 . S
C333 C353 1.449 . S
C334 C333 1.258 . S
C334 C335 1.477 . S
C334 H354 0.931 . S
C335 C331 1.460 . S
C335 C334 1.477 . S
C335 H355 0.930 . S
C336 N332 1.362 . S
C336 C333 1.431 . S
C336 C346 1.476 . S
H337 C331 0.929 . S
C338 O329 1.250 . S
C338 O330 1.258 . S
O339 Mn324 2.162 . S
O339 C327 1.281 . S
O340 Mn324 2.297 . S
O340 C327 1.236 . S
N341 Mn325 2.282 . S
N341 C342 1.328 . S
N341 C346 1.318 . S
C342 N341 1.328 . S
C342 C343 1.457 . S
C342 H347 0.929 . S
C343 C342 1.457 . S
C343 C344 1.291 . S
C343 H356 0.931 . S
C344 C343 1.291 . S
C344 C345 1.373 . S
C344 H357 0.929 . S
C345 C344 1.373 . S
C345 C346 1.396 . S
C345 C352 1.403 . S
C346 C336 1.476 . S
C346 N341 1.318 . S
C346 C345 1.396 . S
H347 C342 0.929 . S
O348 Mn324 2.385 . S
O348 C326 1.234 . S
O349 Mn324 2.209 . S
O349 Mn325 2.215 . S
O349 C326 1.283 . S
O350 Mn324 2.094 . S
O350 C328 1.240 . S
O351 Mn325 2.117 . S
O351 C328 1.264 . S
C352 C345 1.403 . S
C352 C353 1.399 . S
C352 H358 0.929 . S
C353 C333 1.449 . S
C353 C352 1.399 . S
C353 H359 0.930 . S
H354 C334 0.931 . S
H355 C335 0.930 . S
H356 C343 0.931 . S
H357 C344 0.929 . S
H358 C352 0.929 . S
H359 C353 0.930 . S
Mn360 O365 2.095 . S
Mn360 O375 2.162 . S
Mn360 O376 2.297 . S
Mn360 O384 2.385 . S
Mn360 O385 2.209 . S
Mn360 O386 2.094 . S
Mn361 O366 2.121 . S
Mn361 N368 2.257 . S
Mn361 N377 2.282 . S
Mn361 O385 2.215 . S
Mn361 O387 2.117 . S
C362 O384 1.234 . S
C362 O385 1.283 . S
C363 O375 1.281 . S
C363 O376 1.236 . S
C364 O386 1.240 . S
C364 O387 1.264 . S
O365 Mn360 2.095 . S
O365 C374 1.250 . S
O366 Mn361 2.121 . S
O366 C374 1.258 . S
C367 N368 1.326 . S
C367 C371 1.460 . S
C367 H373 0.929 . S
N368 Mn361 2.257 . S
N368 C367 1.326 . S
N368 C372 1.362 . S
C369 C370 1.258 . S
C369 C372 1.431 . S
C369 C389 1.449 . S
C370 C369 1.258 . S
C370 C371 1.477 . S
C370 H390 0.931 . S
C371 C367 1.460 . S
C371 C370 1.477 . S
C371 H391 0.930 . S
C372 N368 1.362 . S
C372 C369 1.431 . S
C372 C382 1.476 . S
H373 C367 0.929 . S
C374 O365 1.250 . S
C374 O366 1.258 . S
O375 Mn360 2.162 . S
O375 C363 1.281 . S
O376 Mn360 2.297 . S
O376 C363 1.236 . S
N377 Mn361 2.282 . S
N377 C378 1.328 . S
N377 C382 1.318 . S
C378 N377 1.328 . S
C378 C379 1.457 . S
C378 H383 0.929 . S
C379 C378 1.457 . S
C379 C380 1.291 . S
C379 H392 0.931 . S
C380 C379 1.291 . S
C380 C381 1.373 . S
C380 H393 0.929 . S
C381 C380 1.373 . S
C381 C382 1.396 . S
C381 C388 1.403 . S
C382 C372 1.476 . S
C382 N377 1.318 . S
C382 C381 1.396 . S
H383 C378 0.929 . S
O384 Mn360 2.385 . S
O384 C362 1.234 . S
O385 Mn360 2.209 . S
O385 Mn361 2.215 . S
O385 C362 1.283 . S
O386 Mn360 2.094 . S
O386 C364 1.240 . S
O387 Mn361 2.117 . S
O387 C364 1.264 . S
C388 C381 1.403 . S
C388 C389 1.399 . S
C388 H394 0.929 . S
C389 C369 1.449 . S
C389 C388 1.399 . S
C389 H395 0.930 . S
H390 C370 0.931 . S
H391 C371 0.930 . S
H392 C379 0.931 . S
H393 C380 0.929 . S
H394 C388 0.929 . S
H395 C389 0.930 . S
Mn396 O401 2.095 . S
Mn396 O411 2.162 . S
Mn396 O412 2.297 . S
Mn396 O420 2.385 . S
Mn396 O421 2.209 . S
Mn396 O422 2.094 . S
Mn397 O402 2.121 . S
Mn397 N404 2.257 . S
Mn397 N413 2.282 . S
Mn397 O421 2.215 . S
Mn397 O423 2.117 . S
C398 O420 1.234 . S
C398 O421 1.283 . S
C399 O411 1.281 . S
C399 O412 1.236 . S
C400 O422 1.240 . S
C400 O423 1.264 . S
O401 Mn396 2.095 . S
O401 C410 1.250 . S
O402 Mn397 2.121 . S
O402 C410 1.258 . S
C403 N404 1.326 . S
C403 C407 1.460 . S
C403 H409 0.929 . S
N404 Mn397 2.257 . S
N404 C403 1.326 . S
N404 C408 1.362 . S
C405 C406 1.258 . S
C405 C408 1.431 . S
C405 C425 1.449 . S
C406 C405 1.258 . S
C406 C407 1.477 . S
C406 H426 0.931 . S
C407 C403 1.460 . S
C407 C406 1.477 . S
C407 H427 0.930 . S
C408 N404 1.362 . S
C408 C405 1.431 . S
C408 C418 1.476 . S
H409 C403 0.929 . S
C410 O401 1.250 . S
C410 O402 1.258 . S
O411 Mn396 2.162 . S
O411 C399 1.281 . S
O412 Mn396 2.297 . S
O412 C399 1.236 . S
N413 Mn397 2.282 . S
N413 C414 1.328 . S
N413 C418 1.318 . S
C414 N413 1.328 . S
C414 C415 1.457 . S
C414 H419 0.929 . S
C415 C414 1.457 . S
C415 C416 1.291 . S
C415 H428 0.931 . S
C416 C415 1.291 . S
C416 C417 1.373 . S
C416 H429 0.929 . S
C417 C416 1.373 . S
C417 C418 1.396 . S
C417 C424 1.403 . S
C418 C408 1.476 . S
C418 N413 1.318 . S
C418 C417 1.396 . S
H419 C414 0.929 . S
O420 Mn396 2.385 . S
O420 C398 1.234 . S
O421 Mn396 2.209 . S
O421 Mn397 2.215 . S
O421 C398 1.283 . S
O422 Mn396 2.094 . S
O422 C400 1.240 . S
O423 Mn397 2.117 . S
O423 C400 1.264 . S
C424 C417 1.403 . S
C424 C425 1.399 . S
C424 H430 0.929 . S
C425 C405 1.449 . S
C425 C424 1.399 . S
C425 H431 0.930 . S
H426 C406 0.931 . S
H427 C407 0.930 . S
H428 C415 0.931 . S
H429 C416 0.929 . S
H430 C424 0.929 . S
H431 C425 0.930 . S
Mn432 O437 2.095 1_455 S
Mn432 O447 2.162 . S
Mn432 O448 2.297 . S
Mn432 O456 2.385 . S
Mn432 O457 2.209 1_455 S
Mn432 O458 2.094 1_455 S
Mn433 O438 2.121 . S
Mn433 N440 2.257 1_556 S
Mn433 N449 2.282 . S
Mn433 O457 2.215 . S
Mn433 O459 2.117 . S
C434 O456 1.234 . S
C434 O457 1.283 1_455 S
C435 O447 1.281 . S
C435 O448 1.236 . S
C436 O458 1.240 . S
C436 O459 1.264 . S
O437 Mn432 2.095 1_655 S
O437 C446 1.250 . S
O438 Mn433 2.121 . S
O438 C446 1.258 . S
C439 N440 1.326 . S
C439 C443 1.460 . S
C439 H445 0.929 . S
N440 Mn433 2.257 1_554 S
N440 C439 1.326 . S
N440 C444 1.362 . S
C441 C442 1.258 . S
C441 C444 1.431 . S
C441 C461 1.449 . S
C442 C441 1.258 . S
C442 C443 1.477 . S
C442 H462 0.931 . S
C443 C439 1.460 . S
C443 C442 1.477 . S
C443 H463 0.930 . S
C444 N440 1.362 . S
C444 C441 1.431 . S
C444 C454 1.476 . S
H445 C439 0.929 . S
C446 O437 1.250 . S
C446 O438 1.258 . S
O447 Mn432 2.162 . S
O447 C435 1.281 . S
O448 Mn432 2.297 . S
O448 C435 1.236 . S
N449 Mn433 2.282 . S
N449 C450 1.328 . S
N449 C454 1.318 1_556 S
C450 N449 1.328 . S
C450 C451 1.457 . S
C450 H455 0.929 . S
C451 C450 1.457 . S
C451 C452 1.291 1_556 S
C451 H464 0.931 . S
C452 C451 1.291 1_554 S
C452 C453 1.373 . S
C452 H465 0.929 . S
C453 C452 1.373 . S
C453 C454 1.396 . S
C453 C460 1.403 . S
C454 C444 1.476 . S
C454 N449 1.318 1_554 S
C454 C453 1.396 . S
H455 C450 0.929 . S
O456 Mn432 2.385 . S
O456 C434 1.234 . S
O457 Mn432 2.209 1_655 S
O457 Mn433 2.215 . S
O457 C434 1.283 1_655 S
O458 Mn432 2.094 1_655 S
O458 C436 1.240 . S
O459 Mn433 2.117 . S
O459 C436 1.264 . S
C460 C453 1.403 . S
C460 C461 1.399 . S
C460 H466 0.929 . S
C461 C441 1.449 . S
C461 C460 1.399 . S
C461 H467 0.930 . S
H462 C442 0.931 . S
H463 C443 0.930 . S
H464 C451 0.931 . S
H465 C452 0.929 . S
H466 C460 0.929 . S
H467 C461 0.930 . S
Mn468 O473 2.095 1_455 S
Mn468 O483 2.162 . S
Mn468 O484 2.297 . S
Mn468 O492 2.385 . S
Mn468 O493 2.209 1_455 S
Mn468 O494 2.094 1_455 S
Mn469 O474 2.121 . S
Mn469 N476 2.257 . S
Mn469 N485 2.282 . S
Mn469 O493 2.215 . S
Mn469 O495 2.117 . S
C470 O492 1.234 . S
C470 O493 1.283 1_455 S
C471 O483 1.281 . S
C471 O484 1.236 . S
C472 O494 1.240 . S
C472 O495 1.264 . S
O473 Mn468 2.095 1_655 S
O473 C482 1.250 . S
O474 Mn469 2.121 . S
O474 C482 1.258 . S
C475 N476 1.326 . S
C475 C479 1.460 . S
C475 H481 0.929 . S
N476 Mn469 2.257 . S
N476 C475 1.326 . S
N476 C480 1.362 . S
C477 C478 1.258 . S
C477 C480 1.431 . S
C477 C497 1.449 . S
C478 C477 1.258 . S
C478 C479 1.477 . S
C478 H498 0.931 . S
C479 C475 1.460 . S
C479 C478 1.477 . S
C479 H499 0.930 . S
C480 N476 1.362 . S
C480 C477 1.431 . S
C480 C490 1.476 . S
H481 C475 0.929 . S
C482 O473 1.250 . S
C482 O474 1.258 . S
O483 Mn468 2.162 . S
O483 C471 1.281 . S
O484 Mn468 2.297 . S
O484 C471 1.236 . S
N485 Mn469 2.282 . S
N485 C486 1.328 . S
N485 C490 1.318 . S
C486 N485 1.328 . S
C486 C487 1.457 . S
C486 H491 0.929 . S
C487 C486 1.457 . S
C487 C488 1.291 . S
C487 H500 0.931 . S
C488 C487 1.291 . S
C488 C489 1.373 . S
C488 H501 0.929 . S
C489 C488 1.373 . S
C489 C490 1.396 . S
C489 C496 1.403 . S
C490 C480 1.476 . S
C490 N485 1.318 . S
C490 C489 1.396 . S
H491 C486 0.929 . S
O492 Mn468 2.385 . S
O492 C470 1.234 . S
O493 Mn468 2.209 1_655 S
O493 Mn469 2.215 . S
O493 C470 1.283 1_655 S
O494 Mn468 2.094 1_655 S
O494 C472 1.240 . S
O495 Mn469 2.117 . S
O495 C472 1.264 . S
C496 C489 1.403 . S
C496 C497 1.399 . S
C496 H502 0.929 . S
C497 C477 1.449 . S
C497 C496 1.399 . S
C497 H503 0.930 . S
H498 C478 0.931 . S
H499 C479 0.930 . S
H500 C487 0.931 . S
H501 C488 0.929 . S
H502 C496 0.929 . S
H503 C497 0.930 . S
Mn504 O509 2.095 . S
Mn504 O519 2.162 . S
Mn504 O520 2.297 . S
Mn504 O528 2.385 . S
Mn504 O529 2.209 . S
Mn504 O530 2.094 . S
Mn505 O510 2.121 . S
Mn505 N512 2.257 . S
Mn505 N521 2.282 . S
Mn505 O529 2.215 . S
Mn505 O531 2.117 . S
C506 O528 1.234 . S
C506 O529 1.283 . S
C507 O519 1.281 . S
C507 O520 1.236 . S
C508 O530 1.240 . S
C508 O531 1.264 . S
O509 Mn504 2.095 . S
O509 C518 1.250 . S
O510 Mn505 2.121 . S
O510 C518 1.258 . S
C511 N512 1.326 . S
C511 C515 1.460 . S
C511 H517 0.929 . S
N512 Mn505 2.257 . S
N512 C511 1.326 . S
N512 C516 1.362 . S
C513 C514 1.258 . S
C513 C516 1.431 . S
C513 C533 1.449 . S
C514 C513 1.258 . S
C514 C515 1.477 . S
C514 H534 0.931 . S
C515 C511 1.460 . S
C515 C514 1.477 . S
C515 H535 0.930 . S
C516 N512 1.362 . S
C516 C513 1.431 . S
C516 C526 1.476 . S
H517 C511 0.929 . S
C518 O509 1.250 . S
C518 O510 1.258 . S
O519 Mn504 2.162 . S
O519 C507 1.281 . S
O520 Mn504 2.297 . S
O520 C507 1.236 . S
N521 Mn505 2.282 . S
N521 C522 1.328 . S
N521 C526 1.318 . S
C522 N521 1.328 . S
C522 C523 1.457 . S
C522 H527 0.929 . S
C523 C522 1.457 . S
C523 C524 1.291 . S
C523 H536 0.931 . S
C524 C523 1.291 . S
C524 C525 1.373 . S
C524 H537 0.929 . S
C525 C524 1.373 . S
C525 C526 1.396 . S
C525 C532 1.403 . S
C526 C516 1.476 . S
C526 N521 1.318 . S
C526 C525 1.396 . S
H527 C522 0.929 . S
O528 Mn504 2.385 . S
O528 C506 1.234 . S
O529 Mn504 2.209 . S
O529 Mn505 2.215 . S
O529 C506 1.283 . S
O530 Mn504 2.094 . S
O530 C508 1.240 . S
O531 Mn505 2.117 . S
O531 C508 1.264 . S
C532 C525 1.403 . S
C532 C533 1.399 . S
C532 H538 0.929 . S
C533 C513 1.449 . S
C533 C532 1.399 . S
C533 H539 0.930 . S
H534 C514 0.931 . S
H535 C515 0.930 . S
H536 C523 0.931 . S
H537 C524 0.929 . S
H538 C532 0.929 . S
H539 C533 0.930 . S
Mn540 O545 2.095 . S
Mn540 O555 2.162 . S
Mn540 O556 2.297 . S
Mn540 O564 2.385 . S
Mn540 O565 2.209 . S
Mn540 O566 2.094 . S
Mn541 O546 2.121 . S
Mn541 N548 2.257 1_554 S
Mn541 N557 2.282 . S
Mn541 O565 2.215 . S
Mn541 O567 2.117 . S
C542 O564 1.234 . S
C542 O565 1.283 . S
C543 O555 1.281 . S
C543 O556 1.236 . S
C544 O566 1.240 . S
C544 O567 1.264 . S
O545 Mn540 2.095 . S
O545 C554 1.250 . S
O546 Mn541 2.121 . S
O546 C554 1.258 . S
C547 N548 1.326 . S
C547 C551 1.460 . S
C547 H553 0.929 . S
N548 Mn541 2.257 1_556 S
N548 C547 1.326 . S
N548 C552 1.362 . S
C549 C550 1.258 . S
C549 C552 1.431 . S
C549 C569 1.449 . S
C550 C549 1.258 . S
C550 C551 1.477 . S
C550 H570 0.931 . S
C551 C547 1.460 . S
C551 C550 1.477 . S
C551 H571 0.930 . S
C552 N548 1.362 . S
C552 C549 1.431 . S
C552 C562 1.476 . S
H553 C547 0.929 . S
C554 O545 1.250 . S
C554 O546 1.258 . S
O555 Mn540 2.162 . S
O555 C543 1.281 . S
O556 Mn540 2.297 . S
O556 C543 1.236 . S
N557 Mn541 2.282 . S
N557 C558 1.328 . S
N557 C562 1.318 1_554 S
C558 N557 1.328 . S
C558 C559 1.457 . S
C558 H563 0.929 . S
C559 C558 1.457 . S
C559 C560 1.291 . S
C559 H572 0.931 . S
C560 C559 1.291 . S
C560 C561 1.373 1_554 S
C560 H573 0.929 . S
C561 C560 1.373 1_556 S
C561 C562 1.396 . S
C561 C568 1.403 . S
C562 C552 1.476 . S
C562 N557 1.318 1_556 S
C562 C561 1.396 . S
H563 C558 0.929 . S
O564 Mn540 2.385 . S
O564 C542 1.234 . S
O565 Mn540 2.209 . S
O565 Mn541 2.215 . S
O565 C542 1.283 . S
O566 Mn540 2.094 . S
O566 C544 1.240 . S
O567 Mn541 2.117 . S
O567 C544 1.264 . S
C568 C561 1.403 . S
C568 C569 1.399 . S
C568 H574 0.929 . S
C569 C549 1.449 . S
C569 C568 1.399 . S
C569 H575 0.930 . S
H570 C550 0.931 . S
H571 C551 0.930 . S
H572 C559 0.931 . S
H573 C560 0.929 . S
H574 C568 0.929 . S
H575 C569 0.930 . S
Mn576 O581 2.095 . S
Mn576 O591 2.162 . S
Mn576 O592 2.297 . S
Mn576 O600 2.385 1_545 S
Mn576 O601 2.209 1_545 S
Mn576 O602 2.094 . S
Mn577 O582 2.121 . S
Mn577 N584 2.257 1_545 S
Mn577 N593 2.282 1_545 S
Mn577 O601 2.215 1_545 S
Mn577 O603 2.117 . S
C578 O600 1.234 . S
C578 O601 1.283 . S
C579 O591 1.281 . S
C579 O592 1.236 . S
C580 O602 1.240 . S
C580 O603 1.264 . S
O581 Mn576 2.095 . S
O581 C590 1.250 . S
O582 Mn577 2.121 . S
O582 C590 1.258 . S
C583 N584 1.326 1_545 S
C583 C587 1.460 . S
C583 H589 0.929 . S
N584 Mn577 2.257 1_565 S
N584 C583 1.326 1_565 S
N584 C588 1.362 . S
C585 C586 1.258 . S
C585 C588 1.431 . S
C585 C605 1.449 . S
C586 C585 1.258 . S
C586 C587 1.477 1_565 S
C586 H606 0.931 . S
C587 C583 1.460 . S
C587 C586 1.477 1_545 S
C587 H607 0.930 . S
C588 N584 1.362 . S
C588 C585 1.431 . S
C588 C598 1.476 . S
H589 C583 0.929 . S
C590 O581 1.250 . S
C590 O582 1.258 . S
O591 Mn576 2.162 . S
O591 C579 1.281 . S
O592 Mn576 2.297 . S
O592 C579 1.236 . S
N593 Mn577 2.282 1_565 S
N593 C594 1.328 . S
N593 C598 1.318 . S
C594 N593 1.328 . S
C594 C595 1.457 . S
C594 H599 0.929 . S
C595 C594 1.457 . S
C595 C596 1.291 . S
C595 H608 0.931 . S
C596 C595 1.291 . S
C596 C597 1.373 . S
C596 H609 0.929 . S
C597 C596 1.373 . S
C597 C598 1.396 . S
C597 C604 1.403 . S
C598 C588 1.476 . S
C598 N593 1.318 . S
C598 C597 1.396 . S
H599 C594 0.929 . S
O600 Mn576 2.385 1_565 S
O600 C578 1.234 . S
O601 Mn576 2.209 1_565 S
O601 Mn577 2.215 1_565 S
O601 C578 1.283 . S
O602 Mn576 2.094 . S
O602 C580 1.240 . S
O603 Mn577 2.117 . S
O603 C580 1.264 . S
C604 C597 1.403 . S
C604 C605 1.399 . S
C604 H610 0.929 . S
C605 C585 1.449 . S
C605 C604 1.399 . S
C605 H611 0.930 . S
H606 C586 0.931 . S
H607 C587 0.930 . S
H608 C595 0.931 . S
H609 C596 0.929 . S
H610 C604 0.929 . S
H611 C605 0.930 . S
Mn612 O617 2.095 . S
Mn612 O627 2.162 . S
Mn612 O628 2.297 . S
Mn612 O636 2.385 . S
Mn612 O637 2.209 . S
Mn612 O638 2.094 . S
Mn613 O618 2.121 . S
Mn613 N620 2.257 1_545 S
Mn613 N629 2.282 . S
Mn613 O637 2.215 . S
Mn613 O639 2.117 . S
C614 O636 1.234 . S
C614 O637 1.283 . S
C615 O627 1.281 . S
C615 O628 1.236 . S
C616 O638 1.240 . S
C616 O639 1.264 . S
O617 Mn612 2.095 . S
O617 C626 1.250 . S
O618 Mn613 2.121 . S
O618 C626 1.258 . S
C619 N620 1.326 . S
C619 C623 1.460 . S
C619 H625 0.929 . S
N620 Mn613 2.257 1_565 S
N620 C619 1.326 . S
N620 C624 1.362 . S
C621 C622 1.258 . S
C621 C624 1.431 . S
C621 C641 1.449 . S
C622 C621 1.258 . S
C622 C623 1.477 . S
C622 H642 0.931 . S
C623 C619 1.460 . S
C623 C622 1.477 . S
C623 H643 0.930 . S
C624 N620 1.362 . S
C624 C621 1.431 . S
C624 C634 1.476 . S
H625 C619 0.929 . S
C626 O617 1.250 . S
C626 O618 1.258 . S
O627 Mn612 2.162 . S
O627 C615 1.281 . S
O628 Mn612 2.297 . S
O628 C615 1.236 . S
N629 Mn613 2.282 . S
N629 C630 1.328 . S
N629 C634 1.318 1_545 S
C630 N629 1.328 . S
C630 C631 1.457 . S
C630 H635 0.929 . S
C631 C630 1.457 . S
C631 C632 1.291 . S
C631 H644 0.931 . S
C632 C631 1.291 . S
C632 C633 1.373 1_545 S
C632 H645 0.929 . S
C633 C632 1.373 1_565 S
C633 C634 1.396 . S
C633 C640 1.403 . S
C634 C624 1.476 . S
C634 N629 1.318 1_565 S
C634 C633 1.396 . S
H635 C630 0.929 . S
O636 Mn612 2.385 . S
O636 C614 1.234 . S
O637 Mn612 2.209 . S
O637 Mn613 2.215 . S
O637 C614 1.283 . S
O638 Mn612 2.094 . S
O638 C616 1.240 . S
O639 Mn613 2.117 . S
O639 C616 1.264 . S
C640 C633 1.403 . S
C640 C641 1.399 . S
C640 H646 0.929 . S
C641 C621 1.449 . S
C641 C640 1.399 . S
C641 H647 0.930 . S
H642 C622 0.931 . S
H643 C623 0.930 . S
H644 C631 0.931 . S
H645 C632 0.929 . S
H646 C640 0.929 . S
H647 C641 0.930 . S
Mn648 O653 2.095 1_545 S
Mn648 O663 2.162 1_545 S
Mn648 O664 2.297 . S
Mn648 O672 2.385 . S
Mn648 O673 2.209 . S
Mn648 O674 2.094 . S
Mn649 O654 2.121 1_545 S
Mn649 N656 2.257 . S
Mn649 N665 2.282 . S
Mn649 O673 2.215 . S
Mn649 O675 2.117 . S
C650 O672 1.234 . S
C650 O673 1.283 . S
C651 O663 1.281 . S
C651 O664 1.236 1_565 S
C652 O674 1.240 . S
C652 O675 1.264 . S
O653 Mn648 2.095 1_565 S
O653 C662 1.250 . S
O654 Mn649 2.121 1_565 S
O654 C662 1.258 . S
C655 N656 1.337 . S
C655 C659 1.465 . S
C655 H661 0.915 1_545 S
N656 Mn649 2.257 . S
N656 C655 1.337 . S
N656 C660 1.362 . S
C657 C658 1.258 . S
C657 C660 1.431 . S
C657 C677 1.449 . S
C658 C657 1.258 . S
C658 C659 1.477 . S
C658 H678 0.931 . S
C659 C655 1.465 . S
C659 C658 1.477 . S
C659 H679 0.930 1_545 S
C660 N656 1.362 . S
C660 C657 1.431 . S
C660 C670 1.476 . S
H661 C655 0.915 1_565 S
C662 O653 1.250 . S
C662 O654 1.258 . S
O663 Mn648 2.162 1_565 S
O663 C651 1.281 . S
O664 Mn648 2.297 . S
O664 C651 1.236 1_545 S
N665 Mn649 2.282 . S
N665 C666 1.328 . S
N665 C670 1.318 . S
C666 N665 1.328 . S
C666 C667 1.457 . S
C666 H671 0.929 . S
C667 C666 1.457 . S
C667 C668 1.291 . S
C667 H680 0.931 . S
C668 C667 1.291 . S
C668 C669 1.373 . S
C668 H681 0.929 . S
C669 C668 1.373 . S
C669 C670 1.396 . S
C669 C676 1.403 . S
C670 C660 1.476 . S
C670 N665 1.318 . S
C670 C669 1.396 . S
H671 C666 0.929 . S
O672 Mn648 2.385 . S
O672 C650 1.234 . S
O673 Mn648 2.209 . S
O673 Mn649 2.215 . S
O673 C650 1.283 . S
O674 Mn648 2.094 . S
O674 C652 1.240 . S
O675 Mn649 2.117 . S
O675 C652 1.264 . S
C676 C669 1.403 . S
C676 C677 1.399 . S
C676 H682 0.929 . S
C677 C657 1.449 . S
C677 C676 1.399 . S
C677 H683 0.930 . S
H678 C658 0.931 . S
H679 C659 0.930 1_565 S
H680 C667 0.931 . S
H681 C668 0.929 . S
H682 C676 0.929 . S
H683 C677 0.930 . S
Mn684 O689 2.095 1_554 S
Mn684 O699 2.162 . S
Mn684 O700 2.297 . S
Mn684 O708 2.385 . S
Mn684 O709 2.209 1_554 S
Mn684 O710 2.094 1_554 S
Mn685 O690 2.121 . S
Mn685 N692 2.257 1_565 S
Mn685 N701 2.282 . S
Mn685 O709 2.215 . S
Mn685 O711 2.117 . S
C686 O708 1.234 . S
C686 O709 1.283 1_554 S
C687 O699 1.281 . S
C687 O700 1.236 . S
C688 O710 1.240 . S
C688 O711 1.264 . S
O689 Mn684 2.095 1_556 S
O689 C698 1.250 . S
O690 Mn685 2.121 . S
O690 C698 1.258 . S
C691 N692 1.326 . S
C691 C695 1.460 . S
C691 H697 0.929 . S
N692 Mn685 2.257 1_545 S
N692 C691 1.326 . S
N692 C696 1.362 . S
C693 C694 1.258 . S
C693 C696 1.431 . S
C693 C713 1.449 . S
C694 C693 1.258 . S
C694 C695 1.477 . S
C694 H714 0.931 . S
C695 C691 1.460 . S
C695 C694 1.477 . S
C695 H715 0.930 . S
C696 N692 1.362 . S
C696 C693 1.431 . S
C696 C706 1.476 . S
H697 C691 0.929 . S
C698 O689 1.250 . S
C698 O690 1.258 . S
O699 Mn684 2.162 . S
O699 C687 1.281 . S
O700 Mn684 2.297 . S
O700 C687 1.236 . S
N701 Mn685 2.282 . S
N701 C702 1.328 . S
N701 C706 1.318 1_565 S
C702 N701 1.328 . S
C702 C703 1.457 . S
C702 H707 0.929 . S
C703 C702 1.457 . S
C703 C704 1.291 1_565 S
C703 H716 0.931 . S
C704 C703 1.291 1_545 S
C704 C705 1.373 . S
C704 H717 0.929 . S
C705 C704 1.373 . S
C705 C706 1.396 . S
C705 C712 1.403 . S
C706 C696 1.476 . S
C706 N701 1.318 1_545 S
C706 C705 1.396 . S
H707 C702 0.929 . S
O708 Mn684 2.385 . S
O708 C686 1.234 . S
O709 Mn684 2.209 1_556 S
O709 Mn685 2.215 . S
O709 C686 1.283 1_556 S
O710 Mn684 2.094 1_556 S
O710 C688 1.240 . S
O711 Mn685 2.117 . S
O711 C688 1.264 . S
C712 C705 1.403 . S
C712 C713 1.399 . S
C712 H718 0.929 . S
C713 C693 1.449 . S
C713 C712 1.399 . S
C713 H719 0.930 . S
H714 C694 0.931 . S
H715 C695 0.930 . S
H716 C703 0.931 . S
H717 C704 0.929 . S
H718 C712 0.929 . S
H719 C713 0.930 . S
Mn720 O725 2.095 1_554 S
Mn720 O735 2.162 . S
Mn720 O736 2.297 . S
Mn720 O744 2.385 . S
Mn720 O745 2.209 1_554 S
Mn720 O746 2.094 1_554 S
Mn721 O726 2.121 . S
Mn721 N728 2.257 . S
Mn721 N737 2.282 . S
Mn721 O745 2.215 . S
Mn721 O747 2.117 . S
C722 O744 1.234 . S
C722 O745 1.283 1_554 S
C723 O735 1.281 . S
C723 O736 1.236 . S
C724 O746 1.240 . S
C724 O747 1.264 . S
O725 Mn720 2.095 1_556 S
O725 C734 1.250 . S
O726 Mn721 2.121 . S
O726 C734 1.258 . S
C727 N728 1.326 . S
C727 C731 1.460 . S
C727 H733 0.929 . S
N728 Mn721 2.257 . S
N728 C727 1.326 . S
N728 C732 1.362 . S
C729 C730 1.258 . S
C729 C732 1.431 . S
C729 C749 1.449 . S
C730 C729 1.258 . S
C730 C731 1.477 . S
C730 H750 0.931 . S
C731 C727 1.460 . S
C731 C730 1.477 . S
C731 H751 0.930 . S
C732 N728 1.362 . S
C732 C729 1.431 . S
C732 C742 1.476 . S
H733 C727 0.929 . S
C734 O725 1.250 . S
C734 O726 1.258 . S
O735 Mn720 2.162 . S
O735 C723 1.281 . S
O736 Mn720 2.297 . S
O736 C723 1.236 . S
N737 Mn721 2.282 . S
N737 C738 1.328 . S
N737 C742 1.318 . S
C738 N737 1.328 . S
C738 C739 1.457 . S
C738 H743 0.929 . S
C739 C738 1.457 . S
C739 C740 1.291 . S
C739 H752 0.931 . S
C740 C739 1.291 . S
C740 C741 1.373 . S
C740 H753 0.929 . S
C741 C740 1.373 . S
C741 C742 1.396 . S
C741 C748 1.403 . S
C742 C732 1.476 . S
C742 N737 1.318 . S
C742 C741 1.396 . S
H743 C738 0.929 . S
O744 Mn720 2.385 . S
O744 C722 1.234 . S
O745 Mn720 2.209 1_556 S
O745 Mn721 2.215 . S
O745 C722 1.283 1_556 S
O746 Mn720 2.094 1_556 S
O746 C724 1.240 . S
O747 Mn721 2.117 . S
O747 C724 1.264 . S
C748 C741 1.403 . S
C748 C749 1.399 . S
C748 H754 0.929 . S
C749 C729 1.449 . S
C749 C748 1.399 . S
C749 H755 0.930 . S
H750 C730 0.931 . S
H751 C731 0.930 . S
H752 C739 0.931 . S
H753 C740 0.929 . S
H754 C748 0.929 . S
H755 C749 0.930 . S
Mn756 O761 2.095 . S
Mn756 O771 2.162 . S
Mn756 O772 2.297 . S
Mn756 O780 2.385 . S
Mn756 O781 2.209 . S
Mn756 O782 2.094 . S
Mn757 O762 2.121 . S
Mn757 N764 2.257 . S
Mn757 N773 2.282 . S
Mn757 O781 2.215 . S
Mn757 O783 2.117 . S
C758 O780 1.234 . S
C758 O781 1.283 . S
C759 O771 1.281 . S
C759 O772 1.236 . S
C760 O782 1.240 . S
C760 O783 1.264 . S
O761 Mn756 2.095 . S
O761 C770 1.250 . S
O762 Mn757 2.121 . S
O762 C770 1.258 . S
C763 N764 1.326 . S
C763 C767 1.460 . S
C763 H769 0.929 . S
N764 Mn757 2.257 . S
N764 C763 1.326 . S
N764 C768 1.362 . S
C765 C766 1.258 . S
C765 C768 1.431 . S
C765 C785 1.449 . S
C766 C765 1.258 . S
C766 C767 1.477 . S
C766 H786 0.931 . S
C767 C763 1.460 . S
C767 C766 1.477 . S
C767 H787 0.930 . S
C768 N764 1.362 . S
C768 C765 1.431 . S
C768 C778 1.476 . S
H769 C763 0.929 . S
C770 O761 1.250 . S
C770 O762 1.258 . S
O771 Mn756 2.162 . S
O771 C759 1.281 . S
O772 Mn756 2.297 . S
O772 C759 1.236 . S
N773 Mn757 2.282 . S
N773 C774 1.328 . S
N773 C778 1.318 . S
C774 N773 1.328 . S
C774 C775 1.457 . S
C774 H779 0.929 . S
C775 C774 1.457 . S
C775 C776 1.291 . S
C775 H788 0.931 . S
C776 C775 1.291 . S
C776 C777 1.373 . S
C776 H789 0.929 . S
C777 C776 1.373 . S
C777 C778 1.396 . S
C777 C784 1.403 . S
C778 C768 1.476 . S
C778 N773 1.318 . S
C778 C777 1.396 . S
H779 C774 0.929 . S
O780 Mn756 2.385 . S
O780 C758 1.234 . S
O781 Mn756 2.209 . S
O781 Mn757 2.215 . S
O781 C758 1.283 . S
O782 Mn756 2.094 . S
O782 C760 1.240 . S
O783 Mn757 2.117 . S
O783 C760 1.264 . S
C784 C777 1.403 . S
C784 C785 1.399 . S
C784 H790 0.929 . S
C785 C765 1.449 . S
C785 C784 1.399 . S
C785 H791 0.930 . S
H786 C766 0.931 . S
H787 C767 0.930 . S
H788 C775 0.931 . S
H789 C776 0.929 . S
H790 C784 0.929 . S
H791 C785 0.930 . S
Mn792 O797 2.095 . S
Mn792 O807 2.162 . S
Mn792 O808 2.297 . S
Mn792 O816 2.385 . S
Mn792 O817 2.209 . S
Mn792 O818 2.094 . S
Mn793 O798 2.121 . S
Mn793 N800 2.257 . S
Mn793 N809 2.282 . S
Mn793 O817 2.215 . S
Mn793 O819 2.117 . S
C794 O816 1.234 . S
C794 O817 1.283 . S
C795 O807 1.281 . S
C795 O808 1.236 . S
C796 O818 1.240 . S
C796 O819 1.264 . S
O797 Mn792 2.095 . S
O797 C806 1.250 . S
O798 Mn793 2.121 . S
O798 C806 1.258 . S
C799 N800 1.326 . S
C799 C803 1.460 . S
C799 H805 0.929 . S
N800 Mn793 2.257 . S
N800 C799 1.326 . S
N800 C804 1.362 . S
C801 C802 1.258 . S
C801 C804 1.431 . S
C801 C821 1.449 . S
C802 C801 1.258 . S
C802 C803 1.477 . S
C802 H822 0.931 . S
C803 C799 1.460 . S
C803 C802 1.477 . S
C803 H823 0.930 . S
C804 N800 1.362 . S
C804 C801 1.431 . S
C804 C814 1.476 . S
H805 C799 0.929 . S
C806 O797 1.250 . S
C806 O798 1.258 . S
O807 Mn792 2.162 . S
O807 C795 1.281 . S
O808 Mn792 2.297 . S
O808 C795 1.236 . S
N809 Mn793 2.282 . S
N809 C810 1.328 . S
N809 C814 1.318 . S
C810 N809 1.328 . S
C810 C811 1.457 . S
C810 H815 0.929 . S
C811 C810 1.457 . S
C811 C812 1.291 . S
C811 H824 0.931 . S
C812 C811 1.291 . S
C812 C813 1.373 . S
C812 H825 0.929 . S
C813 C812 1.373 . S
C813 C814 1.396 . S
C813 C820 1.403 . S
C814 C804 1.476 . S
C814 N809 1.318 . S
C814 C813 1.396 . S
H815 C810 0.929 . S
O816 Mn792 2.385 . S
O816 C794 1.234 . S
O817 Mn792 2.209 . S
O817 Mn793 2.215 . S
O817 C794 1.283 . S
O818 Mn792 2.094 . S
O818 C796 1.240 . S
O819 Mn793 2.117 . S
O819 C796 1.264 . S
C820 C813 1.403 . S
C820 C821 1.399 . S
C820 H826 0.929 . S
C821 C801 1.449 . S
C821 C820 1.399 . S
C821 H827 0.930 . S
H822 C802 0.931 . S
H823 C803 0.930 . S
H824 C811 0.931 . S
H825 C812 0.929 . S
H826 C820 0.929 . S
H827 C821 0.930 . S
Mn828 O833 2.095 . S
Mn828 O843 2.162 . S
Mn828 O844 2.297 . S
Mn828 O852 2.385 . S
Mn828 O853 2.209 . S
Mn828 O854 2.094 . S
Mn829 O834 2.121 . S
Mn829 N836 2.257 . S
Mn829 N845 2.282 . S
Mn829 O853 2.215 . S
Mn829 O855 2.117 . S
C830 O852 1.234 . S
C830 O853 1.283 . S
C831 O843 1.281 . S
C831 O844 1.236 . S
C832 O854 1.240 . S
C832 O855 1.264 . S
O833 Mn828 2.095 . S
O833 C842 1.250 . S
O834 Mn829 2.121 . S
O834 C842 1.258 . S
C835 N836 1.326 . S
C835 C839 1.460 . S
C835 H841 0.929 . S
N836 Mn829 2.257 . S
N836 C835 1.326 . S
N836 C840 1.362 . S
C837 C838 1.258 . S
C837 C840 1.431 . S
C837 C857 1.449 . S
C838 C837 1.258 . S
C838 C839 1.477 . S
C838 H858 0.931 . S
C839 C835 1.460 . S
C839 C838 1.477 . S
C839 H859 0.930 . S
C840 N836 1.362 . S
C840 C837 1.431 . S
C840 C850 1.476 . S
H841 C835 0.929 . S
C842 O833 1.250 . S
C842 O834 1.258 . S
O843 Mn828 2.162 . S
O843 C831 1.281 . S
O844 Mn828 2.297 . S
O844 C831 1.236 . S
N845 Mn829 2.282 . S
N845 C846 1.328 . S
N845 C850 1.318 . S
C846 N845 1.328 . S
C846 C847 1.457 . S
C846 H851 0.929 . S
C847 C846 1.457 . S
C847 C848 1.291 . S
C847 H860 0.931 . S
C848 C847 1.291 . S
C848 C849 1.373 . S
C848 H861 0.929 . S
C849 C848 1.373 . S
C849 C850 1.396 . S
C849 C856 1.403 . S
C850 C840 1.476 . S
C850 N845 1.318 . S
C850 C849 1.396 . S
H851 C846 0.929 . S
O852 Mn828 2.385 . S
O852 C830 1.234 . S
O853 Mn828 2.209 . S
O853 Mn829 2.215 . S
O853 C830 1.283 . S
O854 Mn828 2.094 . S
O854 C832 1.240 . S
O855 Mn829 2.117 . S
O855 C832 1.264 . S
C856 C849 1.403 . S
C856 C857 1.399 . S
C856 H862 0.929 . S
C857 C837 1.449 . S
C857 C856 1.399 . S
C857 H863 0.930 . S
H858 C838 0.931 . S
H859 C839 0.930 . S
H860 C847 0.931 . S
H861 C848 0.929 . S
H862 C856 0.929 . S
H863 C857 0.930 . S
O864 Zn865 1.953 1_554 S
O864 C880 1.225 1_455 S
Zn865 O864 1.953 1_556 S
Zn865 O866 1.949 1_556 S
Zn865 O872 1.919 . S
Zn865 O877 1.924 1_455 S
O866 Zn865 1.949 1_554 S
O866 Zn867 1.923 1_545 S
O866 Zn868 1.950 1_455 S
O866 Zn869 1.945 1_444 S
Zn867 O866 1.923 1_565 S
Zn867 O870 1.933 . S
Zn867 O873 1.941 1_565 S
Zn867 O874 1.965 . S
Zn868 O866 1.950 1_655 S
Zn868 O875 1.938 . S
Zn868 O876 1.906 1_545 S
Zn868 O886 1.953 . S
Zn869 O866 1.945 1_666 S
Zn869 O871 1.932 . S
Zn869 O878 1.977 . S
Zn869 O879 1.910 1_565 S
O870 Zn867 1.933 . S
O870 C881 1.226 1_554 S
O871 Zn869 1.932 . S
O871 C881 1.307 1_655 S
O872 Zn865 1.919 . S
O872 C883 1.253 . S
O873 Zn867 1.941 1_545 S
O873 C883 1.283 1_554 S
O874 Zn867 1.965 . S
O874 C882 1.303 . S
O875 Zn868 1.938 . S
O875 C882 1.247 1_645 S
O876 Zn868 1.906 1_565 S
O876 C884 1.304 . S
O877 Zn865 1.924 1_655 S
O877 C885 1.311 . S
O878 Zn869 1.977 . S
O878 C884 1.272 1_556 S
O879 Zn869 1.910 1_545 S
O879 C885 1.231 . S
C880 O864 1.225 1_655 S
C880 O886 1.298 . S
C881 O870 1.226 1_556 S
C881 O871 1.307 1_455 S
C882 O874 1.303 . S
C882 O875 1.247 1_465 S
C883 O872 1.253 . S
C883 O873 1.283 1_556 S
C884 O876 1.304 . S
C884 O878 1.272 1_554 S
C885 O877 1.311 . S
C885 O879 1.231 . S
O886 Zn868 1.953 . S
O886 C880 1.298 . S
O887 Zn888 1.953 . S
O887 C903 1.225 . S
Zn888 O887 1.953 . S
Zn888 O889 1.949 . S
Zn888 O895 1.919 . S
Zn888 O900 1.924 . S
O889 Zn888 1.949 . S
O889 Zn890 1.923 . S
O889 Zn891 1.950 . S
O889 Zn892 1.945 . S
Zn890 O889 1.923 . S
Zn890 O893 1.933 . S
Zn890 O896 1.941 . S
Zn890 O897 1.965 . S
Zn891 O889 1.950 . S
Zn891 O898 1.938 . S
Zn891 O899 1.906 . S
Zn891 O909 1.953 . S
Zn892 O889 1.945 . S
Zn892 O894 1.932 . S
Zn892 O901 1.977 . S
Zn892 O902 1.910 . S
O893 Zn890 1.933 . S
O893 C904 1.226 . S
O894 Zn892 1.932 . S
O894 C904 1.307 . S
O895 Zn888 1.919 . S
O895 C906 1.253 . S
O896 Zn890 1.941 . S
O896 C906 1.283 . S
O897 Zn890 1.965 . S
O897 C905 1.303 . S
O898 Zn891 1.938 . S
O898 C905 1.247 . S
O899 Zn891 1.906 . S
O899 C907 1.304 . S
O900 Zn888 1.924 . S
O900 C908 1.311 . S
O901 Zn892 1.977 . S
O901 C907 1.272 . S
O902 Zn892 1.910 . S
O902 C908 1.231 . S
C903 O887 1.225 . S
C903 O909 1.298 . S
C904 O893 1.226 . S
C904 O894 1.307 . S
C905 O897 1.303 . S
C905 O898 1.247 . S
C906 O895 1.253 . S
C906 O896 1.283 . S
C907 O899 1.304 . S
C907 O901 1.272 . S
C908 O900 1.311 . S
C908 O902 1.231 . S
O909 Zn891 1.953 . S
O909 C903 1.298 . S
O910 Zn911 1.953 . S
O910 C926 1.225 . S
Zn911 O910 1.953 . S
Zn911 O912 1.949 1_565 S
Zn911 O918 1.919 . S
Zn911 O923 1.924 . S
O912 Zn911 1.949 1_545 S
O912 Zn913 1.923 . S
O912 Zn914 1.950 1_545 S
O912 Zn915 1.945 . S
Zn913 O912 1.923 . S
Zn913 O916 1.933 . S
Zn913 O919 1.941 . S
Zn913 O920 1.965 . S
Zn914 O912 1.950 1_565 S
Zn914 O921 1.938 1_565 S
Zn914 O922 1.906 1_565 S
Zn914 O932 1.953 . S
Zn915 O912 1.945 . S
Zn915 O917 1.932 . S
Zn915 O924 1.977 . S
Zn915 O925 1.910 . S
O916 Zn913 1.933 . S
O916 C927 1.226 . S
O917 Zn915 1.932 . S
O917 C927 1.307 . S
O918 Zn911 1.919 . S
O918 C929 1.253 . S
O919 Zn913 1.941 . S
O919 C929 1.283 1_545 S
O920 Zn913 1.965 . S
O920 C928 1.303 . S
O921 Zn914 1.938 1_545 S
O921 C928 1.247 . S
O922 Zn914 1.906 1_545 S
O922 C930 1.304 . S
O923 Zn911 1.924 . S
O923 C931 1.311 . S
O924 Zn915 1.977 . S
O924 C930 1.272 . S
O925 Zn915 1.910 . S
O925 C931 1.231 1_545 S
C926 O910 1.225 . S
C926 O932 1.298 . S
C927 O916 1.226 . S
C927 O917 1.307 . S
C928 O920 1.303 . S
C928 O921 1.247 . S
C929 O918 1.253 . S
C929 O919 1.283 1_565 S
C930 O922 1.304 . S
C930 O924 1.272 . S
C931 O923 1.311 . S
C931 O925 1.231 1_565 S
O932 Zn914 1.953 . S
O932 C926 1.298 . S
O933 Zn934 1.953 . S
O933 C949 1.225 . S
Zn934 O933 1.953 . S
Zn934 O935 1.949 . S
Zn934 O941 1.919 . S
Zn934 O946 1.924 . S
O935 Zn934 1.949 . S
O935 Zn936 1.923 . S
O935 Zn937 1.950 . S
O935 Zn938 1.945 . S
Zn936 O935 1.923 . S
Zn936 O939 1.933 . S
Zn936 O942 1.941 . S
Zn936 O943 1.965 . S
Zn937 O935 1.950 . S
Zn937 O944 1.938 . S
Zn937 O945 1.906 . S
Zn937 O955 1.953 . S
Zn938 O935 1.945 . S
Zn938 O940 1.932 . S
Zn938 O947 1.977 . S
Zn938 O948 1.910 . S
O939 Zn936 1.933 . S
O939 C950 1.226 . S
O940 Zn938 1.932 . S
O940 C950 1.307 . S
O941 Zn934 1.919 . S
O941 C952 1.253 . S
O942 Zn936 1.941 . S
O942 C952 1.283 . S
O943 Zn936 1.965 . S
O943 C951 1.303 . S
O944 Zn937 1.938 . S
O944 C951 1.247 . S
O945 Zn937 1.906 . S
O945 C953 1.304 . S
O946 Zn934 1.924 . S
O946 C954 1.311 . S
O947 Zn938 1.977 . S
O947 C953 1.272 . S
O948 Zn938 1.910 . S
O948 C954 1.231 . S
C949 O933 1.225 . S
C949 O955 1.298 . S
C950 O939 1.226 . S
C950 O940 1.307 . S
C951 O943 1.303 . S
C951 O944 1.247 . S
C952 O941 1.253 . S
C952 O942 1.283 . S
C953 O945 1.304 . S
C953 O947 1.272 . S
C954 O946 1.311 . S
C954 O948 1.231 . S
O955 Zn937 1.953 . S
O955 C949 1.298 . S
O956 Zn957 1.953 1_445 S
O956 C972 1.225 . S
Zn957 O956 1.953 1_665 S
Zn957 O958 1.949 1_665 S
Zn957 O964 1.919 . S
Zn957 O969 1.924 1_565 S
O958 Zn957 1.949 1_445 S
O958 Zn959 1.923 1_545 S
O958 Zn960 1.950 . S
O958 Zn961 1.945 1_455 S
Zn959 O958 1.923 1_565 S
Zn959 O962 1.933 . S
Zn959 O965 1.941 . S
Zn959 O966 1.965 . S
Zn960 O958 1.950 . S
Zn960 O967 1.938 . S
Zn960 O968 1.906 . S
Zn960 O978 1.953 . S
Zn961 O958 1.945 1_655 S
Zn961 O963 1.932 . S
Zn961 O970 1.977 . S
Zn961 O971 1.910 . S
O962 Zn959 1.933 . S
O962 C973 1.226 1_455 S
O963 Zn961 1.932 . S
O963 C973 1.307 1_545 S
O964 Zn957 1.919 . S
O964 C975 1.253 . S
O965 Zn959 1.941 . S
O965 C975 1.283 1_455 S
O966 Zn959 1.965 . S
O966 C974 1.303 . S
O967 Zn960 1.938 . S
O967 C974 1.247 1_545 S
O968 Zn960 1.906 . S
O968 C976 1.304 . S
O969 Zn957 1.924 1_545 S
O969 C977 1.311 . S
O970 Zn961 1.977 . S
O970 C976 1.272 1_655 S
O971 Zn961 1.910 . S
O971 C977 1.231 . S
C972 O956 1.225 . S
C972 O978 1.298 . S
C973 O962 1.226 1_655 S
C973 O963 1.307 1_565 S
C974 O966 1.303 . S
C974 O967 1.247 1_565 S
C975 O964 1.253 . S
C975 O965 1.283 1_655 S
C976 O968 1.304 . S
C976 O970 1.272 1_455 S
C977 O969 1.311 . S
C977 O971 1.231 . S
O978 Zn960 1.953 . S
O978 C972 1.298 . S
O979 Zn980 1.953 . S
O979 C995 1.225 . S
Zn980 O979 1.953 . S
Zn980 O981 1.949 . S
Zn980 O987 1.919 . S
Zn980 O992 1.924 . S
O981 Zn980 1.949 . S
O981 Zn982 1.923 . S
O981 Zn983 1.950 . S
O981 Zn984 1.945 . S
Zn982 O981 1.923 . S
Zn982 O985 1.933 . S
Zn982 O988 1.941 . S
Zn982 O989 1.965 . S
Zn983 O981 1.950 . S
Zn983 O990 1.938 . S
Zn983 O991 1.906 . S
Zn983 O1001 1.953 . S
Zn984 O981 1.945 . S
Zn984 O986 1.932 . S
Zn984 O993 1.977 . S
Zn984 O994 1.910 . S
O985 Zn982 1.933 . S
O985 C996 1.226 . S
O986 Zn984 1.932 . S
O986 C996 1.307 . S
O987 Zn980 1.919 . S
O987 C998 1.253 . S
O988 Zn982 1.941 . S
O988 C998 1.283 . S
O989 Zn982 1.965 . S
O989 C997 1.303 . S
O990 Zn983 1.938 . S
O990 C997 1.247 . S
O991 Zn983 1.906 . S
O991 C999 1.304 . S
O992 Zn980 1.924 . S
O992 C1000 1.311 . S
O993 Zn984 1.977 . S
O993 C999 1.272 . S
O994 Zn984 1.910 . S
O994 C1000 1.231 . S
C995 O979 1.225 . S
C995 O1001 1.298 . S
C996 O985 1.226 . S
C996 O986 1.307 . S
C997 O989 1.303 . S
C997 O990 1.247 . S
C998 O987 1.253 . S
C998 O988 1.283 . S
C999 O991 1.304 . S
C999 O993 1.272 . S
C1000 O992 1.311 . S
C1000 O994 1.231 . S
O1001 Zn983 1.953 . S
O1001 C995 1.298 . S
O1002 Zn1003 1.953 . S
O1002 C1018 1.225 . S
Zn1003 O1002 1.953 . S
Zn1003 O1004 1.949 . S
Zn1003 O1010 1.919 1_544 S
Zn1003 O1015 1.924 . S
O1004 Zn1003 1.949 . S
O1004 Zn1005 1.923 1_544 S
O1004 Zn1006 1.950 . S
O1004 Zn1007 1.945 1_554 S
Zn1005 O1004 1.923 1_566 S
Zn1005 O1008 1.933 . S
Zn1005 O1011 1.941 . S
Zn1005 O1012 1.965 1_556 S
Zn1006 O1004 1.950 . S
Zn1006 O1013 1.938 1_545 S
Zn1006 O1014 1.906 . S
Zn1006 O1024 1.953 . S
Zn1007 O1004 1.945 1_556 S
Zn1007 O1009 1.932 . S
Zn1007 O1016 1.977 . S
Zn1007 O1017 1.910 . S
O1008 Zn1005 1.933 . S
O1008 C1019 1.226 . S
O1009 Zn1007 1.932 . S
O1009 C1019 1.307 1_545 S
O1010 Zn1003 1.919 1_566 S
O1010 C1021 1.253 . S
O1011 Zn1005 1.941 . S
O1011 C1021 1.283 . S
O1012 Zn1005 1.965 1_554 S
O1012 C1020 1.303 . S
O1013 Zn1006 1.938 1_565 S
O1013 C1020 1.247 . S
O1014 Zn1006 1.906 . S
O1014 C1022 1.304 . S
O1015 Zn1003 1.924 . S
O1015 C1023 1.311 1_554 S
O1016 Zn1007 1.977 . S
O1016 C1022 1.272 1_556 S
O1017 Zn1007 1.910 . S
O1017 C1023 1.231 . S
C1018 O1002 1.225 . S
C1018 O1024 1.298 . S
C1019 O1008 1.226 . S
C1019 O1009 1.307 1_565 S
C1020 O1012 1.303 . S
C1020 O1013 1.247 . S
C1021 O1010 1.253 . S
C1021 O1011 1.283 . S
C1022 O1014 1.304 . S
C1022 O1016 1.272 1_554 S
C1023 O1015 1.311 1_556 S
C1023 O1017 1.231 . S
O1024 Zn1006 1.953 . S
O1024 C1018 1.298 . S
O1025 Zn1026 1.953 . S
O1025 C1041 1.225 . S
Zn1026 O1025 1.953 . S
Zn1026 O1027 1.949 . S
Zn1026 O1033 1.919 . S
Zn1026 O1038 1.924 . S
O1027 Zn1026 1.949 . S
O1027 Zn1028 1.923 . S
O1027 Zn1029 1.950 . S
O1027 Zn1030 1.945 . S
Zn1028 O1027 1.923 . S
Zn1028 O1031 1.933 . S
Zn1028 O1034 1.941 . S
Zn1028 O1035 1.965 . S
Zn1029 O1027 1.950 . S
Zn1029 O1036 1.938 . S
Zn1029 O1037 1.906 . S
Zn1029 O1047 1.953 . S
Zn1030 O1027 1.945 . S
Zn1030 O1032 1.932 . S
Zn1030 O1039 1.977 . S
Zn1030 O1040 1.910 . S
O1031 Zn1028 1.933 . S
O1031 C1042 1.226 . S
O1032 Zn1030 1.932 . S
O1032 C1042 1.307 . S
O1033 Zn1026 1.919 . S
O1033 C1044 1.253 . S
O1034 Zn1028 1.941 . S
O1034 C1044 1.283 . S
O1035 Zn1028 1.965 . S
O1035 C1043 1.303 . S
O1036 Zn1029 1.938 . S
O1036 C1043 1.247 . S
O1037 Zn1029 1.906 . S
O1037 C1045 1.304 . S
O1038 Zn1026 1.924 . S
O1038 C1046 1.311 . S
O1039 Zn1030 1.977 . S
O1039 C1045 1.272 . S
O1040 Zn1030 1.910 . S
O1040 C1046 1.231 . S
C1041 O1025 1.225 . S
C1041 O1047 1.298 . S
C1042 O1031 1.226 . S
C1042 O1032 1.307 . S
C1043 O1035 1.303 . S
C1043 O1036 1.247 . S
C1044 O1033 1.253 . S
C1044 O1034 1.283 . S
C1045 O1037 1.304 . S
C1045 O1039 1.272 . S
C1046 O1038 1.311 . S
C1046 O1040 1.231 . S
O1047 Zn1029 1.953 . S
O1047 C1041 1.298 . S
O1048 Zn1049 1.953 . S
O1048 C1064 1.225 . S
Zn1049 O1048 1.953 . S
Zn1049 O1050 1.949 1_556 S
Zn1049 O1056 1.919 . S
Zn1049 O1061 1.924 . S
O1050 Zn1049 1.949 1_554 S
O1050 Zn1051 1.923 . S
O1050 Zn1052 1.946 1_554 S
O1050 Zn1053 1.945 . S
Zn1051 O1050 1.923 . S
Zn1051 O1054 1.933 . S
Zn1051 O1057 1.941 . S
Zn1051 O1058 1.965 . S
Zn1052 O1050 1.946 1_556 S
Zn1052 O1059 1.935 1_556 S
Zn1052 O1060 1.894 1_556 S
Zn1052 O1070 1.974 . S
Zn1053 O1050 1.945 . S
Zn1053 O1055 1.932 . S
Zn1053 O1062 1.977 . S
Zn1053 O1063 1.910 . S
O1054 Zn1051 1.933 . S
O1054 C1065 1.226 . S
O1055 Zn1053 1.932 . S
O1055 C1065 1.307 . S
O1056 Zn1049 1.919 . S
O1056 C1067 1.253 . S
O1057 Zn1051 1.941 . S
O1057 C1067 1.283 1_554 S
O1058 Zn1051 1.965 . S
O1058 C1066 1.303 . S
O1059 Zn1052 1.935 1_554 S
O1059 C1066 1.247 . S
O1060 Zn1052 1.894 1_554 S
O1060 C1068 1.304 . S
O1061 Zn1049 1.924 . S
O1061 C1069 1.311 . S
O1062 Zn1053 1.977 . S
O1062 C1068 1.272 . S
O1063 Zn1053 1.910 . S
O1063 C1069 1.231 1_554 S
C1064 O1048 1.225 . S
C1064 O1070 1.298 . S
C1065 O1054 1.226 . S
C1065 O1055 1.307 . S
C1066 O1058 1.303 . S
C1066 O1059 1.247 . S
C1067 O1056 1.253 . S
C1067 O1057 1.283 1_556 S
C1068 O1060 1.304 . S
C1068 O1062 1.272 . S
C1069 O1061 1.311 . S
C1069 O1063 1.231 1_556 S
O1070 Zn1052 1.974 . S
O1070 C1064 1.298 . S
O1071 Zn1072 1.953 . S
O1071 C1087 1.225 . S
Zn1072 O1071 1.953 . S
Zn1072 O1073 1.949 . S
Zn1072 O1079 1.919 . S
Zn1072 O1084 1.924 . S
O1073 Zn1072 1.949 . S
O1073 Zn1074 1.923 . S
O1073 Zn1075 1.950 . S
O1073 Zn1076 1.945 . S
Zn1074 O1073 1.923 . S
Zn1074 O1077 1.933 . S
Zn1074 O1080 1.941 . S
Zn1074 O1081 1.965 . S
Zn1075 O1073 1.950 . S
Zn1075 O1082 1.938 . S
Zn1075 O1083 1.906 . S
Zn1075 O1093 1.953 . S
Zn1076 O1073 1.945 . S
Zn1076 O1078 1.932 . S
Zn1076 O1085 1.977 . S
Zn1076 O1086 1.910 . S
O1077 Zn1074 1.933 . S
O1077 C1088 1.226 . S
O1078 Zn1076 1.932 . S
O1078 C1088 1.307 . S
O1079 Zn1072 1.919 . S
O1079 C1090 1.253 . S
O1080 Zn1074 1.941 . S
O1080 C1090 1.283 . S
O1081 Zn1074 1.965 . S
O1081 C1089 1.303 . S
O1082 Zn1075 1.938 . S
O1082 C1089 1.247 . S
O1083 Zn1075 1.906 . S
O1083 C1091 1.304 . S
O1084 Zn1072 1.924 . S
O1084 C1092 1.311 . S
O1085 Zn1076 1.977 . S
O1085 C1091 1.272 . S
O1086 Zn1076 1.910 . S
O1086 C1092 1.231 . S
C1087 O1071 1.225 . S
C1087 O1093 1.298 . S
C1088 O1077 1.226 . S
C1088 O1078 1.307 . S
C1089 O1081 1.303 . S
C1089 O1082 1.247 . S
C1090 O1079 1.253 . S
C1090 O1080 1.283 . S
C1091 O1083 1.304 . S
C1091 O1085 1.272 . S
C1092 O1084 1.311 . S
C1092 O1086 1.231 . S
O1093 Zn1075 1.953 . S
O1093 C1087 1.298 . S
O1094 Zn1095 1.953 . S
O1094 C1110 1.225 . S
Zn1095 O1094 1.953 . S
Zn1095 O1096 1.929 1_455 S
Zn1095 O1102 1.919 . S
Zn1095 O1107 1.924 . S
O1096 Zn1095 1.929 1_655 S
O1096 Zn1097 1.922 1_655 S
O1096 Zn1098 1.961 . S
O1096 Zn1099 1.954 . S
Zn1097 O1096 1.922 1_455 S
Zn1097 O1100 1.933 1_455 S
Zn1097 O1103 1.941 . S
Zn1097 O1104 1.965 1_455 S
Zn1098 O1096 1.961 . S
Zn1098 O1105 1.938 . S
Zn1098 O1106 1.906 . S
Zn1098 O1116 1.953 . S
Zn1099 O1096 1.954 . S
Zn1099 O1101 1.932 . S
Zn1099 O1108 1.977 . S
Zn1099 O1109 1.911 1_655 S
O1100 Zn1097 1.933 1_655 S
O1100 C1111 1.226 . S
O1101 Zn1099 1.932 . S
O1101 C1111 1.307 . S
O1102 Zn1095 1.919 . S
O1102 C1113 1.253 . S
O1103 Zn1097 1.941 . S
O1103 C1113 1.283 . S
O1104 Zn1097 1.965 1_655 S
O1104 C1112 1.303 . S
O1105 Zn1098 1.938 . S
O1105 C1112 1.247 . S
O1106 Zn1098 1.906 . S
O1106 C1114 1.304 . S
O1107 Zn1095 1.924 . S
O1107 C1115 1.311 . S
O1108 Zn1099 1.977 . S
O1108 C1114 1.272 . S
O1109 Zn1099 1.911 1_455 S
O1109 C1115 1.230 . S
C1110 O1094 1.225 . S
C1110 O1116 1.298 1_455 S
C1111 O1100 1.226 . S
C1111 O1101 1.307 . S
C1112 O1104 1.303 . S
C1112 O1105 1.247 . S
C1113 O1102 1.253 . S
C1113 O1103 1.283 . S
C1114 O1106 1.304 . S
C1114 O1108 1.272 . S
C1115 O1107 1.311 . S
C1115 O1109 1.230 . S
O1116 Zn1098 1.953 . S
O1116 C1110 1.298 1_655 S
O1117 Zn1118 1.953 . S
O1117 C1133 1.225 . S
Zn1118 O1117 1.953 . S
Zn1118 O1119 1.949 . S
Zn1118 O1125 1.919 . S
Zn1118 O1130 1.924 . S
O1119 Zn1118 1.949 . S
O1119 Zn1120 1.923 . S
O1119 Zn1121 1.950 . S
O1119 Zn1122 1.945 . S
Zn1120 O1119 1.923 . S
Zn1120 O1123 1.933 . S
Zn1120 O1126 1.941 . S
Zn1120 O1127 1.965 . S
Zn1121 O1119 1.950 . S
Zn1121 O1128 1.938 . S
Zn1121 O1129 1.906 . S
Zn1121 O1139 1.953 . S
Zn1122 O1119 1.945 . S
Zn1122 O1124 1.932 . S
Zn1122 O1131 1.977 . S
Zn1122 O1132 1.910 . S
O1123 Zn1120 1.933 . S
O1123 C1134 1.226 . S
O1124 Zn1122 1.932 . S
O1124 C1134 1.307 . S
O1125 Zn1118 1.919 . S
O1125 C1136 1.253 . S
O1126 Zn1120 1.941 . S
O1126 C1136 1.283 . S
O1127 Zn1120 1.965 . S
O1127 C1135 1.303 . S
O1128 Zn1121 1.938 . S
O1128 C1135 1.247 . S
O1129 Zn1121 1.906 . S
O1129 C1137 1.304 . S
O1130 Zn1118 1.924 . S
O1130 C1138 1.311 . S
O1131 Zn1122 1.977 . S
O1131 C1137 1.272 . S
O1132 Zn1122 1.910 . S
O1132 C1138 1.231 . S
C1133 O1117 1.225 . S
C1133 O1139 1.298 . S
C1134 O1123 1.226 . S
C1134 O1124 1.307 . S
C1135 O1127 1.303 . S
C1135 O1128 1.247 . S
C1136 O1125 1.253 . S
C1136 O1126 1.283 . S
C1137 O1129 1.304 . S
C1137 O1131 1.272 . S
C1138 O1130 1.311 . S
C1138 O1132 1.231 . S
O1139 Zn1121 1.953 . S
O1139 C1133 1.298 . S
O1140 Zn1141 1.953 . S
O1140 C1156 1.225 . S
Zn1141 O1140 1.953 . S
Zn1141 O1142 1.949 . S
Zn1141 O1148 1.919 . S
Zn1141 O1153 1.924 . S
O1142 Zn1141 1.949 . S
O1142 Zn1143 1.923 . S
O1142 Zn1144 1.950 . S
O1142 Zn1145 1.945 . S
Zn1143 O1142 1.923 . S
Zn1143 O1146 1.933 . S
Zn1143 O1149 1.941 . S
Zn1143 O1150 1.965 . S
Zn1144 O1142 1.950 . S
Zn1144 O1151 1.938 . S
Zn1144 O1152 1.906 . S
Zn1144 O1162 1.953 . S
Zn1145 O1142 1.945 . S
Zn1145 O1147 1.932 . S
Zn1145 O1154 1.977 . S
Zn1145 O1155 1.910 . S
O1146 Zn1143 1.933 . S
O1146 C1157 1.226 . S
O1147 Zn1145 1.932 . S
O1147 C1157 1.307 . S
O1148 Zn1141 1.919 . S
O1148 C1159 1.253 . S
O1149 Zn1143 1.941 . S
O1149 C1159 1.283 . S
O1150 Zn1143 1.965 . S
O1150 C1158 1.303 . S
O1151 Zn1144 1.938 . S
O1151 C1158 1.247 . S
O1152 Zn1144 1.906 . S
O1152 C1160 1.304 . S
O1153 Zn1141 1.924 . S
O1153 C1161 1.311 . S
O1154 Zn1145 1.977 . S
O1154 C1160 1.272 . S
O1155 Zn1145 1.910 . S
O1155 C1161 1.231 . S
C1156 O1140 1.225 . S
C1156 O1162 1.298 . S
C1157 O1146 1.226 . S
C1157 O1147 1.307 . S
C1158 O1150 1.303 . S
C1158 O1151 1.247 . S
C1159 O1148 1.253 . S
C1159 O1149 1.283 . S
C1160 O1152 1.304 . S
C1160 O1154 1.272 . S
C1161 O1153 1.311 . S
C1161 O1155 1.231 . S
O1162 Zn1144 1.953 . S
O1162 C1156 1.298 . S
O1163 Zn1164 1.953 . S
O1163 C1179 1.225 . S
Zn1164 O1163 1.953 . S
Zn1164 O1165 1.949 . S
Zn1164 O1171 1.919 . S
Zn1164 O1176 1.924 . S
O1165 Zn1164 1.949 . S
O1165 Zn1166 1.923 . S
O1165 Zn1167 1.950 . S
O1165 Zn1168 1.945 . S
Zn1166 O1165 1.923 . S
Zn1166 O1169 1.933 . S
Zn1166 O1172 1.941 . S
Zn1166 O1173 1.965 . S
Zn1167 O1165 1.950 . S
Zn1167 O1174 1.938 . S
Zn1167 O1175 1.906 . S
Zn1167 O1185 1.953 . S
Zn1168 O1165 1.945 . S
Zn1168 O1170 1.932 . S
Zn1168 O1177 1.977 . S
Zn1168 O1178 1.910 . S
O1169 Zn1166 1.933 . S
O1169 C1180 1.226 . S
O1170 Zn1168 1.932 . S
O1170 C1180 1.307 . S
O1171 Zn1164 1.919 . S
O1171 C1182 1.253 . S
O1172 Zn1166 1.941 . S
O1172 C1182 1.283 . S
O1173 Zn1166 1.965 . S
O1173 C1181 1.303 . S
O1174 Zn1167 1.938 . S
O1174 C1181 1.247 . S
O1175 Zn1167 1.906 . S
O1175 C1183 1.304 . S
O1176 Zn1164 1.924 . S
O1176 C1184 1.311 . S
O1177 Zn1168 1.977 . S
O1177 C1183 1.272 . S
O1178 Zn1168 1.910 . S
O1178 C1184 1.231 . S
C1179 O1163 1.225 . S
C1179 O1185 1.298 . S
C1180 O1169 1.226 . S
C1180 O1170 1.307 . S
C1181 O1173 1.303 . S
C1181 O1174 1.247 . S
C1182 O1171 1.253 . S
C1182 O1172 1.283 . S
C1183 O1175 1.304 . S
C1183 O1177 1.272 . S
C1184 O1176 1.311 . S
C1184 O1178 1.231 . S
O1185 Zn1167 1.953 . S
O1185 C1179 1.298 . S
O1186 Zn1187 1.953 . S
O1186 C1202 1.225 . S
Zn1187 O1186 1.953 . S
Zn1187 O1188 1.949 . S
Zn1187 O1194 1.919 . S
Zn1187 O1199 1.924 . S
O1188 Zn1187 1.949 . S
O1188 Zn1189 1.923 . S
O1188 Zn1190 1.950 . S
O1188 Zn1191 1.945 . S
Zn1189 O1188 1.923 . S
Zn1189 O1192 1.933 . S
Zn1189 O1195 1.941 . S
Zn1189 O1196 1.965 . S
Zn1190 O1188 1.950 . S
Zn1190 O1197 1.938 . S
Zn1190 O1198 1.906 . S
Zn1190 O1208 1.953 . S
Zn1191 O1188 1.945 . S
Zn1191 O1193 1.932 . S
Zn1191 O1200 1.977 . S
Zn1191 O1201 1.910 . S
O1192 Zn1189 1.933 . S
O1192 C1203 1.226 . S
O1193 Zn1191 1.932 . S
O1193 C1203 1.307 . S
O1194 Zn1187 1.919 . S
O1194 C1205 1.253 . S
O1195 Zn1189 1.941 . S
O1195 C1205 1.283 . S
O1196 Zn1189 1.965 . S
O1196 C1204 1.303 . S
O1197 Zn1190 1.938 . S
O1197 C1204 1.247 . S
O1198 Zn1190 1.906 . S
O1198 C1206 1.304 . S
O1199 Zn1187 1.924 . S
O1199 C1207 1.311 . S
O1200 Zn1191 1.977 . S
O1200 C1206 1.272 . S
O1201 Zn1191 1.910 . S
O1201 C1207 1.231 . S
C1202 O1186 1.225 . S
C1202 O1208 1.298 . S
C1203 O1192 1.226 . S
C1203 O1193 1.307 . S
C1204 O1196 1.303 . S
C1204 O1197 1.247 . S
C1205 O1194 1.253 . S
C1205 O1195 1.283 . S
C1206 O1198 1.304 . S
C1206 O1200 1.272 . S
C1207 O1199 1.311 . S
C1207 O1201 1.231 . S
O1208 Zn1190 1.953 . S
O1208 C1202 1.298 . S
O1209 Zn1210 1.953 1_454 S
O1209 C1225 1.225 . S
Zn1210 O1209 1.953 1_656 S
Zn1210 O1211 1.949 1_656 S
Zn1210 O1217 1.919 . S
Zn1210 O1222 1.924 1_655 S
O1211 Zn1210 1.949 1_454 S
O1211 Zn1212 1.923 1_455 S
O1211 Zn1213 1.950 . S
O1211 Zn1214 1.945 1_554 S
Zn1212 O1211 1.923 1_655 S
Zn1212 O1215 1.933 . S
Zn1212 O1218 1.941 . S
Zn1212 O1219 1.965 . S
Zn1213 O1211 1.950 . S
Zn1213 O1220 1.938 . S
Zn1213 O1221 1.906 . S
Zn1213 O1231 1.953 . S
Zn1214 O1211 1.945 1_556 S
Zn1214 O1216 1.932 . S
Zn1214 O1223 1.977 . S
Zn1214 O1224 1.910 . S
O1215 Zn1212 1.933 . S
O1215 C1226 1.226 1_554 S
O1216 Zn1214 1.932 . S
O1216 C1226 1.307 1_455 S
O1217 Zn1210 1.919 . S
O1217 C1228 1.253 . S
O1218 Zn1212 1.941 . S
O1218 C1228 1.283 1_554 S
O1219 Zn1212 1.965 . S
O1219 C1227 1.303 . S
O1220 Zn1213 1.938 . S
O1220 C1227 1.247 1_455 S
O1221 Zn1213 1.906 . S
O1221 C1229 1.304 . S
O1222 Zn1210 1.924 1_455 S
O1222 C1230 1.311 . S
O1223 Zn1214 1.977 . S
O1223 C1229 1.272 1_556 S
O1224 Zn1214 1.910 . S
O1224 C1230 1.231 . S
C1225 O1209 1.225 . S
C1225 O1231 1.298 . S
C1226 O1215 1.226 1_556 S
C1226 O1216 1.307 1_655 S
C1227 O1219 1.303 . S
C1227 O1220 1.247 1_655 S
C1228 O1217 1.253 . S
C1228 O1218 1.283 1_556 S
C1229 O1221 1.304 . S
C1229 O1223 1.272 1_554 S
C1230 O1222 1.311 . S
C1230 O1224 1.231 . S
O1231 Zn1213 1.953 . S
O1231 C1225 1.298 . S
C880 C2 1.501 1_655 S
C39 C908 1.840 . S
C86 C926 1.495 . S
C952 C112 1.766 . S
C38 C975 1.841 1_455 S
C995 C76 1.385 . S
C1023 C122 1.892 . S
C3 C1041 1.430 . S
C147 C882 1.787 1_545 S
C184 C904 1.424 . S
C928 C219 1.748 1_545 S
C949 C256 1.441 . S
C148 C972 1.480 . S
C997 C183 1.750 . S
C1019 C220 1.476 . S
C1043 C255 1.768 . S
C883 C254 1.369 1_556 S
C1066 C302 1.503 1_554 S
C326 C1090 1.488 . S
C1114 C374 1.430 . S
C146 C1044 1.485 . S
C929 C182 1.332 . S
C338 C1135 1.464 . S
C1160 C410 1.349 . S
C434 C881 1.517 . S
C1158 C472 1.480 . S
C507 C927 1.405 . S
C543 C1137 1.176 . S
C976 C470 1.254 . S
C1088 C518 1.181 . S
C1020 C554 1.179 . S
C1180 C436 1.578 . S
C885 C580 1.527 . S
C615 C1156 1.685 . S
C931 C652 1.593 1_565 S
C687 C1134 1.718 . S
C579 C973 1.726 1_545 S
C616 C1092 1.506 . S
C1018 C651 1.727 1_545 S
C688 C1184 1.523 . S
C686 C884 1.630 . S
C734 C1069 1.412 . S
C758 C999 1.605 . S
C806 C1113 1.350 . S
C1183 C578 1.569 . S
C930 C614 1.641 . S
C954 C770 1.366 . S
C906 C842 1.199 . S
C74 C1202 1.455 . S
C1161 C111 1.838 . S
C1225 C14 1.527 1_455 S
C40 C1136 1.761 . S
C110 C1067 1.837 . S
C1087 C4 1.417 . S
C1115 C50 1.889 1_455 S
C1179 C75 1.386 . S
C1204 C399 1.770 . S
C292 C1157 1.422 . S
C327 C1227 1.786 . S
C1133 C364 1.436 . S
C1064 C400 1.473 . S
C291 C1089 1.782 . S
C1111 C328 1.478 . S
C363 C1181 1.743 . S
C1205 C362 1.272 . S
C974 C194 1.500 . S
C998 C218 1.417 . S
C266 C1022 1.423 1_556 S
C1182 C398 1.369 . S
C290 C1228 1.397 1_554 S
C951 C230 1.459 . S
C907 C158 1.346 . S
C508 C1203 1.536 . S
C905 C544 1.474 . S
C1226 C446 1.162 . S
C471 C953 1.176 . S
C542 C1068 1.252 . S
C435 C996 1.434 . S
C482 C1112 1.186 . S
C506 C1042 1.555 . S
C1207 C832 1.589 . S
C723 C903 1.693 . S
C1230 C760 1.544 . S
C795 C950 1.707 . S
C831 C1065 1.738 . S
C1000 C724 1.545 . S
C759 C1110 1.717 . S
C1046 C796 1.477 . S
C1206 C794 1.610 . S
C977 C626 1.433 . S
C650 C1091 1.627 . S
C1021 C698 1.334 . S
C1045 C830 1.593 . S
C722 C1229 1.663 . S
C1138 C662 1.347 . S
C1159 C590 1.218 . S
