# Generated by pormake.
# Topology gar, (4,6)-cn, num edge types: 1
# Building blocks:
#     Node 0, Type 0, BuildingBlock: UXUYUI_clean_sbu_0, # of connection points: 4
#     Node 1, Type 0, BuildingBlock: UXUYUI_clean_sbu_0, # of connection points: 4
#     Node 2, Type 0, BuildingBlock: UXUYUI_clean_sbu_0, # of connection points: 4
#     Node 3, Type 0, BuildingBlock: UXUYUI_clean_sbu_0, # of connection points: 4
#     Node 4, Type 0, BuildingBlock: UXUYUI_clean_sbu_0, # of connection points: 4
#     Node 5, Type 0, BuildingBlock: UXUYUI_clean_sbu_0, # of connection points: 4
#     Node 6, Type 0, BuildingBlock: UXUYUI_clean_sbu_0, # of connection points: 4
#     Node 7, Type 0, BuildingBlock: UXUYUI_clean_sbu_0, # of connection points: 4
#     Node 8, Type 0, BuildingBlock: UXUYUI_clean_sbu_0, # of connection points: 4
#     Node 9, Type 0, BuildingBlock: UXUYUI_clean_sbu_0, # of connection points: 4
#     Node 10, Type 0, BuildingBlock: UXUYUI_clean_sbu_0, # of connection points: 4
#     Node 11, Type 0, BuildingBlock: UXUYUI_clean_sbu_0, # of connection points: 4
#     Node 12, Type 0, BuildingBlock: UXUYUI_clean_sbu_0, # of connection points: 4
#     Node 13, Type 0, BuildingBlock: UXUYUI_clean_sbu_0, # of connection points: 4
#     Node 14, Type 0, BuildingBlock: UXUYUI_clean_sbu_0, # of connection points: 4
#     Node 15, Type 0, BuildingBlock: UXUYUI_clean_sbu_0, # of connection points: 4
#     Node 16, Type 0, BuildingBlock: UXUYUI_clean_sbu_0, # of connection points: 4
#     Node 17, Type 0, BuildingBlock: UXUYUI_clean_sbu_0, # of connection points: 4
#     Node 18, Type 0, BuildingBlock: UXUYUI_clean_sbu_0, # of connection points: 4
#     Node 19, Type 0, BuildingBlock: UXUYUI_clean_sbu_0, # of connection points: 4
#     Node 20, Type 0, BuildingBlock: UXUYUI_clean_sbu_0, # of connection points: 4
#     Node 21, Type 0, BuildingBlock: UXUYUI_clean_sbu_0, # of connection points: 4
#     Node 22, Type 0, BuildingBlock: UXUYUI_clean_sbu_0, # of connection points: 4
#     Node 23, Type 0, BuildingBlock: UXUYUI_clean_sbu_0, # of connection points: 4
#     Node 24, Type 1, BuildingBlock: KUMBOL_clean_sbu_1, # of connection points: 6
#     Node 25, Type 1, BuildingBlock: KUMBOL_clean_sbu_1, # of connection points: 6
#     Node 26, Type 1, BuildingBlock: KUMBOL_clean_sbu_1, # of connection points: 6
#     Node 27, Type 1, BuildingBlock: KUMBOL_clean_sbu_1, # of connection points: 6
#     Node 28, Type 1, BuildingBlock: KUMBOL_clean_sbu_1, # of connection points: 6
#     Node 29, Type 1, BuildingBlock: KUMBOL_clean_sbu_1, # of connection points: 6
#     Node 30, Type 1, BuildingBlock: KUMBOL_clean_sbu_1, # of connection points: 6
#     Node 31, Type 1, BuildingBlock: KUMBOL_clean_sbu_1, # of connection points: 6
#     Node 32, Type 1, BuildingBlock: KUMBOL_clean_sbu_1, # of connection points: 6
#     Node 33, Type 1, BuildingBlock: KUMBOL_clean_sbu_1, # of connection points: 6
#     Node 34, Type 1, BuildingBlock: KUMBOL_clean_sbu_1, # of connection points: 6
#     Node 35, Type 1, BuildingBlock: KUMBOL_clean_sbu_1, # of connection points: 6
#     Node 36, Type 1, BuildingBlock: KUMBOL_clean_sbu_1, # of connection points: 6
#     Node 37, Type 1, BuildingBlock: KUMBOL_clean_sbu_1, # of connection points: 6
#     Node 38, Type 1, BuildingBlock: KUMBOL_clean_sbu_1, # of connection points: 6
#     Node 39, Type 1, BuildingBlock: KUMBOL_clean_sbu_1, # of connection points: 6
#     Edge 40, Type (0, 1), BuildingBlock: TEMPAE_clean_linker_10, # of connection points: 2
#     Edge 41, Type (0, 1), BuildingBlock: TEMPAE_clean_linker_10, # of connection points: 2
#     Edge 42, Type (0, 1), BuildingBlock: TEMPAE_clean_linker_10, # of connection points: 2
#     Edge 43, Type (0, 1), BuildingBlock: TEMPAE_clean_linker_10, # of connection points: 2
#     Edge 44, Type (0, 1), BuildingBlock: TEMPAE_clean_linker_10, # of connection points: 2
#     Edge 45, Type (0, 1), BuildingBlock: TEMPAE_clean_linker_10, # of connection points: 2
#     Edge 46, Type (0, 1), BuildingBlock: TEMPAE_clean_linker_10, # of connection points: 2
#     Edge 47, Type (0, 1), BuildingBlock: TEMPAE_clean_linker_10, # of connection points: 2
#     Edge 48, Type (0, 1), BuildingBlock: TEMPAE_clean_linker_10, # of connection points: 2
#     Edge 49, Type (0, 1), BuildingBlock: TEMPAE_clean_linker_10, # of connection points: 2
#     Edge 50, Type (0, 1), BuildingBlock: TEMPAE_clean_linker_10, # of connection points: 2
#     Edge 51, Type (0, 1), BuildingBlock: TEMPAE_clean_linker_10, # of connection points: 2
#     Edge 52, Type (0, 1), BuildingBlock: TEMPAE_clean_linker_10, # of connection points: 2
#     Edge 53, Type (0, 1), BuildingBlock: TEMPAE_clean_linker_10, # of connection points: 2
#     Edge 54, Type (0, 1), BuildingBlock: TEMPAE_clean_linker_10, # of connection points: 2
#     Edge 55, Type (0, 1), BuildingBlock: TEMPAE_clean_linker_10, # of connection points: 2
#     Edge 56, Type (0, 1), BuildingBlock: TEMPAE_clean_linker_10, # of connection points: 2
#     Edge 57, Type (0, 1), BuildingBlock: TEMPAE_clean_linker_10, # of connection points: 2
#     Edge 58, Type (0, 1), BuildingBlock: TEMPAE_clean_linker_10, # of connection points: 2
#     Edge 59, Type (0, 1), BuildingBlock: TEMPAE_clean_linker_10, # of connection points: 2
#     Edge 60, Type (0, 1), BuildingBlock: TEMPAE_clean_linker_10, # of connection points: 2
#     Edge 61, Type (0, 1), BuildingBlock: TEMPAE_clean_linker_10, # of connection points: 2
#     Edge 62, Type (0, 1), BuildingBlock: TEMPAE_clean_linker_10, # of connection points: 2
#     Edge 63, Type (0, 1), BuildingBlock: TEMPAE_clean_linker_10, # of connection points: 2
#     Edge 64, Type (0, 1), BuildingBlock: TEMPAE_clean_linker_10, # of connection points: 2
#     Edge 65, Type (0, 1), BuildingBlock: TEMPAE_clean_linker_10, # of connection points: 2
#     Edge 66, Type (0, 1), BuildingBlock: TEMPAE_clean_linker_10, # of connection points: 2
#     Edge 67, Type (0, 1), BuildingBlock: TEMPAE_clean_linker_10, # of connection points: 2
#     Edge 68, Type (0, 1), BuildingBlock: TEMPAE_clean_linker_10, # of connection points: 2
#     Edge 69, Type (0, 1), BuildingBlock: TEMPAE_clean_linker_10, # of connection points: 2
#     Edge 70, Type (0, 1), BuildingBlock: TEMPAE_clean_linker_10, # of connection points: 2
#     Edge 71, Type (0, 1), BuildingBlock: TEMPAE_clean_linker_10, # of connection points: 2
#     Edge 72, Type (0, 1), BuildingBlock: TEMPAE_clean_linker_10, # of connection points: 2
#     Edge 73, Type (0, 1), BuildingBlock: TEMPAE_clean_linker_10, # of connection points: 2
#     Edge 74, Type (0, 1), BuildingBlock: TEMPAE_clean_linker_10, # of connection points: 2
#     Edge 75, Type (0, 1), BuildingBlock: TEMPAE_clean_linker_10, # of connection points: 2
#     Edge 76, Type (0, 1), BuildingBlock: TEMPAE_clean_linker_10, # of connection points: 2
#     Edge 77, Type (0, 1), BuildingBlock: TEMPAE_clean_linker_10, # of connection points: 2
#     Edge 78, Type (0, 1), BuildingBlock: TEMPAE_clean_linker_10, # of connection points: 2
#     Edge 79, Type (0, 1), BuildingBlock: TEMPAE_clean_linker_10, # of connection points: 2
#     Edge 80, Type (0, 1), BuildingBlock: TEMPAE_clean_linker_10, # of connection points: 2
#     Edge 81, Type (0, 1), BuildingBlock: TEMPAE_clean_linker_10, # of connection points: 2
#     Edge 82, Type (0, 1), BuildingBlock: TEMPAE_clean_linker_10, # of connection points: 2
#     Edge 83, Type (0, 1), BuildingBlock: TEMPAE_clean_linker_10, # of connection points: 2
#     Edge 84, Type (0, 1), BuildingBlock: TEMPAE_clean_linker_10, # of connection points: 2
#     Edge 85, Type (0, 1), BuildingBlock: TEMPAE_clean_linker_10, # of connection points: 2
#     Edge 86, Type (0, 1), BuildingBlock: TEMPAE_clean_linker_10, # of connection points: 2
#     Edge 87, Type (0, 1), BuildingBlock: TEMPAE_clean_linker_10, # of connection points: 2
#     Edge 88, Type (0, 1), BuildingBlock: TEMPAE_clean_linker_10, # of connection points: 2
#     Edge 89, Type (0, 1), BuildingBlock: TEMPAE_clean_linker_10, # of connection points: 2
#     Edge 90, Type (0, 1), BuildingBlock: TEMPAE_clean_linker_10, # of connection points: 2
#     Edge 91, Type (0, 1), BuildingBlock: TEMPAE_clean_linker_10, # of connection points: 2
#     Edge 92, Type (0, 1), BuildingBlock: TEMPAE_clean_linker_10, # of connection points: 2
#     Edge 93, Type (0, 1), BuildingBlock: TEMPAE_clean_linker_10, # of connection points: 2
#     Edge 94, Type (0, 1), BuildingBlock: TEMPAE_clean_linker_10, # of connection points: 2
#     Edge 95, Type (0, 1), BuildingBlock: TEMPAE_clean_linker_10, # of connection points: 2
#     Edge 96, Type (0, 1), BuildingBlock: TEMPAE_clean_linker_10, # of connection points: 2
#     Edge 97, Type (0, 1), BuildingBlock: TEMPAE_clean_linker_10, # of connection points: 2
#     Edge 98, Type (0, 1), BuildingBlock: TEMPAE_clean_linker_10, # of connection points: 2
#     Edge 99, Type (0, 1), BuildingBlock: TEMPAE_clean_linker_10, # of connection points: 2
#     Edge 100, Type (0, 1), BuildingBlock: TEMPAE_clean_linker_10, # of connection points: 2
#     Edge 101, Type (0, 1), BuildingBlock: TEMPAE_clean_linker_10, # of connection points: 2
#     Edge 102, Type (0, 1), BuildingBlock: TEMPAE_clean_linker_10, # of connection points: 2
#     Edge 103, Type (0, 1), BuildingBlock: TEMPAE_clean_linker_10, # of connection points: 2
#     Edge 104, Type (0, 1), BuildingBlock: TEMPAE_clean_linker_10, # of connection points: 2
#     Edge 105, Type (0, 1), BuildingBlock: TEMPAE_clean_linker_10, # of connection points: 2
#     Edge 106, Type (0, 1), BuildingBlock: TEMPAE_clean_linker_10, # of connection points: 2
#     Edge 107, Type (0, 1), BuildingBlock: TEMPAE_clean_linker_10, # of connection points: 2
#     Edge 108, Type (0, 1), BuildingBlock: TEMPAE_clean_linker_10, # of connection points: 2
#     Edge 109, Type (0, 1), BuildingBlock: TEMPAE_clean_linker_10, # of connection points: 2
#     Edge 110, Type (0, 1), BuildingBlock: TEMPAE_clean_linker_10, # of connection points: 2
#     Edge 111, Type (0, 1), BuildingBlock: TEMPAE_clean_linker_10, # of connection points: 2
#     Edge 112, Type (0, 1), BuildingBlock: TEMPAE_clean_linker_10, # of connection points: 2
#     Edge 113, Type (0, 1), BuildingBlock: TEMPAE_clean_linker_10, # of connection points: 2
#     Edge 114, Type (0, 1), BuildingBlock: TEMPAE_clean_linker_10, # of connection points: 2
#     Edge 115, Type (0, 1), BuildingBlock: TEMPAE_clean_linker_10, # of connection points: 2
#     Edge 116, Type (0, 1), BuildingBlock: TEMPAE_clean_linker_10, # of connection points: 2
#     Edge 117, Type (0, 1), BuildingBlock: TEMPAE_clean_linker_10, # of connection points: 2
#     Edge 118, Type (0, 1), BuildingBlock: TEMPAE_clean_linker_10, # of connection points: 2
#     Edge 119, Type (0, 1), BuildingBlock: TEMPAE_clean_linker_10, # of connection points: 2
#     Edge 120, Type (0, 1), BuildingBlock: TEMPAE_clean_linker_10, # of connection points: 2
#     Edge 121, Type (0, 1), BuildingBlock: TEMPAE_clean_linker_10, # of connection points: 2
#     Edge 122, Type (0, 1), BuildingBlock: TEMPAE_clean_linker_10, # of connection points: 2
#     Edge 123, Type (0, 1), BuildingBlock: TEMPAE_clean_linker_10, # of connection points: 2
#     Edge 124, Type (0, 1), BuildingBlock: TEMPAE_clean_linker_10, # of connection points: 2
#     Edge 125, Type (0, 1), BuildingBlock: TEMPAE_clean_linker_10, # of connection points: 2
#     Edge 126, Type (0, 1), BuildingBlock: TEMPAE_clean_linker_10, # of connection points: 2
#     Edge 127, Type (0, 1), BuildingBlock: TEMPAE_clean_linker_10, # of connection points: 2
#     Edge 128, Type (0, 1), BuildingBlock: TEMPAE_clean_linker_10, # of connection points: 2
#     Edge 129, Type (0, 1), BuildingBlock: TEMPAE_clean_linker_10, # of connection points: 2
#     Edge 130, Type (0, 1), BuildingBlock: TEMPAE_clean_linker_10, # of connection points: 2
#     Edge 131, Type (0, 1), BuildingBlock: TEMPAE_clean_linker_10, # of connection points: 2
#     Edge 132, Type (0, 1), BuildingBlock: TEMPAE_clean_linker_10, # of connection points: 2
#     Edge 133, Type (0, 1), BuildingBlock: TEMPAE_clean_linker_10, # of connection points: 2
#     Edge 134, Type (0, 1), BuildingBlock: TEMPAE_clean_linker_10, # of connection points: 2
#     Edge 135, Type (0, 1), BuildingBlock: TEMPAE_clean_linker_10, # of connection points: 2
# Relax obj value: 0.086
# Max RMSD: 0.200
# Mean RMSD: 0.155
data_MOF--net-gar--node1-UXUYUI_clean_sbu_0--node2-KUMBOL_clean_sbu_1--edge1-TEMPAE_clean_linker_10
_symmetry_space_group_name_H-M    P1
_symmetry_Int_Tables_number       1
_symmetry_cell_setting            triclinic
loop_
_symmetry_equiv_pos_as_xyz
'x, y, z'
_cell_length_a     73.721917
_cell_length_b     73.755853
_cell_length_c     69.453386
_cell_angle_alpha  95.898557
_cell_angle_beta   95.878041
_cell_angle_gamma 100.89727
loop_
_atom_site_label
_atom_site_type_symbol
_atom_site_fract_x
_atom_site_fract_y
_atom_site_fract_z
_atom_type_partial_charge
Li0 Li 0.02156 0.29918 0.34441 0.0
Li1 Li 0.04299 0.32051 0.37244 0.0
Li2 Li 0.05832 0.30083 0.34621 0.0
Li3 Li 0.04012 0.28536 0.37167 0.0
C4 C 0.03972 0.33217 0.32914 0.0
N5 N 0.03383 0.3547 0.30072 0.0
C6 C 0.03276 0.34823 0.33361 0.0
C7 C 0.04376 0.32756 0.31025 0.0
C8 C 0.02984 0.35943 0.31903 0.0
C9 C 0.04067 0.33914 0.29607 0.0
C10 C 0.0096 0.30354 0.38719 0.0
C11 C 1.00348 0.30373 0.42063 0.0
N12 N 0.98662 0.30801 0.41555 0.0
C13 C 0.99227 0.30805 0.38231 0.0
C14 C 0.01531 0.30143 0.40649 0.0
C15 C 0.98083 0.31021 0.39685 0.0
C16 C 0.98244 0.28168 0.33398 0.0
N17 N 0.99547 0.29623 0.3302 0.0
C18 C 0.97097 0.30814 0.31274 0.0
C19 C 0.98997 0.30924 0.31952 0.0
C20 C 0.95711 0.29365 0.31708 0.0
C21 C 0.96333 0.28015 0.32763 0.0
H22 H 0.98677 0.27153 0.34267 0.0
H23 H 1.00018 0.32093 0.31674 0.0
C24 C 0.05944 0.35309 0.4018 0.0
N25 N 0.04404 0.34427 0.38938 0.0
C26 C 0.05932 0.36965 0.41387 0.0
C27 C 0.0277 0.36815 0.39999 0.0
C28 C 0.02832 0.35151 0.38845 0.0
C29 C 0.04331 0.37753 0.41303 0.0
H30 H 0.07189 0.34731 0.4024 0.0
H31 H 0.01615 0.34437 0.37864 0.0
C32 C 0.03583 0.26445 0.3283 0.0
N33 N 0.03373 0.23532 0.2993 0.0
C34 C 0.04043 0.24777 0.33297 0.0
C35 C 0.0301 0.26635 0.30894 0.0
C36 C 0.03932 0.23321 0.31808 0.0
C37 C 0.02914 0.25144 0.29447 0.0
C38 C 0.07588 0.30418 0.39085 0.0
C39 C 0.09228 0.29827 0.38727 0.0
C40 C 0.07276 0.30907 0.41002 0.0
C41 C 0.10531 0.29728 0.403 0.0
C42 C 0.08613 0.3079 0.42536 0.0
N43 N 0.10199 0.30208 0.42156 0.0
C44 C 0.09374 0.31421 0.32917 0.0
C45 C 0.08685 0.28195 0.33079 0.0
C46 C 0.11107 0.31284 0.32252 0.0
N47 N 0.08191 0.2989 0.33336 0.0
C48 C 0.10399 0.27997 0.32418 0.0
C49 C 0.11676 0.29554 0.32009 0.0
H50 H 0.09004 0.32771 0.33148 0.0
H51 H 0.07771 0.26985 0.3344 0.0
C52 C 0.02215 0.25693 0.39295 0.0
N53 N 0.03876 0.26438 0.38717 0.0
C54 C 0.0205 0.24167 0.40364 0.0
C55 C 0.05296 0.24156 0.40201 0.0
C56 C 0.05403 0.25694 0.39148 0.0
C57 C 0.03599 0.23356 0.40828 0.0
H58 H 0.01006 0.26278 0.38918 0.0
H59 H 0.06703 0.26272 0.38644 0.0
O60 O 0.04298 0.32123 0.3433 0.0
O61 O 0.02067 0.30067 0.37302 0.0
O62 O 0.03652 0.27871 0.34271 0.0
O63 O 0.06319 0.30565 0.3756 0.0
H64 H 0.02965 0.35202 0.34816 0.0
H65 H 0.04927 0.3152 0.30663 0.0
H66 H 0.02443 0.3719 0.32228 0.0
H67 H 0.04374 0.33579 0.28138 0.0
H68 H 0.00766 0.30203 0.43561 0.0
H69 H 0.98769 0.30985 0.36746 0.0
H70 H 0.0286 0.29777 0.41046 0.0
H71 H 0.96734 0.3136 0.39327 0.0
H72 H 0.96715 0.31905 0.30484 0.0
H73 H 0.95346 0.26851 0.3312 0.0
H74 H 0.07176 0.37638 0.42356 0.0
H75 H 0.01496 0.37346 0.3989 0.0
H76 H 0.04482 0.2461 0.34792 0.0
H77 H 0.02639 0.27917 0.30517 0.0
H78 H 0.04286 0.22021 0.32146 0.0
H79 H 0.02471 0.25267 0.27941 0.0
H80 H 0.09495 0.29455 0.37251 0.0
H81 H 0.06024 0.31388 0.41301 0.0
H82 H 0.11807 0.29274 0.40045 0.0
H83 H 0.08394 0.31168 0.44028 0.0
H84 H 0.12016 0.32546 0.31994 0.0
H85 H 0.10713 0.2662 0.32236 0.0
H86 H 0.00715 0.23638 0.40828 0.0
H87 H 0.06527 0.23576 0.4048 0.0
Li88 Li 0.02022 0.76626 0.67422 0.0
Li89 Li 0.03889 0.75387 0.70165 0.0
Li90 Li 0.01624 0.73089 0.67388 0.0
Li91 Li 1.00169 0.75076 0.70017 0.0
C92 C 0.05038 0.75258 0.65844 0.0
N93 N 0.07323 0.75754 0.6295 0.0
C94 C 0.06873 0.76244 0.66305 0.0
C95 C 0.04367 0.74513 0.63916 0.0
C96 C 0.08005 0.76483 0.64821 0.0
C97 C 0.05543 0.74783 0.62472 0.0
C98 C 0.02745 0.78832 0.71719 0.0
C99 C 0.02784 0.80192 0.75033 0.0
N100 N 0.03611 0.8187 0.7456 0.0
C101 C 0.03597 0.80566 0.71264 0.0
C102 C 0.02335 0.78636 0.73616 0.0
C103 C 0.04024 0.82087 0.72723 0.0
C104 C 1.00462 0.79223 0.65251 0.0
N105 N 0.02084 0.78703 0.65853 0.0
C106 C 0.03806 0.8122 0.64428 0.0
C107 C 0.0374 0.79676 0.65466 0.0
C108 C 0.02153 0.81789 0.63773 0.0
C109 C 1.00463 0.80754 0.64201 0.0
H110 H 0.9916 0.78458 0.65598 0.0
H111 H 0.05021 0.79283 0.65998 0.0
C112 C 0.07188 0.74234 0.72095 0.0
N113 N 0.06496 0.75743 0.71615 0.0
C114 C 0.09088 0.74403 0.72812 0.0
C115 C 0.09567 0.77678 0.72557 0.0
C116 C 0.07654 0.77453 0.71868 0.0
C117 C 0.10335 0.76139 0.73021 0.0
H118 H 0.0628 0.72875 0.71857 0.0
H119 H 0.07114 0.78643 0.71457 0.0
C120 C 0.98287 0.74326 0.65569 0.0
N121 N 0.95454 0.73684 0.62507 0.0
C122 C 0.96436 0.73826 0.65914 0.0
C123 C 0.98701 0.74503 0.63671 0.0
C124 C 0.95022 0.73506 0.64345 0.0
C125 C 0.97248 0.74172 0.62141 0.0
C126 C 0.01577 0.71854 0.71603 0.0
C127 C 0.00589 0.70052 0.70937 0.0
C128 C 0.02342 0.72317 0.73557 0.0
C129 C 1.00384 0.68732 0.72245 0.0
C130 C 0.02105 0.70957 0.74819 0.0
N131 N 0.01141 0.69207 0.74142 0.0
C132 C 0.02974 0.69854 0.65881 0.0
C133 C 0.9992 0.69814 0.64457 0.0
C134 C 0.03001 0.68169 0.64736 0.0
N135 N 0.01451 0.70653 0.65734 0.0
C136 C 0.99891 0.68129 0.63274 0.0
C137 C 0.01448 0.67265 0.63388 0.0
H138 H 0.04184 0.7053 0.66894 0.0
H139 H 0.98717 0.70456 0.64336 0.0
C140 C 0.97344 0.77008 0.71486 0.0
N141 N 0.9783 0.75305 0.71323 0.0
C142 C 0.95657 0.77264 0.72176 0.0
C143 C 0.94955 0.7402 0.72554 0.0
C144 C 0.96659 0.73823 0.71854 0.0
C145 C 0.94399 0.75761 0.72718 0.0
H146 H 0.9825 0.78178 0.71033 0.0
H147 H 0.97024 0.72466 0.71702 0.0
O148 O 0.03916 0.74997 0.67281 0.0
O149 O 0.02268 0.77342 0.703 0.0
O150 O 0.99682 0.74667 0.67092 0.0
O151 O 0.01839 0.73145 0.70333 0.0
H152 H 0.07414 0.76825 0.6779 0.0
H153 H 0.02958 0.73724 0.63541 0.0
H154 H 0.09427 0.77247 0.65156 0.0
H155 H 0.05043 0.74216 0.60972 0.0
H156 H 0.0247 0.80066 0.76507 0.0
H157 H 0.03916 0.80737 0.69799 0.0
H158 H 0.01666 0.773 0.73983 0.0
H159 H 0.0468 0.8344 0.72392 0.0
H160 H 0.05151 0.81984 0.64185 0.0
H161 H 0.99146 0.81112 0.63723 0.0
H162 H 0.09589 0.73163 0.73122 0.0
H163 H 0.10441 0.79053 0.72705 0.0
H164 H 0.96095 0.73688 0.67378 0.0
H165 H 1.00127 0.74909 0.63386 0.0
H166 H 0.93582 0.73118 0.6459 0.0
H167 H 0.97546 0.74308 0.60664 0.0
H168 H 0.99997 0.69676 0.69424 0.0
H169 H 0.03119 0.73708 0.74086 0.0
H170 H 0.99628 0.67328 0.71751 0.0
H171 H 0.02693 0.7129 0.76335 0.0
H172 H 0.04231 0.67575 0.6493 0.0
H173 H 0.98662 0.67534 0.62252 0.0
H174 H 0.95324 0.78634 0.72221 0.0
H175 H 0.94084 0.72804 0.72965 0.0
Li176 Li 0.52287 0.80007 0.84446 0.0
Li177 Li 0.544 0.82186 0.87264 0.0
Li178 Li 0.55982 0.80243 0.84611 0.0
Li179 Li 0.54167 0.78645 0.87149 0.0
C180 C 0.53981 0.8338 0.82991 0.0
N181 N 0.53201 0.857 0.80282 0.0
C182 C 0.53194 0.84907 0.8353 0.0
C183 C 0.54375 0.83029 0.81079 0.0
C184 C 0.52809 0.86065 0.82137 0.0
C185 C 0.53968 0.84219 0.79729 0.0
C186 C 0.51025 0.80168 0.88694 0.0
C187 C 0.50317 0.79727 0.91946 0.0
N188 N 0.48596 0.80091 0.91471 0.0
C189 C 0.49254 0.80546 0.8824 0.0
C190 C 0.51568 0.79763 0.90562 0.0
C191 C 0.48046 0.80499 0.89664 0.0
C192 C 0.48387 0.78229 0.83494 0.0
N193 N 0.49673 0.79651 0.83024 0.0
C194 C 0.47196 0.80719 0.81179 0.0
C195 C 0.49102 0.80872 0.81858 0.0
C196 C 0.45828 0.79314 0.81717 0.0
C197 C 0.4647 0.78042 0.82871 0.0
H198 H 0.48839 0.77276 0.84435 0.0
H199 H 0.50111 0.82011 0.81499 0.0
C200 C 0.56042 0.85692 0.89912 0.0
N201 N 0.54446 0.84554 0.88987 0.0
C202 C 0.5598 0.87336 0.91123 0.0
C203 C 0.52642 0.86618 0.90438 0.0
C204 C 0.52768 0.85006 0.89231 0.0
C205 C 0.54259 0.87835 0.91412 0.0
H206 H 0.57371 0.85332 0.89708 0.0
H207 H 0.51509 0.84115 0.88479 0.0
C208 C 0.53668 0.76522 0.82868 0.0
N209 N 0.53276 0.73484 0.80075 0.0
C210 C 0.54134 0.74872 0.83384 0.0
C211 C 0.52998 0.76632 0.80937 0.0
C212 C 0.53929 0.73351 0.81948 0.0
C213 C 0.52809 0.75078 0.79545 0.0
C214 C 0.57761 0.8072 0.89087 0.0
C215 C 0.59435 0.80189 0.88754 0.0
C216 C 0.57444 0.81267 0.90989 0.0
C217 C 0.60767 0.80204 0.9034 0.0
C218 C 0.58813 0.81264 0.92536 0.0
N219 N 0.60431 0.80736 0.92182 0.0
C220 C 0.59616 0.8157 0.8304 0.0
C221 C 0.58749 0.78318 0.8293 0.0
C222 C 0.61334 0.81396 0.82359 0.0
N223 N 0.58348 0.80042 0.83328 0.0
C224 C 0.60445 0.78083 0.82247 0.0
C225 C 0.61803 0.79631 0.81963 0.0
H226 H 0.59322 0.8294 0.83386 0.0
H227 H 0.57769 0.77106 0.83184 0.0
C228 C 0.52363 0.75325 0.88547 0.0
N229 N 0.54038 0.76508 0.88643 0.0
C230 C 0.52189 0.73738 0.89527 0.0
C231 C 0.55461 0.74601 0.90703 0.0
C232 C 0.55576 0.76162 0.89688 0.0
C233 C 0.5375 0.7335 0.90637 0.0
H234 H 0.5116 0.75603 0.87689 0.0
H235 H 0.56905 0.77084 0.89731 0.0
O236 O 0.54401 0.82255 0.84341 0.0
O237 O 0.52206 0.80153 0.87302 0.0
O238 O 0.53831 0.78013 0.84257 0.0
O239 O 0.56446 0.80718 0.87554 0.0
H240 H 0.52886 0.85196 0.85007 0.0
H241 H 0.54991 0.81852 0.80648 0.0
H242 H 0.52201 0.87254 0.82532 0.0
H243 H 0.54265 0.83968 0.78243 0.0
H244 H 0.50713 0.79407 0.93396 0.0
H245 H 0.48823 0.8089 0.8681 0.0
H246 H 0.52935 0.79467 0.90935 0.0
H247 H 0.4667 0.80787 0.89332 0.0
H248 H 0.46792 0.81745 0.80305 0.0
H249 H 0.45494 0.76917 0.83312 0.0
H250 H 0.57279 0.88218 0.91801 0.0
H251 H 0.51273 0.86888 0.90618 0.0
H252 H 0.54653 0.74769 0.84876 0.0
H253 H 0.52622 0.77901 0.80523 0.0
H254 H 0.54288 0.72064 0.82324 0.0
H255 H 0.5229 0.75138 0.78043 0.0
H256 H 0.59698 0.79764 0.87288 0.0
H257 H 0.56156 0.81688 0.91265 0.0
H258 H 0.62067 0.79791 0.90106 0.0
H259 H 0.58589 0.81682 0.94017 0.0
H260 H 0.62311 0.82651 0.82205 0.0
H261 H 0.60682 0.76684 0.81947 0.0
H262 H 0.50844 0.7281 0.89384 0.0
H263 H 0.56707 0.74393 0.91547 0.0
Li264 Li 0.51972 0.26835 0.17436 0.0
Li265 Li 0.53779 0.25478 0.20142 0.0
Li266 Li 0.51527 0.23281 0.17321 0.0
Li267 Li 0.50071 0.25212 0.19989 0.0
C268 C 0.55024 0.25393 0.15903 0.0
N269 N 0.57461 0.25804 0.13142 0.0
C270 C 0.5688 0.26284 0.16457 0.0
C271 C 0.54403 0.24718 0.13947 0.0
C272 C 0.58092 0.26478 0.15038 0.0
C273 C 0.55659 0.24936 0.12573 0.0
C274 C 0.52722 0.28953 0.21756 0.0
C275 C 0.5279 0.30332 0.25068 0.0
N276 N 0.53702 0.31981 0.24605 0.0
C277 C 0.53661 0.30657 0.2131 0.0
C278 C 0.52281 0.28782 0.23647 0.0
C279 C 0.54144 0.32174 0.22772 0.0
C280 C 0.5058 0.29742 0.15633 0.0
N281 N 0.5209 0.28935 0.15895 0.0
C282 C 0.53785 0.3112 0.14058 0.0
C283 C 0.5368 0.29611 0.15142 0.0
C284 C 0.52249 0.31981 0.13754 0.0
C285 C 0.50632 0.31273 0.14573 0.0
H286 H 0.49331 0.29199 0.16254 0.0
H287 H 0.54885 0.28997 0.15397 0.0
C288 C 0.57292 0.2433 0.20965 0.0
N289 N 0.56387 0.25708 0.21538 0.0
C290 C 0.59197 0.24453 0.21604 0.0
C291 C 0.59242 0.27386 0.23485 0.0
C292 C 0.57332 0.27218 0.22792 0.0
C293 C 0.60227 0.26007 0.2287 0.0
H294 H 0.56548 0.2315 0.19949 0.0
H295 H 0.56627 0.28328 0.23217 0.0
C296 C 0.48226 0.24473 0.15526 0.0
N297 N 0.45393 0.23674 0.12457 0.0
C298 C 0.46406 0.23744 0.15847 0.0
C299 C 0.48611 0.24792 0.13649 0.0
C300 C 0.44992 0.23351 0.14276 0.0
C301 C 0.47158 0.24378 0.12114 0.0
C302 C 0.5153 0.21961 0.21528 0.0
C303 C 0.50713 0.20105 0.2087 0.0
C304 C 0.52217 0.22495 0.23495 0.0
C305 C 0.50594 0.18803 0.22201 0.0
C306 C 0.52072 0.21151 0.2478 0.0
N307 N 0.51271 0.19349 0.24112 0.0
C308 C 0.53023 0.20359 0.15388 0.0
C309 C 0.4976 0.19859 0.14609 0.0
C310 C 0.53091 0.18741 0.14157 0.0
N311 N 0.51379 0.20905 0.15591 0.0
C312 C 0.49763 0.18214 0.13372 0.0
C313 C 0.51448 0.1763 0.13113 0.0
H314 H 0.54299 0.21191 0.16181 0.0
H315 H 0.48461 0.20301 0.14773 0.0
C316 C 0.46713 0.26643 0.20554 0.0
N317 N 0.47705 0.25414 0.21257 0.0
C318 C 0.45003 0.26855 0.21213 0.0
C319 C 0.45329 0.24561 0.23364 0.0
C320 C 0.47034 0.24382 0.2265 0.0
C321 C 0.44254 0.25809 0.22647 0.0
H322 H 0.47232 0.2745 0.19437 0.0
H323 H 0.47811 0.23401 0.23209 0.0
O324 O 0.53822 0.25182 0.17272 0.0
O325 O 0.52194 0.27469 0.20335 0.0
O326 O 0.49616 0.24905 0.17054 0.0
O327 O 0.51696 0.23241 0.20239 0.0
H328 H 0.57377 0.26837 0.17962 0.0
H329 H 0.52968 0.24028 0.13497 0.0
H330 H 0.59532 0.27167 0.15445 0.0
H331 H 0.55201 0.24416 0.11053 0.0
H332 H 0.52457 0.30225 0.26539 0.0
H333 H 0.54003 0.30808 0.19848 0.0
H334 H 0.51546 0.27469 0.24007 0.0
H335 H 0.54867 0.33505 0.22449 0.0
H336 H 0.55076 0.31632 0.13494 0.0
H337 H 0.49409 0.3188 0.14377 0.0
H338 H 0.59857 0.23333 0.21094 0.0
H339 H 0.59954 0.28623 0.24441 0.0
H340 H 0.4609 0.23487 0.17295 0.0
H341 H 0.50013 0.25365 0.13383 0.0
H342 H 0.43575 0.22792 0.14502 0.0
H343 H 0.47431 0.24621 0.10652 0.0
H344 H 0.50183 0.19674 0.19346 0.0
H345 H 0.52862 0.2393 0.24018 0.0
H346 H 0.49967 0.17359 0.21714 0.0
H347 H 0.52599 0.2154 0.26308 0.0
H348 H 0.54425 0.18353 0.14044 0.0
H349 H 0.48457 0.17426 0.12598 0.0
H350 H 0.44259 0.27811 0.20553 0.0
H351 H 0.44873 0.23728 0.24484 0.0
Li352 Li 0.05409 0.80505 0.09543 0.0
Li353 Li 0.07348 0.79061 0.12214 0.0
Li354 Li 0.05193 0.76802 0.09367 0.0
Li355 Li 0.03787 0.78556 0.12065 0.0
C356 C 0.08686 0.79056 0.08003 0.0
N357 N 0.11287 0.79249 0.05405 0.0
C358 C 0.10558 0.79816 0.08656 0.0
C359 C 0.08131 0.78397 0.06032 0.0
C360 C 0.11853 0.799 0.07319 0.0
C361 C 0.0947 0.78508 0.0474 0.0
C362 C 0.06041 0.82338 0.13994 0.0
C363 C 0.06038 0.83417 0.17387 0.0
N364 N 0.06744 0.85181 0.17047 0.0
C365 C 0.06763 0.84159 0.13675 0.0
C366 C 0.05668 0.81959 0.15859 0.0
C367 C 0.07108 0.85578 0.15239 0.0
C368 C 0.03519 0.83391 0.08162 0.0
N369 N 0.05201 0.82862 0.08264 0.0
C370 C 0.06502 0.85711 0.06995 0.0
C371 C 0.0668 0.83996 0.07679 0.0
C372 C 0.04785 0.86314 0.06904 0.0
C373 C 0.03281 0.85088 0.07489 0.0
H374 H 0.02349 0.82505 0.0864 0.0
H375 H 0.08023 0.83598 0.07785 0.0
C376 C 0.10786 0.77961 0.13494 0.0
N377 N 0.09737 0.79248 0.13942 0.0
C378 C 0.1245 0.77931 0.14673 0.0
C379 C 0.11934 0.80522 0.16803 0.0
C380 C 0.10294 0.80525 0.15563 0.0
C381 C 0.13043 0.79213 0.16367 0.0
H382 H 0.10322 0.7694 0.1222 0.0
H383 H 0.09461 0.81541 0.15915 0.0
C384 C 0.01694 0.77837 0.07746 0.0
N385 N 0.9866 0.76883 0.04901 0.0
C386 C 0.99989 0.76894 0.08188 0.0
C387 C 0.01862 0.78296 0.05862 0.0
C388 C 0.9847 0.76423 0.06728 0.0
C389 C 1.0031 0.778 0.04442 0.0
C390 C 0.05339 0.75572 0.13641 0.0
C391 C 0.04573 0.73679 0.13134 0.0
C392 C 0.05967 0.7627 0.1559 0.0
C393 C 0.04439 0.72511 0.14595 0.0
C394 C 0.05812 0.75055 0.17008 0.0
N395 N 0.05057 0.73218 0.16486 0.0
C396 C 0.06527 0.73506 0.07793 0.0
C397 C 0.03254 0.73071 0.07357 0.0
C398 C 0.06429 0.71613 0.07109 0.0
N399 N 0.04954 0.74211 0.07928 0.0
C400 C 0.03094 0.71167 0.06665 0.0
C401 C 0.04694 0.70382 0.06556 0.0
H402 H 0.07872 0.74402 0.08279 0.0
H403 H 0.02007 0.73615 0.07512 0.0
C404 C 0.00829 0.79869 0.13834 0.0
N405 N 0.01655 0.78374 0.13564 0.0
C406 C 0.99263 0.79775 0.14846 0.0
C407 C 0.99415 0.76607 0.1529 0.0
C408 C 0.00967 0.76757 0.14261 0.0
C409 C 0.98531 0.78126 0.156 0.0
H410 H 0.01383 0.81139 0.13257 0.0
H411 H 0.01604 0.75567 0.14 0.0
O412 O 0.07411 0.78919 0.09299 0.0
O413 O 0.05681 0.80938 0.12477 0.0
O414 O 0.03179 0.78355 0.09167 0.0
O415 O 0.05477 0.76734 0.12231 0.0
H416 H 0.11004 0.8033 0.1018 0.0
H417 H 0.06685 0.77798 0.05512 0.0
H418 H 0.13309 0.80479 0.07803 0.0
H419 H 0.09065 0.78 0.0321 0.0
H420 H 0.05763 0.83147 0.18842 0.0
H421 H 0.07052 0.84471 0.12234 0.0
H422 H 0.051 0.80556 0.16124 0.0
H423 H 0.07666 0.86996 0.15015 0.0
H424 H 0.07725 0.86582 0.06597 0.0
H425 H 0.01914 0.8543 0.0743 0.0
H426 H 0.13247 0.76886 0.14285 0.0
H427 H 0.12339 0.81544 0.18085 0.0
H428 H 0.99839 0.76537 0.09645 0.0
H429 H 0.03175 0.79036 0.05506 0.0
H430 H 0.97139 0.75696 0.07048 0.0
H431 H 1.00415 0.78149 0.02977 0.0
H432 H 0.04077 0.7312 0.1163 0.0
H433 H 0.06568 0.77732 0.16002 0.0
H434 H 0.03844 0.71044 0.14225 0.0
H435 H 0.06292 0.75574 0.18525 0.0
H436 H 0.07716 0.7112 0.07036 0.0
H437 H 0.01717 0.70304 0.06293 0.0
H438 H 0.98646 0.8099 0.15054 0.0
H439 H 0.98892 0.75295 0.15807 0.0
Li440 Li 0.50545 0.78344 0.45089 0.0
Li441 Li 0.48396 0.76207 0.42242 0.0
Li442 Li 0.50356 0.74618 0.44895 0.0
Li443 Li 0.51944 0.76498 0.42386 0.0
C444 C 0.47207 0.76561 0.46542 0.0
N445 N 0.44927 0.77271 0.4932 0.0
C446 C 0.45615 0.77261 0.46034 0.0
C447 C 0.47642 0.76216 0.48457 0.0
C448 C 0.4448 0.77613 0.47461 0.0
C449 C 0.4647 0.76585 0.49843 0.0
C450 C 0.50196 0.79565 0.40816 0.0
C451 C 0.50167 0.80137 0.37459 0.0
N452 N 0.49857 0.81873 0.37969 0.0
C453 C 0.49872 0.81351 0.41306 0.0
C454 C 0.50338 0.78947 0.38877 0.0
C455 C 0.49705 0.82497 0.39846 0.0
C456 C 0.52426 0.82239 0.46322 0.0
N457 N 0.50866 0.80974 0.46527 0.0
C458 C 0.49639 0.83474 0.48141 0.0
C459 C 0.49491 0.81572 0.4744 0.0
C460 C 0.51212 0.84825 0.47907 0.0
C461 C 0.52626 0.84152 0.46996 0.0
H462 H 0.53497 0.81777 0.45559 0.0
H463 H 0.48244 0.80587 0.47585 0.0
C464 C 0.44978 0.74528 0.39459 0.0
N465 N 0.46006 0.76122 0.4051 0.0
C466 C 0.43322 0.74551 0.38245 0.0
C467 C 0.43793 0.77849 0.39191 0.0
C468 C 0.45427 0.77762 0.4039 0.0
C469 C 0.4269 0.7623 0.38087 0.0
H470 H 0.45437 0.73228 0.39561 0.0
H471 H 0.46236 0.79021 0.41234 0.0
C472 C 0.54022 0.76946 0.46713 0.0
N473 N 0.56987 0.77282 0.49585 0.0
C474 C 0.55683 0.76465 0.46246 0.0
C475 C 0.53867 0.77602 0.48636 0.0
C476 C 0.57166 0.76642 0.4772 0.0
C477 C 0.55384 0.77762 0.50069 0.0
C478 C 0.50092 0.72931 0.40426 0.0
C479 C 0.50818 0.71366 0.40795 0.0
C480 C 0.49506 0.73176 0.3851 0.0
C481 C 0.50955 0.70069 0.39231 0.0
C482 C 0.49668 0.71849 0.36986 0.0
N483 N 0.50382 0.70335 0.37375 0.0
C484 C 0.48953 0.70866 0.46199 0.0
C485 C 0.52208 0.71835 0.46803 0.0
C486 C 0.49067 0.69125 0.46862 0.0
N487 N 0.50511 0.722 0.46164 0.0
C488 C 0.52382 0.70116 0.47482 0.0
C489 C 0.50802 0.68695 0.47513 0.0
H490 H 0.47606 0.7113 0.45674 0.0
H491 H 0.53453 0.72859 0.46743 0.0
C492 C 0.54782 0.78329 0.40258 0.0
N493 N 0.54092 0.76677 0.40891 0.0
C494 C 0.56341 0.78527 0.39235 0.0
C495 C 0.5652 0.75347 0.39587 0.0
C496 C 0.54936 0.75199 0.40575 0.0
C497 C 0.57242 0.77027 0.38889 0.0
H498 H 0.54138 0.79509 0.40566 0.0
H499 H 0.54398 0.73907 0.41118 0.0
O500 O 0.4832 0.76186 0.45162 0.0
O501 O 0.50404 0.78439 0.42233 0.0
O502 O 0.52567 0.7681 0.45286 0.0
O503 O 0.499 0.74186 0.41941 0.0
H504 H 0.45262 0.77531 0.44554 0.0
H505 H 0.48869 0.75666 0.48866 0.0
H506 H 0.43244 0.78158 0.47091 0.0
H507 H 0.46786 0.76325 0.51333 0.0
H508 H 0.50287 0.79683 0.35955 0.0
H509 H 0.49744 0.81845 0.42797 0.0
H510 H 0.50603 0.77573 0.38478 0.0
H511 H 0.49455 0.83884 0.40205 0.0
H512 H 0.48511 0.83875 0.48852 0.0
H513 H 0.53859 0.85102 0.46733 0.0
H514 H 0.42533 0.73251 0.37461 0.0
H515 H 0.43418 0.79192 0.39118 0.0
H516 H 0.55823 0.75958 0.44762 0.0
H517 H 0.5259 0.77989 0.49015 0.0
H518 H 0.58459 0.76272 0.47381 0.0
H519 H 0.55287 0.7827 0.51565 0.0
H520 H 0.51267 0.71154 0.42273 0.0
H521 H 0.48918 0.74369 0.38206 0.0
H522 H 0.51512 0.68849 0.39493 0.0
H523 H 0.49219 0.72018 0.35494 0.0
H524 H 0.47788 0.68124 0.46863 0.0
H525 H 0.53764 0.6989 0.47925 0.0
H526 H 0.5686 0.79858 0.38753 0.0
H527 H 0.57164 0.74152 0.39355 0.0
Li528 Li 0.55409 0.30595 0.59703 0.0
Li529 Li 0.57343 0.29066 0.62334 0.0
Li530 Li 0.5514 0.26893 0.59473 0.0
Li531 Li 0.53791 0.28627 0.62223 0.0
C532 C 0.58627 0.29102 0.58086 0.0
N533 N 0.61159 0.29272 0.55415 0.0
C534 C 0.60519 0.29776 0.58708 0.0
C535 C 0.58016 0.28515 0.56111 0.0
C536 C 0.61779 0.29853 0.57333 0.0
C537 C 0.59321 0.28611 0.54781 0.0
C538 C 0.56252 0.3242 0.64137 0.0
C539 C 0.56513 0.33608 0.6754 0.0
N540 N 0.57193 0.35345 0.67109 0.0
C541 C 0.56958 0.34214 0.63726 0.0
C542 C 0.56031 0.32109 0.66058 0.0
C543 C 0.57425 0.35676 0.65249 0.0
C544 C 0.53637 0.33677 0.58706 0.0
N545 N 0.55185 0.32965 0.58432 0.0
C546 C 0.56295 0.35594 0.56722 0.0
C547 C 0.56505 0.33903 0.5745 0.0
C548 C 0.54711 0.36378 0.56994 0.0
C549 C 0.53376 0.35361 0.58011 0.0
H550 H 0.52599 0.32951 0.59502 0.0
H551 H 0.57742 0.33355 0.57239 0.0
C552 C 0.60054 0.27488 0.64545 0.0
N553 N 0.59731 0.29152 0.6405 0.0
C554 C 0.61666 0.27383 0.65766 0.0
C555 C 0.62669 0.30697 0.65906 0.0
C556 C 0.61012 0.30746 0.64708 0.0
C557 C 0.63014 0.28997 0.66473 0.0
H558 H 0.59059 0.26224 0.63986 0.0
H559 H 0.60755 0.32061 0.64303 0.0
C560 C 0.51715 0.27933 0.57845 0.0
N561 N 0.48786 0.26929 0.5488 0.0
C562 C 0.50006 0.26919 0.58199 0.0
C563 C 0.51939 0.28438 0.55987 0.0
C564 C 0.48542 0.26424 0.5668 0.0
C565 C 0.5044 0.27916 0.54505 0.0
C566 C 0.55106 0.25595 0.63724 0.0
C567 C 0.54358 0.23704 0.63178 0.0
C568 C 0.55573 0.26285 0.65698 0.0
C569 C 0.54087 0.2253 0.64623 0.0
C570 C 0.55278 0.25067 0.67099 0.0
N571 N 0.54549 0.2323 0.66537 0.0
C572 C 0.56466 0.23712 0.57581 0.0
C573 C 0.53213 0.23126 0.57592 0.0
C574 C 0.56392 0.21836 0.56845 0.0
N575 N 0.54894 0.24332 0.57965 0.0
C576 C 0.53078 0.21233 0.56871 0.0
C577 C 0.54685 0.20531 0.56508 0.0
H578 H 0.57801 0.2466 0.57906 0.0
H579 H 0.51973 0.23605 0.57944 0.0
C580 C 0.51297 0.30006 0.64721 0.0
N581 N 0.51688 0.2844 0.63772 0.0
C582 C 0.49772 0.29899 0.65795 0.0
C583 C 0.49027 0.2658 0.6485 0.0
C584 C 0.50588 0.26745 0.63829 0.0
C585 C 0.48601 0.2817 0.65857 0.0
H586 H 0.52155 0.31347 0.64629 0.0
H587 H 0.50905 0.25516 0.63055 0.0
O588 O 0.57383 0.28984 0.59417 0.0
O589 O 0.55726 0.30989 0.62654 0.0
O590 O 0.53145 0.28475 0.59326 0.0
O591 O 0.55426 0.26755 0.62328 0.0
H592 H 0.61009 0.3023 0.60236 0.0
H593 H 0.56553 0.2798 0.55614 0.0
H594 H 0.6325 0.3037 0.57791 0.0
H595 H 0.58873 0.28156 0.53247 0.0
H596 H 0.56337 0.33391 0.69032 0.0
H597 H 0.57133 0.34476 0.62244 0.0
H598 H 0.55464 0.30733 0.66396 0.0
H599 H 0.57966 0.37074 0.64953 0.0
H600 H 0.57372 0.3627 0.55937 0.0
H601 H 0.52143 0.35875 0.5832 0.0
H602 H 0.61869 0.26035 0.66126 0.0
H603 H 0.63657 0.31984 0.6641 0.0
H604 H 0.49812 0.26524 0.59632 0.0
H605 H 0.53253 0.29233 0.55696 0.0
H606 H 0.47209 0.25642 0.56934 0.0
H607 H 0.50589 0.28299 0.53059 0.0
H608 H 0.54001 0.23145 0.61658 0.0
H609 H 0.56179 0.2774 0.66141 0.0
H610 H 0.53514 0.21061 0.64221 0.0
H611 H 0.55639 0.25581 0.68633 0.0
H612 H 0.57679 0.21415 0.56566 0.0
H613 H 0.51724 0.20317 0.5668 0.0
H614 H 0.49485 0.31162 0.66531 0.0
H615 H 0.48165 0.25219 0.64862 0.0
Li616 Li 0.00644 0.28401 0.95079 0.0
Li617 Li 0.98466 0.26263 0.92269 0.0
Li618 Li 1.00468 0.2474 0.9489 0.0
Li619 Li 0.02009 0.26577 0.92334 0.0
C620 C 0.9731 0.26638 0.96564 0.0
N621 N 0.94987 0.273 0.99314 0.0
C622 C 0.95715 0.27329 0.96044 0.0
C623 C 0.97725 0.26276 0.98477 0.0
C624 C 0.94559 0.27659 0.97457 0.0
C625 C 0.96531 0.26622 0.99848 0.0
C626 C 1.00423 0.29636 0.90791 0.0
C627 C 0.00553 0.3014 0.87431 0.0
N628 N 1.00412 0.3194 0.87902 0.0
C629 C 1.00285 0.31491 0.91245 0.0
C630 C 0.00562 0.28952 0.88873 0.0
C631 C 1.00278 0.32634 0.89762 0.0
C632 C 0.02646 0.32052 0.97175 0.0
N633 N 0.00927 0.30976 0.96544 0.0
C634 C 0.99541 0.33635 0.97355 0.0
C635 C 0.99387 0.31742 0.96646 0.0
C636 C 0.01299 0.34802 0.97983 0.0
C637 C 0.02862 0.33952 0.97908 0.0
H638 H 0.03868 0.31454 0.97057 0.0
H639 H 0.98032 0.30907 0.96088 0.0
C640 C 0.94978 0.24511 0.89685 0.0
N641 N 0.96073 0.26144 0.90575 0.0
C642 C 0.93311 0.24498 0.8848 0.0
C643 C 0.93904 0.27838 0.89121 0.0
C644 C 0.95553 0.27788 0.90311 0.0
C645 C 0.92739 0.2618 0.88174 0.0
H646 H 0.95393 0.2321 0.89909 0.0
H647 H 0.96422 0.29076 0.9103 0.0
C648 C 0.04137 0.26992 0.96643 0.0
N649 N 0.07096 0.2721 0.99491 0.0
C650 C 0.05798 0.2654 0.9614 0.0
C651 C 0.03977 0.27559 0.98589 0.0
C652 C 0.07278 0.26655 0.97603 0.0
C653 C 0.05492 0.27661 1.00009 0.0
C654 C 0.99939 0.22911 0.90447 0.0
C655 C 0.00578 0.21296 0.90801 0.0
C656 C 0.99232 0.23121 0.88556 0.0
C657 C 1.00504 0.19911 0.89248 0.0
C658 C 0.99183 0.21704 0.87042 0.0
N659 N 0.99815 0.20142 0.87416 0.0
C660 C 0.99145 0.21171 0.96547 0.0
C661 C 0.02389 0.21957 0.96524 0.0
C662 C 0.99306 0.19459 0.97242 0.0
N663 N 0.00674 0.22394 0.96184 0.0
C664 C 0.02611 0.20267 0.97222 0.0
C665 C 0.01059 0.18952 0.97578 0.0
H666 H 0.9778 0.21497 0.9625 0.0
H667 H 0.03599 0.22901 0.96209 0.0
C668 C 0.05432 0.2838 0.91139 0.0
N669 N 0.04119 0.26776 0.90788 0.0
C670 C 0.07013 0.286 0.90149 0.0
C671 C 0.05872 0.25525 0.88422 0.0
C672 C 0.04319 0.25359 0.89454 0.0
C673 C 0.0726 0.27159 0.88765 0.0
H674 H 0.05258 0.29491 0.92206 0.0
H675 H 0.0329 0.24084 0.89197 0.0
O676 O 0.9843 0.26263 0.9519 0.0
O677 O 1.00446 0.28504 0.92227 0.0
O678 O 0.02686 0.26913 0.95228 0.0
O679 O 0.99981 0.2427 0.91951 0.0
H680 H 0.95373 0.27606 0.94564 0.0
H681 H 0.9895 0.25727 0.98893 0.0
H682 H 0.93319 0.28196 0.97077 0.0
H683 H 0.9683 0.26346 0.01335 0.0
H684 H 0.00663 0.29632 0.85939 0.0
H685 H 1.00184 0.32044 0.92724 0.0
H686 H 0.00685 0.27522 0.88504 0.0
H687 H 1.00169 0.34072 0.90092 0.0
H688 H 0.98281 0.34188 0.97328 0.0
H689 H 0.04253 0.34745 0.98393 0.0
H690 H 0.92468 0.23174 0.87816 0.0
H691 H 0.93565 0.29178 0.88927 0.0
H692 H 0.05939 0.261 0.94637 0.0
H693 H 0.027 0.27923 0.98995 0.0
H694 H 0.08572 0.26305 0.97237 0.0
H695 H 0.05393 0.28101 0.01522 0.0
H696 H 0.01126 0.21113 0.92258 0.0
H697 H 0.98726 0.24362 0.88262 0.0
H698 H 0.00994 0.18652 0.89499 0.0
H699 H 0.98642 0.21846 0.85569 0.0
H700 H 0.98047 0.18517 0.97455 0.0
H701 H 0.04004 0.20001 0.97475 0.0
H702 H 0.08026 0.29896 0.90455 0.0
H703 H 0.06003 0.24364 0.87393 0.0
Li704 Li 0.39206 0.01408 0.30934 0.0
Li705 Li 0.36529 0.99599 0.28819 0.0
Li706 Li 0.39035 0.01625 0.27507 0.0
Li707 Li 0.36802 0.02891 0.29399 0.0
C708 C 0.40404 0.98295 0.29192 0.0
N709 N 0.42943 0.96065 0.29959 0.0
C710 C 0.39793 0.96466 0.29563 0.0
C711 C 0.42304 0.98979 0.2918 0.0
C712 C 0.41099 0.95364 0.29956 0.0
C713 C 0.43566 0.97833 0.2958 0.0
C714 C 0.35329 0.00761 0.32583 0.0
C715 C 0.32196 0.0045 0.33399 0.0
N716 N 0.32787 1.00069 0.35206 0.0
C717 C 0.35908 1.00369 0.34448 0.0
C718 C 0.33461 0.00804 0.32051 0.0
C719 C 0.346 1.00021 0.35753 0.0
C720 C 0.41213 0.03316 0.3424 0.0
N721 N 0.40723 0.01585 0.33233 0.0
C722 C 0.42319 1.00297 0.35724 0.0
C723 C 0.41213 1.00078 0.33944 0.0
C724 C 0.42874 0.02077 0.3678 0.0
C725 C 0.42305 0.036 0.36032 0.0
H726 H 0.40735 0.0447 0.33655 0.0
H727 H 0.40729 0.98708 0.3315 0.0
C728 C 0.34016 0.96568 0.26678 0.0
N729 N 0.34891 0.97342 0.28468 0.0
C730 C 0.33009 0.94756 0.26416 0.0
C731 C 0.33845 0.94575 0.29847 0.0
C732 C 0.34793 0.96409 0.30051 0.0
C733 C 0.32979 0.93718 0.27997 0.0
H734 H 0.34172 0.97311 0.25431 0.0
H735 H 0.35561 0.97048 0.3144 0.0
C736 C 0.41069 0.05024 0.29591 0.0
N737 N 0.44174 0.07769 0.29541 0.0
C738 C 0.40865 0.06786 0.29151 0.0
C739 C 0.42848 0.0466 0.30021 0.0
C740 C 0.42453 0.08156 0.2913 0.0
C741 C 0.44402 0.06065 0.29982 0.0
C742 C 0.34914 0.00929 0.25369 0.0
C743 C 0.35299 0.00536 0.23459 0.0
C744 C 0.33078 0.00884 0.25734 0.0
C745 C 0.33832 1.00096 0.21941 0.0
C746 C 0.3165 0.00438 0.24175 0.0
N747 N 0.32053 1.00056 0.22327 0.0
C748 C 0.40901 1.00285 0.24685 0.0
C749 C 0.40815 0.03481 0.24631 0.0
C750 C 0.41916 1.00295 0.23116 0.0
N751 N 0.40394 0.01864 0.25417 0.0
C752 C 0.41813 0.0355 0.2303 0.0
C753 C 0.42363 0.01934 0.22251 0.0
H754 H 0.40502 0.99011 0.25311 0.0
H755 H 0.40355 0.04703 0.2523 0.0
C756 C 0.3535 0.05544 0.31519 0.0
N757 N 0.3552 0.04748 0.29712 0.0
C758 C 0.34493 0.07067 0.31711 0.0
C759 C 0.33962 0.06838 0.28177 0.0
C760 C 0.34849 0.05348 0.28057 0.0
C761 C 0.33815 0.0772 0.30018 0.0
H762 H 0.35935 0.05033 0.32799 0.0
H763 H 0.35065 0.04711 0.2665 0.0
O764 O 0.39141 0.99387 0.28789 0.0
O765 O 0.36601 0.01131 0.31305 0.0
O766 O 0.39527 0.03691 0.29676 0.0
O767 O 0.36337 0.01369 0.26866 0.0
H768 H 0.38328 0.95901 0.29548 0.0
H769 H 0.42796 1.00372 0.28846 0.0
H770 H 0.40645 0.93949 0.30254 0.0
H771 H 0.45041 0.98347 0.2958 0.0
H772 H 0.30744 0.00481 0.3301 0.0
H773 H 0.37352 1.00336 0.34884 0.0
H774 H 0.32996 0.01118 0.30619 0.0
H775 H 0.35028 0.99716 0.37202 0.0
H776 H 0.4274 0.99094 0.36263 0.0
H777 H 0.42681 0.04984 0.36833 0.0
H778 H 0.32337 0.94147 0.24973 0.0
H779 H 0.3389 0.9381 0.31095 0.0
H780 H 0.39493 0.07092 0.28837 0.0
H781 H 0.43028 0.0332 0.30412 0.0
H782 H 0.42318 0.09527 0.28794 0.0
H783 H 0.45788 0.05804 0.30314 0.0
H784 H 0.36714 0.00567 0.23155 0.0
H785 H 0.3276 0.0119 0.27203 0.0
H786 H 0.34107 0.99787 0.20455 0.0
H787 H 0.30222 0.00395 0.24435 0.0
H788 H 0.42341 0.99027 0.22583 0.0
H789 H 0.42117 0.04833 0.22387 0.0
H790 H 0.34424 0.07767 0.33143 0.0
H791 H 0.33482 0.0736 0.26854 0.0
Li792 Li 0.27201 0.18448 0.5308 0.0
Li793 Li 0.28413 0.15942 0.51153 0.0
Li794 Li 0.26964 0.18282 0.49433 0.0
Li795 Li 0.24981 0.15741 0.50879 0.0
C796 C 0.30681 0.20184 0.51776 0.0
N797 N 0.33619 0.232 0.52498 0.0
C798 C 0.32483 0.19925 0.52316 0.0
C799 C 0.30369 0.21973 0.51597 0.0
C800 C 0.33951 0.21468 0.52675 0.0
C801 C 0.31874 0.23481 0.51973 0.0
C802 C 0.27005 0.14468 0.54485 0.0
C803 C 0.26565 0.11307 0.55231 0.0
N804 N 0.27441 0.1193 0.57065 0.0
C805 C 0.27898 0.15079 0.56377 0.0
C806 C 0.26329 0.1257 0.53905 0.0
C807 C 0.28107 0.13773 0.5766 0.0
C808 C 0.25984 0.19406 0.56637 0.0
N809 N 0.27422 0.19908 0.55593 0.0
C810 C 0.29008 0.22162 0.58261 0.0
C811 C 0.2892 0.21262 0.56365 0.0
C812 C 0.2756 0.21638 0.59385 0.0
C813 C 0.26029 0.20247 0.58544 0.0
H814 H 0.24816 0.18317 0.55997 0.0
H815 H 0.30066 0.21621 0.55535 0.0
C816 C 0.30769 0.13728 0.49479 0.0
N817 N 0.30356 0.14551 0.51179 0.0
C818 C 0.32208 0.12732 0.49489 0.0
C819 C 0.32793 0.13482 0.52994 0.0
C820 C 0.31345 0.14459 0.52915 0.0
C821 C 0.3324 0.12592 0.51267 0.0
H822 H 0.29988 0.13851 0.48111 0.0
H823 H 0.31026 0.15169 0.5424 0.0
C824 C 0.23917 0.19712 0.50752 0.0
N825 N 0.21713 0.22244 0.49958 0.0
C826 C 0.22159 0.19108 0.49679 0.0
C827 C 0.24554 0.21596 0.51434 0.0
C828 C 0.21065 0.20412 0.49289 0.0
C829 C 0.23419 0.22857 0.51012 0.0
C830 C 0.26038 0.14096 0.47303 0.0
C831 C 0.25598 0.14441 0.45387 0.0
C832 C 0.25964 0.1227 0.47708 0.0
C833 C 0.25088 0.12946 0.43903 0.0
C834 C 0.25445 0.10812 0.46184 0.0
N835 N 0.25023 0.11177 0.44329 0.0
C836 C 0.28819 0.20382 0.46729 0.0
C837 C 0.25539 0.19679 0.46003 0.0
C838 C 0.28996 0.21219 0.4502 0.0
N839 N 0.27111 0.19636 0.47193 0.0
C840 C 0.25652 0.20471 0.44258 0.0
C841 C 0.27402 0.21248 0.43728 0.0
H842 H 0.30056 0.2029 0.47661 0.0
H843 H 0.24198 0.19029 0.46365 0.0
C844 C 0.22033 0.13697 0.52484 0.0
N845 N 0.22603 0.14103 0.50748 0.0
C846 C 0.20323 0.12518 0.52543 0.0
C847 C 0.19777 0.1223 0.49025 0.0
C848 C 0.21513 0.13403 0.49033 0.0
C849 C 0.19167 0.11765 0.50799 0.0
H850 H 0.22908 0.14298 0.53829 0.0
H851 H 0.21986 0.13762 0.47671 0.0
O852 O 0.2924 0.18683 0.51381 0.0
O853 O 0.26743 0.15731 0.53229 0.0
O854 O 0.24982 0.18451 0.51191 0.0
O855 O 0.26588 0.15549 0.48761 0.0
H856 H 0.32745 0.18544 0.52447 0.0
H857 H 0.28983 0.2219 0.51165 0.0
H858 H 0.35356 0.21289 0.5309 0.0
H859 H 0.31656 0.24875 0.51841 0.0
H860 H 0.26045 0.09833 0.54804 0.0
H861 H 0.28425 0.16546 0.56849 0.0
H862 H 0.25612 0.12078 0.52454 0.0
H863 H 0.28795 0.14225 0.5913 0.0
H864 H 0.30222 0.23215 0.58865 0.0
H865 H 0.24879 0.1981 0.59356 0.0
H866 H 0.32495 0.12066 0.48123 0.0
H867 H 0.33576 0.13454 0.54394 0.0
H868 H 0.21645 0.17648 0.49157 0.0
H869 H 0.25903 0.22076 0.52293 0.0
H870 H 0.197 0.19967 0.4846 0.0
H871 H 0.23892 0.24322 0.5153 0.0
H872 H 0.25666 0.15848 0.45047 0.0
H873 H 0.26323 0.11984 0.4918 0.0
H874 H 0.2475 0.13193 0.42412 0.0
H875 H 0.25386 0.0939 0.46474 0.0
H876 H 0.30376 0.2182 0.44713 0.0
H877 H 0.24379 0.20413 0.43308 0.0
H878 H 0.19895 0.12225 0.53944 0.0
H879 H 0.18929 0.11677 0.47648 0.0
Li880 Li 0.14777 0.05907 0.78654 0.0
Li881 Li 0.12218 0.03917 0.80138 0.0
Li882 Li 0.14513 0.02469 0.7836 0.0
Li883 Li 0.12018 0.03724 0.76457 0.0
C884 C 0.16394 0.04713 0.82235 0.0
N885 N 0.19275 0.05448 0.85256 0.0
C886 C 0.16036 0.05101 0.84156 0.0
C887 C 0.18214 0.047 0.81849 0.0
C888 C 0.17512 0.05469 0.85664 0.0
C889 C 0.19652 0.05076 0.83397 0.0
C890 C 0.10762 0.06966 0.78785 0.0
C891 C 0.07576 0.0734 0.78537 0.0
N892 N 0.08147 0.09097 0.79485 0.0
C893 C 0.11322 0.08774 0.79751 0.0
C894 C 0.08879 0.0624 0.78165 0.0
C895 C 0.09977 0.0983 0.80094 0.0
C896 C 0.17078 0.08744 0.77101 0.0
N897 N 0.16454 0.08272 0.78795 0.0
C898 C 0.18153 0.11183 0.80511 0.0
C899 C 0.16965 0.0945 0.80488 0.0
C900 C 0.18842 0.11681 0.78786 0.0
C901 C 0.18298 0.10435 0.77069 0.0
H902 H 0.16617 0.07811 0.75764 0.0
H903 H 0.16438 0.09052 0.81813 0.0
C904 C 0.10494 0.01998 0.83029 0.0
N905 N 0.10909 0.0371 0.82423 0.0
C906 C 0.09725 0.01774 0.84774 0.0
C907 C 0.09821 0.05078 0.85258 0.0
C908 C 0.10582 0.05238 0.83498 0.0
C909 C 0.09394 0.03329 0.85933 0.0
H910 H 0.10809 0.00808 0.82182 0.0
H911 H 0.10958 0.06592 0.83019 0.0
C912 C 0.15994 0.03814 0.75038 0.0
N913 N 0.18523 0.03213 0.72494 0.0
C914 C 0.15369 0.02973 0.73129 0.0
C915 C 0.17902 0.04352 0.75654 0.0
C916 C 0.1667 0.02679 0.71865 0.0
C917 C 0.1916 0.04036 0.74345 0.0
C918 C 0.10331 1.0018 0.77833 0.0
C919 C 0.10656 0.98409 0.77263 0.0
C920 C 0.08538 0.00402 0.78135 0.0
C921 C 0.09172 0.96882 0.76997 0.0
C922 C 0.07089 0.9884 0.77851 0.0
N923 N 0.07434 0.97127 0.77294 0.0
C924 C 0.16556 1.00005 0.80051 0.0
C925 C 0.16047 0.99569 0.76597 0.0
C926 C 0.17513 0.98539 0.80059 0.0
N927 N 0.15861 0.00499 0.78335 0.0
C928 C 0.16999 0.98104 0.76535 0.0
C929 C 0.17743 0.97564 0.78282 0.0
H930 H 0.16349 0.00734 0.81417 0.0
H931 H 0.15437 0.99948 0.75255 0.0
C932 C 0.11109 0.04928 0.72864 0.0
N933 N 0.10549 0.03528 0.73936 0.0
C934 C 0.1029 0.04874 0.70945 0.0
C935 C 0.08275 0.01965 0.71268 0.0
C936 C 0.0915 0.02064 0.73182 0.0
C937 C 0.08863 0.03369 0.70109 0.0
H938 H 0.12233 0.06069 0.73489 0.0
H939 H 0.08738 0.00951 0.74043 0.0
O940 O 0.14955 0.04287 0.80754 0.0
O941 O 0.12062 0.05932 0.78402 0.0
O942 O 0.14739 0.04146 0.76282 0.0
O943 O 0.11777 0.01679 0.78143 0.0
H944 H 0.14632 0.05103 0.8448 0.0
H945 H 0.18508 0.04376 0.80374 0.0
H946 H 0.17256 0.05765 0.87158 0.0
H947 H 0.21068 0.05062 0.83121 0.0
H948 H 0.06111 0.06799 0.78066 0.0
H949 H 0.1278 0.09354 0.80228 0.0
H950 H 0.08433 0.04848 0.77395 0.0
H951 H 0.10387 0.11233 0.80839 0.0
H952 H 0.18542 0.12116 0.81861 0.0
H953 H 0.18783 0.10785 0.75707 0.0
H954 H 0.0945 0.00402 0.85241 0.0
H955 H 0.0958 0.06316 0.86088 0.0
H956 H 0.13895 0.02544 0.72631 0.0
H957 H 0.18407 0.05026 0.77118 0.0
H958 H 0.16208 0.02028 0.70384 0.0
H959 H 0.20642 0.0445 0.748 0.0
H960 H 0.12041 0.98215 0.77038 0.0
H961 H 0.08271 0.01763 0.78595 0.0
H962 H 0.09402 0.95501 0.7656 0.0
H963 H 0.05693 0.98988 0.7808 0.0
H964 H 0.18035 0.98151 0.8144 0.0
H965 H 0.17156 0.97407 0.7513 0.0
H966 H 0.10777 0.05998 0.70119 0.0
H967 H 0.07191 0.00772 0.7068 0.0
Li968 Li 0.27622 0.93624 0.99564 0.0
Li969 Li 0.28671 0.91332 0.0158 0.0
Li970 Li 0.30826 0.93817 0.00469 0.0
Li971 Li 0.29082 0.91198 0.98105 0.0
C972 C 0.2973 0.95308 0.03826 0.0
N973 N 0.31364 0.97858 0.07018 0.0
C974 C 0.29775 0.94782 0.05705 0.0
C975 C 0.30496 0.97141 0.03576 0.0
C976 C 0.30612 0.96089 0.07298 0.0
C977 C 0.31323 0.98406 0.05206 0.0
C978 C 0.25457 0.89294 0.99287 0.0
C979 C 0.24616 0.85948 0.98957 0.0
N980 N 0.22879 0.86072 0.99382 0.0
C981 C 0.23665 0.89391 0.99715 0.0
C982 C 0.25942 0.87563 0.98903 0.0
C983 C 0.22381 0.87745 0.99759 0.0
C984 C 0.24176 0.94122 0.97943 0.0
N985 N 0.25777 0.94946 0.99099 0.0
C986 C 0.24505 0.97544 0.00155 0.0
C987 C 0.2599 0.96643 0.00146 0.0
C988 C 0.22781 0.9665 0.99124 0.0
C989 C 0.22635 0.9496 0.97934 0.0
H990 H 0.2406 0.9276 0.9714 0.0
H991 H 0.27276 0.97246 0.01063 0.0
C992 C 0.30138 0.90016 0.04749 0.0
N993 N 0.28464 0.89936 0.03688 0.0
C994 C 0.30247 0.89095 0.0639 0.0
C995 C 0.26905 0.88 0.05811 0.0
C996 C 0.26856 0.88967 0.04185 0.0
C997 C 0.28618 0.88076 0.06925 0.0
H998 H 0.31387 0.90818 0.04328 0.0
H999 H 0.25542 0.88951 0.03336 0.0
C1000 C 0.29631 0.9514 0.96561 0.0
N1001 N 0.29808 0.97729 0.93945 0.0
C1002 C 0.29777 0.94609 0.94602 0.0
C1003 C 0.29593 0.96991 0.97193 0.0
C1004 C 0.29864 0.95938 0.93301 0.0
C1005 C 0.29674 0.98278 0.95847 0.0
C1006 C 0.32208 0.90103 0.00138 0.0
C1007 C 0.33921 0.90862 0.99559 0.0
C1008 C 0.31839 0.88251 0.00506 0.0
C1009 C 0.35243 0.89749 0.9936 0.0
C1010 C 0.33196 0.87183 0.00287 0.0
N1011 N 0.34857 0.87948 0.99725 0.0
C1012 C 0.3404 0.95158 0.02953 0.0
C1013 C 0.33936 0.96471 0.9997 0.0
C1014 C 0.35842 0.96151 0.03536 0.0
N1015 N 0.33141 0.95334 0.01198 0.0
C1016 C 0.35744 0.97473 0.00482 0.0
C1017 C 0.36725 0.97291 0.02271 0.0
H1018 H 0.33366 0.94215 0.03878 0.0
H1019 H 0.33199 0.96543 0.98565 0.0
C1020 C 0.27453 0.89793 0.9447 0.0
N1021 N 0.28954 0.89712 0.95741 0.0
C1022 C 0.27193 0.88834 0.92601 0.0
C1023 C 0.3002 0.87704 0.93401 0.0
C1024 C 0.30234 0.887 0.95252 0.0
C1025 C 0.28486 0.87772 0.92051 0.0
H1026 H 0.26475 0.90633 0.94906 0.0
H1027 H 0.3142 0.88668 0.96285 0.0
O1028 O 0.28882 0.94048 0.02255 0.0
O1029 O 0.26727 0.90893 0.99251 0.0
O1030 O 0.29604 0.93863 0.97858 0.0
O1031 O 0.30912 0.91177 0.00385 0.0
H1032 H 0.29145 0.93389 0.05937 0.0
H1033 H 0.30483 0.97576 0.02137 0.0
H1034 H 0.30655 0.95698 0.08759 0.0
H1035 H 0.31934 0.99823 0.05029 0.0
H1036 H 0.24969 0.84597 0.98665 0.0
H1037 H 0.23276 0.90724 1.00028 0.0
H1038 H 0.27328 0.87469 0.98574 0.0
H1039 H 0.2099 0.87798 0.00096 0.0
H1040 H 0.24661 0.98855 0.01077 0.0
H1041 H 0.21315 0.94227 0.9714 0.0
H1042 H 0.31588 0.89168 0.07229 0.0
H1043 H 0.25628 0.87217 0.06203 0.0
H1044 H 0.29855 0.93193 0.94094 0.0
H1045 H 0.29529 0.97436 0.9871 0.0
H1046 H 0.29985 0.95547 0.91783 0.0
H1047 H 0.29643 0.99715 0.96316 0.0
H1048 H 0.34226 0.92293 0.99264 0.0
H1049 H 0.30517 0.87647 0.00956 0.0
H1050 H 0.36577 0.90317 0.98915 0.0
H1051 H 0.32931 0.85746 0.00566 0.0
H1052 H 0.36555 0.95984 0.04929 0.0
H1053 H 0.36397 0.98304 0.99447 0.0
H1054 H 0.26005 0.88937 0.91593 0.0
H1055 H 0.31031 0.86873 0.93038 0.0
Li1056 Li 0.27425 0.3902 0.03416 0.0
Li1057 Li 0.28908 0.36786 0.05172 0.0
Li1058 Li 0.30898 0.39382 0.03603 0.0
Li1059 Li 0.28802 0.36565 0.01488 0.0
C1060 C 0.29354 0.40954 0.07193 0.0
N1061 N 0.29436 0.43817 0.10111 0.0
C1062 C 0.28797 0.40561 0.08994 0.0
C1063 C 0.29962 0.42797 0.06874 0.0
C1064 C 0.28845 0.4203 0.10451 0.0
C1065 C 0.2999 0.44227 0.08369 0.0
C1066 C 0.25226 0.34888 0.032 0.0
C1067 C 0.23764 0.3164 0.02737 0.0
N1068 N 0.22193 0.32092 0.03352 0.0
C1069 C 0.23597 0.35325 0.03819 0.0
C1070 C 0.25314 0.33036 0.02649 0.0
C1071 C 0.2208 0.33889 0.0389 0.0
C1072 C 0.24447 0.40324 0.01548 0.0
N1073 N 0.25391 0.40303 0.03329 0.0
C1074 C 0.23405 0.42069 0.04865 0.0
C1075 C 0.24885 0.41129 0.04977 0.0
C1076 C 0.22431 0.42152 0.03038 0.0
C1077 C 0.22964 0.4125 0.01367 0.0
H1078 H 0.24852 0.39625 0.00263 0.0
H1079 H 0.25624 0.41061 0.06383 0.0
C1080 C 0.30372 0.35193 0.08453 0.0
N1081 N 0.28783 0.3547 0.07448 0.0
C1082 C 0.30308 0.34372 0.10186 0.0
C1083 C 0.26978 0.3413 0.09822 0.0
C1084 C 0.27107 0.34959 0.08103 0.0
C1085 C 0.28594 0.33836 0.10903 0.0
H1086 H 0.31695 0.35639 0.07926 0.0
H1087 H 0.25868 0.35243 0.07324 0.0
C1088 C 0.28993 0.40548 1.00011 0.0
N1089 N 0.28967 0.43163 0.97441 0.0
C1090 C 0.29314 0.4012 0.98085 0.0
C1091 C 0.2867 0.42309 0.00636 0.0
C1092 C 0.29294 0.41461 0.96807 0.0
C1093 C 0.28657 0.4361 0.99312 0.0
C1094 C 0.3212 0.35442 0.03394 0.0
C1095 C 0.33896 0.35992 0.02855 0.0
C1096 C 0.31528 0.33625 0.03805 0.0
C1097 C 0.3506 0.34706 0.02735 0.0
C1098 C 0.32735 0.32382 0.03671 0.0
N1099 N 0.34461 0.32943 0.03143 0.0
C1100 C 0.34672 0.41073 0.05202 0.0
C1101 C 0.33533 0.42253 0.0238 0.0
C1102 C 0.36423 0.42239 0.05251 0.0
N1103 N 0.3327 0.41091 0.03769 0.0
C1104 C 0.35246 0.43441 0.02379 0.0
C1105 C 0.36733 0.43434 0.0381 0.0
H1106 H 0.34441 0.40127 0.06285 0.0
H1107 H 0.32428 0.42252 0.01245 0.0
C1108 C 0.27163 0.35209 0.97601 0.0
N1109 N 0.28545 0.35035 0.98985 0.0
C1110 C 0.27026 0.34319 0.95692 0.0
C1111 C 0.29696 0.33026 0.96674 0.0
C1112 C 0.29788 0.33949 0.98558 0.0
C1113 C 0.28323 0.33228 0.95192 0.0
H1114 H 0.26203 0.36097 0.97963 0.0
H1115 H 0.30882 0.33827 0.99661 0.0
O1116 O 0.2934 0.39534 0.05764 0.0
O1117 O 0.26711 0.36276 0.03093 0.0
O1118 O 0.29032 0.39259 0.01285 0.0
O1119 O 0.30974 0.36687 0.03538 0.0
H1120 H 0.28331 0.39139 0.09263 0.0
H1121 H 0.3041 0.43119 0.0549 0.0
H1122 H 0.28416 0.41748 0.11852 0.0
H1123 H 0.30456 0.45662 0.08146 0.0
H1124 H 0.23808 0.30197 0.02314 0.0
H1125 H 0.2351 0.36756 0.04244 0.0
H1126 H 0.26564 0.32683 0.02154 0.0
H1127 H 0.20811 0.34204 0.04371 0.0
H1128 H 0.23047 0.42747 0.0619 0.0
H1129 H 0.2223 0.41245 0.99932 0.0
H1130 H 0.31591 0.34164 0.10956 0.0
H1131 H 0.2563 0.33778 0.10329 0.0
H1132 H 0.29595 0.38773 0.97587 0.0
H1133 H 0.28443 0.42669 0.0213 0.0
H1134 H 0.29544 0.41151 0.95312 0.0
H1135 H 0.28407 0.44978 0.99773 0.0
H1136 H 0.34367 0.37397 0.0253 0.0
H1137 H 0.30153 0.33183 0.0422 0.0
H1138 H 0.36439 0.3511 0.02318 0.0
H1139 H 0.32301 0.3097 0.03987 0.0
H1140 H 0.37532 0.42172 0.06374 0.0
H1141 H 0.35402 0.44356 0.01257 0.0
H1142 H 0.25957 0.34543 0.94605 0.0
H1143 H 0.30709 0.32179 0.96377 0.0
Li1144 Li 0.77063 0.14209 0.06387 0.0
Li1145 Li 0.78544 0.11843 0.04822 0.0
Li1146 Li 0.77165 0.13998 0.02899 0.0
Li1147 Li 0.75247 0.11468 0.04254 0.0
C1148 C 0.80551 0.16169 0.05024 0.0
N1149 N 0.83133 0.19427 0.05126 0.0
C1150 C 0.82448 0.16137 0.05174 0.0
C1151 C 0.79963 0.17852 0.04924 0.0
C1152 C 0.83733 0.17801 0.05227 0.0
C1153 C 0.81291 0.19486 0.04975 0.0
C1154 C 0.76737 0.10244 0.07938 0.0
C1155 C 0.76387 0.07014 0.08416 0.0
N1156 N 0.76554 0.07507 0.10378 0.0
C1157 C 0.76907 0.10722 0.09957 0.0
C1158 C 0.76473 0.08379 0.07156 0.0
C1159 C 0.76811 0.09316 0.11167 0.0
C1160 C 0.75595 0.15797 0.09505 0.0
N1161 N 0.77181 0.15697 0.08703 0.0
C1162 C 0.79048 0.17588 0.11436 0.0
C1163 C 0.78888 0.16533 0.09632 0.0
C1164 C 0.77431 0.17765 0.12278 0.0
C1165 C 0.75687 0.1685 0.11302 0.0
H1166 H 0.74265 0.15051 0.08751 0.0
H1167 H 0.80125 0.16355 0.08986 0.0
C1168 C 0.80931 0.09802 0.0349 0.0
N1169 N 0.80441 0.10601 0.05148 0.0
C1170 C 0.82324 0.08787 0.03598 0.0
C1171 C 0.82722 0.09495 0.07125 0.0
C1172 C 0.81296 0.10487 0.06946 0.0
C1173 C 0.83223 0.08621 0.05432 0.0
H1174 H 0.80245 0.09967 0.02086 0.0
H1175 H 0.80872 0.11169 0.0823 0.0
C1176 C 0.73622 0.15066 0.04486 0.0
N1177 N 0.70831 0.17064 0.04818 0.0
C1178 C 0.71764 0.14204 0.03881 0.0
C1179 C 0.74059 0.16944 0.0526 0.0
C1180 C 0.70373 0.15238 0.04062 0.0
C1181 C 0.72629 0.1793 0.05416 0.0
C1182 C 0.76275 0.09947 0.0074 0.0
C1183 C 0.75443 0.10429 0.99016 0.0
C1184 C 0.76374 0.0809 0.0088 0.0
C1185 C 0.74715 0.09039 0.97461 0.0
C1186 C 0.75628 0.06742 0.99292 0.0
N1187 N 0.74821 0.0724 0.9763 0.0
C1188 C 0.78447 0.14967 0.99412 0.0
C1189 C 0.76355 0.16719 0.00688 0.0
C1190 C 0.78459 0.15885 0.97754 0.0
N1191 N 0.77374 0.15377 0.00809 0.0
C1192 C 0.76329 0.17673 0.9907 0.0
C1193 C 0.77354 0.17225 0.97559 0.0
H1194 H 0.7924 0.13884 0.9956 0.0
H1195 H 0.75532 0.17025 0.01827 0.0
C1196 C 0.72242 0.09774 0.05765 0.0
N1197 N 0.73011 0.09783 0.04069 0.0
C1198 C 0.70467 0.08747 0.05797 0.0
C1199 C 0.70344 0.07702 0.02353 0.0
C1200 C 0.72113 0.08768 0.02382 0.0
C1201 C 0.69506 0.0773 0.04066 0.0
H1202 H 0.72973 0.10642 0.07067 0.0
H1203 H 0.72707 0.08855 0.01039 0.0
O1204 O 0.79287 0.14556 0.05013 0.0
O1205 O 0.76788 0.11604 0.06739 0.0
O1206 O 0.74999 0.14072 0.04305 0.0
O1207 O 0.7701 0.11289 0.02271 0.0
H1208 H 0.82919 0.1484 0.05262 0.0
H1209 H 0.785 0.17895 0.04809 0.0
H1210 H 0.85208 0.17799 0.05351 0.0
H1211 H 0.80858 0.20801 0.04897 0.0
H1212 H 0.76181 0.05562 0.07834 0.0
H1213 H 0.77103 0.12163 0.1058 0.0
H1214 H 0.76327 0.07992 0.05595 0.0
H1215 H 0.76936 0.09664 0.12733 0.0
H1216 H 0.80418 0.18243 0.12172 0.0
H1217 H 0.74411 0.16964 0.11909 0.0
H1218 H 0.82726 0.08174 0.02261 0.0
H1219 H 0.83421 0.09411 0.08553 0.0
H1220 H 0.71399 0.12757 0.03262 0.0
H1221 H 0.75487 0.17633 0.05739 0.0
H1222 H 0.6893 0.14589 0.03597 0.0
H1223 H 0.72948 0.19384 0.06012 0.0
H1224 H 0.75338 0.11856 0.98888 0.0
H1225 H 0.77015 0.07694 0.02202 0.0
H1226 H 0.74061 0.0939 0.96121 0.0
H1227 H 0.7569 0.05299 0.99382 0.0
H1228 H 0.79259 0.15503 0.96609 0.0
H1229 H 0.75488 0.18724 0.98982 0.0
H1230 H 0.69814 0.08819 0.07124 0.0
H1231 H 0.69591 0.06967 0.00988 0.0
Li1232 Li 0.19279 0.55717 0.25333 0.0
Li1233 Li 0.16818 0.53859 0.26808 0.0
Li1234 Li 0.18895 0.52407 0.24787 0.0
Li1235 Li 0.16478 0.53895 0.23313 0.0
C1236 C 0.2062 0.54488 0.2904 0.0
N1237 N 0.22823 0.55473 0.32592 0.0
C1238 C 0.20117 0.55688 0.30489 0.0
C1239 C 0.22243 0.53791 0.29392 0.0
C1240 C 0.21248 0.56164 0.3228 0.0
C1241 C 0.23341 0.5431 0.31196 0.0
C1242 C 0.15428 0.57154 0.25436 0.0
C1243 C 0.12269 0.5762 0.24994 0.0
N1244 N 0.12897 0.59475 0.25544 0.0
C1245 C 0.16041 0.59063 0.26006 0.0
C1246 C 0.13526 0.56423 0.24935 0.0
C1247 C 0.1474 0.60214 0.26049 0.0
C1248 C 0.20642 0.5919 0.24457 0.0
N1249 N 0.21045 0.57885 0.25579 0.0
C1250 C 0.23829 0.59895 0.27136 0.0
C1251 C 0.22629 0.58172 0.26849 0.0
C1252 C 0.23393 0.61303 0.26078 0.0
C1253 C 0.21809 0.6093 0.24685 0.0
H1254 H 0.19379 0.58894 0.23439 0.0
H1255 H 0.22948 0.57085 0.27666 0.0
C1256 C 0.1534 0.51991 0.29762 0.0
N1257 N 0.15504 0.53606 0.28952 0.0
C1258 C 0.14289 0.51731 0.31307 0.0
C1259 C 0.13613 0.54803 0.31136 0.0
C1260 C 0.14695 0.55013 0.29623 0.0
C1261 C 0.13393 0.53142 0.31981 0.0
H1262 H 0.16011 0.50903 0.29192 0.0
H1263 H 0.14889 0.56299 0.2899 0.0
C1264 C 0.20414 0.54456 0.21636 0.0
N1265 N 0.23132 0.55056 0.19191 0.0
C1266 C 0.19916 0.54478 0.19644 0.0
C1267 C 0.22289 0.54737 0.22389 0.0
C1268 C 0.21312 0.5478 0.1843 0.0
C1269 C 0.23645 0.55044 0.21128 0.0
C1270 C 0.14676 0.50313 0.24585 0.0
C1271 C 0.1485 0.48485 0.24027 0.0
C1272 C 0.12951 0.50679 0.24979 0.0
C1273 C 0.13285 0.4705 0.23858 0.0
C1274 C 0.11418 0.49206 0.24787 0.0
N1275 N 0.11615 0.47437 0.24236 0.0
C1276 C 0.20131 0.49537 0.26067 0.0
C1277 C 0.20719 0.49919 0.22811 0.0
C1278 C 0.20878 0.47954 0.25997 0.0
N1279 N 0.20059 0.50463 0.24487 0.0
C1280 C 0.21495 0.48339 0.22679 0.0
C1281 C 0.21538 0.47335 0.24278 0.0
H1282 H 0.19571 0.50017 0.27363 0.0
H1283 H 0.20604 0.50682 0.21572 0.0
C1284 C 0.14271 0.55185 0.20474 0.0
N1285 N 0.1483 0.53669 0.21092 0.0
C1286 C 0.12964 0.54969 0.18839 0.0
C1287 C 0.12956 0.51662 0.18436 0.0
C1288 C 0.14238 0.51937 0.201 0.0
C1289 C 0.12292 0.53189 0.17823 0.0
H1290 H 0.14832 0.56552 0.21257 0.0
H1291 H 0.14765 0.50775 0.20604 0.0
O1292 O 0.19528 0.53977 0.27285 0.0
O1293 O 0.16693 0.56018 0.2536 0.0
O1294 O 0.19058 0.54128 0.22827 0.0
O1295 O 0.162 0.51726 0.24763 0.0
H1296 H 0.18871 0.56247 0.30233 0.0
H1297 H 0.22657 0.52873 0.28276 0.0
H1298 H 0.20874 0.57085 0.33421 0.0
H1299 H 0.24606 0.53789 0.31486 0.0
H1300 H 0.10794 0.57074 0.24596 0.0
H1301 H 0.17506 0.59649 0.2642 0.0
H1302 H 0.13028 0.54955 0.24472 0.0
H1303 H 0.15197 0.61695 0.26483 0.0
H1304 H 0.25057 0.60141 0.28202 0.0
H1305 H 0.21428 0.61997 0.23854 0.0
H1306 H 0.14149 0.50438 0.31944 0.0
H1307 H 0.12967 0.55933 0.31656 0.0
H1308 H 0.18465 0.54251 0.19043 0.0
H1309 H 0.2269 0.5471 0.23928 0.0
H1310 H 0.20948 0.54792 0.16883 0.0
H1311 H 0.25104 0.55266 0.21687 0.0
H1312 H 0.1618 0.4818 0.23725 0.0
H1313 H 0.128 0.52078 0.25449 0.0
H1314 H 0.13398 0.45628 0.23426 0.0
H1315 H 0.10073 0.49469 0.25085 0.0
H1316 H 0.20915 0.47201 0.27257 0.0
H1317 H 0.21997 0.47874 0.21339 0.0
H1318 H 0.12494 0.56174 0.18359 0.0
H1319 H 0.12468 0.50277 0.17655 0.0
Li1320 Li 0.77643 0.89254 0.53378 0.0
Li1321 Li 0.79104 0.86986 0.55128 0.0
Li1322 Li 0.81136 0.89621 0.53597 0.0
Li1323 Li 0.79037 0.86819 0.51433 0.0
C1324 C 0.79455 0.91079 0.57217 0.0
N1325 N 0.79315 0.93772 0.60235 0.0
C1326 C 0.78736 0.90568 0.58913 0.0
C1327 C 0.80114 0.92954 0.57057 0.0
C1328 C 0.78674 0.91952 0.60422 0.0
C1329 C 0.80028 0.94297 0.586 0.0
C1330 C 0.75399 0.85141 0.53047 0.0
C1331 C 0.7382 0.8193 0.52369 0.0
N1332 N 0.72299 0.82391 0.53093 0.0
C1333 C 0.73821 0.85587 0.53779 0.0
C1334 C 0.75403 0.83302 0.52332 0.0
C1335 C 0.72267 0.84175 0.53792 0.0
C1336 C 0.7474 0.9076 0.51538 0.0
N1337 N 0.75598 0.90561 0.5331 0.0
C1338 C 0.73496 0.92132 0.54918 0.0
C1339 C 0.74991 0.91208 0.54985 0.0
C1340 C 0.72603 0.92388 0.53107 0.0
C1341 C 0.73243 0.91677 0.51403 0.0
H1342 H 0.7521 0.90194 0.50224 0.0
H1343 H 0.75653 0.90996 0.56379 0.0
C1344 C 0.80533 0.85955 0.58765 0.0
N1345 N 0.7899 0.85654 0.57426 0.0
C1346 C 0.80472 0.8519 0.60534 0.0
C1347 C 0.77245 0.83786 0.59515 0.0
C1348 C 0.77367 0.8458 0.57771 0.0
C1349 C 0.78804 0.84101 0.60945 0.0
H1350 H 0.81806 0.86827 0.58479 0.0
H1351 H 0.76142 0.84372 0.56722 0.0
C1352 C 0.79202 0.90826 0.50021 0.0
N1353 N 0.79078 0.93466 0.47495 0.0
C1354 C 0.79228 0.90347 0.48027 0.0
C1355 C 0.79108 0.92643 0.50735 0.0
C1356 C 0.79168 0.91704 0.46773 0.0
C1357 C 0.79045 0.93958 0.49432 0.0
C1358 C 0.82235 0.85577 0.53358 0.0
C1359 C 0.84099 0.86056 0.53052 0.0
C1360 C 0.81451 0.83737 0.53545 0.0
C1361 C 0.85155 0.84673 0.52933 0.0
C1362 C 0.82554 0.82394 0.53419 0.0
N1363 N 0.84367 0.82886 0.53118 0.0
C1364 C 0.84858 0.91382 0.55311 0.0
C1365 C 0.83879 0.92371 0.52311 0.0
C1366 C 0.86621 0.92537 0.55398 0.0
N1367 N 0.83527 0.91316 0.53779 0.0
C1368 C 0.85604 0.93561 0.52354 0.0
C1369 C 0.87009 0.93652 0.53906 0.0
H1370 H 0.84559 0.90519 0.56454 0.0
H1371 H 0.82837 0.92271 0.51078 0.0
C1372 C 0.77203 0.84731 0.47777 0.0
N1373 N 0.78871 0.85312 0.48919 0.0
C1374 C 0.77105 0.83808 0.45884 0.0
C1375 C 0.80435 0.84076 0.46376 0.0
C1376 C 0.8047 0.84995 0.48253 0.0
C1377 C 0.78741 0.83484 0.45142 0.0
H1378 H 0.75951 0.85027 0.48316 0.0
H1379 H 0.81785 0.85495 0.49163 0.0
O1380 O 0.79553 0.89742 0.55741 0.0
O1381 O 0.76928 0.86503 0.53017 0.0
O1382 O 0.79291 0.89522 0.51269 0.0
O1383 O 0.81194 0.86916 0.535 0.0
H1384 H 0.78224 0.8912 0.59058 0.0
H1385 H 0.80691 0.93366 0.5576 0.0
H1386 H 0.78117 0.9158 0.61742 0.0
H1387 H 0.80531 0.95755 0.58498 0.0
H1388 H 0.73801 0.80498 0.51822 0.0
H1389 H 0.738 0.87007 0.54339 0.0
H1390 H 0.76617 0.8294 0.51757 0.0
H1391 H 0.71036 0.84497 0.54359 0.0
H1392 H 0.73057 0.92656 0.56272 0.0
H1393 H 0.72576 0.918 0.49972 0.0
H1394 H 0.81721 0.85458 0.61571 0.0
H1395 H 0.75918 0.82985 0.59762 0.0
H1396 H 0.79307 0.88946 0.47457 0.0
H1397 H 0.79088 0.93031 0.52277 0.0
H1398 H 0.79195 0.91356 0.45226 0.0
H1399 H 0.78973 0.95371 0.49961 0.0
H1400 H 0.84721 0.8748 0.52908 0.0
H1401 H 0.80009 0.83354 0.53791 0.0
H1402 H 0.86601 0.8502 0.52695 0.0
H1403 H 0.8197 0.80962 0.53564 0.0
H1404 H 0.87665 0.92564 0.56623 0.0
H1405 H 0.85852 0.94368 0.51155 0.0
H1406 H 0.75768 0.83409 0.44989 0.0
H1407 H 0.81733 0.83844 0.45893 0.0
Li1408 Li 0.93938 0.01544 0.28081 0.0
Li1409 Li 0.91203 0.99412 0.25924 0.0
Li1410 Li 0.93783 0.01418 0.24378 0.0
Li1411 Li 0.91469 0.02823 0.26028 0.0
C1412 C 0.95219 0.98302 0.26209 0.0
N1413 N 0.9785 0.961 0.26448 0.0
C1414 C 0.94686 0.96422 0.26428 0.0
C1415 C 0.97086 0.99067 0.26111 0.0
C1416 C 0.96038 0.95331 0.26548 0.0
C1417 C 0.98396 0.97929 0.26234 0.0
C1418 C 0.89846 0.00981 0.29373 0.0
C1419 C 0.86657 0.00861 0.29942 0.0
N1420 N 0.87099 0.0053 0.31805 0.0
C1421 C 0.9027 0.00635 0.31291 0.0
C1422 C 0.88026 0.01094 0.2869 0.0
C1423 C 0.88861 0.00412 0.32499 0.0
C1424 C 0.95218 0.03297 0.31955 0.0
N1425 N 0.95383 0.01844 0.30652 0.0
C1426 C 0.97228 0.00702 0.3313 0.0
C1427 C 0.96373 0.00561 0.31205 0.0
C1428 C 0.97043 0.02162 0.34522 0.0
C1429 C 0.96033 0.0348 0.339 0.0
H1430 H 0.94404 0.04289 0.31495 0.0
H1431 H 0.9646 0.99392 0.30173 0.0
C1432 C 0.8846 0.96188 0.24176 0.0
N1433 N 0.89549 0.97048 0.25842 0.0
C1434 C 0.8727 0.94463 0.24168 0.0
C1435 C 0.88371 0.94526 0.27577 0.0
C1436 C 0.89522 0.96255 0.27524 0.0
C1437 C 0.87224 0.93604 0.25883 0.0
H1438 H 0.88522 0.96832 0.22849 0.0
H1439 H 0.90409 0.96962 0.28826 0.0
C1440 C 0.9561 0.05076 0.26272 0.0
N1441 N 0.98424 0.08073 0.26051 0.0
C1442 C 0.95193 0.06656 0.25522 0.0
C1443 C 0.97453 0.0502 0.2692 0.0
C1444 C 0.96636 0.08158 0.25419 0.0
C1445 C 0.98858 0.06549 0.26791 0.0
C1446 C 0.89598 0.01029 0.22328 0.0
C1447 C 0.89982 0.01636 0.20544 0.0
C1448 C 0.87751 0.00521 0.22685 0.0
C1449 C 0.8851 0.01747 0.19155 0.0
C1450 C 0.86317 0.0065 0.21258 0.0
N1451 N 0.86723 0.01257 0.19538 0.0
C1452 C 0.95892 1.00183 0.21349 0.0
C1453 C 0.95199 0.03177 0.21229 0.0
C1454 C 0.9672 1.00302 0.19619 0.0
N1455 N 0.9515 0.0161 0.2212 0.0
C1456 C 0.95976 0.03337 0.1948 0.0
C1457 C 0.96742 0.01884 0.18644 0.0
H1458 H 0.95803 0.98929 0.22045 0.0
H1459 H 0.9457 0.04279 0.21839 0.0
C1460 C 0.89697 0.05494 0.27782 0.0
N1461 N 0.90128 0.04796 0.26038 0.0
C1462 C 0.8871 0.0693 0.27887 0.0
C1463 C 0.88687 0.0696 0.24408 0.0
C1464 C 0.89668 0.05512 0.24369 0.0
C1465 C 0.88182 0.07674 0.26183 0.0
H1466 H 0.90128 0.04939 0.29097 0.0
H1467 H 0.90074 0.04973 0.2301 0.0
O1468 O 0.93911 0.9938 0.26071 0.0
O1469 O 0.91225 0.01281 0.282 0.0
O1470 O 0.94211 0.03622 0.26443 0.0
O1471 O 0.91024 0.00888 0.23692 0.0
H1472 H 0.93243 0.95812 0.26499 0.0
H1473 H 0.97513 0.00521 0.25933 0.0
H1474 H 0.95647 0.93872 0.26716 0.0
H1475 H 0.99847 0.98498 0.26156 0.0
H1476 H 0.85244 0.00957 0.29436 0.0
H1477 H 0.91674 0.00549 0.31844 0.0
H1478 H 0.87683 0.01397 0.27223 0.0
H1479 H 0.89171 1.00152 0.3399 0.0
H1480 H 0.97969 0.99638 0.3354 0.0
H1481 H 0.95863 0.04638 0.3491 0.0
H1482 H 0.86424 0.93792 0.22826 0.0
H1483 H 0.88368 0.93922 0.28934 0.0
H1484 H 0.93769 0.06725 0.25031 0.0
H1485 H 0.9779 0.03813 0.27528 0.0
H1486 H 0.96335 0.09391 0.24844 0.0
H1487 H 1.00292 0.06528 0.27287 0.0
H1488 H 0.91399 0.02012 0.2023 0.0
H1489 H 0.87426 1.0001 0.24038 0.0
H1490 H 0.88789 0.02219 0.1777 0.0
H1491 H 0.8488 1.00259 0.21515 0.0
H1492 H 0.97278 0.99142 0.19014 0.0
H1493 H 0.95967 0.04582 0.1878 0.0
H1494 H 0.88383 0.0747 0.29292 0.0
H1495 H 0.8831 0.07499 0.23063 0.0
Li1496 Li 0.27158 0.64142 0.56482 0.0
Li1497 Li 0.28595 0.61817 0.5476 0.0
Li1498 Li 0.2705 0.64003 0.52983 0.0
Li1499 Li 0.25286 0.61412 0.54346 0.0
C1500 C 0.30619 0.66129 0.55441 0.0
N1501 N 0.33349 0.69313 0.56373 0.0
C1502 C 0.32463 0.65997 0.55979 0.0
C1503 C 0.3016 0.67876 0.55375 0.0
C1504 C 0.33825 0.67624 0.56444 0.0
C1505 C 0.31561 0.69471 0.55854 0.0
C1506 C 0.26704 0.60197 0.5801 0.0
C1507 C 0.26112 0.56989 0.58599 0.0
N1508 N 0.26182 0.57546 0.60539 0.0
C1509 C 0.26764 0.6074 0.60007 0.0
C1510 C 0.26372 0.58309 0.57295 0.0
C1511 C 0.26499 0.59378 0.61263 0.0
C1512 C 0.25678 0.65909 0.59445 0.0
N1513 N 0.27292 0.6562 0.58806 0.0
C1514 C 0.29087 0.67342 0.61673 0.0
C1515 C 0.28974 0.66279 0.59881 0.0
C1516 C 0.27447 0.67687 0.62359 0.0
C1517 C 0.25724 0.66953 0.61237 0.0
H1518 H 0.24362 0.65316 0.58567 0.0
H1519 H 0.30221 0.6596 0.59357 0.0
C1520 C 0.31243 0.60372 0.53173 0.0
N1521 N 0.30487 0.60552 0.54859 0.0
C1522 C 0.32581 0.59302 0.53008 0.0
C1523 C 0.32348 0.58646 0.56336 0.0
C1524 C 0.31018 0.59751 0.56441 0.0
C1525 C 0.33121 0.58395 0.5459 0.0
H1526 H 0.30781 0.61045 0.51954 0.0
H1527 H 0.30395 0.59948 0.57769 0.0
C1528 C 0.23726 0.65113 0.54256 0.0
N1529 N 0.21149 0.67347 0.5373 0.0
C1530 C 0.21888 0.64322 0.53483 0.0
C1531 C 0.24253 0.67037 0.54772 0.0
C1532 C 0.20605 0.65476 0.53228 0.0
C1533 C 0.22931 0.68144 0.54488 0.0
C1534 C 0.2639 0.59884 0.50812 0.0
C1535 C 0.25609 0.60194 0.48985 0.0
C1536 C 0.26622 0.58097 0.51128 0.0
C1537 C 0.25046 0.58698 0.47506 0.0
C1538 C 0.2604 0.56638 0.49611 0.0
N1539 N 0.2527 0.56966 0.47848 0.0
C1540 C 0.28769 0.66361 0.50519 0.0
C1541 C 0.25482 0.65446 0.49841 0.0
C1542 C 0.28822 0.67461 0.49006 0.0
N1543 N 0.27112 0.65414 0.5092 0.0
C1544 C 0.25471 0.66499 0.48295 0.0
C1545 C 0.27155 0.67546 0.47879 0.0
H1546 H 0.30047 0.66267 0.51378 0.0
H1547 H 0.24194 0.64637 0.50171 0.0
C1548 C 0.22304 0.59693 0.55849 0.0
N1549 N 0.23078 0.59702 0.54159 0.0
C1550 C 0.20536 0.58656 0.55878 0.0
C1551 C 0.20418 0.57614 0.52433 0.0
C1552 C 0.22194 0.58676 0.52471 0.0
C1553 C 0.19564 0.57655 0.5414 0.0
H1554 H 0.23023 0.60572 0.57148 0.0
H1555 H 0.22804 0.58759 0.51134 0.0
O1556 O 0.29285 0.64546 0.5494 0.0
O1557 O 0.2696 0.61519 0.56768 0.0
O1558 O 0.24979 0.63995 0.54576 0.0
O1559 O 0.26937 0.61331 0.52276 0.0
H1560 H 0.32837 0.6465 0.56025 0.0
H1561 H 0.28745 0.67998 0.54934 0.0
H1562 H 0.3526 0.67544 0.56857 0.0
H1563 H 0.31228 0.70833 0.55804 0.0
H1564 H 0.25853 0.55521 0.58068 0.0
H1565 H 0.27016 0.62199 0.6058 0.0
H1566 H 0.2631 0.5787 0.55752 0.0
H1567 H 0.26546 0.59778 0.62813 0.0
H1568 H 0.30434 0.67871 0.62525 0.0
H1569 H 0.24435 0.67205 0.6173 0.0
H1570 H 0.33194 0.59193 0.51658 0.0
H1571 H 0.32747 0.5798 0.57587 0.0
H1572 H 0.21455 0.62832 0.53095 0.0
H1573 H 0.25658 0.67666 0.55409 0.0
H1574 H 0.19176 0.64884 0.52637 0.0
H1575 H 0.23319 0.69636 0.54881 0.0
H1576 H 0.25428 0.6157 0.48715 0.0
H1577 H 0.27241 0.5784 0.52527 0.0
H1578 H 0.2443 0.58914 0.46087 0.0
H1579 H 0.26202 0.55245 0.49836 0.0
H1580 H 0.30148 0.6825 0.48741 0.0
H1581 H 0.24159 0.6648 0.47427 0.0
H1582 H 0.19888 0.58728 0.57208 0.0
H1583 H 0.1967 0.56887 0.51062 0.0
Li1584 Li 0.41148 0.4944 0.75981 0.0
Li1585 Li 0.43892 0.51555 0.78109 0.0
Li1586 Li 0.41432 0.52862 0.76105 0.0
Li1587 Li 0.43743 0.51466 0.74447 0.0
C1588 C 0.39819 0.5105 0.79458 0.0
N1589 N 0.37081 0.50669 0.81904 0.0
C1590 C 0.40278 0.50917 0.81433 0.0
C1591 C 0.37969 0.50991 0.78726 0.0
C1592 C 0.38873 0.50722 0.82646 0.0
C1593 C 0.36605 0.50798 0.79986 0.0
C1594 C 0.45181 0.48353 0.76321 0.0
C1595 C 0.48369 0.48008 0.7639 0.0
N1596 N 0.47841 0.46192 0.76662 0.0
C1597 C 0.44666 0.46486 0.76602 0.0
C1598 C 0.47042 0.49124 0.76212 0.0
C1599 C 0.46033 0.45415 0.7677 0.0
C1600 C 0.38447 0.46165 0.74243 0.0
N1601 N 0.39485 0.4708 0.75915 0.0
C1602 C 0.3823 0.44637 0.77716 0.0
C1603 C 0.39397 0.4635 0.77631 0.0
C1604 C 0.37138 0.43653 0.76015 0.0
C1605 C 0.37254 0.44446 0.74261 0.0
H1606 H 0.38552 0.46763 0.72891 0.0
H1607 H 0.40244 0.47099 0.78938 0.0
C1608 C 0.46258 0.53435 0.81599 0.0
N1609 N 0.4536 0.51755 0.80628 0.0
C1610 C 0.47124 0.53566 0.8352 0.0
C1611 C 0.46129 0.50242 0.83408 0.0
C1612 C 0.45303 0.50171 0.81487 0.0
C1613 C 0.47038 0.51959 0.84465 0.0
H1614 H 0.46254 0.54682 0.80906 0.0
H1615 H 0.44557 0.48856 0.80699 0.0
C1616 C 0.3959 0.51087 0.72365 0.0
N1617 N 0.36784 0.51289 0.69485 0.0
C1618 C 0.40026 0.51736 0.70614 0.0
C1619 C 0.37727 0.50524 0.72643 0.0
C1620 C 0.38588 0.51832 0.69177 0.0
C1621 C 0.36328 0.50643 0.71173 0.0
C1622 C 0.45593 0.55113 0.76378 0.0
C1623 C 0.45194 0.56757 0.75767 0.0
C1624 C 0.47439 0.54984 0.76907 0.0
C1625 C 0.46655 0.58245 0.75678 0.0
C1626 C 0.48862 0.56504 0.768 0.0
N1627 N 0.48444 0.58089 0.76193 0.0
C1628 C 0.39474 0.55445 0.77762 0.0
C1629 C 0.3984 0.55657 0.74435 0.0
C1630 C 0.38498 0.56891 0.77809 0.0
N1631 N 0.40096 0.54838 0.76085 0.0
C1632 C 0.38902 0.57136 0.74428 0.0
C1633 C 0.38207 0.5775 0.76128 0.0
H1634 H 0.39748 0.54817 0.79071 0.0
H1635 H 0.40389 0.5518 0.73134 0.0
C1636 C 0.45778 0.50245 0.71351 0.0
N1637 N 0.45126 0.51692 0.72219 0.0
C1638 C 0.46624 0.50417 0.69638 0.0
C1639 C 0.46125 0.53564 0.69748 0.0
C1640 C 0.453 0.53335 0.71457 0.0
C1641 C 0.46783 0.52089 0.68795 0.0
H1642 H 0.45598 0.48938 0.71957 0.0
H1643 H 0.44737 0.54453 0.72139 0.0
O1644 O 0.41188 0.51299 0.78267 0.0
O1645 O 0.43852 0.49398 0.7609 0.0
O1646 O 0.40983 0.50936 0.73763 0.0
O1647 O 0.44177 0.53661 0.76517 0.0
H1648 H 0.41705 0.50978 0.82028 0.0
H1649 H 0.37597 0.51129 0.77211 0.0
H1650 H 0.39209 0.50621 0.8418 0.0
H1651 H 0.35168 0.50763 0.79441 0.0
H1652 H 0.49817 0.48584 0.76303 0.0
H1653 H 0.43224 0.45869 0.76673 0.0
H1654 H 0.47453 0.50561 0.75968 0.0
H1655 H 0.45656 0.43966 0.76981 0.0
H1656 H 0.38173 0.44098 0.79105 0.0
H1657 H 0.36458 0.43729 0.7291 0.0
H1658 H 0.47791 0.54921 0.84283 0.0
H1659 H 0.46038 0.48966 0.84069 0.0
H1660 H 0.41459 0.52153 0.7036 0.0
H1661 H 0.37364 0.49976 0.73967 0.0
H1662 H 0.38907 0.52332 0.67815 0.0
H1663 H 0.3488 0.50212 0.7137 0.0
H1664 H 0.43771 0.56884 0.75368 0.0
H1665 H 0.47767 0.53731 0.77413 0.0
H1666 H 0.46367 0.59526 0.75206 0.0
H1667 H 0.50299 0.56426 0.77208 0.0
H1668 H 0.37999 0.57353 0.79152 0.0
H1669 H 0.38704 0.5778 0.7311 0.0
H1670 H 0.47089 0.49233 0.68945 0.0
H1671 H 0.46229 0.54883 0.69168 0.0
Li1672 Li 0.6701 0.03899 0.76871 0.0
Li1673 Li 0.69482 0.05653 0.75352 0.0
Li1674 Li 0.66689 0.03794 0.73376 0.0
Li1675 Li 0.69092 0.02339 0.74923 0.0
C1676 C 0.65643 0.07093 0.75654 0.0
N1677 N 0.63124 0.0937 0.76242 0.0
C1678 C 0.66274 0.08978 0.76344 0.0
C1679 C 0.63732 0.06363 0.75279 0.0
C1680 C 0.64978 0.10108 0.76628 0.0
C1681 C 0.62481 0.07537 0.75581 0.0
C1682 C 0.70898 0.04512 0.79074 0.0
C1683 C 0.73703 0.04311 0.8108 0.0
N1684 N 0.73288 0.05517 0.82507 0.0
C1685 C 0.70502 0.05757 0.80553 0.0
C1686 C 0.72509 0.03782 0.79335 0.0
C1687 C 0.71726 0.06243 0.82282 0.0
C1688 C 0.64926 0.02022 0.79429 0.0
N1689 N 0.65647 0.03738 0.78975 0.0
C1690 C 0.64145 0.05192 0.81386 0.0
C1691 C 0.6531 0.05311 0.79937 0.0
C1692 C 0.63317 0.03435 0.81836 0.0
C1693 C 0.63739 0.01834 0.80863 0.0
H1694 H 0.65241 0.00798 0.78646 0.0
H1695 H 0.65933 0.06657 0.79568 0.0
C1696 C 0.7076 0.09136 0.74459 0.0
N1697 N 0.71227 0.07841 0.75562 0.0
C1698 C 0.71838 0.10922 0.74734 0.0
C1699 C 0.73911 0.0996 0.77191 0.0
C1700 C 0.72804 0.08187 0.76849 0.0
C1701 C 0.73394 0.11354 0.76163 0.0
H1702 H 0.69499 0.08799 0.73437 0.0
H1703 H 0.73174 0.07114 0.77657 0.0
C1704 C 0.64867 1.00277 0.74413 0.0
N1705 N 0.61813 0.97398 0.73421 0.0
C1706 C 0.65097 0.98517 0.73655 0.0
C1707 C 0.63087 0.0057 0.74681 0.0
C1708 C 0.63535 0.97079 0.73161 0.0
C1709 C 0.6156 0.99099 0.74163 0.0
C1710 C 0.70587 0.04404 0.71684 0.0
C1711 C 0.70042 0.04512 0.6972 0.0
C1712 C 0.72475 0.04684 0.72387 0.0
C1713 C 0.71405 0.04894 0.6848 0.0
C1714 C 0.73796 0.05075 0.71102 0.0
N1715 N 0.73238 0.05167 0.69192 0.0
C1716 C 0.64199 0.04901 0.70654 0.0
C1717 C 0.64654 0.01793 0.70096 0.0
C1718 C 0.62844 0.04579 0.69049 0.0
N1719 N 0.65025 0.03496 0.71165 0.0
C1720 C 0.63318 0.01412 0.68475 0.0
C1721 C 0.62389 0.02811 0.67962 0.0
H1722 H 0.64589 0.06262 0.71492 0.0
H1723 H 0.65393 0.00733 0.70512 0.0
C1724 C 0.7022 0.99411 0.76243 0.0
N1725 N 0.70229 1.00368 0.74682 0.0
C1726 C 0.70916 0.97796 0.76172 0.0
C1727 C 0.71651 0.98215 0.72897 0.0
C1728 C 0.70923 0.99825 0.73027 0.0
C1729 C 0.71611 0.97178 0.74473 0.0
H1730 H 0.69637 0.99893 0.77521 0.0
H1731 H 0.7087 0.00613 0.71802 0.0
O1732 O 0.669 0.05988 0.75306 0.0
O1733 O 0.69709 0.03988 0.77383 0.0
O1734 O 0.66389 0.01687 0.74937 0.0
O1735 O 0.69265 0.03971 0.72893 0.0
H1736 H 0.67748 0.09565 0.76654 0.0
H1737 H 0.63221 0.04916 0.74722 0.0
H1738 H 0.65447 0.11572 0.77152 0.0
H1739 H 0.60998 0.06992 0.7528 0.0
H1740 H 0.7496 0.03762 0.813 0.0
H1741 H 0.69271 0.06348 0.80365 0.0
H1742 H 0.72841 0.02828 0.78195 0.0
H1743 H 0.71436 0.072 0.83443 0.0
H1744 H 0.63894 0.06462 0.82145 0.0
H1745 H 0.63127 0.00458 0.81173 0.0
H1746 H 0.71401 0.11978 0.73924 0.0
H1747 H 0.75121 0.10256 0.78286 0.0
H1748 H 0.66468 0.98264 0.73452 0.0
H1749 H 0.62888 0.01909 0.75306 0.0
H1750 H 0.63692 0.95709 0.72574 0.0
H1751 H 0.60174 0.99307 0.74361 0.0
H1752 H 0.68582 0.04283 0.69156 0.0
H1753 H 0.72912 0.04592 0.73904 0.0
H1754 H 0.71005 0.0497 0.66952 0.0
H1755 H 0.75264 0.05297 0.71622 0.0
H1756 H 0.62181 0.057 0.68641 0.0
H1757 H 0.63008 1.00043 0.67638 0.0
H1758 H 0.70895 0.97024 0.77419 0.0
H1759 H 0.72183 0.97756 0.71574 0.0
Li1760 Li 0.77023 0.68624 0.03113 0.0
Li1761 Li 0.78257 0.66108 0.01195 0.0
Li1762 Li 0.76821 0.6843 0.99406 0.0
Li1763 Li 0.74822 0.65879 0.00904 0.0
C1764 C 0.80543 0.70303 0.01665 0.0
N1765 N 0.83565 0.73225 0.02114 0.0
C1766 C 0.82328 0.7001 0.0223 0.0
C1767 C 0.8029 0.72077 0.01325 0.0
C1768 C 0.83839 0.71507 0.02451 0.0
C1769 C 0.81838 0.73538 0.01561 0.0
C1770 C 0.76909 0.6462 0.04485 0.0
C1771 C 0.76681 0.61434 0.05098 0.0
N1772 N 0.77539 0.62033 0.06944 0.0
C1773 C 0.77782 0.65208 0.06388 0.0
C1774 C 0.76346 0.62721 0.03833 0.0
C1775 C 0.78091 0.63877 0.07609 0.0
C1776 C 0.75755 0.69682 0.06649 0.0
N1777 N 0.77224 0.70124 0.05631 0.0
C1778 C 0.78799 0.72401 0.08297 0.0
C1779 C 0.78734 0.71456 0.06417 0.0
C1780 C 0.773 0.71966 0.09393 0.0
C1781 C 0.75765 0.70579 0.08529 0.0
H1782 H 0.74581 0.686 0.06008 0.0
H1783 H 0.79899 0.71778 0.05598 0.0
C1784 C 0.8068 0.63955 0.99543 0.0
N1785 N 0.8024 0.64759 0.01239 0.0
C1786 C 0.82163 0.63016 0.99561 0.0
C1787 C 0.82734 0.63784 0.03065 0.0
C1788 C 0.81239 0.64698 0.02979 0.0
C1789 C 0.83218 0.62931 0.0134 0.0
H1790 H 0.79899 0.64065 0.9817 0.0
H1791 H 0.80897 0.65388 0.04301 0.0
C1792 C 0.73746 0.69874 0.00864 0.0
N1793 N 0.7152 0.72439 0.00339 0.0
C1794 C 0.71988 0.69321 0.99783 0.0
C1795 C 0.74376 0.71724 0.01686 0.0
C1796 C 0.70881 0.70641 0.99533 0.0
C1797 C 0.73229 0.73003 0.01399 0.0
C1798 C 0.75872 0.6423 0.97331 0.0
C1799 C 0.75235 0.64569 0.95463 0.0
C1800 C 0.75992 0.62421 0.97675 0.0
C1801 C 0.74747 0.6309 0.93959 0.0
C1802 C 0.75487 0.60978 0.96134 0.0
N1803 N 0.74884 0.6134 0.94323 0.0
C1804 C 0.78189 0.69174 0.95858 0.0
C1805 C 0.76145 0.71149 0.9673 0.0
C1806 C 0.78397 0.69949 0.94114 0.0
N1807 N 0.7706 0.69761 0.97119 0.0
C1808 C 0.76332 0.7198 0.95008 0.0
C1809 C 0.77453 0.71367 0.93657 0.0
H1810 H 0.7891 0.68075 0.96196 0.0
H1811 H 0.75253 0.71604 0.97737 0.0
C1812 C 0.71903 0.63779 0.02533 0.0
N1813 N 0.72428 0.64228 0.00793 0.0
C1814 C 0.70182 0.62624 0.02618 0.0
C1815 C 0.69543 0.62421 0.99117 0.0
C1816 C 0.7129 0.63573 0.99097 0.0
C1817 C 0.6896 0.61933 0.00898 0.0
H1818 H 0.72821 0.64327 0.03865 0.0
H1819 H 0.71725 0.63963 0.97731 0.0
O1820 O 0.79057 0.68847 0.0141 0.0
O1821 O 0.76576 0.65903 0.03279 0.0
O1822 O 0.74828 0.68597 0.01159 0.0
O1823 O 0.76447 0.65678 0.98792 0.0
H1824 H 0.82544 0.6864 0.0249 0.0
H1825 H 0.78914 0.72319 0.00879 0.0
H1826 H 0.8523 0.71302 0.02887 0.0
H1827 H 0.81667 0.74921 0.01301 0.0
H1828 H 0.76253 0.59958 0.04615 0.0
H1829 H 0.7822 0.66675 0.06913 0.0
H1830 H 0.75648 0.62248 0.02371 0.0
H1831 H 0.78769 0.64309 0.09085 0.0
H1832 H 0.80009 0.73465 0.08878 0.0
H1833 H 0.74593 0.70151 0.09311 0.0
H1834 H 0.82506 0.62402 0.98195 0.0
H1835 H 0.83503 0.63742 0.04469 0.0
H1836 H 0.71483 0.67887 0.9915 0.0
H1837 H 0.75734 0.72165 0.02534 0.0
H1838 H 0.69514 0.70235 0.98702 0.0
H1839 H 0.73695 0.74442 0.02022 0.0
H1840 H 0.75131 0.65962 0.95173 0.0
H1841 H 0.76499 0.6214 0.99108 0.0
H1842 H 0.74264 0.63334 0.92503 0.0
H1843 H 0.75587 0.59573 0.96375 0.0
H1844 H 0.79293 0.69445 0.93132 0.0
H1845 H 0.75568 0.73061 0.94715 0.0
H1846 H 0.69823 0.6227 0.04025 0.0
H1847 H 0.68647 0.6195 0.97753 0.0
Li1848 Li 0.86558 0.49761 0.78856 0.0
Li1849 Li 0.89158 0.51443 0.81199 0.0
Li1850 Li 0.86848 0.53009 0.79678 0.0
Li1851 Li 0.89139 0.51815 0.77767 0.0
C1852 C 0.85372 0.51085 0.82846 0.0
N1853 N 0.83068 0.51028 0.85743 0.0
C1854 C 0.85962 0.50629 0.84679 0.0
C1855 C 0.83607 0.51502 0.82481 0.0
C1856 C 0.84777 0.50608 0.86125 0.0
C1857 C 0.82465 0.51471 0.83967 0.0
C1858 C 0.90401 0.48408 0.79224 0.0
C1859 C 0.93515 0.47831 0.79304 0.0
N1860 N 0.9288 0.46067 0.79691 0.0
C1861 C 0.89776 0.4659 0.79617 0.0
C1862 C 0.92281 0.49036 0.79058 0.0
C1863 C 0.91053 0.45427 0.79851 0.0
C1864 C 0.85192 0.46391 0.76618 0.0
N1865 N 0.84956 0.4748 0.78233 0.0
C1866 C 0.82715 0.4506 0.79136 0.0
C1867 C 0.83729 0.46874 0.79468 0.0
C1868 C 0.82987 0.43876 0.77525 0.0
C1869 C 0.84205 0.44565 0.76226 0.0
H1870 H 0.86205 0.46922 0.75686 0.0
H1871 H 0.83587 0.47771 0.80747 0.0
C1872 C 0.90771 0.53219 0.84676 0.0
N1873 N 0.90609 0.51569 0.83545 0.0
C1874 C 0.91845 0.5356 0.8648 0.0
C1875 C 0.92502 0.5046 0.85949 0.0
C1876 C 0.91416 0.50182 0.84144 0.0
C1877 C 0.92736 0.52176 0.87118 0.0
H1878 H 0.90066 0.54271 0.84164 0.0
H1879 H 0.91224 0.48869 0.83231 0.0
C1880 C 0.8499 0.50816 0.75625 0.0
N1881 N 0.82052 0.4915 0.72821 0.0
C1882 C 0.85297 0.50416 0.73689 0.0
C1883 C 0.83185 0.50391 0.76131 0.0
C1884 C 0.83795 0.49569 0.72293 0.0
C1885 C 0.8172 0.4954 0.74694 0.0
C1886 C 0.91091 0.55179 0.80331 0.0
C1887 C 0.90878 0.56994 0.80128 0.0
C1888 C 0.9286 0.54825 0.80855 0.0
C1889 C 0.92449 0.58433 0.80444 0.0
C1890 C 0.94395 0.56303 0.81166 0.0
N1891 N 0.9416 0.58061 0.80954 0.0
C1892 C 0.85783 0.55932 0.81866 0.0
C1893 C 0.84584 0.55279 0.78503 0.0
C1894 C 0.84854 0.57404 0.821 0.0
N1895 N 0.8562 0.54917 0.80088 0.0
C1896 C 0.83635 0.56721 0.78668 0.0
C1897 C 0.83761 0.57797 0.80483 0.0
H1898 H 0.86643 0.55603 0.83087 0.0
H1899 H 0.84524 0.54465 0.77105 0.0
C1900 C 0.90319 0.50537 0.74445 0.0
N1901 N 0.90608 0.52077 0.7577 0.0
C1902 C 0.91333 0.50516 0.72872 0.0
C1903 C 0.9298 0.53649 0.74106 0.0
C1904 C 0.9189 0.53626 0.75628 0.0
C1905 C 0.92707 0.52076 0.72705 0.0
H1906 H 0.89288 0.49327 0.74614 0.0
H1907 H 0.92083 0.54836 0.76697 0.0
O1908 O 0.8651 0.51082 0.81411 0.0
O1909 O 0.89166 0.49551 0.78964 0.0
O1910 O 0.86439 0.51674 0.77005 0.0
O1911 O 0.89563 0.53764 0.80036 0.0
H1912 H 0.87313 0.50275 0.84979 0.0
H1913 H 0.83124 0.51844 0.81066 0.0
H1914 H 0.85215 0.50254 0.87549 0.0
H1915 H 0.81097 0.51796 0.83708 0.0
H1916 H 0.94976 0.48297 0.79183 0.0
H1917 H 0.88321 0.46085 0.79745 0.0
H1918 H 0.9278 0.50438 0.78742 0.0
H1919 H 0.90591 0.44017 0.80158 0.0
H1920 H 0.81775 0.44569 0.80158 0.0
H1921 H 0.84463 0.43678 0.74985 0.0
H1922 H 0.9198 0.54887 0.87367 0.0
H1923 H 0.93179 0.49366 0.86408 0.0
H1924 H 0.86674 0.50778 0.73259 0.0
H1925 H 0.82923 0.50706 0.7762 0.0
H1926 H 0.84013 0.49254 0.70789 0.0
H1927 H 0.80318 0.49193 0.75068 0.0
H1928 H 0.89514 0.57286 0.79724 0.0
H1929 H 0.93044 0.53426 0.81021 0.0
H1930 H 0.92307 0.59845 0.80287 0.0
H1931 H 0.95774 0.56053 0.81574 0.0
H1932 H 0.84995 0.58228 0.8351 0.0
H1933 H 0.82856 0.57027 0.77373 0.0
H1934 H 0.91041 0.49289 0.71803 0.0
H1935 H 0.94043 0.54869 0.7405 0.0
Li1936 Li 0.79118 0.41304 0.5147 0.0
Li1937 Li 0.77732 0.43529 0.4972 0.0
Li1938 Li 0.79283 0.41233 0.48025 0.0
Li1939 Li 0.81065 0.43909 0.50238 0.0
C1940 C 0.75664 0.39361 0.4962 0.0
N1941 N 0.72887 0.36467 0.50212 0.0
C1942 C 0.74031 0.39731 0.50289 0.0
C1943 C 0.75878 0.37523 0.49228 0.0
C1944 C 0.72644 0.38247 0.50585 0.0
C1945 C 0.7446 0.36078 0.49545 0.0
C1946 C 0.79946 0.45355 0.53769 0.0
C1947 C 0.80736 0.48601 0.55076 0.0
N1948 N 0.81128 0.48115 0.56886 0.0
C1949 C 0.8036 0.44886 0.5564 0.0
C1950 C 0.8013 0.47226 0.53482 0.0
C1951 C 0.80953 0.46303 0.57199 0.0
C1952 C 0.80477 0.39196 0.5409 0.0
N1953 N 0.78934 0.39839 0.53497 0.0
C1954 C 0.77297 0.38413 0.55914 0.0
C1955 C 0.77361 0.39486 0.54374 0.0
C1956 C 0.78877 0.37731 0.56551 0.0
C1957 C 0.80471 0.3811 0.55602 0.0
H1958 H 0.81729 0.39557 0.53417 0.0
H1959 H 0.76177 0.40071 0.53909 0.0
C1960 C 0.74728 0.44697 0.47804 0.0
N1961 N 0.75795 0.4475 0.49531 0.0
C1962 C 0.73213 0.45577 0.47739 0.0
C1963 C 0.73983 0.46557 0.51218 0.0
C1964 C 0.7545 0.45636 0.5122 0.0
C1965 C 0.7285 0.46524 0.49465 0.0
H1966 H 0.7504 0.43951 0.46496 0.0
H1967 H 0.7629 0.45595 0.52575 0.0
C1968 C 0.82472 0.40102 0.49724 0.0
N1969 N 0.84803 0.37662 0.48983 0.0
C1970 C 0.84345 0.40782 0.49564 0.0
C1971 C 0.81783 0.38184 0.49514 0.0
C1972 C 0.85501 0.39525 0.49187 0.0
C1973 C 0.82984 0.36972 0.49137 0.0
C1974 C 0.79579 0.45171 0.46521 0.0
C1975 C 0.79808 0.44673 0.44578 0.0
C1976 C 0.79483 0.47005 0.4716 0.0
C1977 C 0.79949 0.46025 0.43304 0.0
C1978 C 0.79628 0.48317 0.45841 0.0
N1979 N 0.79857 0.47805 0.43957 0.0
C1980 C 0.77471 0.39094 0.4468 0.0
C1981 C 0.80765 0.39461 0.44975 0.0
C1982 C 0.77289 0.38006 0.42889 0.0
N1983 N 0.79186 0.39771 0.45682 0.0
C1984 C 0.80647 0.38348 0.4321 0.0
C1985 C 0.78893 0.37617 0.42162 0.0
H1986 H 0.76249 0.39405 0.45275 0.0
H1987 H 0.82111 0.40083 0.45771 0.0
C1988 C 0.84266 0.46367 0.52301 0.0
N1989 N 0.83315 0.45602 0.50536 0.0
C1990 C 0.86005 0.47529 0.52402 0.0
C1991 C 0.85754 0.47043 0.48874 0.0
C1992 C 0.8402 0.45908 0.48843 0.0
C1993 C 0.86772 0.47858 0.5067 0.0
H1994 H 0.83707 0.46037 0.53627 0.0
H1995 H 0.8327 0.45207 0.47471 0.0
O1996 O 0.77021 0.40793 0.49298 0.0
O1997 O 0.79308 0.43983 0.52241 0.0
O1998 O 0.81333 0.41315 0.50134 0.0
O1999 O 0.79474 0.43866 0.47787 0.0
H2000 H 0.73841 0.41148 0.50582 0.0
H2001 H 0.77118 0.37216 0.48674 0.0
H2002 H 0.71375 0.3851 0.51109 0.0
H2003 H 0.74608 0.34648 0.49254 0.0
H2004 H 0.80888 0.50055 0.54875 0.0
H2005 H 0.80211 0.43444 0.55889 0.0
H2006 H 0.79808 0.47611 0.52047 0.0
H2007 H 0.81269 0.45961 0.58657 0.0
H2008 H 0.76056 0.38175 0.56639 0.0
H2009 H 0.81715 0.37601 0.56049 0.0
H2010 H 0.72335 0.45517 0.46375 0.0
H2011 H 0.73699 0.47239 0.52581 0.0
H2012 H 0.84901 0.42264 0.49739 0.0
H2013 H 0.80343 0.37639 0.49656 0.0
H2014 H 0.86955 0.4003 0.49062 0.0
H2015 H 0.82472 0.35483 0.48974 0.0
H2016 H 0.79889 0.43258 0.44063 0.0
H2017 H 0.79298 0.47409 0.48655 0.0
H2018 H 0.80133 0.45661 0.41798 0.0
H2019 H 0.79559 0.49743 0.46315 0.0
H2020 H 0.7592 0.37451 0.42095 0.0
H2021 H 0.81904 0.38072 0.4266 0.0
H2022 H 0.86759 0.48124 0.53815 0.0
H2023 H 0.86324 0.47207 0.47511 0.0
Li2024 Li 0.62105 0.53965 0.30117 0.0
Li2025 Li 0.64697 0.55907 0.28637 0.0
Li2026 Li 0.61921 0.53766 0.26433 0.0
Li2027 Li 0.64377 0.52456 0.28313 0.0
C2028 C 0.6071 0.5705 0.2872 0.0
N2029 N 0.58126 0.59231 0.29358 0.0
C2030 C 0.61295 0.58891 0.29586 0.0
C2031 C 0.58818 0.56313 0.28174 0.0
C2032 C 0.59965 0.59973 0.29899 0.0
C2033 C 0.57531 0.57441 0.2851 0.0
C2034 C 0.66258 0.54622 0.32219 0.0
C2035 C 0.69447 0.54685 0.33459 0.0
N2036 N 0.69086 0.55236 0.35286 0.0
C2037 C 0.65915 0.55187 0.34107 0.0
C2038 C 0.68034 0.54363 0.31889 0.0
C2039 C 0.67364 0.55491 0.35639 0.0
C2040 C 0.60611 0.52154 0.33179 0.0
N2041 N 0.60769 0.53781 0.32387 0.0
C2042 C 0.59293 0.5509 0.34964 0.0
C2043 C 0.60127 0.55238 0.33245 0.0
C2044 C 0.59128 0.53432 0.35833 0.0
C2045 C 0.59794 0.51948 0.349 0.0
H2046 H 0.61159 0.51023 0.32493 0.0
H2047 H 0.60288 0.56531 0.3262 0.0
C2048 C 0.67046 0.58804 0.27181 0.0
N2049 N 0.66419 0.58258 0.28848 0.0
C2050 C 0.6829 0.60496 0.27224 0.0
C2051 C 0.68175 0.61085 0.3069 0.0
C2052 C 0.66957 0.59358 0.30587 0.0
C2053 C 0.68865 0.61666 0.28992 0.0
H2054 H 0.66567 0.57933 0.25807 0.0
H2055 H 0.66427 0.58903 0.31891 0.0
C2056 C 0.60237 0.502 0.27788 0.0
N2057 N 0.57438 0.47061 0.27251 0.0
C2058 C 0.60604 0.48476 0.27097 0.0
C2059 C 0.5845 0.50333 0.28205 0.0
C2060 C 0.59169 0.46904 0.26834 0.0
C2061 C 0.57052 0.48728 0.27923 0.0
C2062 C 0.65964 0.53983 0.25048 0.0
C2063 C 0.65441 0.53359 0.23064 0.0
C2064 C 0.67849 0.5444 0.25792 0.0
C2065 C 0.66818 0.53189 0.21856 0.0
C2066 C 0.69184 0.54254 0.24537 0.0
N2067 N 0.68645 0.53636 0.22611 0.0
C2068 C 0.59926 0.55014 0.23251 0.0
C2069 C 0.60029 0.51811 0.22788 0.0
C2070 C 0.5904 0.54902 0.21346 0.0
N2071 N 0.60414 0.53485 0.2393 0.0
C2072 C 0.59158 0.51641 0.20868 0.0
C2073 C 0.58669 0.53205 0.20109 0.0
H2074 H 0.6028 0.56338 0.24169 0.0
H2075 H 0.60456 0.50621 0.23347 0.0
C2076 C 0.6603 0.49684 0.29922 0.0
N2077 N 0.65666 0.50442 0.28254 0.0
C2078 C 0.66957 0.48193 0.29903 0.0
C2079 C 0.67107 0.48293 0.26454 0.0
C2080 C 0.66152 0.49753 0.26533 0.0
C2081 C 0.67524 0.47499 0.28154 0.0
H2082 H 0.65599 0.50237 0.31266 0.0
H2083 H 0.65784 0.5032 0.25211 0.0
O2084 O 0.61994 0.55985 0.2838 0.0
O2085 O 0.64838 0.54255 0.30719 0.0
O2086 O 0.61641 0.51735 0.28127 0.0
O2087 O 0.64633 0.54148 0.26249 0.0
H2088 H 0.6276 0.59476 0.3001 0.0
H2089 H 0.58351 0.5489 0.27493 0.0
H2090 H 0.60394 0.61401 0.30569 0.0
H2091 H 0.56059 0.56894 0.28094 0.0
H2092 H 0.70829 0.54486 0.33226 0.0
H2093 H 0.64541 0.55377 0.34387 0.0
H2094 H 0.68313 0.53896 0.30442 0.0
H2095 H 0.67119 0.55924 0.37109 0.0
H2096 H 0.58785 0.56268 0.35608 0.0
H2097 H 0.59732 0.50652 0.3552 0.0
H2098 H 0.68764 0.60906 0.25877 0.0
H2099 H 0.68583 0.6195 0.32081 0.0
H2100 H 0.61985 0.48351 0.26779 0.0
H2101 H 0.58153 0.51658 0.28757 0.0
H2102 H 0.59433 0.45558 0.26306 0.0
H2103 H 0.55662 0.48806 0.28246 0.0
H2104 H 0.63987 0.53004 0.22465 0.0
H2105 H 0.68275 0.54942 0.2732 0.0
H2106 H 0.66434 0.52702 0.20319 0.0
H2107 H 0.70649 0.54603 0.25092 0.0
H2108 H 0.58715 0.56151 0.20823 0.0
H2109 H 0.58889 0.50301 0.19978 0.0
H2110 H 0.67252 0.47609 0.31241 0.0
H2111 H 0.67491 0.47769 0.25071 0.0
C2112 C 0.991 0.97509 0.98947 0.0
C2113 C 0.97323 0.95888 0.01238 0.0
C2114 C 0.9841 0.9752 0.0074 0.0
C2115 C 0.96984 0.94237 0.99939 0.0
C2116 C 0.98731 0.95861 0.97625 0.0
C2117 C 0.97685 0.94224 0.98138 0.0
N2118 N 1.00116 0.99114 0.9849 0.0
C2119 C 0.00706 0.99188 0.96695 0.0
C2120 C 0.99404 0.95913 0.95814 0.0
C2121 C 1.0038 0.97588 0.95341 0.0
Gd2122 Gd 0.05477 0.03805 0.03622 0.0
Gd2123 Gd 0.00526 0.01712 0.00865 0.0
N2124 N 0.98774 0.99132 0.0198 0.0
C2125 C 0.96576 0.95974 0.0301 0.0
C2126 C 0.97932 0.99257 0.03632 0.0
C2127 C 0.96857 0.97674 0.04197 0.0
H2128 H 0.98046 0.00581 0.04495 0.0
H2129 H 0.96222 0.97773 0.05532 0.0
H2130 H 0.07099 0.05249 0.9953 0.0
H2131 H 0.01371 0.00487 0.96268 0.0
H2132 H 0.08368 0.08184 0.98345 0.0
H2133 H 0.95732 0.94751 0.03446 0.0
H2134 H 0.96161 0.92968 0.00302 0.0
H2135 H 0.04927 0.04892 0.08319 0.0
H2136 H 0.99145 0.94677 0.94757 0.0
H2137 H 0.0086 0.97654 0.93924 0.0
H2138 H 0.08878 0.12769 0.0389 0.0
H2139 H 0.97394 0.92944 0.97144 0.0
H2140 H 0.06856 0.10761 0.09798 0.0
H2141 H 0.0548 0.07697 0.10726 0.0
N2142 N 0.05844 0.06369 0.06009 0.0
C2143 C 0.06655 0.08029 0.05479 0.0
C2144 C 0.05451 0.0623 0.07872 0.0
C2145 C 0.06584 0.09538 0.08723 0.0
C2146 C 0.05798 0.07813 0.09251 0.0
C2147 C 0.07032 0.09662 0.06824 0.0
H2148 H 0.08136 0.12633 0.07248 0.0
N2149 N 0.0668 0.06512 0.02291 0.0
C2150 C 0.0708 0.08104 0.03572 0.0
C2151 C 0.08307 0.09847 0.01065 0.0
C2152 C 0.07888 0.09817 0.02982 0.0
C2153 C 0.07202 0.06521 0.00464 0.0
C2154 C 0.07981 0.08187 0.99807 0.0
O2155 O 0.0215 0.99448 0.0163 0.0
O2156 O 0.04541 0.00764 0.04088 0.0
O2157 O 0.08244 0.0352 0.03058 0.0
O2158 O 0.07631 0.03967 0.06032 0.0
O2159 O 0.00743 0.02971 0.04049 0.0
O2160 O 0.03497 0.02477 0.05565 0.0
O2161 O 0.0349 0.05848 0.03151 0.0
O2162 O 0.01833 0.04594 0.0022 0.0
O2163 O 0.98081 0.02825 0.01379 0.0
O2164 O 0.98388 0.0158 0.98439 0.0
O2165 O 0.05336 0.02281 0.00552 0.0
O2166 O 0.02667 0.02895 0.99031 0.0
C2167 C 0.03447 0.99292 0.03033 0.0
C2168 C 0.01755 0.02617 0.05589 0.0
C2169 C 0.09714 0.01993 0.05375 0.0
C2170 C 0.11827 0.99976 0.04522 0.0
C2171 C 0.10235 0.99591 0.07386 0.0
C2172 C 0.09361 0.01061 0.07008 0.0
C2173 C 0.11461 0.99043 0.06147 0.0
C2174 C 0.1094 0.01438 0.04143 0.0
C2175 C 0.08818 0.03531 0.049 0.0
C2176 C 0.08261 0.11442 0.04321 0.0
C2177 C 0.07839 0.11364 0.06235 0.0
H2178 H 0.08923 0.11136 0.00555 0.0
C2179 C 0.02504 0.06053 0.01519 0.0
C2180 C 0.04302 0.0247 0.98954 0.0
C2181 C 0.95601 0.02792 0.98788 0.0
C2182 C 0.92843 0.03981 0.99402 0.0
C2183 C 0.93217 0.02781 0.96108 0.0
C2184 C 0.94926 0.02382 0.96795 0.0
C2185 C 0.92172 0.03572 0.97404 0.0
C2186 C 0.94568 0.03609 0.00073 0.0
C2187 C 0.97389 0.02401 0.99544 0.0
H2188 H 0.09978 0.98887 0.08653 0.0
H2189 H 0.08412 0.01461 0.07986 0.0
H2190 H 0.12157 0.97924 0.06487 0.0
H2191 H 0.11202 0.02148 0.02875 0.0
H2192 H 0.92695 0.02463 0.94572 0.0
H2193 H 0.95715 0.01759 0.95772 0.0
H2194 H 0.90829 0.03832 0.9685 0.0
H2195 H 0.95109 0.03962 0.01606 0.0
C2196 C 0.30608 0.74455 0.22305 0.0
C2197 C 0.2811 0.73058 0.19738 0.0
C2198 C 0.28873 0.74443 0.21319 0.0
C2199 C 0.29098 0.71671 0.19202 0.0
C2200 C 0.31615 0.73079 0.21763 0.0
C2201 C 0.30846 0.71681 0.20212 0.0
N2202 N 0.3129 0.75791 0.23833 0.0
C2203 C 0.32996 0.75879 0.24843 0.0
C2204 C 0.33359 0.73143 0.22809 0.0
C2205 C 0.34057 0.74558 0.24349 0.0
Gd2206 Gd 0.26214 0.77343 0.2966 0.0
Gd2207 Gd 0.29384 0.7786 0.24705 0.0
N2208 N 0.27941 0.75788 0.21902 0.0
C2209 C 0.26384 0.73118 0.18732 0.0
C2210 C 0.26304 0.75906 0.2085 0.0
C2211 C 0.25491 0.74562 0.19275 0.0
H2212 H 0.25619 0.77043 0.21174 0.0
H2213 H 0.2418 0.74652 0.1847 0.0
H2214 H 0.29912 0.78064 0.33213 0.0
H2215 H 0.33543 0.7697 0.2603 0.0
H2216 H 0.31157 0.80195 0.36186 0.0
H2217 H 0.25749 0.72079 0.17511 0.0
H2218 H 0.28526 0.70589 0.18 0.0
H2219 H 0.22033 0.78294 0.28234 0.0
H2220 H 0.34177 0.72112 0.22438 0.0
H2221 H 0.35407 0.74626 0.25161 0.0
H2222 H 0.26567 0.83936 0.3699 0.0
H2223 H 0.31593 0.70605 0.1978 0.0
H2224 H 0.21141 0.82728 0.32263 0.0
H2225 H 0.20087 0.80487 0.29277 0.0
N2226 N 0.24215 0.7932 0.30566 0.0
C2227 C 0.2479 0.80496 0.32252 0.0
C2228 C 0.22535 0.79286 0.29519 0.0
C2229 C 0.2201 0.81772 0.31809 0.0
C2230 C 0.21414 0.80515 0.30118 0.0
C2231 C 0.23713 0.81771 0.32903 0.0
H2232 H 0.23563 0.84004 0.3513 0.0
N2233 N 0.27518 0.79239 0.32611 0.0
C2234 C 0.26487 0.80453 0.33307 0.0
C2235 C 0.28855 0.8161 0.36058 0.0
C2236 C 0.27143 0.8169 0.35032 0.0
C2237 C 0.29148 0.79103 0.3366 0.0
C2238 C 0.29851 0.80297 0.35379 0.0
O2239 O 0.28794 0.74991 0.25538 0.0
O2240 O 0.26328 0.75748 0.2677 0.0
O2241 O 0.26248 0.75082 0.31412 0.0
O2242 O 0.23622 0.75664 0.30211 0.0
O2243 O 0.2646 0.78592 0.24316 0.0
O2244 O 0.24559 0.77439 0.26666 0.0
O2245 O 0.27388 0.80376 0.29599 0.0
O2246 O 0.28327 0.78817 0.27298 0.0
O2247 O 0.29457 0.80031 0.2283 0.0
O2248 O 0.31991 0.79753 0.24542 0.0
O2249 O 0.29206 0.76716 0.29949 0.0
O2250 O 0.31085 0.78173 0.27743 0.0
C2251 C 0.27409 0.74563 0.26533 0.0
C2252 C 0.24827 0.78193 0.2502 0.0
C2253 C 0.23866 0.74885 0.3342 0.0
C2254 C 0.24377 0.74243 0.3676 0.0
C2255 C 0.22172 0.76162 0.35878 0.0
C2256 C 0.22563 0.75957 0.33952 0.0
C2257 C 0.23088 0.75322 0.37286 0.0
C2258 C 0.24741 0.74004 0.34828 0.0
C2259 C 0.24455 0.74801 0.31463 0.0
C2260 C 0.26079 0.8297 0.35674 0.0
C2261 C 0.24368 0.83008 0.34615 0.0
H2262 H 0.29408 0.82538 0.37387 0.0
C2263 C 0.2834 0.8044 0.28163 0.0
C2264 C 0.30857 0.77317 0.29338 0.0
C2265 C 0.32172 0.80538 0.21333 0.0
C2266 C 0.32286 0.81501 0.18093 0.0
C2267 C 0.34191 0.7936 0.19175 0.0
C2268 C 0.33475 0.7942 0.2096 0.0
C2269 C 0.33601 0.80392 0.17745 0.0
C2270 C 0.31595 0.81583 0.199 0.0
C2271 C 0.31264 0.80512 0.23119 0.0
H2272 H 0.21172 0.76989 0.36282 0.0
H2273 H 0.21869 0.76663 0.32896 0.0
H2274 H 0.2278 0.75495 0.38778 0.0
H2275 H 0.25751 0.73179 0.34435 0.0
H2276 H 0.35186 0.78489 0.18889 0.0
H2277 H 0.33921 0.78573 0.22028 0.0
H2278 H 0.3414 0.80293 0.16353 0.0
H2279 H 0.30581 0.82438 0.20182 0.0
C2280 C 0.57257 0.06517 0.49388 0.0
C2281 C 0.59427 0.08401 0.52037 0.0
C2282 C 0.58103 0.0677 0.5131 0.0
C2283 C 0.5986 0.0979 0.50822 0.0
C2284 C 0.57705 0.07899 0.48159 0.0
C2285 C 0.59001 0.09541 0.4889 0.0
N2286 N 0.55978 0.0493 0.48732 0.0
C2287 C 0.55171 0.04595 0.4684 0.0
C2288 C 0.56833 0.07591 0.46233 0.0
C2289 C 0.55572 0.05925 0.45567 0.0
Gd2290 Gd 0.50666 0.02492 0.53484 0.0
Gd2291 Gd 0.55399 0.02823 0.51006 0.0
N2292 N 0.5761 0.05428 0.52474 0.0
C2293 C 0.60288 0.08576 0.53959 0.0
C2294 C 0.58536 0.0553 0.54291 0.0
C2295 C 0.59861 0.07119 0.5508 0.0
H2296 H 0.58295 0.04364 0.55109 0.0
H2297 H 0.60572 0.07208 0.56541 0.0
H2298 H 0.48183 0.00394 0.49241 0.0
H2299 H 0.54251 0.03287 0.46296 0.0
H2300 H 0.46121 0.97377 0.4798 0.0
H2301 H 0.61317 0.09805 0.54572 0.0
H2302 H 0.60865 0.11059 0.51359 0.0
H2303 H 0.51755 0.02431 0.58291 0.0
H2304 H 0.57139 0.0862 0.45243 0.0
H2305 H 0.54918 0.05658 0.4407 0.0
H2306 H 0.4571 0.94091 0.5359 0.0
H2307 H 0.59354 0.10623 0.47971 0.0
H2308 H 0.49075 0.97146 0.59695 0.0
H2309 H 0.51122 1.00237 0.60709 0.0
N2310 N 0.50164 0.00559 0.55918 0.0
C2311 C 0.48988 0.9889 0.55334 0.0
C2312 C 0.50898 0.01068 0.57824 0.0
C2313 C 0.49362 0.98096 0.58623 0.0
C2314 C 0.50523 0.99838 0.59201 0.0
C2315 C 0.48571 0.97606 0.56673 0.0
H2316 H 0.47052 0.94871 0.57034 0.0
N2317 N 0.48691 0.99694 0.52103 0.0
C2318 C 0.4822 0.9845 0.5338 0.0
C2319 C 0.46291 0.96321 0.5076 0.0
C2320 C 0.4703 0.96716 0.52732 0.0
C2321 C 0.47912 0.99353 0.50204 0.0
C2322 C 0.4672 0.97653 0.49496 0.0
O2323 O 0.54445 0.05613 0.51736 0.0
O2324 O 0.52608 0.05323 0.54247 0.0
O2325 O 0.48129 0.03517 0.52523 0.0
O2326 O 0.49055 0.03472 0.55619 0.0
O2327 O 0.55191 0.01899 0.53981 0.0
O2328 O 0.53282 0.03581 0.55475 0.0
O2329 O 0.518 0.99786 0.5288 0.0
O2330 O 0.53315 1.00088 0.5016 0.0
O2331 O 0.57736 0.01443 0.51808 0.0
O2332 O 0.56979 0.01917 0.48794 0.0
O2333 O 0.50963 0.03603 0.50638 0.0
O2334 O 0.52747 0.01916 0.48987 0.0
C2335 C 0.53631 0.06356 0.53152 0.0
C2336 C 0.54736 0.02811 0.55516 0.0
C2337 C 0.46227 0.04613 0.54964 0.0
C2338 C 0.43674 0.06261 0.54437 0.0
C2339 C 0.44447 0.05309 0.5761 0.0
C2340 C 0.4587 0.04538 0.56909 0.0
C2341 C 0.43362 0.06173 0.56388 0.0
C2342 C 0.45101 0.05462 0.5371 0.0
C2343 C 0.47826 0.03865 0.54332 0.0
C2344 C 0.46619 0.95433 0.54064 0.0
C2345 C 0.47385 0.95877 0.56026 0.0
H2346 H 0.45372 0.95002 0.50205 0.0
C2347 C 0.52452 0.99038 0.51346 0.0
C2348 C 0.51329 0.02746 0.49032 0.0
C2349 C 0.59605 0.00417 0.49296 0.0
C2350 C 0.62077 0.98638 0.49708 0.0
C2351 C 0.61284 0.99674 0.46579 0.0
C2352 C 0.59922 0.00499 0.47341 0.0
C2353 C 0.62348 0.98745 0.47747 0.0
C2354 C 0.6071 0.99497 0.50496 0.0
C2355 C 0.58089 0.01269 0.50002 0.0
H2356 H 0.44194 0.05249 0.59112 0.0
H2357 H 0.46702 0.0389 0.57904 0.0
H2358 H 0.42269 0.06777 0.56967 0.0
H2359 H 0.45361 0.05544 0.52211 0.0
H2360 H 0.61511 0.99748 0.45072 0.0
H2361 H 0.59111 0.01201 0.46384 0.0
H2362 H 0.634 0.9811 0.47118 0.0
H2363 H 0.60486 0.99414 0.52005 0.0
C2364 C 0.23546 0.29644 0.73201 0.0
C2365 C 0.216 0.26903 0.71263 0.0
C2366 C 0.22855 0.27735 0.72926 0.0
C2367 C 0.21108 0.28006 0.69841 0.0
C2368 C 0.23035 0.30759 0.71789 0.0
C2369 C 0.21832 0.29926 0.70098 0.0
N2370 N 0.24685 0.30414 0.74866 0.0
C2371 C 0.2529 0.32297 0.7525 0.0
C2372 C 0.23727 0.32681 0.72131 0.0
C2373 C 0.24847 0.33454 0.73876 0.0
Gd2374 Gd 0.30508 0.26978 0.77596 0.0
Gd2375 Gd 0.25372 0.28316 0.77017 0.0
N2376 N 0.2342 0.26688 0.74283 0.0
C2377 C 0.20893 0.24982 0.71074 0.0
C2378 C 0.22666 0.24842 0.74162 0.0
C2379 C 0.21416 0.23951 0.7254 0.0
H2380 H 0.22989 0.24073 0.75341 0.0
H2381 H 0.20839 0.22476 0.72435 0.0
H2382 H 0.32426 0.31481 0.79189 0.0
H2383 H 0.26085 0.3292 0.76627 0.0
H2384 H 0.33993 0.33357 0.82252 0.0
H2385 H 0.19929 0.24289 0.69816 0.0
H2386 H 0.20166 0.27388 0.6854 0.0
H2387 H 0.29932 0.22511 0.78417 0.0
H2388 H 0.23373 0.33584 0.71077 0.0
H2389 H 0.2535 0.34944 0.74175 0.0
H2390 H 0.34577 0.2885 0.86674 0.0
H2391 H 0.21431 0.3076 0.68992 0.0
H2392 H 0.322 0.22411 0.8432 0.0
H2393 H 0.30582 0.20747 0.81153 0.0
N2394 N 0.31116 0.25148 0.80043 0.0
C2395 C 0.32045 0.26092 0.81756 0.0
C2396 C 0.3061 0.23253 0.79803 0.0
C2397 C 0.31911 0.23195 0.83127 0.0
C2398 C 0.30993 0.22249 0.81343 0.0
C2399 C 0.32452 0.25138 0.83352 0.0
H2400 H 0.33686 0.25438 0.86365 0.0
N2401 N 0.32082 0.28924 0.80384 0.0
C2402 C 0.32548 0.2803 0.8193 0.0
C2403 C 0.33964 0.30983 0.83826 0.0
C2404 C 0.33472 0.29043 0.83704 0.0
C2405 C 0.32648 0.308 0.80461 0.0
C2406 C 0.33571 0.31863 0.82189 0.0
O2407 O 0.26501 0.27494 0.74169 0.0
O2408 O 0.28789 0.25754 0.74742 0.0
O2409 O 0.32934 0.28105 0.76181 0.0
O2410 O 0.32675 0.25409 0.7717 0.0
O2411 O 0.25704 0.25556 0.78056 0.0
O2412 O 0.28135 0.24504 0.767 0.0
O2413 O 0.28907 0.27337 0.80229 0.0
O2414 O 0.27375 0.29684 0.79641 0.0
O2415 O 0.233 0.27142 0.7883 0.0
O2416 O 0.23148 0.29734 0.77706 0.0
O2417 O 0.30139 0.29558 0.76207 0.0
O2418 O 0.27866 0.30701 0.77711 0.0
C2419 C 0.27676 0.2647 0.73567 0.0
C2420 C 0.26517 0.24214 0.77392 0.0
C2421 C 0.34336 0.25859 0.74452 0.0
C2422 C 0.36835 0.25749 0.72366 0.0
C2423 C 0.33962 0.23412 0.71731 0.0
C2424 C 0.33272 0.24255 0.7331 0.0
C2425 C 0.35724 0.24145 0.71265 0.0
C2426 C 0.36122 0.26622 0.73958 0.0
C2427 C 0.33644 0.26619 0.76244 0.0
C2428 C 0.33874 0.28093 0.85297 0.0
C2429 C 0.33367 0.26148 0.85121 0.0
H2430 H 0.34674 0.31812 0.85164 0.0
C2431 C 0.28161 0.28738 0.8086 0.0
C2432 C 0.29334 0.30937 0.76758 0.0
C2433 C 0.21777 0.29235 0.80595 0.0
C2434 C 0.1928 0.29434 0.82652 0.0
C2435 C 0.22336 0.31456 0.83529 0.0
C2436 C 0.2297 0.30651 0.81886 0.0
C2437 C 0.20504 0.30865 0.83902 0.0
C2438 C 0.19931 0.28608 0.80997 0.0
C2439 C 0.22406 0.28505 0.78766 0.0
H2440 H 0.33128 0.22173 0.70868 0.0
H2441 H 0.31907 0.23637 0.73652 0.0
H2442 H 0.36227 0.23453 0.70035 0.0
H2443 H 0.36974 0.2784 0.74844 0.0
H2444 H 0.23262 0.32559 0.84508 0.0
H2445 H 0.24382 0.31158 0.81602 0.0
H2446 H 0.20042 0.31522 0.85179 0.0
H2447 H 0.18994 0.27523 0.80003 0.0
C2448 C 0.00681 0.06892 0.56216 0.0
C2449 C 0.0323 0.0918 0.5807 0.0
C2450 C 0.02508 0.07873 0.56412 0.0
C2451 C 0.02114 0.09433 0.59557 0.0
C2452 C 0.99536 0.07195 0.57674 0.0
C2453 C 1.00272 0.08442 0.59361 0.0
N2454 N 1.0001 0.05685 0.54573 0.0
C2455 C 0.98158 0.04897 0.54206 0.0
C2456 C 0.97671 0.06265 0.57374 0.0
C2457 C 0.96972 0.05138 0.55616 0.0
Gd2458 Gd 0.0366 1.0005 0.52139 0.0
Gd2459 Gd 0.02168 0.05265 0.52381 0.0
N2460 N 0.03571 0.07567 0.5497 0.0
C2461 C 0.05053 0.10195 0.5818 0.0
C2462 C 0.05299 0.08641 0.55011 0.0
C2463 C 0.06081 0.09945 0.56628 0.0
H2464 H 0.06057 0.08539 0.53772 0.0
H2465 H 0.07466 0.10773 0.56665 0.0
H2466 H 0.99457 0.97332 0.51191 0.0
H2467 H 0.97575 0.04094 0.5282 0.0
H2468 H 0.97546 0.95154 0.48455 0.0
H2469 H 0.05661 0.11207 0.59432 0.0
H2470 H 0.02654 0.10412 0.60853 0.0
H2471 H 0.08133 0.00578 0.5113 0.0
H2472 H 0.96746 0.06457 0.58461 0.0
H2473 H 0.95516 0.04468 0.55337 0.0
H2474 H 0.01715 0.94801 0.43604 0.0
H2475 H 0.99418 0.08677 0.60505 0.0
H2476 H 0.08059 0.97985 0.45326 0.0
H2477 H 0.09791 0.99837 0.48352 0.0
N2478 N 0.0544 0.99343 0.4963 0.0
C2479 C 0.04485 0.98201 0.48039 0.0
C2480 C 0.07337 0.99847 0.4979 0.0
C2481 C 0.07311 0.98346 0.46527 0.0
C2482 C 0.08293 0.99396 0.48229 0.0
C2483 C 0.0539 0.97694 0.46433 0.0
H2484 H 0.05036 0.96113 0.43565 0.0
N2485 N 0.01798 0.97915 0.49658 0.0
C2486 C 0.02618 0.9744 0.48066 0.0
C2487 C 0.99744 0.95384 0.46615 0.0
C2488 C 0.01602 0.96182 0.46485 0.0
C2489 C 1.00033 0.97052 0.49851 0.0
C2490 C 0.98964 0.95802 0.48318 0.0
O2491 O 0.0275 0.04109 0.55267 0.0
O2492 O 0.04894 0.02286 0.54631 0.0
O2493 O 0.0285 0.97877 0.541 0.0
O2494 O 0.05485 0.98239 0.52897 0.0
O2495 O 0.05205 0.05417 0.5204 0.0
O2496 O 0.06081 0.02512 0.52146 0.0
O2497 O 0.01885 0.00739 0.4954 0.0
O2498 O 0.03142 0.03818 0.49773 0.0
O2499 O 0.02663 0.08032 0.5136 0.0
O2500 O 1.00032 0.06057 0.50447 0.0
O2501 O 0.01114 0.00518 0.5353 0.0
O2502 O 0.99965 0.02595 0.51694 0.0
C2503 C 0.0399 0.03136 0.55853 0.0
C2504 C 0.0644 0.04331 0.52034 0.0
C2505 C 0.05047 0.95775 0.5493 0.0
C2506 C 0.04654 0.93093 0.56801 0.0
C2507 C 0.07591 0.94151 0.55575 0.0
C2508 C 0.06886 0.95557 0.54766 0.0
C2509 C 0.06491 0.92932 0.56581 0.0
C2510 C 0.03915 0.9452 0.55956 0.0
C2511 C 0.04403 0.973 0.53959 0.0
C2512 C 0.02477 0.95748 0.44844 0.0
C2513 C 0.04367 0.96501 0.44819 0.0
H2514 H 0.98915 0.94415 0.4543 0.0
C2515 C 0.02167 0.02295 0.48747 0.0
C2516 C 0.99725 0.01205 0.52758 0.0
C2517 C 1.00285 0.0906 0.49202 0.0
C2518 C 0.00634 0.11942 0.47649 0.0
C2519 C 0.97567 0.10032 0.47676 0.0
C2520 C 0.98351 0.0877 0.48677 0.0
C2521 C 0.98694 0.11605 0.47172 0.0
C2522 C 0.01439 0.10658 0.4867 0.0
C2523 C 0.01021 0.07705 0.50359 0.0
H2524 H 0.09005 0.94005 0.55422 0.0
H2525 H 0.07798 0.96476 0.53997 0.0
H2526 H 0.0708 0.91846 0.57195 0.0
H2527 H 0.02496 0.94653 0.56104 0.0
H2528 H 0.96074 0.09793 0.47295 0.0
H2529 H 0.9743 0.07574 0.49068 0.0
H2530 H 0.98046 0.12564 0.46393 0.0
H2531 H 0.02934 0.1091 0.49059 0.0
C2532 C 0.24379 0.72866 0.80185 0.0
C2533 C 0.21965 0.7127 0.77587 0.0
C2534 C 0.23754 0.72375 0.782 0.0
C2535 C 0.20777 0.70755 0.78978 0.0
C2536 C 0.23233 0.72223 0.81583 0.0
C2537 C 0.21411 0.71226 0.8097 0.0
N2538 N 0.26158 0.73815 0.80748 0.0
C2539 C 0.26949 0.73922 0.82639 0.0
C2540 C 0.23981 0.72518 0.83551 0.0
C2541 C 0.2586 0.7333 0.84075 0.0
Gd2542 Gd 0.28267 0.80514 0.76329 0.0
Gd2543 Gd 0.27758 0.74854 0.78177 0.0
N2544 N 0.24935 0.72864 0.76876 0.0
C2545 C 0.21449 0.70649 0.75596 0.0
C2546 C 0.24492 0.72145 0.74953 0.0
C2547 C 0.22734 0.71054 0.7428 0.0
H2548 H 0.25477 0.72449 0.73934 0.0
H2549 H 0.2237 0.70532 0.72747 0.0
H2550 H 0.30123 0.83261 0.80484 0.0
H2551 H 0.28413 0.74521 0.83048 0.0
H2552 H 0.32967 0.85606 0.81705 0.0
H2553 H 0.20087 0.69801 0.7507 0.0
H2554 H 0.1939 0.69928 0.78531 0.0
H2555 H 0.28385 0.79613 0.7135 0.0
H2556 H 0.23144 0.72044 0.84666 0.0
H2557 H 0.26473 0.73489 0.85582 0.0
H2558 H 0.3643 0.85948 0.76237 0.0
H2559 H 0.20503 0.70749 0.82027 0.0
H2560 H 0.33706 0.82327 0.70183 0.0
H2561 H 0.30644 0.80281 0.69067 0.0
N2562 N 0.3022 0.81052 0.73871 0.0
C2563 C 0.31837 0.82315 0.74483 0.0
C2564 C 0.29749 0.8041 0.71925 0.0
C2565 C 0.32736 0.81993 0.71227 0.0
C2566 C 0.31015 0.80829 0.70593 0.0
C2567 C 0.33149 0.82789 0.73177 0.0
H2568 H 0.35833 0.84444 0.7285 0.0
N2569 N 0.3088 0.82771 0.77646 0.0
C2570 C 0.32164 0.83209 0.76401 0.0
C2571 C 0.34105 0.854 0.78974 0.0
C2572 C 0.33822 0.84531 0.77047 0.0
C2573 C 0.31142 0.8362 0.79519 0.0
C2574 C 0.32757 0.84945 0.80213 0.0
O2575 O 0.252 0.75752 0.76549 0.0
O2576 O 0.25522 0.78987 0.77258 0.0
O2577 O 0.27285 0.83119 0.77214 0.0
O2578 O 0.26538 0.81545 0.74271 0.0
O2579 O 0.28868 0.76519 0.75898 0.0
O2580 O 0.27464 0.78158 0.73938 0.0
O2581 O 0.31037 0.79865 0.77735 0.0
O2582 O 0.30667 0.76779 0.78557 0.0
O2583 O 0.28348 0.72354 0.76602 0.0
O2584 O 0.2978 0.73436 0.79482 0.0
O2585 O 0.27889 0.7866 0.78613 0.0
O2586 O 0.27774 0.76844 0.80846 0.0
C2587 C 0.24497 0.77298 0.76621 0.0
C2588 C 0.27937 0.76591 0.74229 0.0
C2589 C 0.25289 0.84299 0.74709 0.0
C2590 C 0.2394 0.87071 0.75075 0.0
C2591 C 0.23582 0.85226 0.71909 0.0
C2592 C 0.24592 0.84016 0.7271 0.0
C2593 C 0.23259 0.86744 0.73079 0.0
C2594 C 0.24943 0.85831 0.75903 0.0
C2595 C 0.26388 0.82983 0.75458 0.0
C2596 C 0.35146 0.84944 0.7576 0.0
C2597 C 0.3481 0.8408 0.73833 0.0
H2598 H 0.35362 0.86419 0.79521 0.0
C2599 C 0.317 0.78444 0.78398 0.0
C2600 C 0.27803 0.7852 0.80457 0.0
C2601 C 0.29397 0.70237 0.78589 0.0
C2602 C 0.30757 0.67489 0.78734 0.0
C2603 C 0.28249 0.67914 0.8064 0.0
C2604 C 0.28171 0.6959 0.79901 0.0
C2605 C 0.29546 0.66875 0.80075 0.0
C2606 C 0.30668 0.69169 0.77982 0.0
C2607 C 0.29528 0.72114 0.78033 0.0
H2608 H 0.23053 0.84988 0.70373 0.0
H2609 H 0.2483 0.82857 0.71746 0.0
H2610 H 0.22463 0.87666 0.72423 0.0
H2611 H 0.2547 0.86074 0.77442 0.0
H2612 H 0.27319 0.67431 0.81671 0.0
H2613 H 0.27188 0.70399 0.8039 0.0
H2614 H 0.29596 0.65582 0.80672 0.0
H2615 H 0.31632 0.69678 0.76987 0.0
C2616 C 0.56185 1.00046 0.06976 0.0
C2617 C 0.57206 0.02306 0.09842 0.0
C2618 C 0.55939 0.01578 0.08157 0.0
C2619 C 0.5879 0.01537 0.10237 0.0
C2620 C 0.57722 0.99212 0.07404 0.0
C2621 C 0.59048 0.99991 0.09019 0.0
N2622 N 0.54896 0.99356 0.05409 0.0
C2623 C 0.54983 0.97754 0.04285 0.0
C2624 C 0.57864 0.97609 0.06208 0.0
C2625 C 0.56472 0.96862 0.04658 0.0
Gd2626 Gd 0.5296 0.04227 0.99714 0.0
Gd2627 Gd 0.52591 0.01076 0.04695 0.0
N2628 N 0.54402 0.0229 0.07714 0.0
C2629 C 0.56807 0.03739 0.11108 0.0
C2630 C 0.53914 0.03552 0.0904 0.0
C2631 C 0.55128 0.04328 0.10732 0.0
H2632 H 0.52588 0.03965 0.08802 0.0
H2633 H 0.5476 0.0537 0.1175 0.0
H2634 H 0.51937 0.00408 0.9631 0.0
H2635 H 0.53914 0.97175 0.03091 0.0
H2636 H 0.49678 0.99152 0.93431 0.0
H2637 H 0.57743 0.04339 0.12419 0.0
H2638 H 0.59797 0.02096 0.11507 0.0
H2639 H 0.52439 0.0861 0.00897 0.0
H2640 H 0.59022 0.96921 0.06489 0.0
H2641 H 0.5655 0.95605 0.03744 0.0
H2642 H 0.46215 0.0396 0.92567 0.0
H2643 H 0.60254 0.99387 0.09361 0.0
H2644 H 0.4793 0.09587 0.97018 0.0
H2645 H 0.50356 0.10669 0.9985 0.0
N2646 N 0.5115 0.06347 0.98741 0.0
C2647 C 0.49884 0.05757 0.97127 0.0
C2648 C 0.51361 0.08104 0.99685 0.0
C2649 C 0.48834 0.08671 0.97478 0.0
C2650 C 0.50197 0.09285 0.99081 0.0
C2651 C 0.48674 0.06895 0.96467 0.0
H2652 H 0.46397 0.07079 0.94308 0.0
N2653 N 0.50954 0.02925 0.96832 0.0
C2654 C 0.49791 0.04002 0.96133 0.0
C2655 C 0.4842 0.01561 0.93509 0.0
C2656 C 0.48472 0.03336 0.94473 0.0
C2657 C 0.50956 0.01225 0.95846 0.0
C2658 C 0.49682 0.00511 0.94188 0.0
O2659 O 0.55381 0.01674 0.03707 0.0
O2660 O 0.5476 0.04239 0.02531 0.0
O2661 O 0.55061 0.04059 0.97787 0.0
O2662 O 0.54793 0.0674 0.99192 0.0
O2663 O 0.52335 0.04165 0.05328 0.0
O2664 O 0.52615 0.059 0.02625 0.0
O2665 O 0.49962 0.02967 0.99754 0.0
O2666 O 0.51513 0.02296 0.02248 0.0
O2667 O 0.50293 0.00892 0.06368 0.0
O2668 O 0.50867 0.98373 0.0491 0.0
O2669 O 0.53607 0.0126 0.99477 0.0
O2670 O 0.52095 0.99404 0.01646 0.0
C2671 C 0.55884 0.03088 0.02768 0.0
C2672 C 0.52365 0.05728 0.04488 0.0
C2673 C 0.55623 0.06593 0.95995 0.0
C2674 C 0.56551 0.06345 0.92755 0.0
C2675 C 0.54945 0.08786 0.93774 0.0
C2676 C 0.5485 0.08139 0.9559 0.0
C2677 C 0.55796 0.07893 0.92355 0.0
C2678 C 0.56476 0.05707 0.94569 0.0
C2679 C 0.5555 0.05861 0.97874 0.0
C2680 C 0.47245 0.04454 0.93832 0.0
C2681 C 0.47347 0.06229 0.94825 0.0
H2682 H 0.47426 0.00998 0.9223 0.0
C2683 C 0.49884 0.02169 0.01298 0.0
C2684 C 0.52969 0.99616 0.00069 0.0
C2685 C 0.49778 0.98262 0.08009 0.0
C2686 C 0.49083 0.98564 0.11369 0.0
C2687 C 0.49905 0.95722 0.09944 0.0
C2688 C 0.50084 0.96462 0.08184 0.0
C2689 C 0.49397 0.96758 0.11526 0.0
C2690 C 0.493 0.99305 0.09613 0.0
C2691 C 0.4993 0.99085 0.06177 0.0
H2692 H 0.5436 0.09981 0.93467 0.0
H2693 H 0.54177 0.08848 0.96666 0.0
H2694 H 0.55872 0.08407 0.90954 0.0
H2695 H 0.57085 0.0452 0.94869 0.0
H2696 H 0.50135 0.94331 0.10072 0.0
H2697 H 0.50457 0.95628 0.06968 0.0
H2698 H 0.49206 0.96127 0.12851 0.0
H2699 H 0.49092 0.00706 0.09494 0.0
C2700 C 0.33447 0.31399 0.30308 0.0
C2701 C 0.35211 0.32159 0.27634 0.0
C2702 C 0.33497 0.31559 0.28337 0.0
C2703 C 0.3687 0.32542 0.28923 0.0
C2704 C 0.35106 0.31844 0.31619 0.0
C2705 C 0.36817 0.32389 0.30911 0.0
N2706 N 0.31771 0.30876 0.30954 0.0
C2707 C 0.31648 0.30907 0.32903 0.0
C2708 C 0.34991 0.31772 0.33611 0.0
C2709 C 0.3325 0.31327 0.34258 0.0
Gd2710 Gd 0.26794 0.25229 0.26018 0.0
Gd2711 Gd 0.29155 0.30177 0.2857 0.0
N2712 N 0.31866 0.31171 0.27119 0.0
C2713 C 0.35203 0.32402 0.25662 0.0
C2714 C 0.31847 0.31585 0.2525 0.0
C2715 C 0.33508 0.3215 0.24474 0.0
H2716 H 0.30564 0.31571 0.24374 0.0
H2717 H 0.33477 0.32437 0.22975 0.0
H2718 H 0.24795 0.24473 0.30103 0.0
H2719 H 0.30304 0.30744 0.33408 0.0
H2720 H 0.21721 0.23154 0.30978 0.0
H2721 H 0.36489 0.32858 0.25064 0.0
H2722 H 0.38199 0.32991 0.28404 0.0
H2723 H 0.26187 0.25467 0.21163 0.0
H2724 H 0.36232 0.32116 0.34664 0.0
H2725 H 0.33136 0.31353 0.35802 0.0
H2726 H 0.17777 0.2177 0.24865 0.0
H2727 H 0.38105 0.32726 0.31895 0.0
H2728 H 0.20437 0.23368 0.19108 0.0
H2729 H 0.2362 0.2472 0.18474 0.0
N2730 N 0.24457 0.24718 0.23346 0.0
C2731 C 0.2272 0.23953 0.23724 0.0
C2732 C 0.24792 0.24981 0.21485 0.0
C2733 C 0.21552 0.23744 0.20309 0.0
C2734 C 0.23345 0.24516 0.19946 0.0
C2735 C 0.21221 0.23443 0.22211 0.0
H2736 H 0.18282 0.22236 0.21491 0.0
N2737 N 0.23891 0.24234 0.27076 0.0
C2738 C 0.22436 0.23674 0.25633 0.0
C2739 C 0.20392 0.22711 0.28012 0.0
C2740 C 0.20645 0.22901 0.26067 0.0
C2741 C 0.23652 0.24036 0.28969 0.0
C2742 C 0.21902 0.23288 0.29469 0.0
O2743 O 0.31111 0.28116 0.28129 0.0
O2744 O 0.29769 0.26219 0.25329 0.0
O2745 O 0.27456 0.22695 0.26961 0.0
O2746 O 0.26392 0.2276 0.23941 0.0
O2747 O 0.276 0.29856 0.25483 0.0
O2748 O 0.28176 0.27132 0.24076 0.0
O2749 O 0.24806 0.27216 0.26631 0.0
O2750 O 0.26226 0.2918 0.29374 0.0
O2751 O 0.28488 0.32707 0.27615 0.0
O2752 O 0.29466 0.32632 0.30648 0.0
O2753 O 0.28101 0.25371 0.2916 0.0
O2754 O 0.28129 0.28288 0.30765 0.0
C2755 C 0.31263 0.27026 0.26549 0.0
C2756 C 0.27821 0.28781 0.23926 0.0
C2757 C 0.28622 0.20959 0.24543 0.0
C2758 C 0.30405 0.18567 0.24913 0.0
C2759 C 0.3115 0.2076 0.22601 0.0
C2760 C 0.29725 0.21642 0.23135 0.0
C2761 C 0.31489 0.19217 0.23482 0.0
C2762 C 0.28964 0.19429 0.25416 0.0
C2763 C 0.27141 0.21837 0.25184 0.0
C2764 C 0.19159 0.22372 0.24558 0.0
C2765 C 0.19446 0.22643 0.22637 0.0
H2766 H 0.19036 0.22135 0.28404 0.0
C2767 C 0.24706 0.28345 0.28205 0.0
C2768 C 0.28164 0.26507 0.30773 0.0
C2769 C 0.27296 0.34492 0.29981 0.0
C2770 C 0.2551 0.36857 0.2945 0.0
C2771 C 0.2494 0.34972 0.32069 0.0
C2772 C 0.26315 0.34013 0.31549 0.0
C2773 C 0.24539 0.36399 0.31027 0.0
C2774 C 0.26887 0.35905 0.28942 0.0
C2775 C 0.28767 0.33567 0.29389 0.0
H2776 H 0.32 0.21281 0.21518 0.0
H2777 H 0.29488 0.22848 0.22456 0.0
H2778 H 0.32613 0.18556 0.2308 0.0
H2779 H 0.28109 0.18912 0.26504 0.0
H2780 H 0.24191 0.34616 0.33282 0.0
H2781 H 0.26614 0.32912 0.32374 0.0
H2782 H 0.23468 0.37133 0.31438 0.0
H2783 H 0.27663 0.36283 0.27746 0.0
C2784 C 0.51484 0.56932 0.0676 0.0
C2785 C 0.54398 0.58701 0.08539 0.0
C2786 C 0.53389 0.57603 0.0685 0.0
C2787 C 0.53489 0.59023 0.10184 0.0
C2788 C 0.50547 0.57358 0.08367 0.0
C2789 C 0.51568 0.5835 0.10099 0.0
N2790 N 0.50527 0.56016 0.05047 0.0
C2791 C 0.48629 0.55722 0.0477 0.0
C2792 C 0.48602 0.56856 0.08151 0.0
C2793 C 0.47637 0.56077 0.06329 0.0
Gd2794 Gd 0.53585 0.50092 0.02214 0.0
Gd2795 Gd 0.52358 0.55355 0.02588 0.0
N2796 N 0.54243 0.57239 0.05248 0.0
C2797 C 0.56277 0.59491 0.08501 0.0
C2798 C 0.56029 0.58121 0.05146 0.0
C2799 C 0.57085 0.59229 0.06784 0.0
H2800 H 0.56639 0.57932 0.03812 0.0
H2801 H 0.58519 0.59881 0.06721 0.0
H2802 H 0.49267 0.48052 1.00009 0.0
H2803 H 0.47881 0.55257 0.03334 0.0
H2804 H 0.47859 0.46005 0.97003 0.0
H2805 H 0.57099 0.60347 0.09769 0.0
H2806 H 0.54246 0.5984 0.11507 0.0
H2807 H 0.58201 0.50457 0.02308 0.0
H2808 H 0.4783 0.57159 0.0935 0.0
H2809 H 0.4613 0.55787 0.06113 0.0
H2810 H 0.53071 0.44866 0.93805 0.0
H2811 H 0.50874 0.58667 0.11356 0.0
H2812 H 0.59202 0.47623 0.96957 0.0
H2813 H 0.60398 0.49539 0.0013 0.0
N2814 N 0.55797 0.49242 0.00309 0.0
C2815 C 0.55104 0.4811 0.98621 0.0
C2816 C 0.57667 0.49704 0.00888 0.0
C2817 C 0.58232 0.48061 0.9789 0.0
C2818 C 0.58914 0.49149 0.99675 0.0
C2819 C 0.56307 0.47503 0.97355 0.0
H2820 H 0.56463 0.45869 0.94621 0.0
N2821 N 0.52054 0.48133 0.99414 0.0
C2822 C 0.53184 0.47522 0.98171 0.0
C2823 C 0.50494 0.458 0.96009 0.0
C2824 C 0.52431 0.46343 0.9643 0.0
C2825 C 0.50165 0.47589 0.99022 0.0
C2826 C 0.49358 0.46422 0.97313 0.0
O2827 O 0.54271 0.54543 0.04986 0.0
O2828 O 0.5275 0.51587 0.04855 0.0
O2829 O 0.52682 0.47298 0.02983 0.0
O2830 O 0.55285 0.49016 0.04398 0.0
O2831 O 0.548 0.54706 0.01115 0.0
O2832 O 0.56045 0.52559 0.02733 0.0
O2833 O 0.52959 0.51317 0.99373 0.0
O2834 O 0.50894 0.53228 0.00077 0.0
O2835 O 0.53191 0.57169 0.0037 0.0
O2836 O 0.51289 0.5787 0.02325 0.0
O2837 O 0.507 0.50215 0.02857 0.0
O2838 O 0.49737 0.53014 0.02429 0.0
C2839 C 0.53842 0.53049 0.05841 0.0
C2840 C 0.56243 0.54085 0.0186 0.0
C2841 C 0.54887 0.45732 0.04493 0.0
C2842 C 0.54944 0.42893 0.06049 0.0
C2843 C 0.57238 0.43916 0.03897 0.0
C2844 C 0.56435 0.45444 0.03579 0.0
C2845 C 0.56512 0.42659 0.05132 0.0
C2846 C 0.54122 0.44432 0.05709 0.0
C2847 C 0.54118 0.47425 0.04284 0.0
C2848 C 0.53627 0.45763 0.95153 0.0
C2849 C 0.55558 0.46341 0.95615 0.0
H2850 H 0.49862 0.44902 0.94682 0.0
C2851 C 0.51712 0.52302 0.98819 0.0
C2852 C 0.49418 0.51238 0.02766 0.0
C2853 C 0.51191 0.59213 0.99375 0.0
C2854 C 0.51111 0.61695 0.97272 0.0
C2855 C 0.48273 0.595 0.97587 0.0
C2856 C 0.49267 0.58585 0.98853 0.0
C2857 C 0.49182 0.61035 0.96801 0.0
C2858 C 0.52113 0.60785 0.98587 0.0
C2859 C 0.52191 0.58366 0.00894 0.0
H2860 H 0.58442 0.43712 0.03196 0.0
H2861 H 0.57039 0.46412 0.02639 0.0
H2862 H 0.5717 0.41492 0.05365 0.0
H2863 H 0.5293 0.44647 0.0643 0.0
H2864 H 0.46784 0.59022 0.97219 0.0
H2865 H 0.48524 0.57407 0.99459 0.0
H2866 H 0.4837 0.61725 0.95831 0.0
H2867 H 0.53595 0.61297 0.98998 0.0
C2868 C 0.74447 0.22605 0.3027 0.0
C2869 C 0.72224 0.2076 0.27628 0.0
C2870 C 0.73917 0.2203 0.28279 0.0
C2871 C 0.71036 0.20141 0.28983 0.0
C2872 C 0.73295 0.21892 0.31635 0.0
C2873 C 0.71569 0.20706 0.30979 0.0
N2874 N 0.76135 0.23743 0.30879 0.0
C2875 C 0.76849 0.23996 0.3281 0.0
C2876 C 0.73945 0.22325 0.33625 0.0
C2877 C 0.75746 0.23345 0.34212 0.0
Gd2878 Gd 0.78021 0.30429 0.26425 0.0
Gd2879 Gd 0.77766 0.24818 0.28337 0.0
N2880 N 0.75076 0.22659 0.26982 0.0
C2881 C 0.71778 0.20138 0.25631 0.0
C2882 C 0.74695 0.21977 0.25048 0.0
C2883 C 0.73031 0.20731 0.24339 0.0
H2884 H 0.75666 0.22405 0.24053 0.0
H2885 H 0.7272 0.20224 0.22799 0.0
H2886 H 0.80058 0.33768 0.30082 0.0
H2887 H 0.78269 0.2472 0.3328 0.0
H2888 H 0.83056 0.35988 0.30947 0.0
H2889 H 0.70487 0.19171 0.25077 0.0
H2890 H 0.69719 0.1919 0.28505 0.0
H2891 H 0.77412 0.29632 0.21368 0.0
H2892 H 0.73099 0.21806 0.34715 0.0
H2893 H 0.76295 0.23609 0.35743 0.0
H2894 H 0.86143 0.35408 0.25234 0.0
H2895 H 0.7066 0.2017 0.32009 0.0
H2896 H 0.82657 0.31736 0.19506 0.0
H2897 H 0.79403 0.30008 0.1876 0.0
N2898 N 0.79586 0.30919 0.23655 0.0
C2899 C 0.81314 0.32031 0.24067 0.0
C2900 C 0.78855 0.3031 0.21753 0.0
C2901 C 0.81804 0.31533 0.20678 0.0
C2902 C 0.79969 0.30554 0.20251 0.0
C2903 C 0.82478 0.32342 0.2259 0.0
H2904 H 0.85161 0.33743 0.21932 0.0
N2905 N 0.80696 0.32753 0.27312 0.0
C2906 C 0.81873 0.32989 0.25934 0.0
C2907 C 0.84044 0.35302 0.28204 0.0
C2908 C 0.83599 0.34251 0.26361 0.0
C2909 C 0.81065 0.33862 0.29061 0.0
C2910 C 0.82753 0.35135 0.29544 0.0
O2911 O 0.75059 0.25562 0.2683 0.0
O2912 O 0.7536 0.28794 0.2738 0.0
O2913 O 0.77058 0.32774 0.27875 0.0
O2914 O 0.75951 0.31616 0.2488 0.0
O2915 O 0.78773 0.26385 0.25921 0.0
O2916 O 0.77199 0.28024 0.24077 0.0
O2917 O 0.80831 0.29963 0.27962 0.0
O2918 O 0.80627 0.26785 0.28429 0.0
O2919 O 0.78535 0.22353 0.26884 0.0
O2920 O 0.7981 0.23536 0.29807 0.0
O2921 O 0.77837 0.28482 0.2858 0.0
O2922 O 0.779 0.2688 0.30979 0.0
C2923 C 0.74356 0.27103 0.26746 0.0
C2924 C 0.77742 0.26469 0.2431 0.0
C2925 C 0.76088 0.34791 0.25704 0.0
C2926 C 0.74734 0.37541 0.25586 0.0
C2927 C 0.77107 0.37042 0.23525 0.0
C2928 C 0.7723 0.35391 0.24298 0.0
C2929 C 0.75851 0.38106 0.2415 0.0
C2930 C 0.74862 0.35886 0.2637 0.0
C2931 C 0.75996 0.32933 0.26302 0.0
C2932 C 0.84801 0.34465 0.24924 0.0
C2933 C 0.84243 0.33512 0.23044 0.0
H2934 H 0.85355 0.36288 0.28584 0.0
C2935 C 0.81588 0.28508 0.28378 0.0
C2936 C 0.77916 0.28497 0.3045 0.0
C2937 C 0.79627 0.20343 0.28993 0.0
C2938 C 0.80978 0.17583 0.28964 0.0
C2939 C 0.78811 0.18117 0.31261 0.0
C2940 C 0.78621 0.19764 0.30509 0.0
C2941 C 0.79997 0.17037 0.30505 0.0
C2942 C 0.80784 0.19233 0.28201 0.0
C2943 C 0.79673 0.22196 0.28393 0.0
H2944 H 0.77967 0.37486 0.22419 0.0
H2945 H 0.78176 0.34555 0.2376 0.0
H2946 H 0.75759 0.39378 0.23526 0.0
H2947 H 0.73965 0.3542 0.27441 0.0
H2948 H 0.78058 0.17691 0.32451 0.0
H2949 H 0.77732 0.20605 0.31146 0.0
H2950 H 0.80148 0.15772 0.31117 0.0
H2951 H 0.81581 0.19682 0.27045 0.0
C2952 C 0.06489 0.49522 0.5678 0.0
C2953 C 0.0792 0.51853 0.59502 0.0
C2954 C 0.06512 0.51189 0.57909 0.0
C2955 C 0.09285 0.50815 0.5994 0.0
C2956 C 0.07865 0.48477 0.57218 0.0
C2957 C 0.0926 0.49134 0.58799 0.0
N2958 N 0.05121 0.48911 0.55264 0.0
C2959 C 0.05024 0.47241 0.5416 0.0
C2960 C 0.07796 0.46793 0.56061 0.0
C2961 C 0.06365 0.4617 0.54529 0.0
Gd2962 Gd 0.02588 0.53967 0.49774 0.0
Gd2963 Gd 0.02889 0.50776 0.54793 0.0
N2964 N 0.052 0.52192 0.5742 0.0
C2965 C 0.07941 0.53559 0.60591 0.0
C2966 C 0.05237 0.53867 0.58484 0.0
C2967 C 0.06596 0.54573 0.60073 0.0
H2968 H 0.04248 0.54696 0.58135 0.0
H2969 H 0.06606 0.55905 0.60895 0.0
H2970 H 0.01346 0.50088 0.46459 0.0
H2971 H 0.03884 0.46685 0.53028 0.0
H2972 H 0.98628 0.48461 0.44194 0.0
H2973 H 0.09 0.54116 0.61816 0.0
H2974 H 0.10375 0.51309 0.61152 0.0
H2975 H 0.02072 0.58323 0.50526 0.0
H2976 H 0.08826 0.45953 0.56352 0.0
H2977 H 0.06277 0.44851 0.53648 0.0
H2978 H 0.94387 0.52662 0.44345 0.0
H2979 H 0.10325 0.48349 0.59154 0.0
H2980 H 0.96587 0.58666 0.48086 0.0
H2981 H 0.99615 0.60157 0.5001 0.0
N2982 N 1.00392 0.55807 0.4907 0.0
C2983 C 0.98803 0.55006 0.47905 0.0
C2984 C 0.00731 0.57656 0.49744 0.0
C2985 C 0.97649 0.57854 0.48343 0.0
C2986 C 0.99354 0.587 0.4943 0.0
C2987 C 0.97374 0.55995 0.4752 0.0
H2988 H 0.94632 0.55844 0.45972 0.0
N2989 N 1.00131 0.52393 0.47355 0.0
C2990 C 0.9867 0.53236 0.47001 0.0
C2991 C 0.9706 0.50612 0.44693 0.0
C2992 C 0.9709 0.5237 0.45678 0.0
C2993 C 1.00151 0.50723 0.46309 0.0
C2994 C 0.98612 0.49798 0.44989 0.0
O2995 O 0.0519 0.52051 0.53153 0.0
O2996 O 0.0485 0.54899 0.52278 0.0
O2997 O 0.04583 0.53695 0.4773 0.0
O2998 O 0.04318 0.5643 0.49004 0.0
O2999 O 0.02261 0.53772 0.55316 0.0
O3000 O 0.02085 0.55541 0.52643 0.0
O3001 O 0.01619 0.52145 0.51768 0.0
O3002 O 1.00041 0.50074 0.53167 0.0
O3003 O 0.00916 0.50704 0.56867 0.0
O3004 O 0.0196 0.48208 0.55982 0.0
O3005 O 0.03436 0.51093 0.49321 0.0
O3006 O 0.02676 0.49108 0.51748 0.0
C3007 C 0.05826 0.53836 0.53153 0.0
C3008 C 0.02003 0.55309 0.54525 0.0
C3009 C 0.05034 0.56117 0.45766 0.0
C3010 C 0.06241 0.56032 0.4265 0.0
C3011 C 0.04067 0.58025 0.43363 0.0
C3012 C 0.03972 0.57411 0.45193 0.0
C3013 C 0.05207 0.57349 0.42097 0.0
C3014 C 0.06151 0.55421 0.44483 0.0
C3015 C 0.05032 0.55486 0.47697 0.0
C3016 C 0.95617 0.53306 0.45348 0.0
C3017 C 0.95757 0.55118 0.46273 0.0
H3018 H 0.9587 0.49894 0.4367 0.0
C3019 C 0.99997 0.51161 0.51863 0.0
C3020 C 0.03179 0.49439 0.50004 0.0
C3021 C 0.01001 0.48538 0.59132 0.0
C3022 C 1.00117 0.49142 0.62362 0.0
C3023 C 0.01555 0.46509 0.61574 0.0
C3024 C 0.01659 0.46974 0.59684 0.0
C3025 C 0.0079 0.47591 0.62916 0.0
C3026 C 1.00224 0.49607 0.60479 0.0
C3027 C 0.00942 0.48975 0.57122 0.0
H3028 H 0.03258 0.59029 0.42926 0.0
H3029 H 0.03082 0.57954 0.46155 0.0
H3030 H 0.05266 0.57834 0.40679 0.0
H3031 H 0.06972 0.54422 0.44919 0.0
H3032 H 0.02042 0.45292 0.61991 0.0
H3033 H 0.02223 0.46096 0.58652 0.0
H3034 H 0.00678 0.47193 0.64364 0.0
H3035 H 0.99665 0.50788 0.60058 0.0
C3036 C 0.73431 0.79824 0.23492 0.0
C3037 C 0.71422 0.77066 0.21664 0.0
C3038 C 0.72685 0.77933 0.23306 0.0
C3039 C 0.70967 0.78122 0.2018 0.0
C3040 C 0.72962 0.80895 0.22022 0.0
C3041 C 0.71737 0.80031 0.20357 0.0
N3042 N 0.7463 0.80609 0.25108 0.0
C3043 C 0.75358 0.82473 0.25384 0.0
C3044 C 0.73741 0.82802 0.2227 0.0
C3045 C 0.74934 0.83595 0.23965 0.0
Gd3046 Gd 0.80361 0.76815 0.27224 0.0
Gd3047 Gd 0.75403 0.78581 0.273 0.0
N3048 N 0.73204 0.76941 0.24737 0.0
C3049 C 0.70642 0.7517 0.21579 0.0
C3050 C 0.72353 0.75137 0.24732 0.0
C3051 C 0.71084 0.7421 0.23139 0.0
H3052 H 0.72615 0.74431 0.2598 0.0
H3053 H 0.70433 0.72764 0.23125 0.0
H3054 H 0.82554 0.81246 0.28832 0.0
H3055 H 0.76261 0.83099 0.26701 0.0
H3056 H 0.84573 0.82978 0.31731 0.0
H3057 H 0.6966 0.74451 0.20345 0.0
H3058 H 0.70009 0.77478 0.18898 0.0
H3059 H 0.7983 0.72321 0.27811 0.0
H3060 H 0.73419 0.83674 0.21172 0.0
H3061 H 0.75529 0.8507 0.2418 0.0
H3062 H 0.85735 0.78241 0.3567 0.0
H3063 H 0.71368 0.80829 0.19204 0.0
H3064 H 0.82929 0.71898 0.33253 0.0
H3065 H 0.80833 0.704 0.30271 0.0
N3066 N 0.81334 0.74871 0.29396 0.0
C3067 C 0.82507 0.75722 0.31008 0.0
C3068 C 0.80741 0.72986 0.29111 0.0
C3069 C 0.82498 0.72746 0.32176 0.0
C3070 C 0.81313 0.71895 0.30496 0.0
C3071 C 0.8311 0.74682 0.32451 0.0
H3072 H 0.8475 0.74831 0.35258 0.0
N3073 N 0.82386 0.78616 0.29859 0.0
C3074 C 0.83058 0.7765 0.31243 0.0
C3075 C 0.84759 0.80521 0.33109 0.0
C3076 C 0.84234 0.7858 0.32923 0.0
C3077 C 0.82964 0.80498 0.2999 0.0
C3078 C 0.84138 0.81481 0.31624 0.0
O3079 O 0.76412 0.78011 0.24318 0.0
O3080 O 0.77996 0.7569 0.24836 0.0
O3081 O 0.82633 0.77844 0.25566 0.0
O3082 O 0.81834 0.74907 0.25758 0.0
O3083 O 0.75528 0.75736 0.28285 0.0
O3084 O 0.7779 0.74519 0.26762 0.0
O3085 O 0.79294 0.77242 0.30203 0.0
O3086 O 0.77812 0.79589 0.29636 0.0
O3087 O 0.73254 0.77657 0.29141 0.0
O3088 O 0.73954 0.80547 0.28706 0.0
O3089 O 0.80076 0.79518 0.2601 0.0
O3090 O 0.78059 0.80768 0.27828 0.0
C3091 C 0.77239 0.76684 0.23653 0.0
C3092 C 0.7634 0.74346 0.27746 0.0
C3093 C 0.84961 0.76015 0.25219 0.0
C3094 C 0.87893 0.76244 0.23776 0.0
C3095 C 0.87551 0.74886 0.26797 0.0
C3096 C 0.85739 0.75194 0.26754 0.0
C3097 C 0.8862 0.75405 0.25323 0.0
C3098 C 0.8605 0.76545 0.23723 0.0
C3099 C 0.82984 0.76199 0.25104 0.0
C3100 C 0.84839 0.77548 0.34365 0.0
C3101 C 0.84278 0.75606 0.34129 0.0
H3102 H 0.85661 0.81288 0.34378 0.0
C3103 C 0.78418 0.78535 0.30847 0.0
C3104 C 0.79379 0.80944 0.26676 0.0
C3105 C 0.70866 0.79425 0.29359 0.0
C3106 C 0.67934 0.79167 0.30807 0.0
C3107 C 0.68214 0.80412 0.27718 0.0
C3108 C 0.70045 0.80157 0.27778 0.0
C3109 C 0.67168 0.79927 0.29219 0.0
C3110 C 0.69796 0.78918 0.30878 0.0
C3111 C 0.7286 0.793 0.29482 0.0
H3112 H 0.88129 0.74233 0.27976 0.0
H3113 H 0.84936 0.74764 0.27909 0.0
H3114 H 0.90023 0.75148 0.25386 0.0
H3115 H 0.85465 0.77171 0.22523 0.0
H3116 H 0.67603 0.80998 0.26503 0.0
H3117 H 0.70828 0.80558 0.266 0.0
H3118 H 0.65749 0.80141 0.2914 0.0
H3119 H 0.7041 0.78355 0.32109 0.0
C3120 C 0.80806 0.23985 0.7235 0.0
C3121 C 0.78477 0.2267 0.69583 0.0
C3122 C 0.79139 0.24007 0.71228 0.0
C3123 C 0.79489 0.21286 0.69113 0.0
C3124 C 0.81836 0.22612 0.7187 0.0
C3125 C 0.81163 0.21257 0.70254 0.0
N3126 N 0.81396 0.25283 0.73939 0.0
C3127 C 0.83052 0.25347 0.75044 0.0
C3128 C 0.8351 0.22638 0.73033 0.0
C3129 C 0.84127 0.24022 0.74617 0.0
Gd3130 Gd 0.76352 0.27263 0.79652 0.0
Gd3131 Gd 0.79448 0.27389 0.74598 0.0
N3132 N 0.78163 0.25334 0.71753 0.0
C3133 C 0.76828 0.22773 0.68447 0.0
C3134 C 0.76633 0.25521 0.70567 0.0
C3135 C 0.75919 0.24225 0.68924 0.0
H3136 H 0.75975 0.2669 0.70841 0.0
H3137 H 0.74682 0.2436 0.68013 0.0
H3138 H 0.80044 0.27858 0.83266 0.0
H3139 H 0.83567 0.26433 0.76237 0.0
H3140 H 0.81648 0.30256 0.85892 0.0
H3141 H 0.76273 0.21772 0.67172 0.0
H3142 H 0.78996 0.2024 0.67862 0.0
H3143 H 0.72215 0.28273 0.78492 0.0
H3144 H 0.84343 0.21609 0.72711 0.0
H3145 H 0.85434 0.24073 0.75506 0.0
H3146 H 0.77688 0.34712 0.86222 0.0
H3147 H 0.81931 0.20186 0.69868 0.0
H3148 H 0.71933 0.33339 0.8195 0.0
H3149 H 0.70511 0.30758 0.79351 0.0
N3150 N 0.74572 0.2944 0.80574 0.0
C3151 C 0.75357 0.30812 0.82035 0.0
C3152 C 0.72844 0.2939 0.79631 0.0
C3153 C 0.72682 0.32247 0.81583 0.0
C3154 C 0.71874 0.30793 0.80116 0.0
C3155 C 0.74441 0.32266 0.8257 0.0
H3156 H 0.74633 0.34821 0.84492 0.0
N3157 N 0.77902 0.29312 0.82439 0.0
C3158 C 0.77084 0.30757 0.82986 0.0
C3159 C 0.79622 0.31988 0.85549 0.0
C3160 C 0.77932 0.32146 0.84535 0.0
C3161 C 0.7948 0.29085 0.83527 0.0
C3162 C 0.8038 0.30432 0.85065 0.0
O3163 O 0.78444 0.2443 0.75053 0.0
O3164 O 0.77258 0.26107 0.77048 0.0
O3165 O 0.76249 0.24997 0.8139 0.0
O3166 O 0.73689 0.25545 0.79985 0.0
O3167 O 0.76413 0.27882 0.74165 0.0
O3168 O 0.74573 0.27011 0.76678 0.0
O3169 O 0.76934 0.30049 0.7862 0.0
O3170 O 0.79347 0.29224 0.77346 0.0
O3171 O 0.79374 0.29449 0.72623 0.0
O3172 O 0.82063 0.28865 0.73796 0.0
O3173 O 0.79278 0.26549 0.80037 0.0
O3174 O 0.81131 0.27684 0.77659 0.0
C3175 C 0.77449 0.24454 0.76451 0.0
C3176 C 0.74799 0.27553 0.74923 0.0
C3177 C 0.73709 0.24626 0.83157 0.0
C3178 C 0.74049 0.23819 0.86459 0.0
C3179 C 0.71791 0.25673 0.85508 0.0
C3180 C 0.72319 0.25601 0.83631 0.0
C3181 C 0.72658 0.24797 0.86923 0.0
C3182 C 0.74545 0.23719 0.84569 0.0
C3183 C 0.74442 0.2466 0.81274 0.0
C3184 C 0.77049 0.33624 0.85048 0.0
C3185 C 0.75307 0.33683 0.84068 0.0
H3186 H 0.80319 0.33026 0.86747 0.0
C3187 C 0.78245 0.30403 0.77512 0.0
C3188 C 0.80907 0.2696 0.79332 0.0
C3189 C 0.82104 0.31138 0.71501 0.0
C3190 C 0.82003 0.32667 0.68593 0.0
C3191 C 0.84898 0.33103 0.70737 0.0
C3192 C 0.84007 0.31928 0.71958 0.0
C3193 C 0.83903 0.3346 0.69044 0.0
C3194 C 0.81103 0.31533 0.69832 0.0
C3195 C 0.81177 0.29785 0.72652 0.0
H3196 H 0.70722 0.26426 0.85872 0.0
H3197 H 0.71663 0.26331 0.82571 0.0
H3198 H 0.72234 0.2487 0.88372 0.0
H3199 H 0.7564 0.22992 0.84213 0.0
H3200 H 0.86365 0.33711 0.71087 0.0
H3201 H 0.84803 0.31625 0.73243 0.0
H3202 H 0.8461 0.34345 0.68085 0.0
H3203 H 0.79638 0.30903 0.69447 0.0
C3204 C 0.83502 0.81273 0.80559 0.0
C3205 C 0.85323 0.82472 0.78072 0.0
C3206 C 0.83594 0.81713 0.7866 0.0
C3207 C 0.86949 0.82775 0.79403 0.0
C3208 C 0.85132 0.81586 0.81899 0.0
C3209 C 0.86853 0.82339 0.81311 0.0
N3210 N 0.81819 0.80523 0.81087 0.0
C3211 C 0.81663 0.80113 0.82943 0.0
C3212 C 0.84985 0.81138 0.83796 0.0
C3213 C 0.83242 0.80402 0.8432 0.0
Gd3214 Gd 0.77161 0.75341 0.75974 0.0
Gd3215 Gd 0.79264 0.80236 0.78701 0.0
N3216 N 0.81998 0.81396 0.77392 0.0
C3217 C 0.85365 0.82931 0.76168 0.0
C3218 C 0.8202 0.81965 0.75586 0.0
C3219 C 0.83702 0.82696 0.74929 0.0
H3220 H 0.80748 0.81932 0.74674 0.0
H3221 H 0.8371 0.83116 0.73481 0.0
H3222 H 0.75958 0.73145 0.79814 0.0
H3223 H 0.80316 0.79617 0.83388 0.0
H3224 H 0.7311 0.71595 0.80998 0.0
H3225 H 0.86665 0.83514 0.75661 0.0
H3226 H 0.88288 0.83359 0.78975 0.0
H3227 H 0.75914 0.76085 0.71361 0.0
H3228 H 0.86206 0.81367 0.8487 0.0
H3229 H 0.83112 0.80078 0.8579 0.0
H3230 H 0.68316 0.71388 0.75717 0.0
H3231 H 0.8812 0.82592 0.82323 0.0
H3232 H 0.70069 0.73943 0.69952 0.0
H3233 H 0.73061 0.75536 0.69029 0.0
N3234 N 0.74541 0.7492 0.73633 0.0
C3235 C 0.72922 0.73992 0.74151 0.0
C3236 C 0.74611 0.7545 0.71811 0.0
C3237 C 0.71315 0.74205 0.70995 0.0
C3238 C 0.72999 0.75112 0.70472 0.0
C3239 C 0.71262 0.73624 0.72849 0.0
H3240 H 0.68314 0.72402 0.72454 0.0
N3241 N 0.74546 0.73796 0.77232 0.0
C3242 C 0.72923 0.73424 0.76004 0.0
C3243 C 0.71327 0.71854 0.78425 0.0
C3244 C 0.71263 0.72464 0.76581 0.0
C3245 C 0.7464 0.7307 0.78959 0.0
C3246 C 0.7303 0.72134 0.79606 0.0
O3247 O 0.81266 0.78208 0.78257 0.0
O3248 O 0.80062 0.76597 0.75295 0.0
O3249 O 0.78119 0.7282 0.76525 0.0
O3250 O 0.76985 0.73175 0.73563 0.0
O3251 O 0.7778 0.801 0.75603 0.0
O3252 O 0.78381 0.77417 0.7409 0.0
O3253 O 0.74962 0.77112 0.76581 0.0
O3254 O 0.76255 0.79246 0.79254 0.0
O3255 O 0.78918 0.82977 0.78102 0.0
O3256 O 0.79499 0.82431 0.81086 0.0
O3257 O 0.78503 0.75559 0.79136 0.0
O3258 O 0.77895 0.78263 0.8062 0.0
C3259 C 0.81509 0.77302 0.76599 0.0
C3260 C 0.77987 0.79064 0.74011 0.0
C3261 C 0.78017 0.70299 0.73956 0.0
C3262 C 0.79154 0.67515 0.74582 0.0
C3263 C 0.77858 0.67842 0.71306 0.0
C3264 C 0.77528 0.69584 0.71979 0.0
C3265 C 0.78663 0.66805 0.72599 0.0
C3266 C 0.7884 0.69269 0.75241 0.0
C3267 C 0.77707 0.72129 0.7469 0.0
C3268 C 0.69605 0.72117 0.75294 0.0
C3269 C 0.69604 0.72691 0.73433 0.0
H3270 H 0.70083 0.71114 0.78923 0.0
C3271 C 0.74783 0.78277 0.78097 0.0
C3272 C 0.78162 0.76567 0.80686 0.0
C3273 C 0.77504 0.84504 0.8047 0.0
C3274 C 0.75649 0.86795 0.79804 0.0
C3275 C 0.74993 0.84884 0.82386 0.0
C3276 C 0.76437 0.83982 0.81965 0.0
C3277 C 0.746 0.86294 0.81313 0.0
C3278 C 0.77101 0.85908 0.79401 0.0
C3279 C 0.79011 0.8359 0.79945 0.0
H3280 H 0.7748 0.6729 0.69782 0.0
H3281 H 0.76897 0.70368 0.70958 0.0
H3282 H 0.78875 0.65441 0.72056 0.0
H3283 H 0.79255 0.69838 0.7676 0.0
H3284 H 0.74177 0.84489 0.8354 0.0
H3285 H 0.76711 0.82881 0.82802 0.0
H3286 H 0.73471 0.86977 0.81643 0.0
H3287 H 0.77927 0.86317 0.7825 0.0
C3288 C 0.49177 0.47005 0.48999 0.0
C3289 C 0.47364 0.45341 0.51227 0.0
C3290 C 0.48322 0.47022 0.50692 0.0
C3291 C 0.47348 0.43649 0.50088 0.0
C3292 C 0.49092 0.45317 0.47806 0.0
C3293 C 0.48204 0.43638 0.48379 0.0
N3294 N 0.50073 0.48648 0.48504 0.0
C3295 C 0.50721 0.48717 0.46736 0.0
C3296 C 0.4987 0.4537 0.46052 0.0
C3297 C 0.50658 0.47082 0.45499 0.0
Gd3298 Gd 0.55142 0.53361 0.53422 0.0
Gd3299 Gd 0.50115 0.5132 0.50679 0.0
N3300 N 0.48343 0.48684 0.51757 0.0
C3301 C 0.46396 0.45412 0.52854 0.0
C3302 C 0.47256 0.48764 0.53233 0.0
C3303 C 0.46311 0.47135 0.53836 0.0
H3304 H 0.4708 0.50086 0.53932 0.0
H3305 H 0.45492 0.47211 0.55038 0.0
H3306 H 0.57227 0.54817 0.4965 0.0
H3307 H 0.51242 0.50028 0.46246 0.0
H3308 H 0.59013 0.57701 0.48725 0.0
H3309 H 0.45646 0.44152 0.53312 0.0
H3310 H 0.46633 0.42344 0.50489 0.0
H3311 H 0.55296 0.54018 0.58319 0.0
H3312 H 0.4982 0.44105 0.45089 0.0
H3313 H 0.51196 0.47147 0.4411 0.0
H3314 H 0.60014 0.61999 0.54593 0.0
H3315 H 0.4814 0.42325 0.47491 0.0
H3316 H 0.57964 0.59658 0.60357 0.0
H3317 H 0.56366 0.56563 0.6102 0.0
N3318 N 0.56186 0.55678 0.56123 0.0
C3319 C 0.57137 0.57339 0.55748 0.0
C3320 C 0.55964 0.55372 0.58004 0.0
C3321 C 0.57478 0.58551 0.59161 0.0
C3322 C 0.56579 0.56807 0.59542 0.0
C3323 C 0.57796 0.58827 0.57251 0.0
H3324 H 0.59303 0.61683 0.57944 0.0
N3325 N 0.57001 0.56009 0.52501 0.0
C3326 C 0.57554 0.57512 0.53874 0.0
C3327 C 0.59107 0.59262 0.51545 0.0
C3328 C 0.58618 0.59184 0.53434 0.0
C3329 C 0.57571 0.56043 0.50694 0.0
C3330 C 0.586 0.57675 0.50175 0.0
O3331 O 0.52145 0.49339 0.51094 0.0
O3332 O 0.53468 0.50628 0.54106 0.0
O3333 O 0.57532 0.52261 0.5263 0.0
O3334 O 0.56836 0.52321 0.55596 0.0
O3335 O 0.50131 0.51877 0.53964 0.0
O3336 O 0.52945 0.53751 0.55376 0.0
O3337 O 0.53913 0.55429 0.51715 0.0
O3338 O 0.50773 0.54467 0.51856 0.0
O3339 O 0.47149 0.51173 0.50274 0.0
O3340 O 0.48784 0.52014 0.47994 0.0
O3341 O 0.54823 0.51953 0.50292 0.0
O3342 O 0.52193 0.52723 0.48883 0.0
C3343 C 0.52946 0.49143 0.52818 0.0
C3344 C 0.51235 0.52878 0.55471 0.0
C3345 C 0.59985 0.52501 0.55168 0.0
C3346 C 0.63086 0.51963 0.54899 0.0
C3347 C 0.62521 0.53943 0.5769 0.0
C3348 C 0.60642 0.53657 0.56937 0.0
C3349 C 0.63742 0.53087 0.56683 0.0
C3350 C 0.61211 0.51675 0.54156 0.0
C3351 C 0.58015 0.51974 0.54413 0.0
C3352 C 0.59205 0.60699 0.54904 0.0
C3353 C 0.58798 0.6052 0.56811 0.0
H3354 H 0.59919 0.60521 0.51147 0.0
C3355 C 0.52211 0.55764 0.51582 0.0
C3356 C 0.53867 0.52408 0.48775 0.0
C3357 C 0.46196 0.53404 0.48412 0.0
C3358 C 0.43925 0.55166 0.49488 0.0
C3359 C 0.45333 0.55775 0.46538 0.0
C3360 C 0.46361 0.54396 0.46799 0.0
C3361 C 0.44099 0.56142 0.47853 0.0
C3362 C 0.45018 0.53835 0.49775 0.0
C3363 C 0.47169 0.51857 0.48624 0.0
H3364 H 0.63026 0.54816 0.59061 0.0
H3365 H 0.59709 0.54307 0.57751 0.0
H3366 H 0.65194 0.53314 0.57281 0.0
H3367 H 0.60693 0.50756 0.52809 0.0
H3368 H 0.45454 0.56528 0.45284 0.0
H3369 H 0.47266 0.54089 0.45728 0.0
H3370 H 0.43251 0.57152 0.47554 0.0
H3371 H 0.4493 0.53109 0.51051 0.0
C3372 C 0.07626 0.55793 0.9924 0.0
C3373 C 0.09677 0.57922 0.01802 0.0
C3374 C 0.08324 0.56286 0.01196 0.0
C3375 C 0.10272 0.59091 0.00418 0.0
C3376 C 0.08281 0.56917 0.97835 0.0
C3377 C 0.09578 0.58589 0.98439 0.0
N3378 N 0.06368 0.54174 0.98703 0.0
C3379 C 0.05821 0.53517 0.96782 0.0
C3380 C 0.07641 0.56307 0.95862 0.0
C3381 C 0.06427 0.54585 0.95332 0.0
Gd3382 Gd 1.00144 0.52121 0.03292 0.0
Gd3383 Gd 0.05284 0.52637 0.01273 0.0
N3384 N 0.0771 0.55136 0.025 0.0
C3385 C 0.10412 0.58314 0.03777 0.0
C3386 C 0.08492 0.55447 0.04397 0.0
C3387 C 0.09838 0.57054 0.05074 0.0
H3388 H 0.0808 0.54446 0.05374 0.0
H3389 H 0.10435 0.57315 0.06591 0.0
H3390 H 0.97674 0.49611 0.99222 0.0
H3391 H 0.04901 0.52176 0.96379 0.0
H3392 H 0.95804 0.46453 0.98247 0.0
H3393 H 0.11455 0.59559 0.04303 0.0
H3394 H 0.11296 0.60367 0.00858 0.0
H3395 H 0.01044 0.52621 0.08228 0.0
H3396 H 0.0811 0.57131 0.94737 0.0
H3397 H 0.0596 0.5408 0.9381 0.0
H3398 H 0.95755 0.43669 0.04194 0.0
H3399 H 0.1008 0.59484 0.97383 0.0
H3400 H 0.98884 0.4738 0.10089 0.0
H3401 H 0.00602 0.50639 0.10853 0.0
N3402 N 0.99722 0.5046 0.05965 0.0
C3403 C 0.98698 0.48695 0.0552 0.0
C3404 C 1.00346 0.51184 0.07858 0.0
C3405 C 0.99099 0.48234 0.0892 0.0
C3406 C 1.00073 0.50072 0.09358 0.0
C3407 C 0.98373 0.47531 0.06988 0.0
H3408 H 0.97065 0.44799 0.076 0.0
N3409 N 0.98289 0.49193 0.0219 0.0
C3410 C 0.97947 0.48052 0.03588 0.0
C3411 C 0.96116 0.45653 0.01142 0.0
C3412 C 0.9687 0.46238 0.03091 0.0
C3413 C 0.97493 0.48663 0.00305 0.0
C3414 C 0.96413 0.46879 0.99748 0.0
O3415 O 0.04761 0.55471 0.02518 0.0
O3416 O 0.0174 0.55149 0.03431 0.0
O3417 O 0.97905 0.53265 0.01896 0.0
O3418 O 0.97889 0.52669 0.04876 0.0
O3419 O 0.04498 0.51832 0.04148 0.0
O3420 O 0.02559 0.53514 0.0547 0.0
O3421 O 0.01468 0.49541 0.02874 0.0
O3422 O 0.03041 0.50044 0.00225 0.0
O3423 O 0.07643 0.51514 0.02443 0.0
O3424 O 0.06313 0.50593 0.99469 0.0
O3425 O 1.00497 0.51885 0.00148 0.0
O3426 O 0.03147 0.5353 0.99269 0.0
C3427 C 0.03353 0.56173 0.03118 0.0
C3428 C 0.04158 0.52991 0.05553 0.0
C3429 C 0.96599 0.55206 0.04053 0.0
C3430 C 0.94377 0.57259 0.03869 0.0
C3431 C 0.97202 0.58152 0.06156 0.0
C3432 C 0.97738 0.56498 0.0552 0.0
C3433 C 0.95527 0.5853 0.05341 0.0
C3434 C 0.94919 0.55598 0.03216 0.0
C3435 C 0.97104 0.53409 0.03476 0.0
C3436 C 0.96573 0.4507 0.0455 0.0
C3437 C 0.97322 0.45714 0.0649 0.0
H3438 H 0.95281 0.44269 0.00704 0.0
C3439 C 0.02253 0.4891 0.01386 0.0
C3440 C 0.01335 0.53173 0.99209 0.0
C3441 C 0.09492 0.5046 0.00116 0.0
C3442 C 0.12311 0.49182 0.00223 0.0
C3443 C 0.11685 0.51195 0.97791 0.0
C3444 C 0.10033 0.51384 0.98532 0.0
C3445 C 0.12819 0.50097 0.98628 0.0
C3446 C 0.10644 0.49363 0.00966 0.0
C3447 C 0.07671 0.505 0.00794 0.0
H3448 H 0.98072 0.5913 0.07304 0.0
H3449 H 0.99022 0.56208 0.06202 0.0
H3450 H 0.95118 0.59809 0.05868 0.0
H3451 H 0.94021 0.54602 0.02097 0.0
H3452 H 0.12082 0.51891 0.96554 0.0
H3453 H 0.09166 0.52224 0.97844 0.0
H3454 H 0.14093 0.49955 0.98029 0.0
H3455 H 0.10233 0.48632 0.02179 0.0
C3456 C 1.00037 0.16144 0.99424 0.0
C3457 C 0.01271 0.17073 0.98246 0.0
C3458 C 1.00211 0.14391 1.00024 0.0
C3459 C 0.01661 0.13503 0.99458 0.0
C3460 C 0.02921 0.14435 0.98293 0.0
C3461 C 0.02709 0.1618 0.97701 0.0
C3462 C 0.9883 0.13479 0.01269 0.0
C3463 C 0.045 0.13579 0.97653 0.0
C3464 C 0.03044 0.09606 0.02308 0.0
C3465 C 0.02246 0.07966 0.01047 0.0
C3466 C 0.02883 0.11397 0.01814 0.0
C3467 C 0.01834 0.11588 1.00035 0.0
C3468 C 0.00963 0.09933 0.98792 0.0
C3469 C 0.01196 0.08166 0.99295 0.0
C3470 C 0.03877 0.13091 0.03188 0.0
C3471 C 0.99775 0.10025 0.96917 0.0
H3472 H 0.98935 0.16796 0.99902 0.0
H3473 H 0.03666 0.16826 0.9677 0.0
H3474 H 0.98099 0.12093 0.00519 0.0
H3475 H 0.99569 0.13252 0.02669 0.0
H3476 H 0.97776 0.14327 0.0159 0.0
H3477 H 0.05413 0.14496 0.96819 0.0
H3478 H 0.05359 0.1328 0.98945 0.0
H3479 H 0.03935 0.12234 0.96725 0.0
H3480 H 0.03806 0.09498 0.0369 0.0
H3481 H 0.0054 0.0693 0.98305 0.0
H3482 H 0.02928 0.14063 0.03465 0.0
H3483 H 0.05047 0.13843 0.02507 0.0
H3484 H 0.04445 0.12724 0.04607 0.0
H3485 H 0.98651 0.10784 0.97225 0.0
H3486 H 0.99131 0.08623 0.96139 0.0
H3487 H 0.00631 0.10811 0.95935 0.0
C3488 C 0.16511 0.79308 0.16926 0.0
C3489 C 0.14795 0.79167 0.1767 0.0
C3490 C 0.18164 0.79239 0.18123 0.0
C3491 C 0.18109 0.78962 0.20112 0.0
C3492 C 0.16374 0.78815 0.20868 0.0
C3493 C 0.14752 0.78945 0.19651 0.0
C3494 C 0.19975 0.79458 0.17254 0.0
C3495 C 0.16224 0.78482 0.22959 0.0
C3496 C 0.21955 0.76842 0.22655 0.0
C3497 C 0.23127 0.78402 0.23762 0.0
C3498 C 0.20337 0.77006 0.21459 0.0
C3499 C 0.19848 0.78773 0.2138 0.0
C3500 C 0.21026 0.80351 0.22518 0.0
C3501 C 0.22649 0.80147 0.23682 0.0
C3502 C 0.19145 0.75283 0.20279 0.0
C3503 C 0.20574 0.82261 0.22506 0.0
H3504 H 0.16564 0.79494 0.15403 0.0
H3505 H 0.13434 0.78823 0.20239 0.0
H3506 H 0.21021 0.80609 0.18123 0.0
H3507 H 0.20539 0.78169 0.17306 0.0
H3508 H 0.1981 0.79752 0.15716 0.0
H3509 H 0.14786 0.78414 0.23338 0.0
H3510 H 0.16654 0.77156 0.23218 0.0
H3511 H 0.1718 0.79609 0.2396 0.0
H3512 H 0.22317 0.75488 0.22713 0.0
H3513 H 0.23532 0.81354 0.24551 0.0
H3514 H 0.19036 0.75454 0.18705 0.0
H3515 H 0.17714 0.75075 0.20697 0.0
H3516 H 0.19712 0.74015 0.20487 0.0
H3517 H 0.20515 0.82645 0.21001 0.0
H3518 H 0.21618 0.83344 0.23477 0.0
H3519 H 0.19184 0.82259 0.22984 0.0
C3520 C 0.5309 0.88118 0.49171 0.0
C3521 C 0.51356 0.86906 0.48548 0.0
C3522 C 0.53246 0.9006 0.49705 0.0
C3523 C 0.51634 0.9086 0.49627 0.0
C3524 C 0.49879 0.89649 0.49034 0.0
C3525 C 0.49762 0.87712 0.48507 0.0
C3526 C 0.5515 0.91264 0.50347 0.0
C3527 C 0.48114 0.90409 0.48911 0.0
C3528 C 0.51853 0.95772 0.52372 0.0
C3529 C 0.5218 0.96942 0.50912 0.0
C3530 C 0.51681 0.93812 0.51987 0.0
C3531 C 0.51793 0.92962 0.50078 0.0
C3532 C 0.52077 0.94139 0.48592 0.0
C3533 C 0.52287 0.96094 0.49027 0.0
C3534 C 0.51413 0.92654 0.53641 0.0
C3535 C 0.52162 0.93329 0.46526 0.0
H3536 H 0.54343 0.87549 0.49258 0.0
H3537 H 0.48408 0.86836 0.48011 0.0
H3538 H 0.55462 0.92306 0.49322 0.0
H3539 H 0.5518 0.92043 0.51808 0.0
H3540 H 0.56265 0.9044 0.50413 0.0
H3541 H 0.46848 0.89292 0.48526 0.0
H3542 H 0.4801 0.91211 0.50322 0.0
H3543 H 0.48144 0.91383 0.47793 0.0
H3544 H 0.51774 0.96394 0.53837 0.0
H3545 H 0.52521 0.96964 0.47874 0.0
H3546 H 0.52593 0.9193 0.53866 0.0
H3547 H 0.50125 0.91568 0.53275 0.0
H3548 H 0.51323 0.93506 0.5503 0.0
H3549 H 0.53359 0.9262 0.46482 0.0
H3550 H 0.52306 0.94406 0.45514 0.0
H3551 H 0.50882 0.92266 0.4599 0.0
C3552 C 0.45167 0.27114 0.65998 0.0
C3553 C 0.46929 0.28025 0.66935 0.0
C3554 C 0.4358 0.26938 0.66994 0.0
C3555 C 0.43755 0.27643 0.68999 0.0
C3556 C 0.45533 0.28576 0.69949 0.0
C3557 C 0.47089 0.28776 0.68901 0.0
C3558 C 0.41715 0.25975 0.659 0.0
C3559 C 0.45802 0.29312 0.72089 0.0
C3560 C 0.39238 0.28133 0.71138 0.0
C3561 C 0.38745 0.2641 0.71836 0.0
C3562 C 0.40895 0.28587 0.70271 0.0
C3563 C 0.42098 0.27297 0.70114 0.0
C3564 C 0.41648 0.25602 0.70919 0.0
C3565 C 0.39979 0.25178 0.71752 0.0
C3566 C 0.41304 0.30402 0.69425 0.0
C3567 C 0.4289 0.24195 0.70826 0.0
H3568 H 0.45027 0.2655 0.64474 0.0
H3569 H 0.48447 0.29474 0.69637 0.0
H3570 H 0.41201 0.2467 0.66514 0.0
H3571 H 0.40679 0.26874 0.66074 0.0
H3572 H 0.41785 0.25626 0.64318 0.0
H3573 H 0.47246 0.30088 0.72592 0.0
H3574 H 0.44822 0.30245 0.72392 0.0
H3575 H 0.45489 0.28137 0.7296 0.0
H3576 H 0.3828 0.29081 0.71174 0.0
H3577 H 0.39604 0.23843 0.72285 0.0
H3578 H 0.41163 0.30118 0.6781 0.0
H3579 H 0.42758 0.31142 0.69925 0.0
H3580 H 0.40346 0.31333 0.6983 0.0
H3581 H 0.42879 0.23613 0.69286 0.0
H3582 H 0.42438 0.23027 0.71673 0.0
H3583 H 0.44348 0.24872 0.71396 0.0
C3584 C 0.03525 0.83884 0.6139 0.0
C3585 C 0.022 0.83461 0.62683 0.0
C3586 C 0.03647 0.85486 0.60425 0.0
C3587 C 0.02403 0.86709 0.60732 0.0
C3588 C 0.01027 0.86268 0.61986 0.0
C3589 C 0.00947 0.84663 0.6295 0.0
C3590 C 0.05139 0.85891 0.59104 0.0
C3591 C 0.99659 0.87513 0.62342 0.0
C3592 C 0.04327 0.91702 0.59891 0.0
C3593 C 0.03617 0.91727 0.57942 0.0
C3594 C 0.03862 0.90116 0.60847 0.0
C3595 C 0.0264 0.88504 0.5984 0.0
C3596 C 0.01801 0.88574 0.57921 0.0
C3597 C 0.0231 0.9018 0.56989 0.0
C3598 C 0.04804 0.90119 0.62883 0.0
C3599 C 1.00468 0.86908 0.56797 0.0
H3600 H 0.04476 0.82958 0.61126 0.0
H3601 H 0.99928 0.8438 0.63953 0.0
H3602 H 0.045 0.86028 0.57623 0.0
H3603 H 0.06093 0.87235 0.5967 0.0
H3604 H 0.05972 0.84786 0.58981 0.0
H3605 H 0.98588 0.86915 0.63242 0.0
H3606 H 1.00411 0.88888 0.631 0.0
H3607 H 0.9895 0.87757 0.60932 0.0
H3608 H 0.05365 0.9288 0.60621 0.0
H3609 H 0.0179 0.90171 0.5547 0.0
H3610 H 0.05798 0.89162 0.62841 0.0
H3611 H 0.03766 0.89608 0.63852 0.0
H3612 H 0.05581 0.91527 0.6353 0.0
H3613 H 0.01257 0.85839 0.56314 0.0
H3614 H 0.99693 0.87279 0.55487 0.0
H3615 H 0.99455 0.86271 0.57734 0.0
C3616 C 0.43038 0.7953 0.79288 0.0
C3617 C 0.43757 0.79211 0.81156 0.0
C3618 C 0.41103 0.79424 0.78762 0.0
C3619 C 0.39828 0.79033 0.80142 0.0
C3620 C 0.40549 0.78727 0.82031 0.0
C3621 C 0.4248 0.78803 0.82504 0.0
C3622 C 0.4042 0.79714 0.76715 0.0
C3623 C 0.39273 0.78326 0.83568 0.0
C3624 C 0.34986 0.80361 0.79445 0.0
C3625 C 0.33784 0.78633 0.7883 0.0
C3626 C 0.3694 0.80517 0.79859 0.0
C3627 C 0.37746 0.78912 0.79617 0.0
C3628 C 0.36539 0.77173 0.7894 0.0
C3629 C 0.34592 0.77053 0.78581 0.0
C3630 C 0.38142 0.82402 0.80589 0.0
C3631 C 0.37305 0.75426 0.78583 0.0
H3632 H 0.43988 0.7983 0.78217 0.0
H3633 H 0.42998 0.78577 0.83959 0.0
H3634 H 0.39304 0.78522 0.76044 0.0
H3635 H 0.39809 0.80979 0.76754 0.0
H3636 H 0.41553 0.79873 0.75769 0.0
H3637 H 0.40043 0.7818 0.84986 0.0
H3638 H 0.38494 0.79463 0.83796 0.0
H3639 H 0.38233 0.77022 0.83073 0.0
H3640 H 0.34394 0.8159 0.79651 0.0
H3641 H 0.33699 0.75709 0.78071 0.0
H3642 H 0.3918 0.82779 0.79574 0.0
H3643 H 0.38925 0.82359 0.8203 0.0
H3644 H 0.37315 0.8351 0.80735 0.0
H3645 H 0.38351 0.75624 0.77542 0.0
H3646 H 0.36201 0.74194 0.77985 0.0
H3647 H 0.38024 0.75133 0.79964 0.0
C3648 C 0.50132 0.14257 0.1167 0.0
C3649 C 0.51507 0.15887 0.11776 0.0
C3650 C 0.50212 0.12605 0.10472 0.0
C3651 C 0.5169 0.12562 0.09318 0.0
C3652 C 0.53061 0.14211 0.0939 0.0
C3653 C 0.52959 0.15836 0.10614 0.0
C3654 C 0.48727 0.10889 0.10471 0.0
C3655 C 0.54647 0.14259 0.08171 0.0
C3656 C 0.53045 0.07908 0.07664 0.0
C3657 C 0.52163 0.07455 0.05737 0.0
C3658 C 0.52874 0.09532 0.08846 0.0
C3659 C 0.51833 0.10788 0.0808 0.0
C3660 C 0.5096 0.10352 0.06122 0.0
C3661 C 0.5112 0.08693 0.04991 0.0
C3662 C 0.53826 0.09912 0.10918 0.0
C3663 C 0.49857 0.11642 0.05214 0.0
H3664 H 0.49011 0.14255 0.12564 0.0
H3665 H 0.54017 0.17081 0.10645 0.0
H3666 H 0.48035 0.10389 0.08964 0.0
H3667 H 0.49372 0.09755 0.10988 0.0
H3668 H 0.4765 0.11145 0.11416 0.0
H3669 H 0.55565 0.15659 0.08329 0.0
H3670 H 0.555 0.13244 0.08602 0.0
H3671 H 0.54093 0.13842 0.06609 0.0
H3672 H 0.53921 0.07022 0.08236 0.0
H3673 H 0.50408 0.08355 0.03519 0.0
H3674 H 0.52793 0.10088 0.11942 0.0
H3675 H 0.54877 0.1123 0.11112 0.0
H3676 H 0.54529 0.08776 0.11324 0.0
H3677 H 0.48639 0.11741 0.06004 0.0
H3678 H 0.49352 0.11163 0.03648 0.0
H3679 H 0.50725 0.13063 0.05343 0.0
C3680 C 0.14528 0.28005 0.32016 0.0
C3681 C 0.13583 0.29378 0.31386 0.0
C3682 C 0.16301 0.27832 0.31471 0.0
C3683 C 0.17212 0.29069 0.30269 0.0
C3684 C 0.16272 0.30451 0.29616 0.0
C3685 C 0.1449 0.30585 0.3017 0.0
C3686 C 0.1721 0.26319 0.32197 0.0
C3687 C 0.17153 0.31799 0.28323 0.0
C3688 C 0.22578 0.29659 0.30441 0.0
C3689 C 0.22795 0.28591 0.2871 0.0
C3690 C 0.20794 0.29857 0.30939 0.0
C3691 C 0.19144 0.28924 0.29715 0.0
C3692 C 0.19355 0.27842 0.27967 0.0
C3693 C 0.21155 0.27728 0.27472 0.0
C3694 C 0.2068 0.31087 0.32776 0.0
C3695 C 0.17673 0.26761 0.26627 0.0
H3696 H 0.13899 0.2707 0.32976 0.0
H3697 H 0.138 0.31635 0.29624 0.0
H3698 H 0.17541 0.25431 0.30944 0.0
H3699 H 0.18544 0.26949 0.3312 0.0
H3700 H 0.16312 0.25423 0.33062 0.0
H3701 H 0.16277 0.32816 0.27955 0.0
H3702 H 0.18531 0.32572 0.29055 0.0
H3703 H 0.17394 0.31027 0.26946 0.0
H3704 H 0.23808 0.30347 0.3142 0.0
H3705 H 0.2127 0.26947 0.26102 0.0
H3706 H 0.19724 0.30326 0.33691 0.0
H3707 H 0.20102 0.32305 0.32386 0.0
H3708 H 0.22061 0.31598 0.33657 0.0
H3709 H 0.16935 0.25635 0.27376 0.0
H3710 H 0.18052 0.26121 0.25245 0.0
H3711 H 0.16682 0.27673 0.26271 0.0
C3712 C 0.99289 0.01676 0.1652 0.0
C3713 C 0.975 0.01997 0.16735 0.0
C3714 C 1.00025 0.01811 0.14732 0.0
C3715 C 0.98923 0.02213 0.13093 0.0
C3716 C 0.97103 0.02507 0.13298 0.0
C3717 C 0.96427 0.02424 0.15119 0.0
C3718 C 0.01992 0.01546 0.14606 0.0
C3719 C 0.95853 0.02876 0.11582 0.0
C3720 C 0.01055 0.04148 0.08742 0.0
C3721 C 0.00982 0.02525 0.07474 0.0
C3722 C 1.00472 0.04061 0.10607 0.0
C3723 C 0.99663 0.02318 0.11161 0.0
C3724 C 0.99537 0.00679 0.0985 0.0
C3725 C 1.00275 0.00799 0.08065 0.0
C3726 C 0.00753 0.05833 0.11996 0.0
C3727 C 0.98605 0.988 0.10318 0.0
H3728 H 1.00129 0.01357 0.17767 0.0
H3729 H 0.95036 0.02655 0.15271 0.0
H3730 H 0.01979 1.00271 0.13605 0.0
H3731 H 0.02798 0.02736 0.13997 0.0
H3732 H 0.02724 0.01419 0.1605 0.0
H3733 H 0.94443 0.0298 0.11953 0.0
H3734 H 0.9648 0.04192 0.11053 0.0
H3735 H 0.95712 0.01744 0.10359 0.0
H3736 H 0.01616 0.05484 0.08296 0.0
H3737 H 1.00271 0.99538 0.07113 0.0
H3738 H 0.01469 0.05651 0.13428 0.0
H3739 H 0.99386 0.06164 0.12252 0.0
H3740 H 0.01589 0.07035 0.1143 0.0
H3741 H 0.99452 0.98383 0.11545 0.0
H3742 H 0.98419 0.97704 0.09049 0.0
H3743 H 0.9722 0.98866 0.10781 0.0
C3744 C 0.25701 0.6966 0.45929 0.0
C3745 C 0.27156 0.68713 0.46273 0.0
C3746 C 0.25569 0.70631 0.44318 0.0
C3747 C 0.26964 0.70708 0.43057 0.0
C3748 C 0.28502 0.69858 0.43457 0.0
C3749 C 0.28567 0.68842 0.45051 0.0
C3750 C 0.23901 0.71519 0.43932 0.0
C3751 C 0.30044 0.69975 0.42175 0.0
C3752 C 0.24995 0.71392 0.38053 0.0
C3753 C 0.2532 0.73334 0.38224 0.0
C3754 C 0.25668 0.70496 0.39568 0.0
C3755 C 0.26715 0.71582 0.4126 0.0
C3756 C 0.27204 0.7354 0.41343 0.0
C3757 C 0.26468 0.74401 0.39828 0.0
C3758 C 0.25107 0.68404 0.39434 0.0
C3759 C 0.28382 0.74733 0.43091 0.0
H3760 H 0.2464 0.69617 0.46905 0.0
H3761 H 0.29695 0.68109 0.45305 0.0
H3762 H 0.24364 0.73036 0.43904 0.0
H3763 H 0.23122 0.70924 0.42482 0.0
H3764 H 0.22933 0.71309 0.45051 0.0
H3765 H 0.31264 0.69479 0.42847 0.0
H3766 H 0.29525 0.69111 0.40752 0.0
H3767 H 0.30507 0.71428 0.41874 0.0
H3768 H 0.24118 0.70582 0.36788 0.0
H3769 H 0.26744 0.75907 0.39921 0.0
H3770 H 0.24046 0.6804 0.4043 0.0
H3771 H 0.26316 0.67789 0.399 0.0
H3772 H 0.2451 0.67758 0.37931 0.0
H3773 H 0.27505 0.74913 0.44275 0.0
H3774 H 0.28999 0.76134 0.42734 0.0
H3775 H 0.29521 0.74063 0.43658 0.0
C3776 C 0.61515 0.01809 0.6444 0.0
C3777 C 0.61017 0.02465 0.6623 0.0
C3778 C 0.6031 0.01682 0.6273 0.0
C3779 C 0.58567 0.02195 0.62843 0.0
C3780 C 0.5801 0.02744 0.64663 0.0
C3781 C 0.59261 0.02895 0.66348 0.0
C3782 C 0.60953 0.01127 0.60797 0.0
C3783 C 0.56135 0.03253 0.6482 0.0
C3784 C 0.56725 0.04251 0.5852 0.0
C3785 C 0.55643 0.02662 0.57412 0.0
C3786 C 0.577 0.04115 0.60306 0.0
C3787 C 0.57441 0.02377 0.61041 0.0
C3788 C 0.56219 0.00799 0.59984 0.0
C3789 C 0.5538 0.00947 0.58131 0.0
C3790 C 0.59063 0.05805 0.61357 0.0
C3791 C 0.55826 0.9896 0.60789 0.0
H3792 H 0.62886 0.0149 0.64369 0.0
H3793 H 0.58886 0.03382 0.67751 0.0
H3794 H 0.59909 0.99973 0.59934 0.0
H3795 H 0.61096 0.02323 0.59935 0.0
H3796 H 0.62312 0.00682 0.60979 0.0
H3797 H 0.55809 0.03364 0.66349 0.0
H3798 H 0.56121 0.04613 0.64274 0.0
H3799 H 0.55018 0.02205 0.63904 0.0
H3800 H 0.56871 0.05578 0.57949 0.0
H3801 H 0.54489 0.99738 0.5726 0.0
H3802 H 0.60478 0.05488 0.61571 0.0
H3803 H 0.5867 0.06182 0.62821 0.0
H3804 H 0.59129 0.07031 0.60541 0.0
H3805 H 0.57046 0.98287 0.60727 0.0
H3806 H 0.54591 0.97996 0.5995 0.0
H3807 H 0.55585 0.99172 0.6234 0.0
C3808 C 0.29973 0.32363 0.92329 0.0
C3809 C 0.28298 0.32383 0.93128 0.0
C3810 C 0.29981 0.31665 0.90367 0.0
C3811 C 0.28273 0.30965 0.89157 0.0
C3812 C 0.26578 0.30937 0.8996 0.0
C3813 C 0.2661 0.31647 0.91929 0.0
C3814 C 0.3182 0.31735 0.89569 0.0
C3815 C 0.24726 0.30185 0.88728 0.0
C3816 C 0.28152 0.31127 0.83681 0.0
C3817 C 0.28239 0.29297 0.82986 0.0
C3818 C 0.28178 0.31686 0.8568 0.0
C3819 C 0.28263 0.30376 0.87026 0.0
C3820 C 0.28353 0.28521 0.86331 0.0
C3821 C 0.28362 0.2801 0.84322 0.0
C3822 C 0.28116 0.33684 0.86352 0.0
C3823 C 0.28418 0.27073 0.87707 0.0
H3824 H 0.31287 0.3295 0.93222 0.0
H3825 H 0.25307 0.31625 0.9253 0.0
H3826 H 0.31909 0.30338 0.8887 0.0
H3827 H 0.31929 0.32684 0.88426 0.0
H3828 H 0.33027 0.32227 0.90719 0.0
H3829 H 0.23536 0.3015 0.89593 0.0
H3830 H 0.24541 0.31063 0.87547 0.0
H3831 H 0.24688 0.28757 0.8802 0.0
H3832 H 0.28078 0.32135 0.82658 0.0
H3833 H 0.28426 0.26591 0.83792 0.0
H3834 H 0.29331 0.34308 0.87454 0.0
H3835 H 0.26843 0.33743 0.87061 0.0
H3836 H 0.2812 0.34544 0.85129 0.0
H3837 H 0.29699 0.27483 0.88767 0.0
H3838 H 0.28395 0.25674 0.86927 0.0
H3839 H 0.27214 0.26979 0.88555 0.0
C3840 C 0.96803 0.02699 0.3813 0.0
C3841 C 0.97839 0.02268 0.36618 0.0
C3842 C 0.97503 0.02741 0.40105 0.0
C3843 C 0.99294 0.02357 0.40597 0.0
C3844 C 1.00358 0.01945 0.3908 0.0
C3845 C 0.99618 0.01896 0.37116 0.0
C3846 C 0.96311 0.0317 0.41667 0.0
C3847 C 0.02279 0.01543 0.39533 0.0
C3848 C 0.01751 0.03963 0.4579 0.0
C3849 C 0.01413 0.0232 0.46671 0.0
C3850 C 0.0107 0.03998 0.43825 0.0
C3851 C 1.00033 0.02347 0.42694 0.0
C3852 C 0.99683 0.00687 0.43578 0.0
C3853 C 1.00357 0.007 0.45553 0.0
C3854 C 0.01464 0.05805 0.42958 0.0
C3855 C 0.98591 0.98891 0.42438 0.0
H3856 H 0.95419 0.02963 0.37768 0.0
H3857 H 1.00441 0.01581 0.35966 0.0
H3858 H 0.96021 0.01973 0.42512 0.0
H3859 H 0.97064 0.04387 0.42706 0.0
H3860 H 0.94963 0.03471 0.41052 0.0
H3861 H 0.02952 0.01297 0.38197 0.0
H3862 H 0.0318 0.02726 0.40513 0.0
H3863 H 0.02196 1.00297 0.40315 0.0
H3864 H 0.0255 0.0523 0.46638 0.0
H3865 H 1.00046 0.99436 0.46221 0.0
H3866 H 1.00137 0.06182 0.424 0.0
H3867 H 0.02258 0.0564 0.41699 0.0
H3868 H 0.0227 0.06971 0.44033 0.0
H3869 H 0.97177 0.99069 0.41888 0.0
H3870 H 0.98457 0.97716 0.43329 0.0
H3871 H 0.99282 0.9852 0.4115 0.0
C3872 C 0.26386 0.68253 0.65606 0.0
C3873 C 0.27539 0.68851 0.64218 0.0
C3874 C 0.26421 0.6939 0.67352 0.0
C3875 C 0.27617 0.71159 0.67681 0.0
C3876 C 0.28805 0.71754 0.66297 0.0
C3877 C 0.28755 0.70583 0.64576 0.0
C3878 C 0.25161 0.68717 0.68827 0.0
C3879 C 0.30089 0.73646 0.66609 0.0
C3880 C 0.26449 0.75024 0.70985 0.0
C3881 C 0.27752 0.75116 0.72619 0.0
C3882 C 0.2635 0.73693 0.69378 0.0
C3883 C 0.27577 0.72433 0.69435 0.0
C3884 C 0.28856 0.72486 0.71108 0.0
C3885 C 0.2895 0.73856 0.72674 0.0
C3886 C 0.24985 0.73676 0.67596 0.0
C3887 C 0.3017 0.71147 0.71217 0.0
H3888 H 0.25462 0.66898 0.65323 0.0
H3889 H 0.29631 0.71041 0.63484 0.0
H3890 H 0.25985 0.68815 0.70278 0.0
H3891 H 0.24128 0.6962 0.68993 0.0
H3892 H 0.24402 0.67257 0.68398 0.0
H3893 H 0.30962 0.73866 0.65409 0.0
H3894 H 0.29257 0.74751 0.66714 0.0
H3895 H 0.31019 0.73815 0.68003 0.0
H3896 H 0.25528 0.76009 0.70953 0.0
H3897 H 0.29995 0.73968 0.73921 0.0
H3898 H 0.24095 0.7227 0.67189 0.0
H3899 H 0.25754 0.74009 0.66343 0.0
H3900 H 0.24073 0.74698 0.67828 0.0
H3901 H 0.29397 0.69695 0.70778 0.0
H3902 H 0.30923 0.71244 0.72706 0.0
H3903 H 0.3121 0.71449 0.70186 0.0
C3904 C 0.60747 0.04474 0.83393 0.0
C3905 C 0.6203 0.033 0.83326 0.0
C3906 C 0.59718 0.04594 0.8496 0.0
C3907 C 0.59956 0.03482 0.86472 0.0
C3908 C 0.61117 0.02166 0.86325 0.0
C3909 C 0.62161 0.021 0.84753 0.0
C3910 C 0.5848 0.0601 0.85064 0.0
C3911 C 0.61353 0.00918 0.87884 0.0
C3912 C 0.59362 0.06092 0.91208 0.0
C3913 C 0.57478 0.05425 0.91302 0.0
C3914 C 0.60241 0.05344 0.89719 0.0
C3915 C 0.59191 0.03908 0.88304 0.0
C3916 C 0.57321 0.03132 0.88494 0.0
C3917 C 0.56476 0.03913 0.9 0.0
C3918 C 0.62248 0.06189 0.89577 0.0
C3919 C 0.56178 0.0157 0.87039 0.0
H3920 H 0.60602 0.05358 0.82255 0.0
H3921 H 0.63145 0.01181 0.84696 0.0
H3922 H 0.57065 0.05346 0.85336 0.0
H3923 H 0.59056 0.07117 0.86298 0.0
H3924 H 0.58356 0.06673 0.83704 0.0
H3925 H 0.61948 0.99712 0.87348 0.0
H3926 H 0.62309 0.01722 0.8915 0.0
H3927 H 0.60002 0.00392 0.88408 0.0
H3928 H 0.60126 0.07242 0.92258 0.0
H3929 H 0.5502 0.03389 0.9012 0.0
H3930 H 0.62321 0.06984 0.88305 0.0
H3931 H 0.63063 0.05084 0.89344 0.0
H3932 H 0.62915 0.07145 0.90907 0.0
H3933 H 0.55673 0.0215 0.8572 0.0
H3934 H 0.54947 0.00834 0.87645 0.0
H3935 H 0.57024 0.00548 0.86576 0.0
C3936 C 0.27009 0.31585 0.13008 0.0
C3937 C 0.28489 0.33031 0.12793 0.0
C3938 C 0.26856 0.30863 0.14797 0.0
C3939 C 0.28213 0.31601 0.16422 0.0
C3940 C 0.29723 0.33041 0.16211 0.0
C3941 C 0.29841 0.33739 0.14405 0.0
C3942 C 0.25236 0.29312 0.14951 0.0
C3943 C 0.3121 0.33856 0.179 0.0
C3944 C 0.2703 0.30984 0.21578 0.0
C3945 C 0.27855 0.29483 0.21993 0.0
C3946 C 0.27114 0.31673 0.19763 0.0
C3947 C 0.28066 0.30856 0.18338 0.0
C3948 C 0.28905 0.29343 0.18756 0.0
C3949 C 0.28786 0.28675 0.20571 0.0
C3950 C 0.26192 0.33281 0.19373 0.0
C3951 C 0.29952 0.28441 0.17296 0.0
H3952 H 0.25972 0.31005 0.11769 0.0
H3953 H 0.30978 0.34869 0.1427 0.0
H3954 H 0.25754 0.2808 0.15394 0.0
H3955 H 0.24412 0.2976 0.16095 0.0
H3956 H 0.24301 0.28886 0.13554 0.0
H3957 H 0.3231 0.34948 0.17493 0.0
H3958 H 0.30574 0.34471 0.19124 0.0
H3959 H 0.3187 0.32743 0.18444 0.0
H3960 H 0.26315 0.31618 0.22671 0.0
H3961 H 0.29456 0.27532 0.20888 0.0
H3962 H 0.25153 0.32877 0.18051 0.0
H3963 H 0.27245 0.34476 0.19081 0.0
H3964 H 0.25482 0.33742 0.20615 0.0
H3965 H 0.2902 0.27905 0.15917 0.0
H3966 H 0.3052 0.27273 0.17843 0.0
H3967 H 0.31122 0.29488 0.16943 0.0
C3968 C 0.19675 0.97381 0.98125 0.0
C3969 C 0.21096 0.97294 0.9959 0.0
C3970 C 0.18012 0.97852 0.98612 0.0
C3971 C 0.17785 0.98215 0.00603 0.0
C3972 C 0.19227 0.98145 0.02083 0.0
C3973 C 0.20865 0.97682 0.01555 0.0
C3974 C 0.16499 0.97946 0.97012 0.0
C3975 C 0.19027 0.98518 0.04227 0.0
C3976 C 0.14505 0.00934 0.02698 0.0
C3977 C 0.13201 0.99506 0.03265 0.0
C3978 C 0.15919 0.00524 0.01645 0.0
C3979 C 0.1604 0.98645 0.01184 0.0
C3980 C 0.14661 0.97195 0.01639 0.0
C3981 C 0.13248 0.97646 0.02679 0.0
C3982 C 0.17374 0.02103 0.01184 0.0
C3983 C 0.14761 0.95175 0.01171 0.0
H3984 H 0.19865 0.97072 0.96607 0.0
H3985 H 0.21949 0.97565 0.02689 0.0
H3986 H 0.152 0.96963 0.97172 0.0
H3987 H 0.16182 0.99363 0.97129 0.0
H3988 H 0.16895 0.97609 0.95536 0.0
H3989 H 0.20299 0.98422 0.05186 0.0
H3990 H 0.18731 0.99928 0.04563 0.0
H3991 H 0.17838 0.97503 0.04594 0.0
H3992 H 0.14478 0.02377 0.03161 0.0
H3993 H 0.12213 0.96546 0.03082 0.0
H3994 H 0.17745 0.01811 0.99691 0.0
H3995 H 0.18659 0.02257 0.0222 0.0
H3996 H 0.16896 0.03446 0.01308 0.0
H3997 H 0.15077 0.94887 0.99656 0.0
H3998 H 0.13444 0.94226 0.01351 0.0
H3999 H 0.15905 0.94852 0.02162 0.0
C4000 C 0.6607 0.61068 0.02537 0.0
C4001 C 0.67089 0.60733 0.0098 0.0
C4002 C 0.6433 0.5994 0.02662 0.0
C4003 C 0.6357 0.58437 0.01189 0.0
C4004 C 0.64577 0.58096 0.99603 0.0
C4005 C 0.66321 0.59242 0.99519 0.0
C4006 C 0.63297 0.60369 0.04368 0.0
C4007 C 0.63812 0.56513 0.97997 0.0
C4008 C 0.59755 0.54658 0.02509 0.0
C4009 C 0.58135 0.55131 0.01635 0.0
C4010 C 0.61533 0.55681 0.02321 0.0
C4011 C 0.61701 0.57256 0.0129 0.0
C4012 C 0.60072 0.57745 0.00413 0.0
C4013 C 0.58319 0.56668 0.00574 0.0
C4014 C 0.63235 0.55092 0.03251 0.0
C4015 C 0.60175 0.59432 0.99336 0.0
H4016 H 0.66619 0.62235 0.03655 0.0
H4017 H 0.67095 0.58949 0.98319 0.0
H4018 H 0.61925 0.60665 0.03833 0.0
H4019 H 0.63025 0.59144 0.05176 0.0
H4020 H 0.6408 0.61581 0.05399 0.0
H4021 H 0.64774 0.56413 0.96877 0.0
H4022 H 0.63545 0.55177 0.98622 0.0
H4023 H 0.6246 0.56701 0.9727 0.0
H4024 H 0.5964 0.53507 0.03366 0.0
H4025 H 0.57086 0.57061 0.99895 0.0
H4026 H 0.63982 0.56187 0.04431 0.0
H4027 H 0.64208 0.54926 0.02157 0.0
H4028 H 0.62878 0.53762 0.03877 0.0
H4029 H 0.60848 0.60703 0.00342 0.0
H4030 H 0.58779 0.59611 0.98714 0.0
H4031 H 0.61044 0.5932 0.98134 0.0
C4032 C 0.67866 0.44295 0.28809 0.0
C4033 C 0.68552 0.45958 0.28078 0.0
C4034 C 0.68761 0.42777 0.28593 0.0
C4035 C 0.70389 0.42946 0.2765 0.0
C4036 C 0.71122 0.4465 0.26978 0.0
C4037 C 0.70186 0.4613 0.27187 0.0
C4038 C 0.67927 0.40974 0.29304 0.0
C4039 C 0.72873 0.44899 0.25995 0.0
C4040 C 0.73796 0.39709 0.28099 0.0
C4041 C 0.73434 0.38692 0.26241 0.0
C4042 C 0.72748 0.41043 0.28626 0.0
C4043 C 0.71291 0.41329 0.27268 0.0
C4044 C 0.70841 0.40202 0.25439 0.0
C4045 C 0.71937 0.38909 0.24937 0.0
C4046 C 0.73287 0.42231 0.30578 0.0
C4047 C 0.6927 0.40433 0.2397 0.0
H4048 H 0.66595 0.4416 0.29487 0.0
H4049 H 0.70726 0.47425 0.26641 0.0
H4050 H 0.67402 0.39893 0.28035 0.0
H4051 H 0.69001 0.40468 0.30222 0.0
H4052 H 0.66758 0.41119 0.30159 0.0
H4053 H 0.73329 0.46351 0.25682 0.0
H4054 H 0.7402 0.44516 0.26929 0.0
H4055 H 0.72633 0.4396 0.246 0.0
H4056 H 0.74963 0.39533 0.29097 0.0
H4057 H 0.7166 0.38104 0.23504 0.0
H4058 H 0.72038 0.42339 0.31313 0.0
H4059 H 0.73955 0.4366 0.30354 0.0
H4060 H 0.74276 0.41673 0.31559 0.0
H4061 H 0.67989 0.40458 0.24675 0.0
H4062 H 0.68957 0.393 0.22727 0.0
H4063 H 0.69648 0.41781 0.23387 0.0
C4064 C 0.901 0.48514 0.52061 0.0
C4065 C 0.887 0.48876 0.50723 0.0
C4066 C 0.91968 0.49251 0.51954 0.0
C4067 C 0.92437 0.50351 0.50453 0.0
C4068 C 0.91032 0.50789 0.49153 0.0
C4069 C 0.8917 0.50054 0.49312 0.0
C4070 C 0.93438 0.48764 0.53384 0.0
C4071 C 0.91493 0.51934 0.47525 0.0
C4072 C 0.97419 0.52764 0.51551 0.0
C4073 C 0.98254 0.51332 0.50832 0.0
C4074 C 0.95487 0.52564 0.5126 0.0
C4075 C 0.94409 0.50911 0.50187 0.0
C4076 C 0.95281 0.49585 0.49233 0.0
C4077 C 0.97205 0.49781 0.49628 0.0
C4078 C 0.94607 0.53983 0.5234 0.0
C4079 C 0.94175 0.47845 0.48004 0.0
H4080 H 0.89744 0.47578 0.53131 0.0
H4081 H 0.88083 0.5035 0.4829 0.0
H4082 H 0.94196 0.47806 0.52611 0.0
H4083 H 0.94472 0.50032 0.54029 0.0
H4084 H 0.92831 0.48074 0.54586 0.0
H4085 H 0.90256 0.52392 0.46839 0.0
H4086 H 0.92596 0.53178 0.48065 0.0
H4087 H 0.92031 0.51084 0.46387 0.0
H4088 H 0.98247 0.53937 0.52528 0.0
H4089 H 0.97871 0.48663 0.49114 0.0
H4090 H 0.94183 0.53466 0.53706 0.0
H4091 H 0.93342 0.54205 0.51463 0.0
H4092 H 0.95595 0.5534 0.52738 0.0
H4093 H 0.93625 0.46819 0.48971 0.0
H4094 H 0.95049 0.47195 0.47037 0.0
H4095 H 0.92973 0.48155 0.47092 0.0
C4096 C 0.34528 0.11045 0.29838 0.0
C4097 C 0.33222 0.09486 0.30104 0.0
C4098 C 0.33945 0.12606 0.29236 0.0
C4099 C 0.32016 0.1259 0.28935 0.0
C4100 C 0.30703 0.11082 0.2939 0.0
C4101 C 0.31328 0.09518 0.29951 0.0
C4102 C 0.35378 0.14183 0.28733 0.0
C4103 C 0.28639 0.11047 0.29117 0.0
C4104 C 0.30954 0.17211 0.27978 0.0
C4105 C 0.30771 0.17014 0.25935 0.0
C4106 C 0.3126 0.15736 0.28987 0.0
C4107 C 0.3139 0.14045 0.27914 0.0
C4108 C 0.31142 0.13819 0.25848 0.0
C4109 C 0.30841 0.15321 0.24877 0.0
C4110 C 0.31516 0.16005 0.31191 0.0
C4111 C 0.3126 0.12017 0.24665 0.0
H4112 H 0.35991 0.10974 0.29928 0.0
H4113 H 0.30335 0.08279 0.30132 0.0
H4114 H 0.3523 0.14197 0.27128 0.0
H4115 H 0.35156 0.15542 0.29404 0.0
H4116 H 0.36824 0.1405 0.29225 0.0
H4117 H 0.27862 0.09978 0.29908 0.0
H4118 H 0.28346 0.12425 0.29629 0.0
H4119 H 0.28106 0.10717 0.27542 0.0
H4120 H 0.30888 0.18531 0.28786 0.0
H4121 H 0.30655 0.15175 0.23296 0.0
H4122 H 0.32989 0.16027 0.31738 0.0
H4123 H 0.30647 0.14828 0.31757 0.0
H4124 H 0.31152 0.17325 0.31795 0.0
H4125 H 0.32696 0.1176 0.2492 0.0
H4126 H 0.30897 0.12034 0.23075 0.0
H4127 H 0.30311 0.10833 0.2513 0.0
C4128 C 0.35061 0.10478 0.52856 0.0
C4129 C 0.34786 0.11545 0.51333 0.0
C4130 C 0.36576 0.0958 0.53023 0.0
C4131 C 0.37847 0.09735 0.51622 0.0
C4132 C 0.37541 0.10747 0.50036 0.0
C4133 C 0.36019 0.11647 0.49914 0.0
C4134 C 0.36843 0.08507 0.54735 0.0
C4135 C 0.38852 0.10927 0.48503 0.0
C4136 C 0.42595 0.0914 0.53761 0.0
C4137 C 0.42487 0.07234 0.53239 0.0
C4138 C 0.41152 0.10009 0.53112 0.0
C4139 C 0.39557 0.08941 0.51918 0.0
C4140 C 0.39518 0.0705 0.51248 0.0
C4141 C 0.40987 0.06214 0.51924 0.0
C4142 C 0.4126 0.12028 0.53856 0.0
C4143 C 0.37855 0.05867 0.49959 0.0
H4144 H 0.34095 0.10352 0.53933 0.0
H4145 H 0.35828 0.12477 0.48737 0.0
H4146 H 0.36935 0.07059 0.54212 0.0
H4147 H 0.38171 0.09158 0.5566 0.0
H4148 H 0.35692 0.08463 0.55655 0.0
H4149 H 0.38325 0.11606 0.47266 0.0
H4150 H 0.40228 0.11764 0.49164 0.0
H4151 H 0.39075 0.09537 0.47928 0.0
H4152 H 0.4375 0.09919 0.54796 0.0
H4153 H 0.40894 0.04733 0.51544 0.0
H4154 H 0.40265 0.12126 0.54939 0.0
H4155 H 0.40862 0.12804 0.52647 0.0
H4156 H 0.42677 0.12717 0.54566 0.0
H4157 H 0.36704 0.05496 0.50848 0.0
H4158 H 0.38181 0.04559 0.4927 0.0
H4159 H 0.37348 0.06642 0.48797 0.0
C4160 C 0.69666 0.65134 0.29887 0.0
C4161 C 0.70132 0.63504 0.29034 0.0
C4162 C 0.70764 0.66894 0.29779 0.0
C4163 C 0.72392 0.67025 0.28834 0.0
C4164 C 0.72913 0.65375 0.2805 0.0
C4165 C 0.71764 0.63638 0.28135 0.0
C4166 C 0.70136 0.68616 0.30597 0.0
C4167 C 0.74669 0.65446 0.27091 0.0
C4168 C 0.74117 0.71376 0.26505 0.0
C4169 C 0.75407 0.7245 0.28001 0.0
C4170 C 0.73089 0.69637 0.26782 0.0
C4171 C 0.73473 0.68885 0.28542 0.0
C4172 C 0.74882 0.69915 0.30005 0.0
C4173 C 0.75798 0.71711 0.29737 0.0
C4174 C 0.71565 0.68625 0.25206 0.0
C4175 C 0.75418 0.69127 0.31852 0.0
H4176 H 0.68399 0.65037 0.3057 0.0
H4177 H 0.72139 0.62379 0.27492 0.0
H4178 H 0.71257 0.69503 0.31661 0.0
H4179 H 0.69839 0.69448 0.29402 0.0
H4180 H 0.68866 0.68278 0.31332 0.0
H4181 H 0.74984 0.64042 0.2675 0.0
H4182 H 0.74524 0.66073 0.25713 0.0
H4183 H 0.75869 0.6634 0.28053 0.0
H4184 H 0.73884 0.71912 0.25126 0.0
H4185 H 0.76834 0.7253 0.30874 0.0
H4186 H 0.70232 0.68284 0.25828 0.0
H4187 H 0.71901 0.67293 0.24607 0.0
H4188 H 0.7136 0.69459 0.23987 0.0
H4189 H 0.7428 0.69069 0.32784 0.0
H4190 H 0.76712 0.6998 0.327 0.0
H4191 H 0.75629 0.67684 0.31505 0.0
C4192 C 0.81316 0.4095 0.75481 0.0
C4193 C 0.82144 0.41887 0.77307 0.0
C4194 C 0.80597 0.39036 0.75254 0.0
C4195 C 0.80721 0.3806 0.76894 0.0
C4196 C 0.81552 0.39001 0.78742 0.0
C4197 C 0.82257 0.4091 0.78925 0.0
C4198 C 0.7971 0.38056 0.7327 0.0
C4199 C 0.81719 0.37989 0.80519 0.0
C4200 C 0.7755 0.33509 0.7721 0.0
C4201 C 0.78768 0.3228 0.7699 0.0
C4202 C 0.78141 0.35398 0.77082 0.0
C4203 C 0.79981 0.36049 0.76698 0.0
C4204 C 0.81176 0.34795 0.76342 0.0
C4205 C 0.80553 0.32914 0.76502 0.0
C4206 C 0.76844 0.36709 0.77497 0.0
C4207 C 0.83147 0.35458 0.75925 0.0
H4208 H 0.81231 0.41717 0.74235 0.0
H4209 H 0.82936 0.41634 0.80327 0.0
H4210 H 0.80455 0.36946 0.72799 0.0
H4211 H 0.78247 0.37372 0.73347 0.0
H4212 H 0.79721 0.39024 0.72145 0.0
H4213 H 0.8239 0.38941 0.81851 0.0
H4214 H 0.80321 0.37278 0.80795 0.0
H4215 H 0.82552 0.36902 0.80262 0.0
H4216 H 0.76163 0.33011 0.7758 0.0
H4217 H 0.81502 0.31966 0.76356 0.0
H4218 H 0.76816 0.37666 0.76367 0.0
H4219 H 0.77356 0.37576 0.78921 0.0
H4220 H 0.754 0.35954 0.77557 0.0
H4221 H 0.83146 0.36243 0.74645 0.0
H4222 H 0.83877 0.34291 0.75634 0.0
H4223 H 0.83952 0.36421 0.77187 0.0
C4224 C 0.05632 0.89028 0.04876 0.0
C4225 C 0.04567 0.882 0.06254 0.0
C4226 C 0.0545 0.90786 0.04287 0.0
C4227 C 0.0417 0.91787 0.05078 0.0
C4228 C 0.03084 0.9096 0.06455 0.0
C4229 C 0.03294 0.89205 0.07021 0.0
C4230 C 0.06646 0.91583 0.02817 0.0
C4231 C 0.0171 0.91952 0.07366 0.0
C4232 C 0.04926 0.97142 0.0509 0.0
C4233 C 0.03647 0.97362 0.0352 0.0
C4234 C 0.05114 0.95363 0.05597 0.0
C4235 C 0.04002 0.93713 0.04518 0.0
C4236 C 0.02714 0.93922 0.02924 0.0
C4237 C 0.02559 0.95721 0.02446 0.0
C4238 C 0.06527 0.95257 0.07291 0.0
C4239 C 0.01481 0.92236 0.01719 0.0
H4240 H 0.06605 0.88293 0.04231 0.0
H4241 H 0.02476 0.8864 0.08109 0.0
H4242 H 0.05757 0.919 0.01558 0.0
H4243 H 0.07569 0.92912 0.03491 0.0
H4244 H 0.07521 0.9062 0.0227 0.0
H4245 H 0.00929 0.91122 0.08374 0.0
H4246 H 0.02455 0.93302 0.08189 0.0
H4247 H 0.007 0.92264 0.06211 0.0
H4248 H 0.05789 0.98372 0.05944 0.0
H4249 H 0.01581 0.95835 0.01218 0.0
H4250 H 0.07746 0.94806 0.06725 0.0
H4251 H 0.05942 0.94221 0.0823 0.0
H4252 H 0.07015 0.96621 0.08207 0.0
H4253 H 0.02343 0.91286 0.01119 0.0
H4254 H 0.00597 0.92611 0.0049 0.0
H4255 H 0.00565 0.91455 0.02656 0.0
C4256 C 0.90323 0.2493 0.85196 0.0
C4257 C 0.90954 0.26215 0.86887 0.0
C4258 C 0.88683 0.24982 0.83964 0.0
C4259 C 0.87623 0.26355 0.84411 0.0
C4260 C 0.88237 0.27642 0.86122 0.0
C4261 C 0.89877 0.27556 0.87329 0.0
C4262 C 0.88096 0.23579 0.82163 0.0
C4263 C 0.87159 0.29124 0.86679 0.0
C4264 C 0.84403 0.27744 0.80339 0.0
C4265 C 0.8263 0.2677 0.80604 0.0
C4266 C 0.86026 0.27599 0.81538 0.0
C4267 C 0.85898 0.26471 0.83077 0.0
C4268 C 0.84113 0.2548 0.8335 0.0
C4269 C 0.82514 0.25631 0.82112 0.0
C4270 C 0.87886 0.28671 0.81166 0.0
C4271 C 0.83888 0.24262 0.84962 0.0
H4272 H 0.91133 0.23897 0.84805 0.0
H4273 H 0.90306 0.28539 0.8864 0.0
H4274 H 0.86654 0.22804 0.8218 0.0
H4275 H 0.88096 0.24307 0.80842 0.0
H4276 H 0.89029 0.22564 0.82039 0.0
H4277 H 0.87795 0.30006 0.88065 0.0
H4278 H 0.87091 0.30031 0.85505 0.0
H4279 H 0.85707 0.28469 0.86837 0.0
H4280 H 0.84526 0.28645 0.79202 0.0
H4281 H 0.81164 0.24855 0.82332 0.0
H4282 H 0.88851 0.27708 0.80923 0.0
H4283 H 0.88519 0.29683 0.82463 0.0
H4284 H 0.87768 0.29439 0.79879 0.0
H4285 H 0.84716 0.23161 0.84774 0.0
H4286 H 0.82412 0.23589 0.84996 0.0
H4287 H 0.84429 0.25102 0.86394 0.0
C4288 C 0.52998 0.17324 0.54743 0.0
C4289 C 0.54592 0.18463 0.55862 0.0
C4290 C 0.52873 0.15388 0.54207 0.0
C4291 C 0.54375 0.14525 0.54784 0.0
C4292 C 0.56001 0.15665 0.55871 0.0
C4293 C 0.56086 0.17593 0.56399 0.0
C4294 C 0.51111 0.14256 0.5304 0.0
C4295 C 0.57649 0.14837 0.56517 0.0
C4296 C 0.53321 0.09273 0.55274 0.0
C4297 C 0.53877 0.08452 0.53567 0.0
C4298 C 0.53482 0.11223 0.55679 0.0
C4299 C 0.5421 0.12426 0.54349 0.0
C4300 C 0.54779 0.11608 0.52623 0.0
C4301 C 0.54607 0.09648 0.52257 0.0
C4302 C 0.52863 0.11997 0.57543 0.0
C4303 C 0.55548 0.12802 0.51141 0.0
H4304 H 0.51837 0.17944 0.54269 0.0
H4305 H 0.57321 0.18408 0.57284 0.0
H4306 H 0.51443 0.13499 0.51699 0.0
H4307 H 0.50437 0.13195 0.53906 0.0
H4308 H 0.50099 0.15129 0.52616 0.0
H4309 H 0.58853 0.1591 0.57253 0.0
H4310 H 0.57247 0.13814 0.57541 0.0
H4311 H 0.58094 0.14076 0.55245 0.0
H4312 H 0.52754 0.08387 0.5631 0.0
H4313 H 0.55017 0.09052 0.50919 0.0
H4314 H 0.51735 0.12762 0.57198 0.0
H4315 H 0.54038 0.13006 0.58422 0.0
H4316 H 0.52348 0.10893 0.58442 0.0
H4317 H 0.54463 0.1351 0.50522 0.0
H4318 H 0.56019 0.11979 0.49927 0.0
H4319 H 0.56738 0.13902 0.5185 0.0
C4320 C 0.58932 0.78055 0.36084 0.0
C4321 C 0.58922 0.77226 0.37815 0.0
C4322 C 0.60501 0.78272 0.35062 0.0
C4323 C 0.62131 0.77682 0.358 0.0
C4324 C 0.62133 0.76848 0.37552 0.0
C4325 C 0.60528 0.76615 0.38526 0.0
C4326 C 0.60412 0.79135 0.33184 0.0
C4327 C 0.63842 0.76225 0.38414 0.0
C4328 C 0.65483 0.76927 0.3207 0.0
C4329 C 0.66731 0.78646 0.32343 0.0
C4330 C 0.64037 0.76559 0.33245 0.0
C4331 C 0.63821 0.77948 0.34729 0.0
C4332 C 0.65141 0.79655 0.35069 0.0
C4333 C 0.6657 0.79988 0.33865 0.0
C4334 C 0.62673 0.74722 0.32817 0.0
C4335 C 0.64985 0.81172 0.36639 0.0
H4336 H 0.57695 0.78514 0.3551 0.0
H4337 H 0.60544 0.7599 0.39872 0.0
H4338 H 0.61481 0.80437 0.33333 0.0
H4339 H 0.60724 0.78175 0.31981 0.0
H4340 H 0.59026 0.79464 0.32768 0.0
H4341 H 0.63609 0.75556 0.39754 0.0
H4342 H 0.64271 0.75228 0.37332 0.0
H4343 H 0.65015 0.77441 0.38782 0.0
H4344 H 0.65583 0.75903 0.3087 0.0
H4345 H 0.67511 0.81332 0.34056 0.0
H4346 H 0.61303 0.74955 0.32187 0.0
H4347 H 0.62463 0.74091 0.34179 0.0
H4348 H 0.63143 0.73718 0.3177 0.0
H4349 H 0.6373 0.81742 0.36234 0.0
H4350 H 0.66221 0.82331 0.36861 0.0
H4351 H 0.64818 0.80601 0.38042 0.0
C4352 C 0.04914 0.21421 0.43249 0.0
C4353 C 0.03432 0.21679 0.41925 0.0
C4354 C 0.04754 0.19863 0.44294 0.0
C4355 C 0.03065 0.18523 0.44033 0.0
C4356 C 0.01571 0.18767 0.42692 0.0
C4357 C 0.01775 0.20323 0.41654 0.0
C4358 C 0.06388 0.19659 0.45693 0.0
C4359 C 0.9974 0.17385 0.42363 0.0
C4360 C 0.02605 0.13547 0.45339 0.0
C4361 C 0.01731 0.13655 0.47036 0.0
C4362 C 0.03157 0.15143 0.44408 0.0
C4363 C 0.0282 0.16889 0.45186 0.0
C4364 C 0.02056 0.1702 0.46976 0.0
C4365 C 0.01512 0.15404 0.47869 0.0
C4366 C 0.03977 0.14931 0.42515 0.0
C4367 C 0.01681 0.18842 0.47878 0.0
H4368 H 0.06197 0.22456 0.43501 0.0
H4369 H 0.00629 0.20463 0.4061 0.0
H4370 H 0.05997 0.19675 0.47194 0.0
H4371 H 0.06778 0.18299 0.45302 0.0
H4372 H 0.07623 0.20786 0.45694 0.0
H4373 H 0.98716 0.17762 0.41265 0.0
H4374 H 0.99969 0.15978 0.41864 0.0
H4375 H 0.9913 0.17304 0.43755 0.0
H4376 H 0.02741 0.12194 0.44667 0.0
H4377 H 0.00808 0.15489 0.49162 0.0
H4378 H 0.05216 0.16052 0.42518 0.0
H4379 H 0.02938 0.15058 0.41289 0.0
H4380 H 0.04387 0.13562 0.42241 0.0
H4381 H 0.02924 0.19971 0.47944 0.0
H4382 H 0.01289 0.18763 0.49375 0.0
H4383 H 0.00527 0.1923 0.46959 0.0
C4384 C 0.63474 0.25604 0.22167 0.0
C4385 C 0.62309 0.26196 0.23486 0.0
C4386 C 0.65412 0.2576 0.22703 0.0
C4387 C 0.66249 0.26508 0.24624 0.0
C4388 C 0.65085 0.27106 0.25969 0.0
C4389 C 0.63151 0.26959 0.25385 0.0
C4390 C 0.66573 0.25131 0.21195 0.0
C4391 C 0.65883 0.27893 0.28039 0.0
C4392 C 0.70988 0.25307 0.26378 0.0
C4393 C 0.72278 0.26932 0.2621 0.0
C4394 C 0.69041 0.25163 0.25913 0.0
C4395 C 0.68332 0.26669 0.25213 0.0
C4396 C 0.6963 0.28315 0.25035 0.0
C4397 C 0.71564 0.28431 0.2555 0.0
C4398 C 0.67739 0.23394 0.26186 0.0
C4399 C 0.68978 0.29958 0.24276 0.0
H4400 H 0.62876 0.25043 0.20686 0.0
H4401 H 0.6229 0.27412 0.26437 0.0
H4402 H 0.67704 0.26303 0.2101 0.0
H4403 H 0.67242 0.24007 0.21695 0.0
H4404 H 0.65736 0.24611 0.19755 0.0
H4405 H 0.64797 0.28212 0.28941 0.0
H4406 H 0.6661 0.26893 0.2873 0.0
H4407 H 0.66931 0.29189 0.28044 0.0
H4408 H 0.71494 0.24153 0.26915 0.0
H4409 H 0.72526 0.29701 0.25406 0.0
H4410 H 0.6695 0.2273 0.24763 0.0
H4411 H 0.6671 0.23717 0.27161 0.0
H4412 H 0.68489 0.22379 0.2682 0.0
H4413 H 0.68199 0.29529 0.22795 0.0
H4414 H 0.70152 0.31131 0.24204 0.0
H4415 H 0.6801 0.3046 0.25228 0.0
C4416 C 0.52691 0.90561 0.92286 0.0
C4417 C 0.54136 0.89596 0.92699 0.0
C4418 C 0.52522 0.92174 0.93488 0.0
C4419 C 0.53836 0.92887 0.95158 0.0
C4420 C 0.55313 0.91943 0.95576 0.0
C4421 C 0.55441 0.9032 0.94357 0.0
C4422 C 0.50926 0.93121 0.92965 0.0
C4423 C 0.56753 0.92641 0.97332 0.0
C4424 C 0.54313 0.98012 0.9729 0.0
C4425 C 0.53212 0.97887 0.98833 0.0
C4426 C 0.54528 0.96412 0.96095 0.0
C4427 C 0.53659 0.94613 0.96457 0.0
C4428 C 0.52579 0.94472 0.98035 0.0
C4429 C 0.5235 0.96098 0.99178 0.0
C4430 C 0.55677 0.96653 0.94427 0.0
C4431 C 0.51648 0.92597 0.98513 0.0
H4432 H 0.5169 0.90071 0.90999 0.0
H4433 H 0.56554 0.896 0.94732 0.0
H4434 H 0.50063 0.93157 0.94182 0.0
H4435 H 0.5147 0.94584 0.92746 0.0
H4436 H 0.50019 0.92406 0.91621 0.0
H4437 H 0.57842 0.91789 0.97442 0.0
H4438 H 0.57435 0.94104 0.97262 0.0
H4439 H 0.56069 0.92624 0.98683 0.0
H4440 H 0.55005 0.99371 0.96999 0.0
H4441 H 0.51485 0.9596 0.00347 0.0
H4442 H 0.54809 0.96037 0.93029 0.0
H4443 H 0.56841 0.95901 0.94602 0.0
H4444 H 0.56263 0.98138 0.94329 0.0
H4445 H 0.50596 0.91885 0.97278 0.0
H4446 H 0.5095 0.92708 0.99851 0.0
H4447 H 0.5269 0.91705 0.98723 0.0
C4448 C 0.9229 0.77715 0.74358 0.0
C4449 C 0.92529 0.76004 0.73401 0.0
C4450 C 0.90552 0.77976 0.74939 0.0
C4451 C 0.8897 0.76493 0.74592 0.0
C4452 C 0.892 0.74756 0.73661 0.0
C4453 C 0.90949 0.74538 0.73075 0.0
C4454 C 0.90402 0.79861 0.75909 0.0
C4455 C 0.87584 0.73117 0.73265 0.0
C4456 C 0.84783 0.76754 0.77518 0.0
C4457 C 0.83443 0.77167 0.7613 0.0
C4458 C 0.86561 0.76511 0.77041 0.0
C4459 C 0.87071 0.76767 0.75148 0.0
C4460 C 0.85741 0.77262 0.73772 0.0
C4461 C 0.83949 0.77414 0.74262 0.0
C4462 C 0.87877 0.75931 0.78556 0.0
C4463 C 0.86212 0.7764 0.71769 0.0
H4464 H 0.93472 0.78867 0.74672 0.0
H4465 H 0.91058 0.73211 0.7232 0.0
H4466 H 0.8932 0.80408 0.75046 0.0
H4467 H 0.89961 0.79738 0.77377 0.0
H4468 H 0.91739 0.80886 0.76065 0.0
H4469 H 0.87995 0.71828 0.72641 0.0
H4470 H 0.86982 0.72854 0.74636 0.0
H4471 H 0.8647 0.73431 0.7223 0.0
H4472 H 0.84417 0.76557 0.78966 0.0
H4473 H 0.82946 0.77761 0.73183 0.0
H4474 H 0.89196 0.76981 0.78865 0.0
H4475 H 0.88231 0.74594 0.7799 0.0
H4476 H 0.87276 0.75757 0.79945 0.0
H4477 H 0.8751 0.78713 0.71897 0.0
H4478 H 0.85083 0.78127 0.70907 0.0
H4479 H 0.86468 0.76358 0.70956 0.0
C4480 C 0.07263 0.0161 0.88072 0.0
C4481 C 0.08662 0.03133 0.87854 0.0
C4482 C 0.06572 0.01409 0.89874 0.0
C4483 C 0.07297 0.02758 0.9151 0.0
C4484 C 0.08715 0.04291 0.91305 0.0
C4485 C 0.09377 0.04459 0.89487 0.0
C4486 C 0.05045 0.99765 0.90018 0.0
C4487 C 0.09523 0.05765 0.93006 0.0
C4488 C 0.04289 0.03388 0.95578 0.0
C4489 C 0.05072 0.02488 0.97048 0.0
C4490 C 0.04988 0.03469 0.93776 0.0
C4491 C 0.0651 0.02623 0.93411 0.0
C4492 C 0.07301 0.01699 0.9488 0.0
C4493 C 0.06581 0.01653 0.96686 0.0
C4494 C 0.04109 0.04485 0.9227 0.0
C4495 C 0.08912 0.00763 0.94546 0.0
H4496 H 0.06683 0.00586 0.86822 0.0
H4497 H 0.10476 0.05626 0.8935 0.0
H4498 H 0.05477 0.98983 0.91209 0.0
H4499 H 0.03777 1.00259 0.90388 0.0
H4500 H 0.04681 0.98799 0.88638 0.0
H4501 H 0.10648 0.06848 0.92624 0.0
H4502 H 0.08412 0.0645 0.93518 0.0
H4503 H 0.10093 0.05118 0.94244 0.0
H4504 H 0.03134 0.04058 0.95844 0.0
H4505 H 0.07192 0.00955 0.97809 0.0
H4506 H 0.03617 0.03539 0.90892 0.0
H4507 H 0.05159 0.05662 0.91933 0.0
H4508 H 0.02913 0.05041 0.92765 0.0
H4509 H 0.08526 0.99708 0.93237 0.0
H4510 H 0.09346 1.0007 0.95813 0.0
H4511 H 0.1012 0.01804 0.94262 0.0
C4512 C 0.77447 0.35342 0.58561 0.0
C4513 C 0.78934 0.36747 0.58288 0.0
C4514 C 0.77545 0.34383 0.60199 0.0
C4515 C 0.7916 0.34863 0.61579 0.0
C4516 C 0.80654 0.36293 0.61312 0.0
C4517 C 0.80514 0.37225 0.59677 0.0
C4518 C 0.75924 0.32874 0.60453 0.0
C4519 C 0.82412 0.36837 0.62746 0.0
C4520 C 0.79784 0.34244 0.66852 0.0
C4521 C 0.8096 0.32967 0.66794 0.0
C4522 C 0.78969 0.34722 0.65118 0.0
C4523 C 0.79352 0.33892 0.63316 0.0
C4524 C 0.80363 0.3244 0.63267 0.0
C4525 C 0.8118 0.32007 0.65021 0.0
C4526 C 0.77875 0.36257 0.6522 0.0
C4527 C 0.8075 0.31487 0.61367 0.0
H4528 H 0.76225 0.34975 0.57481 0.0
H4529 H 0.81646 0.38341 0.59489 0.0
H4530 H 0.76413 0.31631 0.60908 0.0
H4531 H 0.75161 0.33393 0.61619 0.0
H4532 H 0.74934 0.32447 0.59093 0.0
H4533 H 0.83438 0.37983 0.62312 0.0
H4534 H 0.82072 0.37289 0.64216 0.0
H4535 H 0.83084 0.35621 0.62865 0.0
H4536 H 0.79592 0.34944 0.68246 0.0
H4537 H 0.82055 0.30979 0.65007 0.0
H4538 H 0.76645 0.35929 0.64089 0.0
H4539 H 0.78768 0.37568 0.64938 0.0
H4540 H 0.77401 0.36496 0.66676 0.0
H4541 H 0.79502 0.31212 0.6026 0.0
H4542 H 0.81191 0.30151 0.61562 0.0
H4543 H 0.81884 0.32409 0.6079 0.0
C4544 C 0.45602 0.03817 0.39051 0.0
C4545 C 0.44058 0.02343 0.38651 0.0
C4546 C 0.46804 0.04021 0.40778 0.0
C4547 C 0.46445 0.02709 0.42105 0.0
C4548 C 0.44861 0.0125 0.41737 0.0
C4549 C 0.43676 0.01087 0.40005 0.0
C4550 C 0.48488 0.05596 0.41154 0.0
C4551 C 0.44445 0.99839 0.43147 0.0
C4552 C 0.50384 0.01793 0.45484 0.0
C4553 C 0.5016 0.02815 0.47223 0.0
C4554 C 0.49217 0.01803 0.43777 0.0
C4555 C 0.47769 0.0281 0.43847 0.0
C4556 C 0.47533 0.03843 0.45595 0.0
C4557 C 0.4875 0.03849 0.47264 0.0
C4558 C 0.49503 0.00705 0.41912 0.0
C4559 C 0.45972 0.04901 0.45714 0.0
H4560 H 0.45898 0.04777 0.37989 0.0
H4561 H 0.42459 0.99969 0.39701 0.0
H4562 H 0.48534 0.06399 0.42605 0.0
H4563 H 0.49776 0.05022 0.41171 0.0
H4564 H 0.48494 0.06563 0.40029 0.0
H4565 H 0.43099 0.98849 0.42681 0.0
H4566 H 0.4557 0.99032 0.43271 0.0
H4567 H 0.44405 0.00554 0.44623 0.0
H4568 H 0.51451 0.00964 0.45459 0.0
H4569 H 0.48566 0.04636 0.48611 0.0
H4570 H 0.49625 0.01611 0.40732 0.0
H4571 H 0.48279 0.9956 0.41435 0.0
H4572 H 0.5077 1.00096 0.42085 0.0
H4573 H 0.46051 0.05918 0.4464 0.0
H4574 H 0.4601 0.05658 0.4719 0.0
H4575 H 0.4461 0.03923 0.45339 0.0
C4576 C 0.78997 0.73415 0.12726 0.0
C4577 C 0.77335 0.72911 0.1143 0.0
C4578 C 0.79013 0.7419 0.14675 0.0
C4579 C 0.77325 0.74449 0.1537 0.0
C4580 C 0.75656 0.73995 0.1406 0.0
C4581 C 0.75684 0.73253 0.12114 0.0
C4582 C 0.80832 0.74678 0.16007 0.0
C4583 C 0.73822 0.74236 0.14732 0.0
C4584 C 0.77014 0.7426 0.20801 0.0
C4585 C 0.77149 0.76135 0.2152 0.0
C4586 C 0.77046 0.73699 0.1881 0.0
C4587 C 0.77273 0.7505 0.17496 0.0
C4588 C 0.77419 0.76952 0.18216 0.0
C4589 C 0.77325 0.77469 0.20214 0.0
C4590 C 0.76838 0.71654 0.18114 0.0
C4591 C 0.77727 0.78446 0.16887 0.0
H4592 H 0.80283 0.73151 0.12239 0.0
H4593 H 0.74397 0.72923 0.1113 0.0
H4594 H 0.81011 0.76095 0.16805 0.0
H4595 H 0.80825 0.73693 0.17112 0.0
H4596 H 0.82047 0.74617 0.15197 0.0
H4597 H 0.72657 0.73885 0.13523 0.0
H4598 H 0.73488 0.73328 0.1588 0.0
H4599 H 0.73919 0.75692 0.15389 0.0
H4600 H 0.76872 0.7322 0.21802 0.0
H4601 H 0.77457 0.78923 0.20768 0.0
H4602 H 0.78108 0.71402 0.17493 0.0
H4603 H 0.75652 0.71204 0.16937 0.0
H4604 H 0.76602 0.70773 0.19306 0.0
H4605 H 0.79059 0.78444 0.16274 0.0
H4606 H 0.77774 0.79854 0.17658 0.0
H4607 H 0.76603 0.78158 0.1564 0.0
C4608 C 0.06113 0.0275 0.6747 0.0
C4609 C 0.08045 0.03252 0.68025 0.0
C4610 C 0.0534 0.02688 0.65514 0.0
C4611 C 0.06524 0.03115 0.64067 0.0
C4612 C 0.08476 0.03594 0.64617 0.0
C4613 C 0.09209 0.03663 0.66581 0.0
C4614 C 0.03253 0.0218 0.64997 0.0
C4615 C 0.09795 0.04042 0.63127 0.0
C4616 C 0.04931 0.0149 0.58652 0.0
C4617 C 0.04514 0.03109 0.57973 0.0
C4618 C 0.05514 0.01449 0.6064 0.0
C4619 C 0.05736 0.03083 0.61982 0.0
C4620 C 0.05299 0.04718 0.61302 0.0
C4621 C 0.04676 0.04702 0.59313 0.0
C4622 C 0.05924 0.99664 0.61295 0.0
C4623 C 0.05544 0.06502 0.62664 0.0
H4624 H 0.05202 0.02442 0.68574 0.0
H4625 H 0.10704 0.04023 0.66987 0.0
H4626 H 0.02744 0.03342 0.64368 0.0
H4627 H 0.02873 0.00949 0.63867 0.0
H4628 H 0.02522 0.01866 0.66281 0.0
H4629 H 0.11276 0.0437 0.63783 0.0
H4630 H 0.09598 0.02846 0.61965 0.0
H4631 H 0.09487 0.0525 0.62418 0.0
H4632 H 0.04798 1.00249 0.57625 0.0
H4633 H 0.04392 0.0596 0.58796 0.0
H4634 H 0.05121 0.9928 0.6251 0.0
H4635 H 0.07422 0.99863 0.61854 0.0
H4636 H 0.05578 0.98489 0.60095 0.0
H4637 H 0.04733 0.06265 0.63907 0.0
H4638 H 0.05096 0.07637 0.61921 0.0
H4639 H 0.0703 0.06968 0.63278 0.0
C4640 C 0.78084 0.36971 0.38582 0.0
C4641 C 0.78734 0.36403 0.40336 0.0
C4642 C 0.77942 0.35815 0.36824 0.0
C4643 C 0.78416 0.34048 0.3686 0.0
C4644 C 0.79052 0.33465 0.38642 0.0
C4645 C 0.79228 0.34669 0.40366 0.0
C4646 C 0.77298 0.36481 0.34935 0.0
C4647 C 0.79529 0.31568 0.3873 0.0
C4648 C 0.76406 0.30223 0.32769 0.0
C4649 C 0.77979 0.30104 0.31845 0.0
C4650 C 0.76513 0.31545 0.34387 0.0
C4651 C 0.78227 0.32785 0.35042 0.0
C4652 C 0.79806 0.32699 0.34064 0.0
C4653 C 0.79676 0.31303 0.32508 0.0
C4654 C 0.74833 0.31532 0.35464 0.0
C4655 C 0.81636 0.34045 0.34692 0.0
H4656 H 0.77713 0.38326 0.38588 0.0
H4657 H 0.7972 0.34248 0.41744 0.0
H4658 H 0.78361 0.36443 0.33917 0.0
H4659 H 0.75997 0.35539 0.34217 0.0
H4660 H 0.77038 0.37918 0.3516 0.0
H4661 H 0.79921 0.31307 0.40249 0.0
H4662 H 0.78323 0.30467 0.38056 0.0
H4663 H 0.80705 0.31436 0.37886 0.0
H4664 H 0.75119 0.29222 0.32281 0.0
H4665 H 0.80904 0.31132 0.31831 0.0
H4666 H 0.74506 0.32941 0.35654 0.0
H4667 H 0.75141 0.31134 0.36943 0.0
H4668 H 0.73582 0.3054 0.34697 0.0
H4669 H 0.81429 0.35493 0.34654 0.0
H4670 H 0.82715 0.33804 0.33743 0.0
H4671 H 0.82165 0.33921 0.36216 0.0
C4672 C 0.42933 1.00352 0.19113 0.0
C4673 C 0.43376 0.01914 0.20529 0.0
C4674 C 0.44024 1.0016 0.17612 0.0
C4675 C 0.45558 0.016 0.17485 0.0
C4676 C 0.45935 0.03246 0.18821 0.0
C4677 C 0.44845 0.03377 0.2035 0.0
C4678 C 0.43576 0.98378 0.16213 0.0
C4679 C 0.47514 0.04835 0.18664 0.0
C4680 C 0.49068 0.99542 0.14927 0.0
C4681 C 0.48423 0.99642 0.1298 0.0
C4682 C 0.48261 1.00345 0.1645 0.0
C4683 C 0.46802 0.01294 0.16006 0.0
C4684 C 0.46283 0.0157 0.14062 0.0
C4685 C 0.47073 0.00709 0.12566 0.0
C4686 C 0.48844 1.00018 0.18514 0.0
C4687 C 0.44766 0.02618 0.13538 0.0
H4688 H 0.41758 0.99248 0.19212 0.0
H4689 H 0.45184 0.04591 0.2144 0.0
H4690 H 0.43303 0.98689 0.14695 0.0
H4691 H 0.44782 0.97676 0.16287 0.0
H4692 H 0.42341 0.97391 0.16537 0.0
H4693 H 0.47537 0.06068 0.19737 0.0
H4694 H 0.48864 0.04387 0.18912 0.0
H4695 H 0.47396 0.05253 0.17174 0.0
H4696 H 0.50151 0.98771 0.15259 0.0
H4697 H 0.46548 0.00791 0.11069 0.0
H4698 H 0.47742 0.98966 0.18977 0.0
H4699 H 0.49014 0.01313 0.19535 0.0
H4700 H 0.50169 0.99504 0.18647 0.0
H4701 H 0.43388 0.01679 0.13465 0.0
H4702 H 0.44876 0.03126 0.12094 0.0
H4703 H 0.44817 0.03823 0.14653 0.0
C4704 C 0.77905 0.74099 0.91712 0.0
C4705 C 0.77612 0.72168 0.91768 0.0
C4706 C 0.78065 0.74861 0.89939 0.0
C4707 C 0.77886 0.73667 0.88164 0.0
C4708 C 0.77579 0.71716 0.88212 0.0
C4709 C 0.77465 0.70995 0.90008 0.0
C4710 C 0.78436 0.76948 0.8997 0.0
C4711 C 0.77338 0.70386 0.86358 0.0
C4712 C 0.76447 0.75545 0.8343 0.0
C4713 C 0.78104 0.75806 0.82579 0.0
C4714 C 0.76348 0.74818 0.85222 0.0
C4715 C 0.77975 0.74446 0.8625 0.0
C4716 C 0.79673 0.74782 0.85423 0.0
C4717 C 0.79707 0.75415 0.83575 0.0
C4718 C 0.74493 0.74419 0.85997 0.0
C4719 C 0.81459 0.74494 0.86501 0.0
H4720 H 0.78039 0.75018 0.93063 0.0
H4721 H 0.77219 0.69501 0.9003 0.0
H4722 H 0.79682 0.77412 0.89237 0.0
H4723 H 0.77243 0.77366 0.89148 0.0
H4724 H 0.78662 0.77689 0.91477 0.0
H4725 H 0.77068 0.68907 0.86634 0.0
H4726 H 0.76162 0.70611 0.85341 0.0
H4727 H 0.78607 0.70654 0.85615 0.0
H4728 H 0.75212 0.75864 0.82663 0.0
H4729 H 0.80998 0.75656 0.82933 0.0
H4730 H 0.74561 0.75283 0.87417 0.0
H4731 H 0.74153 0.7294 0.86256 0.0
H4732 H 0.73346 0.74702 0.84977 0.0
H4733 H 0.81715 0.75305 0.87975 0.0
H4734 H 0.8268 0.74925 0.85717 0.0
H4735 H 0.81343 0.73007 0.86705 0.0
C4736 C 0.86559 0.08641 0.06295 0.0
C4737 C 0.84781 0.07659 0.05506 0.0
C4738 C 0.88134 0.08004 0.0578 0.0
C4739 C 0.87889 0.06375 0.04439 0.0
C4740 C 0.86095 0.05264 0.03845 0.0
C4741 C 0.84553 0.05919 0.04404 0.0
C4742 C 0.90036 0.09187 0.06485 0.0
C4743 C 0.85781 0.03513 0.02415 0.0
C4744 C 0.90792 0.0615 0.00331 0.0
C4745 C 0.91739 0.04755 0.00807 0.0
C4746 C 0.89618 0.06786 0.01579 0.0
C4747 C 0.89417 0.06018 0.03351 0.0
C4748 C 0.90475 0.04712 0.0391 0.0
C4749 C 0.91613 0.04074 0.02615 0.0
C4750 C 0.88506 0.08192 0.00941 0.0
C4751 C 0.90318 0.03904 0.05812 0.0
H4752 H 0.86722 0.09989 0.07153 0.0
H4753 H 0.83163 0.05163 0.03821 0.0
H4754 H 0.91092 0.08315 0.06716 0.0
H4755 H 0.90465 0.101 0.05369 0.0
H4756 H 0.90028 0.10089 0.07867 0.0
H4757 H 0.84335 0.02699 0.02302 0.0
H4758 H 0.86045 0.0389 0.00947 0.0
H4759 H 0.86758 0.02611 0.02845 0.0
H4760 H 0.90935 0.06713 0.9896 0.0
H4761 H 0.92345 0.02991 0.02989 0.0
H4762 H 0.88672 0.09376 0.0211 0.0
H4763 H 0.87005 0.07533 0.00661 0.0
H4764 H 0.88932 0.08746 0.99591 0.0
H4765 H 0.90261 0.04997 0.07015 0.0
H4766 H 0.91501 0.03224 0.06212 0.0
H4767 H 0.89009 0.02846 0.05677 0.0
C4768 C 0.39678 0.45596 0.05458 0.0
C4769 C 0.38594 0.44636 0.03747 0.0
C4770 C 0.4141 0.4677 0.05388 0.0
C4771 C 0.42078 0.46984 0.03565 0.0
C4772 C 0.40998 0.46004 0.01838 0.0
C4773 C 0.39276 0.44847 0.0195 0.0
C4774 C 0.42526 0.47779 0.07264 0.0
C4775 C 0.41679 0.46147 0.99869 0.0
C4776 C 0.45941 0.51033 0.02865 0.0
C4777 C 0.47515 0.50223 0.03026 0.0
C4778 C 0.44172 0.50023 0.03119 0.0
C4779 C 0.43957 0.48135 0.03462 0.0
C4780 C 0.45532 0.47304 0.03608 0.0
C4781 C 0.47281 0.48359 0.03423 0.0
C4782 C 0.42528 0.50968 0.02994 0.0
C4783 C 0.45369 0.45282 0.03918 0.0
H4784 H 0.39161 0.45453 0.06851 0.0
H4785 H 0.38472 0.44081 0.00623 0.0
H4786 H 0.43879 0.47332 0.07483 0.0
H4787 H 0.42838 0.49299 0.07181 0.0
H4788 H 0.41786 0.47517 0.08554 0.0
H4789 H 0.40655 0.45327 0.9866 0.0
H4790 H 0.41972 0.47622 0.9959 0.0
H4791 H 0.43003 0.4564 0.99851 0.0
H4792 H 0.46075 0.52441 0.02519 0.0
H4793 H 0.48467 0.47689 0.0356 0.0
H4794 H 0.41785 0.50784 0.04294 0.0
H4795 H 0.41529 0.50315 0.01693 0.0
H4796 H 0.42947 0.5248 0.02894 0.0
H4797 H 0.44766 0.45029 0.05287 0.0
H4798 H 0.46734 0.44844 0.03995 0.0
H4799 H 0.44415 0.44383 0.02706 0.0
C4800 C 0.38044 0.6107 0.75869 0.0
C4801 C 0.37175 0.5928 0.7617 0.0
C4802 C 0.37128 0.6257 0.76109 0.0
C4803 C 0.35295 0.62252 0.76627 0.0
C4804 C 0.34386 0.60424 0.76835 0.0
C4805 C 0.35347 0.58963 0.76628 0.0
C4806 C 0.38155 0.64503 0.7591 0.0
C4807 C 0.32417 0.60019 0.77342 0.0
C4808 C 0.33338 0.65859 0.79575 0.0
C4809 C 0.32117 0.66371 0.78147 0.0
C4810 C 0.34479 0.64611 0.79074 0.0
C4811 C 0.34363 0.63831 0.77105 0.0
C4812 C 0.33201 0.6442 0.75643 0.0
C4813 C 0.321 0.65703 0.76183 0.0
C4814 C 0.35738 0.64057 0.80669 0.0
C4815 C 0.33031 0.63612 0.73532 0.0
H4816 H 0.39465 0.61308 0.75526 0.0
H4817 H 0.34679 0.57571 0.76847 0.0
H4818 H 0.37259 0.6524 0.75025 0.0
H4819 H 0.38531 0.65321 0.77376 0.0
H4820 H 0.39452 0.64479 0.7523 0.0
H4821 H 0.31854 0.58503 0.7727 0.0
H4822 H 0.32379 0.60684 0.78841 0.0
H4823 H 0.31489 0.60615 0.76334 0.0
H4824 H 0.33365 0.66403 0.81091 0.0
H4825 H 0.31154 0.66107 0.75083 0.0
H4826 H 0.37163 0.64154 0.80253 0.0
H4827 H 0.35209 0.62588 0.80878 0.0
H4828 H 0.3582 0.64942 0.82082 0.0
H4829 H 0.34429 0.63668 0.73053 0.0
H4830 H 0.3222 0.64353 0.72554 0.0
H4831 H 0.32326 0.62125 0.73361 0.0
C4832 C 0.16763 0.55123 0.53318 0.0
C4833 C 0.17567 0.56973 0.54026 0.0
C4834 C 0.14832 0.54518 0.5314 0.0
C4835 C 0.1372 0.55816 0.53644 0.0
C4836 C 0.14533 0.57689 0.54342 0.0
C4837 C 0.16457 0.58244 0.54534 0.0
C4838 C 0.13983 0.52503 0.52429 0.0
C4839 C 0.13372 0.59101 0.54896 0.0
C4840 C 0.08661 0.54957 0.51669 0.0
C4841 C 0.07835 0.54418 0.53298 0.0
C4842 C 0.10593 0.55373 0.5174 0.0
C4843 C 0.11697 0.55229 0.53483 0.0
C4844 C 0.10866 0.5468 0.5513 0.0
C4845 C 0.08933 0.54288 0.55011 0.0
C4846 C 0.1145 0.55983 0.49967 0.0
C4847 C 0.12005 0.54491 0.57009 0.0
H4848 H 0.17645 0.54159 0.5292 0.0
H4849 H 0.17099 0.59685 0.55046 0.0
H4850 H 0.1321 0.51869 0.53565 0.0
H4851 H 0.12965 0.52399 0.51111 0.0
H4852 H 0.15048 0.5168 0.52074 0.0
H4853 H 0.14233 0.60515 0.55365 0.0
H4854 H 0.1234 0.59174 0.53641 0.0
H4855 H 0.12585 0.58666 0.56107 0.0
H4856 H 0.078 0.55022 0.50333 0.0
H4857 H 0.08286 0.53909 0.56265 0.0
H4858 H 0.12403 0.55063 0.49524 0.0
H4859 H 0.12293 0.57416 0.50327 0.0
H4860 H 0.10383 0.55963 0.48708 0.0
H4861 H 0.12574 0.53204 0.56812 0.0
H4862 H 0.1116 0.54402 0.58243 0.0
H4863 H 0.13199 0.5568 0.57412 0.0
C4864 C 0.71047 0.93845 0.74772 0.0
C4865 C 0.72254 0.95427 0.74384 0.0
C4866 C 0.71734 0.92302 0.75268 0.0
C4867 C 0.7367 0.92363 0.7536 0.0
C4868 C 0.7486 0.93875 0.74744 0.0
C4869 C 0.74131 0.95411 0.74264 0.0
C4870 C 0.70421 0.90709 0.75912 0.0
C4871 C 0.76925 0.93958 0.74789 0.0
C4872 C 0.75221 0.90011 0.79584 0.0
C4873 C 0.75259 0.88256 0.78646 0.0
C4874 C 0.74833 0.91415 0.78505 0.0
C4875 C 0.74455 0.91028 0.76446 0.0
C4876 C 0.74575 0.89282 0.75485 0.0
C4877 C 0.74982 0.87906 0.76604 0.0
C4878 C 0.7474 0.9328 0.79574 0.0
C4879 C 0.74178 0.88836 0.73293 0.0
H4880 H 0.69589 0.93878 0.7484 0.0
H4881 H 0.75051 0.9665 0.73956 0.0
H4882 H 0.70665 0.89354 0.7526 0.0
H4883 H 0.70677 0.90763 0.77522 0.0
H4884 H 0.68938 0.9077 0.75507 0.0
H4885 H 0.7756 0.94985 0.73863 0.0
H4886 H 0.7761 0.94381 0.7631 0.0
H4887 H 0.77214 0.92575 0.74291 0.0
H4888 H 0.75484 0.90277 0.81163 0.0
H4889 H 0.75031 0.86541 0.75889 0.0
H4890 H 0.73283 0.93489 0.79402 0.0
H4891 H 0.75602 0.94421 0.78949 0.0
H4892 H 0.75229 0.93396 0.81158 0.0
H4893 H 0.72657 0.88623 0.72845 0.0
H4894 H 0.74655 0.87556 0.72757 0.0
H4895 H 0.7486 0.90009 0.72568 0.0
C4896 C 0.70847 0.9459 0.51575 0.0
C4897 C 0.7101 0.93377 0.52985 0.0
C4898 C 0.69311 0.95457 0.5136 0.0
C4899 C 0.67895 0.95116 0.52588 0.0
C4900 C 0.68077 0.93944 0.54059 0.0
C4901 C 0.69629 0.93086 0.54238 0.0
C4902 C 0.69182 0.96703 0.49777 0.0
C4903 C 0.66605 0.93548 0.55402 0.0
C4904 C 0.64628 0.98543 0.52354 0.0
C4905 C 0.63254 0.97603 0.50853 0.0
C4906 C 0.66089 0.97698 0.53049 0.0
C4907 C 0.6617 0.95881 0.52214 0.0
C4908 C 0.64693 0.94878 0.50817 0.0
C4909 C 0.63257 0.95752 0.50155 0.0
C4910 C 0.67619 0.98805 0.54562 0.0
C4911 C 0.64708 0.92937 0.49892 0.0
H4912 H 0.71922 0.94858 0.50628 0.0
H4913 H 0.69731 0.92143 0.55323 0.0
H4914 H 0.67947 0.96099 0.48692 0.0
H4915 H 0.68997 0.98091 0.50408 0.0
H4916 H 0.70438 0.96893 0.49003 0.0
H4917 H 0.67051 0.92787 0.56608 0.0
H4918 H 0.66258 0.94864 0.56037 0.0
H4919 H 0.65311 0.92695 0.54559 0.0
H4920 H 0.64638 0.9998 0.52881 0.0
H4921 H 0.62194 0.95028 0.4899 0.0
H4922 H 0.68875 0.99278 0.5385 0.0
H4923 H 0.68009 0.97931 0.55682 0.0
H4924 H 0.67206 1.00048 0.55295 0.0
H4925 H 0.65823 0.92998 0.48927 0.0
H4926 H 0.63361 0.92271 0.49007 0.0
H4927 H 0.65015 0.92045 0.51025 0.0
C4928 C 0.36527 0.40508 0.77198 0.0
C4929 C 0.3591 0.41803 0.76075 0.0
C4930 C 0.35391 0.38765 0.77284 0.0
C4931 C 0.33589 0.38294 0.76218 0.0
C4932 C 0.32954 0.39591 0.75079 0.0
C4933 C 0.34121 0.41326 0.7502 0.0
C4934 C 0.36128 0.3742 0.78506 0.0
C4935 C 0.31041 0.39143 0.73925 0.0
C4936 C 0.31468 0.33124 0.75074 0.0
C4937 C 0.30286 0.32848 0.76522 0.0
C4938 C 0.32508 0.34896 0.74924 0.0
C4939 C 0.32386 0.36432 0.76273 0.0
C4940 C 0.3117 0.36167 0.7772 0.0
C4941 C 0.30127 0.3438 0.77821 0.0
C4942 C 0.33769 0.35117 0.73347 0.0
C4943 C 0.31014 0.3776 0.792 0.0
H4944 H 0.37916 0.40846 0.77994 0.0
H4945 H 0.33621 0.42322 0.74166 0.0
H4946 H 0.3518 0.37029 0.79604 0.0
H4947 H 0.36176 0.36123 0.77566 0.0
H4948 H 0.37545 0.3801 0.79277 0.0
H4949 H 0.30754 0.40298 0.7311 0.0
H4950 H 0.309 0.37873 0.7287 0.0
H4951 H 0.29965 0.38844 0.74918 0.0
H4952 H 0.31594 0.31945 0.74062 0.0
H4953 H 0.29237 0.34172 0.78962 0.0
H4954 H 0.35239 0.35568 0.74018 0.0
H4955 H 0.33443 0.36213 0.72466 0.0
H4956 H 0.33638 0.33804 0.72356 0.0
H4957 H 0.32378 0.38298 0.80104 0.0
H4958 H 0.29952 0.37342 0.80181 0.0
H4959 H 0.30646 0.38922 0.78449 0.0
C4960 C 0.24796 0.6404 0.28497 0.0
C4961 C 0.24469 0.63206 0.26554 0.0
C4962 C 0.25517 0.65945 0.28947 0.0
C4963 C 0.25901 0.67014 0.27411 0.0
C4964 C 0.25688 0.66155 0.25459 0.0
C4965 C 0.24971 0.6425 0.25054 0.0
C4966 C 0.25744 0.66831 0.31039 0.0
C4967 C 0.26094 0.67265 0.23784 0.0
C4968 C 0.25233 0.71896 0.27364 0.0
C4969 C 0.27066 0.72796 0.27305 0.0
C4970 C 0.24834 0.70011 0.27583 0.0
C4971 C 0.26319 0.6905 0.27785 0.0
C4972 C 0.28186 0.70018 0.27974 0.0
C4973 C 0.28541 0.71893 0.27703 0.0
C4974 C 0.22822 0.69014 0.27359 0.0
C4975 C 0.29798 0.6904 0.28252 0.0
H4976 H 0.24387 0.63225 0.29651 0.0
H4977 H 0.24729 0.63586 0.23557 0.0
H4978 H 0.27085 0.67844 0.31402 0.0
H4979 H 0.24615 0.67608 0.3125 0.0
H4980 H 0.25681 0.65778 0.32078 0.0
H4981 H 0.25968 0.6636 0.22375 0.0
H4982 H 0.25106 0.6822 0.23631 0.0
H4983 H 0.27519 0.68131 0.24072 0.0
H4984 H 0.24102 0.72617 0.27061 0.0
H4985 H 0.29963 0.72622 0.27691 0.0
H4986 H 0.22592 0.68033 0.28458 0.0
H4987 H 0.22456 0.68189 0.25894 0.0
H4988 H 0.21861 0.7 0.27504 0.0
H4989 H 0.2953 0.67978 0.29265 0.0
H4990 H 0.31116 0.70038 0.28826 0.0
H4991 H 0.29985 0.68315 0.26827 0.0
C4992 C 0.49705 0.65134 0.4736 0.0
C4993 C 0.50967 0.66791 0.48175 0.0
C4994 C 0.49863 0.63359 0.47926 0.0
C4995 C 0.51312 0.63182 0.49371 0.0
C4996 C 0.52578 0.64846 0.50219 0.0
C4997 C 0.52399 0.66601 0.49613 0.0
C4998 C 0.48487 0.61656 0.46938 0.0
C4999 C 0.54131 0.64775 0.51786 0.0
C5000 C 0.50721 0.58644 0.51889 0.0
C5001 C 0.51931 0.57641 0.51012 0.0
C5002 C 0.50543 0.60445 0.51415 0.0
C5003 C 0.51529 0.61265 0.49952 0.0
C5004 C 0.5272 0.6023 0.49034 0.0
C5005 C 0.52935 0.58474 0.496 0.0
C5006 C 0.4932 0.6149 0.52513 0.0
C5007 C 0.5376 0.60968 0.47425 0.0
H5008 H 0.48603 0.65209 0.46232 0.0
H5009 H 0.53381 0.67837 0.50298 0.0
H5010 H 0.49236 0.60668 0.46201 0.0
H5011 H 0.47745 0.60927 0.48038 0.0
H5012 H 0.47439 0.62001 0.45843 0.0
H5013 H 0.54919 0.66185 0.52412 0.0
H5014 H 0.5356 0.64046 0.5298 0.0
H5015 H 0.55115 0.63973 0.51175 0.0
H5016 H 0.49951 0.58043 0.52997 0.0
H5017 H 0.53872 0.57727 0.48899 0.0
H5018 H 0.48149 0.61719 0.51495 0.0
H5019 H 0.50128 0.6288 0.53172 0.0
H5020 H 0.48741 0.60734 0.53689 0.0
H5021 H 0.5277 0.61295 0.46259 0.0
H5022 H 0.5454 0.59962 0.4677 0.0
H5023 H 0.54758 0.6228 0.48002 0.0
C5024 C 0.64666 0.27785 0.69316 0.0
C5025 C 0.64758 0.28888 0.67777 0.0
C5026 C 0.66283 0.27621 0.70517 0.0
C5027 C 0.68067 0.2855 0.70168 0.0
C5028 C 0.6817 0.29673 0.68622 0.0
C5029 C 0.66524 0.29842 0.67465 0.0
C5030 C 0.66081 0.2644 0.72163 0.0
C5031 C 0.70028 0.30671 0.68163 0.0
C5032 C 0.7221 0.29277 0.74233 0.0
C5033 C 0.73089 0.27805 0.73701 0.0
C5034 C 0.70589 0.29541 0.73107 0.0
C5035 C 0.69817 0.28307 0.71385 0.0
C5036 C 0.70708 0.26815 0.70847 0.0
C5037 C 0.72316 0.26576 0.72014 0.0
C5038 C 0.697 0.31141 0.73766 0.0
C5039 C 0.69956 0.25459 0.69039 0.0
H5040 H 0.63317 0.27056 0.69595 0.0
H5041 H 0.66627 0.30685 0.66277 0.0
H5042 H 0.66804 0.25263 0.71919 0.0
H5043 H 0.6675 0.27274 0.73563 0.0
H5044 H 0.64601 0.25871 0.72305 0.0
H5045 H 0.69883 0.31509 0.66937 0.0
H5046 H 0.70786 0.31605 0.69468 0.0
H5047 H 0.70895 0.29644 0.67777 0.0
H5048 H 0.72801 0.30237 0.75531 0.0
H5049 H 0.72951 0.25404 0.7162 0.0
H5050 H 0.68231 0.30611 0.73976 0.0
H5051 H 0.69688 0.32089 0.72627 0.0
H5052 H 0.70443 0.31953 0.75153 0.0
H5053 H 0.68531 0.24709 0.69178 0.0
H5054 H 0.70842 0.24419 0.68771 0.0
H5055 H 0.69851 0.26219 0.67747 0.0
C5056 C 1.00075 0.37593 0.9949 0.0
C5057 C 0.01496 0.36883 0.98636 0.0
C5058 C 1.00196 0.39529 1.00004 0.0
C5059 C 0.01793 0.40828 0.997 0.0
C5060 C 0.03259 0.40128 0.98901 0.0
C5061 C 0.03088 0.38189 0.98366 0.0
C5062 C 0.98592 0.40187 0.00849 0.0
C5063 C 0.05015 0.41437 0.98594 0.0
C5064 C 0.01497 0.45911 0.99078 0.0
C5065 C 0.02135 0.46852 0.00956 0.0
C5066 C 0.01337 0.43961 0.9867 0.0
C5067 C 0.01905 0.42914 0.00149 0.0
C5068 C 0.02583 0.43875 0.02044 0.0
C5069 C 0.02643 0.45811 0.02433 0.0
C5070 C 0.00536 0.43015 0.96651 0.0
C5071 C 0.03263 0.42864 0.03667 0.0
H5072 H 0.98852 0.36635 0.99766 0.0
H5073 H 0.042 0.37706 0.97693 0.0
H5074 H 0.99071 0.40958 0.02325 0.0
H5075 H 0.9806 0.41165 0.9993 0.0
H5076 H 0.97427 0.39018 0.0096 0.0
H5077 H 0.06083 0.40685 0.98089 0.0
H5078 H 0.04686 0.42357 0.97497 0.0
H5079 H 0.05615 0.42346 0.99974 0.0
H5080 H 0.01075 0.46696 0.97935 0.0
H5081 H 0.03137 0.46525 0.0389 0.0
H5082 H 0.99328 0.41887 0.96743 0.0
H5083 H 0.01591 0.42362 0.95969 0.0
H5084 H 1.00076 0.43997 0.95688 0.0
H5085 H 0.02064 0.41942 0.04138 0.0
H5086 H 0.04002 0.4384 0.04955 0.0
H5087 H 0.04217 0.41974 0.03151 0.0
C5088 C 0.95339 0.78773 0.16094 0.0
C5089 C 0.96863 0.77982 0.16698 0.0
C5090 C 0.93753 0.78609 0.17097 0.0
C5091 C 0.93679 0.77636 0.18755 0.0
C5092 C 0.95219 0.76851 0.1938 0.0
C5093 C 0.9678 0.7703 0.18349 0.0
C5094 C 0.92149 0.79465 0.16371 0.0
C5095 C 0.95219 0.75817 0.21147 0.0
C5096 C 0.90511 0.78401 0.22665 0.0
C5097 C 0.89113 0.76788 0.22262 0.0
C5098 C 0.91947 0.78746 0.21476 0.0
C5099 C 0.92006 0.77434 0.19851 0.0
C5100 C 0.90542 0.75844 0.19387 0.0
C5101 C 0.89118 0.75538 0.206 0.0
C5102 C 0.93462 0.80463 0.22031 0.0
C5103 C 0.90537 0.7441 0.17671 0.0
H5104 H 0.95369 0.79495 0.14812 0.0
H5105 H 0.97954 0.76438 0.18854 0.0
H5106 H 0.90878 0.78363 0.15948 0.0
H5107 H 0.91842 0.8045 0.17553 0.0
H5108 H 0.92435 0.80218 0.15095 0.0
H5109 H 0.96529 0.75306 0.21463 0.0
H5110 H 0.95031 0.76739 0.22447 0.0
H5111 H 0.94034 0.74609 0.20919 0.0
H5112 H 0.90527 0.79353 0.23968 0.0
H5113 H 0.88058 0.74272 0.20306 0.0
H5114 H 0.93726 0.81196 0.2074 0.0
H5115 H 0.94776 0.80053 0.22574 0.0
H5116 H 0.93107 0.81446 0.23187 0.0
H5117 H 0.90741 0.75091 0.16336 0.0
H5118 H 0.8922 0.7335 0.17391 0.0
H5119 H 0.91712 0.73691 0.17953 0.0
C5120 C 0.53241 0.33625 0.10906 0.0
C5121 C 0.52359 0.33609 0.12606 0.0
C5122 C 0.53456 0.35179 0.09867 0.0
C5123 C 0.52789 0.36781 0.1054 0.0
C5124 C 0.51849 0.36758 0.12223 0.0
C5125 C 0.5164 0.35175 0.13229 0.0
C5126 C 0.54441 0.3512 0.08066 0.0
C5127 C 0.51114 0.38428 0.12997 0.0
C5128 C 0.55415 0.41265 0.08995 0.0
C5129 C 0.54235 0.41525 0.07376 0.0
C5130 C 0.54912 0.39791 0.10098 0.0
C5131 C 0.53197 0.38511 0.09551 0.0
C5132 C 0.51962 0.38815 0.07962 0.0
C5133 C 0.52491 0.40325 0.06901 0.0
C5134 C 0.5626 0.39555 0.11797 0.0
C5135 C 0.50128 0.37487 0.0731 0.0
H5136 H 0.53771 0.32415 0.10386 0.0
H5137 H 0.50965 0.35189 0.14544 0.0
H5138 H 0.53563 0.35467 0.06815 0.0
H5139 H 0.55756 0.36179 0.08317 0.0
H5140 H 0.54776 0.33736 0.07661 0.0
H5141 H 0.50307 0.38151 0.14239 0.0
H5142 H 0.52292 0.39618 0.13493 0.0
H5143 H 0.50209 0.38858 0.11825 0.0
H5144 H 0.56764 0.4219 0.09366 0.0
H5145 H 0.51583 0.40509 0.05638 0.0
H5146 H 0.56809 0.38274 0.11454 0.0
H5147 H 0.5554 0.3939 0.13114 0.0
H5148 H 0.57454 0.40755 0.12145 0.0
H5149 H 0.5039 0.36159 0.06601 0.0
H5150 H 0.49215 0.38053 0.06254 0.0
H5151 H 0.4938 0.37162 0.08578 0.0
C5152 C 0.92965 0.29815 0.29346 0.0
C5153 C 0.93644 0.29294 0.31137 0.0
C5154 C 0.91037 0.29748 0.28813 0.0
C5155 C 0.89725 0.2918 0.30108 0.0
C5156 C 0.90402 0.28664 0.31919 0.0
C5157 C 0.92329 0.28718 0.32402 0.0
C5158 C 0.90401 0.30268 0.26846 0.0
C5159 C 0.89084 0.28054 0.33361 0.0
C5160 C 0.84844 0.30453 0.2957 0.0
C5161 C 0.83681 0.28753 0.28754 0.0
C5162 C 0.86801 0.30621 0.29994 0.0
C5163 C 0.87646 0.29067 0.2956 0.0
C5164 C 0.86478 0.27369 0.2867 0.0
C5165 C 0.84531 0.2723 0.28303 0.0
C5166 C 0.87963 0.32458 0.30954 0.0
C5167 C 0.87284 0.25684 0.28106 0.0
H5168 H 0.9394 0.30245 0.28334 0.0
H5169 H 0.9281 0.28336 0.33801 0.0
H5170 H 0.89339 0.29108 0.26015 0.0
H5171 H 0.89734 0.31492 0.27039 0.0
H5172 H 0.91569 0.30605 0.25967 0.0
H5173 H 0.89821 0.27759 0.34735 0.0
H5174 H 0.88284 0.2915 0.33719 0.0
H5175 H 0.88064 0.2678 0.32707 0.0
H5176 H 0.84219 0.31638 0.29933 0.0
H5177 H 0.83666 0.25913 0.27641 0.0
H5178 H 0.89065 0.3296 0.3005 0.0
H5179 H 0.88669 0.32273 0.32389 0.0
H5180 H 0.87117 0.33541 0.31179 0.0
H5181 H 0.88368 0.26038 0.27133 0.0
H5182 H 0.86209 0.24492 0.27347 0.0
H5183 H 0.87966 0.25239 0.29425 0.0
C5184 C 0.03122 0.65057 0.61499 0.0
C5185 C 0.0146 0.65454 0.62119 0.0
C5186 C 0.03161 0.63375 0.60332 0.0
C5187 C 0.01494 0.62035 0.59717 0.0
C5188 C 0.99809 0.62426 0.60319 0.0
C5189 C 0.99815 0.64106 0.61514 0.0
C5190 C 0.04997 0.63037 0.59749 0.0
C5191 C 0.97987 0.61073 0.59679 0.0
C5192 C 0.01526 0.58644 0.55131 0.0
C5193 C 0.01715 0.56971 0.55868 0.0
C5194 C 0.01379 0.60257 0.56343 0.0
C5195 C 0.01508 0.60264 0.58394 0.0
C5196 C 0.01666 0.5858 0.59162 0.0
C5197 C 0.01687 0.56949 0.57893 0.0
C5198 C 0.01099 0.61963 0.55416 0.0
C5199 C 0.01857 0.58508 0.61335 0.0
H5200 H 0.04407 0.66075 0.61901 0.0
H5201 H 0.98518 0.6435 0.61988 0.0
H5202 H 0.05241 0.61682 0.60168 0.0
H5203 H 0.04962 0.62958 0.58142 0.0
H5204 H 0.06187 0.64151 0.60436 0.0
H5205 H 0.96784 0.61606 0.60188 0.0
H5206 H 0.97753 0.60778 0.58063 0.0
H5207 H 0.98034 0.59733 0.60254 0.0
H5208 H 0.01491 0.58711 0.53593 0.0
H5209 H 0.01695 0.55662 0.58507 0.0
H5210 H 0.02343 0.63094 0.55843 0.0
H5211 H 0.99893 0.62475 0.55943 0.0
H5212 H 0.00854 0.61688 0.53798 0.0
H5213 H 0.0304 0.59607 0.62066 0.0
H5214 H 0.02093 0.57138 0.61718 0.0
H5215 H 0.00584 0.58789 0.61927 0.0
C5216 C 0.64658 0.80658 0.8018 0.0
C5217 C 0.63686 0.79404 0.81308 0.0
C5218 C 0.66416 0.8047 0.79592 0.0
C5219 C 0.67271 0.7899 0.80131 0.0
C5220 C 0.66296 0.7771 0.81251 0.0
C5221 C 0.64543 0.77931 0.81821 0.0
C5222 C 0.67366 0.81869 0.7839 0.0
C5223 C 0.67122 0.76111 0.81878 0.0
C5224 C 0.71217 0.776 0.77343 0.0
C5225 C 0.72852 0.78467 0.78585 0.0
C5226 C 0.69414 0.77751 0.77818 0.0
C5227 C 0.69199 0.78813 0.79582 0.0
C5228 C 0.70845 0.79699 0.80834 0.0
C5229 C 0.72627 0.79517 0.80327 0.0
C5230 C 0.67731 0.76763 0.76424 0.0
C5231 C 0.7073 0.80857 0.82721 0.0
H5232 H 0.64037 0.81788 0.79728 0.0
H5233 H 0.63862 0.76956 0.82713 0.0
H5234 H 0.68736 0.82596 0.79182 0.0
H5235 H 0.67635 0.81145 0.76999 0.0
H5236 H 0.66526 0.82923 0.78053 0.0
H5237 H 0.66183 0.75197 0.82691 0.0
H5238 H 0.67426 0.75259 0.80584 0.0
H5239 H 0.68463 0.76655 0.82823 0.0
H5240 H 0.7134 0.76806 0.75982 0.0
H5241 H 0.73853 0.80198 0.81317 0.0
H5242 H 0.66867 0.77769 0.75997 0.0
H5243 H 0.66857 0.75712 0.77153 0.0
H5244 H 0.68117 0.76051 0.75083 0.0
H5245 H 0.7018 0.82108 0.82399 0.0
H5246 H 0.72107 0.81316 0.83623 0.0
H5247 H 0.69754 0.80058 0.83589 0.0
C5248 C 0.49137 0.51578 0.66493 0.0
C5249 C 0.4755 0.52274 0.66893 0.0
C5250 C 0.49849 0.51737 0.64695 0.0
C5251 C 0.48936 0.52586 0.63241 0.0
C5252 C 0.4734 0.53296 0.63641 0.0
C5253 C 0.46674 0.53139 0.65457 0.0
C5254 C 0.51568 0.50982 0.64345 0.0
C5255 C 0.46303 0.5418 0.62127 0.0
C5256 C 0.513 0.54329 0.58935 0.0
C5257 C 0.50609 0.52849 0.57445 0.0
C5258 C 0.50822 0.5424 0.60843 0.0
C5259 C 0.49581 0.52654 0.61266 0.0
C5260 C 0.48889 0.51155 0.59769 0.0
C5261 C 0.49443 0.51257 0.57899 0.0
C5262 C 0.51645 0.55844 0.62407 0.0
C5263 C 0.4757 0.4943 0.60138 0.0
H5264 H 0.49836 0.50924 0.67596 0.0
H5265 H 0.45432 0.53657 0.65733 0.0
H5266 H 0.51193 0.49747 0.63221 0.0
H5267 H 0.52597 0.52035 0.63785 0.0
H5268 H 0.52237 0.50564 0.65691 0.0
H5269 H 0.45104 0.54693 0.62672 0.0
H5270 H 0.47256 0.55364 0.61667 0.0
H5271 H 0.45781 0.53152 0.60812 0.0
H5272 H 0.5222 0.55558 0.58611 0.0
H5273 H 0.49004 0.50058 0.56811 0.0
H5274 H 0.52316 0.55328 0.63688 0.0
H5275 H 0.50524 0.56517 0.62911 0.0
H5276 H 0.52695 0.5691 0.61884 0.0
H5277 H 0.48301 0.4867 0.61163 0.0
H5278 H 0.47018 0.48473 0.58776 0.0
H5279 H 0.46379 0.49814 0.60826 0.0
C5280 C 0.78739 0.18822 0.94887 0.0
C5281 C 0.77169 0.1809 0.9575 0.0
C5282 C 0.78553 0.19746 0.93233 0.0
C5283 C 0.7676 0.1994 0.92455 0.0
C5284 C 0.75169 0.19143 0.93285 0.0
C5285 C 0.75395 0.18219 0.94918 0.0
C5286 C 0.80276 0.20571 0.92374 0.0
C5287 C 0.73229 0.1931 0.92484 0.0
C5288 C 0.75624 0.23845 0.89813 0.0
C5289 C 0.74999 0.22907 0.87938 0.0
C5290 C 0.76387 0.22939 0.91272 0.0
C5291 C 0.76507 0.21052 0.90837 0.0
C5292 C 0.76024 0.20148 0.88907 0.0
C5293 C 0.75265 0.21087 0.87476 0.0
C5294 C 0.76928 0.23956 0.93311 0.0
C5295 C 0.76168 0.18146 0.88387 0.0
H5296 H 0.80111 0.18721 0.95537 0.0
H5297 H 0.74178 0.17612 0.95561 0.0
H5298 H 0.80033 0.20364 0.90756 0.0
H5299 H 0.80643 0.22092 0.92848 0.0
H5300 H 0.81483 0.19957 0.92861 0.0
H5301 H 0.7214 0.18562 0.93273 0.0
H5302 H 0.73125 0.20797 0.92598 0.0
H5303 H 0.72931 0.18742 0.90917 0.0
H5304 H 0.75471 0.25273 0.9015 0.0
H5305 H 0.74797 0.20364 0.86019 0.0
H5306 H 0.78289 0.23709 0.93947 0.0
H5307 H 0.75874 0.23418 0.94256 0.0
H5308 H 0.77016 0.25479 0.93342 0.0
H5309 H 0.77495 0.17877 0.89091 0.0
H5310 H 0.76078 0.17768 0.86784 0.0
H5311 H 0.75013 0.1722 0.88929 0.0
C5312 C 0.11359 0.5228 0.14291 0.0
C5313 C 0.10918 0.5294 0.16106 0.0
C5314 C 0.10123 0.52202 0.12608 0.0
C5315 C 0.08407 0.5276 0.12781 0.0
C5316 C 0.07921 0.53336 0.14628 0.0
C5317 C 0.09203 0.53445 0.16279 0.0
C5318 C 0.1069 0.51612 0.10646 0.0
C5319 C 0.06072 0.5388 0.14853 0.0
C5320 C 0.06225 0.54613 0.08463 0.0
C5321 C 0.05094 0.52984 0.07482 0.0
C5322 C 0.0734 0.54555 0.10195 0.0
C5323 C 0.07178 0.5286 0.11014 0.0
C5324 C 0.05909 0.51248 0.10098 0.0
C5325 C 0.04923 0.51315 0.08294 0.0
C5326 C 0.08752 0.56273 0.11089 0.0
C5327 C 0.05629 0.49448 0.10989 0.0
H5328 H 0.12699 0.51898 0.14184 0.0
H5329 H 0.08878 0.53937 0.17704 0.0
H5330 H 0.09624 0.50444 0.09839 0.0
H5331 H 0.10785 0.52786 0.09755 0.0
H5332 H 0.12052 0.51172 0.1078 0.0
H5333 H 0.0583 0.54088 0.16406 0.0
H5334 H 0.06022 0.55194 0.14221 0.0
H5335 H 0.04917 0.52796 0.14044 0.0
H5336 H 0.06324 0.55897 0.0781 0.0
H5337 H 0.04015 0.50067 0.07516 0.0
H5338 H 0.10173 0.55965 0.11161 0.0
H5339 H 0.08505 0.56692 0.12603 0.0
H5340 H 0.08713 0.57466 0.1024 0.0
H5341 H 0.06858 0.48798 0.10863 0.0
H5342 H 0.04373 0.48441 0.10256 0.0
H5343 H 0.05491 0.49712 0.12564 0.0
C5344 C 0.77232 0.81144 0.42213 0.0
C5345 C 0.78696 0.82602 0.43081 0.0
C5346 C 0.77165 0.80343 0.40265 0.0
C5347 C 0.78593 0.8101 0.3914 0.0
C5348 C 0.80081 0.82467 0.40011 0.0
C5349 C 0.80114 0.83241 0.41959 0.0
C5350 C 0.75552 0.78794 0.394 0.0
C5351 C 0.8162 0.83244 0.38867 0.0
C5352 C 0.79301 0.78204 0.34402 0.0
C5353 C 0.78419 0.79077 0.3298 0.0
C5354 C 0.7934 0.78789 0.36412 0.0
C5355 C 0.78476 0.80281 0.37019 0.0
C5356 C 0.77554 0.81138 0.35586 0.0
C5357 C 0.77534 0.80526 0.33598 0.0
C5358 C 0.80325 0.77826 0.37886 0.0
C5359 C 0.76615 0.82731 0.36148 0.0
H5360 H 0.76138 0.80619 0.43061 0.0
H5361 H 0.81235 0.84386 0.42587 0.0
H5362 H 0.74751 0.79241 0.38156 0.0
H5363 H 0.76076 0.77559 0.38821 0.0
H5364 H 0.74591 0.78379 0.40482 0.0
H5365 H 0.82723 0.84316 0.39775 0.0
H5366 H 0.82266 0.8211 0.38245 0.0
H5367 H 0.81035 0.83879 0.37625 0.0
H5368 H 0.79975 0.77076 0.33949 0.0
H5369 H 0.7683 0.81206 0.32522 0.0
H5370 H 0.79356 0.77279 0.38908 0.0
H5371 H 0.81497 0.78837 0.38766 0.0
H5372 H 0.80881 0.76657 0.37188 0.0
H5373 H 0.75559 0.82304 0.37129 0.0
H5374 H 0.75921 0.83219 0.3486 0.0
H5375 H 0.77657 0.83918 0.36962 0.0
C5376 C 0.46771 0.51105 0.87855 0.0
C5377 C 0.47814 0.52073 0.86562 0.0
C5378 C 0.47463 0.51195 0.89835 0.0
C5379 C 0.49256 0.52266 0.90553 0.0
C5380 C 0.50319 0.53248 0.89258 0.0
C5381 C 0.49582 0.5315 0.87284 0.0
C5382 C 0.4627 0.50146 0.91163 0.0
C5383 C 0.52241 0.54392 0.89954 0.0
C5384 C 0.5019 0.53676 0.96068 0.0
C5385 C 0.51165 0.52337 0.96693 0.0
C5386 C 0.49626 0.53714 0.94075 0.0
C5387 C 0.50002 0.52352 0.92661 0.0
C5388 C 0.51016 0.51018 0.93279 0.0
C5389 C 0.51611 0.51048 0.95278 0.0
C5390 C 0.48598 0.55197 0.93487 0.0
C5391 C 0.51437 0.49528 0.91833 0.0
H5392 H 0.45393 0.50294 0.87321 0.0
H5393 H 0.50403 0.53893 0.86296 0.0
H5394 H 0.47007 0.49135 0.91819 0.0
H5395 H 0.46015 0.51127 0.92379 0.0
H5396 H 0.44906 0.49381 0.90384 0.0
H5397 H 0.52877 0.55101 0.88778 0.0
H5398 H 0.5218 0.55459 0.91181 0.0
H5399 H 0.53164 0.53486 0.90512 0.0
H5400 H 0.4987 0.54708 0.97138 0.0
H5401 H 0.524 0.5004 0.95729 0.0
H5402 H 0.47157 0.54542 0.92834 0.0
H5403 H 0.49286 0.55939 0.92363 0.0
H5404 H 0.48533 0.56233 0.94743 0.0
H5405 H 0.50116 0.48618 0.91117 0.0
H5406 H 0.52314 0.48648 0.92532 0.0
H5407 H 0.52161 0.50169 0.90671 0.0
C5408 C 0.76474 0.1833 0.15584 0.0
C5409 C 0.77564 0.18938 0.14147 0.0
C5410 C 0.76519 0.19481 0.17321 0.0
C5411 C 0.77682 0.21268 0.1761 0.0
C5412 C 0.78825 0.21869 0.16191 0.0
C5413 C 0.78746 0.20694 0.14466 0.0
C5414 C 0.75294 0.18809 0.18826 0.0
C5415 C 0.80087 0.23771 0.16472 0.0
C5416 C 0.76414 0.25042 0.20962 0.0
C5417 C 0.77685 0.25109 0.22617 0.0
C5418 C 0.76382 0.23772 0.19319 0.0
C5419 C 0.77646 0.22549 0.19359 0.0
C5420 C 0.78918 0.22596 0.21035 0.0
C5421 C 0.78935 0.23895 0.22645 0.0
C5422 C 0.75019 0.23753 0.17536 0.0
C5423 C 0.80277 0.21299 0.21119 0.0
H5424 H 0.75582 0.16958 0.15343 0.0
H5425 H 0.79573 0.21169 0.13343 0.0
H5426 H 0.76138 0.18933 0.20268 0.0
H5427 H 0.74246 0.19695 0.18996 0.0
H5428 H 0.74552 0.1734 0.18422 0.0
H5429 H 0.80956 0.23981 0.15267 0.0
H5430 H 0.7924 0.24863 0.16555 0.0
H5431 H 0.81021 0.23971 0.17868 0.0
H5432 H 0.75449 0.25984 0.20951 0.0
H5433 H 0.79941 0.2397 0.23918 0.0
H5434 H 0.74128 0.22346 0.17137 0.0
H5435 H 0.75785 0.24077 0.16279 0.0
H5436 H 0.74108 0.24776 0.17763 0.0
H5437 H 0.79522 0.19833 0.20762 0.0
H5438 H 0.81106 0.21459 0.22578 0.0
H5439 H 0.81248 0.21575 0.20015 0.0
C5440 C 0.10452 0.53293 0.33348 0.0
C5441 C 0.12252 0.52934 0.33586 0.0
C5442 C 0.09468 0.53467 0.34946 0.0
C5443 C 0.10321 0.53295 0.3682 0.0
C5444 C 0.12079 0.52785 0.37042 0.0
C5445 C 0.1303 0.52605 0.35408 0.0
C5446 C 0.07579 0.53982 0.3465 0.0
C5447 C 0.13018 0.52578 0.39019 0.0
C5448 C 0.08814 0.56513 0.40614 0.0
C5449 C 0.0742 0.55292 0.41318 0.0
C5450 C 0.0987 0.55849 0.39245 0.0
C5451 C 0.09486 0.53926 0.38545 0.0
C5452 C 0.08142 0.52674 0.39329 0.0
C5453 C 0.07126 0.53376 0.40725 0.0
C5454 C 0.11329 0.5722 0.38474 0.0
C5455 C 0.07693 0.50618 0.38611 0.0
H5456 H 0.09853 0.53523 0.31923 0.0
H5457 H 0.14428 0.52329 0.35579 0.0
H5458 H 0.06566 0.53089 0.35404 0.0
H5459 H 0.07684 0.55445 0.35293 0.0
H5460 H 0.07026 0.53847 0.33082 0.0
H5461 H 0.14213 0.5187 0.38901 0.0
H5462 H 0.13543 0.53976 0.39857 0.0
H5463 H 0.12017 0.51781 0.39865 0.0
H5464 H 0.09054 0.57991 0.41115 0.0
H5465 H 0.06048 0.52439 0.41291 0.0
H5466 H 0.10862 0.57348 0.36933 0.0
H5467 H 0.12658 0.5672 0.38507 0.0
H5468 H 0.11595 0.58623 0.39327 0.0
H5469 H 0.06813 0.5038 0.37177 0.0
H5470 H 0.06922 0.498 0.39635 0.0
H5471 H 0.08977 0.50085 0.38398 0.0
C5472 C 0.7758 0.81579 0.62973 0.0
C5473 C 0.78668 0.83344 0.62867 0.0
C5474 C 0.77404 0.80876 0.64773 0.0
C5475 C 0.78345 0.81952 0.66523 0.0
C5476 C 0.79454 0.83726 0.66428 0.0
C5477 C 0.79596 0.844 0.64612 0.0
C5478 C 0.76213 0.78975 0.64799 0.0
C5479 C 0.805 0.84911 0.68251 0.0
C5480 C 0.7682 0.80943 0.71488 0.0
C5481 C 0.78055 0.79835 0.72116 0.0
C5482 C 0.76864 0.81602 0.69651 0.0
C5483 C 0.78221 0.81203 0.68447 0.0
C5484 C 0.7949 0.80108 0.691 0.0
C5485 C 0.79366 0.79411 0.709 0.0
C5486 C 0.75447 0.82712 0.68989 0.0
C5487 C 0.80997 0.79688 0.67908 0.0
H5488 H 0.76877 0.80733 0.61642 0.0
H5489 H 0.80417 0.85774 0.64565 0.0
H5490 H 0.77078 0.78033 0.65388 0.0
H5491 H 0.75126 0.79076 0.65776 0.0
H5492 H 0.75524 0.78336 0.63323 0.0
H5493 H 0.8132 0.86249 0.67935 0.0
H5494 H 0.7951 0.85216 0.6928 0.0
H5495 H 0.81461 0.84142 0.69002 0.0
H5496 H 0.7579 0.81254 0.72411 0.0
H5497 H 0.80327 0.78558 0.71379 0.0
H5498 H 0.74663 0.82036 0.67566 0.0
H5499 H 0.76162 0.84125 0.68765 0.0
H5500 H 0.74442 0.82847 0.70056 0.0
H5501 H 0.80363 0.78898 0.66476 0.0
H5502 H 0.81911 0.78867 0.68652 0.0
H5503 H 0.81871 0.81005 0.67616 0.0
C5504 C 0.69443 0.46255 0.49109 0.0
C5505 C 0.71224 0.47377 0.49521 0.0
C5506 C 0.67904 0.46923 0.49684 0.0
C5507 C 0.68184 0.48742 0.50682 0.0
C5508 C 0.69961 0.49929 0.5094 0.0
C5509 C 0.71468 0.49225 0.50355 0.0
C5510 C 0.66023 0.45627 0.49384 0.0
C5511 C 0.70301 0.51885 0.51988 0.0
C5512 C 0.64346 0.51225 0.51805 0.0
C5513 C 0.64327 0.51056 0.53795 0.0
C5514 C 0.65526 0.5038 0.50728 0.0
C5515 C 0.66698 0.4935 0.51675 0.0
C5516 C 0.66613 0.49097 0.5366 0.0
C5517 C 0.6543 0.4997 0.54705 0.0
C5518 C 0.65588 0.50668 0.48612 0.0
C5519 C 0.67826 0.4797 0.54699 0.0
H5520 H 0.69277 0.44816 0.4848 0.0
H5521 H 0.7286 0.50076 0.50668 0.0
H5522 H 0.6574 0.45075 0.50774 0.0
H5523 H 0.64899 0.46371 0.48957 0.0
H5524 H 0.65963 0.4443 0.48253 0.0
H5525 H 0.71716 0.52683 0.51876 0.0
H5526 H 0.69259 0.5265 0.51388 0.0
H5527 H 0.70151 0.51829 0.53556 0.0
H5528 H 0.63471 0.52058 0.51106 0.0
H5529 H 0.65366 0.49807 0.56233 0.0
H5530 H 0.65567 0.49334 0.47704 0.0
H5531 H 0.66906 0.51629 0.48466 0.0
H5532 H 0.64405 0.51271 0.48027 0.0
H5533 H 0.67706 0.46588 0.53843 0.0
H5534 H 0.67452 0.47759 0.56181 0.0
H5535 H 0.69305 0.48694 0.54841 0.0
C5536 C 0.1717 0.09113 0.52069 0.0
C5537 C 0.1733 0.10526 0.50851 0.0
C5538 C 0.15435 0.07991 0.52212 0.0
C5539 C 0.1381 0.08303 0.51134 0.0
C5540 C 0.13964 0.09706 0.49876 0.0
C5541 C 0.15723 0.10791 0.49739 0.0
C5542 C 0.15337 0.06486 0.53539 0.0
C5543 C 0.12263 0.10108 0.48728 0.0
C5544 C 0.09313 0.04636 0.50367 0.0
C5545 C 0.08376 0.05245 0.51884 0.0
C5546 C 0.11107 0.05583 0.50135 0.0
C5547 C 0.11943 0.07227 0.514 0.0
C5548 C 0.10991 0.07849 0.5293 0.0
C5549 C 0.09242 0.06822 0.53181 0.0
C5550 C 0.12093 0.04836 0.48523 0.0
C5551 C 0.11803 0.09617 0.54285 0.0
H5552 H 0.18409 0.08885 0.52913 0.0
H5553 H 0.15834 0.11891 0.48809 0.0
H5554 H 0.14543 0.06814 0.54757 0.0
H5555 H 0.14586 0.05133 0.52726 0.0
H5556 H 0.16739 0.06329 0.54164 0.0
H5557 H 0.12625 0.1119 0.47754 0.0
H5558 H 0.1146 0.08823 0.47828 0.0
H5559 H 0.11337 0.10587 0.49748 0.0
H5560 H 0.08625 0.03454 0.49326 0.0
H5561 H 0.08552 0.07256 0.54396 0.0
H5562 H 0.13497 0.0467 0.49126 0.0
H5563 H 0.12287 0.05838 0.47439 0.0
H5564 H 0.1131 0.03473 0.47759 0.0
H5565 H 0.13121 0.09477 0.55126 0.0
H5566 H 0.10837 0.09962 0.55329 0.0
H5567 H 0.12139 0.10798 0.53427 0.0
C5568 C 0.18084 0.944 0.76868 0.0
C5569 C 0.18738 0.95985 0.78237 0.0
C5570 C 0.19071 0.92956 0.767 0.0
C5571 C 0.20749 0.93087 0.77946 0.0
C5572 C 0.21375 0.9464 0.79391 0.0
C5573 C 0.20366 0.96076 0.79515 0.0
C5574 C 0.18354 0.91323 0.75135 0.0
C5575 C 0.23149 0.94819 0.80753 0.0
C5576 C 0.22421 0.88519 0.77721 0.0
C5577 C 0.23552 0.88722 0.76225 0.0
C5578 C 0.21601 0.8999 0.78421 0.0
C5579 C 0.21921 0.91682 0.77589 0.0
C5580 C 0.23196 0.91936 0.76202 0.0
C5581 C 0.24003 0.90454 0.75546 0.0
C5582 C 0.20274 0.8968 0.79925 0.0
C5583 C 0.23575 0.9371 0.75271 0.0
H5584 H 0.16804 0.94296 0.75906 0.0
H5585 H 0.20888 0.97299 0.80571 0.0
H5586 H 0.19357 0.91294 0.74051 0.0
H5587 H 0.18225 0.89998 0.75783 0.0
H5588 H 0.16977 0.91385 0.74357 0.0
H5589 H 0.2332 0.95984 0.81948 0.0
H5590 H 0.23172 0.93509 0.81401 0.0
H5591 H 0.24361 0.9507 0.79922 0.0
H5592 H 0.22066 0.87173 0.78237 0.0
H5593 H 0.24885 0.90604 0.7439 0.0
H5594 H 0.18821 0.89442 0.792 0.0
H5595 H 0.20486 0.90923 0.81029 0.0
H5596 H 0.20439 0.88452 0.80679 0.0
H5597 H 0.22314 0.93819 0.74306 0.0
H5598 H 0.24751 0.9376 0.74383 0.0
H5599 H 0.23897 0.94942 0.76399 0.0
C5600 C 0.39404 0.99892 0.02223 0.0
C5601 C 0.38721 0.98113 0.02699 0.0
C5602 C 0.41315 0.00547 0.02281 0.0
C5603 C 0.42553 0.99396 0.02857 0.0
C5604 C 0.41881 0.97661 0.0348 0.0
C5605 C 0.39963 0.97029 0.03379 0.0
C5606 C 0.41999 0.02407 0.01596 0.0
C5607 C 0.43181 0.96421 0.04124 0.0
C5608 C 0.46904 1.00001 0.00418 0.0
C5609 C 0.48141 0.0123 0.01835 0.0
C5610 C 0.45079 0.99346 0.00757 0.0
C5611 C 0.44519 0.99914 0.02576 0.0
C5612 C 0.45795 0.01097 0.04042 0.0
C5613 C 0.47581 0.01808 0.03615 0.0
C5614 C 0.43728 0.98141 0.99132 0.0
C5615 C 0.45253 0.01689 0.06013 0.0
H5616 H 0.3844 0.00738 0.01725 0.0
H5617 H 0.39437 0.95641 0.03724 0.0
H5618 H 0.43098 0.03282 0.02693 0.0
H5619 H 0.42626 0.02192 0.00225 0.0
H5620 H 0.40861 0.03179 0.0132 0.0
H5621 H 0.42456 0.95231 0.048 0.0
H5622 H 0.43783 0.9586 0.02846 0.0
H5623 H 0.44355 0.97228 0.05186 0.0
H5624 H 0.47344 0.99623 0.99013 0.0
H5625 H 0.48507 0.02876 0.04638 0.0
H5626 H 0.42624 0.98894 0.9866 0.0
H5627 H 0.43038 0.96844 0.99652 0.0
H5628 H 0.4442 0.97763 0.97843 0.0
H5629 H 0.44379 0.02749 0.05873 0.0
H5630 H 0.46493 0.02298 0.07093 0.0
H5631 H 0.44422 0.0049 0.06584 0.0
C5632 C 0.81089 0.59242 0.79599 0.0
C5633 C 0.82875 0.59418 0.80589 0.0
C5634 C 0.80463 0.60806 0.79059 0.0
C5635 C 0.8164 0.62577 0.79584 0.0
C5636 C 0.83321 0.62781 0.80837 0.0
C5637 C 0.83936 0.61183 0.81313 0.0
C5638 C 0.78659 0.60531 0.77716 0.0
C5639 C 0.84562 0.64663 0.81494 0.0
C5640 C 0.81314 0.65436 0.75449 0.0
C5641 C 0.79965 0.66425 0.75979 0.0
C5642 C 0.81973 0.64264 0.76685 0.0
C5643 C 0.81278 0.64108 0.78502 0.0
C5644 C 0.80027 0.65214 0.79113 0.0
C5645 C 0.79363 0.66348 0.77829 0.0
C5646 C 0.83319 0.63104 0.75988 0.0
C5647 C 0.79299 0.65112 0.81062 0.0
H5648 H 0.80258 0.57868 0.79082 0.0
H5649 H 0.85316 0.61315 0.82093 0.0
H5650 H 0.77806 0.61534 0.7821 0.0
H5651 H 0.7897 0.60788 0.76225 0.0
H5652 H 0.77821 0.59098 0.7763 0.0
H5653 H 0.85536 0.64633 0.82817 0.0
H5654 H 0.85401 0.65081 0.80316 0.0
H5655 H 0.83728 0.65738 0.81808 0.0
H5656 H 0.8182 0.65542 0.74045 0.0
H5657 H 0.78318 0.67114 0.78247 0.0
H5658 H 0.82632 0.6161 0.75763 0.0
H5659 H 0.84548 0.63271 0.77101 0.0
H5660 H 0.8381 0.63486 0.74595 0.0
H5661 H 0.78152 0.63879 0.80953 0.0
H5662 H 0.78746 0.66368 0.81521 0.0
H5663 H 0.80402 0.64958 0.82211 0.0
C5664 C 0.84712 0.60245 0.00329 0.0
C5665 C 0.84835 0.61991 0.01408 0.0
C5666 C 0.86204 0.59306 0.00477 0.0
C5667 C 0.87856 0.60137 0.01727 0.0
C5668 C 0.88009 0.61927 0.02765 0.0
C5669 C 0.86498 0.62827 0.02596 0.0
C5670 C 0.85985 0.57399 0.99352 0.0
C5671 C 0.89757 0.62876 0.04091 0.0
C5672 C 0.9107 0.57363 0.04151 0.0
C5673 C 0.92588 0.57676 0.0309 0.0
C5674 C 0.89466 0.58059 0.03643 0.0
C5675 C 0.89396 0.59112 0.02051 0.0
C5676 C 0.90895 0.59344 0.00913 0.0
C5677 C 0.92479 0.5862 0.01449 0.0
C5678 C 0.87893 0.57764 0.04883 0.0
C5679 C 0.90877 0.60456 0.99207 0.0
H5680 H 0.83428 0.59587 0.99414 0.0
H5681 H 0.86615 0.64191 0.03403 0.0
H5682 H 0.87218 0.57302 0.98586 0.0
H5683 H 0.85885 0.56339 0.00381 0.0
H5684 H 0.84719 0.57049 0.98263 0.0
H5685 H 0.89696 0.64313 0.04699 0.0
H5686 H 0.89974 0.62061 0.05322 0.0
H5687 H 0.90988 0.62937 0.03286 0.0
H5688 H 0.91173 0.5664 0.0543 0.0
H5689 H 0.93669 0.5887 0.00645 0.0
H5690 H 0.86544 0.57246 0.03947 0.0
H5691 H 0.87814 0.5911 0.05711 0.0
H5692 H 0.8808 0.5676 0.05939 0.0
H5693 H 0.8954 0.60007 0.98237 0.0
H5694 H 0.92038 0.60318 0.98337 0.0
H5695 H 0.91005 0.61948 0.99752 0.0
C5696 C 0.21873 0.13575 0.78174 0.0
C5697 C 0.20094 0.13502 0.78746 0.0
C5698 C 0.23042 0.15287 0.78033 0.0
C5699 C 0.22392 0.16962 0.78408 0.0
C5700 C 0.20593 0.16892 0.78991 0.0
C5701 C 0.19477 0.15163 0.7918 0.0
C5702 C 0.2497 0.15302 0.77473 0.0
C5703 C 0.19824 0.18636 0.79352 0.0
C5704 C 0.25687 0.21697 0.79464 0.0
C5705 C 0.25636 0.22294 0.77614 0.0
C5706 C 0.24705 0.1993 0.79731 0.0
C5707 C 0.23565 0.18781 0.78127 0.0
C5708 C 0.23518 0.19388 0.76253 0.0
C5709 C 0.24602 0.21114 0.7601 0.0
C5710 C 0.2487 0.19306 0.81733 0.0
C5711 C 0.22269 0.18249 0.74517 0.0
H5712 H 0.2235 0.12288 0.77843 0.0
H5713 H 0.18093 0.15102 0.79603 0.0
H5714 H 0.25077 0.15813 0.76034 0.0
H5715 H 0.26021 0.16271 0.78549 0.0
H5716 H 0.25321 0.13899 0.77388 0.0
H5717 H 0.18398 0.18344 0.79784 0.0
H5718 H 0.20743 0.19628 0.80519 0.0
H5719 H 0.19785 0.19336 0.78012 0.0
H5720 H 0.26495 0.22618 0.80702 0.0
H5721 H 0.24576 0.2158 0.74579 0.0
H5722 H 0.25202 0.17895 0.81641 0.0
H5723 H 0.23523 0.19219 0.82332 0.0
H5724 H 0.25965 0.20272 0.82768 0.0
H5725 H 0.22671 0.16884 0.74211 0.0
H5726 H 0.22331 0.18959 0.73183 0.0
H5727 H 0.20806 0.1797 0.74842 0.0
C5728 C 0.3257 0.90635 0.26016 0.0
C5729 C 0.32229 0.91706 0.2768 0.0
C5730 C 0.31991 0.88705 0.25757 0.0
C5731 C 0.31099 0.87842 0.27221 0.0
C5732 C 0.30741 0.88908 0.28901 0.0
C5733 C 0.31292 0.90839 0.29097 0.0
C5734 C 0.32362 0.87588 0.23942 0.0
C5735 C 0.29805 0.88011 0.30502 0.0
C5736 C 0.28005 0.83143 0.26534 0.0
C5737 C 0.29165 0.82149 0.27498 0.0
C5738 C 0.28677 0.84979 0.26259 0.0
C5739 C 0.30532 0.85815 0.2702 0.0
C5740 C 0.31747 0.8476 0.27864 0.0
C5741 C 0.31039 0.82914 0.28091 0.0
C5742 C 0.27355 0.86066 0.2533 0.0
C5743 C 0.3373 0.85624 0.28705 0.0
H5744 H 0.33335 0.91297 0.24938 0.0
H5745 H 0.31011 0.91668 0.30372 0.0
H5746 H 0.33303 0.86642 0.24346 0.0
H5747 H 0.31043 0.86703 0.23187 0.0
H5748 H 0.33006 0.88488 0.22905 0.0
H5749 H 0.29665 0.89049 0.31727 0.0
H5750 H 0.28398 0.87201 0.29909 0.0
H5751 H 0.30618 0.87023 0.31089 0.0
H5752 H 0.26551 0.82518 0.261 0.0
H5753 H 0.3191 0.82114 0.28852 0.0
H5754 H 0.28044 0.86953 0.24311 0.0
H5755 H 0.26927 0.86997 0.26482 0.0
H5756 H 0.26082 0.85136 0.24524 0.0
H5757 H 0.34422 0.86531 0.27705 0.0
H5758 H 0.34563 0.84552 0.29001 0.0
H5759 H 0.33729 0.86507 0.30098 0.0
C5760 C 0.52667 0.38622 0.55793 0.0
C5761 C 0.54454 0.38229 0.5626 0.0
C5762 C 0.52403 0.40349 0.55183 0.0
C5763 C 0.53954 0.41762 0.54989 0.0
C5764 C 0.5576 0.41368 0.55411 0.0
C5765 C 0.55986 0.39637 0.56045 0.0
C5766 C 0.50447 0.40672 0.5477 0.0
C5767 C 0.5747 0.42792 0.5521 0.0
C5768 C 0.53144 0.45736 0.51922 0.0
C5769 C 0.5318 0.47245 0.53353 0.0
C5770 C 0.53415 0.43973 0.52421 0.0
C5771 C 0.53688 0.43659 0.54412 0.0
C5772 C 0.53692 0.45174 0.55859 0.0
C5773 C 0.53465 0.46933 0.55319 0.0
C5774 C 0.53436 0.42448 0.50807 0.0
C5775 C 0.53923 0.44934 0.57996 0.0
H5776 H 0.5145 0.37571 0.55889 0.0
H5777 H 0.57382 0.39412 0.56408 0.0
H5778 H 0.50275 0.41907 0.55737 0.0
H5779 H 0.50185 0.40973 0.53245 0.0
H5780 H 0.49379 0.39457 0.54992 0.0
H5781 H 0.58766 0.42236 0.5542 0.0
H5782 H 0.57347 0.4327 0.53747 0.0
H5783 H 0.57592 0.44028 0.56305 0.0
H5784 H 0.52941 0.45943 0.50399 0.0
H5785 H 0.53487 0.48067 0.56451 0.0
H5786 H 0.52297 0.41243 0.50866 0.0
H5787 H 0.54767 0.41954 0.51004 0.0
H5788 H 0.53269 0.42916 0.4934 0.0
H5789 H 0.5284 0.43763 0.58285 0.0
H5790 H 0.53821 0.46208 0.58947 0.0
H5791 H 0.55296 0.4458 0.58405 0.0
C5792 C 0.40304 0.75102 0.35043 0.0
C5793 C 0.4091 0.76307 0.36798 0.0
C5794 C 0.38668 0.75195 0.33819 0.0
C5795 C 0.37587 0.76533 0.3433 0.0
C5796 C 0.38177 0.7774 0.36102 0.0
C5797 C 0.39807 0.77609 0.37305 0.0
C5798 C 0.38106 0.73868 0.31958 0.0
C5799 C 0.37083 0.79185 0.36731 0.0
C5800 C 0.34362 0.78077 0.30354 0.0
C5801 C 0.32585 0.77086 0.30587 0.0
C5802 C 0.35986 0.77892 0.31533 0.0
C5803 C 0.3586 0.76692 0.3301 0.0
C5804 C 0.34073 0.75675 0.33242 0.0
C5805 C 0.32473 0.75878 0.32035 0.0
C5806 C 0.37845 0.79002 0.31208 0.0
C5807 C 0.33847 0.74371 0.34777 0.0
H5808 H 0.41128 0.74101 0.34596 0.0
H5809 H 0.40205 0.78527 0.38664 0.0
H5810 H 0.3666 0.73083 0.31925 0.0
H5811 H 0.38128 0.74661 0.30684 0.0
H5812 H 0.3904 0.72859 0.31792 0.0
H5813 H 0.37707 0.80016 0.38149 0.0
H5814 H 0.37011 0.80146 0.35609 0.0
H5815 H 0.35633 0.78502 0.36863 0.0
H5816 H 0.34488 0.79022 0.29257 0.0
H5817 H 0.31124 0.75083 0.3223 0.0
H5818 H 0.38812 0.78055 0.30901 0.0
H5819 H 0.38477 0.79953 0.32551 0.0
H5820 H 0.37726 0.79841 0.29978 0.0
H5821 H 0.34686 0.73288 0.34529 0.0
H5822 H 0.32373 0.73675 0.34779 0.0
H5823 H 0.34376 0.75148 0.36243 0.0
C5824 C 0.03101 0.67248 0.04565 0.0
C5825 C 0.04556 0.68302 0.05944 0.0
C5826 C 0.0294 0.65305 0.0403 0.0
C5827 C 0.04254 0.64347 0.04891 0.0
C5828 C 0.05734 0.65401 0.06264 0.0
C5829 C 0.05867 0.6734 0.06767 0.0
C5830 C 0.01348 0.64271 0.02544 0.0
C5831 C 0.07166 0.64466 0.07245 0.0
C5832 C 0.02738 0.59058 0.05061 0.0
C5833 C 0.03627 0.58264 0.03589 0.0
C5834 C 0.02946 0.61012 0.05506 0.0
C5835 C 0.04039 0.62242 0.04427 0.0
C5836 C 0.04939 0.61445 0.0293 0.0
C5837 C 0.04743 0.59483 0.0255 0.0
C5838 C 0.01988 0.61758 0.07141 0.0
C5839 C 0.06085 0.62666 0.017 0.0
H5840 H 0.02085 0.67943 0.0388 0.0
H5841 H 0.06985 0.68095 0.07855 0.0
H5842 H 0.01886 0.63498 0.01346 0.0
H5843 H 1.0042 0.63232 0.03236 0.0
H5844 H 1.00509 0.65217 0.01909 0.0
H5845 H 0.0826 0.65469 0.08244 0.0
H5846 H 0.06473 0.63399 0.08093 0.0
H5847 H 0.07843 0.63737 0.06132 0.0
H5848 H 0.01901 0.58148 0.05902 0.0
H5849 H 0.0543 0.589 0.01398 0.0
H5850 H 0.00843 0.62394 0.06529 0.0
H5851 H 0.02977 0.62859 0.08142 0.0
H5852 H 0.01396 0.60652 0.08003 0.0
H5853 H 0.05181 0.63438 0.00872 0.0
H5854 H 0.06758 0.61852 0.00649 0.0
H5855 H 0.07181 0.63714 0.02642 0.0
C5856 C 0.0883 0.26682 0.8572 0.0
C5857 C 0.08958 0.27352 0.87711 0.0
C5858 C 0.10414 0.26884 0.84714 0.0
C5859 C 0.12185 0.27766 0.85717 0.0
C5860 C 0.12327 0.28418 0.87732 0.0
C5861 C 0.10721 0.2821 0.88697 0.0
C5862 C 0.10186 0.26185 0.82566 0.0
C5863 C 0.14181 0.29348 0.88874 0.0
C5864 C 0.16742 0.27138 0.83769 0.0
C5865 C 0.17334 0.28862 0.83111 0.0
C5866 C 0.15038 0.26731 0.84556 0.0
C5867 C 0.13885 0.2807 0.84665 0.0
C5868 C 0.14435 0.29768 0.83893 0.0
C5869 C 0.16158 0.30151 0.8315 0.0
C5870 C 0.14524 0.2491 0.8537 0.0
C5871 C 0.13242 0.31221 0.83928 0.0
H5872 H 0.0748 0.26033 0.84932 0.0
H5873 H 0.10852 0.28704 0.90238 0.0
H5874 H 0.10574 0.2737 0.81727 0.0
H5875 H 0.11134 0.25214 0.82279 0.0
H5876 H 0.08736 0.25459 0.82013 0.0
H5877 H 0.14076 0.29707 0.90446 0.0
H5878 H 0.15196 0.2842 0.88738 0.0
H5879 H 0.14747 0.30642 0.88267 0.0
H5880 H 0.17657 0.26147 0.83762 0.0
H5881 H 0.16614 0.31487 0.82648 0.0
H5882 H 0.13071 0.24214 0.84802 0.0
H5883 H 0.14601 0.25179 0.86981 0.0
H5884 H 0.15464 0.23946 0.85008 0.0
H5885 H 0.11788 0.30584 0.83303 0.0
H5886 H 0.13768 0.32381 0.83101 0.0
H5887 H 0.1321 0.31804 0.85459 0.0
C5888 C 0.51969 0.70995 0.92528 0.0
C5889 C 0.53596 0.71658 0.91707 0.0
C5890 C 0.51782 0.69392 0.93494 0.0
C5891 C 0.53261 0.68416 0.93676 0.0
C5892 C 0.54921 0.6909 0.92885 0.0
C5893 C 0.55065 0.70689 0.91907 0.0
C5894 C 0.49981 0.68726 0.94302 0.0
C5895 C 0.56536 0.68103 0.93043 0.0
C5896 C 0.52921 0.65005 0.97503 0.0
C5897 C 0.52006 0.63337 0.96364 0.0
C5898 C 0.53425 0.66656 0.96642 0.0
C5899 C 0.53012 0.66637 0.94594 0.0
C5900 C 0.522 0.64924 0.93436 0.0
C5901 C 0.51702 0.63307 0.94332 0.0
C5902 C 0.54305 0.68442 0.97934 0.0
C5903 C 0.51751 0.64814 0.91252 0.0
H5904 H 0.50835 0.71737 0.9243 0.0
H5905 H 0.56321 0.71154 0.91263 0.0
H5906 H 0.49331 0.67299 0.936 0.0
H5907 H 0.50263 0.68659 0.9589 0.0
H5908 H 0.48969 0.69646 0.94064 0.0
H5909 H 0.57762 0.68844 0.92433 0.0
H5910 H 0.56958 0.67967 0.94593 0.0
H5911 H 0.56109 0.66674 0.92253 0.0
H5912 H 0.53149 0.65043 0.99075 0.0
H5913 H 0.51003 0.6202 0.93445 0.0
H5914 H 0.53295 0.69382 0.9798 0.0
H5915 H 0.55539 0.69174 0.97335 0.0
H5916 H 0.54736 0.68196 0.99449 0.0
H5917 H 0.50601 0.65553 0.90914 0.0
H5918 H 0.5132 0.63354 0.9054 0.0
H5919 H 0.52972 0.65508 0.90606 0.0
C5920 C 0.1375 0.77509 0.7278 0.0
C5921 C 0.12416 0.76329 0.73644 0.0
C5922 C 0.15692 0.77663 0.73294 0.0
C5923 C 0.16363 0.76635 0.74738 0.0
C5924 C 0.15028 0.75466 0.75642 0.0
C5925 C 0.13091 0.75315 0.75077 0.0
C5926 C 0.17034 0.7891 0.7226 0.0
C5927 C 0.15649 0.74379 0.77224 0.0
C5928 C 0.21351 0.75674 0.74785 0.0
C5929 C 0.22413 0.77102 0.76174 0.0
C5930 C 0.19401 0.75502 0.74316 0.0
C5931 C 0.1845 0.76769 0.75275 0.0
C5932 C 0.19514 0.78191 0.76711 0.0
C5933 C 0.21469 0.78355 0.77118 0.0
C5934 C 0.18364 0.73979 0.72757 0.0
C5935 C 0.18591 0.79552 0.77824 0.0
H5936 H 0.13276 0.78288 0.71657 0.0
H5937 H 0.121 0.74415 0.75785 0.0
H5938 H 0.17955 0.80001 0.73333 0.0
H5939 H 0.17939 0.78086 0.71528 0.0
H5940 H 0.16309 0.79599 0.71153 0.0
H5941 H 0.14456 0.73572 0.77829 0.0
H5942 H 0.16493 0.73402 0.76644 0.0
H5943 H 0.1655 0.75343 0.78429 0.0
H5944 H 0.22055 0.74719 0.74014 0.0
H5945 H 0.22259 0.7946 0.78202 0.0
H5946 H 0.17686 0.74599 0.71558 0.0
H5947 H 0.17247 0.73066 0.73364 0.0
H5948 H 0.19293 0.73109 0.72139 0.0
H5949 H 0.18079 0.80476 0.76823 0.0
H5950 H 0.19557 0.80432 0.79043 0.0
H5951 H 0.17367 0.78799 0.78425 0.0
C5952 C 0.03494 0.40935 0.41769 0.0
C5953 C 0.04276 0.39533 0.42558 0.0
C5954 C 0.03383 0.42591 0.42931 0.0
C5955 C 0.04043 0.42862 0.44953 0.0
C5956 C 0.0485 0.4146 0.45756 0.0
C5957 C 0.04968 0.39828 0.44553 0.0
C5958 C 0.02537 0.44046 0.41994 0.0
C5959 C 0.05561 0.4167 0.479 0.0
C5960 C 0.04978 0.4782 0.47704 0.0
C5961 C 0.03398 0.47788 0.48677 0.0
C5962 C 0.05224 0.46227 0.46518 0.0
C5963 C 0.03826 0.44575 0.46236 0.0
C5964 C 0.02208 0.44561 0.47186 0.0
C5965 C 0.0203 0.46149 0.48414 0.0
C5966 C 0.06994 0.46305 0.45588 0.0
C5967 C 0.00655 0.42864 0.46899 0.0
H5968 H 0.02976 0.40742 0.40229 0.0
H5969 H 0.05562 0.38756 0.45188 0.0
H5970 H 0.01287 0.44261 0.4268 0.0
H5971 H 0.03542 0.45397 0.42236 0.0
H5972 H 0.02128 0.43653 0.40399 0.0
H5973 H 0.06203 0.40491 0.48295 0.0
H5974 H 0.06607 0.42984 0.48309 0.0
H5975 H 0.04398 0.41757 0.48779 0.0
H5976 H 0.06048 0.49078 0.47913 0.0
H5977 H 0.00798 0.4612 0.49149 0.0
H5978 H 0.06663 0.46023 0.43978 0.0
H5979 H 0.0772 0.45209 0.46064 0.0
H5980 H 0.0796 0.47677 0.4597 0.0
H5981 H 1.00137 0.42487 0.45324 0.0
H5982 H 0.99468 0.43086 0.47697 0.0
H5983 H 0.01184 0.41662 0.4741 0.0
C5984 C 0.41234 0.24538 0.24082 0.0
C5985 C 0.42377 0.26008 0.2335 0.0
C5986 C 0.39474 0.24695 0.24684 0.0
C5987 C 0.38777 0.26353 0.24537 0.0
C5988 C 0.39922 0.27849 0.23827 0.0
C5989 C 0.41688 0.27668 0.23266 0.0
C5990 C 0.38346 0.23066 0.25463 0.0
C5991 C 0.39271 0.29652 0.23642 0.0
C5992 C 0.33444 0.26094 0.2417 0.0
C5993 C 0.33182 0.26819 0.26055 0.0
C5994 C 0.35233 0.25934 0.23668 0.0
C5995 C 0.36841 0.26506 0.25074 0.0
C5996 C 0.36583 0.27234 0.26983 0.0
C5997 C 0.34776 0.27374 0.27446 0.0
C5998 C 0.35401 0.25162 0.21612 0.0
C5999 C 0.38218 0.27853 0.28556 0.0
H6000 H 0.4169 0.23234 0.24156 0.0
H6001 H 0.42533 0.28851 0.22768 0.0
H6002 H 0.37941 0.23523 0.26902 0.0
H6003 H 0.37042 0.22509 0.24462 0.0
H6004 H 0.39118 0.21925 0.25628 0.0
H6005 H 0.40302 0.30689 0.23058 0.0
H6006 H 0.37937 0.29383 0.22662 0.0
H6007 H 0.39004 0.30266 0.25087 0.0
H6008 H 0.32246 0.25668 0.23066 0.0
H6009 H 0.34613 0.27915 0.28914 0.0
H6010 H 0.35981 0.2388 0.2163 0.0
H6011 H 0.36381 0.26183 0.20953 0.0
H6012 H 0.3404 0.24822 0.2067 0.0
H6013 H 0.38846 0.26643 0.28863 0.0
H6014 H 0.37814 0.28474 0.29934 0.0
H6015 H 0.39307 0.28891 0.28059 0.0
C6016 C 0.58682 0.5478 0.39208 0.0
C6017 C 0.58317 0.53267 0.3772 0.0
C6018 C 0.57964 0.54635 0.41003 0.0
C6019 C 0.56851 0.52935 0.41335 0.0
C6020 C 0.56463 0.51407 0.39838 0.0
C6021 C 0.57198 0.5159 0.38057 0.0
C6022 C 0.58409 0.56302 0.42552 0.0
C6023 C 0.55261 0.49578 0.40116 0.0
C6024 C 0.56344 0.52006 0.46594 0.0
C6025 C 0.54639 0.52515 0.4687 0.0
C6026 C 0.57084 0.52146 0.4481 0.0
C6027 C 0.56078 0.52765 0.43239 0.0
C6028 C 0.54341 0.53247 0.43498 0.0
C6029 C 0.53657 0.53139 0.45309 0.0
C6030 C 0.58954 0.51645 0.4461 0.0
C6031 C 0.53204 0.53888 0.41863 0.0
H6032 H 0.59562 0.56076 0.38987 0.0
H6033 H 0.56877 0.50419 0.36915 0.0
H6034 H 0.57102 0.56712 0.42924 0.0
H6035 H 0.59119 0.55941 0.43905 0.0
H6036 H 0.59311 0.57518 0.4208 0.0
H6037 H 0.55085 0.48522 0.38813 0.0
H6038 H 0.55886 0.49017 0.4139 0.0
H6039 H 0.53865 0.49793 0.40428 0.0
H6040 H 0.57114 0.51521 0.47783 0.0
H6041 H 0.52339 0.53539 0.45496 0.0
H6042 H 0.5993 0.52853 0.44222 0.0
H6043 H 0.58809 0.50491 0.43411 0.0
H6044 H 0.59576 0.51216 0.45973 0.0
H6045 H 0.53976 0.55215 0.41474 0.0
H6046 H 0.51831 0.54104 0.42259 0.0
H6047 H 0.52969 0.52851 0.40541 0.0
C6048 C 0.28823 0.85187 0.08367 0.0
C6049 C 0.28745 0.87071 0.08627 0.0
C6050 C 0.29247 0.84271 0.09971 0.0
C6051 C 0.29585 0.85274 0.11867 0.0
C6052 C 0.29417 0.8716 0.12138 0.0
C6053 C 0.29015 0.88046 0.10503 0.0
C6054 C 0.2943 0.82262 0.09629 0.0
C6055 C 0.29747 0.88263 0.14141 0.0
C6056 C 0.29676 0.82455 0.16121 0.0
C6057 C 0.31592 0.82531 0.16555 0.0
C6058 C 0.28998 0.83376 0.14622 0.0
C6059 C 0.3027 0.8439 0.13539 0.0
C6060 C 0.32207 0.84507 0.14002 0.0
C6061 C 0.32845 0.8357 0.15505 0.0
C6062 C 0.26924 0.8323 0.14167 0.0
C6063 C 0.33605 0.85595 0.12889 0.0
H6064 H 0.28635 0.84456 0.06901 0.0
H6065 H 0.28965 0.89514 0.1068 0.0
H6066 H 0.30897 0.82156 0.10045 0.0
H6067 H 0.28563 0.81416 0.10558 0.0
H6068 H 0.29009 0.81654 0.08081 0.0
H6069 H 0.29376 0.89653 0.14116 0.0
H6070 H 0.28921 0.87493 0.15158 0.0
H6071 H 0.31236 0.88462 0.14734 0.0
H6072 H 0.28704 0.81638 0.16925 0.0
H6073 H 0.34327 0.83651 0.15862 0.0
H6074 H 0.26432 0.82442 0.12699 0.0
H6075 H 0.26596 0.84634 0.14133 0.0
H6076 H 0.26135 0.82516 0.15248 0.0
H6077 H 0.33371 0.84989 0.11333 0.0
H6078 H 0.35064 0.85597 0.13479 0.0
H6079 H 0.33421 0.87057 0.12941 0.0
C6080 C 0.95313 0.5419 0.89378 0.0
C6081 C 0.93955 0.52549 0.88973 0.0
C6082 C 0.96548 0.54531 0.91096 0.0
C6083 C 0.96403 0.53198 0.92421 0.0
C6084 C 0.94998 0.51564 0.92047 0.0
C6085 C 0.93788 0.51254 0.90312 0.0
C6086 C 0.98052 0.56274 0.91456 0.0
C6087 C 0.94812 0.5012 0.93449 0.0
C6088 C 0.00613 0.52654 0.95645 0.0
C6089 C 1.00281 0.53477 0.97441 0.0
C6090 C 0.99399 0.52638 0.93967 0.0
C6091 C 0.97811 0.53432 0.94124 0.0
C6092 C 0.97511 0.54329 0.95928 0.0
C6093 C 0.9877 0.5435 0.97576 0.0
C6094 C 0.99756 0.51673 0.92057 0.0
C6095 C 0.95819 0.55176 0.96136 0.0
H6096 H 0.95444 0.55178 0.88323 0.0
H6097 H 0.92718 0.49997 0.89995 0.0
H6098 H 0.98044 0.57026 0.92922 0.0
H6099 H 0.99435 0.55893 0.91427 0.0
H6100 H 0.97884 0.57232 0.90347 0.0
H6101 H 0.9356 0.48997 0.93002 0.0
H6102 H 0.9606 0.49481 0.9353 0.0
H6103 H 0.94732 0.50781 0.94938 0.0
H6104 H 0.01755 0.5193 0.95571 0.0
H6105 H 0.98543 0.54997 0.98979 0.0
H6106 H 0.99664 0.52582 0.90888 0.0
H6107 H 0.98676 0.50388 0.91613 0.0
H6108 H 0.01145 0.51287 0.92158 0.0
H6109 H 0.95714 0.5618 0.95065 0.0
H6110 H 0.95851 0.55903 0.97626 0.0
H6111 H 0.94543 0.54069 0.95817 0.0
C6112 C 0.27322 0.21337 0.62915 0.0
C6113 C 0.27664 0.22482 0.61446 0.0
C6114 C 0.2739 0.22097 0.64866 0.0
C6115 C 0.27772 0.24054 0.65364 0.0
C6116 C 0.28127 0.25221 0.63888 0.0
C6117 C 0.28087 0.2442 0.61949 0.0
C6118 C 0.27054 0.20803 0.664 0.0
C6119 C 0.28534 0.27312 0.64358 0.0
C6120 C 0.26082 0.25694 0.70116 0.0
C6121 C 0.27703 0.25995 0.7144 0.0
C6122 C 0.26097 0.25137 0.6812 0.0
C6123 C 0.2778 0.24864 0.67429 0.0
C6124 C 0.29442 0.25244 0.68748 0.0
C6125 C 0.2938 0.258 0.70733 0.0
C6126 C 0.24298 0.24785 0.66762 0.0
C6127 C 0.31277 0.24997 0.68088 0.0
H6128 H 0.27022 0.19838 0.62537 0.0
H6129 H 0.28347 0.2531 0.60817 0.0
H6130 H 0.28268 0.21104 0.67553 0.0
H6131 H 0.25822 0.21036 0.6711 0.0
H6132 H 0.2682 0.19315 0.65785 0.0
H6133 H 0.28781 0.28026 0.63048 0.0
H6134 H 0.27349 0.27764 0.64999 0.0
H6135 H 0.29778 0.2777 0.65463 0.0
H6136 H 0.2479 0.25825 0.70646 0.0
H6137 H 0.3065 0.26087 0.71739 0.0
H6138 H 0.23876 0.23279 0.66223 0.0
H6139 H 0.24492 0.25539 0.65472 0.0
H6140 H 0.2315 0.25225 0.67487 0.0
H6141 H 0.31336 0.23498 0.67961 0.0
H6142 H 0.32474 0.25779 0.69141 0.0
H6143 H 0.31435 0.25465 0.66637 0.0
C6144 C 0.58575 0.52115 0.16532 0.0
C6145 C 0.57859 0.53094 0.18022 0.0
C6146 C 0.57893 0.52074 0.14554 0.0
C6147 C 0.56446 0.53022 0.14043 0.0
C6148 C 0.55691 0.53982 0.1554 0.0
C6149 C 0.5641 0.54014 0.17506 0.0
C6150 C 0.58748 0.51045 0.13007 0.0
C6151 C 0.54128 0.54985 0.15062 0.0
C6152 C 0.5596 0.54448 0.08913 0.0
C6153 C 0.54511 0.53043 0.07935 0.0
C6154 C 0.56586 0.54471 0.109 0.0
C6155 C 0.55756 0.53041 0.1194 0.0
C6156 C 0.54293 0.51614 0.10957 0.0
C6157 C 0.53695 0.51628 0.08969 0.0
C6158 C 0.58149 0.56018 0.11882 0.0
C6159 C 0.53362 0.50067 0.12003 0.0
H6160 H 0.59709 0.5142 0.16907 0.0
H6161 H 0.5583 0.54754 0.18643 0.0
H6162 H 0.57657 0.49978 0.12081 0.0
H6163 H 0.59379 0.5203 0.1204 0.0
H6164 H 0.59839 0.50348 0.13641 0.0
H6165 H 0.53656 0.55623 0.16392 0.0
H6166 H 0.54586 0.56096 0.14152 0.0
H6167 H 0.52924 0.54002 0.14198 0.0
H6168 H 0.56624 0.55522 0.08119 0.0
H6169 H 0.52575 0.50533 0.08227 0.0
H6170 H 0.59339 0.55427 0.12464 0.0
H6171 H 0.5768 0.56782 0.13137 0.0
H6172 H 0.58644 0.57026 0.10873 0.0
H6173 H 0.54387 0.49234 0.12493 0.0
H6174 H 0.52177 0.49121 0.11063 0.0
H6175 H 0.52842 0.50656 0.13324 0.0
C6176 C 0.26437 0.85655 0.89329 0.0
C6177 C 0.28206 0.86689 0.901 0.0
C6178 C 0.26185 0.8447 0.87576 0.0
C6179 C 0.27743 0.8432 0.86588 0.0
C6180 C 0.29508 0.85444 0.87294 0.0
C6181 C 0.2972 0.86617 0.89051 0.0
C6182 C 0.24285 0.83277 0.8687 0.0
C6183 C 0.31194 0.85325 0.86257 0.0
C6184 C 0.28141 0.79736 0.83938 0.0
C6185 C 0.27716 0.80005 0.81991 0.0
C6186 C 0.28047 0.81097 0.85453 0.0
C6187 C 0.276 0.82797 0.84997 0.0
C6188 C 0.27106 0.83051 0.83037 0.0
C6189 C 0.27092 0.81604 0.8156 0.0
C6190 C 0.28465 0.80728 0.87537 0.0
C6191 C 0.26674 0.84867 0.82494 0.0
H6192 H 0.25265 0.857 0.90145 0.0
H6193 H 0.3108 0.87446 0.89626 0.0
H6194 H 0.23946 0.83227 0.8527 0.0
H6195 H 0.24279 0.81831 0.87184 0.0
H6196 H 0.23173 0.8379 0.87599 0.0
H6197 H 0.32397 0.86465 0.86843 0.0
H6198 H 0.31614 0.83978 0.8643 0.0
H6199 H 0.3086 0.85375 0.84671 0.0
H6200 H 0.28551 0.78458 0.84284 0.0
H6201 H 0.26637 0.81741 0.80072 0.0
H6202 H 0.27348 0.81035 0.88398 0.0
H6203 H 0.29786 0.81656 0.88223 0.0
H6204 H 0.28595 0.79263 0.87635 0.0
H6205 H 0.25603 0.85297 0.8335 0.0
H6206 H 0.2618 0.84783 0.80915 0.0
H6207 H 0.27949 0.85973 0.82852 0.0
C6208 C 0.94456 0.53623 0.70207 0.0
C6209 C 0.93878 0.52028 0.71107 0.0
C6210 C 0.95573 0.53572 0.68697 0.0
C6211 C 0.9606 0.51871 0.68041 0.0
C6212 C 0.95467 0.50256 0.68931 0.0
C6213 C 0.94418 0.50366 0.70478 0.0
C6214 C 0.96208 0.55324 0.67796 0.0
C6215 C 0.95943 0.48406 0.68251 0.0
C6216 C 0.97338 0.50353 0.63161 0.0
C6217 C 0.99183 0.50207 0.63699 0.0
C6218 C 0.96331 0.51109 0.64524 0.0
C6219 C 0.97212 0.51735 0.66446 0.0
C6220 C 0.99136 0.51792 0.66918 0.0
C6221 C 1.00098 0.50994 0.65538 0.0
C6222 C 0.94283 0.5104 0.63969 0.0
C6223 C 1.00131 0.52521 0.68935 0.0
H6224 H 0.94024 0.54907 0.70669 0.0
H6225 H 0.94027 0.49143 0.71202 0.0
H6226 H 0.97683 0.55471 0.67524 0.0
H6227 H 0.95353 0.55257 0.6637 0.0
H6228 H 0.96057 0.56587 0.68736 0.0
H6229 H 0.953 0.47271 0.69051 0.0
H6230 H 0.9546 0.48007 0.66671 0.0
H6231 H 0.97474 0.48519 0.68459 0.0
H6232 H 0.96647 0.49761 0.61717 0.0
H6233 H 0.01543 0.50918 0.65919 0.0
H6234 H 0.93876 0.52325 0.64601 0.0
H6235 H 0.93461 0.49849 0.64562 0.0
H6236 H 0.93903 0.50858 0.62361 0.0
H6237 H 0.99669 0.5379 0.69528 0.0
H6238 H 0.01666 0.5285 0.68939 0.0
H6239 H 0.99795 0.5145 0.69927 0.0
C6240 C 0.26179 0.22879 0.40989 0.0
C6241 C 0.27566 0.22022 0.4182 0.0
C6242 C 0.26288 0.23554 0.39172 0.0
C6243 C 0.27848 0.23421 0.38172 0.0
C6244 C 0.29273 0.22597 0.39015 0.0
C6245 C 0.29101 0.21883 0.40804 0.0
C6246 C 0.24726 0.24404 0.38319 0.0
C6247 C 0.30994 0.2249 0.38036 0.0
C6248 C 0.27555 0.23778 0.32702 0.0
C6249 C 0.28161 0.25699 0.32668 0.0
C6250 C 0.27402 0.23023 0.34476 0.0
C6251 C 0.28007 0.24187 0.36269 0.0
C6252 C 0.28722 0.26102 0.36244 0.0
C6253 C 0.28711 0.26837 0.34458 0.0
C6254 C 0.26538 0.20991 0.3443 0.0
C6255 C 0.29491 0.27385 0.38105 0.0
H6256 H 0.25004 0.23039 0.41762 0.0
H6257 H 0.30171 0.21198 0.41393 0.0
H6258 H 0.25247 0.259 0.38222 0.0
H6259 H 0.242 0.23719 0.36814 0.0
H6260 H 0.23547 0.24281 0.39205 0.0
H6261 H 0.32018 0.21889 0.38924 0.0
H6262 H 0.30607 0.21625 0.36597 0.0
H6263 H 0.31676 0.23901 0.37768 0.0
H6264 H 0.27122 0.22868 0.3134 0.0
H6265 H 0.29139 0.28308 0.34486 0.0
H6266 H 0.25322 0.20852 0.35264 0.0
H6267 H 0.2755 0.20256 0.35142 0.0
H6268 H 0.26068 0.2029 0.3292 0.0
H6269 H 0.28338 0.27617 0.38946 0.0
H6270 H 0.30257 0.28759 0.37815 0.0
H6271 H 0.3045 0.2675 0.39038 0.0
C6272 C 0.36065 0.57509 0.55874 0.0
C6273 C 0.34558 0.57278 0.54409 0.0
C6274 C 0.37663 0.56843 0.55495 0.0
C6275 C 0.37751 0.55998 0.53595 0.0
C6276 C 0.36153 0.55577 0.5219 0.0
C6277 C 0.34555 0.56189 0.52636 0.0
C6278 C 0.39306 0.57206 0.57065 0.0
C6279 C 0.36191 0.54684 0.50139 0.0
C6280 C 0.42073 0.57199 0.51187 0.0
C6281 C 0.42529 0.55447 0.50824 0.0
C6282 C 0.40571 0.57423 0.52197 0.0
C6283 C 0.39563 0.55875 0.52941 0.0
C6284 C 0.40133 0.54153 0.52766 0.0
C6285 C 0.41577 0.53941 0.51661 0.0
C6286 C 0.39984 0.59284 0.52339 0.0
C6287 C 0.39144 0.52505 0.53638 0.0
H6288 H 0.36058 0.5833 0.5726 0.0
H6289 H 0.33353 0.55953 0.51534 0.0
H6290 H 0.40127 0.56093 0.56933 0.0
H6291 H 0.40234 0.58545 0.56927 0.0
H6292 H 0.38849 0.5731 0.58541 0.0
H6293 H 0.34788 0.54335 0.49279 0.0
H6294 H 0.37123 0.55653 0.49373 0.0
H6295 H 0.36751 0.53394 0.50163 0.0
H6296 H 0.42842 0.58384 0.50616 0.0
H6297 H 0.41894 0.5257 0.51388 0.0
H6298 H 0.39916 0.59795 0.53882 0.0
H6299 H 0.3857 0.59129 0.51536 0.0
H6300 H 0.40951 0.60356 0.51724 0.0
H6301 H 0.38746 0.52949 0.55085 0.0
H6302 H 0.40024 0.5145 0.53806 0.0
H6303 H 0.37848 0.5183 0.52673 0.0
C6304 C 0.89034 0.96699 0.5348 0.0
C6305 C 0.88879 0.94863 0.53918 0.0
C6306 C 0.9078 0.97827 0.53377 0.0
C6307 C 0.92414 0.97092 0.53675 0.0
C6308 C 0.92269 0.95247 0.54142 0.0
C6309 C 0.90506 0.94163 0.54277 0.0
C6310 C 0.90874 0.99801 0.52931 0.0
C6311 C 0.9397 0.94397 0.54439 0.0
C6312 C 0.96613 0.9932 0.51343 0.0
C6313 C 0.97818 1.00265 0.52974 0.0
C6314 C 0.94868 0.9825 0.51555 0.0
C6315 C 0.94267 0.98228 0.53431 0.0
C6316 C 0.95451 0.99272 0.55069 0.0
C6317 C 0.97236 1.00232 0.54827 0.0
C6318 C 0.93694 0.97099 0.4978 0.0
C6319 C 0.94833 0.99377 0.57076 0.0
H6320 H 0.87784 0.97256 0.53221 0.0
H6321 H 0.90396 0.92741 0.54598 0.0
H6322 H 0.91896 0.0078 0.54027 0.0
H6323 H 0.9136 0.99948 0.51485 0.0
H6324 H 0.89502 1.00218 0.52916 0.0
H6325 H 0.93624 0.92947 0.54796 0.0
H6326 H 0.94668 0.94394 0.53097 0.0
H6327 H 0.94984 0.95242 0.55637 0.0
H6328 H 0.97073 0.99347 0.4991 0.0
H6329 H 0.98169 0.00984 0.56084 0.0
H6330 H 0.9235 0.97555 0.49523 0.0
H6331 H 0.93371 0.95615 0.50027 0.0
H6332 H 0.94399 0.97203 0.48444 0.0
H6333 H 0.93492 0.99858 0.57032 0.0
H6334 H 0.95873 1.00339 0.58171 0.0
H6335 H 0.94594 0.97976 0.57564 0.0
C6336 C 0.87611 0.10756 0.25307 0.0
C6337 C 0.87116 0.09191 0.26277 0.0
C6338 C 0.8668 0.12248 0.25498 0.0
C6339 C 0.8522 0.12164 0.26682 0.0
C6340 C 0.84674 0.10559 0.27606 0.0
C6341 C 0.85631 0.09096 0.27395 0.0
C6342 C 0.87306 0.1394 0.24498 0.0
C6343 C 0.83106 0.10404 0.28859 0.0
C6344 C 0.83901 0.16381 0.29305 0.0
C6345 C 0.82224 0.16428 0.28193 0.0
C6346 C 0.8497 0.15081 0.28744 0.0
C6347 C 0.84314 0.13779 0.27056 0.0
C6348 C 0.82668 0.13897 0.25871 0.0
C6349 C 0.81643 0.15234 0.26452 0.0
C6350 C 0.86738 0.15027 0.30022 0.0
C6351 C 0.81922 0.12533 0.24065 0.0
H6352 H 0.88767 0.10841 0.24451 0.0
H6353 H 0.85222 0.07874 0.28118 0.0
H6354 H 0.86094 0.14395 0.23759 0.0
H6355 H 0.88049 0.15106 0.25605 0.0
H6356 H 0.88257 0.13677 0.23407 0.0
H6357 H 0.8278 0.09017 0.29376 0.0
H6358 H 0.83487 0.1148 0.30151 0.0
H6359 H 0.81829 0.1066 0.2803 0.0
H6360 H 0.84342 0.17321 0.30649 0.0
H6361 H 0.80338 0.15282 0.25603 0.0
H6362 H 0.8789 0.14955 0.29124 0.0
H6363 H 0.8653 0.13759 0.30771 0.0
H6364 H 0.87165 0.16263 0.31146 0.0
H6365 H 0.83043 0.12393 0.23143 0.0
H6366 H 0.80766 0.12955 0.23179 0.0
H6367 H 0.81398 0.1114 0.24498 0.0
C6368 C 0.66834 0.05098 0.03818 0.0
C6369 C 0.67525 0.07007 0.03952 0.0
C6370 C 0.64915 0.04417 0.03615 0.0
C6371 C 0.63704 0.05689 0.03509 0.0
C6372 C 0.64409 0.07621 0.03633 0.0
C6373 C 0.66328 0.08261 0.03868 0.0
C6374 C 0.64182 0.02349 0.03515 0.0
C6375 C 0.63142 0.09005 0.03507 0.0
C6376 C 0.58746 0.03916 0.01256 0.0
C6377 C 0.57858 0.03801 0.02927 0.0
C6378 C 0.6067 0.04533 0.01421 0.0
C6379 C 0.6169 0.05009 0.03303 0.0
C6380 C 0.60785 0.04887 0.04995 0.0
C6381 C 0.58862 0.04288 0.04782 0.0
C6382 C 0.61609 0.04664 0.99592 0.0
C6383 C 0.61841 0.05382 0.07022 0.0
H6384 H 0.67793 0.0415 0.03875 0.0
H6385 H 0.66899 0.0974 0.03951 0.0
H6386 H 0.63307 0.02065 0.04701 0.0
H6387 H 0.63283 0.01825 0.02112 0.0
H6388 H 0.65319 0.01556 0.03646 0.0
H6389 H 0.63929 0.10459 0.03593 0.0
H6390 H 0.62194 0.08665 0.02114 0.0
H6391 H 0.62259 0.08921 0.04708 0.0
H6392 H 0.57946 0.03491 0.99832 0.0
H6393 H 0.5814 0.04194 0.06063 0.0
H6394 H 0.6261 0.03715 0.99548 0.0
H6395 H 0.62413 0.06097 0.99596 0.0
H6396 H 0.60595 0.04296 0.98245 0.0
H6397 H 0.6289 0.04498 0.07224 0.0
H6398 H 0.6091 0.05197 0.08179 0.0
H6399 H 0.62604 0.0685 0.07219 0.0
C6400 C 0.20993 0.44009 0.24563 0.0
C6401 C 0.22195 0.45596 0.2418 0.0
C6402 C 0.21688 0.42473 0.25062 0.0
C6403 C 0.23625 0.42545 0.25153 0.0
C6404 C 0.24812 0.44064 0.24547 0.0
C6405 C 0.24076 0.45596 0.24071 0.0
C6406 C 0.20381 0.40874 0.25705 0.0
C6407 C 0.26878 0.44153 0.24589 0.0
C6408 C 0.25147 0.40103 0.29307 0.0
C6409 C 0.25135 0.3835 0.28333 0.0
C6410 C 0.24794 0.4154 0.28262 0.0
C6411 C 0.24409 0.4119 0.26202 0.0
C6412 C 0.24491 0.39448 0.25205 0.0
C6413 C 0.24849 0.38036 0.2629 0.0
C6414 C 0.24734 0.43399 0.29368 0.0
C6415 C 0.24096 0.39045 0.2301 0.0
H6416 H 0.19533 0.44033 0.24628 0.0
H6417 H 0.2499 0.46842 0.2377 0.0
H6418 H 0.20606 0.39522 0.2502 0.0
H6419 H 0.20664 0.40902 0.2731 0.0
H6420 H 0.18896 0.40947 0.25335 0.0
H6421 H 0.27509 0.45185 0.23666 0.0
H6422 H 0.27565 0.44573 0.26109 0.0
H6423 H 0.27171 0.42773 0.24086 0.0
H6424 H 0.25422 0.40344 0.30887 0.0
H6425 H 0.2486 0.36672 0.25544 0.0
H6426 H 0.23285 0.43631 0.29213 0.0
H6427 H 0.25608 0.44543 0.28758 0.0
H6428 H 0.25228 0.43484 0.30947 0.0
H6429 H 0.22576 0.38844 0.22562 0.0
H6430 H 0.24566 0.37768 0.22447 0.0
H6431 H 0.24788 0.40232 0.2231 0.0
C6432 C 0.20712 0.44279 0.01346 0.0
C6433 C 0.2088 0.43181 0.02862 0.0
C6434 C 0.19235 0.4522 0.01115 0.0
C6435 C 0.17887 0.45066 0.02435 0.0
C6436 C 0.18063 0.43988 0.03992 0.0
C6437 C 0.19557 0.43057 0.04187 0.0
C6438 C 0.19111 0.46371 0.99446 0.0
C6439 C 0.16655 0.43792 0.05428 0.0
C6440 C 0.15091 0.48886 0.02412 0.0
C6441 C 0.1354 0.48036 0.01074 0.0
C6442 C 0.16468 0.47897 0.02969 0.0
C6443 C 0.1629 0.46022 0.02149 0.0
C6444 C 0.14666 0.45131 0.00879 0.0
C6445 C 0.13308 0.46154 0.00352 0.0
C6446 C 0.18168 0.48895 0.04336 0.0
C6447 C 0.14418 0.43133 0.99983 0.0
H6448 H 0.21747 0.44412 0.0034 0.0
H6449 H 0.19668 0.422 0.05354 0.0
H6450 H 0.17795 0.45813 0.98463 0.0
H6451 H 0.19086 0.47827 1.00012 0.0
H6452 H 0.20294 0.46381 0.98575 0.0
H6453 H 0.17077 0.43042 0.06653 0.0
H6454 H 0.16455 0.45181 0.06036 0.0
H6455 H 0.15289 0.43016 0.04669 0.0
H6456 H 0.15263 0.50348 0.02954 0.0
H6457 H 0.12108 0.45511 0.99304 0.0
H6458 H 0.19386 0.49133 0.03511 0.0
H6459 H 0.18494 0.48035 0.05494 0.0
H6460 H 0.17986 0.50262 0.05034 0.0
H6461 H 0.15445 0.43025 0.98936 0.0
H6462 H 0.12999 0.42589 0.99195 0.0
H6463 H 0.14683 0.42234 0.01124 0.0
C6464 C 0.86716 0.90363 0.2681 0.0
C6465 C 0.86011 0.91747 0.25907 0.0
C6466 C 0.85591 0.88609 0.26868 0.0
C6467 C 0.83708 0.88229 0.26016 0.0
C6468 C 0.82988 0.89616 0.25097 0.0
C6469 C 0.84151 0.91355 0.25044 0.0
C6470 C 0.86419 0.87163 0.27846 0.0
C6471 C 0.80984 0.8927 0.24188 0.0
C6472 C 0.81343 0.8312 0.24822 0.0
C6473 C 0.80364 0.82835 0.26427 0.0
C6474 C 0.82391 0.84881 0.24638 0.0
C6475 C 0.82492 0.86385 0.26115 0.0
C6476 C 0.81486 0.86107 0.27728 0.0
C6477 C 0.80421 0.8434 0.27856 0.0
C6478 C 0.83418 0.85124 0.2288 0.0
C6479 C 0.81576 0.87664 0.29349 0.0
H6480 H 0.88158 0.90648 0.27457 0.0
H6481 H 0.83593 0.92423 0.24359 0.0
H6482 H 0.8564 0.86751 0.29069 0.0
H6483 H 0.86292 0.85894 0.26794 0.0
H6484 H 0.87911 0.87672 0.28423 0.0
H6485 H 0.80646 0.90478 0.23498 0.0
H6486 H 0.80685 0.88032 0.23067 0.0
H6487 H 0.80047 0.88966 0.25317 0.0
H6488 H 0.81296 0.8196 0.23711 0.0
H6489 H 0.79685 0.84123 0.29113 0.0
H6490 H 0.84939 0.85502 0.23351 0.0
H6491 H 0.83026 0.86279 0.22134 0.0
H6492 H 0.83121 0.83842 0.21815 0.0
H6493 H 0.83028 0.88127 0.30071 0.0
H6494 H 0.80664 0.87237 0.3047 0.0
H6495 H 0.81157 0.88879 0.28745 0.0
C6496 C 0.74517 0.14096 0.78655 0.0
C6497 C 0.74345 0.13294 0.76709 0.0
C6498 C 0.75143 0.16013 0.79155 0.0
C6499 C 0.75602 0.17121 0.77669 0.0
C6500 C 0.75528 0.16299 0.75718 0.0
C6501 C 0.74889 0.14385 0.75261 0.0
C6502 C 0.75213 0.1686 0.81242 0.0
C6503 C 0.76036 0.17447 0.74096 0.0
C6504 C 0.75093 0.2201 0.7738 0.0
C6505 C 0.7696 0.22847 0.77451 0.0
C6506 C 0.74609 0.20155 0.77708 0.0
C6507 C 0.76043 0.19156 0.78089 0.0
C6508 C 0.77928 0.20083 0.78409 0.0
C6509 C 0.78368 0.21933 0.78066 0.0
C6510 C 0.72581 0.19207 0.77376 0.0
C6511 C 0.7949 0.19068 0.78839 0.0
H6512 H 0.74071 0.1324 0.79765 0.0
H6513 H 0.7476 0.13745 0.73763 0.0
H6514 H 0.76541 0.17871 0.81718 0.0
H6515 H 0.7407 0.17636 0.81357 0.0
H6516 H 0.75062 0.15788 0.82259 0.0
H6517 H 0.75998 0.16569 0.72687 0.0
H6518 H 0.75051 0.18396 0.73886 0.0
H6519 H 0.77453 0.1832 0.74483 0.0
H6520 H 0.74021 0.2274 0.76884 0.0
H6521 H 0.79815 0.22613 0.78113 0.0
H6522 H 0.72265 0.182 0.78436 0.0
H6523 H 0.72259 0.18423 0.7589 0.0
H6524 H 0.71655 0.20229 0.77496 0.0
H6525 H 0.79108 0.17993 0.79813 0.0
H6526 H 0.80787 0.20044 0.79524 0.0
H6527 H 0.79784 0.18357 0.77452 0.0
loop_
_geom_bond_atom_site_label_1
_geom_bond_atom_site_label_2
_geom_bond_distance
_geom_bond_site_symmetry_2
_ccdc_geom_bond_type
Li0 N17 1.990 1_455 S
Li0 O60 1.956 . S
Li0 O61 1.970 . S
Li0 O62 1.961 . S
Li1 N25 1.990 . S
Li1 O60 1.970 . S
Li1 O61 1.956 . S
Li1 O63 1.961 . S
Li2 N47 1.990 . S
Li2 O60 1.961 . S
Li2 O62 1.956 . S
Li2 O63 1.970 . S
Li3 N53 1.990 . S
Li3 O61 1.961 . S
Li3 O62 1.970 . S
Li3 O63 1.956 . S
C4 C6 1.348 . S
C4 C7 1.356 . S
C4 O60 1.325 . S
N5 C8 1.314 . S
N5 C9 1.279 . S
C6 C4 1.348 . S
C6 C8 1.353 . S
C6 H64 0.929 . S
C7 C4 1.356 . S
C7 C9 1.358 . S
C7 H65 0.930 . S
C8 N5 1.314 . S
C8 C6 1.353 . S
C8 H66 0.930 . S
C9 N5 1.279 . S
C9 C7 1.358 . S
C9 H67 0.930 . S
C10 C13 1.348 1_455 S
C10 C14 1.356 . S
C10 O61 1.325 . S
C11 N12 1.279 . S
C11 C14 1.358 1_655 S
C11 H68 0.930 . S
N12 C11 1.279 . S
N12 C15 1.314 . S
C13 C10 1.348 1_655 S
C13 C15 1.353 . S
C13 H69 0.929 . S
C14 C10 1.356 . S
C14 C11 1.358 1_455 S
C14 H70 0.930 . S
C15 N12 1.314 . S
C15 C13 1.353 . S
C15 H71 0.930 . S
C16 N17 1.314 . S
C16 C21 1.353 . S
C16 H22 0.930 . S
N17 Li0 1.990 1_655 S
N17 C16 1.314 . S
N17 C19 1.279 . S
C18 C19 1.358 . S
C18 C20 1.356 . S
C18 H72 0.930 . S
C19 N17 1.279 . S
C19 C18 1.358 . S
C19 H23 0.930 . S
C20 C18 1.356 . S
C20 C21 1.348 . S
C21 C16 1.353 . S
C21 C20 1.348 . S
C21 H73 0.929 . S
H22 C16 0.930 . S
H23 C19 0.930 . S
C24 N25 1.314 . S
C24 C26 1.353 . S
C24 H30 0.930 . S
N25 Li1 1.990 . S
N25 C24 1.314 . S
N25 C28 1.279 . S
C26 C24 1.353 . S
C26 C29 1.348 . S
C26 H74 0.929 . S
C27 C28 1.358 . S
C27 C29 1.356 . S
C27 H75 0.930 . S
C28 N25 1.279 . S
C28 C27 1.358 . S
C28 H31 0.930 . S
C29 C26 1.348 . S
C29 C27 1.356 . S
H30 C24 0.930 . S
H31 C28 0.930 . S
C32 C34 1.348 . S
C32 C35 1.356 . S
C32 O62 1.325 . S
N33 C36 1.314 . S
N33 C37 1.279 . S
C34 C32 1.348 . S
C34 C36 1.353 . S
C34 H76 0.929 . S
C35 C32 1.356 . S
C35 C37 1.358 . S
C35 H77 0.930 . S
C36 N33 1.314 . S
C36 C34 1.353 . S
C36 H78 0.930 . S
C37 N33 1.279 . S
C37 C35 1.358 . S
C37 H79 0.930 . S
C38 C39 1.348 . S
C38 C40 1.356 . S
C38 O63 1.325 . S
C39 C38 1.348 . S
C39 C41 1.353 . S
C39 H80 0.929 . S
C40 C38 1.356 . S
C40 C42 1.358 . S
C40 H81 0.930 . S
C41 C39 1.353 . S
C41 N43 1.314 . S
C41 H82 0.930 . S
C42 C40 1.358 . S
C42 N43 1.279 . S
C42 H83 0.930 . S
N43 C41 1.314 . S
N43 C42 1.279 . S
C44 C46 1.353 . S
C44 N47 1.314 . S
C44 H50 0.930 . S
C45 N47 1.279 . S
C45 C48 1.358 . S
C45 H51 0.930 . S
C46 C44 1.353 . S
C46 C49 1.348 . S
C46 H84 0.929 . S
N47 Li2 1.990 . S
N47 C44 1.314 . S
N47 C45 1.279 . S
C48 C45 1.358 . S
C48 C49 1.356 . S
C48 H85 0.930 . S
C49 C46 1.348 . S
C49 C48 1.356 . S
H50 C44 0.930 . S
H51 C45 0.930 . S
C52 N53 1.314 . S
C52 C54 1.353 . S
C52 H58 0.930 . S
N53 Li3 1.990 . S
N53 C52 1.314 . S
N53 C56 1.279 . S
C54 C52 1.353 . S
C54 C57 1.348 . S
C54 H86 0.929 . S
C55 C56 1.358 . S
C55 C57 1.356 . S
C55 H87 0.930 . S
C56 N53 1.279 . S
C56 C55 1.358 . S
C56 H59 0.930 . S
C57 C54 1.348 . S
C57 C55 1.356 . S
H58 C52 0.930 . S
H59 C56 0.930 . S
O60 Li0 1.956 . S
O60 Li1 1.970 . S
O60 Li2 1.961 . S
O60 C4 1.325 . S
O61 Li0 1.970 . S
O61 Li1 1.956 . S
O61 Li3 1.961 . S
O61 C10 1.325 . S
O62 Li0 1.961 . S
O62 Li2 1.956 . S
O62 Li3 1.970 . S
O62 C32 1.325 . S
O63 Li1 1.961 . S
O63 Li2 1.970 . S
O63 Li3 1.956 . S
O63 C38 1.325 . S
H64 C6 0.929 . S
H65 C7 0.930 . S
H66 C8 0.930 . S
H67 C9 0.930 . S
H68 C11 0.930 . S
H69 C13 0.929 . S
H70 C14 0.930 . S
H71 C15 0.930 . S
H72 C18 0.930 . S
H73 C21 0.929 . S
H74 C26 0.929 . S
H75 C27 0.930 . S
H76 C34 0.929 . S
H77 C35 0.930 . S
H78 C36 0.930 . S
H79 C37 0.930 . S
H80 C39 0.929 . S
H81 C40 0.930 . S
H82 C41 0.930 . S
H83 C42 0.930 . S
H84 C46 0.929 . S
H85 C48 0.930 . S
H86 C54 0.929 . S
H87 C55 0.930 . S
Li88 N105 1.990 . S
Li88 O148 1.956 . S
Li88 O149 1.970 . S
Li88 O150 1.961 1_455 S
Li89 N113 1.990 . S
Li89 O148 1.970 . S
Li89 O149 1.956 . S
Li89 O151 1.961 . S
Li90 N135 1.990 . S
Li90 O148 1.961 . S
Li90 O150 1.956 1_455 S
Li90 O151 1.970 . S
Li91 N141 1.990 . S
Li91 O149 1.961 1_655 S
Li91 O150 1.970 . S
Li91 O151 1.956 1_655 S
C92 C94 1.348 . S
C92 C95 1.356 . S
C92 O148 1.325 . S
N93 C96 1.314 . S
N93 C97 1.279 . S
C94 C92 1.348 . S
C94 C96 1.353 . S
C94 H152 0.929 . S
C95 C92 1.356 . S
C95 C97 1.358 . S
C95 H153 0.930 . S
C96 N93 1.314 . S
C96 C94 1.353 . S
C96 H154 0.930 . S
C97 N93 1.279 . S
C97 C95 1.358 . S
C97 H155 0.930 . S
C98 C101 1.348 . S
C98 C102 1.356 . S
C98 O149 1.325 . S
C99 N100 1.279 . S
C99 C102 1.358 . S
C99 H156 0.930 . S
N100 C99 1.279 . S
N100 C103 1.314 . S
C101 C98 1.348 . S
C101 C103 1.353 . S
C101 H157 0.929 . S
C102 C98 1.356 . S
C102 C99 1.358 . S
C102 H158 0.930 . S
C103 N100 1.314 . S
C103 C101 1.353 . S
C103 H159 0.930 . S
C104 N105 1.314 . S
C104 C109 1.353 . S
C104 H110 0.930 1_455 S
N105 Li88 1.990 . S
N105 C104 1.314 . S
N105 C107 1.279 . S
C106 C107 1.358 . S
C106 C108 1.356 . S
C106 H160 0.930 . S
C107 N105 1.279 . S
C107 C106 1.358 . S
C107 H111 0.930 . S
C108 C106 1.356 . S
C108 C109 1.348 . S
C109 C104 1.353 . S
C109 C108 1.348 . S
C109 H161 0.929 1_455 S
H110 C104 0.930 1_655 S
H111 C107 0.930 . S
C112 N113 1.314 . S
C112 C114 1.353 . S
C112 H118 0.930 . S
N113 Li89 1.990 . S
N113 C112 1.314 . S
N113 C116 1.279 . S
C114 C112 1.353 . S
C114 C117 1.348 . S
C114 H162 0.929 . S
C115 C116 1.358 . S
C115 C117 1.356 . S
C115 H163 0.930 . S
C116 N113 1.279 . S
C116 C115 1.358 . S
C116 H119 0.930 . S
C117 C114 1.348 . S
C117 C115 1.356 . S
H118 C112 0.930 . S
H119 C116 0.930 . S
C120 C122 1.348 . S
C120 C123 1.356 . S
C120 O150 1.325 . S
N121 C124 1.314 . S
N121 C125 1.279 . S
C122 C120 1.348 . S
C122 C124 1.353 . S
C122 H164 0.929 . S
C123 C120 1.356 . S
C123 C125 1.358 . S
C123 H165 0.930 . S
C124 N121 1.314 . S
C124 C122 1.353 . S
C124 H166 0.930 . S
C125 N121 1.279 . S
C125 C123 1.358 . S
C125 H167 0.930 . S
C126 C127 1.348 . S
C126 C128 1.356 . S
C126 O151 1.325 . S
C127 C126 1.348 . S
C127 C129 1.353 . S
C127 H168 0.938 . S
C128 C126 1.356 . S
C128 C130 1.358 . S
C128 H169 0.930 . S
C129 C127 1.353 . S
C129 N131 1.314 . S
C129 H170 0.931 . S
C130 C128 1.358 . S
C130 N131 1.279 . S
C130 H171 0.930 . S
N131 C129 1.314 . S
N131 C130 1.279 . S
C132 C134 1.353 . S
C132 N135 1.314 . S
C132 H138 0.930 . S
C133 N135 1.279 1_655 S
C133 C136 1.358 . S
C133 H139 0.930 . S
C134 C132 1.353 . S
C134 C137 1.348 . S
C134 H172 0.929 . S
N135 Li90 1.990 . S
N135 C132 1.314 . S
N135 C133 1.279 1_455 S
C136 C133 1.358 . S
C136 C137 1.356 1_655 S
C136 H173 0.930 . S
C137 C134 1.348 . S
C137 C136 1.356 1_455 S
H138 C132 0.930 . S
H139 C133 0.930 . S
C140 N141 1.314 . S
C140 C142 1.353 . S
C140 H146 0.930 . S
N141 Li91 1.990 . S
N141 C140 1.314 . S
N141 C144 1.279 . S
C142 C140 1.353 . S
C142 C145 1.348 . S
C142 H174 0.929 . S
C143 C144 1.358 . S
C143 C145 1.356 . S
C143 H175 0.930 . S
C144 N141 1.279 . S
C144 C143 1.358 . S
C144 H147 0.930 . S
C145 C142 1.348 . S
C145 C143 1.356 . S
H146 C140 0.930 . S
H147 C144 0.930 . S
O148 Li88 1.956 . S
O148 Li89 1.970 . S
O148 Li90 1.961 . S
O148 C92 1.325 . S
O149 Li88 1.970 . S
O149 Li89 1.956 . S
O149 Li91 1.961 1_455 S
O149 C98 1.325 . S
O150 Li88 1.961 1_655 S
O150 Li90 1.956 1_655 S
O150 Li91 1.970 . S
O150 C120 1.325 . S
O151 Li89 1.961 . S
O151 Li90 1.970 . S
O151 Li91 1.956 1_455 S
O151 C126 1.325 . S
H152 C94 0.929 . S
H153 C95 0.930 . S
H154 C96 0.930 . S
H155 C97 0.930 . S
H156 C99 0.930 . S
H157 C101 0.929 . S
H158 C102 0.930 . S
H159 C103 0.930 . S
H160 C106 0.930 . S
H161 C109 0.929 1_655 S
H162 C114 0.929 . S
H163 C115 0.930 . S
H164 C122 0.929 . S
H165 C123 0.930 . S
H166 C124 0.930 . S
H167 C125 0.930 . S
H168 C127 0.938 . S
H169 C128 0.930 . S
H170 C129 0.931 . S
H171 C130 0.930 . S
H172 C134 0.929 . S
H173 C136 0.930 . S
H174 C142 0.929 . S
H175 C143 0.930 . S
Li176 N193 1.990 . S
Li176 O236 1.956 . S
Li176 O237 1.970 . S
Li176 O238 1.961 . S
Li177 N201 1.990 . S
Li177 O236 1.970 . S
Li177 O237 1.956 . S
Li177 O239 1.961 . S
Li178 N223 1.990 . S
Li178 O236 1.961 . S
Li178 O238 1.956 . S
Li178 O239 1.970 . S
Li179 N229 1.990 . S
Li179 O237 1.961 . S
Li179 O238 1.970 . S
Li179 O239 1.956 . S
C180 C182 1.348 . S
C180 C183 1.356 . S
C180 O236 1.325 . S
N181 C184 1.314 . S
N181 C185 1.279 . S
C182 C180 1.348 . S
C182 C184 1.353 . S
C182 H240 0.929 . S
C183 C180 1.356 . S
C183 C185 1.358 . S
C183 H241 0.930 . S
C184 N181 1.314 . S
C184 C182 1.353 . S
C184 H242 0.930 . S
C185 N181 1.279 . S
C185 C183 1.358 . S
C185 H243 0.930 . S
C186 C189 1.348 . S
C186 C190 1.356 . S
C186 O237 1.325 . S
C187 N188 1.279 . S
C187 C190 1.358 . S
C187 H244 0.930 . S
N188 C187 1.279 . S
N188 C191 1.314 . S
C189 C186 1.348 . S
C189 C191 1.353 . S
C189 H245 0.929 . S
C190 C186 1.356 . S
C190 C187 1.358 . S
C190 H246 0.930 . S
C191 N188 1.314 . S
C191 C189 1.353 . S
C191 H247 0.930 . S
C192 N193 1.314 . S
C192 C197 1.353 . S
C192 H198 0.930 . S
N193 Li176 1.990 . S
N193 C192 1.314 . S
N193 C195 1.279 . S
C194 C195 1.358 . S
C194 C196 1.356 . S
C194 H248 0.930 . S
C195 N193 1.279 . S
C195 C194 1.358 . S
C195 H199 0.930 . S
C196 C194 1.356 . S
C196 C197 1.348 . S
C197 C192 1.353 . S
C197 C196 1.348 . S
C197 H249 0.929 . S
H198 C192 0.930 . S
H199 C195 0.930 . S
C200 N201 1.314 . S
C200 C202 1.353 . S
C200 H206 0.930 . S
N201 Li177 1.990 . S
N201 C200 1.314 . S
N201 C204 1.279 . S
C202 C200 1.353 . S
C202 C205 1.348 . S
C202 H250 0.929 . S
C203 C204 1.358 . S
C203 C205 1.356 . S
C203 H251 0.930 . S
C204 N201 1.279 . S
C204 C203 1.358 . S
C204 H207 0.930 . S
C205 C202 1.348 . S
C205 C203 1.356 . S
H206 C200 0.930 . S
H207 C204 0.930 . S
C208 C210 1.348 . S
C208 C211 1.356 . S
C208 O238 1.325 . S
N209 C212 1.314 . S
N209 C213 1.279 . S
C210 C208 1.348 . S
C210 C212 1.353 . S
C210 H252 0.929 . S
C211 C208 1.356 . S
C211 C213 1.358 . S
C211 H253 0.930 . S
C212 N209 1.314 . S
C212 C210 1.353 . S
C212 H254 0.930 . S
C213 N209 1.279 . S
C213 C211 1.358 . S
C213 H255 0.930 . S
C214 C215 1.348 . S
C214 C216 1.356 . S
C214 O239 1.325 . S
C215 C214 1.348 . S
C215 C217 1.353 . S
C215 H256 0.929 . S
C216 C214 1.356 . S
C216 C218 1.358 . S
C216 H257 0.930 . S
C217 C215 1.353 . S
C217 N219 1.314 . S
C217 H258 0.930 . S
C218 C216 1.358 . S
C218 N219 1.279 . S
C218 H259 0.930 . S
N219 C217 1.314 . S
N219 C218 1.279 . S
C220 C222 1.353 . S
C220 N223 1.314 . S
C220 H226 0.930 . S
C221 N223 1.279 . S
C221 C224 1.358 . S
C221 H227 0.930 . S
C222 C220 1.353 . S
C222 C225 1.348 . S
C222 H260 0.929 . S
N223 Li178 1.990 . S
N223 C220 1.314 . S
N223 C221 1.279 . S
C224 C221 1.358 . S
C224 C225 1.356 . S
C224 H261 0.930 . S
C225 C222 1.348 . S
C225 C224 1.356 . S
H226 C220 0.930 . S
H227 C221 0.930 . S
C228 N229 1.314 . S
C228 C230 1.353 . S
C228 H234 0.930 . S
N229 Li179 1.990 . S
N229 C228 1.314 . S
N229 C232 1.279 . S
C230 C228 1.353 . S
C230 C233 1.348 . S
C230 H262 0.929 . S
C231 C232 1.358 . S
C231 C233 1.356 . S
C231 H263 0.930 . S
C232 N229 1.279 . S
C232 C231 1.358 . S
C232 H235 0.930 . S
C233 C230 1.348 . S
C233 C231 1.356 . S
H234 C228 0.930 . S
H235 C232 0.930 . S
O236 Li176 1.956 . S
O236 Li177 1.970 . S
O236 Li178 1.961 . S
O236 C180 1.325 . S
O237 Li176 1.970 . S
O237 Li177 1.956 . S
O237 Li179 1.961 . S
O237 C186 1.325 . S
O238 Li176 1.961 . S
O238 Li178 1.956 . S
O238 Li179 1.970 . S
O238 C208 1.325 . S
O239 Li177 1.961 . S
O239 Li178 1.970 . S
O239 Li179 1.956 . S
O239 C214 1.325 . S
H240 C182 0.929 . S
H241 C183 0.930 . S
H242 C184 0.930 . S
H243 C185 0.930 . S
H244 C187 0.930 . S
H245 C189 0.929 . S
H246 C190 0.930 . S
H247 C191 0.930 . S
H248 C194 0.930 . S
H249 C197 0.929 . S
H250 C202 0.929 . S
H251 C203 0.930 . S
H252 C210 0.929 . S
H253 C211 0.930 . S
H254 C212 0.930 . S
H255 C213 0.930 . S
H256 C215 0.929 . S
H257 C216 0.930 . S
H258 C217 0.930 . S
H259 C218 0.930 . S
H260 C222 0.929 . S
H261 C224 0.930 . S
H262 C230 0.929 . S
H263 C231 0.930 . S
Li264 N281 1.990 . S
Li264 O324 1.956 . S
Li264 O325 1.970 . S
Li264 O326 1.961 . S
Li265 N289 1.990 . S
Li265 O324 1.970 . S
Li265 O325 1.956 . S
Li265 O327 1.961 . S
Li266 N311 1.990 . S
Li266 O324 1.961 . S
Li266 O326 1.956 . S
Li266 O327 1.970 . S
Li267 N317 1.990 . S
Li267 O325 1.961 . S
Li267 O326 1.970 . S
Li267 O327 1.956 . S
C268 C270 1.348 . S
C268 C271 1.356 . S
C268 O324 1.325 . S
N269 C272 1.314 . S
N269 C273 1.279 . S
C270 C268 1.348 . S
C270 C272 1.353 . S
C270 H328 0.929 . S
C271 C268 1.356 . S
C271 C273 1.358 . S
C271 H329 0.930 . S
C272 N269 1.314 . S
C272 C270 1.353 . S
C272 H330 0.930 . S
C273 N269 1.279 . S
C273 C271 1.358 . S
C273 H331 0.930 . S
C274 C277 1.348 . S
C274 C278 1.356 . S
C274 O325 1.325 . S
C275 N276 1.279 . S
C275 C278 1.358 . S
C275 H332 0.930 . S
N276 C275 1.279 . S
N276 C279 1.314 . S
C277 C274 1.348 . S
C277 C279 1.353 . S
C277 H333 0.929 . S
C278 C274 1.356 . S
C278 C275 1.358 . S
C278 H334 0.930 . S
C279 N276 1.314 . S
C279 C277 1.353 . S
C279 H335 0.930 . S
C280 N281 1.314 . S
C280 C285 1.353 . S
C280 H286 0.930 . S
N281 Li264 1.990 . S
N281 C280 1.314 . S
N281 C283 1.279 . S
C282 C283 1.358 . S
C282 C284 1.356 . S
C282 H336 0.930 . S
C283 N281 1.279 . S
C283 C282 1.358 . S
C283 H287 0.930 . S
C284 C282 1.356 . S
C284 C285 1.348 . S
C285 C280 1.353 . S
C285 C284 1.348 . S
C285 H337 0.929 . S
H286 C280 0.930 . S
H287 C283 0.930 . S
C288 N289 1.314 . S
C288 C290 1.353 . S
C288 H294 0.930 . S
N289 Li265 1.990 . S
N289 C288 1.314 . S
N289 C292 1.279 . S
C290 C288 1.353 . S
C290 C293 1.348 . S
C290 H338 0.929 . S
C291 C292 1.358 . S
C291 C293 1.356 . S
C291 H339 0.930 . S
C292 N289 1.279 . S
C292 C291 1.358 . S
C292 H295 0.930 . S
C293 C290 1.348 . S
C293 C291 1.356 . S
H294 C288 0.930 . S
H295 C292 0.930 . S
C296 C298 1.348 . S
C296 C299 1.356 . S
C296 O326 1.325 . S
N297 C300 1.314 . S
N297 C301 1.279 . S
C298 C296 1.348 . S
C298 C300 1.353 . S
C298 H340 0.929 . S
C299 C296 1.356 . S
C299 C301 1.358 . S
C299 H341 0.930 . S
C300 N297 1.314 . S
C300 C298 1.353 . S
C300 H342 0.930 . S
C301 N297 1.279 . S
C301 C299 1.358 . S
C301 H343 0.930 . S
C302 C303 1.348 . S
C302 C304 1.356 . S
C302 O327 1.325 . S
C303 C302 1.348 . S
C303 C305 1.353 . S
C303 H344 0.929 . S
C304 C302 1.356 . S
C304 C306 1.358 . S
C304 H345 0.930 . S
C305 C303 1.353 . S
C305 N307 1.314 . S
C305 H346 0.930 . S
C306 C304 1.358 . S
C306 N307 1.279 . S
C306 H347 0.930 . S
N307 C305 1.314 . S
N307 C306 1.279 . S
C308 C310 1.353 . S
C308 N311 1.314 . S
C308 H314 0.930 . S
C309 N311 1.279 . S
C309 C312 1.358 . S
C309 H315 0.930 . S
C310 C308 1.353 . S
C310 C313 1.348 . S
C310 H348 0.929 . S
N311 Li266 1.990 . S
N311 C308 1.314 . S
N311 C309 1.279 . S
C312 C309 1.358 . S
C312 C313 1.356 . S
C312 H349 0.930 . S
C313 C310 1.348 . S
C313 C312 1.356 . S
H314 C308 0.930 . S
H315 C309 0.930 . S
C316 N317 1.314 . S
C316 C318 1.353 . S
C316 H322 0.930 . S
N317 Li267 1.990 . S
N317 C316 1.314 . S
N317 C320 1.279 . S
C318 C316 1.353 . S
C318 C321 1.348 . S
C318 H350 0.929 . S
C319 C320 1.358 . S
C319 C321 1.356 . S
C319 H351 0.930 . S
C320 N317 1.279 . S
C320 C319 1.358 . S
C320 H323 0.930 . S
C321 C318 1.348 . S
C321 C319 1.356 . S
H322 C316 0.930 . S
H323 C320 0.930 . S
O324 Li264 1.956 . S
O324 Li265 1.970 . S
O324 Li266 1.961 . S
O324 C268 1.325 . S
O325 Li264 1.970 . S
O325 Li265 1.956 . S
O325 Li267 1.961 . S
O325 C274 1.325 . S
O326 Li264 1.961 . S
O326 Li266 1.956 . S
O326 Li267 1.970 . S
O326 C296 1.325 . S
O327 Li265 1.961 . S
O327 Li266 1.970 . S
O327 Li267 1.956 . S
O327 C302 1.325 . S
H328 C270 0.929 . S
H329 C271 0.930 . S
H330 C272 0.930 . S
H331 C273 0.930 . S
H332 C275 0.930 . S
H333 C277 0.929 . S
H334 C278 0.930 . S
H335 C279 0.930 . S
H336 C282 0.930 . S
H337 C285 0.929 . S
H338 C290 0.929 . S
H339 C291 0.930 . S
H340 C298 0.929 . S
H341 C299 0.930 . S
H342 C300 0.930 . S
H343 C301 0.930 . S
H344 C303 0.929 . S
H345 C304 0.930 . S
H346 C305 0.930 . S
H347 C306 0.930 . S
H348 C310 0.929 . S
H349 C312 0.930 . S
H350 C318 0.929 . S
H351 C319 0.930 . S
Li352 N369 1.990 . S
Li352 O412 1.956 . S
Li352 O413 1.970 . S
Li352 O414 1.961 . S
Li353 N377 1.990 . S
Li353 O412 1.970 . S
Li353 O413 1.956 . S
Li353 O415 1.961 . S
Li354 N399 1.990 . S
Li354 O412 1.961 . S
Li354 O414 1.956 . S
Li354 O415 1.970 . S
Li355 N405 1.990 . S
Li355 O413 1.961 . S
Li355 O414 1.970 . S
Li355 O415 1.956 . S
C356 C358 1.348 . S
C356 C359 1.356 . S
C356 O412 1.325 . S
N357 C360 1.314 . S
N357 C361 1.279 . S
C358 C356 1.348 . S
C358 C360 1.353 . S
C358 H416 0.929 . S
C359 C356 1.356 . S
C359 C361 1.358 . S
C359 H417 0.930 . S
C360 N357 1.314 . S
C360 C358 1.353 . S
C360 H418 0.930 . S
C361 N357 1.279 . S
C361 C359 1.358 . S
C361 H419 0.930 . S
C362 C365 1.348 . S
C362 C366 1.356 . S
C362 O413 1.325 . S
C363 N364 1.279 . S
C363 C366 1.358 . S
C363 H420 0.930 . S
N364 C363 1.279 . S
N364 C367 1.314 . S
C365 C362 1.348 . S
C365 C367 1.353 . S
C365 H421 0.929 . S
C366 C362 1.356 . S
C366 C363 1.358 . S
C366 H422 0.930 . S
C367 N364 1.314 . S
C367 C365 1.353 . S
C367 H423 0.930 . S
C368 N369 1.314 . S
C368 C373 1.353 . S
C368 H374 0.930 . S
N369 Li352 1.990 . S
N369 C368 1.314 . S
N369 C371 1.279 . S
C370 C371 1.358 . S
C370 C372 1.356 . S
C370 H424 0.930 . S
C371 N369 1.279 . S
C371 C370 1.358 . S
C371 H375 0.930 . S
C372 C370 1.356 . S
C372 C373 1.348 . S
C373 C368 1.353 . S
C373 C372 1.348 . S
C373 H425 0.929 . S
H374 C368 0.930 . S
H375 C371 0.930 . S
C376 N377 1.314 . S
C376 C378 1.353 . S
C376 H382 0.930 . S
N377 Li353 1.990 . S
N377 C376 1.314 . S
N377 C380 1.279 . S
C378 C376 1.353 . S
C378 C381 1.348 . S
C378 H426 0.929 . S
C379 C380 1.358 . S
C379 C381 1.356 . S
C379 H427 0.930 . S
C380 N377 1.279 . S
C380 C379 1.358 . S
C380 H383 0.930 . S
C381 C378 1.348 . S
C381 C379 1.356 . S
H382 C376 0.930 . S
H383 C380 0.930 . S
C384 C386 1.348 1_455 S
C384 C387 1.356 . S
C384 O414 1.325 . S
N385 C388 1.314 . S
N385 C389 1.279 . S
C386 C384 1.348 1_655 S
C386 C388 1.353 . S
C386 H428 0.929 . S
C387 C384 1.356 . S
C387 C389 1.358 1_455 S
C387 H429 0.930 . S
C388 N385 1.314 . S
C388 C386 1.353 . S
C388 H430 0.930 . S
C389 N385 1.279 . S
C389 C387 1.358 1_655 S
C389 H431 0.930 . S
C390 C391 1.348 . S
C390 C392 1.356 . S
C390 O415 1.325 . S
C391 C390 1.348 . S
C391 C393 1.353 . S
C391 H432 0.929 . S
C392 C390 1.356 . S
C392 C394 1.358 . S
C392 H433 0.930 . S
C393 C391 1.353 . S
C393 N395 1.314 . S
C393 H434 0.930 . S
C394 C392 1.358 . S
C394 N395 1.279 . S
C394 H435 0.930 . S
N395 C393 1.314 . S
N395 C394 1.279 . S
C396 C398 1.353 . S
C396 N399 1.314 . S
C396 H402 0.930 . S
C397 N399 1.279 . S
C397 C400 1.358 . S
C397 H403 0.930 . S
C398 C396 1.353 . S
C398 C401 1.348 . S
C398 H436 0.929 . S
N399 Li354 1.990 . S
N399 C396 1.314 . S
N399 C397 1.279 . S
C400 C397 1.358 . S
C400 C401 1.356 . S
C400 H437 0.930 . S
C401 C398 1.348 . S
C401 C400 1.356 . S
H402 C396 0.930 . S
H403 C397 0.930 . S
C404 N405 1.314 . S
C404 C406 1.353 1_455 S
C404 H410 0.930 . S
N405 Li355 1.990 . S
N405 C404 1.314 . S
N405 C408 1.279 . S
C406 C404 1.353 1_655 S
C406 C409 1.348 . S
C406 H438 0.929 . S
C407 C408 1.358 1_655 S
C407 C409 1.356 . S
C407 H439 0.930 . S
C408 N405 1.279 . S
C408 C407 1.358 1_455 S
C408 H411 0.930 . S
C409 C406 1.348 . S
C409 C407 1.356 . S
H410 C404 0.930 . S
H411 C408 0.930 . S
O412 Li352 1.956 . S
O412 Li353 1.970 . S
O412 Li354 1.961 . S
O412 C356 1.325 . S
O413 Li352 1.970 . S
O413 Li353 1.956 . S
O413 Li355 1.961 . S
O413 C362 1.325 . S
O414 Li352 1.961 . S
O414 Li354 1.956 . S
O414 Li355 1.970 . S
O414 C384 1.325 . S
O415 Li353 1.961 . S
O415 Li354 1.970 . S
O415 Li355 1.956 . S
O415 C390 1.325 . S
H416 C358 0.929 . S
H417 C359 0.930 . S
H418 C360 0.930 . S
H419 C361 0.930 . S
H420 C363 0.930 . S
H421 C365 0.929 . S
H422 C366 0.930 . S
H423 C367 0.930 . S
H424 C370 0.930 . S
H425 C373 0.929 . S
H426 C378 0.929 . S
H427 C379 0.930 . S
H428 C386 0.929 . S
H429 C387 0.930 . S
H430 C388 0.930 . S
H431 C389 0.930 . S
H432 C391 0.929 . S
H433 C392 0.930 . S
H434 C393 0.930 . S
H435 C394 0.930 . S
H436 C398 0.929 . S
H437 C400 0.930 . S
H438 C406 0.929 . S
H439 C407 0.930 . S
Li440 N457 1.990 . S
Li440 O500 1.956 . S
Li440 O501 1.970 . S
Li440 O502 1.961 . S
Li441 N465 1.990 . S
Li441 O500 1.970 . S
Li441 O501 1.956 . S
Li441 O503 1.961 . S
Li442 N487 1.990 . S
Li442 O500 1.961 . S
Li442 O502 1.956 . S
Li442 O503 1.970 . S
Li443 N493 1.990 . S
Li443 O501 1.961 . S
Li443 O502 1.970 . S
Li443 O503 1.956 . S
C444 C446 1.348 . S
C444 C447 1.356 . S
C444 O500 1.325 . S
N445 C448 1.314 . S
N445 C449 1.279 . S
C446 C444 1.348 . S
C446 C448 1.353 . S
C446 H504 0.929 . S
C447 C444 1.356 . S
C447 C449 1.358 . S
C447 H505 0.930 . S
C448 N445 1.314 . S
C448 C446 1.353 . S
C448 H506 0.930 . S
C449 N445 1.279 . S
C449 C447 1.358 . S
C449 H507 0.930 . S
C450 C453 1.348 . S
C450 C454 1.356 . S
C450 O501 1.325 . S
C451 N452 1.279 . S
C451 C454 1.358 . S
C451 H508 0.930 . S
N452 C451 1.279 . S
N452 C455 1.314 . S
C453 C450 1.348 . S
C453 C455 1.353 . S
C453 H509 0.929 . S
C454 C450 1.356 . S
C454 C451 1.358 . S
C454 H510 0.930 . S
C455 N452 1.314 . S
C455 C453 1.353 . S
C455 H511 0.930 . S
C456 N457 1.314 . S
C456 C461 1.353 . S
C456 H462 0.930 . S
N457 Li440 1.990 . S
N457 C456 1.314 . S
N457 C459 1.279 . S
C458 C459 1.358 . S
C458 C460 1.356 . S
C458 H512 0.930 . S
C459 N457 1.279 . S
C459 C458 1.358 . S
C459 H463 0.930 . S
C460 C458 1.356 . S
C460 C461 1.348 . S
C461 C456 1.353 . S
C461 C460 1.348 . S
C461 H513 0.929 . S
H462 C456 0.930 . S
H463 C459 0.930 . S
C464 N465 1.314 . S
C464 C466 1.353 . S
C464 H470 0.930 . S
N465 Li441 1.990 . S
N465 C464 1.314 . S
N465 C468 1.279 . S
C466 C464 1.353 . S
C466 C469 1.348 . S
C466 H514 0.929 . S
C467 C468 1.358 . S
C467 C469 1.356 . S
C467 H515 0.930 . S
C468 N465 1.279 . S
C468 C467 1.358 . S
C468 H471 0.930 . S
C469 C466 1.348 . S
C469 C467 1.356 . S
H470 C464 0.930 . S
H471 C468 0.930 . S
C472 C474 1.348 . S
C472 C475 1.356 . S
C472 O502 1.325 . S
N473 C476 1.314 . S
N473 C477 1.279 . S
C474 C472 1.348 . S
C474 C476 1.353 . S
C474 H516 0.929 . S
C475 C472 1.356 . S
C475 C477 1.358 . S
C475 H517 0.930 . S
C476 N473 1.314 . S
C476 C474 1.353 . S
C476 H518 0.930 . S
C477 N473 1.279 . S
C477 C475 1.358 . S
C477 H519 0.930 . S
C478 C479 1.348 . S
C478 C480 1.356 . S
C478 O503 1.325 . S
C479 C478 1.348 . S
C479 C481 1.353 . S
C479 H520 0.929 . S
C480 C478 1.356 . S
C480 C482 1.358 . S
C480 H521 0.930 . S
C481 C479 1.353 . S
C481 N483 1.314 . S
C481 H522 0.930 . S
C482 C480 1.358 . S
C482 N483 1.279 . S
C482 H523 0.930 . S
N483 C481 1.314 . S
N483 C482 1.279 . S
C484 C486 1.353 . S
C484 N487 1.314 . S
C484 H490 0.930 . S
C485 N487 1.279 . S
C485 C488 1.358 . S
C485 H491 0.930 . S
C486 C484 1.353 . S
C486 C489 1.348 . S
C486 H524 0.929 . S
N487 Li442 1.990 . S
N487 C484 1.314 . S
N487 C485 1.279 . S
C488 C485 1.358 . S
C488 C489 1.356 . S
C488 H525 0.930 . S
C489 C486 1.348 . S
C489 C488 1.356 . S
H490 C484 0.930 . S
H491 C485 0.930 . S
C492 N493 1.314 . S
C492 C494 1.353 . S
C492 H498 0.930 . S
N493 Li443 1.990 . S
N493 C492 1.314 . S
N493 C496 1.279 . S
C494 C492 1.353 . S
C494 C497 1.348 . S
C494 H526 0.929 . S
C495 C496 1.358 . S
C495 C497 1.356 . S
C495 H527 0.930 . S
C496 N493 1.279 . S
C496 C495 1.358 . S
C496 H499 0.930 . S
C497 C494 1.348 . S
C497 C495 1.356 . S
H498 C492 0.930 . S
H499 C496 0.930 . S
O500 Li440 1.956 . S
O500 Li441 1.970 . S
O500 Li442 1.961 . S
O500 C444 1.325 . S
O501 Li440 1.970 . S
O501 Li441 1.956 . S
O501 Li443 1.961 . S
O501 C450 1.325 . S
O502 Li440 1.961 . S
O502 Li442 1.956 . S
O502 Li443 1.970 . S
O502 C472 1.325 . S
O503 Li441 1.961 . S
O503 Li442 1.970 . S
O503 Li443 1.956 . S
O503 C478 1.325 . S
H504 C446 0.929 . S
H505 C447 0.930 . S
H506 C448 0.930 . S
H507 C449 0.930 . S
H508 C451 0.930 . S
H509 C453 0.929 . S
H510 C454 0.930 . S
H511 C455 0.930 . S
H512 C458 0.930 . S
H513 C461 0.929 . S
H514 C466 0.929 . S
H515 C467 0.930 . S
H516 C474 0.929 . S
H517 C475 0.930 . S
H518 C476 0.930 . S
H519 C477 0.930 . S
H520 C479 0.929 . S
H521 C480 0.930 . S
H522 C481 0.930 . S
H523 C482 0.930 . S
H524 C486 0.929 . S
H525 C488 0.930 . S
H526 C494 0.929 . S
H527 C495 0.930 . S
Li528 N545 1.990 . S
Li528 O588 1.956 . S
Li528 O589 1.970 . S
Li528 O590 1.961 . S
Li529 N553 1.990 . S
Li529 O588 1.970 . S
Li529 O589 1.956 . S
Li529 O591 1.961 . S
Li530 N575 1.990 . S
Li530 O588 1.961 . S
Li530 O590 1.956 . S
Li530 O591 1.970 . S
Li531 N581 1.990 . S
Li531 O589 1.961 . S
Li531 O590 1.970 . S
Li531 O591 1.956 . S
C532 C534 1.348 . S
C532 C535 1.356 . S
C532 O588 1.325 . S
N533 C536 1.314 . S
N533 C537 1.279 . S
C534 C532 1.348 . S
C534 C536 1.353 . S
C534 H592 0.929 . S
C535 C532 1.356 . S
C535 C537 1.358 . S
C535 H593 0.930 . S
C536 N533 1.314 . S
C536 C534 1.353 . S
C536 H594 0.930 . S
C537 N533 1.279 . S
C537 C535 1.358 . S
C537 H595 0.930 . S
C538 C541 1.348 . S
C538 C542 1.356 . S
C538 O589 1.325 . S
C539 N540 1.279 . S
C539 C542 1.358 . S
C539 H596 0.930 . S
N540 C539 1.279 . S
N540 C543 1.314 . S
C541 C538 1.348 . S
C541 C543 1.353 . S
C541 H597 0.929 . S
C542 C538 1.356 . S
C542 C539 1.358 . S
C542 H598 0.930 . S
C543 N540 1.314 . S
C543 C541 1.353 . S
C543 H599 0.930 . S
C544 N545 1.314 . S
C544 C549 1.353 . S
C544 H550 0.930 . S
N545 Li528 1.990 . S
N545 C544 1.314 . S
N545 C547 1.279 . S
C546 C547 1.358 . S
C546 C548 1.356 . S
C546 H600 0.930 . S
C547 N545 1.279 . S
C547 C546 1.358 . S
C547 H551 0.930 . S
C548 C546 1.356 . S
C548 C549 1.348 . S
C549 C544 1.353 . S
C549 C548 1.348 . S
C549 H601 0.929 . S
H550 C544 0.930 . S
H551 C547 0.930 . S
C552 N553 1.314 . S
C552 C554 1.353 . S
C552 H558 0.930 . S
N553 Li529 1.990 . S
N553 C552 1.314 . S
N553 C556 1.279 . S
C554 C552 1.353 . S
C554 C557 1.348 . S
C554 H602 0.929 . S
C555 C556 1.358 . S
C555 C557 1.356 . S
C555 H603 0.930 . S
C556 N553 1.279 . S
C556 C555 1.358 . S
C556 H559 0.930 . S
C557 C554 1.348 . S
C557 C555 1.356 . S
H558 C552 0.930 . S
H559 C556 0.930 . S
C560 C562 1.348 . S
C560 C563 1.356 . S
C560 O590 1.325 . S
N561 C564 1.314 . S
N561 C565 1.279 . S
C562 C560 1.348 . S
C562 C564 1.353 . S
C562 H604 0.929 . S
C563 C560 1.356 . S
C563 C565 1.358 . S
C563 H605 0.930 . S
C564 N561 1.314 . S
C564 C562 1.353 . S
C564 H606 0.930 . S
C565 N561 1.279 . S
C565 C563 1.358 . S
C565 H607 0.930 . S
C566 C567 1.348 . S
C566 C568 1.356 . S
C566 O591 1.325 . S
C567 C566 1.348 . S
C567 C569 1.353 . S
C567 H608 0.929 . S
C568 C566 1.356 . S
C568 C570 1.358 . S
C568 H609 0.930 . S
C569 C567 1.353 . S
C569 N571 1.314 . S
C569 H610 0.930 . S
C570 C568 1.358 . S
C570 N571 1.279 . S
C570 H611 0.930 . S
N571 C569 1.314 . S
N571 C570 1.279 . S
C572 C574 1.353 . S
C572 N575 1.314 . S
C572 H578 0.930 . S
C573 N575 1.279 . S
C573 C576 1.358 . S
C573 H579 0.930 . S
C574 C572 1.353 . S
C574 C577 1.348 . S
C574 H612 0.929 . S
N575 Li530 1.990 . S
N575 C572 1.314 . S
N575 C573 1.279 . S
C576 C573 1.358 . S
C576 C577 1.356 . S
C576 H613 0.930 . S
C577 C574 1.348 . S
C577 C576 1.356 . S
H578 C572 0.930 . S
H579 C573 0.930 . S
C580 N581 1.314 . S
C580 C582 1.353 . S
C580 H586 0.930 . S
N581 Li531 1.990 . S
N581 C580 1.314 . S
N581 C584 1.279 . S
C582 C580 1.353 . S
C582 C585 1.348 . S
C582 H614 0.929 . S
C583 C584 1.358 . S
C583 C585 1.356 . S
C583 H615 0.930 . S
C584 N581 1.279 . S
C584 C583 1.358 . S
C584 H587 0.930 . S
C585 C582 1.348 . S
C585 C583 1.356 . S
H586 C580 0.930 . S
H587 C584 0.930 . S
O588 Li528 1.956 . S
O588 Li529 1.970 . S
O588 Li530 1.961 . S
O588 C532 1.325 . S
O589 Li528 1.970 . S
O589 Li529 1.956 . S
O589 Li531 1.961 . S
O589 C538 1.325 . S
O590 Li528 1.961 . S
O590 Li530 1.956 . S
O590 Li531 1.970 . S
O590 C560 1.325 . S
O591 Li529 1.961 . S
O591 Li530 1.970 . S
O591 Li531 1.956 . S
O591 C566 1.325 . S
H592 C534 0.929 . S
H593 C535 0.930 . S
H594 C536 0.930 . S
H595 C537 0.930 . S
H596 C539 0.930 . S
H597 C541 0.929 . S
H598 C542 0.930 . S
H599 C543 0.930 . S
H600 C546 0.930 . S
H601 C549 0.929 . S
H602 C554 0.929 . S
H603 C555 0.930 . S
H604 C562 0.929 . S
H605 C563 0.930 . S
H606 C564 0.930 . S
H607 C565 0.930 . S
H608 C567 0.929 . S
H609 C568 0.930 . S
H610 C569 0.930 . S
H611 C570 0.930 . S
H612 C574 0.929 . S
H613 C576 0.930 . S
H614 C582 0.929 . S
H615 C583 0.930 . S
Li616 N633 1.990 . S
Li616 O676 1.956 1_455 S
Li616 O677 1.970 . S
Li616 O678 1.961 . S
Li617 N641 1.990 . S
Li617 O676 1.970 . S
Li617 O677 1.956 1_655 S
Li617 O679 1.961 . S
Li618 N663 1.992 1_455 S
Li618 O676 1.966 1_455 S
Li618 O678 1.952 . S
Li618 O679 1.970 1_455 S
Li619 N669 1.990 . S
Li619 O677 1.961 . S
Li619 O678 1.970 . S
Li619 O679 1.956 1_455 S
C620 C622 1.348 . S
C620 C623 1.356 . S
C620 O676 1.325 . S
N621 C624 1.314 . S
N621 C625 1.279 . S
C622 C620 1.348 . S
C622 C624 1.353 . S
C622 H680 0.929 . S
C623 C620 1.356 . S
C623 C625 1.358 . S
C623 H681 0.930 . S
C624 N621 1.314 . S
C624 C622 1.353 . S
C624 H682 0.930 . S
C625 N621 1.279 . S
C625 C623 1.358 . S
C625 H683 0.930 1_556 S
C626 C629 1.348 1_455 S
C626 C630 1.356 . S
C626 O677 1.325 . S
C627 N628 1.279 . S
C627 C630 1.358 . S
C627 H684 0.930 . S
N628 C627 1.279 . S
N628 C631 1.302 1_455 S
C629 C626 1.348 1_655 S
C629 C631 1.351 . S
C629 H685 0.929 . S
C630 C626 1.356 . S
C630 C627 1.358 . S
C630 H686 0.930 . S
C631 N628 1.302 1_655 S
C631 C629 1.351 . S
C631 H687 0.948 . S
C632 N633 1.314 . S
C632 C637 1.353 . S
C632 H638 0.930 . S
N633 Li616 1.990 . S
N633 C632 1.314 . S
N633 C635 1.279 1_455 S
C634 C635 1.358 . S
C634 C636 1.356 1_655 S
C634 H688 0.930 . S
C635 N633 1.279 1_655 S
C635 C634 1.358 . S
C635 H639 0.930 . S
C636 C634 1.356 1_455 S
C636 C637 1.348 . S
C637 C632 1.353 . S
C637 C636 1.348 . S
C637 H689 0.929 . S
H638 C632 0.930 . S
H639 C635 0.930 . S
C640 N641 1.314 . S
C640 C642 1.353 . S
C640 H646 0.930 . S
N641 Li617 1.990 . S
N641 C640 1.314 . S
N641 C644 1.279 . S
C642 C640 1.353 . S
C642 C645 1.348 . S
C642 H690 0.929 . S
C643 C644 1.358 . S
C643 C645 1.356 . S
C643 H691 0.930 . S
C644 N641 1.279 . S
C644 C643 1.358 . S
C644 H647 0.930 . S
C645 C642 1.348 . S
C645 C643 1.356 . S
H646 C640 0.930 . S
H647 C644 0.930 . S
C648 C650 1.348 . S
C648 C651 1.356 . S
C648 O678 1.325 . S
N649 C652 1.314 . S
N649 C653 1.279 . S
C650 C648 1.348 . S
C650 C652 1.353 . S
C650 H692 0.929 . S
C651 C648 1.356 . S
C651 C653 1.358 . S
C651 H693 0.930 . S
C652 N649 1.314 . S
C652 C650 1.353 . S
C652 H694 0.930 . S
C653 N649 1.279 . S
C653 C651 1.358 . S
C653 H695 0.930 1_556 S
C654 C655 1.348 . S
C654 C656 1.356 . S
C654 O679 1.325 . S
C655 C654 1.348 . S
C655 C657 1.353 . S
C655 H696 0.929 1_655 S
C656 C654 1.356 . S
C656 C658 1.358 . S
C656 H697 0.930 . S
C657 C655 1.353 . S
C657 N659 1.314 . S
C657 H698 0.930 . S
C658 C656 1.358 . S
C658 N659 1.279 . S
C658 H699 0.930 . S
N659 C657 1.314 . S
N659 C658 1.279 . S
C660 C662 1.353 . S
C660 N663 1.339 . S
C660 H666 0.930 . S
C661 N663 1.254 1_455 S
C661 C664 1.358 . S
C661 H667 0.930 . S
C662 C660 1.353 . S
C662 C665 1.348 . S
C662 H700 0.929 . S
N663 Li618 1.992 1_655 S
N663 C660 1.339 . S
N663 C661 1.254 1_655 S
C664 C661 1.358 . S
C664 C665 1.356 1_455 S
C664 H701 0.930 . S
C665 C662 1.348 . S
C665 C664 1.356 1_655 S
H666 C660 0.930 . S
H667 C661 0.930 . S
C668 N669 1.314 . S
C668 C670 1.353 . S
C668 H674 0.930 . S
N669 Li619 1.990 . S
N669 C668 1.314 . S
N669 C672 1.279 . S
C670 C668 1.353 . S
C670 C673 1.348 . S
C670 H702 0.929 . S
C671 C672 1.358 . S
C671 C673 1.356 . S
C671 H703 0.930 . S
C672 N669 1.279 . S
C672 C671 1.358 . S
C672 H675 0.930 . S
C673 C670 1.348 . S
C673 C671 1.356 . S
H674 C668 0.930 . S
H675 C672 0.930 . S
O676 Li616 1.956 1_655 S
O676 Li617 1.970 . S
O676 Li618 1.966 1_655 S
O676 C620 1.325 . S
O677 Li616 1.970 . S
O677 Li617 1.956 1_455 S
O677 Li619 1.961 . S
O677 C626 1.325 . S
O678 Li616 1.961 . S
O678 Li618 1.952 . S
O678 Li619 1.970 . S
O678 C648 1.325 . S
O679 Li617 1.961 . S
O679 Li618 1.970 1_655 S
O679 Li619 1.956 1_655 S
O679 C654 1.325 . S
H680 C622 0.929 . S
H681 C623 0.930 . S
H682 C624 0.930 . S
H683 C625 0.930 1_554 S
H684 C627 0.930 . S
H685 C629 0.929 . S
H686 C630 0.930 . S
H687 C631 0.948 . S
H688 C634 0.930 . S
H689 C637 0.929 . S
H690 C642 0.929 . S
H691 C643 0.930 . S
H692 C650 0.929 . S
H693 C651 0.930 . S
H694 C652 0.930 . S
H695 C653 0.930 1_554 S
H696 C655 0.929 1_455 S
H697 C656 0.930 . S
H698 C657 0.930 . S
H699 C658 0.930 . S
H700 C662 0.929 . S
H701 C664 0.930 . S
H702 C670 0.929 . S
H703 C671 0.930 . S
Li704 N721 1.990 . S
Li704 O764 1.956 1_545 S
Li704 O765 1.970 . S
Li704 O766 1.961 . S
Li705 N729 1.990 . S
Li705 O764 1.970 . S
Li705 O765 1.956 1_565 S
Li705 O767 1.961 1_565 S
Li706 N751 1.990 . S
Li706 O764 1.961 1_545 S
Li706 O766 1.956 . S
Li706 O767 1.970 . S
Li707 N757 1.990 . S
Li707 O765 1.961 . S
Li707 O766 1.970 . S
Li707 O767 1.956 . S
C708 C710 1.348 . S
C708 C711 1.356 . S
C708 O764 1.325 . S
N709 C712 1.314 . S
N709 C713 1.279 . S
C710 C708 1.348 . S
C710 C712 1.353 . S
C710 H768 0.929 . S
C711 C708 1.356 . S
C711 C713 1.358 . S
C711 H769 0.930 . S
C712 N709 1.314 . S
C712 C710 1.353 . S
C712 H770 0.930 . S
C713 N709 1.279 . S
C713 C711 1.358 . S
C713 H771 0.930 . S
C714 C717 1.348 . S
C714 C718 1.356 . S
C714 O765 1.325 . S
C715 N716 1.279 . S
C715 C718 1.358 . S
C715 H772 0.930 . S
N716 C715 1.279 . S
N716 C719 1.321 . S
C717 C714 1.348 . S
C717 C719 1.353 . S
C717 H773 0.909 1_545 S
C718 C714 1.356 . S
C718 C715 1.358 . S
C718 H774 0.930 . S
C719 N716 1.321 . S
C719 C717 1.353 . S
C719 H775 0.923 1_545 S
C720 N721 1.314 . S
C720 C725 1.353 . S
C720 H726 0.930 . S
N721 Li704 1.990 . S
N721 C720 1.314 . S
N721 C723 1.279 1_545 S
C722 C723 1.363 1_545 S
C722 C724 1.383 . S
C722 H776 0.899 1_545 S
C723 N721 1.279 1_565 S
C723 C722 1.363 1_565 S
C723 H727 0.930 . S
C724 C722 1.383 . S
C724 C725 1.348 . S
C725 C720 1.353 . S
C725 C724 1.348 . S
C725 H777 0.929 . S
H726 C720 0.930 . S
H727 C723 0.930 . S
C728 N729 1.314 . S
C728 C730 1.353 . S
C728 H734 0.930 . S
N729 Li705 1.990 . S
N729 C728 1.314 . S
N729 C732 1.279 . S
C730 C728 1.353 . S
C730 C733 1.348 . S
C730 H778 0.929 . S
C731 C732 1.358 . S
C731 C733 1.356 . S
C731 H779 0.930 . S
C732 N729 1.279 . S
C732 C731 1.358 . S
C732 H735 0.930 . S
C733 C730 1.348 . S
C733 C731 1.356 . S
H734 C728 0.930 . S
H735 C732 0.930 . S
C736 C738 1.348 . S
C736 C739 1.356 . S
C736 O766 1.325 . S
N737 C740 1.314 . S
N737 C741 1.279 . S
C738 C736 1.348 . S
C738 C740 1.353 . S
C738 H780 0.929 . S
C739 C736 1.356 . S
C739 C741 1.358 . S
C739 H781 0.930 . S
C740 N737 1.314 . S
C740 C738 1.353 . S
C740 H782 0.930 . S
C741 N737 1.279 . S
C741 C739 1.358 . S
C741 H783 0.930 . S
C742 C743 1.356 . S
C742 C744 1.354 1_545 S
C742 O767 1.322 . S
C743 C742 1.356 . S
C743 C745 1.353 . S
C743 H784 0.929 . S
C744 C742 1.354 1_565 S
C744 C746 1.358 . S
C744 H785 0.930 . S
C745 C743 1.353 . S
C745 N747 1.314 1_545 S
C745 H786 0.930 . S
C746 C744 1.358 . S
C746 N747 1.279 . S
C746 H787 0.930 . S
N747 C745 1.314 1_565 S
N747 C746 1.279 . S
C748 C750 1.353 . S
C748 N751 1.314 1_565 S
C748 H754 0.930 . S
C749 N751 1.279 . S
C749 C752 1.358 . S
C749 H755 0.930 . S
C750 C748 1.353 . S
C750 C753 1.348 1_565 S
C750 H788 0.929 . S
N751 Li706 1.990 . S
N751 C748 1.314 1_545 S
N751 C749 1.279 . S
C752 C749 1.358 . S
C752 C753 1.356 . S
C752 H789 0.930 . S
C753 C750 1.348 1_545 S
C753 C752 1.356 . S
H754 C748 0.930 . S
H755 C749 0.930 . S
C756 N757 1.314 . S
C756 C758 1.353 . S
C756 H762 0.930 . S
N757 Li707 1.990 . S
N757 C756 1.314 . S
N757 C760 1.279 . S
C758 C756 1.353 . S
C758 C761 1.348 . S
C758 H790 0.929 . S
C759 C760 1.358 . S
C759 C761 1.356 . S
C759 H791 0.930 . S
C760 N757 1.279 . S
C760 C759 1.358 . S
C760 H763 0.930 . S
C761 C758 1.348 . S
C761 C759 1.356 . S
H762 C756 0.930 . S
H763 C760 0.930 . S
O764 Li704 1.956 1_565 S
O764 Li705 1.970 . S
O764 Li706 1.961 1_565 S
O764 C708 1.325 . S
O765 Li704 1.970 . S
O765 Li705 1.956 1_545 S
O765 Li707 1.961 . S
O765 C714 1.325 . S
O766 Li704 1.961 . S
O766 Li706 1.956 . S
O766 Li707 1.970 . S
O766 C736 1.325 . S
O767 Li705 1.961 1_545 S
O767 Li706 1.970 . S
O767 Li707 1.956 . S
O767 C742 1.322 . S
H768 C710 0.929 . S
H769 C711 0.930 . S
H770 C712 0.930 . S
H771 C713 0.930 . S
H772 C715 0.930 . S
H773 C717 0.909 1_565 S
H774 C718 0.930 . S
H775 C719 0.923 1_565 S
H776 C722 0.899 1_565 S
H777 C725 0.929 . S
H778 C730 0.929 . S
H779 C731 0.930 . S
H780 C738 0.929 . S
H781 C739 0.930 . S
H782 C740 0.930 . S
H783 C741 0.930 . S
H784 C743 0.929 . S
H785 C744 0.930 . S
H786 C745 0.930 . S
H787 C746 0.930 . S
H788 C750 0.929 . S
H789 C752 0.930 . S
H790 C758 0.929 . S
H791 C759 0.930 . S
Li792 N809 1.990 . S
Li792 O852 1.956 . S
Li792 O853 1.970 . S
Li792 O854 1.961 . S
Li793 N817 1.990 . S
Li793 O852 1.970 . S
Li793 O853 1.956 . S
Li793 O855 1.961 . S
Li794 N839 1.990 . S
Li794 O852 1.961 . S
Li794 O854 1.956 . S
Li794 O855 1.970 . S
Li795 N845 1.990 . S
Li795 O853 1.961 . S
Li795 O854 1.970 . S
Li795 O855 1.956 . S
C796 C798 1.348 . S
C796 C799 1.356 . S
C796 O852 1.325 . S
N797 C800 1.314 . S
N797 C801 1.279 . S
C798 C796 1.348 . S
C798 C800 1.353 . S
C798 H856 0.929 . S
C799 C796 1.356 . S
C799 C801 1.358 . S
C799 H857 0.930 . S
C800 N797 1.314 . S
C800 C798 1.353 . S
C800 H858 0.930 . S
C801 N797 1.279 . S
C801 C799 1.358 . S
C801 H859 0.930 . S
C802 C805 1.348 . S
C802 C806 1.356 . S
C802 O853 1.325 . S
C803 N804 1.279 . S
C803 C806 1.358 . S
C803 H860 0.930 . S
N804 C803 1.279 . S
N804 C807 1.314 . S
C805 C802 1.348 . S
C805 C807 1.353 . S
C805 H861 0.929 . S
C806 C802 1.356 . S
C806 C803 1.358 . S
C806 H862 0.930 . S
C807 N804 1.314 . S
C807 C805 1.353 . S
C807 H863 0.930 . S
C808 N809 1.314 . S
C808 C813 1.353 . S
C808 H814 0.930 . S
N809 Li792 1.990 . S
N809 C808 1.314 . S
N809 C811 1.279 . S
C810 C811 1.358 . S
C810 C812 1.356 . S
C810 H864 0.930 . S
C811 N809 1.279 . S
C811 C810 1.358 . S
C811 H815 0.930 . S
C812 C810 1.356 . S
C812 C813 1.348 . S
C813 C808 1.353 . S
C813 C812 1.348 . S
C813 H865 0.929 . S
H814 C808 0.930 . S
H815 C811 0.930 . S
C816 N817 1.314 . S
C816 C818 1.353 . S
C816 H822 0.930 . S
N817 Li793 1.990 . S
N817 C816 1.314 . S
N817 C820 1.279 . S
C818 C816 1.353 . S
C818 C821 1.348 . S
C818 H866 0.929 . S
C819 C820 1.358 . S
C819 C821 1.356 . S
C819 H867 0.930 . S
C820 N817 1.279 . S
C820 C819 1.358 . S
C820 H823 0.930 . S
C821 C818 1.348 . S
C821 C819 1.356 . S
H822 C816 0.930 . S
H823 C820 0.930 . S
C824 C826 1.348 . S
C824 C827 1.356 . S
C824 O854 1.325 . S
N825 C828 1.314 . S
N825 C829 1.279 . S
C826 C824 1.348 . S
C826 C828 1.353 . S
C826 H868 0.929 . S
C827 C824 1.356 . S
C827 C829 1.358 . S
C827 H869 0.930 . S
C828 N825 1.314 . S
C828 C826 1.353 . S
C828 H870 0.930 . S
C829 N825 1.279 . S
C829 C827 1.358 . S
C829 H871 0.930 . S
C830 C831 1.348 . S
C830 C832 1.356 . S
C830 O855 1.325 . S
C831 C830 1.348 . S
C831 C833 1.353 . S
C831 H872 0.929 . S
C832 C830 1.356 . S
C832 C834 1.358 . S
C832 H873 0.930 . S
C833 C831 1.353 . S
C833 N835 1.314 . S
C833 H874 0.930 . S
C834 C832 1.358 . S
C834 N835 1.279 . S
C834 H875 0.930 . S
N835 C833 1.314 . S
N835 C834 1.279 . S
C836 C838 1.353 . S
C836 N839 1.314 . S
C836 H842 0.930 . S
C837 N839 1.279 . S
C837 C840 1.358 . S
C837 H843 0.930 . S
C838 C836 1.353 . S
C838 C841 1.348 . S
C838 H876 0.929 . S
N839 Li794 1.990 . S
N839 C836 1.314 . S
N839 C837 1.279 . S
C840 C837 1.358 . S
C840 C841 1.356 . S
C840 H877 0.930 . S
C841 C838 1.348 . S
C841 C840 1.356 . S
H842 C836 0.930 . S
H843 C837 0.930 . S
C844 N845 1.314 . S
C844 C846 1.353 . S
C844 H850 0.930 . S
N845 Li795 1.990 . S
N845 C844 1.314 . S
N845 C848 1.279 . S
C846 C844 1.353 . S
C846 C849 1.348 . S
C846 H878 0.929 . S
C847 C848 1.358 . S
C847 C849 1.356 . S
C847 H879 0.930 . S
C848 N845 1.279 . S
C848 C847 1.358 . S
C848 H851 0.930 . S
C849 C846 1.348 . S
C849 C847 1.356 . S
H850 C844 0.930 . S
H851 C848 0.930 . S
O852 Li792 1.956 . S
O852 Li793 1.970 . S
O852 Li794 1.961 . S
O852 C796 1.325 . S
O853 Li792 1.970 . S
O853 Li793 1.956 . S
O853 Li795 1.961 . S
O853 C802 1.325 . S
O854 Li792 1.961 . S
O854 Li794 1.956 . S
O854 Li795 1.970 . S
O854 C824 1.325 . S
O855 Li793 1.961 . S
O855 Li794 1.970 . S
O855 Li795 1.956 . S
O855 C830 1.325 . S
H856 C798 0.929 . S
H857 C799 0.930 . S
H858 C800 0.930 . S
H859 C801 0.930 . S
H860 C803 0.930 . S
H861 C805 0.929 . S
H862 C806 0.930 . S
H863 C807 0.930 . S
H864 C810 0.930 . S
H865 C813 0.929 . S
H866 C818 0.929 . S
H867 C819 0.930 . S
H868 C826 0.929 . S
H869 C827 0.930 . S
H870 C828 0.930 . S
H871 C829 0.930 . S
H872 C831 0.929 . S
H873 C832 0.930 . S
H874 C833 0.930 . S
H875 C834 0.930 . S
H876 C838 0.929 . S
H877 C840 0.930 . S
H878 C846 0.929 . S
H879 C847 0.930 . S
Li880 N897 1.990 . S
Li880 O940 1.956 . S
Li880 O941 1.970 . S
Li880 O942 1.961 . S
Li881 N905 1.990 . S
Li881 O940 1.970 . S
Li881 O941 1.956 . S
Li881 O943 1.961 . S
Li882 N927 1.990 1_545 S
Li882 O940 1.961 . S
Li882 O942 1.956 . S
Li882 O943 1.970 . S
Li883 N933 1.990 . S
Li883 O941 1.961 . S
Li883 O942 1.970 . S
Li883 O943 1.956 . S
C884 C886 1.348 . S
C884 C887 1.356 . S
C884 O940 1.325 . S
N885 C888 1.314 . S
N885 C889 1.279 . S
C886 C884 1.348 . S
C886 C888 1.353 . S
C886 H944 0.929 . S
C887 C884 1.356 . S
C887 C889 1.358 . S
C887 H945 0.930 . S
C888 N885 1.314 . S
C888 C886 1.353 . S
C888 H946 0.930 . S
C889 N885 1.279 . S
C889 C887 1.358 . S
C889 H947 0.930 . S
C890 C893 1.348 . S
C890 C894 1.356 . S
C890 O941 1.325 . S
C891 N892 1.279 . S
C891 C894 1.358 . S
C891 H948 0.930 . S
N892 C891 1.279 . S
N892 C895 1.314 . S
C893 C890 1.348 . S
C893 C895 1.353 . S
C893 H949 0.929 . S
C894 C890 1.356 . S
C894 C891 1.358 . S
C894 H950 0.930 . S
C895 N892 1.314 . S
C895 C893 1.353 . S
C895 H951 0.930 . S
C896 N897 1.314 . S
C896 C901 1.353 . S
C896 H902 0.930 . S
N897 Li880 1.990 . S
N897 C896 1.314 . S
N897 C899 1.279 . S
C898 C899 1.358 . S
C898 C900 1.356 . S
C898 H952 0.930 . S
C899 N897 1.279 . S
C899 C898 1.358 . S
C899 H903 0.930 . S
C900 C898 1.356 . S
C900 C901 1.348 . S
C901 C896 1.353 . S
C901 C900 1.348 . S
C901 H953 0.929 . S
H902 C896 0.930 . S
H903 C899 0.930 . S
C904 N905 1.314 . S
C904 C906 1.353 . S
C904 H910 0.930 . S
N905 Li881 1.990 . S
N905 C904 1.314 . S
N905 C908 1.279 . S
C906 C904 1.353 . S
C906 C909 1.348 . S
C906 H954 0.929 . S
C907 C908 1.358 . S
C907 C909 1.356 . S
C907 H955 0.930 . S
C908 N905 1.279 . S
C908 C907 1.358 . S
C908 H911 0.930 . S
C909 C906 1.348 . S
C909 C907 1.356 . S
H910 C904 0.930 . S
H911 C908 0.930 . S
C912 C914 1.348 . S
C912 C915 1.356 . S
C912 O942 1.325 . S
N913 C916 1.314 . S
N913 C917 1.279 . S
C914 C912 1.348 . S
C914 C916 1.353 . S
C914 H956 0.929 . S
C915 C912 1.356 . S
C915 C917 1.358 . S
C915 H957 0.930 . S
C916 N913 1.314 . S
C916 C914 1.353 . S
C916 H958 0.930 . S
C917 N913 1.279 . S
C917 C915 1.358 . S
C917 H959 0.930 . S
C918 C919 1.348 . S
C918 C920 1.356 . S
C918 O943 1.325 1_565 S
C919 C918 1.348 . S
C919 C921 1.353 . S
C919 H960 0.929 . S
C920 C918 1.356 . S
C920 C922 1.358 . S
C920 H961 0.930 1_565 S
C921 C919 1.353 . S
C921 N923 1.314 . S
C921 H962 0.930 . S
C922 C920 1.358 . S
C922 N923 1.279 . S
C922 H963 0.930 . S
N923 C921 1.314 . S
N923 C922 1.279 . S
C924 C926 1.353 . S
C924 N927 1.314 . S
C924 H930 0.930 . S
C925 N927 1.279 . S
C925 C928 1.358 . S
C925 H931 0.930 . S
C926 C924 1.353 . S
C926 C929 1.348 . S
C926 H964 0.929 . S
N927 Li882 1.990 1_565 S
N927 C924 1.314 . S
N927 C925 1.279 . S
C928 C925 1.358 . S
C928 C929 1.356 . S
C928 H965 0.930 . S
C929 C926 1.348 . S
C929 C928 1.356 . S
H930 C924 0.930 . S
H931 C925 0.930 . S
C932 N933 1.314 . S
C932 C934 1.353 . S
C932 H938 0.930 . S
N933 Li883 1.990 . S
N933 C932 1.314 . S
N933 C936 1.279 . S
C934 C932 1.353 . S
C934 C937 1.348 . S
C934 H966 0.929 . S
C935 C936 1.358 . S
C935 C937 1.356 . S
C935 H967 0.930 1_545 S
C936 N933 1.279 . S
C936 C935 1.358 . S
C936 H939 0.894 1_545 S
C937 C934 1.348 . S
C937 C935 1.356 . S
H938 C932 0.930 . S
H939 C936 0.894 1_565 S
O940 Li880 1.956 . S
O940 Li881 1.970 . S
O940 Li882 1.961 . S
O940 C884 1.325 . S
O941 Li880 1.970 . S
O941 Li881 1.956 . S
O941 Li883 1.961 . S
O941 C890 1.325 . S
O942 Li880 1.961 . S
O942 Li882 1.956 . S
O942 Li883 1.970 . S
O942 C912 1.325 . S
O943 Li881 1.961 . S
O943 Li882 1.970 . S
O943 Li883 1.956 . S
O943 C918 1.325 1_545 S
H944 C886 0.929 . S
H945 C887 0.930 . S
H946 C888 0.930 . S
H947 C889 0.930 . S
H948 C891 0.930 . S
H949 C893 0.929 . S
H950 C894 0.930 . S
H951 C895 0.930 . S
H952 C898 0.930 . S
H953 C901 0.929 . S
H954 C906 0.929 . S
H955 C907 0.930 . S
H956 C914 0.929 . S
H957 C915 0.930 . S
H958 C916 0.930 . S
H959 C917 0.930 . S
H960 C919 0.929 . S
H961 C920 0.930 1_545 S
H962 C921 0.930 . S
H963 C922 0.930 . S
H964 C926 0.929 . S
H965 C928 0.930 . S
H966 C934 0.929 . S
H967 C935 0.930 1_565 S
Li968 N985 1.990 . S
Li968 O1028 1.979 . S
Li968 O1029 1.971 1_554 S
Li968 O1030 1.934 1_554 S
Li969 N993 1.990 . S
Li969 O1028 1.970 . S
Li969 O1029 1.956 1_554 S
Li969 O1031 1.996 . S
Li970 N1015 1.990 . S
Li970 O1028 1.961 . S
Li970 O1030 1.956 1_554 S
Li970 O1031 1.967 . S
Li971 N1021 1.990 . S
Li971 O1029 1.961 . S
Li971 O1030 1.970 . S
Li971 O1031 1.923 1_556 S
C972 C974 1.348 . S
C972 C975 1.356 . S
C972 O1028 1.325 . S
N973 C976 1.314 . S
N973 C977 1.279 . S
C974 C972 1.348 . S
C974 C976 1.353 . S
C974 H1032 0.929 . S
C975 C972 1.356 . S
C975 C977 1.358 . S
C975 H1033 0.930 . S
C976 N973 1.314 . S
C976 C974 1.353 . S
C976 H1034 0.930 . S
C977 N973 1.279 . S
C977 C975 1.358 . S
C977 H1035 0.930 . S
C978 C981 1.348 1_556 S
C978 C982 1.356 . S
C978 O1029 1.325 . S
C979 N980 1.279 . S
C979 C982 1.358 . S
C979 H1036 0.930 . S
N980 C979 1.279 . S
N980 C983 1.323 . S
C981 C978 1.348 1_554 S
C981 C983 1.357 1_554 S
C981 H1037 0.929 . S
C982 C978 1.356 . S
C982 C979 1.358 . S
C982 H1038 0.930 . S
C983 N980 1.323 . S
C983 C981 1.357 1_556 S
C983 H1039 0.918 1_556 S
C984 N985 1.272 1_556 S
C984 C989 1.353 . S
C984 H990 0.930 . S
N985 Li968 1.990 . S
N985 C984 1.272 1_554 S
N985 C987 1.323 . S
C986 C987 1.358 . S
C986 C988 1.343 1_554 S
C986 H1040 0.930 . S
C987 N985 1.323 . S
C987 C986 1.358 . S
C987 H991 0.930 . S
C988 C986 1.343 1_556 S
C988 C989 1.361 . S
C989 C984 1.353 . S
C989 C988 1.361 . S
C989 H1041 0.929 . S
H990 C984 0.930 . S
H991 C987 0.930 . S
C992 N993 1.314 . S
C992 C994 1.353 . S
C992 H998 0.930 . S
N993 Li969 1.990 . S
N993 C992 1.314 . S
N993 C996 1.279 . S
C994 C992 1.353 . S
C994 C997 1.348 . S
C994 H1042 0.929 . S
C995 C996 1.358 . S
C995 C997 1.356 . S
C995 H1043 0.930 . S
C996 N993 1.279 . S
C996 C995 1.358 . S
C996 H999 0.930 . S
C997 C994 1.348 . S
C997 C995 1.356 . S
H998 C992 0.930 . S
H999 C996 0.930 . S
C1000 C1002 1.348 . S
C1000 C1003 1.356 . S
C1000 O1030 1.325 . S
N1001 C1004 1.314 . S
N1001 C1005 1.279 . S
C1002 C1000 1.348 . S
C1002 C1004 1.353 . S
C1002 H1044 0.929 . S
C1003 C1000 1.356 . S
C1003 C1005 1.358 . S
C1003 H1045 0.930 . S
C1004 N1001 1.314 . S
C1004 C1002 1.353 . S
C1004 H1046 0.930 . S
C1005 N1001 1.279 . S
C1005 C1003 1.358 . S
C1005 H1047 0.930 . S
C1006 C1007 1.341 1_554 S
C1006 C1008 1.361 . S
C1006 O1031 1.324 . S
C1007 C1006 1.341 1_556 S
C1007 C1009 1.353 . S
C1007 H1048 0.929 . S
C1008 C1006 1.361 . S
C1008 C1010 1.358 . S
C1008 H1049 0.930 . S
C1009 C1007 1.353 . S
C1009 N1011 1.314 . S
C1009 H1050 0.930 . S
C1010 C1008 1.358 . S
C1010 N1011 1.279 1_554 S
C1010 H1051 0.930 . S
N1011 C1009 1.314 . S
N1011 C1010 1.279 1_556 S
C1012 C1014 1.353 . S
C1012 N1015 1.314 . S
C1012 H1018 0.930 . S
C1013 N1015 1.279 1_556 S
C1013 C1016 1.358 . S
C1013 H1019 0.930 . S
C1014 C1012 1.353 . S
C1014 C1017 1.348 . S
C1014 H1052 0.929 . S
N1015 Li970 1.990 . S
N1015 C1012 1.314 . S
N1015 C1013 1.279 1_554 S
C1016 C1013 1.358 . S
C1016 C1017 1.356 1_556 S
C1016 H1053 0.930 . S
C1017 C1014 1.348 . S
C1017 C1016 1.356 1_554 S
H1018 C1012 0.930 . S
H1019 C1013 0.930 . S
C1020 N1021 1.314 . S
C1020 C1022 1.353 . S
C1020 H1026 0.930 . S
N1021 Li971 1.990 . S
N1021 C1020 1.314 . S
N1021 C1024 1.279 . S
C1022 C1020 1.353 . S
C1022 C1025 1.348 . S
C1022 H1054 0.929 . S
C1023 C1024 1.358 . S
C1023 C1025 1.356 . S
C1023 H1055 0.930 . S
C1024 N1021 1.279 . S
C1024 C1023 1.358 . S
C1024 H1027 0.930 . S
C1025 C1022 1.348 . S
C1025 C1023 1.356 . S
H1026 C1020 0.930 . S
H1027 C1024 0.930 . S
O1028 Li968 1.979 . S
O1028 Li969 1.970 . S
O1028 Li970 1.961 . S
O1028 C972 1.325 . S
O1029 Li968 1.971 1_556 S
O1029 Li969 1.956 1_556 S
O1029 Li971 1.961 . S
O1029 C978 1.325 . S
O1030 Li968 1.934 1_556 S
O1030 Li970 1.956 1_556 S
O1030 Li971 1.970 . S
O1030 C1000 1.325 . S
O1031 Li969 1.996 . S
O1031 Li970 1.967 . S
O1031 Li971 1.923 1_554 S
O1031 C1006 1.324 . S
H1032 C974 0.929 . S
H1033 C975 0.930 . S
H1034 C976 0.930 . S
H1035 C977 0.930 . S
H1036 C979 0.930 . S
H1037 C981 0.929 . S
H1038 C982 0.930 . S
H1039 C983 0.918 1_554 S
H1040 C986 0.930 . S
H1041 C989 0.929 . S
H1042 C994 0.929 . S
H1043 C995 0.930 . S
H1044 C1002 0.929 . S
H1045 C1003 0.930 . S
H1046 C1004 0.930 . S
H1047 C1005 0.930 . S
H1048 C1007 0.929 . S
H1049 C1008 0.930 . S
H1050 C1009 0.930 . S
H1051 C1010 0.930 . S
H1052 C1014 0.929 . S
H1053 C1016 0.930 . S
H1054 C1022 0.929 . S
H1055 C1023 0.930 . S
Li1056 N1073 1.990 . S
Li1056 O1116 1.956 . S
Li1056 O1117 1.970 . S
Li1056 O1118 1.961 . S
Li1057 N1081 1.990 . S
Li1057 O1116 1.970 . S
Li1057 O1117 1.956 . S
Li1057 O1119 1.961 . S
Li1058 N1103 1.990 . S
Li1058 O1116 1.961 . S
Li1058 O1118 1.956 . S
Li1058 O1119 1.970 . S
Li1059 N1109 1.990 1_554 S
Li1059 O1117 1.961 . S
Li1059 O1118 1.970 . S
Li1059 O1119 1.956 . S
C1060 C1062 1.348 . S
C1060 C1063 1.356 . S
C1060 O1116 1.325 . S
N1061 C1064 1.314 . S
N1061 C1065 1.279 . S
C1062 C1060 1.348 . S
C1062 C1064 1.353 . S
C1062 H1120 0.929 . S
C1063 C1060 1.356 . S
C1063 C1065 1.358 . S
C1063 H1121 0.930 . S
C1064 N1061 1.314 . S
C1064 C1062 1.353 . S
C1064 H1122 0.930 . S
C1065 N1061 1.279 . S
C1065 C1063 1.358 . S
C1065 H1123 0.930 . S
C1066 C1069 1.348 . S
C1066 C1070 1.356 . S
C1066 O1117 1.325 . S
C1067 N1068 1.279 . S
C1067 C1070 1.358 . S
C1067 H1124 0.930 . S
N1068 C1067 1.279 . S
N1068 C1071 1.314 . S
C1069 C1066 1.348 . S
C1069 C1071 1.353 . S
C1069 H1125 0.929 . S
C1070 C1066 1.356 . S
C1070 C1067 1.358 . S
C1070 H1126 0.930 . S
C1071 N1068 1.314 . S
C1071 C1069 1.353 . S
C1071 H1127 0.930 . S
C1072 N1073 1.314 . S
C1072 C1077 1.353 . S
C1072 H1078 0.930 . S
N1073 Li1056 1.990 . S
N1073 C1072 1.314 . S
N1073 C1075 1.279 . S
C1074 C1075 1.358 . S
C1074 C1076 1.356 . S
C1074 H1128 0.930 . S
C1075 N1073 1.279 . S
C1075 C1074 1.358 . S
C1075 H1079 0.930 . S
C1076 C1074 1.356 . S
C1076 C1077 1.348 . S
C1077 C1072 1.353 . S
C1077 C1076 1.348 . S
C1077 H1129 0.929 . S
H1078 C1072 0.930 . S
H1079 C1075 0.930 . S
C1080 N1081 1.314 . S
C1080 C1082 1.353 . S
C1080 H1086 0.930 . S
N1081 Li1057 1.990 . S
N1081 C1080 1.314 . S
N1081 C1084 1.279 . S
C1082 C1080 1.353 . S
C1082 C1085 1.348 . S
C1082 H1130 0.929 . S
C1083 C1084 1.358 . S
C1083 C1085 1.356 . S
C1083 H1131 0.930 . S
C1084 N1081 1.279 . S
C1084 C1083 1.358 . S
C1084 H1087 0.930 . S
C1085 C1082 1.348 . S
C1085 C1083 1.356 . S
H1086 C1080 0.930 . S
H1087 C1084 0.930 . S
C1088 C1090 1.348 1_554 S
C1088 C1091 1.356 . S
C1088 O1118 1.325 . S
N1089 C1092 1.314 . S
N1089 C1093 1.279 . S
C1090 C1088 1.348 1_556 S
C1090 C1092 1.353 . S
C1090 H1132 0.929 . S
C1091 C1088 1.356 . S
C1091 C1093 1.358 1_554 S
C1091 H1133 0.930 . S
C1092 N1089 1.314 . S
C1092 C1090 1.353 . S
C1092 H1134 0.930 . S
C1093 N1089 1.279 . S
C1093 C1091 1.358 1_556 S
C1093 H1135 0.930 . S
C1094 C1095 1.348 . S
C1094 C1096 1.356 . S
C1094 O1119 1.325 . S
C1095 C1094 1.348 . S
C1095 C1097 1.353 . S
C1095 H1136 0.929 . S
C1096 C1094 1.356 . S
C1096 C1098 1.358 . S
C1096 H1137 0.930 . S
C1097 C1095 1.353 . S
C1097 N1099 1.314 . S
C1097 H1138 0.930 . S
C1098 C1096 1.358 . S
C1098 N1099 1.279 . S
C1098 H1139 0.930 . S
N1099 C1097 1.314 . S
N1099 C1098 1.279 . S
C1100 C1102 1.353 . S
C1100 N1103 1.314 . S
C1100 H1106 0.930 . S
C1101 N1103 1.279 . S
C1101 C1104 1.358 . S
C1101 H1107 0.930 . S
C1102 C1100 1.353 . S
C1102 C1105 1.348 . S
C1102 H1140 0.929 . S
N1103 Li1058 1.990 . S
N1103 C1100 1.314 . S
N1103 C1101 1.279 . S
C1104 C1101 1.358 . S
C1104 C1105 1.356 . S
C1104 H1141 0.930 . S
C1105 C1102 1.348 . S
C1105 C1104 1.356 . S
H1106 C1100 0.930 . S
H1107 C1101 0.930 . S
C1108 N1109 1.314 . S
C1108 C1110 1.353 . S
C1108 H1114 0.930 . S
N1109 Li1059 1.990 1_556 S
N1109 C1108 1.314 . S
N1109 C1112 1.279 . S
C1110 C1108 1.353 . S
C1110 C1113 1.348 . S
C1110 H1142 0.929 . S
C1111 C1112 1.358 . S
C1111 C1113 1.356 . S
C1111 H1143 0.930 . S
C1112 N1109 1.279 . S
C1112 C1111 1.358 . S
C1112 H1115 0.930 . S
C1113 C1110 1.348 . S
C1113 C1111 1.356 . S
H1114 C1108 0.930 . S
H1115 C1112 0.930 . S
O1116 Li1056 1.956 . S
O1116 Li1057 1.970 . S
O1116 Li1058 1.961 . S
O1116 C1060 1.325 . S
O1117 Li1056 1.970 . S
O1117 Li1057 1.956 . S
O1117 Li1059 1.961 . S
O1117 C1066 1.325 . S
O1118 Li1056 1.961 . S
O1118 Li1058 1.956 . S
O1118 Li1059 1.970 . S
O1118 C1088 1.325 . S
O1119 Li1057 1.961 . S
O1119 Li1058 1.970 . S
O1119 Li1059 1.956 . S
O1119 C1094 1.325 . S
H1120 C1062 0.929 . S
H1121 C1063 0.930 . S
H1122 C1064 0.930 . S
H1123 C1065 0.930 . S
H1124 C1067 0.930 . S
H1125 C1069 0.929 . S
H1126 C1070 0.930 . S
H1127 C1071 0.930 . S
H1128 C1074 0.930 . S
H1129 C1077 0.929 . S
H1130 C1082 0.929 . S
H1131 C1083 0.930 . S
H1132 C1090 0.929 . S
H1133 C1091 0.930 . S
H1134 C1092 0.930 . S
H1135 C1093 0.930 . S
H1136 C1095 0.929 . S
H1137 C1096 0.930 . S
H1138 C1097 0.930 . S
H1139 C1098 0.930 . S
H1140 C1102 0.929 . S
H1141 C1104 0.930 . S
H1142 C1110 0.929 . S
H1143 C1111 0.930 . S
Li1144 N1161 1.990 . S
Li1144 O1204 1.956 . S
Li1144 O1205 1.970 . S
Li1144 O1206 1.961 . S
Li1145 N1169 1.990 . S
Li1145 O1204 1.970 . S
Li1145 O1205 1.956 . S
Li1145 O1207 1.961 . S
Li1146 N1191 1.990 . S
Li1146 O1204 1.961 . S
Li1146 O1206 1.956 . S
Li1146 O1207 1.970 . S
Li1147 N1197 1.990 . S
Li1147 O1205 1.961 . S
Li1147 O1206 1.970 . S
Li1147 O1207 1.956 . S
C1148 C1150 1.348 . S
C1148 C1151 1.356 . S
C1148 O1204 1.325 . S
N1149 C1152 1.314 . S
N1149 C1153 1.279 . S
C1150 C1148 1.348 . S
C1150 C1152 1.353 . S
C1150 H1208 0.929 . S
C1151 C1148 1.356 . S
C1151 C1153 1.358 . S
C1151 H1209 0.930 . S
C1152 N1149 1.314 . S
C1152 C1150 1.353 . S
C1152 H1210 0.930 . S
C1153 N1149 1.279 . S
C1153 C1151 1.358 . S
C1153 H1211 0.930 . S
C1154 C1157 1.348 . S
C1154 C1158 1.356 . S
C1154 O1205 1.325 . S
C1155 N1156 1.279 . S
C1155 C1158 1.358 . S
C1155 H1212 0.930 . S
N1156 C1155 1.279 . S
N1156 C1159 1.314 . S
C1157 C1154 1.348 . S
C1157 C1159 1.353 . S
C1157 H1213 0.929 . S
C1158 C1154 1.356 . S
C1158 C1155 1.358 . S
C1158 H1214 0.930 . S
C1159 N1156 1.314 . S
C1159 C1157 1.353 . S
C1159 H1215 0.930 . S
C1160 N1161 1.314 . S
C1160 C1165 1.353 . S
C1160 H1166 0.930 . S
N1161 Li1144 1.990 . S
N1161 C1160 1.314 . S
N1161 C1163 1.279 . S
C1162 C1163 1.358 . S
C1162 C1164 1.356 . S
C1162 H1216 0.930 . S
C1163 N1161 1.279 . S
C1163 C1162 1.358 . S
C1163 H1167 0.930 . S
C1164 C1162 1.356 . S
C1164 C1165 1.348 . S
C1165 C1160 1.353 . S
C1165 C1164 1.348 . S
C1165 H1217 0.929 . S
H1166 C1160 0.930 . S
H1167 C1163 0.930 . S
C1168 N1169 1.314 . S
C1168 C1170 1.353 . S
C1168 H1174 0.930 . S
N1169 Li1145 1.990 . S
N1169 C1168 1.314 . S
N1169 C1172 1.279 . S
C1170 C1168 1.353 . S
C1170 C1173 1.348 . S
C1170 H1218 0.929 . S
C1171 C1172 1.358 . S
C1171 C1173 1.356 . S
C1171 H1219 0.930 . S
C1172 N1169 1.279 . S
C1172 C1171 1.358 . S
C1172 H1175 0.930 . S
C1173 C1170 1.348 . S
C1173 C1171 1.356 . S
H1174 C1168 0.930 . S
H1175 C1172 0.930 . S
C1176 C1178 1.348 . S
C1176 C1179 1.356 . S
C1176 O1206 1.325 . S
N1177 C1180 1.314 . S
N1177 C1181 1.279 . S
C1178 C1176 1.348 . S
C1178 C1180 1.353 . S
C1178 H1220 0.929 . S
C1179 C1176 1.356 . S
C1179 C1181 1.358 . S
C1179 H1221 0.930 . S
C1180 N1177 1.314 . S
C1180 C1178 1.353 . S
C1180 H1222 0.930 . S
C1181 N1177 1.279 . S
C1181 C1179 1.358 . S
C1181 H1223 0.930 . S
C1182 C1183 1.348 1_554 S
C1182 C1184 1.356 . S
C1182 O1207 1.325 . S
C1183 C1182 1.348 1_556 S
C1183 C1185 1.353 . S
C1183 H1224 0.929 . S
C1184 C1182 1.356 . S
C1184 C1186 1.358 1_554 S
C1184 H1225 0.930 . S
C1185 C1183 1.353 . S
C1185 N1187 1.314 . S
C1185 H1226 0.930 . S
C1186 C1184 1.358 1_556 S
C1186 N1187 1.279 . S
C1186 H1227 0.930 . S
N1187 C1185 1.314 . S
N1187 C1186 1.279 . S
C1188 C1190 1.353 . S
C1188 N1191 1.314 1_556 S
C1188 H1194 0.931 1_556 S
C1189 N1191 1.279 1_556 S
C1189 C1192 1.358 . S
C1189 H1195 0.930 1_556 S
C1190 C1188 1.353 . S
C1190 C1193 1.348 . S
C1190 H1228 0.929 . S
N1191 Li1146 1.990 . S
N1191 C1188 1.314 1_554 S
N1191 C1189 1.279 1_554 S
C1192 C1189 1.358 . S
C1192 C1193 1.356 . S
C1192 H1229 0.930 . S
C1193 C1190 1.348 . S
C1193 C1192 1.356 . S
H1194 C1188 0.931 1_554 S
H1195 C1189 0.930 1_554 S
C1196 N1197 1.314 . S
C1196 C1198 1.353 . S
C1196 H1202 0.930 . S
N1197 Li1147 1.990 . S
N1197 C1196 1.314 . S
N1197 C1200 1.279 . S
C1198 C1196 1.353 . S
C1198 C1201 1.348 . S
C1198 H1230 0.929 . S
C1199 C1200 1.358 . S
C1199 C1201 1.356 . S
C1199 H1231 0.930 . S
C1200 N1197 1.279 . S
C1200 C1199 1.358 . S
C1200 H1203 0.930 . S
C1201 C1198 1.348 . S
C1201 C1199 1.356 . S
H1202 C1196 0.930 . S
H1203 C1200 0.930 . S
O1204 Li1144 1.956 . S
O1204 Li1145 1.970 . S
O1204 Li1146 1.961 . S
O1204 C1148 1.325 . S
O1205 Li1144 1.970 . S
O1205 Li1145 1.956 . S
O1205 Li1147 1.961 . S
O1205 C1154 1.325 . S
O1206 Li1144 1.961 . S
O1206 Li1146 1.956 . S
O1206 Li1147 1.970 . S
O1206 C1176 1.325 . S
O1207 Li1145 1.961 . S
O1207 Li1146 1.970 . S
O1207 Li1147 1.956 . S
O1207 C1182 1.325 . S
H1208 C1150 0.929 . S
H1209 C1151 0.930 . S
H1210 C1152 0.930 . S
H1211 C1153 0.930 . S
H1212 C1155 0.930 . S
H1213 C1157 0.929 . S
H1214 C1158 0.930 . S
H1215 C1159 0.930 . S
H1216 C1162 0.930 . S
H1217 C1165 0.929 . S
H1218 C1170 0.929 . S
H1219 C1171 0.930 . S
H1220 C1178 0.929 . S
H1221 C1179 0.930 . S
H1222 C1180 0.930 . S
H1223 C1181 0.930 . S
H1224 C1183 0.929 . S
H1225 C1184 0.930 . S
H1226 C1185 0.930 . S
H1227 C1186 0.930 . S
H1228 C1190 0.929 . S
H1229 C1192 0.930 . S
H1230 C1198 0.929 . S
H1231 C1199 0.930 . S
Li1232 N1249 1.990 . S
Li1232 O1292 1.956 . S
Li1232 O1293 1.970 . S
Li1232 O1294 1.961 . S
Li1233 N1257 1.990 . S
Li1233 O1292 1.970 . S
Li1233 O1293 1.956 . S
Li1233 O1295 1.961 . S
Li1234 N1279 1.990 . S
Li1234 O1292 1.961 . S
Li1234 O1294 1.956 . S
Li1234 O1295 1.970 . S
Li1235 N1285 1.990 . S
Li1235 O1293 1.961 . S
Li1235 O1294 1.970 . S
Li1235 O1295 1.956 . S
C1236 C1238 1.348 . S
C1236 C1239 1.356 . S
C1236 O1292 1.325 . S
N1237 C1240 1.314 . S
N1237 C1241 1.279 . S
C1238 C1236 1.348 . S
C1238 C1240 1.353 . S
C1238 H1296 0.929 . S
C1239 C1236 1.356 . S
C1239 C1241 1.358 . S
C1239 H1297 0.930 . S
C1240 N1237 1.314 . S
C1240 C1238 1.353 . S
C1240 H1298 0.930 . S
C1241 N1237 1.279 . S
C1241 C1239 1.358 . S
C1241 H1299 0.930 . S
C1242 C1245 1.348 . S
C1242 C1246 1.356 . S
C1242 O1293 1.325 . S
C1243 N1244 1.279 . S
C1243 C1246 1.358 . S
C1243 H1300 0.930 . S
N1244 C1243 1.279 . S
N1244 C1247 1.314 . S
C1245 C1242 1.348 . S
C1245 C1247 1.353 . S
C1245 H1301 0.929 . S
C1246 C1242 1.356 . S
C1246 C1243 1.358 . S
C1246 H1302 0.930 . S
C1247 N1244 1.314 . S
C1247 C1245 1.353 . S
C1247 H1303 0.930 . S
C1248 N1249 1.314 . S
C1248 C1253 1.353 . S
C1248 H1254 0.930 . S
N1249 Li1232 1.990 . S
N1249 C1248 1.314 . S
N1249 C1251 1.279 . S
C1250 C1251 1.358 . S
C1250 C1252 1.356 . S
C1250 H1304 0.930 . S
C1251 N1249 1.279 . S
C1251 C1250 1.358 . S
C1251 H1255 0.930 . S
C1252 C1250 1.356 . S
C1252 C1253 1.348 . S
C1253 C1248 1.353 . S
C1253 C1252 1.348 . S
C1253 H1305 0.929 . S
H1254 C1248 0.930 . S
H1255 C1251 0.930 . S
C1256 N1257 1.314 . S
C1256 C1258 1.353 . S
C1256 H1262 0.930 . S
N1257 Li1233 1.990 . S
N1257 C1256 1.314 . S
N1257 C1260 1.279 . S
C1258 C1256 1.353 . S
C1258 C1261 1.348 . S
C1258 H1306 0.929 . S
C1259 C1260 1.358 . S
C1259 C1261 1.356 . S
C1259 H1307 0.930 . S
C1260 N1257 1.279 . S
C1260 C1259 1.358 . S
C1260 H1263 0.930 . S
C1261 C1258 1.348 . S
C1261 C1259 1.356 . S
H1262 C1256 0.930 . S
H1263 C1260 0.930 . S
C1264 C1266 1.348 . S
C1264 C1267 1.356 . S
C1264 O1294 1.325 . S
N1265 C1268 1.314 . S
N1265 C1269 1.279 . S
C1266 C1264 1.348 . S
C1266 C1268 1.353 . S
C1266 H1308 0.929 . S
C1267 C1264 1.356 . S
C1267 C1269 1.358 . S
C1267 H1309 0.930 . S
C1268 N1265 1.314 . S
C1268 C1266 1.353 . S
C1268 H1310 0.930 . S
C1269 N1265 1.279 . S
C1269 C1267 1.358 . S
C1269 H1311 0.930 . S
C1270 C1271 1.348 . S
C1270 C1272 1.356 . S
C1270 O1295 1.325 . S
C1271 C1270 1.348 . S
C1271 C1273 1.353 . S
C1271 H1312 0.929 . S
C1272 C1270 1.356 . S
C1272 C1274 1.358 . S
C1272 H1313 0.930 . S
C1273 C1271 1.353 . S
C1273 N1275 1.314 . S
C1273 H1314 0.930 . S
C1274 C1272 1.358 . S
C1274 N1275 1.279 . S
C1274 H1315 0.930 . S
N1275 C1273 1.314 . S
N1275 C1274 1.279 . S
C1276 C1278 1.353 . S
C1276 N1279 1.314 . S
C1276 H1282 0.930 . S
C1277 N1279 1.279 . S
C1277 C1280 1.358 . S
C1277 H1283 0.930 . S
C1278 C1276 1.353 . S
C1278 C1281 1.348 . S
C1278 H1316 0.929 . S
N1279 Li1234 1.990 . S
N1279 C1276 1.314 . S
N1279 C1277 1.279 . S
C1280 C1277 1.358 . S
C1280 C1281 1.356 . S
C1280 H1317 0.930 . S
C1281 C1278 1.348 . S
C1281 C1280 1.356 . S
H1282 C1276 0.930 . S
H1283 C1277 0.930 . S
C1284 N1285 1.314 . S
C1284 C1286 1.353 . S
C1284 H1290 0.930 . S
N1285 Li1235 1.990 . S
N1285 C1284 1.314 . S
N1285 C1288 1.279 . S
C1286 C1284 1.353 . S
C1286 C1289 1.348 . S
C1286 H1318 0.929 . S
C1287 C1288 1.358 . S
C1287 C1289 1.356 . S
C1287 H1319 0.930 . S
C1288 N1285 1.279 . S
C1288 C1287 1.358 . S
C1288 H1291 0.930 . S
C1289 C1286 1.348 . S
C1289 C1287 1.356 . S
H1290 C1284 0.930 . S
H1291 C1288 0.930 . S
O1292 Li1232 1.956 . S
O1292 Li1233 1.970 . S
O1292 Li1234 1.961 . S
O1292 C1236 1.325 . S
O1293 Li1232 1.970 . S
O1293 Li1233 1.956 . S
O1293 Li1235 1.961 . S
O1293 C1242 1.325 . S
O1294 Li1232 1.961 . S
O1294 Li1234 1.956 . S
O1294 Li1235 1.970 . S
O1294 C1264 1.325 . S
O1295 Li1233 1.961 . S
O1295 Li1234 1.970 . S
O1295 Li1235 1.956 . S
O1295 C1270 1.325 . S
H1296 C1238 0.929 . S
H1297 C1239 0.930 . S
H1298 C1240 0.930 . S
H1299 C1241 0.930 . S
H1300 C1243 0.930 . S
H1301 C1245 0.929 . S
H1302 C1246 0.930 . S
H1303 C1247 0.930 . S
H1304 C1250 0.930 . S
H1305 C1253 0.929 . S
H1306 C1258 0.929 . S
H1307 C1259 0.930 . S
H1308 C1266 0.929 . S
H1309 C1267 0.930 . S
H1310 C1268 0.930 . S
H1311 C1269 0.930 . S
H1312 C1271 0.929 . S
H1313 C1272 0.930 . S
H1314 C1273 0.930 . S
H1315 C1274 0.930 . S
H1316 C1278 0.929 . S
H1317 C1280 0.930 . S
H1318 C1286 0.929 . S
H1319 C1287 0.930 . S
Li1320 N1337 1.990 . S
Li1320 O1380 1.956 . S
Li1320 O1381 1.970 . S
Li1320 O1382 1.961 . S
Li1321 N1345 1.990 . S
Li1321 O1380 1.970 . S
Li1321 O1381 1.956 . S
Li1321 O1383 1.961 . S
Li1322 N1367 1.990 . S
Li1322 O1380 1.961 . S
Li1322 O1382 1.956 . S
Li1322 O1383 1.970 . S
Li1323 N1373 1.990 . S
Li1323 O1381 1.961 . S
Li1323 O1382 1.970 . S
Li1323 O1383 1.956 . S
C1324 C1326 1.348 . S
C1324 C1327 1.356 . S
C1324 O1380 1.325 . S
N1325 C1328 1.314 . S
N1325 C1329 1.279 . S
C1326 C1324 1.348 . S
C1326 C1328 1.353 . S
C1326 H1384 0.929 . S
C1327 C1324 1.356 . S
C1327 C1329 1.358 . S
C1327 H1385 0.930 . S
C1328 N1325 1.314 . S
C1328 C1326 1.353 . S
C1328 H1386 0.930 . S
C1329 N1325 1.279 . S
C1329 C1327 1.358 . S
C1329 H1387 0.930 . S
C1330 C1333 1.348 . S
C1330 C1334 1.356 . S
C1330 O1381 1.325 . S
C1331 N1332 1.279 . S
C1331 C1334 1.358 . S
C1331 H1388 0.930 . S
N1332 C1331 1.279 . S
N1332 C1335 1.314 . S
C1333 C1330 1.348 . S
C1333 C1335 1.353 . S
C1333 H1389 0.929 . S
C1334 C1330 1.356 . S
C1334 C1331 1.358 . S
C1334 H1390 0.930 . S
C1335 N1332 1.314 . S
C1335 C1333 1.353 . S
C1335 H1391 0.930 . S
C1336 N1337 1.314 . S
C1336 C1341 1.353 . S
C1336 H1342 0.930 . S
N1337 Li1320 1.990 . S
N1337 C1336 1.314 . S
N1337 C1339 1.279 . S
C1338 C1339 1.358 . S
C1338 C1340 1.356 . S
C1338 H1392 0.930 . S
C1339 N1337 1.279 . S
C1339 C1338 1.358 . S
C1339 H1343 0.930 . S
C1340 C1338 1.356 . S
C1340 C1341 1.348 . S
C1341 C1336 1.353 . S
C1341 C1340 1.348 . S
C1341 H1393 0.929 . S
H1342 C1336 0.930 . S
H1343 C1339 0.930 . S
C1344 N1345 1.314 . S
C1344 C1346 1.353 . S
C1344 H1350 0.930 . S
N1345 Li1321 1.990 . S
N1345 C1344 1.314 . S
N1345 C1348 1.279 . S
C1346 C1344 1.353 . S
C1346 C1349 1.348 . S
C1346 H1394 0.929 . S
C1347 C1348 1.358 . S
C1347 C1349 1.356 . S
C1347 H1395 0.930 . S
C1348 N1345 1.279 . S
C1348 C1347 1.358 . S
C1348 H1351 0.930 . S
C1349 C1346 1.348 . S
C1349 C1347 1.356 . S
H1350 C1344 0.930 . S
H1351 C1348 0.930 . S
C1352 C1354 1.348 . S
C1352 C1355 1.356 . S
C1352 O1382 1.325 . S
N1353 C1356 1.314 . S
N1353 C1357 1.279 . S
C1354 C1352 1.348 . S
C1354 C1356 1.353 . S
C1354 H1396 0.929 . S
C1355 C1352 1.356 . S
C1355 C1357 1.358 . S
C1355 H1397 0.930 . S
C1356 N1353 1.314 . S
C1356 C1354 1.353 . S
C1356 H1398 0.930 . S
C1357 N1353 1.279 . S
C1357 C1355 1.358 . S
C1357 H1399 0.930 . S
C1358 C1359 1.348 . S
C1358 C1360 1.356 . S
C1358 O1383 1.325 . S
C1359 C1358 1.348 . S
C1359 C1361 1.353 . S
C1359 H1400 0.929 . S
C1360 C1358 1.356 . S
C1360 C1362 1.358 . S
C1360 H1401 0.930 . S
C1361 C1359 1.353 . S
C1361 N1363 1.314 . S
C1361 H1402 0.930 . S
C1362 C1360 1.358 . S
C1362 N1363 1.279 . S
C1362 H1403 0.930 . S
N1363 C1361 1.314 . S
N1363 C1362 1.279 . S
C1364 C1366 1.353 . S
C1364 N1367 1.314 . S
C1364 H1370 0.930 . S
C1365 N1367 1.279 . S
C1365 C1368 1.358 . S
C1365 H1371 0.930 . S
C1366 C1364 1.353 . S
C1366 C1369 1.348 . S
C1366 H1404 0.929 . S
N1367 Li1322 1.990 . S
N1367 C1364 1.314 . S
N1367 C1365 1.279 . S
C1368 C1365 1.358 . S
C1368 C1369 1.356 . S
C1368 H1405 0.930 . S
C1369 C1366 1.348 . S
C1369 C1368 1.356 . S
H1370 C1364 0.930 . S
H1371 C1365 0.930 . S
C1372 N1373 1.314 . S
C1372 C1374 1.353 . S
C1372 H1378 0.930 . S
N1373 Li1323 1.990 . S
N1373 C1372 1.314 . S
N1373 C1376 1.279 . S
C1374 C1372 1.353 . S
C1374 C1377 1.348 . S
C1374 H1406 0.929 . S
C1375 C1376 1.358 . S
C1375 C1377 1.356 . S
C1375 H1407 0.930 . S
C1376 N1373 1.279 . S
C1376 C1375 1.358 . S
C1376 H1379 0.930 . S
C1377 C1374 1.348 . S
C1377 C1375 1.356 . S
H1378 C1372 0.930 . S
H1379 C1376 0.930 . S
O1380 Li1320 1.956 . S
O1380 Li1321 1.970 . S
O1380 Li1322 1.961 . S
O1380 C1324 1.325 . S
O1381 Li1320 1.970 . S
O1381 Li1321 1.956 . S
O1381 Li1323 1.961 . S
O1381 C1330 1.325 . S
O1382 Li1320 1.961 . S
O1382 Li1322 1.956 . S
O1382 Li1323 1.970 . S
O1382 C1352 1.325 . S
O1383 Li1321 1.961 . S
O1383 Li1322 1.970 . S
O1383 Li1323 1.956 . S
O1383 C1358 1.325 . S
H1384 C1326 0.929 . S
H1385 C1327 0.930 . S
H1386 C1328 0.930 . S
H1387 C1329 0.930 . S
H1388 C1331 0.930 . S
H1389 C1333 0.929 . S
H1390 C1334 0.930 . S
H1391 C1335 0.930 . S
H1392 C1338 0.930 . S
H1393 C1341 0.929 . S
H1394 C1346 0.929 . S
H1395 C1347 0.930 . S
H1396 C1354 0.929 . S
H1397 C1355 0.930 . S
H1398 C1356 0.930 . S
H1399 C1357 0.930 . S
H1400 C1359 0.929 . S
H1401 C1360 0.930 . S
H1402 C1361 0.930 . S
H1403 C1362 0.930 . S
H1404 C1366 0.929 . S
H1405 C1368 0.930 . S
H1406 C1374 0.929 . S
H1407 C1375 0.930 . S
Li1408 N1425 1.990 . S
Li1408 O1468 1.956 1_545 S
Li1408 O1469 1.970 . S
Li1408 O1470 1.961 . S
Li1409 N1433 1.990 . S
Li1409 O1468 1.970 . S
Li1409 O1469 1.956 1_565 S
Li1409 O1471 1.961 1_565 S
Li1410 N1455 1.990 . S
Li1410 O1468 1.961 1_545 S
Li1410 O1470 1.956 . S
Li1410 O1471 1.970 . S
Li1411 N1461 1.990 . S
Li1411 O1469 1.961 . S
Li1411 O1470 1.970 . S
Li1411 O1471 1.956 . S
C1412 C1414 1.348 . S
C1412 C1415 1.356 . S
C1412 O1468 1.325 . S
N1413 C1416 1.314 . S
N1413 C1417 1.279 . S
C1414 C1412 1.348 . S
C1414 C1416 1.353 . S
C1414 H1472 0.929 . S
C1415 C1412 1.356 . S
C1415 C1417 1.358 . S
C1415 H1473 0.930 . S
C1416 N1413 1.314 . S
C1416 C1414 1.353 . S
C1416 H1474 0.930 . S
C1417 N1413 1.279 . S
C1417 C1415 1.358 . S
C1417 H1475 0.930 . S
C1418 C1421 1.348 . S
C1418 C1422 1.356 . S
C1418 O1469 1.325 . S
C1419 N1420 1.279 . S
C1419 C1422 1.358 . S
C1419 H1476 0.930 . S
N1420 C1419 1.279 . S
N1420 C1423 1.314 . S
C1421 C1418 1.348 . S
C1421 C1423 1.353 . S
C1421 H1477 0.929 . S
C1422 C1418 1.356 . S
C1422 C1419 1.358 . S
C1422 H1478 0.930 . S
C1423 N1420 1.314 . S
C1423 C1421 1.353 . S
C1423 H1479 0.930 . S
C1424 N1425 1.314 . S
C1424 C1429 1.353 . S
C1424 H1430 0.930 . S
N1425 Li1408 1.990 . S
N1425 C1424 1.314 . S
N1425 C1427 1.279 . S
C1426 C1427 1.358 . S
C1426 C1428 1.356 . S
C1426 H1480 0.930 1_545 S
C1427 N1425 1.279 . S
C1427 C1426 1.358 . S
C1427 H1431 0.930 1_545 S
C1428 C1426 1.356 . S
C1428 C1429 1.348 . S
C1429 C1424 1.353 . S
C1429 C1428 1.348 . S
C1429 H1481 0.929 . S
H1430 C1424 0.930 . S
H1431 C1427 0.930 1_565 S
C1432 N1433 1.314 . S
C1432 C1434 1.353 . S
C1432 H1438 0.930 . S
N1433 Li1409 1.990 . S
N1433 C1432 1.314 . S
N1433 C1436 1.279 . S
C1434 C1432 1.353 . S
C1434 C1437 1.348 . S
C1434 H1482 0.929 . S
C1435 C1436 1.358 . S
C1435 C1437 1.356 . S
C1435 H1483 0.930 . S
C1436 N1433 1.279 . S
C1436 C1435 1.358 . S
C1436 H1439 0.930 . S
C1437 C1434 1.348 . S
C1437 C1435 1.356 . S
H1438 C1432 0.930 . S
H1439 C1436 0.930 . S
C1440 C1442 1.348 . S
C1440 C1443 1.356 . S
C1440 O1470 1.325 . S
N1441 C1444 1.314 . S
N1441 C1445 1.279 . S
C1442 C1440 1.348 . S
C1442 C1444 1.353 . S
C1442 H1484 0.929 . S
C1443 C1440 1.356 . S
C1443 C1445 1.358 . S
C1443 H1485 0.930 . S
C1444 N1441 1.314 . S
C1444 C1442 1.353 . S
C1444 H1486 0.930 . S
C1445 N1441 1.279 . S
C1445 C1443 1.358 . S
C1445 H1487 0.930 . S
C1446 C1447 1.348 . S
C1446 C1448 1.356 . S
C1446 O1471 1.325 . S
C1447 C1446 1.348 . S
C1447 C1449 1.353 . S
C1447 H1488 0.929 . S
C1448 C1446 1.356 . S
C1448 C1450 1.354 . S
C1448 H1489 0.928 1_545 S
C1449 C1447 1.353 . S
C1449 N1451 1.314 . S
C1449 H1490 0.930 . S
C1450 C1448 1.354 . S
C1450 N1451 1.291 . S
C1450 H1491 0.924 1_545 S
N1451 C1449 1.314 . S
N1451 C1450 1.291 . S
C1452 C1454 1.350 1_545 S
C1452 N1455 1.349 . S
C1452 H1458 0.894 1_545 S
C1453 N1455 1.279 . S
C1453 C1456 1.358 . S
C1453 H1459 0.930 . S
C1454 C1452 1.350 1_565 S
C1454 C1457 1.338 1_565 S
C1454 H1492 0.940 . S
N1455 Li1410 1.990 . S
N1455 C1452 1.349 . S
N1455 C1453 1.279 . S
C1456 C1453 1.358 . S
C1456 C1457 1.356 . S
C1456 H1493 0.930 . S
C1457 C1454 1.338 1_545 S
C1457 C1456 1.356 . S
H1458 C1452 0.894 1_565 S
H1459 C1453 0.930 . S
C1460 N1461 1.314 . S
C1460 C1462 1.353 . S
C1460 H1466 0.930 . S
N1461 Li1411 1.990 . S
N1461 C1460 1.314 . S
N1461 C1464 1.279 . S
C1462 C1460 1.353 . S
C1462 C1465 1.348 . S
C1462 H1494 0.929 . S
C1463 C1464 1.358 . S
C1463 C1465 1.356 . S
C1463 H1495 0.930 . S
C1464 N1461 1.279 . S
C1464 C1463 1.358 . S
C1464 H1467 0.930 . S
C1465 C1462 1.348 . S
C1465 C1463 1.356 . S
H1466 C1460 0.930 . S
H1467 C1464 0.930 . S
O1468 Li1408 1.956 1_565 S
O1468 Li1409 1.970 . S
O1468 Li1410 1.961 1_565 S
O1468 C1412 1.325 . S
O1469 Li1408 1.970 . S
O1469 Li1409 1.956 1_545 S
O1469 Li1411 1.961 . S
O1469 C1418 1.325 . S
O1470 Li1408 1.961 . S
O1470 Li1410 1.956 . S
O1470 Li1411 1.970 . S
O1470 C1440 1.325 . S
O1471 Li1409 1.961 1_545 S
O1471 Li1410 1.970 . S
O1471 Li1411 1.956 . S
O1471 C1446 1.325 . S
H1472 C1414 0.929 . S
H1473 C1415 0.930 . S
H1474 C1416 0.930 . S
H1475 C1417 0.930 . S
H1476 C1419 0.930 . S
H1477 C1421 0.929 . S
H1478 C1422 0.930 . S
H1479 C1423 0.930 . S
H1480 C1426 0.930 1_565 S
H1481 C1429 0.929 . S
H1482 C1434 0.929 . S
H1483 C1435 0.930 . S
H1484 C1442 0.929 . S
H1485 C1443 0.930 . S
H1486 C1444 0.930 . S
H1487 C1445 0.930 . S
H1488 C1447 0.929 . S
H1489 C1448 0.928 1_565 S
H1490 C1449 0.930 . S
H1491 C1450 0.924 1_565 S
H1492 C1454 0.940 . S
H1493 C1456 0.930 . S
H1494 C1462 0.929 . S
H1495 C1463 0.930 . S
Li1496 N1513 1.990 . S
Li1496 O1556 1.956 . S
Li1496 O1557 1.970 . S
Li1496 O1558 1.961 . S
Li1497 N1521 1.990 . S
Li1497 O1556 1.970 . S
Li1497 O1557 1.956 . S
Li1497 O1559 1.961 . S
Li1498 N1543 1.990 . S
Li1498 O1556 1.961 . S
Li1498 O1558 1.956 . S
Li1498 O1559 1.970 . S
Li1499 N1549 1.990 . S
Li1499 O1557 1.961 . S
Li1499 O1558 1.970 . S
Li1499 O1559 1.956 . S
C1500 C1502 1.348 . S
C1500 C1503 1.356 . S
C1500 O1556 1.325 . S
N1501 C1504 1.314 . S
N1501 C1505 1.279 . S
C1502 C1500 1.348 . S
C1502 C1504 1.353 . S
C1502 H1560 0.929 . S
C1503 C1500 1.356 . S
C1503 C1505 1.358 . S
C1503 H1561 0.930 . S
C1504 N1501 1.314 . S
C1504 C1502 1.353 . S
C1504 H1562 0.930 . S
C1505 N1501 1.279 . S
C1505 C1503 1.358 . S
C1505 H1563 0.930 . S
C1506 C1509 1.348 . S
C1506 C1510 1.356 . S
C1506 O1557 1.325 . S
C1507 N1508 1.279 . S
C1507 C1510 1.358 . S
C1507 H1564 0.930 . S
N1508 C1507 1.279 . S
N1508 C1511 1.314 . S
C1509 C1506 1.348 . S
C1509 C1511 1.353 . S
C1509 H1565 0.929 . S
C1510 C1506 1.356 . S
C1510 C1507 1.358 . S
C1510 H1566 0.930 . S
C1511 N1508 1.314 . S
C1511 C1509 1.353 . S
C1511 H1567 0.930 . S
C1512 N1513 1.314 . S
C1512 C1517 1.353 . S
C1512 H1518 0.930 . S
N1513 Li1496 1.990 . S
N1513 C1512 1.314 . S
N1513 C1515 1.279 . S
C1514 C1515 1.358 . S
C1514 C1516 1.356 . S
C1514 H1568 0.930 . S
C1515 N1513 1.279 . S
C1515 C1514 1.358 . S
C1515 H1519 0.930 . S
C1516 C1514 1.356 . S
C1516 C1517 1.348 . S
C1517 C1512 1.353 . S
C1517 C1516 1.348 . S
C1517 H1569 0.929 . S
H1518 C1512 0.930 . S
H1519 C1515 0.930 . S
C1520 N1521 1.314 . S
C1520 C1522 1.353 . S
C1520 H1526 0.930 . S
N1521 Li1497 1.990 . S
N1521 C1520 1.314 . S
N1521 C1524 1.279 . S
C1522 C1520 1.353 . S
C1522 C1525 1.348 . S
C1522 H1570 0.929 . S
C1523 C1524 1.358 . S
C1523 C1525 1.356 . S
C1523 H1571 0.930 . S
C1524 N1521 1.279 . S
C1524 C1523 1.358 . S
C1524 H1527 0.930 . S
C1525 C1522 1.348 . S
C1525 C1523 1.356 . S
H1526 C1520 0.930 . S
H1527 C1524 0.930 . S
C1528 C1530 1.348 . S
C1528 C1531 1.356 . S
C1528 O1558 1.325 . S
N1529 C1532 1.314 . S
N1529 C1533 1.279 . S
C1530 C1528 1.348 . S
C1530 C1532 1.353 . S
C1530 H1572 0.929 . S
C1531 C1528 1.356 . S
C1531 C1533 1.358 . S
C1531 H1573 0.930 . S
C1532 N1529 1.314 . S
C1532 C1530 1.353 . S
C1532 H1574 0.930 . S
C1533 N1529 1.279 . S
C1533 C1531 1.358 . S
C1533 H1575 0.930 . S
C1534 C1535 1.348 . S
C1534 C1536 1.356 . S
C1534 O1559 1.325 . S
C1535 C1534 1.348 . S
C1535 C1537 1.353 . S
C1535 H1576 0.929 . S
C1536 C1534 1.356 . S
C1536 C1538 1.358 . S
C1536 H1577 0.930 . S
C1537 C1535 1.353 . S
C1537 N1539 1.314 . S
C1537 H1578 0.930 . S
C1538 C1536 1.358 . S
C1538 N1539 1.279 . S
C1538 H1579 0.930 . S
N1539 C1537 1.314 . S
N1539 C1538 1.279 . S
C1540 C1542 1.353 . S
C1540 N1543 1.314 . S
C1540 H1546 0.930 . S
C1541 N1543 1.279 . S
C1541 C1544 1.358 . S
C1541 H1547 0.930 . S
C1542 C1540 1.353 . S
C1542 C1545 1.348 . S
C1542 H1580 0.929 . S
N1543 Li1498 1.990 . S
N1543 C1540 1.314 . S
N1543 C1541 1.279 . S
C1544 C1541 1.358 . S
C1544 C1545 1.356 . S
C1544 H1581 0.930 . S
C1545 C1542 1.348 . S
C1545 C1544 1.356 . S
H1546 C1540 0.930 . S
H1547 C1541 0.930 . S
C1548 N1549 1.314 . S
C1548 C1550 1.353 . S
C1548 H1554 0.930 . S
N1549 Li1499 1.990 . S
N1549 C1548 1.314 . S
N1549 C1552 1.279 . S
C1550 C1548 1.353 . S
C1550 C1553 1.348 . S
C1550 H1582 0.929 . S
C1551 C1552 1.358 . S
C1551 C1553 1.356 . S
C1551 H1583 0.930 . S
C1552 N1549 1.279 . S
C1552 C1551 1.358 . S
C1552 H1555 0.930 . S
C1553 C1550 1.348 . S
C1553 C1551 1.356 . S
H1554 C1548 0.930 . S
H1555 C1552 0.930 . S
O1556 Li1496 1.956 . S
O1556 Li1497 1.970 . S
O1556 Li1498 1.961 . S
O1556 C1500 1.325 . S
O1557 Li1496 1.970 . S
O1557 Li1497 1.956 . S
O1557 Li1499 1.961 . S
O1557 C1506 1.325 . S
O1558 Li1496 1.961 . S
O1558 Li1498 1.956 . S
O1558 Li1499 1.970 . S
O1558 C1528 1.325 . S
O1559 Li1497 1.961 . S
O1559 Li1498 1.970 . S
O1559 Li1499 1.956 . S
O1559 C1534 1.325 . S
H1560 C1502 0.929 . S
H1561 C1503 0.930 . S
H1562 C1504 0.930 . S
H1563 C1505 0.930 . S
H1564 C1507 0.930 . S
H1565 C1509 0.929 . S
H1566 C1510 0.930 . S
H1567 C1511 0.930 . S
H1568 C1514 0.930 . S
H1569 C1517 0.929 . S
H1570 C1522 0.929 . S
H1571 C1523 0.930 . S
H1572 C1530 0.929 . S
H1573 C1531 0.930 . S
H1574 C1532 0.930 . S
H1575 C1533 0.930 . S
H1576 C1535 0.929 . S
H1577 C1536 0.930 . S
H1578 C1537 0.930 . S
H1579 C1538 0.930 . S
H1580 C1542 0.929 . S
H1581 C1544 0.930 . S
H1582 C1550 0.929 . S
H1583 C1551 0.930 . S
Li1584 N1601 1.990 . S
Li1584 O1644 1.956 . S
Li1584 O1645 1.970 . S
Li1584 O1646 1.961 . S
Li1585 N1609 1.990 . S
Li1585 O1644 1.970 . S
Li1585 O1645 1.956 . S
Li1585 O1647 1.961 . S
Li1586 N1631 1.990 . S
Li1586 O1644 1.961 . S
Li1586 O1646 1.956 . S
Li1586 O1647 1.970 . S
Li1587 N1637 1.990 . S
Li1587 O1645 1.961 . S
Li1587 O1646 1.970 . S
Li1587 O1647 1.956 . S
C1588 C1590 1.348 . S
C1588 C1591 1.356 . S
C1588 O1644 1.325 . S
N1589 C1592 1.314 . S
N1589 C1593 1.279 . S
C1590 C1588 1.348 . S
C1590 C1592 1.353 . S
C1590 H1648 0.929 . S
C1591 C1588 1.356 . S
C1591 C1593 1.358 . S
C1591 H1649 0.930 . S
C1592 N1589 1.314 . S
C1592 C1590 1.353 . S
C1592 H1650 0.930 . S
C1593 N1589 1.279 . S
C1593 C1591 1.358 . S
C1593 H1651 0.930 . S
C1594 C1597 1.348 . S
C1594 C1598 1.356 . S
C1594 O1645 1.325 . S
C1595 N1596 1.279 . S
C1595 C1598 1.358 . S
C1595 H1652 0.930 . S
N1596 C1595 1.279 . S
N1596 C1599 1.314 . S
C1597 C1594 1.348 . S
C1597 C1599 1.353 . S
C1597 H1653 0.929 . S
C1598 C1594 1.356 . S
C1598 C1595 1.358 . S
C1598 H1654 0.930 . S
C1599 N1596 1.314 . S
C1599 C1597 1.353 . S
C1599 H1655 0.930 . S
C1600 N1601 1.314 . S
C1600 C1605 1.353 . S
C1600 H1606 0.930 . S
N1601 Li1584 1.990 . S
N1601 C1600 1.314 . S
N1601 C1603 1.279 . S
C1602 C1603 1.358 . S
C1602 C1604 1.356 . S
C1602 H1656 0.930 . S
C1603 N1601 1.279 . S
C1603 C1602 1.358 . S
C1603 H1607 0.930 . S
C1604 C1602 1.356 . S
C1604 C1605 1.348 . S
C1605 C1600 1.353 . S
C1605 C1604 1.348 . S
C1605 H1657 0.929 . S
H1606 C1600 0.930 . S
H1607 C1603 0.930 . S
C1608 N1609 1.314 . S
C1608 C1610 1.353 . S
C1608 H1614 0.930 . S
N1609 Li1585 1.990 . S
N1609 C1608 1.314 . S
N1609 C1612 1.279 . S
C1610 C1608 1.353 . S
C1610 C1613 1.348 . S
C1610 H1658 0.929 . S
C1611 C1612 1.358 . S
C1611 C1613 1.356 . S
C1611 H1659 0.930 . S
C1612 N1609 1.279 . S
C1612 C1611 1.358 . S
C1612 H1615 0.930 . S
C1613 C1610 1.348 . S
C1613 C1611 1.356 . S
H1614 C1608 0.930 . S
H1615 C1612 0.930 . S
C1616 C1618 1.348 . S
C1616 C1619 1.356 . S
C1616 O1646 1.325 . S
N1617 C1620 1.314 . S
N1617 C1621 1.279 . S
C1618 C1616 1.348 . S
C1618 C1620 1.353 . S
C1618 H1660 0.929 . S
C1619 C1616 1.356 . S
C1619 C1621 1.358 . S
C1619 H1661 0.930 . S
C1620 N1617 1.314 . S
C1620 C1618 1.353 . S
C1620 H1662 0.930 . S
C1621 N1617 1.279 . S
C1621 C1619 1.358 . S
C1621 H1663 0.930 . S
C1622 C1623 1.348 . S
C1622 C1624 1.356 . S
C1622 O1647 1.325 . S
C1623 C1622 1.348 . S
C1623 C1625 1.353 . S
C1623 H1664 0.929 . S
C1624 C1622 1.356 . S
C1624 C1626 1.358 . S
C1624 H1665 0.930 . S
C1625 C1623 1.353 . S
C1625 N1627 1.314 . S
C1625 H1666 0.930 . S
C1626 C1624 1.358 . S
C1626 N1627 1.279 . S
C1626 H1667 0.930 . S
N1627 C1625 1.314 . S
N1627 C1626 1.279 . S
C1628 C1630 1.353 . S
C1628 N1631 1.314 . S
C1628 H1634 0.930 . S
C1629 N1631 1.279 . S
C1629 C1632 1.358 . S
C1629 H1635 0.930 . S
C1630 C1628 1.353 . S
C1630 C1633 1.348 . S
C1630 H1668 0.929 . S
N1631 Li1586 1.990 . S
N1631 C1628 1.314 . S
N1631 C1629 1.279 . S
C1632 C1629 1.358 . S
C1632 C1633 1.356 . S
C1632 H1669 0.930 . S
C1633 C1630 1.348 . S
C1633 C1632 1.356 . S
H1634 C1628 0.930 . S
H1635 C1629 0.930 . S
C1636 N1637 1.314 . S
C1636 C1638 1.353 . S
C1636 H1642 0.930 . S
N1637 Li1587 1.990 . S
N1637 C1636 1.314 . S
N1637 C1640 1.279 . S
C1638 C1636 1.353 . S
C1638 C1641 1.348 . S
C1638 H1670 0.929 . S
C1639 C1640 1.358 . S
C1639 C1641 1.356 . S
C1639 H1671 0.930 . S
C1640 N1637 1.279 . S
C1640 C1639 1.358 . S
C1640 H1643 0.930 . S
C1641 C1638 1.348 . S
C1641 C1639 1.356 . S
H1642 C1636 0.930 . S
H1643 C1640 0.930 . S
O1644 Li1584 1.956 . S
O1644 Li1585 1.970 . S
O1644 Li1586 1.961 . S
O1644 C1588 1.325 . S
O1645 Li1584 1.970 . S
O1645 Li1585 1.956 . S
O1645 Li1587 1.961 . S
O1645 C1594 1.325 . S
O1646 Li1584 1.961 . S
O1646 Li1586 1.956 . S
O1646 Li1587 1.970 . S
O1646 C1616 1.325 . S
O1647 Li1585 1.961 . S
O1647 Li1586 1.970 . S
O1647 Li1587 1.956 . S
O1647 C1622 1.325 . S
H1648 C1590 0.929 . S
H1649 C1591 0.930 . S
H1650 C1592 0.930 . S
H1651 C1593 0.930 . S
H1652 C1595 0.930 . S
H1653 C1597 0.929 . S
H1654 C1598 0.930 . S
H1655 C1599 0.930 . S
H1656 C1602 0.930 . S
H1657 C1605 0.929 . S
H1658 C1610 0.929 . S
H1659 C1611 0.930 . S
H1660 C1618 0.929 . S
H1661 C1619 0.930 . S
H1662 C1620 0.930 . S
H1663 C1621 0.930 . S
H1664 C1623 0.929 . S
H1665 C1624 0.930 . S
H1666 C1625 0.930 . S
H1667 C1626 0.930 . S
H1668 C1630 0.929 . S
H1669 C1632 0.930 . S
H1670 C1638 0.929 . S
H1671 C1639 0.930 . S
Li1672 N1689 1.990 . S
Li1672 O1732 1.956 . S
Li1672 O1733 1.970 . S
Li1672 O1734 1.961 . S
Li1673 N1697 1.990 . S
Li1673 O1732 1.970 . S
Li1673 O1733 1.956 . S
Li1673 O1735 1.961 . S
Li1674 N1719 1.990 . S
Li1674 O1732 1.961 . S
Li1674 O1734 1.956 . S
Li1674 O1735 1.970 . S
Li1675 N1725 1.990 . S
Li1675 O1733 1.961 . S
Li1675 O1734 1.970 . S
Li1675 O1735 1.956 . S
C1676 C1678 1.348 . S
C1676 C1679 1.356 . S
C1676 O1732 1.325 . S
N1677 C1680 1.314 . S
N1677 C1681 1.279 . S
C1678 C1676 1.348 . S
C1678 C1680 1.353 . S
C1678 H1736 0.929 . S
C1679 C1676 1.356 . S
C1679 C1681 1.358 . S
C1679 H1737 0.930 . S
C1680 N1677 1.314 . S
C1680 C1678 1.353 . S
C1680 H1738 0.930 . S
C1681 N1677 1.279 . S
C1681 C1679 1.358 . S
C1681 H1739 0.930 . S
C1682 C1685 1.348 . S
C1682 C1686 1.356 . S
C1682 O1733 1.325 . S
C1683 N1684 1.279 . S
C1683 C1686 1.358 . S
C1683 H1740 0.930 . S
N1684 C1683 1.279 . S
N1684 C1687 1.314 . S
C1685 C1682 1.348 . S
C1685 C1687 1.353 . S
C1685 H1741 0.929 . S
C1686 C1682 1.356 . S
C1686 C1683 1.358 . S
C1686 H1742 0.930 . S
C1687 N1684 1.314 . S
C1687 C1685 1.353 . S
C1687 H1743 0.930 . S
C1688 N1689 1.314 . S
C1688 C1693 1.353 . S
C1688 H1694 0.930 . S
N1689 Li1672 1.990 . S
N1689 C1688 1.314 . S
N1689 C1691 1.279 . S
C1690 C1691 1.358 . S
C1690 C1692 1.356 . S
C1690 H1744 0.930 . S
C1691 N1689 1.279 . S
C1691 C1690 1.358 . S
C1691 H1695 0.930 . S
C1692 C1690 1.356 . S
C1692 C1693 1.348 . S
C1693 C1688 1.353 . S
C1693 C1692 1.348 . S
C1693 H1745 0.929 . S
H1694 C1688 0.930 . S
H1695 C1691 0.930 . S
C1696 N1697 1.314 . S
C1696 C1698 1.353 . S
C1696 H1702 0.930 . S
N1697 Li1673 1.990 . S
N1697 C1696 1.314 . S
N1697 C1700 1.279 . S
C1698 C1696 1.353 . S
C1698 C1701 1.348 . S
C1698 H1746 0.929 . S
C1699 C1700 1.358 . S
C1699 C1701 1.356 . S
C1699 H1747 0.930 . S
C1700 N1697 1.279 . S
C1700 C1699 1.358 . S
C1700 H1703 0.930 . S
C1701 C1698 1.348 . S
C1701 C1699 1.356 . S
H1702 C1696 0.930 . S
H1703 C1700 0.930 . S
C1704 C1706 1.348 1_545 S
C1704 C1707 1.351 . S
C1704 O1734 1.325 . S
N1705 C1708 1.314 . S
N1705 C1709 1.279 . S
C1706 C1704 1.348 1_565 S
C1706 C1708 1.353 . S
C1706 H1748 0.929 . S
C1707 C1704 1.351 . S
C1707 C1709 1.314 1_545 S
C1707 H1749 0.983 . S
C1708 N1705 1.314 . S
C1708 C1706 1.353 . S
C1708 H1750 0.930 . S
C1709 N1705 1.279 . S
C1709 C1707 1.314 1_565 S
C1709 H1751 0.930 . S
C1710 C1711 1.348 . S
C1710 C1712 1.356 . S
C1710 O1735 1.325 . S
C1711 C1710 1.348 . S
C1711 C1713 1.353 . S
C1711 H1752 0.929 . S
C1712 C1710 1.356 . S
C1712 C1714 1.358 . S
C1712 H1753 0.930 . S
C1713 C1711 1.353 . S
C1713 N1715 1.314 . S
C1713 H1754 0.930 . S
C1714 C1712 1.358 . S
C1714 N1715 1.279 . S
C1714 H1755 0.930 . S
N1715 C1713 1.314 . S
N1715 C1714 1.279 . S
C1716 C1718 1.353 . S
C1716 N1719 1.314 . S
C1716 H1722 0.930 . S
C1717 N1719 1.279 . S
C1717 C1720 1.358 . S
C1717 H1723 0.930 . S
C1718 C1716 1.353 . S
C1718 C1721 1.348 . S
C1718 H1756 0.929 . S
N1719 Li1674 1.990 . S
N1719 C1716 1.314 . S
N1719 C1717 1.279 . S
C1720 C1717 1.358 . S
C1720 C1721 1.356 . S
C1720 H1757 0.930 . S
C1721 C1718 1.348 . S
C1721 C1720 1.356 . S
H1722 C1716 0.930 . S
H1723 C1717 0.930 . S
C1724 N1725 1.314 1_565 S
C1724 C1726 1.353 . S
C1724 H1730 0.930 . S
N1725 Li1675 1.990 . S
N1725 C1724 1.314 1_545 S
N1725 C1728 1.279 1_545 S
C1726 C1724 1.353 . S
C1726 C1729 1.348 . S
C1726 H1758 0.929 . S
C1727 C1728 1.358 . S
C1727 C1729 1.356 . S
C1727 H1759 0.930 . S
C1728 N1725 1.279 1_565 S
C1728 C1727 1.358 . S
C1728 H1731 0.930 1_565 S
C1729 C1726 1.348 . S
C1729 C1727 1.356 . S
H1730 C1724 0.930 . S
H1731 C1728 0.930 1_545 S
O1732 Li1672 1.956 . S
O1732 Li1673 1.970 . S
O1732 Li1674 1.961 . S
O1732 C1676 1.325 . S
O1733 Li1672 1.970 . S
O1733 Li1673 1.956 . S
O1733 Li1675 1.961 . S
O1733 C1682 1.325 . S
O1734 Li1672 1.961 . S
O1734 Li1674 1.956 . S
O1734 Li1675 1.970 . S
O1734 C1704 1.325 . S
O1735 Li1673 1.961 . S
O1735 Li1674 1.970 . S
O1735 Li1675 1.956 . S
O1735 C1710 1.325 . S
H1736 C1678 0.929 . S
H1737 C1679 0.930 . S
H1738 C1680 0.930 . S
H1739 C1681 0.930 . S
H1740 C1683 0.930 . S
H1741 C1685 0.929 . S
H1742 C1686 0.930 . S
H1743 C1687 0.930 . S
H1744 C1690 0.930 . S
H1745 C1693 0.929 . S
H1746 C1698 0.929 . S
H1747 C1699 0.930 . S
H1748 C1706 0.929 . S
H1749 C1707 0.983 . S
H1750 C1708 0.930 . S
H1751 C1709 0.930 . S
H1752 C1711 0.929 . S
H1753 C1712 0.930 . S
H1754 C1713 0.930 . S
H1755 C1714 0.930 . S
H1756 C1718 0.929 . S
H1757 C1720 0.930 . S
H1758 C1726 0.929 . S
H1759 C1727 0.930 . S
Li1760 N1777 1.990 . S
Li1760 O1820 1.956 . S
Li1760 O1821 1.970 . S
Li1760 O1822 1.961 . S
Li1761 N1785 1.990 . S
Li1761 O1820 1.970 . S
Li1761 O1821 1.956 . S
Li1761 O1823 1.961 1_554 S
Li1762 N1807 1.990 . S
Li1762 O1820 1.961 1_556 S
Li1762 O1822 1.956 1_556 S
Li1762 O1823 1.970 . S
Li1763 N1813 1.990 . S
Li1763 O1821 1.961 . S
Li1763 O1822 1.970 . S
Li1763 O1823 1.956 1_554 S
C1764 C1766 1.348 . S
C1764 C1767 1.356 . S
C1764 O1820 1.325 . S
N1765 C1768 1.314 . S
N1765 C1769 1.279 . S
C1766 C1764 1.348 . S
C1766 C1768 1.353 . S
C1766 H1824 0.929 . S
C1767 C1764 1.356 . S
C1767 C1769 1.358 . S
C1767 H1825 0.930 . S
C1768 N1765 1.314 . S
C1768 C1766 1.353 . S
C1768 H1826 0.930 . S
C1769 N1765 1.279 . S
C1769 C1767 1.358 . S
C1769 H1827 0.930 . S
C1770 C1773 1.348 . S
C1770 C1774 1.356 . S
C1770 O1821 1.325 . S
C1771 N1772 1.279 . S
C1771 C1774 1.358 . S
C1771 H1828 0.930 . S
N1772 C1771 1.279 . S
N1772 C1775 1.314 . S
C1773 C1770 1.348 . S
C1773 C1775 1.353 . S
C1773 H1829 0.929 . S
C1774 C1770 1.356 . S
C1774 C1771 1.358 . S
C1774 H1830 0.930 . S
C1775 N1772 1.314 . S
C1775 C1773 1.353 . S
C1775 H1831 0.930 . S
C1776 N1777 1.314 . S
C1776 C1781 1.353 . S
C1776 H1782 0.930 . S
N1777 Li1760 1.990 . S
N1777 C1776 1.314 . S
N1777 C1779 1.279 . S
C1778 C1779 1.358 . S
C1778 C1780 1.356 . S
C1778 H1832 0.930 . S
C1779 N1777 1.279 . S
C1779 C1778 1.358 . S
C1779 H1783 0.930 . S
C1780 C1778 1.356 . S
C1780 C1781 1.348 . S
C1781 C1776 1.353 . S
C1781 C1780 1.348 . S
C1781 H1833 0.929 . S
H1782 C1776 0.930 . S
H1783 C1779 0.930 . S
C1784 N1785 1.314 1_556 S
C1784 C1786 1.353 . S
C1784 H1790 0.930 . S
N1785 Li1761 1.990 . S
N1785 C1784 1.314 1_554 S
N1785 C1788 1.279 . S
C1786 C1784 1.353 . S
C1786 C1789 1.348 1_556 S
C1786 H1834 0.929 . S
C1787 C1788 1.358 . S
C1787 C1789 1.356 . S
C1787 H1835 0.930 . S
C1788 N1785 1.279 . S
C1788 C1787 1.358 . S
C1788 H1791 0.930 . S
C1789 C1786 1.348 1_554 S
C1789 C1787 1.356 . S
H1790 C1784 0.930 . S
H1791 C1788 0.930 . S
C1792 C1794 1.348 . S
C1792 C1795 1.356 . S
C1792 O1822 1.325 . S
N1793 C1796 1.314 . S
N1793 C1797 1.279 . S
C1794 C1792 1.348 . S
C1794 C1796 1.353 . S
C1794 H1836 0.929 1_554 S
C1795 C1792 1.356 . S
C1795 C1797 1.358 . S
C1795 H1837 0.930 . S
C1796 N1793 1.314 . S
C1796 C1794 1.353 . S
C1796 H1838 0.930 1_554 S
C1797 N1793 1.279 . S
C1797 C1795 1.358 . S
C1797 H1839 0.930 . S
C1798 C1799 1.348 . S
C1798 C1800 1.356 . S
C1798 O1823 1.325 . S
C1799 C1798 1.348 . S
C1799 C1801 1.353 . S
C1799 H1840 0.929 . S
C1800 C1798 1.356 . S
C1800 C1802 1.358 . S
C1800 H1841 0.930 . S
C1801 C1799 1.353 . S
C1801 N1803 1.314 . S
C1801 H1842 0.930 . S
C1802 C1800 1.358 . S
C1802 N1803 1.279 . S
C1802 H1843 0.930 . S
N1803 C1801 1.314 . S
N1803 C1802 1.279 . S
C1804 C1806 1.353 . S
C1804 N1807 1.314 . S
C1804 H1810 0.930 . S
C1805 N1807 1.279 . S
C1805 C1808 1.358 . S
C1805 H1811 0.930 . S
C1806 C1804 1.353 . S
C1806 C1809 1.348 . S
C1806 H1844 0.929 . S
N1807 Li1762 1.990 . S
N1807 C1804 1.314 . S
N1807 C1805 1.279 . S
C1808 C1805 1.358 . S
C1808 C1809 1.356 . S
C1808 H1845 0.930 . S
C1809 C1806 1.348 . S
C1809 C1808 1.356 . S
H1810 C1804 0.930 . S
H1811 C1805 0.930 . S
C1812 N1813 1.314 . S
C1812 C1814 1.353 . S
C1812 H1818 0.930 . S
N1813 Li1763 1.990 . S
N1813 C1812 1.314 . S
N1813 C1816 1.279 1_554 S
C1814 C1812 1.353 . S
C1814 C1817 1.362 . S
C1814 H1846 0.929 . S
C1815 C1816 1.358 . S
C1815 C1817 1.341 1_556 S
C1815 H1847 0.930 . S
C1816 N1813 1.279 1_556 S
C1816 C1815 1.358 . S
C1816 H1819 0.930 . S
C1817 C1814 1.362 . S
C1817 C1815 1.341 1_554 S
H1818 C1812 0.930 . S
H1819 C1816 0.930 . S
O1820 Li1760 1.956 . S
O1820 Li1761 1.970 . S
O1820 Li1762 1.961 1_554 S
O1820 C1764 1.325 . S
O1821 Li1760 1.970 . S
O1821 Li1761 1.956 . S
O1821 Li1763 1.961 . S
O1821 C1770 1.325 . S
O1822 Li1760 1.961 . S
O1822 Li1762 1.956 1_554 S
O1822 Li1763 1.970 . S
O1822 C1792 1.325 . S
O1823 Li1761 1.961 1_556 S
O1823 Li1762 1.970 . S
O1823 Li1763 1.956 1_556 S
O1823 C1798 1.325 . S
H1824 C1766 0.929 . S
H1825 C1767 0.930 . S
H1826 C1768 0.930 . S
H1827 C1769 0.930 . S
H1828 C1771 0.930 . S
H1829 C1773 0.929 . S
H1830 C1774 0.930 . S
H1831 C1775 0.930 . S
H1832 C1778 0.930 . S
H1833 C1781 0.929 . S
H1834 C1786 0.929 . S
H1835 C1787 0.930 . S
H1836 C1794 0.929 1_556 S
H1837 C1795 0.930 . S
H1838 C1796 0.930 1_556 S
H1839 C1797 0.930 . S
H1840 C1799 0.929 . S
H1841 C1800 0.930 . S
H1842 C1801 0.930 . S
H1843 C1802 0.930 . S
H1844 C1806 0.929 . S
H1845 C1808 0.930 . S
H1846 C1814 0.929 . S
H1847 C1815 0.930 . S
Li1848 N1865 1.990 . S
Li1848 O1908 1.956 . S
Li1848 O1909 1.970 . S
Li1848 O1910 1.961 . S
Li1849 N1873 1.990 . S
Li1849 O1908 1.970 . S
Li1849 O1909 1.956 . S
Li1849 O1911 1.961 . S
Li1850 N1895 1.990 . S
Li1850 O1908 1.961 . S
Li1850 O1910 1.956 . S
Li1850 O1911 1.970 . S
Li1851 N1901 1.990 . S
Li1851 O1909 1.961 . S
Li1851 O1910 1.970 . S
Li1851 O1911 1.956 . S
C1852 C1854 1.348 . S
C1852 C1855 1.356 . S
C1852 O1908 1.325 . S
N1853 C1856 1.314 . S
N1853 C1857 1.279 . S
C1854 C1852 1.348 . S
C1854 C1856 1.353 . S
C1854 H1912 0.929 . S
C1855 C1852 1.356 . S
C1855 C1857 1.358 . S
C1855 H1913 0.930 . S
C1856 N1853 1.314 . S
C1856 C1854 1.353 . S
C1856 H1914 0.930 . S
C1857 N1853 1.279 . S
C1857 C1855 1.358 . S
C1857 H1915 0.930 . S
C1858 C1861 1.348 . S
C1858 C1862 1.356 . S
C1858 O1909 1.325 . S
C1859 N1860 1.279 . S
C1859 C1862 1.358 . S
C1859 H1916 0.930 . S
N1860 C1859 1.279 . S
N1860 C1863 1.314 . S
C1861 C1858 1.348 . S
C1861 C1863 1.353 . S
C1861 H1917 0.929 . S
C1862 C1858 1.356 . S
C1862 C1859 1.358 . S
C1862 H1918 0.930 . S
C1863 N1860 1.314 . S
C1863 C1861 1.353 . S
C1863 H1919 0.930 . S
C1864 N1865 1.314 . S
C1864 C1869 1.353 . S
C1864 H1870 0.930 . S
N1865 Li1848 1.990 . S
N1865 C1864 1.314 . S
N1865 C1867 1.279 . S
C1866 C1867 1.358 . S
C1866 C1868 1.356 . S
C1866 H1920 0.930 . S
C1867 N1865 1.279 . S
C1867 C1866 1.358 . S
C1867 H1871 0.930 . S
C1868 C1866 1.356 . S
C1868 C1869 1.348 . S
C1869 C1864 1.353 . S
C1869 C1868 1.348 . S
C1869 H1921 0.929 . S
H1870 C1864 0.930 . S
H1871 C1867 0.930 . S
C1872 N1873 1.314 . S
C1872 C1874 1.353 . S
C1872 H1878 0.930 . S
N1873 Li1849 1.990 . S
N1873 C1872 1.314 . S
N1873 C1876 1.279 . S
C1874 C1872 1.353 . S
C1874 C1877 1.348 . S
C1874 H1922 0.929 . S
C1875 C1876 1.358 . S
C1875 C1877 1.356 . S
C1875 H1923 0.930 . S
C1876 N1873 1.279 . S
C1876 C1875 1.358 . S
C1876 H1879 0.930 . S
C1877 C1874 1.348 . S
C1877 C1875 1.356 . S
H1878 C1872 0.930 . S
H1879 C1876 0.930 . S
C1880 C1882 1.348 . S
C1880 C1883 1.356 . S
C1880 O1910 1.325 . S
N1881 C1884 1.314 . S
N1881 C1885 1.279 . S
C1882 C1880 1.348 . S
C1882 C1884 1.353 . S
C1882 H1924 0.929 . S
C1883 C1880 1.356 . S
C1883 C1885 1.358 . S
C1883 H1925 0.930 . S
C1884 N1881 1.314 . S
C1884 C1882 1.353 . S
C1884 H1926 0.930 . S
C1885 N1881 1.279 . S
C1885 C1883 1.358 . S
C1885 H1927 0.930 . S
C1886 C1887 1.348 . S
C1886 C1888 1.356 . S
C1886 O1911 1.325 . S
C1887 C1886 1.348 . S
C1887 C1889 1.353 . S
C1887 H1928 0.929 . S
C1888 C1886 1.356 . S
C1888 C1890 1.358 . S
C1888 H1929 0.930 . S
C1889 C1887 1.353 . S
C1889 N1891 1.314 . S
C1889 H1930 0.930 . S
C1890 C1888 1.358 . S
C1890 N1891 1.279 . S
C1890 H1931 0.930 . S
N1891 C1889 1.314 . S
N1891 C1890 1.279 . S
C1892 C1894 1.353 . S
C1892 N1895 1.314 . S
C1892 H1898 0.930 . S
C1893 N1895 1.279 . S
C1893 C1896 1.358 . S
C1893 H1899 0.930 . S
C1894 C1892 1.353 . S
C1894 C1897 1.348 . S
C1894 H1932 0.929 . S
N1895 Li1850 1.990 . S
N1895 C1892 1.314 . S
N1895 C1893 1.279 . S
C1896 C1893 1.358 . S
C1896 C1897 1.356 . S
C1896 H1933 0.930 . S
C1897 C1894 1.348 . S
C1897 C1896 1.356 . S
H1898 C1892 0.930 . S
H1899 C1893 0.930 . S
C1900 N1901 1.314 . S
C1900 C1902 1.353 . S
C1900 H1906 0.930 . S
N1901 Li1851 1.990 . S
N1901 C1900 1.314 . S
N1901 C1904 1.279 . S
C1902 C1900 1.353 . S
C1902 C1905 1.348 . S
C1902 H1934 0.929 . S
C1903 C1904 1.358 . S
C1903 C1905 1.356 . S
C1903 H1935 0.930 . S
C1904 N1901 1.279 . S
C1904 C1903 1.358 . S
C1904 H1907 0.930 . S
C1905 C1902 1.348 . S
C1905 C1903 1.356 . S
H1906 C1900 0.930 . S
H1907 C1904 0.930 . S
O1908 Li1848 1.956 . S
O1908 Li1849 1.970 . S
O1908 Li1850 1.961 . S
O1908 C1852 1.325 . S
O1909 Li1848 1.970 . S
O1909 Li1849 1.956 . S
O1909 Li1851 1.961 . S
O1909 C1858 1.325 . S
O1910 Li1848 1.961 . S
O1910 Li1850 1.956 . S
O1910 Li1851 1.970 . S
O1910 C1880 1.325 . S
O1911 Li1849 1.961 . S
O1911 Li1850 1.970 . S
O1911 Li1851 1.956 . S
O1911 C1886 1.325 . S
H1912 C1854 0.929 . S
H1913 C1855 0.930 . S
H1914 C1856 0.930 . S
H1915 C1857 0.930 . S
H1916 C1859 0.930 . S
H1917 C1861 0.929 . S
H1918 C1862 0.930 . S
H1919 C1863 0.930 . S
H1920 C1866 0.930 . S
H1921 C1869 0.929 . S
H1922 C1874 0.929 . S
H1923 C1875 0.930 . S
H1924 C1882 0.929 . S
H1925 C1883 0.930 . S
H1926 C1884 0.930 . S
H1927 C1885 0.930 . S
H1928 C1887 0.929 . S
H1929 C1888 0.930 . S
H1930 C1889 0.930 . S
H1931 C1890 0.930 . S
H1932 C1894 0.929 . S
H1933 C1896 0.930 . S
H1934 C1902 0.929 . S
H1935 C1903 0.930 . S
Li1936 N1953 1.990 . S
Li1936 O1996 1.956 . S
Li1936 O1997 1.970 . S
Li1936 O1998 1.961 . S
Li1937 N1961 1.990 . S
Li1937 O1996 1.970 . S
Li1937 O1997 1.956 . S
Li1937 O1999 1.961 . S
Li1938 N1983 1.990 . S
Li1938 O1996 1.961 . S
Li1938 O1998 1.956 . S
Li1938 O1999 1.970 . S
Li1939 N1989 1.990 . S
Li1939 O1997 1.961 . S
Li1939 O1998 1.970 . S
Li1939 O1999 1.956 . S
C1940 C1942 1.348 . S
C1940 C1943 1.356 . S
C1940 O1996 1.325 . S
N1941 C1944 1.314 . S
N1941 C1945 1.279 . S
C1942 C1940 1.348 . S
C1942 C1944 1.353 . S
C1942 H2000 0.929 . S
C1943 C1940 1.356 . S
C1943 C1945 1.358 . S
C1943 H2001 0.930 . S
C1944 N1941 1.314 . S
C1944 C1942 1.353 . S
C1944 H2002 0.930 . S
C1945 N1941 1.279 . S
C1945 C1943 1.358 . S
C1945 H2003 0.930 . S
C1946 C1949 1.348 . S
C1946 C1950 1.356 . S
C1946 O1997 1.325 . S
C1947 N1948 1.279 . S
C1947 C1950 1.358 . S
C1947 H2004 0.930 . S
N1948 C1947 1.279 . S
N1948 C1951 1.314 . S
C1949 C1946 1.348 . S
C1949 C1951 1.353 . S
C1949 H2005 0.929 . S
C1950 C1946 1.356 . S
C1950 C1947 1.358 . S
C1950 H2006 0.930 . S
C1951 N1948 1.314 . S
C1951 C1949 1.353 . S
C1951 H2007 0.930 . S
C1952 N1953 1.314 . S
C1952 C1957 1.353 . S
C1952 H1958 0.930 . S
N1953 Li1936 1.990 . S
N1953 C1952 1.314 . S
N1953 C1955 1.279 . S
C1954 C1955 1.358 . S
C1954 C1956 1.356 . S
C1954 H2008 0.930 . S
C1955 N1953 1.279 . S
C1955 C1954 1.358 . S
C1955 H1959 0.930 . S
C1956 C1954 1.356 . S
C1956 C1957 1.348 . S
C1957 C1952 1.353 . S
C1957 C1956 1.348 . S
C1957 H2009 0.929 . S
H1958 C1952 0.930 . S
H1959 C1955 0.930 . S
C1960 N1961 1.314 . S
C1960 C1962 1.353 . S
C1960 H1966 0.930 . S
N1961 Li1937 1.990 . S
N1961 C1960 1.314 . S
N1961 C1964 1.279 . S
C1962 C1960 1.353 . S
C1962 C1965 1.348 . S
C1962 H2010 0.929 . S
C1963 C1964 1.358 . S
C1963 C1965 1.356 . S
C1963 H2011 0.930 . S
C1964 N1961 1.279 . S
C1964 C1963 1.358 . S
C1964 H1967 0.930 . S
C1965 C1962 1.348 . S
C1965 C1963 1.356 . S
H1966 C1960 0.930 . S
H1967 C1964 0.930 . S
C1968 C1970 1.348 . S
C1968 C1971 1.356 . S
C1968 O1998 1.325 . S
N1969 C1972 1.314 . S
N1969 C1973 1.279 . S
C1970 C1968 1.348 . S
C1970 C1972 1.353 . S
C1970 H2012 0.929 . S
C1971 C1968 1.356 . S
C1971 C1973 1.358 . S
C1971 H2013 0.930 . S
C1972 N1969 1.314 . S
C1972 C1970 1.353 . S
C1972 H2014 0.930 . S
C1973 N1969 1.279 . S
C1973 C1971 1.358 . S
C1973 H2015 0.930 . S
C1974 C1975 1.348 . S
C1974 C1976 1.356 . S
C1974 O1999 1.325 . S
C1975 C1974 1.348 . S
C1975 C1977 1.353 . S
C1975 H2016 0.929 . S
C1976 C1974 1.356 . S
C1976 C1978 1.358 . S
C1976 H2017 0.930 . S
C1977 C1975 1.353 . S
C1977 N1979 1.314 . S
C1977 H2018 0.930 . S
C1978 C1976 1.358 . S
C1978 N1979 1.279 . S
C1978 H2019 0.930 . S
N1979 C1977 1.314 . S
N1979 C1978 1.279 . S
C1980 C1982 1.353 . S
C1980 N1983 1.314 . S
C1980 H1986 0.930 . S
C1981 N1983 1.279 . S
C1981 C1984 1.358 . S
C1981 H1987 0.930 . S
C1982 C1980 1.353 . S
C1982 C1985 1.348 . S
C1982 H2020 0.929 . S
N1983 Li1938 1.990 . S
N1983 C1980 1.314 . S
N1983 C1981 1.279 . S
C1984 C1981 1.358 . S
C1984 C1985 1.356 . S
C1984 H2021 0.930 . S
C1985 C1982 1.348 . S
C1985 C1984 1.356 . S
H1986 C1980 0.930 . S
H1987 C1981 0.930 . S
C1988 N1989 1.314 . S
C1988 C1990 1.353 . S
C1988 H1994 0.930 . S
N1989 Li1939 1.990 . S
N1989 C1988 1.314 . S
N1989 C1992 1.279 . S
C1990 C1988 1.353 . S
C1990 C1993 1.348 . S
C1990 H2022 0.929 . S
C1991 C1992 1.358 . S
C1991 C1993 1.356 . S
C1991 H2023 0.930 . S
C1992 N1989 1.279 . S
C1992 C1991 1.358 . S
C1992 H1995 0.930 . S
C1993 C1990 1.348 . S
C1993 C1991 1.356 . S
H1994 C1988 0.930 . S
H1995 C1992 0.930 . S
O1996 Li1936 1.956 . S
O1996 Li1937 1.970 . S
O1996 Li1938 1.961 . S
O1996 C1940 1.325 . S
O1997 Li1936 1.970 . S
O1997 Li1937 1.956 . S
O1997 Li1939 1.961 . S
O1997 C1946 1.325 . S
O1998 Li1936 1.961 . S
O1998 Li1938 1.956 . S
O1998 Li1939 1.970 . S
O1998 C1968 1.325 . S
O1999 Li1937 1.961 . S
O1999 Li1938 1.970 . S
O1999 Li1939 1.956 . S
O1999 C1974 1.325 . S
H2000 C1942 0.929 . S
H2001 C1943 0.930 . S
H2002 C1944 0.930 . S
H2003 C1945 0.930 . S
H2004 C1947 0.930 . S
H2005 C1949 0.929 . S
H2006 C1950 0.930 . S
H2007 C1951 0.930 . S
H2008 C1954 0.930 . S
H2009 C1957 0.929 . S
H2010 C1962 0.929 . S
H2011 C1963 0.930 . S
H2012 C1970 0.929 . S
H2013 C1971 0.930 . S
H2014 C1972 0.930 . S
H2015 C1973 0.930 . S
H2016 C1975 0.929 . S
H2017 C1976 0.930 . S
H2018 C1977 0.930 . S
H2019 C1978 0.930 . S
H2020 C1982 0.929 . S
H2021 C1984 0.930 . S
H2022 C1990 0.929 . S
H2023 C1991 0.930 . S
Li2024 N2041 1.990 . S
Li2024 O2084 1.956 . S
Li2024 O2085 1.970 . S
Li2024 O2086 1.961 . S
Li2025 N2049 1.990 . S
Li2025 O2084 1.970 . S
Li2025 O2085 1.956 . S
Li2025 O2087 1.961 . S
Li2026 N2071 1.990 . S
Li2026 O2084 1.961 . S
Li2026 O2086 1.956 . S
Li2026 O2087 1.970 . S
Li2027 N2077 1.990 . S
Li2027 O2085 1.961 . S
Li2027 O2086 1.970 . S
Li2027 O2087 1.956 . S
C2028 C2030 1.348 . S
C2028 C2031 1.356 . S
C2028 O2084 1.325 . S
N2029 C2032 1.314 . S
N2029 C2033 1.279 . S
C2030 C2028 1.348 . S
C2030 C2032 1.353 . S
C2030 H2088 0.929 . S
C2031 C2028 1.356 . S
C2031 C2033 1.358 . S
C2031 H2089 0.930 . S
C2032 N2029 1.314 . S
C2032 C2030 1.353 . S
C2032 H2090 0.930 . S
C2033 N2029 1.279 . S
C2033 C2031 1.358 . S
C2033 H2091 0.930 . S
C2034 C2037 1.348 . S
C2034 C2038 1.356 . S
C2034 O2085 1.325 . S
C2035 N2036 1.279 . S
C2035 C2038 1.358 . S
C2035 H2092 0.930 . S
N2036 C2035 1.279 . S
N2036 C2039 1.314 . S
C2037 C2034 1.348 . S
C2037 C2039 1.353 . S
C2037 H2093 0.929 . S
C2038 C2034 1.356 . S
C2038 C2035 1.358 . S
C2038 H2094 0.930 . S
C2039 N2036 1.314 . S
C2039 C2037 1.353 . S
C2039 H2095 0.930 . S
C2040 N2041 1.314 . S
C2040 C2045 1.353 . S
C2040 H2046 0.930 . S
N2041 Li2024 1.990 . S
N2041 C2040 1.314 . S
N2041 C2043 1.279 . S
C2042 C2043 1.358 . S
C2042 C2044 1.356 . S
C2042 H2096 0.930 . S
C2043 N2041 1.279 . S
C2043 C2042 1.358 . S
C2043 H2047 0.930 . S
C2044 C2042 1.356 . S
C2044 C2045 1.348 . S
C2045 C2040 1.353 . S
C2045 C2044 1.348 . S
C2045 H2097 0.929 . S
H2046 C2040 0.930 . S
H2047 C2043 0.930 . S
C2048 N2049 1.314 . S
C2048 C2050 1.353 . S
C2048 H2054 0.930 . S
N2049 Li2025 1.990 . S
N2049 C2048 1.314 . S
N2049 C2052 1.279 . S
C2050 C2048 1.353 . S
C2050 C2053 1.348 . S
C2050 H2098 0.929 . S
C2051 C2052 1.358 . S
C2051 C2053 1.356 . S
C2051 H2099 0.930 . S
C2052 N2049 1.279 . S
C2052 C2051 1.358 . S
C2052 H2055 0.930 . S
C2053 C2050 1.348 . S
C2053 C2051 1.356 . S
H2054 C2048 0.930 . S
H2055 C2052 0.930 . S
C2056 C2058 1.348 . S
C2056 C2059 1.356 . S
C2056 O2086 1.325 . S
N2057 C2060 1.314 . S
N2057 C2061 1.279 . S
C2058 C2056 1.348 . S
C2058 C2060 1.353 . S
C2058 H2100 0.929 . S
C2059 C2056 1.356 . S
C2059 C2061 1.358 . S
C2059 H2101 0.930 . S
C2060 N2057 1.314 . S
C2060 C2058 1.353 . S
C2060 H2102 0.930 . S
C2061 N2057 1.279 . S
C2061 C2059 1.358 . S
C2061 H2103 0.930 . S
C2062 C2063 1.348 . S
C2062 C2064 1.356 . S
C2062 O2087 1.325 . S
C2063 C2062 1.348 . S
C2063 C2065 1.353 . S
C2063 H2104 0.929 . S
C2064 C2062 1.356 . S
C2064 C2066 1.358 . S
C2064 H2105 0.930 . S
C2065 C2063 1.353 . S
C2065 N2067 1.314 . S
C2065 H2106 0.930 . S
C2066 C2064 1.358 . S
C2066 N2067 1.279 . S
C2066 H2107 0.930 . S
N2067 C2065 1.314 . S
N2067 C2066 1.279 . S
C2068 C2070 1.353 . S
C2068 N2071 1.314 . S
C2068 H2074 0.930 . S
C2069 N2071 1.279 . S
C2069 C2072 1.358 . S
C2069 H2075 0.930 . S
C2070 C2068 1.353 . S
C2070 C2073 1.348 . S
C2070 H2108 0.929 . S
N2071 Li2026 1.990 . S
N2071 C2068 1.314 . S
N2071 C2069 1.279 . S
C2072 C2069 1.358 . S
C2072 C2073 1.356 . S
C2072 H2109 0.930 . S
C2073 C2070 1.348 . S
C2073 C2072 1.356 . S
H2074 C2068 0.930 . S
H2075 C2069 0.930 . S
C2076 N2077 1.314 . S
C2076 C2078 1.353 . S
C2076 H2082 0.930 . S
N2077 Li2027 1.990 . S
N2077 C2076 1.314 . S
N2077 C2080 1.279 . S
C2078 C2076 1.353 . S
C2078 C2081 1.348 . S
C2078 H2110 0.929 . S
C2079 C2080 1.358 . S
C2079 C2081 1.356 . S
C2079 H2111 0.930 . S
C2080 N2077 1.279 . S
C2080 C2079 1.358 . S
C2080 H2083 0.930 . S
C2081 C2078 1.348 . S
C2081 C2079 1.356 . S
H2082 C2076 0.930 . S
H2083 C2080 0.930 . S
O2084 Li2024 1.956 . S
O2084 Li2025 1.970 . S
O2084 Li2026 1.961 . S
O2084 C2028 1.325 . S
O2085 Li2024 1.970 . S
O2085 Li2025 1.956 . S
O2085 Li2027 1.961 . S
O2085 C2034 1.325 . S
O2086 Li2024 1.961 . S
O2086 Li2026 1.956 . S
O2086 Li2027 1.970 . S
O2086 C2056 1.325 . S
O2087 Li2025 1.961 . S
O2087 Li2026 1.970 . S
O2087 Li2027 1.956 . S
O2087 C2062 1.325 . S
H2088 C2030 0.929 . S
H2089 C2031 0.930 . S
H2090 C2032 0.930 . S
H2091 C2033 0.930 . S
H2092 C2035 0.930 . S
H2093 C2037 0.929 . S
H2094 C2038 0.930 . S
H2095 C2039 0.930 . S
H2096 C2042 0.930 . S
H2097 C2045 0.929 . S
H2098 C2050 0.929 . S
H2099 C2051 0.930 . S
H2100 C2058 0.929 . S
H2101 C2059 0.930 . S
H2102 C2060 0.930 . S
H2103 C2061 0.930 . S
H2104 C2063 0.929 . S
H2105 C2064 0.930 . S
H2106 C2065 0.930 . S
H2107 C2066 0.930 . S
H2108 C2070 0.929 . S
H2109 C2072 0.930 . S
H2110 C2078 0.929 . S
H2111 C2079 0.930 . S
C2112 C2114 1.422 1_556 S
C2112 C2116 1.415 . S
C2112 N2118 1.369 . S
C2113 C2114 1.421 . S
C2113 C2115 1.417 1_554 S
C2113 C2125 1.422 . S
C2114 C2112 1.422 1_554 S
C2114 C2113 1.421 . S
C2114 N2124 1.359 . S
C2115 C2113 1.417 1_556 S
C2115 C2117 1.329 . S
C2115 H2134 0.951 . S
C2116 C2112 1.415 . S
C2116 C2117 1.437 . S
C2116 C2120 1.413 . S
C2117 C2115 1.329 . S
C2117 C2116 1.437 . S
C2117 H2139 0.929 . S
N2118 C2112 1.369 . S
N2118 C2119 1.338 . S
N2118 Gd2123 2.622 1_566 S
C2119 N2118 1.338 . S
C2119 C2121 1.378 . S
C2119 H2131 0.929 . S
C2120 C2116 1.413 . S
C2120 C2121 1.348 . S
C2120 H2136 0.931 . S
C2121 C2119 1.378 . S
C2121 C2120 1.348 . S
C2121 H2137 0.930 . S
Gd2122 N2142 2.622 . S
Gd2122 N2149 2.570 . S
Gd2122 O2156 2.335 1_545 S
Gd2122 O2157 2.468 . S
Gd2122 O2158 2.427 . S
Gd2122 O2160 2.388 . S
Gd2122 O2161 2.386 . S
Gd2122 O2165 2.307 . S
Gd2122 C2175 2.805 . S
Gd2123 N2118 2.622 1_544 S
Gd2123 N2124 2.570 1_545 S
Gd2123 O2155 2.386 1_645 S
Gd2123 O2159 2.307 1_655 S
Gd2123 O2162 2.353 1_655 S
Gd2123 O2163 2.468 . S
Gd2123 O2164 2.427 1_554 S
Gd2123 O2166 2.388 1_654 S
Gd2123 C2187 2.805 . S
N2124 C2114 1.359 . S
N2124 Gd2123 2.570 1_565 S
N2124 C2126 1.343 . S
C2125 C2113 1.422 . S
C2125 C2127 1.321 . S
C2125 H2133 0.931 . S
C2126 N2124 1.343 . S
C2126 C2127 1.390 . S
C2126 H2128 0.931 . S
C2127 C2125 1.321 . S
C2127 C2126 1.390 . S
C2127 H2129 0.930 . S
H2128 C2126 0.931 . S
H2129 C2127 0.930 . S
H2130 C2153 0.932 1_556 S
H2131 C2119 0.929 . S
H2132 C2154 0.930 1_556 S
H2133 C2125 0.931 . S
H2134 C2115 0.951 . S
H2135 C2144 0.929 . S
H2136 C2120 0.931 . S
H2137 C2121 0.930 . S
H2138 C2176 0.930 . S
H2139 C2117 0.929 . S
H2140 C2145 0.931 . S
H2141 C2146 0.930 . S
N2142 Gd2122 2.622 . S
N2142 C2143 1.369 . S
N2142 C2144 1.338 . S
C2143 N2142 1.369 . S
C2143 C2147 1.415 . S
C2143 C2150 1.422 . S
C2144 H2135 0.929 . S
C2144 N2142 1.338 . S
C2144 C2146 1.378 . S
C2145 H2140 0.931 . S
C2145 C2146 1.348 . S
C2145 C2147 1.413 . S
C2146 H2141 0.930 . S
C2146 C2144 1.378 . S
C2146 C2145 1.348 . S
C2147 C2143 1.415 . S
C2147 C2145 1.413 . S
C2147 C2177 1.437 . S
H2148 C2177 0.929 . S
N2149 Gd2122 2.570 . S
N2149 C2150 1.359 . S
N2149 C2153 1.343 . S
C2150 C2143 1.422 . S
C2150 N2149 1.359 . S
C2150 C2152 1.421 . S
C2151 C2152 1.422 . S
C2151 C2154 1.321 . S
C2151 H2178 0.931 . S
C2152 C2150 1.421 . S
C2152 C2151 1.422 . S
C2152 C2176 1.417 . S
C2153 H2130 0.932 1_554 S
C2153 N2149 1.343 . S
C2153 C2154 1.390 . S
C2154 H2132 0.930 1_554 S
C2154 C2151 1.321 . S
C2154 C2153 1.390 . S
O2155 Gd2123 2.386 1_465 S
O2155 C2167 1.265 . S
O2156 Gd2122 2.335 1_565 S
O2156 C2167 1.252 . S
O2157 Gd2122 2.468 . S
O2157 C2175 1.263 . S
O2158 Gd2122 2.427 . S
O2158 C2175 1.252 . S
O2159 Gd2123 2.307 1_455 S
O2159 C2168 1.261 . S
O2160 Gd2122 2.388 . S
O2160 C2168 1.252 . S
O2161 Gd2122 2.386 . S
O2161 C2179 1.265 . S
O2162 Gd2123 2.353 1_455 S
O2162 C2179 1.242 . S
O2163 Gd2123 2.468 . S
O2163 C2187 1.263 . S
O2164 Gd2123 2.427 1_556 S
O2164 C2187 1.252 1_556 S
O2165 Gd2122 2.307 . S
O2165 C2180 1.261 1_554 S
O2166 Gd2123 2.388 1_456 S
O2166 C2180 1.252 . S
C2167 O2155 1.265 . S
C2167 O2156 1.252 . S
C2168 O2159 1.261 . S
C2168 O2160 1.252 . S
C2169 C2172 1.394 . S
C2169 C2174 1.370 . S
C2169 C2175 1.500 . S
C2170 C2173 1.377 . S
C2170 C2174 1.395 1_565 S
C2171 C2172 1.396 . S
C2171 C2173 1.351 1_545 S
C2171 H2188 0.929 . S
C2172 C2169 1.394 . S
C2172 C2171 1.396 . S
C2172 H2189 0.930 . S
C2173 C2170 1.377 . S
C2173 C2171 1.351 1_565 S
C2173 H2190 0.954 . S
C2174 C2169 1.370 . S
C2174 C2170 1.395 1_545 S
C2174 H2191 0.930 . S
C2175 Gd2122 2.805 . S
C2175 O2157 1.263 . S
C2175 O2158 1.252 . S
C2175 C2169 1.500 . S
C2176 H2138 0.930 . S
C2176 C2152 1.417 . S
C2176 C2177 1.329 . S
C2177 C2147 1.437 . S
C2177 H2148 0.929 . S
C2177 C2176 1.329 . S
H2178 C2151 0.931 . S
C2179 O2161 1.265 . S
C2179 O2162 1.242 . S
C2180 O2165 1.261 1_556 S
C2180 O2166 1.252 . S
C2181 C2184 1.394 . S
C2181 C2186 1.370 1_556 S
C2181 C2187 1.500 1_556 S
C2182 C2185 1.383 1_554 S
C2182 C2186 1.395 . S
C2183 C2184 1.396 . S
C2183 C2185 1.365 . S
C2183 H2192 0.929 . S
C2184 C2181 1.394 . S
C2184 C2183 1.396 . S
C2184 H2193 0.930 . S
C2185 C2182 1.383 1_556 S
C2185 C2183 1.365 . S
C2185 H2194 0.931 . S
C2186 C2181 1.370 1_554 S
C2186 C2182 1.395 . S
C2186 H2195 0.930 . S
C2187 Gd2123 2.805 . S
C2187 O2163 1.263 . S
C2187 O2164 1.252 1_554 S
C2187 C2181 1.500 1_554 S
H2188 C2171 0.929 . S
H2189 C2172 0.930 . S
H2190 C2173 0.954 . S
H2191 C2174 0.930 . S
H2192 C2183 0.929 . S
H2193 C2184 0.930 . S
H2194 C2185 0.931 . S
H2195 C2186 0.930 . S
C2196 C2198 1.422 . S
C2196 C2200 1.415 . S
C2196 N2202 1.369 . S
C2197 C2198 1.421 . S
C2197 C2199 1.417 . S
C2197 C2209 1.422 . S
C2198 C2196 1.422 . S
C2198 C2197 1.421 . S
C2198 N2208 1.359 . S
C2199 C2197 1.417 . S
C2199 C2201 1.329 . S
C2199 H2218 0.930 . S
C2200 C2196 1.415 . S
C2200 C2201 1.437 . S
C2200 C2204 1.413 . S
C2201 C2199 1.329 . S
C2201 C2200 1.437 . S
C2201 H2223 0.929 . S
N2202 C2196 1.369 . S
N2202 C2203 1.338 . S
N2202 Gd2207 2.622 . S
C2203 N2202 1.338 . S
C2203 C2205 1.378 . S
C2203 H2215 0.929 . S
C2204 C2200 1.413 . S
C2204 C2205 1.348 . S
C2204 H2220 0.931 . S
C2205 C2203 1.378 . S
C2205 C2204 1.348 . S
C2205 H2221 0.930 . S
Gd2206 N2226 2.622 . S
Gd2206 N2233 2.570 . S
Gd2206 O2240 2.353 . S
Gd2206 O2241 2.468 . S
Gd2206 O2242 2.427 . S
Gd2206 O2244 2.388 . S
Gd2206 O2245 2.386 . S
Gd2206 O2249 2.307 . S
Gd2206 C2259 2.805 . S
Gd2207 N2202 2.622 . S
Gd2207 N2208 2.570 . S
Gd2207 O2239 2.386 . S
Gd2207 O2243 2.307 . S
Gd2207 O2246 2.353 . S
Gd2207 O2247 2.468 . S
Gd2207 O2248 2.427 . S
Gd2207 O2250 2.388 . S
Gd2207 C2271 2.805 . S
N2208 C2198 1.359 . S
N2208 Gd2207 2.570 . S
N2208 C2210 1.343 . S
C2209 C2197 1.422 . S
C2209 C2211 1.321 . S
C2209 H2217 0.931 . S
C2210 N2208 1.343 . S
C2210 C2211 1.390 . S
C2210 H2212 0.931 . S
C2211 C2209 1.321 . S
C2211 C2210 1.390 . S
C2211 H2213 0.930 . S
H2212 C2210 0.931 . S
H2213 C2211 0.930 . S
H2214 C2237 0.931 . S
H2215 C2203 0.929 . S
H2216 C2238 0.930 . S
H2217 C2209 0.931 . S
H2218 C2199 0.930 . S
H2219 C2228 0.929 . S
H2220 C2204 0.931 . S
H2221 C2205 0.930 . S
H2222 C2260 0.930 . S
H2223 C2201 0.929 . S
H2224 C2229 0.931 . S
H2225 C2230 0.930 . S
N2226 Gd2206 2.622 . S
N2226 C2227 1.369 . S
N2226 C2228 1.338 . S
C2227 N2226 1.369 . S
C2227 C2231 1.415 . S
C2227 C2234 1.422 . S
C2228 H2219 0.929 . S
C2228 N2226 1.338 . S
C2228 C2230 1.378 . S
C2229 H2224 0.931 . S
C2229 C2230 1.348 . S
C2229 C2231 1.413 . S
C2230 H2225 0.930 . S
C2230 C2228 1.378 . S
C2230 C2229 1.348 . S
C2231 C2227 1.415 . S
C2231 C2229 1.413 . S
C2231 C2261 1.437 . S
H2232 C2261 0.929 . S
N2233 Gd2206 2.570 . S
N2233 C2234 1.359 . S
N2233 C2237 1.343 . S
C2234 C2227 1.422 . S
C2234 N2233 1.359 . S
C2234 C2236 1.421 . S
C2235 C2236 1.422 . S
C2235 C2238 1.321 . S
C2235 H2262 0.931 . S
C2236 C2234 1.421 . S
C2236 C2235 1.422 . S
C2236 C2260 1.417 . S
C2237 H2214 0.931 . S
C2237 N2233 1.343 . S
C2237 C2238 1.390 . S
C2238 H2216 0.930 . S
C2238 C2235 1.321 . S
C2238 C2237 1.390 . S
O2239 Gd2207 2.386 . S
O2239 C2251 1.265 . S
O2240 Gd2206 2.353 . S
O2240 C2251 1.242 . S
O2241 Gd2206 2.468 . S
O2241 C2259 1.263 . S
O2242 Gd2206 2.427 . S
O2242 C2259 1.252 . S
O2243 Gd2207 2.307 . S
O2243 C2252 1.261 . S
O2244 Gd2206 2.388 . S
O2244 C2252 1.252 . S
O2245 Gd2206 2.386 . S
O2245 C2263 1.265 . S
O2246 Gd2207 2.353 . S
O2246 C2263 1.242 . S
O2247 Gd2207 2.468 . S
O2247 C2271 1.263 . S
O2248 Gd2207 2.427 . S
O2248 C2271 1.252 . S
O2249 Gd2206 2.307 . S
O2249 C2264 1.261 . S
O2250 Gd2207 2.388 . S
O2250 C2264 1.252 . S
C2251 O2239 1.265 . S
C2251 O2240 1.242 . S
C2252 O2243 1.261 . S
C2252 O2244 1.252 . S
C2253 C2256 1.394 . S
C2253 C2258 1.370 . S
C2253 C2259 1.500 . S
C2254 C2257 1.383 . S
C2254 C2258 1.395 . S
C2255 C2256 1.396 . S
C2255 C2257 1.365 . S
C2255 H2272 0.929 . S
C2256 C2253 1.394 . S
C2256 C2255 1.396 . S
C2256 H2273 0.930 . S
C2257 C2254 1.383 . S
C2257 C2255 1.365 . S
C2257 H2274 0.931 . S
C2258 C2253 1.370 . S
C2258 C2254 1.395 . S
C2258 H2275 0.930 . S
C2259 Gd2206 2.805 . S
C2259 O2241 1.263 . S
C2259 O2242 1.252 . S
C2259 C2253 1.500 . S
C2260 H2222 0.930 . S
C2260 C2236 1.417 . S
C2260 C2261 1.329 . S
C2261 C2231 1.437 . S
C2261 H2232 0.929 . S
C2261 C2260 1.329 . S
H2262 C2235 0.931 . S
C2263 O2245 1.265 . S
C2263 O2246 1.242 . S
C2264 O2249 1.261 . S
C2264 O2250 1.252 . S
C2265 C2268 1.394 . S
C2265 C2270 1.370 . S
C2265 C2271 1.500 . S
C2266 C2269 1.383 . S
C2266 C2270 1.395 . S
C2267 C2268 1.396 . S
C2267 C2269 1.365 . S
C2267 H2276 0.929 . S
C2268 C2265 1.394 . S
C2268 C2267 1.396 . S
C2268 H2277 0.930 . S
C2269 C2266 1.383 . S
C2269 C2267 1.365 . S
C2269 H2278 0.931 . S
C2270 C2265 1.370 . S
C2270 C2266 1.395 . S
C2270 H2279 0.930 . S
C2271 Gd2207 2.805 . S
C2271 O2247 1.263 . S
C2271 O2248 1.252 . S
C2271 C2265 1.500 . S
H2272 C2255 0.929 . S
H2273 C2256 0.930 . S
H2274 C2257 0.931 . S
H2275 C2258 0.930 . S
H2276 C2267 0.929 . S
H2277 C2268 0.930 . S
H2278 C2269 0.931 . S
H2279 C2270 0.930 . S
C2280 C2282 1.422 . S
C2280 C2284 1.415 . S
C2280 N2286 1.369 . S
C2281 C2282 1.421 . S
C2281 C2283 1.417 . S
C2281 C2293 1.422 . S
C2282 C2280 1.422 . S
C2282 C2281 1.421 . S
C2282 N2292 1.359 . S
C2283 C2281 1.417 . S
C2283 C2285 1.329 . S
C2283 H2302 0.930 . S
C2284 C2280 1.415 . S
C2284 C2285 1.437 . S
C2284 C2288 1.413 . S
C2285 C2283 1.329 . S
C2285 C2284 1.437 . S
C2285 H2307 0.929 . S
N2286 C2280 1.369 . S
N2286 C2287 1.338 . S
N2286 Gd2291 2.622 . S
C2287 N2286 1.338 . S
C2287 C2289 1.378 . S
C2287 H2299 0.929 . S
C2288 C2284 1.413 . S
C2288 C2289 1.348 . S
C2288 H2304 0.931 . S
C2289 C2287 1.378 . S
C2289 C2288 1.348 . S
C2289 H2305 0.930 . S
Gd2290 N2310 2.622 1_545 S
Gd2290 N2317 2.570 1_545 S
Gd2290 O2324 2.353 . S
Gd2290 O2325 2.468 . S
Gd2290 O2326 2.427 . S
Gd2290 O2328 2.388 . S
Gd2290 O2329 2.386 1_545 S
Gd2290 O2333 2.307 . S
Gd2290 C2343 2.805 . S
Gd2291 N2286 2.622 . S
Gd2291 N2292 2.570 . S
Gd2291 O2323 2.386 . S
Gd2291 O2327 2.307 . S
Gd2291 O2330 2.353 1_545 S
Gd2291 O2331 2.468 . S
Gd2291 O2332 2.427 . S
Gd2291 O2334 2.388 . S
Gd2291 C2355 2.805 . S
N2292 C2282 1.359 . S
N2292 Gd2291 2.570 . S
N2292 C2294 1.343 . S
C2293 C2281 1.422 . S
C2293 C2295 1.321 . S
C2293 H2301 0.931 . S
C2294 N2292 1.343 . S
C2294 C2295 1.390 . S
C2294 H2296 0.931 . S
C2295 C2293 1.321 . S
C2295 C2294 1.390 . S
C2295 H2297 0.930 . S
H2296 C2294 0.931 . S
H2297 C2295 0.930 . S
H2298 C2321 0.931 . S
H2299 C2287 0.929 . S
H2300 C2322 0.930 . S
H2301 C2293 0.931 . S
H2302 C2283 0.930 . S
H2303 C2312 0.951 . S
H2304 C2288 0.931 . S
H2305 C2289 0.930 . S
H2306 C2344 0.930 . S
H2307 C2285 0.929 . S
H2308 C2313 0.931 . S
H2309 C2314 0.930 . S
N2310 Gd2290 2.622 1_565 S
N2310 C2311 1.369 . S
N2310 C2312 1.339 1_565 S
C2311 N2310 1.369 . S
C2311 C2315 1.415 . S
C2311 C2318 1.422 . S
C2312 H2303 0.951 . S
C2312 N2310 1.339 1_545 S
C2312 C2314 1.357 1_545 S
C2313 H2308 0.931 . S
C2313 C2314 1.348 . S
C2313 C2315 1.413 . S
C2314 H2309 0.930 . S
C2314 C2312 1.357 1_565 S
C2314 C2313 1.348 . S
C2315 C2311 1.415 . S
C2315 C2313 1.413 . S
C2315 C2345 1.437 . S
H2316 C2345 0.929 . S
N2317 Gd2290 2.570 1_565 S
N2317 C2318 1.359 . S
N2317 C2321 1.343 . S
C2318 C2311 1.422 . S
C2318 N2317 1.359 . S
C2318 C2320 1.421 . S
C2319 C2320 1.422 . S
C2319 C2322 1.321 . S
C2319 H2346 0.931 . S
C2320 C2318 1.421 . S
C2320 C2319 1.422 . S
C2320 C2344 1.417 . S
C2321 H2298 0.931 . S
C2321 N2317 1.343 . S
C2321 C2322 1.390 . S
C2322 H2300 0.930 . S
C2322 C2319 1.321 . S
C2322 C2321 1.390 . S
O2323 Gd2291 2.386 . S
O2323 C2335 1.265 . S
O2324 Gd2290 2.353 . S
O2324 C2335 1.242 . S
O2325 Gd2290 2.468 . S
O2325 C2343 1.263 . S
O2326 Gd2290 2.427 . S
O2326 C2343 1.252 . S
O2327 Gd2291 2.307 . S
O2327 C2336 1.261 . S
O2328 Gd2290 2.388 . S
O2328 C2336 1.252 . S
O2329 Gd2290 2.386 1_565 S
O2329 C2347 1.265 . S
O2330 Gd2291 2.353 1_565 S
O2330 C2347 1.242 . S
O2331 Gd2291 2.468 . S
O2331 C2355 1.263 . S
O2332 Gd2291 2.427 . S
O2332 C2355 1.252 . S
O2333 Gd2290 2.307 . S
O2333 C2348 1.261 . S
O2334 Gd2291 2.388 . S
O2334 C2348 1.252 . S
C2335 O2323 1.265 . S
C2335 O2324 1.242 . S
C2336 O2327 1.261 . S
C2336 O2328 1.252 . S
C2337 C2340 1.394 . S
C2337 C2342 1.370 . S
C2337 C2343 1.500 . S
C2338 C2341 1.383 . S
C2338 C2342 1.395 . S
C2339 C2340 1.396 . S
C2339 C2341 1.365 . S
C2339 H2356 0.929 . S
C2340 C2337 1.394 . S
C2340 C2339 1.396 . S
C2340 H2357 0.930 . S
C2341 C2338 1.383 . S
C2341 C2339 1.365 . S
C2341 H2358 0.931 . S
C2342 C2337 1.370 . S
C2342 C2338 1.395 . S
C2342 H2359 0.930 . S
C2343 Gd2290 2.805 . S
C2343 O2325 1.263 . S
C2343 O2326 1.252 . S
C2343 C2337 1.500 . S
C2344 H2306 0.930 . S
C2344 C2320 1.417 . S
C2344 C2345 1.329 . S
C2345 C2315 1.437 . S
C2345 H2316 0.929 . S
C2345 C2344 1.329 . S
H2346 C2319 0.931 . S
C2347 O2329 1.265 . S
C2347 O2330 1.242 . S
C2348 O2333 1.261 . S
C2348 O2334 1.252 . S
C2349 C2352 1.394 . S
C2349 C2354 1.370 . S
C2349 C2355 1.500 1_565 S
C2350 C2353 1.383 . S
C2350 C2354 1.395 . S
C2351 C2352 1.396 . S
C2351 C2353 1.365 . S
C2351 H2360 0.929 . S
C2352 C2349 1.394 . S
C2352 C2351 1.396 . S
C2352 H2361 0.930 . S
C2353 C2350 1.383 . S
C2353 C2351 1.365 . S
C2353 H2362 0.931 . S
C2354 C2349 1.370 . S
C2354 C2350 1.395 . S
C2354 H2363 0.930 . S
C2355 Gd2291 2.805 . S
C2355 O2331 1.263 . S
C2355 O2332 1.252 . S
C2355 C2349 1.500 1_545 S
H2356 C2339 0.929 . S
H2357 C2340 0.930 . S
H2358 C2341 0.931 . S
H2359 C2342 0.930 . S
H2360 C2351 0.929 . S
H2361 C2352 0.930 . S
H2362 C2353 0.931 . S
H2363 C2354 0.930 . S
C2364 C2366 1.422 . S
C2364 C2368 1.415 . S
C2364 N2370 1.369 . S
C2365 C2366 1.421 . S
C2365 C2367 1.417 . S
C2365 C2377 1.422 . S
C2366 C2364 1.422 . S
C2366 C2365 1.421 . S
C2366 N2376 1.359 . S
C2367 C2365 1.417 . S
C2367 C2369 1.329 . S
C2367 H2386 0.930 . S
C2368 C2364 1.415 . S
C2368 C2369 1.437 . S
C2368 C2372 1.413 . S
C2369 C2367 1.329 . S
C2369 C2368 1.437 . S
C2369 H2391 0.929 . S
N2370 C2364 1.369 . S
N2370 C2371 1.338 . S
N2370 Gd2375 2.622 . S
C2371 N2370 1.338 . S
C2371 C2373 1.378 . S
C2371 H2383 0.929 . S
C2372 C2368 1.413 . S
C2372 C2373 1.348 . S
C2372 H2388 0.931 . S
C2373 C2371 1.378 . S
C2373 C2372 1.348 . S
C2373 H2389 0.930 . S
Gd2374 N2394 2.622 . S
Gd2374 N2401 2.570 . S
Gd2374 O2408 2.353 . S
Gd2374 O2409 2.468 . S
Gd2374 O2410 2.427 . S
Gd2374 O2412 2.388 . S
Gd2374 O2413 2.386 . S
Gd2374 O2417 2.307 . S
Gd2374 C2427 2.805 . S
Gd2375 N2370 2.622 . S
Gd2375 N2376 2.570 . S
Gd2375 O2407 2.386 . S
Gd2375 O2411 2.307 . S
Gd2375 O2414 2.353 . S
Gd2375 O2415 2.468 . S
Gd2375 O2416 2.427 . S
Gd2375 O2418 2.388 . S
Gd2375 C2439 2.805 . S
N2376 C2366 1.359 . S
N2376 Gd2375 2.570 . S
N2376 C2378 1.343 . S
C2377 C2365 1.422 . S
C2377 C2379 1.321 . S
C2377 H2385 0.931 . S
C2378 N2376 1.343 . S
C2378 C2379 1.390 . S
C2378 H2380 0.931 . S
C2379 C2377 1.321 . S
C2379 C2378 1.390 . S
C2379 H2381 0.930 . S
H2380 C2378 0.931 . S
H2381 C2379 0.930 . S
H2382 C2405 0.931 . S
H2383 C2371 0.929 . S
H2384 C2406 0.930 . S
H2385 C2377 0.931 . S
H2386 C2367 0.930 . S
H2387 C2396 0.929 . S
H2388 C2372 0.931 . S
H2389 C2373 0.930 . S
H2390 C2428 0.930 . S
H2391 C2369 0.929 . S
H2392 C2397 0.931 . S
H2393 C2398 0.930 . S
N2394 Gd2374 2.622 . S
N2394 C2395 1.369 . S
N2394 C2396 1.338 . S
C2395 N2394 1.369 . S
C2395 C2399 1.415 . S
C2395 C2402 1.422 . S
C2396 H2387 0.929 . S
C2396 N2394 1.338 . S
C2396 C2398 1.378 . S
C2397 H2392 0.931 . S
C2397 C2398 1.348 . S
C2397 C2399 1.413 . S
C2398 H2393 0.930 . S
C2398 C2396 1.378 . S
C2398 C2397 1.348 . S
C2399 C2395 1.415 . S
C2399 C2397 1.413 . S
C2399 C2429 1.437 . S
H2400 C2429 0.929 . S
N2401 Gd2374 2.570 . S
N2401 C2402 1.359 . S
N2401 C2405 1.343 . S
C2402 C2395 1.422 . S
C2402 N2401 1.359 . S
C2402 C2404 1.421 . S
C2403 C2404 1.422 . S
C2403 C2406 1.321 . S
C2403 H2430 0.931 . S
C2404 C2402 1.421 . S
C2404 C2403 1.422 . S
C2404 C2428 1.417 . S
C2405 H2382 0.931 . S
C2405 N2401 1.343 . S
C2405 C2406 1.390 . S
C2406 H2384 0.930 . S
C2406 C2403 1.321 . S
C2406 C2405 1.390 . S
O2407 Gd2375 2.386 . S
O2407 C2419 1.265 . S
O2408 Gd2374 2.353 . S
O2408 C2419 1.242 . S
O2409 Gd2374 2.468 . S
O2409 C2427 1.263 . S
O2410 Gd2374 2.427 . S
O2410 C2427 1.252 . S
O2411 Gd2375 2.307 . S
O2411 C2420 1.261 . S
O2412 Gd2374 2.388 . S
O2412 C2420 1.252 . S
O2413 Gd2374 2.386 . S
O2413 C2431 1.265 . S
O2414 Gd2375 2.353 . S
O2414 C2431 1.242 . S
O2415 Gd2375 2.468 . S
O2415 C2439 1.263 . S
O2416 Gd2375 2.427 . S
O2416 C2439 1.252 . S
O2417 Gd2374 2.307 . S
O2417 C2432 1.261 . S
O2418 Gd2375 2.388 . S
O2418 C2432 1.252 . S
C2419 O2407 1.265 . S
C2419 O2408 1.242 . S
C2420 O2411 1.261 . S
C2420 O2412 1.252 . S
C2421 C2424 1.394 . S
C2421 C2426 1.370 . S
C2421 C2427 1.500 . S
C2422 C2425 1.383 . S
C2422 C2426 1.395 . S
C2423 C2424 1.396 . S
C2423 C2425 1.365 . S
C2423 H2440 0.929 . S
C2424 C2421 1.394 . S
C2424 C2423 1.396 . S
C2424 H2441 0.930 . S
C2425 C2422 1.383 . S
C2425 C2423 1.365 . S
C2425 H2442 0.931 . S
C2426 C2421 1.370 . S
C2426 C2422 1.395 . S
C2426 H2443 0.930 . S
C2427 Gd2374 2.805 . S
C2427 O2409 1.263 . S
C2427 O2410 1.252 . S
C2427 C2421 1.500 . S
C2428 H2390 0.930 . S
C2428 C2404 1.417 . S
C2428 C2429 1.329 . S
C2429 C2399 1.437 . S
C2429 H2400 0.929 . S
C2429 C2428 1.329 . S
H2430 C2403 0.931 . S
C2431 O2413 1.265 . S
C2431 O2414 1.242 . S
C2432 O2417 1.261 . S
C2432 O2418 1.252 . S
C2433 C2436 1.394 . S
C2433 C2438 1.370 . S
C2433 C2439 1.500 . S
C2434 C2437 1.383 . S
C2434 C2438 1.395 . S
C2435 C2436 1.396 . S
C2435 C2437 1.365 . S
C2435 H2444 0.929 . S
C2436 C2433 1.394 . S
C2436 C2435 1.396 . S
C2436 H2445 0.930 . S
C2437 C2434 1.383 . S
C2437 C2435 1.365 . S
C2437 H2446 0.931 . S
C2438 C2433 1.370 . S
C2438 C2434 1.395 . S
C2438 H2447 0.930 . S
C2439 Gd2375 2.805 . S
C2439 O2415 1.263 . S
C2439 O2416 1.252 . S
C2439 C2433 1.500 . S
H2440 C2423 0.929 . S
H2441 C2424 0.930 . S
H2442 C2425 0.931 . S
H2443 C2426 0.930 . S
H2444 C2435 0.929 . S
H2445 C2436 0.930 . S
H2446 C2437 0.931 . S
H2447 C2438 0.930 . S
C2448 C2450 1.422 . S
C2448 C2452 1.415 1_455 S
C2448 N2454 1.369 1_455 S
C2449 C2450 1.421 . S
C2449 C2451 1.417 . S
C2449 C2461 1.422 . S
C2450 C2448 1.422 . S
C2450 C2449 1.421 . S
C2450 N2460 1.359 . S
C2451 C2449 1.417 . S
C2451 C2453 1.329 . S
C2451 H2470 0.930 . S
C2452 C2448 1.415 1_655 S
C2452 C2453 1.437 1_655 S
C2452 C2456 1.413 . S
C2453 C2451 1.329 . S
C2453 C2452 1.437 1_455 S
C2453 H2475 0.929 1_455 S
N2454 C2448 1.369 1_655 S
N2454 C2455 1.338 . S
N2454 Gd2459 2.622 1_655 S
C2455 N2454 1.338 . S
C2455 C2457 1.378 . S
C2455 H2467 0.929 . S
C2456 C2452 1.413 . S
C2456 C2457 1.348 . S
C2456 H2472 0.931 . S
C2457 C2455 1.378 . S
C2457 C2456 1.348 . S
C2457 H2473 0.930 . S
Gd2458 N2478 2.622 . S
Gd2458 N2485 2.570 . S
Gd2458 O2492 2.353 1_565 S
Gd2458 O2493 2.468 . S
Gd2458 O2494 2.427 . S
Gd2458 O2496 2.388 1_565 S
Gd2458 O2497 2.386 1_565 S
Gd2458 O2501 2.307 1_565 S
Gd2458 C2511 2.805 . S
Gd2459 N2454 2.622 1_455 S
Gd2459 N2460 2.570 . S
Gd2459 O2491 2.386 . S
Gd2459 O2495 2.307 . S
Gd2459 O2498 2.353 . S
Gd2459 O2499 2.468 . S
Gd2459 O2500 2.427 1_455 S
Gd2459 O2502 2.388 1_455 S
Gd2459 C2523 2.805 . S
N2460 C2450 1.359 . S
N2460 Gd2459 2.570 . S
N2460 C2462 1.343 . S
C2461 C2449 1.422 . S
C2461 C2463 1.321 . S
C2461 H2469 0.931 . S
C2462 N2460 1.343 . S
C2462 C2463 1.390 . S
C2462 H2464 0.931 . S
C2463 C2461 1.321 . S
C2463 C2462 1.390 . S
C2463 H2465 0.930 . S
H2464 C2462 0.931 . S
H2465 C2463 0.930 . S
H2466 C2489 0.933 1_655 S
H2467 C2455 0.929 . S
H2468 C2490 0.930 . S
H2469 C2461 0.931 . S
H2470 C2451 0.930 . S
H2471 C2480 0.929 1_545 S
H2472 C2456 0.931 . S
H2473 C2457 0.930 . S
H2474 C2512 0.930 . S
H2475 C2453 0.929 1_655 S
H2476 C2481 0.931 . S
H2477 C2482 0.930 . S
N2478 Gd2458 2.622 . S
N2478 C2479 1.369 . S
N2478 C2480 1.338 . S
C2479 N2478 1.369 . S
C2479 C2483 1.415 . S
C2479 C2486 1.422 . S
C2480 H2471 0.929 1_565 S
C2480 N2478 1.338 . S
C2480 C2482 1.378 . S
C2481 H2476 0.931 . S
C2481 C2482 1.348 . S
C2481 C2483 1.413 . S
C2482 H2477 0.930 . S
C2482 C2480 1.378 . S
C2482 C2481 1.348 . S
C2483 C2479 1.415 . S
C2483 C2481 1.413 . S
C2483 C2513 1.437 . S
H2484 C2513 0.929 . S
N2485 Gd2458 2.570 . S
N2485 C2486 1.359 . S
N2485 C2489 1.340 . S
C2486 C2479 1.422 . S
C2486 N2485 1.359 . S
C2486 C2488 1.421 . S
C2487 C2488 1.422 1_655 S
C2487 C2490 1.321 . S
C2487 H2514 0.931 . S
C2488 C2486 1.421 . S
C2488 C2487 1.422 1_455 S
C2488 C2512 1.417 . S
C2489 H2466 0.933 1_455 S
C2489 N2485 1.340 . S
C2489 C2490 1.391 1_455 S
C2490 H2468 0.930 . S
C2490 C2487 1.321 . S
C2490 C2489 1.391 1_655 S
O2491 Gd2459 2.386 . S
O2491 C2503 1.265 . S
O2492 Gd2458 2.353 1_545 S
O2492 C2503 1.242 . S
O2493 Gd2458 2.468 . S
O2493 C2511 1.263 . S
O2494 Gd2458 2.427 . S
O2494 C2511 1.252 . S
O2495 Gd2459 2.307 . S
O2495 C2504 1.261 . S
O2496 Gd2458 2.388 1_545 S
O2496 C2504 1.252 . S
O2497 Gd2458 2.386 1_545 S
O2497 C2515 1.265 . S
O2498 Gd2459 2.353 . S
O2498 C2515 1.242 . S
O2499 Gd2459 2.468 . S
O2499 C2523 1.263 . S
O2500 Gd2459 2.427 1_655 S
O2500 C2523 1.252 1_655 S
O2501 Gd2458 2.307 1_545 S
O2501 C2516 1.261 1_455 S
O2502 Gd2459 2.388 1_655 S
O2502 C2516 1.252 . S
C2503 O2491 1.265 . S
C2503 O2492 1.242 . S
C2504 O2495 1.261 . S
C2504 O2496 1.252 . S
C2505 C2508 1.394 . S
C2505 C2510 1.370 . S
C2505 C2511 1.500 . S
C2506 C2509 1.383 . S
C2506 C2510 1.395 . S
C2507 C2508 1.396 . S
C2507 C2509 1.365 . S
C2507 H2524 0.929 . S
C2508 C2505 1.394 . S
C2508 C2507 1.396 . S
C2508 H2525 0.930 . S
C2509 C2506 1.383 . S
C2509 C2507 1.365 . S
C2509 H2526 0.931 . S
C2510 C2505 1.370 . S
C2510 C2506 1.395 . S
C2510 H2527 0.930 . S
C2511 Gd2458 2.805 . S
C2511 O2493 1.263 . S
C2511 O2494 1.252 . S
C2511 C2505 1.500 . S
C2512 H2474 0.930 . S
C2512 C2488 1.417 . S
C2512 C2513 1.329 . S
C2513 C2483 1.437 . S
C2513 H2484 0.929 . S
C2513 C2512 1.329 . S
H2514 C2487 0.931 . S
C2515 O2497 1.265 . S
C2515 O2498 1.242 . S
C2516 O2501 1.261 1_655 S
C2516 O2502 1.252 . S
C2517 C2520 1.394 1_455 S
C2517 C2522 1.370 . S
C2517 C2523 1.500 . S
C2518 C2521 1.383 1_455 S
C2518 C2522 1.395 . S
C2519 C2520 1.396 . S
C2519 C2521 1.365 . S
C2519 H2528 0.929 . S
C2520 C2517 1.394 1_655 S
C2520 C2519 1.396 . S
C2520 H2529 0.930 . S
C2521 C2518 1.383 1_655 S
C2521 C2519 1.365 . S
C2521 H2530 0.931 . S
C2522 C2517 1.370 . S
C2522 C2518 1.395 . S
C2522 H2531 0.930 . S
C2523 Gd2459 2.805 . S
C2523 O2499 1.263 . S
C2523 O2500 1.252 1_455 S
C2523 C2517 1.500 . S
H2524 C2507 0.929 . S
H2525 C2508 0.930 . S
H2526 C2509 0.931 . S
H2527 C2510 0.930 . S
H2528 C2519 0.929 . S
H2529 C2520 0.930 . S
H2530 C2521 0.931 . S
H2531 C2522 0.930 . S
C2532 C2534 1.422 . S
C2532 C2536 1.415 . S
C2532 N2538 1.369 . S
C2533 C2534 1.421 . S
C2533 C2535 1.417 . S
C2533 C2545 1.422 . S
C2534 C2532 1.422 . S
C2534 C2533 1.421 . S
C2534 N2544 1.359 . S
C2535 C2533 1.417 . S
C2535 C2537 1.329 . S
C2535 H2554 0.930 . S
C2536 C2532 1.415 . S
C2536 C2537 1.437 . S
C2536 C2540 1.413 . S
C2537 C2535 1.329 . S
C2537 C2536 1.437 . S
C2537 H2559 0.929 . S
N2538 C2532 1.369 . S
N2538 C2539 1.338 . S
N2538 Gd2543 2.622 . S
C2539 N2538 1.338 . S
C2539 C2541 1.378 . S
C2539 H2551 0.929 . S
C2540 C2536 1.413 . S
C2540 C2541 1.348 . S
C2540 H2556 0.931 . S
C2541 C2539 1.378 . S
C2541 C2540 1.348 . S
C2541 H2557 0.930 . S
Gd2542 N2562 2.622 . S
Gd2542 N2569 2.570 . S
Gd2542 O2576 2.353 . S
Gd2542 O2577 2.468 . S
Gd2542 O2578 2.427 . S
Gd2542 O2580 2.388 . S
Gd2542 O2581 2.386 . S
Gd2542 O2585 2.307 . S
Gd2542 C2595 2.805 . S
Gd2543 N2538 2.622 . S
Gd2543 N2544 2.570 . S
Gd2543 O2575 2.386 . S
Gd2543 O2579 2.307 . S
Gd2543 O2582 2.353 . S
Gd2543 O2583 2.468 . S
Gd2543 O2584 2.427 . S
Gd2543 O2586 2.388 . S
Gd2543 C2607 2.805 . S
N2544 C2534 1.359 . S
N2544 Gd2543 2.570 . S
N2544 C2546 1.343 . S
C2545 C2533 1.422 . S
C2545 C2547 1.321 . S
C2545 H2553 0.931 . S
C2546 N2544 1.343 . S
C2546 C2547 1.390 . S
C2546 H2548 0.931 . S
C2547 C2545 1.321 . S
C2547 C2546 1.390 . S
C2547 H2549 0.930 . S
H2548 C2546 0.931 . S
H2549 C2547 0.930 . S
H2550 C2573 0.931 . S
H2551 C2539 0.929 . S
H2552 C2574 0.930 . S
H2553 C2545 0.931 . S
H2554 C2535 0.930 . S
H2555 C2564 0.929 . S
H2556 C2540 0.931 . S
H2557 C2541 0.930 . S
H2558 C2596 0.930 . S
H2559 C2537 0.929 . S
H2560 C2565 0.931 . S
H2561 C2566 0.930 . S
N2562 Gd2542 2.622 . S
N2562 C2563 1.369 . S
N2562 C2564 1.338 . S
C2563 N2562 1.369 . S
C2563 C2567 1.415 . S
C2563 C2570 1.422 . S
C2564 H2555 0.929 . S
C2564 N2562 1.338 . S
C2564 C2566 1.378 . S
C2565 H2560 0.931 . S
C2565 C2566 1.348 . S
C2565 C2567 1.413 . S
C2566 H2561 0.930 . S
C2566 C2564 1.378 . S
C2566 C2565 1.348 . S
C2567 C2563 1.415 . S
C2567 C2565 1.413 . S
C2567 C2597 1.437 . S
H2568 C2597 0.929 . S
N2569 Gd2542 2.570 . S
N2569 C2570 1.359 . S
N2569 C2573 1.343 . S
C2570 C2563 1.422 . S
C2570 N2569 1.359 . S
C2570 C2572 1.421 . S
C2571 C2572 1.422 . S
C2571 C2574 1.321 . S
C2571 H2598 0.931 . S
C2572 C2570 1.421 . S
C2572 C2571 1.422 . S
C2572 C2596 1.417 . S
C2573 H2550 0.931 . S
C2573 N2569 1.343 . S
C2573 C2574 1.390 . S
C2574 H2552 0.930 . S
C2574 C2571 1.321 . S
C2574 C2573 1.390 . S
O2575 Gd2543 2.386 . S
O2575 C2587 1.265 . S
O2576 Gd2542 2.353 . S
O2576 C2587 1.242 . S
O2577 Gd2542 2.468 . S
O2577 C2595 1.263 . S
O2578 Gd2542 2.427 . S
O2578 C2595 1.252 . S
O2579 Gd2543 2.307 . S
O2579 C2588 1.261 . S
O2580 Gd2542 2.388 . S
O2580 C2588 1.252 . S
O2581 Gd2542 2.386 . S
O2581 C2599 1.265 . S
O2582 Gd2543 2.353 . S
O2582 C2599 1.242 . S
O2583 Gd2543 2.468 . S
O2583 C2607 1.263 . S
O2584 Gd2543 2.427 . S
O2584 C2607 1.252 . S
O2585 Gd2542 2.307 . S
O2585 C2600 1.261 . S
O2586 Gd2543 2.388 . S
O2586 C2600 1.252 . S
C2587 O2575 1.265 . S
C2587 O2576 1.242 . S
C2588 O2579 1.261 . S
C2588 O2580 1.252 . S
C2589 C2592 1.394 . S
C2589 C2594 1.370 . S
C2589 C2595 1.500 . S
C2590 C2593 1.383 . S
C2590 C2594 1.395 . S
C2591 C2592 1.396 . S
C2591 C2593 1.365 . S
C2591 H2608 0.929 . S
C2592 C2589 1.394 . S
C2592 C2591 1.396 . S
C2592 H2609 0.930 . S
C2593 C2590 1.383 . S
C2593 C2591 1.365 . S
C2593 H2610 0.931 . S
C2594 C2589 1.370 . S
C2594 C2590 1.395 . S
C2594 H2611 0.930 . S
C2595 Gd2542 2.805 . S
C2595 O2577 1.263 . S
C2595 O2578 1.252 . S
C2595 C2589 1.500 . S
C2596 H2558 0.930 . S
C2596 C2572 1.417 . S
C2596 C2597 1.329 . S
C2597 C2567 1.437 . S
C2597 H2568 0.929 . S
C2597 C2596 1.329 . S
H2598 C2571 0.931 . S
C2599 O2581 1.265 . S
C2599 O2582 1.242 . S
C2600 O2585 1.261 . S
C2600 O2586 1.252 . S
C2601 C2604 1.394 . S
C2601 C2606 1.370 . S
C2601 C2607 1.500 . S
C2602 C2605 1.383 . S
C2602 C2606 1.395 . S
C2603 C2604 1.396 . S
C2603 C2605 1.365 . S
C2603 H2612 0.929 . S
C2604 C2601 1.394 . S
C2604 C2603 1.396 . S
C2604 H2613 0.930 . S
C2605 C2602 1.383 . S
C2605 C2603 1.365 . S
C2605 H2614 0.931 . S
C2606 C2601 1.370 . S
C2606 C2602 1.395 . S
C2606 H2615 0.930 . S
C2607 Gd2543 2.805 . S
C2607 O2583 1.263 . S
C2607 O2584 1.252 . S
C2607 C2601 1.500 . S
H2608 C2591 0.929 . S
H2609 C2592 0.930 . S
H2610 C2593 0.931 . S
H2611 C2594 0.930 . S
H2612 C2603 0.929 . S
H2613 C2604 0.930 . S
H2614 C2605 0.931 . S
H2615 C2606 0.930 . S
C2616 C2618 1.422 1_565 S
C2616 C2620 1.415 . S
C2616 N2622 1.369 . S
C2617 C2618 1.421 . S
C2617 C2619 1.417 . S
C2617 C2629 1.422 . S
C2618 C2616 1.422 1_545 S
C2618 C2617 1.421 . S
C2618 N2628 1.359 . S
C2619 C2617 1.417 . S
C2619 C2621 1.329 1_545 S
C2619 H2638 0.930 . S
C2620 C2616 1.415 . S
C2620 C2621 1.437 . S
C2620 C2624 1.413 . S
C2621 C2619 1.329 1_565 S
C2621 C2620 1.437 . S
C2621 H2643 0.929 . S
N2622 C2616 1.369 . S
N2622 C2623 1.338 . S
N2622 Gd2627 2.622 1_565 S
C2623 N2622 1.338 . S
C2623 C2625 1.378 . S
C2623 H2635 0.929 . S
C2624 C2620 1.413 . S
C2624 C2625 1.348 . S
C2624 H2640 0.931 . S
C2625 C2623 1.378 . S
C2625 C2624 1.348 . S
C2625 H2641 0.930 . S
Gd2626 N2646 2.622 . S
Gd2626 N2653 2.570 . S
Gd2626 O2660 2.353 1_556 S
Gd2626 O2661 2.468 . S
Gd2626 O2662 2.427 . S
Gd2626 O2664 2.388 1_556 S
Gd2626 O2665 2.386 1_556 S
Gd2626 O2669 2.311 . S
Gd2626 C2679 2.805 . S
Gd2627 N2622 2.622 1_545 S
Gd2627 N2628 2.570 . S
Gd2627 O2659 2.386 . S
Gd2627 O2663 2.307 . S
Gd2627 O2666 2.353 . S
Gd2627 O2667 2.468 . S
Gd2627 O2668 2.427 1_545 S
Gd2627 O2670 2.388 1_545 S
Gd2627 C2691 2.803 1_545 S
N2628 C2618 1.359 . S
N2628 Gd2627 2.570 . S
N2628 C2630 1.343 . S
C2629 C2617 1.422 . S
C2629 C2631 1.321 . S
C2629 H2637 0.931 . S
C2630 N2628 1.343 . S
C2630 C2631 1.390 . S
C2630 H2632 0.931 . S
C2631 C2629 1.321 . S
C2631 C2630 1.390 . S
C2631 H2633 0.930 . S
H2632 C2630 0.931 . S
H2633 C2631 0.930 . S
H2634 C2657 0.931 1_565 S
H2635 C2623 0.929 . S
H2636 C2658 0.930 . S
H2637 C2629 0.931 . S
H2638 C2619 0.930 . S
H2639 C2648 0.929 1_554 S
H2640 C2624 0.931 . S
H2641 C2625 0.930 . S
H2642 C2680 0.930 . S
H2643 C2621 0.929 . S
H2644 C2649 0.931 . S
H2645 C2650 0.930 . S
N2646 Gd2626 2.622 . S
N2646 C2647 1.369 . S
N2646 C2648 1.338 . S
C2647 N2646 1.369 . S
C2647 C2651 1.415 . S
C2647 C2654 1.422 . S
C2648 H2639 0.929 1_556 S
C2648 N2646 1.338 . S
C2648 C2650 1.378 . S
C2649 H2644 0.931 . S
C2649 C2650 1.348 . S
C2649 C2651 1.413 . S
C2650 H2645 0.930 . S
C2650 C2648 1.378 . S
C2650 C2649 1.348 . S
C2651 C2647 1.415 . S
C2651 C2649 1.413 . S
C2651 C2681 1.437 . S
H2652 C2681 0.929 . S
N2653 Gd2626 2.570 . S
N2653 C2654 1.359 . S
N2653 C2657 1.343 . S
C2654 C2647 1.422 . S
C2654 N2653 1.359 . S
C2654 C2656 1.421 . S
C2655 C2656 1.422 . S
C2655 C2658 1.321 1_545 S
C2655 H2682 0.931 1_545 S
C2656 C2654 1.421 . S
C2656 C2655 1.422 . S
C2656 C2680 1.417 . S
C2657 H2634 0.931 1_545 S
C2657 N2653 1.343 . S
C2657 C2658 1.390 1_545 S
C2658 H2636 0.930 . S
C2658 C2655 1.321 1_565 S
C2658 C2657 1.390 1_565 S
O2659 Gd2627 2.386 . S
O2659 C2671 1.265 . S
O2660 Gd2626 2.353 1_554 S
O2660 C2671 1.242 . S
O2661 Gd2626 2.468 . S
O2661 C2679 1.263 . S
O2662 Gd2626 2.427 . S
O2662 C2679 1.252 . S
O2663 Gd2627 2.307 . S
O2663 C2672 1.261 . S
O2664 Gd2626 2.388 1_554 S
O2664 C2672 1.252 . S
O2665 Gd2626 2.386 1_554 S
O2665 C2683 1.265 . S
O2666 Gd2627 2.353 . S
O2666 C2683 1.242 . S
O2667 Gd2627 2.468 . S
O2667 C2691 1.254 1_545 S
O2668 Gd2627 2.427 1_565 S
O2668 C2691 1.259 . S
O2669 Gd2626 2.311 . S
O2669 C2684 1.253 1_546 S
O2670 Gd2627 2.388 1_565 S
O2670 C2684 1.252 . S
C2671 O2659 1.265 . S
C2671 O2660 1.242 . S
C2672 O2663 1.261 . S
C2672 O2664 1.252 . S
C2673 C2676 1.394 . S
C2673 C2678 1.370 . S
C2673 C2679 1.500 . S
C2674 C2677 1.383 . S
C2674 C2678 1.395 . S
C2675 C2676 1.396 . S
C2675 C2677 1.365 . S
C2675 H2692 0.929 . S
C2676 C2673 1.394 . S
C2676 C2675 1.396 . S
C2676 H2693 0.930 . S
C2677 C2674 1.383 . S
C2677 C2675 1.365 . S
C2677 H2694 0.931 . S
C2678 C2673 1.370 . S
C2678 C2674 1.395 . S
C2678 H2695 0.930 . S
C2679 Gd2626 2.805 . S
C2679 O2661 1.263 . S
C2679 O2662 1.252 . S
C2679 C2673 1.500 . S
C2680 H2642 0.930 . S
C2680 C2656 1.417 . S
C2680 C2681 1.329 . S
C2681 C2651 1.437 . S
C2681 H2652 0.929 . S
C2681 C2680 1.329 . S
H2682 C2655 0.931 1_565 S
C2683 O2665 1.265 . S
C2683 O2666 1.242 . S
C2684 O2669 1.253 1_564 S
C2684 O2670 1.252 . S
C2685 C2688 1.394 . S
C2685 C2690 1.370 1_565 S
C2685 C2691 1.503 . S
C2686 C2689 1.383 1_545 S
C2686 C2690 1.395 . S
C2687 C2688 1.396 . S
C2687 C2689 1.365 . S
C2687 H2696 0.929 . S
C2688 C2685 1.394 . S
C2688 C2687 1.396 . S
C2688 H2697 0.930 . S
C2689 C2686 1.383 1_565 S
C2689 C2687 1.365 . S
C2689 H2698 0.931 . S
C2690 C2685 1.370 1_545 S
C2690 C2686 1.395 . S
C2690 H2699 0.930 . S
C2691 Gd2627 2.803 1_565 S
C2691 O2667 1.254 1_565 S
C2691 O2668 1.259 . S
C2691 C2685 1.503 . S
H2692 C2675 0.929 . S
H2693 C2676 0.930 . S
H2694 C2677 0.931 . S
H2695 C2678 0.930 . S
H2696 C2687 0.929 . S
H2697 C2688 0.930 . S
H2698 C2689 0.931 . S
H2699 C2690 0.930 . S
C2700 C2702 1.422 . S
C2700 C2704 1.415 . S
C2700 N2706 1.369 . S
C2701 C2702 1.421 . S
C2701 C2703 1.417 . S
C2701 C2713 1.422 . S
C2702 C2700 1.422 . S
C2702 C2701 1.421 . S
C2702 N2712 1.359 . S
C2703 C2701 1.417 . S
C2703 C2705 1.329 . S
C2703 H2722 0.930 . S
C2704 C2700 1.415 . S
C2704 C2705 1.437 . S
C2704 C2708 1.413 . S
C2705 C2703 1.329 . S
C2705 C2704 1.437 . S
C2705 H2727 0.929 . S
N2706 C2700 1.369 . S
N2706 C2707 1.338 . S
N2706 Gd2711 2.622 . S
C2707 N2706 1.338 . S
C2707 C2709 1.378 . S
C2707 H2719 0.929 . S
C2708 C2704 1.413 . S
C2708 C2709 1.348 . S
C2708 H2724 0.931 . S
C2709 C2707 1.378 . S
C2709 C2708 1.348 . S
C2709 H2725 0.930 . S
Gd2710 N2730 2.622 . S
Gd2710 N2737 2.570 . S
Gd2710 O2744 2.353 . S
Gd2710 O2745 2.468 . S
Gd2710 O2746 2.427 . S
Gd2710 O2748 2.388 . S
Gd2710 O2749 2.386 . S
Gd2710 O2753 2.307 . S
Gd2710 C2763 2.805 . S
Gd2711 N2706 2.622 . S
Gd2711 N2712 2.570 . S
Gd2711 O2743 2.386 . S
Gd2711 O2747 2.307 . S
Gd2711 O2750 2.353 . S
Gd2711 O2751 2.468 . S
Gd2711 O2752 2.427 . S
Gd2711 O2754 2.388 . S
Gd2711 C2775 2.805 . S
N2712 C2702 1.359 . S
N2712 Gd2711 2.570 . S
N2712 C2714 1.343 . S
C2713 C2701 1.422 . S
C2713 C2715 1.321 . S
C2713 H2721 0.931 . S
C2714 N2712 1.343 . S
C2714 C2715 1.390 . S
C2714 H2716 0.931 . S
C2715 C2713 1.321 . S
C2715 C2714 1.390 . S
C2715 H2717 0.930 . S
H2716 C2714 0.931 . S
H2717 C2715 0.930 . S
H2718 C2741 0.931 . S
H2719 C2707 0.929 . S
H2720 C2742 0.930 . S
H2721 C2713 0.931 . S
H2722 C2703 0.930 . S
H2723 C2732 0.929 . S
H2724 C2708 0.931 . S
H2725 C2709 0.930 . S
H2726 C2764 0.930 . S
H2727 C2705 0.929 . S
H2728 C2733 0.931 . S
H2729 C2734 0.930 . S
N2730 Gd2710 2.622 . S
N2730 C2731 1.369 . S
N2730 C2732 1.338 . S
C2731 N2730 1.369 . S
C2731 C2735 1.415 . S
C2731 C2738 1.422 . S
C2732 H2723 0.929 . S
C2732 N2730 1.338 . S
C2732 C2734 1.378 . S
C2733 H2728 0.931 . S
C2733 C2734 1.348 . S
C2733 C2735 1.413 . S
C2734 H2729 0.930 . S
C2734 C2732 1.378 . S
C2734 C2733 1.348 . S
C2735 C2731 1.415 . S
C2735 C2733 1.413 . S
C2735 C2765 1.437 . S
H2736 C2765 0.929 . S
N2737 Gd2710 2.570 . S
N2737 C2738 1.359 . S
N2737 C2741 1.343 . S
C2738 C2731 1.422 . S
C2738 N2737 1.359 . S
C2738 C2740 1.421 . S
C2739 C2740 1.422 . S
C2739 C2742 1.321 . S
C2739 H2766 0.931 . S
C2740 C2738 1.421 . S
C2740 C2739 1.422 . S
C2740 C2764 1.417 . S
C2741 H2718 0.931 . S
C2741 N2737 1.343 . S
C2741 C2742 1.390 . S
C2742 H2720 0.930 . S
C2742 C2739 1.321 . S
C2742 C2741 1.390 . S
O2743 Gd2711 2.386 . S
O2743 C2755 1.265 . S
O2744 Gd2710 2.353 . S
O2744 C2755 1.242 . S
O2745 Gd2710 2.468 . S
O2745 C2763 1.263 . S
O2746 Gd2710 2.427 . S
O2746 C2763 1.252 . S
O2747 Gd2711 2.307 . S
O2747 C2756 1.261 . S
O2748 Gd2710 2.388 . S
O2748 C2756 1.252 . S
O2749 Gd2710 2.386 . S
O2749 C2767 1.265 . S
O2750 Gd2711 2.353 . S
O2750 C2767 1.242 . S
O2751 Gd2711 2.468 . S
O2751 C2775 1.263 . S
O2752 Gd2711 2.427 . S
O2752 C2775 1.252 . S
O2753 Gd2710 2.307 . S
O2753 C2768 1.261 . S
O2754 Gd2711 2.388 . S
O2754 C2768 1.252 . S
C2755 O2743 1.265 . S
C2755 O2744 1.242 . S
C2756 O2747 1.261 . S
C2756 O2748 1.252 . S
C2757 C2760 1.394 . S
C2757 C2762 1.370 . S
C2757 C2763 1.500 . S
C2758 C2761 1.383 . S
C2758 C2762 1.395 . S
C2759 C2760 1.396 . S
C2759 C2761 1.365 . S
C2759 H2776 0.929 . S
C2760 C2757 1.394 . S
C2760 C2759 1.396 . S
C2760 H2777 0.930 . S
C2761 C2758 1.383 . S
C2761 C2759 1.365 . S
C2761 H2778 0.931 . S
C2762 C2757 1.370 . S
C2762 C2758 1.395 . S
C2762 H2779 0.930 . S
C2763 Gd2710 2.805 . S
C2763 O2745 1.263 . S
C2763 O2746 1.252 . S
C2763 C2757 1.500 . S
C2764 H2726 0.930 . S
C2764 C2740 1.417 . S
C2764 C2765 1.329 . S
C2765 C2735 1.437 . S
C2765 H2736 0.929 . S
C2765 C2764 1.329 . S
H2766 C2739 0.931 . S
C2767 O2749 1.265 . S
C2767 O2750 1.242 . S
C2768 O2753 1.261 . S
C2768 O2754 1.252 . S
C2769 C2772 1.394 . S
C2769 C2774 1.370 . S
C2769 C2775 1.500 . S
C2770 C2773 1.383 . S
C2770 C2774 1.395 . S
C2771 C2772 1.396 . S
C2771 C2773 1.365 . S
C2771 H2780 0.929 . S
C2772 C2769 1.394 . S
C2772 C2771 1.396 . S
C2772 H2781 0.930 . S
C2773 C2770 1.383 . S
C2773 C2771 1.365 . S
C2773 H2782 0.931 . S
C2774 C2769 1.370 . S
C2774 C2770 1.395 . S
C2774 H2783 0.930 . S
C2775 Gd2711 2.805 . S
C2775 O2751 1.263 . S
C2775 O2752 1.252 . S
C2775 C2769 1.500 . S
H2776 C2759 0.929 . S
H2777 C2760 0.930 . S
H2778 C2761 0.931 . S
H2779 C2762 0.930 . S
H2780 C2771 0.929 . S
H2781 C2772 0.930 . S
H2782 C2773 0.931 . S
H2783 C2774 0.930 . S
C2784 C2786 1.422 . S
C2784 C2788 1.415 . S
C2784 N2790 1.369 . S
C2785 C2786 1.421 . S
C2785 C2787 1.417 . S
C2785 C2797 1.422 . S
C2786 C2784 1.422 . S
C2786 C2785 1.421 . S
C2786 N2796 1.359 . S
C2787 C2785 1.417 . S
C2787 C2789 1.329 . S
C2787 H2806 0.930 . S
C2788 C2784 1.415 . S
C2788 C2789 1.437 . S
C2788 C2792 1.413 . S
C2789 C2787 1.329 . S
C2789 C2788 1.437 . S
C2789 H2811 0.929 . S
N2790 C2784 1.369 . S
N2790 C2791 1.338 . S
N2790 Gd2795 2.622 . S
C2791 N2790 1.338 . S
C2791 C2793 1.378 . S
C2791 H2803 0.929 . S
C2792 C2788 1.413 . S
C2792 C2793 1.348 . S
C2792 H2808 0.931 . S
C2793 C2791 1.378 . S
C2793 C2792 1.348 . S
C2793 H2809 0.930 . S
Gd2794 N2814 2.622 1_554 S
Gd2794 N2821 2.570 1_554 S
Gd2794 O2828 2.353 . S
Gd2794 O2829 2.468 . S
Gd2794 O2830 2.427 . S
Gd2794 O2832 2.388 . S
Gd2794 O2833 2.386 1_554 S
Gd2794 O2837 2.307 . S
Gd2794 C2847 2.805 . S
Gd2795 N2790 2.622 . S
Gd2795 N2796 2.570 . S
Gd2795 O2827 2.386 . S
Gd2795 O2831 2.307 . S
Gd2795 O2834 2.353 1_554 S
Gd2795 O2835 2.468 . S
Gd2795 O2836 2.427 . S
Gd2795 O2838 2.388 . S
Gd2795 C2859 2.805 . S
N2796 C2786 1.359 . S
N2796 Gd2795 2.570 . S
N2796 C2798 1.343 . S
C2797 C2785 1.422 . S
C2797 C2799 1.321 . S
C2797 H2805 0.931 . S
C2798 N2796 1.343 . S
C2798 C2799 1.390 . S
C2798 H2800 0.931 . S
C2799 C2797 1.321 . S
C2799 C2798 1.390 . S
C2799 H2801 0.930 . S
H2800 C2798 0.931 . S
H2801 C2799 0.930 . S
H2802 C2825 0.931 1_554 S
H2803 C2791 0.929 . S
H2804 C2826 0.930 . S
H2805 C2797 0.931 . S
H2806 C2787 0.930 . S
H2807 C2816 0.929 1_554 S
H2808 C2792 0.931 . S
H2809 C2793 0.930 . S
H2810 C2848 0.930 . S
H2811 C2789 0.929 . S
H2812 C2817 0.931 . S
H2813 C2818 0.930 . S
N2814 Gd2794 2.622 1_556 S
N2814 C2815 1.369 . S
N2814 C2816 1.338 . S
C2815 N2814 1.369 . S
C2815 C2819 1.415 . S
C2815 C2822 1.422 . S
C2816 H2807 0.929 1_556 S
C2816 N2814 1.338 . S
C2816 C2818 1.378 . S
C2817 H2812 0.931 . S
C2817 C2818 1.348 . S
C2817 C2819 1.413 . S
C2818 H2813 0.930 . S
C2818 C2816 1.378 . S
C2818 C2817 1.348 . S
C2819 C2815 1.415 . S
C2819 C2817 1.413 . S
C2819 C2849 1.437 . S
H2820 C2849 0.929 . S
N2821 Gd2794 2.570 1_556 S
N2821 C2822 1.359 . S
N2821 C2825 1.343 . S
C2822 C2815 1.422 . S
C2822 N2821 1.359 . S
C2822 C2824 1.421 . S
C2823 C2824 1.422 . S
C2823 C2826 1.321 . S
C2823 H2850 0.931 . S
C2824 C2822 1.421 . S
C2824 C2823 1.422 . S
C2824 C2848 1.417 . S
C2825 H2802 0.931 1_556 S
C2825 N2821 1.343 . S
C2825 C2826 1.390 . S
C2826 H2804 0.930 . S
C2826 C2823 1.321 . S
C2826 C2825 1.390 . S
O2827 Gd2795 2.386 . S
O2827 C2839 1.265 . S
O2828 Gd2794 2.353 . S
O2828 C2839 1.242 . S
O2829 Gd2794 2.468 . S
O2829 C2847 1.263 . S
O2830 Gd2794 2.427 . S
O2830 C2847 1.252 . S
O2831 Gd2795 2.307 . S
O2831 C2840 1.261 . S
O2832 Gd2794 2.388 . S
O2832 C2840 1.252 . S
O2833 Gd2794 2.386 1_556 S
O2833 C2851 1.265 . S
O2834 Gd2795 2.353 1_556 S
O2834 C2851 1.242 . S
O2835 Gd2795 2.468 . S
O2835 C2859 1.263 . S
O2836 Gd2795 2.427 . S
O2836 C2859 1.252 . S
O2837 Gd2794 2.307 . S
O2837 C2852 1.261 . S
O2838 Gd2795 2.388 . S
O2838 C2852 1.252 . S
C2839 O2827 1.265 . S
C2839 O2828 1.242 . S
C2840 O2831 1.261 . S
C2840 O2832 1.252 . S
C2841 C2844 1.394 . S
C2841 C2846 1.370 . S
C2841 C2847 1.500 . S
C2842 C2845 1.383 . S
C2842 C2846 1.395 . S
C2843 C2844 1.396 . S
C2843 C2845 1.365 . S
C2843 H2860 0.929 . S
C2844 C2841 1.394 . S
C2844 C2843 1.396 . S
C2844 H2861 0.930 . S
C2845 C2842 1.383 . S
C2845 C2843 1.365 . S
C2845 H2862 0.931 . S
C2846 C2841 1.370 . S
C2846 C2842 1.395 . S
C2846 H2863 0.930 . S
C2847 Gd2794 2.805 . S
C2847 O2829 1.263 . S
C2847 O2830 1.252 . S
C2847 C2841 1.500 . S
C2848 H2810 0.930 . S
C2848 C2824 1.417 . S
C2848 C2849 1.329 . S
C2849 C2819 1.437 . S
C2849 H2820 0.929 . S
C2849 C2848 1.329 . S
H2850 C2823 0.931 . S
C2851 O2833 1.265 . S
C2851 O2834 1.242 . S
C2852 O2837 1.261 . S
C2852 O2838 1.252 . S
C2853 C2856 1.394 . S
C2853 C2858 1.370 . S
C2853 C2859 1.500 1_556 S
C2854 C2857 1.383 . S
C2854 C2858 1.395 . S
C2855 C2856 1.396 . S
C2855 C2857 1.365 . S
C2855 H2864 0.929 . S
C2856 C2853 1.394 . S
C2856 C2855 1.396 . S
C2856 H2865 0.930 . S
C2857 C2854 1.383 . S
C2857 C2855 1.365 . S
C2857 H2866 0.931 . S
C2858 C2853 1.370 . S
C2858 C2854 1.395 . S
C2858 H2867 0.930 . S
C2859 Gd2795 2.805 . S
C2859 O2835 1.263 . S
C2859 O2836 1.252 . S
C2859 C2853 1.500 1_554 S
H2860 C2843 0.929 . S
H2861 C2844 0.930 . S
H2862 C2845 0.931 . S
H2863 C2846 0.930 . S
H2864 C2855 0.929 . S
H2865 C2856 0.930 . S
H2866 C2857 0.931 . S
H2867 C2858 0.930 . S
C2868 C2870 1.422 . S
C2868 C2872 1.415 . S
C2868 N2874 1.369 . S
C2869 C2870 1.421 . S
C2869 C2871 1.417 . S
C2869 C2881 1.422 . S
C2870 C2868 1.422 . S
C2870 C2869 1.421 . S
C2870 N2880 1.359 . S
C2871 C2869 1.417 . S
C2871 C2873 1.329 . S
C2871 H2890 0.930 . S
C2872 C2868 1.415 . S
C2872 C2873 1.437 . S
C2872 C2876 1.413 . S
C2873 C2871 1.329 . S
C2873 C2872 1.437 . S
C2873 H2895 0.929 . S
N2874 C2868 1.369 . S
N2874 C2875 1.338 . S
N2874 Gd2879 2.622 . S
C2875 N2874 1.338 . S
C2875 C2877 1.378 . S
C2875 H2887 0.929 . S
C2876 C2872 1.413 . S
C2876 C2877 1.348 . S
C2876 H2892 0.931 . S
C2877 C2875 1.378 . S
C2877 C2876 1.348 . S
C2877 H2893 0.930 . S
Gd2878 N2898 2.622 . S
Gd2878 N2905 2.570 . S
Gd2878 O2912 2.353 . S
Gd2878 O2913 2.468 . S
Gd2878 O2914 2.427 . S
Gd2878 O2916 2.388 . S
Gd2878 O2917 2.386 . S
Gd2878 O2921 2.307 . S
Gd2878 C2931 2.805 . S
Gd2879 N2874 2.622 . S
Gd2879 N2880 2.570 . S
Gd2879 O2911 2.386 . S
Gd2879 O2915 2.307 . S
Gd2879 O2918 2.353 . S
Gd2879 O2919 2.468 . S
Gd2879 O2920 2.427 . S
Gd2879 O2922 2.388 . S
Gd2879 C2943 2.805 . S
N2880 C2870 1.359 . S
N2880 Gd2879 2.570 . S
N2880 C2882 1.343 . S
C2881 C2869 1.422 . S
C2881 C2883 1.321 . S
C2881 H2889 0.931 . S
C2882 N2880 1.343 . S
C2882 C2883 1.390 . S
C2882 H2884 0.931 . S
C2883 C2881 1.321 . S
C2883 C2882 1.390 . S
C2883 H2885 0.930 . S
H2884 C2882 0.931 . S
H2885 C2883 0.930 . S
H2886 C2909 0.931 . S
H2887 C2875 0.929 . S
H2888 C2910 0.930 . S
H2889 C2881 0.931 . S
H2890 C2871 0.930 . S
H2891 C2900 0.929 . S
H2892 C2876 0.931 . S
H2893 C2877 0.930 . S
H2894 C2932 0.930 . S
H2895 C2873 0.929 . S
H2896 C2901 0.931 . S
H2897 C2902 0.930 . S
N2898 Gd2878 2.622 . S
N2898 C2899 1.369 . S
N2898 C2900 1.338 . S
C2899 N2898 1.369 . S
C2899 C2903 1.415 . S
C2899 C2906 1.422 . S
C2900 H2891 0.929 . S
C2900 N2898 1.338 . S
C2900 C2902 1.378 . S
C2901 H2896 0.931 . S
C2901 C2902 1.348 . S
C2901 C2903 1.413 . S
C2902 H2897 0.930 . S
C2902 C2900 1.378 . S
C2902 C2901 1.348 . S
C2903 C2899 1.415 . S
C2903 C2901 1.413 . S
C2903 C2933 1.437 . S
H2904 C2933 0.929 . S
N2905 Gd2878 2.570 . S
N2905 C2906 1.359 . S
N2905 C2909 1.343 . S
C2906 C2899 1.422 . S
C2906 N2905 1.359 . S
C2906 C2908 1.421 . S
C2907 C2908 1.422 . S
C2907 C2910 1.321 . S
C2907 H2934 0.931 . S
C2908 C2906 1.421 . S
C2908 C2907 1.422 . S
C2908 C2932 1.417 . S
C2909 H2886 0.931 . S
C2909 N2905 1.343 . S
C2909 C2910 1.390 . S
C2910 H2888 0.930 . S
C2910 C2907 1.321 . S
C2910 C2909 1.390 . S
O2911 Gd2879 2.386 . S
O2911 C2923 1.265 . S
O2912 Gd2878 2.353 . S
O2912 C2923 1.242 . S
O2913 Gd2878 2.468 . S
O2913 C2931 1.263 . S
O2914 Gd2878 2.427 . S
O2914 C2931 1.252 . S
O2915 Gd2879 2.307 . S
O2915 C2924 1.261 . S
O2916 Gd2878 2.388 . S
O2916 C2924 1.252 . S
O2917 Gd2878 2.386 . S
O2917 C2935 1.265 . S
O2918 Gd2879 2.353 . S
O2918 C2935 1.242 . S
O2919 Gd2879 2.468 . S
O2919 C2943 1.263 . S
O2920 Gd2879 2.427 . S
O2920 C2943 1.252 . S
O2921 Gd2878 2.307 . S
O2921 C2936 1.261 . S
O2922 Gd2879 2.388 . S
O2922 C2936 1.252 . S
C2923 O2911 1.265 . S
C2923 O2912 1.242 . S
C2924 O2915 1.261 . S
C2924 O2916 1.252 . S
C2925 C2928 1.394 . S
C2925 C2930 1.370 . S
C2925 C2931 1.500 . S
C2926 C2929 1.383 . S
C2926 C2930 1.395 . S
C2927 C2928 1.396 . S
C2927 C2929 1.365 . S
C2927 H2944 0.929 . S
C2928 C2925 1.394 . S
C2928 C2927 1.396 . S
C2928 H2945 0.930 . S
C2929 C2926 1.383 . S
C2929 C2927 1.365 . S
C2929 H2946 0.931 . S
C2930 C2925 1.370 . S
C2930 C2926 1.395 . S
C2930 H2947 0.930 . S
C2931 Gd2878 2.805 . S
C2931 O2913 1.263 . S
C2931 O2914 1.252 . S
C2931 C2925 1.500 . S
C2932 H2894 0.930 . S
C2932 C2908 1.417 . S
C2932 C2933 1.329 . S
C2933 C2903 1.437 . S
C2933 H2904 0.929 . S
C2933 C2932 1.329 . S
H2934 C2907 0.931 . S
C2935 O2917 1.265 . S
C2935 O2918 1.242 . S
C2936 O2921 1.261 . S
C2936 O2922 1.252 . S
C2937 C2940 1.394 . S
C2937 C2942 1.370 . S
C2937 C2943 1.500 . S
C2938 C2941 1.383 . S
C2938 C2942 1.395 . S
C2939 C2940 1.396 . S
C2939 C2941 1.365 . S
C2939 H2948 0.929 . S
C2940 C2937 1.394 . S
C2940 C2939 1.396 . S
C2940 H2949 0.930 . S
C2941 C2938 1.383 . S
C2941 C2939 1.365 . S
C2941 H2950 0.931 . S
C2942 C2937 1.370 . S
C2942 C2938 1.395 . S
C2942 H2951 0.930 . S
C2943 Gd2879 2.805 . S
C2943 O2919 1.263 . S
C2943 O2920 1.252 . S
C2943 C2937 1.500 . S
H2944 C2927 0.929 . S
H2945 C2928 0.930 . S
H2946 C2929 0.931 . S
H2947 C2930 0.930 . S
H2948 C2939 0.929 . S
H2949 C2940 0.930 . S
H2950 C2941 0.931 . S
H2951 C2942 0.930 . S
C2952 C2954 1.422 . S
C2952 C2956 1.415 . S
C2952 N2958 1.369 . S
C2953 C2954 1.421 . S
C2953 C2955 1.417 . S
C2953 C2965 1.422 . S
C2954 C2952 1.422 . S
C2954 C2953 1.421 . S
C2954 N2964 1.359 . S
C2955 C2953 1.417 . S
C2955 C2957 1.329 . S
C2955 H2974 0.930 . S
C2956 C2952 1.415 . S
C2956 C2957 1.437 . S
C2956 C2960 1.413 . S
C2957 C2955 1.329 . S
C2957 C2956 1.437 . S
C2957 H2979 0.929 . S
N2958 C2952 1.369 . S
N2958 C2959 1.338 . S
N2958 Gd2963 2.622 . S
C2959 N2958 1.338 . S
C2959 C2961 1.378 . S
C2959 H2971 0.929 . S
C2960 C2956 1.413 . S
C2960 C2961 1.348 . S
C2960 H2976 0.931 . S
C2961 C2959 1.378 . S
C2961 C2960 1.348 . S
C2961 H2977 0.930 . S
Gd2962 N2982 2.622 1_455 S
Gd2962 N2989 2.570 1_455 S
Gd2962 O2996 2.353 . S
Gd2962 O2997 2.468 . S
Gd2962 O2998 2.427 . S
Gd2962 O3000 2.388 . S
Gd2962 O3001 2.386 1_455 S
Gd2962 O3005 2.307 . S
Gd2962 C3015 2.805 . S
Gd2963 N2958 2.622 . S
Gd2963 N2964 2.570 . S
Gd2963 O2995 2.386 . S
Gd2963 O2999 2.307 . S
Gd2963 O3002 2.353 1_455 S
Gd2963 O3003 2.468 . S
Gd2963 O3004 2.427 . S
Gd2963 O3006 2.388 . S
Gd2963 C3027 2.805 . S
N2964 C2954 1.359 . S
N2964 Gd2963 2.570 . S
N2964 C2966 1.343 . S
C2965 C2953 1.422 . S
C2965 C2967 1.321 . S
C2965 H2973 0.931 . S
C2966 N2964 1.343 . S
C2966 C2967 1.390 . S
C2966 H2968 0.931 . S
C2967 C2965 1.321 . S
C2967 C2966 1.390 . S
C2967 H2969 0.930 . S
H2968 C2966 0.931 . S
H2969 C2967 0.930 . S
H2970 C2993 0.931 1_455 S
H2971 C2959 0.929 . S
H2972 C2994 0.930 . S
H2973 C2965 0.931 . S
H2974 C2955 0.930 . S
H2975 C2984 0.910 1_455 S
H2976 C2960 0.931 . S
H2977 C2961 0.930 . S
H2978 C3016 0.930 . S
H2979 C2957 0.929 . S
H2980 C2985 0.931 . S
H2981 C2986 0.930 . S
N2982 Gd2962 2.622 1_655 S
N2982 C2983 1.369 . S
N2982 C2984 1.333 . S
C2983 N2982 1.369 . S
C2983 C2987 1.415 . S
C2983 C2990 1.422 . S
C2984 H2975 0.910 1_655 S
C2984 N2982 1.333 . S
C2984 C2986 1.402 . S
C2985 H2980 0.931 . S
C2985 C2986 1.348 . S
C2985 C2987 1.413 . S
C2986 H2981 0.930 . S
C2986 C2984 1.402 . S
C2986 C2985 1.348 . S
C2987 C2983 1.415 . S
C2987 C2985 1.413 . S
C2987 C3017 1.437 . S
H2988 C3017 0.929 . S
N2989 Gd2962 2.570 1_655 S
N2989 C2990 1.359 . S
N2989 C2993 1.343 . S
C2990 C2983 1.422 . S
C2990 N2989 1.359 . S
C2990 C2992 1.421 . S
C2991 C2992 1.422 . S
C2991 C2994 1.321 . S
C2991 H3018 0.931 . S
C2992 C2990 1.421 . S
C2992 C2991 1.422 . S
C2992 C3016 1.417 . S
C2993 H2970 0.931 1_655 S
C2993 N2989 1.343 . S
C2993 C2994 1.390 . S
C2994 H2972 0.930 . S
C2994 C2991 1.321 . S
C2994 C2993 1.390 . S
O2995 Gd2963 2.386 . S
O2995 C3007 1.265 . S
O2996 Gd2962 2.353 . S
O2996 C3007 1.242 . S
O2997 Gd2962 2.468 . S
O2997 C3015 1.263 . S
O2998 Gd2962 2.427 . S
O2998 C3015 1.252 . S
O2999 Gd2963 2.307 . S
O2999 C3008 1.261 . S
O3000 Gd2962 2.388 . S
O3000 C3008 1.252 . S
O3001 Gd2962 2.386 1_655 S
O3001 C3019 1.265 . S
O3002 Gd2963 2.353 1_655 S
O3002 C3019 1.242 . S
O3003 Gd2963 2.468 . S
O3003 C3027 1.263 . S
O3004 Gd2963 2.427 . S
O3004 C3027 1.252 . S
O3005 Gd2962 2.307 . S
O3005 C3020 1.261 . S
O3006 Gd2963 2.388 . S
O3006 C3020 1.252 . S
C3007 O2995 1.265 . S
C3007 O2996 1.242 . S
C3008 O2999 1.261 . S
C3008 O3000 1.252 . S
C3009 C3012 1.394 . S
C3009 C3014 1.370 . S
C3009 C3015 1.500 . S
C3010 C3013 1.383 . S
C3010 C3014 1.395 . S
C3011 C3012 1.396 . S
C3011 C3013 1.365 . S
C3011 H3028 0.929 . S
C3012 C3009 1.394 . S
C3012 C3011 1.396 . S
C3012 H3029 0.930 . S
C3013 C3010 1.383 . S
C3013 C3011 1.365 . S
C3013 H3030 0.931 . S
C3014 C3009 1.370 . S
C3014 C3010 1.395 . S
C3014 H3031 0.930 . S
C3015 Gd2962 2.805 . S
C3015 O2997 1.263 . S
C3015 O2998 1.252 . S
C3015 C3009 1.500 . S
C3016 H2978 0.930 . S
C3016 C2992 1.417 . S
C3016 C3017 1.329 . S
C3017 C2987 1.437 . S
C3017 H2988 0.929 . S
C3017 C3016 1.329 . S
H3018 C2991 0.931 . S
C3019 O3001 1.265 . S
C3019 O3002 1.242 . S
C3020 O3005 1.261 . S
C3020 O3006 1.252 . S
C3021 C3024 1.394 . S
C3021 C3026 1.370 . S
C3021 C3027 1.500 1_655 S
C3022 C3025 1.383 . S
C3022 C3026 1.395 . S
C3023 C3024 1.396 . S
C3023 C3025 1.365 . S
C3023 H3032 0.929 . S
C3024 C3021 1.394 . S
C3024 C3023 1.396 . S
C3024 H3033 0.930 . S
C3025 C3022 1.383 . S
C3025 C3023 1.365 . S
C3025 H3034 0.931 . S
C3026 C3021 1.370 . S
C3026 C3022 1.395 . S
C3026 H3035 0.930 . S
C3027 Gd2963 2.805 . S
C3027 O3003 1.263 . S
C3027 O3004 1.252 . S
C3027 C3021 1.500 1_455 S
H3028 C3011 0.929 . S
H3029 C3012 0.930 . S
H3030 C3013 0.931 . S
H3031 C3014 0.930 . S
H3032 C3023 0.929 . S
H3033 C3024 0.930 . S
H3034 C3025 0.931 . S
H3035 C3026 0.930 . S
C3036 C3038 1.422 . S
C3036 C3040 1.415 . S
C3036 N3042 1.369 . S
C3037 C3038 1.421 . S
C3037 C3039 1.417 . S
C3037 C3049 1.422 . S
C3038 C3036 1.422 . S
C3038 C3037 1.421 . S
C3038 N3048 1.359 . S
C3039 C3037 1.417 . S
C3039 C3041 1.329 . S
C3039 H3058 0.930 . S
C3040 C3036 1.415 . S
C3040 C3041 1.437 . S
C3040 C3044 1.413 . S
C3041 C3039 1.329 . S
C3041 C3040 1.437 . S
C3041 H3063 0.929 . S
N3042 C3036 1.369 . S
N3042 C3043 1.338 . S
N3042 Gd3047 2.622 . S
C3043 N3042 1.338 . S
C3043 C3045 1.378 . S
C3043 H3055 0.929 . S
C3044 C3040 1.413 . S
C3044 C3045 1.348 . S
C3044 H3060 0.931 . S
C3045 C3043 1.378 . S
C3045 C3044 1.348 . S
C3045 H3061 0.930 . S
Gd3046 N3066 2.622 . S
Gd3046 N3073 2.570 . S
Gd3046 O3080 2.353 . S
Gd3046 O3081 2.468 . S
Gd3046 O3082 2.427 . S
Gd3046 O3084 2.388 . S
Gd3046 O3085 2.386 . S
Gd3046 O3089 2.307 . S
Gd3046 C3099 2.805 . S
Gd3047 N3042 2.622 . S
Gd3047 N3048 2.570 . S
Gd3047 O3079 2.386 . S
Gd3047 O3083 2.307 . S
Gd3047 O3086 2.353 . S
Gd3047 O3087 2.468 . S
Gd3047 O3088 2.427 . S
Gd3047 O3090 2.388 . S
Gd3047 C3111 2.805 . S
N3048 C3038 1.359 . S
N3048 Gd3047 2.570 . S
N3048 C3050 1.343 . S
C3049 C3037 1.422 . S
C3049 C3051 1.321 . S
C3049 H3057 0.931 . S
C3050 N3048 1.343 . S
C3050 C3051 1.390 . S
C3050 H3052 0.931 . S
C3051 C3049 1.321 . S
C3051 C3050 1.390 . S
C3051 H3053 0.930 . S
H3052 C3050 0.931 . S
H3053 C3051 0.930 . S
H3054 C3077 0.931 . S
H3055 C3043 0.929 . S
H3056 C3078 0.930 . S
H3057 C3049 0.931 . S
H3058 C3039 0.930 . S
H3059 C3068 0.929 . S
H3060 C3044 0.931 . S
H3061 C3045 0.930 . S
H3062 C3100 0.930 . S
H3063 C3041 0.929 . S
H3064 C3069 0.931 . S
H3065 C3070 0.930 . S
N3066 Gd3046 2.622 . S
N3066 C3067 1.369 . S
N3066 C3068 1.338 . S
C3067 N3066 1.369 . S
C3067 C3071 1.415 . S
C3067 C3074 1.422 . S
C3068 H3059 0.929 . S
C3068 N3066 1.338 . S
C3068 C3070 1.378 . S
C3069 H3064 0.931 . S
C3069 C3070 1.348 . S
C3069 C3071 1.413 . S
C3070 H3065 0.930 . S
C3070 C3068 1.378 . S
C3070 C3069 1.348 . S
C3071 C3067 1.415 . S
C3071 C3069 1.413 . S
C3071 C3101 1.437 . S
H3072 C3101 0.929 . S
N3073 Gd3046 2.570 . S
N3073 C3074 1.359 . S
N3073 C3077 1.343 . S
C3074 C3067 1.422 . S
C3074 N3073 1.359 . S
C3074 C3076 1.421 . S
C3075 C3076 1.422 . S
C3075 C3078 1.321 . S
C3075 H3102 0.931 . S
C3076 C3074 1.421 . S
C3076 C3075 1.422 . S
C3076 C3100 1.417 . S
C3077 H3054 0.931 . S
C3077 N3073 1.343 . S
C3077 C3078 1.390 . S
C3078 H3056 0.930 . S
C3078 C3075 1.321 . S
C3078 C3077 1.390 . S
O3079 Gd3047 2.386 . S
O3079 C3091 1.265 . S
O3080 Gd3046 2.353 . S
O3080 C3091 1.242 . S
O3081 Gd3046 2.468 . S
O3081 C3099 1.263 . S
O3082 Gd3046 2.427 . S
O3082 C3099 1.252 . S
O3083 Gd3047 2.307 . S
O3083 C3092 1.261 . S
O3084 Gd3046 2.388 . S
O3084 C3092 1.252 . S
O3085 Gd3046 2.386 . S
O3085 C3103 1.265 . S
O3086 Gd3047 2.353 . S
O3086 C3103 1.242 . S
O3087 Gd3047 2.468 . S
O3087 C3111 1.263 . S
O3088 Gd3047 2.427 . S
O3088 C3111 1.252 . S
O3089 Gd3046 2.307 . S
O3089 C3104 1.261 . S
O3090 Gd3047 2.388 . S
O3090 C3104 1.252 . S
C3091 O3079 1.265 . S
C3091 O3080 1.242 . S
C3092 O3083 1.261 . S
C3092 O3084 1.252 . S
C3093 C3096 1.394 . S
C3093 C3098 1.370 . S
C3093 C3099 1.500 . S
C3094 C3097 1.383 . S
C3094 C3098 1.395 . S
C3095 C3096 1.396 . S
C3095 C3097 1.365 . S
C3095 H3112 0.929 . S
C3096 C3093 1.394 . S
C3096 C3095 1.396 . S
C3096 H3113 0.930 . S
C3097 C3094 1.383 . S
C3097 C3095 1.365 . S
C3097 H3114 0.931 . S
C3098 C3093 1.370 . S
C3098 C3094 1.395 . S
C3098 H3115 0.930 . S
C3099 Gd3046 2.805 . S
C3099 O3081 1.263 . S
C3099 O3082 1.252 . S
C3099 C3093 1.500 . S
C3100 H3062 0.930 . S
C3100 C3076 1.417 . S
C3100 C3101 1.329 . S
C3101 C3071 1.437 . S
C3101 H3072 0.929 . S
C3101 C3100 1.329 . S
H3102 C3075 0.931 . S
C3103 O3085 1.265 . S
C3103 O3086 1.242 . S
C3104 O3089 1.261 . S
C3104 O3090 1.252 . S
C3105 C3108 1.394 . S
C3105 C3110 1.370 . S
C3105 C3111 1.500 . S
C3106 C3109 1.383 . S
C3106 C3110 1.395 . S
C3107 C3108 1.396 . S
C3107 C3109 1.365 . S
C3107 H3116 0.929 . S
C3108 C3105 1.394 . S
C3108 C3107 1.396 . S
C3108 H3117 0.930 . S
C3109 C3106 1.383 . S
C3109 C3107 1.365 . S
C3109 H3118 0.931 . S
C3110 C3105 1.370 . S
C3110 C3106 1.395 . S
C3110 H3119 0.930 . S
C3111 Gd3047 2.805 . S
C3111 O3087 1.263 . S
C3111 O3088 1.252 . S
C3111 C3105 1.500 . S
H3112 C3095 0.929 . S
H3113 C3096 0.930 . S
H3114 C3097 0.931 . S
H3115 C3098 0.930 . S
H3116 C3107 0.929 . S
H3117 C3108 0.930 . S
H3118 C3109 0.931 . S
H3119 C3110 0.930 . S
C3120 C3122 1.422 . S
C3120 C3124 1.415 . S
C3120 N3126 1.369 . S
C3121 C3122 1.421 . S
C3121 C3123 1.417 . S
C3121 C3133 1.422 . S
C3122 C3120 1.422 . S
C3122 C3121 1.421 . S
C3122 N3132 1.359 . S
C3123 C3121 1.417 . S
C3123 C3125 1.329 . S
C3123 H3142 0.930 . S
C3124 C3120 1.415 . S
C3124 C3125 1.437 . S
C3124 C3128 1.413 . S
C3125 C3123 1.329 . S
C3125 C3124 1.437 . S
C3125 H3147 0.929 . S
N3126 C3120 1.369 . S
N3126 C3127 1.338 . S
N3126 Gd3131 2.622 . S
C3127 N3126 1.338 . S
C3127 C3129 1.378 . S
C3127 H3139 0.929 . S
C3128 C3124 1.413 . S
C3128 C3129 1.348 . S
C3128 H3144 0.931 . S
C3129 C3127 1.378 . S
C3129 C3128 1.348 . S
C3129 H3145 0.930 . S
Gd3130 N3150 2.622 . S
Gd3130 N3157 2.570 . S
Gd3130 O3164 2.353 . S
Gd3130 O3165 2.468 . S
Gd3130 O3166 2.427 . S
Gd3130 O3168 2.388 . S
Gd3130 O3169 2.386 . S
Gd3130 O3173 2.307 . S
Gd3130 C3183 2.805 . S
Gd3131 N3126 2.622 . S
Gd3131 N3132 2.570 . S
Gd3131 O3163 2.386 . S
Gd3131 O3167 2.307 . S
Gd3131 O3170 2.353 . S
Gd3131 O3171 2.468 . S
Gd3131 O3172 2.427 . S
Gd3131 O3174 2.388 . S
Gd3131 C3195 2.805 . S
N3132 C3122 1.359 . S
N3132 Gd3131 2.570 . S
N3132 C3134 1.343 . S
C3133 C3121 1.422 . S
C3133 C3135 1.321 . S
C3133 H3141 0.931 . S
C3134 N3132 1.343 . S
C3134 C3135 1.390 . S
C3134 H3136 0.931 . S
C3135 C3133 1.321 . S
C3135 C3134 1.390 . S
C3135 H3137 0.930 . S
H3136 C3134 0.931 . S
H3137 C3135 0.930 . S
H3138 C3161 0.931 . S
H3139 C3127 0.929 . S
H3140 C3162 0.930 . S
H3141 C3133 0.931 . S
H3142 C3123 0.930 . S
H3143 C3152 0.929 . S
H3144 C3128 0.931 . S
H3145 C3129 0.930 . S
H3146 C3184 0.930 . S
H3147 C3125 0.929 . S
H3148 C3153 0.931 . S
H3149 C3154 0.930 . S
N3150 Gd3130 2.622 . S
N3150 C3151 1.369 . S
N3150 C3152 1.338 . S
C3151 N3150 1.369 . S
C3151 C3155 1.415 . S
C3151 C3158 1.422 . S
C3152 H3143 0.929 . S
C3152 N3150 1.338 . S
C3152 C3154 1.378 . S
C3153 H3148 0.931 . S
C3153 C3154 1.348 . S
C3153 C3155 1.413 . S
C3154 H3149 0.930 . S
C3154 C3152 1.378 . S
C3154 C3153 1.348 . S
C3155 C3151 1.415 . S
C3155 C3153 1.413 . S
C3155 C3185 1.437 . S
H3156 C3185 0.929 . S
N3157 Gd3130 2.570 . S
N3157 C3158 1.359 . S
N3157 C3161 1.343 . S
C3158 C3151 1.422 . S
C3158 N3157 1.359 . S
C3158 C3160 1.421 . S
C3159 C3160 1.422 . S
C3159 C3162 1.321 . S
C3159 H3186 0.931 . S
C3160 C3158 1.421 . S
C3160 C3159 1.422 . S
C3160 C3184 1.417 . S
C3161 H3138 0.931 . S
C3161 N3157 1.343 . S
C3161 C3162 1.390 . S
C3162 H3140 0.930 . S
C3162 C3159 1.321 . S
C3162 C3161 1.390 . S
O3163 Gd3131 2.386 . S
O3163 C3175 1.265 . S
O3164 Gd3130 2.353 . S
O3164 C3175 1.242 . S
O3165 Gd3130 2.468 . S
O3165 C3183 1.263 . S
O3166 Gd3130 2.427 . S
O3166 C3183 1.252 . S
O3167 Gd3131 2.307 . S
O3167 C3176 1.261 . S
O3168 Gd3130 2.388 . S
O3168 C3176 1.252 . S
O3169 Gd3130 2.386 . S
O3169 C3187 1.265 . S
O3170 Gd3131 2.353 . S
O3170 C3187 1.242 . S
O3171 Gd3131 2.468 . S
O3171 C3195 1.263 . S
O3172 Gd3131 2.427 . S
O3172 C3195 1.252 . S
O3173 Gd3130 2.307 . S
O3173 C3188 1.261 . S
O3174 Gd3131 2.388 . S
O3174 C3188 1.252 . S
C3175 O3163 1.265 . S
C3175 O3164 1.242 . S
C3176 O3167 1.261 . S
C3176 O3168 1.252 . S
C3177 C3180 1.394 . S
C3177 C3182 1.370 . S
C3177 C3183 1.500 . S
C3178 C3181 1.383 . S
C3178 C3182 1.395 . S
C3179 C3180 1.396 . S
C3179 C3181 1.365 . S
C3179 H3196 0.929 . S
C3180 C3177 1.394 . S
C3180 C3179 1.396 . S
C3180 H3197 0.930 . S
C3181 C3178 1.383 . S
C3181 C3179 1.365 . S
C3181 H3198 0.931 . S
C3182 C3177 1.370 . S
C3182 C3178 1.395 . S
C3182 H3199 0.930 . S
C3183 Gd3130 2.805 . S
C3183 O3165 1.263 . S
C3183 O3166 1.252 . S
C3183 C3177 1.500 . S
C3184 H3146 0.930 . S
C3184 C3160 1.417 . S
C3184 C3185 1.329 . S
C3185 C3155 1.437 . S
C3185 H3156 0.929 . S
C3185 C3184 1.329 . S
H3186 C3159 0.931 . S
C3187 O3169 1.265 . S
C3187 O3170 1.242 . S
C3188 O3173 1.261 . S
C3188 O3174 1.252 . S
C3189 C3192 1.394 . S
C3189 C3194 1.370 . S
C3189 C3195 1.500 . S
C3190 C3193 1.383 . S
C3190 C3194 1.395 . S
C3191 C3192 1.396 . S
C3191 C3193 1.365 . S
C3191 H3200 0.929 . S
C3192 C3189 1.394 . S
C3192 C3191 1.396 . S
C3192 H3201 0.930 . S
C3193 C3190 1.383 . S
C3193 C3191 1.365 . S
C3193 H3202 0.931 . S
C3194 C3189 1.370 . S
C3194 C3190 1.395 . S
C3194 H3203 0.930 . S
C3195 Gd3131 2.805 . S
C3195 O3171 1.263 . S
C3195 O3172 1.252 . S
C3195 C3189 1.500 . S
H3196 C3179 0.929 . S
H3197 C3180 0.930 . S
H3198 C3181 0.931 . S
H3199 C3182 0.930 . S
H3200 C3191 0.929 . S
H3201 C3192 0.930 . S
H3202 C3193 0.931 . S
H3203 C3194 0.930 . S
C3204 C3206 1.422 . S
C3204 C3208 1.415 . S
C3204 N3210 1.369 . S
C3205 C3206 1.421 . S
C3205 C3207 1.417 . S
C3205 C3217 1.422 . S
C3206 C3204 1.422 . S
C3206 C3205 1.421 . S
C3206 N3216 1.359 . S
C3207 C3205 1.417 . S
C3207 C3209 1.329 . S
C3207 H3226 0.930 . S
C3208 C3204 1.415 . S
C3208 C3209 1.437 . S
C3208 C3212 1.413 . S
C3209 C3207 1.329 . S
C3209 C3208 1.437 . S
C3209 H3231 0.929 . S
N3210 C3204 1.369 . S
N3210 C3211 1.338 . S
N3210 Gd3215 2.622 . S
C3211 N3210 1.338 . S
C3211 C3213 1.378 . S
C3211 H3223 0.929 . S
C3212 C3208 1.413 . S
C3212 C3213 1.348 . S
C3212 H3228 0.931 . S
C3213 C3211 1.378 . S
C3213 C3212 1.348 . S
C3213 H3229 0.930 . S
Gd3214 N3234 2.622 . S
Gd3214 N3241 2.570 . S
Gd3214 O3248 2.353 . S
Gd3214 O3249 2.468 . S
Gd3214 O3250 2.427 . S
Gd3214 O3252 2.388 . S
Gd3214 O3253 2.386 . S
Gd3214 O3257 2.307 . S
Gd3214 C3267 2.805 . S
Gd3215 N3210 2.622 . S
Gd3215 N3216 2.570 . S
Gd3215 O3247 2.386 . S
Gd3215 O3251 2.307 . S
Gd3215 O3254 2.353 . S
Gd3215 O3255 2.468 . S
Gd3215 O3256 2.427 . S
Gd3215 O3258 2.388 . S
Gd3215 C3279 2.805 . S
N3216 C3206 1.359 . S
N3216 Gd3215 2.570 . S
N3216 C3218 1.343 . S
C3217 C3205 1.422 . S
C3217 C3219 1.321 . S
C3217 H3225 0.931 . S
C3218 N3216 1.343 . S
C3218 C3219 1.390 . S
C3218 H3220 0.931 . S
C3219 C3217 1.321 . S
C3219 C3218 1.390 . S
C3219 H3221 0.930 . S
H3220 C3218 0.931 . S
H3221 C3219 0.930 . S
H3222 C3245 0.931 . S
H3223 C3211 0.929 . S
H3224 C3246 0.930 . S
H3225 C3217 0.931 . S
H3226 C3207 0.930 . S
H3227 C3236 0.929 . S
H3228 C3212 0.931 . S
H3229 C3213 0.930 . S
H3230 C3268 0.930 . S
H3231 C3209 0.929 . S
H3232 C3237 0.931 . S
H3233 C3238 0.930 . S
N3234 Gd3214 2.622 . S
N3234 C3235 1.369 . S
N3234 C3236 1.338 . S
C3235 N3234 1.369 . S
C3235 C3239 1.415 . S
C3235 C3242 1.422 . S
C3236 H3227 0.929 . S
C3236 N3234 1.338 . S
C3236 C3238 1.378 . S
C3237 H3232 0.931 . S
C3237 C3238 1.348 . S
C3237 C3239 1.413 . S
C3238 H3233 0.930 . S
C3238 C3236 1.378 . S
C3238 C3237 1.348 . S
C3239 C3235 1.415 . S
C3239 C3237 1.413 . S
C3239 C3269 1.437 . S
H3240 C3269 0.929 . S
N3241 Gd3214 2.570 . S
N3241 C3242 1.359 . S
N3241 C3245 1.343 . S
C3242 C3235 1.422 . S
C3242 N3241 1.359 . S
C3242 C3244 1.421 . S
C3243 C3244 1.422 . S
C3243 C3246 1.321 . S
C3243 H3270 0.931 . S
C3244 C3242 1.421 . S
C3244 C3243 1.422 . S
C3244 C3268 1.417 . S
C3245 H3222 0.931 . S
C3245 N3241 1.343 . S
C3245 C3246 1.390 . S
C3246 H3224 0.930 . S
C3246 C3243 1.321 . S
C3246 C3245 1.390 . S
O3247 Gd3215 2.386 . S
O3247 C3259 1.265 . S
O3248 Gd3214 2.353 . S
O3248 C3259 1.242 . S
O3249 Gd3214 2.468 . S
O3249 C3267 1.263 . S
O3250 Gd3214 2.427 . S
O3250 C3267 1.252 . S
O3251 Gd3215 2.307 . S
O3251 C3260 1.261 . S
O3252 Gd3214 2.388 . S
O3252 C3260 1.252 . S
O3253 Gd3214 2.386 . S
O3253 C3271 1.265 . S
O3254 Gd3215 2.353 . S
O3254 C3271 1.242 . S
O3255 Gd3215 2.468 . S
O3255 C3279 1.263 . S
O3256 Gd3215 2.427 . S
O3256 C3279 1.252 . S
O3257 Gd3214 2.307 . S
O3257 C3272 1.261 . S
O3258 Gd3215 2.388 . S
O3258 C3272 1.252 . S
C3259 O3247 1.265 . S
C3259 O3248 1.242 . S
C3260 O3251 1.261 . S
C3260 O3252 1.252 . S
C3261 C3264 1.394 . S
C3261 C3266 1.370 . S
C3261 C3267 1.500 . S
C3262 C3265 1.383 . S
C3262 C3266 1.395 . S
C3263 C3264 1.396 . S
C3263 C3265 1.365 . S
C3263 H3280 0.929 . S
C3264 C3261 1.394 . S
C3264 C3263 1.396 . S
C3264 H3281 0.930 . S
C3265 C3262 1.383 . S
C3265 C3263 1.365 . S
C3265 H3282 0.931 . S
C3266 C3261 1.370 . S
C3266 C3262 1.395 . S
C3266 H3283 0.930 . S
C3267 Gd3214 2.805 . S
C3267 O3249 1.263 . S
C3267 O3250 1.252 . S
C3267 C3261 1.500 . S
C3268 H3230 0.930 . S
C3268 C3244 1.417 . S
C3268 C3269 1.329 . S
C3269 C3239 1.437 . S
C3269 H3240 0.929 . S
C3269 C3268 1.329 . S
H3270 C3243 0.931 . S
C3271 O3253 1.265 . S
C3271 O3254 1.242 . S
C3272 O3257 1.261 . S
C3272 O3258 1.252 . S
C3273 C3276 1.394 . S
C3273 C3278 1.370 . S
C3273 C3279 1.500 . S
C3274 C3277 1.383 . S
C3274 C3278 1.395 . S
C3275 C3276 1.396 . S
C3275 C3277 1.365 . S
C3275 H3284 0.929 . S
C3276 C3273 1.394 . S
C3276 C3275 1.396 . S
C3276 H3285 0.930 . S
C3277 C3274 1.383 . S
C3277 C3275 1.365 . S
C3277 H3286 0.931 . S
C3278 C3273 1.370 . S
C3278 C3274 1.395 . S
C3278 H3287 0.930 . S
C3279 Gd3215 2.805 . S
C3279 O3255 1.263 . S
C3279 O3256 1.252 . S
C3279 C3273 1.500 . S
H3280 C3263 0.929 . S
H3281 C3264 0.930 . S
H3282 C3265 0.931 . S
H3283 C3266 0.930 . S
H3284 C3275 0.929 . S
H3285 C3276 0.930 . S
H3286 C3277 0.931 . S
H3287 C3278 0.930 . S
C3288 C3290 1.422 . S
C3288 C3292 1.415 . S
C3288 N3294 1.369 . S
C3289 C3290 1.421 . S
C3289 C3291 1.417 . S
C3289 C3301 1.422 . S
C3290 C3288 1.422 . S
C3290 C3289 1.421 . S
C3290 N3300 1.359 . S
C3291 C3289 1.417 . S
C3291 C3293 1.329 . S
C3291 H3310 0.930 . S
C3292 C3288 1.415 . S
C3292 C3293 1.437 . S
C3292 C3296 1.413 . S
C3293 C3291 1.329 . S
C3293 C3292 1.437 . S
C3293 H3315 0.929 . S
N3294 C3288 1.369 . S
N3294 C3295 1.338 . S
N3294 Gd3299 2.622 . S
C3295 N3294 1.338 . S
C3295 C3297 1.378 . S
C3295 H3307 0.929 . S
C3296 C3292 1.413 . S
C3296 C3297 1.348 . S
C3296 H3312 0.931 . S
C3297 C3295 1.378 . S
C3297 C3296 1.348 . S
C3297 H3313 0.930 . S
Gd3298 N3318 2.622 . S
Gd3298 N3325 2.570 . S
Gd3298 O3332 2.353 . S
Gd3298 O3333 2.468 . S
Gd3298 O3334 2.427 . S
Gd3298 O3336 2.388 . S
Gd3298 O3337 2.386 . S
Gd3298 O3341 2.307 . S
Gd3298 C3351 2.805 . S
Gd3299 N3294 2.622 . S
Gd3299 N3300 2.570 . S
Gd3299 O3331 2.386 . S
Gd3299 O3335 2.307 . S
Gd3299 O3338 2.353 . S
Gd3299 O3339 2.468 . S
Gd3299 O3340 2.427 . S
Gd3299 O3342 2.388 . S
Gd3299 C3363 2.805 . S
N3300 C3290 1.359 . S
N3300 Gd3299 2.570 . S
N3300 C3302 1.343 . S
C3301 C3289 1.422 . S
C3301 C3303 1.321 . S
C3301 H3309 0.931 . S
C3302 N3300 1.343 . S
C3302 C3303 1.390 . S
C3302 H3304 0.931 . S
C3303 C3301 1.321 . S
C3303 C3302 1.390 . S
C3303 H3305 0.930 . S
H3304 C3302 0.931 . S
H3305 C3303 0.930 . S
H3306 C3329 0.931 . S
H3307 C3295 0.929 . S
H3308 C3330 0.930 . S
H3309 C3301 0.931 . S
H3310 C3291 0.930 . S
H3311 C3320 0.929 . S
H3312 C3296 0.931 . S
H3313 C3297 0.930 . S
H3314 C3352 0.930 . S
H3315 C3293 0.929 . S
H3316 C3321 0.931 . S
H3317 C3322 0.930 . S
N3318 Gd3298 2.622 . S
N3318 C3319 1.369 . S
N3318 C3320 1.338 . S
C3319 N3318 1.369 . S
C3319 C3323 1.415 . S
C3319 C3326 1.422 . S
C3320 H3311 0.929 . S
C3320 N3318 1.338 . S
C3320 C3322 1.378 . S
C3321 H3316 0.931 . S
C3321 C3322 1.348 . S
C3321 C3323 1.413 . S
C3322 H3317 0.930 . S
C3322 C3320 1.378 . S
C3322 C3321 1.348 . S
C3323 C3319 1.415 . S
C3323 C3321 1.413 . S
C3323 C3353 1.437 . S
H3324 C3353 0.929 . S
N3325 Gd3298 2.570 . S
N3325 C3326 1.359 . S
N3325 C3329 1.343 . S
C3326 C3319 1.422 . S
C3326 N3325 1.359 . S
C3326 C3328 1.421 . S
C3327 C3328 1.422 . S
C3327 C3330 1.321 . S
C3327 H3354 0.931 . S
C3328 C3326 1.421 . S
C3328 C3327 1.422 . S
C3328 C3352 1.417 . S
C3329 H3306 0.931 . S
C3329 N3325 1.343 . S
C3329 C3330 1.390 . S
C3330 H3308 0.930 . S
C3330 C3327 1.321 . S
C3330 C3329 1.390 . S
O3331 Gd3299 2.386 . S
O3331 C3343 1.265 . S
O3332 Gd3298 2.353 . S
O3332 C3343 1.242 . S
O3333 Gd3298 2.468 . S
O3333 C3351 1.263 . S
O3334 Gd3298 2.427 . S
O3334 C3351 1.252 . S
O3335 Gd3299 2.307 . S
O3335 C3344 1.261 . S
O3336 Gd3298 2.388 . S
O3336 C3344 1.252 . S
O3337 Gd3298 2.386 . S
O3337 C3355 1.265 . S
O3338 Gd3299 2.353 . S
O3338 C3355 1.242 . S
O3339 Gd3299 2.468 . S
O3339 C3363 1.263 . S
O3340 Gd3299 2.427 . S
O3340 C3363 1.252 . S
O3341 Gd3298 2.307 . S
O3341 C3356 1.261 . S
O3342 Gd3299 2.388 . S
O3342 C3356 1.252 . S
C3343 O3331 1.265 . S
C3343 O3332 1.242 . S
C3344 O3335 1.261 . S
C3344 O3336 1.252 . S
C3345 C3348 1.394 . S
C3345 C3350 1.370 . S
C3345 C3351 1.500 . S
C3346 C3349 1.383 . S
C3346 C3350 1.395 . S
C3347 C3348 1.396 . S
C3347 C3349 1.365 . S
C3347 H3364 0.929 . S
C3348 C3345 1.394 . S
C3348 C3347 1.396 . S
C3348 H3365 0.930 . S
C3349 C3346 1.383 . S
C3349 C3347 1.365 . S
C3349 H3366 0.931 . S
C3350 C3345 1.370 . S
C3350 C3346 1.395 . S
C3350 H3367 0.930 . S
C3351 Gd3298 2.805 . S
C3351 O3333 1.263 . S
C3351 O3334 1.252 . S
C3351 C3345 1.500 . S
C3352 H3314 0.930 . S
C3352 C3328 1.417 . S
C3352 C3353 1.329 . S
C3353 C3323 1.437 . S
C3353 H3324 0.929 . S
C3353 C3352 1.329 . S
H3354 C3327 0.931 . S
C3355 O3337 1.265 . S
C3355 O3338 1.242 . S
C3356 O3341 1.261 . S
C3356 O3342 1.252 . S
C3357 C3360 1.394 . S
C3357 C3362 1.370 . S
C3357 C3363 1.500 . S
C3358 C3361 1.383 . S
C3358 C3362 1.395 . S
C3359 C3360 1.396 . S
C3359 C3361 1.365 . S
C3359 H3368 0.929 . S
C3360 C3357 1.394 . S
C3360 C3359 1.396 . S
C3360 H3369 0.930 . S
C3361 C3358 1.383 . S
C3361 C3359 1.365 . S
C3361 H3370 0.931 . S
C3362 C3357 1.370 . S
C3362 C3358 1.395 . S
C3362 H3371 0.930 . S
C3363 Gd3299 2.805 . S
C3363 O3339 1.263 . S
C3363 O3340 1.252 . S
C3363 C3357 1.500 . S
H3364 C3347 0.929 . S
H3365 C3348 0.930 . S
H3366 C3349 0.931 . S
H3367 C3350 0.930 . S
H3368 C3359 0.929 . S
H3369 C3360 0.930 . S
H3370 C3361 0.931 . S
H3371 C3362 0.930 . S
C3372 C3374 1.422 1_556 S
C3372 C3376 1.415 . S
C3372 N3378 1.369 . S
C3373 C3374 1.421 . S
C3373 C3375 1.417 . S
C3373 C3385 1.422 . S
C3374 C3372 1.422 1_554 S
C3374 C3373 1.421 . S
C3374 N3384 1.359 . S
C3375 C3373 1.417 . S
C3375 C3377 1.329 1_554 S
C3375 H3394 0.930 . S
C3376 C3372 1.415 . S
C3376 C3377 1.437 . S
C3376 C3380 1.413 . S
C3377 C3375 1.329 1_556 S
C3377 C3376 1.437 . S
C3377 H3399 0.929 . S
N3378 C3372 1.369 . S
N3378 C3379 1.338 . S
N3378 Gd3383 2.622 1_556 S
C3379 N3378 1.338 . S
C3379 C3381 1.378 . S
C3379 H3391 0.929 . S
C3380 C3376 1.413 . S
C3380 C3381 1.348 . S
C3380 H3396 0.931 . S
C3381 C3379 1.378 . S
C3381 C3380 1.348 . S
C3381 H3397 0.930 . S
Gd3382 N3402 2.625 . S
Gd3382 N3409 2.578 . S
Gd3382 O3416 2.349 1_655 S
Gd3382 O3417 2.479 . S
Gd3382 O3418 2.436 . S
Gd3382 O3420 2.378 1_655 S
Gd3382 O3421 2.379 1_655 S
Gd3382 O3425 2.304 1_655 S
Gd3382 C3435 2.817 . S
Gd3383 N3378 2.622 1_554 S
Gd3383 N3384 2.570 . S
Gd3383 O3415 2.386 . S
Gd3383 O3419 2.307 . S
Gd3383 O3422 2.353 . S
Gd3383 O3423 2.468 . S
Gd3383 O3424 2.427 1_554 S
Gd3383 O3426 2.388 1_554 S
Gd3383 C3447 2.805 . S
N3384 C3374 1.359 . S
N3384 Gd3383 2.570 . S
N3384 C3386 1.343 . S
C3385 C3373 1.422 . S
C3385 C3387 1.321 . S
C3385 H3393 0.931 . S
C3386 N3384 1.343 . S
C3386 C3387 1.390 . S
C3386 H3388 0.931 . S
C3387 C3385 1.321 . S
C3387 C3386 1.390 . S
C3387 H3389 0.930 . S
H3388 C3386 0.931 . S
H3389 C3387 0.930 . S
H3390 C3413 0.931 1_556 S
H3391 C3379 0.929 . S
H3392 C3414 0.930 . S
H3393 C3385 0.931 . S
H3394 C3375 0.930 . S
H3395 C3404 0.929 1_455 S
H3396 C3380 0.931 . S
H3397 C3381 0.930 . S
H3398 C3436 0.930 . S
H3399 C3377 0.929 . S
H3400 C3405 0.931 . S
H3401 C3406 0.930 . S
N3402 Gd3382 2.625 . S
N3402 C3403 1.369 . S
N3402 C3404 1.338 . S
C3403 N3402 1.369 . S
C3403 C3407 1.415 . S
C3403 C3410 1.422 . S
C3404 H3395 0.929 1_655 S
C3404 N3402 1.338 . S
C3404 C3406 1.378 . S
C3405 H3400 0.931 . S
C3405 C3406 1.348 . S
C3405 C3407 1.413 . S
C3406 H3401 0.930 . S
C3406 C3404 1.378 . S
C3406 C3405 1.348 . S
C3407 C3403 1.415 . S
C3407 C3405 1.413 . S
C3407 C3437 1.437 . S
H3408 C3437 0.929 . S
N3409 Gd3382 2.578 . S
N3409 C3410 1.359 . S
N3409 C3413 1.343 . S
C3410 C3403 1.422 . S
C3410 N3409 1.359 . S
C3410 C3412 1.421 . S
C3411 C3412 1.422 . S
C3411 C3414 1.321 1_554 S
C3411 H3438 0.931 . S
C3412 C3410 1.421 . S
C3412 C3411 1.422 . S
C3412 C3436 1.417 . S
C3413 H3390 0.931 1_554 S
C3413 N3409 1.343 . S
C3413 C3414 1.390 1_554 S
C3414 H3392 0.930 . S
C3414 C3411 1.321 1_556 S
C3414 C3413 1.390 1_556 S
O3415 Gd3383 2.386 . S
O3415 C3427 1.265 . S
O3416 Gd3382 2.349 1_455 S
O3416 C3427 1.242 . S
O3417 Gd3382 2.479 . S
O3417 C3435 1.263 . S
O3418 Gd3382 2.436 . S
O3418 C3435 1.252 . S
O3419 Gd3383 2.307 . S
O3419 C3428 1.261 . S
O3420 Gd3382 2.378 1_455 S
O3420 C3428 1.252 . S
O3421 Gd3382 2.379 1_455 S
O3421 C3439 1.265 . S
O3422 Gd3383 2.353 . S
O3422 C3439 1.242 . S
O3423 Gd3383 2.468 . S
O3423 C3447 1.263 . S
O3424 Gd3383 2.427 1_556 S
O3424 C3447 1.252 1_556 S
O3425 Gd3382 2.304 1_455 S
O3425 C3440 1.261 1_554 S
O3426 Gd3383 2.388 1_556 S
O3426 C3440 1.252 . S
C3427 O3415 1.265 . S
C3427 O3416 1.242 . S
C3428 O3419 1.261 . S
C3428 O3420 1.252 . S
C3429 C3432 1.394 . S
C3429 C3434 1.370 . S
C3429 C3435 1.500 . S
C3430 C3433 1.383 . S
C3430 C3434 1.395 . S
C3431 C3432 1.396 . S
C3431 C3433 1.365 . S
C3431 H3448 0.929 . S
C3432 C3429 1.394 . S
C3432 C3431 1.396 . S
C3432 H3449 0.930 . S
C3433 C3430 1.383 . S
C3433 C3431 1.365 . S
C3433 H3450 0.931 . S
C3434 C3429 1.370 . S
C3434 C3430 1.395 . S
C3434 H3451 0.930 . S
C3435 Gd3382 2.817 . S
C3435 O3417 1.263 . S
C3435 O3418 1.252 . S
C3435 C3429 1.500 . S
C3436 H3398 0.930 . S
C3436 C3412 1.417 . S
C3436 C3437 1.329 . S
C3437 C3407 1.437 . S
C3437 H3408 0.929 . S
C3437 C3436 1.329 . S
H3438 C3411 0.931 . S
C3439 O3421 1.265 . S
C3439 O3422 1.242 . S
C3440 O3425 1.261 1_556 S
C3440 O3426 1.252 . S
C3441 C3444 1.394 . S
C3441 C3446 1.370 1_556 S
C3441 C3447 1.500 1_556 S
C3442 C3445 1.383 1_554 S
C3442 C3446 1.395 . S
C3443 C3444 1.396 . S
C3443 C3445 1.365 . S
C3443 H3452 0.929 . S
C3444 C3441 1.394 . S
C3444 C3443 1.396 . S
C3444 H3453 0.930 . S
C3445 C3442 1.383 1_556 S
C3445 C3443 1.365 . S
C3445 H3454 0.931 . S
C3446 C3441 1.370 1_554 S
C3446 C3442 1.395 . S
C3446 H3455 0.930 . S
C3447 Gd3383 2.805 . S
C3447 O3423 1.263 . S
C3447 O3424 1.252 1_554 S
C3447 C3441 1.500 1_554 S
H3448 C3431 0.929 . S
H3449 C3432 0.930 . S
H3450 C3433 0.931 . S
H3451 C3434 0.930 . S
H3452 C3443 0.929 . S
H3453 C3444 0.930 . S
H3454 C3445 0.931 . S
H3455 C3446 0.930 . S
C3456 C3457 1.391 1_554 S
C3456 C3458 1.394 . S
C3456 H3472 0.931 . S
C3457 C3456 1.391 1_556 S
C3457 C3461 1.376 1_655 S
C3458 C3456 1.394 . S
C3458 C3459 1.354 1_654 S
C3458 C3462 1.531 . S
C3459 C3458 1.354 1_456 S
C3459 C3460 1.432 . S
C3459 C3467 1.495 1_556 S
C3460 C3459 1.432 . S
C3460 C3461 1.392 . S
C3460 C3463 1.511 . S
C3461 C3457 1.376 1_455 S
C3461 C3460 1.392 . S
C3461 H3473 0.929 . S
C3462 C3458 1.531 . S
C3462 H3474 0.960 . S
C3462 H3475 0.962 . S
C3462 H3476 0.960 . S
C3463 C3460 1.511 . S
C3463 H3477 0.961 . S
C3463 H3478 0.961 . S
C3463 H3479 0.961 . S
C3464 C3465 1.370 . S
C3464 C3466 1.363 . S
C3464 H3480 0.931 . S
C3465 C3464 1.370 . S
C3465 C3469 1.408 1_554 S
C3466 C3464 1.363 . S
C3466 C3467 1.370 . S
C3466 C3470 1.524 . S
C3467 C3459 1.495 1_554 S
C3467 C3466 1.370 . S
C3467 C3468 1.398 1_454 S
C3468 C3467 1.398 1_656 S
C3468 C3469 1.397 1_655 S
C3468 C3471 1.550 . S
C3469 C3465 1.408 1_556 S
C3469 C3468 1.397 1_455 S
C3469 H3481 0.930 1_455 S
C3470 C3466 1.524 . S
C3470 H3482 0.956 . S
C3470 H3483 0.961 . S
C3470 H3484 0.961 . S
C3471 C3468 1.550 . S
C3471 H3485 0.958 . S
C3471 H3486 0.961 . S
C3471 H3487 0.960 . S
H3472 C3456 0.931 . S
H3473 C3461 0.929 . S
H3474 C3462 0.960 . S
H3475 C3462 0.962 . S
H3476 C3462 0.960 . S
H3477 C3463 0.961 . S
H3478 C3463 0.961 . S
H3479 C3463 0.961 . S
H3480 C3464 0.931 . S
H3481 C3469 0.930 1_655 S
H3482 C3470 0.956 . S
H3483 C3470 0.961 . S
H3484 C3470 0.961 . S
H3485 C3471 0.958 . S
H3486 C3471 0.961 . S
H3487 C3471 0.960 . S
C3488 C3489 1.391 . S
C3488 C3490 1.394 . S
C3488 H3504 0.931 . S
C3489 C3488 1.391 . S
C3489 C3493 1.376 . S
C3490 C3488 1.394 . S
C3490 C3491 1.369 . S
C3490 C3494 1.531 . S
C3491 C3490 1.369 . S
C3491 C3492 1.410 . S
C3491 C3499 1.503 . S
C3492 C3491 1.410 . S
C3492 C3493 1.392 . S
C3492 C3495 1.511 . S
C3493 C3489 1.376 . S
C3493 C3492 1.392 . S
C3493 H3505 0.929 . S
C3494 C3490 1.531 . S
C3494 H3506 0.960 . S
C3494 H3507 0.962 . S
C3494 H3508 0.960 . S
C3495 C3492 1.511 . S
C3495 H3509 0.961 . S
C3495 H3510 0.961 . S
C3495 H3511 0.961 . S
C3496 C3497 1.370 . S
C3496 C3498 1.363 . S
C3496 H3512 0.931 . S
C3497 C3496 1.370 . S
C3497 C3501 1.408 . S
C3498 C3496 1.363 . S
C3498 C3499 1.370 . S
C3498 C3502 1.524 . S
C3499 C3491 1.503 . S
C3499 C3498 1.370 . S
C3499 C3500 1.403 . S
C3500 C3499 1.403 . S
C3500 C3501 1.404 . S
C3500 C3503 1.539 . S
C3501 C3497 1.408 . S
C3501 C3500 1.404 . S
C3501 H3513 0.930 . S
C3502 C3498 1.524 . S
C3502 H3514 0.956 . S
C3502 H3515 0.961 . S
C3502 H3516 0.961 . S
C3503 C3500 1.539 . S
C3503 H3517 0.958 . S
C3503 H3518 0.961 . S
C3503 H3519 0.960 . S
H3504 C3488 0.931 . S
H3505 C3493 0.929 . S
H3506 C3494 0.960 . S
H3507 C3494 0.962 . S
H3508 C3494 0.960 . S
H3509 C3495 0.961 . S
H3510 C3495 0.961 . S
H3511 C3495 0.961 . S
H3512 C3496 0.931 . S
H3513 C3501 0.930 . S
H3514 C3502 0.956 . S
H3515 C3502 0.961 . S
H3516 C3502 0.961 . S
H3517 C3503 0.958 . S
H3518 C3503 0.961 . S
H3519 C3503 0.960 . S
C3520 C3521 1.391 . S
C3520 C3522 1.394 . S
C3520 H3536 0.931 . S
C3521 C3520 1.391 . S
C3521 C3525 1.376 . S
C3522 C3520 1.394 . S
C3522 C3523 1.369 . S
C3522 C3526 1.531 . S
C3523 C3522 1.369 . S
C3523 C3524 1.410 . S
C3523 C3531 1.503 . S
C3524 C3523 1.410 . S
C3524 C3525 1.392 . S
C3524 C3527 1.511 . S
C3525 C3521 1.376 . S
C3525 C3524 1.392 . S
C3525 H3537 0.929 . S
C3526 C3522 1.531 . S
C3526 H3538 0.960 . S
C3526 H3539 0.962 . S
C3526 H3540 0.960 . S
C3527 C3524 1.511 . S
C3527 H3541 0.961 . S
C3527 H3542 0.961 . S
C3527 H3543 0.961 . S
C3528 C3529 1.370 . S
C3528 C3530 1.363 . S
C3528 H3544 0.931 . S
C3529 C3528 1.370 . S
C3529 C3533 1.408 . S
C3530 C3528 1.363 . S
C3530 C3531 1.370 . S
C3530 C3534 1.524 . S
C3531 C3523 1.503 . S
C3531 C3530 1.370 . S
C3531 C3532 1.403 . S
C3532 C3531 1.403 . S
C3532 C3533 1.404 . S
C3532 C3535 1.539 . S
C3533 C3529 1.408 . S
C3533 C3532 1.404 . S
C3533 H3545 0.930 . S
C3534 C3530 1.524 . S
C3534 H3546 0.956 . S
C3534 H3547 0.961 . S
C3534 H3548 0.961 . S
C3535 C3532 1.539 . S
C3535 H3549 0.958 . S
C3535 H3550 0.961 . S
C3535 H3551 0.960 . S
H3536 C3520 0.931 . S
H3537 C3525 0.929 . S
H3538 C3526 0.960 . S
H3539 C3526 0.962 . S
H3540 C3526 0.960 . S
H3541 C3527 0.961 . S
H3542 C3527 0.961 . S
H3543 C3527 0.961 . S
H3544 C3528 0.931 . S
H3545 C3533 0.930 . S
H3546 C3534 0.956 . S
H3547 C3534 0.961 . S
H3548 C3534 0.961 . S
H3549 C3535 0.958 . S
H3550 C3535 0.961 . S
H3551 C3535 0.960 . S
C3552 C3553 1.391 . S
C3552 C3554 1.394 . S
C3552 H3568 0.931 . S
C3553 C3552 1.391 . S
C3553 C3557 1.376 . S
C3554 C3552 1.394 . S
C3554 C3555 1.369 . S
C3554 C3558 1.531 . S
C3555 C3554 1.369 . S
C3555 C3556 1.410 . S
C3555 C3563 1.503 . S
C3556 C3555 1.410 . S
C3556 C3557 1.392 . S
C3556 C3559 1.511 . S
C3557 C3553 1.376 . S
C3557 C3556 1.392 . S
C3557 H3569 0.929 . S
C3558 C3554 1.531 . S
C3558 H3570 0.960 . S
C3558 H3571 0.962 . S
C3558 H3572 0.960 . S
C3559 C3556 1.511 . S
C3559 H3573 0.961 . S
C3559 H3574 0.961 . S
C3559 H3575 0.961 . S
C3560 C3561 1.370 . S
C3560 C3562 1.363 . S
C3560 H3576 0.931 . S
C3561 C3560 1.370 . S
C3561 C3565 1.408 . S
C3562 C3560 1.363 . S
C3562 C3563 1.370 . S
C3562 C3566 1.524 . S
C3563 C3555 1.503 . S
C3563 C3562 1.370 . S
C3563 C3564 1.403 . S
C3564 C3563 1.403 . S
C3564 C3565 1.404 . S
C3564 C3567 1.539 . S
C3565 C3561 1.408 . S
C3565 C3564 1.404 . S
C3565 H3577 0.930 . S
C3566 C3562 1.524 . S
C3566 H3578 0.956 . S
C3566 H3579 0.961 . S
C3566 H3580 0.961 . S
C3567 C3564 1.539 . S
C3567 H3581 0.958 . S
C3567 H3582 0.961 . S
C3567 H3583 0.960 . S
H3568 C3552 0.931 . S
H3569 C3557 0.929 . S
H3570 C3558 0.960 . S
H3571 C3558 0.962 . S
H3572 C3558 0.960 . S
H3573 C3559 0.961 . S
H3574 C3559 0.961 . S
H3575 C3559 0.961 . S
H3576 C3560 0.931 . S
H3577 C3565 0.930 . S
H3578 C3566 0.956 . S
H3579 C3566 0.961 . S
H3580 C3566 0.961 . S
H3581 C3567 0.958 . S
H3582 C3567 0.961 . S
H3583 C3567 0.960 . S
C3584 C3585 1.391 . S
C3584 C3586 1.394 . S
C3584 H3600 0.931 . S
C3585 C3584 1.391 . S
C3585 C3589 1.376 . S
C3586 C3584 1.394 . S
C3586 C3587 1.369 . S
C3586 C3590 1.531 . S
C3587 C3586 1.369 . S
C3587 C3588 1.410 . S
C3587 C3595 1.503 . S
C3588 C3587 1.410 . S
C3588 C3589 1.392 . S
C3588 C3591 1.511 1_455 S
C3589 C3585 1.376 . S
C3589 C3588 1.392 . S
C3589 H3601 0.929 1_455 S
C3590 C3586 1.531 . S
C3590 H3602 0.960 . S
C3590 H3603 0.962 . S
C3590 H3604 0.960 . S
C3591 C3588 1.511 1_655 S
C3591 H3605 0.961 . S
C3591 H3606 0.961 . S
C3591 H3607 0.961 . S
C3592 C3593 1.370 . S
C3592 C3594 1.363 . S
C3592 H3608 0.931 . S
C3593 C3592 1.370 . S
C3593 C3597 1.408 . S
C3594 C3592 1.363 . S
C3594 C3595 1.370 . S
C3594 C3598 1.524 . S
C3595 C3587 1.503 . S
C3595 C3594 1.370 . S
C3595 C3596 1.403 . S
C3596 C3595 1.403 . S
C3596 C3597 1.404 . S
C3596 C3599 1.539 1_455 S
C3597 C3593 1.408 . S
C3597 C3596 1.404 . S
C3597 H3609 0.930 . S
C3598 C3594 1.524 . S
C3598 H3610 0.956 . S
C3598 H3611 0.961 . S
C3598 H3612 0.961 . S
C3599 C3596 1.539 1_655 S
C3599 H3613 0.958 1_655 S
C3599 H3614 0.961 . S
C3599 H3615 0.960 . S
H3600 C3584 0.931 . S
H3601 C3589 0.929 1_655 S
H3602 C3590 0.960 . S
H3603 C3590 0.962 . S
H3604 C3590 0.960 . S
H3605 C3591 0.961 . S
H3606 C3591 0.961 . S
H3607 C3591 0.961 . S
H3608 C3592 0.931 . S
H3609 C3597 0.930 . S
H3610 C3598 0.956 . S
H3611 C3598 0.961 . S
H3612 C3598 0.961 . S
H3613 C3599 0.958 1_455 S
H3614 C3599 0.961 . S
H3615 C3599 0.960 . S
C3616 C3617 1.391 . S
C3616 C3618 1.394 . S
C3616 H3632 0.931 . S
C3617 C3616 1.391 . S
C3617 C3621 1.376 . S
C3618 C3616 1.394 . S
C3618 C3619 1.369 . S
C3618 C3622 1.531 . S
C3619 C3618 1.369 . S
C3619 C3620 1.410 . S
C3619 C3627 1.503 . S
C3620 C3619 1.410 . S
C3620 C3621 1.392 . S
C3620 C3623 1.511 . S
C3621 C3617 1.376 . S
C3621 C3620 1.392 . S
C3621 H3633 0.929 . S
C3622 C3618 1.531 . S
C3622 H3634 0.960 . S
C3622 H3635 0.962 . S
C3622 H3636 0.960 . S
C3623 C3620 1.511 . S
C3623 H3637 0.961 . S
C3623 H3638 0.961 . S
C3623 H3639 0.961 . S
C3624 C3625 1.370 . S
C3624 C3626 1.363 . S
C3624 H3640 0.931 . S
C3625 C3624 1.370 . S
C3625 C3629 1.408 . S
C3626 C3624 1.363 . S
C3626 C3627 1.370 . S
C3626 C3630 1.524 . S
C3627 C3619 1.503 . S
C3627 C3626 1.370 . S
C3627 C3628 1.403 . S
C3628 C3627 1.403 . S
C3628 C3629 1.404 . S
C3628 C3631 1.539 . S
C3629 C3625 1.408 . S
C3629 C3628 1.404 . S
C3629 H3641 0.930 . S
C3630 C3626 1.524 . S
C3630 H3642 0.956 . S
C3630 H3643 0.961 . S
C3630 H3644 0.961 . S
C3631 C3628 1.539 . S
C3631 H3645 0.958 . S
C3631 H3646 0.961 . S
C3631 H3647 0.960 . S
H3632 C3616 0.931 . S
H3633 C3621 0.929 . S
H3634 C3622 0.960 . S
H3635 C3622 0.962 . S
H3636 C3622 0.960 . S
H3637 C3623 0.961 . S
H3638 C3623 0.961 . S
H3639 C3623 0.961 . S
H3640 C3624 0.931 . S
H3641 C3629 0.930 . S
H3642 C3630 0.956 . S
H3643 C3630 0.961 . S
H3644 C3630 0.961 . S
H3645 C3631 0.958 . S
H3646 C3631 0.961 . S
H3647 C3631 0.960 . S
C3648 C3649 1.391 . S
C3648 C3650 1.394 . S
C3648 H3664 0.931 . S
C3649 C3648 1.391 . S
C3649 C3653 1.376 . S
C3650 C3648 1.394 . S
C3650 C3651 1.369 . S
C3650 C3654 1.531 . S
C3651 C3650 1.369 . S
C3651 C3652 1.410 . S
C3651 C3659 1.503 . S
C3652 C3651 1.410 . S
C3652 C3653 1.392 . S
C3652 C3655 1.511 . S
C3653 C3649 1.376 . S
C3653 C3652 1.392 . S
C3653 H3665 0.929 . S
C3654 C3650 1.531 . S
C3654 H3666 0.960 . S
C3654 H3667 0.962 . S
C3654 H3668 0.960 . S
C3655 C3652 1.511 . S
C3655 H3669 0.961 . S
C3655 H3670 0.961 . S
C3655 H3671 0.961 . S
C3656 C3657 1.370 . S
C3656 C3658 1.363 . S
C3656 H3672 0.931 . S
C3657 C3656 1.370 . S
C3657 C3661 1.408 . S
C3658 C3656 1.363 . S
C3658 C3659 1.370 . S
C3658 C3662 1.524 . S
C3659 C3651 1.503 . S
C3659 C3658 1.370 . S
C3659 C3660 1.403 . S
C3660 C3659 1.403 . S
C3660 C3661 1.404 . S
C3660 C3663 1.539 . S
C3661 C3657 1.408 . S
C3661 C3660 1.404 . S
C3661 H3673 0.930 . S
C3662 C3658 1.524 . S
C3662 H3674 0.956 . S
C3662 H3675 0.961 . S
C3662 H3676 0.961 . S
C3663 C3660 1.539 . S
C3663 H3677 0.958 . S
C3663 H3678 0.961 . S
C3663 H3679 0.960 . S
H3664 C3648 0.931 . S
H3665 C3653 0.929 . S
H3666 C3654 0.960 . S
H3667 C3654 0.962 . S
H3668 C3654 0.960 . S
H3669 C3655 0.961 . S
H3670 C3655 0.961 . S
H3671 C3655 0.961 . S
H3672 C3656 0.931 . S
H3673 C3661 0.930 . S
H3674 C3662 0.956 . S
H3675 C3662 0.961 . S
H3676 C3662 0.961 . S
H3677 C3663 0.958 . S
H3678 C3663 0.961 . S
H3679 C3663 0.960 . S
C3680 C3681 1.391 . S
C3680 C3682 1.394 . S
C3680 H3696 0.931 . S
C3681 C3680 1.391 . S
C3681 C3685 1.376 . S
C3682 C3680 1.394 . S
C3682 C3683 1.369 . S
C3682 C3686 1.531 . S
C3683 C3682 1.369 . S
C3683 C3684 1.410 . S
C3683 C3691 1.503 . S
C3684 C3683 1.410 . S
C3684 C3685 1.392 . S
C3684 C3687 1.511 . S
C3685 C3681 1.376 . S
C3685 C3684 1.392 . S
C3685 H3697 0.929 . S
C3686 C3682 1.531 . S
C3686 H3698 0.960 . S
C3686 H3699 0.962 . S
C3686 H3700 0.960 . S
C3687 C3684 1.511 . S
C3687 H3701 0.961 . S
C3687 H3702 0.961 . S
C3687 H3703 0.961 . S
C3688 C3689 1.370 . S
C3688 C3690 1.363 . S
C3688 H3704 0.931 . S
C3689 C3688 1.370 . S
C3689 C3693 1.408 . S
C3690 C3688 1.363 . S
C3690 C3691 1.370 . S
C3690 C3694 1.524 . S
C3691 C3683 1.503 . S
C3691 C3690 1.370 . S
C3691 C3692 1.403 . S
C3692 C3691 1.403 . S
C3692 C3693 1.404 . S
C3692 C3695 1.539 . S
C3693 C3689 1.408 . S
C3693 C3692 1.404 . S
C3693 H3705 0.930 . S
C3694 C3690 1.524 . S
C3694 H3706 0.956 . S
C3694 H3707 0.961 . S
C3694 H3708 0.961 . S
C3695 C3692 1.539 . S
C3695 H3709 0.958 . S
C3695 H3710 0.961 . S
C3695 H3711 0.960 . S
H3696 C3680 0.931 . S
H3697 C3685 0.929 . S
H3698 C3686 0.960 . S
H3699 C3686 0.962 . S
H3700 C3686 0.960 . S
H3701 C3687 0.961 . S
H3702 C3687 0.961 . S
H3703 C3687 0.961 . S
H3704 C3688 0.931 . S
H3705 C3693 0.930 . S
H3706 C3694 0.956 . S
H3707 C3694 0.961 . S
H3708 C3694 0.961 . S
H3709 C3695 0.958 . S
H3710 C3695 0.961 . S
H3711 C3695 0.960 . S
C3712 C3713 1.391 . S
C3712 C3714 1.394 . S
C3712 H3728 0.931 . S
C3713 C3712 1.391 . S
C3713 C3717 1.376 . S
C3714 C3712 1.394 . S
C3714 C3715 1.369 . S
C3714 C3718 1.531 1_655 S
C3715 C3714 1.369 . S
C3715 C3716 1.410 . S
C3715 C3723 1.503 . S
C3716 C3715 1.410 . S
C3716 C3717 1.392 . S
C3716 C3719 1.511 . S
C3717 C3713 1.376 . S
C3717 C3716 1.392 . S
C3717 H3729 0.929 . S
C3718 C3714 1.531 1_455 S
C3718 H3730 0.950 1_545 S
C3718 H3731 0.962 . S
C3718 H3732 0.960 1_545 S
C3719 C3716 1.511 . S
C3719 H3733 0.961 . S
C3719 H3734 0.961 . S
C3719 H3735 0.961 . S
C3720 C3721 1.370 . S
C3720 C3722 1.363 . S
C3720 H3736 0.931 . S
C3721 C3720 1.370 . S
C3721 C3725 1.408 1_455 S
C3722 C3720 1.363 . S
C3722 C3723 1.370 1_455 S
C3722 C3726 1.524 . S
C3723 C3715 1.503 . S
C3723 C3722 1.370 1_655 S
C3723 C3724 1.403 . S
C3724 C3723 1.403 . S
C3724 C3725 1.404 . S
C3724 C3727 1.539 1_545 S
C3725 C3721 1.408 1_655 S
C3725 C3724 1.404 . S
C3725 H3737 0.969 . S
C3726 C3722 1.524 . S
C3726 H3738 0.956 . S
C3726 H3739 0.961 1_455 S
C3726 H3740 0.961 . S
C3727 C3724 1.539 1_565 S
C3727 H3741 0.958 . S
C3727 H3742 0.961 . S
C3727 H3743 0.960 . S
H3728 C3712 0.931 . S
H3729 C3717 0.929 . S
H3730 C3718 0.950 1_565 S
H3731 C3718 0.962 . S
H3732 C3718 0.960 1_565 S
H3733 C3719 0.961 . S
H3734 C3719 0.961 . S
H3735 C3719 0.961 . S
H3736 C3720 0.931 . S
H3737 C3725 0.969 . S
H3738 C3726 0.956 . S
H3739 C3726 0.961 1_655 S
H3740 C3726 0.961 . S
H3741 C3727 0.958 . S
H3742 C3727 0.961 . S
H3743 C3727 0.960 . S
C3744 C3745 1.391 . S
C3744 C3746 1.394 . S
C3744 H3760 0.931 . S
C3745 C3744 1.391 . S
C3745 C3749 1.376 . S
C3746 C3744 1.394 . S
C3746 C3747 1.369 . S
C3746 C3750 1.531 . S
C3747 C3746 1.369 . S
C3747 C3748 1.410 . S
C3747 C3755 1.503 . S
C3748 C3747 1.410 . S
C3748 C3749 1.392 . S
C3748 C3751 1.511 . S
C3749 C3745 1.376 . S
C3749 C3748 1.392 . S
C3749 H3761 0.929 . S
C3750 C3746 1.531 . S
C3750 H3762 0.960 . S
C3750 H3763 0.962 . S
C3750 H3764 0.960 . S
C3751 C3748 1.511 . S
C3751 H3765 0.961 . S
C3751 H3766 0.961 . S
C3751 H3767 0.961 . S
C3752 C3753 1.370 . S
C3752 C3754 1.363 . S
C3752 H3768 0.931 . S
C3753 C3752 1.370 . S
C3753 C3757 1.408 . S
C3754 C3752 1.363 . S
C3754 C3755 1.370 . S
C3754 C3758 1.524 . S
C3755 C3747 1.503 . S
C3755 C3754 1.370 . S
C3755 C3756 1.403 . S
C3756 C3755 1.403 . S
C3756 C3757 1.404 . S
C3756 C3759 1.539 . S
C3757 C3753 1.408 . S
C3757 C3756 1.404 . S
C3757 H3769 0.930 . S
C3758 C3754 1.524 . S
C3758 H3770 0.956 . S
C3758 H3771 0.961 . S
C3758 H3772 0.961 . S
C3759 C3756 1.539 . S
C3759 H3773 0.958 . S
C3759 H3774 0.961 . S
C3759 H3775 0.960 . S
H3760 C3744 0.931 . S
H3761 C3749 0.929 . S
H3762 C3750 0.960 . S
H3763 C3750 0.962 . S
H3764 C3750 0.960 . S
H3765 C3751 0.961 . S
H3766 C3751 0.961 . S
H3767 C3751 0.961 . S
H3768 C3752 0.931 . S
H3769 C3757 0.930 . S
H3770 C3758 0.956 . S
H3771 C3758 0.961 . S
H3772 C3758 0.961 . S
H3773 C3759 0.958 . S
H3774 C3759 0.961 . S
H3775 C3759 0.960 . S
C3776 C3777 1.391 . S
C3776 C3778 1.394 . S
C3776 H3792 0.931 . S
C3777 C3776 1.391 . S
C3777 C3781 1.376 . S
C3778 C3776 1.394 . S
C3778 C3779 1.369 . S
C3778 C3782 1.544 . S
C3779 C3778 1.369 . S
C3779 C3780 1.410 . S
C3779 C3787 1.503 . S
C3780 C3779 1.410 . S
C3780 C3781 1.392 . S
C3780 C3783 1.511 . S
C3781 C3777 1.376 . S
C3781 C3780 1.392 . S
C3781 H3793 0.929 . S
C3782 C3778 1.544 . S
C3782 H3794 0.956 1_545 S
C3782 H3795 0.974 . S
C3782 H3796 0.940 1_545 S
C3783 C3780 1.511 . S
C3783 H3797 0.961 . S
C3783 H3798 0.961 . S
C3783 H3799 0.961 . S
C3784 C3785 1.370 . S
C3784 C3786 1.363 . S
C3784 H3800 0.931 . S
C3785 C3784 1.370 . S
C3785 C3789 1.408 . S
C3786 C3784 1.363 . S
C3786 C3787 1.370 . S
C3786 C3790 1.524 . S
C3787 C3779 1.503 . S
C3787 C3786 1.370 . S
C3787 C3788 1.403 . S
C3788 C3787 1.403 . S
C3788 C3789 1.404 . S
C3788 C3791 1.539 1_545 S
C3789 C3785 1.408 . S
C3789 C3788 1.404 . S
C3789 H3801 0.930 1_545 S
C3790 C3786 1.524 . S
C3790 H3802 0.956 . S
C3790 H3803 0.961 . S
C3790 H3804 0.961 . S
C3791 C3788 1.539 1_565 S
C3791 H3805 0.958 . S
C3791 H3806 0.961 . S
C3791 H3807 0.960 . S
H3792 C3776 0.931 . S
H3793 C3781 0.929 . S
H3794 C3782 0.956 1_565 S
H3795 C3782 0.974 . S
H3796 C3782 0.940 1_565 S
H3797 C3783 0.961 . S
H3798 C3783 0.961 . S
H3799 C3783 0.961 . S
H3800 C3784 0.931 . S
H3801 C3789 0.930 1_565 S
H3802 C3790 0.956 . S
H3803 C3790 0.961 . S
H3804 C3790 0.961 . S
H3805 C3791 0.958 . S
H3806 C3791 0.961 . S
H3807 C3791 0.960 . S
C3808 C3809 1.391 . S
C3808 C3810 1.394 . S
C3808 H3824 0.931 . S
C3809 C3808 1.391 . S
C3809 C3813 1.376 . S
C3810 C3808 1.394 . S
C3810 C3811 1.369 . S
C3810 C3814 1.531 . S
C3811 C3810 1.369 . S
C3811 C3812 1.410 . S
C3811 C3819 1.503 . S
C3812 C3811 1.410 . S
C3812 C3813 1.392 . S
C3812 C3815 1.511 . S
C3813 C3809 1.376 . S
C3813 C3812 1.392 . S
C3813 H3825 0.929 . S
C3814 C3810 1.531 . S
C3814 H3826 0.960 . S
C3814 H3827 0.962 . S
C3814 H3828 0.960 . S
C3815 C3812 1.511 . S
C3815 H3829 0.961 . S
C3815 H3830 0.961 . S
C3815 H3831 0.961 . S
C3816 C3817 1.370 . S
C3816 C3818 1.363 . S
C3816 H3832 0.931 . S
C3817 C3816 1.370 . S
C3817 C3821 1.408 . S
C3818 C3816 1.363 . S
C3818 C3819 1.370 . S
C3818 C3822 1.524 . S
C3819 C3811 1.503 . S
C3819 C3818 1.370 . S
C3819 C3820 1.403 . S
C3820 C3819 1.403 . S
C3820 C3821 1.404 . S
C3820 C3823 1.539 . S
C3821 C3817 1.408 . S
C3821 C3820 1.404 . S
C3821 H3833 0.930 . S
C3822 C3818 1.524 . S
C3822 H3834 0.956 . S
C3822 H3835 0.961 . S
C3822 H3836 0.961 . S
C3823 C3820 1.539 . S
C3823 H3837 0.958 . S
C3823 H3838 0.961 . S
C3823 H3839 0.960 . S
H3824 C3808 0.931 . S
H3825 C3813 0.929 . S
H3826 C3814 0.960 . S
H3827 C3814 0.962 . S
H3828 C3814 0.960 . S
H3829 C3815 0.961 . S
H3830 C3815 0.961 . S
H3831 C3815 0.961 . S
H3832 C3816 0.931 . S
H3833 C3821 0.930 . S
H3834 C3822 0.956 . S
H3835 C3822 0.961 . S
H3836 C3822 0.961 . S
H3837 C3823 0.958 . S
H3838 C3823 0.961 . S
H3839 C3823 0.960 . S
C3840 C3841 1.391 . S
C3840 C3842 1.394 . S
C3840 H3856 0.931 . S
C3841 C3840 1.391 . S
C3841 C3845 1.418 . S
C3842 C3840 1.394 . S
C3842 C3843 1.369 . S
C3842 C3846 1.531 . S
C3843 C3842 1.369 . S
C3843 C3844 1.410 1_655 S
C3843 C3851 1.503 . S
C3844 C3843 1.410 1_455 S
C3844 C3845 1.385 1_455 S
C3844 C3847 1.511 . S
C3845 C3841 1.418 . S
C3845 C3844 1.385 1_655 S
C3845 H3857 0.895 1_655 S
C3846 C3842 1.531 . S
C3846 H3858 0.960 . S
C3846 H3859 0.962 . S
C3846 H3860 0.960 . S
C3847 C3844 1.511 . S
C3847 H3861 0.961 . S
C3847 H3862 0.961 . S
C3847 H3863 0.945 1_545 S
C3848 C3849 1.370 . S
C3848 C3850 1.363 . S
C3848 H3864 0.931 . S
C3849 C3848 1.370 . S
C3849 C3853 1.408 1_455 S
C3850 C3848 1.363 . S
C3850 C3851 1.370 1_455 S
C3850 C3854 1.524 . S
C3851 C3843 1.503 . S
C3851 C3850 1.370 1_655 S
C3851 C3852 1.403 . S
C3852 C3851 1.403 . S
C3852 C3853 1.404 . S
C3852 C3855 1.539 1_545 S
C3853 C3849 1.408 1_655 S
C3853 C3852 1.404 . S
C3853 H3865 0.930 1_545 S
C3854 C3850 1.524 . S
C3854 H3866 0.956 1_455 S
C3854 H3867 0.961 . S
C3854 H3868 0.961 . S
C3855 C3852 1.539 1_565 S
C3855 H3869 0.958 . S
C3855 H3870 0.961 . S
C3855 H3871 0.960 . S
H3856 C3840 0.931 . S
H3857 C3845 0.895 1_455 S
H3858 C3846 0.960 . S
H3859 C3846 0.962 . S
H3860 C3846 0.960 . S
H3861 C3847 0.961 . S
H3862 C3847 0.961 . S
H3863 C3847 0.945 1_565 S
H3864 C3848 0.931 . S
H3865 C3853 0.930 1_565 S
H3866 C3854 0.956 1_655 S
H3867 C3854 0.961 . S
H3868 C3854 0.961 . S
H3869 C3855 0.958 . S
H3870 C3855 0.961 . S
H3871 C3855 0.960 . S
C3872 C3873 1.391 . S
C3872 C3874 1.394 . S
C3872 H3888 0.931 . S
C3873 C3872 1.391 . S
C3873 C3877 1.376 . S
C3874 C3872 1.394 . S
C3874 C3875 1.369 . S
C3874 C3878 1.531 . S
C3875 C3874 1.369 . S
C3875 C3876 1.410 . S
C3875 C3883 1.503 . S
C3876 C3875 1.410 . S
C3876 C3877 1.392 . S
C3876 C3879 1.511 . S
C3877 C3873 1.376 . S
C3877 C3876 1.392 . S
C3877 H3889 0.929 . S
C3878 C3874 1.531 . S
C3878 H3890 0.960 . S
C3878 H3891 0.962 . S
C3878 H3892 0.960 . S
C3879 C3876 1.511 . S
C3879 H3893 0.961 . S
C3879 H3894 0.961 . S
C3879 H3895 0.961 . S
C3880 C3881 1.370 . S
C3880 C3882 1.363 . S
C3880 H3896 0.931 . S
C3881 C3880 1.370 . S
C3881 C3885 1.408 . S
C3882 C3880 1.363 . S
C3882 C3883 1.370 . S
C3882 C3886 1.524 . S
C3883 C3875 1.503 . S
C3883 C3882 1.370 . S
C3883 C3884 1.403 . S
C3884 C3883 1.403 . S
C3884 C3885 1.404 . S
C3884 C3887 1.539 . S
C3885 C3881 1.408 . S
C3885 C3884 1.404 . S
C3885 H3897 0.930 . S
C3886 C3882 1.524 . S
C3886 H3898 0.956 . S
C3886 H3899 0.961 . S
C3886 H3900 0.961 . S
C3887 C3884 1.539 . S
C3887 H3901 0.958 . S
C3887 H3902 0.961 . S
C3887 H3903 0.960 . S
H3888 C3872 0.931 . S
H3889 C3877 0.929 . S
H3890 C3878 0.960 . S
H3891 C3878 0.962 . S
H3892 C3878 0.960 . S
H3893 C3879 0.961 . S
H3894 C3879 0.961 . S
H3895 C3879 0.961 . S
H3896 C3880 0.931 . S
H3897 C3885 0.930 . S
H3898 C3886 0.956 . S
H3899 C3886 0.961 . S
H3900 C3886 0.961 . S
H3901 C3887 0.958 . S
H3902 C3887 0.961 . S
H3903 C3887 0.960 . S
C3904 C3905 1.391 . S
C3904 C3906 1.394 . S
C3904 H3920 0.931 . S
C3905 C3904 1.391 . S
C3905 C3909 1.376 . S
C3906 C3904 1.394 . S
C3906 C3907 1.369 . S
C3906 C3910 1.531 . S
C3907 C3906 1.369 . S
C3907 C3908 1.410 . S
C3907 C3915 1.503 . S
C3908 C3907 1.410 . S
C3908 C3909 1.392 . S
C3908 C3911 1.511 . S
C3909 C3905 1.376 . S
C3909 C3908 1.392 . S
C3909 H3921 0.929 . S
C3910 C3906 1.531 . S
C3910 H3922 0.960 . S
C3910 H3923 0.962 . S
C3910 H3924 0.960 . S
C3911 C3908 1.511 . S
C3911 H3925 0.961 . S
C3911 H3926 0.961 . S
C3911 H3927 0.961 1_545 S
C3912 C3913 1.370 . S
C3912 C3914 1.363 . S
C3912 H3928 0.931 . S
C3913 C3912 1.370 . S
C3913 C3917 1.408 . S
C3914 C3912 1.363 . S
C3914 C3915 1.370 . S
C3914 C3918 1.524 . S
C3915 C3907 1.503 . S
C3915 C3914 1.370 . S
C3915 C3916 1.403 . S
C3916 C3915 1.403 . S
C3916 C3917 1.404 . S
C3916 C3919 1.539 . S
C3917 C3913 1.408 . S
C3917 C3916 1.404 . S
C3917 H3929 0.930 . S
C3918 C3914 1.524 . S
C3918 H3930 0.956 . S
C3918 H3931 0.961 . S
C3918 H3932 0.961 . S
C3919 C3916 1.539 . S
C3919 H3933 0.958 . S
C3919 H3934 0.961 . S
C3919 H3935 0.960 . S
H3920 C3904 0.931 . S
H3921 C3909 0.929 . S
H3922 C3910 0.960 . S
H3923 C3910 0.962 . S
H3924 C3910 0.960 . S
H3925 C3911 0.961 . S
H3926 C3911 0.961 . S
H3927 C3911 0.961 1_565 S
H3928 C3912 0.931 . S
H3929 C3917 0.930 . S
H3930 C3918 0.956 . S
H3931 C3918 0.961 . S
H3932 C3918 0.961 . S
H3933 C3919 0.958 . S
H3934 C3919 0.961 . S
H3935 C3919 0.960 . S
C3936 C3937 1.391 . S
C3936 C3938 1.394 . S
C3936 H3952 0.931 . S
C3937 C3936 1.391 . S
C3937 C3941 1.376 . S
C3938 C3936 1.394 . S
C3938 C3939 1.369 . S
C3938 C3942 1.531 . S
C3939 C3938 1.369 . S
C3939 C3940 1.410 . S
C3939 C3947 1.503 . S
C3940 C3939 1.410 . S
C3940 C3941 1.392 . S
C3940 C3943 1.511 . S
C3941 C3937 1.376 . S
C3941 C3940 1.392 . S
C3941 H3953 0.929 . S
C3942 C3938 1.531 . S
C3942 H3954 0.960 . S
C3942 H3955 0.962 . S
C3942 H3956 0.960 . S
C3943 C3940 1.511 . S
C3943 H3957 0.961 . S
C3943 H3958 0.961 . S
C3943 H3959 0.961 . S
C3944 C3945 1.370 . S
C3944 C3946 1.363 . S
C3944 H3960 0.931 . S
C3945 C3944 1.370 . S
C3945 C3949 1.408 . S
C3946 C3944 1.363 . S
C3946 C3947 1.370 . S
C3946 C3950 1.524 . S
C3947 C3939 1.503 . S
C3947 C3946 1.370 . S
C3947 C3948 1.403 . S
C3948 C3947 1.403 . S
C3948 C3949 1.404 . S
C3948 C3951 1.539 . S
C3949 C3945 1.408 . S
C3949 C3948 1.404 . S
C3949 H3961 0.930 . S
C3950 C3946 1.524 . S
C3950 H3962 0.956 . S
C3950 H3963 0.961 . S
C3950 H3964 0.961 . S
C3951 C3948 1.539 . S
C3951 H3965 0.958 . S
C3951 H3966 0.961 . S
C3951 H3967 0.960 . S
H3952 C3936 0.931 . S
H3953 C3941 0.929 . S
H3954 C3942 0.960 . S
H3955 C3942 0.962 . S
H3956 C3942 0.960 . S
H3957 C3943 0.961 . S
H3958 C3943 0.961 . S
H3959 C3943 0.961 . S
H3960 C3944 0.931 . S
H3961 C3949 0.930 . S
H3962 C3950 0.956 . S
H3963 C3950 0.961 . S
H3964 C3950 0.961 . S
H3965 C3951 0.958 . S
H3966 C3951 0.961 . S
H3967 C3951 0.960 . S
C3968 C3969 1.394 1_556 S
C3968 C3970 1.394 . S
C3968 H3984 0.931 . S
C3969 C3968 1.394 1_554 S
C3969 C3973 1.371 . S
C3970 C3968 1.394 . S
C3970 C3971 1.369 1_556 S
C3970 C3974 1.531 . S
C3971 C3970 1.369 1_554 S
C3971 C3972 1.410 . S
C3971 C3979 1.503 . S
C3972 C3971 1.410 . S
C3972 C3973 1.392 . S
C3972 C3975 1.511 . S
C3973 C3969 1.371 . S
C3973 C3972 1.392 . S
C3973 H3985 0.929 . S
C3974 C3970 1.531 . S
C3974 H3986 0.960 . S
C3974 H3987 0.962 . S
C3974 H3988 0.960 . S
C3975 C3972 1.511 . S
C3975 H3989 0.961 . S
C3975 H3990 0.961 . S
C3975 H3991 0.961 . S
C3976 C3977 1.370 1_545 S
C3976 C3978 1.385 . S
C3976 H3992 0.931 . S
C3977 C3976 1.370 1_565 S
C3977 C3981 1.408 . S
C3978 C3976 1.385 . S
C3978 C3979 1.325 1_545 S
C3978 C3982 1.550 . S
C3979 C3971 1.503 . S
C3979 C3978 1.325 1_565 S
C3979 C3980 1.403 . S
C3980 C3979 1.403 . S
C3980 C3981 1.404 . S
C3980 C3983 1.539 . S
C3981 C3977 1.408 . S
C3981 C3980 1.404 . S
C3981 H3993 0.930 . S
C3982 C3978 1.550 . S
C3982 H3994 0.956 . S
C3982 H3995 0.961 . S
C3982 H3996 0.961 . S
C3983 C3980 1.539 . S
C3983 H3997 0.958 . S
C3983 H3998 0.961 . S
C3983 H3999 0.960 . S
H3984 C3968 0.931 . S
H3985 C3973 0.929 . S
H3986 C3974 0.960 . S
H3987 C3974 0.962 . S
H3988 C3974 0.960 . S
H3989 C3975 0.961 . S
H3990 C3975 0.961 . S
H3991 C3975 0.961 . S
H3992 C3976 0.931 . S
H3993 C3981 0.930 . S
H3994 C3982 0.956 . S
H3995 C3982 0.961 . S
H3996 C3982 0.961 . S
H3997 C3983 0.958 . S
H3998 C3983 0.961 . S
H3999 C3983 0.960 . S
C4000 C4001 1.430 . S
C4000 C4002 1.394 . S
C4000 H4016 0.931 . S
C4001 C4000 1.430 . S
C4001 C4005 1.347 1_554 S
C4002 C4000 1.394 . S
C4002 C4003 1.369 . S
C4002 C4006 1.531 . S
C4003 C4002 1.369 . S
C4003 C4004 1.410 1_554 S
C4003 C4011 1.503 . S
C4004 C4003 1.410 1_556 S
C4004 C4005 1.392 . S
C4004 C4007 1.511 . S
C4005 C4001 1.347 1_556 S
C4005 C4004 1.392 . S
C4005 H4017 0.929 . S
C4006 C4002 1.531 . S
C4006 H4018 0.960 . S
C4006 H4019 0.962 . S
C4006 H4020 0.960 . S
C4007 C4004 1.511 . S
C4007 H4021 0.961 . S
C4007 H4022 0.961 . S
C4007 H4023 0.961 . S
C4008 C4009 1.370 . S
C4008 C4010 1.363 . S
C4008 H4024 0.931 . S
C4009 C4008 1.370 . S
C4009 C4013 1.408 . S
C4010 C4008 1.363 . S
C4010 C4011 1.370 . S
C4010 C4014 1.524 . S
C4011 C4003 1.503 . S
C4011 C4010 1.370 . S
C4011 C4012 1.403 . S
C4012 C4011 1.403 . S
C4012 C4013 1.404 . S
C4012 C4015 1.539 1_554 S
C4013 C4009 1.408 . S
C4013 C4012 1.404 . S
C4013 H4025 0.930 . S
C4014 C4010 1.524 . S
C4014 H4026 0.956 . S
C4014 H4027 0.961 . S
C4014 H4028 0.961 . S
C4015 C4012 1.539 1_556 S
C4015 H4029 0.958 1_556 S
C4015 H4030 0.961 . S
C4015 H4031 0.960 . S
H4016 C4000 0.931 . S
H4017 C4005 0.929 . S
H4018 C4006 0.960 . S
H4019 C4006 0.962 . S
H4020 C4006 0.960 . S
H4021 C4007 0.961 . S
H4022 C4007 0.961 . S
H4023 C4007 0.961 . S
H4024 C4008 0.931 . S
H4025 C4013 0.930 . S
H4026 C4014 0.956 . S
H4027 C4014 0.961 . S
H4028 C4014 0.961 . S
H4029 C4015 0.958 1_554 S
H4030 C4015 0.961 . S
H4031 C4015 0.960 . S
C4032 C4033 1.391 . S
C4032 C4034 1.394 . S
C4032 H4048 0.931 . S
C4033 C4032 1.391 . S
C4033 C4037 1.376 . S
C4034 C4032 1.394 . S
C4034 C4035 1.369 . S
C4034 C4038 1.531 . S
C4035 C4034 1.369 . S
C4035 C4036 1.410 . S
C4035 C4043 1.503 . S
C4036 C4035 1.410 . S
C4036 C4037 1.392 . S
C4036 C4039 1.511 . S
C4037 C4033 1.376 . S
C4037 C4036 1.392 . S
C4037 H4049 0.929 . S
C4038 C4034 1.531 . S
C4038 H4050 0.960 . S
C4038 H4051 0.962 . S
C4038 H4052 0.960 . S
C4039 C4036 1.511 . S
C4039 H4053 0.961 . S
C4039 H4054 0.961 . S
C4039 H4055 0.961 . S
C4040 C4041 1.370 . S
C4040 C4042 1.363 . S
C4040 H4056 0.931 . S
C4041 C4040 1.370 . S
C4041 C4045 1.408 . S
C4042 C4040 1.363 . S
C4042 C4043 1.370 . S
C4042 C4046 1.524 . S
C4043 C4035 1.503 . S
C4043 C4042 1.370 . S
C4043 C4044 1.403 . S
C4044 C4043 1.403 . S
C4044 C4045 1.404 . S
C4044 C4047 1.539 . S
C4045 C4041 1.408 . S
C4045 C4044 1.404 . S
C4045 H4057 0.930 . S
C4046 C4042 1.524 . S
C4046 H4058 0.956 . S
C4046 H4059 0.961 . S
C4046 H4060 0.961 . S
C4047 C4044 1.539 . S
C4047 H4061 0.958 . S
C4047 H4062 0.961 . S
C4047 H4063 0.960 . S
H4048 C4032 0.931 . S
H4049 C4037 0.929 . S
H4050 C4038 0.960 . S
H4051 C4038 0.962 . S
H4052 C4038 0.960 . S
H4053 C4039 0.961 . S
H4054 C4039 0.961 . S
H4055 C4039 0.961 . S
H4056 C4040 0.931 . S
H4057 C4045 0.930 . S
H4058 C4046 0.956 . S
H4059 C4046 0.961 . S
H4060 C4046 0.961 . S
H4061 C4047 0.958 . S
H4062 C4047 0.961 . S
H4063 C4047 0.960 . S
C4064 C4065 1.391 . S
C4064 C4066 1.394 . S
C4064 H4080 0.931 . S
C4065 C4064 1.391 . S
C4065 C4069 1.376 . S
C4066 C4064 1.394 . S
C4066 C4067 1.369 . S
C4066 C4070 1.531 . S
C4067 C4066 1.369 . S
C4067 C4068 1.410 . S
C4067 C4075 1.503 . S
C4068 C4067 1.410 . S
C4068 C4069 1.392 . S
C4068 C4071 1.511 . S
C4069 C4065 1.376 . S
C4069 C4068 1.392 . S
C4069 H4081 0.929 . S
C4070 C4066 1.531 . S
C4070 H4082 0.960 . S
C4070 H4083 0.962 . S
C4070 H4084 0.960 . S
C4071 C4068 1.511 . S
C4071 H4085 0.961 . S
C4071 H4086 0.961 . S
C4071 H4087 0.961 . S
C4072 C4073 1.370 . S
C4072 C4074 1.363 . S
C4072 H4088 0.931 . S
C4073 C4072 1.370 . S
C4073 C4077 1.408 . S
C4074 C4072 1.363 . S
C4074 C4075 1.370 . S
C4074 C4078 1.524 . S
C4075 C4067 1.503 . S
C4075 C4074 1.370 . S
C4075 C4076 1.403 . S
C4076 C4075 1.403 . S
C4076 C4077 1.404 . S
C4076 C4079 1.539 . S
C4077 C4073 1.408 . S
C4077 C4076 1.404 . S
C4077 H4089 0.930 . S
C4078 C4074 1.524 . S
C4078 H4090 0.956 . S
C4078 H4091 0.961 . S
C4078 H4092 0.961 . S
C4079 C4076 1.539 . S
C4079 H4093 0.958 . S
C4079 H4094 0.961 . S
C4079 H4095 0.960 . S
H4080 C4064 0.931 . S
H4081 C4069 0.929 . S
H4082 C4070 0.960 . S
H4083 C4070 0.962 . S
H4084 C4070 0.960 . S
H4085 C4071 0.961 . S
H4086 C4071 0.961 . S
H4087 C4071 0.961 . S
H4088 C4072 0.931 . S
H4089 C4077 0.930 . S
H4090 C4078 0.956 . S
H4091 C4078 0.961 . S
H4092 C4078 0.961 . S
H4093 C4079 0.958 . S
H4094 C4079 0.961 . S
H4095 C4079 0.960 . S
C4096 C4097 1.391 . S
C4096 C4098 1.394 . S
C4096 H4112 0.931 . S
C4097 C4096 1.391 . S
C4097 C4101 1.376 . S
C4098 C4096 1.394 . S
C4098 C4099 1.369 . S
C4098 C4102 1.531 . S
C4099 C4098 1.369 . S
C4099 C4100 1.410 . S
C4099 C4107 1.503 . S
C4100 C4099 1.410 . S
C4100 C4101 1.392 . S
C4100 C4103 1.511 . S
C4101 C4097 1.376 . S
C4101 C4100 1.392 . S
C4101 H4113 0.929 . S
C4102 C4098 1.531 . S
C4102 H4114 0.960 . S
C4102 H4115 0.962 . S
C4102 H4116 0.960 . S
C4103 C4100 1.511 . S
C4103 H4117 0.961 . S
C4103 H4118 0.961 . S
C4103 H4119 0.961 . S
C4104 C4105 1.370 . S
C4104 C4106 1.363 . S
C4104 H4120 0.931 . S
C4105 C4104 1.370 . S
C4105 C4109 1.408 . S
C4106 C4104 1.363 . S
C4106 C4107 1.370 . S
C4106 C4110 1.524 . S
C4107 C4099 1.503 . S
C4107 C4106 1.370 . S
C4107 C4108 1.403 . S
C4108 C4107 1.403 . S
C4108 C4109 1.404 . S
C4108 C4111 1.539 . S
C4109 C4105 1.408 . S
C4109 C4108 1.404 . S
C4109 H4121 0.930 . S
C4110 C4106 1.524 . S
C4110 H4122 0.956 . S
C4110 H4123 0.961 . S
C4110 H4124 0.961 . S
C4111 C4108 1.539 . S
C4111 H4125 0.958 . S
C4111 H4126 0.961 . S
C4111 H4127 0.960 . S
H4112 C4096 0.931 . S
H4113 C4101 0.929 . S
H4114 C4102 0.960 . S
H4115 C4102 0.962 . S
H4116 C4102 0.960 . S
H4117 C4103 0.961 . S
H4118 C4103 0.961 . S
H4119 C4103 0.961 . S
H4120 C4104 0.931 . S
H4121 C4109 0.930 . S
H4122 C4110 0.956 . S
H4123 C4110 0.961 . S
H4124 C4110 0.961 . S
H4125 C4111 0.958 . S
H4126 C4111 0.961 . S
H4127 C4111 0.960 . S
C4128 C4129 1.391 . S
C4128 C4130 1.394 . S
C4128 H4144 0.931 . S
C4129 C4128 1.391 . S
C4129 C4133 1.376 . S
C4130 C4128 1.394 . S
C4130 C4131 1.369 . S
C4130 C4134 1.531 . S
C4131 C4130 1.369 . S
C4131 C4132 1.410 . S
C4131 C4139 1.503 . S
C4132 C4131 1.410 . S
C4132 C4133 1.392 . S
C4132 C4135 1.511 . S
C4133 C4129 1.376 . S
C4133 C4132 1.392 . S
C4133 H4145 0.929 . S
C4134 C4130 1.531 . S
C4134 H4146 0.960 . S
C4134 H4147 0.962 . S
C4134 H4148 0.960 . S
C4135 C4132 1.511 . S
C4135 H4149 0.961 . S
C4135 H4150 0.961 . S
C4135 H4151 0.961 . S
C4136 C4137 1.370 . S
C4136 C4138 1.363 . S
C4136 H4152 0.931 . S
C4137 C4136 1.370 . S
C4137 C4141 1.408 . S
C4138 C4136 1.363 . S
C4138 C4139 1.370 . S
C4138 C4142 1.524 . S
C4139 C4131 1.503 . S
C4139 C4138 1.370 . S
C4139 C4140 1.403 . S
C4140 C4139 1.403 . S
C4140 C4141 1.404 . S
C4140 C4143 1.539 . S
C4141 C4137 1.408 . S
C4141 C4140 1.404 . S
C4141 H4153 0.930 . S
C4142 C4138 1.524 . S
C4142 H4154 0.956 . S
C4142 H4155 0.961 . S
C4142 H4156 0.961 . S
C4143 C4140 1.539 . S
C4143 H4157 0.958 . S
C4143 H4158 0.961 . S
C4143 H4159 0.960 . S
H4144 C4128 0.931 . S
H4145 C4133 0.929 . S
H4146 C4134 0.960 . S
H4147 C4134 0.962 . S
H4148 C4134 0.960 . S
H4149 C4135 0.961 . S
H4150 C4135 0.961 . S
H4151 C4135 0.961 . S
H4152 C4136 0.931 . S
H4153 C4141 0.930 . S
H4154 C4142 0.956 . S
H4155 C4142 0.961 . S
H4156 C4142 0.961 . S
H4157 C4143 0.958 . S
H4158 C4143 0.961 . S
H4159 C4143 0.960 . S
C4160 C4161 1.391 . S
C4160 C4162 1.394 . S
C4160 H4176 0.931 . S
C4161 C4160 1.391 . S
C4161 C4165 1.376 . S
C4162 C4160 1.394 . S
C4162 C4163 1.369 . S
C4162 C4166 1.531 . S
C4163 C4162 1.369 . S
C4163 C4164 1.410 . S
C4163 C4171 1.503 . S
C4164 C4163 1.410 . S
C4164 C4165 1.392 . S
C4164 C4167 1.511 . S
C4165 C4161 1.376 . S
C4165 C4164 1.392 . S
C4165 H4177 0.929 . S
C4166 C4162 1.531 . S
C4166 H4178 0.960 . S
C4166 H4179 0.962 . S
C4166 H4180 0.960 . S
C4167 C4164 1.511 . S
C4167 H4181 0.961 . S
C4167 H4182 0.961 . S
C4167 H4183 0.961 . S
C4168 C4169 1.370 . S
C4168 C4170 1.363 . S
C4168 H4184 0.931 . S
C4169 C4168 1.370 . S
C4169 C4173 1.408 . S
C4170 C4168 1.363 . S
C4170 C4171 1.370 . S
C4170 C4174 1.524 . S
C4171 C4163 1.503 . S
C4171 C4170 1.370 . S
C4171 C4172 1.403 . S
C4172 C4171 1.403 . S
C4172 C4173 1.404 . S
C4172 C4175 1.539 . S
C4173 C4169 1.408 . S
C4173 C4172 1.404 . S
C4173 H4185 0.930 . S
C4174 C4170 1.524 . S
C4174 H4186 0.956 . S
C4174 H4187 0.961 . S
C4174 H4188 0.961 . S
C4175 C4172 1.539 . S
C4175 H4189 0.958 . S
C4175 H4190 0.961 . S
C4175 H4191 0.960 . S
H4176 C4160 0.931 . S
H4177 C4165 0.929 . S
H4178 C4166 0.960 . S
H4179 C4166 0.962 . S
H4180 C4166 0.960 . S
H4181 C4167 0.961 . S
H4182 C4167 0.961 . S
H4183 C4167 0.961 . S
H4184 C4168 0.931 . S
H4185 C4173 0.930 . S
H4186 C4174 0.956 . S
H4187 C4174 0.961 . S
H4188 C4174 0.961 . S
H4189 C4175 0.958 . S
H4190 C4175 0.961 . S
H4191 C4175 0.960 . S
C4192 C4193 1.391 . S
C4192 C4194 1.394 . S
C4192 H4208 0.931 . S
C4193 C4192 1.391 . S
C4193 C4197 1.376 . S
C4194 C4192 1.394 . S
C4194 C4195 1.369 . S
C4194 C4198 1.531 . S
C4195 C4194 1.369 . S
C4195 C4196 1.410 . S
C4195 C4203 1.503 . S
C4196 C4195 1.410 . S
C4196 C4197 1.392 . S
C4196 C4199 1.511 . S
C4197 C4193 1.376 . S
C4197 C4196 1.392 . S
C4197 H4209 0.929 . S
C4198 C4194 1.531 . S
C4198 H4210 0.960 . S
C4198 H4211 0.962 . S
C4198 H4212 0.960 . S
C4199 C4196 1.511 . S
C4199 H4213 0.961 . S
C4199 H4214 0.961 . S
C4199 H4215 0.961 . S
C4200 C4201 1.370 . S
C4200 C4202 1.363 . S
C4200 H4216 0.931 . S
C4201 C4200 1.370 . S
C4201 C4205 1.408 . S
C4202 C4200 1.363 . S
C4202 C4203 1.370 . S
C4202 C4206 1.524 . S
C4203 C4195 1.503 . S
C4203 C4202 1.370 . S
C4203 C4204 1.403 . S
C4204 C4203 1.403 . S
C4204 C4205 1.404 . S
C4204 C4207 1.539 . S
C4205 C4201 1.408 . S
C4205 C4204 1.404 . S
C4205 H4217 0.930 . S
C4206 C4202 1.524 . S
C4206 H4218 0.956 . S
C4206 H4219 0.961 . S
C4206 H4220 0.961 . S
C4207 C4204 1.539 . S
C4207 H4221 0.958 . S
C4207 H4222 0.961 . S
C4207 H4223 0.960 . S
H4208 C4192 0.931 . S
H4209 C4197 0.929 . S
H4210 C4198 0.960 . S
H4211 C4198 0.962 . S
H4212 C4198 0.960 . S
H4213 C4199 0.961 . S
H4214 C4199 0.961 . S
H4215 C4199 0.961 . S
H4216 C4200 0.931 . S
H4217 C4205 0.930 . S
H4218 C4206 0.956 . S
H4219 C4206 0.961 . S
H4220 C4206 0.961 . S
H4221 C4207 0.958 . S
H4222 C4207 0.961 . S
H4223 C4207 0.960 . S
C4224 C4225 1.391 . S
C4224 C4226 1.394 . S
C4224 H4240 0.931 . S
C4225 C4224 1.391 . S
C4225 C4229 1.376 . S
C4226 C4224 1.394 . S
C4226 C4227 1.369 . S
C4226 C4230 1.531 . S
C4227 C4226 1.369 . S
C4227 C4228 1.410 . S
C4227 C4235 1.503 . S
C4228 C4227 1.410 . S
C4228 C4229 1.392 . S
C4228 C4231 1.511 . S
C4229 C4225 1.376 . S
C4229 C4228 1.392 . S
C4229 H4241 0.929 . S
C4230 C4226 1.531 . S
C4230 H4242 0.960 . S
C4230 H4243 0.962 . S
C4230 H4244 0.960 . S
C4231 C4228 1.511 . S
C4231 H4245 0.961 . S
C4231 H4246 0.961 . S
C4231 H4247 0.961 . S
C4232 C4233 1.370 . S
C4232 C4234 1.363 . S
C4232 H4248 0.931 . S
C4233 C4232 1.370 . S
C4233 C4237 1.408 . S
C4234 C4232 1.363 . S
C4234 C4235 1.370 . S
C4234 C4238 1.524 . S
C4235 C4227 1.503 . S
C4235 C4234 1.370 . S
C4235 C4236 1.403 . S
C4236 C4235 1.403 . S
C4236 C4237 1.404 . S
C4236 C4239 1.539 . S
C4237 C4233 1.408 . S
C4237 C4236 1.404 . S
C4237 H4249 0.930 . S
C4238 C4234 1.524 . S
C4238 H4250 0.956 . S
C4238 H4251 0.961 . S
C4238 H4252 0.961 . S
C4239 C4236 1.539 . S
C4239 H4253 0.958 1_554 S
C4239 H4254 0.961 1_455 S
C4239 H4255 0.960 . S
H4240 C4224 0.931 . S
H4241 C4229 0.929 . S
H4242 C4230 0.960 . S
H4243 C4230 0.962 . S
H4244 C4230 0.960 . S
H4245 C4231 0.961 . S
H4246 C4231 0.961 . S
H4247 C4231 0.961 . S
H4248 C4232 0.931 . S
H4249 C4237 0.930 . S
H4250 C4238 0.956 . S
H4251 C4238 0.961 . S
H4252 C4238 0.961 . S
H4253 C4239 0.958 1_556 S
H4254 C4239 0.961 1_655 S
H4255 C4239 0.960 . S
C4256 C4257 1.391 . S
C4256 C4258 1.394 . S
C4256 H4272 0.931 . S
C4257 C4256 1.391 . S
C4257 C4261 1.376 . S
C4258 C4256 1.394 . S
C4258 C4259 1.369 . S
C4258 C4262 1.531 . S
C4259 C4258 1.369 . S
C4259 C4260 1.410 . S
C4259 C4267 1.503 . S
C4260 C4259 1.410 . S
C4260 C4261 1.392 . S
C4260 C4263 1.511 . S
C4261 C4257 1.376 . S
C4261 C4260 1.392 . S
C4261 H4273 0.929 . S
C4262 C4258 1.531 . S
C4262 H4274 0.960 . S
C4262 H4275 0.962 . S
C4262 H4276 0.960 . S
C4263 C4260 1.511 . S
C4263 H4277 0.961 . S
C4263 H4278 0.961 . S
C4263 H4279 0.961 . S
C4264 C4265 1.370 . S
C4264 C4266 1.363 . S
C4264 H4280 0.931 . S
C4265 C4264 1.370 . S
C4265 C4269 1.408 . S
C4266 C4264 1.363 . S
C4266 C4267 1.370 . S
C4266 C4270 1.524 . S
C4267 C4259 1.503 . S
C4267 C4266 1.370 . S
C4267 C4268 1.403 . S
C4268 C4267 1.403 . S
C4268 C4269 1.404 . S
C4268 C4271 1.539 . S
C4269 C4265 1.408 . S
C4269 C4268 1.404 . S
C4269 H4281 0.930 . S
C4270 C4266 1.524 . S
C4270 H4282 0.956 . S
C4270 H4283 0.961 . S
C4270 H4284 0.961 . S
C4271 C4268 1.539 . S
C4271 H4285 0.958 . S
C4271 H4286 0.961 . S
C4271 H4287 0.960 . S
H4272 C4256 0.931 . S
H4273 C4261 0.929 . S
H4274 C4262 0.960 . S
H4275 C4262 0.962 . S
H4276 C4262 0.960 . S
H4277 C4263 0.961 . S
H4278 C4263 0.961 . S
H4279 C4263 0.961 . S
H4280 C4264 0.931 . S
H4281 C4269 0.930 . S
H4282 C4270 0.956 . S
H4283 C4270 0.961 . S
H4284 C4270 0.961 . S
H4285 C4271 0.958 . S
H4286 C4271 0.961 . S
H4287 C4271 0.960 . S
C4288 C4289 1.391 . S
C4288 C4290 1.394 . S
C4288 H4304 0.931 . S
C4289 C4288 1.391 . S
C4289 C4293 1.376 . S
C4290 C4288 1.394 . S
C4290 C4291 1.369 . S
C4290 C4294 1.531 . S
C4291 C4290 1.369 . S
C4291 C4292 1.410 . S
C4291 C4299 1.503 . S
C4292 C4291 1.410 . S
C4292 C4293 1.392 . S
C4292 C4295 1.511 . S
C4293 C4289 1.376 . S
C4293 C4292 1.392 . S
C4293 H4305 0.929 . S
C4294 C4290 1.531 . S
C4294 H4306 0.960 . S
C4294 H4307 0.962 . S
C4294 H4308 0.960 . S
C4295 C4292 1.511 . S
C4295 H4309 0.961 . S
C4295 H4310 0.961 . S
C4295 H4311 0.961 . S
C4296 C4297 1.370 . S
C4296 C4298 1.363 . S
C4296 H4312 0.931 . S
C4297 C4296 1.370 . S
C4297 C4301 1.408 . S
C4298 C4296 1.363 . S
C4298 C4299 1.370 . S
C4298 C4302 1.524 . S
C4299 C4291 1.503 . S
C4299 C4298 1.370 . S
C4299 C4300 1.403 . S
C4300 C4299 1.403 . S
C4300 C4301 1.404 . S
C4300 C4303 1.539 . S
C4301 C4297 1.408 . S
C4301 C4300 1.404 . S
C4301 H4313 0.930 . S
C4302 C4298 1.524 . S
C4302 H4314 0.956 . S
C4302 H4315 0.961 . S
C4302 H4316 0.961 . S
C4303 C4300 1.539 . S
C4303 H4317 0.958 . S
C4303 H4318 0.961 . S
C4303 H4319 0.960 . S
H4304 C4288 0.931 . S
H4305 C4293 0.929 . S
H4306 C4294 0.960 . S
H4307 C4294 0.962 . S
H4308 C4294 0.960 . S
H4309 C4295 0.961 . S
H4310 C4295 0.961 . S
H4311 C4295 0.961 . S
H4312 C4296 0.931 . S
H4313 C4301 0.930 . S
H4314 C4302 0.956 . S
H4315 C4302 0.961 . S
H4316 C4302 0.961 . S
H4317 C4303 0.958 . S
H4318 C4303 0.961 . S
H4319 C4303 0.960 . S
C4320 C4321 1.391 . S
C4320 C4322 1.394 . S
C4320 H4336 0.931 . S
C4321 C4320 1.391 . S
C4321 C4325 1.376 . S
C4322 C4320 1.394 . S
C4322 C4323 1.369 . S
C4322 C4326 1.531 . S
C4323 C4322 1.369 . S
C4323 C4324 1.410 . S
C4323 C4331 1.503 . S
C4324 C4323 1.410 . S
C4324 C4325 1.392 . S
C4324 C4327 1.511 . S
C4325 C4321 1.376 . S
C4325 C4324 1.392 . S
C4325 H4337 0.929 . S
C4326 C4322 1.531 . S
C4326 H4338 0.960 . S
C4326 H4339 0.962 . S
C4326 H4340 0.960 . S
C4327 C4324 1.511 . S
C4327 H4341 0.961 . S
C4327 H4342 0.961 . S
C4327 H4343 0.961 . S
C4328 C4329 1.370 . S
C4328 C4330 1.363 . S
C4328 H4344 0.931 . S
C4329 C4328 1.370 . S
C4329 C4333 1.408 . S
C4330 C4328 1.363 . S
C4330 C4331 1.370 . S
C4330 C4334 1.524 . S
C4331 C4323 1.503 . S
C4331 C4330 1.370 . S
C4331 C4332 1.403 . S
C4332 C4331 1.403 . S
C4332 C4333 1.404 . S
C4332 C4335 1.539 . S
C4333 C4329 1.408 . S
C4333 C4332 1.404 . S
C4333 H4345 0.930 . S
C4334 C4330 1.524 . S
C4334 H4346 0.956 . S
C4334 H4347 0.961 . S
C4334 H4348 0.961 . S
C4335 C4332 1.539 . S
C4335 H4349 0.958 . S
C4335 H4350 0.961 . S
C4335 H4351 0.960 . S
H4336 C4320 0.931 . S
H4337 C4325 0.929 . S
H4338 C4326 0.960 . S
H4339 C4326 0.962 . S
H4340 C4326 0.960 . S
H4341 C4327 0.961 . S
H4342 C4327 0.961 . S
H4343 C4327 0.961 . S
H4344 C4328 0.931 . S
H4345 C4333 0.930 . S
H4346 C4334 0.956 . S
H4347 C4334 0.961 . S
H4348 C4334 0.961 . S
H4349 C4335 0.958 . S
H4350 C4335 0.961 . S
H4351 C4335 0.960 . S
C4352 C4353 1.391 . S
C4352 C4354 1.394 . S
C4352 H4368 0.931 . S
C4353 C4352 1.391 . S
C4353 C4357 1.376 . S
C4354 C4352 1.394 . S
C4354 C4355 1.369 . S
C4354 C4358 1.531 . S
C4355 C4354 1.369 . S
C4355 C4356 1.410 . S
C4355 C4363 1.503 . S
C4356 C4355 1.410 . S
C4356 C4357 1.392 . S
C4356 C4359 1.511 1_455 S
C4357 C4353 1.376 . S
C4357 C4356 1.392 . S
C4357 H4369 0.929 . S
C4358 C4354 1.531 . S
C4358 H4370 0.960 . S
C4358 H4371 0.962 . S
C4358 H4372 0.960 . S
C4359 C4356 1.511 1_655 S
C4359 H4373 0.961 . S
C4359 H4374 0.961 . S
C4359 H4375 0.961 . S
C4360 C4361 1.370 . S
C4360 C4362 1.363 . S
C4360 H4376 0.931 . S
C4361 C4360 1.370 . S
C4361 C4365 1.408 . S
C4362 C4360 1.363 . S
C4362 C4363 1.370 . S
C4362 C4366 1.524 . S
C4363 C4355 1.503 . S
C4363 C4362 1.370 . S
C4363 C4364 1.403 . S
C4364 C4363 1.403 . S
C4364 C4365 1.404 . S
C4364 C4367 1.539 . S
C4365 C4361 1.408 . S
C4365 C4364 1.404 . S
C4365 H4377 0.930 . S
C4366 C4362 1.524 . S
C4366 H4378 0.956 . S
C4366 H4379 0.961 . S
C4366 H4380 0.961 . S
C4367 C4364 1.539 . S
C4367 H4381 0.958 . S
C4367 H4382 0.961 . S
C4367 H4383 0.960 . S
H4368 C4352 0.931 . S
H4369 C4357 0.929 . S
H4370 C4358 0.960 . S
H4371 C4358 0.962 . S
H4372 C4358 0.960 . S
H4373 C4359 0.961 . S
H4374 C4359 0.961 . S
H4375 C4359 0.961 . S
H4376 C4360 0.931 . S
H4377 C4365 0.930 . S
H4378 C4366 0.956 . S
H4379 C4366 0.961 . S
H4380 C4366 0.961 . S
H4381 C4367 0.958 . S
H4382 C4367 0.961 . S
H4383 C4367 0.960 . S
C4384 C4385 1.391 . S
C4384 C4386 1.394 . S
C4384 H4400 0.931 . S
C4385 C4384 1.391 . S
C4385 C4389 1.376 . S
C4386 C4384 1.394 . S
C4386 C4387 1.369 . S
C4386 C4390 1.531 . S
C4387 C4386 1.369 . S
C4387 C4388 1.410 . S
C4387 C4395 1.503 . S
C4388 C4387 1.410 . S
C4388 C4389 1.392 . S
C4388 C4391 1.511 . S
C4389 C4385 1.376 . S
C4389 C4388 1.392 . S
C4389 H4401 0.929 . S
C4390 C4386 1.531 . S
C4390 H4402 0.960 . S
C4390 H4403 0.962 . S
C4390 H4404 0.960 . S
C4391 C4388 1.511 . S
C4391 H4405 0.961 . S
C4391 H4406 0.961 . S
C4391 H4407 0.961 . S
C4392 C4393 1.370 . S
C4392 C4394 1.363 . S
C4392 H4408 0.931 . S
C4393 C4392 1.370 . S
C4393 C4397 1.408 . S
C4394 C4392 1.363 . S
C4394 C4395 1.370 . S
C4394 C4398 1.524 . S
C4395 C4387 1.503 . S
C4395 C4394 1.370 . S
C4395 C4396 1.403 . S
C4396 C4395 1.403 . S
C4396 C4397 1.404 . S
C4396 C4399 1.539 . S
C4397 C4393 1.408 . S
C4397 C4396 1.404 . S
C4397 H4409 0.930 . S
C4398 C4394 1.524 . S
C4398 H4410 0.956 . S
C4398 H4411 0.961 . S
C4398 H4412 0.961 . S
C4399 C4396 1.539 . S
C4399 H4413 0.958 . S
C4399 H4414 0.961 . S
C4399 H4415 0.960 . S
H4400 C4384 0.931 . S
H4401 C4389 0.929 . S
H4402 C4390 0.960 . S
H4403 C4390 0.962 . S
H4404 C4390 0.960 . S
H4405 C4391 0.961 . S
H4406 C4391 0.961 . S
H4407 C4391 0.961 . S
H4408 C4392 0.931 . S
H4409 C4397 0.930 . S
H4410 C4398 0.956 . S
H4411 C4398 0.961 . S
H4412 C4398 0.961 . S
H4413 C4399 0.958 . S
H4414 C4399 0.961 . S
H4415 C4399 0.960 . S
C4416 C4417 1.391 . S
C4416 C4418 1.394 . S
C4416 H4432 0.931 . S
C4417 C4416 1.391 . S
C4417 C4421 1.376 . S
C4418 C4416 1.394 . S
C4418 C4419 1.369 . S
C4418 C4422 1.531 . S
C4419 C4418 1.369 . S
C4419 C4420 1.410 . S
C4419 C4427 1.503 . S
C4420 C4419 1.410 . S
C4420 C4421 1.392 . S
C4420 C4423 1.511 . S
C4421 C4417 1.376 . S
C4421 C4420 1.392 . S
C4421 H4433 0.929 . S
C4422 C4418 1.531 . S
C4422 H4434 0.960 . S
C4422 H4435 0.962 . S
C4422 H4436 0.960 . S
C4423 C4420 1.511 . S
C4423 H4437 0.961 . S
C4423 H4438 0.961 . S
C4423 H4439 0.961 . S
C4424 C4425 1.370 . S
C4424 C4426 1.363 . S
C4424 H4440 0.931 . S
C4425 C4424 1.370 . S
C4425 C4429 1.408 . S
C4426 C4424 1.363 . S
C4426 C4427 1.370 . S
C4426 C4430 1.524 . S
C4427 C4419 1.503 . S
C4427 C4426 1.370 . S
C4427 C4428 1.403 . S
C4428 C4427 1.403 . S
C4428 C4429 1.404 . S
C4428 C4431 1.539 . S
C4429 C4425 1.408 . S
C4429 C4428 1.404 . S
C4429 H4441 0.930 1_556 S
C4430 C4426 1.524 . S
C4430 H4442 0.956 . S
C4430 H4443 0.961 . S
C4430 H4444 0.961 . S
C4431 C4428 1.539 . S
C4431 H4445 0.958 . S
C4431 H4446 0.961 1_556 S
C4431 H4447 0.960 . S
H4432 C4416 0.931 . S
H4433 C4421 0.929 . S
H4434 C4422 0.960 . S
H4435 C4422 0.962 . S
H4436 C4422 0.960 . S
H4437 C4423 0.961 . S
H4438 C4423 0.961 . S
H4439 C4423 0.961 . S
H4440 C4424 0.931 . S
H4441 C4429 0.930 1_554 S
H4442 C4430 0.956 . S
H4443 C4430 0.961 . S
H4444 C4430 0.961 . S
H4445 C4431 0.958 . S
H4446 C4431 0.961 1_554 S
H4447 C4431 0.960 . S
C4448 C4449 1.391 . S
C4448 C4450 1.394 . S
C4448 H4464 0.931 . S
C4449 C4448 1.391 . S
C4449 C4453 1.376 . S
C4450 C4448 1.394 . S
C4450 C4451 1.369 . S
C4450 C4454 1.531 . S
C4451 C4450 1.369 . S
C4451 C4452 1.410 . S
C4451 C4459 1.503 . S
C4452 C4451 1.410 . S
C4452 C4453 1.392 . S
C4452 C4455 1.511 . S
C4453 C4449 1.376 . S
C4453 C4452 1.392 . S
C4453 H4465 0.929 . S
C4454 C4450 1.531 . S
C4454 H4466 0.960 . S
C4454 H4467 0.962 . S
C4454 H4468 0.960 . S
C4455 C4452 1.511 . S
C4455 H4469 0.961 . S
C4455 H4470 0.961 . S
C4455 H4471 0.961 . S
C4456 C4457 1.370 . S
C4456 C4458 1.363 . S
C4456 H4472 0.931 . S
C4457 C4456 1.370 . S
C4457 C4461 1.408 . S
C4458 C4456 1.363 . S
C4458 C4459 1.370 . S
C4458 C4462 1.524 . S
C4459 C4451 1.503 . S
C4459 C4458 1.370 . S
C4459 C4460 1.403 . S
C4460 C4459 1.403 . S
C4460 C4461 1.404 . S
C4460 C4463 1.539 . S
C4461 C4457 1.408 . S
C4461 C4460 1.404 . S
C4461 H4473 0.930 . S
C4462 C4458 1.524 . S
C4462 H4474 0.956 . S
C4462 H4475 0.961 . S
C4462 H4476 0.961 . S
C4463 C4460 1.539 . S
C4463 H4477 0.958 . S
C4463 H4478 0.961 . S
C4463 H4479 0.960 . S
H4464 C4448 0.931 . S
H4465 C4453 0.929 . S
H4466 C4454 0.960 . S
H4467 C4454 0.962 . S
H4468 C4454 0.960 . S
H4469 C4455 0.961 . S
H4470 C4455 0.961 . S
H4471 C4455 0.961 . S
H4472 C4456 0.931 . S
H4473 C4461 0.930 . S
H4474 C4462 0.956 . S
H4475 C4462 0.961 . S
H4476 C4462 0.961 . S
H4477 C4463 0.958 . S
H4478 C4463 0.961 . S
H4479 C4463 0.960 . S
C4480 C4481 1.391 . S
C4480 C4482 1.394 . S
C4480 H4496 0.931 . S
C4481 C4480 1.391 . S
C4481 C4485 1.376 . S
C4482 C4480 1.394 . S
C4482 C4483 1.369 . S
C4482 C4486 1.531 1_545 S
C4483 C4482 1.369 . S
C4483 C4484 1.410 . S
C4483 C4491 1.503 . S
C4484 C4483 1.410 . S
C4484 C4485 1.392 . S
C4484 C4487 1.511 . S
C4485 C4481 1.376 . S
C4485 C4484 1.392 . S
C4485 H4497 0.929 . S
C4486 C4482 1.531 1_565 S
C4486 H4498 0.960 . S
C4486 H4499 0.962 . S
C4486 H4500 0.960 . S
C4487 C4484 1.511 . S
C4487 H4501 0.961 . S
C4487 H4502 0.961 . S
C4487 H4503 0.961 . S
C4488 C4489 1.370 . S
C4488 C4490 1.363 . S
C4488 H4504 0.931 . S
C4489 C4488 1.370 . S
C4489 C4493 1.408 . S
C4490 C4488 1.363 . S
C4490 C4491 1.370 . S
C4490 C4494 1.524 . S
C4491 C4483 1.503 . S
C4491 C4490 1.370 . S
C4491 C4492 1.403 . S
C4492 C4491 1.403 . S
C4492 C4493 1.404 . S
C4492 C4495 1.539 1_545 S
C4493 C4489 1.408 . S
C4493 C4492 1.404 . S
C4493 H4505 0.892 1_545 S
C4494 C4490 1.524 . S
C4494 H4506 0.956 . S
C4494 H4507 0.961 . S
C4494 H4508 0.961 . S
C4495 C4492 1.539 1_565 S
C4495 H4509 0.958 . S
C4495 H4510 0.961 . S
C4495 H4511 0.960 1_565 S
H4496 C4480 0.931 . S
H4497 C4485 0.929 . S
H4498 C4486 0.960 . S
H4499 C4486 0.962 . S
H4500 C4486 0.960 . S
H4501 C4487 0.961 . S
H4502 C4487 0.961 . S
H4503 C4487 0.961 . S
H4504 C4488 0.931 . S
H4505 C4493 0.892 1_565 S
H4506 C4494 0.956 . S
H4507 C4494 0.961 . S
H4508 C4494 0.961 . S
H4509 C4495 0.958 . S
H4510 C4495 0.961 . S
H4511 C4495 0.960 1_545 S
C4512 C4513 1.391 . S
C4512 C4514 1.394 . S
C4512 H4528 0.931 . S
C4513 C4512 1.391 . S
C4513 C4517 1.376 . S
C4514 C4512 1.394 . S
C4514 C4515 1.369 . S
C4514 C4518 1.531 . S
C4515 C4514 1.369 . S
C4515 C4516 1.410 . S
C4515 C4523 1.503 . S
C4516 C4515 1.410 . S
C4516 C4517 1.392 . S
C4516 C4519 1.511 . S
C4517 C4513 1.376 . S
C4517 C4516 1.392 . S
C4517 H4529 0.929 . S
C4518 C4514 1.531 . S
C4518 H4530 0.960 . S
C4518 H4531 0.962 . S
C4518 H4532 0.960 . S
C4519 C4516 1.511 . S
C4519 H4533 0.961 . S
C4519 H4534 0.961 . S
C4519 H4535 0.961 . S
C4520 C4521 1.370 . S
C4520 C4522 1.363 . S
C4520 H4536 0.931 . S
C4521 C4520 1.370 . S
C4521 C4525 1.408 . S
C4522 C4520 1.363 . S
C4522 C4523 1.370 . S
C4522 C4526 1.524 . S
C4523 C4515 1.503 . S
C4523 C4522 1.370 . S
C4523 C4524 1.403 . S
C4524 C4523 1.403 . S
C4524 C4525 1.404 . S
C4524 C4527 1.539 . S
C4525 C4521 1.408 . S
C4525 C4524 1.404 . S
C4525 H4537 0.930 . S
C4526 C4522 1.524 . S
C4526 H4538 0.956 . S
C4526 H4539 0.961 . S
C4526 H4540 0.961 . S
C4527 C4524 1.539 . S
C4527 H4541 0.958 . S
C4527 H4542 0.961 . S
C4527 H4543 0.960 . S
H4528 C4512 0.931 . S
H4529 C4517 0.929 . S
H4530 C4518 0.960 . S
H4531 C4518 0.962 . S
H4532 C4518 0.960 . S
H4533 C4519 0.961 . S
H4534 C4519 0.961 . S
H4535 C4519 0.961 . S
H4536 C4520 0.931 . S
H4537 C4525 0.930 . S
H4538 C4526 0.956 . S
H4539 C4526 0.961 . S
H4540 C4526 0.961 . S
H4541 C4527 0.958 . S
H4542 C4527 0.961 . S
H4543 C4527 0.960 . S
C4544 C4545 1.391 . S
C4544 C4546 1.394 . S
C4544 H4560 0.931 . S
C4545 C4544 1.391 . S
C4545 C4549 1.376 . S
C4546 C4544 1.394 . S
C4546 C4547 1.369 . S
C4546 C4550 1.531 . S
C4547 C4546 1.369 . S
C4547 C4548 1.410 . S
C4547 C4555 1.503 . S
C4548 C4547 1.410 . S
C4548 C4549 1.392 . S
C4548 C4551 1.511 1_545 S
C4549 C4545 1.376 . S
C4549 C4548 1.392 . S
C4549 H4561 0.929 1_545 S
C4550 C4546 1.531 . S
C4550 H4562 0.960 . S
C4550 H4563 0.962 . S
C4550 H4564 0.960 . S
C4551 C4548 1.511 1_565 S
C4551 H4565 0.961 . S
C4551 H4566 0.961 . S
C4551 H4567 0.961 . S
C4552 C4553 1.370 . S
C4552 C4554 1.363 . S
C4552 H4568 0.931 . S
C4553 C4552 1.370 . S
C4553 C4557 1.408 . S
C4554 C4552 1.363 . S
C4554 C4555 1.370 . S
C4554 C4558 1.524 . S
C4555 C4547 1.503 . S
C4555 C4554 1.370 . S
C4555 C4556 1.403 . S
C4556 C4555 1.403 . S
C4556 C4557 1.404 . S
C4556 C4559 1.539 . S
C4557 C4553 1.408 . S
C4557 C4556 1.404 . S
C4557 H4569 0.930 . S
C4558 C4554 1.524 . S
C4558 H4570 0.956 . S
C4558 H4571 0.999 . S
C4558 H4572 0.961 . S
C4559 C4556 1.539 . S
C4559 H4573 0.958 . S
C4559 H4574 0.961 . S
C4559 H4575 0.960 . S
H4560 C4544 0.931 . S
H4561 C4549 0.929 1_565 S
H4562 C4550 0.960 . S
H4563 C4550 0.962 . S
H4564 C4550 0.960 . S
H4565 C4551 0.961 . S
H4566 C4551 0.961 . S
H4567 C4551 0.961 . S
H4568 C4552 0.931 . S
H4569 C4557 0.930 . S
H4570 C4558 0.956 . S
H4571 C4558 0.999 . S
H4572 C4558 0.961 . S
H4573 C4559 0.958 . S
H4574 C4559 0.961 . S
H4575 C4559 0.960 . S
C4576 C4577 1.391 . S
C4576 C4578 1.394 . S
C4576 H4592 0.931 . S
C4577 C4576 1.391 . S
C4577 C4581 1.376 . S
C4578 C4576 1.394 . S
C4578 C4579 1.369 . S
C4578 C4582 1.531 . S
C4579 C4578 1.369 . S
C4579 C4580 1.410 . S
C4579 C4587 1.503 . S
C4580 C4579 1.410 . S
C4580 C4581 1.392 . S
C4580 C4583 1.511 . S
C4581 C4577 1.376 . S
C4581 C4580 1.392 . S
C4581 H4593 0.929 . S
C4582 C4578 1.531 . S
C4582 H4594 0.960 . S
C4582 H4595 0.962 . S
C4582 H4596 0.960 . S
C4583 C4580 1.511 . S
C4583 H4597 0.961 . S
C4583 H4598 0.961 . S
C4583 H4599 0.961 . S
C4584 C4585 1.370 . S
C4584 C4586 1.363 . S
C4584 H4600 0.931 . S
C4585 C4584 1.370 . S
C4585 C4589 1.408 . S
C4586 C4584 1.363 . S
C4586 C4587 1.370 . S
C4586 C4590 1.524 . S
C4587 C4579 1.503 . S
C4587 C4586 1.370 . S
C4587 C4588 1.403 . S
C4588 C4587 1.403 . S
C4588 C4589 1.404 . S
C4588 C4591 1.539 . S
C4589 C4585 1.408 . S
C4589 C4588 1.404 . S
C4589 H4601 0.930 . S
C4590 C4586 1.524 . S
C4590 H4602 0.956 . S
C4590 H4603 0.961 . S
C4590 H4604 0.961 . S
C4591 C4588 1.539 . S
C4591 H4605 0.958 . S
C4591 H4606 0.961 . S
C4591 H4607 0.960 . S
H4592 C4576 0.931 . S
H4593 C4581 0.929 . S
H4594 C4582 0.960 . S
H4595 C4582 0.962 . S
H4596 C4582 0.960 . S
H4597 C4583 0.961 . S
H4598 C4583 0.961 . S
H4599 C4583 0.961 . S
H4600 C4584 0.931 . S
H4601 C4589 0.930 . S
H4602 C4590 0.956 . S
H4603 C4590 0.961 . S
H4604 C4590 0.961 . S
H4605 C4591 0.958 . S
H4606 C4591 0.961 . S
H4607 C4591 0.960 . S
C4608 C4609 1.391 . S
C4608 C4610 1.394 . S
C4608 H4624 0.931 . S
C4609 C4608 1.391 . S
C4609 C4613 1.376 . S
C4610 C4608 1.394 . S
C4610 C4611 1.369 . S
C4610 C4614 1.531 . S
C4611 C4610 1.369 . S
C4611 C4612 1.410 . S
C4611 C4619 1.503 . S
C4612 C4611 1.410 . S
C4612 C4613 1.392 . S
C4612 C4615 1.511 . S
C4613 C4609 1.376 . S
C4613 C4612 1.392 . S
C4613 H4625 0.929 . S
C4614 C4610 1.531 . S
C4614 H4626 0.960 . S
C4614 H4627 0.962 . S
C4614 H4628 0.960 . S
C4615 C4612 1.511 . S
C4615 H4629 0.961 . S
C4615 H4630 0.961 . S
C4615 H4631 0.961 . S
C4616 C4617 1.370 . S
C4616 C4618 1.363 . S
C4616 H4632 0.931 1_545 S
C4617 C4616 1.370 . S
C4617 C4621 1.408 . S
C4618 C4616 1.363 . S
C4618 C4619 1.370 . S
C4618 C4622 1.524 1_545 S
C4619 C4611 1.503 . S
C4619 C4618 1.370 . S
C4619 C4620 1.403 . S
C4620 C4619 1.403 . S
C4620 C4621 1.404 . S
C4620 C4623 1.539 . S
C4621 C4617 1.408 . S
C4621 C4620 1.404 . S
C4621 H4633 0.930 . S
C4622 C4618 1.524 1_565 S
C4622 H4634 0.956 . S
C4622 H4635 0.961 . S
C4622 H4636 0.961 . S
C4623 C4620 1.539 . S
C4623 H4637 0.958 . S
C4623 H4638 0.961 . S
C4623 H4639 0.960 . S
H4624 C4608 0.931 . S
H4625 C4613 0.929 . S
H4626 C4614 0.960 . S
H4627 C4614 0.962 . S
H4628 C4614 0.960 . S
H4629 C4615 0.961 . S
H4630 C4615 0.961 . S
H4631 C4615 0.961 . S
H4632 C4616 0.931 1_565 S
H4633 C4621 0.930 . S
H4634 C4622 0.956 . S
H4635 C4622 0.961 . S
H4636 C4622 0.961 . S
H4637 C4623 0.958 . S
H4638 C4623 0.961 . S
H4639 C4623 0.960 . S
C4640 C4641 1.391 . S
C4640 C4642 1.394 . S
C4640 H4656 0.931 . S
C4641 C4640 1.391 . S
C4641 C4645 1.376 . S
C4642 C4640 1.394 . S
C4642 C4643 1.369 . S
C4642 C4646 1.531 . S
C4643 C4642 1.369 . S
C4643 C4644 1.410 . S
C4643 C4651 1.503 . S
C4644 C4643 1.410 . S
C4644 C4645 1.392 . S
C4644 C4647 1.511 . S
C4645 C4641 1.376 . S
C4645 C4644 1.392 . S
C4645 H4657 0.929 . S
C4646 C4642 1.531 . S
C4646 H4658 0.960 . S
C4646 H4659 0.962 . S
C4646 H4660 0.960 . S
C4647 C4644 1.511 . S
C4647 H4661 0.961 . S
C4647 H4662 0.961 . S
C4647 H4663 0.961 . S
C4648 C4649 1.370 . S
C4648 C4650 1.363 . S
C4648 H4664 0.931 . S
C4649 C4648 1.370 . S
C4649 C4653 1.408 . S
C4650 C4648 1.363 . S
C4650 C4651 1.370 . S
C4650 C4654 1.524 . S
C4651 C4643 1.503 . S
C4651 C4650 1.370 . S
C4651 C4652 1.403 . S
C4652 C4651 1.403 . S
C4652 C4653 1.404 . S
C4652 C4655 1.539 . S
C4653 C4649 1.408 . S
C4653 C4652 1.404 . S
C4653 H4665 0.930 . S
C4654 C4650 1.524 . S
C4654 H4666 0.956 . S
C4654 H4667 0.961 . S
C4654 H4668 0.961 . S
C4655 C4652 1.539 . S
C4655 H4669 0.958 . S
C4655 H4670 0.961 . S
C4655 H4671 0.960 . S
H4656 C4640 0.931 . S
H4657 C4645 0.929 . S
H4658 C4646 0.960 . S
H4659 C4646 0.962 . S
H4660 C4646 0.960 . S
H4661 C4647 0.961 . S
H4662 C4647 0.961 . S
H4663 C4647 0.961 . S
H4664 C4648 0.931 . S
H4665 C4653 0.930 . S
H4666 C4654 0.956 . S
H4667 C4654 0.961 . S
H4668 C4654 0.961 . S
H4669 C4655 0.958 . S
H4670 C4655 0.961 . S
H4671 C4655 0.960 . S
C4672 C4673 1.391 1_565 S
C4672 C4674 1.394 . S
C4672 H4688 0.931 . S
C4673 C4672 1.391 1_545 S
C4673 C4677 1.376 . S
C4674 C4672 1.394 . S
C4674 C4675 1.369 1_565 S
C4674 C4678 1.531 . S
C4675 C4674 1.369 1_545 S
C4675 C4676 1.410 . S
C4675 C4683 1.503 . S
C4676 C4675 1.410 . S
C4676 C4677 1.392 . S
C4676 C4679 1.511 . S
C4677 C4673 1.376 . S
C4677 C4676 1.392 . S
C4677 H4689 0.929 . S
C4678 C4674 1.531 . S
C4678 H4690 0.960 . S
C4678 H4691 0.962 . S
C4678 H4692 0.960 . S
C4679 C4676 1.511 . S
C4679 H4693 0.961 . S
C4679 H4694 0.961 . S
C4679 H4695 0.961 . S
C4680 C4681 1.370 . S
C4680 C4682 1.363 . S
C4680 H4696 0.931 1_545 S
C4681 C4680 1.370 . S
C4681 C4685 1.408 . S
C4682 C4680 1.363 . S
C4682 C4683 1.370 . S
C4682 C4686 1.524 1_545 S
C4683 C4675 1.503 . S
C4683 C4682 1.370 . S
C4683 C4684 1.403 . S
C4684 C4683 1.403 . S
C4684 C4685 1.404 . S
C4684 C4687 1.539 . S
C4685 C4681 1.408 . S
C4685 C4684 1.404 . S
C4685 H4697 0.930 . S
C4686 C4682 1.524 1_565 S
C4686 H4698 0.956 . S
C4686 H4699 0.961 1_565 S
C4686 H4700 0.961 . S
C4687 C4684 1.539 . S
C4687 H4701 0.958 . S
C4687 H4702 0.961 . S
C4687 H4703 0.960 . S
H4688 C4672 0.931 . S
H4689 C4677 0.929 . S
H4690 C4678 0.960 . S
H4691 C4678 0.962 . S
H4692 C4678 0.960 . S
H4693 C4679 0.961 . S
H4694 C4679 0.961 . S
H4695 C4679 0.961 . S
H4696 C4680 0.931 1_565 S
H4697 C4685 0.930 . S
H4698 C4686 0.956 . S
H4699 C4686 0.961 1_545 S
H4700 C4686 0.961 . S
H4701 C4687 0.958 . S
H4702 C4687 0.961 . S
H4703 C4687 0.960 . S
C4704 C4705 1.391 . S
C4704 C4706 1.394 . S
C4704 H4720 0.931 . S
C4705 C4704 1.391 . S
C4705 C4709 1.376 . S
C4706 C4704 1.394 . S
C4706 C4707 1.369 . S
C4706 C4710 1.531 . S
C4707 C4706 1.369 . S
C4707 C4708 1.410 . S
C4707 C4715 1.503 . S
C4708 C4707 1.410 . S
C4708 C4709 1.392 . S
C4708 C4711 1.511 . S
C4709 C4705 1.376 . S
C4709 C4708 1.392 . S
C4709 H4721 0.929 . S
C4710 C4706 1.531 . S
C4710 H4722 0.960 . S
C4710 H4723 0.962 . S
C4710 H4724 0.960 . S
C4711 C4708 1.511 . S
C4711 H4725 0.961 . S
C4711 H4726 0.961 . S
C4711 H4727 0.961 . S
C4712 C4713 1.370 . S
C4712 C4714 1.363 . S
C4712 H4728 0.931 . S
C4713 C4712 1.370 . S
C4713 C4717 1.408 . S
C4714 C4712 1.363 . S
C4714 C4715 1.370 . S
C4714 C4718 1.524 . S
C4715 C4707 1.503 . S
C4715 C4714 1.370 . S
C4715 C4716 1.403 . S
C4716 C4715 1.403 . S
C4716 C4717 1.404 . S
C4716 C4719 1.539 . S
C4717 C4713 1.408 . S
C4717 C4716 1.404 . S
C4717 H4729 0.930 . S
C4718 C4714 1.524 . S
C4718 H4730 0.956 . S
C4718 H4731 0.961 . S
C4718 H4732 0.961 . S
C4719 C4716 1.539 . S
C4719 H4733 0.958 . S
C4719 H4734 0.961 . S
C4719 H4735 0.960 . S
H4720 C4704 0.931 . S
H4721 C4709 0.929 . S
H4722 C4710 0.960 . S
H4723 C4710 0.962 . S
H4724 C4710 0.960 . S
H4725 C4711 0.961 . S
H4726 C4711 0.961 . S
H4727 C4711 0.961 . S
H4728 C4712 0.931 . S
H4729 C4717 0.930 . S
H4730 C4718 0.956 . S
H4731 C4718 0.961 . S
H4732 C4718 0.961 . S
H4733 C4719 0.958 . S
H4734 C4719 0.961 . S
H4735 C4719 0.960 . S
C4736 C4737 1.391 . S
C4736 C4738 1.394 . S
C4736 H4752 0.931 . S
C4737 C4736 1.391 . S
C4737 C4741 1.376 . S
C4738 C4736 1.394 . S
C4738 C4739 1.369 . S
C4738 C4742 1.531 . S
C4739 C4738 1.369 . S
C4739 C4740 1.410 . S
C4739 C4747 1.503 . S
C4740 C4739 1.410 . S
C4740 C4741 1.392 . S
C4740 C4743 1.511 . S
C4741 C4737 1.376 . S
C4741 C4740 1.392 . S
C4741 H4753 0.929 . S
C4742 C4738 1.531 . S
C4742 H4754 0.960 . S
C4742 H4755 0.962 . S
C4742 H4756 0.960 . S
C4743 C4740 1.511 . S
C4743 H4757 0.961 . S
C4743 H4758 0.961 . S
C4743 H4759 0.961 . S
C4744 C4745 1.370 . S
C4744 C4746 1.363 . S
C4744 H4760 0.931 1_554 S
C4745 C4744 1.370 . S
C4745 C4749 1.408 . S
C4746 C4744 1.363 . S
C4746 C4747 1.370 . S
C4746 C4750 1.524 . S
C4747 C4739 1.503 . S
C4747 C4746 1.370 . S
C4747 C4748 1.403 . S
C4748 C4747 1.403 . S
C4748 C4749 1.404 . S
C4748 C4751 1.539 . S
C4749 C4745 1.408 . S
C4749 C4748 1.404 . S
C4749 H4761 0.930 . S
C4750 C4746 1.524 . S
C4750 H4762 0.956 . S
C4750 H4763 0.961 1_554 S
C4750 H4764 0.961 1_554 S
C4751 C4748 1.539 . S
C4751 H4765 0.958 . S
C4751 H4766 0.961 . S
C4751 H4767 0.960 . S
H4752 C4736 0.931 . S
H4753 C4741 0.929 . S
H4754 C4742 0.960 . S
H4755 C4742 0.962 . S
H4756 C4742 0.960 . S
H4757 C4743 0.961 . S
H4758 C4743 0.961 . S
H4759 C4743 0.961 . S
H4760 C4744 0.931 1_556 S
H4761 C4749 0.930 . S
H4762 C4750 0.956 . S
H4763 C4750 0.961 1_556 S
H4764 C4750 0.961 1_556 S
H4765 C4751 0.958 . S
H4766 C4751 0.961 . S
H4767 C4751 0.960 . S
C4768 C4769 1.391 . S
C4768 C4770 1.394 . S
C4768 H4784 0.931 . S
C4769 C4768 1.391 . S
C4769 C4773 1.376 . S
C4770 C4768 1.394 . S
C4770 C4771 1.369 . S
C4770 C4774 1.531 . S
C4771 C4770 1.369 . S
C4771 C4772 1.410 . S
C4771 C4779 1.503 . S
C4772 C4771 1.410 . S
C4772 C4773 1.392 . S
C4772 C4775 1.511 . S
C4773 C4769 1.376 . S
C4773 C4772 1.392 . S
C4773 H4785 0.929 . S
C4774 C4770 1.531 . S
C4774 H4786 0.960 . S
C4774 H4787 0.962 . S
C4774 H4788 0.960 . S
C4775 C4772 1.511 . S
C4775 H4789 0.961 1_554 S
C4775 H4790 0.961 . S
C4775 H4791 0.961 1_554 S
C4776 C4777 1.370 . S
C4776 C4778 1.363 . S
C4776 H4792 0.931 . S
C4777 C4776 1.370 . S
C4777 C4781 1.408 . S
C4778 C4776 1.363 . S
C4778 C4779 1.370 . S
C4778 C4782 1.524 . S
C4779 C4771 1.503 . S
C4779 C4778 1.370 . S
C4779 C4780 1.403 . S
C4780 C4779 1.403 . S
C4780 C4781 1.404 . S
C4780 C4783 1.539 . S
C4781 C4777 1.408 . S
C4781 C4780 1.404 . S
C4781 H4793 0.930 . S
C4782 C4778 1.524 . S
C4782 H4794 0.956 . S
C4782 H4795 0.961 . S
C4782 H4796 0.961 . S
C4783 C4780 1.539 . S
C4783 H4797 0.958 . S
C4783 H4798 0.961 . S
C4783 H4799 0.960 . S
H4784 C4768 0.931 . S
H4785 C4773 0.929 . S
H4786 C4774 0.960 . S
H4787 C4774 0.962 . S
H4788 C4774 0.960 . S
H4789 C4775 0.961 1_556 S
H4790 C4775 0.961 . S
H4791 C4775 0.961 1_556 S
H4792 C4776 0.931 . S
H4793 C4781 0.930 . S
H4794 C4782 0.956 . S
H4795 C4782 0.961 . S
H4796 C4782 0.961 . S
H4797 C4783 0.958 . S
H4798 C4783 0.961 . S
H4799 C4783 0.960 . S
C4800 C4801 1.391 . S
C4800 C4802 1.394 . S
C4800 H4816 0.931 . S
C4801 C4800 1.391 . S
C4801 C4805 1.376 . S
C4802 C4800 1.394 . S
C4802 C4803 1.369 . S
C4802 C4806 1.531 . S
C4803 C4802 1.369 . S
C4803 C4804 1.410 . S
C4803 C4811 1.503 . S
C4804 C4803 1.410 . S
C4804 C4805 1.392 . S
C4804 C4807 1.511 . S
C4805 C4801 1.376 . S
C4805 C4804 1.392 . S
C4805 H4817 0.929 . S
C4806 C4802 1.531 . S
C4806 H4818 0.960 . S
C4806 H4819 0.962 . S
C4806 H4820 0.960 . S
C4807 C4804 1.511 . S
C4807 H4821 0.961 . S
C4807 H4822 0.961 . S
C4807 H4823 0.961 . S
C4808 C4809 1.370 . S
C4808 C4810 1.363 . S
C4808 H4824 0.931 . S
C4809 C4808 1.370 . S
C4809 C4813 1.408 . S
C4810 C4808 1.363 . S
C4810 C4811 1.370 . S
C4810 C4814 1.524 . S
C4811 C4803 1.503 . S
C4811 C4810 1.370 . S
C4811 C4812 1.403 . S
C4812 C4811 1.403 . S
C4812 C4813 1.404 . S
C4812 C4815 1.539 . S
C4813 C4809 1.408 . S
C4813 C4812 1.404 . S
C4813 H4825 0.930 . S
C4814 C4810 1.524 . S
C4814 H4826 0.956 . S
C4814 H4827 0.961 . S
C4814 H4828 0.961 . S
C4815 C4812 1.539 . S
C4815 H4829 0.958 . S
C4815 H4830 0.961 . S
C4815 H4831 0.960 . S
H4816 C4800 0.931 . S
H4817 C4805 0.929 . S
H4818 C4806 0.960 . S
H4819 C4806 0.962 . S
H4820 C4806 0.960 . S
H4821 C4807 0.961 . S
H4822 C4807 0.961 . S
H4823 C4807 0.961 . S
H4824 C4808 0.931 . S
H4825 C4813 0.930 . S
H4826 C4814 0.956 . S
H4827 C4814 0.961 . S
H4828 C4814 0.961 . S
H4829 C4815 0.958 . S
H4830 C4815 0.961 . S
H4831 C4815 0.960 . S
C4832 C4833 1.391 . S
C4832 C4834 1.394 . S
C4832 H4848 0.931 . S
C4833 C4832 1.391 . S
C4833 C4837 1.376 . S
C4834 C4832 1.394 . S
C4834 C4835 1.369 . S
C4834 C4838 1.531 . S
C4835 C4834 1.369 . S
C4835 C4836 1.410 . S
C4835 C4843 1.503 . S
C4836 C4835 1.410 . S
C4836 C4837 1.392 . S
C4836 C4839 1.511 . S
C4837 C4833 1.376 . S
C4837 C4836 1.392 . S
C4837 H4849 0.929 . S
C4838 C4834 1.531 . S
C4838 H4850 0.960 . S
C4838 H4851 0.962 . S
C4838 H4852 0.960 . S
C4839 C4836 1.511 . S
C4839 H4853 0.961 . S
C4839 H4854 0.961 . S
C4839 H4855 0.961 . S
C4840 C4841 1.370 . S
C4840 C4842 1.363 . S
C4840 H4856 0.931 . S
C4841 C4840 1.370 . S
C4841 C4845 1.408 . S
C4842 C4840 1.363 . S
C4842 C4843 1.370 . S
C4842 C4846 1.524 . S
C4843 C4835 1.503 . S
C4843 C4842 1.370 . S
C4843 C4844 1.403 . S
C4844 C4843 1.403 . S
C4844 C4845 1.404 . S
C4844 C4847 1.539 . S
C4845 C4841 1.408 . S
C4845 C4844 1.404 . S
C4845 H4857 0.930 . S
C4846 C4842 1.524 . S
C4846 H4858 0.956 . S
C4846 H4859 0.961 . S
C4846 H4860 0.961 . S
C4847 C4844 1.539 . S
C4847 H4861 0.958 . S
C4847 H4862 0.961 . S
C4847 H4863 0.960 . S
H4848 C4832 0.931 . S
H4849 C4837 0.929 . S
H4850 C4838 0.960 . S
H4851 C4838 0.962 . S
H4852 C4838 0.960 . S
H4853 C4839 0.961 . S
H4854 C4839 0.961 . S
H4855 C4839 0.961 . S
H4856 C4840 0.931 . S
H4857 C4845 0.930 . S
H4858 C4846 0.956 . S
H4859 C4846 0.961 . S
H4860 C4846 0.961 . S
H4861 C4847 0.958 . S
H4862 C4847 0.961 . S
H4863 C4847 0.960 . S
C4864 C4865 1.391 . S
C4864 C4866 1.394 . S
C4864 H4880 0.931 . S
C4865 C4864 1.391 . S
C4865 C4869 1.376 . S
C4866 C4864 1.394 . S
C4866 C4867 1.369 . S
C4866 C4870 1.531 . S
C4867 C4866 1.369 . S
C4867 C4868 1.410 . S
C4867 C4875 1.503 . S
C4868 C4867 1.410 . S
C4868 C4869 1.392 . S
C4868 C4871 1.511 . S
C4869 C4865 1.376 . S
C4869 C4868 1.392 . S
C4869 H4881 0.929 . S
C4870 C4866 1.531 . S
C4870 H4882 0.960 . S
C4870 H4883 0.962 . S
C4870 H4884 0.960 . S
C4871 C4868 1.511 . S
C4871 H4885 0.961 . S
C4871 H4886 0.961 . S
C4871 H4887 0.961 . S
C4872 C4873 1.370 . S
C4872 C4874 1.363 . S
C4872 H4888 0.931 . S
C4873 C4872 1.370 . S
C4873 C4877 1.408 . S
C4874 C4872 1.363 . S
C4874 C4875 1.370 . S
C4874 C4878 1.524 . S
C4875 C4867 1.503 . S
C4875 C4874 1.370 . S
C4875 C4876 1.403 . S
C4876 C4875 1.403 . S
C4876 C4877 1.404 . S
C4876 C4879 1.539 . S
C4877 C4873 1.408 . S
C4877 C4876 1.404 . S
C4877 H4889 0.930 . S
C4878 C4874 1.524 . S
C4878 H4890 0.956 . S
C4878 H4891 0.961 . S
C4878 H4892 0.961 . S
C4879 C4876 1.539 . S
C4879 H4893 0.958 . S
C4879 H4894 0.961 . S
C4879 H4895 0.960 . S
H4880 C4864 0.931 . S
H4881 C4869 0.929 . S
H4882 C4870 0.960 . S
H4883 C4870 0.962 . S
H4884 C4870 0.960 . S
H4885 C4871 0.961 . S
H4886 C4871 0.961 . S
H4887 C4871 0.961 . S
H4888 C4872 0.931 . S
H4889 C4877 0.930 . S
H4890 C4878 0.956 . S
H4891 C4878 0.961 . S
H4892 C4878 0.961 . S
H4893 C4879 0.958 . S
H4894 C4879 0.961 . S
H4895 C4879 0.960 . S
C4896 C4897 1.391 . S
C4896 C4898 1.394 . S
C4896 H4912 0.931 . S
C4897 C4896 1.391 . S
C4897 C4901 1.376 . S
C4898 C4896 1.394 . S
C4898 C4899 1.369 . S
C4898 C4902 1.531 . S
C4899 C4898 1.369 . S
C4899 C4900 1.410 . S
C4899 C4907 1.503 . S
C4900 C4899 1.410 . S
C4900 C4901 1.392 . S
C4900 C4903 1.511 . S
C4901 C4897 1.376 . S
C4901 C4900 1.392 . S
C4901 H4913 0.929 . S
C4902 C4898 1.531 . S
C4902 H4914 0.960 . S
C4902 H4915 0.962 . S
C4902 H4916 0.960 . S
C4903 C4900 1.511 . S
C4903 H4917 0.961 . S
C4903 H4918 0.961 . S
C4903 H4919 0.961 . S
C4904 C4905 1.370 . S
C4904 C4906 1.363 . S
C4904 H4920 0.931 . S
C4905 C4904 1.370 . S
C4905 C4909 1.408 . S
C4906 C4904 1.363 . S
C4906 C4907 1.370 . S
C4906 C4910 1.524 . S
C4907 C4899 1.503 . S
C4907 C4906 1.370 . S
C4907 C4908 1.403 . S
C4908 C4907 1.403 . S
C4908 C4909 1.404 . S
C4908 C4911 1.539 . S
C4909 C4905 1.408 . S
C4909 C4908 1.404 . S
C4909 H4921 0.930 . S
C4910 C4906 1.524 . S
C4910 H4922 0.956 . S
C4910 H4923 0.961 . S
C4910 H4924 0.961 . S
C4911 C4908 1.539 . S
C4911 H4925 0.958 . S
C4911 H4926 0.961 . S
C4911 H4927 0.960 . S
H4912 C4896 0.931 . S
H4913 C4901 0.929 . S
H4914 C4902 0.960 . S
H4915 C4902 0.962 . S
H4916 C4902 0.960 . S
H4917 C4903 0.961 . S
H4918 C4903 0.961 . S
H4919 C4903 0.961 . S
H4920 C4904 0.931 . S
H4921 C4909 0.930 . S
H4922 C4910 0.956 . S
H4923 C4910 0.961 . S
H4924 C4910 0.961 . S
H4925 C4911 0.958 . S
H4926 C4911 0.961 . S
H4927 C4911 0.960 . S
C4928 C4929 1.391 . S
C4928 C4930 1.394 . S
C4928 H4944 0.931 . S
C4929 C4928 1.391 . S
C4929 C4933 1.376 . S
C4930 C4928 1.394 . S
C4930 C4931 1.369 . S
C4930 C4934 1.531 . S
C4931 C4930 1.369 . S
C4931 C4932 1.410 . S
C4931 C4939 1.503 . S
C4932 C4931 1.410 . S
C4932 C4933 1.392 . S
C4932 C4935 1.511 . S
C4933 C4929 1.376 . S
C4933 C4932 1.392 . S
C4933 H4945 0.929 . S
C4934 C4930 1.531 . S
C4934 H4946 0.960 . S
C4934 H4947 0.962 . S
C4934 H4948 0.960 . S
C4935 C4932 1.511 . S
C4935 H4949 0.961 . S
C4935 H4950 0.961 . S
C4935 H4951 0.961 . S
C4936 C4937 1.370 . S
C4936 C4938 1.363 . S
C4936 H4952 0.931 . S
C4937 C4936 1.370 . S
C4937 C4941 1.408 . S
C4938 C4936 1.363 . S
C4938 C4939 1.370 . S
C4938 C4942 1.524 . S
C4939 C4931 1.503 . S
C4939 C4938 1.370 . S
C4939 C4940 1.403 . S
C4940 C4939 1.403 . S
C4940 C4941 1.404 . S
C4940 C4943 1.539 . S
C4941 C4937 1.408 . S
C4941 C4940 1.404 . S
C4941 H4953 0.930 . S
C4942 C4938 1.524 . S
C4942 H4954 0.956 . S
C4942 H4955 0.961 . S
C4942 H4956 0.961 . S
C4943 C4940 1.539 . S
C4943 H4957 0.958 . S
C4943 H4958 0.961 . S
C4943 H4959 0.960 . S
H4944 C4928 0.931 . S
H4945 C4933 0.929 . S
H4946 C4934 0.960 . S
H4947 C4934 0.962 . S
H4948 C4934 0.960 . S
H4949 C4935 0.961 . S
H4950 C4935 0.961 . S
H4951 C4935 0.961 . S
H4952 C4936 0.931 . S
H4953 C4941 0.930 . S
H4954 C4942 0.956 . S
H4955 C4942 0.961 . S
H4956 C4942 0.961 . S
H4957 C4943 0.958 . S
H4958 C4943 0.961 . S
H4959 C4943 0.960 . S
C4960 C4961 1.391 . S
C4960 C4962 1.394 . S
C4960 H4976 0.931 . S
C4961 C4960 1.391 . S
C4961 C4965 1.376 . S
C4962 C4960 1.394 . S
C4962 C4963 1.369 . S
C4962 C4966 1.531 . S
C4963 C4962 1.369 . S
C4963 C4964 1.410 . S
C4963 C4971 1.503 . S
C4964 C4963 1.410 . S
C4964 C4965 1.392 . S
C4964 C4967 1.511 . S
C4965 C4961 1.376 . S
C4965 C4964 1.392 . S
C4965 H4977 0.929 . S
C4966 C4962 1.531 . S
C4966 H4978 0.960 . S
C4966 H4979 0.962 . S
C4966 H4980 0.960 . S
C4967 C4964 1.511 . S
C4967 H4981 0.961 . S
C4967 H4982 0.961 . S
C4967 H4983 0.961 . S
C4968 C4969 1.370 . S
C4968 C4970 1.363 . S
C4968 H4984 0.931 . S
C4969 C4968 1.370 . S
C4969 C4973 1.408 . S
C4970 C4968 1.363 . S
C4970 C4971 1.370 . S
C4970 C4974 1.524 . S
C4971 C4963 1.503 . S
C4971 C4970 1.370 . S
C4971 C4972 1.403 . S
C4972 C4971 1.403 . S
C4972 C4973 1.404 . S
C4972 C4975 1.539 . S
C4973 C4969 1.408 . S
C4973 C4972 1.404 . S
C4973 H4985 0.930 . S
C4974 C4970 1.524 . S
C4974 H4986 0.956 . S
C4974 H4987 0.961 . S
C4974 H4988 0.961 . S
C4975 C4972 1.539 . S
C4975 H4989 0.958 . S
C4975 H4990 0.961 . S
C4975 H4991 0.960 . S
H4976 C4960 0.931 . S
H4977 C4965 0.929 . S
H4978 C4966 0.960 . S
H4979 C4966 0.962 . S
H4980 C4966 0.960 . S
H4981 C4967 0.961 . S
H4982 C4967 0.961 . S
H4983 C4967 0.961 . S
H4984 C4968 0.931 . S
H4985 C4973 0.930 . S
H4986 C4974 0.956 . S
H4987 C4974 0.961 . S
H4988 C4974 0.961 . S
H4989 C4975 0.958 . S
H4990 C4975 0.961 . S
H4991 C4975 0.960 . S
C4992 C4993 1.391 . S
C4992 C4994 1.394 . S
C4992 H5008 0.931 . S
C4993 C4992 1.391 . S
C4993 C4997 1.376 . S
C4994 C4992 1.394 . S
C4994 C4995 1.369 . S
C4994 C4998 1.531 . S
C4995 C4994 1.369 . S
C4995 C4996 1.410 . S
C4995 C5003 1.503 . S
C4996 C4995 1.410 . S
C4996 C4997 1.392 . S
C4996 C4999 1.511 . S
C4997 C4993 1.376 . S
C4997 C4996 1.392 . S
C4997 H5009 0.929 . S
C4998 C4994 1.531 . S
C4998 H5010 0.960 . S
C4998 H5011 0.962 . S
C4998 H5012 0.960 . S
C4999 C4996 1.511 . S
C4999 H5013 0.961 . S
C4999 H5014 0.961 . S
C4999 H5015 0.961 . S
C5000 C5001 1.370 . S
C5000 C5002 1.363 . S
C5000 H5016 0.931 . S
C5001 C5000 1.370 . S
C5001 C5005 1.408 . S
C5002 C5000 1.363 . S
C5002 C5003 1.370 . S
C5002 C5006 1.524 . S
C5003 C4995 1.503 . S
C5003 C5002 1.370 . S
C5003 C5004 1.403 . S
C5004 C5003 1.403 . S
C5004 C5005 1.404 . S
C5004 C5007 1.539 . S
C5005 C5001 1.408 . S
C5005 C5004 1.404 . S
C5005 H5017 0.930 . S
C5006 C5002 1.524 . S
C5006 H5018 0.956 . S
C5006 H5019 0.961 . S
C5006 H5020 0.961 . S
C5007 C5004 1.539 . S
C5007 H5021 0.958 . S
C5007 H5022 0.961 . S
C5007 H5023 0.960 . S
H5008 C4992 0.931 . S
H5009 C4997 0.929 . S
H5010 C4998 0.960 . S
H5011 C4998 0.962 . S
H5012 C4998 0.960 . S
H5013 C4999 0.961 . S
H5014 C4999 0.961 . S
H5015 C4999 0.961 . S
H5016 C5000 0.931 . S
H5017 C5005 0.930 . S
H5018 C5006 0.956 . S
H5019 C5006 0.961 . S
H5020 C5006 0.961 . S
H5021 C5007 0.958 . S
H5022 C5007 0.961 . S
H5023 C5007 0.960 . S
C5024 C5025 1.391 . S
C5024 C5026 1.394 . S
C5024 H5040 0.931 . S
C5025 C5024 1.391 . S
C5025 C5029 1.376 . S
C5026 C5024 1.394 . S
C5026 C5027 1.369 . S
C5026 C5030 1.531 . S
C5027 C5026 1.369 . S
C5027 C5028 1.410 . S
C5027 C5035 1.503 . S
C5028 C5027 1.410 . S
C5028 C5029 1.392 . S
C5028 C5031 1.511 . S
C5029 C5025 1.376 . S
C5029 C5028 1.392 . S
C5029 H5041 0.929 . S
C5030 C5026 1.531 . S
C5030 H5042 0.960 . S
C5030 H5043 0.962 . S
C5030 H5044 0.960 . S
C5031 C5028 1.511 . S
C5031 H5045 0.961 . S
C5031 H5046 0.961 . S
C5031 H5047 0.961 . S
C5032 C5033 1.370 . S
C5032 C5034 1.363 . S
C5032 H5048 0.931 . S
C5033 C5032 1.370 . S
C5033 C5037 1.408 . S
C5034 C5032 1.363 . S
C5034 C5035 1.370 . S
C5034 C5038 1.524 . S
C5035 C5027 1.503 . S
C5035 C5034 1.370 . S
C5035 C5036 1.403 . S
C5036 C5035 1.403 . S
C5036 C5037 1.404 . S
C5036 C5039 1.539 . S
C5037 C5033 1.408 . S
C5037 C5036 1.404 . S
C5037 H5049 0.930 . S
C5038 C5034 1.524 . S
C5038 H5050 0.956 . S
C5038 H5051 0.961 . S
C5038 H5052 0.961 . S
C5039 C5036 1.539 . S
C5039 H5053 0.958 . S
C5039 H5054 0.961 . S
C5039 H5055 0.960 . S
H5040 C5024 0.931 . S
H5041 C5029 0.929 . S
H5042 C5030 0.960 . S
H5043 C5030 0.962 . S
H5044 C5030 0.960 . S
H5045 C5031 0.961 . S
H5046 C5031 0.961 . S
H5047 C5031 0.961 . S
H5048 C5032 0.931 . S
H5049 C5037 0.930 . S
H5050 C5038 0.956 . S
H5051 C5038 0.961 . S
H5052 C5038 0.961 . S
H5053 C5039 0.958 . S
H5054 C5039 0.961 . S
H5055 C5039 0.960 . S
C5056 C5057 1.391 . S
C5056 C5058 1.394 . S
C5056 H5072 0.931 1_455 S
C5057 C5056 1.391 . S
C5057 C5061 1.376 1_554 S
C5058 C5056 1.394 . S
C5058 C5059 1.369 . S
C5058 C5062 1.531 1_455 S
C5059 C5058 1.369 . S
C5059 C5060 1.410 . S
C5059 C5067 1.503 . S
C5060 C5059 1.410 . S
C5060 C5061 1.392 1_554 S
C5060 C5063 1.511 1_554 S
C5061 C5057 1.376 1_556 S
C5061 C5060 1.392 1_556 S
C5061 H5073 0.929 . S
C5062 C5058 1.531 1_655 S
C5062 H5074 0.960 . S
C5062 H5075 0.962 . S
C5062 H5076 0.960 . S
C5063 C5060 1.511 1_556 S
C5063 H5077 0.961 . S
C5063 H5078 0.961 . S
C5063 H5079 0.961 1_556 S
C5064 C5065 1.370 1_556 S
C5064 C5066 1.363 . S
C5064 H5080 0.931 . S
C5065 C5064 1.370 1_554 S
C5065 C5069 1.408 . S
C5066 C5064 1.363 . S
C5066 C5067 1.370 1_556 S
C5066 C5070 1.527 . S
C5067 C5059 1.503 . S
C5067 C5066 1.370 1_554 S
C5067 C5068 1.403 . S
C5068 C5067 1.403 . S
C5068 C5069 1.404 . S
C5068 C5071 1.539 . S
C5069 C5065 1.408 . S
C5069 C5068 1.404 . S
C5069 H5081 0.930 . S
C5070 C5066 1.527 . S
C5070 H5082 0.947 1_455 S
C5070 H5083 0.971 . S
C5070 H5084 0.957 1_455 S
C5071 C5068 1.539 . S
C5071 H5085 0.958 . S
C5071 H5086 0.961 . S
C5071 H5087 0.960 . S
H5072 C5056 0.931 1_655 S
H5073 C5061 0.929 . S
H5074 C5062 0.960 . S
H5075 C5062 0.962 . S
H5076 C5062 0.960 . S
H5077 C5063 0.961 . S
H5078 C5063 0.961 . S
H5079 C5063 0.961 1_554 S
H5080 C5064 0.931 . S
H5081 C5069 0.930 . S
H5082 C5070 0.947 1_655 S
H5083 C5070 0.971 . S
H5084 C5070 0.957 1_655 S
H5085 C5071 0.958 . S
H5086 C5071 0.961 . S
H5087 C5071 0.960 . S
C5088 C5089 1.391 . S
C5088 C5090 1.394 . S
C5088 H5104 0.931 . S
C5089 C5088 1.391 . S
C5089 C5093 1.376 . S
C5090 C5088 1.394 . S
C5090 C5091 1.369 . S
C5090 C5094 1.531 . S
C5091 C5090 1.369 . S
C5091 C5092 1.410 . S
C5091 C5099 1.503 . S
C5092 C5091 1.410 . S
C5092 C5093 1.392 . S
C5092 C5095 1.511 . S
C5093 C5089 1.376 . S
C5093 C5092 1.392 . S
C5093 H5105 0.929 . S
C5094 C5090 1.531 . S
C5094 H5106 0.960 . S
C5094 H5107 0.962 . S
C5094 H5108 0.960 . S
C5095 C5092 1.511 . S
C5095 H5109 0.961 . S
C5095 H5110 0.961 . S
C5095 H5111 0.961 . S
C5096 C5097 1.370 . S
C5096 C5098 1.363 . S
C5096 H5112 0.931 . S
C5097 C5096 1.370 . S
C5097 C5101 1.408 . S
C5098 C5096 1.363 . S
C5098 C5099 1.370 . S
C5098 C5102 1.524 . S
C5099 C5091 1.503 . S
C5099 C5098 1.370 . S
C5099 C5100 1.403 . S
C5100 C5099 1.403 . S
C5100 C5101 1.404 . S
C5100 C5103 1.539 . S
C5101 C5097 1.408 . S
C5101 C5100 1.404 . S
C5101 H5113 0.930 . S
C5102 C5098 1.524 . S
C5102 H5114 0.956 . S
C5102 H5115 0.961 . S
C5102 H5116 0.961 . S
C5103 C5100 1.539 . S
C5103 H5117 0.958 . S
C5103 H5118 0.961 . S
C5103 H5119 0.960 . S
H5104 C5088 0.931 . S
H5105 C5093 0.929 . S
H5106 C5094 0.960 . S
H5107 C5094 0.962 . S
H5108 C5094 0.960 . S
H5109 C5095 0.961 . S
H5110 C5095 0.961 . S
H5111 C5095 0.961 . S
H5112 C5096 0.931 . S
H5113 C5101 0.930 . S
H5114 C5102 0.956 . S
H5115 C5102 0.961 . S
H5116 C5102 0.961 . S
H5117 C5103 0.958 . S
H5118 C5103 0.961 . S
H5119 C5103 0.960 . S
C5120 C5121 1.391 . S
C5120 C5122 1.394 . S
C5120 H5136 0.931 . S
C5121 C5120 1.391 . S
C5121 C5125 1.376 . S
C5122 C5120 1.394 . S
C5122 C5123 1.369 . S
C5122 C5126 1.531 . S
C5123 C5122 1.369 . S
C5123 C5124 1.410 . S
C5123 C5131 1.503 . S
C5124 C5123 1.410 . S
C5124 C5125 1.392 . S
C5124 C5127 1.511 . S
C5125 C5121 1.376 . S
C5125 C5124 1.392 . S
C5125 H5137 0.929 . S
C5126 C5122 1.531 . S
C5126 H5138 0.960 . S
C5126 H5139 0.962 . S
C5126 H5140 0.960 . S
C5127 C5124 1.511 . S
C5127 H5141 0.961 . S
C5127 H5142 0.961 . S
C5127 H5143 0.961 . S
C5128 C5129 1.370 . S
C5128 C5130 1.363 . S
C5128 H5144 0.931 . S
C5129 C5128 1.370 . S
C5129 C5133 1.408 . S
C5130 C5128 1.363 . S
C5130 C5131 1.370 . S
C5130 C5134 1.524 . S
C5131 C5123 1.503 . S
C5131 C5130 1.370 . S
C5131 C5132 1.403 . S
C5132 C5131 1.403 . S
C5132 C5133 1.404 . S
C5132 C5135 1.539 . S
C5133 C5129 1.408 . S
C5133 C5132 1.404 . S
C5133 H5145 0.930 . S
C5134 C5130 1.524 . S
C5134 H5146 0.956 . S
C5134 H5147 0.961 . S
C5134 H5148 0.961 . S
C5135 C5132 1.539 . S
C5135 H5149 0.958 . S
C5135 H5150 0.961 . S
C5135 H5151 0.960 . S
H5136 C5120 0.931 . S
H5137 C5125 0.929 . S
H5138 C5126 0.960 . S
H5139 C5126 0.962 . S
H5140 C5126 0.960 . S
H5141 C5127 0.961 . S
H5142 C5127 0.961 . S
H5143 C5127 0.961 . S
H5144 C5128 0.931 . S
H5145 C5133 0.930 . S
H5146 C5134 0.956 . S
H5147 C5134 0.961 . S
H5148 C5134 0.961 . S
H5149 C5135 0.958 . S
H5150 C5135 0.961 . S
H5151 C5135 0.960 . S
C5152 C5153 1.391 . S
C5152 C5154 1.394 . S
C5152 H5168 0.931 . S
C5153 C5152 1.391 . S
C5153 C5157 1.376 . S
C5154 C5152 1.394 . S
C5154 C5155 1.369 . S
C5154 C5158 1.531 . S
C5155 C5154 1.369 . S
C5155 C5156 1.410 . S
C5155 C5163 1.503 . S
C5156 C5155 1.410 . S
C5156 C5157 1.392 . S
C5156 C5159 1.511 . S
C5157 C5153 1.376 . S
C5157 C5156 1.392 . S
C5157 H5169 0.929 . S
C5158 C5154 1.531 . S
C5158 H5170 0.960 . S
C5158 H5171 0.962 . S
C5158 H5172 0.960 . S
C5159 C5156 1.511 . S
C5159 H5173 0.961 . S
C5159 H5174 0.961 . S
C5159 H5175 0.961 . S
C5160 C5161 1.370 . S
C5160 C5162 1.363 . S
C5160 H5176 0.931 . S
C5161 C5160 1.370 . S
C5161 C5165 1.408 . S
C5162 C5160 1.363 . S
C5162 C5163 1.370 . S
C5162 C5166 1.524 . S
C5163 C5155 1.503 . S
C5163 C5162 1.370 . S
C5163 C5164 1.403 . S
C5164 C5163 1.403 . S
C5164 C5165 1.404 . S
C5164 C5167 1.539 . S
C5165 C5161 1.408 . S
C5165 C5164 1.404 . S
C5165 H5177 0.930 . S
C5166 C5162 1.524 . S
C5166 H5178 0.956 . S
C5166 H5179 0.961 . S
C5166 H5180 0.961 . S
C5167 C5164 1.539 . S
C5167 H5181 0.958 . S
C5167 H5182 0.961 . S
C5167 H5183 0.960 . S
H5168 C5152 0.931 . S
H5169 C5157 0.929 . S
H5170 C5158 0.960 . S
H5171 C5158 0.962 . S
H5172 C5158 0.960 . S
H5173 C5159 0.961 . S
H5174 C5159 0.961 . S
H5175 C5159 0.961 . S
H5176 C5160 0.931 . S
H5177 C5165 0.930 . S
H5178 C5166 0.956 . S
H5179 C5166 0.961 . S
H5180 C5166 0.961 . S
H5181 C5167 0.958 . S
H5182 C5167 0.961 . S
H5183 C5167 0.960 . S
C5184 C5185 1.391 . S
C5184 C5186 1.394 . S
C5184 H5200 0.931 . S
C5185 C5184 1.391 . S
C5185 C5189 1.376 1_455 S
C5186 C5184 1.394 . S
C5186 C5187 1.369 . S
C5186 C5190 1.531 . S
C5187 C5186 1.369 . S
C5187 C5188 1.410 1_455 S
C5187 C5195 1.503 . S
C5188 C5187 1.410 1_655 S
C5188 C5189 1.392 . S
C5188 C5191 1.511 . S
C5189 C5185 1.376 1_655 S
C5189 C5188 1.392 . S
C5189 H5201 0.929 . S
C5190 C5186 1.531 . S
C5190 H5202 0.960 . S
C5190 H5203 0.962 . S
C5190 H5204 0.960 . S
C5191 C5188 1.511 . S
C5191 H5205 0.961 . S
C5191 H5206 0.961 . S
C5191 H5207 0.961 . S
C5192 C5193 1.370 . S
C5192 C5194 1.363 . S
C5192 H5208 0.931 . S
C5193 C5192 1.370 . S
C5193 C5197 1.408 . S
C5194 C5192 1.363 . S
C5194 C5195 1.370 . S
C5194 C5198 1.509 1_455 S
C5195 C5187 1.503 . S
C5195 C5194 1.370 . S
C5195 C5196 1.403 . S
C5196 C5195 1.403 . S
C5196 C5197 1.404 . S
C5196 C5199 1.539 . S
C5197 C5193 1.408 . S
C5197 C5196 1.404 . S
C5197 H5209 0.930 . S
C5198 C5194 1.509 1_655 S
C5198 H5210 0.940 1_655 S
C5198 H5211 0.987 . S
C5198 H5212 0.966 . S
C5199 C5196 1.539 . S
C5199 H5213 0.958 . S
C5199 H5214 0.961 . S
C5199 H5215 0.960 . S
H5200 C5184 0.931 . S
H5201 C5189 0.929 . S
H5202 C5190 0.960 . S
H5203 C5190 0.962 . S
H5204 C5190 0.960 . S
H5205 C5191 0.961 . S
H5206 C5191 0.961 . S
H5207 C5191 0.961 . S
H5208 C5192 0.931 . S
H5209 C5197 0.930 . S
H5210 C5198 0.940 1_455 S
H5211 C5198 0.987 . S
H5212 C5198 0.966 . S
H5213 C5199 0.958 . S
H5214 C5199 0.961 . S
H5215 C5199 0.960 . S
C5216 C5217 1.391 . S
C5216 C5218 1.394 . S
C5216 H5232 0.931 . S
C5217 C5216 1.391 . S
C5217 C5221 1.376 . S
C5218 C5216 1.394 . S
C5218 C5219 1.369 . S
C5218 C5222 1.531 . S
C5219 C5218 1.369 . S
C5219 C5220 1.410 . S
C5219 C5227 1.503 . S
C5220 C5219 1.410 . S
C5220 C5221 1.392 . S
C5220 C5223 1.511 . S
C5221 C5217 1.376 . S
C5221 C5220 1.392 . S
C5221 H5233 0.929 . S
C5222 C5218 1.531 . S
C5222 H5234 0.960 . S
C5222 H5235 0.962 . S
C5222 H5236 0.960 . S
C5223 C5220 1.511 . S
C5223 H5237 0.961 . S
C5223 H5238 0.961 . S
C5223 H5239 0.961 . S
C5224 C5225 1.370 . S
C5224 C5226 1.363 . S
C5224 H5240 0.931 . S
C5225 C5224 1.370 . S
C5225 C5229 1.408 . S
C5226 C5224 1.363 . S
C5226 C5227 1.370 . S
C5226 C5230 1.524 . S
C5227 C5219 1.503 . S
C5227 C5226 1.370 . S
C5227 C5228 1.403 . S
C5228 C5227 1.403 . S
C5228 C5229 1.404 . S
C5228 C5231 1.539 . S
C5229 C5225 1.408 . S
C5229 C5228 1.404 . S
C5229 H5241 0.930 . S
C5230 C5226 1.524 . S
C5230 H5242 0.956 . S
C5230 H5243 0.961 . S
C5230 H5244 0.961 . S
C5231 C5228 1.539 . S
C5231 H5245 0.958 . S
C5231 H5246 0.961 . S
C5231 H5247 0.960 . S
H5232 C5216 0.931 . S
H5233 C5221 0.929 . S
H5234 C5222 0.960 . S
H5235 C5222 0.962 . S
H5236 C5222 0.960 . S
H5237 C5223 0.961 . S
H5238 C5223 0.961 . S
H5239 C5223 0.961 . S
H5240 C5224 0.931 . S
H5241 C5229 0.930 . S
H5242 C5230 0.956 . S
H5243 C5230 0.961 . S
H5244 C5230 0.961 . S
H5245 C5231 0.958 . S
H5246 C5231 0.961 . S
H5247 C5231 0.960 . S
C5248 C5249 1.391 . S
C5248 C5250 1.394 . S
C5248 H5264 0.931 . S
C5249 C5248 1.391 . S
C5249 C5253 1.376 . S
C5250 C5248 1.394 . S
C5250 C5251 1.369 . S
C5250 C5254 1.531 . S
C5251 C5250 1.369 . S
C5251 C5252 1.410 . S
C5251 C5259 1.503 . S
C5252 C5251 1.410 . S
C5252 C5253 1.392 . S
C5252 C5255 1.511 . S
C5253 C5249 1.376 . S
C5253 C5252 1.392 . S
C5253 H5265 0.929 . S
C5254 C5250 1.531 . S
C5254 H5266 0.960 . S
C5254 H5267 0.962 . S
C5254 H5268 0.960 . S
C5255 C5252 1.511 . S
C5255 H5269 0.961 . S
C5255 H5270 0.961 . S
C5255 H5271 0.961 . S
C5256 C5257 1.370 . S
C5256 C5258 1.363 . S
C5256 H5272 0.931 . S
C5257 C5256 1.370 . S
C5257 C5261 1.408 . S
C5258 C5256 1.363 . S
C5258 C5259 1.370 . S
C5258 C5262 1.524 . S
C5259 C5251 1.503 . S
C5259 C5258 1.370 . S
C5259 C5260 1.403 . S
C5260 C5259 1.403 . S
C5260 C5261 1.404 . S
C5260 C5263 1.539 . S
C5261 C5257 1.408 . S
C5261 C5260 1.404 . S
C5261 H5273 0.930 . S
C5262 C5258 1.524 . S
C5262 H5274 0.956 . S
C5262 H5275 0.961 . S
C5262 H5276 0.961 . S
C5263 C5260 1.539 . S
C5263 H5277 0.958 . S
C5263 H5278 0.961 . S
C5263 H5279 0.960 . S
H5264 C5248 0.931 . S
H5265 C5253 0.929 . S
H5266 C5254 0.960 . S
H5267 C5254 0.962 . S
H5268 C5254 0.960 . S
H5269 C5255 0.961 . S
H5270 C5255 0.961 . S
H5271 C5255 0.961 . S
H5272 C5256 0.931 . S
H5273 C5261 0.930 . S
H5274 C5262 0.956 . S
H5275 C5262 0.961 . S
H5276 C5262 0.961 . S
H5277 C5263 0.958 . S
H5278 C5263 0.961 . S
H5279 C5263 0.960 . S
C5280 C5281 1.391 . S
C5280 C5282 1.394 . S
C5280 H5296 0.931 . S
C5281 C5280 1.391 . S
C5281 C5285 1.376 . S
C5282 C5280 1.394 . S
C5282 C5283 1.369 . S
C5282 C5286 1.531 . S
C5283 C5282 1.369 . S
C5283 C5284 1.410 . S
C5283 C5291 1.503 . S
C5284 C5283 1.410 . S
C5284 C5285 1.392 . S
C5284 C5287 1.511 . S
C5285 C5281 1.376 . S
C5285 C5284 1.392 . S
C5285 H5297 0.929 . S
C5286 C5282 1.531 . S
C5286 H5298 0.960 . S
C5286 H5299 0.962 . S
C5286 H5300 0.960 . S
C5287 C5284 1.511 . S
C5287 H5301 0.961 . S
C5287 H5302 0.961 . S
C5287 H5303 0.961 . S
C5288 C5289 1.370 . S
C5288 C5290 1.363 . S
C5288 H5304 0.931 . S
C5289 C5288 1.370 . S
C5289 C5293 1.408 . S
C5290 C5288 1.363 . S
C5290 C5291 1.370 . S
C5290 C5294 1.524 . S
C5291 C5283 1.503 . S
C5291 C5290 1.370 . S
C5291 C5292 1.403 . S
C5292 C5291 1.403 . S
C5292 C5293 1.404 . S
C5292 C5295 1.539 . S
C5293 C5289 1.408 . S
C5293 C5292 1.404 . S
C5293 H5305 0.930 . S
C5294 C5290 1.524 . S
C5294 H5306 0.956 . S
C5294 H5307 0.961 . S
C5294 H5308 0.961 . S
C5295 C5292 1.539 . S
C5295 H5309 0.958 . S
C5295 H5310 0.961 . S
C5295 H5311 0.960 . S
H5296 C5280 0.931 . S
H5297 C5285 0.929 . S
H5298 C5286 0.960 . S
H5299 C5286 0.962 . S
H5300 C5286 0.960 . S
H5301 C5287 0.961 . S
H5302 C5287 0.961 . S
H5303 C5287 0.961 . S
H5304 C5288 0.931 . S
H5305 C5293 0.930 . S
H5306 C5294 0.956 . S
H5307 C5294 0.961 . S
H5308 C5294 0.961 . S
H5309 C5295 0.958 . S
H5310 C5295 0.961 . S
H5311 C5295 0.960 . S
C5312 C5313 1.391 . S
C5312 C5314 1.394 . S
C5312 H5328 0.931 . S
C5313 C5312 1.391 . S
C5313 C5317 1.376 . S
C5314 C5312 1.394 . S
C5314 C5315 1.369 . S
C5314 C5318 1.531 . S
C5315 C5314 1.369 . S
C5315 C5316 1.410 . S
C5315 C5323 1.503 . S
C5316 C5315 1.410 . S
C5316 C5317 1.392 . S
C5316 C5319 1.511 . S
C5317 C5313 1.376 . S
C5317 C5316 1.392 . S
C5317 H5329 0.929 . S
C5318 C5314 1.531 . S
C5318 H5330 0.960 . S
C5318 H5331 0.962 . S
C5318 H5332 0.960 . S
C5319 C5316 1.511 . S
C5319 H5333 0.961 . S
C5319 H5334 0.961 . S
C5319 H5335 0.961 . S
C5320 C5321 1.370 . S
C5320 C5322 1.363 . S
C5320 H5336 0.931 . S
C5321 C5320 1.370 . S
C5321 C5325 1.408 . S
C5322 C5320 1.363 . S
C5322 C5323 1.370 . S
C5322 C5326 1.524 . S
C5323 C5315 1.503 . S
C5323 C5322 1.370 . S
C5323 C5324 1.403 . S
C5324 C5323 1.403 . S
C5324 C5325 1.404 . S
C5324 C5327 1.539 . S
C5325 C5321 1.408 . S
C5325 C5324 1.404 . S
C5325 H5337 0.930 . S
C5326 C5322 1.524 . S
C5326 H5338 0.956 . S
C5326 H5339 0.961 . S
C5326 H5340 0.961 . S
C5327 C5324 1.539 . S
C5327 H5341 0.958 . S
C5327 H5342 0.961 . S
C5327 H5343 0.960 . S
H5328 C5312 0.931 . S
H5329 C5317 0.929 . S
H5330 C5318 0.960 . S
H5331 C5318 0.962 . S
H5332 C5318 0.960 . S
H5333 C5319 0.961 . S
H5334 C5319 0.961 . S
H5335 C5319 0.961 . S
H5336 C5320 0.931 . S
H5337 C5325 0.930 . S
H5338 C5326 0.956 . S
H5339 C5326 0.961 . S
H5340 C5326 0.961 . S
H5341 C5327 0.958 . S
H5342 C5327 0.961 . S
H5343 C5327 0.960 . S
C5344 C5345 1.391 . S
C5344 C5346 1.394 . S
C5344 H5360 0.931 . S
C5345 C5344 1.391 . S
C5345 C5349 1.376 . S
C5346 C5344 1.394 . S
C5346 C5347 1.369 . S
C5346 C5350 1.531 . S
C5347 C5346 1.369 . S
C5347 C5348 1.410 . S
C5347 C5355 1.503 . S
C5348 C5347 1.410 . S
C5348 C5349 1.392 . S
C5348 C5351 1.511 . S
C5349 C5345 1.376 . S
C5349 C5348 1.392 . S
C5349 H5361 0.929 . S
C5350 C5346 1.531 . S
C5350 H5362 0.960 . S
C5350 H5363 0.962 . S
C5350 H5364 0.960 . S
C5351 C5348 1.511 . S
C5351 H5365 0.961 . S
C5351 H5366 0.961 . S
C5351 H5367 0.961 . S
C5352 C5353 1.370 . S
C5352 C5354 1.363 . S
C5352 H5368 0.931 . S
C5353 C5352 1.370 . S
C5353 C5357 1.408 . S
C5354 C5352 1.363 . S
C5354 C5355 1.370 . S
C5354 C5358 1.524 . S
C5355 C5347 1.503 . S
C5355 C5354 1.370 . S
C5355 C5356 1.403 . S
C5356 C5355 1.403 . S
C5356 C5357 1.404 . S
C5356 C5359 1.539 . S
C5357 C5353 1.408 . S
C5357 C5356 1.404 . S
C5357 H5369 0.930 . S
C5358 C5354 1.524 . S
C5358 H5370 0.956 . S
C5358 H5371 0.961 . S
C5358 H5372 0.961 . S
C5359 C5356 1.539 . S
C5359 H5373 0.958 . S
C5359 H5374 0.961 . S
C5359 H5375 0.960 . S
H5360 C5344 0.931 . S
H5361 C5349 0.929 . S
H5362 C5350 0.960 . S
H5363 C5350 0.962 . S
H5364 C5350 0.960 . S
H5365 C5351 0.961 . S
H5366 C5351 0.961 . S
H5367 C5351 0.961 . S
H5368 C5352 0.931 . S
H5369 C5357 0.930 . S
H5370 C5358 0.956 . S
H5371 C5358 0.961 . S
H5372 C5358 0.961 . S
H5373 C5359 0.958 . S
H5374 C5359 0.961 . S
H5375 C5359 0.960 . S
C5376 C5377 1.391 . S
C5376 C5378 1.394 . S
C5376 H5392 0.931 . S
C5377 C5376 1.391 . S
C5377 C5381 1.376 . S
C5378 C5376 1.394 . S
C5378 C5379 1.369 . S
C5378 C5382 1.531 . S
C5379 C5378 1.369 . S
C5379 C5380 1.410 . S
C5379 C5387 1.503 . S
C5380 C5379 1.410 . S
C5380 C5381 1.392 . S
C5380 C5383 1.511 . S
C5381 C5377 1.376 . S
C5381 C5380 1.392 . S
C5381 H5393 0.929 . S
C5382 C5378 1.531 . S
C5382 H5394 0.960 . S
C5382 H5395 0.962 . S
C5382 H5396 0.960 . S
C5383 C5380 1.511 . S
C5383 H5397 0.961 . S
C5383 H5398 0.961 . S
C5383 H5399 0.961 . S
C5384 C5385 1.370 . S
C5384 C5386 1.363 . S
C5384 H5400 0.931 . S
C5385 C5384 1.370 . S
C5385 C5389 1.408 . S
C5386 C5384 1.363 . S
C5386 C5387 1.370 . S
C5386 C5390 1.524 . S
C5387 C5379 1.503 . S
C5387 C5386 1.370 . S
C5387 C5388 1.403 . S
C5388 C5387 1.403 . S
C5388 C5389 1.404 . S
C5388 C5391 1.539 . S
C5389 C5385 1.408 . S
C5389 C5388 1.404 . S
C5389 H5401 0.930 . S
C5390 C5386 1.524 . S
C5390 H5402 0.956 . S
C5390 H5403 0.961 . S
C5390 H5404 0.961 . S
C5391 C5388 1.539 . S
C5391 H5405 0.958 . S
C5391 H5406 0.961 . S
C5391 H5407 0.960 . S
H5392 C5376 0.931 . S
H5393 C5381 0.929 . S
H5394 C5382 0.960 . S
H5395 C5382 0.962 . S
H5396 C5382 0.960 . S
H5397 C5383 0.961 . S
H5398 C5383 0.961 . S
H5399 C5383 0.961 . S
H5400 C5384 0.931 . S
H5401 C5389 0.930 . S
H5402 C5390 0.956 . S
H5403 C5390 0.961 . S
H5404 C5390 0.961 . S
H5405 C5391 0.958 . S
H5406 C5391 0.961 . S
H5407 C5391 0.960 . S
C5408 C5409 1.391 . S
C5408 C5410 1.394 . S
C5408 H5424 0.931 . S
C5409 C5408 1.391 . S
C5409 C5413 1.376 . S
C5410 C5408 1.394 . S
C5410 C5411 1.369 . S
C5410 C5414 1.531 . S
C5411 C5410 1.369 . S
C5411 C5412 1.410 . S
C5411 C5419 1.503 . S
C5412 C5411 1.410 . S
C5412 C5413 1.392 . S
C5412 C5415 1.511 . S
C5413 C5409 1.376 . S
C5413 C5412 1.392 . S
C5413 H5425 0.929 . S
C5414 C5410 1.531 . S
C5414 H5426 0.960 . S
C5414 H5427 0.962 . S
C5414 H5428 0.960 . S
C5415 C5412 1.511 . S
C5415 H5429 0.961 . S
C5415 H5430 0.961 . S
C5415 H5431 0.961 . S
C5416 C5417 1.370 . S
C5416 C5418 1.363 . S
C5416 H5432 0.931 . S
C5417 C5416 1.370 . S
C5417 C5421 1.408 . S
C5418 C5416 1.363 . S
C5418 C5419 1.370 . S
C5418 C5422 1.524 . S
C5419 C5411 1.503 . S
C5419 C5418 1.370 . S
C5419 C5420 1.403 . S
C5420 C5419 1.403 . S
C5420 C5421 1.404 . S
C5420 C5423 1.539 . S
C5421 C5417 1.408 . S
C5421 C5420 1.404 . S
C5421 H5433 0.930 . S
C5422 C5418 1.524 . S
C5422 H5434 0.956 . S
C5422 H5435 0.961 . S
C5422 H5436 0.961 . S
C5423 C5420 1.539 . S
C5423 H5437 0.958 . S
C5423 H5438 0.961 . S
C5423 H5439 0.960 . S
H5424 C5408 0.931 . S
H5425 C5413 0.929 . S
H5426 C5414 0.960 . S
H5427 C5414 0.962 . S
H5428 C5414 0.960 . S
H5429 C5415 0.961 . S
H5430 C5415 0.961 . S
H5431 C5415 0.961 . S
H5432 C5416 0.931 . S
H5433 C5421 0.930 . S
H5434 C5422 0.956 . S
H5435 C5422 0.961 . S
H5436 C5422 0.961 . S
H5437 C5423 0.958 . S
H5438 C5423 0.961 . S
H5439 C5423 0.960 . S
C5440 C5441 1.391 . S
C5440 C5442 1.394 . S
C5440 H5456 0.931 . S
C5441 C5440 1.391 . S
C5441 C5445 1.376 . S
C5442 C5440 1.394 . S
C5442 C5443 1.369 . S
C5442 C5446 1.531 . S
C5443 C5442 1.369 . S
C5443 C5444 1.410 . S
C5443 C5451 1.503 . S
C5444 C5443 1.410 . S
C5444 C5445 1.392 . S
C5444 C5447 1.511 . S
C5445 C5441 1.376 . S
C5445 C5444 1.392 . S
C5445 H5457 0.929 . S
C5446 C5442 1.531 . S
C5446 H5458 0.960 . S
C5446 H5459 0.962 . S
C5446 H5460 0.960 . S
C5447 C5444 1.511 . S
C5447 H5461 0.961 . S
C5447 H5462 0.961 . S
C5447 H5463 0.961 . S
C5448 C5449 1.370 . S
C5448 C5450 1.363 . S
C5448 H5464 0.931 . S
C5449 C5448 1.370 . S
C5449 C5453 1.408 . S
C5450 C5448 1.363 . S
C5450 C5451 1.370 . S
C5450 C5454 1.524 . S
C5451 C5443 1.503 . S
C5451 C5450 1.370 . S
C5451 C5452 1.403 . S
C5452 C5451 1.403 . S
C5452 C5453 1.404 . S
C5452 C5455 1.539 . S
C5453 C5449 1.408 . S
C5453 C5452 1.404 . S
C5453 H5465 0.930 . S
C5454 C5450 1.524 . S
C5454 H5466 0.956 . S
C5454 H5467 0.961 . S
C5454 H5468 0.961 . S
C5455 C5452 1.539 . S
C5455 H5469 0.958 . S
C5455 H5470 0.961 . S
C5455 H5471 0.960 . S
H5456 C5440 0.931 . S
H5457 C5445 0.929 . S
H5458 C5446 0.960 . S
H5459 C5446 0.962 . S
H5460 C5446 0.960 . S
H5461 C5447 0.961 . S
H5462 C5447 0.961 . S
H5463 C5447 0.961 . S
H5464 C5448 0.931 . S
H5465 C5453 0.930 . S
H5466 C5454 0.956 . S
H5467 C5454 0.961 . S
H5468 C5454 0.961 . S
H5469 C5455 0.958 . S
H5470 C5455 0.961 . S
H5471 C5455 0.960 . S
C5472 C5473 1.391 . S
C5472 C5474 1.394 . S
C5472 H5488 0.931 . S
C5473 C5472 1.391 . S
C5473 C5477 1.376 . S
C5474 C5472 1.394 . S
C5474 C5475 1.369 . S
C5474 C5478 1.531 . S
C5475 C5474 1.369 . S
C5475 C5476 1.410 . S
C5475 C5483 1.503 . S
C5476 C5475 1.410 . S
C5476 C5477 1.392 . S
C5476 C5479 1.511 . S
C5477 C5473 1.376 . S
C5477 C5476 1.392 . S
C5477 H5489 0.929 . S
C5478 C5474 1.531 . S
C5478 H5490 0.960 . S
C5478 H5491 0.962 . S
C5478 H5492 0.960 . S
C5479 C5476 1.511 . S
C5479 H5493 0.961 . S
C5479 H5494 0.961 . S
C5479 H5495 0.961 . S
C5480 C5481 1.370 . S
C5480 C5482 1.363 . S
C5480 H5496 0.931 . S
C5481 C5480 1.370 . S
C5481 C5485 1.408 . S
C5482 C5480 1.363 . S
C5482 C5483 1.370 . S
C5482 C5486 1.524 . S
C5483 C5475 1.503 . S
C5483 C5482 1.370 . S
C5483 C5484 1.403 . S
C5484 C5483 1.403 . S
C5484 C5485 1.404 . S
C5484 C5487 1.539 . S
C5485 C5481 1.408 . S
C5485 C5484 1.404 . S
C5485 H5497 0.930 . S
C5486 C5482 1.524 . S
C5486 H5498 0.956 . S
C5486 H5499 0.961 . S
C5486 H5500 0.961 . S
C5487 C5484 1.539 . S
C5487 H5501 0.958 . S
C5487 H5502 0.961 . S
C5487 H5503 0.960 . S
H5488 C5472 0.931 . S
H5489 C5477 0.929 . S
H5490 C5478 0.960 . S
H5491 C5478 0.962 . S
H5492 C5478 0.960 . S
H5493 C5479 0.961 . S
H5494 C5479 0.961 . S
H5495 C5479 0.961 . S
H5496 C5480 0.931 . S
H5497 C5485 0.930 . S
H5498 C5486 0.956 . S
H5499 C5486 0.961 . S
H5500 C5486 0.961 . S
H5501 C5487 0.958 . S
H5502 C5487 0.961 . S
H5503 C5487 0.960 . S
C5504 C5505 1.391 . S
C5504 C5506 1.394 . S
C5504 H5520 0.931 . S
C5505 C5504 1.391 . S
C5505 C5509 1.376 . S
C5506 C5504 1.394 . S
C5506 C5507 1.369 . S
C5506 C5510 1.531 . S
C5507 C5506 1.369 . S
C5507 C5508 1.410 . S
C5507 C5515 1.503 . S
C5508 C5507 1.410 . S
C5508 C5509 1.392 . S
C5508 C5511 1.511 . S
C5509 C5505 1.376 . S
C5509 C5508 1.392 . S
C5509 H5521 0.929 . S
C5510 C5506 1.531 . S
C5510 H5522 0.960 . S
C5510 H5523 0.962 . S
C5510 H5524 0.960 . S
C5511 C5508 1.511 . S
C5511 H5525 0.961 . S
C5511 H5526 0.961 . S
C5511 H5527 0.961 . S
C5512 C5513 1.370 . S
C5512 C5514 1.363 . S
C5512 H5528 0.931 . S
C5513 C5512 1.370 . S
C5513 C5517 1.408 . S
C5514 C5512 1.363 . S
C5514 C5515 1.370 . S
C5514 C5518 1.524 . S
C5515 C5507 1.503 . S
C5515 C5514 1.370 . S
C5515 C5516 1.403 . S
C5516 C5515 1.403 . S
C5516 C5517 1.404 . S
C5516 C5519 1.539 . S
C5517 C5513 1.408 . S
C5517 C5516 1.404 . S
C5517 H5529 0.930 . S
C5518 C5514 1.524 . S
C5518 H5530 0.956 . S
C5518 H5531 0.961 . S
C5518 H5532 0.961 . S
C5519 C5516 1.539 . S
C5519 H5533 0.958 . S
C5519 H5534 0.961 . S
C5519 H5535 0.960 . S
H5520 C5504 0.931 . S
H5521 C5509 0.929 . S
H5522 C5510 0.960 . S
H5523 C5510 0.962 . S
H5524 C5510 0.960 . S
H5525 C5511 0.961 . S
H5526 C5511 0.961 . S
H5527 C5511 0.961 . S
H5528 C5512 0.931 . S
H5529 C5517 0.930 . S
H5530 C5518 0.956 . S
H5531 C5518 0.961 . S
H5532 C5518 0.961 . S
H5533 C5519 0.958 . S
H5534 C5519 0.961 . S
H5535 C5519 0.960 . S
C5536 C5537 1.391 . S
C5536 C5538 1.394 . S
C5536 H5552 0.931 . S
C5537 C5536 1.391 . S
C5537 C5541 1.376 . S
C5538 C5536 1.394 . S
C5538 C5539 1.369 . S
C5538 C5542 1.531 . S
C5539 C5538 1.369 . S
C5539 C5540 1.410 . S
C5539 C5547 1.503 . S
C5540 C5539 1.410 . S
C5540 C5541 1.392 . S
C5540 C5543 1.511 . S
C5541 C5537 1.376 . S
C5541 C5540 1.392 . S
C5541 H5553 0.929 . S
C5542 C5538 1.531 . S
C5542 H5554 0.960 . S
C5542 H5555 0.962 . S
C5542 H5556 0.960 . S
C5543 C5540 1.511 . S
C5543 H5557 0.961 . S
C5543 H5558 0.961 . S
C5543 H5559 0.961 . S
C5544 C5545 1.370 . S
C5544 C5546 1.363 . S
C5544 H5560 0.931 . S
C5545 C5544 1.370 . S
C5545 C5549 1.408 . S
C5546 C5544 1.363 . S
C5546 C5547 1.370 . S
C5546 C5550 1.524 . S
C5547 C5539 1.503 . S
C5547 C5546 1.370 . S
C5547 C5548 1.403 . S
C5548 C5547 1.403 . S
C5548 C5549 1.404 . S
C5548 C5551 1.539 . S
C5549 C5545 1.408 . S
C5549 C5548 1.404 . S
C5549 H5561 0.930 . S
C5550 C5546 1.524 . S
C5550 H5562 0.956 . S
C5550 H5563 0.961 . S
C5550 H5564 0.961 . S
C5551 C5548 1.539 . S
C5551 H5565 0.958 . S
C5551 H5566 0.961 . S
C5551 H5567 0.960 . S
H5552 C5536 0.931 . S
H5553 C5541 0.929 . S
H5554 C5542 0.960 . S
H5555 C5542 0.962 . S
H5556 C5542 0.960 . S
H5557 C5543 0.961 . S
H5558 C5543 0.961 . S
H5559 C5543 0.961 . S
H5560 C5544 0.931 . S
H5561 C5549 0.930 . S
H5562 C5550 0.956 . S
H5563 C5550 0.961 . S
H5564 C5550 0.961 . S
H5565 C5551 0.958 . S
H5566 C5551 0.961 . S
H5567 C5551 0.960 . S
C5568 C5569 1.391 . S
C5568 C5570 1.394 . S
C5568 H5584 0.931 . S
C5569 C5568 1.391 . S
C5569 C5573 1.376 . S
C5570 C5568 1.394 . S
C5570 C5571 1.369 . S
C5570 C5574 1.531 . S
C5571 C5570 1.369 . S
C5571 C5572 1.410 . S
C5571 C5579 1.503 . S
C5572 C5571 1.410 . S
C5572 C5573 1.392 . S
C5572 C5575 1.511 . S
C5573 C5569 1.376 . S
C5573 C5572 1.392 . S
C5573 H5585 0.929 . S
C5574 C5570 1.531 . S
C5574 H5586 0.960 . S
C5574 H5587 0.962 . S
C5574 H5588 0.960 . S
C5575 C5572 1.511 . S
C5575 H5589 0.961 . S
C5575 H5590 0.961 . S
C5575 H5591 0.961 . S
C5576 C5577 1.370 . S
C5576 C5578 1.363 . S
C5576 H5592 0.931 . S
C5577 C5576 1.370 . S
C5577 C5581 1.408 . S
C5578 C5576 1.363 . S
C5578 C5579 1.370 . S
C5578 C5582 1.524 . S
C5579 C5571 1.503 . S
C5579 C5578 1.370 . S
C5579 C5580 1.403 . S
C5580 C5579 1.403 . S
C5580 C5581 1.404 . S
C5580 C5583 1.539 . S
C5581 C5577 1.408 . S
C5581 C5580 1.404 . S
C5581 H5593 0.930 . S
C5582 C5578 1.524 . S
C5582 H5594 0.956 . S
C5582 H5595 0.961 . S
C5582 H5596 0.961 . S
C5583 C5580 1.539 . S
C5583 H5597 0.958 . S
C5583 H5598 0.961 . S
C5583 H5599 0.960 . S
H5584 C5568 0.931 . S
H5585 C5573 0.929 . S
H5586 C5574 0.960 . S
H5587 C5574 0.962 . S
H5588 C5574 0.960 . S
H5589 C5575 0.961 . S
H5590 C5575 0.961 . S
H5591 C5575 0.961 . S
H5592 C5576 0.931 . S
H5593 C5581 0.930 . S
H5594 C5582 0.956 . S
H5595 C5582 0.961 . S
H5596 C5582 0.961 . S
H5597 C5583 0.958 . S
H5598 C5583 0.961 . S
H5599 C5583 0.960 . S
C5600 C5601 1.333 1_545 S
C5600 C5602 1.398 . S
C5600 H5616 0.986 . S
C5601 C5600 1.333 1_565 S
C5601 C5605 1.376 . S
C5602 C5600 1.398 . S
C5602 C5603 1.369 1_545 S
C5602 C5606 1.531 . S
C5603 C5602 1.369 1_565 S
C5603 C5604 1.410 . S
C5603 C5611 1.503 . S
C5604 C5603 1.410 . S
C5604 C5605 1.392 . S
C5604 C5607 1.511 . S
C5605 C5601 1.376 . S
C5605 C5604 1.392 . S
C5605 H5617 0.929 . S
C5606 C5602 1.531 . S
C5606 H5618 0.960 . S
C5606 H5619 0.962 . S
C5606 H5620 0.960 . S
C5607 C5604 1.511 . S
C5607 H5621 0.961 . S
C5607 H5622 0.961 . S
C5607 H5623 0.961 . S
C5608 C5609 1.370 . S
C5608 C5610 1.359 1_545 S
C5608 H5624 0.931 1_554 S
C5609 C5608 1.370 . S
C5609 C5613 1.408 . S
C5610 C5608 1.359 1_565 S
C5610 C5611 1.412 . S
C5610 C5614 1.487 1_554 S
C5611 C5603 1.503 . S
C5611 C5610 1.412 . S
C5611 C5612 1.403 1_565 S
C5612 C5611 1.403 1_545 S
C5612 C5613 1.404 . S
C5612 C5615 1.543 . S
C5613 C5609 1.408 . S
C5613 C5612 1.404 . S
C5613 H5625 0.930 . S
C5614 C5610 1.487 1_556 S
C5614 H5626 0.956 1_565 S
C5614 H5627 0.961 . S
C5614 H5628 0.961 . S
C5615 C5612 1.543 . S
C5615 H5629 0.990 . S
C5615 H5630 0.944 1_545 S
C5615 H5631 0.942 1_545 S
H5616 C5600 0.986 . S
H5617 C5605 0.929 . S
H5618 C5606 0.960 . S
H5619 C5606 0.962 . S
H5620 C5606 0.960 . S
H5621 C5607 0.961 . S
H5622 C5607 0.961 . S
H5623 C5607 0.961 . S
H5624 C5608 0.931 1_556 S
H5625 C5613 0.930 . S
H5626 C5614 0.956 1_545 S
H5627 C5614 0.961 . S
H5628 C5614 0.961 . S
H5629 C5615 0.990 . S
H5630 C5615 0.944 1_565 S
H5631 C5615 0.942 1_565 S
C5632 C5633 1.391 . S
C5632 C5634 1.394 . S
C5632 H5648 0.931 . S
C5633 C5632 1.391 . S
C5633 C5637 1.376 . S
C5634 C5632 1.394 . S
C5634 C5635 1.369 . S
C5634 C5638 1.531 . S
C5635 C5634 1.369 . S
C5635 C5636 1.410 . S
C5635 C5643 1.503 . S
C5636 C5635 1.410 . S
C5636 C5637 1.392 . S
C5636 C5639 1.511 . S
C5637 C5633 1.376 . S
C5637 C5636 1.392 . S
C5637 H5649 0.929 . S
C5638 C5634 1.531 . S
C5638 H5650 0.960 . S
C5638 H5651 0.962 . S
C5638 H5652 0.960 . S
C5639 C5636 1.511 . S
C5639 H5653 0.961 . S
C5639 H5654 0.961 . S
C5639 H5655 0.961 . S
C5640 C5641 1.370 . S
C5640 C5642 1.363 . S
C5640 H5656 0.931 . S
C5641 C5640 1.370 . S
C5641 C5645 1.408 . S
C5642 C5640 1.363 . S
C5642 C5643 1.370 . S
C5642 C5646 1.524 . S
C5643 C5635 1.503 . S
C5643 C5642 1.370 . S
C5643 C5644 1.403 . S
C5644 C5643 1.403 . S
C5644 C5645 1.404 . S
C5644 C5647 1.539 . S
C5645 C5641 1.408 . S
C5645 C5644 1.404 . S
C5645 H5657 0.930 . S
C5646 C5642 1.524 . S
C5646 H5658 0.956 . S
C5646 H5659 0.961 . S
C5646 H5660 0.961 . S
C5647 C5644 1.539 . S
C5647 H5661 0.958 . S
C5647 H5662 0.961 . S
C5647 H5663 0.960 . S
H5648 C5632 0.931 . S
H5649 C5637 0.929 . S
H5650 C5638 0.960 . S
H5651 C5638 0.962 . S
H5652 C5638 0.960 . S
H5653 C5639 0.961 . S
H5654 C5639 0.961 . S
H5655 C5639 0.961 . S
H5656 C5640 0.931 . S
H5657 C5645 0.930 . S
H5658 C5646 0.956 . S
H5659 C5646 0.961 . S
H5660 C5646 0.961 . S
H5661 C5647 0.958 . S
H5662 C5647 0.961 . S
H5663 C5647 0.960 . S
C5664 C5665 1.398 . S
C5664 C5666 1.395 . S
C5664 H5680 0.923 1_554 S
C5665 C5664 1.398 . S
C5665 C5669 1.376 . S
C5666 C5664 1.395 . S
C5666 C5667 1.369 . S
C5666 C5670 1.531 1_554 S
C5667 C5666 1.369 . S
C5667 C5668 1.410 . S
C5667 C5675 1.503 . S
C5668 C5667 1.410 . S
C5668 C5669 1.392 . S
C5668 C5671 1.511 . S
C5669 C5665 1.376 . S
C5669 C5668 1.392 . S
C5669 H5681 0.929 . S
C5670 C5666 1.531 1_556 S
C5670 H5682 0.960 . S
C5670 H5683 0.962 1_556 S
C5670 H5684 0.960 . S
C5671 C5668 1.511 . S
C5671 H5685 0.961 . S
C5671 H5686 0.961 . S
C5671 H5687 0.961 . S
C5672 C5673 1.370 . S
C5672 C5674 1.363 . S
C5672 H5688 0.931 . S
C5673 C5672 1.370 . S
C5673 C5677 1.408 . S
C5674 C5672 1.363 . S
C5674 C5675 1.370 . S
C5674 C5678 1.524 . S
C5675 C5667 1.503 . S
C5675 C5674 1.370 . S
C5675 C5676 1.403 . S
C5676 C5675 1.403 . S
C5676 C5677 1.404 . S
C5676 C5679 1.539 1_554 S
C5677 C5673 1.408 . S
C5677 C5676 1.404 . S
C5677 H5689 0.972 . S
C5678 C5674 1.524 . S
C5678 H5690 0.956 . S
C5678 H5691 0.961 . S
C5678 H5692 0.961 . S
C5679 C5676 1.539 1_556 S
C5679 H5693 0.958 . S
C5679 H5694 0.961 . S
C5679 H5695 0.960 . S
H5680 C5664 0.923 1_556 S
H5681 C5669 0.929 . S
H5682 C5670 0.960 . S
H5683 C5670 0.962 1_554 S
H5684 C5670 0.960 . S
H5685 C5671 0.961 . S
H5686 C5671 0.961 . S
H5687 C5671 0.961 . S
H5688 C5672 0.931 . S
H5689 C5677 0.972 . S
H5690 C5678 0.956 . S
H5691 C5678 0.961 . S
H5692 C5678 0.961 . S
H5693 C5679 0.958 . S
H5694 C5679 0.961 . S
H5695 C5679 0.960 . S
C5696 C5697 1.391 . S
C5696 C5698 1.394 . S
C5696 H5712 0.931 . S
C5697 C5696 1.391 . S
C5697 C5701 1.376 . S
C5698 C5696 1.394 . S
C5698 C5699 1.369 . S
C5698 C5702 1.531 . S
C5699 C5698 1.369 . S
C5699 C5700 1.410 . S
C5699 C5707 1.503 . S
C5700 C5699 1.410 . S
C5700 C5701 1.392 . S
C5700 C5703 1.511 . S
C5701 C5697 1.376 . S
C5701 C5700 1.392 . S
C5701 H5713 0.929 . S
C5702 C5698 1.531 . S
C5702 H5714 0.960 . S
C5702 H5715 0.962 . S
C5702 H5716 0.960 . S
C5703 C5700 1.511 . S
C5703 H5717 0.961 . S
C5703 H5718 0.961 . S
C5703 H5719 0.961 . S
C5704 C5705 1.370 . S
C5704 C5706 1.363 . S
C5704 H5720 0.931 . S
C5705 C5704 1.370 . S
C5705 C5709 1.408 . S
C5706 C5704 1.363 . S
C5706 C5707 1.370 . S
C5706 C5710 1.524 . S
C5707 C5699 1.503 . S
C5707 C5706 1.370 . S
C5707 C5708 1.403 . S
C5708 C5707 1.403 . S
C5708 C5709 1.404 . S
C5708 C5711 1.539 . S
C5709 C5705 1.408 . S
C5709 C5708 1.404 . S
C5709 H5721 0.930 . S
C5710 C5706 1.524 . S
C5710 H5722 0.956 . S
C5710 H5723 0.961 . S
C5710 H5724 0.961 . S
C5711 C5708 1.539 . S
C5711 H5725 0.958 . S
C5711 H5726 0.961 . S
C5711 H5727 0.960 . S
H5712 C5696 0.931 . S
H5713 C5701 0.929 . S
H5714 C5702 0.960 . S
H5715 C5702 0.962 . S
H5716 C5702 0.960 . S
H5717 C5703 0.961 . S
H5718 C5703 0.961 . S
H5719 C5703 0.961 . S
H5720 C5704 0.931 . S
H5721 C5709 0.930 . S
H5722 C5710 0.956 . S
H5723 C5710 0.961 . S
H5724 C5710 0.961 . S
H5725 C5711 0.958 . S
H5726 C5711 0.961 . S
H5727 C5711 0.960 . S
C5728 C5729 1.391 . S
C5728 C5730 1.394 . S
C5728 H5744 0.931 . S
C5729 C5728 1.391 . S
C5729 C5733 1.376 . S
C5730 C5728 1.394 . S
C5730 C5731 1.369 . S
C5730 C5734 1.531 . S
C5731 C5730 1.369 . S
C5731 C5732 1.410 . S
C5731 C5739 1.503 . S
C5732 C5731 1.410 . S
C5732 C5733 1.392 . S
C5732 C5735 1.511 . S
C5733 C5729 1.376 . S
C5733 C5732 1.392 . S
C5733 H5745 0.929 . S
C5734 C5730 1.531 . S
C5734 H5746 0.960 . S
C5734 H5747 0.962 . S
C5734 H5748 0.960 . S
C5735 C5732 1.511 . S
C5735 H5749 0.961 . S
C5735 H5750 0.961 . S
C5735 H5751 0.961 . S
C5736 C5737 1.370 . S
C5736 C5738 1.363 . S
C5736 H5752 0.931 . S
C5737 C5736 1.370 . S
C5737 C5741 1.408 . S
C5738 C5736 1.363 . S
C5738 C5739 1.370 . S
C5738 C5742 1.524 . S
C5739 C5731 1.503 . S
C5739 C5738 1.370 . S
C5739 C5740 1.403 . S
C5740 C5739 1.403 . S
C5740 C5741 1.404 . S
C5740 C5743 1.539 . S
C5741 C5737 1.408 . S
C5741 C5740 1.404 . S
C5741 H5753 0.930 . S
C5742 C5738 1.524 . S
C5742 H5754 0.956 . S
C5742 H5755 0.961 . S
C5742 H5756 0.961 . S
C5743 C5740 1.539 . S
C5743 H5757 0.958 . S
C5743 H5758 0.961 . S
C5743 H5759 0.960 . S
H5744 C5728 0.931 . S
H5745 C5733 0.929 . S
H5746 C5734 0.960 . S
H5747 C5734 0.962 . S
H5748 C5734 0.960 . S
H5749 C5735 0.961 . S
H5750 C5735 0.961 . S
H5751 C5735 0.961 . S
H5752 C5736 0.931 . S
H5753 C5741 0.930 . S
H5754 C5742 0.956 . S
H5755 C5742 0.961 . S
H5756 C5742 0.961 . S
H5757 C5743 0.958 . S
H5758 C5743 0.961 . S
H5759 C5743 0.960 . S
C5760 C5761 1.391 . S
C5760 C5762 1.394 . S
C5760 H5776 0.931 . S
C5761 C5760 1.391 . S
C5761 C5765 1.376 . S
C5762 C5760 1.394 . S
C5762 C5763 1.369 . S
C5762 C5766 1.531 . S
C5763 C5762 1.369 . S
C5763 C5764 1.410 . S
C5763 C5771 1.503 . S
C5764 C5763 1.410 . S
C5764 C5765 1.392 . S
C5764 C5767 1.511 . S
C5765 C5761 1.376 . S
C5765 C5764 1.392 . S
C5765 H5777 0.929 . S
C5766 C5762 1.531 . S
C5766 H5778 0.960 . S
C5766 H5779 0.962 . S
C5766 H5780 0.960 . S
C5767 C5764 1.511 . S
C5767 H5781 0.961 . S
C5767 H5782 0.961 . S
C5767 H5783 0.961 . S
C5768 C5769 1.370 . S
C5768 C5770 1.363 . S
C5768 H5784 0.931 . S
C5769 C5768 1.370 . S
C5769 C5773 1.408 . S
C5770 C5768 1.363 . S
C5770 C5771 1.370 . S
C5770 C5774 1.524 . S
C5771 C5763 1.503 . S
C5771 C5770 1.370 . S
C5771 C5772 1.403 . S
C5772 C5771 1.403 . S
C5772 C5773 1.404 . S
C5772 C5775 1.539 . S
C5773 C5769 1.408 . S
C5773 C5772 1.404 . S
C5773 H5785 0.930 . S
C5774 C5770 1.524 . S
C5774 H5786 0.956 . S
C5774 H5787 0.961 . S
C5774 H5788 0.961 . S
C5775 C5772 1.539 . S
C5775 H5789 0.958 . S
C5775 H5790 0.961 . S
C5775 H5791 0.960 . S
H5776 C5760 0.931 . S
H5777 C5765 0.929 . S
H5778 C5766 0.960 . S
H5779 C5766 0.962 . S
H5780 C5766 0.960 . S
H5781 C5767 0.961 . S
H5782 C5767 0.961 . S
H5783 C5767 0.961 . S
H5784 C5768 0.931 . S
H5785 C5773 0.930 . S
H5786 C5774 0.956 . S
H5787 C5774 0.961 . S
H5788 C5774 0.961 . S
H5789 C5775 0.958 . S
H5790 C5775 0.961 . S
H5791 C5775 0.960 . S
C5792 C5793 1.391 . S
C5792 C5794 1.394 . S
C5792 H5808 0.931 . S
C5793 C5792 1.391 . S
C5793 C5797 1.376 . S
C5794 C5792 1.394 . S
C5794 C5795 1.369 . S
C5794 C5798 1.531 . S
C5795 C5794 1.369 . S
C5795 C5796 1.410 . S
C5795 C5803 1.503 . S
C5796 C5795 1.410 . S
C5796 C5797 1.392 . S
C5796 C5799 1.511 . S
C5797 C5793 1.376 . S
C5797 C5796 1.392 . S
C5797 H5809 0.929 . S
C5798 C5794 1.531 . S
C5798 H5810 0.960 . S
C5798 H5811 0.962 . S
C5798 H5812 0.960 . S
C5799 C5796 1.511 . S
C5799 H5813 0.961 . S
C5799 H5814 0.961 . S
C5799 H5815 0.961 . S
C5800 C5801 1.370 . S
C5800 C5802 1.363 . S
C5800 H5816 0.931 . S
C5801 C5800 1.370 . S
C5801 C5805 1.408 . S
C5802 C5800 1.363 . S
C5802 C5803 1.370 . S
C5802 C5806 1.524 . S
C5803 C5795 1.503 . S
C5803 C5802 1.370 . S
C5803 C5804 1.403 . S
C5804 C5803 1.403 . S
C5804 C5805 1.404 . S
C5804 C5807 1.539 . S
C5805 C5801 1.408 . S
C5805 C5804 1.404 . S
C5805 H5817 0.930 . S
C5806 C5802 1.524 . S
C5806 H5818 0.956 . S
C5806 H5819 0.961 . S
C5806 H5820 0.961 . S
C5807 C5804 1.539 . S
C5807 H5821 0.958 . S
C5807 H5822 0.961 . S
C5807 H5823 0.960 . S
H5808 C5792 0.931 . S
H5809 C5797 0.929 . S
H5810 C5798 0.960 . S
H5811 C5798 0.962 . S
H5812 C5798 0.960 . S
H5813 C5799 0.961 . S
H5814 C5799 0.961 . S
H5815 C5799 0.961 . S
H5816 C5800 0.931 . S
H5817 C5805 0.930 . S
H5818 C5806 0.956 . S
H5819 C5806 0.961 . S
H5820 C5806 0.961 . S
H5821 C5807 0.958 . S
H5822 C5807 0.961 . S
H5823 C5807 0.960 . S
C5824 C5825 1.391 . S
C5824 C5826 1.394 . S
C5824 H5840 0.931 . S
C5825 C5824 1.391 . S
C5825 C5829 1.376 . S
C5826 C5824 1.394 . S
C5826 C5827 1.369 . S
C5826 C5830 1.531 . S
C5827 C5826 1.369 . S
C5827 C5828 1.410 . S
C5827 C5835 1.503 . S
C5828 C5827 1.410 . S
C5828 C5829 1.392 . S
C5828 C5831 1.511 . S
C5829 C5825 1.376 . S
C5829 C5828 1.392 . S
C5829 H5841 0.929 . S
C5830 C5826 1.531 . S
C5830 H5842 0.960 . S
C5830 H5843 0.962 1_455 S
C5830 H5844 0.960 1_455 S
C5831 C5828 1.511 . S
C5831 H5845 0.961 . S
C5831 H5846 0.961 . S
C5831 H5847 0.961 . S
C5832 C5833 1.370 . S
C5832 C5834 1.363 . S
C5832 H5848 0.931 . S
C5833 C5832 1.370 . S
C5833 C5837 1.408 . S
C5834 C5832 1.363 . S
C5834 C5835 1.370 . S
C5834 C5838 1.524 . S
C5835 C5827 1.503 . S
C5835 C5834 1.370 . S
C5835 C5836 1.403 . S
C5836 C5835 1.403 . S
C5836 C5837 1.404 . S
C5836 C5839 1.539 . S
C5837 C5833 1.408 . S
C5837 C5836 1.404 . S
C5837 H5849 0.930 . S
C5838 C5834 1.524 . S
C5838 H5850 0.956 . S
C5838 H5851 0.961 . S
C5838 H5852 0.961 . S
C5839 C5836 1.539 . S
C5839 H5853 0.958 1_554 S
C5839 H5854 0.961 1_554 S
C5839 H5855 0.960 . S
H5840 C5824 0.931 . S
H5841 C5829 0.929 . S
H5842 C5830 0.960 . S
H5843 C5830 0.962 1_655 S
H5844 C5830 0.960 1_655 S
H5845 C5831 0.961 . S
H5846 C5831 0.961 . S
H5847 C5831 0.961 . S
H5848 C5832 0.931 . S
H5849 C5837 0.930 . S
H5850 C5838 0.956 . S
H5851 C5838 0.961 . S
H5852 C5838 0.961 . S
H5853 C5839 0.958 1_556 S
H5854 C5839 0.961 1_556 S
H5855 C5839 0.960 . S
C5856 C5857 1.391 . S
C5856 C5858 1.394 . S
C5856 H5872 0.931 . S
C5857 C5856 1.391 . S
C5857 C5861 1.376 . S
C5858 C5856 1.394 . S
C5858 C5859 1.369 . S
C5858 C5862 1.531 . S
C5859 C5858 1.369 . S
C5859 C5860 1.410 . S
C5859 C5867 1.503 . S
C5860 C5859 1.410 . S
C5860 C5861 1.392 . S
C5860 C5863 1.511 . S
C5861 C5857 1.376 . S
C5861 C5860 1.392 . S
C5861 H5873 0.929 . S
C5862 C5858 1.531 . S
C5862 H5874 0.960 . S
C5862 H5875 0.962 . S
C5862 H5876 0.960 . S
C5863 C5860 1.511 . S
C5863 H5877 0.961 . S
C5863 H5878 0.961 . S
C5863 H5879 0.961 . S
C5864 C5865 1.370 . S
C5864 C5866 1.363 . S
C5864 H5880 0.931 . S
C5865 C5864 1.370 . S
C5865 C5869 1.408 . S
C5866 C5864 1.363 . S
C5866 C5867 1.370 . S
C5866 C5870 1.524 . S
C5867 C5859 1.503 . S
C5867 C5866 1.370 . S
C5867 C5868 1.403 . S
C5868 C5867 1.403 . S
C5868 C5869 1.404 . S
C5868 C5871 1.539 . S
C5869 C5865 1.408 . S
C5869 C5868 1.404 . S
C5869 H5881 0.930 . S
C5870 C5866 1.524 . S
C5870 H5882 0.956 . S
C5870 H5883 0.961 . S
C5870 H5884 0.961 . S
C5871 C5868 1.539 . S
C5871 H5885 0.958 . S
C5871 H5886 0.961 . S
C5871 H5887 0.960 . S
H5872 C5856 0.931 . S
H5873 C5861 0.929 . S
H5874 C5862 0.960 . S
H5875 C5862 0.962 . S
H5876 C5862 0.960 . S
H5877 C5863 0.961 . S
H5878 C5863 0.961 . S
H5879 C5863 0.961 . S
H5880 C5864 0.931 . S
H5881 C5869 0.930 . S
H5882 C5870 0.956 . S
H5883 C5870 0.961 . S
H5884 C5870 0.961 . S
H5885 C5871 0.958 . S
H5886 C5871 0.961 . S
H5887 C5871 0.960 . S
C5888 C5889 1.391 . S
C5888 C5890 1.394 . S
C5888 H5904 0.931 . S
C5889 C5888 1.391 . S
C5889 C5893 1.376 . S
C5890 C5888 1.394 . S
C5890 C5891 1.369 . S
C5890 C5894 1.531 . S
C5891 C5890 1.369 . S
C5891 C5892 1.410 . S
C5891 C5899 1.503 . S
C5892 C5891 1.410 . S
C5892 C5893 1.392 . S
C5892 C5895 1.511 . S
C5893 C5889 1.376 . S
C5893 C5892 1.392 . S
C5893 H5905 0.929 . S
C5894 C5890 1.531 . S
C5894 H5906 0.960 . S
C5894 H5907 0.962 . S
C5894 H5908 0.960 . S
C5895 C5892 1.511 . S
C5895 H5909 0.961 . S
C5895 H5910 0.961 . S
C5895 H5911 0.961 . S
C5896 C5897 1.370 . S
C5896 C5898 1.363 . S
C5896 H5912 0.931 . S
C5897 C5896 1.370 . S
C5897 C5901 1.408 . S
C5898 C5896 1.363 . S
C5898 C5899 1.370 . S
C5898 C5902 1.524 . S
C5899 C5891 1.503 . S
C5899 C5898 1.370 . S
C5899 C5900 1.403 . S
C5900 C5899 1.403 . S
C5900 C5901 1.404 . S
C5900 C5903 1.539 . S
C5901 C5897 1.408 . S
C5901 C5900 1.404 . S
C5901 H5913 0.930 . S
C5902 C5898 1.524 . S
C5902 H5914 0.956 . S
C5902 H5915 0.961 . S
C5902 H5916 0.961 . S
C5903 C5900 1.539 . S
C5903 H5917 0.958 . S
C5903 H5918 0.961 . S
C5903 H5919 0.960 . S
H5904 C5888 0.931 . S
H5905 C5893 0.929 . S
H5906 C5894 0.960 . S
H5907 C5894 0.962 . S
H5908 C5894 0.960 . S
H5909 C5895 0.961 . S
H5910 C5895 0.961 . S
H5911 C5895 0.961 . S
H5912 C5896 0.931 . S
H5913 C5901 0.930 . S
H5914 C5902 0.956 . S
H5915 C5902 0.961 . S
H5916 C5902 0.961 . S
H5917 C5903 0.958 . S
H5918 C5903 0.961 . S
H5919 C5903 0.960 . S
C5920 C5921 1.391 . S
C5920 C5922 1.394 . S
C5920 H5936 0.931 . S
C5921 C5920 1.391 . S
C5921 C5925 1.376 . S
C5922 C5920 1.394 . S
C5922 C5923 1.369 . S
C5922 C5926 1.531 . S
C5923 C5922 1.369 . S
C5923 C5924 1.410 . S
C5923 C5931 1.503 . S
C5924 C5923 1.410 . S
C5924 C5925 1.392 . S
C5924 C5927 1.511 . S
C5925 C5921 1.376 . S
C5925 C5924 1.392 . S
C5925 H5937 0.929 . S
C5926 C5922 1.531 . S
C5926 H5938 0.960 . S
C5926 H5939 0.962 . S
C5926 H5940 0.960 . S
C5927 C5924 1.511 . S
C5927 H5941 0.961 . S
C5927 H5942 0.961 . S
C5927 H5943 0.961 . S
C5928 C5929 1.370 . S
C5928 C5930 1.363 . S
C5928 H5944 0.931 . S
C5929 C5928 1.370 . S
C5929 C5933 1.408 . S
C5930 C5928 1.363 . S
C5930 C5931 1.370 . S
C5930 C5934 1.524 . S
C5931 C5923 1.503 . S
C5931 C5930 1.370 . S
C5931 C5932 1.403 . S
C5932 C5931 1.403 . S
C5932 C5933 1.404 . S
C5932 C5935 1.539 . S
C5933 C5929 1.408 . S
C5933 C5932 1.404 . S
C5933 H5945 0.930 . S
C5934 C5930 1.524 . S
C5934 H5946 0.956 . S
C5934 H5947 0.961 . S
C5934 H5948 0.961 . S
C5935 C5932 1.539 . S
C5935 H5949 0.958 . S
C5935 H5950 0.961 . S
C5935 H5951 0.960 . S
H5936 C5920 0.931 . S
H5937 C5925 0.929 . S
H5938 C5926 0.960 . S
H5939 C5926 0.962 . S
H5940 C5926 0.960 . S
H5941 C5927 0.961 . S
H5942 C5927 0.961 . S
H5943 C5927 0.961 . S
H5944 C5928 0.931 . S
H5945 C5933 0.930 . S
H5946 C5934 0.956 . S
H5947 C5934 0.961 . S
H5948 C5934 0.961 . S
H5949 C5935 0.958 . S
H5950 C5935 0.961 . S
H5951 C5935 0.960 . S
C5952 C5953 1.391 . S
C5952 C5954 1.394 . S
C5952 H5968 0.931 . S
C5953 C5952 1.391 . S
C5953 C5957 1.376 . S
C5954 C5952 1.394 . S
C5954 C5955 1.369 . S
C5954 C5958 1.531 . S
C5955 C5954 1.369 . S
C5955 C5956 1.410 . S
C5955 C5963 1.503 . S
C5956 C5955 1.410 . S
C5956 C5957 1.392 . S
C5956 C5959 1.511 . S
C5957 C5953 1.376 . S
C5957 C5956 1.392 . S
C5957 H5969 0.929 . S
C5958 C5954 1.531 . S
C5958 H5970 0.960 . S
C5958 H5971 0.962 . S
C5958 H5972 0.960 . S
C5959 C5956 1.511 . S
C5959 H5973 0.961 . S
C5959 H5974 0.961 . S
C5959 H5975 0.961 . S
C5960 C5961 1.370 . S
C5960 C5962 1.363 . S
C5960 H5976 0.931 . S
C5961 C5960 1.370 . S
C5961 C5965 1.408 . S
C5962 C5960 1.363 . S
C5962 C5963 1.370 . S
C5962 C5966 1.524 . S
C5963 C5955 1.503 . S
C5963 C5962 1.370 . S
C5963 C5964 1.403 . S
C5964 C5963 1.403 . S
C5964 C5965 1.404 . S
C5964 C5967 1.541 1_455 S
C5965 C5961 1.408 . S
C5965 C5964 1.404 . S
C5965 H5977 0.930 . S
C5966 C5962 1.524 . S
C5966 H5978 0.956 . S
C5966 H5979 0.961 . S
C5966 H5980 0.961 . S
C5967 C5964 1.541 1_655 S
C5967 H5981 0.957 . S
C5967 H5982 0.960 . S
C5967 H5983 0.961 1_655 S
H5968 C5952 0.931 . S
H5969 C5957 0.929 . S
H5970 C5958 0.960 . S
H5971 C5958 0.962 . S
H5972 C5958 0.960 . S
H5973 C5959 0.961 . S
H5974 C5959 0.961 . S
H5975 C5959 0.961 . S
H5976 C5960 0.931 . S
H5977 C5965 0.930 . S
H5978 C5966 0.956 . S
H5979 C5966 0.961 . S
H5980 C5966 0.961 . S
H5981 C5967 0.957 . S
H5982 C5967 0.960 . S
H5983 C5967 0.961 1_455 S
C5984 C5985 1.391 . S
C5984 C5986 1.394 . S
C5984 H6000 0.931 . S
C5985 C5984 1.391 . S
C5985 C5989 1.376 . S
C5986 C5984 1.394 . S
C5986 C5987 1.369 . S
C5986 C5990 1.531 . S
C5987 C5986 1.369 . S
C5987 C5988 1.410 . S
C5987 C5995 1.503 . S
C5988 C5987 1.410 . S
C5988 C5989 1.392 . S
C5988 C5991 1.511 . S
C5989 C5985 1.376 . S
C5989 C5988 1.392 . S
C5989 H6001 0.929 . S
C5990 C5986 1.531 . S
C5990 H6002 0.960 . S
C5990 H6003 0.962 . S
C5990 H6004 0.960 . S
C5991 C5988 1.511 . S
C5991 H6005 0.961 . S
C5991 H6006 0.961 . S
C5991 H6007 0.961 . S
C5992 C5993 1.370 . S
C5992 C5994 1.363 . S
C5992 H6008 0.931 . S
C5993 C5992 1.370 . S
C5993 C5997 1.408 . S
C5994 C5992 1.363 . S
C5994 C5995 1.370 . S
C5994 C5998 1.524 . S
C5995 C5987 1.503 . S
C5995 C5994 1.370 . S
C5995 C5996 1.403 . S
C5996 C5995 1.403 . S
C5996 C5997 1.404 . S
C5996 C5999 1.539 . S
C5997 C5993 1.408 . S
C5997 C5996 1.404 . S
C5997 H6009 0.930 . S
C5998 C5994 1.524 . S
C5998 H6010 0.956 . S
C5998 H6011 0.961 . S
C5998 H6012 0.961 . S
C5999 C5996 1.539 . S
C5999 H6013 0.958 . S
C5999 H6014 0.961 . S
C5999 H6015 0.960 . S
H6000 C5984 0.931 . S
H6001 C5989 0.929 . S
H6002 C5990 0.960 . S
H6003 C5990 0.962 . S
H6004 C5990 0.960 . S
H6005 C5991 0.961 . S
H6006 C5991 0.961 . S
H6007 C5991 0.961 . S
H6008 C5992 0.931 . S
H6009 C5997 0.930 . S
H6010 C5998 0.956 . S
H6011 C5998 0.961 . S
H6012 C5998 0.961 . S
H6013 C5999 0.958 . S
H6014 C5999 0.961 . S
H6015 C5999 0.960 . S
C6016 C6017 1.391 . S
C6016 C6018 1.394 . S
C6016 H6032 0.931 . S
C6017 C6016 1.391 . S
C6017 C6021 1.376 . S
C6018 C6016 1.394 . S
C6018 C6019 1.369 . S
C6018 C6022 1.531 . S
C6019 C6018 1.369 . S
C6019 C6020 1.410 . S
C6019 C6027 1.503 . S
C6020 C6019 1.410 . S
C6020 C6021 1.392 . S
C6020 C6023 1.511 . S
C6021 C6017 1.376 . S
C6021 C6020 1.392 . S
C6021 H6033 0.929 . S
C6022 C6018 1.531 . S
C6022 H6034 0.960 . S
C6022 H6035 0.962 . S
C6022 H6036 0.960 . S
C6023 C6020 1.511 . S
C6023 H6037 0.961 . S
C6023 H6038 0.961 . S
C6023 H6039 0.961 . S
C6024 C6025 1.370 . S
C6024 C6026 1.363 . S
C6024 H6040 0.931 . S
C6025 C6024 1.370 . S
C6025 C6029 1.408 . S
C6026 C6024 1.363 . S
C6026 C6027 1.370 . S
C6026 C6030 1.524 . S
C6027 C6019 1.503 . S
C6027 C6026 1.370 . S
C6027 C6028 1.403 . S
C6028 C6027 1.403 . S
C6028 C6029 1.404 . S
C6028 C6031 1.539 . S
C6029 C6025 1.408 . S
C6029 C6028 1.404 . S
C6029 H6041 0.930 . S
C6030 C6026 1.524 . S
C6030 H6042 0.956 . S
C6030 H6043 0.961 . S
C6030 H6044 0.961 . S
C6031 C6028 1.539 . S
C6031 H6045 0.958 . S
C6031 H6046 0.961 . S
C6031 H6047 0.960 . S
H6032 C6016 0.931 . S
H6033 C6021 0.929 . S
H6034 C6022 0.960 . S
H6035 C6022 0.962 . S
H6036 C6022 0.960 . S
H6037 C6023 0.961 . S
H6038 C6023 0.961 . S
H6039 C6023 0.961 . S
H6040 C6024 0.931 . S
H6041 C6029 0.930 . S
H6042 C6030 0.956 . S
H6043 C6030 0.961 . S
H6044 C6030 0.961 . S
H6045 C6031 0.958 . S
H6046 C6031 0.961 . S
H6047 C6031 0.960 . S
C6048 C6049 1.391 . S
C6048 C6050 1.394 . S
C6048 H6064 0.931 . S
C6049 C6048 1.391 . S
C6049 C6053 1.376 . S
C6050 C6048 1.394 . S
C6050 C6051 1.369 . S
C6050 C6054 1.531 . S
C6051 C6050 1.369 . S
C6051 C6052 1.410 . S
C6051 C6059 1.503 . S
C6052 C6051 1.410 . S
C6052 C6053 1.392 . S
C6052 C6055 1.511 . S
C6053 C6049 1.376 . S
C6053 C6052 1.392 . S
C6053 H6065 0.929 . S
C6054 C6050 1.531 . S
C6054 H6066 0.960 . S
C6054 H6067 0.962 . S
C6054 H6068 0.960 . S
C6055 C6052 1.511 . S
C6055 H6069 0.961 . S
C6055 H6070 0.961 . S
C6055 H6071 0.961 . S
C6056 C6057 1.370 . S
C6056 C6058 1.363 . S
C6056 H6072 0.931 . S
C6057 C6056 1.370 . S
C6057 C6061 1.408 . S
C6058 C6056 1.363 . S
C6058 C6059 1.370 . S
C6058 C6062 1.524 . S
C6059 C6051 1.503 . S
C6059 C6058 1.370 . S
C6059 C6060 1.403 . S
C6060 C6059 1.403 . S
C6060 C6061 1.404 . S
C6060 C6063 1.539 . S
C6061 C6057 1.408 . S
C6061 C6060 1.404 . S
C6061 H6073 0.930 . S
C6062 C6058 1.524 . S
C6062 H6074 0.956 . S
C6062 H6075 0.961 . S
C6062 H6076 0.961 . S
C6063 C6060 1.539 . S
C6063 H6077 0.958 . S
C6063 H6078 0.961 . S
C6063 H6079 0.960 . S
H6064 C6048 0.931 . S
H6065 C6053 0.929 . S
H6066 C6054 0.960 . S
H6067 C6054 0.962 . S
H6068 C6054 0.960 . S
H6069 C6055 0.961 . S
H6070 C6055 0.961 . S
H6071 C6055 0.961 . S
H6072 C6056 0.931 . S
H6073 C6061 0.930 . S
H6074 C6062 0.956 . S
H6075 C6062 0.961 . S
H6076 C6062 0.961 . S
H6077 C6063 0.958 . S
H6078 C6063 0.961 . S
H6079 C6063 0.960 . S
C6080 C6081 1.391 . S
C6080 C6082 1.394 . S
C6080 H6096 0.931 . S
C6081 C6080 1.391 . S
C6081 C6085 1.376 . S
C6082 C6080 1.394 . S
C6082 C6083 1.369 . S
C6082 C6086 1.531 . S
C6083 C6082 1.369 . S
C6083 C6084 1.410 . S
C6083 C6091 1.503 . S
C6084 C6083 1.410 . S
C6084 C6085 1.392 . S
C6084 C6087 1.511 . S
C6085 C6081 1.376 . S
C6085 C6084 1.392 . S
C6085 H6097 0.929 . S
C6086 C6082 1.531 . S
C6086 H6098 0.960 . S
C6086 H6099 0.962 . S
C6086 H6100 0.960 . S
C6087 C6084 1.511 . S
C6087 H6101 0.961 . S
C6087 H6102 0.961 . S
C6087 H6103 0.961 . S
C6088 C6089 1.370 1_455 S
C6088 C6090 1.363 1_455 S
C6088 H6104 0.931 . S
C6089 C6088 1.370 1_655 S
C6089 C6093 1.408 . S
C6090 C6088 1.363 1_655 S
C6090 C6091 1.370 . S
C6090 C6094 1.524 . S
C6091 C6083 1.503 . S
C6091 C6090 1.370 . S
C6091 C6092 1.403 . S
C6092 C6091 1.403 . S
C6092 C6093 1.404 . S
C6092 C6095 1.539 . S
C6093 C6089 1.408 . S
C6093 C6092 1.404 . S
C6093 H6105 0.930 . S
C6094 C6090 1.524 . S
C6094 H6106 0.956 . S
C6094 H6107 0.961 . S
C6094 H6108 0.961 1_655 S
C6095 C6092 1.539 . S
C6095 H6109 0.958 . S
C6095 H6110 0.961 . S
C6095 H6111 0.960 . S
H6096 C6080 0.931 . S
H6097 C6085 0.929 . S
H6098 C6086 0.960 . S
H6099 C6086 0.962 . S
H6100 C6086 0.960 . S
H6101 C6087 0.961 . S
H6102 C6087 0.961 . S
H6103 C6087 0.961 . S
H6104 C6088 0.931 . S
H6105 C6093 0.930 . S
H6106 C6094 0.956 . S
H6107 C6094 0.961 . S
H6108 C6094 0.961 1_455 S
H6109 C6095 0.958 . S
H6110 C6095 0.961 . S
H6111 C6095 0.960 . S
C6112 C6113 1.391 . S
C6112 C6114 1.394 . S
C6112 H6128 0.931 . S
C6113 C6112 1.391 . S
C6113 C6117 1.376 . S
C6114 C6112 1.394 . S
C6114 C6115 1.369 . S
C6114 C6118 1.531 . S
C6115 C6114 1.369 . S
C6115 C6116 1.410 . S
C6115 C6123 1.503 . S
C6116 C6115 1.410 . S
C6116 C6117 1.392 . S
C6116 C6119 1.511 . S
C6117 C6113 1.376 . S
C6117 C6116 1.392 . S
C6117 H6129 0.929 . S
C6118 C6114 1.531 . S
C6118 H6130 0.960 . S
C6118 H6131 0.962 . S
C6118 H6132 0.960 . S
C6119 C6116 1.511 . S
C6119 H6133 0.961 . S
C6119 H6134 0.961 . S
C6119 H6135 0.961 . S
C6120 C6121 1.370 . S
C6120 C6122 1.363 . S
C6120 H6136 0.931 . S
C6121 C6120 1.370 . S
C6121 C6125 1.408 . S
C6122 C6120 1.363 . S
C6122 C6123 1.370 . S
C6122 C6126 1.524 . S
C6123 C6115 1.503 . S
C6123 C6122 1.370 . S
C6123 C6124 1.403 . S
C6124 C6123 1.403 . S
C6124 C6125 1.404 . S
C6124 C6127 1.539 . S
C6125 C6121 1.408 . S
C6125 C6124 1.404 . S
C6125 H6137 0.930 . S
C6126 C6122 1.524 . S
C6126 H6138 0.956 . S
C6126 H6139 0.961 . S
C6126 H6140 0.961 . S
C6127 C6124 1.539 . S
C6127 H6141 0.958 . S
C6127 H6142 0.961 . S
C6127 H6143 0.960 . S
H6128 C6112 0.931 . S
H6129 C6117 0.929 . S
H6130 C6118 0.960 . S
H6131 C6118 0.962 . S
H6132 C6118 0.960 . S
H6133 C6119 0.961 . S
H6134 C6119 0.961 . S
H6135 C6119 0.961 . S
H6136 C6120 0.931 . S
H6137 C6125 0.930 . S
H6138 C6126 0.956 . S
H6139 C6126 0.961 . S
H6140 C6126 0.961 . S
H6141 C6127 0.958 . S
H6142 C6127 0.961 . S
H6143 C6127 0.960 . S
C6144 C6145 1.391 . S
C6144 C6146 1.394 . S
C6144 H6160 0.931 . S
C6145 C6144 1.391 . S
C6145 C6149 1.376 . S
C6146 C6144 1.394 . S
C6146 C6147 1.369 . S
C6146 C6150 1.531 . S
C6147 C6146 1.369 . S
C6147 C6148 1.410 . S
C6147 C6155 1.503 . S
C6148 C6147 1.410 . S
C6148 C6149 1.392 . S
C6148 C6151 1.511 . S
C6149 C6145 1.376 . S
C6149 C6148 1.392 . S
C6149 H6161 0.929 . S
C6150 C6146 1.531 . S
C6150 H6162 0.960 . S
C6150 H6163 0.962 . S
C6150 H6164 0.960 . S
C6151 C6148 1.511 . S
C6151 H6165 0.961 . S
C6151 H6166 0.961 . S
C6151 H6167 0.961 . S
C6152 C6153 1.370 . S
C6152 C6154 1.363 . S
C6152 H6168 0.931 . S
C6153 C6152 1.370 . S
C6153 C6157 1.408 . S
C6154 C6152 1.363 . S
C6154 C6155 1.370 . S
C6154 C6158 1.524 . S
C6155 C6147 1.503 . S
C6155 C6154 1.370 . S
C6155 C6156 1.403 . S
C6156 C6155 1.403 . S
C6156 C6157 1.404 . S
C6156 C6159 1.539 . S
C6157 C6153 1.408 . S
C6157 C6156 1.404 . S
C6157 H6169 0.930 . S
C6158 C6154 1.524 . S
C6158 H6170 0.956 . S
C6158 H6171 0.961 . S
C6158 H6172 0.961 . S
C6159 C6156 1.539 . S
C6159 H6173 0.958 . S
C6159 H6174 0.961 . S
C6159 H6175 0.960 . S
H6160 C6144 0.931 . S
H6161 C6149 0.929 . S
H6162 C6150 0.960 . S
H6163 C6150 0.962 . S
H6164 C6150 0.960 . S
H6165 C6151 0.961 . S
H6166 C6151 0.961 . S
H6167 C6151 0.961 . S
H6168 C6152 0.931 . S
H6169 C6157 0.930 . S
H6170 C6158 0.956 . S
H6171 C6158 0.961 . S
H6172 C6158 0.961 . S
H6173 C6159 0.958 . S
H6174 C6159 0.961 . S
H6175 C6159 0.960 . S
C6176 C6177 1.391 . S
C6176 C6178 1.394 . S
C6176 H6192 0.931 . S
C6177 C6176 1.391 . S
C6177 C6181 1.376 . S
C6178 C6176 1.394 . S
C6178 C6179 1.369 . S
C6178 C6182 1.531 . S
C6179 C6178 1.369 . S
C6179 C6180 1.410 . S
C6179 C6187 1.503 . S
C6180 C6179 1.410 . S
C6180 C6181 1.392 . S
C6180 C6183 1.511 . S
C6181 C6177 1.376 . S
C6181 C6180 1.392 . S
C6181 H6193 0.929 . S
C6182 C6178 1.531 . S
C6182 H6194 0.960 . S
C6182 H6195 0.962 . S
C6182 H6196 0.960 . S
C6183 C6180 1.511 . S
C6183 H6197 0.961 . S
C6183 H6198 0.961 . S
C6183 H6199 0.961 . S
C6184 C6185 1.370 . S
C6184 C6186 1.363 . S
C6184 H6200 0.931 . S
C6185 C6184 1.370 . S
C6185 C6189 1.408 . S
C6186 C6184 1.363 . S
C6186 C6187 1.370 . S
C6186 C6190 1.524 . S
C6187 C6179 1.503 . S
C6187 C6186 1.370 . S
C6187 C6188 1.403 . S
C6188 C6187 1.403 . S
C6188 C6189 1.404 . S
C6188 C6191 1.539 . S
C6189 C6185 1.408 . S
C6189 C6188 1.404 . S
C6189 H6201 0.930 . S
C6190 C6186 1.524 . S
C6190 H6202 0.956 . S
C6190 H6203 0.961 . S
C6190 H6204 0.961 . S
C6191 C6188 1.539 . S
C6191 H6205 0.958 . S
C6191 H6206 0.961 . S
C6191 H6207 0.960 . S
H6192 C6176 0.931 . S
H6193 C6181 0.929 . S
H6194 C6182 0.960 . S
H6195 C6182 0.962 . S
H6196 C6182 0.960 . S
H6197 C6183 0.961 . S
H6198 C6183 0.961 . S
H6199 C6183 0.961 . S
H6200 C6184 0.931 . S
H6201 C6189 0.930 . S
H6202 C6190 0.956 . S
H6203 C6190 0.961 . S
H6204 C6190 0.961 . S
H6205 C6191 0.958 . S
H6206 C6191 0.961 . S
H6207 C6191 0.960 . S
C6208 C6209 1.391 . S
C6208 C6210 1.394 . S
C6208 H6224 0.931 . S
C6209 C6208 1.391 . S
C6209 C6213 1.376 . S
C6210 C6208 1.394 . S
C6210 C6211 1.369 . S
C6210 C6214 1.531 . S
C6211 C6210 1.369 . S
C6211 C6212 1.410 . S
C6211 C6219 1.503 . S
C6212 C6211 1.410 . S
C6212 C6213 1.392 . S
C6212 C6215 1.511 . S
C6213 C6209 1.376 . S
C6213 C6212 1.392 . S
C6213 H6225 0.929 . S
C6214 C6210 1.531 . S
C6214 H6226 0.960 . S
C6214 H6227 0.962 . S
C6214 H6228 0.960 . S
C6215 C6212 1.511 . S
C6215 H6229 0.961 . S
C6215 H6230 0.961 . S
C6215 H6231 0.961 . S
C6216 C6217 1.370 . S
C6216 C6218 1.363 . S
C6216 H6232 0.931 . S
C6217 C6216 1.370 . S
C6217 C6221 1.408 . S
C6218 C6216 1.363 . S
C6218 C6219 1.370 . S
C6218 C6222 1.524 . S
C6219 C6211 1.503 . S
C6219 C6218 1.370 . S
C6219 C6220 1.403 . S
C6220 C6219 1.403 . S
C6220 C6221 1.404 . S
C6220 C6223 1.539 . S
C6221 C6217 1.408 . S
C6221 C6220 1.404 . S
C6221 H6233 0.893 1_655 S
C6222 C6218 1.524 . S
C6222 H6234 0.956 . S
C6222 H6235 0.961 . S
C6222 H6236 0.961 . S
C6223 C6220 1.539 . S
C6223 H6237 0.958 . S
C6223 H6238 0.961 1_655 S
C6223 H6239 0.960 . S
H6224 C6208 0.931 . S
H6225 C6213 0.929 . S
H6226 C6214 0.960 . S
H6227 C6214 0.962 . S
H6228 C6214 0.960 . S
H6229 C6215 0.961 . S
H6230 C6215 0.961 . S
H6231 C6215 0.961 . S
H6232 C6216 0.931 . S
H6233 C6221 0.893 1_455 S
H6234 C6222 0.956 . S
H6235 C6222 0.961 . S
H6236 C6222 0.961 . S
H6237 C6223 0.958 . S
H6238 C6223 0.961 1_455 S
H6239 C6223 0.960 . S
C6240 C6241 1.391 . S
C6240 C6242 1.394 . S
C6240 H6256 0.931 . S
C6241 C6240 1.391 . S
C6241 C6245 1.376 . S
C6242 C6240 1.394 . S
C6242 C6243 1.369 . S
C6242 C6246 1.531 . S
C6243 C6242 1.369 . S
C6243 C6244 1.410 . S
C6243 C6251 1.503 . S
C6244 C6243 1.410 . S
C6244 C6245 1.392 . S
C6244 C6247 1.511 . S
C6245 C6241 1.376 . S
C6245 C6244 1.392 . S
C6245 H6257 0.929 . S
C6246 C6242 1.531 . S
C6246 H6258 0.960 . S
C6246 H6259 0.962 . S
C6246 H6260 0.960 . S
C6247 C6244 1.511 . S
C6247 H6261 0.961 . S
C6247 H6262 0.961 . S
C6247 H6263 0.961 . S
C6248 C6249 1.370 . S
C6248 C6250 1.363 . S
C6248 H6264 0.931 . S
C6249 C6248 1.370 . S
C6249 C6253 1.408 . S
C6250 C6248 1.363 . S
C6250 C6251 1.370 . S
C6250 C6254 1.524 . S
C6251 C6243 1.503 . S
C6251 C6250 1.370 . S
C6251 C6252 1.403 . S
C6252 C6251 1.403 . S
C6252 C6253 1.404 . S
C6252 C6255 1.539 . S
C6253 C6249 1.408 . S
C6253 C6252 1.404 . S
C6253 H6265 0.930 . S
C6254 C6250 1.524 . S
C6254 H6266 0.956 . S
C6254 H6267 0.961 . S
C6254 H6268 0.961 . S
C6255 C6252 1.539 . S
C6255 H6269 0.958 . S
C6255 H6270 0.961 . S
C6255 H6271 0.960 . S
H6256 C6240 0.931 . S
H6257 C6245 0.929 . S
H6258 C6246 0.960 . S
H6259 C6246 0.962 . S
H6260 C6246 0.960 . S
H6261 C6247 0.961 . S
H6262 C6247 0.961 . S
H6263 C6247 0.961 . S
H6264 C6248 0.931 . S
H6265 C6253 0.930 . S
H6266 C6254 0.956 . S
H6267 C6254 0.961 . S
H6268 C6254 0.961 . S
H6269 C6255 0.958 . S
H6270 C6255 0.961 . S
H6271 C6255 0.960 . S
C6272 C6273 1.391 . S
C6272 C6274 1.394 . S
C6272 H6288 0.931 . S
C6273 C6272 1.391 . S
C6273 C6277 1.376 . S
C6274 C6272 1.394 . S
C6274 C6275 1.369 . S
C6274 C6278 1.531 . S
C6275 C6274 1.369 . S
C6275 C6276 1.410 . S
C6275 C6283 1.503 . S
C6276 C6275 1.410 . S
C6276 C6277 1.392 . S
C6276 C6279 1.511 . S
C6277 C6273 1.376 . S
C6277 C6276 1.392 . S
C6277 H6289 0.929 . S
C6278 C6274 1.531 . S
C6278 H6290 0.960 . S
C6278 H6291 0.962 . S
C6278 H6292 0.960 . S
C6279 C6276 1.511 . S
C6279 H6293 0.961 . S
C6279 H6294 0.961 . S
C6279 H6295 0.961 . S
C6280 C6281 1.370 . S
C6280 C6282 1.363 . S
C6280 H6296 0.931 . S
C6281 C6280 1.370 . S
C6281 C6285 1.408 . S
C6282 C6280 1.363 . S
C6282 C6283 1.370 . S
C6282 C6286 1.524 . S
C6283 C6275 1.503 . S
C6283 C6282 1.370 . S
C6283 C6284 1.403 . S
C6284 C6283 1.403 . S
C6284 C6285 1.404 . S
C6284 C6287 1.539 . S
C6285 C6281 1.408 . S
C6285 C6284 1.404 . S
C6285 H6297 0.930 . S
C6286 C6282 1.524 . S
C6286 H6298 0.956 . S
C6286 H6299 0.961 . S
C6286 H6300 0.961 . S
C6287 C6284 1.539 . S
C6287 H6301 0.958 . S
C6287 H6302 0.961 . S
C6287 H6303 0.960 . S
H6288 C6272 0.931 . S
H6289 C6277 0.929 . S
H6290 C6278 0.960 . S
H6291 C6278 0.962 . S
H6292 C6278 0.960 . S
H6293 C6279 0.961 . S
H6294 C6279 0.961 . S
H6295 C6279 0.961 . S
H6296 C6280 0.931 . S
H6297 C6285 0.930 . S
H6298 C6286 0.956 . S
H6299 C6286 0.961 . S
H6300 C6286 0.961 . S
H6301 C6287 0.958 . S
H6302 C6287 0.961 . S
H6303 C6287 0.960 . S
C6304 C6305 1.391 . S
C6304 C6306 1.394 . S
C6304 H6320 0.931 . S
C6305 C6304 1.391 . S
C6305 C6309 1.376 . S
C6306 C6304 1.394 . S
C6306 C6307 1.369 . S
C6306 C6310 1.531 . S
C6307 C6306 1.369 . S
C6307 C6308 1.410 . S
C6307 C6315 1.503 . S
C6308 C6307 1.410 . S
C6308 C6309 1.392 . S
C6308 C6311 1.511 . S
C6309 C6305 1.376 . S
C6309 C6308 1.392 . S
C6309 H6321 0.929 . S
C6310 C6306 1.531 . S
C6310 H6322 0.960 1_565 S
C6310 H6323 0.962 . S
C6310 H6324 0.990 . S
C6311 C6308 1.511 . S
C6311 H6325 0.961 . S
C6311 H6326 0.961 . S
C6311 H6327 0.961 . S
C6312 C6313 1.370 . S
C6312 C6314 1.363 . S
C6312 H6328 0.931 . S
C6313 C6312 1.370 . S
C6313 C6317 1.408 . S
C6314 C6312 1.363 . S
C6314 C6315 1.370 . S
C6314 C6318 1.524 . S
C6315 C6307 1.503 . S
C6315 C6314 1.370 . S
C6315 C6316 1.403 . S
C6316 C6315 1.403 . S
C6316 C6317 1.404 . S
C6316 C6319 1.539 . S
C6317 C6313 1.408 . S
C6317 C6316 1.404 . S
C6317 H6329 0.930 1_565 S
C6318 C6314 1.524 . S
C6318 H6330 0.956 . S
C6318 H6331 0.961 . S
C6318 H6332 0.961 . S
C6319 C6316 1.539 . S
C6319 H6333 0.958 1_565 S
C6319 H6334 0.961 . S
C6319 H6335 0.960 . S
H6320 C6304 0.931 . S
H6321 C6309 0.929 . S
H6322 C6310 0.960 1_545 S
H6323 C6310 0.962 . S
H6324 C6310 0.990 . S
H6325 C6311 0.961 . S
H6326 C6311 0.961 . S
H6327 C6311 0.961 . S
H6328 C6312 0.931 . S
H6329 C6317 0.930 1_545 S
H6330 C6318 0.956 . S
H6331 C6318 0.961 . S
H6332 C6318 0.961 . S
H6333 C6319 0.958 1_545 S
H6334 C6319 0.961 . S
H6335 C6319 0.960 . S
C6336 C6337 1.391 . S
C6336 C6338 1.394 . S
C6336 H6352 0.931 . S
C6337 C6336 1.391 . S
C6337 C6341 1.376 . S
C6338 C6336 1.394 . S
C6338 C6339 1.369 . S
C6338 C6342 1.531 . S
C6339 C6338 1.369 . S
C6339 C6340 1.410 . S
C6339 C6347 1.503 . S
C6340 C6339 1.410 . S
C6340 C6341 1.392 . S
C6340 C6343 1.511 . S
C6341 C6337 1.376 . S
C6341 C6340 1.392 . S
C6341 H6353 0.929 . S
C6342 C6338 1.531 . S
C6342 H6354 0.960 . S
C6342 H6355 0.962 . S
C6342 H6356 0.960 . S
C6343 C6340 1.511 . S
C6343 H6357 0.961 . S
C6343 H6358 0.961 . S
C6343 H6359 0.961 . S
C6344 C6345 1.370 . S
C6344 C6346 1.363 . S
C6344 H6360 0.931 . S
C6345 C6344 1.370 . S
C6345 C6349 1.408 . S
C6346 C6344 1.363 . S
C6346 C6347 1.370 . S
C6346 C6350 1.524 . S
C6347 C6339 1.503 . S
C6347 C6346 1.370 . S
C6347 C6348 1.403 . S
C6348 C6347 1.403 . S
C6348 C6349 1.404 . S
C6348 C6351 1.539 . S
C6349 C6345 1.408 . S
C6349 C6348 1.404 . S
C6349 H6361 0.930 . S
C6350 C6346 1.524 . S
C6350 H6362 0.956 . S
C6350 H6363 0.961 . S
C6350 H6364 0.961 . S
C6351 C6348 1.539 . S
C6351 H6365 0.958 . S
C6351 H6366 0.961 . S
C6351 H6367 0.960 . S
H6352 C6336 0.931 . S
H6353 C6341 0.929 . S
H6354 C6342 0.960 . S
H6355 C6342 0.962 . S
H6356 C6342 0.960 . S
H6357 C6343 0.961 . S
H6358 C6343 0.961 . S
H6359 C6343 0.961 . S
H6360 C6344 0.931 . S
H6361 C6349 0.930 . S
H6362 C6350 0.956 . S
H6363 C6350 0.961 . S
H6364 C6350 0.961 . S
H6365 C6351 0.958 . S
H6366 C6351 0.961 . S
H6367 C6351 0.960 . S
C6368 C6369 1.391 . S
C6368 C6370 1.394 . S
C6368 H6384 0.931 . S
C6369 C6368 1.391 . S
C6369 C6373 1.376 . S
C6370 C6368 1.394 . S
C6370 C6371 1.369 . S
C6370 C6374 1.531 . S
C6371 C6370 1.369 . S
C6371 C6372 1.410 . S
C6371 C6379 1.503 . S
C6372 C6371 1.410 . S
C6372 C6373 1.392 . S
C6372 C6375 1.511 . S
C6373 C6369 1.376 . S
C6373 C6372 1.392 . S
C6373 H6385 0.929 . S
C6374 C6370 1.531 . S
C6374 H6386 0.960 . S
C6374 H6387 0.962 . S
C6374 H6388 0.960 . S
C6375 C6372 1.511 . S
C6375 H6389 0.961 . S
C6375 H6390 0.961 . S
C6375 H6391 0.961 . S
C6376 C6377 1.370 . S
C6376 C6378 1.363 . S
C6376 H6392 0.930 . S
C6377 C6376 1.370 . S
C6377 C6381 1.408 . S
C6378 C6376 1.363 . S
C6378 C6379 1.370 . S
C6378 C6382 1.524 1_554 S
C6379 C6371 1.503 . S
C6379 C6378 1.370 . S
C6379 C6380 1.403 . S
C6380 C6379 1.403 . S
C6380 C6381 1.404 . S
C6380 C6383 1.539 . S
C6381 C6377 1.408 . S
C6381 C6380 1.404 . S
C6381 H6393 0.930 . S
C6382 C6378 1.524 1_556 S
C6382 H6394 0.956 . S
C6382 H6395 0.960 . S
C6382 H6396 0.961 . S
C6383 C6380 1.539 . S
C6383 H6397 0.958 . S
C6383 H6398 0.961 . S
C6383 H6399 0.960 . S
H6384 C6368 0.931 . S
H6385 C6373 0.929 . S
H6386 C6374 0.960 . S
H6387 C6374 0.962 . S
H6388 C6374 0.960 . S
H6389 C6375 0.961 . S
H6390 C6375 0.961 . S
H6391 C6375 0.961 . S
H6392 C6376 0.930 . S
H6393 C6381 0.930 . S
H6394 C6382 0.956 . S
H6395 C6382 0.960 . S
H6396 C6382 0.961 . S
H6397 C6383 0.958 . S
H6398 C6383 0.961 . S
H6399 C6383 0.960 . S
C6400 C6401 1.391 . S
C6400 C6402 1.394 . S
C6400 H6416 0.931 . S
C6401 C6400 1.391 . S
C6401 C6405 1.376 . S
C6402 C6400 1.394 . S
C6402 C6403 1.369 . S
C6402 C6406 1.531 . S
C6403 C6402 1.369 . S
C6403 C6404 1.410 . S
C6403 C6411 1.503 . S
C6404 C6403 1.410 . S
C6404 C6405 1.392 . S
C6404 C6407 1.511 . S
C6405 C6401 1.376 . S
C6405 C6404 1.392 . S
C6405 H6417 0.929 . S
C6406 C6402 1.531 . S
C6406 H6418 0.960 . S
C6406 H6419 0.962 . S
C6406 H6420 0.960 . S
C6407 C6404 1.511 . S
C6407 H6421 0.961 . S
C6407 H6422 0.961 . S
C6407 H6423 0.961 . S
C6408 C6409 1.370 . S
C6408 C6410 1.363 . S
C6408 H6424 0.931 . S
C6409 C6408 1.370 . S
C6409 C6413 1.408 . S
C6410 C6408 1.363 . S
C6410 C6411 1.370 . S
C6410 C6414 1.524 . S
C6411 C6403 1.503 . S
C6411 C6410 1.370 . S
C6411 C6412 1.403 . S
C6412 C6411 1.403 . S
C6412 C6413 1.404 . S
C6412 C6415 1.539 . S
C6413 C6409 1.408 . S
C6413 C6412 1.404 . S
C6413 H6425 0.930 . S
C6414 C6410 1.524 . S
C6414 H6426 0.956 . S
C6414 H6427 0.961 . S
C6414 H6428 0.961 . S
C6415 C6412 1.539 . S
C6415 H6429 0.958 . S
C6415 H6430 0.961 . S
C6415 H6431 0.960 . S
H6416 C6400 0.931 . S
H6417 C6405 0.929 . S
H6418 C6406 0.960 . S
H6419 C6406 0.962 . S
H6420 C6406 0.960 . S
H6421 C6407 0.961 . S
H6422 C6407 0.961 . S
H6423 C6407 0.961 . S
H6424 C6408 0.931 . S
H6425 C6413 0.930 . S
H6426 C6414 0.956 . S
H6427 C6414 0.961 . S
H6428 C6414 0.961 . S
H6429 C6415 0.958 . S
H6430 C6415 0.961 . S
H6431 C6415 0.960 . S
C6432 C6433 1.391 . S
C6432 C6434 1.394 . S
C6432 H6448 0.931 . S
C6433 C6432 1.391 . S
C6433 C6437 1.376 . S
C6434 C6432 1.394 . S
C6434 C6435 1.369 . S
C6434 C6438 1.531 1_554 S
C6435 C6434 1.369 . S
C6435 C6436 1.410 . S
C6435 C6443 1.503 . S
C6436 C6435 1.410 . S
C6436 C6437 1.392 . S
C6436 C6439 1.511 . S
C6437 C6433 1.376 . S
C6437 C6436 1.392 . S
C6437 H6449 0.929 . S
C6438 C6434 1.531 1_556 S
C6438 H6450 0.960 . S
C6438 H6451 0.961 1_556 S
C6438 H6452 0.960 . S
C6439 C6436 1.511 . S
C6439 H6453 0.961 . S
C6439 H6454 0.961 . S
C6439 H6455 0.961 . S
C6440 C6441 1.370 . S
C6440 C6442 1.363 . S
C6440 H6456 0.931 . S
C6441 C6440 1.370 . S
C6441 C6445 1.408 . S
C6442 C6440 1.363 . S
C6442 C6443 1.370 . S
C6442 C6446 1.524 . S
C6443 C6435 1.503 . S
C6443 C6442 1.370 . S
C6443 C6444 1.403 . S
C6444 C6443 1.403 . S
C6444 C6445 1.404 . S
C6444 C6447 1.538 1_554 S
C6445 C6441 1.408 . S
C6445 C6444 1.404 . S
C6445 H6457 0.923 1_554 S
C6446 C6442 1.524 . S
C6446 H6458 0.956 . S
C6446 H6459 0.961 . S
C6446 H6460 0.961 . S
C6447 C6444 1.538 1_556 S
C6447 H6461 0.962 . S
C6447 H6462 0.961 . S
C6447 H6463 0.957 1_556 S
H6448 C6432 0.931 . S
H6449 C6437 0.929 . S
H6450 C6438 0.960 . S
H6451 C6438 0.961 1_554 S
H6452 C6438 0.960 . S
H6453 C6439 0.961 . S
H6454 C6439 0.961 . S
H6455 C6439 0.961 . S
H6456 C6440 0.931 . S
H6457 C6445 0.923 1_556 S
H6458 C6446 0.956 . S
H6459 C6446 0.961 . S
H6460 C6446 0.961 . S
H6461 C6447 0.962 . S
H6462 C6447 0.961 . S
H6463 C6447 0.957 1_554 S
C6464 C6465 1.391 . S
C6464 C6466 1.394 . S
C6464 H6480 0.931 . S
C6465 C6464 1.391 . S
C6465 C6469 1.376 . S
C6466 C6464 1.394 . S
C6466 C6467 1.369 . S
C6466 C6470 1.531 . S
C6467 C6466 1.369 . S
C6467 C6468 1.410 . S
C6467 C6475 1.503 . S
C6468 C6467 1.410 . S
C6468 C6469 1.392 . S
C6468 C6471 1.511 . S
C6469 C6465 1.376 . S
C6469 C6468 1.392 . S
C6469 H6481 0.929 . S
C6470 C6466 1.531 . S
C6470 H6482 0.960 . S
C6470 H6483 0.962 . S
C6470 H6484 0.960 . S
C6471 C6468 1.511 . S
C6471 H6485 0.961 . S
C6471 H6486 0.961 . S
C6471 H6487 0.961 . S
C6472 C6473 1.370 . S
C6472 C6474 1.363 . S
C6472 H6488 0.931 . S
C6473 C6472 1.370 . S
C6473 C6477 1.408 . S
C6474 C6472 1.363 . S
C6474 C6475 1.370 . S
C6474 C6478 1.524 . S
C6475 C6467 1.503 . S
C6475 C6474 1.370 . S
C6475 C6476 1.403 . S
C6476 C6475 1.403 . S
C6476 C6477 1.404 . S
C6476 C6479 1.539 . S
C6477 C6473 1.408 . S
C6477 C6476 1.404 . S
C6477 H6489 0.930 . S
C6478 C6474 1.524 . S
C6478 H6490 0.956 . S
C6478 H6491 0.961 . S
C6478 H6492 0.961 . S
C6479 C6476 1.539 . S
C6479 H6493 0.958 . S
C6479 H6494 0.961 . S
C6479 H6495 0.960 . S
H6480 C6464 0.931 . S
H6481 C6469 0.929 . S
H6482 C6470 0.960 . S
H6483 C6470 0.962 . S
H6484 C6470 0.960 . S
H6485 C6471 0.961 . S
H6486 C6471 0.961 . S
H6487 C6471 0.961 . S
H6488 C6472 0.931 . S
H6489 C6477 0.930 . S
H6490 C6478 0.956 . S
H6491 C6478 0.961 . S
H6492 C6478 0.961 . S
H6493 C6479 0.958 . S
H6494 C6479 0.961 . S
H6495 C6479 0.960 . S
C6496 C6497 1.391 . S
C6496 C6498 1.394 . S
C6496 H6512 0.931 . S
C6497 C6496 1.391 . S
C6497 C6501 1.376 . S
C6498 C6496 1.394 . S
C6498 C6499 1.369 . S
C6498 C6502 1.531 . S
C6499 C6498 1.369 . S
C6499 C6500 1.410 . S
C6499 C6507 1.503 . S
C6500 C6499 1.410 . S
C6500 C6501 1.392 . S
C6500 C6503 1.511 . S
C6501 C6497 1.376 . S
C6501 C6500 1.392 . S
C6501 H6513 0.929 . S
C6502 C6498 1.531 . S
C6502 H6514 0.960 . S
C6502 H6515 0.962 . S
C6502 H6516 0.960 . S
C6503 C6500 1.511 . S
C6503 H6517 0.961 . S
C6503 H6518 0.961 . S
C6503 H6519 0.961 . S
C6504 C6505 1.370 . S
C6504 C6506 1.363 . S
C6504 H6520 0.931 . S
C6505 C6504 1.370 . S
C6505 C6509 1.408 . S
C6506 C6504 1.363 . S
C6506 C6507 1.370 . S
C6506 C6510 1.524 . S
C6507 C6499 1.503 . S
C6507 C6506 1.370 . S
C6507 C6508 1.403 . S
C6508 C6507 1.403 . S
C6508 C6509 1.404 . S
C6508 C6511 1.539 . S
C6509 C6505 1.408 . S
C6509 C6508 1.404 . S
C6509 H6521 0.930 . S
C6510 C6506 1.524 . S
C6510 H6522 0.956 . S
C6510 H6523 0.961 . S
C6510 H6524 0.961 . S
C6511 C6508 1.539 . S
C6511 H6525 0.958 . S
C6511 H6526 0.961 . S
C6511 H6527 0.960 . S
H6512 C6496 0.931 . S
H6513 C6501 0.929 . S
H6514 C6502 0.960 . S
H6515 C6502 0.962 . S
H6516 C6502 0.960 . S
H6517 C6503 0.961 . S
H6518 C6503 0.961 . S
H6519 C6503 0.961 . S
H6520 C6504 0.931 . S
H6521 C6509 0.930 . S
H6522 C6510 0.956 . S
H6523 C6510 0.961 . S
H6524 C6510 0.961 . S
H6525 C6511 0.958 . S
H6526 C6511 0.961 . S
H6527 C6511 0.960 . S
C3457 C665 2.021 . S
C3465 C2179 2.070 . S
C3489 C381 1.812 . S
C3497 C2252 1.806 . S
C3521 C460 1.845 . S
C3529 C2347 1.926 . S
C3561 C2422 1.403 . S
C3553 C585 1.535 . S
C3585 C108 1.538 . S
C3593 C2506 1.433 . S
C3625 C2599 1.918 . S
C3617 C196 1.878 . S
C3657 C2672 1.802 . S
C3649 C313 1.806 . S
C3681 C49 2.029 . S
C3689 C2767 2.071 . S
C3721 C2168 1.508 . S
C3713 C1457 1.551 . S
C3745 C1545 0.812 . S
C3753 C2254 0.803 . S
C3785 C2336 1.023 . S
C3777 C1721 1.031 . S
C3817 C2431 1.633 . S
C3809 C1113 1.636 . S
C3841 C1428 1.604 . S
C3849 C2515 1.642 . S
C3881 C2588 1.031 . S
C3873 C1516 1.033 . S
C3913 C2674 0.809 . S
C3905 C1692 0.812 . S
C3945 C2756 1.499 . S
C3937 C1085 1.566 . S
C3977 C2170 0.914 . S
C3969 C988 0.903 1_554 S
C4001 C1817 1.645 . S
C4009 C2840 1.648 . S
C4041 C2926 1.247 . S
C4033 C2081 1.321 . S
C4073 C3019 0.828 . S
C4065 C1993 0.785 . S
C4097 C761 0.909 . S
C4105 C2758 0.893 . S
C4129 C821 1.337 . S
C4137 C2338 1.276 . S
C4161 C2053 1.664 . S
C4169 C3092 1.639 . S
C4201 C3187 0.829 . S
C4193 C1868 0.774 . S
C4233 C2167 2.067 . S
C4225 C372 2.030 . S
C4265 C3188 1.806 . S
C4257 C645 1.805 . S
C4289 C577 1.886 . S
C4297 C2335 1.913 . S
C4321 C497 1.533 . S
C4329 C3106 1.403 . S
C4361 C2518 1.407 . S
C4353 C57 1.534 . S
C4385 C293 1.858 . S
C4393 C2923 1.914 . S
C4425 C2684 1.796 1_556 S
C4417 C205 1.787 . S
C4457 C3259 2.068 . S
C4449 C145 2.006 . S
C4489 C2180 1.519 . S
C4481 C909 1.535 . S
C4521 C3190 0.769 . S
C4513 C1956 0.808 . S
C4545 C724 1.030 . S
C4553 C2348 1.023 . S
C4577 C1780 1.633 . S
C4585 C3091 1.630 . S
C4609 C937 1.606 . S
C4617 C2503 1.638 . S
C4649 C2936 1.009 . S
C4641 C1985 1.022 . S
C4673 C753 0.798 . S
C4681 C2686 0.812 . S
C4705 C1809 1.542 . S
C4713 C3272 1.518 . S
C4737 C1173 0.960 . S
C4745 C2182 0.930 . S
C4769 C1105 1.639 . S
C4777 C2852 1.641 . S
C4801 C1633 1.339 . S
C4809 C2602 1.281 . S
C4833 C1553 0.824 . S
C4841 C3007 0.817 . S
C4873 C3274 0.936 . S
C4865 C1729 0.947 . S
C4897 C1340 1.324 . S
C4905 C2350 1.252 . S
C4937 C2432 1.630 . S
C4929 C1604 1.639 . S
C4969 C2251 0.805 . S
C4961 C1252 0.852 . S
C4993 C489 2.006 . S
C5001 C3355 2.074 . S
C5033 C3176 1.802 . S
C5025 C557 1.791 . S
C5057 C636 1.891 1_554 S
C5065 C3439 1.916 . S
C5089 C409 1.533 . S
C5097 C3094 1.404 . S
C5121 C284 1.538 . S
C5129 C2842 1.437 . S
C5161 C2935 1.917 . S
C5153 C20 1.881 . S
C5193 C3008 1.806 . S
C5185 C137 1.797 . S
C5225 C3271 2.071 . S
C5217 C225 2.018 . S
C5257 C3344 1.511 . S
C5249 C1641 1.548 . S
C5281 C1193 0.800 . S
C5289 C3178 0.786 . S
C5321 C3428 1.022 . S
C5313 C1289 1.030 . S
C5353 C3103 1.640 . S
C5345 C1377 1.606 . S
C5385 C2851 1.641 . S
C5377 C1613 1.615 . S
C5409 C1164 1.033 . S
C5417 C2924 1.031 . S
C5449 C3010 0.824 . S
C5441 C1261 0.810 . S
C5473 C1349 1.562 . S
C5481 C3260 1.500 . S
C5513 C3346 0.893 . S
C5505 C1965 0.899 . S
C5537 C849 1.641 . S
C5545 C2504 1.643 . S
C5577 C2590 1.252 . S
C5569 C929 1.323 . S
C5609 C2683 0.816 . S
C5601 C1017 0.818 . S
C5641 C3262 0.936 . S
C5633 C1897 0.964 . S
C5665 C1789 1.340 . S
C5673 C3430 1.279 . S
C5705 C2420 1.638 . S
C5697 C900 1.640 . S
C5737 C2263 0.830 . S
C5729 C733 0.774 . S
C5761 C548 2.008 . S
C5769 C3343 2.067 . S
C5801 C2264 1.806 . S
C5793 C469 1.805 . S
C5825 C401 1.885 . S
C5833 C3427 1.914 . S
C5857 C673 1.533 . S
C5865 C2434 1.399 . S
C5889 C233 1.532 . S
C5897 C2854 1.418 . S
C5929 C2587 1.911 . S
C5921 C117 1.883 . S
C5953 C29 1.781 . S
C5961 C3020 1.796 . S
C5985 C321 2.038 . S
C5993 C2755 2.066 . S
C6025 C3356 1.500 . S
C6017 C2044 1.561 . S
C6049 C997 0.803 . S
C6057 C2266 0.755 . S
C6089 C3440 1.024 1_655 S
C6081 C1877 1.030 . S
C6113 C812 1.619 . S
C6121 C2419 1.629 . S
C6145 C2073 1.630 . S
C6153 C2839 1.628 . S
C6185 C2600 1.017 . S
C6177 C1025 1.031 . S
C6209 C1905 0.808 . S
C6217 C3022 0.780 . S
C6249 C2768 1.507 . S
C6241 C841 1.556 . S
C6281 C3358 0.911 . S
C6273 C1525 0.957 . S
C6313 C2516 1.642 1_565 S
C6305 C1369 1.660 . S
C6337 C1465 1.338 . S
C6345 C2938 1.276 . S
C6377 C2671 0.820 . S
C6369 C1201 0.813 . S
C6401 C1281 0.948 . S
C6409 C2770 0.935 . S
C6433 C1076 1.325 . S
C6441 C3442 1.255 . S
C6473 C3104 1.630 . S
C6465 C1437 1.637 . S
C6505 C3175 0.805 . S
C6497 C1701 0.852 . S
