# Generated by pormake.
# Topology rtl, (3,6)-cn, num edge types: 1
# Building blocks:
#     Node 0, Type 0, BuildingBlock: OLANEW_clean_sbu_2, # of connection points: 3
#     Node 1, Type 0, BuildingBlock: OLANEW_clean_sbu_2, # of connection points: 3
#     Node 2, Type 0, BuildingBlock: OLANEW_clean_sbu_2, # of connection points: 3
#     Node 3, Type 0, BuildingBlock: OLANEW_clean_sbu_2, # of connection points: 3
#     Node 4, Type 1, BuildingBlock: KUMBUR_clean_sbu_1, # of connection points: 6
#     Node 5, Type 1, BuildingBlock: KUMBUR_clean_sbu_1, # of connection points: 6
#     Edge 6, Type (0, 1), BuildingBlock: MIFKUJ_clean_linker_0, # of connection points: 2
#     Edge 7, Type (0, 1), BuildingBlock: MIFKUJ_clean_linker_0, # of connection points: 2
#     Edge 8, Type (0, 1), BuildingBlock: MIFKUJ_clean_linker_0, # of connection points: 2
#     Edge 9, Type (0, 1), BuildingBlock: MIFKUJ_clean_linker_0, # of connection points: 2
#     Edge 10, Type (0, 1), BuildingBlock: MIFKUJ_clean_linker_0, # of connection points: 2
#     Edge 11, Type (0, 1), BuildingBlock: MIFKUJ_clean_linker_0, # of connection points: 2
#     Edge 12, Type (0, 1), BuildingBlock: MIFKUJ_clean_linker_0, # of connection points: 2
#     Edge 13, Type (0, 1), BuildingBlock: MIFKUJ_clean_linker_0, # of connection points: 2
#     Edge 14, Type (0, 1), BuildingBlock: MIFKUJ_clean_linker_0, # of connection points: 2
#     Edge 15, Type (0, 1), BuildingBlock: MIFKUJ_clean_linker_0, # of connection points: 2
#     Edge 16, Type (0, 1), BuildingBlock: MIFKUJ_clean_linker_0, # of connection points: 2
#     Edge 17, Type (0, 1), BuildingBlock: MIFKUJ_clean_linker_0, # of connection points: 2
# Relax obj value: 0.040
# Max RMSD: 0.158
# Mean RMSD: 0.126
data_MOF--net-rtl--node1-OLANEW_clean_sbu_2--node2-KUMBUR_clean_sbu_1--edge1-MIFKUJ_clean_linker_0
_symmetry_space_group_name_H-M    P1
_symmetry_Int_Tables_number       1
_symmetry_cell_setting            triclinic
loop_
_symmetry_equiv_pos_as_xyz
'x, y, z'
_cell_length_a     47.870888
_cell_length_b     47.505935
_cell_length_c     36.453415
_cell_angle_alpha  78.393961
_cell_angle_beta   102.10272
_cell_angle_gamma 90.777395
loop_
_atom_site_label
_atom_site_type_symbol
_atom_site_fract_x
_atom_site_fract_y
_atom_site_fract_z
_atom_type_partial_charge
O0 O 0.20878 0.82642 0.98487 0.0
Cd1 Cd 0.23313 0.80072 0.04855 0.0
O2 O 0.2103 0.86912 1.00008 0.0
Cd3 Cd 0.22276 0.8544 0.0622 0.0
O4 O 0.21113 0.86009 0.11535 0.0
C5 C 0.1956 0.88246 0.11149 0.0
O6 O 0.18904 0.89961 0.07762 0.0
C7 C 0.20424 0.85349 0.97514 0.0
C8 C 0.27547 0.76192 0.04461 0.0
O9 O 0.24937 0.75465 0.04213 0.0
O10 O 0.28162 0.78756 0.04894 0.0
O11 O 0.66544 0.7194 0.65992 0.0
Cd12 Cd 0.67804 0.74355 0.5993 0.0
O13 O 0.61996 0.7207 0.63132 0.0
Cd14 Cd 0.62645 0.73188 0.57254 0.0
O15 O 0.6226 0.71816 0.51783 0.0
C16 C 0.61503 0.69229 0.51894 0.0
O17 O 0.61059 0.67711 0.55146 0.0
C18 C 0.63939 0.71498 0.66171 0.0
C19 C 0.72698 0.77701 0.60317 0.0
O20 O 0.7031 0.78717 0.60628 0.0
O21 O 0.72801 0.75079 0.59951 0.0
O22 O 0.77672 0.15076 0.11097 0.0
Cd23 Cd 0.75009 0.17037 0.04568 0.0
O24 O 0.81777 0.16486 0.09646 0.0
Cd25 Cd 0.80206 0.17408 0.03436 0.0
O26 O 0.8094 0.16313 0.98154 0.0
C27 C 0.82022 0.13807 0.9859 0.0
O28 O 0.82451 0.12126 0.02006 0.0
C29 C 0.80351 0.15369 0.12121 0.0
C30 C 0.71609 0.21918 0.04036 0.0
O31 O 0.70604 0.1939 0.04623 0.0
O32 O 0.74227 0.22138 0.03735 0.0
O33 O 0.3372 0.28385 0.54146 0.0
Cd34 Cd 0.32048 0.25878 0.48857 0.0
O35 O 0.35901 0.31742 0.50744 0.0
Cd36 Cd 0.35171 0.30459 0.45193 0.0
O37 O 0.36324 0.31752 0.39588 0.0
C38 C 0.38353 0.33509 0.3956 0.0
O39 O 0.39545 0.34285 0.42781 0.0
C40 C 0.35184 0.30646 0.53885 0.0
C41 C 0.27562 0.2217 0.50024 0.0
O42 O 0.30178 0.21308 0.51273 0.0
O43 O 0.27062 0.24789 0.48249 0.0
Tb44 Tb 0.02075 0.96735 0.53383 0.0
C45 C 0.9561 0.08358 0.49557 0.0
N46 N 0.98064 0.07562 0.52214 0.0
C47 C 0.0019 0.11975 0.49859 0.0
C48 C 0.95377 0.10976 0.46871 0.0
C49 C 0.00328 0.09345 0.52444 0.0
C50 C 0.9771 0.12789 0.47046 0.0
C51 C 0.90812 0.07188 0.46675 0.0
C52 C 0.93373 0.06468 0.49442 0.0
C53 C 0.90571 0.09789 0.43977 0.0
C54 C 0.92848 0.11678 0.44074 0.0
Tb55 Tb 0.98094 0.03179 0.56185 0.0
N56 N 0.93717 0.03924 0.52027 0.0
C57 C 0.88561 0.05287 0.46729 0.0
C58 C 0.91431 0.02201 0.52293 0.0
C59 C 0.88855 0.02812 0.496 0.0
H60 H 0.02225 0.08765 0.5466 0.0
H61 H 0.87078 0.01401 0.49791 0.0
H62 H 0.98181 0.90996 0.55012 0.0
H63 H 0.13151 0.98753 0.5924 0.0
H64 H 0.91518 0.00408 0.54637 0.0
H65 H 0.8656 0.05756 0.44652 0.0
H66 H 0.08631 0.99608 0.54535 0.0
H67 H 0.01994 0.13376 0.50043 0.0
H68 H 0.88628 0.10365 0.41814 0.0
H69 H 0.92632 0.13672 0.4197 0.0
H70 H 0.98639 0.86317 0.59532 0.0
H71 H 0.97617 0.1482 0.45033 0.0
H72 H 0.1389 0.94365 0.64334 0.0
N73 N 0.02323 0.92308 0.57308 0.0
C74 C 0.04837 0.91562 0.59853 0.0
C75 C 0.00394 0.8778 0.59669 0.0
C76 C 0.05213 0.88901 0.62465 0.0
C77 C 1.00123 0.90448 0.57142 0.0
C78 C 0.02945 0.87007 0.62355 0.0
N79 N 0.06544 0.96079 0.57344 0.0
C80 C 0.08788 0.9784 0.56929 0.0
C81 C 0.09644 0.92838 0.62516 0.0
C82 C 0.07005 0.93526 0.59903 0.0
C83 C 0.11836 0.94803 0.62366 0.0
C84 C 0.11421 0.97291 0.59512 0.0
H85 H 0.03146 0.84942 0.64317 0.0
H86 H 0.08148 0.86201 0.67155 0.0
H87 H 0.12048 0.89627 0.67148 0.0
O88 O 0.04554 0.96996 0.49193 0.0
O89 O 0.01543 0.96341 0.59308 0.0
O90 O 0.01698 0.0093 0.6048 0.0
O91 O 0.02011 0.93326 0.50478 0.0
O92 O 0.03739 0.01128 0.52351 0.0
O93 O 0.02744 0.03373 0.5705 0.0
O94 O 0.95496 0.03072 0.60215 0.0
O95 O 0.98707 0.03463 0.50323 0.0
O96 O 0.98365 0.98881 0.49209 0.0
O97 O 0.98157 0.06651 0.58972 0.0
O98 O 0.96387 0.98816 0.57302 0.0
O99 O 0.97432 0.96409 0.52768 0.0
C100 C 0.0227 0.98152 0.61601 0.0
C101 C 0.02588 0.9472 0.44116 0.0
C102 C 0.03583 0.94275 0.37951 0.0
C103 C 0.00687 0.94939 0.36246 0.0
C104 C 0.9971 0.95392 0.42355 0.0
C105 C 0.98771 0.95503 0.38437 0.0
C106 C 0.04515 0.94167 0.41907 0.0
C107 C 0.04289 0.03051 0.54556 0.0
C108 C 0.03621 0.94606 0.48238 0.0
C109 C 0.07819 0.88231 0.65115 0.0
C110 C 0.10032 0.90192 0.65131 0.0
C111 C 0.97846 0.01658 0.48071 0.0
C112 C 0.97501 0.05332 0.6529 0.0
C113 C 0.96524 0.05781 0.71452 0.0
C114 C 0.99408 0.05073 0.7316 0.0
C115 C 0.00374 0.04626 0.67054 0.0
C116 C 0.95583 0.05916 0.67494 0.0
C117 C 0.01316 0.04491 0.70974 0.0
C118 C 0.95896 0.96782 0.55261 0.0
C119 C 0.96483 0.05446 0.61167 0.0
H120 H 0.99894 0.94991 0.33223 0.0
H121 H 0.98186 0.95812 0.44006 0.0
H122 H 0.96548 0.96017 0.37094 0.0
H123 H 0.06744 0.93687 0.43267 0.0
H124 H 0.00192 0.05028 0.76177 0.0
H125 H 0.01892 0.04207 0.65399 0.0
H126 H 0.93361 0.06447 0.66139 0.0
H127 H 0.03536 0.03957 0.72316 0.0
Tb128 Tb 0.4773 0.50037 0.9777 0.0
C129 C 0.59443 0.5506 0.02708 0.0
N130 N 0.58575 0.52332 0.03749 0.0
C131 C 0.62821 0.50436 0.02503 0.0
C132 C 0.62027 0.55581 0.01446 0.0
C133 C 0.60239 0.50022 0.03732 0.0
C134 C 0.6372 0.53225 0.01358 0.0
C135 C 0.58454 0.60188 0.01581 0.0
C136 C 0.57652 0.5733 0.02732 0.0
C137 C 0.61013 0.6072 0.00284 0.0
C138 C 0.62796 0.58423 0.0022 0.0
Tb139 Tb 0.54351 0.51925 0.05734 0.0
N140 N 0.55165 0.56737 0.03957 0.0
C141 C 0.56695 0.6243 0.01853 0.0
C142 C 0.53608 0.58923 0.04581 0.0
C143 C 0.54294 0.6179 0.03434 0.0
H144 H 0.59577 0.47863 0.04673 0.0
H145 H 0.53009 0.63503 0.03864 0.0
H146 H 0.42328 0.54029 0.98432 0.0
H147 H 0.48979 0.38495 0.99178 0.0
H148 H 0.51901 0.58499 0.06098 0.0
H149 H 0.57236 0.64654 0.01001 0.0
H150 H 0.50105 0.43528 0.97119 0.0
H151 H 0.64111 0.48607 0.02423 0.0
H152 H 0.61649 0.62902 0.99362 0.0
H153 H 0.64761 0.58867 0.99211 0.0
H154 H 0.37727 0.53274 0.00489 0.0
H155 H 0.65712 0.53535 0.00384 0.0
H156 H 0.44742 0.37282 0.01992 0.0
N157 N 0.43416 0.49578 0.99529 0.0
C158 C 0.42565 0.46846 0.00582 0.0
C159 C 0.39075 0.51448 0.00551 0.0
C160 C 0.39954 0.46308 0.01762 0.0
C161 C 0.41693 0.51873 0.99424 0.0
C162 C 0.38208 0.48653 0.01747 0.0
N163 N 0.46868 0.45216 0.99381 0.0
C164 C 0.48403 0.43062 0.98645 0.0
C165 C 0.43555 0.41729 0.01616 0.0
C166 C 0.44374 0.44595 0.00573 0.0
C167 C 0.45302 0.39511 0.01252 0.0
C168 C 0.47705 0.40186 0.99686 0.0
H169 H 0.36184 0.4833 0.02636 0.0
H170 H 0.37193 0.42999 0.03878 0.0
H171 H 0.40318 0.3899 0.03682 0.0
O172 O 0.47457 0.48667 0.92489 0.0
O173 O 0.4721 0.49394 0.03733 0.0
O174 O 0.51705 0.48325 0.07584 0.0
O175 O 0.4442 0.51802 0.93149 0.0
O176 O 0.51962 0.47926 0.98533 0.0
O177 O 0.54055 0.47494 0.0496 0.0
O178 O 0.54919 0.53383 0.11002 0.0
O179 O 0.54745 0.52461 0.9972 0.0
O180 O 0.50255 0.53774 0.96097 0.0
O181 O 0.57725 0.50099 0.102 0.0
O182 O 0.50142 0.53963 0.0521 0.0
O183 O 0.47899 0.54425 0.98821 0.0
C184 C 0.48908 0.48114 0.06935 0.0
C185 C 0.43686 0.50614 0.86881 0.0
C186 C 0.42181 0.48657 0.8109 0.0
C187 C 0.4073 0.51282 0.79241 0.0
C188 C 0.42209 0.53205 0.84975 0.0
C189 C 0.40749 0.53534 0.81175 0.0
C190 C 0.43668 0.48338 0.84929 0.0
C191 C 0.53693 0.46596 0.01714 0.0
C192 C 0.45203 0.50316 0.90904 0.0
C193 C 0.39183 0.43459 0.02938 0.0
C194 C 0.40975 0.41176 0.02853 0.0
C195 C 0.53047 0.53932 0.9665 0.0
C196 C 0.58828 0.51368 0.16434 0.0
C197 C 0.60025 0.5293 0.22554 0.0
C198 C 0.62066 0.50657 0.23943 0.0
C199 C 0.60888 0.49119 0.17896 0.0
C200 C 0.58414 0.53286 0.18772 0.0
C201 C 0.62493 0.48772 0.21623 0.0
C202 C 0.48219 0.55191 0.02162 0.0
C203 C 0.57128 0.51651 0.12491 0.0
H204 H 0.39535 0.51577 0.76311 0.0
H205 H 0.42195 0.54986 0.8642 0.0
H206 H 0.39614 0.55539 0.79729 0.0
H207 H 0.44801 0.46332 0.86389 0.0
H208 H 0.63363 0.50357 0.26818 0.0
H209 H 0.61256 0.47611 0.16164 0.0
H210 H 0.56827 0.55024 0.17678 0.0
H211 H 0.64076 0.47036 0.2272 0.0
H212 H 0.21827 0.23211 0.47163 0.0
H213 H 0.17935 0.19927 0.48026 0.0
H214 H 0.2402 0.13387 0.55054 0.0
H215 H 0.27929 0.16639 0.54128 0.0
H216 H 0.20232 0.11064 0.50328 0.0
H217 H 0.19796 0.17329 0.58988 0.0
H218 H 0.19509 0.21983 0.60923 0.0
H219 H 0.11429 0.23967 0.53053 0.0
H220 H 0.11686 0.19338 0.51034 0.0
H221 H 0.07359 0.05808 0.59902 0.0
H222 H 0.11385 0.08963 0.5926 0.0
H223 H 0.10621 0.07916 0.47605 0.0
H224 H 0.06646 0.04696 0.48274 0.0
H225 H 0.11884 0.13925 0.54979 0.0
H226 H 0.16996 0.0843 0.45114 0.0
H227 H 0.17509 0.03604 0.43752 0.0
H228 H 0.16684 0.99734 0.55159 0.0
H229 H 0.16165 0.04537 0.56596 0.0
C230 C 0.22339 0.21076 0.48899 0.0
C231 C 0.25191 0.20193 0.50588 0.0
C232 C 0.20108 0.19201 0.49402 0.0
C233 C 0.20676 0.16416 0.51645 0.0
C234 C 0.23524 0.15523 0.53311 0.0
C235 C 0.25758 0.1739 0.5279 0.0
C236 C 0.18305 0.14426 0.52236 0.0
C237 C 0.18408 0.11691 0.51347 0.0
C238 C 0.15939 0.15218 0.53619 0.0
C239 C 0.15774 0.17999 0.54835 0.0
C240 C 0.17968 0.18767 0.5765 0.0
C241 C 0.17809 0.21399 0.58765 0.0
C242 C 0.15456 0.23273 0.57105 0.0
C243 C 0.13253 0.22515 0.54333 0.0
C244 C 0.13402 0.19886 0.53205 0.0
C245 C 0.08053 0.06251 0.57204 0.0
C246 C 0.06698 0.04996 0.54143 0.0
C247 C 0.10352 0.08057 0.56838 0.0
C248 C 0.11338 0.08655 0.534 0.0
C249 C 0.09948 0.07441 0.50315 0.0
C250 C 0.07668 0.0561 0.50694 0.0
C251 C 0.13797 0.10571 0.5304 0.0
C252 C 0.13708 0.13295 0.53962 0.0
C253 C 0.16205 0.09745 0.51766 0.0
C254 C 0.16519 0.06844 0.50948 0.0
C255 C 0.16928 0.06549 0.47334 0.0
C256 C 0.17212 0.03818 0.46547 0.0
C257 C 0.17112 0.01365 0.49363 0.0
C258 C 0.16735 0.01637 0.52975 0.0
C259 C 0.16441 0.04363 0.53774 0.0
H260 H 0.17336 0.99253 0.48751 0.0
H261 H 0.15337 0.25309 0.57972 0.0
H262 H 0.26805 0.70931 0.02496 0.0
H263 H 0.30487 0.67508 0.02244 0.0
H264 H 0.37031 0.73306 0.05846 0.0
H265 H 0.33349 0.76782 0.05983 0.0
H266 H 0.38434 0.71086 0.0052 0.0
H267 H 0.35382 0.67233 0.12126 0.0
H268 H 0.31946 0.6554 0.16214 0.0
H269 H 0.29315 0.5895 0.09809 0.0
H270 H 0.32709 0.60629 0.05649 0.0
H271 H 0.47144 0.56462 0.0874 0.0
H272 H 0.4389 0.6019 0.09326 0.0
H273 H 0.4158 0.62756 0.9701 0.0
H274 H 0.44906 0.59106 0.96408 0.0
H275 H 0.38364 0.60904 0.07198 0.0
H276 H 0.39858 0.69835 0.94364 0.0
H277 H 0.4365 0.71597 0.90898 0.0
H278 H 0.50061 0.68223 0.0093 0.0
H279 H 0.46311 0.66467 0.04469 0.0
C280 C 0.29028 0.7148 0.03234 0.0
C281 C 0.29783 0.74125 0.04279 0.0
C282 C 0.31135 0.69513 0.03105 0.0
C283 C 0.34045 0.70123 0.04088 0.0
C284 C 0.34803 0.72781 0.05081 0.0
C285 C 0.32695 0.74764 0.05169 0.0
C286 C 0.36294 0.67989 0.04077 0.0
C287 C 0.38418 0.68861 0.01985 0.0
C288 C 0.36322 0.65094 0.06055 0.0
C289 C 0.34282 0.64074 0.08556 0.0
C290 C 0.34056 0.65436 0.11573 0.0
C291 C 0.32119 0.64477 0.13905 0.0
C292 C 0.30409 0.62143 0.13266 0.0
C293 C 0.30638 0.60759 0.10298 0.0
C294 C 0.32571 0.61712 0.07955 0.0
C295 C 0.45968 0.57842 0.06156 0.0
C296 C 0.46292 0.57491 0.02526 0.0
C297 C 0.44094 0.59961 0.06496 0.0
C298 C 0.42504 0.61775 0.03216 0.0
C299 C 0.42818 0.61421 0.99587 0.0
C300 C 0.44708 0.59318 0.99246 0.0
C301 C 0.4047 0.6399 0.03586 0.0
C302 C 0.38383 0.63131 0.05741 0.0
C303 C 0.40526 0.66911 0.01754 0.0
C304 C 0.428 0.67998 0.99669 0.0
C305 C 0.42077 0.6948 0.95835 0.0
C306 C 0.44219 0.70473 0.93856 0.0
C307 C 0.47095 0.70011 0.95688 0.0
C308 C 0.47834 0.68565 0.99509 0.0
C309 C 0.457 0.67567 0.01501 0.0
H310 H 0.4875 0.7078 0.94151 0.0
H311 H 0.2891 0.61404 0.15075 0.0
H312 H 0.77486 0.76729 0.57734 0.0
H313 H 0.81463 0.79924 0.5706 0.0
H314 H 0.77635 0.86012 0.62023 0.0
H315 H 0.73579 0.82875 0.6253 0.0
H316 H 0.79423 0.88834 0.56336 0.0
H317 H 0.83817 0.81542 0.66929 0.0
H318 H 0.85261 0.76632 0.70543 0.0
H319 H 0.90034 0.7544 0.62198 0.0
H320 H 0.88588 0.80333 0.58506 0.0
H321 H 0.92829 0.9616 0.60925 0.0
H322 H 0.8891 0.9291 0.61846 0.0
H323 H 0.89704 0.89599 0.51933 0.0
H324 H 0.93535 0.92936 0.50864 0.0
H325 H 0.89575 0.85452 0.60301 0.0
H326 H 0.8461 0.92811 0.49517 0.0
H327 H 0.83269 0.97848 0.46363 0.0
H328 H 0.79757 0.98989 0.55901 0.0
H329 H 0.81099 0.93958 0.59121 0.0
C330 C 0.77504 0.78737 0.58715 0.0
C331 C 0.75219 0.79543 0.60196 0.0
C332 C 0.79791 0.80562 0.58346 0.0
C333 C 0.79888 0.83204 0.59543 0.0
C334 C 0.77621 0.83992 0.61073 0.0
C335 C 0.75306 0.8219 0.61378 0.0
C336 C 0.82289 0.85191 0.59057 0.0
C337 C 0.81638 0.88084 0.57256 0.0
C338 C 0.85199 0.8424 0.60211 0.0
C339 C 0.86071 0.81295 0.62421 0.0
C340 C 0.85156 0.80225 0.65849 0.0
C341 C 0.85978 0.77447 0.67914 0.0
C342 C 0.87731 0.75723 0.66596 0.0
C343 C 0.88673 0.76777 0.63213 0.0
C344 C 0.87855 0.79554 0.61135 0.0
C345 C 0.92165 0.94756 0.58921 0.0
C346 C 0.93518 0.94802 0.55831 0.0
C347 C 0.8993 0.92895 0.59462 0.0
C348 C 0.89034 0.91014 0.56966 0.0
C349 C 0.90381 0.91031 0.53898 0.0
C350 C 0.92574 0.92935 0.53302 0.0
C351 C 0.86678 0.89036 0.57562 0.0
C352 C 0.87349 0.86167 0.59396 0.0
C353 C 0.83795 0.90011 0.56503 0.0
C354 C 0.82981 0.93025 0.54573 0.0
C355 C 0.83574 0.94145 0.50954 0.0
C356 C 0.82803 0.96993 0.49148 0.0
C357 C 0.81435 0.9874 0.50935 0.0
C358 C 0.80821 0.97635 0.54523 0.0
C359 C 0.8158 0.94784 0.56335 0.0
H360 H 0.80849 0.00948 0.49537 0.0
H361 H 0.88366 0.73572 0.68199 0.0
H362 H 0.65906 0.22169 0.04086 0.0
H363 H 0.62908 0.26448 0.03413 0.0
H364 H 0.70177 0.31801 0.02472 0.0
H365 H 0.73196 0.27531 0.03167 0.0
H366 H 0.67165 0.33383 0.0725 0.0
H367 H 0.65145 0.31419 0.94585 0.0
H368 H 0.63739 0.28453 0.89706 0.0
H369 H 0.55551 0.27165 0.92737 0.0
H370 H 0.56924 0.30092 0.97673 0.0
H371 H 0.55712 0.45305 0.9573 0.0
H372 H 0.58832 0.412 0.95896 0.0
H373 H 0.58551 0.37994 0.0776 0.0
H374 H 0.55532 0.42124 0.07637 0.0
H375 H 0.58317 0.35587 0.97148 0.0
H376 H 0.64704 0.3466 0.12654 0.0
H377 H 0.66174 0.37739 0.17381 0.0
H378 H 0.65925 0.45101 0.08294 0.0
H379 H 0.64469 0.42067 0.03496 0.0
C380 C 0.6687 0.24256 0.03738 0.0
C381 C 0.69792 0.24507 0.03673 0.0
C382 C 0.65149 0.26702 0.03335 0.0
C383 C 0.66311 0.29449 0.02853 0.0
C384 C 0.69233 0.29704 0.02835 0.0
C385 C 0.70955 0.2726 0.03224 0.0
C386 C 0.64485 0.32053 0.0241 0.0
C387 C 0.65234 0.33869 0.05036 0.0
C388 C 0.61983 0.32708 0.99494 0.0
C389 C 0.61148 0.30953 0.96522 0.0
C390 C 0.63053 0.30485 0.94232 0.0
C391 C 0.62261 0.28814 0.91452 0.0
C392 C 0.5956 0.27616 0.90918 0.0
C393 C 0.57644 0.28092 0.93157 0.0
C394 C 0.58427 0.29759 0.95943 0.0
C395 C 0.56314 0.43714 0.98362 0.0
C396 C 0.55408 0.44042 0.01679 0.0
C397 C 0.58094 0.41372 0.98458 0.0
C398 C 0.58978 0.39315 0.01864 0.0
C399 C 0.57969 0.39589 0.05129 0.0
C400 C 0.56233 0.41945 0.05051 0.0
C401 C 0.60971 0.36895 0.02027 0.0
C402 C 0.60254 0.35111 0.99353 0.0
C403 C 0.63522 0.36286 0.04877 0.0
C404 C 0.6446 0.38134 0.07718 0.0
C405 C 0.64977 0.36934 0.11661 0.0
C406 C 0.658 0.38673 0.1435 0.0
C407 C 0.66129 0.41617 0.13132 0.0
C408 C 0.65649 0.42825 0.09222 0.0
C409 C 0.64824 0.41096 0.06517 0.0
H410 H 0.66761 0.42962 0.15218 0.0
H411 H 0.5895 0.26323 0.88765 0.0
H412 H 0.16101 0.92782 0.11036 0.0
H413 H 0.13948 0.9373 0.16166 0.0
H414 H 0.18185 0.86114 0.237 0.0
H415 H 0.20322 0.85114 0.18523 0.0
H416 H 0.12712 0.86366 0.2413 0.0
H417 H 0.20369 0.92857 0.2492 0.0
H418 H 0.2349 0.96662 0.22563 0.0
H419 H 0.16324 0.02636 0.18712 0.0
H420 H 0.13149 0.98856 0.20996 0.0
H421 H 0.07766 0.90037 0.39774 0.0
H422 H 0.10995 0.88986 0.35795 0.0
H423 H 0.07181 0.96074 0.26819 0.0
H424 H 0.04 0.97184 0.30815 0.0
H425 H 0.1297 0.95889 0.27799 0.0
H426 H 0.05284 0.89209 0.26436 0.0
H427 H 0.0218 0.85388 0.28804 0.0
H428 H 0.09517 0.79752 0.33825 0.0
H429 H 0.12669 0.83557 0.31528 0.0
C430 C 0.16598 0.91313 0.13788 0.0
C431 C 0.18388 0.8887 0.14367 0.0
C432 C 0.15375 0.9187 0.16733 0.0
C433 C 0.15933 0.90017 0.20341 0.0
C434 C 0.17733 0.87581 0.20944 0.0
C435 C 0.18957 0.87016 0.17986 0.0
C436 C 0.14517 0.90571 0.23399 0.0
C437 C 0.12819 0.88429 0.24991 0.0
C438 C 0.14613 0.93278 0.24481 0.0
C439 C 0.16516 0.95564 0.23106 0.0
C440 C 0.19453 0.94976 0.23545 0.0
C441 C 0.21233 0.9713 0.22226 0.0
C442 C 0.20105 0.99888 0.20483 0.0
C443 C 0.17194 0.00499 0.20061 0.0
C444 C 0.15404 0.98352 0.21372 0.0
C445 C 0.07639 0.91393 0.36971 0.0
C446 C 0.05613 0.93683 0.356 0.0
C447 C 0.09471 0.90776 0.3469 0.0
C448 C 0.09307 0.92432 0.30992 0.0
C449 C 0.07339 0.94763 0.29658 0.0
C450 C 0.05505 0.95378 0.31931 0.0
C451 C 0.1113 0.91705 0.28462 0.0
C452 C 0.129 0.93815 0.26972 0.0
C453 C 0.11109 0.88967 0.27483 0.0
C454 C 0.09214 0.86677 0.28849 0.0
C455 C 0.06237 0.87162 0.28071 0.0
C456 C 0.04469 0.84998 0.29396 0.0
C457 C 0.05651 0.82332 0.31474 0.0
C458 C 0.08604 0.81821 0.32221 0.0
C459 C 0.10383 0.83979 0.30907 0.0
H460 H 0.04279 0.80659 0.32496 0.0
H461 H 0.21487 0.01552 0.19464 0.0
H462 H 0.58669 0.71465 0.67909 0.0
H463 H 0.57192 0.68719 0.73569 0.0
H464 H 0.65863 0.65559 0.78307 0.0
H465 H 0.67373 0.68334 0.72643 0.0
H466 H 0.61786 0.61214 0.78146 0.0
H467 H 0.63198 0.70146 0.824 0.0
H468 H 0.62621 0.75371 0.81871 0.0
H469 H 0.53544 0.74555 0.80628 0.0
H470 H 0.54061 0.69329 0.81093 0.0
H471 H 0.58397 0.53483 0.95268 0.0
H472 H 0.60599 0.56733 0.90683 0.0
H473 H 0.52653 0.61648 0.86404 0.0
H474 H 0.5053 0.58544 0.91246 0.0
H475 H 0.56751 0.65189 0.86654 0.0
H476 H 0.55099 0.56535 0.81715 0.0
H477 H 0.55417 0.51323 0.81941 0.0
H478 H 0.64573 0.51617 0.84021 0.0
H479 H 0.64311 0.56828 0.83855 0.0
C480 C 0.60275 0.70222 0.70178 0.0
C481 C 0.6314 0.70116 0.69821 0.0
C482 C 0.59426 0.68658 0.73419 0.0
C483 C 0.61417 0.66939 0.76364 0.0
C484 C 0.64294 0.66877 0.76067 0.0
C485 C 0.65155 0.68476 0.7284 0.0
C486 C 0.6044 0.65071 0.79615 0.0
C487 C 0.60733 0.6208 0.80058 0.0
C488 C 0.58983 0.66204 0.82022 0.0
C489 C 0.58667 0.69347 0.8175 0.0
C490 C 0.61076 0.71083 0.81981 0.0
C491 C 0.6076 0.74045 0.81699 0.0
C492 C 0.58047 0.75295 0.81208 0.0
C493 C 0.55644 0.73585 0.81006 0.0
C494 C 0.55948 0.70622 0.81283 0.0
C495 C 0.57143 0.55299 0.93417 0.0
C496 C 0.54314 0.55793 0.93683 0.0
C497 C 0.58387 0.57129 0.90738 0.0
C498 C 0.56787 0.59426 0.88143 0.0
C499 C 0.53942 0.599 0.88373 0.0
C500 C 0.52719 0.58106 0.91118 0.0
C501 C 0.58063 0.61317 0.85169 0.0
C502 C 0.57823 0.64314 0.84769 0.0
C503 C 0.59524 0.6019 0.82751 0.0
C504 C 0.59686 0.57065 0.82809 0.0
C505 C 0.57181 0.55484 0.82242 0.0
C506 C 0.57351 0.52531 0.82358 0.0
C507 C 0.60014 0.51139 0.83005 0.0
C508 C 0.62512 0.52699 0.83525 0.0
C509 C 0.62354 0.55652 0.83417 0.0
H510 H 0.60141 0.48852 0.83096 0.0
H511 H 0.57807 0.77589 0.8099 0.0
H512 H 0.78606 0.11221 0.17491 0.0
H513 H 0.81445 0.08832 0.23704 0.0
H514 H 0.88378 0.1451 0.2198 0.0
H515 H 0.85596 0.16817 0.1571 0.0
H516 H 0.90426 0.09399 0.24151 0.0
H517 H 0.84041 0.14828 0.28732 0.0
H518 H 0.79414 0.16621 0.29441 0.0
H519 H 0.77219 0.08016 0.33973 0.0
H520 H 0.81819 0.06165 0.33241 0.0
H521 H 0.98594 0.06652 0.43321 0.0
H522 H 0.95469 0.08838 0.37207 0.0
H523 H 0.90051 0.0151 0.38111 0.0
H524 H 0.93209 0.99289 0.44227 0.0
H525 H 0.87171 0.07183 0.36444 0.0
H526 H 0.93819 0.01913 0.31864 0.0
H527 H 0.98606 0.00402 0.31352 0.0
H528 H 0.00478 0.09167 0.27132 0.0
H529 H 0.95702 0.1074 0.27625 0.0
C530 C 0.80718 0.11989 0.18467 0.0
C531 C 0.81881 0.14201 0.16104 0.0
C532 C 0.82339 0.10626 0.2203 0.0
C533 C 0.8513 0.11492 0.23334 0.0
C534 C 0.86241 0.13783 0.21036 0.0
C535 C 0.84643 0.15111 0.17455 0.0
C536 C 0.86971 0.09904 0.26958 0.0
C537 C 0.89715 0.08956 0.26842 0.0
C538 C 0.86038 0.09251 0.3047 0.0
C539 C 0.8326 0.10354 0.30885 0.0
C540 C 0.8256 0.13314 0.29844 0.0
C541 C 0.79945 0.14342 0.30258 0.0
C542 C 0.78019 0.12432 0.31739 0.0
C543 C 0.78709 0.09492 0.32818 0.0
C544 C 0.81321 0.08453 0.32406 0.0
C545 C 0.96758 0.05492 0.42182 0.0
C546 C 0.96139 0.02803 0.44214 0.0
C547 C 0.94978 0.0674 0.38701 0.0
C548 C 0.92537 0.0533 0.37216 0.0
C549 C 0.9193 0.02625 0.39219 0.0
C550 C 0.93742 0.01351 0.42679 0.0
C551 C 0.906 0.0673 0.33604 0.0
C552 C 0.87852 0.07633 0.33733 0.0
C553 C 0.91541 0.07389 0.30117 0.0
C554 C 0.94411 0.06446 0.2981 0.0
C555 C 0.95258 0.03521 0.30854 0.0
C556 C 0.97968 0.02653 0.30564 0.0
C557 C 0.9985 0.04685 0.29232 0.0
C558 C 0.9902 0.07594 0.28169 0.0
C559 C 0.96309 0.08475 0.28442 0.0
H560 H 0.01947 0.04005 0.29013 0.0
H561 H 0.75996 0.13233 0.3206 0.0
H562 H 0.37686 0.35826 0.53949 0.0
H563 H 0.3926 0.38141 0.59365 0.0
H564 H 0.36407 0.3097 0.66849 0.0
H565 H 0.34747 0.28645 0.61376 0.0
H566 H 0.34914 0.35894 0.68395 0.0
H567 H 0.43606 0.31932 0.67063 0.0
H568 H 0.47284 0.30799 0.63709 0.0
H569 H 0.48764 0.39793 0.60355 0.0
H570 H 0.45066 0.40986 0.63642 0.0
H571 H 0.41157 0.42974 0.83617 0.0
H572 H 0.4044 0.3918 0.79855 0.0
H573 H 0.42137 0.45186 0.70056 0.0
H574 H 0.4291 0.4895 0.73808 0.0
H575 H 0.44588 0.3994 0.70723 0.0
H576 H 0.35306 0.43788 0.712 0.0
H577 H 0.31609 0.4489 0.74549 0.0
H578 H 0.31331 0.35944 0.79645 0.0
H579 H 0.35056 0.34796 0.7636 0.0
C580 C 0.37394 0.34725 0.56742 0.0
C581 C 0.36101 0.32037 0.57225 0.0
C582 C 0.38316 0.36049 0.5985 0.0
C583 C 0.38014 0.34704 0.63537 0.0
C584 C 0.36685 0.32038 0.64035 0.0
C585 C 0.35737 0.30713 0.60906 0.0
C586 C 0.39016 0.36155 0.66813 0.0
C587 C 0.37052 0.3672 0.68963 0.0
C588 C 0.418 0.37254 0.67548 0.0
C589 C 0.44045 0.36548 0.65586 0.0
C590 C 0.44703 0.3367 0.65591 0.0
C591 C 0.46794 0.33017 0.63704 0.0
C592 C 0.48254 0.35223 0.61816 0.0
C593 C 0.47631 0.38087 0.61819 0.0
C594 C 0.45541 0.38753 0.637 0.0
C595 C 0.4143 0.43465 0.80683 0.0
C596 C 0.42062 0.46266 0.78993 0.0
C597 C 0.40999 0.41303 0.7853 0.0
C598 C 0.41196 0.41911 0.74658 0.0
C599 C 0.41964 0.44669 0.73032 0.0
C600 C 0.42385 0.46824 0.75171 0.0
C601 C 0.40457 0.39753 0.72198 0.0
C602 C 0.42473 0.39056 0.70206 0.0
C603 C 0.37729 0.38522 0.71624 0.0
C604 C 0.3548 0.39212 0.73574 0.0
C605 C 0.3447 0.4206 0.73057 0.0
C606 C 0.32368 0.42693 0.74939 0.0
C607 C 0.31242 0.4049 0.77318 0.0
C608 C 0.3221 0.37649 0.77809 0.0
C609 C 0.34315 0.37006 0.75937 0.0
H610 H 0.29615 0.40983 0.78773 0.0
H611 H 0.49871 0.34712 0.60355 0.0
H612 H 0.60373 0.63648 0.51547 0.0
H613 H 0.59952 0.61365 0.4605 0.0
H614 H 0.61427 0.69457 0.39003 0.0
H615 H 0.61859 0.71785 0.44532 0.0
H616 H 0.56916 0.66225 0.35387 0.0
H617 H 0.66736 0.64947 0.4186 0.0
H618 H 0.70747 0.63667 0.4743 0.0
H619 H 0.67916 0.54989 0.49547 0.0
H620 H 0.63862 0.56227 0.4402 0.0
H621 H 0.59751 0.58828 0.20892 0.0
H622 H 0.59747 0.6204 0.25395 0.0
H623 H 0.59434 0.54689 0.34426 0.0
H624 H 0.59461 0.51491 0.29965 0.0
H625 H 0.63642 0.5807 0.36605 0.0
H626 H 0.53672 0.5938 0.30415 0.0
H627 H 0.49598 0.6063 0.24923 0.0
H628 H 0.5265 0.69186 0.2228 0.0
H629 H 0.56767 0.67974 0.27729 0.0
C630 C 0.60601 0.64956 0.48833 0.0
C631 C 0.61171 0.67898 0.48488 0.0
C632 C 0.60359 0.63643 0.45691 0.0
C633 C 0.60682 0.65237 0.42131 0.0
C634 C 0.61174 0.68192 0.41732 0.0
C635 C 0.61434 0.69512 0.44895 0.0
C636 C 0.60604 0.63755 0.389 0.0
C637 C 0.58414 0.64474 0.35611 0.0
C638 C 0.62535 0.61447 0.39228 0.0
C639 C 0.64982 0.60687 0.42542 0.0
C640 C 0.66956 0.62771 0.4353 0.0
C641 C 0.6924 0.62052 0.46677 0.0
C642 C 0.69583 0.5925 0.48846 0.0
C643 C 0.67647 0.57159 0.47866 0.0
C644 C 0.65357 0.57868 0.44723 0.0
C645 C 0.59626 0.5791 0.23822 0.0
C646 C 0.59635 0.54911 0.25091 0.0
C647 C 0.59626 0.59743 0.26392 0.0
C648 C 0.59602 0.58604 0.30255 0.0
C649 C 0.59481 0.55617 0.3147 0.0
C650 C 0.59497 0.53791 0.2892 0.0
C651 C 0.599 0.60474 0.33121 0.0
C652 C 0.62151 0.59835 0.36347 0.0
C653 C 0.5802 0.62844 0.32726 0.0
C654 C 0.55546 0.63575 0.29452 0.0
C655 C 0.53489 0.6152 0.28641 0.0
C656 C 0.51169 0.62223 0.25541 0.0
C657 C 0.5087 0.64982 0.23246 0.0
C658 C 0.52887 0.67047 0.24055 0.0
C659 C 0.55214 0.66354 0.27151 0.0
H660 H 0.49072 0.65523 0.20847 0.0
H661 H 0.71352 0.58697 0.51281 0.0
H662 H 0.81622 0.16748 0.91178 0.0
H663 H 0.83652 0.15282 0.86185 0.0
H664 H 0.86717 0.07285 0.93886 0.0
H665 H 0.84711 0.08724 0.98873 0.0
H666 H 0.90886 0.10001 0.90625 0.0
H667 H 0.81166 0.07383 0.8648 0.0
H668 H 0.75945 0.08199 0.84463 0.0
H669 H 0.77061 0.1471 0.74884 0.0
H670 H 0.82295 0.1396 0.76875 0.0
H671 H 0.95879 0.02678 0.78354 0.0
H672 H 0.92959 0.03949 0.82567 0.0
H673 H 0.89818 0.11614 0.74173 0.0
H674 H 0.92699 0.10313 0.69902 0.0
H675 H 0.85628 0.09248 0.7761 0.0
H676 H 0.95301 0.11918 0.8171 0.0
H677 H 0.00527 0.11106 0.8363 0.0
H678 H 0.99509 0.04614 0.9328 0.0
H679 H 0.94271 0.05357 0.91383 0.0
C680 C 0.82701 0.14665 0.91792 0.0
C681 C 0.83017 0.1286 0.95432 0.0
C682 C 0.83852 0.13827 0.88932 0.0
C683 C 0.85333 0.11172 0.89665 0.0
C684 C 0.85589 0.09345 0.93263 0.0
C685 C 0.84434 0.10172 0.9611 0.0
C686 C 0.86766 0.10354 0.86779 0.0
C687 C 0.89728 0.09801 0.87797 0.0
C688 C 0.85269 0.10179 0.8305 0.0
C689 C 0.82124 0.10638 0.81852 0.0
C690 C 0.803 0.09008 0.83964 0.0
C691 C 0.77338 0.09454 0.82821 0.0
C692 C 0.76172 0.11511 0.79554 0.0
C693 C 0.77967 0.13121 0.77418 0.0
C694 C 0.80932 0.12685 0.78551 0.0
C695 C 0.94549 0.04624 0.77397 0.0
C696 C 0.94539 0.06416 0.73823 0.0
C697 C 0.92883 0.05349 0.79805 0.0
C698 C 0.91217 0.07909 0.7872 0.0
C699 C 0.91096 0.09634 0.75074 0.0
C700 C 0.92741 0.08891 0.72639 0.0
C701 C 0.89739 0.08855 0.81483 0.0
C702 C 0.86781 0.09449 0.80439 0.0
C703 C 0.91239 0.09087 0.85192 0.0
C704 C 0.94392 0.08678 0.86386 0.0
C705 C 0.96191 0.10307 0.8423 0.0
C706 C 0.99155 0.09859 0.85314 0.0
C707 C 0.00349 0.07805 0.88569 0.0
C708 C 0.98581 0.06202 0.90757 0.0
C709 C 0.95614 0.06638 0.89681 0.0
H710 H 0.02644 0.07458 0.89401 0.0
H711 H 0.73878 0.11852 0.78672 0.0
H712 H 0.42527 0.37391 0.38696 0.0
H713 H 0.43993 0.39651 0.32808 0.0
H714 H 0.37826 0.34796 0.26392 0.0
H715 H 0.36346 0.32491 0.32312 0.0
H716 H 0.42983 0.34995 0.24136 0.0
H717 H 0.36311 0.41666 0.26062 0.0
H718 H 0.34244 0.4466 0.2968 0.0
H719 H 0.41973 0.49381 0.31185 0.0
H720 H 0.44102 0.46386 0.27623 0.0
H721 H 0.43496 0.48688 0.08044 0.0
H722 H 0.41342 0.45902 0.1308 0.0
H723 H 0.49312 0.41141 0.18007 0.0
H724 H 0.51433 0.43832 0.12859 0.0
H725 H 0.42639 0.45647 0.20481 0.0
H726 H 0.48116 0.34486 0.22553 0.0
H727 H 0.49907 0.31485 0.18698 0.0
H728 H 0.4395 0.3572 0.08649 0.0
H729 H 0.42121 0.38753 0.12431 0.0
C730 C 0.41481 0.36789 0.36042 0.0
C731 C 0.39303 0.34771 0.35975 0.0
C732 C 0.4232 0.38093 0.32673 0.0
C733 C 0.40994 0.37422 0.29154 0.0
C734 C 0.38871 0.35351 0.29078 0.0
C735 C 0.38023 0.34043 0.3246 0.0
C736 C 0.41806 0.38934 0.25566 0.0
C737 C 0.42899 0.37323 0.23324 0.0
C738 C 0.4165 0.41971 0.2447 0.0
C739 C 0.40373 0.43786 0.266 0.0
C740 C 0.37577 0.43329 0.27189 0.0
C741 C 0.36394 0.45028 0.29225 0.0
C742 C 0.37979 0.47206 0.30668 0.0
C743 C 0.40749 0.47692 0.30069 0.0
C744 C 0.41944 0.45996 0.28037 0.0
C745 C 0.44768 0.47 0.10143 0.0
C746 C 0.47617 0.46445 0.10012 0.0
C747 C 0.43544 0.4543 0.13048 0.0
C748 C 0.45151 0.43284 0.159 0.0
C749 C 0.48009 0.42745 0.15797 0.0
C750 C 0.49229 0.44304 0.12875 0.0
C751 C 0.43881 0.41714 0.19087 0.0
C752 C 0.42707 0.43318 0.21265 0.0
C753 C 0.43924 0.38673 0.20084 0.0
C754 C 0.44996 0.36858 0.17776 0.0
C755 C 0.47184 0.34774 0.19521 0.0
C756 C 0.48212 0.33075 0.17344 0.0
C757 C 0.47053 0.33426 0.13424 0.0
C758 C 0.44861 0.35473 0.11674 0.0
C759 C 0.43832 0.37186 0.13832 0.0
H760 H 0.47847 0.32106 0.11744 0.0
H761 H 0.37058 0.48519 0.32244 0.0
H762 H 0.17188 0.82716 0.9213 0.0
H763 H 0.14276 0.85017 0.85938 0.0
H764 H 0.1749 0.9328 0.87716 0.0
H765 H 0.20308 0.91001 0.93984 0.0
H766 H 0.12092 0.93774 0.85511 0.0
H767 H 0.19332 0.89598 0.80913 0.0
H768 H 0.22512 0.85803 0.8018 0.0
H769 H 0.15227 0.81208 0.75698 0.0
H770 H 0.12 0.84951 0.76458 0.0
H771 H 0.06179 0.00984 0.66039 0.0
H772 H 0.09304 0.98956 0.72231 0.0
H773 H 0.05353 0.90754 0.72072 0.0
H774 H 0.02166 0.92794 0.65956 0.0
H775 H 0.11238 0.90388 0.7334 0.0
H776 H 0.04059 0.94697 0.7812 0.0
H777 H 0.01014 0.98463 0.79211 0.0
H778 H 0.08466 0.03011 0.83246 0.0
H779 H 0.11556 0.99301 0.82119 0.0
C780 C 0.17309 0.85017 0.91174 0.0
C781 C 0.18972 0.86678 0.93552 0.0
C782 C 0.1565 0.86333 0.8762 0.0
C783 C 0.15673 0.89327 0.86329 0.0
C784 C 0.17421 0.90971 0.88646 0.0
C785 C 0.1904 0.89664 0.92225 0.0
C786 C 0.13727 0.9077 0.82709 0.0
C787 C 0.11954 0.93069 0.82828 0.0
C788 C 0.13485 0.89811 0.79222 0.0
C789 C 0.15422 0.87542 0.78788 0.0
C790 C 0.18406 0.87764 0.79808 0.0
C791 C 0.20218 0.85624 0.79379 0.0
C792 C 0.19073 0.83261 0.77905 0.0
C793 C 0.16112 0.83036 0.76847 0.0
C794 C 0.1429 0.85167 0.77275 0.0
C795 C 0.05933 0.98768 0.67371 0.0
C796 C 0.03949 0.97036 0.65505 0.0
C797 C 0.07726 0.9761 0.70898 0.0
C798 C 0.07562 0.94704 0.72605 0.0
C799 C 0.05522 0.92999 0.70796 0.0
C800 C 0.03713 0.94162 0.67297 0.0
C801 C 0.09626 0.93384 0.76153 0.0
C802 C 0.11413 0.91108 0.76015 0.0
C803 C 0.09912 0.94394 0.79601 0.0
C804 C 0.0804 0.96729 0.80005 0.0
C805 C 0.05049 0.96523 0.79178 0.0
C806 C 0.03314 0.98641 0.79824 0.0
C807 C 0.04549 0.00963 0.8132 0.0
C808 C 0.07515 0.01205 0.82102 0.0
C809 C 0.09257 0.99097 0.81457 0.0
H810 H 0.03212 0.02569 0.81896 0.0
H811 H 0.20479 0.81608 0.77574 0.0
loop_
_geom_bond_atom_site_label_1
_geom_bond_atom_site_label_2
_geom_bond_distance
_geom_bond_site_symmetry_2
_ccdc_geom_bond_type
O0 Cd1 2.300 1_556 S
O0 C7 1.275 . S
Cd1 O0 2.300 1_554 S
Cd1 O9 2.381 . S
Cd1 O10 2.378 . S
O2 Cd3 2.385 . S
O2 C7 1.255 1_554 S
Cd3 O2 2.385 . S
Cd3 O4 2.317 . S
O4 Cd3 2.317 . S
O4 C5 1.232 . S
C5 O4 1.232 . S
C5 O6 1.218 . S
O6 C5 1.218 . S
C7 O0 1.275 . S
C7 O2 1.255 1_556 S
C8 O9 1.258 . S
C8 O10 1.256 . S
O9 Cd1 2.381 . S
O9 C8 1.258 . S
O10 Cd1 2.378 . S
O10 C8 1.256 . S
O11 Cd12 2.300 . S
O11 C18 1.275 . S
Cd12 O11 2.300 . S
Cd12 O20 2.381 . S
Cd12 O21 2.378 . S
O13 Cd14 2.385 . S
O13 C18 1.255 . S
Cd14 O13 2.385 . S
Cd14 O15 2.317 . S
O15 Cd14 2.317 . S
O15 C16 1.232 . S
C16 O15 1.232 . S
C16 O17 1.218 . S
O17 C16 1.218 . S
C18 O11 1.275 . S
C18 O13 1.255 . S
C19 O20 1.258 . S
C19 O21 1.256 . S
O20 Cd12 2.381 . S
O20 C19 1.258 . S
O21 Cd12 2.378 . S
O21 C19 1.256 . S
O22 Cd23 2.300 . S
O22 C29 1.275 . S
Cd23 O22 2.300 . S
Cd23 O31 2.381 . S
Cd23 O32 2.378 . S
O24 Cd25 2.385 . S
O24 C29 1.255 . S
Cd25 O24 2.385 . S
Cd25 O26 2.317 1_554 S
O26 Cd25 2.317 1_556 S
O26 C27 1.232 . S
C27 O26 1.232 . S
C27 O28 1.218 1_556 S
O28 C27 1.218 1_554 S
C29 O22 1.275 . S
C29 O24 1.255 . S
C30 O31 1.258 . S
C30 O32 1.256 . S
O31 Cd23 2.381 . S
O31 C30 1.258 . S
O32 Cd23 2.378 . S
O32 C30 1.256 . S
O33 Cd34 2.300 . S
O33 C40 1.275 . S
Cd34 O33 2.300 . S
Cd34 O42 2.381 . S
Cd34 O43 2.378 . S
O35 Cd36 2.385 . S
O35 C40 1.255 . S
Cd36 O35 2.385 . S
Cd36 O37 2.317 . S
O37 Cd36 2.317 . S
O37 C38 1.232 . S
C38 O37 1.232 . S
C38 O39 1.218 . S
O39 C38 1.218 . S
C40 O33 1.275 . S
C40 O35 1.255 . S
C41 O42 1.258 . S
C41 O43 1.256 . S
O42 Cd34 2.381 . S
O42 C41 1.258 . S
O43 Cd34 2.378 . S
O43 C41 1.256 . S
Tb44 N73 2.617 . S
Tb44 N79 2.572 . S
Tb44 O88 2.465 . S
Tb44 O89 2.387 . S
Tb44 O91 2.428 . S
Tb44 O92 2.308 1_565 S
Tb44 O96 2.349 1_465 S
Tb44 O99 2.393 1_455 S
Tb44 C108 2.802 . S
C45 N46 1.379 . S
C45 C48 1.416 . S
C45 C52 1.424 . S
N46 C45 1.379 . S
N46 C49 1.334 1_655 S
N46 Tb55 2.617 . S
C47 C49 1.390 . S
C47 C50 1.339 1_455 S
C47 H67 0.930 . S
C48 C45 1.416 . S
C48 C50 1.416 . S
C48 C54 1.448 . S
C49 N46 1.334 1_455 S
C49 C47 1.390 . S
C49 H60 0.930 . S
C50 C47 1.339 1_655 S
C50 C48 1.416 . S
C50 H71 0.930 . S
C51 C52 1.413 . S
C51 C53 1.427 . S
C51 C57 1.416 . S
C52 C45 1.424 . S
C52 C51 1.413 . S
C52 N56 1.361 . S
C53 C51 1.427 . S
C53 C54 1.328 . S
C53 H68 0.929 . S
C54 C48 1.448 . S
C54 C53 1.328 . S
C54 H69 0.930 . S
Tb55 N46 2.617 . S
Tb55 N56 2.572 . S
Tb55 O90 2.349 1_655 S
Tb55 O93 2.393 1_655 S
Tb55 O94 2.465 . S
Tb55 O95 2.387 . S
Tb55 O97 2.428 . S
Tb55 O98 2.308 1_545 S
Tb55 C119 2.802 . S
N56 C52 1.361 . S
N56 Tb55 2.572 . S
N56 C58 1.340 . S
C57 C51 1.416 . S
C57 C59 1.332 . S
C57 H65 0.931 . S
C58 N56 1.340 . S
C58 C59 1.407 . S
C58 H64 0.930 . S
C59 C57 1.332 . S
C59 C58 1.407 . S
C59 H61 0.929 . S
H60 C49 0.930 . S
H61 C59 0.929 . S
H62 C77 0.930 1_655 S
H63 C84 0.929 . S
H64 C58 0.930 . S
H65 C57 0.931 . S
H66 C80 0.930 . S
H67 C47 0.930 . S
H68 C53 0.929 . S
H69 C54 0.930 . S
H70 C75 0.930 1_655 S
H71 C50 0.930 . S
H72 C83 0.931 . S
N73 Tb44 2.617 . S
N73 C74 1.379 . S
N73 C77 1.334 . S
C74 N73 1.379 . S
C74 C76 1.416 . S
C74 C82 1.424 . S
C75 H70 0.930 1_455 S
C75 C77 1.390 . S
C75 C78 1.339 . S
C76 C74 1.416 . S
C76 C78 1.416 . S
C76 C109 1.448 . S
C77 H62 0.930 1_455 S
C77 N73 1.334 . S
C77 C75 1.390 . S
C78 C75 1.339 . S
C78 C76 1.416 . S
C78 H85 0.930 . S
N79 Tb44 2.572 . S
N79 C80 1.340 . S
N79 C82 1.361 . S
C80 H66 0.930 . S
C80 N79 1.340 . S
C80 C84 1.407 . S
C81 C82 1.413 . S
C81 C83 1.416 . S
C81 C110 1.427 . S
C82 C74 1.424 . S
C82 N79 1.361 . S
C82 C81 1.413 . S
C83 H72 0.931 . S
C83 C81 1.416 . S
C83 C84 1.332 . S
C84 H63 0.929 . S
C84 C80 1.407 . S
C84 C83 1.332 . S
H85 C78 0.930 . S
H86 C109 0.930 . S
H87 C110 0.929 . S
O88 Tb44 2.465 . S
O88 C108 1.264 . S
O89 Tb44 2.387 . S
O89 C100 1.264 . S
O90 Tb55 2.349 1_455 S
O90 C100 1.243 1_545 S
O91 Tb44 2.428 . S
O91 C108 1.256 . S
O92 Tb44 2.308 1_545 S
O92 C107 1.266 . S
O93 Tb55 2.393 1_455 S
O93 C107 1.248 . S
O94 Tb55 2.465 . S
O94 C119 1.264 . S
O95 Tb55 2.387 . S
O95 C111 1.264 . S
O96 Tb44 2.349 1_645 S
O96 C111 1.243 . S
O97 Tb55 2.428 . S
O97 C119 1.256 . S
O98 Tb55 2.308 1_565 S
O98 C118 1.266 . S
O99 Tb44 2.393 1_655 S
O99 C118 1.248 . S
C100 O89 1.264 . S
C100 O90 1.243 1_565 S
C101 C104 1.399 . S
C101 C106 1.383 . S
C101 C108 1.496 . S
C102 C103 1.399 . S
C102 C106 1.389 . S
C103 C102 1.399 . S
C103 C105 1.380 . S
C103 H120 0.929 . S
C104 C101 1.399 . S
C104 C105 1.392 . S
C104 H121 0.929 . S
C105 C103 1.380 . S
C105 C104 1.392 . S
C105 H122 0.929 . S
C106 C101 1.383 . S
C106 C102 1.389 . S
C106 H123 0.931 . S
C107 O92 1.266 . S
C107 O93 1.248 . S
C108 Tb44 2.802 . S
C108 O88 1.264 . S
C108 O91 1.256 . S
C108 C101 1.496 . S
C109 C76 1.448 . S
C109 H86 0.930 . S
C109 C110 1.328 . S
C110 C81 1.427 . S
C110 H87 0.929 . S
C110 C109 1.328 . S
C111 O95 1.264 . S
C111 O96 1.243 . S
C112 C115 1.399 . S
C112 C116 1.383 . S
C112 C119 1.496 . S
C113 C114 1.399 . S
C113 C116 1.389 . S
C114 C113 1.399 . S
C114 C117 1.380 . S
C114 H124 0.929 . S
C115 C112 1.399 . S
C115 C117 1.392 . S
C115 H125 0.929 . S
C116 C112 1.383 . S
C116 C113 1.389 . S
C116 H126 0.931 . S
C117 C114 1.380 . S
C117 C115 1.392 . S
C117 H127 0.929 . S
C118 O98 1.266 . S
C118 O99 1.248 . S
C119 Tb55 2.802 . S
C119 O94 1.264 . S
C119 O97 1.256 . S
C119 C112 1.496 . S
H120 C103 0.929 . S
H121 C104 0.929 . S
H122 C105 0.929 . S
H123 C106 0.931 . S
H124 C114 0.929 . S
H125 C115 0.929 . S
H126 C116 0.931 . S
H127 C117 0.929 . S
Tb128 N157 2.617 . S
Tb128 N163 2.572 1_556 S
Tb128 O172 2.465 . S
Tb128 O173 2.387 1_556 S
Tb128 O175 2.428 . S
Tb128 O176 2.308 1_556 S
Tb128 O180 2.349 . S
Tb128 O183 2.393 . S
Tb128 C192 2.802 . S
C129 N130 1.379 . S
C129 C132 1.416 . S
C129 C136 1.424 . S
N130 C129 1.379 . S
N130 C133 1.334 . S
N130 Tb139 2.617 . S
C131 C133 1.390 . S
C131 C134 1.339 . S
C131 H151 0.930 . S
C132 C129 1.416 . S
C132 C134 1.416 . S
C132 C138 1.448 . S
C133 N130 1.334 . S
C133 C131 1.390 . S
C133 H144 0.930 . S
C134 C131 1.339 . S
C134 C132 1.416 . S
C134 H155 0.930 . S
C135 C136 1.413 . S
C135 C137 1.427 . S
C135 C141 1.416 . S
C136 C129 1.424 . S
C136 C135 1.413 . S
C136 N140 1.361 . S
C137 C135 1.427 . S
C137 C138 1.328 . S
C137 H152 0.929 . S
C138 C132 1.448 . S
C138 C137 1.328 . S
C138 H153 0.930 . S
Tb139 N130 2.617 . S
Tb139 N140 2.572 . S
Tb139 O174 2.349 . S
Tb139 O177 2.393 . S
Tb139 O178 2.465 . S
Tb139 O179 2.387 1_554 S
Tb139 O181 2.428 . S
Tb139 O182 2.308 . S
Tb139 C203 2.802 . S
N140 C136 1.361 . S
N140 Tb139 2.572 . S
N140 C142 1.340 . S
C141 C135 1.416 . S
C141 C143 1.332 . S
C141 H149 0.939 . S
C142 N140 1.340 . S
C142 C143 1.407 . S
C142 H148 0.930 . S
C143 C141 1.332 . S
C143 C142 1.407 . S
C143 H145 0.929 . S
H144 C133 0.930 . S
H145 C143 0.929 . S
H146 C161 0.930 . S
H147 C168 0.929 . S
H148 C142 0.930 . S
H149 C141 0.939 . S
H150 C164 0.930 . S
H151 C131 0.930 . S
H152 C137 0.929 . S
H153 C138 0.930 . S
H154 C159 0.930 . S
H155 C134 0.930 . S
H156 C167 0.931 . S
N157 Tb128 2.617 . S
N157 C158 1.379 1_556 S
N157 C161 1.334 . S
C158 N157 1.379 1_554 S
C158 C160 1.416 . S
C158 C166 1.424 . S
C159 H154 0.930 . S
C159 C161 1.390 . S
C159 C162 1.336 1_556 S
C160 C158 1.416 . S
C160 C162 1.415 . S
C160 C193 1.448 . S
C161 H146 0.930 . S
C161 N157 1.334 . S
C161 C159 1.390 . S
C162 C159 1.336 1_554 S
C162 C160 1.415 . S
C162 H169 0.934 . S
N163 Tb128 2.572 1_554 S
N163 C164 1.340 . S
N163 C166 1.361 . S
C164 H150 0.930 . S
C164 N163 1.340 . S
C164 C168 1.407 . S
C165 C166 1.413 . S
C165 C167 1.416 . S
C165 C194 1.427 . S
C166 C158 1.424 . S
C166 N163 1.361 . S
C166 C165 1.413 . S
C167 H156 0.931 . S
C167 C165 1.416 . S
C167 C168 1.332 . S
C168 H147 0.929 . S
C168 C164 1.407 . S
C168 C167 1.332 . S
H169 C162 0.934 . S
H170 C193 0.930 . S
H171 C194 0.929 . S
O172 Tb128 2.465 . S
O172 C192 1.264 . S
O173 Tb128 2.387 1_554 S
O173 C184 1.264 . S
O174 Tb139 2.349 . S
O174 C184 1.243 . S
O175 Tb128 2.428 . S
O175 C192 1.256 . S
O176 Tb128 2.308 1_554 S
O176 C191 1.266 . S
O177 Tb139 2.393 . S
O177 C191 1.248 . S
O178 Tb139 2.465 . S
O178 C203 1.264 . S
O179 Tb139 2.387 1_556 S
O179 C195 1.264 . S
O180 Tb128 2.349 . S
O180 C195 1.243 . S
O181 Tb139 2.428 . S
O181 C203 1.256 . S
O182 Tb139 2.308 . S
O182 C202 1.266 . S
O183 Tb128 2.393 . S
O183 C202 1.248 1_556 S
C184 O173 1.264 . S
C184 O174 1.243 . S
C185 C188 1.399 . S
C185 C190 1.383 . S
C185 C192 1.496 . S
C186 C187 1.399 . S
C186 C190 1.389 . S
C187 C186 1.399 . S
C187 C189 1.380 . S
C187 H204 0.929 . S
C188 C185 1.399 . S
C188 C189 1.392 . S
C188 H205 0.929 . S
C189 C187 1.380 . S
C189 C188 1.392 . S
C189 H206 0.929 . S
C190 C185 1.383 . S
C190 C186 1.389 . S
C190 H207 0.931 . S
C191 O176 1.266 . S
C191 O177 1.248 . S
C192 Tb128 2.802 . S
C192 O172 1.264 . S
C192 O175 1.256 . S
C192 C185 1.496 . S
C193 C160 1.448 . S
C193 H170 0.930 . S
C193 C194 1.328 . S
C194 C165 1.427 . S
C194 H171 0.929 . S
C194 C193 1.328 . S
C195 O179 1.264 . S
C195 O180 1.243 . S
C196 C199 1.399 . S
C196 C200 1.383 . S
C196 C203 1.496 . S
C197 C198 1.399 . S
C197 C200 1.389 . S
C198 C197 1.399 . S
C198 C201 1.380 . S
C198 H208 0.929 . S
C199 C196 1.399 . S
C199 C201 1.392 . S
C199 H209 0.929 . S
C200 C196 1.383 . S
C200 C197 1.389 . S
C200 H210 0.931 . S
C201 C198 1.380 . S
C201 C199 1.392 . S
C201 H211 0.929 . S
C202 O182 1.266 . S
C202 O183 1.248 1_554 S
C203 Tb139 2.802 . S
C203 O178 1.264 . S
C203 O181 1.256 . S
C203 C196 1.496 . S
H204 C187 0.929 . S
H205 C188 0.929 . S
H206 C189 0.929 . S
H207 C190 0.931 . S
H208 C198 0.929 . S
H209 C199 0.929 . S
H210 C200 0.931 . S
H211 C201 0.929 . S
H212 C230 0.951 . S
H213 C232 0.951 . S
H214 C234 0.950 . S
H215 C235 0.950 . S
H216 C237 0.950 . S
H217 C240 0.950 . S
H218 C241 0.950 . S
H219 C243 0.950 . S
H220 C244 0.950 . S
H221 C245 0.951 . S
H222 C247 0.951 . S
H223 C249 0.950 . S
H224 C250 0.950 . S
H225 C252 0.950 . S
H226 C255 0.950 . S
H227 C256 0.950 . S
H228 C258 0.950 . S
H229 C259 0.950 . S
C230 H212 0.951 . S
C230 C231 1.366 . S
C230 C232 1.388 . S
C231 C230 1.366 . S
C231 C235 1.385 . S
C232 H213 0.951 . S
C232 C230 1.388 . S
C232 C233 1.366 . S
C233 C232 1.366 . S
C233 C234 1.414 . S
C233 C236 1.499 . S
C234 H214 0.950 . S
C234 C233 1.414 . S
C234 C235 1.374 . S
C235 H215 0.950 . S
C235 C231 1.385 . S
C235 C234 1.374 . S
C236 C233 1.499 . S
C236 C237 1.373 . S
C236 C238 1.389 . S
C237 H216 0.950 . S
C237 C236 1.373 . S
C237 C253 1.377 . S
C238 C236 1.389 . S
C238 C239 1.524 . S
C238 C252 1.377 . S
C239 C238 1.524 . S
C239 C240 1.397 . S
C239 C244 1.363 . S
C240 H217 0.950 . S
C240 C239 1.397 . S
C240 C241 1.334 . S
C241 H218 0.950 . S
C241 C240 1.334 . S
C241 C242 1.287 . S
C242 C241 1.287 . S
C242 C243 1.524 . S
C242 H261 0.913 . S
C243 H219 0.950 . S
C243 C242 1.524 . S
C243 C244 1.415 . S
C244 H220 0.950 . S
C244 C239 1.363 . S
C244 C243 1.415 . S
C245 H221 0.951 . S
C245 C246 1.366 . S
C245 C247 1.388 . S
C246 C245 1.366 . S
C246 C250 1.385 . S
C247 H222 0.951 . S
C247 C245 1.388 . S
C247 C248 1.366 . S
C248 C247 1.366 . S
C248 C249 1.414 . S
C248 C251 1.499 . S
C249 H223 0.950 . S
C249 C248 1.414 . S
C249 C250 1.374 . S
C250 H224 0.950 . S
C250 C246 1.385 . S
C250 C249 1.374 . S
C251 C248 1.499 . S
C251 C252 1.373 . S
C251 C253 1.389 . S
C252 H225 0.950 . S
C252 C238 1.377 . S
C252 C251 1.373 . S
C253 C237 1.377 . S
C253 C251 1.389 . S
C253 C254 1.524 . S
C254 C253 1.524 . S
C254 C255 1.397 . S
C254 C259 1.363 . S
C255 H226 0.950 . S
C255 C254 1.397 . S
C255 C256 1.334 . S
C256 H227 0.950 . S
C256 C255 1.334 . S
C256 C257 1.287 . S
C257 C256 1.287 . S
C257 C258 1.524 . S
C257 H260 0.999 1_545 S
C258 H228 0.950 . S
C258 C257 1.524 . S
C258 C259 1.415 . S
C259 H229 0.950 . S
C259 C254 1.363 . S
C259 C258 1.415 . S
H260 C257 0.999 1_565 S
H261 C242 0.913 . S
H262 C280 0.951 . S
H263 C282 0.951 . S
H264 C284 0.950 . S
H265 C285 0.950 . S
H266 C287 0.950 . S
H267 C290 0.950 . S
H268 C291 0.950 . S
H269 C293 0.950 . S
H270 C294 0.950 . S
H271 C295 0.951 . S
H272 C297 0.951 . S
H273 C299 0.950 1_556 S
H274 C300 0.950 1_556 S
H275 C302 0.950 . S
H276 C305 0.950 . S
H277 C306 0.950 . S
H278 C308 0.950 . S
H279 C309 0.950 . S
C280 H262 0.951 . S
C280 C281 1.366 . S
C280 C282 1.388 . S
C281 C280 1.366 . S
C281 C285 1.385 . S
C282 H263 0.951 . S
C282 C280 1.388 . S
C282 C283 1.366 . S
C283 C282 1.366 . S
C283 C284 1.414 . S
C283 C286 1.499 . S
C284 H264 0.950 . S
C284 C283 1.414 . S
C284 C285 1.374 . S
C285 H265 0.950 . S
C285 C281 1.385 . S
C285 C284 1.374 . S
C286 C283 1.499 . S
C286 C287 1.373 . S
C286 C288 1.389 . S
C287 H266 0.950 . S
C287 C286 1.373 . S
C287 C303 1.377 . S
C288 C286 1.389 . S
C288 C289 1.524 . S
C288 C302 1.377 . S
C289 C288 1.524 . S
C289 C290 1.397 . S
C289 C294 1.363 . S
C290 H267 0.950 . S
C290 C289 1.397 . S
C290 C291 1.334 . S
C291 H268 0.950 . S
C291 C290 1.334 . S
C291 C292 1.287 . S
C292 C291 1.287 . S
C292 C293 1.524 . S
C292 H311 0.913 . S
C293 H269 0.950 . S
C293 C292 1.524 . S
C293 C294 1.415 . S
C294 H270 0.950 . S
C294 C289 1.363 . S
C294 C293 1.415 . S
C295 H271 0.951 . S
C295 C296 1.366 . S
C295 C297 1.388 . S
C296 C295 1.366 . S
C296 C300 1.385 . S
C297 H272 0.951 . S
C297 C295 1.388 . S
C297 C298 1.366 . S
C298 C297 1.366 . S
C298 C299 1.414 . S
C298 C301 1.499 . S
C299 H273 0.950 1_554 S
C299 C298 1.414 . S
C299 C300 1.374 . S
C300 H274 0.950 1_554 S
C300 C296 1.385 . S
C300 C299 1.374 . S
C301 C298 1.499 . S
C301 C302 1.373 . S
C301 C303 1.389 . S
C302 H275 0.950 . S
C302 C288 1.377 . S
C302 C301 1.373 . S
C303 C287 1.377 . S
C303 C301 1.389 . S
C303 C304 1.524 . S
C304 C303 1.524 . S
C304 C305 1.397 1_554 S
C304 C309 1.363 . S
C305 H276 0.950 . S
C305 C304 1.397 1_556 S
C305 C306 1.334 . S
C306 H277 0.950 . S
C306 C305 1.334 . S
C306 C307 1.287 . S
C307 C306 1.287 . S
C307 C308 1.524 1_556 S
C307 H310 0.999 . S
C308 H278 0.950 . S
C308 C307 1.524 1_554 S
C308 C309 1.415 . S
C309 H279 0.950 . S
C309 C304 1.363 . S
C309 C308 1.415 . S
H310 C307 0.999 . S
H311 C292 0.913 . S
H312 C330 0.951 . S
H313 C332 0.951 . S
H314 C334 0.950 . S
H315 C335 0.950 . S
H316 C337 0.950 . S
H317 C340 0.950 . S
H318 C341 0.950 . S
H319 C343 0.950 . S
H320 C344 0.950 . S
H321 C345 0.951 . S
H322 C347 0.951 . S
H323 C349 0.950 . S
H324 C350 0.950 . S
H325 C352 0.950 . S
H326 C355 0.950 . S
H327 C356 0.950 . S
H328 C358 0.950 . S
H329 C359 0.950 . S
C330 H312 0.951 . S
C330 C331 1.366 . S
C330 C332 1.388 . S
C331 C330 1.366 . S
C331 C335 1.385 . S
C332 H313 0.951 . S
C332 C330 1.388 . S
C332 C333 1.366 . S
C333 C332 1.366 . S
C333 C334 1.414 . S
C333 C336 1.499 . S
C334 H314 0.950 . S
C334 C333 1.414 . S
C334 C335 1.374 . S
C335 H315 0.950 . S
C335 C331 1.385 . S
C335 C334 1.374 . S
C336 C333 1.499 . S
C336 C337 1.373 . S
C336 C338 1.389 . S
C337 H316 0.950 . S
C337 C336 1.373 . S
C337 C353 1.377 . S
C338 C336 1.389 . S
C338 C339 1.524 . S
C338 C352 1.377 . S
C339 C338 1.524 . S
C339 C340 1.397 . S
C339 C344 1.363 . S
C340 H317 0.950 . S
C340 C339 1.397 . S
C340 C341 1.334 . S
C341 H318 0.950 . S
C341 C340 1.334 . S
C341 C342 1.287 . S
C342 C341 1.287 . S
C342 C343 1.524 . S
C342 H361 0.913 . S
C343 H319 0.950 . S
C343 C342 1.524 . S
C343 C344 1.415 . S
C344 H320 0.950 . S
C344 C339 1.363 . S
C344 C343 1.415 . S
C345 H321 0.951 . S
C345 C346 1.366 . S
C345 C347 1.388 . S
C346 C345 1.366 . S
C346 C350 1.385 . S
C347 H322 0.951 . S
C347 C345 1.388 . S
C347 C348 1.366 . S
C348 C347 1.366 . S
C348 C349 1.414 . S
C348 C351 1.499 . S
C349 H323 0.950 . S
C349 C348 1.414 . S
C349 C350 1.374 . S
C350 H324 0.950 . S
C350 C346 1.385 . S
C350 C349 1.374 . S
C351 C348 1.499 . S
C351 C352 1.373 . S
C351 C353 1.389 . S
C352 H325 0.950 . S
C352 C338 1.377 . S
C352 C351 1.373 . S
C353 C337 1.377 . S
C353 C351 1.389 . S
C353 C354 1.524 . S
C354 C353 1.524 . S
C354 C355 1.397 . S
C354 C359 1.363 . S
C355 H326 0.950 . S
C355 C354 1.397 . S
C355 C356 1.334 . S
C356 H327 0.950 . S
C356 C355 1.334 . S
C356 C357 1.287 . S
C357 C356 1.287 . S
C357 C358 1.524 . S
C357 H360 0.999 1_565 S
C358 H328 0.950 . S
C358 C357 1.524 . S
C358 C359 1.415 . S
C359 H329 0.950 . S
C359 C354 1.363 . S
C359 C358 1.415 . S
H360 C357 0.999 1_545 S
H361 C342 0.913 . S
H362 C380 0.951 . S
H363 C382 0.951 . S
H364 C384 0.950 . S
H365 C385 0.950 . S
H366 C387 0.950 . S
H367 C390 0.950 . S
H368 C391 0.950 . S
H369 C393 0.950 . S
H370 C394 0.950 . S
H371 C395 0.951 . S
H372 C397 0.951 . S
H373 C399 0.950 . S
H374 C400 0.950 . S
H375 C402 0.950 1_556 S
H376 C405 0.950 . S
H377 C406 0.950 . S
H378 C408 0.950 . S
H379 C409 0.950 . S
C380 H362 0.951 . S
C380 C381 1.366 . S
C380 C382 1.388 . S
C381 C380 1.366 . S
C381 C385 1.385 . S
C382 H363 0.951 . S
C382 C380 1.388 . S
C382 C383 1.366 . S
C383 C382 1.366 . S
C383 C384 1.414 . S
C383 C386 1.499 . S
C384 H364 0.950 . S
C384 C383 1.414 . S
C384 C385 1.374 . S
C385 H365 0.950 . S
C385 C381 1.385 . S
C385 C384 1.374 . S
C386 C383 1.499 . S
C386 C387 1.373 . S
C386 C388 1.389 . S
C387 H366 0.950 . S
C387 C386 1.373 . S
C387 C403 1.377 . S
C388 C386 1.389 . S
C388 C389 1.524 1_554 S
C388 C402 1.377 . S
C389 C388 1.524 1_556 S
C389 C390 1.397 . S
C389 C394 1.363 . S
C390 H367 0.950 . S
C390 C389 1.397 . S
C390 C391 1.334 . S
C391 H368 0.950 . S
C391 C390 1.334 . S
C391 C392 1.287 . S
C392 C391 1.287 . S
C392 C393 1.524 . S
C392 H411 0.913 . S
C393 H369 0.950 . S
C393 C392 1.524 . S
C393 C394 1.415 . S
C394 H370 0.950 . S
C394 C389 1.363 . S
C394 C393 1.415 . S
C395 H371 0.951 . S
C395 C396 1.366 . S
C395 C397 1.388 . S
C396 C395 1.366 . S
C396 C400 1.385 . S
C397 H372 0.951 . S
C397 C395 1.388 . S
C397 C398 1.366 . S
C398 C397 1.366 . S
C398 C399 1.414 . S
C398 C401 1.499 . S
C399 H373 0.950 . S
C399 C398 1.414 . S
C399 C400 1.374 . S
C400 H374 0.950 . S
C400 C396 1.385 . S
C400 C399 1.374 . S
C401 C398 1.499 . S
C401 C402 1.373 . S
C401 C403 1.389 . S
C402 H375 0.950 1_554 S
C402 C388 1.377 . S
C402 C401 1.373 . S
C403 C387 1.377 . S
C403 C401 1.389 . S
C403 C404 1.524 . S
C404 C403 1.524 . S
C404 C405 1.397 . S
C404 C409 1.363 . S
C405 H376 0.950 . S
C405 C404 1.397 . S
C405 C406 1.334 . S
C406 H377 0.950 . S
C406 C405 1.334 . S
C406 C407 1.287 . S
C407 C406 1.287 . S
C407 C408 1.524 . S
C407 H410 0.999 . S
C408 H378 0.950 . S
C408 C407 1.524 . S
C408 C409 1.415 . S
C409 H379 0.950 . S
C409 C404 1.363 . S
C409 C408 1.415 . S
H410 C407 0.999 . S
H411 C392 0.913 . S
H412 C430 0.951 . S
H413 C432 0.951 . S
H414 C434 0.950 . S
H415 C435 0.950 . S
H416 C437 0.950 . S
H417 C440 0.950 . S
H418 C441 0.950 . S
H419 C443 0.950 . S
H420 C444 0.958 . S
H421 C445 0.951 . S
H422 C447 0.951 . S
H423 C449 0.950 . S
H424 C450 0.950 . S
H425 C452 0.950 . S
H426 C455 0.950 . S
H427 C456 0.950 . S
H428 C458 0.950 . S
H429 C459 0.950 . S
C430 H412 0.951 . S
C430 C431 1.366 . S
C430 C432 1.388 . S
C431 C430 1.366 . S
C431 C435 1.385 . S
C432 H413 0.951 . S
C432 C430 1.388 . S
C432 C433 1.366 . S
C433 C432 1.366 . S
C433 C434 1.414 . S
C433 C436 1.499 . S
C434 H414 0.950 . S
C434 C433 1.414 . S
C434 C435 1.374 . S
C435 H415 0.950 . S
C435 C431 1.385 . S
C435 C434 1.374 . S
C436 C433 1.499 . S
C436 C437 1.373 . S
C436 C438 1.389 . S
C437 H416 0.950 . S
C437 C436 1.373 . S
C437 C453 1.377 . S
C438 C436 1.389 . S
C438 C439 1.524 . S
C438 C452 1.377 . S
C439 C438 1.524 . S
C439 C440 1.397 . S
C439 C444 1.363 . S
C440 H417 0.950 . S
C440 C439 1.397 . S
C440 C441 1.334 . S
C441 H418 0.950 . S
C441 C440 1.334 . S
C441 C442 1.287 1_565 S
C442 C441 1.287 1_545 S
C442 C443 1.524 . S
C442 H461 0.913 . S
C443 H419 0.950 . S
C443 C442 1.524 . S
C443 C444 1.415 1_545 S
C444 H420 0.958 . S
C444 C439 1.363 . S
C444 C443 1.415 1_565 S
C445 H421 0.951 . S
C445 C446 1.366 . S
C445 C447 1.388 . S
C446 C445 1.366 . S
C446 C450 1.385 . S
C447 H422 0.951 . S
C447 C445 1.388 . S
C447 C448 1.366 . S
C448 C447 1.366 . S
C448 C449 1.414 . S
C448 C451 1.499 . S
C449 H423 0.950 . S
C449 C448 1.414 . S
C449 C450 1.374 . S
C450 H424 0.950 . S
C450 C446 1.385 . S
C450 C449 1.374 . S
C451 C448 1.499 . S
C451 C452 1.373 . S
C451 C453 1.389 . S
C452 H425 0.950 . S
C452 C438 1.377 . S
C452 C451 1.373 . S
C453 C437 1.377 . S
C453 C451 1.389 . S
C453 C454 1.524 . S
C454 C453 1.524 . S
C454 C455 1.397 . S
C454 C459 1.363 . S
C455 H426 0.950 . S
C455 C454 1.397 . S
C455 C456 1.334 . S
C456 H427 0.950 . S
C456 C455 1.334 . S
C456 C457 1.287 . S
C457 C456 1.287 . S
C457 C458 1.524 . S
C457 H460 0.999 . S
C458 H428 0.950 . S
C458 C457 1.524 . S
C458 C459 1.415 . S
C459 H429 0.950 . S
C459 C454 1.363 . S
C459 C458 1.415 . S
H460 C457 0.999 . S
H461 C442 0.913 . S
H462 C480 0.951 . S
H463 C482 0.951 . S
H464 C484 0.950 . S
H465 C485 0.950 . S
H466 C487 0.950 . S
H467 C490 0.950 . S
H468 C491 0.950 . S
H469 C493 0.950 . S
H470 C494 0.950 . S
H471 C495 0.951 . S
H472 C497 0.951 . S
H473 C499 0.950 . S
H474 C500 0.950 . S
H475 C502 0.950 . S
H476 C505 0.950 . S
H477 C506 0.950 . S
H478 C508 0.950 . S
H479 C509 0.950 . S
C480 H462 0.951 . S
C480 C481 1.366 . S
C480 C482 1.388 . S
C481 C480 1.366 . S
C481 C485 1.385 . S
C482 H463 0.951 . S
C482 C480 1.388 . S
C482 C483 1.366 . S
C483 C482 1.366 . S
C483 C484 1.414 . S
C483 C486 1.499 . S
C484 H464 0.950 . S
C484 C483 1.414 . S
C484 C485 1.374 . S
C485 H465 0.950 . S
C485 C481 1.385 . S
C485 C484 1.374 . S
C486 C483 1.499 . S
C486 C487 1.373 . S
C486 C488 1.389 . S
C487 H466 0.950 . S
C487 C486 1.373 . S
C487 C503 1.377 . S
C488 C486 1.389 . S
C488 C489 1.524 . S
C488 C502 1.377 . S
C489 C488 1.524 . S
C489 C490 1.397 . S
C489 C494 1.363 . S
C490 H467 0.950 . S
C490 C489 1.397 . S
C490 C491 1.334 . S
C491 H468 0.950 . S
C491 C490 1.334 . S
C491 C492 1.287 . S
C492 C491 1.287 . S
C492 C493 1.524 . S
C492 H511 0.913 . S
C493 H469 0.950 . S
C493 C492 1.524 . S
C493 C494 1.415 . S
C494 H470 0.950 . S
C494 C489 1.363 . S
C494 C493 1.415 . S
C495 H471 0.951 . S
C495 C496 1.366 . S
C495 C497 1.388 . S
C496 C495 1.366 . S
C496 C500 1.385 . S
C497 H472 0.951 . S
C497 C495 1.388 . S
C497 C498 1.366 . S
C498 C497 1.366 . S
C498 C499 1.414 . S
C498 C501 1.499 . S
C499 H473 0.950 . S
C499 C498 1.414 . S
C499 C500 1.374 . S
C500 H474 0.950 . S
C500 C496 1.385 . S
C500 C499 1.374 . S
C501 C498 1.499 . S
C501 C502 1.373 . S
C501 C503 1.389 . S
C502 H475 0.950 . S
C502 C488 1.377 . S
C502 C501 1.373 . S
C503 C487 1.377 . S
C503 C501 1.389 . S
C503 C504 1.524 . S
C504 C503 1.524 . S
C504 C505 1.397 . S
C504 C509 1.363 . S
C505 H476 0.950 . S
C505 C504 1.397 . S
C505 C506 1.334 . S
C506 H477 0.950 . S
C506 C505 1.334 . S
C506 C507 1.287 . S
C507 C506 1.287 . S
C507 C508 1.524 . S
C507 H510 0.999 . S
C508 H478 0.950 . S
C508 C507 1.524 . S
C508 C509 1.415 . S
C509 H479 0.950 . S
C509 C504 1.363 . S
C509 C508 1.415 . S
H510 C507 0.999 . S
H511 C492 0.913 . S
H512 C530 0.951 . S
H513 C532 0.951 . S
H514 C534 0.950 . S
H515 C535 0.950 . S
H516 C537 0.950 . S
H517 C540 0.950 . S
H518 C541 0.950 . S
H519 C543 0.950 . S
H520 C544 0.950 . S
H521 C545 0.951 . S
H522 C547 0.951 . S
H523 C549 0.950 . S
H524 C550 0.950 . S
H525 C552 0.950 . S
H526 C555 0.950 . S
H527 C556 0.935 1_565 S
H528 C558 0.937 1_455 S
H529 C559 0.950 . S
C530 H512 0.951 . S
C530 C531 1.366 . S
C530 C532 1.388 . S
C531 C530 1.366 . S
C531 C535 1.385 . S
C532 H513 0.951 . S
C532 C530 1.388 . S
C532 C533 1.366 . S
C533 C532 1.366 . S
C533 C534 1.414 . S
C533 C536 1.499 . S
C534 H514 0.950 . S
C534 C533 1.414 . S
C534 C535 1.374 . S
C535 H515 0.950 . S
C535 C531 1.385 . S
C535 C534 1.374 . S
C536 C533 1.499 . S
C536 C537 1.373 . S
C536 C538 1.389 . S
C537 H516 0.950 . S
C537 C536 1.373 . S
C537 C553 1.377 . S
C538 C536 1.389 . S
C538 C539 1.524 . S
C538 C552 1.377 . S
C539 C538 1.524 . S
C539 C540 1.397 . S
C539 C544 1.363 . S
C540 H517 0.950 . S
C540 C539 1.397 . S
C540 C541 1.334 . S
C541 H518 0.950 . S
C541 C540 1.334 . S
C541 C542 1.287 . S
C542 C541 1.287 . S
C542 C543 1.524 . S
C542 H561 0.913 . S
C543 H519 0.950 . S
C543 C542 1.524 . S
C543 C544 1.415 . S
C544 H520 0.950 . S
C544 C539 1.363 . S
C544 C543 1.415 . S
C545 H521 0.951 . S
C545 C546 1.366 . S
C545 C547 1.388 . S
C546 C545 1.366 . S
C546 C550 1.385 . S
C547 H522 0.951 . S
C547 C545 1.388 . S
C547 C548 1.366 . S
C548 C547 1.366 . S
C548 C549 1.414 . S
C548 C551 1.499 . S
C549 H523 0.950 . S
C549 C548 1.414 . S
C549 C550 1.374 . S
C550 H524 0.950 . S
C550 C546 1.385 . S
C550 C549 1.374 . S
C551 C548 1.499 . S
C551 C552 1.373 . S
C551 C553 1.389 . S
C552 H525 0.950 . S
C552 C538 1.377 . S
C552 C551 1.373 . S
C553 C537 1.377 . S
C553 C551 1.389 . S
C553 C554 1.524 . S
C554 C553 1.524 . S
C554 C555 1.397 . S
C554 C559 1.363 . S
C555 H526 0.950 . S
C555 C554 1.397 . S
C555 C556 1.334 . S
C556 H527 0.935 1_545 S
C556 C555 1.334 . S
C556 C557 1.287 . S
C557 C556 1.287 . S
C557 C558 1.524 . S
C557 H560 0.999 1_655 S
C558 H528 0.937 1_655 S
C558 C557 1.524 . S
C558 C559 1.415 . S
C559 H529 0.950 . S
C559 C554 1.363 . S
C559 C558 1.415 . S
H560 C557 0.999 1_455 S
H561 C542 0.913 . S
H562 C580 0.951 . S
H563 C582 0.951 . S
H564 C584 0.950 . S
H565 C585 0.950 . S
H566 C587 0.950 . S
H567 C590 0.950 . S
H568 C591 0.950 . S
H569 C593 0.950 . S
H570 C594 0.950 . S
H571 C595 0.951 . S
H572 C597 0.951 . S
H573 C599 0.950 . S
H574 C600 0.950 . S
H575 C602 0.950 . S
H576 C605 0.950 . S
H577 C606 0.950 . S
H578 C608 0.950 . S
H579 C609 0.950 . S
C580 H562 0.951 . S
C580 C581 1.366 . S
C580 C582 1.388 . S
C581 C580 1.366 . S
C581 C585 1.385 . S
C582 H563 0.951 . S
C582 C580 1.388 . S
C582 C583 1.366 . S
C583 C582 1.366 . S
C583 C584 1.414 . S
C583 C586 1.499 . S
C584 H564 0.950 . S
C584 C583 1.414 . S
C584 C585 1.374 . S
C585 H565 0.950 . S
C585 C581 1.385 . S
C585 C584 1.374 . S
C586 C583 1.499 . S
C586 C587 1.373 . S
C586 C588 1.389 . S
C587 H566 0.950 . S
C587 C586 1.373 . S
C587 C603 1.377 . S
C588 C586 1.389 . S
C588 C589 1.524 . S
C588 C602 1.377 . S
C589 C588 1.524 . S
C589 C590 1.397 . S
C589 C594 1.363 . S
C590 H567 0.950 . S
C590 C589 1.397 . S
C590 C591 1.334 . S
C591 H568 0.950 . S
C591 C590 1.334 . S
C591 C592 1.287 . S
C592 C591 1.287 . S
C592 C593 1.524 . S
C592 H611 0.913 . S
C593 H569 0.950 . S
C593 C592 1.524 . S
C593 C594 1.415 . S
C594 H570 0.950 . S
C594 C589 1.363 . S
C594 C593 1.415 . S
C595 H571 0.951 . S
C595 C596 1.366 . S
C595 C597 1.388 . S
C596 C595 1.366 . S
C596 C600 1.385 . S
C597 H572 0.951 . S
C597 C595 1.388 . S
C597 C598 1.366 . S
C598 C597 1.366 . S
C598 C599 1.414 . S
C598 C601 1.499 . S
C599 H573 0.950 . S
C599 C598 1.414 . S
C599 C600 1.374 . S
C600 H574 0.950 . S
C600 C596 1.385 . S
C600 C599 1.374 . S
C601 C598 1.499 . S
C601 C602 1.373 . S
C601 C603 1.389 . S
C602 H575 0.950 . S
C602 C588 1.377 . S
C602 C601 1.373 . S
C603 C587 1.377 . S
C603 C601 1.389 . S
C603 C604 1.524 . S
C604 C603 1.524 . S
C604 C605 1.397 . S
C604 C609 1.363 . S
C605 H576 0.950 . S
C605 C604 1.397 . S
C605 C606 1.334 . S
C606 H577 0.950 . S
C606 C605 1.334 . S
C606 C607 1.287 . S
C607 C606 1.287 . S
C607 C608 1.524 . S
C607 H610 0.999 . S
C608 H578 0.950 . S
C608 C607 1.524 . S
C608 C609 1.415 . S
C609 H579 0.950 . S
C609 C604 1.363 . S
C609 C608 1.415 . S
H610 C607 0.999 . S
H611 C592 0.913 . S
H612 C630 0.951 . S
H613 C632 0.951 . S
H614 C634 0.950 . S
H615 C635 0.950 . S
H616 C637 0.950 . S
H617 C640 0.950 . S
H618 C641 0.950 . S
H619 C643 0.950 . S
H620 C644 0.950 . S
H621 C645 0.951 . S
H622 C647 0.951 . S
H623 C649 0.950 . S
H624 C650 0.950 . S
H625 C652 0.950 . S
H626 C655 0.950 . S
H627 C656 0.950 . S
H628 C658 0.950 . S
H629 C659 0.950 . S
C630 H612 0.951 . S
C630 C631 1.366 . S
C630 C632 1.388 . S
C631 C630 1.366 . S
C631 C635 1.385 . S
C632 H613 0.951 . S
C632 C630 1.388 . S
C632 C633 1.366 . S
C633 C632 1.366 . S
C633 C634 1.414 . S
C633 C636 1.499 . S
C634 H614 0.950 . S
C634 C633 1.414 . S
C634 C635 1.374 . S
C635 H615 0.950 . S
C635 C631 1.385 . S
C635 C634 1.374 . S
C636 C633 1.499 . S
C636 C637 1.373 . S
C636 C638 1.389 . S
C637 H616 0.950 . S
C637 C636 1.373 . S
C637 C653 1.377 . S
C638 C636 1.389 . S
C638 C639 1.524 . S
C638 C652 1.377 . S
C639 C638 1.524 . S
C639 C640 1.397 . S
C639 C644 1.363 . S
C640 H617 0.950 . S
C640 C639 1.397 . S
C640 C641 1.334 . S
C641 H618 0.950 . S
C641 C640 1.334 . S
C641 C642 1.287 . S
C642 C641 1.287 . S
C642 C643 1.524 . S
C642 H661 0.913 . S
C643 H619 0.950 . S
C643 C642 1.524 . S
C643 C644 1.415 . S
C644 H620 0.950 . S
C644 C639 1.363 . S
C644 C643 1.415 . S
C645 H621 0.951 . S
C645 C646 1.366 . S
C645 C647 1.388 . S
C646 C645 1.366 . S
C646 C650 1.385 . S
C647 H622 0.951 . S
C647 C645 1.388 . S
C647 C648 1.366 . S
C648 C647 1.366 . S
C648 C649 1.414 . S
C648 C651 1.499 . S
C649 H623 0.950 . S
C649 C648 1.414 . S
C649 C650 1.374 . S
C650 H624 0.950 . S
C650 C646 1.385 . S
C650 C649 1.374 . S
C651 C648 1.499 . S
C651 C652 1.373 . S
C651 C653 1.389 . S
C652 H625 0.950 . S
C652 C638 1.377 . S
C652 C651 1.373 . S
C653 C637 1.377 . S
C653 C651 1.389 . S
C653 C654 1.524 . S
C654 C653 1.524 . S
C654 C655 1.397 . S
C654 C659 1.363 . S
C655 H626 0.950 . S
C655 C654 1.397 . S
C655 C656 1.334 . S
C656 H627 0.950 . S
C656 C655 1.334 . S
C656 C657 1.287 . S
C657 C656 1.287 . S
C657 C658 1.524 . S
C657 H660 0.999 . S
C658 H628 0.950 . S
C658 C657 1.524 . S
C658 C659 1.415 . S
C659 H629 0.950 . S
C659 C654 1.363 . S
C659 C658 1.415 . S
H660 C657 0.999 . S
H661 C642 0.913 . S
H662 C680 0.951 . S
H663 C682 0.951 . S
H664 C684 0.950 . S
H665 C685 0.950 . S
H666 C687 0.950 . S
H667 C690 0.950 . S
H668 C691 0.950 . S
H669 C693 0.950 . S
H670 C694 0.950 . S
H671 C695 0.951 . S
H672 C697 0.951 . S
H673 C699 0.950 . S
H674 C700 0.950 . S
H675 C702 0.950 . S
H676 C705 0.950 . S
H677 C706 0.950 . S
H678 C708 0.950 . S
H679 C709 0.950 . S
C680 H662 0.951 . S
C680 C681 1.366 . S
C680 C682 1.388 . S
C681 C680 1.366 . S
C681 C685 1.385 . S
C682 H663 0.951 . S
C682 C680 1.388 . S
C682 C683 1.366 . S
C683 C682 1.366 . S
C683 C684 1.414 . S
C683 C686 1.499 . S
C684 H664 0.950 . S
C684 C683 1.414 . S
C684 C685 1.374 . S
C685 H665 0.950 . S
C685 C681 1.385 . S
C685 C684 1.374 . S
C686 C683 1.499 . S
C686 C687 1.373 . S
C686 C688 1.389 . S
C687 H666 0.950 . S
C687 C686 1.373 . S
C687 C703 1.377 . S
C688 C686 1.389 . S
C688 C689 1.524 . S
C688 C702 1.377 . S
C689 C688 1.524 . S
C689 C690 1.397 . S
C689 C694 1.363 . S
C690 H667 0.950 . S
C690 C689 1.397 . S
C690 C691 1.334 . S
C691 H668 0.950 . S
C691 C690 1.334 . S
C691 C692 1.287 . S
C692 C691 1.287 . S
C692 C693 1.524 . S
C692 H711 0.913 . S
C693 H669 0.950 . S
C693 C692 1.524 . S
C693 C694 1.415 . S
C694 H670 0.950 . S
C694 C689 1.363 . S
C694 C693 1.415 . S
C695 H671 0.951 . S
C695 C696 1.366 . S
C695 C697 1.388 . S
C696 C695 1.366 . S
C696 C700 1.385 . S
C697 H672 0.951 . S
C697 C695 1.388 . S
C697 C698 1.366 . S
C698 C697 1.366 . S
C698 C699 1.414 . S
C698 C701 1.499 . S
C699 H673 0.950 . S
C699 C698 1.414 . S
C699 C700 1.374 . S
C700 H674 0.950 . S
C700 C696 1.385 . S
C700 C699 1.374 . S
C701 C698 1.499 . S
C701 C702 1.373 . S
C701 C703 1.389 . S
C702 H675 0.950 . S
C702 C688 1.377 . S
C702 C701 1.373 . S
C703 C687 1.377 . S
C703 C701 1.389 . S
C703 C704 1.524 . S
C704 C703 1.524 . S
C704 C705 1.397 . S
C704 C709 1.363 . S
C705 H676 0.950 . S
C705 C704 1.397 . S
C705 C706 1.334 . S
C706 H677 0.950 . S
C706 C705 1.334 . S
C706 C707 1.287 . S
C707 C706 1.287 . S
C707 C708 1.524 . S
C707 H710 0.999 1_655 S
C708 H678 0.950 . S
C708 C707 1.524 . S
C708 C709 1.415 . S
C709 H679 0.950 . S
C709 C704 1.363 . S
C709 C708 1.415 . S
H710 C707 0.999 1_455 S
H711 C692 0.913 . S
H712 C730 0.951 . S
H713 C732 0.951 . S
H714 C734 0.950 . S
H715 C735 0.950 . S
H716 C737 0.950 . S
H717 C740 0.950 . S
H718 C741 0.950 . S
H719 C743 0.950 . S
H720 C744 0.950 . S
H721 C745 0.951 . S
H722 C747 0.951 . S
H723 C749 0.950 . S
H724 C750 0.950 . S
H725 C752 0.950 . S
H726 C755 0.950 . S
H727 C756 0.950 . S
H728 C758 0.950 . S
H729 C759 0.950 . S
C730 H712 0.951 . S
C730 C731 1.366 . S
C730 C732 1.388 . S
C731 C730 1.366 . S
C731 C735 1.385 . S
C732 H713 0.951 . S
C732 C730 1.388 . S
C732 C733 1.366 . S
C733 C732 1.366 . S
C733 C734 1.414 . S
C733 C736 1.499 . S
C734 H714 0.950 . S
C734 C733 1.414 . S
C734 C735 1.374 . S
C735 H715 0.950 . S
C735 C731 1.385 . S
C735 C734 1.374 . S
C736 C733 1.499 . S
C736 C737 1.373 . S
C736 C738 1.389 . S
C737 H716 0.950 . S
C737 C736 1.373 . S
C737 C753 1.377 . S
C738 C736 1.389 . S
C738 C739 1.524 . S
C738 C752 1.377 . S
C739 C738 1.524 . S
C739 C740 1.397 . S
C739 C744 1.363 . S
C740 H717 0.950 . S
C740 C739 1.397 . S
C740 C741 1.334 . S
C741 H718 0.950 . S
C741 C740 1.334 . S
C741 C742 1.287 . S
C742 C741 1.287 . S
C742 C743 1.524 . S
C742 H761 0.913 . S
C743 H719 0.950 . S
C743 C742 1.524 . S
C743 C744 1.415 . S
C744 H720 0.950 . S
C744 C739 1.363 . S
C744 C743 1.415 . S
C745 H721 0.951 . S
C745 C746 1.366 . S
C745 C747 1.388 . S
C746 C745 1.366 . S
C746 C750 1.385 . S
C747 H722 0.951 . S
C747 C745 1.388 . S
C747 C748 1.366 . S
C748 C747 1.366 . S
C748 C749 1.414 . S
C748 C751 1.499 . S
C749 H723 0.950 . S
C749 C748 1.414 . S
C749 C750 1.374 . S
C750 H724 0.950 . S
C750 C746 1.385 . S
C750 C749 1.374 . S
C751 C748 1.499 . S
C751 C752 1.373 . S
C751 C753 1.389 . S
C752 H725 0.950 . S
C752 C738 1.377 . S
C752 C751 1.373 . S
C753 C737 1.377 . S
C753 C751 1.389 . S
C753 C754 1.524 . S
C754 C753 1.524 . S
C754 C755 1.397 . S
C754 C759 1.363 . S
C755 H726 0.950 . S
C755 C754 1.397 . S
C755 C756 1.334 . S
C756 H727 0.950 . S
C756 C755 1.334 . S
C756 C757 1.287 . S
C757 C756 1.287 . S
C757 C758 1.524 . S
C757 H760 0.999 . S
C758 H728 0.950 . S
C758 C757 1.524 . S
C758 C759 1.415 . S
C759 H729 0.950 . S
C759 C754 1.363 . S
C759 C758 1.415 . S
H760 C757 0.999 . S
H761 C742 0.913 . S
H762 C780 0.951 . S
H763 C782 0.951 . S
H764 C784 0.950 . S
H765 C785 0.950 . S
H766 C787 0.950 . S
H767 C790 0.950 . S
H768 C791 0.950 . S
H769 C793 0.950 . S
H770 C794 0.950 . S
H771 C795 0.951 . S
H772 C797 0.951 . S
H773 C799 0.950 . S
H774 C800 0.950 . S
H775 C802 0.950 . S
H776 C805 0.950 1_565 S
H777 C806 0.950 . S
H778 C808 0.950 . S
H779 C809 0.950 1_565 S
C780 H762 0.951 . S
C780 C781 1.366 . S
C780 C782 1.388 . S
C781 C780 1.366 . S
C781 C785 1.385 . S
C782 H763 0.951 . S
C782 C780 1.388 . S
C782 C783 1.366 . S
C783 C782 1.366 . S
C783 C784 1.414 . S
C783 C786 1.499 . S
C784 H764 0.950 . S
C784 C783 1.414 . S
C784 C785 1.374 . S
C785 H765 0.950 . S
C785 C781 1.385 . S
C785 C784 1.374 . S
C786 C783 1.499 . S
C786 C787 1.373 . S
C786 C788 1.389 . S
C787 H766 0.950 . S
C787 C786 1.373 . S
C787 C803 1.377 . S
C788 C786 1.389 . S
C788 C789 1.524 . S
C788 C802 1.377 . S
C789 C788 1.524 . S
C789 C790 1.397 . S
C789 C794 1.363 . S
C790 H767 0.950 . S
C790 C789 1.397 . S
C790 C791 1.334 . S
C791 H768 0.950 . S
C791 C790 1.334 . S
C791 C792 1.287 . S
C792 C791 1.287 . S
C792 C793 1.524 . S
C792 H811 0.913 . S
C793 H769 0.950 . S
C793 C792 1.524 . S
C793 C794 1.415 . S
C794 H770 0.950 . S
C794 C789 1.363 . S
C794 C793 1.415 . S
C795 H771 0.951 . S
C795 C796 1.366 . S
C795 C797 1.388 . S
C796 C795 1.366 . S
C796 C800 1.385 . S
C797 H772 0.951 . S
C797 C795 1.388 . S
C797 C798 1.366 . S
C798 C797 1.366 . S
C798 C799 1.414 . S
C798 C801 1.499 . S
C799 H773 0.950 . S
C799 C798 1.414 . S
C799 C800 1.374 . S
C800 H774 0.950 . S
C800 C796 1.385 . S
C800 C799 1.374 . S
C801 C798 1.499 . S
C801 C802 1.373 . S
C801 C803 1.389 . S
C802 H775 0.950 . S
C802 C788 1.377 . S
C802 C801 1.373 . S
C803 C787 1.377 . S
C803 C801 1.389 . S
C803 C804 1.524 . S
C804 C803 1.524 . S
C804 C805 1.397 1_565 S
C804 C809 1.363 1_565 S
C805 H776 0.950 1_545 S
C805 C804 1.397 1_545 S
C805 C806 1.334 . S
C806 H777 0.950 . S
C806 C805 1.334 . S
C806 C807 1.287 . S
C807 C806 1.287 . S
C807 C808 1.524 . S
C807 H810 0.999 . S
C808 H778 0.950 . S
C808 C807 1.524 . S
C808 C809 1.415 . S
C809 H779 0.950 1_545 S
C809 C804 1.363 1_545 S
C809 C808 1.415 . S
H810 C807 0.999 . S
H811 C792 0.913 . S
C246 C107 1.650 . S
C231 C41 1.651 . S
C281 C8 1.665 . S
C296 C202 1.656 . S
C331 C19 1.745 . S
C346 C118 1.754 . S
C381 C30 1.632 . S
C396 C191 1.636 . S
C446 C102 1.506 . S
C431 C5 1.516 . S
C496 C195 1.817 . S
C481 C18 1.760 . S
C531 C29 1.630 . S
C546 C111 1.722 . S
C581 C40 1.616 . S
C596 C186 1.531 . S
C646 C197 1.384 . S
C631 C16 1.316 . S
C696 C113 1.366 . S
C681 C27 1.296 . S
C746 C184 1.551 . S
C731 C38 1.304 . S
C781 C7 1.471 . S
C796 C100 1.508 . S
