# Generated by pormake.
# Topology gar, (4,6)-cn, num edge types: 1
# Building blocks:
#     Node 0, Type 0, BuildingBlock: CEKHIL_clean_sbu_0, # of connection points: 4
#     Node 1, Type 0, BuildingBlock: CEKHIL_clean_sbu_0, # of connection points: 4
#     Node 2, Type 0, BuildingBlock: CEKHIL_clean_sbu_0, # of connection points: 4
#     Node 3, Type 0, BuildingBlock: CEKHIL_clean_sbu_0, # of connection points: 4
#     Node 4, Type 0, BuildingBlock: CEKHIL_clean_sbu_0, # of connection points: 4
#     Node 5, Type 0, BuildingBlock: CEKHIL_clean_sbu_0, # of connection points: 4
#     Node 6, Type 0, BuildingBlock: CEKHIL_clean_sbu_0, # of connection points: 4
#     Node 7, Type 0, BuildingBlock: CEKHIL_clean_sbu_0, # of connection points: 4
#     Node 8, Type 0, BuildingBlock: CEKHIL_clean_sbu_0, # of connection points: 4
#     Node 9, Type 0, BuildingBlock: CEKHIL_clean_sbu_0, # of connection points: 4
#     Node 10, Type 0, BuildingBlock: CEKHIL_clean_sbu_0, # of connection points: 4
#     Node 11, Type 0, BuildingBlock: CEKHIL_clean_sbu_0, # of connection points: 4
#     Node 12, Type 0, BuildingBlock: CEKHIL_clean_sbu_0, # of connection points: 4
#     Node 13, Type 0, BuildingBlock: CEKHIL_clean_sbu_0, # of connection points: 4
#     Node 14, Type 0, BuildingBlock: CEKHIL_clean_sbu_0, # of connection points: 4
#     Node 15, Type 0, BuildingBlock: CEKHIL_clean_sbu_0, # of connection points: 4
#     Node 16, Type 0, BuildingBlock: CEKHIL_clean_sbu_0, # of connection points: 4
#     Node 17, Type 0, BuildingBlock: CEKHIL_clean_sbu_0, # of connection points: 4
#     Node 18, Type 0, BuildingBlock: CEKHIL_clean_sbu_0, # of connection points: 4
#     Node 19, Type 0, BuildingBlock: CEKHIL_clean_sbu_0, # of connection points: 4
#     Node 20, Type 0, BuildingBlock: CEKHIL_clean_sbu_0, # of connection points: 4
#     Node 21, Type 0, BuildingBlock: CEKHIL_clean_sbu_0, # of connection points: 4
#     Node 22, Type 0, BuildingBlock: CEKHIL_clean_sbu_0, # of connection points: 4
#     Node 23, Type 0, BuildingBlock: CEKHIL_clean_sbu_0, # of connection points: 4
#     Node 24, Type 1, BuildingBlock: GEDQOX_clean_sbu_0, # of connection points: 6
#     Node 25, Type 1, BuildingBlock: GEDQOX_clean_sbu_0, # of connection points: 6
#     Node 26, Type 1, BuildingBlock: GEDQOX_clean_sbu_0, # of connection points: 6
#     Node 27, Type 1, BuildingBlock: GEDQOX_clean_sbu_0, # of connection points: 6
#     Node 28, Type 1, BuildingBlock: GEDQOX_clean_sbu_0, # of connection points: 6
#     Node 29, Type 1, BuildingBlock: GEDQOX_clean_sbu_0, # of connection points: 6
#     Node 30, Type 1, BuildingBlock: GEDQOX_clean_sbu_0, # of connection points: 6
#     Node 31, Type 1, BuildingBlock: GEDQOX_clean_sbu_0, # of connection points: 6
#     Node 32, Type 1, BuildingBlock: GEDQOX_clean_sbu_0, # of connection points: 6
#     Node 33, Type 1, BuildingBlock: GEDQOX_clean_sbu_0, # of connection points: 6
#     Node 34, Type 1, BuildingBlock: GEDQOX_clean_sbu_0, # of connection points: 6
#     Node 35, Type 1, BuildingBlock: GEDQOX_clean_sbu_0, # of connection points: 6
#     Node 36, Type 1, BuildingBlock: GEDQOX_clean_sbu_0, # of connection points: 6
#     Node 37, Type 1, BuildingBlock: GEDQOX_clean_sbu_0, # of connection points: 6
#     Node 38, Type 1, BuildingBlock: GEDQOX_clean_sbu_0, # of connection points: 6
#     Node 39, Type 1, BuildingBlock: GEDQOX_clean_sbu_0, # of connection points: 6
#     Edge 40, Type (0, 1), BuildingBlock: CIFDUS_clean_linker_0, # of connection points: 2
#     Edge 41, Type (0, 1), BuildingBlock: CIFDUS_clean_linker_0, # of connection points: 2
#     Edge 42, Type (0, 1), BuildingBlock: CIFDUS_clean_linker_0, # of connection points: 2
#     Edge 43, Type (0, 1), BuildingBlock: CIFDUS_clean_linker_0, # of connection points: 2
#     Edge 44, Type (0, 1), BuildingBlock: CIFDUS_clean_linker_0, # of connection points: 2
#     Edge 45, Type (0, 1), BuildingBlock: CIFDUS_clean_linker_0, # of connection points: 2
#     Edge 46, Type (0, 1), BuildingBlock: CIFDUS_clean_linker_0, # of connection points: 2
#     Edge 47, Type (0, 1), BuildingBlock: CIFDUS_clean_linker_0, # of connection points: 2
#     Edge 48, Type (0, 1), BuildingBlock: CIFDUS_clean_linker_0, # of connection points: 2
#     Edge 49, Type (0, 1), BuildingBlock: CIFDUS_clean_linker_0, # of connection points: 2
#     Edge 50, Type (0, 1), BuildingBlock: CIFDUS_clean_linker_0, # of connection points: 2
#     Edge 51, Type (0, 1), BuildingBlock: CIFDUS_clean_linker_0, # of connection points: 2
#     Edge 52, Type (0, 1), BuildingBlock: CIFDUS_clean_linker_0, # of connection points: 2
#     Edge 53, Type (0, 1), BuildingBlock: CIFDUS_clean_linker_0, # of connection points: 2
#     Edge 54, Type (0, 1), BuildingBlock: CIFDUS_clean_linker_0, # of connection points: 2
#     Edge 55, Type (0, 1), BuildingBlock: CIFDUS_clean_linker_0, # of connection points: 2
#     Edge 56, Type (0, 1), BuildingBlock: CIFDUS_clean_linker_0, # of connection points: 2
#     Edge 57, Type (0, 1), BuildingBlock: CIFDUS_clean_linker_0, # of connection points: 2
#     Edge 58, Type (0, 1), BuildingBlock: CIFDUS_clean_linker_0, # of connection points: 2
#     Edge 59, Type (0, 1), BuildingBlock: CIFDUS_clean_linker_0, # of connection points: 2
#     Edge 60, Type (0, 1), BuildingBlock: CIFDUS_clean_linker_0, # of connection points: 2
#     Edge 61, Type (0, 1), BuildingBlock: CIFDUS_clean_linker_0, # of connection points: 2
#     Edge 62, Type (0, 1), BuildingBlock: CIFDUS_clean_linker_0, # of connection points: 2
#     Edge 63, Type (0, 1), BuildingBlock: CIFDUS_clean_linker_0, # of connection points: 2
#     Edge 64, Type (0, 1), BuildingBlock: CIFDUS_clean_linker_0, # of connection points: 2
#     Edge 65, Type (0, 1), BuildingBlock: CIFDUS_clean_linker_0, # of connection points: 2
#     Edge 66, Type (0, 1), BuildingBlock: CIFDUS_clean_linker_0, # of connection points: 2
#     Edge 67, Type (0, 1), BuildingBlock: CIFDUS_clean_linker_0, # of connection points: 2
#     Edge 68, Type (0, 1), BuildingBlock: CIFDUS_clean_linker_0, # of connection points: 2
#     Edge 69, Type (0, 1), BuildingBlock: CIFDUS_clean_linker_0, # of connection points: 2
#     Edge 70, Type (0, 1), BuildingBlock: CIFDUS_clean_linker_0, # of connection points: 2
#     Edge 71, Type (0, 1), BuildingBlock: CIFDUS_clean_linker_0, # of connection points: 2
#     Edge 72, Type (0, 1), BuildingBlock: CIFDUS_clean_linker_0, # of connection points: 2
#     Edge 73, Type (0, 1), BuildingBlock: CIFDUS_clean_linker_0, # of connection points: 2
#     Edge 74, Type (0, 1), BuildingBlock: CIFDUS_clean_linker_0, # of connection points: 2
#     Edge 75, Type (0, 1), BuildingBlock: CIFDUS_clean_linker_0, # of connection points: 2
#     Edge 76, Type (0, 1), BuildingBlock: CIFDUS_clean_linker_0, # of connection points: 2
#     Edge 77, Type (0, 1), BuildingBlock: CIFDUS_clean_linker_0, # of connection points: 2
#     Edge 78, Type (0, 1), BuildingBlock: CIFDUS_clean_linker_0, # of connection points: 2
#     Edge 79, Type (0, 1), BuildingBlock: CIFDUS_clean_linker_0, # of connection points: 2
#     Edge 80, Type (0, 1), BuildingBlock: CIFDUS_clean_linker_0, # of connection points: 2
#     Edge 81, Type (0, 1), BuildingBlock: CIFDUS_clean_linker_0, # of connection points: 2
#     Edge 82, Type (0, 1), BuildingBlock: CIFDUS_clean_linker_0, # of connection points: 2
#     Edge 83, Type (0, 1), BuildingBlock: CIFDUS_clean_linker_0, # of connection points: 2
#     Edge 84, Type (0, 1), BuildingBlock: CIFDUS_clean_linker_0, # of connection points: 2
#     Edge 85, Type (0, 1), BuildingBlock: CIFDUS_clean_linker_0, # of connection points: 2
#     Edge 86, Type (0, 1), BuildingBlock: CIFDUS_clean_linker_0, # of connection points: 2
#     Edge 87, Type (0, 1), BuildingBlock: CIFDUS_clean_linker_0, # of connection points: 2
#     Edge 88, Type (0, 1), BuildingBlock: CIFDUS_clean_linker_0, # of connection points: 2
#     Edge 89, Type (0, 1), BuildingBlock: CIFDUS_clean_linker_0, # of connection points: 2
#     Edge 90, Type (0, 1), BuildingBlock: CIFDUS_clean_linker_0, # of connection points: 2
#     Edge 91, Type (0, 1), BuildingBlock: CIFDUS_clean_linker_0, # of connection points: 2
#     Edge 92, Type (0, 1), BuildingBlock: CIFDUS_clean_linker_0, # of connection points: 2
#     Edge 93, Type (0, 1), BuildingBlock: CIFDUS_clean_linker_0, # of connection points: 2
#     Edge 94, Type (0, 1), BuildingBlock: CIFDUS_clean_linker_0, # of connection points: 2
#     Edge 95, Type (0, 1), BuildingBlock: CIFDUS_clean_linker_0, # of connection points: 2
#     Edge 96, Type (0, 1), BuildingBlock: CIFDUS_clean_linker_0, # of connection points: 2
#     Edge 97, Type (0, 1), BuildingBlock: CIFDUS_clean_linker_0, # of connection points: 2
#     Edge 98, Type (0, 1), BuildingBlock: CIFDUS_clean_linker_0, # of connection points: 2
#     Edge 99, Type (0, 1), BuildingBlock: CIFDUS_clean_linker_0, # of connection points: 2
#     Edge 100, Type (0, 1), BuildingBlock: CIFDUS_clean_linker_0, # of connection points: 2
#     Edge 101, Type (0, 1), BuildingBlock: CIFDUS_clean_linker_0, # of connection points: 2
#     Edge 102, Type (0, 1), BuildingBlock: CIFDUS_clean_linker_0, # of connection points: 2
#     Edge 103, Type (0, 1), BuildingBlock: CIFDUS_clean_linker_0, # of connection points: 2
#     Edge 104, Type (0, 1), BuildingBlock: CIFDUS_clean_linker_0, # of connection points: 2
#     Edge 105, Type (0, 1), BuildingBlock: CIFDUS_clean_linker_0, # of connection points: 2
#     Edge 106, Type (0, 1), BuildingBlock: CIFDUS_clean_linker_0, # of connection points: 2
#     Edge 107, Type (0, 1), BuildingBlock: CIFDUS_clean_linker_0, # of connection points: 2
#     Edge 108, Type (0, 1), BuildingBlock: CIFDUS_clean_linker_0, # of connection points: 2
#     Edge 109, Type (0, 1), BuildingBlock: CIFDUS_clean_linker_0, # of connection points: 2
#     Edge 110, Type (0, 1), BuildingBlock: CIFDUS_clean_linker_0, # of connection points: 2
#     Edge 111, Type (0, 1), BuildingBlock: CIFDUS_clean_linker_0, # of connection points: 2
#     Edge 112, Type (0, 1), BuildingBlock: CIFDUS_clean_linker_0, # of connection points: 2
#     Edge 113, Type (0, 1), BuildingBlock: CIFDUS_clean_linker_0, # of connection points: 2
#     Edge 114, Type (0, 1), BuildingBlock: CIFDUS_clean_linker_0, # of connection points: 2
#     Edge 115, Type (0, 1), BuildingBlock: CIFDUS_clean_linker_0, # of connection points: 2
#     Edge 116, Type (0, 1), BuildingBlock: CIFDUS_clean_linker_0, # of connection points: 2
#     Edge 117, Type (0, 1), BuildingBlock: CIFDUS_clean_linker_0, # of connection points: 2
#     Edge 118, Type (0, 1), BuildingBlock: CIFDUS_clean_linker_0, # of connection points: 2
#     Edge 119, Type (0, 1), BuildingBlock: CIFDUS_clean_linker_0, # of connection points: 2
#     Edge 120, Type (0, 1), BuildingBlock: CIFDUS_clean_linker_0, # of connection points: 2
#     Edge 121, Type (0, 1), BuildingBlock: CIFDUS_clean_linker_0, # of connection points: 2
#     Edge 122, Type (0, 1), BuildingBlock: CIFDUS_clean_linker_0, # of connection points: 2
#     Edge 123, Type (0, 1), BuildingBlock: CIFDUS_clean_linker_0, # of connection points: 2
#     Edge 124, Type (0, 1), BuildingBlock: CIFDUS_clean_linker_0, # of connection points: 2
#     Edge 125, Type (0, 1), BuildingBlock: CIFDUS_clean_linker_0, # of connection points: 2
#     Edge 126, Type (0, 1), BuildingBlock: CIFDUS_clean_linker_0, # of connection points: 2
#     Edge 127, Type (0, 1), BuildingBlock: CIFDUS_clean_linker_0, # of connection points: 2
#     Edge 128, Type (0, 1), BuildingBlock: CIFDUS_clean_linker_0, # of connection points: 2
#     Edge 129, Type (0, 1), BuildingBlock: CIFDUS_clean_linker_0, # of connection points: 2
#     Edge 130, Type (0, 1), BuildingBlock: CIFDUS_clean_linker_0, # of connection points: 2
#     Edge 131, Type (0, 1), BuildingBlock: CIFDUS_clean_linker_0, # of connection points: 2
#     Edge 132, Type (0, 1), BuildingBlock: CIFDUS_clean_linker_0, # of connection points: 2
#     Edge 133, Type (0, 1), BuildingBlock: CIFDUS_clean_linker_0, # of connection points: 2
#     Edge 134, Type (0, 1), BuildingBlock: CIFDUS_clean_linker_0, # of connection points: 2
#     Edge 135, Type (0, 1), BuildingBlock: CIFDUS_clean_linker_0, # of connection points: 2
# Relax obj value: 0.301
# Max RMSD: 0.474
# Mean RMSD: 0.179
data_MOF--net-gar--node1-CEKHIL_clean_sbu_0--node2-GEDQOX_clean_sbu_0--edge1-CIFDUS_clean_linker_0
_symmetry_space_group_name_H-M    P1
_symmetry_Int_Tables_number       1
_symmetry_cell_setting            triclinic
loop_
_symmetry_equiv_pos_as_xyz
'x, y, z'
_cell_length_a     54.066626
_cell_length_b     51.853528
_cell_length_c     45.641877
_cell_angle_alpha  98.849327
_cell_angle_beta   97.360549
_cell_angle_gamma 98.425645
loop_
_atom_site_label
_atom_site_type_symbol
_atom_site_fract_x
_atom_site_fract_y
_atom_site_fract_z
_atom_type_partial_charge
Co0 Co 0.15557 0.40163 0.496 0.0
O1 O 0.18726 0.39322 0.48449 0.0
O2 O 0.15075 0.38716 0.45408 0.0
C3 C 0.16922 0.44245 0.52413 0.0
O4 O 0.11955 0.40755 0.49692 0.0
Co5 Co 0.14326 0.41084 0.56088 0.0
O6 O 0.11015 0.41865 0.54305 0.0
C7 C 0.1481 0.35776 0.53175 0.0
C8 C 0.17444 0.3849 0.45761 0.0
C9 C 0.10409 0.41428 0.51462 0.0
O10 O 0.14676 0.36514 0.50603 0.0
O11 O 0.15036 0.37378 0.55657 0.0
O12 O 0.16584 0.43928 0.49493 0.0
O13 O 0.16742 0.42079 0.53489 0.0
Co14 Co 0.99375 0.79106 0.67155 0.0
O15 O 0.9591 0.79048 0.67848 0.0
O16 O 0.98906 0.77741 0.7076 0.0
C17 C 1.00041 0.83265 0.66154 0.0
O18 O 1.03095 0.78987 0.67486 0.0
Co19 Co 1.01525 0.80039 0.61322 0.0
O20 O 0.04923 0.80539 0.63826 0.0
C21 C 0.98874 0.74692 0.61813 0.0
C22 C 0.96631 0.78278 0.70361 0.0
C23 C 0.05054 0.79693 0.66307 0.0
O24 O 0.9863 0.75445 0.64583 0.0
O25 O 0.99716 0.76292 0.60151 0.0
O26 O 1.00151 0.8288 0.68909 0.0
O27 O 0.99344 0.81172 0.64124 0.0
Co28 Co 0.64759 0.90992 0.9918 0.0
O29 O 0.67618 0.89836 0.97427 0.0
O30 O 0.63603 0.8891 0.95296 0.0
C31 C 0.6622 0.95343 1.00929 0.0
O32 O 0.61321 0.91785 0.99819 0.0
Co33 Co 0.64517 0.93162 0.05831 0.0
O34 O 0.61051 0.93826 0.04434 0.0
C35 C 0.64538 0.87481 0.03916 0.0
C36 C 0.65931 0.88713 0.95095 0.0
C37 C 0.60096 0.92914 0.01711 0.0
O38 O 0.6424 0.87746 1.01135 0.0
O39 O 0.64949 0.89441 0.06091 0.0
O40 O 0.65517 0.94471 0.98066 0.0
O41 O 0.66438 0.93519 0.02535 0.0
Co42 Co 0.50031 0.29822 0.1876 0.0
O43 O 0.46663 0.28863 0.1968 0.0
O44 O 0.5022 0.29196 0.22815 0.0
C45 C 0.49371 0.33372 0.16647 0.0
O46 O 0.53779 0.30923 0.18853 0.0
Co47 Co 0.51312 0.29877 0.12312 0.0
O48 O 0.54816 0.31413 0.14335 0.0
C49 C 0.50456 0.24815 0.14511 0.0
C50 C 0.47767 0.28882 0.22395 0.0
C51 C 0.55401 0.31556 0.17157 0.0
O52 O 0.5033 0.2602 0.17172 0.0
O53 O 0.50493 0.25985 0.1224 0.0
O54 O 0.49693 0.33552 0.19544 0.0
O55 O 0.49145 0.31006 0.1514 0.0
Co56 Co 0.06079 0.82199 0.26798 0.0
O57 O 1.0232 0.81871 0.25903 0.0
O58 O 0.0421 0.81367 0.30184 0.0
C59 C 0.06595 0.86081 0.24879 0.0
O60 O 0.10039 0.82483 0.28597 0.0
Co61 Co 0.09613 0.82774 0.21982 0.0
O62 O 0.12497 0.8379 0.25278 0.0
C63 C 0.0686 0.77415 0.22438 0.0
C64 C 1.02066 0.81515 0.28594 0.0
C65 C 0.12288 0.83201 0.27849 0.0
O66 O 0.05959 0.78302 0.24842 0.0
O67 O 0.08115 0.78932 0.20982 0.0
O68 O 0.06254 0.86107 0.27648 0.0
O69 O 0.06657 0.83779 0.23419 0.0
Co70 Co 0.58935 0.86419 0.40945 0.0
O71 O 0.62647 0.87058 0.42271 0.0
O72 O 0.60991 0.85074 0.37787 0.0
C73 C 0.58409 0.90626 0.42934 0.0
O74 O 0.55009 0.85543 0.38815 0.0
Co75 Co 0.55274 0.87005 0.45717 0.0
O76 O 0.52481 0.86353 0.42335 0.0
C77 C 0.58299 0.82678 0.45368 0.0
C78 C 0.6307 0.85935 0.39698 0.0
C79 C 0.52752 0.85678 0.3961 0.0
O80 O 0.5872 0.82989 0.42697 0.0
O81 O 0.57207 0.84268 0.46978 0.0
O82 O 0.59113 0.90154 0.40308 0.0
O83 O 0.58211 0.88626 0.44277 0.0
Co84 Co 0.55794 0.32075 0.76804 0.0
O85 O 0.52036 0.31676 0.75886 0.0
O86 O 0.53954 0.31255 0.80198 0.0
C87 C 0.56295 0.35947 0.74868 0.0
O88 O 0.59739 0.32477 0.78674 0.0
Co89 Co 0.59304 0.32536 0.7197 0.0
O90 O 0.62247 0.33175 0.75176 0.0
C91 C 0.56539 0.27232 0.72473 0.0
C92 C 0.51802 0.31347 0.78592 0.0
C93 C 0.61994 0.32903 0.77847 0.0
O94 O 0.55714 0.28164 0.74914 0.0
O95 O 0.57748 0.28716 0.70947 0.0
O96 O 0.5592 0.35961 0.77623 0.0
O97 O 0.56369 0.33646 0.73401 0.0
Co98 Co 0.08741 0.36338 0.9058 0.0
O99 O 0.12508 0.36818 0.91564 0.0
O100 O 0.10499 0.35284 0.87074 0.0
C101 C 0.08338 0.40374 0.93227 0.0
O102 O 0.04764 0.35674 0.8869 0.0
Co103 Co 0.05304 0.36374 0.95611 0.0
O104 O 1.02413 0.36178 0.92441 0.0
C105 C 0.08006 0.3189 0.942 0.0
C106 C 0.12692 0.35919 0.88808 0.0
C107 C 1.02566 0.35756 0.89655 0.0
O108 O 0.08547 0.32655 0.91747 0.0
O109 O 0.06942 0.33243 0.96101 0.0
O110 O 0.08937 0.40208 0.90538 0.0
O111 O 0.08191 0.38194 0.94244 0.0
Co112 Co 0.47495 0.16091 0.33915 0.0
O113 O 0.4734 0.19867 0.33941 0.0
O114 O 0.44349 0.16596 0.31626 0.0
C115 C 0.48824 0.16254 0.38972 0.0
O116 O 0.46665 0.12094 0.33512 0.0
Co117 Co 0.52295 0.13699 0.35753 0.0
O118 O 0.49743 0.1073 0.3636 0.0
C119 C 0.51243 0.14755 0.29525 0.0
C120 C 0.4508 0.19134 0.32388 0.0
C121 C 0.47498 0.10368 0.34942 0.0
O122 O 0.49201 0.15665 0.30096 0.0
O123 O 0.52741 0.14039 0.31536 0.0
O124 O 0.46495 0.16374 0.37942 0.0
O125 O 0.50333 0.16395 0.37 0.0
Co126 Co 0.27935 0.15997 0.47651 0.0
O127 O 0.31317 0.15655 0.46994 0.0
O128 O 0.28375 0.12359 0.47486 0.0
C129 C 0.27283 0.18683 0.44283 0.0
O130 O 0.24263 0.15561 0.48339 0.0
Co131 Co 0.26534 0.21516 0.49928 0.0
O132 O 0.23072 0.19506 0.49624 0.0
C133 C 0.29998 0.1904 0.53712 0.0
C134 C 0.30711 0.13179 0.47204 0.0
C135 C 0.22598 0.16981 0.49063 0.0
O136 O 0.29138 0.16749 0.52102 0.0
O137 O 0.29446 0.21194 0.52969 0.0
O138 O 0.26926 0.16129 0.43361 0.0
O139 O 0.28127 0.1946 0.47079 0.0
Co140 Co 0.21641 0.07148 0.85934 0.0
O141 O 0.21278 0.0307 0.85551 0.0
O142 O 0.24719 0.0547 0.85138 0.0
C143 C 0.19387 0.07785 0.90267 0.0
O144 O 0.2328 0.11304 0.86041 0.0
Co145 Co 0.17879 0.11074 0.86192 0.0
O146 O 0.20622 0.14189 0.86785 0.0
C147 C 0.18169 0.0776 0.80266 0.0
C148 C 0.2362 0.03069 0.85126 0.0
C149 C 0.22818 0.13766 0.86371 0.0
O150 O 0.20187 0.06892 0.81382 0.0
O151 O 0.16978 0.0921 0.81919 0.0
O152 O 0.21744 0.07437 0.90523 0.0
O153 O 0.18537 0.07836 0.87526 0.0
Co154 Co 0.25184 0.93667 0.08026 0.0
O155 O 0.21557 0.9333 0.0834 0.0
O156 O 0.24292 0.96992 0.09932 0.0
C157 C 0.24867 0.91658 0.03059 0.0
O158 O 0.28889 0.95068 0.07984 0.0
Co159 Co 0.2821 0.89075 0.06464 0.0
O160 O 0.3075 0.91933 0.05622 0.0
C161 C 0.27282 0.9056 0.12772 0.0
C162 C 0.21946 0.95845 0.09493 0.0
C163 C 0.30742 0.94335 0.06754 0.0
O164 O 0.26121 0.92475 0.12105 0.0
O165 O 0.28043 0.88961 0.10789 0.0
O166 O 0.24446 0.94064 0.03777 0.0
O167 O 0.25178 0.90455 0.05315 0.0
Co168 Co 0.36853 0.50959 0.15797 0.0
O169 O 0.3328 0.50337 0.14428 0.0
O170 O 0.35265 0.53537 0.18113 0.0
C171 C 0.38056 0.5074 0.11255 0.0
O172 O 0.40563 0.5227 0.17615 0.0
Co173 Co 0.39925 0.46455 0.13845 0.0
O174 O 0.42818 0.49166 0.15921 0.0
C175 C 0.36754 0.45936 0.18537 0.0
C176 C 0.33169 0.52419 0.1635 0.0
C177 C 0.42668 0.51422 0.17384 0.0
O178 O 0.36382 0.48356 0.18679 0.0
O179 O 0.37866 0.44768 0.16546 0.0
O180 O 0.37426 0.52915 0.12514 0.0
O181 O 0.37641 0.48736 0.12584 0.0
Co182 Co 0.89975 0.23977 0.07575 0.0
O183 O 0.93688 0.24289 0.07914 0.0
O184 O 0.912 0.20767 0.08561 0.0
C185 C 0.89257 0.25455 0.03042 0.0
O186 O 0.86197 0.22651 0.07243 0.0
Co187 Co 0.8686 0.28587 0.07124 0.0
O188 O 0.8392 0.25672 0.0585 0.0
C189 C 0.89173 0.27838 0.13173 0.0
C190 C 0.93473 0.21837 0.0832 0.0
C191 C 0.84073 0.23357 0.0639 0.0
O192 O 0.90018 0.25713 0.12048 0.0
O193 O 0.8811 0.29277 0.11525 0.0
O194 O 0.89689 0.2307 0.03146 0.0
O195 O 0.89517 0.26931 0.05641 0.0
Co196 Co 0.16326 0.50998 0.32913 0.0
O197 O 0.16002 0.47142 0.32667 0.0
O198 O 0.19429 0.49739 0.3207 0.0
C199 C 0.14733 0.52016 0.37302 0.0
O200 O 0.17588 0.54903 0.33126 0.0
Co201 Co 0.11822 0.54147 0.32804 0.0
O202 O 0.14489 0.57345 0.33387 0.0
C203 C 0.1292 0.51384 0.27074 0.0
C204 C 0.18363 0.47377 0.32272 0.0
C205 C 0.16803 0.57134 0.33331 0.0
O206 O 0.14946 0.50729 0.28422 0.0
O207 O 0.11329 0.52466 0.28475 0.0
O208 O 0.17026 0.51534 0.37324 0.0
O209 O 0.13389 0.51564 0.34669 0.0
Co210 Co 0.86563 1.00816 0.66076 0.0
O211 O 0.83007 0.99716 0.64629 0.0
O212 O 0.84666 0.03248 0.68072 0.0
C213 C 0.87851 1.00402 0.61571 0.0
O214 O 0.90128 0.02701 0.67905 0.0
Co215 Co 0.90364 0.96888 0.64854 0.0
O216 O 0.92891 1.00108 0.66381 0.0
C217 C 0.87034 0.96186 0.69358 0.0
C218 C 0.82671 1.01834 0.6635 0.0
C219 C 0.92388 0.02292 0.67648 0.0
O220 O 0.86352 0.98461 0.69247 0.0
O221 O 0.88392 0.95141 0.67574 0.0
O222 O 0.86941 0.02497 0.62547 0.0
O223 O 0.8768 0.98551 0.6316 0.0
Co224 Co 0.93225 0.10579 0.3233 0.0
O225 O 0.93994 0.14617 0.33014 0.0
O226 O 0.90278 0.12533 0.31222 0.0
C227 C 0.95392 0.1022 0.37052 0.0
O228 O 0.91314 0.06426 0.3163 0.0
Co229 Co 0.96858 0.06515 0.32615 0.0
O230 O 0.94023 0.03877 0.33295 0.0
C231 C 0.96799 0.09408 0.27432 0.0
C232 C 0.91657 0.1486 0.3218 0.0
C233 C 0.91763 0.04155 0.3243 0.0
O234 O 0.94719 0.10299 0.2812 0.0
O235 O 0.97923 0.08033 0.29106 0.0
O236 O 0.93138 0.10843 0.36796 0.0
O237 O 0.96233 0.099 0.34546 0.0
Co238 Co 0.40089 0.7407 0.57593 0.0
O239 O 0.43703 0.73672 0.57852 0.0
O240 O 0.40665 0.70557 0.5833 0.0
C241 C 0.3971 0.75942 0.53312 0.0
O242 O 0.36263 0.73422 0.57247 0.0
Co243 Co 0.37946 0.79384 0.57711 0.0
O244 O 0.34597 0.77029 0.56496 0.0
C245 C 0.39755 0.77819 0.635 0.0
C246 C 0.43044 0.71217 0.58149 0.0
C247 C 0.34353 0.74582 0.56693 0.0
O248 O 0.40277 0.75591 0.62142 0.0
O249 O 0.39087 0.79614 0.62086 0.0
O250 O 0.3971 0.73414 0.53134 0.0
O251 O 0.40215 0.77256 0.56008 0.0
Co252 Co 0.4311 0.60706 0.82485 0.0
O253 O 0.43574 0.6478 0.83088 0.0
O254 O 0.40058 0.62338 0.81092 0.0
C255 C 0.4505 0.60543 0.87362 0.0
O256 O 0.41371 0.56503 0.81887 0.0
Co257 Co 0.47003 0.57008 0.83095 0.0
O258 O 0.44266 0.54072 0.83325 0.0
C259 C 0.46894 0.59633 0.77733 0.0
C260 C 0.41204 0.6476 0.82091 0.0
C261 C 0.41957 0.54231 0.82534 0.0
O262 O 0.44753 0.60434 0.78344 0.0
O263 O 0.4809 0.5841 0.79528 0.0
O264 O 0.4275 0.61008 0.86839 0.0
O265 O 0.46118 0.60289 0.84999 0.0
Co266 Co 0.66603 1.00836 0.83619 0.0
O267 O 0.66093 0.96953 0.83147 0.0
O268 O 0.69607 0.99435 0.82616 0.0
C269 C 0.65092 1.01722 0.88095 0.0
O270 O 0.68045 0.04735 0.84041 0.0
Co271 Co 0.62298 0.04238 0.83842 0.0
O272 O 0.65098 0.07327 0.84631 0.0
C273 C 0.63248 1.01675 0.7793 0.0
C274 C 0.68443 0.97087 0.82724 0.0
C275 C 0.67375 0.07024 0.84447 0.0
O276 O 0.65206 1.0083 0.79183 0.0
O277 O 0.6173 0.02786 0.79436 0.0
O278 O 0.67334 1.01124 0.88004 0.0
O279 O 0.63735 1.01475 0.85493 0.0
Co280 Co 0.79185 0.65573 0.98168 0.0
O281 O 0.82569 0.65543 0.97285 0.0
O282 O 0.80121 0.62187 0.98526 0.0
C283 C 0.77903 0.67583 0.94349 0.0
O284 O 0.75637 0.64795 0.99202 0.0
Co285 Co 0.77024 0.7078 0.99717 0.0
O286 O 0.73798 0.68416 0.99772 0.0
C287 C 0.81214 0.6943 0.03696 0.0
C288 C 0.82304 0.63157 0.97888 0.0
C289 C 0.7374 0.65941 0.99697 0.0
O290 O 0.80604 0.66976 0.02487 0.0
O291 O 0.80227 0.71271 0.02665 0.0
O292 O 0.77855 0.6503 0.93858 0.0
O293 O 0.7881 0.68784 0.97025 0.0
Co294 Co 0.97496 0.65982 0.83453 0.0
O295 O 0.9755 0.69788 0.83644 0.0
O296 O 0.94311 0.66748 0.81447 0.0
C297 C 0.99062 0.66005 0.88416 0.0
O298 O 0.965 0.61976 0.82997 0.0
Co299 Co 1.02286 0.63405 0.84763 0.0
O300 O 0.99765 0.60347 0.85166 0.0
C301 C 1.00924 0.64602 0.78681 0.0
C302 C 0.95227 0.69251 0.82255 0.0
C303 C 0.97442 0.60101 0.84047 0.0
O304 O 0.98982 0.65584 0.79477 0.0
O305 O 1.02479 0.63738 0.80492 0.0
O306 O 0.96725 0.66238 0.87586 0.0
O307 O 1.0045 0.66117 0.86318 0.0
Co308 Co 0.74611 0.42693 0.57416 0.0
O309 O 0.71008 0.42755 0.57539 0.0
O310 O 0.73987 0.46175 0.59336 0.0
C311 C 0.74398 0.40744 0.52425 0.0
O312 O 0.78429 0.43498 0.57588 0.0
Co313 Co 0.76605 0.37286 0.56016 0.0
O314 O 0.79796 0.39694 0.55978 0.0
C315 C 0.76009 0.39324 0.62279 0.0
C316 C 0.71577 0.45241 0.58782 0.0
C317 C 0.80185 0.42192 0.56891 0.0
O318 O 0.75202 0.41415 0.61518 0.0
O319 O 0.76398 0.37415 0.60354 0.0
O320 O 0.74218 0.43224 0.53164 0.0
O321 O 0.74294 0.39467 0.54628 0.0
Co322 Co 0.71677 0.57079 0.35997 0.0
O323 O 0.70991 0.53027 0.35497 0.0
O324 O 0.7464 0.55102 0.35256 0.0
C325 C 0.69376 0.57795 0.4029 0.0
O326 O 0.73566 0.61203 0.36351 0.0
Co327 Co 0.68047 0.61158 0.36132 0.0
O328 O 0.70863 0.64111 0.36276 0.0
C329 C 0.68319 0.57847 0.30248 0.0
C330 C 0.73311 0.52783 0.35167 0.0
C331 C 0.73106 0.63644 0.3629 0.0
O332 O 0.7032 0.56958 0.31401 0.0
O333 O 0.67114 0.59275 0.31896 0.0
O334 O 0.71676 0.57275 0.40565 0.0
O335 O 0.68601 0.57923 0.37547 0.0
Nd336 Nd 0.09429 0.11082 0.09229 0.0
Nd337 Nd 0.0625 0.0661 0.08384 0.0
C338 C 0.12447 0.15738 0.10278 0.0
C339 C 0.12329 0.17859 0.08421 0.0
C340 C 0.11324 0.20121 0.09445 0.0
C341 C 0.10719 0.21859 0.07504 0.0
C342 C 0.1111 0.21391 0.04487 0.0
C343 C 0.12275 0.19232 0.03515 0.0
C344 C 0.1287 0.1748 0.05454 0.0
C345 C 0.09799 0.08686 0.03357 0.0
C346 C 0.03666 0.11679 0.06919 0.0
C347 C 1.03352 1.01893 0.07622 0.0
C348 C 0.0376 0.99674 0.09274 0.0
C349 C 0.0588 0.98411 0.09053 0.0
C350 C 0.06426 0.96578 0.10906 0.0
C351 C 0.04875 0.9595 0.13044 0.0
C352 C 1.02737 0.97188 0.13237 0.0
C353 C 1.02185 0.99017 0.11374 0.0
C354 C 0.06222 0.08986 0.1433 0.0
C355 C 0.1193 0.06037 0.10832 0.0
O356 O 0.10546 0.15239 0.11714 0.0
O357 O 0.13116 0.13565 0.0905 0.0
O358 O 0.09272 0.11037 0.04088 0.0
O359 O 0.09553 0.07484 0.0559 0.0
O360 O 0.05892 0.12979 0.08231 0.0
O361 O 1.03397 0.09063 0.06202 0.0
O362 O 0.04915 0.02509 0.05783 0.0
O363 O 1.02864 0.03996 0.09234 0.0
O364 O 0.06896 0.06718 0.13531 0.0
O365 O 0.06161 0.10165 0.12064 0.0
O366 O 0.09803 0.04759 0.09232 0.0
O367 O 0.12133 0.08632 0.11677 0.0
H368 H 0.10889 0.20477 0.11709 0.0
H369 H 0.09863 0.23532 0.08343 0.0
H370 H 0.12598 0.1881 0.01209 0.0
H371 H 0.1364 0.15759 0.04572 0.0
H372 H 0.07158 0.98883 0.07497 0.0
H373 H 0.08105 0.95693 0.10703 0.0
H374 H 1.01476 0.96734 0.14819 0.0
H375 H 1.00549 0.99966 0.11624 0.0
Nd376 Nd 0.33201 0.85883 0.35255 0.0
Nd377 Nd 0.31694 0.81013 0.31848 0.0
C378 C 0.34068 0.90519 0.3894 0.0
C379 C 0.35521 0.93079 0.38723 0.0
C380 C 0.36386 0.95011 0.41296 0.0
C381 C 0.3802 0.97323 0.41135 0.0
C382 C 0.38812 0.97725 0.38395 0.0
C383 C 0.37895 0.95796 0.35813 0.0
C384 C 0.36269 0.93493 0.35978 0.0
C385 C 0.37616 0.84156 0.33668 0.0
C386 C 0.32315 0.85826 0.28192 0.0
C387 C 0.30523 0.76364 0.28225 0.0
C388 C 0.28912 0.73921 0.28591 0.0
C389 C 0.29059 0.73101 0.31395 0.0
C390 C 0.2731 0.71001 0.31861 0.0
C391 C 0.25363 0.69691 0.29543 0.0
C392 C 0.25247 0.70476 0.26719 0.0
C393 C 0.27011 0.72573 0.26247 0.0
C394 C 0.2732 0.82945 0.33406 0.0
C395 C 0.32931 0.80813 0.38792 0.0
O396 O 0.32011 0.89682 0.37 0.0
O397 O 0.35415 0.88667 0.39211 0.0
O398 O 0.37019 0.86453 0.33393 0.0
O399 O 0.35735 0.82738 0.34419 0.0
O400 O 0.32124 0.87279 0.30751 0.0
O401 O 0.32782 0.83407 0.28205 0.0
O402 O 0.32647 0.77107 0.30072 0.0
O403 O 0.29341 0.78337 0.27881 0.0
O404 O 0.2784 0.80632 0.33729 0.0
O405 O 0.29232 0.84236 0.32603 0.0
O406 O 0.32724 0.79401 0.36114 0.0
O407 O 0.3272 0.83345 0.39048 0.0
H408 H 0.35845 0.94704 0.43437 0.0
H409 H 0.38678 0.98786 0.43154 0.0
H410 H 0.385 0.96025 0.33682 0.0
H411 H 0.35652 0.91997 0.33978 0.0
H412 H 0.30477 0.74133 0.33262 0.0
H413 H 0.27431 0.70466 0.34071 0.0
H414 H 0.23781 0.69484 0.24882 0.0
H415 H 0.26847 0.73193 0.24079 0.0
Nd416 Nd 0.59092 0.09199 0.57761 0.0
Nd417 Nd 0.54213 0.07688 0.58237 0.0
C418 C 0.63776 0.10081 0.56566 0.0
C419 C 0.66078 0.09124 0.57749 0.0
C420 C 0.67585 0.08055 0.55759 0.0
C421 C 0.69604 0.06865 0.56809 0.0
C422 C 0.70154 0.06724 0.59874 0.0
C423 C 0.68684 0.07861 0.61877 0.0
C424 C 0.66658 0.09039 0.60824 0.0
C425 C 0.58884 0.06845 0.62859 0.0
C426 C 0.56491 0.03482 0.54162 0.0
C427 C 0.49504 0.06553 0.5924 0.0
C428 C 0.47181 0.0732 0.57808 0.0
C429 C 0.47009 0.10001 0.57833 0.0
C430 C 0.45012 0.10709 0.56054 0.0
C431 C 0.43154 0.08758 0.54185 0.0
C432 C 0.43272 0.06076 0.54248 0.0
C433 C 0.45266 0.05366 0.56049 0.0
C434 C 0.54393 0.09988 0.5309 0.0
C435 C 0.56879 0.13448 0.61908 0.0
O436 O 0.62002 0.08275 0.54914 0.0
O437 O 0.62876 0.11725 0.58442 0.0
O438 O 0.60408 0.08951 0.62698 0.0
O439 O 0.57486 0.05982 0.60358 0.0
O440 O 0.57891 0.0567 0.53809 0.0
O441 O 0.55146 0.03628 0.56365 0.0
O442 O 0.51178 0.08432 0.60955 0.0
O443 O 0.5054 0.0496 0.5747 0.0
O444 O 0.52922 0.07854 0.53286 0.0
O445 O 0.55795 0.10893 0.55594 0.0
O446 O 0.55306 0.11319 0.62127 0.0
O447 O 0.58325 0.13266 0.59803 0.0
H448 H 0.67163 0.08084 0.53379 0.0
H449 H 0.70725 0.06036 0.55217 0.0
H450 H 0.69046 0.07763 0.64244 0.0
H451 H 0.65512 0.09822 0.6241 0.0
H452 H 0.48459 0.1156 0.59151 0.0
H453 H 0.44942 0.12793 0.56118 0.0
H454 H 0.41876 0.04525 0.5283 0.0
H455 H 0.45371 0.03286 0.5597 0.0
Nd456 Nd 0.33446 0.34431 0.86538 0.0
Nd457 Nd 0.3132 0.33238 0.81606 0.0
C458 C 0.35092 0.35777 0.9236 0.0
C459 C 0.37125 0.37822 0.941 0.0
C460 C 0.38147 0.37574 0.96992 0.0
C461 C 0.39802 0.3969 0.98826 0.0
C462 C 0.40444 0.42088 0.97791 0.0
C463 C 0.39591 0.42236 0.94794 0.0
C464 C 0.3794 0.40116 0.92961 0.0
C465 C 0.3505 0.38944 0.8392 0.0
C466 C 0.27317 0.34789 0.85657 0.0
C467 C 0.30178 0.32391 0.75686 0.0
C468 C 0.31063 0.30646 0.73324 0.0
C469 C 0.33591 0.31084 0.72828 0.0
C470 C 0.34461 0.29296 0.7076 0.0
C471 C 0.32803 0.27066 0.69085 0.0
C472 C 0.30262 0.26655 0.69561 0.0
C473 C 0.29407 0.2842 0.71667 0.0
C474 C 0.29951 0.28578 0.8411 0.0
C475 C 0.37371 0.32394 0.82452 0.0
O476 O 0.33198 0.36647 0.91 0.0
O477 O 0.35792 0.3384 0.90674 0.0
O478 O 0.36456 0.37537 0.85248 0.0
O479 O 0.32743 0.37748 0.83672 0.0
O480 O 0.2919 0.34213 0.87475 0.0
O481 O 0.278 0.34977 0.82949 0.0
O482 O 0.31826 0.34382 0.77212 0.0
O483 O 0.28813 0.31208 0.77394 0.0
O484 O 0.2845 0.29686 0.82454 0.0
O485 O 0.32174 0.29993 0.84536 0.0
O486 O 0.35347 0.32448 0.80519 0.0
O487 O 0.37118 0.32912 0.85293 0.0
H488 H 0.37553 0.35806 0.97889 0.0
H489 H 0.40395 0.39521 1.01137 0.0
H490 H 0.40059 0.44055 0.93939 0.0
H491 H 0.37185 0.40333 0.90717 0.0
H492 H 0.34904 0.32807 0.74044 0.0
H493 H 0.36426 0.29678 0.70451 0.0
H494 H 0.28904 0.25012 0.68245 0.0
H495 H 0.27445 0.28046 0.71995 0.0
Nd496 Nd 0.06959 0.1192 0.60039 0.0
Nd497 Nd 0.07385 0.06892 0.57214 0.0
C498 C 0.05747 0.1658 0.618 0.0
C499 C 0.06 0.18875 0.60266 0.0
C500 C 0.07226 0.21346 0.61881 0.0
C501 C 0.0805 0.23373 0.60364 0.0
C502 C 0.07655 0.22956 0.57208 0.0
C503 C 0.06283 0.20539 0.55598 0.0
C504 C 0.05475 0.18507 0.57114 0.0
C505 C 0.11209 0.12115 0.57245 0.0
C506 C 0.03969 0.09868 0.5308 0.0
C507 C 0.08486 0.02177 0.55343 0.0
C508 C 0.08036 0.99797 0.56694 0.0
C509 C 0.08324 0.97329 0.55175 0.0
C510 C 0.0749 0.95025 0.56263 0.0
C511 C 0.06327 0.95163 0.58866 0.0
C512 C 0.06152 0.97664 0.60444 0.0
C513 C 0.07002 0.99958 0.5937 0.0
C514 C 1.03145 0.06937 0.59971 0.0
C515 C 0.10019 0.08758 0.64347 0.0
O516 O 0.04066 0.14525 0.60458 0.0
O517 O 0.07897 0.15932 0.62812 0.0
O518 O 0.11143 0.13274 0.59937 0.0
O519 O 0.09068 0.10794 0.5609 0.0
O520 O 0.03898 0.11255 0.55745 0.0
O521 O 0.05621 0.08228 0.52889 0.0
O522 O 0.10165 0.04134 0.56915 0.0
O523 O 0.06423 0.02958 0.54282 0.0
O524 O 1.03116 0.05693 0.57292 0.0
O525 O 0.0533 0.08064 0.61129 0.0
O526 O 0.10279 0.07395 0.61728 0.0
O527 O 0.08386 0.1042 0.64347 0.0
H528 H 0.07675 0.21659 0.64306 0.0
H529 H 0.09072 0.25239 0.61655 0.0
H530 H 0.0596 0.20169 0.53167 0.0
H531 H 0.04567 0.16606 0.55805 0.0
H532 H 0.09108 0.97174 0.53098 0.0
H533 H 0.07692 0.93132 0.55022 0.0
H534 H 0.05238 0.9785 0.62425 0.0
H535 H 0.0674 1.01854 0.60552 0.0
Nd536 Nd 0.34537 0.85606 0.85072 0.0
Nd537 Nd 0.30483 0.82298 0.8229 0.0
C538 C 0.38898 0.88477 0.87798 0.0
C539 C 0.4156 0.88782 0.89111 0.0
C540 C 0.42504 0.86732 0.90333 0.0
C541 C 0.448 0.87269 0.92287 0.0
C542 C 0.46174 0.89864 0.93053 0.0
C543 C 0.45279 0.91873 0.91688 0.0
C544 C 0.42993 0.91332 0.89731 0.0
C545 C 0.3089 0.85604 0.88826 0.0
C546 C 0.34998 0.79 0.84265 0.0
C547 C 0.25999 0.79587 0.79694 0.0
C548 C 0.23413 0.79923 0.78669 0.0
C549 C 0.22793 0.82453 0.78637 0.0
C550 C 0.20484 0.82739 0.77064 0.0
C551 C 0.18777 0.80496 0.75495 0.0
C552 C 0.19376 0.77964 0.75645 0.0
C553 C 0.21674 0.77684 0.77224 0.0
C554 C 0.3414 0.82316 0.78527 0.0
C555 C 0.29989 0.88889 0.83071 0.0
O556 O 0.38215 0.88191 0.84895 0.0
O557 O 0.37281 0.87156 0.89133 0.0
O558 O 0.32207 0.87662 0.88199 0.0
O559 O 0.31432 0.83493 0.87387 0.0
O560 O 0.36228 0.81505 0.8489 0.0
O561 O 0.32502 0.78722 0.8351 0.0
O562 O 0.26775 0.7988 0.82577 0.0
O563 O 0.27689 0.80668 0.7826 0.0
O564 O 0.32786 0.80247 0.7909 0.0
O565 O 0.33592 0.84414 0.79991 0.0
O566 O 0.28777 0.86383 0.82502 0.0
O567 O 0.32492 0.89173 0.83785 0.0
H568 H 0.41404 0.84753 0.89901 0.0
H569 H 0.4547 0.85669 0.93252 0.0
H570 H 0.46281 0.93895 0.92243 0.0
H571 H 0.42267 0.92947 0.88852 0.0
H572 H 0.24136 0.84204 0.7971 0.0
H573 H 0.2006 0.84712 0.77024 0.0
H574 H 0.18122 0.76197 0.74429 0.0
H575 H 0.22149 0.7572 0.77182 0.0
Nd576 Nd 0.54867 0.08784 0.06516 0.0
Nd577 Nd 0.60493 0.09626 0.09636 0.0
C578 C 0.50106 0.09067 0.0462 0.0
C579 C 0.47662 0.07373 0.04639 0.0
C580 C 0.46839 0.06929 0.07347 0.0
C581 C 0.44641 0.05131 0.07324 0.0
C582 C 0.43232 0.03729 0.04596 0.0
C583 C 0.44022 0.0422 0.01889 0.0
C584 C 0.46209 0.06035 0.01912 0.0
C585 C 0.56681 0.04145 0.06883 0.0
C586 C 0.56204 0.09885 0.13932 0.0
C587 C 0.65325 0.09526 0.11414 0.0
C588 C 0.6773 0.10888 0.10769 0.0
C589 C 0.69709 0.09476 0.10309 0.0
C590 C 0.71986 0.10742 0.09642 0.0
C591 C 0.72322 0.13448 0.0943 0.0
C592 C 0.70321 0.14848 0.09881 0.0
C593 C 0.68045 0.13578 0.10524 0.0
C594 C 0.58488 0.14148 0.09086 0.0
C595 C 0.59241 0.08455 0.02207 0.0
O596 O 0.51345 0.10349 0.07211 0.0
O597 O 0.51581 0.08044 0.02877 0.0
O598 O 0.54582 0.04293 0.05247 0.0
O599 O 0.57278 0.06242 0.0882 0.0
O600 O 0.54663 0.1018 0.11554 0.0
O601 O 0.5839 0.09066 0.13643 0.0
O602 O 0.6394 0.07824 0.0919 0.0
O603 O 0.63989 0.10992 0.12938 0.0
O604 O 0.60248 0.13997 0.11232 0.0
O605 O 0.58132 0.12077 0.0714 0.0
O606 O 0.60848 0.08482 0.04654 0.0
O607 O 0.56925 0.08981 0.02366 0.0
H608 H 0.47921 0.07919 0.09491 0.0
H609 H 0.44089 0.04776 0.09445 0.0
H610 H 0.42954 0.03191 0.99754 0.0
H611 H 0.468 0.06348 0.99795 0.0
H612 H 0.69489 0.0739 0.10452 0.0
H613 H 0.73473 0.09596 0.0927 0.0
H614 H 0.70522 0.1694 0.09786 0.0
H615 H 0.66536 0.14707 0.1084 0.0
Nd616 Nd 0.3019 0.31844 0.30847 0.0
Nd617 Nd 0.33743 0.35325 0.3558 0.0
C618 C 0.26799 0.28904 0.26617 0.0
C619 C 0.24104 0.28774 0.27045 0.0
C620 C 0.22828 0.30832 0.26334 0.0
C621 C 0.21119 0.31747 0.28138 0.0
C622 C 0.20671 0.3061 0.30663 0.0
C623 C 0.21568 0.28254 0.31015 0.0
C624 C 0.23219 0.27299 0.29163 0.0
C625 C 0.29105 0.31211 0.3647 0.0
C626 C 0.28375 0.37282 0.33708 0.0
C627 C 0.37141 0.3819 0.39901 0.0
C628 C 0.3987 0.38192 0.39737 0.0
C629 C 0.4108 0.36278 0.40953 0.0
C630 C 0.42958 0.35209 0.39559 0.0
C631 C 0.43611 0.3603 0.36931 0.0
C632 C 0.42751 0.38264 0.36069 0.0
C633 C 0.40935 0.3938 0.37507 0.0
C634 C 0.34676 0.35951 0.29908 0.0
C635 C 0.35638 0.29965 0.32828 0.0
O636 O 0.27951 0.3122 0.26272 0.0
O637 O 0.28188 0.27859 0.28526 0.0
O638 O 0.27463 0.31411 0.34243 0.0
O639 O 0.31275 0.31471 0.35718 0.0
O640 O 0.28074 0.35426 0.31298 0.0
O641 O 0.30255 0.37424 0.35924 0.0
O642 O 0.35856 0.35932 0.4022 0.0
O643 O 0.35927 0.39248 0.37852 0.0
O644 O 0.36391 0.35708 0.32046 0.0
O645 O 0.3255 0.35736 0.30751 0.0
O646 O 0.35757 0.31743 0.35254 0.0
O647 O 0.33815 0.29816 0.30526 0.0
H648 H 0.23406 0.31972 0.24664 0.0
H649 H 0.20389 0.33525 0.27763 0.0
H650 H 0.21179 0.27287 0.32889 0.0
H651 H 0.24083 0.25638 0.29701 0.0
H652 H 0.40346 0.35357 0.42711 0.0
H653 H 0.43646 0.3352 0.40298 0.0
H654 H 0.43284 0.38971 0.34086 0.0
H655 H 0.40116 0.40915 0.36567 0.0
Nd656 Nd 0.57301 0.61675 0.09281 0.0
Nd657 Nd 0.57611 0.56225 0.07236 0.0
C658 C 0.56372 0.66533 0.10779 0.0
C659 C 0.57075 0.68873 0.09438 0.0
C660 C 0.57079 0.71413 0.11007 0.0
C661 C 0.5796 0.73636 0.09809 0.0
C662 C 0.5885 0.73342 0.07029 0.0
C663 C 0.5879 0.70786 0.05438 0.0
C664 C 0.57917 0.6857 0.0664 0.0
C665 C 0.61637 0.61132 0.06734 0.0
C666 C 0.54367 0.59191 0.0244 0.0
C667 C 0.57831 0.51349 0.0472 0.0
C668 C 0.57305 0.48776 0.05681 0.0
C669 C 0.57982 0.48528 0.08684 0.0
C670 C 0.57007 0.46245 0.09711 0.0
C671 C 0.55302 0.44192 0.07767 0.0
C672 C 0.54725 0.44405 0.04728 0.0
C673 C 0.55727 0.46673 0.03696 0.0
C674 C 0.54228 0.56814 0.11251 0.0
C675 C 0.60447 0.58716 0.13949 0.0
O676 O 0.54734 0.6463 0.09066 0.0
O677 O 0.58265 0.65661 0.12141 0.0
O678 O 0.61545 0.62763 0.09135 0.0
O679 O 0.59454 0.59873 0.05716 0.0
O680 O 0.5482 0.61288 0.04603 0.0
O681 O 0.55351 0.57058 0.02861 0.0
O682 O 0.5984 0.53024 0.06132 0.0
O683 O 0.55834 0.52465 0.04282 0.0
O684 O 0.55727 0.55093 0.11234 0.0
O685 O 0.54454 0.5806 0.09129 0.0
O686 O 0.60795 0.57215 0.11458 0.0
O687 O 0.58735 0.60301 0.13732 0.0
H688 H 0.56444 0.71676 0.13174 0.0
H689 H 0.57959 0.75587 0.11064 0.0
H690 H 0.59489 0.705 0.0331 0.0
H691 H 0.57944 0.66614 0.05414 0.0
H692 H 0.59171 0.50142 0.10269 0.0
H693 H 0.57538 0.46122 0.12048 0.0
H694 H 0.53401 0.42882 0.03173 0.0
H695 H 0.55152 0.46849 0.01382 0.0
Nd696 Nd 0.8469 0.35086 0.35429 0.0
Nd697 Nd 0.80595 0.32714 0.31626 0.0
C698 C 0.88787 0.38321 0.38425 0.0
C699 C 0.91529 0.38718 0.39347 0.0
C700 C 0.92926 0.36692 0.38669 0.0
C701 C 0.95501 0.37059 0.39836 0.0
C702 C 0.96699 0.39449 0.41713 0.0
C703 C 0.95291 0.41485 0.42329 0.0
C704 C 0.92728 0.41121 0.41151 0.0
C705 C 0.8083 0.33956 0.38753 0.0
C706 C 0.84743 0.28669 0.33593 0.0
C707 C 0.7645 0.29684 0.2846 0.0
C708 C 0.739 0.29951 0.27183 0.0
C709 C 0.72399 0.27808 0.25189 0.0
C710 C 0.70139 0.28136 0.23554 0.0
C711 C 0.69354 0.30618 0.23885 0.0
C712 C 0.70828 0.32743 0.25968 0.0
C713 C 0.73094 0.32413 0.276 0.0
C714 C 0.84471 0.33928 0.28362 0.0
C715 C 0.80453 0.39107 0.33471 0.0
O716 O 0.87926 0.38332 0.35616 0.0
O717 O 0.87435 0.36553 0.39577 0.0
O718 O 0.83038 0.33266 0.39228 0.0
O719 O 0.80625 0.34908 0.3636 0.0
O720 O 0.86257 0.30978 0.34661 0.0
O721 O 0.82327 0.2884 0.32675 0.0
O722 O 0.76984 0.29936 0.31377 0.0
O723 O 0.78245 0.30918 0.27289 0.0
O724 O 0.82294 0.34705 0.27968 0.0
O725 O 0.8466 0.3289 0.30695 0.0
O726 O 0.78985 0.36795 0.32307 0.0
O727 O 0.82859 0.38954 0.34482 0.0
H728 H 0.92015 0.34815 0.37299 0.0
H729 H 0.96535 0.35447 0.39344 0.0
H730 H 0.96169 0.43357 0.43732 0.0
H731 H 0.91666 0.42699 0.41704 0.0
H732 H 0.73014 0.25903 0.24824 0.0
H733 H 0.69017 0.26452 0.22008 0.0
H734 H 0.70273 0.34679 0.2626 0.0
H735 H 0.74258 0.34097 0.29102 0.0
Nd736 Nd 0.04988 0.5685 0.56001 0.0
Nd737 Nd 0.09137 0.61411 0.579 0.0
C738 C 1.00791 0.53366 0.54342 0.0
C739 C 0.98233 0.5259 0.54963 0.0
C740 C 0.97124 0.54233 0.56964 0.0
C741 C 0.94676 0.53379 0.57524 0.0
C742 C 0.93341 0.50873 0.56102 0.0
C743 C 0.9446 0.49273 0.54061 0.0
C744 C 0.96886 0.50124 0.53503 0.0
C745 C 0.09648 0.55343 0.56541 0.0
C746 C 0.05515 0.59974 0.62931 0.0
C747 C 0.13275 0.64859 0.60334 0.0
C748 C 0.1561 0.66176 0.5947 0.0
C749 C 0.17948 0.66041 0.61113 0.0
C750 C 0.20195 0.67294 0.60384 0.0
C751 C 0.20148 0.68724 0.58004 0.0
C752 C 0.17804 0.68862 0.56356 0.0
C753 C 0.15552 0.67587 0.57073 0.0
C754 C 0.0466 0.62728 0.55436 0.0
C755 C 0.08309 0.58535 0.50959 0.0
O756 O 1.01231 0.55536 0.53216 0.0
O757 O 1.02656 0.5306 0.56322 0.0
O758 O 0.07792 0.54261 0.54444 0.0
O759 O 0.09019 0.57124 0.58379 0.0
O760 O 0.04392 0.57863 0.60942 0.0
O761 O 0.07366 0.61672 0.62302 0.0
O762 O 0.1308 0.62314 0.60316 0.0
O763 O 0.11142 0.65546 0.59319 0.0
O764 O 0.0685 0.63536 0.54687 0.0
O765 O 0.04908 0.61172 0.57266 0.0
O766 O 0.10048 0.59789 0.5323 0.0
O767 O 0.05971 0.57768 0.51433 0.0
H768 H 0.98156 0.56151 0.58102 0.0
H769 H 0.93851 0.54643 0.59107 0.0
H770 H 0.93455 0.47354 0.52891 0.0
H771 H 0.97717 0.48846 0.51938 0.0
H772 H 0.18036 0.64975 0.62978 0.0
H773 H 0.2197 0.67185 0.61721 0.0
H774 H 0.17714 0.69936 0.545 0.0
H775 H 0.13772 0.67712 0.55757 0.0
Nd776 Nd 0.83376 0.84311 0.3628 0.0
Nd777 Nd 0.81473 0.83206 0.31377 0.0
C778 C 0.84799 0.8533 0.42179 0.0
C779 C 0.86798 0.87228 0.44197 0.0
C780 C 0.87256 0.87047 0.47234 0.0
C781 C 0.88868 0.89083 0.49247 0.0
C782 C 0.90002 0.9134 0.48245 0.0
C783 C 0.89673 0.9143 0.45169 0.0
C784 C 0.8811 0.89357 0.43153 0.0
C785 C 0.8485 0.89034 0.33823 0.0
C786 C 0.77313 0.8488 0.35034 0.0
C787 C 0.80437 0.82117 0.25465 0.0
C788 C 0.8116 0.79999 0.23367 0.0
C789 C 0.83649 0.80187 0.22733 0.0
C790 C 0.84405 0.78073 0.21003 0.0
C791 C 0.82662 0.75756 0.19769 0.0
C792 C 0.80166 0.75574 0.20398 0.0
C793 C 0.79428 0.77668 0.22188 0.0
C794 C 0.79855 0.78514 0.33747 0.0
C795 C 0.87572 0.82633 0.32357 0.0
O796 O 0.8303 0.86359 0.40798 0.0
O797 O 0.85539 0.83479 0.4041 0.0
O798 O 0.8631 0.87739 0.35268 0.0
O799 O 0.82612 0.87679 0.33514 0.0
O800 O 0.79012 0.84142 0.36955 0.0
O801 O 0.7806 0.85192 0.32473 0.0
O802 O 0.82268 0.83966 0.26916 0.0
O803 O 0.78848 0.81346 0.27194 0.0
O804 O 0.78468 0.7982 0.32218 0.0
O805 O 0.82128 0.79832 0.34199 0.0
O806 O 0.85574 0.82658 0.30384 0.0
O807 O 0.8722 0.8306 0.35171 0.0
H808 H 0.86272 0.85404 0.4807 0.0
H809 H 0.89063 0.88988 0.51619 0.0
H810 H 0.90517 0.93155 0.44353 0.0
H811 H 0.87823 0.89475 0.408 0.0
H812 H 0.85017 0.81972 0.23573 0.0
H813 H 0.86343 0.78283 0.20575 0.0
H814 H 0.78747 0.73854 0.19418 0.0
H815 H 0.77496 0.77467 0.22639 0.0
Nd816 Nd 0.82453 0.35984 0.85212 0.0
Nd817 Nd 0.81885 0.31481 0.82171 0.0
C818 C 0.82472 0.41073 0.87279 0.0
C819 C 0.8397 0.43499 0.86732 0.0
C820 C 0.83608 0.45989 0.88119 0.0
C821 C 0.85054 0.48291 0.87587 0.0
C822 C 0.86885 0.48128 0.85663 0.0
C823 C 0.87217 0.45618 0.84259 0.0
C824 C 0.85772 0.43325 0.8479 0.0
C825 C 0.87412 0.34876 0.85041 0.0
C826 C 0.81905 0.35565 0.77956 0.0
C827 C 0.81421 0.26335 0.80098 0.0
C828 C 0.79484 0.24163 0.8047 0.0
C829 C 0.79636 0.21522 0.79396 0.0
C830 C 0.77835 0.19475 0.7991 0.0
C831 C 0.75857 0.20048 0.81503 0.0
C832 C 0.75712 0.22708 0.82552 0.0
C833 C 0.77513 0.24743 0.82049 0.0
C834 C 0.7696 0.32781 0.82334 0.0
C835 C 0.82914 0.31781 0.89358 0.0
O836 O 0.80913 0.39701 0.84973 0.0
O837 O 0.83725 0.3958 0.88724 0.0
O838 O 0.86516 0.35834 0.87375 0.0
O839 O 0.85654 0.34369 0.82761 0.0
O840 O 0.81255 0.36822 0.80385 0.0
O841 O 0.82875 0.33424 0.78211 0.0
O842 O 0.8288 0.27533 0.82567 0.0
O843 O 0.80634 0.28004 0.7849 0.0
O844 O 0.77907 0.3192 0.80001 0.0
O845 O 0.78693 0.33079 0.84616 0.0
O846 O 0.83419 0.30597 0.86813 0.0
O847 O 0.81916 0.33938 0.89298 0.0
H848 H 0.8222 0.46152 0.89622 0.0
H849 H 0.84773 0.50194 0.88724 0.0
H850 H 0.88585 0.45426 0.82734 0.0
H851 H 0.86062 0.41411 0.83686 0.0
H852 H 0.81154 0.21044 0.78187 0.0
H853 H 0.77981 0.17446 0.79048 0.0
H854 H 0.74237 0.23216 0.8382 0.0
H855 H 0.77392 0.26776 0.82932 0.0
Nd856 Nd 0.79507 0.81101 0.79449 0.0
Nd857 Nd 0.83006 0.83772 0.84605 0.0
C858 C 0.75595 0.79499 0.75239 0.0
C859 C 0.73096 0.79127 0.7628 0.0
C860 C 0.71602 0.8112 0.76144 0.0
C861 C 0.70201 0.81767 0.78448 0.0
C862 C 0.70314 0.80451 0.8093 0.0
C863 C 0.71398 0.78145 0.80747 0.0
C864 C 0.72738 0.77458 0.7841 0.0
C865 C 0.7913 0.78466 0.84155 0.0
C866 C 0.77909 0.86333 0.83405 0.0
C867 C 0.86353 0.85818 0.8935 0.0
C868 C 0.89079 0.85957 0.89097 0.0
C869 C 0.90326 0.83912 0.89907 0.0
C870 C 0.9215 0.83034 0.88257 0.0
C871 C 0.92703 0.84169 0.85764 0.0
C872 C 0.91836 0.86528 0.85357 0.0
C873 C 0.90079 0.87454 0.8706 0.0
C874 C 0.84348 0.85178 0.79352 0.0
C875 C 0.84679 0.7878 0.80652 0.0
O876 O 0.76778 0.81946 0.75765 0.0
O877 O 0.7711 0.7789 0.7599 0.0
O878 O 0.79175 0.77375 0.81439 0.0
O879 O 0.79338 0.80961 0.84429 0.0
O880 O 0.77108 0.8419 0.81332 0.0
O881 O 0.80161 0.8666 0.85046 0.0
O882 O 0.85075 0.83413 0.89022 0.0
O883 O 0.85143 0.87302 0.87803 0.0
O884 O 0.85902 0.84553 0.81411 0.0
O885 O 0.82169 0.84929 0.80037 0.0
O886 O 0.84618 0.79941 0.83414 0.0
O887 O 0.83107 0.79305 0.78414 0.0
H888 H 0.71801 0.82418 0.7451 0.0
H889 H 0.6931 0.83506 0.78464 0.0
H890 H 0.71419 0.77016 0.82558 0.0
H891 H 0.73787 0.75842 0.78542 0.0
H892 H 0.89649 0.82759 0.9152 0.0
H893 H 0.9288 0.81282 0.88707 0.0
H894 H 0.92308 0.87499 0.83513 0.0
H895 H 0.89239 0.89104 0.86443 0.0
Nd896 Nd 0.59582 0.61074 0.59405 0.0
Nd897 Nd 0.56288 0.56711 0.58538 0.0
C898 C 0.62657 0.65697 0.60647 0.0
C899 C 0.62316 0.68085 0.593 0.0
C900 C 0.60084 0.69164 0.59415 0.0
C901 C 0.59593 0.71152 0.57779 0.0
C902 C 0.61314 0.72125 0.55975 0.0
C903 C 0.63554 0.71058 0.55866 0.0
C904 C 0.64051 0.69065 0.57517 0.0
C905 C 0.59872 0.58716 0.53493 0.0
C906 C 0.5395 0.61914 0.5696 0.0
C907 C 0.53241 0.52072 0.57825 0.0
C908 C 0.53453 0.49955 0.59685 0.0
C909 C 0.533 0.47302 0.58341 0.0
C910 C 0.53721 0.45358 0.60102 0.0
C911 C 0.54352 0.46019 0.63264 0.0
C912 C 0.54454 0.48677 0.64594 0.0
C913 C 0.53989 0.50601 0.62841 0.0
C914 C 0.56297 0.59093 0.64498 0.0
C915 C 0.6198 0.55894 0.60751 0.0
O916 O 0.61078 0.64957 0.62419 0.0
O917 O 0.63052 0.63693 0.58788 0.0
O918 O 0.59423 0.61092 0.54277 0.0
O919 O 0.5959 0.57485 0.55701 0.0
O920 O 0.56209 0.63117 0.58252 0.0
O921 O 0.53525 0.59284 0.56348 0.0
O922 O 0.55002 0.52512 0.56176 0.0
O923 O 0.52704 0.54278 0.59152 0.0
O924 O 0.56992 0.56839 0.63692 0.0
O925 O 0.56259 0.60274 0.62231 0.0
O926 O 0.59767 0.54694 0.59297 0.0
O927 O 0.62306 0.58498 0.61584 0.0
H928 H 0.58674 0.68427 0.60704 0.0
H929 H 0.5783 0.71896 0.57886 0.0
H930 H 0.64928 0.71775 0.54522 0.0
H931 H 0.65767 0.68242 0.57342 0.0
H932 H 0.52884 0.46734 0.55922 0.0
H933 H 0.53553 0.43335 0.58966 0.0
H934 H 0.5496 0.49309 0.66996 0.0
H935 H 0.54097 0.52613 0.63975 0.0
Nd936 Nd 0.10139 0.60141 0.0744 0.0
Nd937 Nd 0.05473 0.58069 0.07904 0.0
C938 C 0.14837 0.61497 0.06466 0.0
C939 C 0.17199 0.60696 0.0776 0.0
C940 C 0.18635 0.59399 0.05844 0.0
C941 C 0.20609 0.58207 0.07011 0.0
C942 C 0.21195 0.58295 0.10123 0.0
C943 C 0.19849 0.59716 0.12055 0.0
C944 C 0.17861 0.60896 0.10884 0.0
C945 C 0.10316 0.57829 0.12593 0.0
C946 C 0.07986 0.54418 0.03409 0.0
C947 C 1.00931 0.56407 0.09212 0.0
C948 C 0.9836 0.56255 0.07622 0.0
C949 C 0.96366 0.56559 0.09253 0.0
C950 C 0.93985 0.56749 0.07781 0.0
C951 C 0.93574 0.56658 0.04656 0.0
C952 C 0.95556 0.56257 0.03019 0.0
C953 C 0.97927 0.56053 0.04489 0.0
C954 C 0.0525 0.60378 0.02735 0.0
C955 C 0.0761 0.63976 0.11552 0.0
O956 O 0.1321 0.59606 0.04716 0.0
O957 O 0.13748 0.63004 0.08275 0.0
O958 O 0.11404 0.60164 0.12423 0.0
O959 O 0.09006 0.5676 0.10081 0.0
O960 O 0.09293 0.56745 0.03353 0.0
O961 O 0.06533 0.54239 0.05489 0.0
O962 O 1.02184 0.58793 0.10184 0.0
O963 O 1.02313 0.5483 0.07965 0.0
O964 O 0.03998 0.58124 0.0296 0.0
O965 O 0.06617 0.6142 0.05224 0.0
O966 O 0.06376 0.61673 0.11862 0.0
O967 O 0.08937 0.64016 0.09337 0.0
H968 H 0.1816 0.5921 0.03432 0.0
H969 H 0.21639 0.57155 0.0547 0.0
H970 H 0.20252 0.59807 0.14459 0.0
H971 H 0.1678 0.61869 0.12424 0.0
H972 H 0.96673 0.56739 0.11675 0.0
H973 H 0.92502 0.57091 0.09106 0.0
H974 H 0.95287 0.56156 1.00608 0.0
H975 H 0.99437 0.5581 0.03183 0.0
H976 H 0.05355 0.28646 0.97151 0.0
H977 H 0.12282 0.29674 0.9341 0.0
H978 H 0.13831 0.2634 0.96138 0.0
H979 H 0.13394 0.23547 1.0012 0.0
H980 H 0.06476 0.22822 0.03945 0.0
H981 H 0.0477 0.25652 1.00699 0.0
C982 C 0.07188 0.28106 0.96881 0.0
C983 C 0.08704 0.29417 0.95087 0.0
C984 C 0.08095 0.26286 0.98542 0.0
C985 C 0.11064 0.28678 0.94747 0.0
C986 C 0.11963 0.26799 0.96347 0.0
C987 C 0.11506 0.23993 1.00217 0.0
C988 C 0.10089 0.23017 0.02332 0.0
C989 C 0.10529 0.25658 0.98338 0.0
C990 C 0.07638 0.23602 0.02411 0.0
C991 C 0.06649 0.25203 1.00533 0.0
H992 H 0.16906 0.86344 0.28091 0.0
H993 H 0.13551 0.79725 0.31731 0.0
H994 H 0.17806 0.79058 0.33795 0.0
H995 H 0.22601 0.80164 0.34258 0.0
H996 H 0.258 0.8691 0.30674 0.0
H997 H 0.21561 0.87681 0.2893 0.0
C998 C 0.17081 0.8478 0.29392 0.0
C999 C 0.14832 0.83111 0.29753 0.0
C1000 C 0.19559 0.84397 0.30564 0.0
C1001 C 0.1518 0.8109 0.31438 0.0
C1002 C 0.17644 0.80687 0.32594 0.0
C1003 C 0.22379 0.81824 0.33126 0.0
C1004 C 0.24599 0.83468 0.32615 0.0
C1005 C 0.19867 0.82295 0.32128 0.0
C1006 C 0.24197 0.85599 0.3113 0.0
C1007 C 0.21744 0.86045 0.30116 0.0
H1008 H 0.56107 0.91651 0.47819 0.0
H1009 H 0.59845 0.95549 0.41499 0.0
H1010 H 0.59564 0.9988 0.44381 0.0
H1011 H 0.58426 0.02563 0.48871 0.0
H1012 H 0.54586 0.98553 0.55053 0.0
H1013 H 0.54741 0.94278 0.52056 0.0
C1014 C 0.56844 0.93444 0.47047 0.0
C1015 C 0.58006 0.93265 0.44442 0.0
C1016 C 0.56673 0.95917 0.48712 0.0
C1017 C 0.58933 0.9562 0.43482 0.0
C1018 C 0.58785 0.98099 0.45144 0.0
C1019 C 0.57616 1.00753 0.49556 0.0
C1020 C 0.5651 1.00894 0.5221 0.0
C1021 C 0.57688 0.98275 0.47791 0.0
C1022 C 0.55451 0.98521 0.53037 0.0
C1023 C 0.55541 0.96066 0.51321 0.0
H1024 H 0.46941 0.31093 0.755 0.0
H1025 H 0.50851 0.31674 0.84471 0.0
H1026 H 0.46882 0.32022 0.8647 0.0
H1027 H 0.42211 0.32304 0.85719 0.0
H1028 H 0.38365 0.31523 0.76677 0.0
H1029 H 0.42299 0.3112 0.74732 0.0
C1030 C 0.46939 0.31273 0.77896 0.0
C1031 C 0.49264 0.31347 0.79804 0.0
C1032 C 0.44609 0.31457 0.79051 0.0
C1033 C 0.49144 0.31591 0.82908 0.0
C1034 C 0.46849 0.31802 0.84065 0.0
C1035 C 0.42217 0.32028 0.83319 0.0
C1036 C 0.39905 0.31969 0.81373 0.0
C1037 C 0.44552 0.31758 0.8217 0.0
C1038 C 0.40042 0.31602 0.7827 0.0
C1039 C 0.42326 0.31366 0.77137 0.0
H1040 H 1.00152 0.84355 0.60584 0.0
H1041 H 1.02606 0.87768 0.69927 0.0
H1042 H 0.0485 0.91731 0.68496 0.0
H1043 H 0.062 0.94154 0.64567 0.0
H1044 H 0.03641 0.90691 0.5524 0.0
H1045 H 1.01425 0.86772 0.567 0.0
C1046 C 1.01169 0.85968 0.62315 0.0
C1047 C 1.01215 0.85768 0.65357 0.0
C1048 C 1.02474 0.88209 0.61477 0.0
C1049 C 1.02533 0.8788 0.67568 0.0
C1050 C 0.03828 0.90137 0.6675 0.0
C1051 C 0.05147 0.92548 0.62853 0.0
C1052 C 0.05109 0.92718 0.59794 0.0
C1053 C 0.03827 0.90312 0.63708 0.0
C1054 C 0.03757 0.90599 0.57607 0.0
C1055 C 1.0246 0.88366 0.58439 0.0
H1056 H 0.55595 0.90831 0.03161 0.0
H1057 H 0.58988 0.95524 0.97255 0.0
H1058 H 0.54897 0.95238 0.94213 0.0
H1059 H 0.50517 0.93086 0.9278 0.0
H1060 H 0.47073 0.88064 0.98372 0.0
H1061 H 0.51019 0.88955 0.01926 0.0
C1062 C 0.55403 0.91866 0.01274 0.0
C1063 C 0.5756 0.93282 1.00487 0.0
C1064 C 0.53055 0.91537 0.99407 0.0
C1065 C 0.57329 0.94526 0.97968 0.0
C1066 C 0.54998 0.94313 0.96191 0.0
C1067 C 0.50609 0.92227 0.94805 0.0
C1068 C 0.48516 0.90492 0.95292 0.0
C1069 C 0.52871 0.9274 0.96822 0.0
C1070 C 0.48681 0.89363 0.9791 0.0
C1071 C 0.50928 0.89891 0.99958 0.0
H1072 H 0.50171 0.21423 0.09265 0.0
H1073 H 0.52525 0.22266 0.18817 0.0
H1074 H 0.55158 0.18861 0.17945 0.0
H1075 H 0.5737 0.16289 0.14449 0.0
H1076 H 0.55083 0.15493 0.04903 0.0
H1077 H 0.51894 0.18316 0.05791 0.0
C1078 C 0.51211 0.20819 0.11166 0.0
C1079 C 0.51198 0.22154 0.14101 0.0
C1080 C 0.52812 0.18956 0.10642 0.0
C1081 C 0.52508 0.21295 0.16535 0.0
C1082 C 0.54052 0.19379 0.16034 0.0
C1083 C 0.56174 0.16737 0.12562 0.0
C1084 C 0.56511 0.1577 0.09609 0.0
C1085 C 0.54327 0.18317 0.13095 0.0
C1086 C 0.54891 0.16277 0.07189 0.0
C1087 C 0.53061 0.1787 0.07699 0.0
H1088 H 0.1538 0.37416 0.39891 0.0
H1089 H 0.21926 0.36592 0.45935 0.0
H1090 H 0.23458 0.3402 0.41781 0.0
H1091 H 0.22848 0.31884 0.36475 0.0
H1092 H 0.1637 0.32825 0.30415 0.0
H1093 H 0.14883 0.35478 0.34548 0.0
C1094 C 0.1715 0.36687 0.40302 0.0
C1095 C 0.1853 0.37179 0.43225 0.0
C1096 C 0.1801 0.35211 0.3791 0.0
C1097 C 0.20832 0.36244 0.43709 0.0
C1098 C 0.21699 0.34762 0.41338 0.0
C1099 C 0.21093 0.32643 0.36071 0.0
C1100 C 0.19681 0.3211 0.33163 0.0
C1101 C 0.20282 0.34201 0.38442 0.0
C1102 C 0.1746 0.33178 0.32644 0.0
C1103 C 0.1662 0.347 0.35002 0.0
H1104 H 1.01536 0.08431 0.26495 0.0
H1105 H 0.95295 0.11343 0.21978 0.0
H1106 H 0.97621 0.11655 0.17671 0.0
H1107 H 1.01482 0.1089 0.15012 0.0
H1108 H 0.07485 0.07825 0.19814 0.0
H1109 H 0.05215 0.07798 0.24079 0.0
C1110 C 1.00631 0.09144 0.24592 0.0
C1111 C 0.98162 0.09845 0.2467 0.0
C1112 C 1.01983 0.09297 0.22104 0.0
C1113 C 0.97151 0.10781 0.22094 0.0
C1114 C 0.98503 0.10952 0.19594 0.0
C1115 C 1.02323 0.10263 0.17011 0.0
C1116 C 0.04746 0.09398 0.17031 0.0
C1117 C 1.00934 0.10197 0.19543 0.0
C1118 C 0.05693 0.08534 0.19668 0.0
C1119 C 0.0437 0.08505 0.22136 0.0
H1120 H 0.36701 0.73562 0.47919 0.0
H1121 H 0.40233 0.81189 0.53065 0.0
H1122 H 0.38307 0.83393 0.49227 0.0
H1123 H 0.35655 0.83194 0.4432 0.0
H1124 H 0.3213 0.75571 0.39161 0.0
H1125 H 0.33958 0.73368 0.43064 0.0
C1126 C 0.37069 0.75704 0.48187 0.0
C1127 C 0.38642 0.77195 0.50784 0.0
C1128 C 0.35915 0.76981 0.45968 0.0
C1129 C 0.3905 0.79977 0.51095 0.0
C1130 C 0.37935 0.81249 0.48899 0.0
C1131 C 0.35243 0.81055 0.44078 0.0
C1132 C 0.33725 0.79565 0.41442 0.0
C1133 C 0.36353 0.79779 0.46324 0.0
C1134 C 0.33272 0.76783 0.41159 0.0
C1135 C 0.34335 0.75512 0.4339 0.0
H1136 H 0.58815 1.00984 0.74057 0.0
H1137 H 0.66889 0.03076 0.74552 0.0
H1138 H 0.66264 0.0481 0.69858 0.0
H1139 H 0.63391 0.06247 0.65947 0.0
H1140 H 0.55328 0.03909 0.65282 0.0
H1141 H 0.5597 1.01769 0.69693 0.0
C1142 C 0.60443 1.01738 0.73086 0.0
C1143 C 0.62903 1.0188 0.74668 0.0
C1144 C 0.60063 0.0275 0.70385 0.0
C1145 C 0.64982 0.02889 0.73376 0.0
C1146 C 0.6462 0.03925 0.70708 0.0
C1147 C 0.61776 0.0524 0.66749 0.0
C1148 C 0.59305 0.05275 0.65311 0.0
C1149 C 0.62168 0.03951 0.69249 0.0
C1150 C 0.57241 0.03923 0.66349 0.0
C1151 C 0.57611 0.02702 0.68877 0.0
H1152 H 0.4218 0.48647 0.10239 0.0
H1153 H 0.36289 0.5223 0.06045 0.0
H1154 H 0.37137 0.5036 1.01082 0.0
H1155 H 0.38667 0.46711 0.98179 0.0
H1156 H 0.44358 0.42901 0.02462 0.0
H1157 H 0.44565 0.45946 0.07166 0.0
C1158 C 0.4115 0.49095 0.08239 0.0
C1159 C 0.39136 0.50496 0.08469 0.0
C1160 C 0.41601 0.47952 0.05424 0.0
C1161 C 0.37836 0.51127 0.05889 0.0
C1162 C 0.38308 0.50041 0.03061 0.0
C1163 C 0.40047 0.46628 1.00095 0.0
C1164 C 0.41431 0.44527 1.00018 0.0
C1165 C 0.40061 0.48298 0.02817 0.0
C1166 C 0.43227 0.44463 0.02505 0.0
C1167 C 0.43328 0.46188 0.05197 0.0
H1168 H 0.95455 0.12336 0.43138 0.0
H1169 H 0.98954 0.07048 0.37376 0.0
H1170 H 1.01825 0.06435 0.41665 0.0
H1171 H 0.03526 0.07475 0.47095 0.0
H1172 H 1.00187 0.1288 0.52908 0.0
H1173 H 0.97161 0.13358 0.48648 0.0
C1174 C 0.96819 0.11021 0.42824 0.0
C1175 C 0.96935 0.09728 0.39881 0.0
C1176 C 0.98553 0.1071 0.45346 0.0
C1177 C 0.98776 0.08074 0.39569 0.0
C1178 C 1.00446 0.07721 0.42043 0.0
C1179 C 1.0214 0.08759 0.47443 0.0
C1180 C 1.02126 0.10137 0.50371 0.0
C1181 C 1.00384 0.09047 0.44948 0.0
C1182 C 1.00285 0.11788 0.50716 0.0
C1183 C 0.98531 0.12064 0.4826 0.0
H1184 H 0.39717 0.82556 0.67096 0.0
H1185 H 0.38925 0.7418 0.67278 0.0
H1186 H 0.37288 0.74913 0.72057 0.0
H1187 H 0.356 0.77845 0.75855 0.0
H1188 H 0.36221 0.86183 0.75546 0.0
H1189 H 0.38384 0.85546 0.71133 0.0
C1190 C 0.39238 0.80882 0.68198 0.0
C1191 C 0.39456 0.78296 0.66779 0.0
C1192 C 0.3821 0.81312 0.709 0.0
C1193 C 0.38822 0.76185 0.68291 0.0
C1194 C 0.37846 0.76605 0.71015 0.0
C1195 C 0.36224 0.79537 0.74841 0.0
C1196 C 0.35709 0.82068 0.76032 0.0
C1197 C 0.37452 0.79144 0.72286 0.0
C1198 C 0.36571 0.84224 0.74694 0.0
C1199 C 0.37807 0.83851 0.72161 0.0
H1200 H 0.60717 0.03727 0.88905 0.0
H1201 H 0.67719 0.025 0.93753 0.0
H1202 H 0.666 0.04604 0.98443 0.0
H1203 H 0.63662 0.06774 0.01204 0.0
H1204 H 0.56559 0.07891 0.96498 0.0
H1205 H 0.57714 0.0591 0.91738 0.0
C1206 C 0.61998 0.03919 0.90987 0.0
C1207 C 0.64312 0.02951 0.90952 0.0
C1208 C 0.6134 0.05148 0.9371 0.0
C1209 C 0.65936 0.03222 0.93688 0.0
C1210 C 0.65299 0.04438 0.96382 0.0
C1211 C 0.62367 0.06625 0.99141 0.0
C1212 C 0.60025 0.0752 0.99237 0.0
C1213 C 0.63016 0.05419 0.96421 0.0
C1214 C 0.58379 0.07253 0.96516 0.0
C1215 C 0.59035 0.06098 0.93786 0.0
H1216 H 0.39141 0.42229 0.20558 0.0
H1217 H 0.32743 0.46177 0.21668 0.0
H1218 H 0.31435 0.43276 0.25175 0.0
H1219 H 0.32117 0.39584 0.2785 0.0
H1220 H 0.38684 0.35874 0.26921 0.0
H1221 H 0.39906 0.38697 0.2333 0.0
C1222 C 0.37453 0.42456 0.2156 0.0
C1223 C 0.36019 0.44391 0.20838 0.0
C1224 C 0.36737 0.40807 0.23563 0.0
C1225 C 0.33873 0.44702 0.222 0.0
C1226 C 0.33121 0.43034 0.24182 0.0
C1227 C 0.33798 0.39377 0.26829 0.0
C1228 C 0.35296 0.37504 0.27592 0.0
C1229 C 0.3453 0.41067 0.24856 0.0
C1230 C 0.375 0.37289 0.26327 0.0
C1231 C 0.38201 0.38907 0.24296 0.0
H1232 H 0.22205 1.01227 0.11508 0.0
H1233 H 0.16848 0.93965 0.08582 0.0
H1234 H 0.13349 0.96434 0.08956 0.0
H1235 H 0.11768 1.00665 0.09815 0.0
H1236 H 0.17048 0.07976 0.12694 0.0
H1237 H 0.20584 0.05491 0.12673 0.0
C1238 C 0.20273 1.00174 0.10981 0.0
C1239 C 0.19819 0.97383 0.10009 0.0
C1240 C 0.1824 1.01627 0.11186 0.0
C1241 C 0.17285 0.96089 0.09335 0.0
C1242 C 0.1527 0.9751 0.09542 0.0
C1243 C 0.13688 1.0173 0.10475 0.0
C1244 C 0.14112 0.04534 0.11259 0.0
C1245 C 0.15719 1.00281 0.10424 0.0
C1246 C 0.16635 0.05838 0.12104 0.0
C1247 C 0.18667 0.04407 0.1207 0.0
H1248 H 0.68921 0.6695 0.9931 0.0
H1249 H 0.73617 0.61467 0.02157 0.0
H1250 H 0.70193 0.59324 0.04407 0.0
H1251 H 0.66004 0.59313 0.06037 0.0
H1252 H 0.61291 0.64718 0.03088 0.0
H1253 H 0.64558 0.66575 1.00391 0.0
C1254 C 0.69179 0.65261 1.00384 0.0
C1255 C 0.71526 0.64389 1.0059 0.0
C1256 C 0.67202 0.64034 0.01674 0.0
C1257 C 0.71826 0.62177 0.01959 0.0
C1258 C 0.69874 0.60958 0.03266 0.0
C1259 C 0.65689 0.6086 0.0475 0.0
C1260 C 0.63439 0.61897 0.04754 0.0
C1261 C 0.67577 0.61912 0.03205 0.0
C1262 C 0.63025 0.63904 0.03102 0.0
C1263 C 0.64892 0.64968 0.01573 0.0
H1264 H 0.78387 0.51489 0.35404 0.0
H1265 H 0.70604 0.4764 0.33931 0.0
H1266 H 0.71958 0.43309 0.33216 0.0
H1267 H 0.75375 0.40401 0.32999 0.0
H1268 H 0.83165 0.44252 0.34732 0.0
H1269 H 0.81807 0.48582 0.35319 0.0
C1270 C 0.76961 0.49719 0.34921 0.0
C1271 C 0.74331 0.50034 0.34724 0.0
C1272 C 0.77778 0.47127 0.34541 0.0
C1273 C 0.72614 0.47598 0.34112 0.0
C1274 C 0.73404 0.45063 0.33693 0.0
C1275 C 0.76802 0.42172 0.33492 0.0
C1276 C 0.79434 0.41857 0.33774 0.0
C1277 C 0.75985 0.44764 0.33896 0.0
C1278 C 0.81154 0.44293 0.34465 0.0
C1279 C 0.80361 0.46827 0.34811 0.0
H1280 H 0.81796 0.47441 0.56856 0.0
H1281 H 0.84465 0.40086 0.57659 0.0
H1282 H 0.88798 0.4223 0.57819 0.0
H1283 H 0.91792 0.46064 0.5736 0.0
H1284 H 0.89228 0.53398 0.56283 0.0
H1285 H 0.84899 0.51419 0.56684 0.0
C1286 C 0.83332 0.46321 0.57095 0.0
C1287 C 0.82805 0.43601 0.57201 0.0
C1288 C 0.85834 0.4756 0.5714 0.0
C1289 C 0.84813 0.42171 0.57518 0.0
C1290 C 0.87295 0.43395 0.57623 0.0
C1291 C 0.90284 0.47231 0.57221 0.0
C1292 C 0.90807 0.49851 0.56746 0.0
C1293 C 0.87817 0.46066 0.5737 0.0
C1294 C 0.8886 0.51371 0.56646 0.0
C1295 C 0.86388 0.50234 0.56853 0.0
H1296 H 0.45033 0.24084 0.35531 0.0
H1297 H 0.41025 0.18425 0.27886 0.0
H1298 H 0.37844 0.21279 0.27141 0.0
H1299 H 0.36013 0.25332 0.28867 0.0
H1300 H 0.39874 0.30627 0.36893 0.0
H1301 H 0.43241 0.28043 0.37237 0.0
C1302 C 0.43487 0.23489 0.33672 0.0
C1303 C 0.43302 0.21037 0.31757 0.0
C1304 C 0.41596 0.25098 0.33324 0.0
C1305 C 0.41239 0.20298 0.29397 0.0
C1306 C 0.39404 0.21933 0.28974 0.0
C1307 C 0.37596 0.25928 0.30678 0.0
C1308 C 0.37671 0.28237 0.32823 0.0
C1309 C 0.39528 0.2433 0.30955 0.0
C1310 C 0.39745 0.28913 0.35173 0.0
C1311 C 0.41689 0.27415 0.35391 0.0
H1312 H 0.35678 0.14432 0.46788 0.0
H1313 H 0.30214 0.0832 0.48898 0.0
H1314 H 0.33632 0.06238 0.51018 0.0
H1315 H 0.38147 0.06562 0.52958 0.0
H1316 H 0.43594 0.12702 0.50856 0.0
H1317 H 0.40201 0.14383 0.48082 0.0
C1318 C 0.35232 0.1261 0.47649 0.0
C1319 C 0.32698 0.11556 0.47728 0.0
C1320 C 0.37203 0.11465 0.48935 0.0
C1321 C 0.3215 0.0918 0.48823 0.0
C1322 C 0.34105 0.08001 0.50062 0.0
C1323 C 0.38598 0.08232 0.5184 0.0
C1324 C 0.41115 0.09544 0.52182 0.0
C1325 C 0.36636 0.09189 0.5024 0.0
C1326 C 0.41664 0.11706 0.50713 0.0
C1327 C 0.39728 0.12658 0.49104 0.0
H1328 H 0.73163 0.66766 0.31871 0.0
H1329 H 0.77429 0.66366 0.40358 0.0
H1330 H 0.79949 0.70749 0.40393 0.0
H1331 H 0.80817 0.74997 0.38108 0.0
H1332 H 0.76448 0.75107 0.29536 0.0
H1333 H 0.74225 0.70675 0.29454 0.0
C1334 C 0.74691 0.67583 0.33707 0.0
C1335 C 0.75099 0.66093 0.36068 0.0
C1336 C 0.76151 0.70152 0.33714 0.0
C1337 C 0.7707 0.67329 0.3844 0.0
C1338 C 0.78512 0.69893 0.38474 0.0
C1339 C 0.79418 0.74047 0.36186 0.0
C1340 C 0.78863 0.75519 0.33809 0.0
C1341 C 0.78066 0.71374 0.36136 0.0
C1342 C 0.76973 0.74146 0.31413 0.0
C1343 C 0.75669 0.71562 0.31359 0.0
H1344 H 0.92308 0.59252 0.8368 0.0
H1345 H 0.98805 0.55324 0.84606 0.0
H1346 H 0.96102 0.51275 0.85124 0.0
H1347 H 0.91939 0.48906 0.85537 0.0
H1348 H 0.8543 0.52811 0.84702 0.0
H1349 H 0.88099 0.56824 0.83967 0.0
C1350 C 0.93127 0.57499 0.83955 0.0
C1351 C 0.95755 0.57592 0.84094 0.0
C1352 C 0.91566 0.55184 0.84305 0.0
C1353 C 0.9679 0.55312 0.84495 0.0
C1354 C 0.95247 0.52995 0.84797 0.0
C1355 C 0.91097 0.50623 0.85155 0.0
C1356 C 0.88489 0.50557 0.85169 0.0
C1357 C 0.92639 0.52917 0.84738 0.0
C1358 C 0.87438 0.52819 0.84732 0.0
C1359 C 0.8896 0.55108 0.84294 0.0
H1360 H 0.07477 0.86311 0.19206 0.0
H1361 H 0.05431 0.90997 0.2689 0.0
H1362 H 0.04748 0.94485 0.2394 0.0
H1363 H 0.04533 0.96102 0.19062 0.0
H1364 H 0.06523 0.91279 0.1142 0.0
H1365 H 0.07427 0.87968 0.14468 0.0
C1366 C 0.06907 0.88107 0.20258 0.0
C1367 C 0.06507 0.88382 0.23278 0.0
C1368 C 0.06487 0.9008 0.18538 0.0
C1369 C 0.0577 0.90731 0.24584 0.0
C1370 C 0.05361 0.92719 0.22885 0.0
C1371 C 0.05156 0.94323 0.1806 0.0
C1372 C 0.05455 0.93959 0.14994 0.0
C1373 C 0.05673 0.92398 0.1984 0.0
C1374 C 0.06301 0.91647 0.13765 0.0
C1375 C 0.06809 0.89737 0.15508 0.0
H1376 H 0.98233 0.32497 0.90103 0.0
H1377 H 1.00927 0.38271 0.84909 0.0
H1378 H 0.96521 0.38383 0.82778 0.0
H1379 H 0.91772 0.37183 0.8283 0.0
H1380 H 0.89276 0.31424 0.8817 0.0
H1381 H 0.93648 0.30966 0.89746 0.0
C1382 C 0.97877 0.33726 0.88427 0.0
C1383 C 0.99982 0.3533 0.87645 0.0
C1384 C 0.95317 0.33807 0.87244 0.0
C1385 C 0.9941 0.36949 0.85518 0.0
C1386 C 0.9686 0.3704 0.84325 0.0
C1387 C 0.92176 0.35759 0.84255 0.0
C1388 C 0.90119 0.34281 0.85302 0.0
C1389 C 0.94774 0.35522 0.85217 0.0
C1390 C 0.90756 0.32541 0.87253 0.0
C1391 C 0.93283 0.32292 0.88185 0.0
H1392 H 0.59927 0.24869 0.69773 0.0
H1393 H 0.52558 0.2306 0.72337 0.0
H1394 H 0.52029 0.1854 0.69403 0.0
H1395 H 0.53574 0.15224 0.65695 0.0
H1396 H 0.60868 0.17438 0.63033 0.0
H1397 H 0.61481 0.21673 0.66364 0.0
C1398 C 0.58199 0.23489 0.6972 0.0
C1399 C 0.56277 0.24328 0.71269 0.0
C1400 C 0.5788 0.20963 0.67952 0.0
C1401 C 0.54079 0.22479 0.71196 0.0
C1402 C 0.53769 0.19901 0.69482 0.0
C1403 C 0.55299 0.16633 0.6586 0.0
C1404 C 0.57164 0.15998 0.64072 0.0
C1405 C 0.55636 0.19137 0.67782 0.0
C1406 C 0.59385 0.17859 0.64329 0.0
C1407 C 0.59747 0.2029 0.66254 0.0
H1408 H 0.65303 0.85373 0.34338 0.0
H1409 H 0.67116 0.85849 0.43898 0.0
H1410 H 0.71507 0.85525 0.43415 0.0
H1411 H 0.74996 0.85153 0.40308 0.0
H1412 H 0.73258 0.84974 0.3079 0.0
H1413 H 0.68831 0.85134 0.31243 0.0
C1414 C 0.66645 0.8539 0.36321 0.0
C1415 C 0.65789 0.85621 0.39167 0.0
C1416 C 0.6926 0.85267 0.36042 0.0
C1417 C 0.67643 0.85673 0.41674 0.0
C1418 C 0.70192 0.85488 0.41401 0.0
C1419 C 0.73661 0.85152 0.38323 0.0
C1420 C 0.7455 0.85048 0.35502 0.0
C1421 C 0.71052 0.85295 0.38602 0.0
C1422 C 0.72712 0.85063 0.33 0.0
C1423 C 0.70139 0.85148 0.33255 0.0
H1424 H 0.10707 0.32286 0.50366 0.0
H1425 H 0.17599 0.33095 0.56574 0.0
H1426 H 0.16051 0.28932 0.58148 0.0
H1427 H 0.12483 0.25504 0.58342 0.0
H1428 H 0.05434 0.24881 0.52461 0.0
H1429 H 0.07285 0.28521 0.50153 0.0
C1430 C 0.119 0.31486 0.51974 0.0
C1431 C 0.14263 0.32958 0.53344 0.0
C1432 C 0.10936 0.29174 0.52984 0.0
C1433 C 0.15782 0.31961 0.5548 0.0
C1434 C 0.14885 0.29606 0.56404 0.0
C1435 C 0.11358 0.26165 0.56548 0.0
C1436 C 0.08814 0.24983 0.55617 0.0
C1437 C 0.1242 0.28272 0.55277 0.0
C1438 C 0.07391 0.25789 0.53231 0.0
C1439 C 0.08448 0.27866 0.51915 0.0
H1440 H 0.5945 0.30171 0.14771 0.0
H1441 H 0.5728 0.34299 0.22731 0.0
H1442 H 0.61528 0.34591 0.25469 0.0
H1443 H 0.65668 0.33186 0.25766 0.0
H1444 H 0.67783 0.28845 0.17892 0.0
H1445 H 0.63743 0.29097 0.14958 0.0
C1446 C 0.59935 0.31196 0.17079 0.0
C1447 C 0.5807 0.32213 0.18555 0.0
C1448 C 0.6235 0.31264 0.18671 0.0
C1449 C 0.58696 0.33498 0.2156 0.0
C1450 C 0.61116 0.33652 0.23128 0.0
C1451 C 0.65262 0.32339 0.23395 0.0
C1452 C 0.67004 0.30975 0.22055 0.0
C1453 C 0.62929 0.32464 0.21735 0.0
C1454 C 0.66446 0.29863 0.18986 0.0
C1455 C 0.64146 0.30019 0.17303 0.0
H1456 H 0.63105 0.98263 0.9833 0.0
H1457 H 0.67542 0.97917 0.06756 0.0
H1458 H 0.65072 1.00838 0.09428 0.0
H1459 H 0.61148 0.02847 0.09422 0.0
H1460 H 0.5641 0.02436 1.00933 0.0
H1461 H 0.59421 1.00424 0.98282 0.0
C1462 C 0.63572 0.98868 1.00744 0.0
C1463 C 0.65466 0.97823 0.02342 0.0
C1464 C 0.62006 1.00338 0.02283 0.0
C1465 C 0.66074 0.98677 0.0547 0.0
C1466 C 0.64631 1.00309 0.07005 0.0
C1467 C 0.60785 0.02308 0.06996 0.0
C1468 C 0.58546 0.02791 0.054 0.0
C1469 C 0.62499 1.0103 0.05451 0.0
C1470 C 0.58093 0.02064 0.02249 0.0
C1471 C 0.59829 1.00922 1.00709 0.0
H1472 H 0.98349 0.78243 0.76215 0.0
H1473 H 0.91799 0.7928 0.70314 0.0
H1474 H 0.89944 0.81035 0.74653 0.0
H1475 H 0.90439 0.8279 0.8004 0.0
H1476 H 0.97054 0.81988 0.85943 0.0
H1477 H 0.98644 0.79613 0.8168 0.0
C1478 C 0.96488 0.78794 0.75874 0.0
C1479 C 0.95224 0.78654 0.72934 0.0
C1480 C 0.95483 0.79905 0.78373 0.0
C1481 C 0.92815 0.79376 0.72544 0.0
C1482 C 0.91766 0.80404 0.75024 0.0
C1483 C 0.92247 0.82127 0.80379 0.0
C1484 C 0.93681 0.82649 0.83269 0.0
C1485 C 0.93135 0.80782 0.77929 0.0
C1486 C 0.95952 0.81659 0.83724 0.0
C1487 C 0.96849 0.80296 0.81291 0.0
H1488 H 0.18154 0.04988 0.95037 0.0
H1489 H 0.1667 0.11808 0.91221 0.0
H1490 H 0.13692 0.12672 0.94707 0.0
H1491 H 0.11341 0.11517 0.98866 0.0
H1492 H 0.12609 0.04589 0.02576 0.0
H1493 H 0.15716 0.03784 0.99206 0.0
C1494 C 0.17222 0.06697 0.94989 0.0
C1495 C 0.17759 0.08364 0.92822 0.0
C1496 C 0.15389 0.0716 0.97009 0.0
C1497 C 0.16396 0.10496 0.92824 0.0
C1498 C 0.14652 0.1099 0.94838 0.0
C1499 C 0.12272 0.0981 0.98943 0.0
C1500 C 0.11647 0.08113 1.01044 0.0
C1501 C 0.14098 0.09335 0.96939 0.0
C1502 C 0.1296 0.0594 1.01029 0.0
C1503 C 0.14778 0.0548 0.9908 0.0
H1504 H 0.79232 0.36218 0.64249 0.0
H1505 H 0.74826 0.41988 0.67631 0.0
H1506 H 0.76352 0.41448 0.72799 0.0
H1507 H 0.78879 0.39183 0.7635 0.0
H1508 H 0.83255 0.33487 0.72682 0.0
H1509 H 0.81801 0.34176 0.67642 0.0
C1510 C 0.78565 0.3736 0.66094 0.0
C1511 C 0.76855 0.39111 0.65504 0.0
C1512 C 0.79469 0.37059 0.6903 0.0
C1513 C 0.76108 0.40606 0.6798 0.0
C1514 C 0.7699 0.40296 0.70943 0.0
C1515 C 0.79538 0.38117 0.74449 0.0
C1516 C 0.81189 0.36273 0.74926 0.0
C1517 C 0.78667 0.38512 0.715 0.0
C1518 C 0.81998 0.34908 0.72416 0.0
C1519 C 0.81156 0.35296 0.69518 0.0
H1520 H 0.5352 0.16603 0.4239 0.0
H1521 H 0.45624 0.13386 0.41893 0.0
H1522 H 0.46641 0.11195 0.46148 0.0
H1523 H 0.49774 0.10026 0.49922 0.0
H1524 H 0.57636 0.13477 0.5078 0.0
H1525 H 0.56643 0.15743 0.46527 0.0
C1526 C 0.5202 0.15449 0.43238 0.0
C1527 C 0.49489 0.15177 0.41799 0.0
C1528 C 0.52617 0.14219 0.45757 0.0
C1529 C 0.47579 0.13667 0.42948 0.0
C1530 C 0.48163 0.12392 0.45382 0.0
C1531 C 0.51274 0.11284 0.49191 0.0
C1532 C 0.53789 0.11555 0.50664 0.0
C1533 C 0.50675 0.1263 0.4679 0.0
C1534 C 0.55691 0.13229 0.497 0.0
C1535 C 0.55119 0.14519 0.47255 0.0
H1536 H 0.80953 0.67099 0.08565 0.0
H1537 H 0.8505 0.73567 0.05308 0.0
H1538 H 0.86539 0.75889 0.10434 0.0
H1539 H 0.8556 0.76613 0.15488 0.0
H1540 H 0.81164 0.70344 0.18783 0.0
H1541 H 0.80926 0.67388 0.14003 0.0
C1542 C 0.82267 0.68958 0.09 0.0
C1543 C 0.82856 0.70204 0.066 0.0
C1544 C 0.82989 0.70349 0.11946 0.0
C1545 C 0.84554 0.72606 0.0715 0.0
C1546 C 0.85385 0.7394 0.10074 0.0
C1547 C 0.84646 0.74569 0.15231 0.0
C1548 C 0.83293 0.73733 0.17443 0.0
C1549 C 0.84447 0.72921 0.12458 0.0
C1550 C 0.82136 0.71065 0.1706 0.0
C1551 C 0.82001 0.69373 0.1433 0.0
H1552 H 0.13311 0.07777 0.7793 0.0
H1553 H 0.20434 0.06724 0.75039 0.0
H1554 H 0.18547 0.06763 0.69818 0.0
H1555 H 0.1487 0.07483 0.66085 0.0
H1556 H 0.07976 0.08881 0.69424 0.0
H1557 H 0.09782 0.08356 0.74401 0.0
C1558 C 0.14478 0.07535 0.76175 0.0
C1559 C 0.17043 0.07253 0.76946 0.0
C1560 C 0.13408 0.07663 0.73217 0.0
C1561 C 0.18462 0.06917 0.74569 0.0
C1562 C 0.17378 0.06972 0.7157 0.0
C1563 C 0.1376 0.07651 0.67899 0.0
C1564 C 0.11262 0.08242 0.67331 0.0
C1565 C 0.14856 0.07402 0.70862 0.0
C1566 C 0.09888 0.08461 0.69749 0.0
C1567 C 0.10923 0.08151 0.72619 0.0
H1568 H 0.76288 0.36117 0.50949 0.0
H1569 H 0.74463 0.42922 0.47314 0.0
H1570 H 0.76072 0.41344 0.42703 0.0
H1571 H 0.78217 0.38132 0.39758 0.0
H1572 H 0.80357 0.31543 0.43604 0.0
H1573 H 0.78423 0.32923 0.4803 0.0
C1574 C 0.76227 0.37258 0.49153 0.0
C1575 C 0.75238 0.39652 0.49517 0.0
C1576 C 0.77229 0.3637 0.46519 0.0
C1577 C 0.75199 0.4108 0.47128 0.0
C1578 C 0.76129 0.40176 0.44479 0.0
C1579 C 0.78229 0.36974 0.41545 0.0
C1580 C 0.79417 0.34704 0.4131 0.0
C1581 C 0.77175 0.37835 0.44152 0.0
C1582 C 0.79449 0.33277 0.43695 0.0
C1583 C 0.78347 0.34075 0.46241 0.0
H1584 H 0.55189 0.12554 0.27697 0.0
H1585 H 0.48711 0.15745 0.24192 0.0
H1586 H 0.49655 0.14523 0.19077 0.0
H1587 H 0.52277 0.12399 0.15577 0.0
H1588 H 0.58664 0.09163 0.19275 0.0
H1589 H 0.57763 0.10526 0.24319 0.0
C1590 C 0.53971 0.1301 0.25836 0.0
C1591 C 0.51869 0.14259 0.26377 0.0
C1592 C 0.54494 0.12254 0.22909 0.0
C1593 C 0.50342 0.14802 0.23883 0.0
C1594 C 0.50877 0.14086 0.20946 0.0
C1595 C 0.53462 0.11972 0.17483 0.0
C1596 C 0.55535 0.10644 0.17009 0.0
C1597 C 0.52934 0.12778 0.20425 0.0
C1598 C 0.57056 0.10156 0.19533 0.0
C1599 C 0.56545 0.10946 0.22435 0.0
H1600 H 0.77772 0.72816 0.95175 0.0
H1601 H 0.76905 0.65917 0.88252 0.0
H1602 H 0.76954 0.68763 0.84437 0.0
H1603 H 0.77802 0.73187 0.83194 0.0
H1604 H 0.78952 0.80107 0.90131 0.0
H1605 H 0.78241 0.7725 0.93869 0.0
C1606 C 0.77554 0.71923 0.92826 0.0
C1607 C 0.77371 0.69159 0.9199 0.0
C1608 C 0.77679 0.73573 0.90678 0.0
C1609 C 0.77056 0.68035 0.88944 0.0
C1610 C 0.77106 0.69663 0.86773 0.0
C1611 C 0.77879 0.7408 0.85522 0.0
C1612 C 0.78469 0.76851 0.8641 0.0
C1613 C 0.7751 0.72433 0.87634 0.0
C1614 C 0.78524 0.77979 0.89414 0.0
C1615 C 0.78118 0.76346 0.91539 0.0
H1616 H 0.93311 0.16379 0.07172 0.0
H1617 H 0.98568 0.23745 0.09069 0.0
H1618 H 1.02097 0.21312 0.08663 0.0
H1619 H 0.03752 0.17086 0.07831 0.0
H1620 H 0.98525 0.09697 0.0574 0.0
H1621 H 0.94974 0.12122 0.06112 0.0
C1622 C 0.9523 0.17458 0.07522 0.0
C1623 C 0.95643 0.20275 0.08201 0.0
C1624 C 0.97278 0.16028 0.07213 0.0
C1625 C 0.98161 0.21602 0.08576 0.0
C1626 C 1.00193 0.202 0.08331 0.0
C1627 C 1.01836 0.15991 0.07418 0.0
C1628 C 1.01444 0.13176 0.06733 0.0
C1629 C 0.99783 0.17412 0.07647 0.0
C1630 C 0.98921 0.1184 0.0623 0.0
C1631 C 0.96877 0.13238 0.06472 0.0
H1632 H 0.4372 0.56042 0.15517 0.0
H1633 H 0.47004 0.50753 0.20664 0.0
H1634 H 0.51186 0.5237 0.19526 0.0
H1635 H 0.53601 0.5439 0.16007 0.0
H1636 H 0.50213 0.59388 0.10504 0.0
H1637 H 0.46383 0.58789 0.12815 0.0
C1638 C 0.45379 0.55361 0.16529 0.0
C1639 C 0.45069 0.53279 0.18155 0.0
C1640 C 0.47737 0.56162 0.15679 0.0
C1641 C 0.47214 0.52371 0.1942 0.0
C1642 C 0.49593 0.53254 0.18713 0.0
C1643 C 0.5204 0.55387 0.15362 0.0
C1644 C 0.52144 0.56859 0.13032 0.0
C1645 C 0.49833 0.55 0.16667 0.0
C1646 C 0.50146 0.58198 0.12255 0.0
C1647 C 0.47959 0.57861 0.1358 0.0
H1648 H 0.42906 0.70395 0.84448 0.0
H1649 H 0.36165 0.64931 0.80182 0.0
H1650 H 0.33729 0.68556 0.8049 0.0
H1651 H 0.33358 0.73397 0.81968 0.0
H1652 H 0.40094 0.789 0.8615 0.0
H1653 H 0.42542 0.75273 0.85873 0.0
C1654 C 0.40906 0.69968 0.83561 0.0
C1655 C 0.39793 0.67257 0.82261 0.0
C1656 C 0.39446 0.72143 0.83746 0.0
C1657 C 0.37161 0.669 0.8118 0.0
C1658 C 0.35732 0.69016 0.81365 0.0
C1659 C 0.3536 0.73833 0.82848 0.0
C1660 C 0.36465 0.76548 0.84125 0.0
C1661 C 0.36826 0.71668 0.8265 0.0
C1662 C 0.39103 0.76924 0.85175 0.0
C1663 C 0.40538 0.74805 0.85008 0.0
H1664 H 0.2982 0.76355 0.56153 0.0
H1665 H 0.33098 0.69315 0.56847 0.0
H1666 H 0.28969 0.66858 0.57127 0.0
H1667 H 0.24486 0.66764 0.57526 0.0
H1668 H 0.21182 0.73781 0.56919 0.0
H1669 H 0.2525 0.76173 0.56209 0.0
C1670 C 0.2963 0.74277 0.56333 0.0
C1671 C 0.31783 0.73039 0.56512 0.0
C1672 C 0.27244 0.72868 0.56521 0.0
C1673 C 0.31488 0.70336 0.56729 0.0
C1674 C 0.29123 0.68922 0.56894 0.0
C1675 C 0.24658 0.68817 0.57234 0.0
C1676 C 0.22547 0.70102 0.57305 0.0
C1677 C 0.27001 0.70181 0.56856 0.0
C1678 C 0.2278 0.72745 0.56862 0.0
C1679 C 0.25108 0.74117 0.56474 0.0
H1680 H 0.73537 0.97136 0.84022 0.0
H1681 H 0.66443 0.91762 0.8142 0.0
H1682 H 0.68686 0.87979 0.81445 0.0
H1683 H 0.72729 0.86177 0.82184 0.0
H1684 H 0.79742 0.91603 0.85115 0.0
H1685 H 0.77491 0.95348 0.85036 0.0
C1686 C 0.72476 0.95137 0.83439 0.0
C1687 C 0.69813 0.94754 0.82665 0.0
C1688 C 0.73778 0.92962 0.83548 0.0
C1689 C 0.68486 0.92135 0.81992 0.0
C1690 C 0.69774 0.89962 0.82017 0.0
C1691 C 0.73755 0.88172 0.82803 0.0
C1692 C 0.76413 0.88575 0.83634 0.0
C1693 C 0.72426 0.90345 0.82787 0.0
C1694 C 0.77704 0.91203 0.84487 0.0
C1695 C 0.76414 0.9336 0.84421 0.0
H1696 H 0.7856 0.99732 0.62181 0.0
H1697 H 0.81335 0.06181 0.69589 0.0
H1698 H 0.77603 0.08196 0.68347 0.0
H1699 H 0.73762 0.08335 0.64846 0.0
H1700 H 0.71133 1.01953 0.57329 0.0
H1701 H 0.74616 0.9972 0.58904 0.0
C1702 C 0.78332 1.01555 0.63561 0.0
C1703 C 0.80229 0.02807 0.65969 0.0
C1704 C 0.76229 0.02741 0.62777 0.0
C1705 C 0.79903 0.05175 0.67723 0.0
C1706 C 0.77777 0.06337 0.67001 0.0
C1707 C 0.73938 0.0644 0.63577 0.0
C1708 C 0.7221 0.05328 0.60951 0.0
C1709 C 0.75962 0.05173 0.64483 0.0
C1710 C 0.72467 0.02877 0.59321 0.0
C1711 C 0.74448 1.0159 0.60232 0.0
H1712 H 0.42926 0.491 0.82313 0.0
H1713 H 0.36591 0.53231 0.82594 0.0
H1714 H 0.33851 0.49052 0.8292 0.0
H1715 H 0.33253 0.44055 0.83378 0.0
H1716 H 0.39821 0.4024 0.82987 0.0
H1717 H 0.42341 0.44347 0.8247 0.0
C1718 C 0.4094 0.49131 0.82421 0.0
C1719 C 0.40039 0.51601 0.82412 0.0
C1720 C 0.39357 0.46689 0.82613 0.0
C1721 C 0.37416 0.51449 0.82559 0.0
C1722 C 0.35828 0.49017 0.82767 0.0
C1723 C 0.35222 0.44094 0.83134 0.0
C1724 C 0.3628 0.41692 0.83234 0.0
C1725 C 0.36765 0.46588 0.82825 0.0
C1726 C 0.38877 0.41942 0.82942 0.0
C1727 C 0.4036 0.44337 0.82643 0.0
H1728 H 0.15925 0.61444 0.30915 0.0
H1729 H 0.21849 0.58057 0.35403 0.0
H1730 H 0.25019 0.61677 0.34674 0.0
H1731 H 0.2613 0.65657 0.32515 0.0
H1732 H 0.20239 0.68976 0.27867 0.0
H1733 H 0.17036 0.65505 0.28856 0.0
C1734 C 0.17905 0.61528 0.31779 0.0
C1735 C 0.18653 0.595 0.33226 0.0
C1736 C 0.19726 0.63573 0.31274 0.0
C1737 C 0.2123 0.59601 0.34284 0.0
C1738 C 0.23043 0.61662 0.33859 0.0
C1739 C 0.24143 0.65633 0.31741 0.0
C1740 C 0.23424 0.67564 0.30112 0.0
C1741 C 0.22317 0.63633 0.32314 0.0
C1742 C 0.20844 0.67487 0.29088 0.0
C1743 C 0.19011 0.65517 0.29674 0.0
H1744 H 0.58047 0.82004 0.51076 0.0
H1745 H 0.60389 0.78351 0.42966 0.0
H1746 H 0.6161 0.74779 0.4554 0.0
H1747 H 0.6191 0.72661 0.50141 0.0
H1748 H 0.59537 0.76544 0.58121 0.0
H1749 H 0.58421 0.80056 0.55523 0.0
C1750 C 0.58815 0.80434 0.4983 0.0
C1751 C 0.59098 0.80456 0.46799 0.0
C1752 C 0.59506 0.78417 0.51313 0.0
C1753 C 0.60133 0.78394 0.45286 0.0
C1754 C 0.60832 0.76351 0.46764 0.0
C1755 C 0.61168 0.7429 0.51311 0.0
C1756 C 0.60782 0.74312 0.54327 0.0
C1757 C 0.60519 0.76337 0.49785 0.0
C1758 C 0.59809 0.76437 0.55798 0.0
C1759 C 0.5918 0.78459 0.54315 0.0
H1760 H 0.65104 0.29166 0.77789 0.0
H1761 H 0.6475 0.37034 0.82149 0.0
H1762 H 0.69281 0.37689 0.84185 0.0
H1763 H 0.73559 0.36188 0.84244 0.0
H1764 H 0.73748 0.28279 0.79784 0.0
H1765 H 0.69173 0.27494 0.78355 0.0
C1766 C 0.65983 0.3099 0.79292 0.0
C1767 C 0.64497 0.33004 0.79885 0.0
C1768 C 0.68631 0.31369 0.80423 0.0
C1769 C 0.65763 0.35394 0.81728 0.0
C1770 C 0.68392 0.35785 0.82862 0.0
C1771 C 0.72596 0.34261 0.8305 0.0
C1772 C 0.74072 0.32279 0.82192 0.0
C1773 C 0.69882 0.33811 0.82172 0.0
C1774 C 0.72726 0.29838 0.80543 0.0
C1775 C 0.70079 0.29387 0.79692 0.0
H1776 H 0.10087 0.45629 0.93052 0.0
H1777 H 0.0544 0.40615 0.97653 0.0
H1778 H 0.04849 0.44453 1.01105 0.0
H1779 H 0.05798 0.49239 0.03035 0.0
H1780 H 0.10568 0.54306 0.98618 0.0
H1781 H 0.10958 0.50492 0.94936 0.0
C1782 C 0.08917 0.45386 0.94783 0.0
C1783 C 0.07809 0.42818 0.9507 0.0
C1784 C 0.08623 0.47627 0.96839 0.0
C1785 C 0.06326 0.42549 0.97363 0.0
C1786 C 0.05986 0.44754 0.99357 0.0
C1787 C 0.06915 0.49515 0.01262 0.0
C1788 C 0.08153 0.52071 1.01128 0.0
C1789 C 0.07154 0.47301 0.99153 0.0
C1790 C 0.09595 0.52371 0.988 0.0
C1791 C 0.09819 0.50183 0.9668 0.0
H1792 H 0.97289 0.81702 0.25549 0.0
H1793 H 1.0099 0.81431 0.34402 0.0
H1794 H 0.96997 0.81734 0.3637 0.0
H1795 H 0.92346 0.82181 0.3563 0.0
H1796 H 0.88763 0.82382 0.26692 0.0
H1797 H 0.92709 0.82 0.24786 0.0
C1798 C 0.97239 0.81687 0.27913 0.0
C1799 C 0.99514 0.81527 0.29792 0.0
C1800 C 0.94898 0.8186 0.2905 0.0
C1801 C 0.99326 0.81531 0.32855 0.0
C1802 C 0.97015 0.81716 0.33997 0.0
C1803 C 0.92412 0.8213 0.3326 0.0
C1804 C 0.90154 0.82304 0.3133 0.0
C1805 C 0.94768 0.81897 0.32128 0.0
C1806 C 0.90379 0.82233 0.28269 0.0
C1807 C 0.92676 0.82022 0.27158 0.0
H1808 H 0.50152 0.33452 0.10904 0.0
H1809 H 0.50065 0.3858 0.19274 0.0
H1810 H 0.51785 0.42414 0.17196 0.0
H1811 H 0.53585 0.44243 0.13132 0.0
H1812 H 0.54116 0.38994 0.04998 0.0
H1813 H 0.51965 0.3526 0.06873 0.0
C1814 C 0.50505 0.35403 0.12281 0.0
C1815 C 0.50017 0.35723 0.15256 0.0
C1816 C 0.51602 0.37571 0.11125 0.0
C1817 C 0.50439 0.38279 0.16982 0.0
C1818 C 0.51437 0.40468 0.15802 0.0
C1819 C 0.53265 0.42278 0.11781 0.0
C1820 C 0.54031 0.41906 0.08931 0.0
C1821 C 0.52087 0.40125 0.12904 0.0
C1822 C 0.5353 0.39351 0.07185 0.0
C1823 C 0.52307 0.3721 0.08259 0.0
H1824 H 0.08356 0.39827 0.45616 0.0
H1825 H 0.06539 0.4312 0.54204 0.0
H1826 H 1.02143 0.42882 0.51907 0.0
H1827 H 0.98786 0.4153 0.475 0.0
H1828 H 1.00654 0.38148 0.38984 0.0
H1829 H 0.05076 0.38604 0.41239 0.0
C1830 C 0.07013 0.40517 0.46997 0.0
C1831 C 0.07784 0.41488 0.50086 0.0
C1832 C 0.04494 0.40332 0.45679 0.0
C1833 C 0.06001 0.42359 0.51825 0.0
C1834 C 0.03486 0.42218 0.50513 0.0
C1835 C 1.00169 0.40921 0.46133 0.0
C1836 C 0.99394 0.398 0.43079 0.0
C1837 C 1.02707 0.41178 0.4745 0.0
C1838 C 1.01197 0.38985 0.41344 0.0
C1839 C 0.03726 0.39259 0.42628 0.0
H1840 H 0.9918 0.72485 0.56106 0.0
H1841 H 0.98319 0.7045 0.64793 0.0
H1842 H 0.99578 0.66171 0.63228 0.0
H1843 H 1.01794 0.63505 0.59843 0.0
H1844 H 1.0333 0.65967 0.51552 0.0
H1845 H 1.00932 0.69585 0.52502 0.0
C1846 C 0.99208 0.71089 0.57648 0.0
C1847 C 0.98715 0.7183 0.60599 0.0
C1848 C 1.0011 0.68726 0.56814 0.0
C1849 C 0.98706 0.69956 0.62522 0.0
C1850 C 0.99458 0.67517 0.61638 0.0
C1851 C 1.0155 0.64793 0.58204 0.0
C1852 C 1.02755 0.64492 0.55637 0.0
C1853 C 1.00303 0.66955 0.58857 0.0
C1854 C 1.02431 0.66176 0.53545 0.0
C1855 C 1.01069 0.68246 0.54098 0.0
H1856 H 0.69979 0.86193 0.9416 0.0
H1857 H 0.63188 0.88156 0.89612 0.0
H1858 H 0.63871 0.85725 0.84873 0.0
H1859 H 0.6633 0.8296 0.8199 0.0
H1860 H 0.73126 0.80949 0.86458 0.0
H1861 H 0.72476 0.83401 0.91224 0.0
C1862 C 0.68666 0.86098 0.92125 0.0
C1863 C 0.66537 0.8735 0.92245 0.0
C1864 C 0.6904 0.84642 0.89386 0.0
C1865 C 0.64836 0.87194 0.89591 0.0
C1866 C 0.6522 0.85801 0.86871 0.0
C1867 C 0.6766 0.83047 0.84009 0.0
C1868 C 0.69744 0.81732 0.83862 0.0
C1869 C 0.67298 0.84493 0.86743 0.0
C1870 C 0.71459 0.81877 0.8651 0.0
C1871 C 0.7111 0.83312 0.89238 0.0
H1872 H 0.5152 0.5836 0.76619 0.0
H1873 H 0.45465 0.61684 0.72322 0.0
H1874 H 0.47786 0.61987 0.6801 0.0
H1875 H 0.51613 0.61152 0.65289 0.0
H1876 H 0.57437 0.57707 0.69891 0.0
H1877 H 0.55154 0.57635 0.74139 0.0
C1878 C 0.50654 0.59165 0.74767 0.0
C1879 C 0.48237 0.59987 0.74919 0.0
C1880 C 0.52009 0.59324 0.72274 0.0
C1881 C 0.47276 0.61022 0.72389 0.0
C1882 C 0.4863 0.61193 0.69884 0.0
C1883 C 0.52415 0.6043 0.6724 0.0
C1884 C 0.54798 0.59475 0.67201 0.0
C1885 C 0.51016 0.60342 0.69772 0.0
C1886 C 0.55682 0.5849 0.69782 0.0
C1887 C 0.5435 0.58434 0.72245 0.0
H1888 H 0.87108 0.29892 0.02438 0.0
H1889 H 0.88816 0.22873 0.97247 0.0
H1890 H 0.86949 0.24152 0.92625 0.0
H1891 H 0.84876 0.27286 0.90018 0.0
H1892 H 0.83043 0.34245 0.9519 0.0
H1893 H 0.84868 0.32948 0.99831 0.0
C1894 C 0.87073 0.28635 1.003 0.0
C1895 C 0.88125 0.26281 1.00217 0.0
C1896 C 0.85951 0.29366 0.97632 0.0
C1897 C 0.88037 0.2469 0.97403 0.0
C1898 C 0.86961 0.25422 0.9475 0.0
C1899 C 0.84852 0.28516 0.92159 0.0
C1900 C 0.83805 0.30871 0.92228 0.0
C1901 C 0.85913 0.27755 0.94831 0.0
C1902 C 0.8381 0.32422 0.95044 0.0
C1903 C 0.84871 0.31684 0.97707 0.0
H1904 H 0.15841 0.54416 0.24114 0.0
H1905 H 0.08958 0.48768 0.22827 0.0
H1906 H 0.07583 0.50077 0.18018 0.0
H1907 H 0.0808 0.53309 0.14498 0.0
H1908 H 0.14844 0.59217 0.16194 0.0
H1909 H 0.16497 0.57352 0.20447 0.0
C1910 C 0.14095 0.53386 0.22712 0.0
C1911 C 0.12549 0.5143 0.23791 0.0
C1912 C 0.13249 0.54267 0.20033 0.0
C1913 C 0.10226 0.50216 0.2201 0.0
C1914 C 0.09418 0.51003 0.19278 0.0
C1915 C 0.09928 0.54158 0.15775 0.0
C1916 C 0.11315 0.56423 0.15013 0.0
C1917 C 0.10868 0.53102 0.18313 0.0
C1918 C 0.13708 0.57498 0.16721 0.0
C1919 C 0.1467 0.56425 0.19166 0.0
H1920 H 0.91865 0.98083 0.60631 0.0
H1921 H 0.86221 1.01878 0.56275 0.0
H1922 H 0.87041 0.99854 0.51356 0.0
H1923 H 0.88447 0.96048 0.48521 0.0
H1924 H 0.93745 0.91944 0.53022 0.0
H1925 H 0.94067 0.95112 0.57664 0.0
C1926 C 0.90876 0.98535 0.58605 0.0
C1927 C 0.88933 1.00043 0.58783 0.0
C1928 C 0.91289 0.97284 0.55818 0.0
C1929 C 0.87705 1.00687 0.56166 0.0
C1930 C 0.8816 0.99511 0.53361 0.0
C1931 C 0.89764 0.95931 0.50482 0.0
C1932 C 0.91032 0.93749 0.50476 0.0
C1933 C 0.89814 0.9766 0.53177 0.0
C1934 C 0.92733 0.93599 0.53011 0.0
C1935 C 0.92894 0.95391 0.55664 0.0
H1936 H 0.49167 0.58139 0.88772 0.0
H1937 H 0.44111 0.6271 0.92938 0.0
H1938 H 0.46548 0.62821 0.97894 0.0
H1939 H 0.50211 0.61671 1.01114 0.0
H1940 H 0.54996 0.56751 0.96912 0.0
H1941 H 0.5261 0.56736 0.91982 0.0
C1942 C 0.48583 0.59151 0.90762 0.0
C1943 C 0.46439 0.60426 0.90438 0.0
C1944 C 0.49975 0.59158 0.93636 0.0
C1945 C 0.45728 0.61701 0.93079 0.0
C1946 C 0.4714 0.61776 0.9593 0.0
C1947 C 0.50738 0.60601 0.9912 0.0
C1948 C 0.52826 0.59234 0.99425 0.0
C1949 C 0.49284 0.60525 0.9625 0.0
C1950 C 0.53423 0.57826 0.96787 0.0
C1951 C 0.5205 0.57817 0.93947 0.0
H1952 H 0.88772 0.32715 0.16058 0.0
H1953 H 0.89209 0.24839 0.17791 0.0
H1954 H 0.8804 0.261 0.22798 0.0
H1955 H 0.8639 0.29342 0.26476 0.0
H1956 H 0.8558 0.37002 0.24279 0.0
H1957 H 0.87362 0.35917 0.19681 0.0
C1958 C 0.88653 0.31261 0.17529 0.0
C1959 C 0.89091 0.28664 0.16493 0.0
C1960 C 0.87863 0.31966 0.20336 0.0
C1961 C 0.88926 0.26852 0.18494 0.0
C1962 C 0.88218 0.27572 0.21356 0.0
C1963 C 0.86649 0.30789 0.25015 0.0
C1964 C 0.85863 0.3328 0.25759 0.0
C1965 C 0.87609 0.30105 0.22276 0.0
C1966 C 0.86171 0.35094 0.23793 0.0
C1967 C 0.87189 0.34467 0.2115 0.0
H1968 H 0.09893 0.52298 0.38385 0.0
H1969 H 0.17711 0.5508 0.4226 0.0
H1970 H 0.16416 0.57642 0.46589 0.0
H1971 H 0.1307 0.59058 0.49332 0.0
H1972 H 0.05259 0.55783 0.45819 0.0
H1973 H 0.06529 0.53584 0.41257 0.0
C1974 C 0.11312 0.53463 0.4018 0.0
C1975 C 0.13902 0.53484 0.39987 0.0
C1976 C 0.1055 0.54887 0.42719 0.0
C1977 C 0.1571 0.55001 0.42347 0.0
C1978 C 0.14968 0.56486 0.44822 0.0
C1979 C 0.11637 0.57843 0.47591 0.0
C1980 C 0.09066 0.5756 0.47982 0.0
C1981 C 0.12394 0.56438 0.45042 0.0
C1982 C 0.07252 0.56041 0.45621 0.0
C1983 C 0.0798 0.54757 0.43008 0.0
H1984 H 0.89622 0.9279 0.71743 0.0
H1985 H 0.82707 0.95998 0.71966 0.0
H1986 H 0.81223 0.92774 0.75051 0.0
H1987 H 0.81827 0.88889 0.77409 0.0
H1988 H 0.88783 0.85762 0.77148 0.0
H1989 H 0.90303 0.89087 0.74246 0.0
C1990 C 0.87791 0.92797 0.72477 0.0
C1991 C 0.86258 0.94605 0.71608 0.0
C1992 C 0.86947 0.90926 0.74177 0.0
C1993 C 0.83919 0.94629 0.7262 0.0
C1994 C 0.83064 0.9277 0.7435 0.0
C1995 C 0.83667 0.88925 0.76693 0.0
C1996 C 0.85189 0.87068 0.7745 0.0
C1997 C 0.84544 0.90876 0.75084 0.0
C1998 C 0.87583 0.87162 0.76568 0.0
C1999 C 0.88453 0.89067 0.74927 0.0
H2000 H 0.72066 0.50683 0.60911 0.0
H2001 H 0.66466 0.43617 0.57879 0.0
H2002 H 0.63093 0.46219 0.58403 0.0
H2003 H 0.61661 0.50504 0.59477 0.0
H2004 H 0.67151 0.57647 0.62474 0.0
H2005 H 0.70588 0.55033 0.62244 0.0
C2006 C 0.70109 0.49706 0.60388 0.0
C2007 C 0.69554 0.46923 0.59344 0.0
C2008 C 0.68135 0.5124 0.60687 0.0
C2009 C 0.66986 0.4573 0.58679 0.0
C2010 C 0.65039 0.47227 0.58977 0.0
C2011 C 0.63607 0.51505 0.60118 0.0
C2012 C 0.64115 0.543 0.61006 0.0
C2013 C 0.65581 0.49985 0.59947 0.0
C2014 C 0.66671 0.55516 0.61809 0.0
C2015 C 0.68648 0.54012 0.61656 0.0
H2016 H 0.19092 0.19271 0.51776 0.0
H2017 H 0.20649 0.11656 0.47893 0.0
H2018 H 0.17061 0.0944 0.49845 0.0
H2019 H 0.1377 0.09674 0.53169 0.0
H2020 H 0.12533 0.17331 0.57322 0.0
H2021 H 0.15692 0.19518 0.54746 0.0
C2022 C 0.18629 0.17126 0.51301 0.0
C2023 C 0.20159 0.15638 0.49708 0.0
C2024 C 0.16632 0.15868 0.52522 0.0
C2025 C 0.19514 0.12857 0.49126 0.0
C2026 C 0.17469 0.11585 0.50256 0.0
C2027 C 0.14186 0.11817 0.53471 0.0
C2028 C 0.12962 0.13347 0.55452 0.0
C2029 C 0.16063 0.13069 0.5204 0.0
C2030 C 0.13494 0.16121 0.5584 0.0
C2031 C 0.1529 0.17372 0.54362 0.0
H2032 H 0.21911 0.97318 0.84164 0.0
H2033 H 0.28733 0.03045 0.85203 0.0
H2034 H 0.3122 0.99475 0.84707 0.0
H2035 H 0.31626 0.94601 0.83991 0.0
H2036 H 0.24806 0.88846 0.82759 0.0
H2037 H 0.22307 0.92413 0.83292 0.0
C2038 C 0.23942 0.97818 0.84286 0.0
C2039 C 0.2506 1.0059 0.84752 0.0
C2040 C 0.25434 0.95669 0.83946 0.0
C2041 C 0.2773 1.01031 0.84861 0.0
C2042 C 0.2919 0.98943 0.84572 0.0
C2043 C 0.29591 0.94092 0.83814 0.0
C2044 C 0.28481 0.91318 0.83293 0.0
C2045 C 0.28092 0.96231 0.8411 0.0
C2046 C 0.25804 0.90863 0.83115 0.0
C2047 C 0.24338 0.9295 0.83439 0.0
H2048 H 0.34518 0.93905 0.03378 0.0
H2049 H 0.3192 0.99362 0.09969 0.0
H2050 H 0.35531 0.02744 0.09856 0.0
H2051 H 0.39431 0.04164 0.07898 0.0
H2052 H 0.42017 0.98745 0.01277 0.0
H2053 H 0.38392 0.95349 0.01367 0.0
C2054 C 0.34747 0.95829 0.048 0.0
C2055 C 0.32954 0.96369 0.06689 0.0
C2056 C 0.36818 0.9778 0.04707 0.0
C2057 C 0.33267 0.98888 0.0849 0.0
C2058 C 0.35334 1.00827 0.08431 0.0
C2059 C 0.39204 0.02235 0.06486 0.0
C2060 C 0.40987 1.01705 0.04588 0.0
C2061 C 0.3712 1.00294 0.06551 0.0
C2062 C 0.40653 0.9921 0.02735 0.0
C2063 C 0.38591 0.97262 0.02799 0.0
H2064 H 0.91026 0.69361 0.78028 0.0
H2065 H 0.95744 0.7393 0.86019 0.0
H2066 H 0.92941 0.77184 0.86212 0.0
H2067 H 0.89044 0.78707 0.84301 0.0
H2068 H 0.84484 0.74528 0.76044 0.0
H2069 H 0.87319 0.71217 0.75736 0.0
C2070 C 0.91459 0.71094 0.79785 0.0
C2071 C 0.9361 0.71369 0.82026 0.0
C2072 C 0.89858 0.73055 0.79832 0.0
C2073 C 0.9413 0.73648 0.84261 0.0
C2074 C 0.92513 0.75525 0.84378 0.0
C2075 C 0.88679 0.77096 0.82405 0.0
C2076 C 0.86528 0.76885 0.80207 0.0
C2077 C 0.90359 0.75244 0.82205 0.0
C2078 C 0.86115 0.74768 0.77768 0.0
C2079 C 0.8774 0.72862 0.77601 0.0
H2080 H 0.8265 0.58926 1.00638 0.0
H2081 H 0.86899 0.64375 0.96116 0.0
H2082 H 0.90742 0.62622 0.97571 0.0
H2083 H 0.92971 0.59929 1.00626 0.0
H2084 H 0.88768 0.54655 0.05379 0.0
H2085 H 0.84823 0.55966 0.03349 0.0
C2086 C 0.84406 0.59692 0.99917 0.0
C2087 C 0.84495 0.61783 0.98283 0.0
C2088 C 0.8662 0.58737 1.00845 0.0
C2089 C 0.86786 0.62769 0.97383 0.0
C2090 C 0.88985 0.61777 0.98226 0.0
C2091 C 0.91185 0.59022 0.01164 0.0
C2092 C 0.91158 0.57206 0.03158 0.0
C2093 C 0.88937 0.59819 1.00032 0.0
C2094 C 0.88836 0.5608 0.03875 0.0
C2095 C 0.86583 0.56823 0.02709 0.0
H2096 H 0.26874 0.1785 0.89736 0.0
H2097 H 0.22373 0.15359 0.80983 0.0
H2098 H 0.2404 0.19536 0.79535 0.0
H2099 H 0.26586 0.24123 0.80759 0.0
H2100 H 0.31444 0.26554 0.89277 0.0
H2101 H 0.29885 0.22303 0.90739 0.0
C2102 C 0.26315 0.18163 0.87471 0.0
C2103 C 0.24503 0.1614 0.85457 0.0
C2104 C 0.27339 0.20646 0.86597 0.0
C2105 C 0.2379 0.16751 0.82584 0.0
C2106 C 0.24734 0.19193 0.81752 0.0
C2107 C 0.27345 0.23731 0.82931 0.0
C2108 C 0.2917 0.25762 0.84885 0.0
C2109 C 0.26483 0.21193 0.83738 0.0
C2110 C 0.30077 0.25107 0.87679 0.0
C2111 C 0.29162 0.2264 0.8853 0.0
H2112 H 0.47716 0.07292 0.39234 0.0
H2113 H 0.43269 0.08073 0.3096 0.0
H2114 H 0.40168 0.04257 0.31335 0.0
H2115 H 0.38678 1.00765 0.34059 0.0
H2116 H 0.43093 0.9999 0.42352 0.0
H2117 H 0.46224 0.0378 0.41958 0.0
C2118 C 0.46086 0.06603 0.37492 0.0
C2119 C 0.45734 0.07943 0.35056 0.0
C2120 C 0.44288 0.04439 0.37749 0.0
C2121 C 0.43585 0.07067 0.32851 0.0
C2122 C 0.41809 0.04891 0.33067 0.0
C2123 C 0.40335 1.01414 0.35769 0.0
C2124 C 0.40654 1.00096 0.38226 0.0
C2125 C 0.42134 0.03574 0.35515 0.0
C2126 C 0.42787 1.0099 0.40455 0.0
C2127 C 0.44589 0.03142 0.40218 0.0
H2128 H 0.57401 0.36411 0.693 0.0
H2129 H 0.54697 0.40619 0.76818 0.0
H2130 H 0.53838 0.44077 0.73913 0.0
H2131 H 0.53607 0.45759 0.69125 0.0
H2132 H 0.56562 0.41639 0.61722 0.0
H2133 H 0.5749 0.38277 0.64667 0.0
C2134 C 0.56653 0.38101 0.70322 0.0
C2135 C 0.56115 0.38244 0.73283 0.0
C2136 C 0.56155 0.4008 0.68632 0.0
C2137 C 0.55147 0.40457 0.74559 0.0
C2138 C 0.54636 0.42428 0.72884 0.0
C2139 C 0.54491 0.44158 0.68151 0.0
C2140 C 0.54966 0.43973 0.65148 0.0
C2141 C 0.55097 0.42242 0.69899 0.0
C2142 C 0.56086 0.4183 0.63968 0.0
C2143 C 0.56654 0.39906 0.65673 0.0
H2144 H 0.48439 0.82196 0.39764 0.0
H2145 H 0.51231 0.88175 0.3487 0.0
H2146 H 0.46868 0.88233 0.32571 0.0
H2147 H 0.42133 0.86874 0.32303 0.0
H2148 H 0.39455 0.80741 0.37097 0.0
H2149 H 0.43818 0.80466 0.39033 0.0
C2150 C 0.48115 0.83448 0.38106 0.0
C2151 C 0.5024 0.85125 0.37453 0.0
C2152 C 0.45568 0.83485 0.36802 0.0
C2153 C 0.49705 0.86787 0.35364 0.0
C2154 C 0.47178 0.86852 0.34081 0.0
C2155 C 0.42495 0.85444 0.33735 0.0
C2156 C 0.40388 0.83831 0.34532 0.0
C2157 C 0.45073 0.85256 0.34831 0.0
C2158 C 0.40969 0.82006 0.36404 0.0
C2159 C 0.43493 0.81851 0.37532 0.0
H2160 H 0.10393 0.75141 0.19962 0.0
H2161 H 1.02849 0.73191 0.21986 0.0
H2162 H 1.02438 0.68736 0.18928 0.0
H2163 H 0.04144 0.65544 0.15228 0.0
H2164 H 0.11575 0.6796 0.1303 0.0
H2165 H 0.12083 0.72081 0.16549 0.0
C2166 C 0.08652 0.73743 0.19766 0.0
C2167 C 0.06648 0.74525 0.21198 0.0
C2168 C 0.08397 0.71268 0.17909 0.0
C2169 C 0.04432 0.72653 0.20939 0.0
C2170 C 0.0419 0.70114 0.19153 0.0
C2171 C 0.05874 0.66973 0.15539 0.0
C2172 C 0.07813 0.66436 0.13827 0.0
C2173 C 0.06141 0.6942 0.17553 0.0
C2174 C 0.10039 0.68317 0.14264 0.0
C2175 C 0.1034 0.70679 0.16296 0.0
H2176 H 0.17489 0.36199 0.92152 0.0
H2177 H 0.13778 0.35008 0.83 0.0
H2178 H 0.17829 0.34643 0.81223 0.0
H2179 H 0.2253 0.34646 0.82217 0.0
H2180 H 0.26156 0.35592 0.91385 0.0
H2181 H 0.22129 0.36058 0.93139 0.0
C2182 C 0.1755 0.35861 0.89762 0.0
C2183 C 0.15256 0.3565 0.87735 0.0
C2184 C 0.19925 0.35606 0.88731 0.0
C2185 C 0.15452 0.35186 0.84647 0.0
C2186 C 0.17797 0.34979 0.83619 0.0
C2187 C 0.22454 0.34963 0.84604 0.0
C2188 C 0.24729 0.35096 0.86646 0.0
C2189 C 0.20065 0.35186 0.85629 0.0
C2190 C 0.24503 0.35479 0.89726 0.0
C2191 C 0.22171 0.35749 0.90745 0.0
H2192 H 0.61956 0.82885 1.00418 0.0
H2193 H 0.66134 0.86103 0.09259 0.0
H2194 H 0.64808 0.81969 0.10957 0.0
H2195 H 0.62192 0.77586 0.10075 0.0
H2196 H 0.57934 0.74335 0.01305 0.0
H2197 H 0.59582 0.78319 0.99428 0.0
C2198 C 0.6262 0.82659 0.02695 0.0
C2199 C 0.64123 0.8481 0.04712 0.0
C2200 C 0.6181 0.80283 0.03684 0.0
C2201 C 0.64958 0.84489 0.07663 0.0
C2202 C 0.64194 0.82127 0.08645 0.0
C2203 C 0.6162 0.77756 0.07755 0.0
C2204 C 0.59916 0.75696 0.05844 0.0
C2205 C 0.62564 0.80043 0.06701 0.0
C2206 C 0.59239 0.75905 0.02822 0.0
C2207 C 0.60177 0.78182 0.0175 0.0
H2208 H 0.09698 0.82705 0.66526 0.0
H2209 H 0.05868 0.76074 0.69808 0.0
H2210 H 0.09747 0.75797 0.72988 0.0
H2211 H 0.14157 0.77514 0.74994 0.0
H2212 H 0.18114 0.84082 0.71745 0.0
H2213 H 0.14244 0.84358 0.68466 0.0
C2214 C 0.09733 0.81184 0.6791 0.0
C2215 C 0.07505 0.79422 0.67943 0.0
C2216 C 0.11974 0.81053 0.69782 0.0
C2217 C 0.07558 0.7747 0.69765 0.0
C2218 C 0.09772 0.77309 0.71589 0.0
C2219 C 0.14184 0.78991 0.73548 0.0
C2220 C 0.16417 0.80769 0.73612 0.0
C2221 C 0.11978 0.79108 0.71644 0.0
C2222 C 0.16405 0.82709 0.71769 0.0
C2223 C 0.14201 0.82852 0.69871 0.0
H2224 H 0.16979 0.49125 0.50837 0.0
H2225 H 0.16142 0.45022 0.58278 0.0
H2226 H 0.14113 0.4849 0.60671 0.0
H2227 H 0.11729 0.52162 0.60021 0.0
H2228 H 0.13052 0.56533 0.52961 0.0
H2229 H 0.15803 0.53564 0.51095 0.0
C2230 C 0.16424 0.49027 0.53024 0.0
C2231 C 0.16558 0.46732 0.54272 0.0
C2232 C 0.15333 0.51081 0.54454 0.0
C2233 C 0.15926 0.46691 0.57168 0.0
C2234 C 0.14779 0.48689 0.58562 0.0
C2235 C 0.12734 0.52548 0.58181 0.0
C2236 C 0.12143 0.54529 0.56569 0.0
C2237 C 0.14339 0.50819 0.57138 0.0
C2238 C 0.1344 0.54992 0.54182 0.0
C2239 C 0.15006 0.53278 0.53106 0.0
H2240 H 0.49748 0.29777 0.28323 0.0
H2241 H 0.42712 0.28937 0.22318 0.0
H2242 H 0.40752 0.30926 0.26439 0.0
H2243 H 0.41258 0.33566 0.3149 0.0
H2244 H 0.48258 0.34466 0.37526 0.0
H2245 H 0.50038 0.31813 0.33632 0.0
C2246 C 0.47766 0.29963 0.27928 0.0
C2247 C 0.46394 0.29257 0.24997 0.0
C2248 C 0.46675 0.31191 0.30288 0.0
C2249 C 0.4382 0.29484 0.24539 0.0
C2250 C 0.42705 0.30649 0.26889 0.0
C2251 C 0.43171 0.33166 0.31949 0.0
C2252 C 0.44664 0.34261 0.34741 0.0
C2253 C 0.44154 0.3163 0.29723 0.0
C2254 C 0.47104 0.33673 0.35366 0.0
C2255 C 0.4811 0.32155 0.33146 0.0
H2256 H 0.68315 0.55131 0.45234 0.0
H2257 H 0.664 0.61609 0.41016 0.0
H2258 H 0.63417 0.62446 0.44499 0.0
H2259 H 0.61197 0.61378 0.48787 0.0
H2260 H 0.62857 0.54752 0.52873 0.0
H2261 H 0.65966 0.53972 0.49496 0.0
C2262 C 0.67282 0.56757 0.4509 0.0
C2263 C 0.67701 0.58337 0.42809 0.0
C2264 C 0.65442 0.57199 0.47108 0.0
C2265 C 0.66216 0.60363 0.42702 0.0
C2266 C 0.64469 0.60844 0.44716 0.0
C2267 C 0.62214 0.59741 0.48946 0.0
C2268 C 0.61701 0.58125 0.51159 0.0
C2269 C 0.64034 0.59275 0.46931 0.0
C2270 C 0.63119 0.56038 0.5124 0.0
C2271 C 0.64939 0.55594 0.49287 0.0
H2272 H 0.30398 0.87314 0.14697 0.0
H2273 H 0.25825 0.92901 0.18108 0.0
H2274 H 0.27098 0.92081 0.23224 0.0
H2275 H 0.29451 0.89616 0.26716 0.0
H2276 H 0.3392 0.84044 0.23001 0.0
H2277 H 0.32757 0.8505 0.1803 0.0
C2278 C 0.29649 0.88366 0.16533 0.0
C2279 C 0.27976 0.90157 0.15964 0.0
C2280 C 0.30395 0.87893 0.19442 0.0
C2281 C 0.27093 0.91502 0.18438 0.0
C2282 C 0.2783 0.91032 0.21373 0.0
C2283 C 0.302 0.88657 0.24822 0.0
C2284 C 0.31791 0.86754 0.25257 0.0
C2285 C 0.29479 0.89219 0.21907 0.0
C2286 C 0.32703 0.85507 0.22758 0.0
C2287 C 0.32029 0.86077 0.19901 0.0
H2288 H 0.03805 0.6671 0.91841 0.0
H2289 H 0.96093 0.62836 0.91271 0.0
H2290 H 0.97311 0.60766 0.95572 0.0
H2291 H 1.00579 0.59924 0.99439 0.0
H2292 H 0.08222 0.6408 1.004 0.0
H2293 H 0.07034 0.6617 0.96059 0.0
C2294 C 1.0239 0.6543 0.92677 0.0
C2295 C 0.99851 0.64938 0.91211 0.0
C2296 C 1.03098 0.64285 0.95233 0.0
C2297 C 0.98049 0.63278 0.92349 0.0
C2298 C 0.98749 0.62077 0.94809 0.0
C2299 C 1.01987 0.61298 0.9871 0.0
C2300 C 0.045 0.61823 1.00241 0.0
C2301 C 1.01268 0.62547 0.96261 0.0
C2302 C 0.0628 0.63639 0.99277 0.0
C2303 C 0.05598 0.64828 0.96782 0.0
H2304 H 0.34059 0.22652 0.56205 0.0
H2305 H 0.28997 0.16051 0.57983 0.0
H2306 H 0.30057 0.17743 0.63383 0.0
H2307 H 0.31439 0.21713 0.6729 0.0
H2308 H 0.35964 0.2859 0.65215 0.0
H2309 H 0.36196 0.26154 0.60309 0.0
C2310 C 0.33274 0.21532 0.57794 0.0
C2311 C 0.31409 0.19285 0.56733 0.0
C2312 C 0.33763 0.22607 0.6085 0.0
C2313 C 0.30425 0.17803 0.58771 0.0
C2314 C 0.31003 0.18794 0.61852 0.0
C2315 C 0.32514 0.2266 0.65781 0.0
C2316 C 0.33598 0.2536 0.66581 0.0
C2317 C 0.32508 0.21299 0.62879 0.0
C2318 C 0.35083 0.26526 0.64661 0.0
C2319 C 0.35198 0.25141 0.61831 0.0
H2320 H 0.63762 0.58821 0.27828 0.0
H2321 H 0.70333 0.55979 0.24982 0.0
H2322 H 0.68495 0.55881 0.197 0.0
H2323 H 0.65007 0.56849 0.15845 0.0
H2324 H 0.58726 0.5999 0.1918 0.0
H2325 H 0.60495 0.59759 0.24258 0.0
C2326 C 0.64839 0.58174 0.26089 0.0
C2327 C 0.6723 0.5742 0.26898 0.0
C2328 C 0.6381 0.58207 0.23088 0.0
C2329 C 0.68501 0.56563 0.24507 0.0
C2330 C 0.67445 0.56528 0.21465 0.0
C2331 C 0.64025 0.57478 0.17683 0.0
C2332 C 0.61706 0.58459 0.17058 0.0
C2333 C 0.65102 0.57384 0.20714 0.0
C2334 C 0.605 0.59258 0.19519 0.0
C2335 C 0.61513 0.59116 0.22456 0.0
H2336 H 0.26297 0.86836 1.01065 0.0
H2337 H 0.25087 0.94194 0.98264 0.0
H2338 H 0.26607 0.92822 0.9356 0.0
H2339 H 0.28561 0.89718 0.90374 0.0
H2340 H 0.29848 0.8234 0.93009 0.0
H2341 H 0.27984 0.83502 0.97595 0.0
C2342 C 0.26341 0.88129 0.99413 0.0
C2343 C 0.25579 0.9064 1.0006 0.0
C2344 C 0.27235 0.8732 0.96672 0.0
C2345 C 0.25654 0.92267 0.97865 0.0
C2346 C 0.26531 0.91482 0.95162 0.0
C2347 C 0.28403 0.88336 0.91928 0.0
C2348 C 0.29353 0.85938 0.91333 0.0
C2349 C 0.27364 0.89038 0.94562 0.0
C2350 C 0.29117 0.84179 0.93377 0.0
C2351 C 0.28071 0.84864 0.96019 0.0
H2352 H 1.01485 0.60034 0.75375 0.0
H2353 H 1.01497 0.68259 0.74879 0.0
H2354 H 1.03008 0.67595 0.69989 0.0
H2355 H 0.04564 0.64667 0.65961 0.0
H2356 H 0.04238 0.56386 0.66442 0.0
H2357 H 1.02642 0.57075 0.71226 0.0
C2358 C 1.0178 0.61676 0.74174 0.0
C2359 C 1.01369 0.64193 0.7549 0.0
C2360 C 1.02641 0.61271 0.71378 0.0
C2361 C 1.01763 0.66297 0.73905 0.0
C2362 C 1.02656 0.65919 0.71123 0.0
C2363 C 0.04157 0.63022 0.6713 0.0
C2364 C 0.04576 0.60481 0.65871 0.0
C2365 C 1.03151 0.6342 0.6986 0.0
C2366 C 0.03965 0.58359 0.6737 0.0
C2367 C 1.03043 0.58752 0.70105 0.0
H2368 H 0.28102 0.23949 0.4609 0.0
H2369 H 0.2584 0.17932 0.38144 0.0
H2370 H 0.25923 0.21397 0.35021 0.0
H2371 H 0.2708 0.26101 0.3458 0.0
H2372 H 0.29717 0.31993 0.42546 0.0
H2373 H 0.29044 0.28588 0.45681 0.0
C2374 C 0.27596 0.23378 0.43675 0.0
C2375 C 0.26981 0.20681 0.42342 0.0
C2376 C 0.27733 0.25358 0.41919 0.0
C2377 C 0.26324 0.19991 0.39216 0.0
C2378 C 0.26383 0.2197 0.37438 0.0
C2379 C 0.27453 0.26632 0.37007 0.0
C2380 C 0.28416 0.29274 0.38363 0.0
C2381 C 0.27145 0.24652 0.38767 0.0
C2382 C 0.28956 0.29965 0.41487 0.0
C2383 C 0.28579 0.28022 0.43263 0.0
H2384 H 0.4785 0.71546 0.56478 0.0
H2385 H 0.42226 0.66212 0.59491 0.0
H2386 H 0.44894 0.62788 0.59122 0.0
H2387 H 0.48938 0.61274 0.5807 0.0
H2388 H 0.54549 0.6665 0.55095 0.0
H2389 H 0.51807 0.69996 0.55274 0.0
C2390 C 0.47207 0.69643 0.57072 0.0
C2391 C 0.44817 0.69186 0.58045 0.0
C2392 C 0.48757 0.67635 0.56815 0.0
C2393 C 0.44042 0.66665 0.58756 0.0
C2394 C 0.45573 0.64683 0.5853 0.0
C2395 C 0.49531 0.63146 0.57376 0.0
C2396 C 0.51955 0.63653 0.56497 0.0
C2397 C 0.47942 0.65128 0.57555 0.0
C2398 C 0.52696 0.66156 0.55726 0.0
C2399 C 0.51127 0.68097 0.55856 0.0
H2400 H 0.92484 0.05561 0.63807 0.0
H2401 H 0.96812 0.03757 0.71588 0.0
H2402 H 1.0075 0.05655 0.7002 0.0
H2403 H 1.02906 0.06688 0.65787 0.0
H2404 H 0.98451 0.07351 0.57489 0.0
H2405 H 0.94614 0.06989 0.5982 0.0
C2406 C 0.94289 0.05723 0.65235 0.0
C2407 C 0.94379 0.04559 0.67814 0.0
C2408 C 0.96523 0.06486 0.64119 0.0
C2409 C 0.96713 0.04692 0.69621 0.0
C2410 C 0.9896 0.05713 0.68679 0.0
C2411 C 1.01094 0.06803 0.64525 0.0
C2412 C 1.00923 0.07008 0.61479 0.0
C2413 C 0.98885 0.06431 0.65829 0.0
C2414 C 0.98591 0.07146 0.59829 0.0
C2415 C 0.9641 0.06958 0.61165 0.0
H2416 H 0.8663 0.16249 0.31064 0.0
H2417 H 0.94396 0.19935 0.34104 0.0
H2418 H 0.93105 0.2429 0.34837 0.0
H2419 H 0.89755 0.27266 0.34678 0.0
H2420 H 0.81987 0.23588 0.31624 0.0
H2421 H 0.83277 0.19232 0.30885 0.0
C2422 C 0.88065 0.1799 0.31877 0.0
C2423 C 0.9067 0.17623 0.32496 0.0
C2424 C 0.87289 0.20598 0.32324 0.0
C2425 C 0.92404 0.2002 0.3357 0.0
C2426 C 0.91651 0.22568 0.34005 0.0
C2427 C 0.88318 0.25527 0.3386 0.0
C2428 C 0.85714 0.25898 0.33245 0.0
C2429 C 0.89094 0.2292 0.33405 0.0
C2430 C 0.8398 0.23502 0.32159 0.0
C2431 C 0.84732 0.20953 0.3172 0.0
H2432 H 0.8345 0.18984 0.0901 0.0
H2433 H 0.79342 0.23568 0.03593 0.0
H2434 H 0.75362 0.20774 0.03874 0.0
H2435 H 0.73031 0.17211 0.05908 0.0
H2436 H 0.77121 0.1282 0.11598 0.0
H2437 H 0.81125 0.15318 0.10897 0.0
C2438 C 0.81689 0.19353 0.07856 0.0
C2439 C 0.81697 0.21493 0.06294 0.0
C2440 C 0.79401 0.17775 0.0808 0.0
C2441 C 0.79392 0.21948 0.04829 0.0
C2442 C 0.77113 0.20351 0.04989 0.0
C2443 C 0.74796 0.16805 0.07008 0.0
C2444 C 0.74764 0.14839 0.08822 0.0
C2445 C 0.77092 0.18295 0.0666 0.0
C2446 C 0.77079 0.14301 0.10167 0.0
C2447 C 0.79374 0.15744 0.09787 0.0
H2448 H 0.23385 0.47691 0.34313 0.0
H2449 H 0.16682 0.42018 0.3043 0.0
H2450 H 0.19146 0.38398 0.30503 0.0
H2451 H 0.23273 0.36839 0.31633 0.0
H2452 H 0.29836 0.42526 0.35968 0.0
H2453 H 0.2738 0.46116 0.3579 0.0
C2454 C 0.22461 0.45663 0.33468 0.0
C2455 C 0.19849 0.45144 0.32313 0.0
C2456 C 0.23875 0.4358 0.33619 0.0
C2457 C 0.18684 0.42489 0.31304 0.0
C2458 C 0.20097 0.40413 0.31352 0.0
C2459 C 0.24157 0.38862 0.32542 0.0
C2460 C 0.26752 0.394 0.33793 0.0
C2461 C 0.22702 0.40931 0.32496 0.0
C2462 C 0.27851 0.42039 0.35007 0.0
C2463 C 0.26446 0.44102 0.34889 0.0
H2464 H 0.2872 0.50469 0.12747 0.0
H2465 H 0.32483 0.57219 0.1937 0.0
H2466 H 0.28986 0.59596 0.18184 0.0
H2467 H 0.25077 0.59915 0.14843 0.0
H2468 H 0.21518 0.53186 0.08073 0.0
H2469 H 0.24729 0.50655 0.09718 0.0
C2470 C 0.28764 0.52446 0.13972 0.0
C2471 C 0.30871 0.5367 0.16129 0.0
C2472 C 0.26801 0.53825 0.13206 0.0
C2473 C 0.30883 0.56228 0.177 0.0
C2474 C 0.28894 0.57596 0.17003 0.0
C2475 C 0.24997 0.57886 0.13755 0.0
C2476 C 0.23088 0.56754 0.11303 0.0
C2477 C 0.26879 0.56444 0.14692 0.0
C2478 C 0.23001 0.54121 0.09917 0.0
C2479 C 0.24826 0.52666 0.10869 0.0
H2480 H 0.90438 1.01321 0.36903 0.0
H2481 H 0.88756 1.00899 0.27361 0.0
H2482 H 0.8644 0.96353 0.26861 0.0
H2483 H 0.85103 0.92215 0.29118 0.0
H2484 H 0.86635 0.92905 0.38729 0.0
H2485 H 0.88702 0.97476 0.39178 0.0
C2486 C 0.89498 1.00286 0.34708 0.0
C2487 C 0.89755 1.01599 0.32186 0.0
C2488 C 0.88131 0.97619 0.34434 0.0
C2489 C 0.8856 1.00081 0.29379 0.0
C2490 C 0.87245 0.97423 0.29089 0.0
C2491 C 0.85828 0.93369 0.31327 0.0
C2492 C 0.85665 0.92082 0.33901 0.0
C2493 C 0.87033 0.96125 0.31594 0.0
C2494 C 0.86707 0.93714 0.36692 0.0
C2495 C 0.87906 0.96382 0.36957 0.0
H2496 H 0.66552 0.11865 0.83339 0.0
H2497 H 0.72516 0.07419 0.85368 0.0
H2498 H 0.75665 0.11071 0.84686 0.0
H2499 H 0.76714 0.15444 0.83292 0.0
H2500 H 0.70739 0.1982 0.81082 0.0
H2501 H 0.67613 0.16287 0.82075 0.0
C2502 C 0.68543 0.11709 0.83677 0.0
C2503 C 0.69292 0.09368 0.84404 0.0
C2504 C 0.70344 0.13795 0.83222 0.0
C2505 C 0.71882 0.09193 0.84801 0.0
C2506 C 0.73686 0.11278 0.84402 0.0
C2507 C 0.74726 0.15615 0.83006 0.0
C2508 C 0.73963 0.17888 0.82102 0.0
C2509 C 0.72935 0.13568 0.83561 0.0
C2510 C 0.71382 0.18101 0.81799 0.0
C2511 C 0.69591 0.16078 0.82357 0.0
loop_
_geom_bond_atom_site_label_1
_geom_bond_atom_site_label_2
_geom_bond_distance
_geom_bond_site_symmetry_2
_ccdc_geom_bond_type
Co0 O1 2.216 . S
Co0 O2 2.091 . S
Co0 O4 2.004 . S
Co0 O10 2.021 . S
Co0 O12 2.137 . S
Co0 O13 2.244 . S
O1 Co0 2.216 . S
O1 C8 1.247 . S
O2 Co0 2.091 . S
O2 C8 1.261 . S
C3 O12 1.247 . S
C3 O13 1.272 . S
O4 Co0 2.004 . S
O4 C9 1.259 . S
Co5 O6 2.061 . S
Co5 O11 2.052 . S
Co5 O13 2.135 . S
O6 Co5 2.061 . S
O6 C9 1.235 . S
C7 O10 1.238 . S
C7 O11 1.241 . S
C8 O1 1.247 . S
C8 O2 1.261 . S
C9 O4 1.259 . S
C9 O6 1.235 . S
O10 Co0 2.021 . S
O10 C7 1.238 . S
O11 Co5 2.052 . S
O11 C7 1.241 . S
O12 Co0 2.137 . S
O12 C3 1.247 . S
O13 Co0 2.244 . S
O13 C3 1.272 . S
O13 Co5 2.135 . S
Co14 O15 2.216 . S
Co14 O16 2.091 . S
Co14 O18 2.004 1_655 S
Co14 O24 2.021 . S
Co14 O26 2.137 . S
Co14 O27 2.244 1_655 S
O15 Co14 2.216 . S
O15 C22 1.247 . S
O16 Co14 2.091 . S
O16 C22 1.261 . S
C17 O26 1.247 1_455 S
C17 O27 1.272 . S
O18 Co14 2.004 1_455 S
O18 C23 1.259 . S
Co19 O20 2.061 . S
Co19 O25 2.052 . S
Co19 O27 2.135 . S
O20 Co19 2.061 . S
O20 C23 1.235 . S
C21 O24 1.238 . S
C21 O25 1.241 1_655 S
C22 O15 1.247 . S
C22 O16 1.261 . S
C23 O18 1.259 . S
C23 O20 1.235 . S
O24 Co14 2.021 . S
O24 C21 1.238 . S
O25 Co19 2.052 . S
O25 C21 1.241 1_455 S
O26 Co14 2.137 . S
O26 C17 1.247 1_655 S
O27 Co14 2.244 1_455 S
O27 C17 1.272 . S
O27 Co19 2.135 . S
Co28 O29 2.216 1_556 S
Co28 O30 2.091 . S
Co28 O32 2.004 . S
Co28 O38 2.021 1_556 S
Co28 O40 2.136 . S
Co28 O41 2.244 1_556 S
O29 Co28 2.216 1_554 S
O29 C36 1.247 1_554 S
O30 Co28 2.091 . S
O30 C36 1.261 . S
C31 O40 1.219 1_554 S
C31 O41 1.272 . S
O32 Co28 2.004 . S
O32 C37 1.259 . S
Co33 O34 2.061 . S
Co33 O39 2.052 . S
Co33 O41 2.135 . S
O34 Co33 2.061 . S
O34 C37 1.235 1_554 S
C35 O38 1.238 . S
C35 O39 1.241 . S
C36 O29 1.247 1_556 S
C36 O30 1.261 . S
C37 O32 1.259 . S
C37 O34 1.235 1_556 S
O38 Co28 2.021 1_554 S
O38 C35 1.238 . S
O39 Co33 2.052 . S
O39 C35 1.241 . S
O40 Co28 2.136 . S
O40 C31 1.219 1_556 S
O41 Co28 2.244 1_554 S
O41 C31 1.272 . S
O41 Co33 2.135 . S
Co42 O43 2.216 . S
Co42 O44 2.091 . S
Co42 O46 2.004 . S
Co42 O52 2.021 . S
Co42 O54 2.137 . S
Co42 O55 2.244 . S
O43 Co42 2.216 . S
O43 C50 1.247 . S
O44 Co42 2.091 . S
O44 C50 1.261 . S
C45 O54 1.247 . S
C45 O55 1.272 . S
O46 Co42 2.004 . S
O46 C51 1.259 . S
Co47 O48 2.061 . S
Co47 O53 2.052 . S
Co47 O55 2.135 . S
O48 Co47 2.061 . S
O48 C51 1.235 . S
C49 O52 1.238 . S
C49 O53 1.241 . S
C50 O43 1.247 . S
C50 O44 1.261 . S
C51 O46 1.259 . S
C51 O48 1.235 . S
O52 Co42 2.021 . S
O52 C49 1.238 . S
O53 Co47 2.052 . S
O53 C49 1.241 . S
O54 Co42 2.137 . S
O54 C45 1.247 . S
O55 Co42 2.244 . S
O55 C45 1.272 . S
O55 Co47 2.135 . S
Co56 O57 2.216 1_455 S
Co56 O58 2.091 . S
Co56 O60 2.004 . S
Co56 O66 2.021 . S
Co56 O68 2.137 . S
Co56 O69 2.244 . S
O57 Co56 2.216 1_655 S
O57 C64 1.247 . S
O58 Co56 2.091 . S
O58 C64 1.261 1_455 S
C59 O68 1.247 . S
C59 O69 1.272 . S
O60 Co56 2.004 . S
O60 C65 1.259 . S
Co61 O62 2.061 . S
Co61 O67 2.052 . S
Co61 O69 2.135 . S
O62 Co61 2.061 . S
O62 C65 1.235 . S
C63 O66 1.238 . S
C63 O67 1.241 . S
C64 O57 1.247 . S
C64 O58 1.261 1_655 S
C65 O60 1.259 . S
C65 O62 1.235 . S
O66 Co56 2.021 . S
O66 C63 1.238 . S
O67 Co61 2.052 . S
O67 C63 1.241 . S
O68 Co56 2.137 . S
O68 C59 1.247 . S
O69 Co56 2.244 . S
O69 C59 1.272 . S
O69 Co61 2.135 . S
Co70 O71 2.216 . S
Co70 O72 2.091 . S
Co70 O74 2.004 . S
Co70 O80 2.021 . S
Co70 O82 2.137 . S
Co70 O83 2.244 . S
O71 Co70 2.216 . S
O71 C78 1.247 . S
O72 Co70 2.091 . S
O72 C78 1.261 . S
C73 O82 1.247 . S
C73 O83 1.272 . S
O74 Co70 2.004 . S
O74 C79 1.259 . S
Co75 O76 2.061 . S
Co75 O81 2.052 . S
Co75 O83 2.135 . S
O76 Co75 2.061 . S
O76 C79 1.235 . S
C77 O80 1.238 . S
C77 O81 1.241 . S
C78 O71 1.247 . S
C78 O72 1.261 . S
C79 O74 1.259 . S
C79 O76 1.235 . S
O80 Co70 2.021 . S
O80 C77 1.238 . S
O81 Co75 2.052 . S
O81 C77 1.241 . S
O82 Co70 2.137 . S
O82 C73 1.247 . S
O83 Co70 2.244 . S
O83 C73 1.272 . S
O83 Co75 2.135 . S
Co84 O85 2.216 . S
Co84 O86 2.091 . S
Co84 O88 2.004 . S
Co84 O94 2.021 . S
Co84 O96 2.137 . S
Co84 O97 2.244 . S
O85 Co84 2.216 . S
O85 C92 1.247 . S
O86 Co84 2.091 . S
O86 C92 1.261 . S
C87 O96 1.247 . S
C87 O97 1.272 . S
O88 Co84 2.004 . S
O88 C93 1.259 . S
Co89 O90 2.061 . S
Co89 O95 2.052 . S
Co89 O97 2.135 . S
O90 Co89 2.061 . S
O90 C93 1.235 . S
C91 O94 1.238 . S
C91 O95 1.241 . S
C92 O85 1.247 . S
C92 O86 1.261 . S
C93 O88 1.259 . S
C93 O90 1.235 . S
O94 Co84 2.021 . S
O94 C91 1.238 . S
O95 Co89 2.052 . S
O95 C91 1.241 . S
O96 Co84 2.137 . S
O96 C87 1.247 . S
O97 Co84 2.244 . S
O97 C87 1.272 . S
O97 Co89 2.135 . S
Co98 O99 2.216 . S
Co98 O100 2.091 . S
Co98 O102 2.004 . S
Co98 O108 2.021 . S
Co98 O110 2.137 . S
Co98 O111 2.244 . S
O99 Co98 2.216 . S
O99 C106 1.247 . S
O100 Co98 2.091 . S
O100 C106 1.261 . S
C101 O110 1.247 . S
C101 O111 1.272 . S
O102 Co98 2.004 . S
O102 C107 1.259 1_455 S
Co103 O104 2.061 1_455 S
Co103 O109 2.052 . S
Co103 O111 2.135 . S
O104 Co103 2.061 1_655 S
O104 C107 1.235 . S
C105 O108 1.238 . S
C105 O109 1.241 . S
C106 O99 1.247 . S
C106 O100 1.261 . S
C107 O102 1.259 1_655 S
C107 O104 1.235 . S
O108 Co98 2.021 . S
O108 C105 1.238 . S
O109 Co103 2.052 . S
O109 C105 1.241 . S
O110 Co98 2.137 . S
O110 C101 1.247 . S
O111 Co98 2.244 . S
O111 C101 1.272 . S
O111 Co103 2.135 . S
Co112 O113 2.216 . S
Co112 O114 2.091 . S
Co112 O116 2.004 . S
Co112 O122 2.021 . S
Co112 O124 2.137 . S
Co112 O125 2.244 . S
O113 Co112 2.216 . S
O113 C120 1.247 . S
O114 Co112 2.091 . S
O114 C120 1.261 . S
C115 O124 1.247 . S
C115 O125 1.272 . S
O116 Co112 2.004 . S
O116 C121 1.259 . S
Co117 O118 2.061 . S
Co117 O123 2.052 . S
Co117 O125 2.135 . S
O118 Co117 2.061 . S
O118 C121 1.235 . S
C119 O122 1.238 . S
C119 O123 1.241 . S
C120 O113 1.247 . S
C120 O114 1.261 . S
C121 O116 1.259 . S
C121 O118 1.235 . S
O122 Co112 2.021 . S
O122 C119 1.238 . S
O123 Co117 2.052 . S
O123 C119 1.241 . S
O124 Co112 2.137 . S
O124 C115 1.247 . S
O125 Co112 2.244 . S
O125 C115 1.272 . S
O125 Co117 2.135 . S
Co126 O127 2.216 . S
Co126 O128 2.091 . S
Co126 O130 2.004 . S
Co126 O136 2.021 . S
Co126 O138 2.137 . S
Co126 O139 2.244 . S
O127 Co126 2.216 . S
O127 C134 1.247 . S
O128 Co126 2.091 . S
O128 C134 1.261 . S
C129 O138 1.247 . S
C129 O139 1.272 . S
O130 Co126 2.004 . S
O130 C135 1.259 . S
Co131 O132 2.061 . S
Co131 O137 2.052 . S
Co131 O139 2.135 . S
O132 Co131 2.061 . S
O132 C135 1.235 . S
C133 O136 1.238 . S
C133 O137 1.241 . S
C134 O127 1.247 . S
C134 O128 1.261 . S
C135 O130 1.259 . S
C135 O132 1.235 . S
O136 Co126 2.021 . S
O136 C133 1.238 . S
O137 Co131 2.052 . S
O137 C133 1.241 . S
O138 Co126 2.137 . S
O138 C129 1.247 . S
O139 Co126 2.244 . S
O139 C129 1.272 . S
O139 Co131 2.135 . S
Co140 O141 2.216 1_545 S
Co140 O142 2.091 . S
Co140 O144 2.004 . S
Co140 O150 2.021 . S
Co140 O152 2.137 . S
Co140 O153 2.244 . S
O141 Co140 2.216 1_565 S
O141 C148 1.238 . S
O142 Co140 2.091 . S
O142 C148 1.228 1_545 S
C143 O152 1.247 . S
C143 O153 1.272 . S
O144 Co140 2.004 . S
O144 C149 1.259 . S
Co145 O146 2.061 . S
Co145 O151 2.052 . S
Co145 O153 2.135 . S
O146 Co145 2.061 . S
O146 C149 1.235 . S
C147 O150 1.238 . S
C147 O151 1.241 . S
C148 O141 1.238 . S
C148 O142 1.228 1_565 S
C149 O144 1.259 . S
C149 O146 1.235 . S
O150 Co140 2.021 . S
O150 C147 1.238 . S
O151 Co145 2.052 . S
O151 C147 1.241 . S
O152 Co140 2.137 . S
O152 C143 1.247 . S
O153 Co140 2.244 . S
O153 C143 1.272 . S
O153 Co145 2.135 . S
Co154 O155 2.216 . S
Co154 O156 2.091 . S
Co154 O158 2.004 . S
Co154 O164 2.021 . S
Co154 O166 2.137 . S
Co154 O167 2.244 . S
O155 Co154 2.216 . S
O155 C162 1.247 . S
O156 Co154 2.091 . S
O156 C162 1.261 . S
C157 O166 1.247 . S
C157 O167 1.272 . S
O158 Co154 2.004 . S
O158 C163 1.259 . S
Co159 O160 2.061 . S
Co159 O165 2.052 . S
Co159 O167 2.135 . S
O160 Co159 2.061 . S
O160 C163 1.235 . S
C161 O164 1.238 . S
C161 O165 1.241 . S
C162 O155 1.247 . S
C162 O156 1.261 . S
C163 O158 1.259 . S
C163 O160 1.235 . S
O164 Co154 2.021 . S
O164 C161 1.238 . S
O165 Co159 2.052 . S
O165 C161 1.241 . S
O166 Co154 2.137 . S
O166 C157 1.247 . S
O167 Co154 2.244 . S
O167 C157 1.272 . S
O167 Co159 2.135 . S
Co168 O169 2.216 . S
Co168 O170 2.091 . S
Co168 O172 2.004 . S
Co168 O178 2.021 . S
Co168 O180 2.137 . S
Co168 O181 2.244 . S
O169 Co168 2.216 . S
O169 C176 1.247 . S
O170 Co168 2.091 . S
O170 C176 1.261 . S
C171 O180 1.247 . S
C171 O181 1.272 . S
O172 Co168 2.004 . S
O172 C177 1.259 . S
Co173 O174 2.061 . S
Co173 O179 2.052 . S
Co173 O181 2.135 . S
O174 Co173 2.061 . S
O174 C177 1.235 . S
C175 O178 1.238 . S
C175 O179 1.241 . S
C176 O169 1.247 . S
C176 O170 1.261 . S
C177 O172 1.259 . S
C177 O174 1.235 . S
O178 Co168 2.021 . S
O178 C175 1.238 . S
O179 Co173 2.052 . S
O179 C175 1.241 . S
O180 Co168 2.137 . S
O180 C171 1.247 . S
O181 Co168 2.244 . S
O181 C171 1.272 . S
O181 Co173 2.135 . S
Co182 O183 2.216 . S
Co182 O184 2.091 . S
Co182 O186 2.004 . S
Co182 O192 2.021 . S
Co182 O194 2.137 . S
Co182 O195 2.244 . S
O183 Co182 2.216 . S
O183 C190 1.247 . S
O184 Co182 2.091 . S
O184 C190 1.261 . S
C185 O194 1.247 . S
C185 O195 1.272 . S
O186 Co182 2.004 . S
O186 C191 1.259 . S
Co187 O188 2.061 . S
Co187 O193 2.052 . S
Co187 O195 2.135 . S
O188 Co187 2.061 . S
O188 C191 1.235 . S
C189 O192 1.238 . S
C189 O193 1.241 . S
C190 O183 1.247 . S
C190 O184 1.261 . S
C191 O186 1.259 . S
C191 O188 1.235 . S
O192 Co182 2.021 . S
O192 C189 1.238 . S
O193 Co187 2.052 . S
O193 C189 1.241 . S
O194 Co182 2.137 . S
O194 C185 1.247 . S
O195 Co182 2.244 . S
O195 C185 1.272 . S
O195 Co187 2.135 . S
Co196 O197 2.216 . S
Co196 O198 2.091 . S
Co196 O200 2.004 . S
Co196 O206 2.021 . S
Co196 O208 2.137 . S
Co196 O209 2.244 . S
O197 Co196 2.216 . S
O197 C204 1.247 . S
O198 Co196 2.091 . S
O198 C204 1.261 . S
C199 O208 1.247 . S
C199 O209 1.272 . S
O200 Co196 2.004 . S
O200 C205 1.259 . S
Co201 O202 2.061 . S
Co201 O207 2.052 . S
Co201 O209 2.135 . S
O202 Co201 2.061 . S
O202 C205 1.235 . S
C203 O206 1.238 . S
C203 O207 1.241 . S
C204 O197 1.247 . S
C204 O198 1.261 . S
C205 O200 1.259 . S
C205 O202 1.235 . S
O206 Co196 2.021 . S
O206 C203 1.238 . S
O207 Co201 2.052 . S
O207 C203 1.241 . S
O208 Co196 2.137 . S
O208 C199 1.247 . S
O209 Co196 2.244 . S
O209 C199 1.272 . S
O209 Co201 2.135 . S
Co210 O211 2.216 1_545 S
Co210 O212 2.091 . S
Co210 O214 2.004 . S
Co210 O220 2.021 1_545 S
Co210 O222 2.137 1_545 S
Co210 O223 2.244 1_545 S
O211 Co210 2.216 1_565 S
O211 C218 1.247 1_565 S
O212 Co210 2.091 . S
O212 C218 1.261 . S
C213 O222 1.247 . S
C213 O223 1.272 . S
O214 Co210 2.004 . S
O214 C219 1.259 . S
Co215 O216 2.061 . S
Co215 O221 2.052 . S
Co215 O223 2.135 . S
O216 Co215 2.061 . S
O216 C219 1.235 1_565 S
C217 O220 1.238 . S
C217 O221 1.241 . S
C218 O211 1.247 1_545 S
C218 O212 1.261 . S
C219 O214 1.259 . S
C219 O216 1.235 1_545 S
O220 Co210 2.021 1_565 S
O220 C217 1.238 . S
O221 Co215 2.052 . S
O221 C217 1.241 . S
O222 Co210 2.137 1_565 S
O222 C213 1.247 . S
O223 Co210 2.244 1_565 S
O223 C213 1.272 . S
O223 Co215 2.135 . S
Co224 O225 2.216 . S
Co224 O226 2.091 . S
Co224 O228 2.004 . S
Co224 O234 2.021 . S
Co224 O236 2.137 . S
Co224 O237 2.244 . S
O225 Co224 2.216 . S
O225 C232 1.247 . S
O226 Co224 2.091 . S
O226 C232 1.261 . S
C227 O236 1.247 . S
C227 O237 1.272 . S
O228 Co224 2.004 . S
O228 C233 1.259 . S
Co229 O230 2.061 . S
Co229 O235 2.052 . S
Co229 O237 2.135 . S
O230 Co229 2.061 . S
O230 C233 1.235 . S
C231 O234 1.238 . S
C231 O235 1.241 . S
C232 O225 1.247 . S
C232 O226 1.261 . S
C233 O228 1.259 . S
C233 O230 1.235 . S
O234 Co224 2.021 . S
O234 C231 1.238 . S
O235 Co229 2.052 . S
O235 C231 1.241 . S
O236 Co224 2.137 . S
O236 C227 1.247 . S
O237 Co224 2.244 . S
O237 C227 1.272 . S
O237 Co229 2.135 . S
Co238 O239 2.216 . S
Co238 O240 2.091 . S
Co238 O242 2.004 . S
Co238 O248 2.021 . S
Co238 O250 2.137 . S
Co238 O251 2.244 . S
O239 Co238 2.216 . S
O239 C246 1.247 . S
O240 Co238 2.091 . S
O240 C246 1.261 . S
C241 O250 1.247 . S
C241 O251 1.272 . S
O242 Co238 2.004 . S
O242 C247 1.259 . S
Co243 O244 2.061 . S
Co243 O249 2.052 . S
Co243 O251 2.135 . S
O244 Co243 2.061 . S
O244 C247 1.235 . S
C245 O248 1.238 . S
C245 O249 1.241 . S
C246 O239 1.247 . S
C246 O240 1.261 . S
C247 O242 1.259 . S
C247 O244 1.235 . S
O248 Co238 2.021 . S
O248 C245 1.238 . S
O249 Co243 2.052 . S
O249 C245 1.241 . S
O250 Co238 2.137 . S
O250 C241 1.247 . S
O251 Co238 2.244 . S
O251 C241 1.272 . S
O251 Co243 2.135 . S
Co252 O253 2.216 . S
Co252 O254 2.091 . S
Co252 O256 2.004 . S
Co252 O262 2.021 . S
Co252 O264 2.137 . S
Co252 O265 2.244 . S
O253 Co252 2.216 . S
O253 C260 1.247 . S
O254 Co252 2.091 . S
O254 C260 1.261 . S
C255 O264 1.247 . S
C255 O265 1.272 . S
O256 Co252 2.004 . S
O256 C261 1.259 . S
Co257 O258 2.061 . S
Co257 O263 2.052 . S
Co257 O265 2.135 . S
O258 Co257 2.061 . S
O258 C261 1.235 . S
C259 O262 1.238 . S
C259 O263 1.241 . S
C260 O253 1.247 . S
C260 O254 1.261 . S
C261 O256 1.259 . S
C261 O258 1.235 . S
O262 Co252 2.021 . S
O262 C259 1.238 . S
O263 Co257 2.052 . S
O263 C259 1.241 . S
O264 Co252 2.137 . S
O264 C255 1.247 . S
O265 Co252 2.244 . S
O265 C255 1.272 . S
O265 Co257 2.135 . S
Co266 O267 2.216 . S
Co266 O268 2.091 . S
Co266 O270 2.004 1_565 S
Co266 O276 2.021 . S
Co266 O278 2.137 . S
Co266 O279 2.244 1_565 S
O267 Co266 2.216 . S
O267 C274 1.247 . S
O268 Co266 2.091 . S
O268 C274 1.261 . S
C269 O278 1.247 1_545 S
C269 O279 1.272 . S
O270 Co266 2.004 1_545 S
O270 C275 1.259 . S
Co271 O272 2.061 . S
Co271 O277 2.052 . S
Co271 O279 2.135 . S
O272 Co271 2.061 . S
O272 C275 1.235 . S
C273 O276 1.238 . S
C273 O277 1.241 1_565 S
C274 O267 1.247 . S
C274 O268 1.261 . S
C275 O270 1.259 . S
C275 O272 1.235 . S
O276 Co266 2.021 . S
O276 C273 1.238 . S
O277 Co271 2.052 . S
O277 C273 1.241 1_545 S
O278 Co266 2.137 . S
O278 C269 1.247 1_565 S
O279 Co266 2.244 1_545 S
O279 C269 1.272 . S
O279 Co271 2.135 . S
Co280 O281 2.216 1_556 S
Co280 O282 2.091 . S
Co280 O284 2.004 . S
Co280 O290 2.021 1_556 S
Co280 O292 2.137 . S
Co280 O293 2.244 . S
O281 Co280 2.216 1_554 S
O281 C288 1.247 . S
O282 Co280 2.091 . S
O282 C288 1.261 1_556 S
C283 O292 1.247 . S
C283 O293 1.272 . S
O284 Co280 2.004 . S
O284 C289 1.259 . S
Co285 O286 2.061 1_554 S
Co285 O291 2.052 . S
Co285 O293 2.135 1_554 S
O286 Co285 2.061 1_556 S
O286 C289 1.235 . S
C287 O290 1.238 . S
C287 O291 1.241 . S
C288 O281 1.247 . S
C288 O282 1.261 1_554 S
C289 O284 1.259 . S
C289 O286 1.235 . S
O290 Co280 2.021 1_554 S
O290 C287 1.238 . S
O291 Co285 2.052 . S
O291 C287 1.241 . S
O292 Co280 2.137 . S
O292 C283 1.247 . S
O293 Co280 2.244 . S
O293 C283 1.272 . S
O293 Co285 2.135 1_556 S
Co294 O295 2.216 . S
Co294 O296 2.091 . S
Co294 O298 2.004 . S
Co294 O304 2.021 . S
Co294 O306 2.137 . S
Co294 O307 2.244 . S
O295 Co294 2.216 . S
O295 C302 1.247 . S
O296 Co294 2.091 . S
O296 C302 1.261 . S
C297 O306 1.247 . S
C297 O307 1.272 . S
O298 Co294 2.004 . S
O298 C303 1.259 . S
Co299 O300 2.061 . S
Co299 O305 2.052 . S
Co299 O307 2.135 . S
O300 Co299 2.061 . S
O300 C303 1.235 . S
C301 O304 1.238 . S
C301 O305 1.241 . S
C302 O295 1.247 . S
C302 O296 1.261 . S
C303 O298 1.259 . S
C303 O300 1.235 . S
O304 Co294 2.021 . S
O304 C301 1.238 . S
O305 Co299 2.052 . S
O305 C301 1.241 . S
O306 Co294 2.137 . S
O306 C297 1.247 . S
O307 Co294 2.244 . S
O307 C297 1.272 . S
O307 Co299 2.135 . S
Co308 O309 2.216 . S
Co308 O310 2.091 . S
Co308 O312 2.004 . S
Co308 O318 2.021 . S
Co308 O320 2.137 . S
Co308 O321 2.244 . S
O309 Co308 2.216 . S
O309 C316 1.247 . S
O310 Co308 2.091 . S
O310 C316 1.261 . S
C311 O320 1.247 . S
C311 O321 1.272 . S
O312 Co308 2.004 . S
O312 C317 1.259 . S
Co313 O314 2.061 . S
Co313 O319 2.052 . S
Co313 O321 2.135 . S
O314 Co313 2.061 . S
O314 C317 1.235 . S
C315 O318 1.238 . S
C315 O319 1.241 . S
C316 O309 1.247 . S
C316 O310 1.261 . S
C317 O312 1.259 . S
C317 O314 1.235 . S
O318 Co308 2.021 . S
O318 C315 1.238 . S
O319 Co313 2.052 . S
O319 C315 1.241 . S
O320 Co308 2.137 . S
O320 C311 1.247 . S
O321 Co308 2.244 . S
O321 C311 1.272 . S
O321 Co313 2.135 . S
Co322 O323 2.216 . S
Co322 O324 2.091 . S
Co322 O326 2.004 . S
Co322 O332 2.021 . S
Co322 O334 2.137 . S
Co322 O335 2.244 . S
O323 Co322 2.216 . S
O323 C330 1.247 . S
O324 Co322 2.091 . S
O324 C330 1.261 . S
C325 O334 1.247 . S
C325 O335 1.272 . S
O326 Co322 2.004 . S
O326 C331 1.259 . S
Co327 O328 2.061 . S
Co327 O333 2.052 . S
Co327 O335 2.135 . S
O328 Co327 2.061 . S
O328 C331 1.235 . S
C329 O332 1.238 . S
C329 O333 1.241 . S
C330 O323 1.247 . S
C330 O324 1.261 . S
C331 O326 1.259 . S
C331 O328 1.235 . S
O332 Co322 2.021 . S
O332 C329 1.238 . S
O333 Co327 2.052 . S
O333 C329 1.241 . S
O334 Co322 2.137 . S
O334 C325 1.247 . S
O335 Co322 2.244 . S
O335 C325 1.272 . S
O335 Co327 2.135 . S
Nd336 C338 2.836 . S
Nd336 O356 2.500 . S
Nd336 O357 2.492 . S
Nd336 O358 2.487 . S
Nd336 O359 2.682 . S
Nd336 O360 2.410 . S
Nd336 O365 2.414 . S
Nd336 O367 2.424 . S
Nd337 C347 2.836 1_545 S
Nd337 O359 2.414 . S
Nd337 O361 2.424 1_455 S
Nd337 O362 2.500 1_545 S
Nd337 O363 2.492 1_545 S
Nd337 O364 2.487 . S
Nd337 O365 2.682 . S
Nd337 O366 2.410 . S
C338 Nd336 2.836 . S
C338 C339 1.498 . S
C338 O356 1.258 . S
C338 O357 1.239 . S
C339 C338 1.498 . S
C339 C340 1.366 . S
C339 C344 1.407 . S
C340 C339 1.366 . S
C340 C341 1.392 . S
C340 H368 0.930 . S
C341 C340 1.392 . S
C341 C342 1.398 . S
C341 H369 0.929 . S
C342 C341 1.398 . S
C342 C343 1.352 . S
C343 C342 1.352 . S
C343 C344 1.384 . S
C343 H370 0.930 . S
C344 C339 1.407 . S
C344 C343 1.384 . S
C344 H371 0.929 . S
C345 O358 1.241 . S
C345 O359 1.273 . S
C346 O360 1.251 . S
C346 O361 1.268 1_455 S
C347 Nd337 2.836 1_565 S
C347 C348 1.498 . S
C347 O362 1.258 . S
C347 O363 1.239 . S
C348 C347 1.498 . S
C348 C349 1.366 . S
C348 C353 1.407 . S
C349 C348 1.366 . S
C349 C350 1.392 . S
C349 H372 0.930 . S
C350 C349 1.392 . S
C350 C351 1.398 . S
C350 H373 0.929 . S
C351 C350 1.398 . S
C351 C352 1.352 . S
C352 C351 1.352 . S
C352 C353 1.384 . S
C352 H374 0.930 . S
C353 C348 1.407 . S
C353 C352 1.384 . S
C353 H375 0.929 . S
C354 O364 1.241 . S
C354 O365 1.273 . S
C355 O366 1.251 . S
C355 O367 1.268 . S
O356 Nd336 2.500 . S
O356 C338 1.258 . S
O357 Nd336 2.492 . S
O357 C338 1.239 . S
O358 Nd336 2.487 . S
O358 C345 1.241 . S
O359 Nd336 2.682 . S
O359 Nd337 2.414 . S
O359 C345 1.273 . S
O360 Nd336 2.410 . S
O360 C346 1.251 . S
O361 Nd337 2.424 1_655 S
O361 C346 1.268 1_655 S
O362 Nd337 2.500 1_565 S
O362 C347 1.258 . S
O363 Nd337 2.492 1_565 S
O363 C347 1.239 . S
O364 Nd337 2.487 . S
O364 C354 1.241 . S
O365 Nd336 2.414 . S
O365 Nd337 2.682 . S
O365 C354 1.273 . S
O366 Nd337 2.410 . S
O366 C355 1.251 . S
O367 Nd336 2.424 . S
O367 C355 1.268 . S
H368 C340 0.930 . S
H369 C341 0.929 . S
H370 C343 0.930 . S
H371 C344 0.929 . S
H372 C349 0.930 . S
H373 C350 0.929 . S
H374 C352 0.930 . S
H375 C353 0.929 . S
Nd376 C378 2.836 . S
Nd376 O396 2.500 . S
Nd376 O397 2.492 . S
Nd376 O398 2.487 . S
Nd376 O399 2.682 . S
Nd376 O400 2.410 . S
Nd376 O405 2.414 . S
Nd376 O407 2.424 . S
Nd377 C387 2.836 . S
Nd377 O399 2.414 . S
Nd377 O401 2.424 . S
Nd377 O402 2.500 . S
Nd377 O403 2.492 . S
Nd377 O404 2.487 . S
Nd377 O405 2.682 . S
Nd377 O406 2.410 . S
C378 Nd376 2.836 . S
C378 C379 1.498 . S
C378 O396 1.258 . S
C378 O397 1.239 . S
C379 C378 1.498 . S
C379 C380 1.366 . S
C379 C384 1.407 . S
C380 C379 1.366 . S
C380 C381 1.392 . S
C380 H408 0.930 . S
C381 C380 1.392 . S
C381 C382 1.398 . S
C381 H409 0.929 . S
C382 C381 1.398 . S
C382 C383 1.352 . S
C383 C382 1.352 . S
C383 C384 1.384 . S
C383 H410 0.930 . S
C384 C379 1.407 . S
C384 C383 1.384 . S
C384 H411 0.929 . S
C385 O398 1.241 . S
C385 O399 1.273 . S
C386 O400 1.251 . S
C386 O401 1.268 . S
C387 Nd377 2.836 . S
C387 C388 1.498 . S
C387 O402 1.258 . S
C387 O403 1.239 . S
C388 C387 1.498 . S
C388 C389 1.366 . S
C388 C393 1.407 . S
C389 C388 1.366 . S
C389 C390 1.392 . S
C389 H412 0.930 . S
C390 C389 1.392 . S
C390 C391 1.398 . S
C390 H413 0.929 . S
C391 C390 1.398 . S
C391 C392 1.352 . S
C392 C391 1.352 . S
C392 C393 1.384 . S
C392 H414 0.930 . S
C393 C388 1.407 . S
C393 C392 1.384 . S
C393 H415 0.929 . S
C394 O404 1.241 . S
C394 O405 1.273 . S
C395 O406 1.251 . S
C395 O407 1.268 . S
O396 Nd376 2.500 . S
O396 C378 1.258 . S
O397 Nd376 2.492 . S
O397 C378 1.239 . S
O398 Nd376 2.487 . S
O398 C385 1.241 . S
O399 Nd376 2.682 . S
O399 Nd377 2.414 . S
O399 C385 1.273 . S
O400 Nd376 2.410 . S
O400 C386 1.251 . S
O401 Nd377 2.424 . S
O401 C386 1.268 . S
O402 Nd377 2.500 . S
O402 C387 1.258 . S
O403 Nd377 2.492 . S
O403 C387 1.239 . S
O404 Nd377 2.487 . S
O404 C394 1.241 . S
O405 Nd376 2.414 . S
O405 Nd377 2.682 . S
O405 C394 1.273 . S
O406 Nd377 2.410 . S
O406 C395 1.251 . S
O407 Nd376 2.424 . S
O407 C395 1.268 . S
H408 C380 0.930 . S
H409 C381 0.929 . S
H410 C383 0.930 . S
H411 C384 0.929 . S
H412 C389 0.930 . S
H413 C390 0.929 . S
H414 C392 0.930 . S
H415 C393 0.929 . S
Nd416 C418 2.836 . S
Nd416 O436 2.500 . S
Nd416 O437 2.492 . S
Nd416 O438 2.487 . S
Nd416 O439 2.682 . S
Nd416 O440 2.410 . S
Nd416 O445 2.414 . S
Nd416 O447 2.424 . S
Nd417 C427 2.836 . S
Nd417 O439 2.414 . S
Nd417 O441 2.424 . S
Nd417 O442 2.500 . S
Nd417 O443 2.492 . S
Nd417 O444 2.487 . S
Nd417 O445 2.682 . S
Nd417 O446 2.410 . S
C418 Nd416 2.836 . S
C418 C419 1.498 . S
C418 O436 1.258 . S
C418 O437 1.239 . S
C419 C418 1.498 . S
C419 C420 1.366 . S
C419 C424 1.407 . S
C420 C419 1.366 . S
C420 C421 1.392 . S
C420 H448 0.930 . S
C421 C420 1.392 . S
C421 C422 1.398 . S
C421 H449 0.929 . S
C422 C421 1.398 . S
C422 C423 1.352 . S
C423 C422 1.352 . S
C423 C424 1.384 . S
C423 H450 0.930 . S
C424 C419 1.407 . S
C424 C423 1.384 . S
C424 H451 0.929 . S
C425 O438 1.241 . S
C425 O439 1.273 . S
C426 O440 1.251 . S
C426 O441 1.268 . S
C427 Nd417 2.836 . S
C427 C428 1.498 . S
C427 O442 1.258 . S
C427 O443 1.239 . S
C428 C427 1.498 . S
C428 C429 1.366 . S
C428 C433 1.407 . S
C429 C428 1.366 . S
C429 C430 1.392 . S
C429 H452 0.930 . S
C430 C429 1.392 . S
C430 C431 1.398 . S
C430 H453 0.929 . S
C431 C430 1.398 . S
C431 C432 1.352 . S
C432 C431 1.352 . S
C432 C433 1.384 . S
C432 H454 0.930 . S
C433 C428 1.407 . S
C433 C432 1.384 . S
C433 H455 0.929 . S
C434 O444 1.241 . S
C434 O445 1.273 . S
C435 O446 1.251 . S
C435 O447 1.268 . S
O436 Nd416 2.500 . S
O436 C418 1.258 . S
O437 Nd416 2.492 . S
O437 C418 1.239 . S
O438 Nd416 2.487 . S
O438 C425 1.241 . S
O439 Nd416 2.682 . S
O439 Nd417 2.414 . S
O439 C425 1.273 . S
O440 Nd416 2.410 . S
O440 C426 1.251 . S
O441 Nd417 2.424 . S
O441 C426 1.268 . S
O442 Nd417 2.500 . S
O442 C427 1.258 . S
O443 Nd417 2.492 . S
O443 C427 1.239 . S
O444 Nd417 2.487 . S
O444 C434 1.241 . S
O445 Nd416 2.414 . S
O445 Nd417 2.682 . S
O445 C434 1.273 . S
O446 Nd417 2.410 . S
O446 C435 1.251 . S
O447 Nd416 2.424 . S
O447 C435 1.268 . S
H448 C420 0.930 . S
H449 C421 0.929 . S
H450 C423 0.930 . S
H451 C424 0.929 . S
H452 C429 0.930 . S
H453 C430 0.929 . S
H454 C432 0.930 . S
H455 C433 0.929 . S
Nd456 C458 2.836 . S
Nd456 O476 2.500 . S
Nd456 O477 2.492 . S
Nd456 O478 2.487 . S
Nd456 O479 2.682 . S
Nd456 O480 2.410 . S
Nd456 O485 2.414 . S
Nd456 O487 2.424 . S
Nd457 C467 2.836 . S
Nd457 O479 2.414 . S
Nd457 O481 2.424 . S
Nd457 O482 2.500 . S
Nd457 O483 2.492 . S
Nd457 O484 2.487 . S
Nd457 O485 2.682 . S
Nd457 O486 2.410 . S
C458 Nd456 2.836 . S
C458 C459 1.498 . S
C458 O476 1.258 . S
C458 O477 1.239 . S
C459 C458 1.498 . S
C459 C460 1.366 . S
C459 C464 1.407 . S
C460 C459 1.366 . S
C460 C461 1.392 . S
C460 H488 0.930 . S
C461 C460 1.392 . S
C461 C462 1.398 1_556 S
C461 H489 0.929 . S
C462 C461 1.398 1_554 S
C462 C463 1.352 1_554 S
C463 C462 1.352 1_556 S
C463 C464 1.384 . S
C463 H490 0.932 . S
C464 C459 1.407 . S
C464 C463 1.384 . S
C464 H491 0.929 . S
C465 O478 1.241 . S
C465 O479 1.273 . S
C466 O480 1.251 . S
C466 O481 1.268 . S
C467 Nd457 2.836 . S
C467 C468 1.498 . S
C467 O482 1.258 . S
C467 O483 1.239 . S
C468 C467 1.498 . S
C468 C469 1.366 . S
C468 C473 1.407 . S
C469 C468 1.366 . S
C469 C470 1.392 . S
C469 H492 0.930 . S
C470 C469 1.392 . S
C470 C471 1.398 . S
C470 H493 0.929 . S
C471 C470 1.398 . S
C471 C472 1.352 . S
C472 C471 1.352 . S
C472 C473 1.384 . S
C472 H494 0.930 . S
C473 C468 1.407 . S
C473 C472 1.384 . S
C473 H495 0.929 . S
C474 O484 1.241 . S
C474 O485 1.273 . S
C475 O486 1.251 . S
C475 O487 1.268 . S
O476 Nd456 2.500 . S
O476 C458 1.258 . S
O477 Nd456 2.492 . S
O477 C458 1.239 . S
O478 Nd456 2.487 . S
O478 C465 1.241 . S
O479 Nd456 2.682 . S
O479 Nd457 2.414 . S
O479 C465 1.273 . S
O480 Nd456 2.410 . S
O480 C466 1.251 . S
O481 Nd457 2.424 . S
O481 C466 1.268 . S
O482 Nd457 2.500 . S
O482 C467 1.258 . S
O483 Nd457 2.492 . S
O483 C467 1.239 . S
O484 Nd457 2.487 . S
O484 C474 1.241 . S
O485 Nd456 2.414 . S
O485 Nd457 2.682 . S
O485 C474 1.273 . S
O486 Nd457 2.410 . S
O486 C475 1.251 . S
O487 Nd456 2.424 . S
O487 C475 1.268 . S
H488 C460 0.930 . S
H489 C461 0.929 . S
H490 C463 0.932 . S
H491 C464 0.929 . S
H492 C469 0.930 . S
H493 C470 0.929 . S
H494 C472 0.930 . S
H495 C473 0.929 . S
Nd496 C498 2.836 . S
Nd496 O516 2.500 . S
Nd496 O517 2.492 . S
Nd496 O518 2.487 . S
Nd496 O519 2.682 . S
Nd496 O520 2.410 . S
Nd496 O525 2.414 . S
Nd496 O527 2.424 . S
Nd497 C507 2.836 1_545 S
Nd497 O519 2.414 . S
Nd497 O521 2.424 . S
Nd497 O522 2.505 . S
Nd497 O523 2.492 1_545 S
Nd497 O524 2.487 1_455 S
Nd497 O525 2.682 . S
Nd497 O526 2.410 . S
C498 Nd496 2.836 . S
C498 C499 1.498 . S
C498 O516 1.258 . S
C498 O517 1.239 . S
C499 C498 1.498 . S
C499 C500 1.366 . S
C499 C504 1.407 . S
C500 C499 1.366 . S
C500 C501 1.392 . S
C500 H528 0.930 1_455 S
C501 C500 1.392 . S
C501 C502 1.398 . S
C501 H529 0.929 1_455 S
C502 C501 1.398 . S
C502 C503 1.352 . S
C503 C502 1.352 . S
C503 C504 1.384 . S
C503 H530 0.930 . S
C504 C499 1.407 . S
C504 C503 1.384 . S
C504 H531 0.929 . S
C505 O518 1.241 . S
C505 O519 1.273 . S
C506 O520 1.251 . S
C506 O521 1.268 . S
C507 Nd497 2.836 1_565 S
C507 C508 1.498 . S
C507 O522 1.255 1_565 S
C507 O523 1.239 . S
C508 C507 1.498 . S
C508 C509 1.366 . S
C508 C513 1.407 . S
C509 C508 1.366 . S
C509 C510 1.392 . S
C509 H532 0.930 . S
C510 C509 1.392 . S
C510 C511 1.398 . S
C510 H533 0.929 . S
C511 C510 1.398 . S
C511 C512 1.352 . S
C512 C511 1.352 . S
C512 C513 1.384 . S
C512 H534 0.930 . S
C513 C508 1.407 . S
C513 C512 1.384 . S
C513 H535 0.929 . S
C514 O524 1.241 . S
C514 O525 1.273 1_655 S
C515 O526 1.251 . S
C515 O527 1.268 . S
O516 Nd496 2.500 . S
O516 C498 1.258 . S
O517 Nd496 2.492 . S
O517 C498 1.239 . S
O518 Nd496 2.487 . S
O518 C505 1.241 . S
O519 Nd496 2.682 . S
O519 Nd497 2.414 . S
O519 C505 1.273 . S
O520 Nd496 2.410 . S
O520 C506 1.251 . S
O521 Nd497 2.424 . S
O521 C506 1.268 . S
O522 Nd497 2.505 . S
O522 C507 1.255 1_545 S
O523 Nd497 2.492 1_565 S
O523 C507 1.239 . S
O524 Nd497 2.487 1_655 S
O524 C514 1.241 . S
O525 Nd496 2.414 . S
O525 Nd497 2.682 . S
O525 C514 1.273 1_455 S
O526 Nd497 2.410 . S
O526 C515 1.251 . S
O527 Nd496 2.424 . S
O527 C515 1.268 . S
H528 C500 0.930 1_655 S
H529 C501 0.929 1_655 S
H530 C503 0.930 . S
H531 C504 0.929 . S
H532 C509 0.930 . S
H533 C510 0.929 . S
H534 C512 0.930 . S
H535 C513 0.929 . S
Nd536 C538 2.836 . S
Nd536 O556 2.500 . S
Nd536 O557 2.492 . S
Nd536 O558 2.487 . S
Nd536 O559 2.682 . S
Nd536 O560 2.410 . S
Nd536 O565 2.414 . S
Nd536 O567 2.424 . S
Nd537 C547 2.836 . S
Nd537 O559 2.414 . S
Nd537 O561 2.424 . S
Nd537 O562 2.500 . S
Nd537 O563 2.492 . S
Nd537 O564 2.487 . S
Nd537 O565 2.682 . S
Nd537 O566 2.410 . S
C538 Nd536 2.836 . S
C538 C539 1.498 . S
C538 O556 1.258 . S
C538 O557 1.239 . S
C539 C538 1.498 . S
C539 C540 1.366 . S
C539 C544 1.407 . S
C540 C539 1.366 . S
C540 C541 1.392 . S
C540 H568 0.930 . S
C541 C540 1.392 . S
C541 C542 1.398 . S
C541 H569 0.929 . S
C542 C541 1.398 . S
C542 C543 1.352 . S
C543 C542 1.352 . S
C543 C544 1.384 . S
C543 H570 0.930 . S
C544 C539 1.407 . S
C544 C543 1.384 . S
C544 H571 0.929 . S
C545 O558 1.241 . S
C545 O559 1.273 . S
C546 O560 1.251 . S
C546 O561 1.268 . S
C547 Nd537 2.836 . S
C547 C548 1.498 . S
C547 O562 1.258 . S
C547 O563 1.239 . S
C548 C547 1.498 . S
C548 C549 1.366 . S
C548 C553 1.407 . S
C549 C548 1.366 . S
C549 C550 1.392 . S
C549 H572 0.930 . S
C550 C549 1.392 . S
C550 C551 1.398 . S
C550 H573 0.929 . S
C551 C550 1.398 . S
C551 C552 1.352 . S
C552 C551 1.352 . S
C552 C553 1.384 . S
C552 H574 0.930 . S
C553 C548 1.407 . S
C553 C552 1.384 . S
C553 H575 0.929 . S
C554 O564 1.241 . S
C554 O565 1.273 . S
C555 O566 1.251 . S
C555 O567 1.268 . S
O556 Nd536 2.500 . S
O556 C538 1.258 . S
O557 Nd536 2.492 . S
O557 C538 1.239 . S
O558 Nd536 2.487 . S
O558 C545 1.241 . S
O559 Nd536 2.682 . S
O559 Nd537 2.414 . S
O559 C545 1.273 . S
O560 Nd536 2.410 . S
O560 C546 1.251 . S
O561 Nd537 2.424 . S
O561 C546 1.268 . S
O562 Nd537 2.500 . S
O562 C547 1.258 . S
O563 Nd537 2.492 . S
O563 C547 1.239 . S
O564 Nd537 2.487 . S
O564 C554 1.241 . S
O565 Nd536 2.414 . S
O565 Nd537 2.682 . S
O565 C554 1.273 . S
O566 Nd537 2.410 . S
O566 C555 1.251 . S
O567 Nd536 2.424 . S
O567 C555 1.268 . S
H568 C540 0.930 . S
H569 C541 0.929 . S
H570 C543 0.930 . S
H571 C544 0.929 . S
H572 C549 0.930 . S
H573 C550 0.929 . S
H574 C552 0.930 . S
H575 C553 0.929 . S
Nd576 C578 2.836 . S
Nd576 O596 2.500 . S
Nd576 O597 2.492 . S
Nd576 O598 2.487 . S
Nd576 O599 2.682 . S
Nd576 O600 2.410 . S
Nd576 O605 2.414 . S
Nd576 O607 2.424 . S
Nd577 C587 2.836 . S
Nd577 O599 2.414 . S
Nd577 O601 2.424 . S
Nd577 O602 2.500 . S
Nd577 O603 2.492 . S
Nd577 O604 2.487 . S
Nd577 O605 2.682 . S
Nd577 O606 2.410 . S
C578 Nd576 2.836 . S
C578 C579 1.498 . S
C578 O596 1.258 . S
C578 O597 1.239 . S
C579 C578 1.498 . S
C579 C580 1.366 . S
C579 C584 1.407 . S
C580 C579 1.366 . S
C580 C581 1.392 . S
C580 H608 0.930 . S
C581 C580 1.392 . S
C581 C582 1.398 . S
C581 H609 0.929 . S
C582 C581 1.398 . S
C582 C583 1.352 1_545 S
C583 C582 1.352 1_565 S
C583 C584 1.384 1_565 S
C583 H610 0.930 . S
C584 C579 1.407 . S
C584 C583 1.384 1_545 S
C584 H611 0.929 1_545 S
C585 O598 1.241 . S
C585 O599 1.273 . S
C586 O600 1.251 . S
C586 O601 1.268 . S
C587 Nd577 2.836 . S
C587 C588 1.498 . S
C587 O602 1.258 . S
C587 O603 1.239 . S
C588 C587 1.498 . S
C588 C589 1.366 . S
C588 C593 1.407 . S
C589 C588 1.366 . S
C589 C590 1.392 . S
C589 H612 0.930 . S
C590 C589 1.392 . S
C590 C591 1.398 . S
C590 H613 0.929 . S
C591 C590 1.398 . S
C591 C592 1.352 . S
C592 C591 1.352 . S
C592 C593 1.384 . S
C592 H614 0.930 . S
C593 C588 1.407 . S
C593 C592 1.384 . S
C593 H615 0.929 . S
C594 O604 1.241 . S
C594 O605 1.273 . S
C595 O606 1.251 . S
C595 O607 1.268 . S
O596 Nd576 2.500 . S
O596 C578 1.258 . S
O597 Nd576 2.492 . S
O597 C578 1.239 . S
O598 Nd576 2.487 . S
O598 C585 1.241 . S
O599 Nd576 2.682 . S
O599 Nd577 2.414 . S
O599 C585 1.273 . S
O600 Nd576 2.410 . S
O600 C586 1.251 . S
O601 Nd577 2.424 . S
O601 C586 1.268 . S
O602 Nd577 2.500 . S
O602 C587 1.258 . S
O603 Nd577 2.492 . S
O603 C587 1.239 . S
O604 Nd577 2.487 . S
O604 C594 1.241 . S
O605 Nd576 2.414 . S
O605 Nd577 2.682 . S
O605 C594 1.273 . S
O606 Nd577 2.410 . S
O606 C595 1.251 . S
O607 Nd576 2.424 . S
O607 C595 1.268 . S
H608 C580 0.930 . S
H609 C581 0.929 . S
H610 C583 0.930 . S
H611 C584 0.929 1_565 S
H612 C589 0.930 . S
H613 C590 0.929 . S
H614 C592 0.930 . S
H615 C593 0.929 . S
Nd616 C618 2.836 . S
Nd616 O636 2.500 . S
Nd616 O637 2.492 . S
Nd616 O638 2.487 . S
Nd616 O639 2.682 . S
Nd616 O640 2.410 . S
Nd616 O645 2.414 . S
Nd616 O647 2.424 . S
Nd617 C627 2.836 . S
Nd617 O639 2.414 . S
Nd617 O641 2.424 . S
Nd617 O642 2.500 . S
Nd617 O643 2.492 . S
Nd617 O644 2.487 . S
Nd617 O645 2.682 . S
Nd617 O646 2.410 . S
C618 Nd616 2.836 . S
C618 C619 1.498 . S
C618 O636 1.258 . S
C618 O637 1.239 . S
C619 C618 1.498 . S
C619 C620 1.366 . S
C619 C624 1.407 . S
C620 C619 1.366 . S
C620 C621 1.392 . S
C620 H648 0.930 . S
C621 C620 1.392 . S
C621 C622 1.398 . S
C621 H649 0.929 . S
C622 C621 1.398 . S
C622 C623 1.352 . S
C623 C622 1.352 . S
C623 C624 1.384 . S
C623 H650 0.930 . S
C624 C619 1.407 . S
C624 C623 1.384 . S
C624 H651 0.929 . S
C625 O638 1.241 . S
C625 O639 1.273 . S
C626 O640 1.251 . S
C626 O641 1.268 . S
C627 Nd617 2.836 . S
C627 C628 1.498 . S
C627 O642 1.258 . S
C627 O643 1.239 . S
C628 C627 1.498 . S
C628 C629 1.366 . S
C628 C633 1.407 . S
C629 C628 1.366 . S
C629 C630 1.392 . S
C629 H652 0.930 . S
C630 C629 1.392 . S
C630 C631 1.398 . S
C630 H653 0.929 . S
C631 C630 1.398 . S
C631 C632 1.352 . S
C632 C631 1.352 . S
C632 C633 1.384 . S
C632 H654 0.930 . S
C633 C628 1.407 . S
C633 C632 1.384 . S
C633 H655 0.929 . S
C634 O644 1.241 . S
C634 O645 1.273 . S
C635 O646 1.251 . S
C635 O647 1.268 . S
O636 Nd616 2.500 . S
O636 C618 1.258 . S
O637 Nd616 2.492 . S
O637 C618 1.239 . S
O638 Nd616 2.487 . S
O638 C625 1.241 . S
O639 Nd616 2.682 . S
O639 Nd617 2.414 . S
O639 C625 1.273 . S
O640 Nd616 2.410 . S
O640 C626 1.251 . S
O641 Nd617 2.424 . S
O641 C626 1.268 . S
O642 Nd617 2.500 . S
O642 C627 1.258 . S
O643 Nd617 2.492 . S
O643 C627 1.239 . S
O644 Nd617 2.487 . S
O644 C634 1.241 . S
O645 Nd616 2.414 . S
O645 Nd617 2.682 . S
O645 C634 1.273 . S
O646 Nd617 2.410 . S
O646 C635 1.251 . S
O647 Nd616 2.424 . S
O647 C635 1.268 . S
H648 C620 0.930 . S
H649 C621 0.929 . S
H650 C623 0.930 . S
H651 C624 0.929 . S
H652 C629 0.930 . S
H653 C630 0.929 . S
H654 C632 0.930 . S
H655 C633 0.929 . S
Nd656 C658 2.836 . S
Nd656 O676 2.500 . S
Nd656 O677 2.492 . S
Nd656 O678 2.487 . S
Nd656 O679 2.682 . S
Nd656 O680 2.410 . S
Nd656 O685 2.414 . S
Nd656 O687 2.424 . S
Nd657 C667 2.836 . S
Nd657 O679 2.414 . S
Nd657 O681 2.424 . S
Nd657 O682 2.500 . S
Nd657 O683 2.492 . S
Nd657 O684 2.487 . S
Nd657 O685 2.682 . S
Nd657 O686 2.410 . S
C658 Nd656 2.836 . S
C658 C659 1.498 . S
C658 O676 1.258 . S
C658 O677 1.239 . S
C659 C658 1.498 . S
C659 C660 1.366 . S
C659 C664 1.407 . S
C660 C659 1.366 . S
C660 C661 1.392 . S
C660 H688 0.930 . S
C661 C660 1.392 . S
C661 C662 1.398 . S
C661 H689 0.929 . S
C662 C661 1.398 . S
C662 C663 1.352 . S
C663 C662 1.352 . S
C663 C664 1.384 . S
C663 H690 0.930 . S
C664 C659 1.407 . S
C664 C663 1.384 . S
C664 H691 0.929 . S
C665 O678 1.241 . S
C665 O679 1.273 . S
C666 O680 1.251 . S
C666 O681 1.268 . S
C667 Nd657 2.836 . S
C667 C668 1.498 . S
C667 O682 1.258 . S
C667 O683 1.239 . S
C668 C667 1.498 . S
C668 C669 1.366 . S
C668 C673 1.407 . S
C669 C668 1.366 . S
C669 C670 1.392 . S
C669 H692 0.930 . S
C670 C669 1.392 . S
C670 C671 1.398 . S
C670 H693 0.929 . S
C671 C670 1.398 . S
C671 C672 1.352 . S
C672 C671 1.352 . S
C672 C673 1.384 . S
C672 H694 0.930 . S
C673 C668 1.407 . S
C673 C672 1.384 . S
C673 H695 0.929 . S
C674 O684 1.241 . S
C674 O685 1.273 . S
C675 O686 1.251 . S
C675 O687 1.268 . S
O676 Nd656 2.500 . S
O676 C658 1.258 . S
O677 Nd656 2.492 . S
O677 C658 1.239 . S
O678 Nd656 2.487 . S
O678 C665 1.241 . S
O679 Nd656 2.682 . S
O679 Nd657 2.414 . S
O679 C665 1.273 . S
O680 Nd656 2.410 . S
O680 C666 1.251 . S
O681 Nd657 2.424 . S
O681 C666 1.268 . S
O682 Nd657 2.500 . S
O682 C667 1.258 . S
O683 Nd657 2.492 . S
O683 C667 1.239 . S
O684 Nd657 2.487 . S
O684 C674 1.241 . S
O685 Nd656 2.414 . S
O685 Nd657 2.682 . S
O685 C674 1.273 . S
O686 Nd657 2.410 . S
O686 C675 1.251 . S
O687 Nd656 2.424 . S
O687 C675 1.268 . S
H688 C660 0.930 . S
H689 C661 0.929 . S
H690 C663 0.930 . S
H691 C664 0.929 . S
H692 C669 0.930 . S
H693 C670 0.929 . S
H694 C672 0.930 . S
H695 C673 0.929 . S
Nd696 C698 2.836 . S
Nd696 O716 2.500 . S
Nd696 O717 2.492 . S
Nd696 O718 2.487 . S
Nd696 O719 2.682 . S
Nd696 O720 2.410 . S
Nd696 O725 2.414 . S
Nd696 O727 2.424 . S
Nd697 C707 2.836 . S
Nd697 O719 2.414 . S
Nd697 O721 2.424 . S
Nd697 O722 2.500 . S
Nd697 O723 2.492 . S
Nd697 O724 2.487 . S
Nd697 O725 2.682 . S
Nd697 O726 2.410 . S
C698 Nd696 2.836 . S
C698 C699 1.498 . S
C698 O716 1.258 . S
C698 O717 1.239 . S
C699 C698 1.498 . S
C699 C700 1.366 . S
C699 C704 1.407 . S
C700 C699 1.366 . S
C700 C701 1.392 . S
C700 H728 0.930 . S
C701 C700 1.392 . S
C701 C702 1.398 . S
C701 H729 0.929 . S
C702 C701 1.398 . S
C702 C703 1.352 . S
C703 C702 1.352 . S
C703 C704 1.384 . S
C703 H730 0.930 . S
C704 C699 1.407 . S
C704 C703 1.384 . S
C704 H731 0.929 . S
C705 O718 1.241 . S
C705 O719 1.273 . S
C706 O720 1.251 . S
C706 O721 1.268 . S
C707 Nd697 2.836 . S
C707 C708 1.498 . S
C707 O722 1.258 . S
C707 O723 1.239 . S
C708 C707 1.498 . S
C708 C709 1.366 . S
C708 C713 1.407 . S
C709 C708 1.366 . S
C709 C710 1.392 . S
C709 H732 0.930 . S
C710 C709 1.392 . S
C710 C711 1.398 . S
C710 H733 0.929 . S
C711 C710 1.398 . S
C711 C712 1.352 . S
C712 C711 1.352 . S
C712 C713 1.384 . S
C712 H734 0.930 . S
C713 C708 1.407 . S
C713 C712 1.384 . S
C713 H735 0.929 . S
C714 O724 1.241 . S
C714 O725 1.273 . S
C715 O726 1.251 . S
C715 O727 1.268 . S
O716 Nd696 2.500 . S
O716 C698 1.258 . S
O717 Nd696 2.492 . S
O717 C698 1.239 . S
O718 Nd696 2.487 . S
O718 C705 1.241 . S
O719 Nd696 2.682 . S
O719 Nd697 2.414 . S
O719 C705 1.273 . S
O720 Nd696 2.410 . S
O720 C706 1.251 . S
O721 Nd697 2.424 . S
O721 C706 1.268 . S
O722 Nd697 2.500 . S
O722 C707 1.258 . S
O723 Nd697 2.492 . S
O723 C707 1.239 . S
O724 Nd697 2.487 . S
O724 C714 1.241 . S
O725 Nd696 2.414 . S
O725 Nd697 2.682 . S
O725 C714 1.273 . S
O726 Nd697 2.410 . S
O726 C715 1.251 . S
O727 Nd696 2.424 . S
O727 C715 1.268 . S
H728 C700 0.930 . S
H729 C701 0.929 . S
H730 C703 0.930 . S
H731 C704 0.929 . S
H732 C709 0.930 . S
H733 C710 0.929 . S
H734 C712 0.930 . S
H735 C713 0.929 . S
Nd736 C738 2.836 1_455 S
Nd736 O756 2.500 1_455 S
Nd736 O757 2.492 1_455 S
Nd736 O758 2.487 . S
Nd736 O759 2.682 . S
Nd736 O760 2.410 . S
Nd736 O765 2.414 . S
Nd736 O767 2.424 . S
Nd737 C747 2.836 . S
Nd737 O759 2.414 . S
Nd737 O761 2.424 . S
Nd737 O762 2.500 . S
Nd737 O763 2.492 . S
Nd737 O764 2.487 . S
Nd737 O765 2.682 . S
Nd737 O766 2.410 . S
C738 Nd736 2.836 1_655 S
C738 C739 1.498 . S
C738 O756 1.258 . S
C738 O757 1.239 . S
C739 C738 1.498 . S
C739 C740 1.366 . S
C739 C744 1.407 . S
C740 C739 1.366 . S
C740 C741 1.392 . S
C740 H768 0.930 . S
C741 C740 1.392 . S
C741 C742 1.398 . S
C741 H769 0.929 . S
C742 C741 1.398 . S
C742 C743 1.352 . S
C743 C742 1.352 . S
C743 C744 1.384 . S
C743 H770 0.930 . S
C744 C739 1.407 . S
C744 C743 1.384 . S
C744 H771 0.929 . S
C745 O758 1.241 . S
C745 O759 1.273 . S
C746 O760 1.251 . S
C746 O761 1.268 . S
C747 Nd737 2.836 . S
C747 C748 1.498 . S
C747 O762 1.258 . S
C747 O763 1.239 . S
C748 C747 1.498 . S
C748 C749 1.366 . S
C748 C753 1.407 . S
C749 C748 1.366 . S
C749 C750 1.392 . S
C749 H772 0.930 . S
C750 C749 1.392 . S
C750 C751 1.398 . S
C750 H773 0.929 . S
C751 C750 1.398 . S
C751 C752 1.352 . S
C752 C751 1.352 . S
C752 C753 1.384 . S
C752 H774 0.930 . S
C753 C748 1.407 . S
C753 C752 1.384 . S
C753 H775 0.929 . S
C754 O764 1.241 . S
C754 O765 1.273 . S
C755 O766 1.251 . S
C755 O767 1.268 . S
O756 Nd736 2.500 1_655 S
O756 C738 1.258 . S
O757 Nd736 2.492 1_655 S
O757 C738 1.239 . S
O758 Nd736 2.487 . S
O758 C745 1.241 . S
O759 Nd736 2.682 . S
O759 Nd737 2.414 . S
O759 C745 1.273 . S
O760 Nd736 2.410 . S
O760 C746 1.251 . S
O761 Nd737 2.424 . S
O761 C746 1.268 . S
O762 Nd737 2.500 . S
O762 C747 1.258 . S
O763 Nd737 2.492 . S
O763 C747 1.239 . S
O764 Nd737 2.487 . S
O764 C754 1.241 . S
O765 Nd736 2.414 . S
O765 Nd737 2.682 . S
O765 C754 1.273 . S
O766 Nd737 2.410 . S
O766 C755 1.251 . S
O767 Nd736 2.424 . S
O767 C755 1.268 . S
H768 C740 0.930 . S
H769 C741 0.929 . S
H770 C743 0.930 . S
H771 C744 0.929 . S
H772 C749 0.930 . S
H773 C750 0.929 . S
H774 C752 0.930 . S
H775 C753 0.929 . S
Nd776 C778 2.836 . S
Nd776 O796 2.500 . S
Nd776 O797 2.492 . S
Nd776 O798 2.487 . S
Nd776 O799 2.682 . S
Nd776 O800 2.410 . S
Nd776 O805 2.414 . S
Nd776 O807 2.424 . S
Nd777 C787 2.836 . S
Nd777 O799 2.414 . S
Nd777 O801 2.424 . S
Nd777 O802 2.500 . S
Nd777 O803 2.492 . S
Nd777 O804 2.487 . S
Nd777 O805 2.682 . S
Nd777 O806 2.410 . S
C778 Nd776 2.836 . S
C778 C779 1.498 . S
C778 O796 1.258 . S
C778 O797 1.239 . S
C779 C778 1.498 . S
C779 C780 1.366 . S
C779 C784 1.407 . S
C780 C779 1.366 . S
C780 C781 1.392 . S
C780 H808 0.930 . S
C781 C780 1.392 . S
C781 C782 1.398 . S
C781 H809 0.929 . S
C782 C781 1.398 . S
C782 C783 1.352 . S
C783 C782 1.352 . S
C783 C784 1.384 . S
C783 H810 0.930 . S
C784 C779 1.407 . S
C784 C783 1.384 . S
C784 H811 0.929 . S
C785 O798 1.241 . S
C785 O799 1.273 . S
C786 O800 1.251 . S
C786 O801 1.268 . S
C787 Nd777 2.836 . S
C787 C788 1.498 . S
C787 O802 1.258 . S
C787 O803 1.239 . S
C788 C787 1.498 . S
C788 C789 1.366 . S
C788 C793 1.407 . S
C789 C788 1.366 . S
C789 C790 1.392 . S
C789 H812 0.930 . S
C790 C789 1.392 . S
C790 C791 1.398 . S
C790 H813 0.929 . S
C791 C790 1.398 . S
C791 C792 1.352 . S
C792 C791 1.352 . S
C792 C793 1.384 . S
C792 H814 0.930 . S
C793 C788 1.407 . S
C793 C792 1.384 . S
C793 H815 0.929 . S
C794 O804 1.241 . S
C794 O805 1.273 . S
C795 O806 1.251 . S
C795 O807 1.268 . S
O796 Nd776 2.500 . S
O796 C778 1.258 . S
O797 Nd776 2.492 . S
O797 C778 1.239 . S
O798 Nd776 2.487 . S
O798 C785 1.241 . S
O799 Nd776 2.682 . S
O799 Nd777 2.414 . S
O799 C785 1.273 . S
O800 Nd776 2.410 . S
O800 C786 1.251 . S
O801 Nd777 2.424 . S
O801 C786 1.268 . S
O802 Nd777 2.500 . S
O802 C787 1.258 . S
O803 Nd777 2.492 . S
O803 C787 1.239 . S
O804 Nd777 2.487 . S
O804 C794 1.241 . S
O805 Nd776 2.414 . S
O805 Nd777 2.682 . S
O805 C794 1.273 . S
O806 Nd777 2.410 . S
O806 C795 1.251 . S
O807 Nd776 2.424 . S
O807 C795 1.268 . S
H808 C780 0.930 . S
H809 C781 0.929 . S
H810 C783 0.930 . S
H811 C784 0.929 . S
H812 C789 0.930 . S
H813 C790 0.929 . S
H814 C792 0.930 . S
H815 C793 0.929 . S
Nd816 C818 2.836 . S
Nd816 O836 2.500 . S
Nd816 O837 2.492 . S
Nd816 O838 2.487 . S
Nd816 O839 2.682 . S
Nd816 O840 2.410 . S
Nd816 O845 2.414 . S
Nd816 O847 2.424 . S
Nd817 C827 2.836 . S
Nd817 O839 2.414 . S
Nd817 O841 2.424 . S
Nd817 O842 2.500 . S
Nd817 O843 2.492 . S
Nd817 O844 2.487 . S
Nd817 O845 2.682 . S
Nd817 O846 2.410 . S
C818 Nd816 2.836 . S
C818 C819 1.498 . S
C818 O836 1.258 . S
C818 O837 1.239 . S
C819 C818 1.498 . S
C819 C820 1.366 . S
C819 C824 1.407 . S
C820 C819 1.366 . S
C820 C821 1.392 . S
C820 H848 0.930 . S
C821 C820 1.392 . S
C821 C822 1.398 . S
C821 H849 0.929 . S
C822 C821 1.398 . S
C822 C823 1.352 . S
C823 C822 1.352 . S
C823 C824 1.384 . S
C823 H850 0.930 . S
C824 C819 1.407 . S
C824 C823 1.384 . S
C824 H851 0.929 . S
C825 O838 1.241 . S
C825 O839 1.273 . S
C826 O840 1.251 . S
C826 O841 1.268 . S
C827 Nd817 2.836 . S
C827 C828 1.498 . S
C827 O842 1.258 . S
C827 O843 1.239 . S
C828 C827 1.498 . S
C828 C829 1.366 . S
C828 C833 1.407 . S
C829 C828 1.366 . S
C829 C830 1.392 . S
C829 H852 0.930 . S
C830 C829 1.392 . S
C830 C831 1.398 . S
C830 H853 0.929 . S
C831 C830 1.398 . S
C831 C832 1.352 . S
C832 C831 1.352 . S
C832 C833 1.384 . S
C832 H854 0.930 . S
C833 C828 1.407 . S
C833 C832 1.384 . S
C833 H855 0.929 . S
C834 O844 1.241 . S
C834 O845 1.273 . S
C835 O846 1.251 . S
C835 O847 1.268 . S
O836 Nd816 2.500 . S
O836 C818 1.258 . S
O837 Nd816 2.492 . S
O837 C818 1.239 . S
O838 Nd816 2.487 . S
O838 C825 1.241 . S
O839 Nd816 2.682 . S
O839 Nd817 2.414 . S
O839 C825 1.273 . S
O840 Nd816 2.410 . S
O840 C826 1.251 . S
O841 Nd817 2.424 . S
O841 C826 1.268 . S
O842 Nd817 2.500 . S
O842 C827 1.258 . S
O843 Nd817 2.492 . S
O843 C827 1.239 . S
O844 Nd817 2.487 . S
O844 C834 1.241 . S
O845 Nd816 2.414 . S
O845 Nd817 2.682 . S
O845 C834 1.273 . S
O846 Nd817 2.410 . S
O846 C835 1.251 . S
O847 Nd816 2.424 . S
O847 C835 1.268 . S
H848 C820 0.930 . S
H849 C821 0.929 . S
H850 C823 0.930 . S
H851 C824 0.929 . S
H852 C829 0.930 . S
H853 C830 0.929 . S
H854 C832 0.930 . S
H855 C833 0.929 . S
Nd856 C858 2.836 . S
Nd856 O876 2.500 . S
Nd856 O877 2.492 . S
Nd856 O878 2.487 . S
Nd856 O879 2.682 . S
Nd856 O880 2.410 . S
Nd856 O885 2.414 . S
Nd856 O887 2.424 . S
Nd857 C867 2.836 . S
Nd857 O879 2.414 . S
Nd857 O881 2.424 . S
Nd857 O882 2.500 . S
Nd857 O883 2.492 . S
Nd857 O884 2.487 . S
Nd857 O885 2.682 . S
Nd857 O886 2.410 . S
C858 Nd856 2.836 . S
C858 C859 1.498 . S
C858 O876 1.258 . S
C858 O877 1.239 . S
C859 C858 1.498 . S
C859 C860 1.366 . S
C859 C864 1.407 . S
C860 C859 1.366 . S
C860 C861 1.392 . S
C860 H888 0.930 . S
C861 C860 1.392 . S
C861 C862 1.398 . S
C861 H889 0.929 . S
C862 C861 1.398 . S
C862 C863 1.352 . S
C863 C862 1.352 . S
C863 C864 1.384 . S
C863 H890 0.930 . S
C864 C859 1.407 . S
C864 C863 1.384 . S
C864 H891 0.929 . S
C865 O878 1.241 . S
C865 O879 1.273 . S
C866 O880 1.251 . S
C866 O881 1.268 . S
C867 Nd857 2.836 . S
C867 C868 1.498 . S
C867 O882 1.258 . S
C867 O883 1.239 . S
C868 C867 1.498 . S
C868 C869 1.366 . S
C868 C873 1.407 . S
C869 C868 1.366 . S
C869 C870 1.392 . S
C869 H892 0.930 . S
C870 C869 1.392 . S
C870 C871 1.398 . S
C870 H893 0.929 . S
C871 C870 1.398 . S
C871 C872 1.352 . S
C872 C871 1.352 . S
C872 C873 1.384 . S
C872 H894 0.930 . S
C873 C868 1.407 . S
C873 C872 1.384 . S
C873 H895 0.929 . S
C874 O884 1.241 . S
C874 O885 1.273 . S
C875 O886 1.251 . S
C875 O887 1.268 . S
O876 Nd856 2.500 . S
O876 C858 1.258 . S
O877 Nd856 2.492 . S
O877 C858 1.239 . S
O878 Nd856 2.487 . S
O878 C865 1.241 . S
O879 Nd856 2.682 . S
O879 Nd857 2.414 . S
O879 C865 1.273 . S
O880 Nd856 2.410 . S
O880 C866 1.251 . S
O881 Nd857 2.424 . S
O881 C866 1.268 . S
O882 Nd857 2.500 . S
O882 C867 1.258 . S
O883 Nd857 2.492 . S
O883 C867 1.239 . S
O884 Nd857 2.487 . S
O884 C874 1.241 . S
O885 Nd856 2.414 . S
O885 Nd857 2.682 . S
O885 C874 1.273 . S
O886 Nd857 2.410 . S
O886 C875 1.251 . S
O887 Nd856 2.424 . S
O887 C875 1.268 . S
H888 C860 0.930 . S
H889 C861 0.929 . S
H890 C863 0.930 . S
H891 C864 0.929 . S
H892 C869 0.930 . S
H893 C870 0.929 . S
H894 C872 0.930 . S
H895 C873 0.929 . S
Nd896 C898 2.836 . S
Nd896 O916 2.500 . S
Nd896 O917 2.492 . S
Nd896 O918 2.487 . S
Nd896 O919 2.682 . S
Nd896 O920 2.410 . S
Nd896 O925 2.414 . S
Nd896 O927 2.424 . S
Nd897 C907 2.836 . S
Nd897 O919 2.414 . S
Nd897 O921 2.424 . S
Nd897 O922 2.500 . S
Nd897 O923 2.492 . S
Nd897 O924 2.487 . S
Nd897 O925 2.682 . S
Nd897 O926 2.410 . S
C898 Nd896 2.836 . S
C898 C899 1.498 . S
C898 O916 1.258 . S
C898 O917 1.239 . S
C899 C898 1.498 . S
C899 C900 1.366 . S
C899 C904 1.407 . S
C900 C899 1.366 . S
C900 C901 1.392 . S
C900 H928 0.930 . S
C901 C900 1.392 . S
C901 C902 1.398 . S
C901 H929 0.929 . S
C902 C901 1.398 . S
C902 C903 1.352 . S
C903 C902 1.352 . S
C903 C904 1.384 . S
C903 H930 0.930 . S
C904 C899 1.407 . S
C904 C903 1.384 . S
C904 H931 0.929 . S
C905 O918 1.241 . S
C905 O919 1.273 . S
C906 O920 1.251 . S
C906 O921 1.268 . S
C907 Nd897 2.836 . S
C907 C908 1.498 . S
C907 O922 1.258 . S
C907 O923 1.239 . S
C908 C907 1.498 . S
C908 C909 1.366 . S
C908 C913 1.407 . S
C909 C908 1.366 . S
C909 C910 1.392 . S
C909 H932 0.930 . S
C910 C909 1.392 . S
C910 C911 1.398 . S
C910 H933 0.929 . S
C911 C910 1.398 . S
C911 C912 1.352 . S
C912 C911 1.352 . S
C912 C913 1.384 . S
C912 H934 0.930 . S
C913 C908 1.407 . S
C913 C912 1.384 . S
C913 H935 0.929 . S
C914 O924 1.241 . S
C914 O925 1.273 . S
C915 O926 1.251 . S
C915 O927 1.268 . S
O916 Nd896 2.500 . S
O916 C898 1.258 . S
O917 Nd896 2.492 . S
O917 C898 1.239 . S
O918 Nd896 2.487 . S
O918 C905 1.241 . S
O919 Nd896 2.682 . S
O919 Nd897 2.414 . S
O919 C905 1.273 . S
O920 Nd896 2.410 . S
O920 C906 1.251 . S
O921 Nd897 2.424 . S
O921 C906 1.268 . S
O922 Nd897 2.500 . S
O922 C907 1.258 . S
O923 Nd897 2.492 . S
O923 C907 1.239 . S
O924 Nd897 2.487 . S
O924 C914 1.241 . S
O925 Nd896 2.414 . S
O925 Nd897 2.682 . S
O925 C914 1.273 . S
O926 Nd897 2.410 . S
O926 C915 1.251 . S
O927 Nd896 2.424 . S
O927 C915 1.268 . S
H928 C900 0.930 . S
H929 C901 0.929 . S
H930 C903 0.930 . S
H931 C904 0.929 . S
H932 C909 0.930 . S
H933 C910 0.929 . S
H934 C912 0.930 . S
H935 C913 0.929 . S
Nd936 C938 2.836 . S
Nd936 O956 2.500 . S
Nd936 O957 2.492 . S
Nd936 O958 2.487 . S
Nd936 O959 2.682 . S
Nd936 O960 2.410 . S
Nd936 O965 2.414 . S
Nd936 O967 2.424 . S
Nd937 C947 2.836 1_455 S
Nd937 O959 2.414 . S
Nd937 O961 2.424 . S
Nd937 O962 2.500 1_455 S
Nd937 O963 2.492 1_455 S
Nd937 O964 2.487 . S
Nd937 O965 2.682 . S
Nd937 O966 2.410 . S
C938 Nd936 2.836 . S
C938 C939 1.498 . S
C938 O956 1.258 . S
C938 O957 1.239 . S
C939 C938 1.498 . S
C939 C940 1.366 . S
C939 C944 1.407 . S
C940 C939 1.366 . S
C940 C941 1.392 . S
C940 H968 0.930 . S
C941 C940 1.392 . S
C941 C942 1.398 . S
C941 H969 0.929 . S
C942 C941 1.398 . S
C942 C943 1.352 . S
C943 C942 1.352 . S
C943 C944 1.384 . S
C943 H970 0.930 . S
C944 C939 1.407 . S
C944 C943 1.384 . S
C944 H971 0.929 . S
C945 O958 1.241 . S
C945 O959 1.273 . S
C946 O960 1.251 . S
C946 O961 1.268 . S
C947 Nd937 2.836 1_655 S
C947 C948 1.498 . S
C947 O962 1.258 . S
C947 O963 1.239 . S
C948 C947 1.498 . S
C948 C949 1.366 . S
C948 C953 1.407 . S
C949 C948 1.366 . S
C949 C950 1.392 . S
C949 H972 0.930 . S
C950 C949 1.392 . S
C950 C951 1.398 . S
C950 H973 0.929 . S
C951 C950 1.398 . S
C951 C952 1.352 . S
C952 C951 1.352 . S
C952 C953 1.384 . S
C952 H974 0.930 . S
C953 C948 1.407 . S
C953 C952 1.384 . S
C953 H975 0.929 . S
C954 O964 1.241 . S
C954 O965 1.273 . S
C955 O966 1.251 . S
C955 O967 1.268 . S
O956 Nd936 2.500 . S
O956 C938 1.258 . S
O957 Nd936 2.492 . S
O957 C938 1.239 . S
O958 Nd936 2.487 . S
O958 C945 1.241 . S
O959 Nd936 2.682 . S
O959 Nd937 2.414 . S
O959 C945 1.273 . S
O960 Nd936 2.410 . S
O960 C946 1.251 . S
O961 Nd937 2.424 . S
O961 C946 1.268 . S
O962 Nd937 2.500 1_655 S
O962 C947 1.258 . S
O963 Nd937 2.492 1_655 S
O963 C947 1.239 . S
O964 Nd937 2.487 . S
O964 C954 1.241 . S
O965 Nd936 2.414 . S
O965 Nd937 2.682 . S
O965 C954 1.273 . S
O966 Nd937 2.410 . S
O966 C955 1.251 . S
O967 Nd936 2.424 . S
O967 C955 1.268 . S
H968 C940 0.930 . S
H969 C941 0.929 . S
H970 C943 0.930 . S
H971 C944 0.929 . S
H972 C949 0.930 . S
H973 C950 0.929 . S
H974 C952 0.930 . S
H975 C953 0.929 . S
H976 C982 0.930 . S
H977 C985 0.930 . S
H978 C986 0.930 . S
H979 C987 0.930 . S
H980 C990 0.930 . S
H981 C991 0.930 . S
C982 H976 0.930 . S
C982 C983 1.355 . S
C982 C984 1.415 . S
C983 C982 1.355 . S
C983 C985 1.419 . S
C984 C982 1.415 . S
C984 C989 1.425 1_556 S
C984 C991 1.409 . S
C985 H977 0.930 . S
C985 C983 1.419 . S
C985 C986 1.362 1_556 S
C986 H978 0.930 . S
C986 C985 1.362 1_554 S
C986 C989 1.409 . S
C987 H979 0.930 . S
C987 C988 1.355 . S
C987 C989 1.415 . S
C988 C987 1.355 . S
C988 C990 1.419 . S
C989 C984 1.425 1_554 S
C989 C986 1.409 . S
C989 C987 1.415 . S
C990 H980 0.930 . S
C990 C988 1.419 . S
C990 C991 1.362 1_554 S
C991 H981 0.930 . S
C991 C984 1.409 . S
C991 C990 1.362 1_556 S
H992 C998 0.930 . S
H993 C1001 0.930 . S
H994 C1002 0.930 . S
H995 C1003 0.930 . S
H996 C1006 0.930 . S
H997 C1007 0.930 . S
C998 H992 0.930 . S
C998 C999 1.355 . S
C998 C1000 1.415 . S
C999 C998 1.355 . S
C999 C1001 1.419 . S
C1000 C998 1.415 . S
C1000 C1005 1.425 . S
C1000 C1007 1.409 . S
C1001 H993 0.930 . S
C1001 C999 1.419 . S
C1001 C1002 1.362 . S
C1002 H994 0.930 . S
C1002 C1001 1.362 . S
C1002 C1005 1.409 . S
C1003 H995 0.930 . S
C1003 C1004 1.355 . S
C1003 C1005 1.415 . S
C1004 C1003 1.355 . S
C1004 C1006 1.419 . S
C1005 C1000 1.425 . S
C1005 C1002 1.409 . S
C1005 C1003 1.415 . S
C1006 H996 0.930 . S
C1006 C1004 1.419 . S
C1006 C1007 1.362 . S
C1007 H997 0.930 . S
C1007 C1000 1.409 . S
C1007 C1006 1.362 . S
H1008 C1014 0.930 . S
H1009 C1017 0.930 . S
H1010 C1018 0.930 . S
H1011 C1019 0.930 . S
H1012 C1022 0.930 1_545 S
H1013 C1023 0.930 . S
C1014 H1008 0.930 . S
C1014 C1015 1.355 . S
C1014 C1016 1.415 . S
C1015 C1014 1.355 . S
C1015 C1017 1.419 . S
C1016 C1014 1.415 . S
C1016 C1021 1.425 . S
C1016 C1023 1.409 . S
C1017 H1009 0.930 . S
C1017 C1015 1.419 . S
C1017 C1018 1.362 . S
C1018 H1010 0.930 . S
C1018 C1017 1.362 . S
C1018 C1021 1.409 . S
C1019 H1011 0.930 . S
C1019 C1020 1.355 . S
C1019 C1021 1.415 . S
C1020 C1019 1.355 . S
C1020 C1022 1.419 . S
C1021 C1016 1.425 . S
C1021 C1018 1.409 . S
C1021 C1019 1.415 . S
C1022 H1012 0.930 1_565 S
C1022 C1020 1.419 . S
C1022 C1023 1.362 . S
C1023 H1013 0.930 . S
C1023 C1016 1.409 . S
C1023 C1022 1.362 . S
H1024 C1030 0.930 . S
H1025 C1033 0.930 . S
H1026 C1034 0.930 . S
H1027 C1035 0.930 . S
H1028 C1038 0.930 . S
H1029 C1039 0.930 . S
C1030 H1024 0.930 . S
C1030 C1031 1.355 . S
C1030 C1032 1.415 . S
C1031 C1030 1.355 . S
C1031 C1033 1.419 . S
C1032 C1030 1.415 . S
C1032 C1037 1.425 . S
C1032 C1039 1.409 . S
C1033 H1025 0.930 . S
C1033 C1031 1.419 . S
C1033 C1034 1.362 . S
C1034 H1026 0.930 . S
C1034 C1033 1.362 . S
C1034 C1037 1.409 . S
C1035 H1027 0.930 . S
C1035 C1036 1.355 . S
C1035 C1037 1.415 . S
C1036 C1035 1.355 . S
C1036 C1038 1.419 . S
C1037 C1032 1.425 . S
C1037 C1034 1.409 . S
C1037 C1035 1.415 . S
C1038 H1028 0.930 . S
C1038 C1036 1.419 . S
C1038 C1039 1.362 . S
C1039 H1029 0.930 . S
C1039 C1032 1.409 . S
C1039 C1038 1.362 . S
H1040 C1046 0.930 1_655 S
H1041 C1049 0.930 . S
H1042 C1050 0.930 . S
H1043 C1051 0.930 . S
H1044 C1054 0.930 . S
H1045 C1055 0.930 1_655 S
C1046 H1040 0.930 1_455 S
C1046 C1047 1.355 . S
C1046 C1048 1.415 . S
C1047 C1046 1.355 . S
C1047 C1049 1.419 . S
C1048 C1046 1.415 . S
C1048 C1053 1.425 . S
C1048 C1055 1.409 . S
C1049 H1041 0.930 . S
C1049 C1047 1.419 . S
C1049 C1050 1.362 . S
C1050 H1042 0.930 . S
C1050 C1049 1.362 . S
C1050 C1053 1.409 . S
C1051 H1043 0.930 . S
C1051 C1052 1.355 . S
C1051 C1053 1.415 . S
C1052 C1051 1.355 . S
C1052 C1054 1.419 . S
C1053 C1048 1.425 . S
C1053 C1050 1.409 . S
C1053 C1051 1.415 . S
C1054 H1044 0.930 . S
C1054 C1052 1.419 . S
C1054 C1055 1.362 . S
C1055 H1045 0.930 1_455 S
C1055 C1048 1.409 . S
C1055 C1054 1.362 . S
H1056 C1062 0.930 . S
H1057 C1065 0.930 . S
H1058 C1066 0.930 . S
H1059 C1067 0.930 . S
H1060 C1070 0.930 . S
H1061 C1071 0.930 . S
C1062 H1056 0.930 . S
C1062 C1063 1.355 . S
C1062 C1064 1.415 . S
C1063 C1062 1.355 . S
C1063 C1065 1.419 . S
C1064 C1062 1.415 . S
C1064 C1069 1.425 . S
C1064 C1071 1.409 . S
C1065 H1057 0.930 . S
C1065 C1063 1.419 . S
C1065 C1066 1.362 . S
C1066 H1058 0.930 . S
C1066 C1065 1.362 . S
C1066 C1069 1.409 . S
C1067 H1059 0.930 . S
C1067 C1068 1.355 . S
C1067 C1069 1.415 . S
C1068 C1067 1.355 . S
C1068 C1070 1.419 . S
C1069 C1064 1.425 . S
C1069 C1066 1.409 . S
C1069 C1067 1.415 . S
C1070 H1060 0.930 . S
C1070 C1068 1.419 . S
C1070 C1071 1.362 . S
C1071 H1061 0.930 . S
C1071 C1064 1.409 . S
C1071 C1070 1.362 . S
H1072 C1078 0.930 . S
H1073 C1081 0.930 . S
H1074 C1082 0.930 . S
H1075 C1083 0.930 . S
H1076 C1086 0.930 . S
H1077 C1087 0.930 . S
C1078 H1072 0.930 . S
C1078 C1079 1.355 . S
C1078 C1080 1.415 . S
C1079 C1078 1.355 . S
C1079 C1081 1.419 . S
C1080 C1078 1.415 . S
C1080 C1085 1.425 . S
C1080 C1087 1.409 . S
C1081 H1073 0.930 . S
C1081 C1079 1.419 . S
C1081 C1082 1.362 . S
C1082 H1074 0.930 . S
C1082 C1081 1.362 . S
C1082 C1085 1.409 . S
C1083 H1075 0.930 . S
C1083 C1084 1.355 . S
C1083 C1085 1.415 . S
C1084 C1083 1.355 . S
C1084 C1086 1.419 . S
C1085 C1080 1.425 . S
C1085 C1082 1.409 . S
C1085 C1083 1.415 . S
C1086 H1076 0.930 . S
C1086 C1084 1.419 . S
C1086 C1087 1.362 . S
C1087 H1077 0.930 . S
C1087 C1080 1.409 . S
C1087 C1086 1.362 . S
H1088 C1094 0.930 . S
H1089 C1097 0.930 . S
H1090 C1098 0.930 . S
H1091 C1099 0.930 . S
H1092 C1102 0.930 . S
H1093 C1103 0.930 . S
C1094 H1088 0.930 . S
C1094 C1095 1.355 . S
C1094 C1096 1.415 . S
C1095 C1094 1.355 . S
C1095 C1097 1.419 . S
C1096 C1094 1.415 . S
C1096 C1101 1.425 . S
C1096 C1103 1.409 . S
C1097 H1089 0.930 . S
C1097 C1095 1.419 . S
C1097 C1098 1.362 . S
C1098 H1090 0.930 . S
C1098 C1097 1.362 . S
C1098 C1101 1.409 . S
C1099 H1091 0.930 . S
C1099 C1100 1.355 . S
C1099 C1101 1.415 . S
C1100 C1099 1.355 . S
C1100 C1102 1.419 . S
C1101 C1096 1.425 . S
C1101 C1098 1.409 . S
C1101 C1099 1.415 . S
C1102 H1092 0.930 . S
C1102 C1100 1.419 . S
C1102 C1103 1.362 . S
C1103 H1093 0.930 . S
C1103 C1096 1.409 . S
C1103 C1102 1.362 . S
H1104 C1110 0.930 . S
H1105 C1113 0.930 . S
H1106 C1114 0.930 . S
H1107 C1115 0.930 . S
H1108 C1118 0.930 . S
H1109 C1119 0.930 . S
C1110 H1104 0.930 . S
C1110 C1111 1.355 . S
C1110 C1112 1.415 . S
C1111 C1110 1.355 . S
C1111 C1113 1.419 . S
C1112 C1110 1.415 . S
C1112 C1117 1.425 . S
C1112 C1119 1.409 . S
C1113 H1105 0.930 . S
C1113 C1111 1.419 . S
C1113 C1114 1.362 . S
C1114 H1106 0.930 . S
C1114 C1113 1.362 . S
C1114 C1117 1.409 . S
C1115 H1107 0.930 . S
C1115 C1116 1.355 . S
C1115 C1117 1.415 1_455 S
C1116 C1115 1.355 . S
C1116 C1118 1.419 1_455 S
C1117 C1112 1.425 . S
C1117 C1114 1.409 . S
C1117 C1115 1.415 1_655 S
C1118 H1108 0.930 . S
C1118 C1116 1.419 1_655 S
C1118 C1119 1.362 . S
C1119 H1109 0.930 . S
C1119 C1112 1.409 . S
C1119 C1118 1.362 . S
H1120 C1126 0.930 . S
H1121 C1129 0.930 . S
H1122 C1130 0.930 . S
H1123 C1131 0.930 . S
H1124 C1134 0.930 . S
H1125 C1135 0.930 . S
C1126 H1120 0.930 . S
C1126 C1127 1.355 . S
C1126 C1128 1.415 . S
C1127 C1126 1.355 . S
C1127 C1129 1.419 . S
C1128 C1126 1.415 . S
C1128 C1133 1.425 . S
C1128 C1135 1.409 . S
C1129 H1121 0.930 . S
C1129 C1127 1.419 . S
C1129 C1130 1.362 . S
C1130 H1122 0.930 . S
C1130 C1129 1.362 . S
C1130 C1133 1.409 . S
C1131 H1123 0.930 . S
C1131 C1132 1.355 . S
C1131 C1133 1.415 . S
C1132 C1131 1.355 . S
C1132 C1134 1.419 . S
C1133 C1128 1.425 . S
C1133 C1130 1.409 . S
C1133 C1131 1.415 . S
C1134 H1124 0.930 . S
C1134 C1132 1.419 . S
C1134 C1135 1.362 . S
C1135 H1125 0.930 . S
C1135 C1128 1.409 . S
C1135 C1134 1.362 . S
H1136 C1142 0.930 . S
H1137 C1145 0.930 . S
H1138 C1146 0.930 . S
H1139 C1147 0.930 . S
H1140 C1150 0.930 . S
H1141 C1151 0.930 . S
C1142 H1136 0.930 . S
C1142 C1143 1.360 1_545 S
C1142 C1144 1.415 . S
C1143 C1142 1.360 1_565 S
C1143 C1145 1.417 . S
C1144 C1142 1.415 . S
C1144 C1149 1.425 . S
C1144 C1151 1.409 . S
C1145 H1137 0.930 . S
C1145 C1143 1.417 . S
C1145 C1146 1.362 . S
C1146 H1138 0.930 . S
C1146 C1145 1.362 . S
C1146 C1149 1.409 1_565 S
C1147 H1139 0.930 . S
C1147 C1148 1.355 . S
C1147 C1149 1.415 . S
C1148 C1147 1.355 . S
C1148 C1150 1.419 . S
C1149 C1144 1.425 . S
C1149 C1146 1.409 1_545 S
C1149 C1147 1.415 . S
C1150 H1140 0.930 . S
C1150 C1148 1.419 . S
C1150 C1151 1.362 . S
C1151 H1141 0.930 . S
C1151 C1144 1.409 . S
C1151 C1150 1.362 . S
H1152 C1158 0.930 . S
H1153 C1161 0.930 . S
H1154 C1162 0.930 . S
H1155 C1163 0.930 . S
H1156 C1166 0.930 . S
H1157 C1167 0.930 . S
C1158 H1152 0.930 . S
C1158 C1159 1.355 . S
C1158 C1160 1.415 . S
C1159 C1158 1.355 . S
C1159 C1161 1.419 . S
C1160 C1158 1.415 . S
C1160 C1165 1.425 . S
C1160 C1167 1.409 . S
C1161 H1153 0.930 . S
C1161 C1159 1.419 . S
C1161 C1162 1.362 . S
C1162 H1154 0.930 . S
C1162 C1161 1.362 . S
C1162 C1165 1.409 . S
C1163 H1155 0.930 . S
C1163 C1164 1.355 . S
C1163 C1165 1.415 . S
C1164 C1163 1.355 . S
C1164 C1166 1.419 . S
C1165 C1160 1.425 . S
C1165 C1162 1.409 . S
C1165 C1163 1.415 . S
C1166 H1156 0.930 . S
C1166 C1164 1.419 . S
C1166 C1167 1.362 . S
C1167 H1157 0.930 . S
C1167 C1160 1.409 . S
C1167 C1166 1.362 . S
H1168 C1174 0.930 . S
H1169 C1177 0.930 . S
H1170 C1178 0.930 1_455 S
H1171 C1179 0.930 . S
H1172 C1182 0.930 . S
H1173 C1183 0.930 . S
C1174 H1168 0.930 . S
C1174 C1175 1.355 . S
C1174 C1176 1.415 . S
C1175 C1174 1.355 . S
C1175 C1177 1.419 . S
C1176 C1174 1.415 . S
C1176 C1181 1.425 . S
C1176 C1183 1.409 . S
C1177 H1169 0.930 . S
C1177 C1175 1.419 . S
C1177 C1178 1.362 . S
C1178 H1170 0.930 1_655 S
C1178 C1177 1.362 . S
C1178 C1181 1.409 . S
C1179 H1171 0.930 . S
C1179 C1180 1.355 1_455 S
C1179 C1181 1.415 1_455 S
C1180 C1179 1.355 1_655 S
C1180 C1182 1.419 . S
C1181 C1176 1.425 . S
C1181 C1178 1.409 . S
C1181 C1179 1.415 1_655 S
C1182 H1172 0.930 . S
C1182 C1180 1.419 . S
C1182 C1183 1.362 . S
C1183 H1173 0.930 . S
C1183 C1176 1.409 . S
C1183 C1182 1.362 . S
H1184 C1190 0.930 . S
H1185 C1193 0.930 . S
H1186 C1194 0.930 . S
H1187 C1195 0.930 . S
H1188 C1198 0.930 . S
H1189 C1199 0.930 . S
C1190 H1184 0.930 . S
C1190 C1191 1.355 . S
C1190 C1192 1.415 . S
C1191 C1190 1.355 . S
C1191 C1193 1.419 . S
C1192 C1190 1.415 . S
C1192 C1197 1.425 . S
C1192 C1199 1.409 . S
C1193 H1185 0.930 . S
C1193 C1191 1.419 . S
C1193 C1194 1.362 . S
C1194 H1186 0.930 . S
C1194 C1193 1.362 . S
C1194 C1197 1.409 . S
C1195 H1187 0.930 . S
C1195 C1196 1.355 . S
C1195 C1197 1.415 . S
C1196 C1195 1.355 . S
C1196 C1198 1.419 . S
C1197 C1192 1.425 . S
C1197 C1194 1.409 . S
C1197 C1195 1.415 . S
C1198 H1188 0.930 . S
C1198 C1196 1.419 . S
C1198 C1199 1.362 . S
C1199 H1189 0.930 . S
C1199 C1192 1.409 . S
C1199 C1198 1.362 . S
H1200 C1206 0.930 . S
H1201 C1209 0.930 1_565 S
H1202 C1210 0.930 . S
H1203 C1211 0.906 1_554 S
H1204 C1214 0.930 . S
H1205 C1215 0.930 . S
C1206 H1200 0.930 . S
C1206 C1207 1.355 . S
C1206 C1208 1.415 . S
C1207 C1206 1.355 . S
C1207 C1209 1.419 . S
C1208 C1206 1.415 . S
C1208 C1213 1.425 . S
C1208 C1215 1.409 . S
C1209 H1201 0.930 1_545 S
C1209 C1207 1.419 . S
C1209 C1210 1.362 . S
C1210 H1202 0.930 . S
C1210 C1209 1.362 . S
C1210 C1213 1.409 . S
C1211 H1203 0.906 1_556 S
C1211 C1212 1.355 . S
C1211 C1213 1.415 . S
C1212 C1211 1.355 . S
C1212 C1214 1.419 . S
C1213 C1208 1.425 . S
C1213 C1210 1.409 . S
C1213 C1211 1.415 . S
C1214 H1204 0.930 . S
C1214 C1212 1.419 . S
C1214 C1215 1.362 . S
C1215 H1205 0.930 . S
C1215 C1208 1.409 . S
C1215 C1214 1.362 . S
H1216 C1222 0.930 . S
H1217 C1225 0.930 . S
H1218 C1226 0.930 . S
H1219 C1227 0.930 . S
H1220 C1230 0.930 . S
H1221 C1231 0.930 . S
C1222 H1216 0.930 . S
C1222 C1223 1.355 . S
C1222 C1224 1.415 . S
C1223 C1222 1.355 . S
C1223 C1225 1.419 . S
C1224 C1222 1.415 . S
C1224 C1229 1.425 . S
C1224 C1231 1.409 . S
C1225 H1217 0.930 . S
C1225 C1223 1.419 . S
C1225 C1226 1.362 . S
C1226 H1218 0.930 . S
C1226 C1225 1.362 . S
C1226 C1229 1.409 . S
C1227 H1219 0.930 . S
C1227 C1228 1.355 . S
C1227 C1229 1.415 . S
C1228 C1227 1.355 . S
C1228 C1230 1.419 . S
C1229 C1224 1.425 . S
C1229 C1226 1.409 . S
C1229 C1227 1.415 . S
C1230 H1220 0.930 . S
C1230 C1228 1.419 . S
C1230 C1231 1.362 . S
C1231 H1221 0.930 . S
C1231 C1224 1.409 . S
C1231 C1230 1.362 . S
H1232 C1238 0.930 . S
H1233 C1241 0.930 . S
H1234 C1242 0.930 . S
H1235 C1243 0.930 . S
H1236 C1246 0.930 . S
H1237 C1247 0.930 . S
C1238 H1232 0.930 . S
C1238 C1239 1.355 . S
C1238 C1240 1.415 . S
C1239 C1238 1.355 . S
C1239 C1241 1.419 . S
C1240 C1238 1.415 . S
C1240 C1245 1.425 . S
C1240 C1247 1.409 1_565 S
C1241 H1233 0.930 . S
C1241 C1239 1.419 . S
C1241 C1242 1.362 . S
C1242 H1234 0.930 . S
C1242 C1241 1.362 . S
C1242 C1245 1.409 . S
C1243 H1235 0.930 . S
C1243 C1244 1.355 . S
C1243 C1245 1.415 1_545 S
C1244 C1243 1.355 . S
C1244 C1246 1.419 . S
C1245 C1240 1.425 . S
C1245 C1242 1.409 . S
C1245 C1243 1.415 1_565 S
C1246 H1236 0.930 . S
C1246 C1244 1.419 . S
C1246 C1247 1.362 . S
C1247 H1237 0.930 . S
C1247 C1240 1.409 1_545 S
C1247 C1246 1.362 . S
H1248 C1254 0.930 . S
H1249 C1257 0.930 . S
H1250 C1258 0.930 . S
H1251 C1259 0.930 . S
H1252 C1262 0.930 . S
H1253 C1263 0.916 1_556 S
C1254 H1248 0.930 . S
C1254 C1255 1.355 1_556 S
C1254 C1256 1.415 1_556 S
C1255 C1254 1.355 1_554 S
C1255 C1257 1.419 . S
C1256 C1254 1.415 1_554 S
C1256 C1261 1.425 . S
C1256 C1263 1.411 . S
C1257 H1249 0.930 . S
C1257 C1255 1.419 . S
C1257 C1258 1.362 . S
C1258 H1250 0.930 . S
C1258 C1257 1.362 . S
C1258 C1261 1.409 . S
C1259 H1251 0.930 . S
C1259 C1260 1.355 . S
C1259 C1261 1.415 . S
C1260 C1259 1.355 . S
C1260 C1262 1.419 . S
C1261 C1256 1.425 . S
C1261 C1258 1.409 . S
C1261 C1259 1.415 . S
C1262 H1252 0.930 . S
C1262 C1260 1.419 . S
C1262 C1263 1.374 . S
C1263 H1253 0.916 1_554 S
C1263 C1256 1.411 . S
C1263 C1262 1.374 . S
H1264 C1270 0.930 . S
H1265 C1273 0.930 . S
H1266 C1274 0.930 . S
H1267 C1275 0.930 . S
H1268 C1278 0.930 . S
H1269 C1279 0.930 . S
C1270 H1264 0.930 . S
C1270 C1271 1.355 . S
C1270 C1272 1.415 . S
C1271 C1270 1.355 . S
C1271 C1273 1.419 . S
C1272 C1270 1.415 . S
C1272 C1277 1.425 . S
C1272 C1279 1.409 . S
C1273 H1265 0.930 . S
C1273 C1271 1.419 . S
C1273 C1274 1.362 . S
C1274 H1266 0.930 . S
C1274 C1273 1.362 . S
C1274 C1277 1.409 . S
C1275 H1267 0.930 . S
C1275 C1276 1.355 . S
C1275 C1277 1.415 . S
C1276 C1275 1.355 . S
C1276 C1278 1.419 . S
C1277 C1272 1.425 . S
C1277 C1274 1.409 . S
C1277 C1275 1.415 . S
C1278 H1268 0.930 . S
C1278 C1276 1.419 . S
C1278 C1279 1.362 . S
C1279 H1269 0.930 . S
C1279 C1272 1.409 . S
C1279 C1278 1.362 . S
H1280 C1286 0.930 . S
H1281 C1289 0.930 . S
H1282 C1290 0.930 . S
H1283 C1291 0.930 . S
H1284 C1294 0.930 . S
H1285 C1295 0.930 . S
C1286 H1280 0.930 . S
C1286 C1287 1.355 . S
C1286 C1288 1.415 . S
C1287 C1286 1.355 . S
C1287 C1289 1.419 . S
C1288 C1286 1.415 . S
C1288 C1293 1.425 . S
C1288 C1295 1.409 . S
C1289 H1281 0.930 . S
C1289 C1287 1.419 . S
C1289 C1290 1.362 . S
C1290 H1282 0.930 . S
C1290 C1289 1.362 . S
C1290 C1293 1.409 . S
C1291 H1283 0.930 . S
C1291 C1292 1.355 . S
C1291 C1293 1.415 . S
C1292 C1291 1.355 . S
C1292 C1294 1.419 . S
C1293 C1288 1.425 . S
C1293 C1290 1.409 . S
C1293 C1291 1.415 . S
C1294 H1284 0.930 . S
C1294 C1292 1.419 . S
C1294 C1295 1.362 . S
C1295 H1285 0.930 . S
C1295 C1288 1.409 . S
C1295 C1294 1.362 . S
H1296 C1302 0.930 . S
H1297 C1305 0.930 . S
H1298 C1306 0.930 . S
H1299 C1307 0.930 . S
H1300 C1310 0.930 . S
H1301 C1311 0.930 . S
C1302 H1296 0.930 . S
C1302 C1303 1.355 . S
C1302 C1304 1.415 . S
C1303 C1302 1.355 . S
C1303 C1305 1.419 . S
C1304 C1302 1.415 . S
C1304 C1309 1.425 . S
C1304 C1311 1.409 . S
C1305 H1297 0.930 . S
C1305 C1303 1.419 . S
C1305 C1306 1.362 . S
C1306 H1298 0.930 . S
C1306 C1305 1.362 . S
C1306 C1309 1.409 . S
C1307 H1299 0.930 . S
C1307 C1308 1.355 . S
C1307 C1309 1.415 . S
C1308 C1307 1.355 . S
C1308 C1310 1.419 . S
C1309 C1304 1.425 . S
C1309 C1306 1.409 . S
C1309 C1307 1.415 . S
C1310 H1300 0.930 . S
C1310 C1308 1.419 . S
C1310 C1311 1.362 . S
C1311 H1301 0.930 . S
C1311 C1304 1.409 . S
C1311 C1310 1.362 . S
H1312 C1318 0.930 . S
H1313 C1321 0.930 . S
H1314 C1322 0.930 . S
H1315 C1323 0.930 . S
H1316 C1326 0.930 . S
H1317 C1327 0.930 . S
C1318 H1312 0.930 . S
C1318 C1319 1.355 . S
C1318 C1320 1.415 . S
C1319 C1318 1.355 . S
C1319 C1321 1.419 . S
C1320 C1318 1.415 . S
C1320 C1325 1.425 . S
C1320 C1327 1.409 . S
C1321 H1313 0.930 . S
C1321 C1319 1.419 . S
C1321 C1322 1.362 . S
C1322 H1314 0.930 . S
C1322 C1321 1.362 . S
C1322 C1325 1.409 . S
C1323 H1315 0.930 . S
C1323 C1324 1.355 . S
C1323 C1325 1.415 . S
C1324 C1323 1.355 . S
C1324 C1326 1.419 . S
C1325 C1320 1.425 . S
C1325 C1322 1.409 . S
C1325 C1323 1.415 . S
C1326 H1316 0.930 . S
C1326 C1324 1.419 . S
C1326 C1327 1.362 . S
C1327 H1317 0.930 . S
C1327 C1320 1.409 . S
C1327 C1326 1.362 . S
H1328 C1334 0.930 . S
H1329 C1337 0.930 . S
H1330 C1338 0.930 . S
H1331 C1339 0.930 . S
H1332 C1342 0.930 . S
H1333 C1343 0.930 . S
C1334 H1328 0.930 . S
C1334 C1335 1.355 . S
C1334 C1336 1.415 . S
C1335 C1334 1.355 . S
C1335 C1337 1.419 . S
C1336 C1334 1.415 . S
C1336 C1341 1.425 . S
C1336 C1343 1.409 . S
C1337 H1329 0.930 . S
C1337 C1335 1.419 . S
C1337 C1338 1.362 . S
C1338 H1330 0.930 . S
C1338 C1337 1.362 . S
C1338 C1341 1.409 . S
C1339 H1331 0.930 . S
C1339 C1340 1.355 . S
C1339 C1341 1.415 . S
C1340 C1339 1.355 . S
C1340 C1342 1.419 . S
C1341 C1336 1.425 . S
C1341 C1338 1.409 . S
C1341 C1339 1.415 . S
C1342 H1332 0.930 . S
C1342 C1340 1.419 . S
C1342 C1343 1.362 . S
C1343 H1333 0.930 . S
C1343 C1336 1.409 . S
C1343 C1342 1.362 . S
H1344 C1350 0.930 . S
H1345 C1353 0.930 . S
H1346 C1354 0.930 . S
H1347 C1355 0.930 . S
H1348 C1358 0.930 . S
H1349 C1359 0.930 . S
C1350 H1344 0.930 . S
C1350 C1351 1.355 . S
C1350 C1352 1.415 . S
C1351 C1350 1.355 . S
C1351 C1353 1.419 . S
C1352 C1350 1.415 . S
C1352 C1357 1.425 . S
C1352 C1359 1.409 . S
C1353 H1345 0.930 . S
C1353 C1351 1.419 . S
C1353 C1354 1.362 . S
C1354 H1346 0.930 . S
C1354 C1353 1.362 . S
C1354 C1357 1.409 . S
C1355 H1347 0.930 . S
C1355 C1356 1.355 . S
C1355 C1357 1.415 . S
C1356 C1355 1.355 . S
C1356 C1358 1.419 . S
C1357 C1352 1.425 . S
C1357 C1354 1.409 . S
C1357 C1355 1.415 . S
C1358 H1348 0.930 . S
C1358 C1356 1.419 . S
C1358 C1359 1.362 . S
C1359 H1349 0.930 . S
C1359 C1352 1.409 . S
C1359 C1358 1.362 . S
H1360 C1366 0.930 . S
H1361 C1369 0.930 . S
H1362 C1370 0.930 . S
H1363 C1371 0.930 . S
H1364 C1374 0.930 . S
H1365 C1375 0.930 . S
C1366 H1360 0.930 . S
C1366 C1367 1.355 . S
C1366 C1368 1.415 . S
C1367 C1366 1.355 . S
C1367 C1369 1.419 . S
C1368 C1366 1.415 . S
C1368 C1373 1.425 . S
C1368 C1375 1.409 . S
C1369 H1361 0.930 . S
C1369 C1367 1.419 . S
C1369 C1370 1.362 . S
C1370 H1362 0.930 . S
C1370 C1369 1.362 . S
C1370 C1373 1.409 . S
C1371 H1363 0.930 . S
C1371 C1372 1.355 . S
C1371 C1373 1.415 . S
C1372 C1371 1.355 . S
C1372 C1374 1.419 . S
C1373 C1368 1.425 . S
C1373 C1370 1.409 . S
C1373 C1371 1.415 . S
C1374 H1364 0.930 . S
C1374 C1372 1.419 . S
C1374 C1375 1.362 . S
C1375 H1365 0.930 . S
C1375 C1368 1.409 . S
C1375 C1374 1.362 . S
H1376 C1382 0.930 . S
H1377 C1385 0.930 . S
H1378 C1386 0.930 . S
H1379 C1387 0.930 . S
H1380 C1390 0.930 . S
H1381 C1391 0.930 . S
C1382 H1376 0.930 . S
C1382 C1383 1.355 . S
C1382 C1384 1.415 . S
C1383 C1382 1.355 . S
C1383 C1385 1.419 . S
C1384 C1382 1.415 . S
C1384 C1389 1.425 . S
C1384 C1391 1.409 . S
C1385 H1377 0.930 . S
C1385 C1383 1.419 . S
C1385 C1386 1.362 . S
C1386 H1378 0.930 . S
C1386 C1385 1.362 . S
C1386 C1389 1.409 . S
C1387 H1379 0.930 . S
C1387 C1388 1.355 . S
C1387 C1389 1.415 . S
C1388 C1387 1.355 . S
C1388 C1390 1.419 . S
C1389 C1384 1.425 . S
C1389 C1386 1.409 . S
C1389 C1387 1.415 . S
C1390 H1380 0.930 . S
C1390 C1388 1.419 . S
C1390 C1391 1.362 . S
C1391 H1381 0.930 . S
C1391 C1384 1.409 . S
C1391 C1390 1.362 . S
H1392 C1398 0.930 . S
H1393 C1401 0.930 . S
H1394 C1402 0.930 . S
H1395 C1403 0.930 . S
H1396 C1406 0.930 . S
H1397 C1407 0.930 . S
C1398 H1392 0.930 . S
C1398 C1399 1.355 . S
C1398 C1400 1.415 . S
C1399 C1398 1.355 . S
C1399 C1401 1.419 . S
C1400 C1398 1.415 . S
C1400 C1405 1.425 . S
C1400 C1407 1.409 . S
C1401 H1393 0.930 . S
C1401 C1399 1.419 . S
C1401 C1402 1.362 . S
C1402 H1394 0.930 . S
C1402 C1401 1.362 . S
C1402 C1405 1.409 . S
C1403 H1395 0.930 . S
C1403 C1404 1.355 . S
C1403 C1405 1.415 . S
C1404 C1403 1.355 . S
C1404 C1406 1.419 . S
C1405 C1400 1.425 . S
C1405 C1402 1.409 . S
C1405 C1403 1.415 . S
C1406 H1396 0.930 . S
C1406 C1404 1.419 . S
C1406 C1407 1.362 . S
C1407 H1397 0.930 . S
C1407 C1400 1.409 . S
C1407 C1406 1.362 . S
H1408 C1414 0.930 . S
H1409 C1417 0.930 . S
H1410 C1418 0.930 . S
H1411 C1419 0.930 . S
H1412 C1422 0.930 . S
H1413 C1423 0.930 . S
C1414 H1408 0.930 . S
C1414 C1415 1.355 . S
C1414 C1416 1.415 . S
C1415 C1414 1.355 . S
C1415 C1417 1.419 . S
C1416 C1414 1.415 . S
C1416 C1421 1.425 . S
C1416 C1423 1.409 . S
C1417 H1409 0.930 . S
C1417 C1415 1.419 . S
C1417 C1418 1.362 . S
C1418 H1410 0.930 . S
C1418 C1417 1.362 . S
C1418 C1421 1.409 . S
C1419 H1411 0.930 . S
C1419 C1420 1.355 . S
C1419 C1421 1.415 . S
C1420 C1419 1.355 . S
C1420 C1422 1.419 . S
C1421 C1416 1.425 . S
C1421 C1418 1.409 . S
C1421 C1419 1.415 . S
C1422 H1412 0.930 . S
C1422 C1420 1.419 . S
C1422 C1423 1.362 . S
C1423 H1413 0.930 . S
C1423 C1416 1.409 . S
C1423 C1422 1.362 . S
H1424 C1430 0.930 . S
H1425 C1433 0.930 . S
H1426 C1434 0.930 . S
H1427 C1435 0.930 . S
H1428 C1438 0.930 . S
H1429 C1439 0.930 . S
C1430 H1424 0.930 . S
C1430 C1431 1.355 . S
C1430 C1432 1.415 . S
C1431 C1430 1.355 . S
C1431 C1433 1.419 . S
C1432 C1430 1.415 . S
C1432 C1437 1.425 . S
C1432 C1439 1.409 . S
C1433 H1425 0.930 . S
C1433 C1431 1.419 . S
C1433 C1434 1.362 . S
C1434 H1426 0.930 . S
C1434 C1433 1.362 . S
C1434 C1437 1.409 . S
C1435 H1427 0.930 . S
C1435 C1436 1.355 . S
C1435 C1437 1.415 . S
C1436 C1435 1.355 . S
C1436 C1438 1.419 . S
C1437 C1432 1.425 . S
C1437 C1434 1.409 . S
C1437 C1435 1.415 . S
C1438 H1428 0.930 . S
C1438 C1436 1.419 . S
C1438 C1439 1.362 . S
C1439 H1429 0.930 . S
C1439 C1432 1.409 . S
C1439 C1438 1.362 . S
H1440 C1446 0.930 . S
H1441 C1449 0.930 . S
H1442 C1450 0.930 . S
H1443 C1451 0.930 . S
H1444 C1454 0.930 . S
H1445 C1455 0.930 . S
C1446 H1440 0.930 . S
C1446 C1447 1.355 . S
C1446 C1448 1.415 . S
C1447 C1446 1.355 . S
C1447 C1449 1.419 . S
C1448 C1446 1.415 . S
C1448 C1453 1.425 . S
C1448 C1455 1.409 . S
C1449 H1441 0.930 . S
C1449 C1447 1.419 . S
C1449 C1450 1.362 . S
C1450 H1442 0.930 . S
C1450 C1449 1.362 . S
C1450 C1453 1.409 . S
C1451 H1443 0.930 . S
C1451 C1452 1.355 . S
C1451 C1453 1.415 . S
C1452 C1451 1.355 . S
C1452 C1454 1.419 . S
C1453 C1448 1.425 . S
C1453 C1450 1.409 . S
C1453 C1451 1.415 . S
C1454 H1444 0.930 . S
C1454 C1452 1.419 . S
C1454 C1455 1.362 . S
C1455 H1445 0.930 . S
C1455 C1448 1.409 . S
C1455 C1454 1.362 . S
H1456 C1462 0.945 . S
H1457 C1465 0.930 . S
H1458 C1466 0.930 . S
H1459 C1467 0.929 . S
H1460 C1470 0.930 . S
H1461 C1471 0.900 1_556 S
C1462 H1456 0.945 . S
C1462 C1463 1.355 . S
C1462 C1464 1.415 . S
C1463 C1462 1.355 . S
C1463 C1465 1.419 . S
C1464 C1462 1.415 . S
C1464 C1469 1.425 . S
C1464 C1471 1.409 . S
C1465 H1457 0.930 . S
C1465 C1463 1.419 . S
C1465 C1466 1.362 . S
C1466 H1458 0.930 . S
C1466 C1465 1.362 . S
C1466 C1469 1.409 . S
C1467 H1459 0.929 . S
C1467 C1468 1.355 1_565 S
C1467 C1469 1.415 . S
C1468 C1467 1.355 1_545 S
C1468 C1470 1.419 . S
C1469 C1464 1.425 . S
C1469 C1466 1.409 . S
C1469 C1467 1.415 . S
C1470 H1460 0.930 . S
C1470 C1468 1.419 . S
C1470 C1471 1.362 1_545 S
C1471 H1461 0.900 1_554 S
C1471 C1464 1.409 . S
C1471 C1470 1.362 1_565 S
H1472 C1478 0.930 . S
H1473 C1481 0.930 . S
H1474 C1482 0.930 . S
H1475 C1483 0.930 . S
H1476 C1486 0.930 . S
H1477 C1487 0.930 . S
C1478 H1472 0.930 . S
C1478 C1479 1.355 . S
C1478 C1480 1.415 . S
C1479 C1478 1.355 . S
C1479 C1481 1.419 . S
C1480 C1478 1.415 . S
C1480 C1485 1.425 . S
C1480 C1487 1.409 . S
C1481 H1473 0.930 . S
C1481 C1479 1.419 . S
C1481 C1482 1.362 . S
C1482 H1474 0.930 . S
C1482 C1481 1.362 . S
C1482 C1485 1.409 . S
C1483 H1475 0.930 . S
C1483 C1484 1.355 . S
C1483 C1485 1.415 . S
C1484 C1483 1.355 . S
C1484 C1486 1.419 . S
C1485 C1480 1.425 . S
C1485 C1482 1.409 . S
C1485 C1483 1.415 . S
C1486 H1476 0.930 . S
C1486 C1484 1.419 . S
C1486 C1487 1.362 . S
C1487 H1477 0.930 . S
C1487 C1480 1.409 . S
C1487 C1486 1.362 . S
H1488 C1494 0.930 . S
H1489 C1497 0.930 . S
H1490 C1498 0.930 . S
H1491 C1499 0.930 . S
H1492 C1502 0.930 . S
H1493 C1503 0.930 . S
C1494 H1488 0.930 . S
C1494 C1495 1.355 . S
C1494 C1496 1.415 . S
C1495 C1494 1.355 . S
C1495 C1497 1.419 . S
C1496 C1494 1.415 . S
C1496 C1501 1.425 . S
C1496 C1503 1.409 . S
C1497 H1489 0.930 . S
C1497 C1495 1.419 . S
C1497 C1498 1.362 . S
C1498 H1490 0.930 . S
C1498 C1497 1.362 . S
C1498 C1501 1.409 . S
C1499 H1491 0.930 . S
C1499 C1500 1.355 . S
C1499 C1501 1.415 . S
C1500 C1499 1.355 . S
C1500 C1502 1.419 1_556 S
C1501 C1496 1.425 . S
C1501 C1498 1.409 . S
C1501 C1499 1.415 . S
C1502 H1492 0.930 . S
C1502 C1500 1.419 1_554 S
C1502 C1503 1.362 1_554 S
C1503 H1493 0.930 . S
C1503 C1496 1.409 . S
C1503 C1502 1.362 1_556 S
H1504 C1510 0.930 . S
H1505 C1513 0.930 . S
H1506 C1514 0.930 . S
H1507 C1515 0.930 . S
H1508 C1518 0.930 . S
H1509 C1519 0.930 . S
C1510 H1504 0.930 . S
C1510 C1511 1.355 . S
C1510 C1512 1.415 . S
C1511 C1510 1.355 . S
C1511 C1513 1.419 . S
C1512 C1510 1.415 . S
C1512 C1517 1.425 . S
C1512 C1519 1.409 . S
C1513 H1505 0.930 . S
C1513 C1511 1.419 . S
C1513 C1514 1.362 . S
C1514 H1506 0.930 . S
C1514 C1513 1.362 . S
C1514 C1517 1.409 . S
C1515 H1507 0.930 . S
C1515 C1516 1.355 . S
C1515 C1517 1.415 . S
C1516 C1515 1.355 . S
C1516 C1518 1.419 . S
C1517 C1512 1.425 . S
C1517 C1514 1.409 . S
C1517 C1515 1.415 . S
C1518 H1508 0.930 . S
C1518 C1516 1.419 . S
C1518 C1519 1.362 . S
C1519 H1509 0.930 . S
C1519 C1512 1.409 . S
C1519 C1518 1.362 . S
H1520 C1526 0.930 . S
H1521 C1529 0.930 . S
H1522 C1530 0.930 . S
H1523 C1531 0.930 . S
H1524 C1534 0.930 . S
H1525 C1535 0.930 . S
C1526 H1520 0.930 . S
C1526 C1527 1.355 . S
C1526 C1528 1.415 . S
C1527 C1526 1.355 . S
C1527 C1529 1.419 . S
C1528 C1526 1.415 . S
C1528 C1533 1.425 . S
C1528 C1535 1.409 . S
C1529 H1521 0.930 . S
C1529 C1527 1.419 . S
C1529 C1530 1.362 . S
C1530 H1522 0.930 . S
C1530 C1529 1.362 . S
C1530 C1533 1.409 . S
C1531 H1523 0.930 . S
C1531 C1532 1.355 . S
C1531 C1533 1.415 . S
C1532 C1531 1.355 . S
C1532 C1534 1.419 . S
C1533 C1528 1.425 . S
C1533 C1530 1.409 . S
C1533 C1531 1.415 . S
C1534 H1524 0.930 . S
C1534 C1532 1.419 . S
C1534 C1535 1.362 . S
C1535 H1525 0.930 . S
C1535 C1528 1.409 . S
C1535 C1534 1.362 . S
H1536 C1542 0.930 . S
H1537 C1545 0.930 . S
H1538 C1546 0.930 . S
H1539 C1547 0.930 . S
H1540 C1550 0.930 . S
H1541 C1551 0.930 . S
C1542 H1536 0.930 . S
C1542 C1543 1.355 . S
C1542 C1544 1.415 . S
C1543 C1542 1.355 . S
C1543 C1545 1.419 . S
C1544 C1542 1.415 . S
C1544 C1549 1.425 . S
C1544 C1551 1.409 . S
C1545 H1537 0.930 . S
C1545 C1543 1.419 . S
C1545 C1546 1.362 . S
C1546 H1538 0.930 . S
C1546 C1545 1.362 . S
C1546 C1549 1.409 . S
C1547 H1539 0.930 . S
C1547 C1548 1.355 . S
C1547 C1549 1.415 . S
C1548 C1547 1.355 . S
C1548 C1550 1.419 . S
C1549 C1544 1.425 . S
C1549 C1546 1.409 . S
C1549 C1547 1.415 . S
C1550 H1540 0.930 . S
C1550 C1548 1.419 . S
C1550 C1551 1.362 . S
C1551 H1541 0.930 . S
C1551 C1544 1.409 . S
C1551 C1550 1.362 . S
H1552 C1558 0.930 . S
H1553 C1561 0.930 . S
H1554 C1562 0.930 . S
H1555 C1563 0.930 . S
H1556 C1566 0.930 . S
H1557 C1567 0.930 . S
C1558 H1552 0.930 . S
C1558 C1559 1.355 . S
C1558 C1560 1.415 . S
C1559 C1558 1.355 . S
C1559 C1561 1.419 . S
C1560 C1558 1.415 . S
C1560 C1565 1.425 . S
C1560 C1567 1.409 . S
C1561 H1553 0.930 . S
C1561 C1559 1.419 . S
C1561 C1562 1.362 . S
C1562 H1554 0.930 . S
C1562 C1561 1.362 . S
C1562 C1565 1.409 . S
C1563 H1555 0.930 . S
C1563 C1564 1.355 . S
C1563 C1565 1.415 . S
C1564 C1563 1.355 . S
C1564 C1566 1.419 . S
C1565 C1560 1.425 . S
C1565 C1562 1.409 . S
C1565 C1563 1.415 . S
C1566 H1556 0.930 . S
C1566 C1564 1.419 . S
C1566 C1567 1.362 . S
C1567 H1557 0.930 . S
C1567 C1560 1.409 . S
C1567 C1566 1.362 . S
H1568 C1574 0.930 . S
H1569 C1577 0.930 . S
H1570 C1578 0.930 . S
H1571 C1579 0.930 . S
H1572 C1582 0.930 . S
H1573 C1583 0.930 . S
C1574 H1568 0.930 . S
C1574 C1575 1.355 . S
C1574 C1576 1.415 . S
C1575 C1574 1.355 . S
C1575 C1577 1.419 . S
C1576 C1574 1.415 . S
C1576 C1581 1.425 . S
C1576 C1583 1.409 . S
C1577 H1569 0.930 . S
C1577 C1575 1.419 . S
C1577 C1578 1.362 . S
C1578 H1570 0.930 . S
C1578 C1577 1.362 . S
C1578 C1581 1.409 . S
C1579 H1571 0.930 . S
C1579 C1580 1.355 . S
C1579 C1581 1.415 . S
C1580 C1579 1.355 . S
C1580 C1582 1.419 . S
C1581 C1576 1.425 . S
C1581 C1578 1.409 . S
C1581 C1579 1.415 . S
C1582 H1572 0.930 . S
C1582 C1580 1.419 . S
C1582 C1583 1.362 . S
C1583 H1573 0.930 . S
C1583 C1576 1.409 . S
C1583 C1582 1.362 . S
H1584 C1590 0.930 . S
H1585 C1593 0.930 . S
H1586 C1594 0.930 . S
H1587 C1595 0.930 . S
H1588 C1598 0.930 . S
H1589 C1599 0.930 . S
C1590 H1584 0.930 . S
C1590 C1591 1.355 . S
C1590 C1592 1.415 . S
C1591 C1590 1.355 . S
C1591 C1593 1.419 . S
C1592 C1590 1.415 . S
C1592 C1597 1.425 . S
C1592 C1599 1.409 . S
C1593 H1585 0.930 . S
C1593 C1591 1.419 . S
C1593 C1594 1.362 . S
C1594 H1586 0.930 . S
C1594 C1593 1.362 . S
C1594 C1597 1.409 . S
C1595 H1587 0.930 . S
C1595 C1596 1.355 . S
C1595 C1597 1.415 . S
C1596 C1595 1.355 . S
C1596 C1598 1.419 . S
C1597 C1592 1.425 . S
C1597 C1594 1.409 . S
C1597 C1595 1.415 . S
C1598 H1588 0.930 . S
C1598 C1596 1.419 . S
C1598 C1599 1.362 . S
C1599 H1589 0.930 . S
C1599 C1592 1.409 . S
C1599 C1598 1.362 . S
H1600 C1606 0.930 . S
H1601 C1609 0.930 . S
H1602 C1610 0.930 . S
H1603 C1611 0.930 . S
H1604 C1614 0.930 . S
H1605 C1615 0.930 . S
C1606 H1600 0.930 . S
C1606 C1607 1.355 . S
C1606 C1608 1.415 . S
C1607 C1606 1.355 . S
C1607 C1609 1.419 . S
C1608 C1606 1.415 . S
C1608 C1613 1.425 . S
C1608 C1615 1.409 . S
C1609 H1601 0.930 . S
C1609 C1607 1.419 . S
C1609 C1610 1.362 . S
C1610 H1602 0.930 . S
C1610 C1609 1.362 . S
C1610 C1613 1.409 . S
C1611 H1603 0.930 . S
C1611 C1612 1.355 . S
C1611 C1613 1.415 . S
C1612 C1611 1.355 . S
C1612 C1614 1.419 . S
C1613 C1608 1.425 . S
C1613 C1610 1.409 . S
C1613 C1611 1.415 . S
C1614 H1604 0.930 . S
C1614 C1612 1.419 . S
C1614 C1615 1.362 . S
C1615 H1605 0.930 . S
C1615 C1608 1.409 . S
C1615 C1614 1.362 . S
H1616 C1622 0.930 . S
H1617 C1625 0.930 . S
H1618 C1626 0.930 . S
H1619 C1627 0.930 . S
H1620 C1630 0.930 . S
H1621 C1631 0.930 . S
C1622 H1616 0.930 . S
C1622 C1623 1.355 . S
C1622 C1624 1.415 . S
C1623 C1622 1.355 . S
C1623 C1625 1.419 . S
C1624 C1622 1.415 . S
C1624 C1629 1.425 . S
C1624 C1631 1.409 . S
C1625 H1617 0.930 . S
C1625 C1623 1.419 . S
C1625 C1626 1.362 . S
C1626 H1618 0.930 . S
C1626 C1625 1.362 . S
C1626 C1629 1.409 . S
C1627 H1619 0.930 . S
C1627 C1628 1.355 . S
C1627 C1629 1.415 . S
C1628 C1627 1.355 . S
C1628 C1630 1.419 . S
C1629 C1624 1.425 . S
C1629 C1626 1.409 . S
C1629 C1627 1.415 . S
C1630 H1620 0.930 . S
C1630 C1628 1.419 . S
C1630 C1631 1.362 . S
C1631 H1621 0.930 . S
C1631 C1624 1.409 . S
C1631 C1630 1.362 . S
H1632 C1638 0.930 . S
H1633 C1641 0.930 . S
H1634 C1642 0.930 . S
H1635 C1643 0.930 . S
H1636 C1646 0.930 . S
H1637 C1647 0.930 . S
C1638 H1632 0.930 . S
C1638 C1639 1.355 . S
C1638 C1640 1.415 . S
C1639 C1638 1.355 . S
C1639 C1641 1.419 . S
C1640 C1638 1.415 . S
C1640 C1645 1.425 . S
C1640 C1647 1.409 . S
C1641 H1633 0.930 . S
C1641 C1639 1.419 . S
C1641 C1642 1.362 . S
C1642 H1634 0.930 . S
C1642 C1641 1.362 . S
C1642 C1645 1.409 . S
C1643 H1635 0.930 . S
C1643 C1644 1.355 . S
C1643 C1645 1.415 . S
C1644 C1643 1.355 . S
C1644 C1646 1.419 . S
C1645 C1640 1.425 . S
C1645 C1642 1.409 . S
C1645 C1643 1.415 . S
C1646 H1636 0.930 . S
C1646 C1644 1.419 . S
C1646 C1647 1.362 . S
C1647 H1637 0.930 . S
C1647 C1640 1.409 . S
C1647 C1646 1.362 . S
H1648 C1654 0.930 . S
H1649 C1657 0.930 . S
H1650 C1658 0.930 . S
H1651 C1659 0.930 . S
H1652 C1662 0.930 . S
H1653 C1663 0.930 . S
C1654 H1648 0.930 . S
C1654 C1655 1.355 . S
C1654 C1656 1.415 . S
C1655 C1654 1.355 . S
C1655 C1657 1.419 . S
C1656 C1654 1.415 . S
C1656 C1661 1.425 . S
C1656 C1663 1.409 . S
C1657 H1649 0.930 . S
C1657 C1655 1.419 . S
C1657 C1658 1.362 . S
C1658 H1650 0.930 . S
C1658 C1657 1.362 . S
C1658 C1661 1.409 . S
C1659 H1651 0.930 . S
C1659 C1660 1.355 . S
C1659 C1661 1.415 . S
C1660 C1659 1.355 . S
C1660 C1662 1.419 . S
C1661 C1656 1.425 . S
C1661 C1658 1.409 . S
C1661 C1659 1.415 . S
C1662 H1652 0.930 . S
C1662 C1660 1.419 . S
C1662 C1663 1.362 . S
C1663 H1653 0.930 . S
C1663 C1656 1.409 . S
C1663 C1662 1.362 . S
H1664 C1670 0.930 . S
H1665 C1673 0.930 . S
H1666 C1674 0.930 . S
H1667 C1675 0.930 . S
H1668 C1678 0.930 . S
H1669 C1679 0.930 . S
C1670 H1664 0.930 . S
C1670 C1671 1.355 . S
C1670 C1672 1.415 . S
C1671 C1670 1.355 . S
C1671 C1673 1.419 . S
C1672 C1670 1.415 . S
C1672 C1677 1.425 . S
C1672 C1679 1.409 . S
C1673 H1665 0.930 . S
C1673 C1671 1.419 . S
C1673 C1674 1.362 . S
C1674 H1666 0.930 . S
C1674 C1673 1.362 . S
C1674 C1677 1.409 . S
C1675 H1667 0.930 . S
C1675 C1676 1.355 . S
C1675 C1677 1.415 . S
C1676 C1675 1.355 . S
C1676 C1678 1.419 . S
C1677 C1672 1.425 . S
C1677 C1674 1.409 . S
C1677 C1675 1.415 . S
C1678 H1668 0.930 . S
C1678 C1676 1.419 . S
C1678 C1679 1.362 . S
C1679 H1669 0.930 . S
C1679 C1672 1.409 . S
C1679 C1678 1.362 . S
H1680 C1686 0.930 . S
H1681 C1689 0.930 . S
H1682 C1690 0.930 . S
H1683 C1691 0.930 . S
H1684 C1694 0.930 . S
H1685 C1695 0.930 . S
C1686 H1680 0.930 . S
C1686 C1687 1.355 . S
C1686 C1688 1.415 . S
C1687 C1686 1.355 . S
C1687 C1689 1.419 . S
C1688 C1686 1.415 . S
C1688 C1693 1.425 . S
C1688 C1695 1.409 . S
C1689 H1681 0.930 . S
C1689 C1687 1.419 . S
C1689 C1690 1.362 . S
C1690 H1682 0.930 . S
C1690 C1689 1.362 . S
C1690 C1693 1.409 . S
C1691 H1683 0.930 . S
C1691 C1692 1.355 . S
C1691 C1693 1.415 . S
C1692 C1691 1.355 . S
C1692 C1694 1.419 . S
C1693 C1688 1.425 . S
C1693 C1690 1.409 . S
C1693 C1691 1.415 . S
C1694 H1684 0.930 . S
C1694 C1692 1.419 . S
C1694 C1695 1.362 . S
C1695 H1685 0.930 . S
C1695 C1688 1.409 . S
C1695 C1694 1.362 . S
H1696 C1702 0.930 . S
H1697 C1705 0.930 . S
H1698 C1706 0.930 . S
H1699 C1707 0.930 . S
H1700 C1710 0.930 . S
H1701 C1711 0.930 . S
C1702 H1696 0.930 . S
C1702 C1703 1.355 . S
C1702 C1704 1.415 . S
C1703 C1702 1.355 . S
C1703 C1705 1.419 . S
C1704 C1702 1.415 . S
C1704 C1709 1.425 . S
C1704 C1711 1.409 . S
C1705 H1697 0.930 . S
C1705 C1703 1.419 . S
C1705 C1706 1.362 . S
C1706 H1698 0.930 . S
C1706 C1705 1.362 . S
C1706 C1709 1.409 . S
C1707 H1699 0.930 . S
C1707 C1708 1.355 . S
C1707 C1709 1.415 . S
C1708 C1707 1.355 . S
C1708 C1710 1.419 . S
C1709 C1704 1.425 . S
C1709 C1706 1.409 . S
C1709 C1707 1.415 . S
C1710 H1700 0.930 . S
C1710 C1708 1.419 . S
C1710 C1711 1.362 . S
C1711 H1701 0.930 . S
C1711 C1704 1.409 . S
C1711 C1710 1.362 . S
H1712 C1718 0.930 . S
H1713 C1721 0.930 . S
H1714 C1722 0.930 . S
H1715 C1723 0.930 . S
H1716 C1726 0.930 . S
H1717 C1727 0.930 . S
C1718 H1712 0.930 . S
C1718 C1719 1.355 . S
C1718 C1720 1.415 . S
C1719 C1718 1.355 . S
C1719 C1721 1.419 . S
C1720 C1718 1.415 . S
C1720 C1725 1.425 . S
C1720 C1727 1.409 . S
C1721 H1713 0.930 . S
C1721 C1719 1.419 . S
C1721 C1722 1.362 . S
C1722 H1714 0.930 . S
C1722 C1721 1.362 . S
C1722 C1725 1.409 . S
C1723 H1715 0.930 . S
C1723 C1724 1.355 . S
C1723 C1725 1.415 . S
C1724 C1723 1.355 . S
C1724 C1726 1.419 . S
C1725 C1720 1.425 . S
C1725 C1722 1.409 . S
C1725 C1723 1.415 . S
C1726 H1716 0.930 . S
C1726 C1724 1.419 . S
C1726 C1727 1.362 . S
C1727 H1717 0.930 . S
C1727 C1720 1.409 . S
C1727 C1726 1.362 . S
H1728 C1734 0.930 . S
H1729 C1737 0.930 . S
H1730 C1738 0.930 . S
H1731 C1739 0.930 . S
H1732 C1742 0.930 . S
H1733 C1743 0.930 . S
C1734 H1728 0.930 . S
C1734 C1735 1.355 . S
C1734 C1736 1.415 . S
C1735 C1734 1.355 . S
C1735 C1737 1.419 . S
C1736 C1734 1.415 . S
C1736 C1741 1.425 . S
C1736 C1743 1.409 . S
C1737 H1729 0.930 . S
C1737 C1735 1.419 . S
C1737 C1738 1.362 . S
C1738 H1730 0.930 . S
C1738 C1737 1.362 . S
C1738 C1741 1.409 . S
C1739 H1731 0.930 . S
C1739 C1740 1.355 . S
C1739 C1741 1.415 . S
C1740 C1739 1.355 . S
C1740 C1742 1.419 . S
C1741 C1736 1.425 . S
C1741 C1738 1.409 . S
C1741 C1739 1.415 . S
C1742 H1732 0.930 . S
C1742 C1740 1.419 . S
C1742 C1743 1.362 . S
C1743 H1733 0.930 . S
C1743 C1736 1.409 . S
C1743 C1742 1.362 . S
H1744 C1750 0.930 . S
H1745 C1753 0.930 . S
H1746 C1754 0.930 . S
H1747 C1755 0.930 . S
H1748 C1758 0.930 . S
H1749 C1759 0.930 . S
C1750 H1744 0.930 . S
C1750 C1751 1.355 . S
C1750 C1752 1.415 . S
C1751 C1750 1.355 . S
C1751 C1753 1.419 . S
C1752 C1750 1.415 . S
C1752 C1757 1.425 . S
C1752 C1759 1.409 . S
C1753 H1745 0.930 . S
C1753 C1751 1.419 . S
C1753 C1754 1.362 . S
C1754 H1746 0.930 . S
C1754 C1753 1.362 . S
C1754 C1757 1.409 . S
C1755 H1747 0.930 . S
C1755 C1756 1.355 . S
C1755 C1757 1.415 . S
C1756 C1755 1.355 . S
C1756 C1758 1.419 . S
C1757 C1752 1.425 . S
C1757 C1754 1.409 . S
C1757 C1755 1.415 . S
C1758 H1748 0.930 . S
C1758 C1756 1.419 . S
C1758 C1759 1.362 . S
C1759 H1749 0.930 . S
C1759 C1752 1.409 . S
C1759 C1758 1.362 . S
H1760 C1766 0.930 . S
H1761 C1769 0.930 . S
H1762 C1770 0.930 . S
H1763 C1771 0.930 . S
H1764 C1774 0.930 . S
H1765 C1775 0.930 . S
C1766 H1760 0.930 . S
C1766 C1767 1.355 . S
C1766 C1768 1.415 . S
C1767 C1766 1.355 . S
C1767 C1769 1.419 . S
C1768 C1766 1.415 . S
C1768 C1773 1.425 . S
C1768 C1775 1.409 . S
C1769 H1761 0.930 . S
C1769 C1767 1.419 . S
C1769 C1770 1.362 . S
C1770 H1762 0.930 . S
C1770 C1769 1.362 . S
C1770 C1773 1.409 . S
C1771 H1763 0.930 . S
C1771 C1772 1.355 . S
C1771 C1773 1.415 . S
C1772 C1771 1.355 . S
C1772 C1774 1.419 . S
C1773 C1768 1.425 . S
C1773 C1770 1.409 . S
C1773 C1771 1.415 . S
C1774 H1764 0.930 . S
C1774 C1772 1.419 . S
C1774 C1775 1.362 . S
C1775 H1765 0.930 . S
C1775 C1768 1.409 . S
C1775 C1774 1.362 . S
H1776 C1782 0.930 . S
H1777 C1785 0.930 . S
H1778 C1786 0.930 . S
H1779 C1787 0.930 . S
H1780 C1790 0.930 . S
H1781 C1791 0.930 . S
C1782 H1776 0.930 . S
C1782 C1783 1.355 . S
C1782 C1784 1.415 . S
C1783 C1782 1.355 . S
C1783 C1785 1.419 . S
C1784 C1782 1.415 . S
C1784 C1789 1.425 1_556 S
C1784 C1791 1.409 . S
C1785 H1777 0.930 . S
C1785 C1783 1.419 . S
C1785 C1786 1.362 1_556 S
C1786 H1778 0.930 . S
C1786 C1785 1.362 1_554 S
C1786 C1789 1.409 . S
C1787 H1779 0.930 . S
C1787 C1788 1.355 . S
C1787 C1789 1.415 . S
C1788 C1787 1.355 . S
C1788 C1790 1.419 1_554 S
C1789 C1784 1.425 1_554 S
C1789 C1786 1.409 . S
C1789 C1787 1.415 . S
C1790 H1780 0.930 . S
C1790 C1788 1.419 1_556 S
C1790 C1791 1.362 . S
C1791 H1781 0.930 . S
C1791 C1784 1.409 . S
C1791 C1790 1.362 . S
H1792 C1798 0.930 . S
H1793 C1801 0.930 . S
H1794 C1802 0.930 . S
H1795 C1803 0.930 . S
H1796 C1806 0.930 . S
H1797 C1807 0.930 . S
C1798 H1792 0.930 . S
C1798 C1799 1.355 . S
C1798 C1800 1.415 . S
C1799 C1798 1.355 . S
C1799 C1801 1.419 . S
C1800 C1798 1.415 . S
C1800 C1805 1.425 . S
C1800 C1807 1.409 . S
C1801 H1793 0.930 . S
C1801 C1799 1.419 . S
C1801 C1802 1.362 . S
C1802 H1794 0.930 . S
C1802 C1801 1.362 . S
C1802 C1805 1.409 . S
C1803 H1795 0.930 . S
C1803 C1804 1.355 . S
C1803 C1805 1.415 . S
C1804 C1803 1.355 . S
C1804 C1806 1.419 . S
C1805 C1800 1.425 . S
C1805 C1802 1.409 . S
C1805 C1803 1.415 . S
C1806 H1796 0.930 . S
C1806 C1804 1.419 . S
C1806 C1807 1.362 . S
C1807 H1797 0.930 . S
C1807 C1800 1.409 . S
C1807 C1806 1.362 . S
H1808 C1814 0.930 . S
H1809 C1817 0.930 . S
H1810 C1818 0.930 . S
H1811 C1819 0.930 . S
H1812 C1822 0.930 . S
H1813 C1823 0.930 . S
C1814 H1808 0.930 . S
C1814 C1815 1.355 . S
C1814 C1816 1.415 . S
C1815 C1814 1.355 . S
C1815 C1817 1.419 . S
C1816 C1814 1.415 . S
C1816 C1821 1.425 . S
C1816 C1823 1.409 . S
C1817 H1809 0.930 . S
C1817 C1815 1.419 . S
C1817 C1818 1.362 . S
C1818 H1810 0.930 . S
C1818 C1817 1.362 . S
C1818 C1821 1.409 . S
C1819 H1811 0.930 . S
C1819 C1820 1.355 . S
C1819 C1821 1.415 . S
C1820 C1819 1.355 . S
C1820 C1822 1.419 . S
C1821 C1816 1.425 . S
C1821 C1818 1.409 . S
C1821 C1819 1.415 . S
C1822 H1812 0.930 . S
C1822 C1820 1.419 . S
C1822 C1823 1.362 . S
C1823 H1813 0.930 . S
C1823 C1816 1.409 . S
C1823 C1822 1.362 . S
H1824 C1830 0.930 . S
H1825 C1833 0.930 . S
H1826 C1834 0.930 . S
H1827 C1835 0.930 . S
H1828 C1838 0.930 . S
H1829 C1839 0.930 1_455 S
C1830 H1824 0.930 . S
C1830 C1831 1.355 . S
C1830 C1832 1.415 1_455 S
C1831 C1830 1.355 . S
C1831 C1833 1.434 . S
C1832 C1830 1.415 1_655 S
C1832 C1837 1.425 . S
C1832 C1839 1.409 . S
C1833 H1825 0.930 . S
C1833 C1831 1.434 . S
C1833 C1834 1.347 1_455 S
C1834 H1826 0.930 . S
C1834 C1833 1.347 1_655 S
C1834 C1837 1.409 . S
C1835 H1827 0.930 . S
C1835 C1836 1.355 . S
C1835 C1837 1.415 . S
C1836 C1835 1.355 . S
C1836 C1838 1.419 . S
C1837 C1832 1.425 . S
C1837 C1834 1.409 . S
C1837 C1835 1.415 . S
C1838 H1828 0.930 . S
C1838 C1836 1.419 . S
C1838 C1839 1.362 . S
C1839 H1829 0.930 1_655 S
C1839 C1832 1.409 . S
C1839 C1838 1.362 . S
H1840 C1846 0.930 . S
H1841 C1849 0.930 . S
H1842 C1850 0.930 . S
H1843 C1851 0.930 1_655 S
H1844 C1854 0.930 . S
H1845 C1855 0.930 . S
C1846 H1840 0.930 . S
C1846 C1847 1.355 1_455 S
C1846 C1848 1.415 . S
C1847 C1846 1.355 1_655 S
C1847 C1849 1.419 . S
C1848 C1846 1.415 . S
C1848 C1853 1.417 1_455 S
C1848 C1855 1.409 . S
C1849 H1841 0.930 . S
C1849 C1847 1.419 . S
C1849 C1850 1.362 . S
C1850 H1842 0.930 . S
C1850 C1849 1.362 . S
C1850 C1853 1.428 . S
C1851 H1843 0.930 1_455 S
C1851 C1852 1.355 . S
C1851 C1853 1.404 1_455 S
C1852 C1851 1.355 . S
C1852 C1854 1.419 . S
C1853 C1848 1.417 1_655 S
C1853 C1850 1.428 . S
C1853 C1851 1.404 1_655 S
C1854 H1844 0.930 . S
C1854 C1852 1.419 . S
C1854 C1855 1.362 . S
C1855 H1845 0.930 . S
C1855 C1848 1.409 . S
C1855 C1854 1.362 . S
H1856 C1862 0.930 . S
H1857 C1865 0.930 . S
H1858 C1866 0.930 . S
H1859 C1867 0.930 . S
H1860 C1870 0.930 . S
H1861 C1871 0.930 . S
C1862 H1856 0.930 . S
C1862 C1863 1.355 . S
C1862 C1864 1.415 . S
C1863 C1862 1.355 . S
C1863 C1865 1.419 . S
C1864 C1862 1.415 . S
C1864 C1869 1.425 . S
C1864 C1871 1.409 . S
C1865 H1857 0.930 . S
C1865 C1863 1.419 . S
C1865 C1866 1.362 . S
C1866 H1858 0.930 . S
C1866 C1865 1.362 . S
C1866 C1869 1.409 . S
C1867 H1859 0.930 . S
C1867 C1868 1.355 . S
C1867 C1869 1.415 . S
C1868 C1867 1.355 . S
C1868 C1870 1.419 . S
C1869 C1864 1.425 . S
C1869 C1866 1.409 . S
C1869 C1867 1.415 . S
C1870 H1860 0.930 . S
C1870 C1868 1.419 . S
C1870 C1871 1.362 . S
C1871 H1861 0.930 . S
C1871 C1864 1.409 . S
C1871 C1870 1.362 . S
H1872 C1878 0.930 . S
H1873 C1881 0.930 . S
H1874 C1882 0.930 . S
H1875 C1883 0.930 . S
H1876 C1886 0.930 . S
H1877 C1887 0.930 . S
C1878 H1872 0.930 . S
C1878 C1879 1.355 . S
C1878 C1880 1.415 . S
C1879 C1878 1.355 . S
C1879 C1881 1.419 . S
C1880 C1878 1.415 . S
C1880 C1885 1.425 . S
C1880 C1887 1.409 . S
C1881 H1873 0.930 . S
C1881 C1879 1.419 . S
C1881 C1882 1.362 . S
C1882 H1874 0.930 . S
C1882 C1881 1.362 . S
C1882 C1885 1.409 . S
C1883 H1875 0.930 . S
C1883 C1884 1.355 . S
C1883 C1885 1.415 . S
C1884 C1883 1.355 . S
C1884 C1886 1.419 . S
C1885 C1880 1.425 . S
C1885 C1882 1.409 . S
C1885 C1883 1.415 . S
C1886 H1876 0.930 . S
C1886 C1884 1.419 . S
C1886 C1887 1.362 . S
C1887 H1877 0.930 . S
C1887 C1880 1.409 . S
C1887 C1886 1.362 . S
H1888 C1894 0.930 1_554 S
H1889 C1897 0.930 . S
H1890 C1898 0.930 . S
H1891 C1899 0.930 . S
H1892 C1902 0.930 . S
H1893 C1903 0.930 . S
C1894 H1888 0.930 1_556 S
C1894 C1895 1.355 . S
C1894 C1896 1.415 . S
C1895 C1894 1.355 . S
C1895 C1897 1.419 . S
C1896 C1894 1.415 . S
C1896 C1901 1.425 . S
C1896 C1903 1.409 . S
C1897 H1889 0.930 . S
C1897 C1895 1.419 . S
C1897 C1898 1.362 . S
C1898 H1890 0.930 . S
C1898 C1897 1.362 . S
C1898 C1901 1.409 . S
C1899 H1891 0.930 . S
C1899 C1900 1.355 . S
C1899 C1901 1.415 . S
C1900 C1899 1.355 . S
C1900 C1902 1.419 . S
C1901 C1896 1.425 . S
C1901 C1898 1.409 . S
C1901 C1899 1.415 . S
C1902 H1892 0.930 . S
C1902 C1900 1.419 . S
C1902 C1903 1.362 . S
C1903 H1893 0.930 . S
C1903 C1896 1.409 . S
C1903 C1902 1.362 . S
H1904 C1910 0.930 . S
H1905 C1913 0.930 . S
H1906 C1914 0.930 . S
H1907 C1915 0.930 . S
H1908 C1918 0.930 . S
H1909 C1919 0.930 . S
C1910 H1904 0.930 . S
C1910 C1911 1.355 . S
C1910 C1912 1.415 . S
C1911 C1910 1.355 . S
C1911 C1913 1.419 . S
C1912 C1910 1.415 . S
C1912 C1917 1.425 . S
C1912 C1919 1.409 . S
C1913 H1905 0.930 . S
C1913 C1911 1.419 . S
C1913 C1914 1.362 . S
C1914 H1906 0.930 . S
C1914 C1913 1.362 . S
C1914 C1917 1.409 . S
C1915 H1907 0.930 . S
C1915 C1916 1.355 . S
C1915 C1917 1.415 . S
C1916 C1915 1.355 . S
C1916 C1918 1.419 . S
C1917 C1912 1.425 . S
C1917 C1914 1.409 . S
C1917 C1915 1.415 . S
C1918 H1908 0.930 . S
C1918 C1916 1.419 . S
C1918 C1919 1.362 . S
C1919 H1909 0.930 . S
C1919 C1912 1.409 . S
C1919 C1918 1.362 . S
H1920 C1926 0.930 . S
H1921 C1929 0.930 . S
H1922 C1930 0.930 . S
H1923 C1931 0.930 . S
H1924 C1934 0.930 . S
H1925 C1935 0.930 . S
C1926 H1920 0.930 . S
C1926 C1927 1.355 . S
C1926 C1928 1.415 . S
C1927 C1926 1.355 . S
C1927 C1929 1.419 . S
C1928 C1926 1.415 . S
C1928 C1933 1.425 . S
C1928 C1935 1.409 . S
C1929 H1921 0.930 . S
C1929 C1927 1.419 . S
C1929 C1930 1.362 . S
C1930 H1922 0.930 . S
C1930 C1929 1.362 . S
C1930 C1933 1.409 . S
C1931 H1923 0.930 . S
C1931 C1932 1.355 . S
C1931 C1933 1.415 . S
C1932 C1931 1.355 . S
C1932 C1934 1.419 . S
C1933 C1928 1.425 . S
C1933 C1930 1.409 . S
C1933 C1931 1.415 . S
C1934 H1924 0.930 . S
C1934 C1932 1.419 . S
C1934 C1935 1.362 . S
C1935 H1925 0.930 . S
C1935 C1928 1.409 . S
C1935 C1934 1.362 . S
H1936 C1942 0.930 . S
H1937 C1945 0.930 . S
H1938 C1946 0.930 . S
H1939 C1947 0.930 . S
H1940 C1950 0.930 . S
H1941 C1951 0.930 . S
C1942 H1936 0.930 . S
C1942 C1943 1.355 . S
C1942 C1944 1.415 . S
C1943 C1942 1.355 . S
C1943 C1945 1.419 . S
C1944 C1942 1.415 . S
C1944 C1949 1.425 . S
C1944 C1951 1.409 . S
C1945 H1937 0.930 . S
C1945 C1943 1.419 . S
C1945 C1946 1.362 . S
C1946 H1938 0.930 . S
C1946 C1945 1.362 . S
C1946 C1949 1.409 . S
C1947 H1939 0.930 . S
C1947 C1948 1.355 . S
C1947 C1949 1.415 . S
C1948 C1947 1.355 . S
C1948 C1950 1.419 . S
C1949 C1944 1.425 . S
C1949 C1946 1.409 . S
C1949 C1947 1.415 . S
C1950 H1940 0.930 . S
C1950 C1948 1.419 . S
C1950 C1951 1.362 . S
C1951 H1941 0.930 . S
C1951 C1944 1.409 . S
C1951 C1950 1.362 . S
H1952 C1958 0.930 . S
H1953 C1961 0.930 . S
H1954 C1962 0.930 . S
H1955 C1963 0.930 . S
H1956 C1966 0.930 . S
H1957 C1967 0.930 . S
C1958 H1952 0.930 . S
C1958 C1959 1.355 . S
C1958 C1960 1.415 . S
C1959 C1958 1.355 . S
C1959 C1961 1.419 . S
C1960 C1958 1.415 . S
C1960 C1965 1.425 . S
C1960 C1967 1.409 . S
C1961 H1953 0.930 . S
C1961 C1959 1.419 . S
C1961 C1962 1.362 . S
C1962 H1954 0.930 . S
C1962 C1961 1.362 . S
C1962 C1965 1.409 . S
C1963 H1955 0.930 . S
C1963 C1964 1.355 . S
C1963 C1965 1.415 . S
C1964 C1963 1.355 . S
C1964 C1966 1.419 . S
C1965 C1960 1.425 . S
C1965 C1962 1.409 . S
C1965 C1963 1.415 . S
C1966 H1956 0.930 . S
C1966 C1964 1.419 . S
C1966 C1967 1.362 . S
C1967 H1957 0.930 . S
C1967 C1960 1.409 . S
C1967 C1966 1.362 . S
H1968 C1974 0.930 . S
H1969 C1977 0.930 . S
H1970 C1978 0.930 . S
H1971 C1979 0.930 . S
H1972 C1982 0.930 . S
H1973 C1983 0.930 . S
C1974 H1968 0.930 . S
C1974 C1975 1.355 . S
C1974 C1976 1.415 . S
C1975 C1974 1.355 . S
C1975 C1977 1.419 . S
C1976 C1974 1.415 . S
C1976 C1981 1.425 . S
C1976 C1983 1.409 . S
C1977 H1969 0.930 . S
C1977 C1975 1.419 . S
C1977 C1978 1.362 . S
C1978 H1970 0.930 . S
C1978 C1977 1.362 . S
C1978 C1981 1.409 . S
C1979 H1971 0.930 . S
C1979 C1980 1.355 . S
C1979 C1981 1.415 . S
C1980 C1979 1.355 . S
C1980 C1982 1.419 . S
C1981 C1976 1.425 . S
C1981 C1978 1.409 . S
C1981 C1979 1.415 . S
C1982 H1972 0.930 . S
C1982 C1980 1.419 . S
C1982 C1983 1.362 . S
C1983 H1973 0.930 . S
C1983 C1976 1.409 . S
C1983 C1982 1.362 . S
H1984 C1990 0.930 . S
H1985 C1993 0.930 . S
H1986 C1994 0.930 . S
H1987 C1995 0.930 . S
H1988 C1998 0.930 . S
H1989 C1999 0.930 . S
C1990 H1984 0.930 . S
C1990 C1991 1.355 . S
C1990 C1992 1.415 . S
C1991 C1990 1.355 . S
C1991 C1993 1.419 . S
C1992 C1990 1.415 . S
C1992 C1997 1.425 . S
C1992 C1999 1.409 . S
C1993 H1985 0.930 . S
C1993 C1991 1.419 . S
C1993 C1994 1.362 . S
C1994 H1986 0.930 . S
C1994 C1993 1.362 . S
C1994 C1997 1.409 . S
C1995 H1987 0.930 . S
C1995 C1996 1.355 . S
C1995 C1997 1.415 . S
C1996 C1995 1.355 . S
C1996 C1998 1.419 . S
C1997 C1992 1.425 . S
C1997 C1994 1.409 . S
C1997 C1995 1.415 . S
C1998 H1988 0.930 . S
C1998 C1996 1.419 . S
C1998 C1999 1.362 . S
C1999 H1989 0.930 . S
C1999 C1992 1.409 . S
C1999 C1998 1.362 . S
H2000 C2006 0.930 . S
H2001 C2009 0.930 . S
H2002 C2010 0.930 . S
H2003 C2011 0.930 . S
H2004 C2014 0.930 . S
H2005 C2015 0.930 . S
C2006 H2000 0.930 . S
C2006 C2007 1.355 . S
C2006 C2008 1.415 . S
C2007 C2006 1.355 . S
C2007 C2009 1.419 . S
C2008 C2006 1.415 . S
C2008 C2013 1.425 . S
C2008 C2015 1.409 . S
C2009 H2001 0.930 . S
C2009 C2007 1.419 . S
C2009 C2010 1.362 . S
C2010 H2002 0.930 . S
C2010 C2009 1.362 . S
C2010 C2013 1.409 . S
C2011 H2003 0.930 . S
C2011 C2012 1.355 . S
C2011 C2013 1.415 . S
C2012 C2011 1.355 . S
C2012 C2014 1.419 . S
C2013 C2008 1.425 . S
C2013 C2010 1.409 . S
C2013 C2011 1.415 . S
C2014 H2004 0.930 . S
C2014 C2012 1.419 . S
C2014 C2015 1.362 . S
C2015 H2005 0.930 . S
C2015 C2008 1.409 . S
C2015 C2014 1.362 . S
H2016 C2022 0.930 . S
H2017 C2025 0.930 . S
H2018 C2026 0.930 . S
H2019 C2027 0.930 . S
H2020 C2030 0.930 . S
H2021 C2031 0.930 . S
C2022 H2016 0.930 . S
C2022 C2023 1.355 . S
C2022 C2024 1.415 . S
C2023 C2022 1.355 . S
C2023 C2025 1.419 . S
C2024 C2022 1.415 . S
C2024 C2029 1.425 . S
C2024 C2031 1.409 . S
C2025 H2017 0.930 . S
C2025 C2023 1.419 . S
C2025 C2026 1.362 . S
C2026 H2018 0.930 . S
C2026 C2025 1.362 . S
C2026 C2029 1.409 . S
C2027 H2019 0.930 . S
C2027 C2028 1.355 . S
C2027 C2029 1.415 . S
C2028 C2027 1.355 . S
C2028 C2030 1.419 . S
C2029 C2024 1.425 . S
C2029 C2026 1.409 . S
C2029 C2027 1.415 . S
C2030 H2020 0.930 . S
C2030 C2028 1.419 . S
C2030 C2031 1.362 . S
C2031 H2021 0.930 . S
C2031 C2024 1.409 . S
C2031 C2030 1.362 . S
H2032 C2038 0.930 . S
H2033 C2041 0.930 . S
H2034 C2042 0.930 . S
H2035 C2043 0.930 . S
H2036 C2046 0.930 . S
H2037 C2047 0.930 . S
C2038 H2032 0.930 . S
C2038 C2039 1.355 . S
C2038 C2040 1.415 . S
C2039 C2038 1.355 . S
C2039 C2041 1.419 . S
C2040 C2038 1.415 . S
C2040 C2045 1.425 . S
C2040 C2047 1.409 . S
C2041 H2033 0.930 . S
C2041 C2039 1.419 . S
C2041 C2042 1.362 . S
C2042 H2034 0.930 . S
C2042 C2041 1.362 . S
C2042 C2045 1.409 . S
C2043 H2035 0.930 . S
C2043 C2044 1.355 . S
C2043 C2045 1.415 . S
C2044 C2043 1.355 . S
C2044 C2046 1.419 . S
C2045 C2040 1.425 . S
C2045 C2042 1.409 . S
C2045 C2043 1.415 . S
C2046 H2036 0.930 . S
C2046 C2044 1.419 . S
C2046 C2047 1.362 . S
C2047 H2037 0.930 . S
C2047 C2040 1.409 . S
C2047 C2046 1.362 . S
H2048 C2054 0.930 . S
H2049 C2057 0.930 . S
H2050 C2058 0.930 1_545 S
H2051 C2059 0.930 . S
H2052 C2062 0.930 . S
H2053 C2063 0.930 . S
C2054 H2048 0.930 . S
C2054 C2055 1.355 . S
C2054 C2056 1.415 . S
C2055 C2054 1.355 . S
C2055 C2057 1.419 . S
C2056 C2054 1.415 . S
C2056 C2061 1.425 . S
C2056 C2063 1.409 . S
C2057 H2049 0.930 . S
C2057 C2055 1.419 . S
C2057 C2058 1.362 . S
C2058 H2050 0.930 1_565 S
C2058 C2057 1.362 . S
C2058 C2061 1.409 . S
C2059 H2051 0.930 . S
C2059 C2060 1.355 . S
C2059 C2061 1.415 1_545 S
C2060 C2059 1.355 . S
C2060 C2062 1.419 1_545 S
C2061 C2056 1.425 . S
C2061 C2058 1.409 . S
C2061 C2059 1.415 1_565 S
C2062 H2052 0.930 . S
C2062 C2060 1.419 1_565 S
C2062 C2063 1.362 . S
C2063 H2053 0.930 . S
C2063 C2056 1.409 . S
C2063 C2062 1.362 . S
H2064 C2070 0.930 . S
H2065 C2073 0.930 . S
H2066 C2074 0.930 . S
H2067 C2075 0.930 . S
H2068 C2078 0.930 . S
H2069 C2079 0.930 . S
C2070 H2064 0.930 . S
C2070 C2071 1.355 . S
C2070 C2072 1.415 . S
C2071 C2070 1.355 . S
C2071 C2073 1.419 . S
C2072 C2070 1.415 . S
C2072 C2077 1.425 . S
C2072 C2079 1.409 . S
C2073 H2065 0.930 . S
C2073 C2071 1.419 . S
C2073 C2074 1.362 . S
C2074 H2066 0.930 . S
C2074 C2073 1.362 . S
C2074 C2077 1.409 . S
C2075 H2067 0.930 . S
C2075 C2076 1.355 . S
C2075 C2077 1.415 . S
C2076 C2075 1.355 . S
C2076 C2078 1.419 . S
C2077 C2072 1.425 . S
C2077 C2074 1.409 . S
C2077 C2075 1.415 . S
C2078 H2068 0.930 . S
C2078 C2076 1.419 . S
C2078 C2079 1.362 . S
C2079 H2069 0.930 . S
C2079 C2072 1.409 . S
C2079 C2078 1.362 . S
H2080 C2086 0.930 . S
H2081 C2089 0.930 1_556 S
H2082 C2090 0.930 . S
H2083 C2091 0.930 . S
H2084 C2094 0.930 . S
H2085 C2095 0.930 . S
C2086 H2080 0.930 . S
C2086 C2087 1.355 . S
C2086 C2088 1.415 . S
C2087 C2086 1.355 . S
C2087 C2089 1.419 . S
C2088 C2086 1.415 . S
C2088 C2093 1.425 . S
C2088 C2095 1.409 . S
C2089 H2081 0.930 1_554 S
C2089 C2087 1.419 . S
C2089 C2090 1.362 . S
C2090 H2082 0.930 . S
C2090 C2089 1.362 . S
C2090 C2093 1.409 . S
C2091 H2083 0.930 . S
C2091 C2092 1.355 . S
C2091 C2093 1.415 . S
C2092 C2091 1.355 . S
C2092 C2094 1.419 . S
C2093 C2088 1.425 . S
C2093 C2090 1.409 . S
C2093 C2091 1.415 . S
C2094 H2084 0.930 . S
C2094 C2092 1.419 . S
C2094 C2095 1.362 . S
C2095 H2085 0.930 . S
C2095 C2088 1.409 . S
C2095 C2094 1.362 . S
H2096 C2102 0.930 . S
H2097 C2105 0.930 . S
H2098 C2106 0.930 . S
H2099 C2107 0.930 . S
H2100 C2110 0.930 . S
H2101 C2111 0.930 . S
C2102 H2096 0.930 . S
C2102 C2103 1.355 . S
C2102 C2104 1.415 . S
C2103 C2102 1.355 . S
C2103 C2105 1.419 . S
C2104 C2102 1.415 . S
C2104 C2109 1.425 . S
C2104 C2111 1.409 . S
C2105 H2097 0.930 . S
C2105 C2103 1.419 . S
C2105 C2106 1.362 . S
C2106 H2098 0.930 . S
C2106 C2105 1.362 . S
C2106 C2109 1.409 . S
C2107 H2099 0.930 . S
C2107 C2108 1.355 . S
C2107 C2109 1.415 . S
C2108 C2107 1.355 . S
C2108 C2110 1.419 . S
C2109 C2104 1.425 . S
C2109 C2106 1.409 . S
C2109 C2107 1.415 . S
C2110 H2100 0.930 . S
C2110 C2108 1.419 . S
C2110 C2111 1.362 . S
C2111 H2101 0.930 . S
C2111 C2104 1.409 . S
C2111 C2110 1.362 . S
H2112 C2118 0.930 . S
H2113 C2121 0.930 . S
H2114 C2122 0.930 . S
H2115 C2123 0.930 . S
H2116 C2126 0.930 . S
H2117 C2127 0.930 . S
C2118 H2112 0.930 . S
C2118 C2119 1.355 . S
C2118 C2120 1.415 . S
C2119 C2118 1.355 . S
C2119 C2121 1.419 . S
C2120 C2118 1.415 . S
C2120 C2125 1.425 . S
C2120 C2127 1.409 . S
C2121 H2113 0.930 . S
C2121 C2119 1.419 . S
C2121 C2122 1.362 . S
C2122 H2114 0.930 . S
C2122 C2121 1.362 . S
C2122 C2125 1.409 . S
C2123 H2115 0.930 . S
C2123 C2124 1.394 . S
C2123 C2125 1.415 . S
C2124 C2123 1.394 . S
C2124 C2126 1.396 1_545 S
C2125 C2120 1.425 . S
C2125 C2122 1.409 . S
C2125 C2123 1.415 . S
C2126 H2116 0.930 . S
C2126 C2124 1.396 1_565 S
C2126 C2127 1.362 1_565 S
C2127 H2117 0.930 . S
C2127 C2120 1.409 . S
C2127 C2126 1.362 1_545 S
H2128 C2134 0.930 . S
H2129 C2137 0.930 . S
H2130 C2138 0.930 . S
H2131 C2139 0.930 . S
H2132 C2142 0.930 . S
H2133 C2143 0.930 . S
C2134 H2128 0.930 . S
C2134 C2135 1.355 . S
C2134 C2136 1.415 . S
C2135 C2134 1.355 . S
C2135 C2137 1.419 . S
C2136 C2134 1.415 . S
C2136 C2141 1.425 . S
C2136 C2143 1.409 . S
C2137 H2129 0.930 . S
C2137 C2135 1.419 . S
C2137 C2138 1.362 . S
C2138 H2130 0.930 . S
C2138 C2137 1.362 . S
C2138 C2141 1.409 . S
C2139 H2131 0.930 . S
C2139 C2140 1.355 . S
C2139 C2141 1.415 . S
C2140 C2139 1.355 . S
C2140 C2142 1.419 . S
C2141 C2136 1.425 . S
C2141 C2138 1.409 . S
C2141 C2139 1.415 . S
C2142 H2132 0.930 . S
C2142 C2140 1.419 . S
C2142 C2143 1.362 . S
C2143 H2133 0.930 . S
C2143 C2136 1.409 . S
C2143 C2142 1.362 . S
H2144 C2150 0.930 . S
H2145 C2153 0.930 . S
H2146 C2154 0.930 . S
H2147 C2155 0.930 . S
H2148 C2158 0.930 . S
H2149 C2159 0.930 . S
C2150 H2144 0.930 . S
C2150 C2151 1.355 . S
C2150 C2152 1.415 . S
C2151 C2150 1.355 . S
C2151 C2153 1.419 . S
C2152 C2150 1.415 . S
C2152 C2157 1.425 . S
C2152 C2159 1.409 . S
C2153 H2145 0.930 . S
C2153 C2151 1.419 . S
C2153 C2154 1.362 . S
C2154 H2146 0.930 . S
C2154 C2153 1.362 . S
C2154 C2157 1.409 . S
C2155 H2147 0.930 . S
C2155 C2156 1.355 . S
C2155 C2157 1.415 . S
C2156 C2155 1.355 . S
C2156 C2158 1.419 . S
C2157 C2152 1.425 . S
C2157 C2154 1.409 . S
C2157 C2155 1.415 . S
C2158 H2148 0.930 . S
C2158 C2156 1.419 . S
C2158 C2159 1.362 . S
C2159 H2149 0.930 . S
C2159 C2152 1.409 . S
C2159 C2158 1.362 . S
H2160 C2166 0.930 . S
H2161 C2169 0.930 1_655 S
H2162 C2170 0.920 1_655 S
H2163 C2171 0.930 . S
H2164 C2174 0.930 . S
H2165 C2175 0.930 . S
C2166 H2160 0.930 . S
C2166 C2167 1.355 . S
C2166 C2168 1.415 . S
C2167 C2166 1.355 . S
C2167 C2169 1.419 . S
C2168 C2166 1.415 . S
C2168 C2173 1.425 . S
C2168 C2175 1.409 . S
C2169 H2161 0.930 1_455 S
C2169 C2167 1.419 . S
C2169 C2170 1.360 . S
C2170 H2162 0.920 1_455 S
C2170 C2169 1.360 . S
C2170 C2173 1.421 . S
C2171 H2163 0.930 . S
C2171 C2172 1.355 . S
C2171 C2173 1.415 . S
C2172 C2171 1.355 . S
C2172 C2174 1.419 . S
C2173 C2168 1.425 . S
C2173 C2170 1.421 . S
C2173 C2171 1.415 . S
C2174 H2164 0.930 . S
C2174 C2172 1.419 . S
C2174 C2175 1.362 . S
C2175 H2165 0.930 . S
C2175 C2168 1.409 . S
C2175 C2174 1.362 . S
H2176 C2182 0.930 . S
H2177 C2185 0.930 . S
H2178 C2186 0.930 . S
H2179 C2187 0.930 . S
H2180 C2190 0.930 . S
H2181 C2191 0.930 . S
C2182 H2176 0.930 . S
C2182 C2183 1.355 . S
C2182 C2184 1.415 . S
C2183 C2182 1.355 . S
C2183 C2185 1.419 . S
C2184 C2182 1.415 . S
C2184 C2189 1.425 . S
C2184 C2191 1.409 . S
C2185 H2177 0.930 . S
C2185 C2183 1.419 . S
C2185 C2186 1.362 . S
C2186 H2178 0.930 . S
C2186 C2185 1.362 . S
C2186 C2189 1.409 . S
C2187 H2179 0.930 . S
C2187 C2188 1.355 . S
C2187 C2189 1.415 . S
C2188 C2187 1.355 . S
C2188 C2190 1.419 . S
C2189 C2184 1.425 . S
C2189 C2186 1.409 . S
C2189 C2187 1.415 . S
C2190 H2180 0.930 . S
C2190 C2188 1.419 . S
C2190 C2191 1.362 . S
C2191 H2181 0.930 . S
C2191 C2184 1.409 . S
C2191 C2190 1.362 . S
H2192 C2198 0.930 . S
H2193 C2201 0.930 . S
H2194 C2202 0.930 . S
H2195 C2203 0.930 . S
H2196 C2206 0.930 . S
H2197 C2207 0.930 . S
C2198 H2192 0.930 . S
C2198 C2199 1.355 . S
C2198 C2200 1.415 . S
C2199 C2198 1.355 . S
C2199 C2201 1.419 . S
C2200 C2198 1.415 . S
C2200 C2205 1.425 . S
C2200 C2207 1.409 . S
C2201 H2193 0.930 . S
C2201 C2199 1.419 . S
C2201 C2202 1.362 . S
C2202 H2194 0.930 . S
C2202 C2201 1.362 . S
C2202 C2205 1.409 . S
C2203 H2195 0.930 . S
C2203 C2204 1.355 . S
C2203 C2205 1.415 . S
C2204 C2203 1.355 . S
C2204 C2206 1.419 . S
C2205 C2200 1.425 . S
C2205 C2202 1.409 . S
C2205 C2203 1.415 . S
C2206 H2196 0.930 . S
C2206 C2204 1.419 . S
C2206 C2207 1.362 . S
C2207 H2197 0.930 . S
C2207 C2200 1.409 . S
C2207 C2206 1.362 . S
H2208 C2214 0.930 . S
H2209 C2217 0.930 . S
H2210 C2218 0.930 . S
H2211 C2219 0.930 . S
H2212 C2222 0.930 . S
H2213 C2223 0.930 . S
C2214 H2208 0.930 . S
C2214 C2215 1.355 . S
C2214 C2216 1.415 . S
C2215 C2214 1.355 . S
C2215 C2217 1.419 . S
C2216 C2214 1.415 . S
C2216 C2221 1.425 . S
C2216 C2223 1.409 . S
C2217 H2209 0.930 . S
C2217 C2215 1.419 . S
C2217 C2218 1.362 . S
C2218 H2210 0.930 . S
C2218 C2217 1.362 . S
C2218 C2221 1.409 . S
C2219 H2211 0.930 . S
C2219 C2220 1.355 . S
C2219 C2221 1.415 . S
C2220 C2219 1.355 . S
C2220 C2222 1.419 . S
C2221 C2216 1.425 . S
C2221 C2218 1.409 . S
C2221 C2219 1.415 . S
C2222 H2212 0.930 . S
C2222 C2220 1.419 . S
C2222 C2223 1.362 . S
C2223 H2213 0.930 . S
C2223 C2216 1.409 . S
C2223 C2222 1.362 . S
H2224 C2230 0.930 . S
H2225 C2233 0.930 . S
H2226 C2234 0.930 . S
H2227 C2235 0.930 . S
H2228 C2238 0.930 . S
H2229 C2239 0.930 . S
C2230 H2224 0.930 . S
C2230 C2231 1.355 . S
C2230 C2232 1.415 . S
C2231 C2230 1.355 . S
C2231 C2233 1.419 . S
C2232 C2230 1.415 . S
C2232 C2237 1.425 . S
C2232 C2239 1.409 . S
C2233 H2225 0.930 . S
C2233 C2231 1.419 . S
C2233 C2234 1.362 . S
C2234 H2226 0.930 . S
C2234 C2233 1.362 . S
C2234 C2237 1.409 . S
C2235 H2227 0.930 . S
C2235 C2236 1.355 . S
C2235 C2237 1.415 . S
C2236 C2235 1.355 . S
C2236 C2238 1.419 . S
C2237 C2232 1.425 . S
C2237 C2234 1.409 . S
C2237 C2235 1.415 . S
C2238 H2228 0.930 . S
C2238 C2236 1.419 . S
C2238 C2239 1.362 . S
C2239 H2229 0.930 . S
C2239 C2232 1.409 . S
C2239 C2238 1.362 . S
H2240 C2246 0.930 . S
H2241 C2249 0.930 . S
H2242 C2250 0.930 . S
H2243 C2251 0.930 . S
H2244 C2254 0.930 . S
H2245 C2255 0.930 . S
C2246 H2240 0.930 . S
C2246 C2247 1.355 . S
C2246 C2248 1.415 . S
C2247 C2246 1.355 . S
C2247 C2249 1.419 . S
C2248 C2246 1.415 . S
C2248 C2253 1.425 . S
C2248 C2255 1.409 . S
C2249 H2241 0.930 . S
C2249 C2247 1.419 . S
C2249 C2250 1.362 . S
C2250 H2242 0.930 . S
C2250 C2249 1.362 . S
C2250 C2253 1.409 . S
C2251 H2243 0.930 . S
C2251 C2252 1.355 . S
C2251 C2253 1.415 . S
C2252 C2251 1.355 . S
C2252 C2254 1.419 . S
C2253 C2248 1.425 . S
C2253 C2250 1.409 . S
C2253 C2251 1.415 . S
C2254 H2244 0.930 . S
C2254 C2252 1.419 . S
C2254 C2255 1.362 . S
C2255 H2245 0.930 . S
C2255 C2248 1.409 . S
C2255 C2254 1.362 . S
H2256 C2262 0.930 . S
H2257 C2265 0.930 . S
H2258 C2266 0.930 . S
H2259 C2267 0.930 . S
H2260 C2270 0.930 . S
H2261 C2271 0.930 . S
C2262 H2256 0.930 . S
C2262 C2263 1.355 . S
C2262 C2264 1.415 . S
C2263 C2262 1.355 . S
C2263 C2265 1.419 . S
C2264 C2262 1.415 . S
C2264 C2269 1.425 . S
C2264 C2271 1.409 . S
C2265 H2257 0.930 . S
C2265 C2263 1.419 . S
C2265 C2266 1.362 . S
C2266 H2258 0.930 . S
C2266 C2265 1.362 . S
C2266 C2269 1.409 . S
C2267 H2259 0.930 . S
C2267 C2268 1.355 . S
C2267 C2269 1.415 . S
C2268 C2267 1.355 . S
C2268 C2270 1.419 . S
C2269 C2264 1.425 . S
C2269 C2266 1.409 . S
C2269 C2267 1.415 . S
C2270 H2260 0.930 . S
C2270 C2268 1.419 . S
C2270 C2271 1.362 . S
C2271 H2261 0.930 . S
C2271 C2264 1.409 . S
C2271 C2270 1.362 . S
H2272 C2278 0.930 . S
H2273 C2281 0.930 . S
H2274 C2282 0.930 . S
H2275 C2283 0.930 . S
H2276 C2286 0.930 . S
H2277 C2287 0.930 . S
C2278 H2272 0.930 . S
C2278 C2279 1.355 . S
C2278 C2280 1.415 . S
C2279 C2278 1.355 . S
C2279 C2281 1.419 . S
C2280 C2278 1.415 . S
C2280 C2285 1.425 . S
C2280 C2287 1.409 . S
C2281 H2273 0.930 . S
C2281 C2279 1.419 . S
C2281 C2282 1.362 . S
C2282 H2274 0.930 . S
C2282 C2281 1.362 . S
C2282 C2285 1.409 . S
C2283 H2275 0.930 . S
C2283 C2284 1.355 . S
C2283 C2285 1.415 . S
C2284 C2283 1.355 . S
C2284 C2286 1.419 . S
C2285 C2280 1.425 . S
C2285 C2282 1.409 . S
C2285 C2283 1.415 . S
C2286 H2276 0.930 . S
C2286 C2284 1.419 . S
C2286 C2287 1.362 . S
C2287 H2277 0.930 . S
C2287 C2280 1.409 . S
C2287 C2286 1.362 . S
H2288 C2294 0.930 . S
H2289 C2297 0.930 . S
H2290 C2298 0.931 . S
H2291 C2299 0.930 . S
H2292 C2302 0.930 . S
H2293 C2303 0.930 . S
C2294 H2288 0.930 . S
C2294 C2295 1.355 1_455 S
C2294 C2296 1.415 . S
C2295 C2294 1.355 1_655 S
C2295 C2297 1.419 . S
C2296 C2294 1.415 . S
C2296 C2301 1.425 . S
C2296 C2303 1.409 . S
C2297 H2289 0.930 . S
C2297 C2295 1.419 . S
C2297 C2298 1.358 1_655 S
C2298 H2290 0.931 . S
C2298 C2297 1.358 1_455 S
C2298 C2301 1.411 . S
C2299 H2291 0.930 . S
C2299 C2300 1.355 . S
C2299 C2301 1.415 . S
C2300 C2299 1.355 . S
C2300 C2302 1.419 1_556 S
C2301 C2296 1.425 . S
C2301 C2298 1.411 . S
C2301 C2299 1.415 . S
C2302 H2292 0.930 . S
C2302 C2300 1.419 1_554 S
C2302 C2303 1.362 1_554 S
C2303 H2293 0.930 . S
C2303 C2296 1.409 . S
C2303 C2302 1.362 1_556 S
H2304 C2310 0.930 . S
H2305 C2313 0.930 . S
H2306 C2314 0.930 . S
H2307 C2315 0.930 . S
H2308 C2318 0.930 . S
H2309 C2319 0.930 . S
C2310 H2304 0.930 . S
C2310 C2311 1.355 . S
C2310 C2312 1.415 . S
C2311 C2310 1.355 . S
C2311 C2313 1.419 . S
C2312 C2310 1.415 . S
C2312 C2317 1.425 . S
C2312 C2319 1.409 . S
C2313 H2305 0.930 . S
C2313 C2311 1.419 . S
C2313 C2314 1.362 . S
C2314 H2306 0.930 . S
C2314 C2313 1.362 . S
C2314 C2317 1.409 . S
C2315 H2307 0.930 . S
C2315 C2316 1.355 . S
C2315 C2317 1.415 . S
C2316 C2315 1.355 . S
C2316 C2318 1.419 . S
C2317 C2312 1.425 . S
C2317 C2314 1.409 . S
C2317 C2315 1.415 . S
C2318 H2308 0.930 . S
C2318 C2316 1.419 . S
C2318 C2319 1.362 . S
C2319 H2309 0.930 . S
C2319 C2312 1.409 . S
C2319 C2318 1.362 . S
H2320 C2326 0.930 . S
H2321 C2329 0.930 . S
H2322 C2330 0.930 . S
H2323 C2331 0.930 . S
H2324 C2334 0.930 . S
H2325 C2335 0.930 . S
C2326 H2320 0.930 . S
C2326 C2327 1.355 . S
C2326 C2328 1.415 . S
C2327 C2326 1.355 . S
C2327 C2329 1.419 . S
C2328 C2326 1.415 . S
C2328 C2333 1.425 . S
C2328 C2335 1.409 . S
C2329 H2321 0.930 . S
C2329 C2327 1.419 . S
C2329 C2330 1.362 . S
C2330 H2322 0.930 . S
C2330 C2329 1.362 . S
C2330 C2333 1.409 . S
C2331 H2323 0.930 . S
C2331 C2332 1.355 . S
C2331 C2333 1.415 . S
C2332 C2331 1.355 . S
C2332 C2334 1.419 . S
C2333 C2328 1.425 . S
C2333 C2330 1.409 . S
C2333 C2331 1.415 . S
C2334 H2324 0.930 . S
C2334 C2332 1.419 . S
C2334 C2335 1.362 . S
C2335 H2325 0.930 . S
C2335 C2328 1.409 . S
C2335 C2334 1.362 . S
H2336 C2342 0.957 . S
H2337 C2345 0.930 . S
H2338 C2346 0.930 . S
H2339 C2347 0.930 . S
H2340 C2350 0.930 . S
H2341 C2351 0.930 . S
C2342 H2336 0.957 . S
C2342 C2343 1.355 . S
C2342 C2344 1.415 . S
C2343 C2342 1.355 . S
C2343 C2345 1.419 . S
C2344 C2342 1.415 . S
C2344 C2349 1.425 . S
C2344 C2351 1.409 . S
C2345 H2337 0.930 . S
C2345 C2343 1.419 . S
C2345 C2346 1.362 . S
C2346 H2338 0.930 . S
C2346 C2345 1.362 . S
C2346 C2349 1.409 . S
C2347 H2339 0.930 . S
C2347 C2348 1.355 . S
C2347 C2349 1.415 . S
C2348 C2347 1.355 . S
C2348 C2350 1.419 . S
C2349 C2344 1.425 . S
C2349 C2346 1.409 . S
C2349 C2347 1.415 . S
C2350 H2340 0.930 . S
C2350 C2348 1.419 . S
C2350 C2351 1.362 . S
C2351 H2341 0.930 . S
C2351 C2344 1.409 . S
C2351 C2350 1.362 . S
H2352 C2358 0.930 . S
H2353 C2361 0.930 . S
H2354 C2362 0.930 . S
H2355 C2363 0.930 . S
H2356 C2366 0.930 . S
H2357 C2367 0.930 . S
C2358 H2352 0.930 . S
C2358 C2359 1.355 . S
C2358 C2360 1.415 . S
C2359 C2358 1.355 . S
C2359 C2361 1.419 1_655 S
C2360 C2358 1.415 . S
C2360 C2365 1.425 1_655 S
C2360 C2367 1.409 . S
C2361 H2353 0.930 . S
C2361 C2359 1.419 1_455 S
C2361 C2362 1.362 . S
C2362 H2354 0.930 . S
C2362 C2361 1.362 . S
C2362 C2365 1.409 . S
C2363 H2355 0.930 . S
C2363 C2364 1.355 . S
C2363 C2365 1.415 . S
C2364 C2363 1.355 . S
C2364 C2366 1.419 1_455 S
C2365 C2360 1.425 1_455 S
C2365 C2362 1.409 . S
C2365 C2363 1.415 . S
C2366 H2356 0.930 . S
C2366 C2364 1.419 1_655 S
C2366 C2367 1.362 . S
C2367 H2357 0.930 . S
C2367 C2360 1.409 . S
C2367 C2366 1.362 . S
H2368 C2374 0.930 . S
H2369 C2377 0.930 . S
H2370 C2378 0.930 . S
H2371 C2379 0.930 . S
H2372 C2382 0.930 . S
H2373 C2383 0.930 . S
C2374 H2368 0.930 . S
C2374 C2375 1.355 . S
C2374 C2376 1.415 . S
C2375 C2374 1.355 . S
C2375 C2377 1.419 . S
C2376 C2374 1.415 . S
C2376 C2381 1.425 . S
C2376 C2383 1.409 . S
C2377 H2369 0.930 . S
C2377 C2375 1.419 . S
C2377 C2378 1.362 . S
C2378 H2370 0.930 . S
C2378 C2377 1.362 . S
C2378 C2381 1.409 . S
C2379 H2371 0.930 . S
C2379 C2380 1.355 . S
C2379 C2381 1.415 . S
C2380 C2379 1.355 . S
C2380 C2382 1.419 . S
C2381 C2376 1.425 . S
C2381 C2378 1.409 . S
C2381 C2379 1.415 . S
C2382 H2372 0.930 . S
C2382 C2380 1.419 . S
C2382 C2383 1.362 . S
C2383 H2373 0.930 . S
C2383 C2376 1.409 . S
C2383 C2382 1.362 . S
H2384 C2390 0.930 . S
H2385 C2393 0.930 . S
H2386 C2394 0.930 . S
H2387 C2395 0.930 . S
H2388 C2398 0.930 . S
H2389 C2399 0.930 . S
C2390 H2384 0.930 . S
C2390 C2391 1.355 . S
C2390 C2392 1.415 . S
C2391 C2390 1.355 . S
C2391 C2393 1.419 . S
C2392 C2390 1.415 . S
C2392 C2397 1.425 . S
C2392 C2399 1.409 . S
C2393 H2385 0.930 . S
C2393 C2391 1.419 . S
C2393 C2394 1.362 . S
C2394 H2386 0.930 . S
C2394 C2393 1.362 . S
C2394 C2397 1.409 . S
C2395 H2387 0.930 . S
C2395 C2396 1.355 . S
C2395 C2397 1.415 . S
C2396 C2395 1.355 . S
C2396 C2398 1.419 . S
C2397 C2392 1.425 . S
C2397 C2394 1.409 . S
C2397 C2395 1.415 . S
C2398 H2388 0.930 . S
C2398 C2396 1.419 . S
C2398 C2399 1.362 . S
C2399 H2389 0.930 . S
C2399 C2392 1.409 . S
C2399 C2398 1.362 . S
H2400 C2406 0.930 . S
H2401 C2409 0.930 . S
H2402 C2410 0.930 . S
H2403 C2411 0.930 . S
H2404 C2414 0.930 . S
H2405 C2415 0.930 . S
C2406 H2400 0.930 . S
C2406 C2407 1.355 . S
C2406 C2408 1.415 . S
C2407 C2406 1.355 . S
C2407 C2409 1.419 . S
C2408 C2406 1.415 . S
C2408 C2413 1.425 . S
C2408 C2415 1.409 . S
C2409 H2401 0.930 . S
C2409 C2407 1.419 . S
C2409 C2410 1.362 . S
C2410 H2402 0.930 . S
C2410 C2409 1.362 . S
C2410 C2413 1.409 . S
C2411 H2403 0.930 . S
C2411 C2412 1.355 . S
C2411 C2413 1.415 . S
C2412 C2411 1.355 . S
C2412 C2414 1.419 . S
C2413 C2408 1.425 . S
C2413 C2410 1.409 . S
C2413 C2411 1.415 . S
C2414 H2404 0.930 . S
C2414 C2412 1.419 . S
C2414 C2415 1.362 . S
C2415 H2405 0.930 . S
C2415 C2408 1.409 . S
C2415 C2414 1.362 . S
H2416 C2422 0.930 . S
H2417 C2425 0.930 . S
H2418 C2426 0.930 . S
H2419 C2427 0.930 . S
H2420 C2430 0.930 . S
H2421 C2431 0.930 . S
C2422 H2416 0.930 . S
C2422 C2423 1.355 . S
C2422 C2424 1.415 . S
C2423 C2422 1.355 . S
C2423 C2425 1.419 . S
C2424 C2422 1.415 . S
C2424 C2429 1.425 . S
C2424 C2431 1.409 . S
C2425 H2417 0.930 . S
C2425 C2423 1.419 . S
C2425 C2426 1.362 . S
C2426 H2418 0.930 . S
C2426 C2425 1.362 . S
C2426 C2429 1.409 . S
C2427 H2419 0.930 . S
C2427 C2428 1.355 . S
C2427 C2429 1.415 . S
C2428 C2427 1.355 . S
C2428 C2430 1.419 . S
C2429 C2424 1.425 . S
C2429 C2426 1.409 . S
C2429 C2427 1.415 . S
C2430 H2420 0.930 . S
C2430 C2428 1.419 . S
C2430 C2431 1.362 . S
C2431 H2421 0.930 . S
C2431 C2424 1.409 . S
C2431 C2430 1.362 . S
H2432 C2438 0.930 . S
H2433 C2441 0.930 . S
H2434 C2442 0.930 . S
H2435 C2443 0.930 . S
H2436 C2446 0.930 . S
H2437 C2447 0.930 . S
C2438 H2432 0.930 . S
C2438 C2439 1.355 . S
C2438 C2440 1.415 . S
C2439 C2438 1.355 . S
C2439 C2441 1.419 . S
C2440 C2438 1.415 . S
C2440 C2445 1.425 . S
C2440 C2447 1.409 . S
C2441 H2433 0.930 . S
C2441 C2439 1.419 . S
C2441 C2442 1.362 . S
C2442 H2434 0.930 . S
C2442 C2441 1.362 . S
C2442 C2445 1.409 . S
C2443 H2435 0.930 . S
C2443 C2444 1.355 . S
C2443 C2445 1.415 . S
C2444 C2443 1.355 . S
C2444 C2446 1.419 . S
C2445 C2440 1.425 . S
C2445 C2442 1.409 . S
C2445 C2443 1.415 . S
C2446 H2436 0.930 . S
C2446 C2444 1.419 . S
C2446 C2447 1.362 . S
C2447 H2437 0.930 . S
C2447 C2440 1.409 . S
C2447 C2446 1.362 . S
H2448 C2454 0.930 . S
H2449 C2457 0.930 . S
H2450 C2458 0.930 . S
H2451 C2459 0.930 . S
H2452 C2462 0.930 . S
H2453 C2463 0.930 . S
C2454 H2448 0.930 . S
C2454 C2455 1.355 . S
C2454 C2456 1.415 . S
C2455 C2454 1.355 . S
C2455 C2457 1.419 . S
C2456 C2454 1.415 . S
C2456 C2461 1.425 . S
C2456 C2463 1.409 . S
C2457 H2449 0.930 . S
C2457 C2455 1.419 . S
C2457 C2458 1.362 . S
C2458 H2450 0.930 . S
C2458 C2457 1.362 . S
C2458 C2461 1.409 . S
C2459 H2451 0.930 . S
C2459 C2460 1.355 . S
C2459 C2461 1.415 . S
C2460 C2459 1.355 . S
C2460 C2462 1.419 . S
C2461 C2456 1.425 . S
C2461 C2458 1.409 . S
C2461 C2459 1.415 . S
C2462 H2452 0.930 . S
C2462 C2460 1.419 . S
C2462 C2463 1.362 . S
C2463 H2453 0.930 . S
C2463 C2456 1.409 . S
C2463 C2462 1.362 . S
H2464 C2470 0.930 . S
H2465 C2473 0.930 . S
H2466 C2474 0.930 . S
H2467 C2475 0.930 . S
H2468 C2478 0.930 . S
H2469 C2479 0.930 . S
C2470 H2464 0.930 . S
C2470 C2471 1.355 . S
C2470 C2472 1.415 . S
C2471 C2470 1.355 . S
C2471 C2473 1.419 . S
C2472 C2470 1.415 . S
C2472 C2477 1.425 . S
C2472 C2479 1.409 . S
C2473 H2465 0.930 . S
C2473 C2471 1.419 . S
C2473 C2474 1.362 . S
C2474 H2466 0.930 . S
C2474 C2473 1.362 . S
C2474 C2477 1.409 . S
C2475 H2467 0.930 . S
C2475 C2476 1.355 . S
C2475 C2477 1.415 . S
C2476 C2475 1.355 . S
C2476 C2478 1.419 . S
C2477 C2472 1.425 . S
C2477 C2474 1.409 . S
C2477 C2475 1.415 . S
C2478 H2468 0.930 . S
C2478 C2476 1.419 . S
C2478 C2479 1.362 . S
C2479 H2469 0.930 . S
C2479 C2472 1.409 . S
C2479 C2478 1.362 . S
H2480 C2486 0.932 . S
H2481 C2489 0.930 . S
H2482 C2490 0.930 . S
H2483 C2491 0.930 . S
H2484 C2494 0.930 . S
H2485 C2495 0.930 . S
C2486 H2480 0.932 . S
C2486 C2487 1.355 . S
C2486 C2488 1.415 . S
C2487 C2486 1.355 . S
C2487 C2489 1.419 . S
C2488 C2486 1.415 . S
C2488 C2493 1.425 . S
C2488 C2495 1.409 . S
C2489 H2481 0.930 . S
C2489 C2487 1.419 . S
C2489 C2490 1.362 . S
C2490 H2482 0.930 . S
C2490 C2489 1.362 . S
C2490 C2493 1.409 . S
C2491 H2483 0.930 . S
C2491 C2492 1.355 . S
C2491 C2493 1.415 . S
C2492 C2491 1.355 . S
C2492 C2494 1.419 . S
C2493 C2488 1.425 . S
C2493 C2490 1.409 . S
C2493 C2491 1.415 . S
C2494 H2484 0.930 . S
C2494 C2492 1.419 . S
C2494 C2495 1.362 . S
C2495 H2485 0.930 . S
C2495 C2488 1.409 . S
C2495 C2494 1.362 . S
H2496 C2502 0.930 . S
H2497 C2505 0.930 . S
H2498 C2506 0.930 . S
H2499 C2507 0.930 . S
H2500 C2510 0.930 . S
H2501 C2511 0.930 . S
C2502 H2496 0.930 . S
C2502 C2503 1.355 . S
C2502 C2504 1.415 . S
C2503 C2502 1.355 . S
C2503 C2505 1.419 . S
C2504 C2502 1.415 . S
C2504 C2509 1.425 . S
C2504 C2511 1.409 . S
C2505 H2497 0.930 . S
C2505 C2503 1.419 . S
C2505 C2506 1.362 . S
C2506 H2498 0.930 . S
C2506 C2505 1.362 . S
C2506 C2509 1.409 . S
C2507 H2499 0.930 . S
C2507 C2508 1.355 . S
C2507 C2509 1.415 . S
C2508 C2507 1.355 . S
C2508 C2510 1.419 . S
C2509 C2504 1.425 . S
C2509 C2506 1.409 . S
C2509 C2507 1.415 . S
C2510 H2500 0.930 . S
C2510 C2508 1.419 . S
C2510 C2511 1.362 . S
C2511 H2501 0.930 . S
C2511 C2504 1.409 . S
C2511 C2510 1.362 . S
C983 C105 1.359 . S
C988 C342 1.343 . S
C999 C65 2.059 . S
C1004 C394 1.943 . S
C1015 C73 1.397 . S
C1020 C426 1.380 1_565 S
C1036 C475 2.514 . S
C1031 C92 2.510 . S
C1047 C17 1.184 . S
C1052 C511 1.137 . S
C1068 C542 0.408 . S
C1063 C37 0.371 . S
C1084 C594 0.480 . S
C1079 C49 0.518 . S
C1095 C8 2.144 . S
C1100 C622 2.032 . S
C1116 C354 1.988 . S
C1111 C231 2.107 . S
C1127 C241 1.748 . S
C1132 C395 1.759 . S
C1148 C425 1.807 . S
C1143 C273 1.863 . S
C1164 C462 0.737 . S
C1159 C171 0.753 . S
C1175 C227 1.859 . S
C1180 C506 1.854 1_655 S
C1196 C554 1.949 . S
C1191 C245 1.852 . S
C1212 C595 1.767 1_556 S
C1207 C269 1.758 . S
C1228 C634 1.773 . S
C1223 C175 1.873 . S
C1244 C355 2.345 . S
C1239 C162 2.322 . S
C1255 C289 1.678 1_554 S
C1260 C665 1.649 . S
C1276 C715 2.456 . S
C1271 C330 2.465 . S
C1292 C742 1.069 . S
C1287 C317 1.037 . S
C1303 C120 2.604 . S
C1308 C635 2.587 . S
C1319 C134 1.654 . S
C1324 C431 1.543 . S
C1335 C331 2.508 . S
C1340 C794 2.374 . S
C1356 C822 1.341 . S
C1351 C303 1.406 . S
C1372 C351 1.427 . S
C1367 C59 1.515 . S
C1388 C825 1.950 . S
C1383 C107 2.109 . S
C1399 C91 1.420 . S
C1404 C435 1.439 . S
C1415 C78 2.586 . S
C1420 C786 2.565 . S
C1436 C502 1.137 . S
C1431 C7 1.132 . S
C1447 C51 0.698 . S
C1452 C711 0.655 . S
C1468 C585 0.395 . S
C1463 C31 0.545 . S
C1484 C871 1.919 . S
C1479 C22 1.995 . S
C1500 C345 2.010 1_556 S
C1495 C143 2.187 . S
C1516 C826 1.842 . S
C1511 C315 1.689 . S
C1527 C115 2.010 . S
C1532 C434 1.876 . S
C1543 C287 0.589 . S
C1548 C791 0.675 . S
C1559 C147 1.825 . S
C1564 C515 1.887 . S
C1580 C705 1.995 . S
C1575 C311 1.968 . S
C1591 C119 1.759 . S
C1596 C586 1.858 . S
C1607 C283 2.002 . S
C1612 C865 1.818 . S
C1623 C190 2.315 . S
C1628 C346 2.333 1_655 S
C1639 C177 1.803 . S
C1644 C674 1.869 . S
C1655 C260 2.458 . S
C1660 C546 2.482 . S
C1671 C247 1.076 . S
C1676 C751 1.022 . S
C1692 C866 2.574 . S
C1687 C274 2.566 . S
C1703 C218 1.652 . S
C1708 C422 1.583 . S
C1724 C465 2.407 . S
C1719 C261 2.522 . S
C1740 C391 1.288 . S
C1735 C205 1.408 . S
C1751 C77 1.408 . S
C1756 C902 1.408 . S
C1772 C834 1.970 . S
C1767 C93 2.066 . S
C1783 C101 1.480 . S
C1788 C946 1.479 . S
C1799 C64 2.541 . S
C1804 C795 2.539 . S
C1815 C45 1.206 . S
C1820 C671 1.219 . S
C1836 C702 0.791 . S
C1831 C9 0.759 . S
C1852 C754 0.289 . S
C1847 C21 0.694 . S
C1868 C862 1.547 . S
C1863 C36 1.647 . S
C1884 C914 2.008 . S
C1879 C259 2.083 . S
C1895 C185 1.781 1_556 S
C1900 C835 1.797 . S
C1916 C945 1.791 . S
C1911 C203 1.819 . S
C1932 C782 0.659 . S
C1927 C213 0.672 . S
C1948 C666 1.916 1_556 S
C1943 C255 1.933 . S
C1959 C189 1.952 . S
C1964 C714 1.998 . S
C1980 C755 1.753 . S
C1975 C199 1.734 . S
C1991 C217 1.913 . S
C1996 C874 1.782 . S
C2012 C915 2.333 . S
C2007 C316 2.319 . S
C2023 C135 1.755 . S
C2028 C505 1.810 . S
C2044 C555 2.438 . S
C2039 C148 2.470 . S
C2060 C582 1.036 . S
C2055 C163 1.101 . S
C2076 C875 2.576 . S
C2071 C302 2.565 . S
C2087 C288 1.480 . S
C2092 C951 1.383 . S
C2108 C474 2.435 . S
C2103 C149 2.499 . S
C2124 C382 1.217 1_545 S
C2119 C121 1.397 . S
C2135 C87 1.485 . S
C2140 C911 1.396 . S
C2156 C385 1.969 . S
C2151 C79 2.134 . S
C2167 C63 1.426 . S
C2172 C955 1.491 . S
C2183 C106 2.599 . S
C2188 C466 2.591 . S
C2199 C35 1.112 . S
C2204 C662 1.116 . S
C2220 C551 0.667 . S
C2215 C23 0.704 . S
C2231 C3 0.497 . S
C2236 C745 0.468 . S
C2247 C50 1.917 . S
C2252 C631 1.830 . S
C2268 C905 1.951 . S
C2263 C325 2.156 . S
C2279 C161 1.707 . S
C2284 C386 1.862 . S
C2300 C954 1.925 1_556 S
C2295 C297 2.054 . S
C2311 C133 0.820 . S
C2316 C471 0.745 . S
C2327 C329 1.844 . S
C2332 C675 1.972 . S
C2348 C545 2.063 . S
C2343 C157 2.068 1_556 S
C2359 C301 1.709 . S
C2364 C746 1.843 . S
C2380 C625 1.738 . S
C2375 C129 1.910 . S
C2396 C906 2.329 . S
C2391 C246 2.289 . S
C2412 C514 1.880 . S
C2407 C219 1.840 . S
C2423 C232 2.457 . S
C2428 C706 2.453 . S
C2444 C591 1.120 . S
C2439 C191 1.108 . S
C2455 C204 2.520 . S
C2460 C626 2.538 . S
C2471 C176 1.504 . S
C2476 C942 1.414 . S
C2492 C785 2.438 . S
C2487 C233 2.491 1_565 S
C2508 C831 1.252 . S
C2503 C275 1.401 . S
