# Generated by pormake.
# Topology pyr, (3,6)-cn, num edge types: 1
# Building blocks:
#     Node 0, Type 0, BuildingBlock: OLANEW_clean_sbu_2, # of connection points: 3
#     Node 1, Type 0, BuildingBlock: OLANEW_clean_sbu_2, # of connection points: 3
#     Node 2, Type 0, BuildingBlock: OLANEW_clean_sbu_2, # of connection points: 3
#     Node 3, Type 0, BuildingBlock: OLANEW_clean_sbu_2, # of connection points: 3
#     Node 4, Type 0, BuildingBlock: OLANEW_clean_sbu_2, # of connection points: 3
#     Node 5, Type 0, BuildingBlock: OLANEW_clean_sbu_2, # of connection points: 3
#     Node 6, Type 0, BuildingBlock: OLANEW_clean_sbu_2, # of connection points: 3
#     Node 7, Type 0, BuildingBlock: OLANEW_clean_sbu_2, # of connection points: 3
#     Node 8, Type 1, BuildingBlock: BETFAJ_clean_sbu_0, # of connection points: 6
#     Node 9, Type 1, BuildingBlock: BETFAJ_clean_sbu_0, # of connection points: 6
#     Node 10, Type 1, BuildingBlock: BETFAJ_clean_sbu_0, # of connection points: 6
#     Node 11, Type 1, BuildingBlock: BETFAJ_clean_sbu_0, # of connection points: 6
#     Edge 12, Type (0, 1), None
#     Edge 13, Type (0, 1), None
#     Edge 14, Type (0, 1), None
#     Edge 15, Type (0, 1), None
#     Edge 16, Type (0, 1), None
#     Edge 17, Type (0, 1), None
#     Edge 18, Type (0, 1), None
#     Edge 19, Type (0, 1), None
#     Edge 20, Type (0, 1), None
#     Edge 21, Type (0, 1), None
#     Edge 22, Type (0, 1), None
#     Edge 23, Type (0, 1), None
#     Edge 24, Type (0, 1), None
#     Edge 25, Type (0, 1), None
#     Edge 26, Type (0, 1), None
#     Edge 27, Type (0, 1), None
#     Edge 28, Type (0, 1), None
#     Edge 29, Type (0, 1), None
#     Edge 30, Type (0, 1), None
#     Edge 31, Type (0, 1), None
#     Edge 32, Type (0, 1), None
#     Edge 33, Type (0, 1), None
#     Edge 34, Type (0, 1), None
#     Edge 35, Type (0, 1), None
# Relax obj value: 0.354
# Max RMSD: 0.204
# Mean RMSD: 0.133
data_MOF--net-pyr--node1-OLANEW_clean_sbu_2--node2-BETFAJ_clean_sbu_0--edge1-none
_symmetry_space_group_name_H-M    P1
_symmetry_Int_Tables_number       1
_symmetry_cell_setting            triclinic
loop_
_symmetry_equiv_pos_as_xyz
'x, y, z'
_cell_length_a     20.294622
_cell_length_b     21.242186
_cell_length_c     18.849431
_cell_angle_alpha  95.819441
_cell_angle_beta   87.457572
_cell_angle_gamma 104.36597
loop_
_atom_site_label
_atom_site_type_symbol
_atom_site_fract_x
_atom_site_fract_y
_atom_site_fract_z
_atom_type_partial_charge
O0 O 0.48872 0.30511 0.3726 0.0
Cd1 Cd 0.45195 0.40913 0.38585 0.0
O2 O 0.44609 0.28589 0.2657 0.0
Cd3 Cd 0.4148 0.22386 0.16654 0.0
O4 O 0.32425 0.17198 0.21972 0.0
C5 C 0.28682 0.20924 0.24425 0.0
O6 O 0.29796 0.26753 0.22152 0.0
C7 C 0.47616 0.26812 0.31513 0.0
C8 C 0.33312 0.42057 0.3209 0.0
O9 O 0.38949 0.42536 0.28583 0.0
O10 O 0.33164 0.4073 0.38591 0.0
O11 O 0.18532 1.0487 0.89925 0.0
Cd12 Cd 0.14832 0.97821 0.79214 0.0
O13 O 0.11678 0.97408 0.95822 0.0
Cd14 Cd 0.04548 0.95695 0.87077 0.0
O15 O 0.02514 0.98413 0.7669 0.0
C16 C 1.00234 1.0342 0.76387 0.0
O17 O 0.98382 1.06423 0.8229 0.0
C18 C 0.16981 1.02095 0.95644 0.0
C19 C 0.2308 0.89155 0.79152 0.0
O20 O 0.24683 0.94085 0.75468 0.0
O21 O 0.17332 0.88069 0.82495 0.0
O22 O 0.79838 0.54757 1.02882 0.0
Cd23 Cd 0.67751 0.51091 0.97878 0.0
O24 O 0.81108 0.46984 0.09545 0.0
Cd25 Cd 0.71535 0.38935 0.09587 0.0
O26 O 0.63611 0.29865 0.12035 0.0
C27 C 0.65149 0.25071 0.14576 0.0
O28 O 0.71555 0.25391 0.15753 0.0
C29 C 0.83454 0.52462 1.0693 0.0
C30 C 0.61925 0.56424 0.86817 0.0
O31 O 0.61312 0.58427 0.93407 0.0
O32 O 0.65534 0.52262 0.85384 0.0
O33 O 0.94634 0.92174 0.44456 0.0
Cd34 Cd 0.90523 0.80821 0.37916 0.0
O35 O 0.86163 0.91054 0.5252 0.0
Cd36 Cd 0.78807 0.81594 0.52599 0.0
O37 O 0.69491 0.78297 0.59077 0.0
C38 C 0.68528 0.73666 0.63077 0.0
O39 O 0.73094 0.70255 0.63209 0.0
C40 C 0.91499 0.94524 0.49743 0.0
C41 C 0.97821 0.72589 0.29605 0.0
O42 O 0.95884 0.77056 0.26778 0.0
O43 O 0.96764 0.72264 0.36332 0.0
O44 O 0.61742 0.83947 0.81784 0.0
Cd45 Cd 0.58392 0.75163 0.89436 0.0
O46 O 0.67507 0.89158 0.90973 0.0
Cd47 Cd 0.7404 0.96816 0.97894 0.0
O48 O 0.72134 1.01868 0.08113 0.0
C49 C 0.66611 0.98916 0.11003 0.0
O50 O 0.63189 0.93318 0.07887 0.0
C51 C 0.6571 0.89075 0.84585 0.0
C52 C 0.70826 0.75005 0.94391 0.0
O53 O 0.68486 0.7155 0.88669 0.0
O54 O 0.67016 0.78141 0.98093 0.0
O55 O 0.98978 0.41617 0.33135 0.0
Cd56 Cd 0.05816 0.36699 0.40442 0.0
O57 O 0.9041 0.41501 0.26313 0.0
Cd58 Cd 0.92072 0.52005 0.26802 0.0
O59 O 0.84076 0.54973 0.33426 0.0
C60 C 0.78342 0.50877 0.3268 0.0
O61 O 0.77781 0.45958 0.27733 0.0
C62 C 0.93527 0.38548 0.30032 0.0
C63 C 0.98699 0.26888 0.48598 0.0
O64 O 0.01169 0.25377 0.42471 0.0
O65 O 0.99552 0.32934 0.50802 0.0
O66 O 0.49432 0.90367 0.37834 0.0
Cd67 Cd 0.43365 0.78885 0.40312 0.0
O68 O 0.42156 0.92763 0.30709 0.0
Cd69 Cd 0.34935 0.83086 0.29389 0.0
O70 O 0.2653 0.75287 0.24634 0.0
C71 C 0.23117 0.76968 0.19977 0.0
O72 O 0.248 0.83033 0.18348 0.0
C73 C 0.47662 0.94418 0.34166 0.0
C74 C 0.46817 0.72654 0.51875 0.0
O75 O 0.49632 0.72072 0.457 0.0
O76 O 0.42652 0.7634 0.52706 0.0
O77 O 0.17645 0.57801 0.91185 0.0
Cd78 Cd 0.20812 0.50496 0.8111 0.0
O79 O 0.08863 0.50135 0.94415 0.0
Cd80 Cd 0.10499 0.42586 0.85935 0.0
O81 O 0.09251 0.34418 0.77357 0.0
C82 C 0.03467 0.30372 0.77375 0.0
O83 O 0.98967 0.31318 0.82335 0.0
C84 C 0.125 0.5597 0.95294 0.0
C85 C 0.34007 0.53186 0.74985 0.0
O86 O 0.29738 0.56465 0.7374 0.0
O87 O 0.32208 0.4878 0.79334 0.0
Sm88 Sm 0.04573 0.14193 0.5861 0.0
Sm89 Sm 0.90433 0.13551 0.63448 0.0
C90 C 0.16666 0.17948 0.52462 0.0
C91 C 0.19212 0.18392 0.4502 0.0
C92 C 0.22471 0.13726 0.41716 0.0
C93 C 0.25159 0.14289 0.34795 0.0
C94 C 0.24697 0.19573 0.31076 0.0
C95 C 0.21207 0.24098 0.34279 0.0
C96 C 0.18509 0.23527 0.41182 0.0
C97 C 0.00795 1.06452 0.69694 0.0
C98 C 0.01554 0.24783 0.71914 0.0
C99 C 0.77623 0.10351 0.67932 0.0
C100 C 0.73779 1.05022 0.7203 0.0
C101 C 0.71681 0.98623 0.68776 0.0
C102 C 0.68924 0.93479 0.72891 0.0
C103 C 0.68259 0.94625 0.80327 0.0
C104 C 0.70036 1.01038 0.83549 0.0
C105 C 0.72742 1.06204 0.79424 0.0
C106 C 0.94977 0.21893 0.53082 0.0
C107 C 0.9382 1.01327 0.53087 0.0
O108 O 0.14329 0.12092 0.54518 0.0
O109 O 0.12996 0.21993 0.54885 0.0
O110 O 0.99206 0.11746 0.69197 0.0
O111 O 0.04983 1.05367 0.64592 0.0
O112 O 0.05898 0.23499 0.66837 0.0
O113 O 0.95374 0.21023 0.72362 0.0
O114 O 0.82381 0.14666 0.71432 0.0
O115 O 0.79552 0.08749 0.61422 0.0
O116 O 0.95924 0.16254 0.53028 0.0
O117 O 0.91292 0.23191 0.58521 0.0
O118 O 0.90328 1.0304 0.58727 0.0
O119 O 0.99235 1.05514 0.50795 0.0
H120 H 0.23082 0.0972 0.44543 0.0
H121 H 0.2786 0.10743 0.32493 0.0
H122 H 0.20781 0.28235 0.31566 0.0
H123 H 0.16014 0.27209 0.43552 0.0
H124 H 0.72364 0.97543 0.63089 0.0
H125 H 0.67524 0.88571 0.70269 0.0
H126 H 0.69332 1.0207 0.89232 0.0
H127 H 0.74219 0.11107 0.82055 0.0
Sm128 Sm 0.61646 0.12176 0.30019 0.0
Sm129 Sm 0.50239 1.08093 0.19856 0.0
C130 C 0.72445 0.17701 0.37781 0.0
C131 C 0.78972 0.22023 0.35953 0.0
C132 C 0.81083 0.22349 0.28772 0.0
C133 C 0.86459 0.27415 0.26824 0.0
C134 C 0.89809 0.3215 0.32048 0.0
C135 C 0.87972 0.31558 0.39259 0.0
C136 C 0.82594 0.26496 0.41214 0.0
C137 C 0.5237 1.00879 0.33375 0.0
C138 C 0.49831 0.20679 0.30361 0.0
C139 C 0.39523 1.01769 0.12356 0.0
C140 C 0.33482 1.02838 0.09108 0.0
C141 C 0.27144 0.98561 0.10275 0.0
C142 C 0.21519 0.98732 1.0637 0.0
C143 C 0.2217 1.03177 1.01193 0.0
C144 C 0.28373 1.0787 1.00528 0.0
C145 C 0.33994 1.07699 1.04455 0.0
C146 C 0.59856 0.19218 0.16352 0.0
C147 C 0.63275 1.02315 0.16651 0.0
O148 O 0.71311 0.11743 0.34744 0.0
O149 O 0.67196 0.2022 0.37615 0.0
O150 O 0.50883 1.05804 0.31223 0.0
O151 O 0.58806 1.0207 0.34424 0.0
O152 O 0.55982 0.20533 0.32314 0.0
O153 O 0.46055 0.15879 0.26292 0.0
O154 O 0.39558 1.02202 0.19324 0.0
O155 O 0.45481 1.04202 0.09452 0.0
O156 O 0.61112 0.14257 0.18618 0.0
O157 O 0.53398 0.18211 0.15222 0.0
O158 O 0.56607 1.00561 0.17173 0.0
O159 O 0.66626 1.07782 0.20137 0.0
H160 H 0.78278 0.1896 0.24631 0.0
H161 H 0.87658 0.27915 0.21218 0.0
H162 H 0.90237 0.35371 0.43313 0.0
H163 H 0.80959 0.2636 0.4676 0.0
H164 H 0.26629 0.94857 0.13942 0.0
H165 H 0.16812 0.95074 1.0705 0.0
H166 H 0.29023 0.11406 0.96638 0.0
H167 H 0.38805 0.11153 1.0358 0.0
Sm168 Sm 0.53394 0.57591 0.64724 0.0
Sm169 Sm 0.49961 0.68375 0.74514 0.0
C170 C 0.57293 0.49848 0.54312 0.0
C171 C 0.6243 0.50487 0.48525 0.0
C172 C 0.68105 0.55852 0.48658 0.0
C173 C 0.73212 0.56121 0.43373 0.0
C174 C 0.72676 0.51047 0.37858 0.0
C175 C 0.66839 0.45815 0.37625 0.0
C176 C 0.61787 0.45533 0.42936 0.0
C177 C 0.4078 0.54501 0.71489 0.0
C178 C 0.58496 0.58668 0.81013 0.0
C179 C 0.43257 0.75054 0.83467 0.0
C180 C 0.38012 0.78536 0.82283 0.0
C181 C 0.32109 0.77707 0.86601 0.0
C182 C 0.27109 0.80976 0.85432 0.0
C183 C 0.27969 0.85159 0.79948 0.0
C184 C 0.33827 0.85875 0.75554 0.0
C185 C 0.38771 0.82566 0.76674 0.0
C186 C 0.62265 0.72077 0.67442 0.0
C187 C 0.48277 0.69211 0.57881 0.0
O188 O 0.52305 0.52619 0.53703 0.0
O189 O 0.59614 0.50695 0.60777 0.0
O190 O 0.43383 0.5961 0.68595 0.0
O191 O 0.44754 0.50555 0.70715 0.0
O192 O 0.59435 0.56385 0.74363 0.0
O193 O 0.54594 0.62845 0.82511 0.0
O194 O 0.41438 0.68686 0.82341 0.0
O195 O 0.49311 0.77521 0.80878 0.0
O196 O 0.60059 0.66733 0.70119 0.0
O197 O 0.58201 0.75922 0.68881 0.0
O198 O 0.45514 0.70303 0.64195 0.0
O199 O 0.52427 0.6525 0.56963 0.0
H200 H 0.68656 0.59744 0.52933 0.0
H201 H 0.77636 0.60218 0.43699 0.0
H202 H 0.66257 0.41816 0.33466 0.0
H203 H 0.57452 0.41361 0.42778 0.0
H204 H 0.31387 0.74565 0.909 0.0
H205 H 0.22662 0.80355 0.88933 0.0
H206 H 0.3463 0.89046 0.71278 0.0
H207 H 0.43215 0.83206 0.73164 0.0
Sm208 Sm 0.05426 0.58237 0.16433 0.0
Sm209 Sm 0.0345 0.69446 0.07333 0.0
C210 C 0.10552 0.48377 0.19097 0.0
C211 C 0.163 0.46762 0.22587 0.0
C212 C 0.21736 0.45348 0.18354 0.0
C213 C 0.27176 0.43726 0.21427 0.0
C214 C 0.27292 0.4336 0.28819 0.0
C215 C 0.21776 0.44601 0.33057 0.0
C216 C 0.16362 0.46323 0.29983 0.0
C217 C 1.00788 0.67683 0.25246 0.0
C218 C 0.16951 0.72475 0.1692 0.0
C219 C 0.98645 0.78143 1.0168 0.0
C220 C 0.91742 0.77649 0.99283 0.0
C221 C 0.8814 0.8215 1.02254 0.0
C222 C 0.81263 0.81205 1.00806 0.0
C223 C 0.77925 0.75771 0.9631 0.0
C224 C 0.8156 0.71328 0.9325 0.0
C225 C 0.88399 0.72229 0.94762 0.0
C226 C 0.10306 0.60777 1.00547 0.0
C227 C 0.90569 0.56213 0.08709 0.0
O228 O 0.12112 0.51571 0.13417 0.0
O229 O 0.05716 0.50167 0.23051 0.0
O230 O 0.0209 0.67488 0.18647 0.0
O231 O 0.02013 0.62534 0.27601 0.0
O232 O 0.1561 0.66178 0.17881 0.0
O233 O 0.12839 0.75039 0.13536 0.0
O234 O 0.99154 0.78126 0.08578 0.0
O235 O 0.02123 0.74473 0.97953 0.0
O236 O 0.05102 0.59366 1.04602 0.0
O237 O 0.12023 0.67018 0.99889 0.0
O238 O 0.92792 0.62132 1.06523 0.0
O239 O 0.94452 0.53516 0.12365 0.0
H240 H 0.21804 0.45518 0.12625 0.0
H241 H 0.31309 0.42769 0.17994 0.0
H242 H 0.21708 0.4438 0.38776 0.0
H243 H 0.12267 0.47352 0.33412 0.0
H244 H 0.90607 0.86309 1.05827 0.0
H245 H 0.78587 0.8476 1.03141 0.0
H246 H 0.79102 0.67112 0.89746 0.0
H247 H 0.91012 0.68598 0.92507 0.0
loop_
_geom_bond_atom_site_label_1
_geom_bond_atom_site_label_2
_geom_bond_distance
_geom_bond_site_symmetry_2
_ccdc_geom_bond_type
O0 Cd1 2.300 . S
O0 C7 1.275 . S
Cd1 O0 2.300 . S
Cd1 O9 2.381 . S
Cd1 O10 2.378 . S
O2 Cd3 2.385 . S
O2 C7 1.255 . S
Cd3 O2 2.385 . S
Cd3 O4 2.317 . S
O4 Cd3 2.317 . S
O4 C5 1.232 . S
C5 O4 1.232 . S
C5 O6 1.218 . S
O6 C5 1.218 . S
C7 O0 1.275 . S
C7 O2 1.255 . S
C8 O9 1.258 . S
C8 O10 1.256 . S
O9 Cd1 2.381 . S
O9 C8 1.258 . S
O10 Cd1 2.378 . S
O10 C8 1.256 . S
O11 Cd12 2.300 . S
O11 C18 1.275 . S
Cd12 O11 2.300 . S
Cd12 O20 2.381 . S
Cd12 O21 2.378 . S
O13 Cd14 2.385 1_455 S
O13 C18 1.255 . S
Cd14 O13 2.385 1_655 S
Cd14 O15 2.317 1_655 S
O15 Cd14 2.317 1_455 S
O15 C16 1.232 . S
C16 O15 1.232 . S
C16 O17 1.218 1_455 S
O17 C16 1.218 1_655 S
C18 O11 1.275 . S
C18 O13 1.255 . S
C19 O20 1.258 . S
C19 O21 1.256 . S
O20 Cd12 2.381 . S
O20 C19 1.258 . S
O21 Cd12 2.378 . S
O21 C19 1.256 . S
O22 Cd23 2.300 . S
O22 C29 1.275 . S
Cd23 O22 2.300 . S
Cd23 O31 2.381 . S
Cd23 O32 2.378 . S
O24 Cd25 2.385 . S
O24 C29 1.255 . S
Cd25 O24 2.385 . S
Cd25 O26 2.317 . S
O26 Cd25 2.317 . S
O26 C27 1.232 . S
C27 O26 1.232 . S
C27 O28 1.218 . S
O28 C27 1.218 . S
C29 O22 1.275 . S
C29 O24 1.255 . S
C30 O31 1.258 . S
C30 O32 1.256 . S
O31 Cd23 2.381 . S
O31 C30 1.258 . S
O32 Cd23 2.378 . S
O32 C30 1.256 . S
O33 Cd34 2.300 . S
O33 C40 1.275 . S
Cd34 O33 2.300 . S
Cd34 O42 2.381 . S
Cd34 O43 2.378 . S
O35 Cd36 2.385 . S
O35 C40 1.255 . S
Cd36 O35 2.385 . S
Cd36 O37 2.317 . S
O37 Cd36 2.317 . S
O37 C38 1.232 . S
C38 O37 1.232 . S
C38 O39 1.218 . S
O39 C38 1.218 . S
C40 O33 1.275 . S
C40 O35 1.255 . S
C41 O42 1.258 . S
C41 O43 1.256 . S
O42 Cd34 2.381 . S
O42 C41 1.258 . S
O43 Cd34 2.378 . S
O43 C41 1.256 . S
O44 Cd45 2.300 . S
O44 C51 1.275 . S
Cd45 O44 2.300 . S
Cd45 O53 2.381 . S
Cd45 O54 2.378 . S
O46 Cd47 2.385 . S
O46 C51 1.255 . S
Cd47 O46 2.385 . S
Cd47 O48 2.317 . S
O48 Cd47 2.317 . S
O48 C49 1.232 . S
C49 O48 1.232 . S
C49 O50 1.218 . S
O50 C49 1.218 . S
C51 O44 1.275 . S
C51 O46 1.255 . S
C52 O53 1.258 . S
C52 O54 1.256 . S
O53 Cd45 2.381 . S
O53 C52 1.258 . S
O54 Cd45 2.378 . S
O54 C52 1.256 . S
O55 Cd56 2.300 . S
O55 C62 1.275 . S
Cd56 O55 2.300 . S
Cd56 O64 2.381 . S
Cd56 O65 2.378 1_655 S
O57 Cd58 2.385 . S
O57 C62 1.255 . S
Cd58 O57 2.385 . S
Cd58 O59 2.317 . S
O59 Cd58 2.317 . S
O59 C60 1.232 . S
C60 O59 1.232 . S
C60 O61 1.218 . S
O61 C60 1.218 . S
C62 O55 1.275 . S
C62 O57 1.255 . S
C63 O64 1.247 1_455 S
C63 O65 1.258 . S
O64 Cd56 2.381 . S
O64 C63 1.247 1_655 S
O65 Cd56 2.378 1_455 S
O65 C63 1.258 . S
O66 Cd67 2.300 . S
O66 C73 1.275 . S
Cd67 O66 2.300 . S
Cd67 O75 2.381 . S
Cd67 O76 2.378 . S
O68 Cd69 2.385 . S
O68 C73 1.255 . S
Cd69 O68 2.385 . S
Cd69 O70 2.317 . S
O70 Cd69 2.317 . S
O70 C71 1.232 . S
C71 O70 1.232 . S
C71 O72 1.218 . S
O72 C71 1.218 . S
C73 O66 1.275 . S
C73 O68 1.255 . S
C74 O75 1.258 . S
C74 O76 1.256 . S
O75 Cd67 2.381 . S
O75 C74 1.258 . S
O76 Cd67 2.378 . S
O76 C74 1.256 . S
O77 Cd78 2.300 . S
O77 C84 1.275 . S
Cd78 O77 2.300 . S
Cd78 O86 2.381 . S
Cd78 O87 2.378 . S
O79 Cd80 2.385 . S
O79 C84 1.255 . S
Cd80 O79 2.385 . S
Cd80 O81 2.317 . S
O81 Cd80 2.317 . S
O81 C82 1.232 . S
C82 O81 1.232 . S
C82 O83 1.218 . S
O83 C82 1.218 . S
C84 O77 1.275 . S
C84 O79 1.255 . S
C85 O86 1.258 . S
C85 O87 1.256 . S
O86 Cd78 2.381 . S
O86 C85 1.258 . S
O87 Cd78 2.378 . S
O87 C85 1.256 . S
Sm88 C90 2.846 . S
Sm88 O108 2.543 . S
Sm88 O109 2.450 . S
Sm88 O110 2.681 1_545 S
Sm88 O111 2.464 1_545 S
Sm88 O112 2.396 . S
Sm88 O116 2.386 1_455 S
Sm88 O119 2.408 1_445 S
Sm89 C99 2.846 1_545 S
Sm89 O110 2.386 1_645 S
Sm89 O113 2.408 1_655 S
Sm89 O114 2.543 1_545 S
Sm89 O115 2.450 1_545 S
Sm89 O116 2.681 . S
Sm89 O117 2.464 . S
Sm89 O118 2.396 1_545 S
C90 Sm88 2.846 . S
C90 C91 1.506 . S
C90 O108 1.261 . S
C90 O109 1.242 . S
C91 C90 1.506 . S
C91 C92 1.358 . S
C91 C96 1.382 . S
C92 C91 1.358 . S
C92 C93 1.385 . S
C92 H120 0.930 . S
C93 C92 1.385 . S
C93 C94 1.395 . S
C93 H121 0.929 . S
C94 C93 1.395 . S
C94 C95 1.335 . S
C95 C94 1.335 . S
C95 C96 1.398 . S
C95 H122 0.930 . S
C96 C91 1.382 . S
C96 C95 1.398 . S
C96 H123 0.929 . S
C97 O110 1.271 . S
C97 O111 1.251 . S
C98 O112 1.252 . S
C98 O113 1.272 . S
C99 Sm89 2.846 1_565 S
C99 C100 1.506 . S
C99 O114 1.261 . S
C99 O115 1.242 . S
C100 C99 1.506 . S
C100 C101 1.358 . S
C100 C105 1.382 . S
C101 C100 1.358 . S
C101 C102 1.385 . S
C101 H124 0.930 . S
C102 C101 1.385 . S
C102 C103 1.395 . S
C102 H125 0.929 . S
C103 C102 1.395 . S
C103 C104 1.335 . S
C104 C103 1.335 . S
C104 C105 1.398 . S
C104 H126 0.930 . S
C105 C100 1.382 . S
C105 C104 1.398 . S
C105 H127 0.929 . S
C106 O116 1.271 . S
C106 O117 1.251 . S
C107 O118 1.252 . S
C107 O119 1.272 . S
O108 Sm88 2.543 . S
O108 C90 1.261 . S
O109 Sm88 2.450 . S
O109 C90 1.242 . S
O110 Sm88 2.681 1_565 S
O110 Sm89 2.386 1_465 S
O110 C97 1.271 . S
O111 Sm88 2.464 1_565 S
O111 C97 1.251 . S
O112 Sm88 2.396 . S
O112 C98 1.252 . S
O113 Sm89 2.408 1_455 S
O113 C98 1.272 . S
O114 Sm89 2.543 1_565 S
O114 C99 1.261 . S
O115 Sm89 2.450 1_565 S
O115 C99 1.242 . S
O116 Sm88 2.386 1_655 S
O116 Sm89 2.681 . S
O116 C106 1.271 . S
O117 Sm89 2.464 . S
O117 C106 1.251 . S
O118 Sm89 2.396 1_565 S
O118 C107 1.252 . S
O119 Sm88 2.408 1_665 S
O119 C107 1.272 . S
H120 C92 0.930 . S
H121 C93 0.929 . S
H122 C95 0.930 . S
H123 C96 0.929 . S
H124 C101 0.930 . S
H125 C102 0.929 . S
H126 C104 0.930 . S
H127 C105 0.929 . S
Sm128 C130 2.846 . S
Sm128 O148 2.543 . S
Sm128 O149 2.450 . S
Sm128 O150 2.681 . S
Sm128 O151 2.464 1_545 S
Sm128 O152 2.396 . S
Sm128 O156 2.386 . S
Sm128 O159 2.408 . S
Sm129 C139 2.846 1_544 S
Sm129 O150 2.386 . S
Sm129 O153 2.408 . S
Sm129 O154 2.543 1_544 S
Sm129 O155 2.450 1_554 S
Sm129 O156 2.681 . S
Sm129 O157 2.467 . S
Sm129 O158 2.396 1_554 S
C130 Sm128 2.846 . S
C130 C131 1.506 . S
C130 O148 1.261 . S
C130 O149 1.242 . S
C131 C130 1.506 . S
C131 C132 1.358 . S
C131 C136 1.382 . S
C132 C131 1.358 . S
C132 C133 1.385 . S
C132 H160 0.930 . S
C133 C132 1.385 . S
C133 C134 1.395 . S
C133 H161 0.929 . S
C134 C133 1.395 . S
C134 C135 1.335 . S
C135 C134 1.335 . S
C135 C136 1.398 . S
C135 H162 0.930 . S
C136 C131 1.382 . S
C136 C135 1.398 . S
C136 H163 0.929 . S
C137 O150 1.271 1_565 S
C137 O151 1.251 . S
C138 O152 1.252 . S
C138 O153 1.272 . S
C139 Sm129 2.846 1_566 S
C139 C140 1.506 . S
C139 O154 1.261 . S
C139 O155 1.242 1_565 S
C140 C139 1.506 . S
C140 C141 1.358 . S
C140 C145 1.382 . S
C141 C140 1.358 . S
C141 C142 1.385 . S
C141 H164 0.930 . S
C142 C141 1.385 . S
C142 C143 1.395 . S
C142 H165 0.929 . S
C143 C142 1.395 . S
C143 C144 1.335 . S
C144 C143 1.335 . S
C144 C145 1.398 . S
C144 H166 0.930 . S
C145 C140 1.382 . S
C145 C144 1.398 . S
C145 H167 0.929 1_565 S
C146 O156 1.271 . S
C146 O157 1.255 . S
C147 O158 1.252 1_565 S
C147 O159 1.272 1_566 S
O148 Sm128 2.543 . S
O148 C130 1.261 . S
O149 Sm128 2.450 . S
O149 C130 1.242 . S
O150 Sm128 2.681 . S
O150 Sm129 2.386 . S
O150 C137 1.271 1_545 S
O151 Sm128 2.464 1_565 S
O151 C137 1.251 . S
O152 Sm128 2.396 . S
O152 C138 1.252 . S
O153 Sm129 2.408 . S
O153 C138 1.272 . S
O154 Sm129 2.543 1_566 S
O154 C139 1.261 . S
O155 Sm129 2.450 1_556 S
O155 C139 1.242 1_545 S
O156 Sm128 2.386 . S
O156 Sm129 2.681 . S
O156 C146 1.271 . S
O157 Sm129 2.467 . S
O157 C146 1.255 . S
O158 Sm129 2.396 1_556 S
O158 C147 1.252 1_545 S
O159 Sm128 2.408 . S
O159 C147 1.272 1_544 S
H160 C132 0.930 . S
H161 C133 0.929 . S
H162 C135 0.930 . S
H163 C136 0.929 . S
H164 C141 0.930 . S
H165 C142 0.929 . S
H166 C144 0.930 . S
H167 C145 0.929 1_545 S
Sm168 C170 2.846 . S
Sm168 O188 2.543 . S
Sm168 O189 2.450 . S
Sm168 O190 2.681 . S
Sm168 O191 2.464 . S
Sm168 O192 2.396 . S
Sm168 O196 2.386 . S
Sm168 O199 2.408 . S
Sm169 C179 2.846 . S
Sm169 O190 2.386 . S
Sm169 O193 2.408 . S
Sm169 O194 2.543 . S
Sm169 O195 2.450 . S
Sm169 O196 2.681 . S
Sm169 O197 2.464 . S
Sm169 O198 2.396 . S
C170 Sm168 2.846 . S
C170 C171 1.506 . S
C170 O188 1.261 . S
C170 O189 1.242 . S
C171 C170 1.506 . S
C171 C172 1.358 . S
C171 C176 1.382 . S
C172 C171 1.358 . S
C172 C173 1.385 . S
C172 H200 0.930 . S
C173 C172 1.385 . S
C173 C174 1.395 . S
C173 H201 0.929 . S
C174 C173 1.395 . S
C174 C175 1.335 . S
C175 C174 1.335 . S
C175 C176 1.398 . S
C175 H202 0.930 . S
C176 C171 1.382 . S
C176 C175 1.398 . S
C176 H203 0.929 . S
C177 O190 1.271 . S
C177 O191 1.251 . S
C178 O192 1.252 . S
C178 O193 1.272 . S
C179 Sm169 2.846 . S
C179 C180 1.506 . S
C179 O194 1.261 . S
C179 O195 1.242 . S
C180 C179 1.506 . S
C180 C181 1.358 . S
C180 C185 1.382 . S
C181 C180 1.358 . S
C181 C182 1.385 . S
C181 H204 0.930 . S
C182 C181 1.385 . S
C182 C183 1.395 . S
C182 H205 0.929 . S
C183 C182 1.395 . S
C183 C184 1.335 . S
C184 C183 1.335 . S
C184 C185 1.398 . S
C184 H206 0.930 . S
C185 C180 1.382 . S
C185 C184 1.398 . S
C185 H207 0.929 . S
C186 O196 1.271 . S
C186 O197 1.251 . S
C187 O198 1.252 . S
C187 O199 1.272 . S
O188 Sm168 2.543 . S
O188 C170 1.261 . S
O189 Sm168 2.450 . S
O189 C170 1.242 . S
O190 Sm168 2.681 . S
O190 Sm169 2.386 . S
O190 C177 1.271 . S
O191 Sm168 2.464 . S
O191 C177 1.251 . S
O192 Sm168 2.396 . S
O192 C178 1.252 . S
O193 Sm169 2.408 . S
O193 C178 1.272 . S
O194 Sm169 2.543 . S
O194 C179 1.261 . S
O195 Sm169 2.450 . S
O195 C179 1.242 . S
O196 Sm168 2.386 . S
O196 Sm169 2.681 . S
O196 C186 1.271 . S
O197 Sm169 2.464 . S
O197 C186 1.251 . S
O198 Sm169 2.396 . S
O198 C187 1.252 . S
O199 Sm168 2.408 . S
O199 C187 1.272 . S
H200 C172 0.930 . S
H201 C173 0.929 . S
H202 C175 0.930 . S
H203 C176 0.929 . S
H204 C181 0.930 . S
H205 C182 0.929 . S
H206 C184 0.930 . S
H207 C185 0.929 . S
Sm208 C210 2.846 . S
Sm208 O228 2.543 . S
Sm208 O229 2.450 . S
Sm208 O230 2.681 1_455 S
Sm208 O231 2.464 1_455 S
Sm208 O232 2.396 . S
Sm208 O236 2.386 1_554 S
Sm208 O239 2.408 1_455 S
Sm209 C219 2.846 1_455 S
Sm209 O230 2.386 1_456 S
Sm209 O233 2.408 1_556 S
Sm209 O234 2.543 1_455 S
Sm209 O235 2.450 1_455 S
Sm209 O236 2.681 . S
Sm209 O237 2.464 . S
Sm209 O238 2.396 1_455 S
C210 Sm208 2.846 . S
C210 C211 1.506 . S
C210 O228 1.261 . S
C210 O229 1.242 . S
C211 C210 1.506 . S
C211 C212 1.358 . S
C211 C216 1.382 . S
C212 C211 1.358 . S
C212 C213 1.385 . S
C212 H240 0.930 . S
C213 C212 1.385 . S
C213 C214 1.395 . S
C213 H241 0.929 . S
C214 C213 1.395 . S
C214 C215 1.335 . S
C215 C214 1.335 . S
C215 C216 1.398 . S
C215 H242 0.930 . S
C216 C211 1.382 . S
C216 C215 1.398 . S
C216 H243 0.929 . S
C217 O230 1.271 . S
C217 O231 1.251 . S
C218 O232 1.252 . S
C218 O233 1.272 . S
C219 Sm209 2.846 1_655 S
C219 C220 1.506 . S
C219 O234 1.261 . S
C219 O235 1.242 . S
C220 C219 1.506 . S
C220 C221 1.358 . S
C220 C225 1.382 . S
C221 C220 1.358 . S
C221 C222 1.385 . S
C221 H244 0.930 . S
C222 C221 1.385 . S
C222 C223 1.395 . S
C222 H245 0.929 . S
C223 C222 1.395 . S
C223 C224 1.335 . S
C224 C223 1.335 . S
C224 C225 1.398 . S
C224 H246 0.930 . S
C225 C220 1.382 . S
C225 C224 1.398 . S
C225 H247 0.929 . S
C226 O236 1.271 . S
C226 O237 1.251 . S
C227 O238 1.252 . S
C227 O239 1.272 1_556 S
O228 Sm208 2.543 . S
O228 C210 1.261 . S
O229 Sm208 2.450 . S
O229 C210 1.242 . S
O230 Sm208 2.681 1_655 S
O230 Sm209 2.386 1_654 S
O230 C217 1.271 . S
O231 Sm208 2.464 1_655 S
O231 C217 1.251 . S
O232 Sm208 2.396 . S
O232 C218 1.252 . S
O233 Sm209 2.408 1_554 S
O233 C218 1.272 . S
O234 Sm209 2.543 1_655 S
O234 C219 1.261 . S
O235 Sm209 2.450 1_655 S
O235 C219 1.242 . S
O236 Sm208 2.386 1_556 S
O236 Sm209 2.681 . S
O236 C226 1.271 . S
O237 Sm209 2.464 . S
O237 C226 1.251 . S
O238 Sm209 2.396 1_655 S
O238 C227 1.252 . S
O239 Sm208 2.408 1_655 S
O239 C227 1.272 1_554 S
H240 C212 0.930 . S
H241 C213 0.929 . S
H242 C215 0.930 . S
H243 C216 0.929 . S
H244 C221 0.930 . S
H245 C222 0.929 . S
H246 C224 0.930 . S
H247 C225 0.929 . S
C5 C94 1.506 . S
C18 C143 1.397 . S
C178 C30 3.387 . S
C41 C217 3.281 . S
C138 C7 3.132 . S
C97 C16 1.870 . S
C227 C29 2.585 . S
C186 C38 1.561 . S
C8 C214 1.985 . S
C146 C27 3.430 1_554 S
C40 C107 3.718 . S
C19 C183 2.583 . S
C103 C51 1.529 . S
C62 C134 2.615 . S
C74 C187 3.791 . S
C84 C226 3.498 . S
C49 C147 2.813 . S
C106 C63 1.831 1_655 S
C218 C71 2.240 . S
C177 C85 2.232 . S
C52 C223 2.607 . S
C137 C73 4.075 . S
C98 C82 2.956 . S
C60 C174 2.368 . S
