# Generated by pormake.
# Topology ocu, (6,8)-cn, num edge types: 1
# Building blocks:
#     Node 0, Type 0, BuildingBlock: BETDEL_clean_sbu_0, # of connection points: 6
#     Node 1, Type 0, BuildingBlock: BETDEL_clean_sbu_0, # of connection points: 6
#     Node 2, Type 0, BuildingBlock: BETDEL_clean_sbu_0, # of connection points: 6
#     Node 3, Type 0, BuildingBlock: BETDEL_clean_sbu_0, # of connection points: 6
#     Node 4, Type 0, BuildingBlock: BETDEL_clean_sbu_0, # of connection points: 6
#     Node 5, Type 0, BuildingBlock: BETDEL_clean_sbu_0, # of connection points: 6
#     Node 6, Type 0, BuildingBlock: BETDEL_clean_sbu_0, # of connection points: 6
#     Node 7, Type 0, BuildingBlock: BETDEL_clean_sbu_0, # of connection points: 6
#     Node 8, Type 1, BuildingBlock: GIZVER_clean_sbu_0, # of connection points: 8
#     Node 9, Type 1, BuildingBlock: GIZVER_clean_sbu_0, # of connection points: 8
#     Node 10, Type 1, BuildingBlock: GIZVER_clean_sbu_0, # of connection points: 8
#     Node 11, Type 1, BuildingBlock: GIZVER_clean_sbu_0, # of connection points: 8
#     Node 12, Type 1, BuildingBlock: GIZVER_clean_sbu_0, # of connection points: 8
#     Node 13, Type 1, BuildingBlock: GIZVER_clean_sbu_0, # of connection points: 8
#     Edge 14, Type (0, 1), BuildingBlock: AJUNOK_clean_linker_0, # of connection points: 2
#     Edge 15, Type (0, 1), BuildingBlock: AJUNOK_clean_linker_0, # of connection points: 2
#     Edge 16, Type (0, 1), BuildingBlock: AJUNOK_clean_linker_0, # of connection points: 2
#     Edge 17, Type (0, 1), BuildingBlock: AJUNOK_clean_linker_0, # of connection points: 2
#     Edge 18, Type (0, 1), BuildingBlock: AJUNOK_clean_linker_0, # of connection points: 2
#     Edge 19, Type (0, 1), BuildingBlock: AJUNOK_clean_linker_0, # of connection points: 2
#     Edge 20, Type (0, 1), BuildingBlock: AJUNOK_clean_linker_0, # of connection points: 2
#     Edge 21, Type (0, 1), BuildingBlock: AJUNOK_clean_linker_0, # of connection points: 2
#     Edge 22, Type (0, 1), BuildingBlock: AJUNOK_clean_linker_0, # of connection points: 2
#     Edge 23, Type (0, 1), BuildingBlock: AJUNOK_clean_linker_0, # of connection points: 2
#     Edge 24, Type (0, 1), BuildingBlock: AJUNOK_clean_linker_0, # of connection points: 2
#     Edge 25, Type (0, 1), BuildingBlock: AJUNOK_clean_linker_0, # of connection points: 2
#     Edge 26, Type (0, 1), BuildingBlock: AJUNOK_clean_linker_0, # of connection points: 2
#     Edge 27, Type (0, 1), BuildingBlock: AJUNOK_clean_linker_0, # of connection points: 2
#     Edge 28, Type (0, 1), BuildingBlock: AJUNOK_clean_linker_0, # of connection points: 2
#     Edge 29, Type (0, 1), BuildingBlock: AJUNOK_clean_linker_0, # of connection points: 2
#     Edge 30, Type (0, 1), BuildingBlock: AJUNOK_clean_linker_0, # of connection points: 2
#     Edge 31, Type (0, 1), BuildingBlock: AJUNOK_clean_linker_0, # of connection points: 2
#     Edge 32, Type (0, 1), BuildingBlock: AJUNOK_clean_linker_0, # of connection points: 2
#     Edge 33, Type (0, 1), BuildingBlock: AJUNOK_clean_linker_0, # of connection points: 2
#     Edge 34, Type (0, 1), BuildingBlock: AJUNOK_clean_linker_0, # of connection points: 2
#     Edge 35, Type (0, 1), BuildingBlock: AJUNOK_clean_linker_0, # of connection points: 2
#     Edge 36, Type (0, 1), BuildingBlock: AJUNOK_clean_linker_0, # of connection points: 2
#     Edge 37, Type (0, 1), BuildingBlock: AJUNOK_clean_linker_0, # of connection points: 2
#     Edge 38, Type (0, 1), BuildingBlock: AJUNOK_clean_linker_0, # of connection points: 2
#     Edge 39, Type (0, 1), BuildingBlock: AJUNOK_clean_linker_0, # of connection points: 2
#     Edge 40, Type (0, 1), BuildingBlock: AJUNOK_clean_linker_0, # of connection points: 2
#     Edge 41, Type (0, 1), BuildingBlock: AJUNOK_clean_linker_0, # of connection points: 2
#     Edge 42, Type (0, 1), BuildingBlock: AJUNOK_clean_linker_0, # of connection points: 2
#     Edge 43, Type (0, 1), BuildingBlock: AJUNOK_clean_linker_0, # of connection points: 2
#     Edge 44, Type (0, 1), BuildingBlock: AJUNOK_clean_linker_0, # of connection points: 2
#     Edge 45, Type (0, 1), BuildingBlock: AJUNOK_clean_linker_0, # of connection points: 2
#     Edge 46, Type (0, 1), BuildingBlock: AJUNOK_clean_linker_0, # of connection points: 2
#     Edge 47, Type (0, 1), BuildingBlock: AJUNOK_clean_linker_0, # of connection points: 2
#     Edge 48, Type (0, 1), BuildingBlock: AJUNOK_clean_linker_0, # of connection points: 2
#     Edge 49, Type (0, 1), BuildingBlock: AJUNOK_clean_linker_0, # of connection points: 2
#     Edge 50, Type (0, 1), BuildingBlock: AJUNOK_clean_linker_0, # of connection points: 2
#     Edge 51, Type (0, 1), BuildingBlock: AJUNOK_clean_linker_0, # of connection points: 2
#     Edge 52, Type (0, 1), BuildingBlock: AJUNOK_clean_linker_0, # of connection points: 2
#     Edge 53, Type (0, 1), BuildingBlock: AJUNOK_clean_linker_0, # of connection points: 2
#     Edge 54, Type (0, 1), BuildingBlock: AJUNOK_clean_linker_0, # of connection points: 2
#     Edge 55, Type (0, 1), BuildingBlock: AJUNOK_clean_linker_0, # of connection points: 2
#     Edge 56, Type (0, 1), BuildingBlock: AJUNOK_clean_linker_0, # of connection points: 2
#     Edge 57, Type (0, 1), BuildingBlock: AJUNOK_clean_linker_0, # of connection points: 2
#     Edge 58, Type (0, 1), BuildingBlock: AJUNOK_clean_linker_0, # of connection points: 2
#     Edge 59, Type (0, 1), BuildingBlock: AJUNOK_clean_linker_0, # of connection points: 2
#     Edge 60, Type (0, 1), BuildingBlock: AJUNOK_clean_linker_0, # of connection points: 2
#     Edge 61, Type (0, 1), BuildingBlock: AJUNOK_clean_linker_0, # of connection points: 2
# Relax obj value: 0.136
# Max RMSD: 0.263
# Mean RMSD: 0.182
data_MOF--net-ocu--node1-BETDEL_clean_sbu_0--node2-GIZVER_clean_sbu_0--edge1-AJUNOK_clean_linker_0
_symmetry_space_group_name_H-M    P1
_symmetry_Int_Tables_number       1
_symmetry_cell_setting            triclinic
loop_
_symmetry_equiv_pos_as_xyz
'x, y, z'
_cell_length_a     31.284275
_cell_length_b     33.031812
_cell_length_c     22.912813
_cell_angle_alpha  91.16424
_cell_angle_beta   92.686533
_cell_angle_gamma 109.92714
loop_
_atom_site_label
_atom_site_type_symbol
_atom_site_fract_x
_atom_site_fract_y
_atom_site_fract_z
_atom_type_partial_charge
Dy0 Dy 0.30888 0.27375 0.30178 0.0
C1 C 0.21437 0.30463 0.11271 0.0
C2 C 0.34552 0.23768 0.38807 0.0
Dy3 Dy 0.25337 0.26851 0.19669 0.0
O4 O 0.36812 0.27159 0.36029 0.0
O5 O 0.30277 0.22679 0.37207 0.0
O6 O 0.34974 0.3432 0.2893 0.0
O7 O 0.3264 0.30087 0.21578 0.0
C8 C 0.34744 0.33988 0.23228 0.0
C9 C 0.2171 0.20104 0.26479 0.0
O10 O 0.29414 0.2317 0.15433 0.0
O11 O 0.32827 0.22595 0.24339 0.0
O12 O 0.1943 0.26763 0.13553 0.0
O13 O 0.25653 0.31908 0.13225 0.0
O14 O 0.21461 0.19844 0.20777 0.0
O15 O 0.2362 0.24019 0.28207 0.0
O16 O 0.26869 0.31164 0.34388 0.0
O17 O 0.23172 0.31405 0.25575 0.0
C18 C 0.32141 0.21627 0.18613 0.0
C19 C 0.23941 0.32489 0.31254 0.0
Dy20 Dy 0.80701 0.244 0.27131 0.0
C21 C 0.6847 0.32514 0.22461 0.0
C22 C 0.85814 0.19621 0.3042 0.0
Dy23 Dy 0.74997 0.29545 0.26247 0.0
O24 O 0.81498 0.1811 0.29003 0.0
O25 O 0.87385 0.23762 0.29977 0.0
O26 O 0.78464 0.21756 0.17853 0.0
O27 O 0.7386 0.2304 0.23189 0.0
C28 C 0.74359 0.21832 0.18123 0.0
C29 C 0.81019 0.32318 0.35428 0.0
O30 O 0.70629 0.23884 0.30795 0.0
O31 O 0.76741 0.22632 0.3507 0.0
O32 O 0.70127 0.32958 0.27821 0.0
O33 O 0.70606 0.3074 0.19098 0.0
O34 O 0.76832 0.32227 0.35373 0.0
O35 O 0.81757 0.30961 0.30508 0.0
O36 O 0.85373 0.29446 0.22105 0.0
O37 O 0.80511 0.33231 0.20289 0.0
C38 C 0.72345 0.21959 0.34756 0.0
C39 C 0.84482 0.32666 0.19681 0.0
Dy40 Dy 0.75566 0.77568 0.30672 0.0
C41 C 0.83443 0.72674 0.1137 0.0
C42 C 0.72741 0.81768 0.39256 0.0
Dy43 Dy 0.80335 0.76794 0.19698 0.0
O44 O 0.70792 0.7772 0.37655 0.0
O45 O 0.76371 0.83406 0.36374 0.0
O46 O 0.70597 0.70781 0.29024 0.0
O47 O 0.7334 0.74623 0.22033 0.0
C48 C 0.70942 0.70897 0.23375 0.0
C49 C 0.85123 0.83323 0.27154 0.0
O50 O 0.7581 0.80193 0.15542 0.0
O51 O 0.73698 0.82167 0.24426 0.0
O52 O 0.8492 0.76828 0.12417 0.0
O53 O 0.80113 0.70855 0.14657 0.0
O54 O 0.85397 0.83485 0.21504 0.0
O55 O 0.82598 0.79626 0.28399 0.0
O56 O 0.80047 0.74053 0.34729 0.0
O57 O 0.82157 0.72156 0.25798 0.0
C58 C 0.73739 0.82382 0.18606 0.0
C59 C 0.82081 0.71858 0.31589 0.0
Dy60 Dy 0.31647 0.74773 0.23551 0.0
C61 C 0.21937 0.85051 0.30859 0.0
C62 C 0.35728 0.69906 0.18035 0.0
Dy63 Dy 0.25526 0.79985 0.25065 0.0
O64 O 0.37048 0.71754 0.23193 0.0
O65 O 0.32185 0.70692 0.15952 0.0
O66 O 0.35386 0.77432 0.32321 0.0
O67 O 0.32585 0.81091 0.27155 0.0
C68 C 0.34514 0.81014 0.32035 0.0
C69 C 0.22591 0.73979 0.16364 0.0
O70 O 0.30641 0.84601 0.19715 0.0
O71 O 0.34055 0.79742 0.16768 0.0
O72 O 0.2047 0.83351 0.25653 0.0
O73 O 0.25276 0.83926 0.32894 0.0
O74 O 0.21983 0.77694 0.16304 0.0
O75 O 0.24488 0.73662 0.21229 0.0
O76 O 0.26687 0.70169 0.28959 0.0
O77 O 0.22698 0.74659 0.31421 0.0
C78 C 0.33557 0.83562 0.16527 0.0
C79 C 0.23489 0.70964 0.31874 0.0
Dy80 Dy 0.31379 0.73708 0.76195 0.0
C81 C 0.19822 0.826 0.71098 0.0
C82 C 0.37687 0.70517 0.80103 0.0
Dy83 Dy 0.25575 0.78669 0.7505 0.0
O84 O 0.36086 0.70132 0.74728 0.0
O85 O 0.35652 0.72424 0.83423 0.0
O86 O 0.29755 0.71096 0.67017 0.0
O87 O 0.24639 0.72116 0.7178 0.0
C88 C 0.25527 0.70863 0.66873 0.0
C89 C 0.31944 0.81512 0.84097 0.0
O90 O 0.20735 0.73227 0.79265 0.0
O91 O 0.25908 0.70039 0.82208 0.0
O92 O 0.21524 0.82977 0.76428 0.0
O93 O 0.2133 0.80162 0.67911 0.0
O94 O 0.27855 0.81655 0.8418 0.0
O95 O 0.32436 0.80234 0.79074 0.0
O96 O 0.36006 0.79306 0.71749 0.0
O97 O 0.30258 0.8147 0.68032 0.0
C98 C 0.21771 0.70309 0.82263 0.0
C99 C 0.34518 0.81625 0.68109 0.0
Dy100 Dy 0.26208 0.26956 0.79782 0.0
C101 C 0.33214 0.21378 0.60326 0.0
C102 C 0.23144 0.30854 0.88437 0.0
Dy103 Dy 0.30813 0.26013 0.68751 0.0
O104 O 0.21612 0.26744 0.87092 0.0
O105 O 0.26512 0.32769 0.85238 0.0
O106 O 0.21047 0.20278 0.78043 0.0
O107 O 0.23812 0.24092 0.71108 0.0
C108 C 0.21234 0.20426 0.72384 0.0
C109 C 0.35664 0.32656 0.75974 0.0
O110 O 0.26418 0.29589 0.64739 0.0
O111 O 0.2452 0.317 0.73693 0.0
O112 O 0.35329 0.25458 0.61641 0.0
O113 O 0.29652 0.19968 0.63383 0.0
O114 O 0.3593 0.32751 0.70306 0.0
O115 O 0.33173 0.28969 0.77324 0.0
O116 O 0.30828 0.23634 0.83931 0.0
O117 O 0.32798 0.21525 0.7505 0.0
C118 C 0.24493 0.3188 0.67874 0.0
C119 C 0.32869 0.21407 0.80879 0.0
Dy120 Dy 0.82102 0.23404 0.72653 0.0
C121 C 0.71338 0.31407 0.84038 0.0
C122 C 0.85005 0.1953 0.64145 0.0
Dy123 Dy 0.76083 0.2806 0.76935 0.0
O124 O 0.85419 0.18788 0.69675 0.0
O125 O 0.83085 0.22387 0.633 0.0
O126 O 0.86911 0.2515 0.8055 0.0
O127 O 0.83411 0.29276 0.7791 0.0
C128 C 0.85979 0.28609 0.81903 0.0
C129 C 0.72497 0.22433 0.67732 0.0
O130 O 0.80177 0.33302 0.71441 0.0
O131 O 0.84203 0.29366 0.67294 0.0
O132 O 0.75265 0.33566 0.82096 0.0
O133 O 0.69936 0.27487 0.8191 0.0
O134 O 0.71508 0.25915 0.68581 0.0
O135 O 0.74913 0.22081 0.72042 0.0
O136 O 0.77153 0.18421 0.77863 0.0
O137 O 0.76599 0.23679 0.84015 0.0
C138 C 0.83224 0.32958 0.67822 0.0
C139 C 0.75751 0.19554 0.82799 0.0
Dy140 Dy 0.8173 0.76934 0.80316 0.0
C141 C 0.71842 0.79412 0.61248 0.0
C142 C 0.85583 0.73307 0.88797 0.0
Dy143 Dy 0.76039 0.76184 0.69748 0.0
O144 O 0.87696 0.76868 0.86247 0.0
O145 O 0.81316 0.72028 0.87059 0.0
O146 O 0.85584 0.83917 0.79057 0.0
O147 O 0.83304 0.79688 0.71681 0.0
C148 C 0.85245 0.83619 0.7335 0.0
C149 C 0.72551 0.69635 0.76954 0.0
O150 O 0.80189 0.72588 0.65549 0.0
O151 O 0.83781 0.72298 0.74435 0.0
O152 O 0.69903 0.75898 0.63975 0.0
O153 O 0.76147 0.80858 0.62805 0.0
O154 O 0.72295 0.69156 0.7127 0.0
O155 O 0.74464 0.73594 0.78393 0.0
O156 O 0.77571 0.8059 0.84427 0.0
O157 O 0.73933 0.8085 0.75537 0.0
C158 C 0.83053 0.71234 0.68749 0.0
C159 C 0.74679 0.81923 0.81225 0.0
Co160 Co 0.07427 0.94011 0.49173 0.0
Co161 Co 0.07371 0.97565 0.59177 0.0
Co162 Co 0.03436 0.01798 0.49653 0.0
O163 O 0.08178 0.99604 0.51964 0.0
H164 H 0.112 0.01682 0.51684 0.0
O165 O 0.987 0.03878 0.47177 0.0
Co166 Co 0.99042 0.09517 0.48786 0.0
Co167 Co 0.99755 0.05065 0.39372 0.0
H168 H 0.95704 0.01763 0.47497 0.0
O169 O 0.12139 0.97281 0.63409 0.0
O170 O 0.07154 0.92029 0.57386 0.0
O171 O 1.02123 0.97507 0.63114 0.0
O172 O 0.9851 0.97445 0.54542 0.0
O173 O 0.0525 0.05887 0.56433 0.0
O174 O 0.98609 0.14613 0.50141 0.0
O175 O 0.93123 0.08243 0.47507 0.0
O176 O 0.05526 0.11499 0.51183 0.0
O177 O 0.08365 0.06223 0.44922 0.0
O178 O 0.05229 0.05056 0.3597 0.0
O179 O 0.99999 0.10659 0.40339 0.0
O180 O 0.95189 0.05224 0.34471 0.0
C181 C 0.11689 0.91312 0.46426 0.0
C182 C 0.99674 0.93806 0.43553 0.0
C183 C 0.98448 0.96543 0.60008 0.0
C184 C 0.10472 0.93293 0.61442 0.0
C185 C 0.94333 0.12243 0.4932 0.0
C186 C 0.06806 0.09919 0.55741 0.0
C187 C 0.08715 0.06667 0.39375 0.0
C188 C 0.96628 0.09216 0.36391 0.0
O189 O 0.07368 0.89105 0.46395 0.0
O190 O 0.1337 0.95037 0.49221 0.0
O191 O 1.01563 0.97778 0.42774 0.0
O192 O 1.00916 0.92222 0.48079 0.0
Co193 Co 0.58807 0.93961 0.95871 0.0
Co194 Co 0.58884 0.96318 0.063 0.0
Co195 Co 0.53721 0.02209 0.99115 0.0
O196 O 0.58875 0.99499 0.99726 0.0
H197 H 0.61833 0.01696 0.99495 0.0
O198 O 0.48538 0.04927 0.98544 0.0
Co199 Co 0.48122 0.10046 0.03292 0.0
Co200 Co 0.49506 0.09132 0.93089 0.0
H201 H 0.45578 0.02742 0.97764 0.0
O202 O 0.64182 0.96541 0.10308 0.0
O203 O 0.60011 0.91378 0.03665 0.0
O204 O 0.53314 0.94662 0.10075 0.0
O205 O 0.50075 0.98907 0.0555 0.0
O206 O 0.57476 0.0701 0.04663 0.0
O207 O 0.47427 0.14356 0.07807 0.0
O208 O 0.41768 0.08562 0.04142 0.0
O209 O 0.54704 0.12453 0.03561 0.0
O210 O 0.57306 0.05425 0.92491 0.0
O211 O 0.55705 0.11449 0.91111 0.0
O212 O 0.47327 0.13333 0.96006 0.0
O213 O 0.44824 0.0896 0.87908 0.0
C214 C 0.63506 0.91343 0.9197 0.0
C215 C 0.49155 0.9331 0.94344 0.0
C216 C 0.49996 0.95992 0.09157 0.0
C217 C 0.63347 0.92766 0.07783 0.0
C218 C 0.43089 0.12208 0.07285 0.0
C219 C 0.57933 0.11019 0.04963 0.0
C220 C 0.58378 0.09306 0.90854 0.0
C221 C 0.44644 0.1216 0.91177 0.0
O222 O 0.59159 0.89211 0.92015 0.0
O223 O 0.65014 0.95224 0.94485 0.0
O224 O 0.5003 0.97353 0.93619 0.0
O225 O 0.52187 0.9179 0.96367 0.0
Co226 Co 0.07488 0.43418 0.98617 0.0
Co227 Co 0.08915 0.47567 0.0894 0.0
Co228 Co 1.03084 0.51452 0.00544 0.0
O229 O 0.08201 0.49161 0.01221 0.0
H230 H 0.11033 0.51229 0.00096 0.0
O231 O 0.98032 0.5383 0.99879 0.0
Co232 Co 0.9895 0.59619 0.02639 0.0
Co233 Co 0.97324 0.55593 0.92268 0.0
H234 H 0.95183 0.51798 0.01018 0.0
O235 O 0.14284 0.46707 0.11753 0.0
O236 O 0.08279 0.41948 0.06786 0.0
O237 O 0.03967 0.47043 0.13892 0.0
O238 O 0.99365 0.4757 0.06475 0.0
O239 O 0.06455 0.55949 0.06681 0.0
O240 O 0.99208 0.6478 0.05227 0.0
O241 O 0.93056 0.58761 0.03819 0.0
O242 O 0.05316 0.61293 0.0195 0.0
O243 O 0.06771 0.55296 0.94581 0.0
O244 O 1.02174 0.55938 0.87219 0.0
O245 O 0.98128 0.61258 0.94523 0.0
O246 O 0.92018 0.56624 0.89578 0.0
C247 C 0.11749 0.40272 0.96062 0.0
C248 C 0.98848 0.42926 0.95318 0.0
C249 C 1.00004 0.46368 0.1159 0.0
C250 C 0.12247 0.42859 0.09486 0.0
C251 C 0.94827 0.62863 0.05271 0.0
C252 C 0.07681 0.59927 0.05536 0.0
C253 C 0.06129 0.56493 0.89466 0.0
C254 C 0.94163 0.60457 0.91835 0.0
O255 O 0.07395 0.38264 0.96241 0.0
O256 O 0.13433 0.44382 0.97499 0.0
O257 O 0.99754 0.46923 0.94409 0.0
O258 O 1.01142 0.41705 0.99184 0.0
Co259 Co 0.57086 0.42638 0.99027 0.0
Co260 Co 0.57343 0.46831 0.08733 0.0
Co261 Co 0.53865 0.51182 0.99761 0.0
O262 O 0.58313 0.48443 0.01201 0.0
H263 H 0.61411 0.50319 0.00795 0.0
O264 O 0.49352 0.53858 0.98379 0.0
Co265 Co 0.50386 0.59368 0.01569 0.0
Co266 Co 0.50132 0.56116 0.91274 0.0
H267 H 0.46272 0.51889 0.98622 0.0
O268 O 0.61714 0.45973 0.13021 0.0
O269 O 0.56003 0.41039 0.07332 0.0
O270 O 0.52546 0.47673 0.13111 0.0
O271 O 0.48928 0.46848 0.04524 0.0
O272 O 0.56493 0.54925 0.06934 0.0
O273 O 0.50729 0.64338 0.04753 0.0
O274 O 0.4451 0.58686 0.01683 0.0
O275 O 0.56766 0.60725 0.02267 0.0
O276 O 0.5879 0.55533 0.94973 0.0
O277 O 0.55115 0.56086 0.86737 0.0
O278 O 0.50765 0.61643 0.93571 0.0
O279 O 0.45429 0.56707 0.87407 0.0
C280 C 0.61035 0.39101 0.97656 0.0
C281 C 0.49551 0.43424 0.92944 0.0
C282 C 0.48838 0.46354 0.10069 0.0
C283 C 0.59094 0.42029 0.11663 0.0
C284 C 0.46344 0.62383 0.04517 0.0
C285 C 0.58216 0.58972 0.06429 0.0
C286 C 0.5882 0.5673 0.89653 0.0
C287 C 0.47518 0.60634 0.89443 0.0
O288 O 0.56631 0.37353 0.9693 0.0
O289 O 0.62867 0.4299 0.99951 0.0
O290 O 0.5131 0.47484 0.92609 0.0
O291 O 0.50763 0.41566 0.97215 0.0
Co292 Co 0.11644 0.46744 0.5318 0.0
Co293 Co 0.09054 0.46663 0.42729 0.0
Co294 Co 1.03348 0.51939 0.49892 0.0
O295 O 0.05787 0.46781 0.49285 0.0
H296 H 0.03366 0.4405 0.4959 0.0
O297 O 1.00958 0.57118 0.50411 0.0
Co298 Co 0.95067 0.57134 0.46617 0.0
Co299 Co 0.97934 0.57396 0.57068 0.0
H300 H 0.03378 0.59833 0.49996 0.0
O301 O 0.08785 0.41583 0.39017 0.0
O302 O 0.14353 0.45593 0.45454 0.0
O303 O 0.10961 0.51933 0.38796 0.0
O304 O 0.07588 0.55598 0.44118 0.0
O305 O 0.98459 0.49177 0.43716 0.0
O306 O 0.90002 0.57458 0.4283 0.0
O307 O 0.96443 0.62981 0.45132 0.0
O308 O 0.92759 0.50973 0.4724 0.0
O309 O 0.99049 0.48306 0.55696 0.0
O310 O 0.96168 0.52265 0.61267 0.0
O311 O 0.92536 0.58284 0.54397 0.0
O312 O 0.98206 0.62526 0.60571 0.0
C313 C 0.14351 0.42294 0.5707 0.0
C314 C 0.12459 0.5561 0.55288 0.0
C315 C 0.10306 0.554 0.40208 0.0
C316 C 0.1285 0.42415 0.41433 0.0
C317 C 0.92286 0.61554 0.42693 0.0
C318 C 0.94252 0.48235 0.44774 0.0
C319 C 0.96477 0.48675 0.59728 0.0
C320 C 0.94069 0.61518 0.58314 0.0
O321 O 0.16644 0.46395 0.57086 0.0
O322 O 0.10219 0.40903 0.5456 0.0
O323 O 0.08214 0.54704 0.56101 0.0
O324 O 0.13978 0.52944 0.52671 0.0
Co325 Co 0.61012 0.96917 0.54516 0.0
Co326 Co 0.58885 0.97097 0.43464 0.0
Co327 Co 0.53067 1.01534 0.50591 0.0
O328 O 0.55751 0.96961 0.50105 0.0
H329 H 0.53437 0.94171 0.50157 0.0
O330 O 0.50381 0.06133 0.51066 0.0
Co331 Co 0.45072 0.06125 0.46626 0.0
Co332 Co 0.47236 0.05992 0.57741 0.0
H333 H 0.5272 0.08936 0.5093 0.0
O334 O 0.59093 0.92076 0.40218 0.0
O335 O 0.63994 0.96534 0.47072 0.0
O336 O 0.60806 0.02317 0.39523 0.0
O337 O 0.57433 0.05576 0.45449 0.0
O338 O 0.48867 0.98595 0.43815 0.0
O339 O 0.40371 0.06744 0.42606 0.0
O340 O 0.46747 0.11896 0.46323 0.0
O341 O 0.42647 0.99926 0.46173 0.0
O342 O 0.48727 0.9752 0.5575 0.0
O343 O 0.45597 1.00845 0.61944 0.0
O344 O 0.42041 0.06354 0.54048 0.0
O345 O 0.46777 0.10965 0.60872 0.0
C346 C 0.63231 0.92145 0.57473 0.0
C347 C 0.61565 0.05679 0.57143 0.0
C348 C 0.60086 0.05645 0.41382 0.0
C349 C 0.6277 0.93077 0.43626 0.0
C350 C 0.42724 0.10806 0.43644 0.0
C351 C 0.44554 0.97422 0.44022 0.0
C352 C 0.46306 0.97521 0.60047 0.0
C353 C 0.43105 0.09816 0.57448 0.0
O354 O 0.65706 0.96184 0.58517 0.0
O355 O 0.5921 0.91165 0.54842 0.0
O356 O 0.57252 0.04397 0.57401 0.0
O357 O 0.63504 0.03197 0.54934 0.0
C358 C 0.18072 0.17261 0.36019 0.0
C359 C 0.18983 0.16508 0.30184 0.0
C360 C 0.15049 0.13966 0.39236 0.0
C361 C 0.12818 0.09781 0.36751 0.0
H362 H 0.19542 0.20465 0.38033 0.0
H363 H 0.14239 0.14779 0.4355 0.0
S364 S 0.14531 0.05952 0.21989 0.0
N365 N 0.17764 0.11088 0.22363 0.0
N366 N 0.1213 0.04996 0.28316 0.0
C367 C 0.13945 0.08939 0.31079 0.0
C368 C 0.17005 0.12264 0.2783 0.0
C369 C 0.93299 0.18808 0.32652 0.0
C370 C 0.88526 0.16984 0.32136 0.0
C371 C 0.95945 0.16272 0.34065 0.0
C372 C 0.9387 0.11855 0.34898 0.0
H373 H 0.94997 0.22196 0.31916 0.0
H374 H 0.99621 0.17752 0.34423 0.0
S375 S 0.81489 0.05686 0.34765 0.0
N376 N 0.81823 0.10615 0.33091 0.0
N377 N 0.86804 0.05829 0.35642 0.0
C378 C 0.89101 0.10025 0.34554 0.0
C379 C 0.86418 0.12605 0.33198 0.0
C380 C 0.89313 0.84725 0.36988 0.0
C381 C 0.88652 0.86169 0.31377 0.0
C382 C 0.92894 0.87183 0.40894 0.0
C383 C 0.95914 0.91209 0.39372 0.0
H384 H 0.8711 0.81625 0.38344 0.0
H385 H 0.93288 0.85919 0.45133 0.0
S386 S 0.9554 0.96503 0.25261 0.0
N387 N 0.91231 0.91906 0.24554 0.0
N388 N 0.97933 0.96552 0.31848 0.0
C389 C 0.95225 0.92721 0.33803 0.0
C390 C 0.91601 0.90199 0.29824 0.0
C391 C 0.14753 0.85281 0.34253 0.0
C392 C 0.195 0.87011 0.34542 0.0
C393 C 0.12295 0.86582 0.38326 0.0
C394 C 0.1451 0.8973 0.42736 0.0
H395 H 0.12928 0.82795 0.30988 0.0
H396 H 0.08617 0.85149 0.37917 0.0
S397 S 0.26956 0.95467 0.44963 0.0
N398 N 0.26397 0.92072 0.39346 0.0
N399 N 0.21737 0.94699 0.46954 0.0
C400 C 0.1928 0.91568 0.42972 0.0
C401 C 0.21792 0.90161 0.38872 0.0
C402 C 0.17041 0.88689 0.71881 0.0
C403 C 0.16966 0.84943 0.68854 0.0
C404 C 0.14794 0.91295 0.69492 0.0
C405 C 0.12335 0.90192 0.64051 0.0
H406 H 0.19005 0.89715 0.76002 0.0
H407 H 0.15068 0.94242 0.71893 0.0
S408 S 0.10578 0.80306 0.54869 0.0
N409 N 0.13975 0.80003 0.6045 0.0
N410 N 0.09515 0.84806 0.56066 0.0
C411 C 0.11968 0.86274 0.61191 0.0
C412 C 0.1436 0.83671 0.63564 0.0
C413 C 0.17217 0.18927 0.62419 0.0
C414 C 0.17658 0.17596 0.68164 0.0
C415 C 0.13652 0.16505 0.58453 0.0
C416 C 0.10439 0.126 0.60036 0.0
H417 H 0.19619 0.21897 0.6098 0.0
H418 H 0.13457 0.17671 0.541 0.0
S419 S 0.10153 0.07611 0.745 0.0
N420 N 0.14615 0.12091 0.75188 0.0
N421 N 0.07971 0.07492 0.67773 0.0
C422 C 0.10889 0.112 0.65749 0.0
C423 C 0.14485 0.13698 0.69795 0.0
C424 C 0.86047 0.13144 0.59706 0.0
C425 C 0.86598 0.17517 0.59466 0.0
C426 C 0.88123 0.11282 0.55736 0.0
C427 C 0.90935 0.1381 0.51616 0.0
H428 H 0.84163 0.11206 0.63119 0.0
H429 H 0.87896 0.07964 0.56287 0.0
S430 S 0.92865 0.25251 0.48731 0.0
N431 N 0.89538 0.24187 0.54306 0.0
N432 N 0.93739 0.20718 0.47046 0.0
C433 C 0.91217 0.18097 0.51043 0.0
C434 C 0.88964 0.19955 0.54951 0.0
C435 C 0.88629 0.86375 0.63626 0.0
C436 C 0.88035 0.87152 0.6958 0.0
C437 C 0.91687 0.89566 0.60298 0.0
C438 C 0.94277 0.93672 0.62781 0.0
H439 H 0.86872 0.83219 0.61588 0.0
H440 H 0.92242 0.88714 0.55878 0.0
S441 S 0.93612 0.97546 0.77917 0.0
N442 N 0.90018 0.92538 0.77569 0.0
N443 N 0.95731 0.98415 0.71411 0.0
C444 C 0.93504 0.9455 0.68602 0.0
C445 C 0.904 0.91336 0.71964 0.0
C446 C 0.33537 0.17016 0.10079 0.0
C447 C 0.34694 0.18917 0.15812 0.0
C448 C 0.36027 0.14612 0.07439 0.0
C449 C 0.39883 0.14065 0.10331 0.0
H450 H 0.30699 0.17417 0.07568 0.0
H451 H 0.3504 0.13341 0.02996 0.0
S452 S 0.44312 0.18164 0.25447 0.0
N453 N 0.39932 0.19816 0.24328 0.0
N454 N 0.44594 0.15529 0.19362 0.0
C455 C 0.41017 0.15883 0.16072 0.0
C456 C 0.38447 0.18232 0.18796 0.0
C457 C 0.87953 0.3998 0.15462 0.0
C458 C 0.88368 0.36067 0.1724 0.0
C459 C 0.9176 0.43389 0.13791 0.0
C460 C 0.96125 0.43045 0.14026 0.0
H461 H 0.84682 0.40433 0.15399 0.0
H462 H 0.91294 0.46316 0.12321 0.0
S463 S 0.99045 0.33406 0.1782 0.0
N464 N 0.93527 0.31981 0.1864 0.0
N465 N 1.00618 0.38432 0.15773 0.0
C466 C 0.96584 0.39152 0.15715 0.0
C467 C 0.92723 0.35652 0.17243 0.0
C468 C 0.70784 0.8865 0.18406 0.0
C469 C 0.71174 0.84983 0.15548 0.0
C470 C 0.68306 0.91088 0.15821 0.0
C471 C 0.6594 0.8996 0.10267 0.0
H472 H 0.72449 0.89685 0.22701 0.0
H473 H 0.68208 0.93881 0.18292 0.0
S474 S 0.65612 0.80481 0.01004 0.0
N475 N 0.68877 0.80298 0.06804 0.0
N476 N 0.64072 0.84738 0.02101 0.0
C477 C 0.66223 0.86242 0.07392 0.0
C478 C 0.68866 0.8381 0.09973 0.0
C479 C 0.14851 0.68546 0.16385 0.0
C480 C 0.19007 0.70184 0.13676 0.0
C481 C 0.11253 0.65055 0.13846 0.0
C482 C 0.11721 0.63084 0.08551 0.0
H483 H 0.14353 0.70037 0.20435 0.0
H484 H 0.08041 0.63977 0.1594 0.0
S485 S 0.22009 0.65992 0.99958 0.0
N486 N 0.23479 0.69468 0.05611 0.0
N487 N 0.16687 0.62885 0.00796 0.0
C488 C 0.159 0.64607 0.05892 0.0
C489 C 0.19566 0.68168 0.0848 0.0
C490 C 0.37611 0.88879 0.85895 0.0
C491 C 0.35886 0.84574 0.87526 0.0
C492 C 0.41832 0.91686 0.88245 0.0
C493 C 0.44543 0.9029 0.92272 0.0
H494 H 0.35764 0.90041 0.82597 0.0
H495 H 0.43042 0.94944 0.8672 0.0
S496 S 0.41289 0.79384 0.98367 0.0
N497 N 0.3701 0.79092 0.93673 0.0
N498 N 0.44943 0.84349 0.98136 0.0
C499 C 0.4275 0.86018 0.94107 0.0
C500 C 0.3843 0.83165 0.91715 0.0
C501 C 0.22131 0.37692 0.91719 0.0
C502 C 0.20547 0.33157 0.91483 0.0
C503 C 0.19299 0.3998 0.93315 0.0
C504 C 0.14769 0.37812 0.94674 0.0
H505 H 0.2552 0.39491 0.90416 0.0
H506 H 0.20631 0.43467 0.93305 0.0
S507 S 0.09196 0.25953 0.95486 0.0
N508 N 0.14346 0.26591 0.93368 0.0
N509 N 0.08981 0.30857 0.96235 0.0
C510 C 0.13231 0.33276 0.94759 0.0
C511 C 0.16139 0.30958 0.93226 0.0
C512 C 0.697 0.18101 0.89892 0.0
C513 C 0.7188 0.16465 0.85665 0.0
C514 C 0.6534 0.1573 0.91504 0.0
C515 C 0.63041 0.11558 0.89149 0.0
H516 H 0.71237 0.21354 0.9173 0.0
H517 H 0.63732 0.17202 0.94591 0.0
S518 S 0.67437 0.05477 0.78651 0.0
N519 N 0.71535 0.10215 0.79566 0.0
N520 N 0.63383 0.05662 0.82909 0.0
C521 C 0.65296 0.09709 0.85326 0.0
C522 C 0.69716 0.1218 0.83528 0.0
C523 C 0.92564 0.71342 0.90793 0.0
C524 C 0.87811 0.70258 0.90912 0.0
C525 C 0.94619 0.68172 0.91283 0.0
C526 C 0.91981 0.63798 0.91732 0.0
H527 H 0.94694 0.74621 0.90045 0.0
H528 H 0.98277 0.69129 0.91045 0.0
S529 S 0.79507 0.59385 0.93281 0.0
N530 N 0.80611 0.64583 0.924 0.0
N531 N 0.8445 0.58632 0.9304 0.0
C532 C 0.87267 0.62716 0.92212 0.0
C533 C 0.85193 0.65949 0.91894 0.0
C534 C 0.1429 0.32178 0.09776 0.0
C535 C 0.19039 0.33424 0.09425 0.0
C536 C 0.12099 0.35247 0.09681 0.0
C537 C 0.14599 0.39667 0.09396 0.0
H538 H 0.12277 0.28845 0.10414 0.0
H539 H 0.08447 0.34168 0.10068 0.0
S540 S 0.26973 0.44509 0.07336 0.0
N541 N 0.26066 0.39311 0.07895 0.0
N542 N 0.21971 0.45077 0.07977 0.0
C543 C 0.19301 0.40923 0.08691 0.0
C544 C 0.21509 0.37796 0.08612 0.0
C545 C 0.18164 0.62748 0.85563 0.0
C546 C 0.17908 0.66852 0.84561 0.0
C547 C 0.14284 0.59305 0.86941 0.0
C548 C 0.10016 0.59831 0.87135 0.0
H549 H 0.21357 0.6218 0.85234 0.0
H550 H 0.14619 0.56221 0.87875 0.0
S551 S 0.07571 0.69967 0.85326 0.0
N552 N 0.13061 0.7129 0.84362 0.0
N553 N 0.05793 0.64773 0.86557 0.0
C554 C 0.09725 0.63907 0.86181 0.0
C555 C 0.13667 0.67429 0.85001 0.0
C556 C 0.36413 0.1556 0.8093 0.0
C557 C 0.3567 0.19013 0.83911 0.0
C558 C 0.39236 0.13407 0.83369 0.0
C559 C 0.41596 0.14612 0.88915 0.0
H560 H 0.34792 0.1449 0.7662 0.0
H561 H 0.39602 0.10777 0.80783 0.0
S562 S 0.41051 0.23622 0.98506 0.0
N563 N 0.37614 0.23582 0.92786 0.0
N564 N 0.4304 0.19667 0.97243 0.0
C565 C 0.40922 0.18097 0.91952 0.0
C566 C 0.37945 0.20247 0.895 0.0
C567 C 0.87739 0.34945 0.88884 0.0
C568 C 0.89265 0.32254 0.85322 0.0
C569 C 0.90857 0.38547 0.91975 0.0
C570 C 0.95565 0.396 0.91446 0.0
H571 H 0.84126 0.34214 0.89357 0.0
H572 H 0.89595 0.4045 0.94888 0.0
S573 S 1.01225 0.33999 0.81951 0.0
N574 N 0.95753 0.31123 0.81041 0.0
N575 N 1.01563 0.3798 0.86627 0.0
C576 C 0.97099 0.37066 0.87666 0.0
C577 C 0.93957 0.33366 0.84644 0.0
C578 C 0.73485 0.87129 0.8909 0.0
C579 C 0.7194 0.84457 0.83954 0.0
C580 C 0.70896 0.89506 0.91539 0.0
C581 C 0.66563 0.89236 0.8908 0.0
H582 H 0.7674 0.87413 0.91229 0.0
H583 H 0.72236 0.91454 0.95506 0.0
S584 S 0.60886 0.82723 0.75679 0.0
N585 N 0.65734 0.81795 0.76513 0.0
N586 N 0.60912 0.86059 0.81152 0.0
C587 C 0.64994 0.86571 0.83974 0.0
C588 C 0.67652 0.84249 0.81418 0.0
C589 C 0.84447 0.65737 0.08719 0.0
C590 C 0.86087 0.70268 0.08684 0.0
C591 C 0.87279 0.63359 0.07562 0.0
C592 C 0.91866 0.6543 0.0638 0.0
H593 H 0.81002 0.64015 0.099 0.0
H594 H 0.85893 0.59882 0.07753 0.0
S595 S 0.97633 0.77217 0.05011 0.0
N596 N 0.92425 0.76712 0.06766 0.0
N597 N 0.97794 0.72276 0.04695 0.0
C598 C 0.93477 0.69955 0.06037 0.0
C599 C 0.90568 0.72364 0.0713 0.0
C600 C 0.41655 0.8783 0.17981 0.0
C601 C 0.37508 0.87075 0.14763 0.0
C602 C 0.45637 0.90984 0.16405 0.0
C603 C 0.45614 0.93492 0.11537 0.0
H604 H 0.41837 0.85898 0.21693 0.0
H605 H 0.48789 0.91335 0.18879 0.0
S606 S 0.35479 0.92881 0.01913 0.0
N607 N 0.33471 0.89173 0.0677 0.0
N608 N 0.40983 0.95129 0.03669 0.0
C609 C 0.41409 0.92903 0.08453 0.0
C610 C 0.3734 0.89675 0.10097 0.0
C611 C 0.66172 0.19958 0.14787 0.0
C612 C 0.70399 0.19412 0.14096 0.0
C613 C 0.62203 0.17387 0.11587 0.0
C614 C 0.62271 0.14073 0.07684 0.0
H615 H 0.65891 0.22316 0.17957 0.0
H616 H 0.5902 0.17863 0.12397 0.0
S617 S 0.72493 0.11498 0.03916 0.0
N618 N 0.74456 0.15513 0.08845 0.0
N619 N 0.66963 0.1055 0.03029 0.0
C620 C 0.66493 0.13572 0.06809 0.0
C621 C 0.70564 0.16274 0.09956 0.0
C622 C 0.68755 0.61953 0.80016 0.0
C623 C 0.69479 0.66394 0.80788 0.0
C624 C 0.65551 0.58822 0.83229 0.0
C625 C 0.62923 0.60004 0.87329 0.0
H626 H 0.70611 0.60879 0.76807 0.0
H627 H 0.6499 0.55445 0.82316 0.0
S628 S 0.63135 0.71135 0.90526 0.0
N629 N 0.67131 0.71757 0.85824 0.0
N630 N 0.61036 0.65915 0.91605 0.0
C631 C 0.6361 0.64428 0.88108 0.0
C632 C 0.6691 0.67609 0.84928 0.0
C633 C 0.42352 0.69152 0.88221 0.0
C634 C 0.41108 0.68787 0.82221 0.0
C635 C 0.44909 0.66799 0.90544 0.0
C636 C 0.46165 0.63992 0.86909 0.0
H637 H 0.4112 0.71049 0.91184 0.0
H638 H 0.45578 0.6693 0.9522 0.0
S639 S 0.44779 0.62792 0.70781 0.0
N640 N 0.42115 0.66142 0.72554 0.0
N641 N 0.46833 0.61584 0.77017 0.0
C642 C 0.45399 0.63981 0.8085 0.0
C643 C 0.42868 0.66423 0.78465 0.0
C644 C 0.39901 0.34066 0.85694 0.0
C645 C 0.39064 0.35615 0.80238 0.0
C646 C 0.43287 0.3661 0.89733 0.0
C647 C 0.45912 0.40873 0.88577 0.0
H648 H 0.38002 0.30808 0.86825 0.0
H649 H 0.43854 0.35196 0.93791 0.0
S650 S 0.44885 0.46576 0.75042 0.0
N651 N 0.41041 0.41713 0.73919 0.0
N652 N 0.47329 0.46595 0.81597 0.0
C653 C 0.45027 0.42522 0.83189 0.0
C654 C 0.41624 0.39874 0.79006 0.0
C655 C 0.70723 0.37475 0.9006 0.0
C656 C 0.68883 0.33133 0.8815 0.0
C657 C 0.68295 0.39306 0.9359 0.0
C658 C 0.63933 0.36855 0.95279 0.0
H659 H 0.73993 0.39518 0.88656 0.0
H660 H 0.69738 0.42726 0.94691 0.0
S661 S 0.57961 0.25146 0.92246 0.0
N662 N 0.62724 0.26276 0.888 0.0
N663 N 0.58123 0.29735 0.95413 0.0
C664 C 0.62199 0.32428 0.93748 0.0
C665 C 0.64685 0.30559 0.90173 0.0
C666 C 0.63026 0.32905 0.1461 0.0
C667 C 0.64882 0.34042 0.20354 0.0
C668 C 0.6049 0.35159 0.11943 0.0
C669 C 0.59905 0.38646 0.14946 0.0
H670 H 0.63803 0.30483 0.12031 0.0
H671 H 0.59397 0.34442 0.07383 0.0
S672 S 0.62819 0.41915 0.30578 0.0
N673 N 0.64985 0.38077 0.29406 0.0
N674 N 0.60314 0.42436 0.24273 0.0
C675 C 0.61142 0.39364 0.2093 0.0
C676 C 0.63643 0.37024 0.23681 0.0
C677 C 0.6462 0.63879 0.20817 0.0
C678 C 0.68024 0.67602 0.19022 0.0
C679 C 0.61562 0.60957 0.16704 0.0
C680 C 0.61801 0.61684 0.10677 0.0
H681 H 0.64226 0.63284 0.25425 0.0
H682 H 0.58883 0.58216 0.18263 0.0
S683 S 0.70487 0.70549 0.03653 0.0
N684 N 0.71689 0.71582 0.1073 0.0
N685 N 0.66014 0.66082 0.03098 0.0
C686 C 0.65331 0.6525 0.08828 0.0
C687 C 0.68427 0.68211 0.12977 0.0
C688 C 0.42885 0.68658 0.16134 0.0
C689 C 0.38251 0.67771 0.14659 0.0
C690 C 0.45489 0.66978 0.12699 0.0
C691 C 0.43521 0.64295 0.07738 0.0
H692 H 0.44539 0.70736 0.19897 0.0
H693 H 0.49058 0.67735 0.14008 0.0
S694 S 0.3147 0.60931 0.02123 0.0
N695 N 0.31755 0.6404 0.0797 0.0
N696 N 0.36658 0.60783 0.0155 0.0
C697 C 0.38869 0.63333 0.06257 0.0
C698 C 0.36228 0.65102 0.09714 0.0
C699 C 0.41068 0.41092 0.22223 0.0
C700 C 0.37908 0.37311 0.19534 0.0
C701 C 0.44395 0.44083 0.19047 0.0
C702 C 0.44706 0.4351 0.12977 0.0
H703 H 0.41086 0.41691 0.26891 0.0
H704 H 0.46843 0.46829 0.21427 0.0
S705 S 0.37036 0.34322 0.03682 0.0
N706 N 0.35188 0.33271 0.10312 0.0
N707 N 0.41338 0.38938 0.04341 0.0
C708 C 0.41421 0.39856 0.10158 0.0
C709 C 0.38065 0.36755 0.13426 0.0
C710 C 0.84757 0.66793 0.60264 0.0
C711 C 0.8571 0.68604 0.66053 0.0
C712 C 0.87317 0.64398 0.57793 0.0
C713 C 0.91035 0.63773 0.60933 0.0
H714 H 0.82004 0.67225 0.57601 0.0
H715 H 0.86432 0.63106 0.53348 0.0
S716 S 0.94881 0.67624 0.76314 0.0
N717 N 0.90617 0.69377 0.74873 0.0
N718 N 0.95346 0.65031 0.70294 0.0
C719 C 0.91961 0.65512 0.66736 0.0
C720 C 0.89343 0.67876 0.69261 0.0
C721 C 0.4217 0.87224 0.6804 0.0
C722 C 0.37793 0.85225 0.65325 0.0
C723 C 0.44973 0.91251 0.66317 0.0
C724 C 0.43436 0.93354 0.61883 0.0
H725 H 0.43345 0.8579 0.71713 0.0
H726 H 0.48292 0.92769 0.6854 0.0
S727 S 0.32603 0.89218 0.52863 0.0
N728 N 0.32314 0.85415 0.57544 0.0
N729 N 0.3755 0.93061 0.54432 0.0
C730 C 0.392 0.91299 0.58929 0.0
C731 C 0.3638 0.87195 0.60616 0.0
C732 C 0.21814 0.38298 0.67622 0.0
C733 C 0.21899 0.34457 0.6491 0.0
C734 C 0.19313 0.4073 0.65092 0.0
C735 C 0.16603 0.39369 0.59834 0.0
H736 H 0.23767 0.39486 0.71712 0.0
H737 H 0.19494 0.43718 0.67305 0.0
S738 S 0.15457 0.29465 0.51017 0.0
N739 N 0.18989 0.29411 0.56588 0.0
N740 N 0.14115 0.33842 0.52048 0.0
C741 C 0.16556 0.3548 0.57135 0.0
C742 C 0.19241 0.33072 0.59607 0.0
C743 C 0.71711 0.15506 0.62483 0.0
C744 C 0.69712 0.18546 0.64172 0.0
C745 C 0.69087 0.11426 0.60054 0.0
C746 C 0.64313 0.10144 0.59387 0.0
H747 H 0.75333 0.16227 0.63217 0.0
H748 H 0.70814 0.09211 0.58891 0.0
S749 S 0.57394 0.16918 0.63278 0.0
N750 N 0.62696 0.20038 0.64959 0.0
N751 N 0.57698 0.12339 0.6065 0.0
C752 C 0.62269 0.13192 0.61018 0.0
C753 C 0.64977 0.17392 0.63345 0.0
C754 C 0.89024 0.37404 0.36674 0.0
C755 C 0.84628 0.35809 0.38784 0.0
C756 C 0.92176 0.41348 0.38804 0.0
C757 C 0.9105 0.43852 0.43115 0.0
H758 H 0.89959 0.35729 0.33106 0.0
H759 H 0.95437 0.42531 0.36844 0.0
S760 S 0.80341 0.40658 0.50947 0.0
N761 N 0.79568 0.36695 0.46057 0.0
N762 N 0.85481 0.44126 0.50047 0.0
C763 C 0.86808 0.42116 0.4561 0.0
C764 C 0.83607 0.38083 0.43461 0.0
C765 C 0.72622 0.88949 0.42656 0.0
C766 C 0.70385 0.84456 0.41979 0.0
C767 C 0.70175 0.91747 0.43551 0.0
C768 C 0.65412 0.90136 0.43699 0.0
H769 H 0.76251 0.90335 0.42131 0.0
H770 H 0.71984 0.95192 0.43763 0.0
S771 S 0.58046 0.78637 0.43266 0.0
N772 N 0.63218 0.78522 0.42434 0.0
N773 N 0.58617 0.83783 0.43932 0.0
C774 C 0.63186 0.8565 0.43509 0.0
C775 C 0.6568 0.82803 0.42725 0.0
C776 C 0.21067 0.63353 0.34821 0.0
C777 C 0.20191 0.67256 0.34661 0.0
C778 C 0.17787 0.59554 0.36436 0.0
C779 C 0.13483 0.59469 0.38076 0.0
H780 H 0.24295 0.63178 0.3356 0.0
H781 H 0.18688 0.56664 0.36483 0.0
S782 S 0.09506 0.68836 0.38801 0.0
N783 N 0.14715 0.70836 0.36506 0.0
N784 N 0.08566 0.63663 0.39721 0.0
C785 C 0.12588 0.63366 0.38159 0.0
C786 C 0.15935 0.67262 0.36426 0.0
C787 C 0.41316 0.21683 0.4161 0.0
C788 C 0.36561 0.20602 0.41003 0.0
C789 C 0.43299 0.18496 0.42432 0.0
C790 C 0.40596 0.14111 0.4254 0.0
H791 H 0.43525 0.24994 0.41264 0.0
H792 H 0.46978 0.19468 0.42871 0.0
S793 S 0.27947 0.09617 0.41432 0.0
N794 N 0.29186 0.1486 0.40925 0.0
N795 N 0.32896 0.08883 0.42214 0.0
C796 C 0.3583 0.13005 0.42061 0.0
C797 C 0.33817 0.1625 0.41388 0.0
C798 C 0.72046 0.86687 0.58532 0.0
C799 C 0.69451 0.82337 0.59262 0.0
C800 C 0.69999 0.89834 0.58157 0.0
C801 C 0.6526 0.88752 0.58349 0.0
H802 H 0.75725 0.87717 0.58512 0.0
H803 H 0.7216 0.93142 0.57642 0.0
S804 S 0.56879 0.77776 0.59724 0.0
N805 N 0.61862 0.77068 0.59883 0.0
N806 N 0.57981 0.8299 0.58967 0.0
C807 C 0.62591 0.84388 0.58797 0.0
C808 C 0.64691 0.81178 0.59276 0.0
C809 C 0.70768 0.14554 0.38039 0.0
C810 C 0.69278 0.18081 0.3729 0.0
C811 C 0.67708 0.10501 0.39152 0.0
C812 C 0.63074 0.09857 0.39675 0.0
H813 H 0.74285 0.14859 0.37495 0.0
H814 H 0.68996 0.07864 0.39674 0.0
S815 S 0.57521 0.18112 0.38629 0.0
N816 N 0.62917 0.20735 0.37436 0.0
N817 N 0.57159 0.13087 0.3977 0.0
C818 C 0.61562 0.13385 0.39216 0.0
C819 C 0.6467 0.1751 0.37964 0.0
C820 C 0.87043 0.70467 0.4002 0.0
C821 C 0.84666 0.69233 0.34496 0.0
C822 C 0.8971 0.68144 0.42549 0.0
C823 C 0.90026 0.64416 0.39738 0.0
H824 H 0.86903 0.7329 0.42376 0.0
H825 H 0.91427 0.69207 0.46808 0.0
S826 S 0.84545 0.59828 0.25211 0.0
N827 N 0.82967 0.6406 0.2628 0.0
N828 N 0.87749 0.59667 0.31078 0.0
C829 C 0.87667 0.63166 0.34235 0.0
C830 C 0.85062 0.65571 0.31611 0.0
C831 C 0.36048 0.88857 0.34078 0.0
C832 C 0.36783 0.85025 0.35663 0.0
C833 C 0.38435 0.92824 0.3697 0.0
C834 C 0.41725 0.93137 0.41483 0.0
H835 H 0.33692 0.88831 0.30453 0.0
H836 H 0.37831 0.95692 0.35507 0.0
S837 S 0.44558 0.84057 0.4784 0.0
N838 N 0.40741 0.81772 0.4245 0.0
N839 N 0.45287 0.89249 0.47819 0.0
C840 C 0.42371 0.89327 0.43286 0.0
C841 C 0.39884 0.85265 0.40397 0.0
C842 C 0.22453 0.37377 0.39459 0.0
C843 C 0.21202 0.3506 0.3399 0.0
C844 C 0.19865 0.39803 0.41839 0.0
C845 C 0.15818 0.39973 0.3895 0.0
H846 H 0.25485 0.37354 0.41916 0.0
H847 H 0.21015 0.41503 0.46024 0.0
S848 S 0.10935 0.34416 0.24576 0.0
N849 N 0.15531 0.33132 0.25851 0.0
N850 N 0.10768 0.37519 0.30215 0.0
C851 C 0.14545 0.37639 0.33505 0.0
C852 C 0.17185 0.35243 0.31077 0.0
C853 C 0.40218 0.20018 0.57695 0.0
C854 C 0.35458 0.18474 0.57966 0.0
C855 C 0.42645 0.17169 0.57367 0.0
C856 C 0.4039 0.12683 0.57128 0.0
H857 H 0.42122 0.23438 0.58183 0.0
H858 H 0.4633 0.18488 0.5745 0.0
S859 S 0.27932 0.07005 0.56892 0.0
N860 N 0.2854 0.12171 0.57417 0.0
N861 N 0.33129 0.06822 0.56596 0.0
C862 C 0.35618 0.11096 0.56888 0.0
C863 C 0.33141 0.13996 0.57334 0.0
C864 C 0.90285 0.36864 0.62662 0.0
C865 C 0.86301 0.36923 0.65255 0.0
C866 C 0.9361 0.40672 0.61016 0.0
C867 C 0.93116 0.44709 0.61935 0.0
H868 H 0.90912 0.33862 0.6201 0.0
H869 H 0.96601 0.40445 0.59035 0.0
S870 S 0.83072 0.46599 0.67953 0.0
N871 N 0.81894 0.41348 0.68208 0.0
N872 N 0.88119 0.48482 0.65199 0.0
C873 C 0.89079 0.448 0.64369 0.0
C874 C 0.8568 0.4092 0.65986 0.0
C875 C 0.17569 0.65747 0.64983 0.0
C876 C 0.22047 0.67483 0.63175 0.0
C877 C 0.14454 0.61988 0.62273 0.0
C878 C 0.15695 0.59807 0.57661 0.0
H879 H 0.16516 0.67174 0.68705 0.0
H880 H 0.11105 0.60691 0.63983 0.0
S881 S 0.26734 0.63484 0.50585 0.0
N882 N 0.27373 0.67072 0.5598 0.0
N883 N 0.21522 0.59994 0.509 0.0
C884 C 0.20058 0.61679 0.55544 0.0
C885 C 0.23226 0.65524 0.58288 0.0
loop_
_geom_bond_atom_site_label_1
_geom_bond_atom_site_label_2
_geom_bond_distance
_geom_bond_site_symmetry_2
_ccdc_geom_bond_type
Dy0 O4 2.398 . S
Dy0 O5 2.491 . S
Dy0 O6 2.403 . S
Dy0 O7 2.664 . S
Dy0 O11 2.326 . S
Dy0 O15 2.310 . S
Dy0 O16 2.351 . S
C1 O12 1.185 . S
C1 O13 1.355 . S
C2 O4 1.185 . S
C2 O5 1.355 . S
Dy3 O7 2.310 . S
Dy3 O10 2.351 . S
Dy3 O12 2.398 . S
Dy3 O13 2.491 . S
Dy3 O14 2.403 . S
Dy3 O15 2.664 . S
Dy3 O17 2.326 . S
O4 Dy0 2.398 . S
O4 C2 1.185 . S
O5 Dy0 2.491 . S
O5 C2 1.355 . S
O6 Dy0 2.403 . S
O6 C8 1.254 . S
O7 Dy0 2.664 . S
O7 Dy3 2.310 . S
O7 C8 1.268 . S
C8 O6 1.254 . S
C8 O7 1.268 . S
C9 O14 1.254 . S
C9 O15 1.268 . S
O10 Dy3 2.351 . S
O10 C18 1.249 . S
O11 Dy0 2.326 . S
O11 C18 1.267 . S
O12 C1 1.185 . S
O12 Dy3 2.398 . S
O13 C1 1.355 . S
O13 Dy3 2.491 . S
O14 Dy3 2.403 . S
O14 C9 1.254 . S
O15 Dy0 2.310 . S
O15 Dy3 2.664 . S
O15 C9 1.268 . S
O16 Dy0 2.351 . S
O16 C19 1.249 . S
O17 Dy3 2.326 . S
O17 C19 1.267 . S
C18 O10 1.249 . S
C18 O11 1.267 . S
C19 O16 1.249 . S
C19 O17 1.267 . S
Dy20 O24 2.398 . S
Dy20 O25 2.491 . S
Dy20 O26 2.403 . S
Dy20 O27 2.664 . S
Dy20 O31 2.326 . S
Dy20 O35 2.310 . S
Dy20 O36 2.351 . S
C21 O32 1.185 . S
C21 O33 1.355 . S
C22 O24 1.185 . S
C22 O25 1.355 . S
Dy23 O27 2.310 . S
Dy23 O30 2.351 . S
Dy23 O32 2.398 . S
Dy23 O33 2.491 . S
Dy23 O34 2.403 . S
Dy23 O35 2.664 . S
Dy23 O37 2.326 . S
O24 Dy20 2.398 . S
O24 C22 1.185 . S
O25 Dy20 2.491 . S
O25 C22 1.355 . S
O26 Dy20 2.403 . S
O26 C28 1.254 . S
O27 Dy20 2.664 . S
O27 Dy23 2.310 . S
O27 C28 1.268 . S
C28 O26 1.254 . S
C28 O27 1.268 . S
C29 O34 1.254 . S
C29 O35 1.268 . S
O30 Dy23 2.351 . S
O30 C38 1.249 . S
O31 Dy20 2.326 . S
O31 C38 1.267 . S
O32 C21 1.185 . S
O32 Dy23 2.398 . S
O33 C21 1.355 . S
O33 Dy23 2.491 . S
O34 Dy23 2.403 . S
O34 C29 1.254 . S
O35 Dy20 2.310 . S
O35 Dy23 2.664 . S
O35 C29 1.268 . S
O36 Dy20 2.351 . S
O36 C39 1.249 . S
O37 Dy23 2.326 . S
O37 C39 1.267 . S
C38 O30 1.249 . S
C38 O31 1.267 . S
C39 O36 1.249 . S
C39 O37 1.267 . S
Dy40 O44 2.398 . S
Dy40 O45 2.491 . S
Dy40 O46 2.403 . S
Dy40 O47 2.664 . S
Dy40 O51 2.326 . S
Dy40 O55 2.310 . S
Dy40 O56 2.351 . S
C41 O52 1.185 . S
C41 O53 1.355 . S
C42 O44 1.185 . S
C42 O45 1.355 . S
Dy43 O47 2.310 . S
Dy43 O50 2.351 . S
Dy43 O52 2.398 . S
Dy43 O53 2.491 . S
Dy43 O54 2.403 . S
Dy43 O55 2.664 . S
Dy43 O57 2.326 . S
O44 Dy40 2.398 . S
O44 C42 1.185 . S
O45 Dy40 2.491 . S
O45 C42 1.355 . S
O46 Dy40 2.403 . S
O46 C48 1.254 . S
O47 Dy40 2.664 . S
O47 Dy43 2.310 . S
O47 C48 1.268 . S
C48 O46 1.254 . S
C48 O47 1.268 . S
C49 O54 1.254 . S
C49 O55 1.268 . S
O50 Dy43 2.351 . S
O50 C58 1.249 . S
O51 Dy40 2.326 . S
O51 C58 1.267 . S
O52 C41 1.185 . S
O52 Dy43 2.398 . S
O53 C41 1.355 . S
O53 Dy43 2.491 . S
O54 Dy43 2.403 . S
O54 C49 1.254 . S
O55 Dy40 2.310 . S
O55 Dy43 2.664 . S
O55 C49 1.268 . S
O56 Dy40 2.351 . S
O56 C59 1.249 . S
O57 Dy43 2.326 . S
O57 C59 1.267 . S
C58 O50 1.249 . S
C58 O51 1.267 . S
C59 O56 1.249 . S
C59 O57 1.267 . S
Dy60 O64 2.398 . S
Dy60 O65 2.491 . S
Dy60 O66 2.403 . S
Dy60 O67 2.664 . S
Dy60 O71 2.326 . S
Dy60 O75 2.310 . S
Dy60 O76 2.351 . S
C61 O72 1.185 . S
C61 O73 1.355 . S
C62 O64 1.185 . S
C62 O65 1.355 . S
Dy63 O67 2.310 . S
Dy63 O70 2.351 . S
Dy63 O72 2.398 . S
Dy63 O73 2.491 . S
Dy63 O74 2.403 . S
Dy63 O75 2.664 . S
Dy63 O77 2.326 . S
O64 Dy60 2.398 . S
O64 C62 1.185 . S
O65 Dy60 2.491 . S
O65 C62 1.355 . S
O66 Dy60 2.403 . S
O66 C68 1.254 . S
O67 Dy60 2.664 . S
O67 Dy63 2.310 . S
O67 C68 1.268 . S
C68 O66 1.254 . S
C68 O67 1.268 . S
C69 O74 1.254 . S
C69 O75 1.268 . S
O70 Dy63 2.351 . S
O70 C78 1.249 . S
O71 Dy60 2.326 . S
O71 C78 1.267 . S
O72 C61 1.185 . S
O72 Dy63 2.398 . S
O73 C61 1.355 . S
O73 Dy63 2.491 . S
O74 Dy63 2.403 . S
O74 C69 1.254 . S
O75 Dy60 2.310 . S
O75 Dy63 2.664 . S
O75 C69 1.268 . S
O76 Dy60 2.351 . S
O76 C79 1.249 . S
O77 Dy63 2.326 . S
O77 C79 1.267 . S
C78 O70 1.249 . S
C78 O71 1.267 . S
C79 O76 1.249 . S
C79 O77 1.267 . S
Dy80 O84 2.398 . S
Dy80 O85 2.491 . S
Dy80 O86 2.403 . S
Dy80 O87 2.664 . S
Dy80 O91 2.326 . S
Dy80 O95 2.310 . S
Dy80 O96 2.351 . S
C81 O92 1.185 . S
C81 O93 1.355 . S
C82 O84 1.185 . S
C82 O85 1.355 . S
Dy83 O87 2.310 . S
Dy83 O90 2.351 . S
Dy83 O92 2.398 . S
Dy83 O93 2.491 . S
Dy83 O94 2.403 . S
Dy83 O95 2.664 . S
Dy83 O97 2.326 . S
O84 Dy80 2.398 . S
O84 C82 1.185 . S
O85 Dy80 2.491 . S
O85 C82 1.355 . S
O86 Dy80 2.403 . S
O86 C88 1.254 . S
O87 Dy80 2.664 . S
O87 Dy83 2.310 . S
O87 C88 1.268 . S
C88 O86 1.254 . S
C88 O87 1.268 . S
C89 O94 1.254 . S
C89 O95 1.268 . S
O90 Dy83 2.351 . S
O90 C98 1.249 . S
O91 Dy80 2.326 . S
O91 C98 1.267 . S
O92 C81 1.185 . S
O92 Dy83 2.398 . S
O93 C81 1.355 . S
O93 Dy83 2.491 . S
O94 Dy83 2.403 . S
O94 C89 1.254 . S
O95 Dy80 2.310 . S
O95 Dy83 2.664 . S
O95 C89 1.268 . S
O96 Dy80 2.351 . S
O96 C99 1.249 . S
O97 Dy83 2.326 . S
O97 C99 1.267 . S
C98 O90 1.249 . S
C98 O91 1.267 . S
C99 O96 1.249 . S
C99 O97 1.267 . S
Dy100 O104 2.398 . S
Dy100 O105 2.491 . S
Dy100 O106 2.403 . S
Dy100 O107 2.664 . S
Dy100 O111 2.326 . S
Dy100 O115 2.310 . S
Dy100 O116 2.351 . S
C101 O112 1.185 . S
C101 O113 1.355 . S
C102 O104 1.185 . S
C102 O105 1.355 . S
Dy103 O107 2.310 . S
Dy103 O110 2.351 . S
Dy103 O112 2.398 . S
Dy103 O113 2.491 . S
Dy103 O114 2.403 . S
Dy103 O115 2.664 . S
Dy103 O117 2.326 . S
O104 Dy100 2.398 . S
O104 C102 1.185 . S
O105 Dy100 2.491 . S
O105 C102 1.355 . S
O106 Dy100 2.403 . S
O106 C108 1.254 . S
O107 Dy100 2.664 . S
O107 Dy103 2.310 . S
O107 C108 1.268 . S
C108 O106 1.254 . S
C108 O107 1.268 . S
C109 O114 1.254 . S
C109 O115 1.268 . S
O110 Dy103 2.351 . S
O110 C118 1.249 . S
O111 Dy100 2.326 . S
O111 C118 1.267 . S
O112 C101 1.185 . S
O112 Dy103 2.398 . S
O113 C101 1.355 . S
O113 Dy103 2.491 . S
O114 Dy103 2.403 . S
O114 C109 1.254 . S
O115 Dy100 2.310 . S
O115 Dy103 2.664 . S
O115 C109 1.268 . S
O116 Dy100 2.351 . S
O116 C119 1.249 . S
O117 Dy103 2.326 . S
O117 C119 1.267 . S
C118 O110 1.249 . S
C118 O111 1.267 . S
C119 O116 1.249 . S
C119 O117 1.267 . S
Dy120 O124 2.398 . S
Dy120 O125 2.491 . S
Dy120 O126 2.403 . S
Dy120 O127 2.664 . S
Dy120 O131 2.326 . S
Dy120 O135 2.310 . S
Dy120 O136 2.351 . S
C121 O132 1.185 . S
C121 O133 1.355 . S
C122 O124 1.185 . S
C122 O125 1.355 . S
Dy123 O127 2.310 . S
Dy123 O130 2.351 . S
Dy123 O132 2.398 . S
Dy123 O133 2.491 . S
Dy123 O134 2.403 . S
Dy123 O135 2.664 . S
Dy123 O137 2.326 . S
O124 Dy120 2.398 . S
O124 C122 1.185 . S
O125 Dy120 2.491 . S
O125 C122 1.355 . S
O126 Dy120 2.403 . S
O126 C128 1.254 . S
O127 Dy120 2.664 . S
O127 Dy123 2.310 . S
O127 C128 1.268 . S
C128 O126 1.254 . S
C128 O127 1.268 . S
C129 O134 1.254 . S
C129 O135 1.268 . S
O130 Dy123 2.351 . S
O130 C138 1.249 . S
O131 Dy120 2.326 . S
O131 C138 1.267 . S
O132 C121 1.185 . S
O132 Dy123 2.398 . S
O133 C121 1.355 . S
O133 Dy123 2.491 . S
O134 Dy123 2.403 . S
O134 C129 1.254 . S
O135 Dy120 2.310 . S
O135 Dy123 2.664 . S
O135 C129 1.268 . S
O136 Dy120 2.351 . S
O136 C139 1.249 . S
O137 Dy123 2.326 . S
O137 C139 1.267 . S
C138 O130 1.249 . S
C138 O131 1.267 . S
C139 O136 1.249 . S
C139 O137 1.267 . S
Dy140 O144 2.398 . S
Dy140 O145 2.491 . S
Dy140 O146 2.403 . S
Dy140 O147 2.664 . S
Dy140 O151 2.326 . S
Dy140 O155 2.310 . S
Dy140 O156 2.351 . S
C141 O152 1.185 . S
C141 O153 1.355 . S
C142 O144 1.185 . S
C142 O145 1.355 . S
Dy143 O147 2.310 . S
Dy143 O150 2.351 . S
Dy143 O152 2.398 . S
Dy143 O153 2.491 . S
Dy143 O154 2.403 . S
Dy143 O155 2.664 . S
Dy143 O157 2.326 . S
O144 Dy140 2.398 . S
O144 C142 1.185 . S
O145 Dy140 2.491 . S
O145 C142 1.355 . S
O146 Dy140 2.403 . S
O146 C148 1.254 . S
O147 Dy140 2.664 . S
O147 Dy143 2.310 . S
O147 C148 1.268 . S
C148 O146 1.254 . S
C148 O147 1.268 . S
C149 O154 1.254 . S
C149 O155 1.268 . S
O150 Dy143 2.351 . S
O150 C158 1.249 . S
O151 Dy140 2.326 . S
O151 C158 1.267 . S
O152 C141 1.185 . S
O152 Dy143 2.398 . S
O153 C141 1.355 . S
O153 Dy143 2.491 . S
O154 Dy143 2.403 . S
O154 C149 1.254 . S
O155 Dy140 2.310 . S
O155 Dy143 2.664 . S
O155 C149 1.268 . S
O156 Dy140 2.351 . S
O156 C159 1.249 . S
O157 Dy143 2.326 . S
O157 C159 1.267 . S
C158 O150 1.249 . S
C158 O151 1.267 . S
C159 O156 1.249 . S
C159 O157 1.267 . S
Co160 O163 2.042 . S
Co160 O170 2.264 . S
Co160 O189 2.286 . S
Co160 O190 2.069 . S
Co160 O192 2.015 1_455 S
Co161 O163 2.122 . S
Co161 O169 2.073 . S
Co161 O170 2.327 . S
Co161 O171 1.976 1_455 S
Co162 O163 2.086 1_545 S
Co162 O165 2.088 1_455 S
Co162 O172 2.109 1_445 S
Co162 O173 2.146 . S
Co162 O177 2.113 . S
Co162 O191 2.141 1_445 S
O163 Co160 2.042 . S
O163 Co161 2.122 . S
O163 Co162 2.086 1_565 S
O163 H164 0.980 . S
H164 O163 0.980 . S
O165 Co162 2.088 1_655 S
O165 Co166 2.042 . S
O165 Co167 2.122 . S
O165 H168 0.980 . S
Co166 O165 2.042 . S
Co166 O174 2.286 . S
Co166 O175 2.069 . S
Co166 O176 2.015 1_655 S
Co166 O179 2.264 . S
Co167 O165 2.122 . S
Co167 O178 1.976 1_655 S
Co167 O179 2.327 . S
Co167 O180 2.073 . S
H168 O165 0.980 . S
O169 Co161 2.073 . S
O169 C184 1.245 . S
O170 Co160 2.264 . S
O170 Co161 2.327 . S
O170 C184 1.257 . S
O171 Co161 1.976 1_655 S
O171 C183 1.251 . S
O172 Co162 2.109 1_665 S
O172 C183 1.274 . S
O173 Co162 2.146 . S
O173 C186 1.246 . S
O174 Co166 2.286 . S
O174 C185 1.259 . S
O175 Co166 2.069 . S
O175 C185 1.289 . S
O176 Co166 2.015 1_455 S
O176 C186 1.257 . S
O177 Co162 2.113 . S
O177 C187 1.274 . S
O178 Co167 1.976 1_455 S
O178 C187 1.251 . S
O179 Co166 2.264 . S
O179 Co167 2.327 . S
O179 C188 1.257 . S
O180 Co167 2.073 . S
O180 C188 1.245 . S
C181 O189 1.259 . S
C181 O190 1.289 . S
C182 O191 1.246 . S
C182 O192 1.257 . S
C183 O171 1.251 . S
C183 O172 1.274 . S
C184 O169 1.245 . S
C184 O170 1.257 . S
C185 O174 1.259 . S
C185 O175 1.289 . S
C186 O173 1.246 . S
C186 O176 1.257 . S
C187 O177 1.274 . S
C187 O178 1.251 . S
C188 O179 1.257 . S
C188 O180 1.245 . S
O189 Co160 2.286 . S
O189 C181 1.259 . S
O190 Co160 2.069 . S
O190 C181 1.289 . S
O191 Co162 2.141 1_665 S
O191 C182 1.246 . S
O192 Co160 2.015 1_655 S
O192 C182 1.257 . S
Co193 O196 2.042 1_556 S
Co193 O203 2.264 1_556 S
Co193 O222 2.286 . S
Co193 O223 2.069 . S
Co193 O225 2.015 . S
Co194 O196 2.122 . S
Co194 O202 2.073 . S
Co194 O203 2.327 . S
Co194 O204 1.976 . S
Co195 O196 2.084 1_545 S
Co195 O198 2.090 1_554 S
Co195 O205 2.110 1_545 S
Co195 O206 2.145 . S
Co195 O210 2.112 1_554 S
Co195 O224 2.142 1_544 S
O196 Co193 2.042 1_554 S
O196 Co194 2.122 . S
O196 Co195 2.084 1_565 S
O196 H197 0.980 . S
H197 O196 0.980 . S
O198 Co195 2.090 1_556 S
O198 Co199 2.042 1_556 S
O198 Co200 2.122 . S
O198 H201 0.980 . S
Co199 O198 2.042 1_554 S
Co199 O207 2.286 . S
Co199 O208 2.069 . S
Co199 O209 2.015 . S
Co199 O212 2.264 1_554 S
Co200 O198 2.122 . S
Co200 O211 1.976 . S
Co200 O212 2.327 . S
Co200 O213 2.073 . S
H201 O198 0.980 . S
O202 Co194 2.073 . S
O202 C217 1.245 . S
O203 Co193 2.264 1_554 S
O203 Co194 2.327 . S
O203 C217 1.257 . S
O204 Co194 1.976 . S
O204 C216 1.251 . S
O205 Co195 2.110 1_565 S
O205 C216 1.274 . S
O206 Co195 2.145 . S
O206 C219 1.246 . S
O207 Co199 2.286 . S
O207 C218 1.259 . S
O208 Co199 2.069 . S
O208 C218 1.289 . S
O209 Co199 2.015 . S
O209 C219 1.257 . S
O210 Co195 2.112 1_556 S
O210 C220 1.274 . S
O211 Co200 1.976 . S
O211 C220 1.251 . S
O212 Co199 2.264 1_556 S
O212 Co200 2.327 . S
O212 C221 1.257 . S
O213 Co200 2.073 . S
O213 C221 1.245 . S
C214 O222 1.259 . S
C214 O223 1.289 . S
C215 O224 1.246 . S
C215 O225 1.257 . S
C216 O204 1.251 . S
C216 O205 1.274 . S
C217 O202 1.245 . S
C217 O203 1.257 . S
C218 O207 1.259 . S
C218 O208 1.289 . S
C219 O206 1.246 . S
C219 O209 1.257 . S
C220 O210 1.274 . S
C220 O211 1.251 . S
C221 O212 1.257 . S
C221 O213 1.245 . S
O222 Co193 2.286 . S
O222 C214 1.259 . S
O223 Co193 2.069 . S
O223 C214 1.289 . S
O224 Co195 2.142 1_566 S
O224 C215 1.246 . S
O225 Co193 2.015 . S
O225 C215 1.257 . S
Co226 O229 2.042 1_556 S
Co226 O236 2.264 1_556 S
Co226 O255 2.286 . S
Co226 O256 2.069 . S
Co226 O258 2.015 1_455 S
Co227 O229 2.122 . S
Co227 O235 2.073 . S
Co227 O236 2.327 . S
Co227 O237 1.976 1_455 S
Co228 O229 2.089 . S
Co228 O231 2.085 1_454 S
Co228 O238 2.110 1_455 S
Co228 O239 2.144 . S
Co228 O243 2.113 1_554 S
Co228 O257 2.143 1_454 S
O229 Co226 2.042 1_554 S
O229 Co227 2.122 . S
O229 Co228 2.089 . S
O229 H230 0.980 . S
H230 O229 0.980 . S
O231 Co228 2.085 1_656 S
O231 Co232 2.042 1_556 S
O231 Co233 2.122 . S
O231 H234 0.980 . S
Co232 O231 2.042 1_554 S
Co232 O240 2.286 . S
Co232 O241 2.069 . S
Co232 O242 2.015 1_655 S
Co232 O245 2.264 1_554 S
Co233 O231 2.122 . S
Co233 O244 1.976 1_655 S
Co233 O245 2.327 . S
Co233 O246 2.073 . S
H234 O231 0.980 . S
O235 Co227 2.073 . S
O235 C250 1.245 . S
O236 Co226 2.264 1_554 S
O236 Co227 2.327 . S
O236 C250 1.257 . S
O237 Co227 1.976 1_655 S
O237 C249 1.251 . S
O238 Co228 2.110 1_655 S
O238 C249 1.274 . S
O239 Co228 2.144 . S
O239 C252 1.246 . S
O240 Co232 2.286 . S
O240 C251 1.259 . S
O241 Co232 2.069 . S
O241 C251 1.289 . S
O242 Co232 2.015 1_455 S
O242 C252 1.257 . S
O243 Co228 2.113 1_556 S
O243 C253 1.274 . S
O244 Co233 1.976 1_455 S
O244 C253 1.251 . S
O245 Co232 2.264 1_556 S
O245 Co233 2.327 . S
O245 C254 1.257 . S
O246 Co233 2.073 . S
O246 C254 1.245 . S
C247 O255 1.259 . S
C247 O256 1.289 . S
C248 O257 1.246 . S
C248 O258 1.257 . S
C249 O237 1.251 . S
C249 O238 1.274 . S
C250 O235 1.245 . S
C250 O236 1.257 . S
C251 O240 1.259 . S
C251 O241 1.289 . S
C252 O239 1.246 . S
C252 O242 1.257 . S
C253 O243 1.274 . S
C253 O244 1.251 . S
C254 O245 1.257 . S
C254 O246 1.245 . S
O255 Co226 2.286 . S
O255 C247 1.259 . S
O256 Co226 2.069 . S
O256 C247 1.289 . S
O257 Co228 2.143 1_656 S
O257 C248 1.246 . S
O258 Co226 2.015 1_655 S
O258 C248 1.257 . S
Co259 O262 2.042 1_556 S
Co259 O269 2.264 1_556 S
Co259 O288 2.286 . S
Co259 O289 2.069 . S
Co259 O291 2.015 . S
Co260 O262 2.122 . S
Co260 O268 2.073 . S
Co260 O269 2.327 . S
Co260 O270 1.976 . S
Co261 O262 2.087 . S
Co261 O264 2.087 1_554 S
Co261 O271 2.111 . S
Co261 O272 2.143 . S
Co261 O276 2.111 1_554 S
Co261 O290 2.143 1_554 S
O262 Co259 2.042 1_554 S
O262 Co260 2.122 . S
O262 Co261 2.087 . S
O262 H263 0.980 . S
H263 O262 0.980 . S
O264 Co261 2.087 1_556 S
O264 Co265 2.042 1_556 S
O264 Co266 2.122 . S
O264 H267 0.980 . S
Co265 O264 2.042 1_554 S
Co265 O273 2.286 . S
Co265 O274 2.069 . S
Co265 O275 2.015 . S
Co265 O278 2.264 1_554 S
Co266 O264 2.122 . S
Co266 O277 1.976 . S
Co266 O278 2.327 . S
Co266 O279 2.073 . S
H267 O264 0.980 . S
O268 Co260 2.073 . S
O268 C283 1.245 . S
O269 Co259 2.264 1_554 S
O269 Co260 2.327 . S
O269 C283 1.257 . S
O270 Co260 1.976 . S
O270 C282 1.251 . S
O271 Co261 2.111 . S
O271 C282 1.274 . S
O272 Co261 2.143 . S
O272 C285 1.246 . S
O273 Co265 2.286 . S
O273 C284 1.259 . S
O274 Co265 2.069 . S
O274 C284 1.289 . S
O275 Co265 2.015 . S
O275 C285 1.257 . S
O276 Co261 2.111 1_556 S
O276 C286 1.274 . S
O277 Co266 1.976 . S
O277 C286 1.251 . S
O278 Co265 2.264 1_556 S
O278 Co266 2.327 . S
O278 C287 1.257 . S
O279 Co266 2.073 . S
O279 C287 1.245 . S
C280 O288 1.259 . S
C280 O289 1.289 . S
C281 O290 1.246 . S
C281 O291 1.257 . S
C282 O270 1.251 . S
C282 O271 1.274 . S
C283 O268 1.245 . S
C283 O269 1.257 . S
C284 O273 1.259 . S
C284 O274 1.289 . S
C285 O272 1.246 . S
C285 O275 1.257 . S
C286 O276 1.274 . S
C286 O277 1.251 . S
C287 O278 1.257 . S
C287 O279 1.245 . S
O288 Co259 2.286 . S
O288 C280 1.259 . S
O289 Co259 2.069 . S
O289 C280 1.289 . S
O290 Co261 2.143 1_556 S
O290 C281 1.246 . S
O291 Co259 2.015 . S
O291 C281 1.257 . S
Co292 O295 2.042 . S
Co292 O302 2.264 . S
Co292 O321 2.286 . S
Co292 O322 2.069 . S
Co292 O324 2.015 . S
Co293 O295 2.122 . S
Co293 O301 2.073 . S
Co293 O302 2.327 . S
Co293 O303 1.976 . S
Co294 O295 2.089 . S
Co294 O297 2.085 1_455 S
Co294 O304 2.112 . S
Co294 O305 2.142 1_455 S
Co294 O309 2.111 1_455 S
Co294 O323 2.145 . S
O295 Co292 2.042 . S
O295 Co293 2.122 . S
O295 Co294 2.089 . S
O295 H296 0.980 . S
H296 O295 0.980 . S
O297 Co294 2.085 1_655 S
O297 Co298 2.042 . S
O297 Co299 2.122 . S
O297 H300 0.980 . S
Co298 O297 2.042 . S
Co298 O306 2.286 . S
Co298 O307 2.069 . S
Co298 O308 2.015 . S
Co298 O311 2.264 . S
Co299 O297 2.122 . S
Co299 O310 1.976 . S
Co299 O311 2.327 . S
Co299 O312 2.073 . S
H300 O297 0.980 . S
O301 Co293 2.073 . S
O301 C316 1.245 . S
O302 Co292 2.264 . S
O302 Co293 2.327 . S
O302 C316 1.257 . S
O303 Co293 1.976 . S
O303 C315 1.251 . S
O304 Co294 2.112 . S
O304 C315 1.274 . S
O305 Co294 2.142 1_655 S
O305 C318 1.246 . S
O306 Co298 2.286 . S
O306 C317 1.259 . S
O307 Co298 2.069 . S
O307 C317 1.289 . S
O308 Co298 2.015 . S
O308 C318 1.257 . S
O309 Co294 2.111 1_655 S
O309 C319 1.274 . S
O310 Co299 1.976 . S
O310 C319 1.251 . S
O311 Co298 2.264 . S
O311 Co299 2.327 . S
O311 C320 1.257 . S
O312 Co299 2.073 . S
O312 C320 1.245 . S
C313 O321 1.259 . S
C313 O322 1.289 . S
C314 O323 1.246 . S
C314 O324 1.257 . S
C315 O303 1.251 . S
C315 O304 1.274 . S
C316 O301 1.245 . S
C316 O302 1.257 . S
C317 O306 1.259 . S
C317 O307 1.289 . S
C318 O305 1.246 . S
C318 O308 1.257 . S
C319 O309 1.274 . S
C319 O310 1.251 . S
C320 O311 1.257 . S
C320 O312 1.245 . S
O321 Co292 2.286 . S
O321 C313 1.259 . S
O322 Co292 2.069 . S
O322 C313 1.289 . S
O323 Co294 2.145 . S
O323 C314 1.246 . S
O324 Co292 2.015 . S
O324 C314 1.257 . S
Co325 O328 2.042 . S
Co325 O335 2.264 . S
Co325 O354 2.286 . S
Co325 O355 2.069 . S
Co325 O357 2.015 1_565 S
Co326 O328 2.122 . S
Co326 O334 2.073 . S
Co326 O335 2.327 . S
Co326 O336 1.976 1_565 S
Co327 O328 2.084 1_545 S
Co327 O330 2.090 . S
Co327 O337 2.113 . S
Co327 O338 2.142 1_545 S
Co327 O342 2.109 1_545 S
Co327 O356 2.145 . S
O328 Co325 2.042 . S
O328 Co326 2.122 . S
O328 Co327 2.084 1_565 S
O328 H329 0.980 . S
H329 O328 0.980 . S
O330 Co327 2.090 . S
O330 Co331 2.042 . S
O330 Co332 2.122 . S
O330 H333 0.980 . S
Co331 O330 2.042 . S
Co331 O339 2.286 . S
Co331 O340 2.069 . S
Co331 O341 2.015 1_545 S
Co331 O344 2.264 . S
Co332 O330 2.122 . S
Co332 O343 1.976 1_545 S
Co332 O344 2.327 . S
Co332 O345 2.073 . S
H333 O330 0.980 . S
O334 Co326 2.073 . S
O334 C349 1.245 . S
O335 Co325 2.264 . S
O335 Co326 2.327 . S
O335 C349 1.257 . S
O336 Co326 1.976 1_545 S
O336 C348 1.251 . S
O337 Co327 2.113 . S
O337 C348 1.274 . S
O338 Co327 2.142 1_565 S
O338 C351 1.246 . S
O339 Co331 2.286 . S
O339 C350 1.259 . S
O340 Co331 2.069 . S
O340 C350 1.289 . S
O341 Co331 2.015 1_565 S
O341 C351 1.257 . S
O342 Co327 2.109 1_565 S
O342 C352 1.274 . S
O343 Co332 1.976 1_565 S
O343 C352 1.251 . S
O344 Co331 2.264 . S
O344 Co332 2.327 . S
O344 C353 1.257 . S
O345 Co332 2.073 . S
O345 C353 1.245 . S
C346 O354 1.259 . S
C346 O355 1.289 . S
C347 O356 1.246 . S
C347 O357 1.257 . S
C348 O336 1.251 . S
C348 O337 1.274 . S
C349 O334 1.245 . S
C349 O335 1.257 . S
C350 O339 1.259 . S
C350 O340 1.289 . S
C351 O338 1.246 . S
C351 O341 1.257 . S
C352 O342 1.274 . S
C352 O343 1.251 . S
C353 O344 1.257 . S
C353 O345 1.245 . S
O354 Co325 2.286 . S
O354 C346 1.259 . S
O355 Co325 2.069 . S
O355 C346 1.289 . S
O356 Co327 2.145 . S
O356 C347 1.246 . S
O357 Co325 2.015 1_545 S
O357 C347 1.257 . S
C358 C359 1.369 . S
C358 C360 1.419 . S
C358 H362 0.930 . S
C359 C358 1.369 . S
C359 C368 1.429 . S
C360 C358 1.419 . S
C360 C361 1.363 . S
C360 H363 0.929 . S
C361 C360 1.363 . S
C361 C367 1.428 . S
H362 C358 0.930 . S
H363 C360 0.929 . S
S364 N365 1.613 . S
S364 N366 1.610 . S
N365 S364 1.613 . S
N365 C368 1.350 . S
N366 S364 1.610 . S
N366 C367 1.351 . S
C367 C361 1.428 . S
C367 N366 1.351 . S
C367 C368 1.434 . S
C368 C359 1.429 . S
C368 N365 1.350 . S
C368 C367 1.434 . S
C369 C370 1.369 . S
C369 C371 1.419 . S
C369 H373 0.930 . S
C370 C369 1.369 . S
C370 C379 1.429 . S
C371 C369 1.419 . S
C371 C372 1.363 . S
C371 H374 0.929 . S
C372 C371 1.363 . S
C372 C378 1.428 . S
H373 C369 0.930 . S
H374 C371 0.929 . S
S375 N376 1.613 . S
S375 N377 1.610 . S
N376 S375 1.613 . S
N376 C379 1.350 . S
N377 S375 1.610 . S
N377 C378 1.351 . S
C378 C372 1.428 . S
C378 N377 1.351 . S
C378 C379 1.434 . S
C379 C370 1.429 . S
C379 N376 1.350 . S
C379 C378 1.434 . S
C380 C381 1.369 . S
C380 C382 1.419 . S
C380 H384 0.930 . S
C381 C380 1.369 . S
C381 C390 1.429 . S
C382 C380 1.419 . S
C382 C383 1.363 . S
C382 H385 0.929 . S
C383 C382 1.363 . S
C383 C389 1.428 . S
H384 C380 0.930 . S
H385 C382 0.929 . S
S386 N387 1.613 . S
S386 N388 1.610 . S
N387 S386 1.613 . S
N387 C390 1.350 . S
N388 S386 1.610 . S
N388 C389 1.351 . S
C389 C383 1.428 . S
C389 N388 1.351 . S
C389 C390 1.434 . S
C390 C381 1.429 . S
C390 N387 1.350 . S
C390 C389 1.434 . S
C391 C392 1.369 . S
C391 C393 1.419 . S
C391 H395 0.930 . S
C392 C391 1.369 . S
C392 C401 1.429 . S
C393 C391 1.419 . S
C393 C394 1.363 . S
C393 H396 0.929 . S
C394 C393 1.363 . S
C394 C400 1.428 . S
H395 C391 0.930 . S
H396 C393 0.929 . S
S397 N398 1.613 . S
S397 N399 1.610 . S
N398 S397 1.613 . S
N398 C401 1.350 . S
N399 S397 1.610 . S
N399 C400 1.351 . S
C400 C394 1.428 . S
C400 N399 1.351 . S
C400 C401 1.434 . S
C401 C392 1.429 . S
C401 N398 1.350 . S
C401 C400 1.434 . S
C402 C403 1.369 . S
C402 C404 1.419 . S
C402 H406 0.930 . S
C403 C402 1.369 . S
C403 C412 1.429 . S
C404 C402 1.419 . S
C404 C405 1.363 . S
C404 H407 0.929 . S
C405 C404 1.363 . S
C405 C411 1.428 . S
H406 C402 0.930 . S
H407 C404 0.929 . S
S408 N409 1.613 . S
S408 N410 1.610 . S
N409 S408 1.613 . S
N409 C412 1.350 . S
N410 S408 1.610 . S
N410 C411 1.351 . S
C411 C405 1.428 . S
C411 N410 1.351 . S
C411 C412 1.434 . S
C412 C403 1.429 . S
C412 N409 1.350 . S
C412 C411 1.434 . S
C413 C414 1.369 . S
C413 C415 1.419 . S
C413 H417 0.930 . S
C414 C413 1.369 . S
C414 C423 1.429 . S
C415 C413 1.419 . S
C415 C416 1.363 . S
C415 H418 0.929 . S
C416 C415 1.363 . S
C416 C422 1.428 . S
H417 C413 0.930 . S
H418 C415 0.929 . S
S419 N420 1.613 . S
S419 N421 1.610 . S
N420 S419 1.613 . S
N420 C423 1.350 . S
N421 S419 1.610 . S
N421 C422 1.351 . S
C422 C416 1.428 . S
C422 N421 1.351 . S
C422 C423 1.434 . S
C423 C414 1.429 . S
C423 N420 1.350 . S
C423 C422 1.434 . S
C424 C425 1.369 . S
C424 C426 1.419 . S
C424 H428 0.930 . S
C425 C424 1.369 . S
C425 C434 1.429 . S
C426 C424 1.419 . S
C426 C427 1.363 . S
C426 H429 0.929 . S
C427 C426 1.363 . S
C427 C433 1.428 . S
H428 C424 0.930 . S
H429 C426 0.929 . S
S430 N431 1.613 . S
S430 N432 1.610 . S
N431 S430 1.613 . S
N431 C434 1.350 . S
N432 S430 1.610 . S
N432 C433 1.351 . S
C433 C427 1.428 . S
C433 N432 1.351 . S
C433 C434 1.434 . S
C434 C425 1.429 . S
C434 N431 1.350 . S
C434 C433 1.434 . S
C435 C436 1.369 . S
C435 C437 1.419 . S
C435 H439 0.930 . S
C436 C435 1.369 . S
C436 C445 1.429 . S
C437 C435 1.419 . S
C437 C438 1.363 . S
C437 H440 0.929 . S
C438 C437 1.363 . S
C438 C444 1.428 . S
H439 C435 0.930 . S
H440 C437 0.929 . S
S441 N442 1.613 . S
S441 N443 1.610 . S
N442 S441 1.613 . S
N442 C445 1.350 . S
N443 S441 1.610 . S
N443 C444 1.351 . S
C444 C438 1.428 . S
C444 N443 1.351 . S
C444 C445 1.434 . S
C445 C436 1.429 . S
C445 N442 1.350 . S
C445 C444 1.434 . S
C446 C447 1.369 . S
C446 C448 1.419 . S
C446 H450 0.930 . S
C447 C446 1.369 . S
C447 C456 1.429 . S
C448 C446 1.419 . S
C448 C449 1.363 . S
C448 H451 0.929 . S
C449 C448 1.363 . S
C449 C455 1.428 . S
H450 C446 0.930 . S
H451 C448 0.929 . S
S452 N453 1.613 . S
S452 N454 1.610 . S
N453 S452 1.613 . S
N453 C456 1.350 . S
N454 S452 1.610 . S
N454 C455 1.351 . S
C455 C449 1.428 . S
C455 N454 1.351 . S
C455 C456 1.434 . S
C456 C447 1.429 . S
C456 N453 1.350 . S
C456 C455 1.434 . S
C457 C458 1.369 . S
C457 C459 1.419 . S
C457 H461 0.930 . S
C458 C457 1.369 . S
C458 C467 1.429 . S
C459 C457 1.419 . S
C459 C460 1.363 . S
C459 H462 0.929 . S
C460 C459 1.363 . S
C460 C466 1.428 . S
H461 C457 0.930 . S
H462 C459 0.929 . S
S463 N464 1.613 1_556 S
S463 N465 1.610 . S
N464 S463 1.613 1_554 S
N464 C467 1.350 . S
N465 S463 1.610 . S
N465 C466 1.351 1_556 S
C466 C460 1.428 . S
C466 N465 1.351 1_554 S
C466 C467 1.434 . S
C467 C458 1.429 . S
C467 N464 1.350 . S
C467 C466 1.434 . S
C468 C469 1.369 . S
C468 C470 1.419 . S
C468 H472 0.930 . S
C469 C468 1.369 . S
C469 C478 1.429 . S
C470 C468 1.419 . S
C470 C471 1.363 . S
C470 H473 0.929 . S
C471 C470 1.363 . S
C471 C477 1.428 . S
H472 C468 0.930 . S
H473 C470 0.929 . S
S474 N475 1.613 . S
S474 N476 1.610 . S
N475 S474 1.613 . S
N475 C478 1.350 . S
N476 S474 1.610 . S
N476 C477 1.351 . S
C477 C471 1.428 . S
C477 N476 1.351 . S
C477 C478 1.434 . S
C478 C469 1.429 . S
C478 N475 1.350 . S
C478 C477 1.434 . S
C479 C480 1.369 . S
C479 C481 1.419 . S
C479 H483 0.930 . S
C480 C479 1.369 . S
C480 C489 1.429 . S
C481 C479 1.419 . S
C481 C482 1.363 . S
C481 H484 0.929 . S
C482 C481 1.363 . S
C482 C488 1.428 . S
H483 C479 0.930 . S
H484 C481 0.929 . S
S485 N486 1.613 1_556 S
S485 N487 1.610 . S
N486 S485 1.613 1_554 S
N486 C489 1.350 . S
N487 S485 1.610 . S
N487 C488 1.351 1_556 S
C488 C482 1.428 . S
C488 N487 1.351 1_554 S
C488 C489 1.434 . S
C489 C480 1.429 . S
C489 N486 1.350 . S
C489 C488 1.434 . S
C490 C491 1.369 . S
C490 C492 1.419 . S
C490 H494 0.930 . S
C491 C490 1.369 . S
C491 C500 1.429 . S
C492 C490 1.419 . S
C492 C493 1.363 . S
C492 H495 0.929 . S
C493 C492 1.363 . S
C493 C499 1.428 . S
H494 C490 0.930 . S
H495 C492 0.929 . S
S496 N497 1.613 . S
S496 N498 1.610 . S
N497 S496 1.613 . S
N497 C500 1.350 . S
N498 S496 1.610 . S
N498 C499 1.351 . S
C499 C493 1.428 . S
C499 N498 1.351 . S
C499 C500 1.434 . S
C500 C491 1.429 . S
C500 N497 1.350 . S
C500 C499 1.434 . S
C501 C502 1.369 . S
C501 C503 1.419 . S
C501 H505 0.930 . S
C502 C501 1.369 . S
C502 C511 1.429 . S
C503 C501 1.419 . S
C503 C504 1.363 . S
C503 H506 0.929 . S
C504 C503 1.363 . S
C504 C510 1.428 . S
H505 C501 0.930 . S
H506 C503 0.929 . S
S507 N508 1.613 1_554 S
S507 N509 1.610 . S
N508 S507 1.613 1_556 S
N508 C511 1.350 . S
N509 S507 1.610 . S
N509 C510 1.351 1_554 S
C510 C504 1.428 . S
C510 N509 1.351 1_556 S
C510 C511 1.434 . S
C511 C502 1.429 . S
C511 N508 1.350 . S
C511 C510 1.434 . S
C512 C513 1.369 . S
C512 C514 1.419 . S
C512 H516 0.930 . S
C513 C512 1.369 . S
C513 C522 1.429 . S
C514 C512 1.419 . S
C514 C515 1.363 . S
C514 H517 0.929 . S
C515 C514 1.363 . S
C515 C521 1.428 . S
H516 C512 0.930 . S
H517 C514 0.929 . S
S518 N519 1.613 . S
S518 N520 1.610 . S
N519 S518 1.613 . S
N519 C522 1.350 . S
N520 S518 1.610 . S
N520 C521 1.351 . S
C521 C515 1.428 . S
C521 N520 1.351 . S
C521 C522 1.434 . S
C522 C513 1.429 . S
C522 N519 1.350 . S
C522 C521 1.434 . S
C523 C524 1.369 . S
C523 C525 1.419 . S
C523 H527 0.930 . S
C524 C523 1.369 . S
C524 C533 1.429 . S
C525 C523 1.419 . S
C525 C526 1.363 . S
C525 H528 0.929 . S
C526 C525 1.363 . S
C526 C532 1.428 . S
H527 C523 0.930 . S
H528 C525 0.929 . S
S529 N530 1.613 1_554 S
S529 N531 1.610 . S
N530 S529 1.613 1_556 S
N530 C533 1.350 . S
N531 S529 1.610 . S
N531 C532 1.351 1_554 S
C532 C526 1.428 . S
C532 N531 1.351 1_556 S
C532 C533 1.434 . S
C533 C524 1.429 . S
C533 N530 1.350 . S
C533 C532 1.434 . S
C534 C535 1.369 . S
C534 C536 1.419 . S
C534 H538 0.930 . S
C535 C534 1.369 . S
C535 C544 1.429 . S
C536 C534 1.419 . S
C536 C537 1.363 . S
C536 H539 0.929 . S
C537 C536 1.363 . S
C537 C543 1.428 . S
H538 C534 0.930 . S
H539 C536 0.929 . S
S540 N541 1.613 . S
S540 N542 1.610 . S
N541 S540 1.613 . S
N541 C544 1.350 . S
N542 S540 1.610 . S
N542 C543 1.351 . S
C543 C537 1.428 . S
C543 N542 1.351 . S
C543 C544 1.434 . S
C544 C535 1.429 . S
C544 N541 1.350 . S
C544 C543 1.434 . S
C545 C546 1.369 . S
C545 C547 1.419 . S
C545 H549 0.930 . S
C546 C545 1.369 . S
C546 C555 1.429 . S
C547 C545 1.419 . S
C547 C548 1.363 . S
C547 H550 0.929 . S
C548 C547 1.363 . S
C548 C554 1.428 . S
H549 C545 0.930 . S
H550 C547 0.929 . S
S551 N552 1.613 . S
S551 N553 1.610 . S
N552 S551 1.613 . S
N552 C555 1.350 . S
N553 S551 1.610 . S
N553 C554 1.351 . S
C554 C548 1.428 . S
C554 N553 1.351 . S
C554 C555 1.434 . S
C555 C546 1.429 . S
C555 N552 1.350 . S
C555 C554 1.434 . S
C556 C557 1.369 . S
C556 C558 1.419 . S
C556 H560 0.930 . S
C557 C556 1.369 . S
C557 C566 1.429 . S
C558 C556 1.419 . S
C558 C559 1.363 . S
C558 H561 0.929 . S
C559 C558 1.363 . S
C559 C565 1.428 . S
H560 C556 0.930 . S
H561 C558 0.929 . S
S562 N563 1.613 . S
S562 N564 1.610 . S
N563 S562 1.613 . S
N563 C566 1.350 . S
N564 S562 1.610 . S
N564 C565 1.351 . S
C565 C559 1.428 . S
C565 N564 1.351 . S
C565 C566 1.434 . S
C566 C557 1.429 . S
C566 N563 1.350 . S
C566 C565 1.434 . S
C567 C568 1.369 . S
C567 C569 1.419 . S
C567 H571 0.930 . S
C568 C567 1.369 . S
C568 C577 1.429 . S
C569 C567 1.419 . S
C569 C570 1.363 . S
C569 H572 0.929 . S
C570 C569 1.363 . S
C570 C576 1.428 . S
H571 C567 0.930 . S
H572 C569 0.929 . S
S573 N574 1.613 . S
S573 N575 1.610 . S
N574 S573 1.613 . S
N574 C577 1.350 . S
N575 S573 1.610 . S
N575 C576 1.351 . S
C576 C570 1.428 . S
C576 N575 1.351 . S
C576 C577 1.434 . S
C577 C568 1.429 . S
C577 N574 1.350 . S
C577 C576 1.434 . S
C578 C579 1.369 . S
C578 C580 1.419 . S
C578 H582 0.930 . S
C579 C578 1.369 . S
C579 C588 1.429 . S
C580 C578 1.419 . S
C580 C581 1.363 . S
C580 H583 0.929 . S
C581 C580 1.363 . S
C581 C587 1.428 . S
H582 C578 0.930 . S
H583 C580 0.929 . S
S584 N585 1.613 . S
S584 N586 1.610 . S
N585 S584 1.613 . S
N585 C588 1.350 . S
N586 S584 1.610 . S
N586 C587 1.351 . S
C587 C581 1.428 . S
C587 N586 1.351 . S
C587 C588 1.434 . S
C588 C579 1.429 . S
C588 N585 1.350 . S
C588 C587 1.434 . S
C589 C590 1.369 . S
C589 C591 1.419 . S
C589 H593 0.930 . S
C590 C589 1.369 . S
C590 C599 1.429 . S
C591 C589 1.419 . S
C591 C592 1.363 . S
C591 H594 0.929 . S
C592 C591 1.363 . S
C592 C598 1.428 . S
H593 C589 0.930 . S
H594 C591 0.929 . S
S595 N596 1.613 . S
S595 N597 1.610 . S
N596 S595 1.613 . S
N596 C599 1.350 . S
N597 S595 1.610 . S
N597 C598 1.351 . S
C598 C592 1.428 . S
C598 N597 1.351 . S
C598 C599 1.434 . S
C599 C590 1.429 . S
C599 N596 1.350 . S
C599 C598 1.434 . S
C600 C601 1.369 . S
C600 C602 1.419 . S
C600 H604 0.930 . S
C601 C600 1.369 . S
C601 C610 1.429 . S
C602 C600 1.419 . S
C602 C603 1.363 . S
C602 H605 0.929 . S
C603 C602 1.363 . S
C603 C609 1.428 . S
H604 C600 0.930 . S
H605 C602 0.929 . S
S606 N607 1.613 1_556 S
S606 N608 1.610 1_556 S
N607 S606 1.613 1_554 S
N607 C610 1.350 . S
N608 S606 1.610 1_554 S
N608 C609 1.351 . S
C609 C603 1.428 . S
C609 N608 1.351 . S
C609 C610 1.434 . S
C610 C601 1.429 . S
C610 N607 1.350 . S
C610 C609 1.434 . S
C611 C612 1.369 . S
C611 C613 1.419 . S
C611 H615 0.930 . S
C612 C611 1.369 . S
C612 C621 1.429 . S
C613 C611 1.419 . S
C613 C614 1.363 . S
C613 H616 0.929 . S
C614 C613 1.363 . S
C614 C620 1.428 . S
H615 C611 0.930 . S
H616 C613 0.929 . S
S617 N618 1.613 . S
S617 N619 1.610 . S
N618 S617 1.613 . S
N618 C621 1.350 . S
N619 S617 1.610 . S
N619 C620 1.351 . S
C620 C614 1.428 . S
C620 N619 1.351 . S
C620 C621 1.434 . S
C621 C612 1.429 . S
C621 N618 1.350 . S
C621 C620 1.434 . S
C622 C623 1.369 . S
C622 C624 1.419 . S
C622 H626 0.930 . S
C623 C622 1.369 . S
C623 C632 1.429 . S
C624 C622 1.419 . S
C624 C625 1.363 . S
C624 H627 0.929 . S
C625 C624 1.363 . S
C625 C631 1.428 . S
H626 C622 0.930 . S
H627 C624 0.929 . S
S628 N629 1.613 . S
S628 N630 1.610 . S
N629 S628 1.613 . S
N629 C632 1.350 . S
N630 S628 1.610 . S
N630 C631 1.351 . S
C631 C625 1.428 . S
C631 N630 1.351 . S
C631 C632 1.434 . S
C632 C623 1.429 . S
C632 N629 1.350 . S
C632 C631 1.434 . S
C633 C634 1.369 . S
C633 C635 1.419 . S
C633 H637 0.930 . S
C634 C633 1.369 . S
C634 C643 1.429 . S
C635 C633 1.419 . S
C635 C636 1.363 . S
C635 H638 0.929 . S
C636 C635 1.363 . S
C636 C642 1.428 . S
H637 C633 0.930 . S
H638 C635 0.929 . S
S639 N640 1.613 . S
S639 N641 1.610 . S
N640 S639 1.613 . S
N640 C643 1.350 . S
N641 S639 1.610 . S
N641 C642 1.351 . S
C642 C636 1.428 . S
C642 N641 1.351 . S
C642 C643 1.434 . S
C643 C634 1.429 . S
C643 N640 1.350 . S
C643 C642 1.434 . S
C644 C645 1.369 . S
C644 C646 1.419 . S
C644 H648 0.930 . S
C645 C644 1.369 . S
C645 C654 1.429 . S
C646 C644 1.419 . S
C646 C647 1.363 . S
C646 H649 0.929 . S
C647 C646 1.363 . S
C647 C653 1.428 . S
H648 C644 0.930 . S
H649 C646 0.929 . S
S650 N651 1.613 . S
S650 N652 1.610 . S
N651 S650 1.613 . S
N651 C654 1.350 . S
N652 S650 1.610 . S
N652 C653 1.351 . S
C653 C647 1.428 . S
C653 N652 1.351 . S
C653 C654 1.434 . S
C654 C645 1.429 . S
C654 N651 1.350 . S
C654 C653 1.434 . S
C655 C656 1.369 . S
C655 C657 1.419 . S
C655 H659 0.930 . S
C656 C655 1.369 . S
C656 C665 1.429 . S
C657 C655 1.419 . S
C657 C658 1.363 . S
C657 H660 0.929 . S
C658 C657 1.363 . S
C658 C664 1.428 . S
H659 C655 0.930 . S
H660 C657 0.929 . S
S661 N662 1.613 1_554 S
S661 N663 1.610 . S
N662 S661 1.613 1_556 S
N662 C665 1.350 . S
N663 S661 1.610 . S
N663 C664 1.351 1_554 S
C664 C658 1.428 . S
C664 N663 1.351 1_556 S
C664 C665 1.434 . S
C665 C656 1.429 . S
C665 N662 1.350 . S
C665 C664 1.434 . S
C666 C667 1.369 . S
C666 C668 1.419 . S
C666 H670 0.930 . S
C667 C666 1.369 . S
C667 C676 1.429 . S
C668 C666 1.419 . S
C668 C669 1.363 . S
C668 H671 0.929 . S
C669 C668 1.363 . S
C669 C675 1.428 . S
H670 C666 0.930 . S
H671 C668 0.929 . S
S672 N673 1.613 . S
S672 N674 1.610 . S
N673 S672 1.613 . S
N673 C676 1.350 . S
N674 S672 1.610 . S
N674 C675 1.351 . S
C675 C669 1.428 . S
C675 N674 1.351 . S
C675 C676 1.434 . S
C676 C667 1.429 . S
C676 N673 1.350 . S
C676 C675 1.434 . S
C677 C678 1.369 . S
C677 C679 1.419 . S
C677 H681 0.930 . S
C678 C677 1.369 . S
C678 C687 1.429 . S
C679 C677 1.419 . S
C679 C680 1.363 . S
C679 H682 0.929 . S
C680 C679 1.363 . S
C680 C686 1.428 . S
H681 C677 0.930 . S
H682 C679 0.929 . S
S683 N684 1.613 . S
S683 N685 1.610 . S
N684 S683 1.613 . S
N684 C687 1.350 . S
N685 S683 1.610 . S
N685 C686 1.351 . S
C686 C680 1.428 . S
C686 N685 1.351 . S
C686 C687 1.434 . S
C687 C678 1.429 . S
C687 N684 1.350 . S
C687 C686 1.434 . S
C688 C689 1.369 . S
C688 C690 1.419 . S
C688 H692 0.930 . S
C689 C688 1.369 . S
C689 C698 1.429 . S
C690 C688 1.419 . S
C690 C691 1.363 . S
C690 H693 0.929 . S
C691 C690 1.363 . S
C691 C697 1.428 . S
H692 C688 0.930 . S
H693 C690 0.929 . S
S694 N695 1.613 1_556 S
S694 N696 1.610 . S
N695 S694 1.613 1_554 S
N695 C698 1.350 . S
N696 S694 1.610 . S
N696 C697 1.351 1_556 S
C697 C691 1.428 . S
C697 N696 1.351 1_554 S
C697 C698 1.434 . S
C698 C689 1.429 . S
C698 N695 1.350 . S
C698 C697 1.434 . S
C699 C700 1.369 . S
C699 C701 1.419 . S
C699 H703 0.930 . S
C700 C699 1.369 . S
C700 C709 1.429 . S
C701 C699 1.419 . S
C701 C702 1.363 . S
C701 H704 0.929 . S
C702 C701 1.363 . S
C702 C708 1.428 . S
H703 C699 0.930 . S
H704 C701 0.929 . S
S705 N706 1.613 . S
S705 N707 1.610 . S
N706 S705 1.613 . S
N706 C709 1.350 . S
N707 S705 1.610 . S
N707 C708 1.351 . S
C708 C702 1.428 . S
C708 N707 1.351 . S
C708 C709 1.434 . S
C709 C700 1.429 . S
C709 N706 1.350 . S
C709 C708 1.434 . S
C710 C711 1.369 . S
C710 C712 1.419 . S
C710 H714 0.930 . S
C711 C710 1.369 . S
C711 C720 1.429 . S
C712 C710 1.419 . S
C712 C713 1.363 . S
C712 H715 0.929 . S
C713 C712 1.363 . S
C713 C719 1.428 . S
H714 C710 0.930 . S
H715 C712 0.929 . S
S716 N717 1.613 . S
S716 N718 1.610 . S
N717 S716 1.613 . S
N717 C720 1.350 . S
N718 S716 1.610 . S
N718 C719 1.351 . S
C719 C713 1.428 . S
C719 N718 1.351 . S
C719 C720 1.434 . S
C720 C711 1.429 . S
C720 N717 1.350 . S
C720 C719 1.434 . S
C721 C722 1.369 . S
C721 C723 1.419 . S
C721 H725 0.930 . S
C722 C721 1.369 . S
C722 C731 1.429 . S
C723 C721 1.419 . S
C723 C724 1.363 . S
C723 H726 0.929 . S
C724 C723 1.363 . S
C724 C730 1.428 . S
H725 C721 0.930 . S
H726 C723 0.929 . S
S727 N728 1.613 . S
S727 N729 1.610 . S
N728 S727 1.613 . S
N728 C731 1.350 . S
N729 S727 1.610 . S
N729 C730 1.351 . S
C730 C724 1.428 . S
C730 N729 1.351 . S
C730 C731 1.434 . S
C731 C722 1.429 . S
C731 N728 1.350 . S
C731 C730 1.434 . S
C732 C733 1.369 . S
C732 C734 1.419 . S
C732 H736 0.930 . S
C733 C732 1.369 . S
C733 C742 1.429 . S
C734 C732 1.419 . S
C734 C735 1.363 . S
C734 H737 0.929 . S
C735 C734 1.363 . S
C735 C741 1.428 . S
H736 C732 0.930 . S
H737 C734 0.929 . S
S738 N739 1.613 . S
S738 N740 1.610 . S
N739 S738 1.613 . S
N739 C742 1.350 . S
N740 S738 1.610 . S
N740 C741 1.351 . S
C741 C735 1.428 . S
C741 N740 1.351 . S
C741 C742 1.434 . S
C742 C733 1.429 . S
C742 N739 1.350 . S
C742 C741 1.434 . S
C743 C744 1.369 . S
C743 C745 1.419 . S
C743 H747 0.930 . S
C744 C743 1.369 . S
C744 C753 1.429 . S
C745 C743 1.419 . S
C745 C746 1.363 . S
C745 H748 0.929 . S
C746 C745 1.363 . S
C746 C752 1.428 . S
H747 C743 0.930 . S
H748 C745 0.929 . S
S749 N750 1.613 . S
S749 N751 1.610 . S
N750 S749 1.613 . S
N750 C753 1.350 . S
N751 S749 1.610 . S
N751 C752 1.351 . S
C752 C746 1.428 . S
C752 N751 1.351 . S
C752 C753 1.434 . S
C753 C744 1.429 . S
C753 N750 1.350 . S
C753 C752 1.434 . S
C754 C755 1.369 . S
C754 C756 1.419 . S
C754 H758 0.930 . S
C755 C754 1.369 . S
C755 C764 1.429 . S
C756 C754 1.419 . S
C756 C757 1.363 . S
C756 H759 0.929 . S
C757 C756 1.363 . S
C757 C763 1.428 . S
H758 C754 0.930 . S
H759 C756 0.929 . S
S760 N761 1.613 . S
S760 N762 1.610 . S
N761 S760 1.613 . S
N761 C764 1.350 . S
N762 S760 1.610 . S
N762 C763 1.351 . S
C763 C757 1.428 . S
C763 N762 1.351 . S
C763 C764 1.434 . S
C764 C755 1.429 . S
C764 N761 1.350 . S
C764 C763 1.434 . S
C765 C766 1.369 . S
C765 C767 1.419 . S
C765 H769 0.930 . S
C766 C765 1.369 . S
C766 C775 1.429 . S
C767 C765 1.419 . S
C767 C768 1.363 . S
C767 H770 0.929 . S
C768 C767 1.363 . S
C768 C774 1.428 . S
H769 C765 0.930 . S
H770 C767 0.929 . S
S771 N772 1.613 . S
S771 N773 1.610 . S
N772 S771 1.613 . S
N772 C775 1.350 . S
N773 S771 1.610 . S
N773 C774 1.351 . S
C774 C768 1.428 . S
C774 N773 1.351 . S
C774 C775 1.434 . S
C775 C766 1.429 . S
C775 N772 1.350 . S
C775 C774 1.434 . S
C776 C777 1.369 . S
C776 C778 1.419 . S
C776 H780 0.930 . S
C777 C776 1.369 . S
C777 C786 1.429 . S
C778 C776 1.419 . S
C778 C779 1.363 . S
C778 H781 0.929 . S
C779 C778 1.363 . S
C779 C785 1.428 . S
H780 C776 0.930 . S
H781 C778 0.929 . S
S782 N783 1.613 . S
S782 N784 1.610 . S
N783 S782 1.613 . S
N783 C786 1.350 . S
N784 S782 1.610 . S
N784 C785 1.351 . S
C785 C779 1.428 . S
C785 N784 1.351 . S
C785 C786 1.434 . S
C786 C777 1.429 . S
C786 N783 1.350 . S
C786 C785 1.434 . S
C787 C788 1.369 . S
C787 C789 1.419 . S
C787 H791 0.930 . S
C788 C787 1.369 . S
C788 C797 1.429 . S
C789 C787 1.419 . S
C789 C790 1.363 . S
C789 H792 0.929 . S
C790 C789 1.363 . S
C790 C796 1.428 . S
H791 C787 0.930 . S
H792 C789 0.929 . S
S793 N794 1.613 . S
S793 N795 1.610 . S
N794 S793 1.613 . S
N794 C797 1.350 . S
N795 S793 1.610 . S
N795 C796 1.351 . S
C796 C790 1.428 . S
C796 N795 1.351 . S
C796 C797 1.434 . S
C797 C788 1.429 . S
C797 N794 1.350 . S
C797 C796 1.434 . S
C798 C799 1.369 . S
C798 C800 1.419 . S
C798 H802 0.930 . S
C799 C798 1.369 . S
C799 C808 1.429 . S
C800 C798 1.419 . S
C800 C801 1.363 . S
C800 H803 0.929 . S
C801 C800 1.363 . S
C801 C807 1.428 . S
H802 C798 0.930 . S
H803 C800 0.929 . S
S804 N805 1.613 . S
S804 N806 1.610 . S
N805 S804 1.613 . S
N805 C808 1.350 . S
N806 S804 1.610 . S
N806 C807 1.351 . S
C807 C801 1.428 . S
C807 N806 1.351 . S
C807 C808 1.434 . S
C808 C799 1.429 . S
C808 N805 1.350 . S
C808 C807 1.434 . S
C809 C810 1.369 . S
C809 C811 1.419 . S
C809 H813 0.930 . S
C810 C809 1.369 . S
C810 C819 1.429 . S
C811 C809 1.419 . S
C811 C812 1.363 . S
C811 H814 0.929 . S
C812 C811 1.363 . S
C812 C818 1.428 . S
H813 C809 0.930 . S
H814 C811 0.929 . S
S815 N816 1.613 . S
S815 N817 1.610 . S
N816 S815 1.613 . S
N816 C819 1.350 . S
N817 S815 1.610 . S
N817 C818 1.351 . S
C818 C812 1.428 . S
C818 N817 1.351 . S
C818 C819 1.434 . S
C819 C810 1.429 . S
C819 N816 1.350 . S
C819 C818 1.434 . S
C820 C821 1.369 . S
C820 C822 1.419 . S
C820 H824 0.930 . S
C821 C820 1.369 . S
C821 C830 1.429 . S
C822 C820 1.419 . S
C822 C823 1.363 . S
C822 H825 0.929 . S
C823 C822 1.363 . S
C823 C829 1.428 . S
H824 C820 0.930 . S
H825 C822 0.929 . S
S826 N827 1.613 . S
S826 N828 1.610 . S
N827 S826 1.613 . S
N827 C830 1.350 . S
N828 S826 1.610 . S
N828 C829 1.351 . S
C829 C823 1.428 . S
C829 N828 1.351 . S
C829 C830 1.434 . S
C830 C821 1.429 . S
C830 N827 1.350 . S
C830 C829 1.434 . S
C831 C832 1.369 . S
C831 C833 1.419 . S
C831 H835 0.930 . S
C832 C831 1.369 . S
C832 C841 1.429 . S
C833 C831 1.419 . S
C833 C834 1.363 . S
C833 H836 0.929 . S
C834 C833 1.363 . S
C834 C840 1.428 . S
H835 C831 0.930 . S
H836 C833 0.929 . S
S837 N838 1.613 . S
S837 N839 1.610 . S
N838 S837 1.613 . S
N838 C841 1.350 . S
N839 S837 1.610 . S
N839 C840 1.351 . S
C840 C834 1.428 . S
C840 N839 1.351 . S
C840 C841 1.434 . S
C841 C832 1.429 . S
C841 N838 1.350 . S
C841 C840 1.434 . S
C842 C843 1.369 . S
C842 C844 1.419 . S
C842 H846 0.930 . S
C843 C842 1.369 . S
C843 C852 1.429 . S
C844 C842 1.419 . S
C844 C845 1.363 . S
C844 H847 0.929 . S
C845 C844 1.363 . S
C845 C851 1.428 . S
H846 C842 0.930 . S
H847 C844 0.929 . S
S848 N849 1.613 . S
S848 N850 1.610 . S
N849 S848 1.613 . S
N849 C852 1.350 . S
N850 S848 1.610 . S
N850 C851 1.351 . S
C851 C845 1.428 . S
C851 N850 1.351 . S
C851 C852 1.434 . S
C852 C843 1.429 . S
C852 N849 1.350 . S
C852 C851 1.434 . S
C853 C854 1.369 . S
C853 C855 1.419 . S
C853 H857 0.930 . S
C854 C853 1.369 . S
C854 C863 1.429 . S
C855 C853 1.419 . S
C855 C856 1.363 . S
C855 H858 0.929 . S
C856 C855 1.363 . S
C856 C862 1.428 . S
H857 C853 0.930 . S
H858 C855 0.929 . S
S859 N860 1.613 . S
S859 N861 1.610 . S
N860 S859 1.613 . S
N860 C863 1.350 . S
N861 S859 1.610 . S
N861 C862 1.351 . S
C862 C856 1.428 . S
C862 N861 1.351 . S
C862 C863 1.434 . S
C863 C854 1.429 . S
C863 N860 1.350 . S
C863 C862 1.434 . S
C864 C865 1.369 . S
C864 C866 1.419 . S
C864 H868 0.930 . S
C865 C864 1.369 . S
C865 C874 1.429 . S
C866 C864 1.419 . S
C866 C867 1.363 . S
C866 H869 0.929 . S
C867 C866 1.363 . S
C867 C873 1.428 . S
H868 C864 0.930 . S
H869 C866 0.929 . S
S870 N871 1.613 . S
S870 N872 1.610 . S
N871 S870 1.613 . S
N871 C874 1.350 . S
N872 S870 1.610 . S
N872 C873 1.351 . S
C873 C867 1.428 . S
C873 N872 1.351 . S
C873 C874 1.434 . S
C874 C865 1.429 . S
C874 N871 1.350 . S
C874 C873 1.434 . S
C875 C876 1.369 . S
C875 C877 1.419 . S
C875 H879 0.930 . S
C876 C875 1.369 . S
C876 C885 1.429 . S
C877 C875 1.419 . S
C877 C878 1.363 . S
C877 H880 0.929 . S
C878 C877 1.363 . S
C878 C884 1.428 . S
H879 C875 0.930 . S
H880 C877 0.929 . S
S881 N882 1.613 . S
S881 N883 1.610 . S
N882 S881 1.613 . S
N882 C885 1.350 . S
N883 S881 1.610 . S
N883 C884 1.351 . S
C884 C878 1.428 . S
C884 N883 1.351 . S
C884 C885 1.434 . S
C885 C876 1.429 . S
C885 N882 1.350 . S
C885 C884 1.434 . S
C361 C187 1.401 . S
C359 C9 1.550 . S
C372 C188 1.478 . S
C370 C22 1.504 . S
C383 C182 1.231 . S
C381 C49 1.245 . S
C392 C61 1.024 . S
C394 C181 1.022 . S
C403 C81 1.499 . S
C405 C184 1.479 . S
C416 C186 1.230 . S
C414 C108 1.242 . S
C425 C122 1.020 . S
C427 C185 1.024 . S
C436 C148 1.551 . S
C438 C183 1.403 . S
C449 C218 2.211 . S
C447 C18 2.130 . S
C458 C39 1.549 . S
C460 C249 1.576 . S
C471 C217 2.080 . S
C469 C58 2.090 . S
C482 C252 1.159 . S
C480 C69 1.180 . S
C491 C89 1.371 . S
C493 C215 1.366 . S
C504 C247 1.291 . S
C502 C102 1.303 . S
C513 C139 1.341 . S
C515 C220 1.393 . S
C524 C142 1.260 . S
C526 C254 1.211 . S
C535 C1 1.260 . S
C537 C250 1.207 . S
C546 C98 1.547 . S
C548 C253 1.575 . S
C559 C221 2.079 . S
C557 C119 2.092 . S
C570 C248 1.153 . S
C568 C128 1.175 . S
C579 C159 2.136 . S
C581 C214 2.212 . S
C590 C41 1.304 . S
C592 C251 1.288 . S
C603 C216 1.394 . S
C601 C78 1.348 . S
C612 C28 1.365 . S
C614 C219 1.369 . S
C623 C149 1.542 . S
C625 C286 1.425 . S
C634 C82 1.274 . S
C636 C287 1.223 . S
C647 C281 1.263 . S
C645 C109 1.292 . S
C658 C280 1.313 . S
C656 C121 1.294 . S
C667 C21 1.268 . S
C669 C283 1.221 . S
C680 C285 1.260 . S
C678 C48 1.285 . S
C689 C62 1.289 . S
C691 C284 1.314 . S
C700 C8 1.540 . S
C702 C282 1.418 . S
C711 C158 2.280 . S
C713 C320 2.221 . S
C724 C352 1.383 . S
C722 C99 1.347 . S
C733 C118 1.994 . S
C735 C313 2.009 . S
C744 C129 1.434 . S
C746 C347 1.436 . S
C757 C318 1.215 . S
C755 C29 1.177 . S
C766 C42 1.526 . S
C768 C349 1.482 . S
C779 C315 1.626 . S
C777 C79 1.574 . S
C790 C350 1.323 . S
C788 C2 1.302 . S
C801 C346 1.321 . S
C799 C141 1.307 . S
C810 C38 1.341 . S
C812 C348 1.386 . S
C821 C59 1.997 . S
C823 C317 2.008 . S
C834 C351 1.439 . S
C832 C68 1.434 . S
C843 C19 2.280 . S
C845 C316 2.221 . S
C854 C101 1.520 . S
C856 C353 1.485 . S
C867 C319 1.627 . S
C865 C138 1.575 . S
C878 C314 1.215 . S
C876 C88 1.180 . S
