# Generated by pormake.
# Topology pyr, (3,6)-cn, num edge types: 1
# Building blocks:
#     Node 0, Type 0, BuildingBlock: OLANEW_clean_sbu_2, # of connection points: 3
#     Node 1, Type 0, BuildingBlock: OLANEW_clean_sbu_2, # of connection points: 3
#     Node 2, Type 0, BuildingBlock: OLANEW_clean_sbu_2, # of connection points: 3
#     Node 3, Type 0, BuildingBlock: OLANEW_clean_sbu_2, # of connection points: 3
#     Node 4, Type 0, BuildingBlock: OLANEW_clean_sbu_2, # of connection points: 3
#     Node 5, Type 0, BuildingBlock: OLANEW_clean_sbu_2, # of connection points: 3
#     Node 6, Type 0, BuildingBlock: OLANEW_clean_sbu_2, # of connection points: 3
#     Node 7, Type 0, BuildingBlock: OLANEW_clean_sbu_2, # of connection points: 3
#     Node 8, Type 1, BuildingBlock: VOLQOD_clean_sbu_1, # of connection points: 6
#     Node 9, Type 1, BuildingBlock: VOLQOD_clean_sbu_1, # of connection points: 6
#     Node 10, Type 1, BuildingBlock: VOLQOD_clean_sbu_1, # of connection points: 6
#     Node 11, Type 1, BuildingBlock: VOLQOD_clean_sbu_1, # of connection points: 6
#     Edge 12, Type (0, 1), BuildingBlock: XUDNAN_clean_linker_2, # of connection points: 2
#     Edge 13, Type (0, 1), BuildingBlock: XUDNAN_clean_linker_2, # of connection points: 2
#     Edge 14, Type (0, 1), BuildingBlock: XUDNAN_clean_linker_2, # of connection points: 2
#     Edge 15, Type (0, 1), BuildingBlock: XUDNAN_clean_linker_2, # of connection points: 2
#     Edge 16, Type (0, 1), BuildingBlock: XUDNAN_clean_linker_2, # of connection points: 2
#     Edge 17, Type (0, 1), BuildingBlock: XUDNAN_clean_linker_2, # of connection points: 2
#     Edge 18, Type (0, 1), BuildingBlock: XUDNAN_clean_linker_2, # of connection points: 2
#     Edge 19, Type (0, 1), BuildingBlock: XUDNAN_clean_linker_2, # of connection points: 2
#     Edge 20, Type (0, 1), BuildingBlock: XUDNAN_clean_linker_2, # of connection points: 2
#     Edge 21, Type (0, 1), BuildingBlock: XUDNAN_clean_linker_2, # of connection points: 2
#     Edge 22, Type (0, 1), BuildingBlock: XUDNAN_clean_linker_2, # of connection points: 2
#     Edge 23, Type (0, 1), BuildingBlock: XUDNAN_clean_linker_2, # of connection points: 2
#     Edge 24, Type (0, 1), BuildingBlock: XUDNAN_clean_linker_2, # of connection points: 2
#     Edge 25, Type (0, 1), BuildingBlock: XUDNAN_clean_linker_2, # of connection points: 2
#     Edge 26, Type (0, 1), BuildingBlock: XUDNAN_clean_linker_2, # of connection points: 2
#     Edge 27, Type (0, 1), BuildingBlock: XUDNAN_clean_linker_2, # of connection points: 2
#     Edge 28, Type (0, 1), BuildingBlock: XUDNAN_clean_linker_2, # of connection points: 2
#     Edge 29, Type (0, 1), BuildingBlock: XUDNAN_clean_linker_2, # of connection points: 2
#     Edge 30, Type (0, 1), BuildingBlock: XUDNAN_clean_linker_2, # of connection points: 2
#     Edge 31, Type (0, 1), BuildingBlock: XUDNAN_clean_linker_2, # of connection points: 2
#     Edge 32, Type (0, 1), BuildingBlock: XUDNAN_clean_linker_2, # of connection points: 2
#     Edge 33, Type (0, 1), BuildingBlock: XUDNAN_clean_linker_2, # of connection points: 2
#     Edge 34, Type (0, 1), BuildingBlock: XUDNAN_clean_linker_2, # of connection points: 2
#     Edge 35, Type (0, 1), BuildingBlock: XUDNAN_clean_linker_2, # of connection points: 2
# Relax obj value: 0.091
# Max RMSD: 0.153
# Mean RMSD: 0.134
data_MOF--net-pry--node1-OLANEW_clean_sbu_2--node2-VOLQOD_clean_sbu_1--edge1-XUDNAN_clean_linker_2
_symmetry_space_group_name_H-M    P1
_symmetry_Int_Tables_number       1
_symmetry_cell_setting            triclinic
loop_
_symmetry_equiv_pos_as_xyz
'x, y, z'
_cell_length_a     39.211326
_cell_length_b     39.471546
_cell_length_c     38.914867
_cell_angle_alpha  94.262332
_cell_angle_beta   89.122757
_cell_angle_gamma 94.886357
loop_
_atom_site_label
_atom_site_type_symbol
_atom_site_fract_x
_atom_site_fract_y
_atom_site_fract_z
_atom_type_partial_charge
O0 O 0.19536 0.16843 0.16281 0.0
Cd1 Cd 0.14823 0.19696 0.19181 0.0
O2 O 0.16243 0.12928 0.13284 0.0
Cd3 Cd 0.11774 0.13904 0.1651 0.0
O4 O 0.0873 0.12289 0.20952 0.0
C5 C 0.10413 0.11876 0.23635 0.0
O6 O 0.13745 0.12619 0.23604 0.0
C7 C 0.19201 0.14353 0.14006 0.0
C8 C 0.11769 0.24449 0.15453 0.0
O9 O 0.14536 0.25295 0.17131 0.0
O10 O 0.10498 0.21347 0.1546 0.0
O11 O 0.44204 0.92959 0.71218 0.0
Cd12 Cd 0.42212 0.89597 0.66002 0.0
O13 O 0.40209 0.90181 0.74206 0.0
Cd14 Cd 0.37115 0.88597 0.69652 0.0
O15 O 0.33163 0.89427 0.65971 0.0
C16 C 0.33769 0.91647 0.63784 0.0
O17 O 0.3684 0.93249 0.63649 0.0
C18 C 0.4288 0.92242 0.74108 0.0
C19 C 0.45255 0.83439 0.65295 0.0
O20 O 0.46265 0.85893 0.63447 0.0
O21 O 0.42806 0.83879 0.67454 0.0
O22 O 0.67665 0.42296 0.91343 0.0
Cd23 Cd 0.61437 0.4116 0.91121 0.0
O24 O 0.67875 0.41272 0.96812 0.0
Cd25 Cd 0.6262 0.39026 0.97165 0.0
O26 O 0.59597 0.3473 0.99222 0.0
C27 C 0.60382 0.34156 0.02268 0.0
O28 O 0.6268 0.36269 0.03913 0.0
C29 C 0.69369 0.42241 0.94091 0.0
C30 C 0.58859 0.4194 0.84604 0.0
O31 O 0.59564 0.44527 0.86737 0.0
O32 O 0.59378 0.38983 0.85543 0.0
O33 O 0.90908 0.67673 0.43509 0.0
Cd34 Cd 0.87519 0.62501 0.41285 0.0
O35 O 0.9503 0.65068 0.45686 0.0
Cd36 Cd 0.92082 0.60175 0.44813 0.0
O37 O 0.87413 0.56977 0.45716 0.0
C38 C 0.85473 0.58142 0.48085 0.0
O39 O 0.86466 0.61036 0.49815 0.0
C40 C 0.93776 0.67811 0.45018 0.0
C41 C 0.88786 0.61273 0.34255 0.0
O42 O 0.86598 0.63335 0.3537 0.0
O43 O 0.90351 0.59733 0.36465 0.0
O44 O 0.95056 0.93061 0.89699 0.0
Cd45 Cd 0.9205 0.90975 0.9478 0.0
O46 O 0.91256 0.96534 0.88365 0.0
Cd47 Cd 0.87862 0.95442 0.92718 0.0
O48 O 0.83188 0.94595 0.95773 0.0
C49 C 0.81844 0.97091 0.97355 0.0
O50 O 0.83401 0.00167 0.97272 0.0
C51 C 0.94051 0.95191 0.87717 0.0
C52 C 0.93167 0.84122 0.95248 0.0
O53 O 0.90748 0.84998 0.93415 0.0
O54 O 0.95039 0.86487 0.96925 0.0
O55 O 0.61271 0.05023 0.42471 0.0
Cd56 Cd 0.63295 0.07024 0.48272 0.0
O57 O 0.60689 0.1011 0.40649 0.0
Cd58 Cd 0.61756 0.1347 0.45278 0.0
O59 O 0.60672 0.18825 0.45906 0.0
C60 C 0.58319 0.19992 0.47818 0.0
O61 O 0.56558 0.17973 0.49858 0.0
C62 C 0.6053 0.06886 0.40106 0.0
C63 C 0.70351 0.07036 0.49373 0.0
O64 O 0.68384 0.04276 0.49433 0.0
O65 O 0.69007 0.09761 0.48707 0.0
O66 O 0.51641 0.68946 0.12972 0.0
Cd67 Cd 0.54621 0.64034 0.14328 0.0
O68 O 0.46585 0.66638 0.14431 0.0
Cd69 Cd 0.41008 0.66509 0.14796 0.0
O70 O 0.35449 0.66045 0.1431 0.0
C71 C 0.34047 0.63443 0.12597 0.0
O72 O 0.35987 0.61131 0.11233 0.0
C73 C 0.48443 0.69159 0.13379 0.0
C74 C 0.53983 0.63035 0.21318 0.0
O75 O 0.56103 0.65374 0.20229 0.0
O76 O 0.52175 0.61127 0.19107 0.0
O77 O 0.11189 0.50335 0.68364 0.0
Cd78 Cd 0.11236 0.49608 0.6208 0.0
O79 O 0.11608 0.44846 0.67969 0.0
Cd80 Cd 0.11471 0.3968 0.69621 0.0
O81 O 0.11111 0.34195 0.68383 0.0
C82 C 0.13256 0.33147 0.66158 0.0
O83 O 0.15588 0.35364 0.64966 0.0
C84 C 0.11398 0.47598 0.69841 0.0
C85 C 0.17834 0.50639 0.59404 0.0
O86 O 0.15832 0.53051 0.59673 0.0
O87 O 0.16713 0.47723 0.60398 0.0
O88 O 0.03737 0.08486 0.58782 0.0
Zn89 Zn 0.00933 0.0391 0.58277 0.0
O90 O 0.03113 0.00767 0.54934 0.0
Zn91 Zn 0.99826 0.98943 0.51339 0.0
Zn92 Zn 0.07143 0.03063 0.52829 0.0
Zn93 Zn 0.0469 0.97079 0.57332 0.0
O94 O 0.99435 0.93734 0.50926 0.0
O95 O 0.02817 0.92614 0.55154 0.0
O96 O 0.96181 0.0464 0.56665 0.0
O97 O 0.9516 0.00702 0.52321 0.0
O98 O 0.01354 0.00638 0.46698 0.0
O99 O 0.06433 0.03416 0.47786 0.0
O100 O 0.11512 0.00807 0.53505 0.0
O101 O 0.0054 0.02063 0.63046 0.0
O102 O 0.09774 0.96962 0.57149 0.0
O103 O 0.03342 0.97404 0.62296 0.0
C104 C 0.06475 0.09624 0.57295 0.0
C105 C 0.00837 0.91613 0.52658 0.0
C106 C 0.04029 0.02381 0.45704 0.0
C107 C 0.94183 0.03101 0.54387 0.0
C108 C 0.12149 0.98484 0.55443 0.0
C109 C 0.01715 0.99468 0.64223 0.0
O110 O 0.07962 0.07801 0.54995 0.0
O111 O 0.50175 0.09476 0.05105 0.0
Zn112 Zn 0.47693 0.04769 0.0451 0.0
O113 O 0.49607 0.01598 0.07429 0.0
Zn114 Zn 0.50702 0.976 0.04538 0.0
Zn115 Zn 0.53801 0.03805 0.09515 0.0
Zn116 Zn 0.46314 0.00209 0.11042 0.0
O117 O 0.48489 0.93347 0.06329 0.0
O118 O 0.45122 0.95066 0.10631 0.0
O119 O 0.47847 0.03142 0.99472 0.0
O120 O 0.49223 0.97813 0.99641 0.0
O121 O 0.55763 0.97166 0.04395 0.0
O122 O 0.58014 0.017 0.07554 0.0
O123 O 0.53705 0.03411 0.14624 0.0
O124 O 0.42772 0.05235 0.05841 0.0
O125 O 0.48451 0.0117 0.15776 0.0
O126 O 0.41951 0.02652 0.1073 0.0
C127 C 0.52707 0.10686 0.06956 0.0
C128 C 0.46314 0.92686 0.08695 0.0
C129 C 0.58352 0.98993 0.05627 0.0
C130 C 0.48332 0.00243 0.97974 0.0
C131 C 0.5143 0.02369 0.16757 0.0
C132 C 0.40895 0.04418 0.08402 0.0
O133 O 0.54285 0.08799 0.08792 0.0
O134 O 0.54539 0.51203 0.61191 0.0
Zn135 Zn 0.55089 0.54038 0.57075 0.0
O136 O 0.51798 0.52221 0.53474 0.0
Zn137 Zn 0.54136 0.50628 0.4929 0.0
Zn138 Zn 0.48792 0.48398 0.55096 0.0
Zn139 Zn 0.49151 0.55879 0.52261 0.0
O140 O 0.53155 0.53147 0.45128 0.0
O141 O 0.50075 0.57203 0.47443 0.0
O142 O 0.59984 0.53867 0.5527 0.0
O143 O 0.59161 0.51277 0.50038 0.0
O144 O 0.53129 0.45636 0.48204 0.0
O145 O 0.49579 0.43934 0.52343 0.0
O146 O 0.43777 0.49379 0.54864 0.0
O147 O 0.54266 0.58896 0.58826 0.0
O148 O 0.44169 0.54485 0.52757 0.0
O149 O 0.50182 0.60104 0.55335 0.0
C150 C 0.52376 0.48794 0.62011 0.0
C151 C 0.51613 0.55825 0.44875 0.0
C152 C 0.51382 0.43277 0.49661 0.0
C153 C 0.61144 0.52581 0.52427 0.0
C154 C 0.42379 0.51927 0.53834 0.0
C155 C 0.52225 0.60955 0.57813 0.0
O156 O 0.49985 0.4758 0.59977 0.0
O157 O 0.96982 0.52524 0.09776 0.0
Zn158 Zn 0.98453 0.50072 0.05281 0.0
O159 O 0.01803 0.53026 0.02802 0.0
Zn160 Zn 1.00046 0.53665 0.98282 0.0
Zn161 Zn 0.02526 0.57553 0.05245 0.0
Zn162 Zn 0.06153 0.5089 0.02265 0.0
O163 O 0.03266 0.52226 0.9457 0.0
O164 O 0.07441 0.50002 0.97201 0.0
O165 O 0.9418 0.48742 0.024 0.0
O166 O 0.95569 0.50981 0.97453 0.0
O167 O 0.99198 0.58516 0.97692 0.0
O168 O 0.0115 0.61369 0.02469 0.0
O169 O 0.07467 0.58562 0.06614 0.0
O170 O 0.00496 0.45723 0.06363 0.0
O171 O 0.09965 0.53982 0.04537 0.0
O172 O 0.05887 0.46395 0.04506 0.0
C173 C 0.97601 0.55593 0.11017 0.0
C174 C 0.06043 0.50777 0.9446 0.0
C175 C 0.99778 0.61306 0.99519 0.0
C176 C 0.93481 0.49243 0.99296 0.0
C177 C 0.10118 0.5692 0.06154 0.0
C178 C 0.03466 0.44652 0.05963 0.0
O179 O 0.99605 0.57731 0.0951 0.0
H180 H 0.13275 0.11127 0.29865 0.0
H181 H 0.03745 0.09177 0.2425 0.0
H182 H 0.01069 0.06391 0.29231 0.0
H183 H 0.12814 0.03301 0.33965 0.0
H184 H 0.14611 0.05219 0.37955 0.0
H185 H 0.15748 0.07075 0.33962 0.0
H186 H 0.13766 0.1287 0.3645 0.0
H187 H 0.12648 0.11038 0.40458 0.0
H188 H 0.0949 0.13048 0.38186 0.0
H189 H 0.99493 0.03689 0.3485 0.0
H190 H 0.99062 0.01635 0.40709 0.0
H191 H 0.09638 0.05459 0.42561 0.0
C192 C 0.10621 0.10127 0.29677 0.0
C193 C 0.08722 0.10368 0.26663 0.0
C194 C 0.0525 0.09031 0.26536 0.0
C195 C 0.03712 0.07433 0.29348 0.0
C196 C 0.05676 0.07207 0.32267 0.0
C197 C 0.09048 0.08543 0.32454 0.0
C198 C 0.10603 0.08011 0.35886 0.0
C199 C 0.13622 0.05768 0.35412 0.0
C200 C 0.11689 0.11446 0.37861 0.0
C201 C 0.07582 0.06163 0.37609 0.0
C202 C 0.04766 0.05701 0.35483 0.0
C203 C 0.01683 0.04045 0.36536 0.0
C204 C 0.01467 0.02876 0.39865 0.0
C205 C 0.04312 0.03387 0.42105 0.0
C206 C 0.07409 0.05029 0.40927 0.0
H207 H 0.42609 0.89729 0.80463 0.0
H208 H 0.46295 0.98565 0.7506 0.0
H209 H 0.48165 0.01597 0.80598 0.0
H210 H 0.3941 0.94075 0.87902 0.0
H211 H 0.40793 0.91181 0.90864 0.0
H212 H 0.39839 0.8968 0.86475 0.0
H213 H 0.45896 0.87546 0.85715 0.0
H214 H 0.4686 0.89014 0.90115 0.0
H215 H 0.49605 0.90468 0.86671 0.0
H216 H 0.49092 0.03833 0.86802 0.0
H217 H 0.49723 0.04846 0.93129 0.0
H218 H 0.45879 0.94374 0.94374 0.0
C219 C 0.43839 0.92291 0.80446 0.0
C220 C 0.44298 0.93927 0.77348 0.0
C221 C 0.45938 0.97267 0.77412 0.0
C222 C 0.46991 0.99011 0.80542 0.0
C223 C 0.46446 0.97345 0.83563 0.0
C224 C 0.44973 0.94034 0.8353 0.0
C225 C 0.44719 0.928 0.87122 0.0
C226 C 0.40968 0.91881 0.8815 0.0
C227 C 0.46901 0.89778 0.87423 0.0
C228 C 0.46216 0.95956 0.89193 0.0
C229 C 0.47163 0.98565 0.87102 0.0
C230 C 0.48415 0.01792 0.8846 0.0
C231 C 0.48745 0.0235 0.92048 0.0
C232 C 0.47883 0.99677 0.94217 0.0
C233 C 0.4661 0.96444 0.92763 0.0
H234 H 0.59478 0.47658 0.80987 0.0
H235 H 0.55154 0.37143 0.80444 0.0
H236 H 0.52791 0.37838 0.74707 0.0
H237 H 0.52675 0.51207 0.76643 0.0
H238 H 0.55538 0.54082 0.74347 0.0
H239 H 0.56742 0.52812 0.78481 0.0
H240 H 0.62326 0.50665 0.75799 0.0
H241 H 0.61145 0.51939 0.71662 0.0
H242 H 0.62077 0.47602 0.72117 0.0
H243 H 0.50834 0.39712 0.69073 0.0
H244 H 0.49875 0.42447 0.63706 0.0
H245 H 0.5578 0.51634 0.6778 0.0
C246 C 0.58012 0.4551 0.79669 0.0
C247 C 0.57471 0.42353 0.81165 0.0
C248 C 0.55594 0.39584 0.7934 0.0
C249 C 0.54231 0.39959 0.76091 0.0
C250 C 0.54808 0.43107 0.74688 0.0
C251 C 0.56688 0.45823 0.76399 0.0
C252 C 0.57092 0.48876 0.74243 0.0
C253 C 0.5541 0.51924 0.76036 0.0
C254 C 0.60885 0.49825 0.73406 0.0
C255 C 0.55143 0.47455 0.71053 0.0
C256 C 0.53807 0.44139 0.7138 0.0
C257 C 0.51876 0.42304 0.68782 0.0
C258 C 0.51334 0.43885 0.65749 0.0
C259 C 0.5276 0.4725 0.6532 0.0
C260 C 0.54672 0.49053 0.68024 0.0
H261 H 0.91778 0.55943 0.30795 0.0
H262 H 0.87603 0.65566 0.29325 0.0
H263 H 0.8922 0.6502 0.23171 0.0
H264 H 0.98924 0.56934 0.25181 0.0
H265 H 0.98671 0.52546 0.23484 0.0
H266 H 0.97093 0.53617 0.27761 0.0
H267 H 0.91168 0.50546 0.26149 0.0
H268 H 0.92732 0.49455 0.21865 0.0
H269 H 0.88956 0.51746 0.22456 0.0
H270 H 0.91764 0.63738 0.17372 0.0
H271 H 0.94601 0.61502 0.12069 0.0
H272 H 0.96707 0.52464 0.17083 0.0
C273 C 0.91184 0.57919 0.29167 0.0
C274 C 0.89577 0.60805 0.30535 0.0
C275 C 0.88821 0.6333 0.28327 0.0
C276 C 0.89736 0.63047 0.24831 0.0
C277 C 0.91346 0.60192 0.2357 0.0
C278 C 0.92017 0.57643 0.25649 0.0
C279 C 0.9377 0.54837 0.23625 0.0
C280 C 0.97325 0.54464 0.25101 0.0
C281 C 0.91521 0.51445 0.23517 0.0
C282 C 0.94046 0.5625 0.20104 0.0
C283 C 0.92651 0.59355 0.20147 0.0
C284 C 0.92808 0.61282 0.17285 0.0
C285 C 0.94433 0.60002 0.14296 0.0
C286 C 0.95823 0.56803 0.14173 0.0
C287 C 0.95598 0.54886 0.17102 0.0
H288 H 0.25273 0.13702 0.1712 0.0
H289 H 0.19943 0.1159 0.07418 0.0
H290 H 0.24945 0.08825 0.04911 0.0
H291 H 0.33869 0.1527 0.13708 0.0
H292 H 0.35809 0.13114 0.17003 0.0
H293 H 0.31918 0.15141 0.17927 0.0
H294 H 0.28991 0.09437 0.19827 0.0
H295 H 0.32862 0.07385 0.18881 0.0
H296 H 0.289 0.05676 0.16891 0.0
H297 H 0.30595 0.06445 0.03442 0.0
H298 H 0.3632 0.04236 0.03217 0.0
H299 H 0.37714 0.07341 0.14058 0.0
C300 C 0.25189 0.12707 0.1445 0.0
C301 C 0.22258 0.12908 0.12432 0.0
C302 C 0.22185 0.11486 0.08985 0.0
C303 C 0.25009 0.09913 0.07547 0.0
C304 C 0.27848 0.0972 0.09618 0.0
C305 C 0.27945 0.11046 0.13007 0.0
C306 C 0.31217 0.10323 0.14739 0.0
C307 C 0.33328 0.13661 0.15912 0.0
C308 C 0.30445 0.08071 0.17763 0.0
C309 C 0.32963 0.08407 0.11787 0.0
C310 C 0.30994 0.08128 0.08844 0.0
C311 C 0.32139 0.06613 0.05739 0.0
C312 C 0.35386 0.05368 0.05635 0.0
C313 C 0.37416 0.05577 0.08631 0.0
C314 C 0.36173 0.07088 0.11752 0.0
H315 H 0.26915 0.89653 0.64244 0.0
H316 H 0.34275 0.96063 0.58652 0.0
H317 H 0.29546 0.98215 0.55555 0.0
H318 H 0.20743 0.87629 0.57189 0.0
H319 H 0.17115 0.87812 0.60077 0.0
H320 H 0.21098 0.8652 0.61573 0.0
H321 H 0.21151 0.91262 0.66558 0.0
H322 H 0.17183 0.92577 0.65068 0.0
H323 H 0.20869 0.95621 0.65573 0.0
H324 H 0.23969 0.00016 0.53416 0.0
H325 H 0.18013 0.01289 0.52412 0.0
H326 H 0.14366 0.93709 0.59449 0.0
C327 C 0.27543 0.91457 0.62319 0.0
C328 C 0.30969 0.92677 0.61681 0.0
C329 C 0.3167 0.95081 0.59179 0.0
C330 C 0.29002 0.96316 0.57401 0.0
C331 C 0.25648 0.95114 0.58146 0.0
C332 C 0.24914 0.92724 0.60535 0.0
C333 C 0.21093 0.92003 0.61028 0.0
C334 C 0.19946 0.88269 0.59898 0.0
C335 C 0.20012 0.92922 0.64778 0.0
C336 C 0.19791 0.9441 0.58598 0.0
C337 C 0.22449 0.96163 0.56935 0.0
C338 C 0.21864 0.98631 0.54677 0.0
C339 C 0.18473 0.9934 0.54126 0.0
C340 C 0.15714 0.97598 0.55843 0.0
C341 C 0.16404 0.95078 0.58076 0.0
H342 H 0.73699 0.42549 0.99597 0.0
H343 H 0.73471 0.44232 0.887 0.0
H344 H 0.79685 0.45904 0.88804 0.0
H345 H 0.79635 0.49612 0.02029 0.0
H346 H 0.81769 0.47419 0.05165 0.0
H347 H 0.77335 0.46225 0.04197 0.0
H348 H 0.78737 0.39983 0.02706 0.0
H349 H 0.83182 0.41162 0.03656 0.0
H350 H 0.81983 0.39101 0.9951 0.0
H351 H 0.85856 0.47535 0.90121 0.0
H352 H 0.91553 0.49196 0.92575 0.0
H353 H 0.87777 0.4645 0.02637 0.0
C354 C 0.74951 0.43255 0.97224 0.0
C355 C 0.73093 0.43255 0.94136 0.0
C356 C 0.74836 0.44211 0.91096 0.0
C357 C 0.78367 0.45155 0.91127 0.0
C358 C 0.80115 0.45122 0.94214 0.0
C359 C 0.78468 0.44203 0.97209 0.0
C360 C 0.80923 0.44478 0.00207 0.0
C361 C 0.79851 0.47089 0.03067 0.0
C362 C 0.81224 0.40972 0.01601 0.0
C363 C 0.84205 0.45737 0.98439 0.0
C364 C 0.83682 0.46068 0.94978 0.0
C365 C 0.86301 0.47273 0.92823 0.0
C366 C 0.89531 0.48213 0.94249 0.0
C367 C 0.90122 0.47954 0.97805 0.0
C368 C 0.87422 0.46653 0.99908 0.0
H369 H 0.80575 0.6026 0.52662 0.0
H370 H 0.82594 0.52198 0.44873 0.0
H371 H 0.76696 0.49612 0.45578 0.0
H372 H 0.74851 0.54951 0.58159 0.0
H373 H 0.72092 0.58325 0.59151 0.0
H374 H 0.76584 0.59339 0.58315 0.0
H375 H 0.75066 0.6315 0.53513 0.0
H376 H 0.70579 0.62141 0.54321 0.0
H377 H 0.72319 0.61354 0.5005 0.0
H378 H 0.70491 0.48259 0.46649 0.0
H379 H 0.6435 0.48125 0.48104 0.0
H380 H 0.66322 0.57002 0.55292 0.0
C381 C 0.798 0.57915 0.51149 0.0
C382 C 0.82048 0.56425 0.48716 0.0
C383 C 0.80921 0.53379 0.46759 0.0
C384 C 0.77579 0.51887 0.47147 0.0
C385 C 0.7541 0.53458 0.4952 0.0
C386 C 0.76476 0.5639 0.51508 0.0
C387 C 0.73569 0.57684 0.5371 0.0
C388 C 0.74319 0.57566 0.57563 0.0
C389 C 0.72841 0.61295 0.52845 0.0
C390 C 0.70675 0.55076 0.52572 0.0
C391 C 0.71808 0.52649 0.50173 0.0
C392 C 0.69581 0.50111 0.48562 0.0
C393 C 0.66096 0.5007 0.49394 0.0
C394 C 0.64867 0.52546 0.51821 0.0
C395 C 0.672 0.55046 0.53472 0.0
H396 H 0.14363 0.30828 0.13777 0.0
H397 H 0.05161 0.23878 0.13205 0.0
H398 H 0.02065 0.28258 0.10653 0.0
H399 H 0.10343 0.3844 0.15995 0.0
H400 H 0.13134 0.41078 0.13379 0.0
H401 H 0.14664 0.37378 0.15091 0.0
H402 H 0.16282 0.35052 0.08934 0.0
H403 H 0.14774 0.38756 0.07205 0.0
H404 H 0.13078 0.34552 0.0562 0.0
H405 H 0.9985 0.3354 0.08575 0.0
H406 H 0.9882 0.39165 0.06587 0.0
H407 H 0.09537 0.42569 0.08138 0.0
C408 C 0.11703 0.3022 0.13093 0.0
C409 C 0.10001 0.2701 0.13703 0.0
C410 C 0.06523 0.26311 0.12755 0.0
C411 C 0.04738 0.28788 0.11313 0.0
C412 C 0.06477 0.31938 0.10786 0.0
C413 C 0.09895 0.32645 0.11598 0.0
C414 C 0.11166 0.36226 0.1074 0.0
C415 C 0.12399 0.38408 0.13995 0.0
C416 C 0.13992 0.3614 0.07959 0.0
C417 C 0.07918 0.37435 0.09364 0.0
C418 C 0.05236 0.34931 0.09442 0.0
C419 C 0.01941 0.35504 0.08461 0.0
C420 C 0.01376 0.38712 0.07351 0.0
C421 C 0.04101 0.41293 0.0718 0.0
C422 C 0.07415 0.40629 0.08193 0.0
H423 H 0.56033 0.28914 0.99355 0.0
H424 H 0.61827 0.32168 0.08617 0.0
H425 H 0.60185 0.26627 0.10955 0.0
H426 H 0.49036 0.23879 0.03667 0.0
H427 H 0.48661 0.20633 0.00151 0.0
H428 H 0.50028 0.24976 0.99328 0.0
H429 H 0.55509 0.22954 0.96304 0.0
H430 H 0.54174 0.18615 0.9714 0.0
H431 H 0.58291 0.20515 0.98598 0.0
H432 H 0.58459 0.20585 0.12032 0.0
H433 H 0.56426 0.14494 0.11948 0.0
H434 H 0.51587 0.15158 0.02085 0.0
C435 C 0.56901 0.28486 0.01903 0.0
C436 C 0.5906 0.30979 0.03802 0.0
C437 C 0.60169 0.30304 0.07112 0.0
C438 C 0.59249 0.27163 0.08467 0.0
C439 C 0.57192 0.24733 0.06496 0.0
C440 C 0.55994 0.25365 0.03304 0.0
C441 C 0.53939 0.22254 0.01656 0.0
C442 C 0.50193 0.2298 0.01173 0.0
C443 C 0.55578 0.21012 0.98222 0.0
C444 C 0.54247 0.19754 0.04385 0.0
C445 C 0.56129 0.21244 0.07156 0.0
C446 C 0.56938 0.194 0.09903 0.0
C447 C 0.55788 0.15938 0.09821 0.0
C448 C 0.53834 0.14359 0.0702 0.0
C449 C 0.53034 0.16309 0.04284 0.0
H450 H 0.91867 0.74183 0.43918 0.0
H451 H 0.9965 0.69006 0.4878 0.0
H452 H 0.02352 0.74556 0.51093 0.0
H453 H 0.97521 0.81567 0.41625 0.0
H454 H 0.9429 0.84509 0.42503 0.0
H455 H 0.93061 0.80136 0.41065 0.0
H456 H 0.89127 0.79544 0.46435 0.0
H457 H 0.90361 0.83903 0.47903 0.0
H458 H 0.90909 0.8053 0.50671 0.0
H459 H 0.03975 0.80548 0.53198 0.0
H460 H 0.04662 0.86714 0.54737 0.0
H461 H 0.95912 0.88111 0.48424 0.0
C462 C 0.94164 0.74215 0.45435 0.0
C463 C 0.95547 0.71154 0.46167 0.0
C464 C 0.98547 0.71311 0.48175 0.0
C465 C 0.00099 0.74452 0.49505 0.0
C466 C 0.98637 0.7741 0.48783 0.0
C467 C 0.95758 0.77331 0.46771 0.0
C468 C 0.94668 0.8089 0.46453 0.0
C469 C 0.949 0.8183 0.42687 0.0
C470 C 0.91052 0.81236 0.47956 0.0
C471 C 0.97357 0.82976 0.48649 0.0
C472 C 0.99614 0.80906 0.49964 0.0
C473 C 0.02246 0.82202 0.52162 0.0
C474 C 0.02599 0.85713 0.53032 0.0
C475 C 0.00341 0.87906 0.51699 0.0
C476 C 0.97691 0.86508 0.49465 0.0
H477 H 0.47244 0.8008 0.5933 0.0
H478 H 0.46652 0.79389 0.70386 0.0
H479 H 0.49096 0.73788 0.69719 0.0
H480 H 0.44323 0.71512 0.57313 0.0
H481 H 0.46949 0.70991 0.535 0.0
H482 H 0.4565 0.75135 0.54905 0.0
H483 H 0.52005 0.77566 0.55064 0.0
H484 H 0.53324 0.73415 0.53674 0.0
H485 H 0.55015 0.75617 0.57586 0.0
H486 H 0.51454 0.68167 0.67793 0.0
H487 H 0.52712 0.62666 0.64741 0.0
H488 H 0.51199 0.66854 0.54946 0.0
C489 C 0.477 0.78774 0.6161 0.0
C490 C 0.46825 0.8017 0.64913 0.0
C491 C 0.47338 0.78354 0.67837 0.0
C492 C 0.48742 0.7519 0.67483 0.0
C493 C 0.49559 0.7386 0.64181 0.0
C494 C 0.49005 0.75574 0.61291 0.0
C495 C 0.49707 0.73425 0.58014 0.0
C496 C 0.46464 0.72724 0.55805 0.0
C497 C 0.52691 0.75107 0.55964 0.0
C498 C 0.50696 0.70218 0.59505 0.0
C499 C 0.50687 0.70545 0.63066 0.0
C500 C 0.51477 0.67885 0.65006 0.0
C501 C 0.52204 0.64781 0.63257 0.0
C502 C 0.52046 0.64353 0.59621 0.0
C503 C 0.51338 0.67125 0.57732 0.0
H504 H 0.92391 0.99221 0.82616 0.0
H505 H 0.00106 0.92737 0.8556 0.0
H506 H 0.03083 0.93472 0.8001 0.0
H507 H 0.91817 0.9609 0.73979 0.0
H508 H 0.91287 0.00134 0.72276 0.0
H509 H 0.8992 0.99397 0.76612 0.0
H510 H 0.93738 0.04733 0.78928 0.0
H511 H 0.95103 0.05503 0.74591 0.0
H512 H 0.98235 0.05098 0.77845 0.0
H513 H 0.04903 0.94415 0.73995 0.0
H514 H 0.05633 0.95726 0.6793 0.0
H515 H 0.96835 0.01724 0.68843 0.0
C516 C 0.94741 0.98006 0.82124 0.0
C517 C 0.96015 0.95923 0.84535 0.0
C518 C 0.9908 0.94349 0.83766 0.0
C519 C 0.00794 0.94754 0.80619 0.0
C520 C 0.99428 0.9676 0.78276 0.0
C521 C 0.96492 0.98389 0.78994 0.0
C522 C 0.95483 0.00266 0.75951 0.0
C523 C 0.91916 0.98888 0.74627 0.0
C524 C 0.95651 0.0413 0.76885 0.0
C525 C 0.98266 0.99366 0.73381 0.0
C526 C 0.00517 0.9735 0.74789 0.0
C527 C 0.03186 0.96028 0.72875 0.0
C528 C 0.03566 0.96774 0.69424 0.0
C529 C 0.01297 0.98837 0.67914 0.0
C530 C 0.98634 0.00178 0.69938 0.0
H531 H 0.6122 0.09607 0.33875 0.0
H532 H 0.56785 0.00751 0.38816 0.0
H533 H 0.53907 0.986 0.33361 0.0
H534 H 0.54179 0.109 0.28825 0.0
H535 H 0.56668 0.12082 0.25102 0.0
H536 H 0.58491 0.12839 0.29334 0.0
H537 H 0.63588 0.09354 0.27404 0.0
H538 H 0.61808 0.0863 0.23146 0.0
H539 H 0.6276 0.05064 0.25497 0.0
H540 H 0.51041 0.97768 0.27497 0.0
H541 H 0.49135 0.97855 0.21462 0.0
H542 H 0.55813 0.07046 0.20315 0.0
C543 C 0.59682 0.0719 0.33794 0.0
C544 C 0.59213 0.05343 0.3676 0.0
C545 C 0.57194 0.02187 0.36559 0.0
C546 C 0.55534 0.00961 0.33482 0.0
C547 C 0.55979 0.02895 0.30624 0.0
C548 C 0.5807 0.05902 0.30736 0.0
C549 C 0.58164 0.07487 0.2731 0.0
C550 C 0.56793 0.11036 0.27666 0.0
C551 C 0.61796 0.07641 0.25747 0.0
C552 C 0.55748 0.04938 0.25262 0.0
C553 C 0.54477 0.02327 0.27224 0.0
C554 C 0.52061 0.99772 0.25924 0.0
C555 C 0.50974 0.99855 0.22509 0.0
C556 C 0.52348 0.02443 0.20429 0.0
C557 C 0.54752 0.05016 0.21839 0.0
H558 H 0.52903 0.57063 0.24472 0.0
H559 H 0.54255 0.68043 0.26506 0.0
H560 H 0.53542 0.67382 0.32755 0.0
H561 H 0.46719 0.55217 0.31195 0.0
H562 H 0.48569 0.51412 0.32279 0.0
H563 H 0.4897 0.52747 0.27954 0.0
H564 H 0.55569 0.52763 0.28273 0.0
H565 H 0.55187 0.51419 0.32595 0.0
H566 H 0.57827 0.55236 0.31741 0.0
H567 H 0.52478 0.6554 0.38719 0.0
H568 H 0.51861 0.6263 0.44125 0.0
H569 H 0.51789 0.52821 0.38286 0.0
C570 C 0.53021 0.59321 0.26241 0.0
C571 C 0.53593 0.62606 0.25031 0.0
C572 C 0.53811 0.65508 0.27403 0.0
C573 C 0.53395 0.65158 0.30945 0.0
C574 C 0.52835 0.61883 0.32065 0.0
C575 C 0.52709 0.59011 0.29795 0.0
C576 C 0.52307 0.55784 0.31696 0.0
C577 C 0.48941 0.53666 0.30723 0.0
C578 C 0.55408 0.53677 0.31037 0.0
C579 C 0.52205 0.57293 0.35387 0.0
C580 C 0.52453 0.60815 0.35533 0.0
C581 C 0.52309 0.62785 0.38643 0.0
C582 C 0.51944 0.61111 0.41694 0.0
C583 C 0.51798 0.57509 0.41612 0.0
C584 C 0.51928 0.5558 0.38416 0.0
H585 H 0.07928 0.51798 0.74211 0.0
H586 H 0.14521 0.43507 0.74018 0.0
H587 H 0.14118 0.43553 0.80377 0.0
H588 H 0.11171 0.56332 0.82085 0.0
H589 H 0.07011 0.57524 0.83497 0.0
H590 H 0.07962 0.56913 0.78961 0.0
H591 H 0.02705 0.52481 0.78193 0.0
H592 H 0.01734 0.53086 0.82719 0.0
H593 H 0.0232 0.48875 0.808 0.0
H594 H 0.12914 0.44528 0.86823 0.0
H595 H 0.10718 0.46094 0.92688 0.0
H596 H 0.04846 0.53637 0.88494 0.0
C597 C 0.09307 0.50008 0.7551 0.0
C598 C 0.11225 0.47624 0.73632 0.0
C599 C 0.12974 0.45303 0.75411 0.0
C600 C 0.12791 0.45338 0.79022 0.0
C601 C 0.10845 0.47706 0.80801 0.0
C602 C 0.09123 0.49986 0.79094 0.0
C603 C 0.07082 0.52176 0.81564 0.0
C604 C 0.08386 0.5596 0.81524 0.0
C605 C 0.03233 0.51619 0.80772 0.0
C606 C 0.07896 0.50757 0.84929 0.0
C607 C 0.10102 0.4821 0.84458 0.0
C608 C 0.11186 0.46521 0.8722 0.0
C609 C 0.09936 0.47431 0.90539 0.0
C610 C 0.07599 0.49971 0.91043 0.0
C611 C 0.06611 0.51667 0.88195 0.0
H612 H 0.78144 0.01921 0.00777 0.0
H613 H 0.77744 0.91131 0.97517 0.0
H614 H 0.7181 0.90382 0.99695 0.0
H615 H 0.72834 0.01003 0.08651 0.0
H616 H 0.70779 0.04839 0.08099 0.0
H617 H 0.75107 0.0447 0.06582 0.0
H618 H 0.73323 0.058 0.00473 0.0
H619 H 0.68994 0.06154 0.01964 0.0
H620 H 0.69851 0.03213 0.98349 0.0
H621 H 0.65767 0.90906 0.01636 0.0
H622 H 0.60077 0.9262 0.03479 0.0
H623 H 0.64416 0.03035 0.05652 0.0
C624 C 0.76833 0.99388 0.00576 0.0
C625 C 0.78414 0.96584 0.98975 0.0
C626 C 0.76594 0.93317 0.98739 0.0
C627 C 0.73221 0.92864 0.99971 0.0
C628 C 0.71714 0.95694 0.01466 0.0
C629 C 0.73468 0.98886 0.01808 0.0
C630 C 0.712 0.01534 0.03366 0.0
C631 C 0.72561 0.0305 0.06884 0.0
C632 C 0.7082 0.04339 0.00889 0.0
C633 C 0.67871 0.99346 0.03757 0.0
C634 C 0.68231 0.95983 0.02657 0.0
C635 C 0.65465 0.9352 0.02556 0.0
C636 C 0.62241 0.94522 0.03593 0.0
C637 C 0.6181 0.97955 0.04731 0.0
C638 C 0.64678 0.00382 0.04851 0.0
H639 H 0.7447 0.01709 0.48861 0.0
H640 H 0.74536 0.12537 0.51798 0.0
H641 H 0.80583 0.1266 0.53527 0.0
H642 H 0.79888 0.99543 0.55554 0.0
H643 H 0.82135 0.9656 0.5283 0.0
H644 H 0.77792 0.97291 0.51863 0.0
H645 H 0.79668 0.98859 0.45728 0.0
H646 H 0.84013 0.9811 0.46669 0.0
H647 H 0.83071 0.0216 0.45222 0.0
H648 H 0.86509 0.11548 0.55233 0.0
H649 H 0.92148 0.0944 0.56161 0.0
H650 H 0.88412 0.99425 0.51715 0.0
C651 C 0.75763 0.04105 0.49863 0.0
C652 C 0.7403 0.07113 0.50214 0.0
C653 C 0.75816 0.10206 0.51499 0.0
C654 C 0.79245 0.10297 0.52503 0.0
C655 C 0.80872 0.07285 0.52155 0.0
C656 C 0.79213 0.04257 0.50812 0.0
C657 C 0.81597 0.01413 0.50591 0.0
C658 C 0.80273 0.98532 0.52844 0.0
C659 C 0.82118 0.00057 0.46829 0.0
C660 C 0.84845 0.03311 0.52049 0.0
C661 C 0.84352 0.06683 0.52977 0.0
C662 C 0.86936 0.0892 0.54488 0.0
C663 C 0.90125 0.07694 0.55021 0.0
C664 C 0.90727 0.04274 0.53997 0.0
C665 C 0.88039 0.02059 0.52498 0.0
H666 H 0.30288 0.58141 0.09108 0.0
H667 H 0.29327 0.67854 0.14903 0.0
H668 H 0.23085 0.67222 0.13939 0.0
H669 H 0.24069 0.59116 0.02716 0.0
H670 H 0.22455 0.54691 0.02444 0.0
H671 H 0.26834 0.55884 0.03645 0.0
H672 H 0.25874 0.52773 0.09261 0.0
H673 H 0.21492 0.51567 0.08075 0.0
H674 H 0.22449 0.53875 0.12166 0.0
H675 H 0.16957 0.65568 0.12249 0.0
H676 H 0.11395 0.62992 0.10019 0.0
H677 H 0.164 0.54352 0.05362 0.0
C678 C 0.28769 0.60135 0.10186 0.0
C679 C 0.30298 0.63048 0.12083 0.0
C680 C 0.28213 0.65597 0.13444 0.0
C681 C 0.24666 0.65262 0.1291 0.0
C682 C 0.23246 0.62362 0.11016 0.0
C683 C 0.25231 0.59841 0.09682 0.0
C684 C 0.23082 0.56987 0.07721 0.0
C685 C 0.24175 0.56652 0.03905 0.0
C686 C 0.23233 0.53601 0.09408 0.0
C687 C 0.19576 0.58303 0.08149 0.0
C688 C 0.19722 0.61406 0.10057 0.0
C689 C 0.16809 0.63134 0.10759 0.0
C690 C 0.13661 0.61649 0.09477 0.0
C691 C 0.1345 0.58464 0.07516 0.0
C692 C 0.16461 0.56781 0.06858 0.0
H693 H 0.23185 0.46635 0.59863 0.0
H694 H 0.20423 0.55996 0.5585 0.0
H695 H 0.26318 0.57098 0.53658 0.0
H696 H 0.314 0.49936 0.62814 0.0
H697 H 0.33439 0.46072 0.61712 0.0
H698 H 0.28936 0.4586 0.62733 0.0
H699 H 0.27599 0.42496 0.56869 0.0
H700 H 0.32103 0.42699 0.55828 0.0
H701 H 0.29149 0.44266 0.52942 0.0
H702 H 0.32485 0.57317 0.52105 0.0
H703 H 0.38666 0.56805 0.5148 0.0
H704 H 0.37552 0.47357 0.56615 0.0
C705 C 0.23812 0.48894 0.58485 0.0
C706 C 0.21343 0.51224 0.58009 0.0
C707 C 0.22274 0.54178 0.56242 0.0
C708 C 0.2561 0.54818 0.54975 0.0
C709 C 0.27987 0.52487 0.55508 0.0
C710 C 0.27145 0.49591 0.5723 0.0
C711 C 0.30246 0.47606 0.57622 0.0
C712 C 0.31052 0.47356 0.61447 0.0
C713 C 0.29743 0.44056 0.557 0.0
C714 C 0.3297 0.49868 0.5589 0.0
C715 C 0.31593 0.52647 0.54661 0.0
C716 C 0.33595 0.55147 0.53042 0.0
C717 C 0.37112 0.54829 0.52706 0.0
C718 C 0.38611 0.5204 0.54001 0.0
C719 C 0.3649 0.49507 0.55579 0.0
H720 H 0.97177 0.81253 0.99805 0.0
H721 H 0.90637 0.78785 0.90908 0.0
H722 H 0.91797 0.72743 0.90939 0.0
H723 H 0.03508 0.75344 0.97445 0.0
H724 H 0.04078 0.74209 0.01788 0.0
H725 H 0.02818 0.78373 0.01035 0.0
H726 H 0.97494 0.77383 0.04975 0.0
H727 H 0.98745 0.73223 0.05751 0.0
H728 H 0.94553 0.73665 0.04088 0.0
H729 H 0.93698 0.67018 0.9186 0.0
H730 H 0.95894 0.61853 0.9385 0.0
H731 H 0.01056 0.67934 0.02305 0.0
C732 C 0.95997 0.79441 0.97859 0.0
C733 C 0.93824 0.80493 0.95344 0.0
C734 C 0.92304 0.78039 0.92863 0.0
C735 C 0.92957 0.74603 0.9285 0.0
C736 C 0.95115 0.73653 0.95353 0.0
C737 C 0.9659 0.75987 0.97833 0.0
C738 C 0.98721 0.74259 0.00299 0.0
C739 C 0.02506 0.75628 0.0013 0.0
C740 C 0.97292 0.74656 0.03997 0.0
C741 C 0.98209 0.70592 0.98814 0.0
C742 C 0.96145 0.70313 0.95943 0.0
C743 C 0.9531 0.67199 0.9411 0.0
C744 C 0.96582 0.64278 0.95261 0.0
C745 C 0.98648 0.64475 0.98242 0.0
C746 C 0.99482 0.67691 0.00023 0.0
H747 H 0.50496 0.73442 0.08456 0.0
H748 H 0.43273 0.72209 0.16901 0.0
H749 H 0.41348 0.7791 0.16146 0.0
H750 H 0.53189 0.81832 0.10643 0.0
H751 H 0.5365 0.831 0.06294 0.0
H752 H 0.54056 0.78744 0.07158 0.0
H753 H 0.49286 0.76722 0.02745 0.0
H754 H 0.48872 0.81085 0.01857 0.0
H755 H 0.45178 0.78451 0.03189 0.0
H756 H 0.40822 0.84083 0.14974 0.0
H757 H 0.41648 0.90061 0.13394 0.0
H758 H 0.49148 0.87125 0.05656 0.0
C759 C 0.48446 0.74339 0.10085 0.0
C760 C 0.46971 0.72356 0.12679 0.0
C761 C 0.44346 0.73635 0.14814 0.0
C762 C 0.43259 0.76884 0.14422 0.0
C763 C 0.44805 0.78802 0.11865 0.0
C764 C 0.47319 0.77554 0.0971 0.0
C765 C 0.48771 0.80196 0.07345 0.0
C766 C 0.52644 0.81016 0.07896 0.0
C767 C 0.47978 0.79044 0.0356 0.0
C768 C 0.46777 0.83171 0.08588 0.0
C769 C 0.44479 0.82324 0.11175 0.0
C770 C 0.42565 0.84756 0.12903 0.0
C771 C 0.43054 0.88147 0.11993 0.0
C772 C 0.45443 0.89068 0.09384 0.0
C773 C 0.47261 0.86513 0.07625 0.0
H774 H 0.08234 0.28077 0.67424 0.0
H775 H 0.17575 0.30152 0.61521 0.0
H776 H 0.16888 0.2433 0.58723 0.0
H777 H 0.09448 0.19174 0.68692 0.0
H778 H 0.0496 0.17818 0.6824 0.0
H779 H 0.06278 0.22097 0.69925 0.0
H780 H 0.02782 0.24495 0.65198 0.0
H781 H 0.01474 0.20228 0.63485 0.0
H782 H 0.03592 0.23243 0.6073 0.0
H783 H 0.1508 0.18438 0.56369 0.0
H784 H 0.12363 0.12719 0.5471 0.0
H785 H 0.04163 0.14406 0.62123 0.0
C786 C 0.10159 0.27293 0.65576 0.0
C787 C 0.12964 0.2957 0.64695 0.0
C788 C 0.15408 0.28455 0.62241 0.0
C789 C 0.15041 0.25152 0.60636 0.0
C790 C 0.12221 0.22994 0.61518 0.0
C791 C 0.09831 0.24003 0.63942 0.0
C792 C 0.06989 0.21202 0.64347 0.0
C793 C 0.06917 0.20002 0.68019 0.0
C794 C 0.03504 0.22362 0.63381 0.0
C795 C 0.08142 0.18478 0.61742 0.0
C796 C 0.1117 0.1957 0.6015 0.0
C797 C 0.12719 0.17542 0.5761 0.0
C798 C 0.11144 0.14295 0.56681 0.0
C799 C 0.08044 0.131 0.58286 0.0
C800 C 0.0653 0.15235 0.6085 0.0
H801 H 0.5445 0.23923 0.52251 0.0
H802 H 0.59942 0.23937 0.42475 0.0
H803 H 0.58142 0.29638 0.41623 0.0
H804 H 0.47296 0.28557 0.4976 0.0
H805 H 0.47087 0.30986 0.53856 0.0
H806 H 0.48577 0.26778 0.53627 0.0
H807 H 0.54221 0.29193 0.56619 0.0
H808 H 0.52727 0.33392 0.56895 0.0
H809 H 0.5677 0.32664 0.54823 0.0
H810 H 0.55929 0.35338 0.41854 0.0
H811 H 0.54005 0.41017 0.43466 0.0
H812 H 0.50052 0.37489 0.5318 0.0
C813 C 0.55253 0.25121 0.49924 0.0
C814 C 0.57326 0.23476 0.47423 0.0
C815 C 0.58364 0.25147 0.44433 0.0
C816 C 0.5733 0.28375 0.43909 0.0
C817 C 0.55272 0.29916 0.46405 0.0
C818 C 0.54277 0.28375 0.49376 0.0
C819 C 0.52276 0.30715 0.51761 0.0
C820 C 0.4859 0.29166 0.52281 0.0
C821 C 0.54109 0.3154 0.55229 0.0
C822 C 0.52354 0.33826 0.49684 0.0
C823 C 0.54046 0.33275 0.46578 0.0
C824 C 0.54585 0.358 0.4427 0.0
C825 C 0.53476 0.39019 0.45211 0.0
C826 C 0.5187 0.39703 0.48447 0.0
C827 C 0.51219 0.37034 0.50666 0.0
loop_
_geom_bond_atom_site_label_1
_geom_bond_atom_site_label_2
_geom_bond_distance
_geom_bond_site_symmetry_2
_ccdc_geom_bond_type
O0 Cd1 2.300 . S
O0 C7 1.275 . S
Cd1 O0 2.300 . S
Cd1 O9 2.381 . S
Cd1 O10 2.378 . S
O2 Cd3 2.385 . S
O2 C7 1.255 . S
Cd3 O2 2.385 . S
Cd3 O4 2.317 . S
O4 Cd3 2.317 . S
O4 C5 1.232 . S
C5 O4 1.232 . S
C5 O6 1.218 . S
O6 C5 1.218 . S
C7 O0 1.275 . S
C7 O2 1.255 . S
C8 O9 1.258 . S
C8 O10 1.256 . S
O9 Cd1 2.381 . S
O9 C8 1.258 . S
O10 Cd1 2.378 . S
O10 C8 1.256 . S
O11 Cd12 2.300 . S
O11 C18 1.275 . S
Cd12 O11 2.300 . S
Cd12 O20 2.381 . S
Cd12 O21 2.378 . S
O13 Cd14 2.385 . S
O13 C18 1.255 . S
Cd14 O13 2.385 . S
Cd14 O15 2.317 . S
O15 Cd14 2.317 . S
O15 C16 1.232 . S
C16 O15 1.232 . S
C16 O17 1.218 . S
O17 C16 1.218 . S
C18 O11 1.275 . S
C18 O13 1.255 . S
C19 O20 1.258 . S
C19 O21 1.256 . S
O20 Cd12 2.381 . S
O20 C19 1.258 . S
O21 Cd12 2.378 . S
O21 C19 1.256 . S
O22 Cd23 2.300 . S
O22 C29 1.275 . S
Cd23 O22 2.300 . S
Cd23 O31 2.381 . S
Cd23 O32 2.378 . S
O24 Cd25 2.385 . S
O24 C29 1.255 . S
Cd25 O24 2.385 . S
Cd25 O26 2.317 . S
O26 Cd25 2.317 . S
O26 C27 1.232 . S
C27 O26 1.232 . S
C27 O28 1.218 . S
O28 C27 1.218 . S
C29 O22 1.275 . S
C29 O24 1.255 . S
C30 O31 1.258 . S
C30 O32 1.256 . S
O31 Cd23 2.381 . S
O31 C30 1.258 . S
O32 Cd23 2.378 . S
O32 C30 1.256 . S
O33 Cd34 2.300 . S
O33 C40 1.275 . S
Cd34 O33 2.300 . S
Cd34 O42 2.381 . S
Cd34 O43 2.378 . S
O35 Cd36 2.385 . S
O35 C40 1.255 . S
Cd36 O35 2.385 . S
Cd36 O37 2.317 . S
O37 Cd36 2.317 . S
O37 C38 1.232 . S
C38 O37 1.232 . S
C38 O39 1.218 . S
O39 C38 1.218 . S
C40 O33 1.275 . S
C40 O35 1.255 . S
C41 O42 1.258 . S
C41 O43 1.256 . S
O42 Cd34 2.381 . S
O42 C41 1.258 . S
O43 Cd34 2.378 . S
O43 C41 1.256 . S
O44 Cd45 2.300 . S
O44 C51 1.275 . S
Cd45 O44 2.300 . S
Cd45 O53 2.381 . S
Cd45 O54 2.378 1_556 S
O46 Cd47 2.385 1_565 S
O46 C51 1.255 . S
Cd47 O46 2.385 1_545 S
Cd47 O48 2.317 1_545 S
O48 Cd47 2.317 1_565 S
O48 C49 1.234 . S
C49 O48 1.234 . S
C49 O50 1.215 1_565 S
O50 C49 1.215 1_545 S
C51 O44 1.275 . S
C51 O46 1.255 . S
C52 O53 1.258 . S
C52 O54 1.256 1_556 S
O53 Cd45 2.381 . S
O53 C52 1.258 . S
O54 Cd45 2.378 1_554 S
O54 C52 1.256 1_554 S
O55 Cd56 2.300 . S
O55 C62 1.275 . S
Cd56 O55 2.300 . S
Cd56 O64 2.381 . S
Cd56 O65 2.378 . S
O57 Cd58 2.385 . S
O57 C62 1.255 . S
Cd58 O57 2.385 . S
Cd58 O59 2.317 . S
O59 Cd58 2.317 . S
O59 C60 1.232 . S
C60 O59 1.232 . S
C60 O61 1.218 . S
O61 C60 1.218 . S
C62 O55 1.275 . S
C62 O57 1.255 . S
C63 O64 1.258 . S
C63 O65 1.256 . S
O64 Cd56 2.381 . S
O64 C63 1.258 . S
O65 Cd56 2.378 . S
O65 C63 1.256 . S
O66 Cd67 2.300 . S
O66 C73 1.275 . S
Cd67 O66 2.300 . S
Cd67 O75 2.381 . S
Cd67 O76 2.378 . S
O68 Cd69 2.385 . S
O68 C73 1.255 . S
Cd69 O68 2.385 . S
Cd69 O70 2.317 . S
O70 Cd69 2.317 . S
O70 C71 1.232 . S
C71 O70 1.232 . S
C71 O72 1.218 . S
O72 C71 1.218 . S
C73 O66 1.275 . S
C73 O68 1.255 . S
C74 O75 1.258 . S
C74 O76 1.256 . S
O75 Cd67 2.381 . S
O75 C74 1.258 . S
O76 Cd67 2.378 . S
O76 C74 1.256 . S
O77 Cd78 2.300 . S
O77 C84 1.275 . S
Cd78 O77 2.300 . S
Cd78 O86 2.381 . S
Cd78 O87 2.378 . S
O79 Cd80 2.385 . S
O79 C84 1.255 . S
Cd80 O79 2.385 . S
Cd80 O81 2.317 . S
O81 Cd80 2.317 . S
O81 C82 1.232 . S
C82 O81 1.232 . S
C82 O83 1.218 . S
O83 C82 1.218 . S
C84 O77 1.275 . S
C84 O79 1.255 . S
C85 O86 1.258 . S
C85 O87 1.256 . S
O86 Cd78 2.381 . S
O86 C85 1.258 . S
O87 Cd78 2.378 . S
O87 C85 1.256 . S
O88 Zn89 1.953 . S
O88 C104 1.225 1_655 S
Zn89 O88 1.953 . S
Zn89 O90 1.949 1_655 S
Zn89 O96 1.919 . S
Zn89 O101 1.924 . S
O90 Zn89 1.949 1_455 S
O90 Zn91 1.923 1_445 S
O90 Zn92 1.950 . S
O90 Zn93 1.945 1_545 S
Zn91 O90 1.923 1_665 S
Zn91 O94 1.933 . S
Zn91 O97 1.941 1_565 S
Zn91 O98 1.965 1_665 S
Zn92 O90 1.950 . S
Zn92 O99 1.938 . S
Zn92 O100 1.906 . S
Zn92 O110 1.953 . S
Zn93 O90 1.945 1_565 S
Zn93 O95 1.932 1_455 S
Zn93 O102 1.977 . S
Zn93 O103 1.910 1_455 S
O94 Zn91 1.933 . S
O94 C105 1.226 . S
O95 Zn93 1.932 1_655 S
O95 C105 1.307 . S
O96 Zn89 1.919 . S
O96 C107 1.253 . S
O97 Zn91 1.941 1_545 S
O97 C107 1.283 . S
O98 Zn91 1.965 1_445 S
O98 C106 1.303 . S
O99 Zn92 1.938 . S
O99 C106 1.247 . S
O100 Zn92 1.906 . S
O100 C108 1.304 1_545 S
O101 Zn89 1.924 . S
O101 C109 1.311 . S
O102 Zn93 1.977 . S
O102 C108 1.272 . S
O103 Zn93 1.910 1_655 S
O103 C109 1.231 1_565 S
C104 O88 1.225 1_455 S
C104 O110 1.298 . S
C105 O94 1.226 . S
C105 O95 1.307 . S
C106 O98 1.303 . S
C106 O99 1.247 . S
C107 O96 1.253 . S
C107 O97 1.283 . S
C108 O100 1.304 1_565 S
C108 O102 1.272 . S
C109 O101 1.311 . S
C109 O103 1.231 1_545 S
O110 Zn92 1.953 . S
O110 C104 1.298 . S
O111 Zn112 1.953 . S
O111 C127 1.225 . S
Zn112 O111 1.953 . S
Zn112 O113 1.949 . S
Zn112 O119 1.919 1_554 S
Zn112 O124 1.924 . S
O113 Zn112 1.949 . S
O113 Zn114 1.923 1_545 S
O113 Zn115 1.950 . S
O113 Zn116 1.945 . S
Zn114 O113 1.923 1_565 S
Zn114 O117 1.933 . S
Zn114 O120 1.920 1_554 S
Zn114 O121 1.965 . S
Zn115 O113 1.950 . S
Zn115 O122 1.938 . S
Zn115 O123 1.906 . S
Zn115 O133 1.953 . S
Zn116 O113 1.945 . S
Zn116 O118 1.932 1_545 S
Zn116 O125 1.977 . S
Zn116 O126 1.910 . S
O117 Zn114 1.933 . S
O117 C128 1.226 . S
O118 Zn116 1.932 1_565 S
O118 C128 1.307 . S
O119 Zn112 1.919 1_556 S
O119 C130 1.253 1_545 S
O120 Zn114 1.920 1_556 S
O120 C130 1.294 . S
O121 Zn114 1.965 . S
O121 C129 1.303 1_565 S
O122 Zn115 1.938 . S
O122 C129 1.247 . S
O123 Zn115 1.906 . S
O123 C131 1.304 . S
O124 Zn112 1.924 . S
O124 C132 1.311 . S
O125 Zn116 1.977 . S
O125 C131 1.272 . S
O126 Zn116 1.910 . S
O126 C132 1.231 . S
C127 O111 1.225 . S
C127 O133 1.298 . S
C128 O117 1.226 . S
C128 O118 1.307 . S
C129 O121 1.303 1_545 S
C129 O122 1.247 . S
C130 O119 1.253 1_565 S
C130 O120 1.294 . S
C131 O123 1.304 . S
C131 O125 1.272 . S
C132 O124 1.311 . S
C132 O126 1.231 . S
O133 Zn115 1.953 . S
O133 C127 1.298 . S
O134 Zn135 1.953 . S
O134 C150 1.225 . S
Zn135 O134 1.953 . S
Zn135 O136 1.949 . S
Zn135 O142 1.919 . S
Zn135 O147 1.924 . S
O136 Zn135 1.949 . S
O136 Zn137 1.923 . S
O136 Zn138 1.950 . S
O136 Zn139 1.945 . S
Zn137 O136 1.923 . S
Zn137 O140 1.933 . S
Zn137 O143 1.941 . S
Zn137 O144 1.965 . S
Zn138 O136 1.950 . S
Zn138 O145 1.938 . S
Zn138 O146 1.906 . S
Zn138 O156 1.953 . S
Zn139 O136 1.945 . S
Zn139 O141 1.932 . S
Zn139 O148 1.977 . S
Zn139 O149 1.910 . S
O140 Zn137 1.933 . S
O140 C151 1.226 . S
O141 Zn139 1.932 . S
O141 C151 1.307 . S
O142 Zn135 1.919 . S
O142 C153 1.253 . S
O143 Zn137 1.941 . S
O143 C153 1.283 . S
O144 Zn137 1.965 . S
O144 C152 1.303 . S
O145 Zn138 1.938 . S
O145 C152 1.247 . S
O146 Zn138 1.906 . S
O146 C154 1.304 . S
O147 Zn135 1.924 . S
O147 C155 1.311 . S
O148 Zn139 1.977 . S
O148 C154 1.272 . S
O149 Zn139 1.910 . S
O149 C155 1.231 . S
C150 O134 1.225 . S
C150 O156 1.298 . S
C151 O140 1.226 . S
C151 O141 1.307 . S
C152 O144 1.303 . S
C152 O145 1.247 . S
C153 O142 1.253 . S
C153 O143 1.283 . S
C154 O146 1.304 . S
C154 O148 1.272 . S
C155 O147 1.311 . S
C155 O149 1.231 . S
O156 Zn138 1.953 . S
O156 C150 1.298 . S
O157 Zn158 1.953 . S
O157 C173 1.229 . S
Zn158 O157 1.953 . S
Zn158 O159 1.949 1_655 S
Zn158 O165 1.919 . S
Zn158 O170 1.924 1_655 S
O159 Zn158 1.949 1_455 S
O159 Zn160 1.923 1_554 S
O159 Zn161 1.950 . S
O159 Zn162 1.945 1_554 S
Zn160 O159 1.923 1_556 S
Zn160 O163 1.933 . S
Zn160 O166 1.941 1_455 S
Zn160 O167 1.965 . S
Zn161 O159 1.950 . S
Zn161 O168 1.938 . S
Zn161 O169 1.906 . S
Zn161 O179 1.953 . S
Zn162 O159 1.945 1_556 S
Zn162 O164 1.932 . S
Zn162 O171 1.977 1_556 S
Zn162 O172 1.910 1_556 S
O163 Zn160 1.933 . S
O163 C174 1.226 . S
O164 Zn162 1.932 . S
O164 C174 1.307 . S
O165 Zn158 1.919 . S
O165 C176 1.253 1_554 S
O166 Zn160 1.941 1_655 S
O166 C176 1.283 . S
O167 Zn160 1.965 . S
O167 C175 1.303 . S
O168 Zn161 1.938 . S
O168 C175 1.247 1_554 S
O169 Zn161 1.906 . S
O169 C177 1.304 . S
O170 Zn158 1.924 1_455 S
O170 C178 1.311 . S
O171 Zn162 1.977 1_554 S
O171 C177 1.272 . S
O172 Zn162 1.910 1_554 S
O172 C178 1.231 . S
C173 O157 1.229 . S
C173 O179 1.292 1_655 S
C174 O163 1.226 . S
C174 O164 1.307 . S
C175 O167 1.303 . S
C175 O168 1.247 1_556 S
C176 O165 1.253 1_556 S
C176 O166 1.283 . S
C177 O169 1.304 . S
C177 O171 1.272 . S
C178 O170 1.311 . S
C178 O172 1.231 . S
O179 Zn161 1.953 . S
O179 C173 1.292 1_455 S
H180 C192 0.930 . S
H181 C194 0.930 . S
H182 C195 0.930 . S
H183 C199 0.959 . S
H184 C199 0.959 . S
H185 C199 0.961 . S
H186 C200 0.960 . S
H187 C200 0.961 . S
H188 C200 0.959 . S
H189 C203 0.929 . S
H190 C204 0.931 . S
H191 C206 0.930 . S
C192 H180 0.930 . S
C192 C193 1.399 . S
C192 C197 1.399 . S
C193 C192 1.399 . S
C193 C194 1.376 . S
C194 H181 0.930 . S
C194 C193 1.376 . S
C194 C195 1.388 . S
C195 H182 0.930 . S
C195 C194 1.388 . S
C195 C196 1.390 . S
C196 C195 1.390 . S
C196 C197 1.394 . S
C196 C202 1.465 . S
C197 C192 1.399 . S
C197 C196 1.394 . S
C197 C198 1.516 . S
C198 C197 1.516 . S
C198 C199 1.502 . S
C198 C200 1.561 . S
C198 C201 1.526 . S
C199 H183 0.959 . S
C199 H184 0.959 . S
C199 H185 0.961 . S
C199 C198 1.502 . S
C200 H186 0.960 . S
C200 H187 0.961 . S
C200 H188 0.959 . S
C200 C198 1.561 . S
C201 C198 1.526 . S
C201 C202 1.396 . S
C201 C206 1.390 . S
C202 C196 1.465 . S
C202 C201 1.396 . S
C202 C203 1.399 . S
C203 H189 0.929 . S
C203 C202 1.399 . S
C203 C204 1.385 . S
C204 H190 0.931 . S
C204 C203 1.385 . S
C204 C205 1.389 . S
C205 C204 1.389 . S
C205 C206 1.387 . S
C206 H191 0.930 . S
C206 C201 1.390 . S
C206 C205 1.387 . S
H207 C219 0.930 . S
H208 C221 0.930 . S
H209 C222 0.930 . S
H210 C226 0.959 . S
H211 C226 0.959 . S
H212 C226 0.961 . S
H213 C227 0.960 . S
H214 C227 0.961 . S
H215 C227 0.959 . S
H216 C230 0.954 . S
H217 C231 0.931 . S
H218 C233 0.930 . S
C219 H207 0.930 . S
C219 C220 1.399 . S
C219 C224 1.399 . S
C220 C219 1.399 . S
C220 C221 1.376 . S
C221 H208 0.930 . S
C221 C220 1.376 . S
C221 C222 1.388 . S
C222 H209 0.930 . S
C222 C221 1.388 . S
C222 C223 1.390 . S
C223 C222 1.390 . S
C223 C224 1.394 . S
C223 C229 1.465 . S
C224 C219 1.399 . S
C224 C223 1.394 . S
C224 C225 1.516 . S
C225 C224 1.516 . S
C225 C226 1.502 . S
C225 C227 1.561 . S
C225 C228 1.526 . S
C226 H210 0.959 . S
C226 H211 0.959 . S
C226 H212 0.961 . S
C226 C225 1.502 . S
C227 H213 0.960 . S
C227 H214 0.961 . S
C227 H215 0.959 . S
C227 C225 1.561 . S
C228 C225 1.526 . S
C228 C229 1.396 . S
C228 C233 1.390 . S
C229 C223 1.465 . S
C229 C228 1.396 . S
C229 C230 1.373 1_565 S
C230 H216 0.954 . S
C230 C229 1.373 1_545 S
C230 C231 1.387 . S
C231 H217 0.931 . S
C231 C230 1.387 . S
C231 C232 1.389 1_545 S
C232 C231 1.389 1_565 S
C232 C233 1.387 . S
C233 H218 0.930 . S
C233 C228 1.390 . S
C233 C232 1.387 . S
H234 C246 0.930 . S
H235 C248 0.930 . S
H236 C249 0.930 . S
H237 C253 0.959 . S
H238 C253 0.959 . S
H239 C253 0.961 . S
H240 C254 0.960 . S
H241 C254 0.961 . S
H242 C254 0.959 . S
H243 C257 0.929 . S
H244 C258 0.931 . S
H245 C260 0.930 . S
C246 H234 0.930 . S
C246 C247 1.399 . S
C246 C251 1.399 . S
C247 C246 1.399 . S
C247 C248 1.376 . S
C248 H235 0.930 . S
C248 C247 1.376 . S
C248 C249 1.388 . S
C249 H236 0.930 . S
C249 C248 1.388 . S
C249 C250 1.390 . S
C250 C249 1.390 . S
C250 C251 1.394 . S
C250 C256 1.465 . S
C251 C246 1.399 . S
C251 C250 1.394 . S
C251 C252 1.516 . S
C252 C251 1.516 . S
C252 C253 1.502 . S
C252 C254 1.561 . S
C252 C255 1.526 . S
C253 H237 0.959 . S
C253 H238 0.959 . S
C253 H239 0.961 . S
C253 C252 1.502 . S
C254 H240 0.960 . S
C254 H241 0.961 . S
C254 H242 0.959 . S
C254 C252 1.561 . S
C255 C252 1.526 . S
C255 C256 1.396 . S
C255 C260 1.390 . S
C256 C250 1.465 . S
C256 C255 1.396 . S
C256 C257 1.399 . S
C257 H243 0.929 . S
C257 C256 1.399 . S
C257 C258 1.385 . S
C258 H244 0.931 . S
C258 C257 1.385 . S
C258 C259 1.389 . S
C259 C258 1.389 . S
C259 C260 1.387 . S
C260 H245 0.930 . S
C260 C255 1.390 . S
C260 C259 1.387 . S
H261 C273 0.930 . S
H262 C275 0.930 . S
H263 C276 0.930 . S
H264 C280 0.959 . S
H265 C280 0.959 . S
H266 C280 0.961 . S
H267 C281 0.960 . S
H268 C281 0.961 . S
H269 C281 0.959 . S
H270 C284 0.929 . S
H271 C285 0.931 . S
H272 C287 0.930 1_455 S
C273 H261 0.930 . S
C273 C274 1.399 . S
C273 C278 1.399 . S
C274 C273 1.399 . S
C274 C275 1.376 . S
C275 H262 0.930 . S
C275 C274 1.376 . S
C275 C276 1.388 . S
C276 H263 0.930 . S
C276 C275 1.388 . S
C276 C277 1.390 . S
C277 C276 1.390 . S
C277 C278 1.394 . S
C277 C283 1.465 . S
C278 C273 1.399 . S
C278 C277 1.394 . S
C278 C279 1.516 . S
C279 C278 1.516 . S
C279 C280 1.502 1_655 S
C279 C281 1.561 . S
C279 C282 1.526 . S
C280 H264 0.959 . S
C280 H265 0.959 . S
C280 H266 0.961 . S
C280 C279 1.502 1_455 S
C281 H267 0.960 . S
C281 H268 0.961 . S
C281 H269 0.959 . S
C281 C279 1.561 . S
C282 C279 1.526 . S
C282 C283 1.396 . S
C282 C287 1.390 . S
C283 C277 1.465 . S
C283 C282 1.396 . S
C283 C284 1.399 . S
C284 H270 0.929 . S
C284 C283 1.399 . S
C284 C285 1.385 . S
C285 H271 0.931 . S
C285 C284 1.385 . S
C285 C286 1.389 . S
C286 C285 1.389 . S
C286 C287 1.387 . S
C287 H272 0.930 1_655 S
C287 C282 1.390 . S
C287 C286 1.387 . S
H288 C300 0.930 . S
H289 C302 0.930 . S
H290 C303 0.930 . S
H291 C307 0.959 . S
H292 C307 0.959 . S
H293 C307 0.961 . S
H294 C308 0.960 . S
H295 C308 0.961 . S
H296 C308 0.959 . S
H297 C311 0.929 . S
H298 C312 0.931 . S
H299 C314 0.930 . S
C300 H288 0.930 . S
C300 C301 1.399 . S
C300 C305 1.399 . S
C301 C300 1.399 . S
C301 C302 1.376 . S
C302 H289 0.930 . S
C302 C301 1.376 . S
C302 C303 1.388 . S
C303 H290 0.930 . S
C303 C302 1.388 . S
C303 C304 1.390 . S
C304 C303 1.390 . S
C304 C305 1.394 . S
C304 C310 1.465 . S
C305 C300 1.399 . S
C305 C304 1.394 . S
C305 C306 1.516 . S
C306 C305 1.516 . S
C306 C307 1.502 . S
C306 C308 1.561 . S
C306 C309 1.526 . S
C307 H291 0.959 . S
C307 H292 0.959 . S
C307 H293 0.961 . S
C307 C306 1.502 . S
C308 H294 0.960 . S
C308 H295 0.961 . S
C308 H296 0.959 . S
C308 C306 1.561 . S
C309 C306 1.526 . S
C309 C310 1.396 . S
C309 C314 1.390 . S
C310 C304 1.465 . S
C310 C309 1.396 . S
C310 C311 1.399 . S
C311 H297 0.929 . S
C311 C310 1.399 . S
C311 C312 1.385 . S
C312 H298 0.931 . S
C312 C311 1.385 . S
C312 C313 1.389 . S
C313 C312 1.389 . S
C313 C314 1.387 . S
C314 H299 0.930 . S
C314 C309 1.390 . S
C314 C313 1.387 . S
H315 C327 0.930 . S
H316 C329 0.930 . S
H317 C330 0.930 . S
H318 C334 0.959 . S
H319 C334 0.959 . S
H320 C334 0.961 . S
H321 C335 0.960 . S
H322 C335 0.961 . S
H323 C335 0.959 . S
H324 C338 0.929 1_545 S
H325 C339 0.931 1_545 S
H326 C341 0.930 . S
C327 H315 0.930 . S
C327 C328 1.399 . S
C327 C332 1.399 . S
C328 C327 1.399 . S
C328 C329 1.376 . S
C329 H316 0.930 . S
C329 C328 1.376 . S
C329 C330 1.388 . S
C330 H317 0.930 . S
C330 C329 1.388 . S
C330 C331 1.390 . S
C331 C330 1.390 . S
C331 C332 1.394 . S
C331 C337 1.465 . S
C332 C327 1.399 . S
C332 C331 1.394 . S
C332 C333 1.516 . S
C333 C332 1.516 . S
C333 C334 1.502 . S
C333 C335 1.561 . S
C333 C336 1.526 . S
C334 H318 0.959 . S
C334 H319 0.959 . S
C334 H320 0.961 . S
C334 C333 1.502 . S
C335 H321 0.960 . S
C335 H322 0.961 . S
C335 H323 0.959 . S
C335 C333 1.561 . S
C336 C333 1.526 . S
C336 C337 1.396 . S
C336 C341 1.390 . S
C337 C331 1.465 . S
C337 C336 1.396 . S
C337 C338 1.399 . S
C338 H324 0.929 1_565 S
C338 C337 1.399 . S
C338 C339 1.385 . S
C339 H325 0.931 1_565 S
C339 C338 1.385 . S
C339 C340 1.389 . S
C340 C339 1.389 . S
C340 C341 1.387 . S
C341 H326 0.930 . S
C341 C336 1.390 . S
C341 C340 1.387 . S
H342 C354 0.930 . S
H343 C356 0.930 . S
H344 C357 0.930 . S
H345 C361 0.959 1_554 S
H346 C361 0.959 . S
H347 C361 0.961 . S
H348 C362 0.960 . S
H349 C362 0.961 . S
H350 C362 0.959 . S
H351 C365 0.929 . S
H352 C366 0.931 . S
H353 C368 0.930 . S
C354 H342 0.930 . S
C354 C355 1.399 . S
C354 C359 1.399 . S
C355 C354 1.399 . S
C355 C356 1.376 . S
C356 H343 0.930 . S
C356 C355 1.376 . S
C356 C357 1.388 . S
C357 H344 0.930 . S
C357 C356 1.388 . S
C357 C358 1.390 . S
C358 C357 1.390 . S
C358 C359 1.394 . S
C358 C364 1.465 . S
C359 C354 1.399 . S
C359 C358 1.394 . S
C359 C360 1.516 . S
C360 C359 1.516 . S
C360 C361 1.502 . S
C360 C362 1.561 . S
C360 C363 1.526 . S
C361 H345 0.959 1_556 S
C361 H346 0.959 . S
C361 H347 0.961 . S
C361 C360 1.502 . S
C362 H348 0.960 . S
C362 H349 0.961 . S
C362 H350 0.959 . S
C362 C360 1.561 . S
C363 C360 1.526 . S
C363 C364 1.396 . S
C363 C368 1.390 . S
C364 C358 1.465 . S
C364 C363 1.396 . S
C364 C365 1.399 . S
C365 H351 0.929 . S
C365 C364 1.399 . S
C365 C366 1.385 . S
C366 H352 0.931 . S
C366 C365 1.385 . S
C366 C367 1.389 . S
C367 C366 1.389 . S
C367 C368 1.387 . S
C368 H353 0.930 . S
C368 C363 1.390 . S
C368 C367 1.387 . S
H369 C381 0.930 . S
H370 C383 0.930 . S
H371 C384 0.930 . S
H372 C388 0.959 . S
H373 C388 0.959 . S
H374 C388 0.961 . S
H375 C389 0.960 . S
H376 C389 0.961 . S
H377 C389 0.959 . S
H378 C392 0.929 . S
H379 C393 0.931 . S
H380 C395 0.930 . S
C381 H369 0.930 . S
C381 C382 1.399 . S
C381 C386 1.399 . S
C382 C381 1.399 . S
C382 C383 1.376 . S
C383 H370 0.930 . S
C383 C382 1.376 . S
C383 C384 1.388 . S
C384 H371 0.930 . S
C384 C383 1.388 . S
C384 C385 1.390 . S
C385 C384 1.390 . S
C385 C386 1.394 . S
C385 C391 1.465 . S
C386 C381 1.399 . S
C386 C385 1.394 . S
C386 C387 1.516 . S
C387 C386 1.516 . S
C387 C388 1.502 . S
C387 C389 1.561 . S
C387 C390 1.526 . S
C388 H372 0.959 . S
C388 H373 0.959 . S
C388 H374 0.961 . S
C388 C387 1.502 . S
C389 H375 0.960 . S
C389 H376 0.961 . S
C389 H377 0.959 . S
C389 C387 1.561 . S
C390 C387 1.526 . S
C390 C391 1.396 . S
C390 C395 1.390 . S
C391 C385 1.465 . S
C391 C390 1.396 . S
C391 C392 1.399 . S
C392 H378 0.929 . S
C392 C391 1.399 . S
C392 C393 1.385 . S
C393 H379 0.931 . S
C393 C392 1.385 . S
C393 C394 1.389 . S
C394 C393 1.389 . S
C394 C395 1.387 . S
C395 H380 0.930 . S
C395 C390 1.390 . S
C395 C394 1.387 . S
H396 C408 0.930 . S
H397 C410 0.930 . S
H398 C411 0.930 . S
H399 C415 0.959 . S
H400 C415 0.959 . S
H401 C415 0.961 . S
H402 C416 0.960 . S
H403 C416 0.961 . S
H404 C416 0.959 . S
H405 C419 0.929 . S
H406 C420 0.931 . S
H407 C422 0.930 . S
C408 H396 0.930 . S
C408 C409 1.399 . S
C408 C413 1.399 . S
C409 C408 1.399 . S
C409 C410 1.376 . S
C410 H397 0.930 . S
C410 C409 1.376 . S
C410 C411 1.388 . S
C411 H398 0.930 . S
C411 C410 1.388 . S
C411 C412 1.390 . S
C412 C411 1.390 . S
C412 C413 1.394 . S
C412 C418 1.465 . S
C413 C408 1.399 . S
C413 C412 1.394 . S
C413 C414 1.516 . S
C414 C413 1.516 . S
C414 C415 1.502 . S
C414 C416 1.561 . S
C414 C417 1.526 . S
C415 H399 0.959 . S
C415 H400 0.959 . S
C415 H401 0.961 . S
C415 C414 1.502 . S
C416 H402 0.960 . S
C416 H403 0.961 . S
C416 H404 0.959 . S
C416 C414 1.561 . S
C417 C414 1.526 . S
C417 C418 1.396 . S
C417 C422 1.390 . S
C418 C412 1.465 . S
C418 C417 1.396 . S
C418 C419 1.399 . S
C419 H405 0.929 . S
C419 C418 1.399 . S
C419 C420 1.385 . S
C420 H406 0.931 . S
C420 C419 1.385 . S
C420 C421 1.389 . S
C421 C420 1.389 . S
C421 C422 1.387 . S
C422 H407 0.930 . S
C422 C417 1.390 . S
C422 C421 1.387 . S
H423 C435 0.930 . S
H424 C437 0.930 . S
H425 C438 0.930 . S
H426 C442 0.959 . S
H427 C442 0.959 . S
H428 C442 0.961 . S
H429 C443 0.960 . S
H430 C443 0.961 . S
H431 C443 0.959 . S
H432 C446 0.929 . S
H433 C447 0.931 . S
H434 C449 0.930 1_556 S
C435 H423 0.930 . S
C435 C436 1.399 . S
C435 C440 1.399 . S
C436 C435 1.399 . S
C436 C437 1.376 1_556 S
C437 H424 0.930 . S
C437 C436 1.376 1_554 S
C437 C438 1.388 . S
C438 H425 0.930 . S
C438 C437 1.388 . S
C438 C439 1.390 . S
C439 C438 1.390 . S
C439 C440 1.394 1_554 S
C439 C445 1.465 . S
C440 C435 1.399 . S
C440 C439 1.394 1_556 S
C440 C441 1.516 . S
C441 C440 1.516 . S
C441 C442 1.502 . S
C441 C443 1.561 . S
C441 C444 1.555 . S
C442 H426 0.959 . S
C442 H427 0.959 . S
C442 H428 0.961 . S
C442 C441 1.502 . S
C443 H429 0.960 . S
C443 H430 0.961 . S
C443 H431 0.959 . S
C443 C441 1.561 . S
C444 C441 1.555 . S
C444 C445 1.371 1_556 S
C444 C449 1.384 1_556 S
C445 C439 1.465 . S
C445 C444 1.371 1_554 S
C445 C446 1.399 . S
C446 H432 0.929 . S
C446 C445 1.399 . S
C446 C447 1.385 . S
C447 H433 0.931 . S
C447 C446 1.385 . S
C447 C448 1.389 . S
C448 C447 1.389 . S
C448 C449 1.387 . S
C449 H434 0.930 1_554 S
C449 C444 1.384 1_554 S
C449 C448 1.387 . S
H450 C462 0.930 . S
H451 C464 0.930 . S
H452 C465 0.930 . S
H453 C469 0.959 . S
H454 C469 0.959 . S
H455 C469 0.961 . S
H456 C470 0.960 . S
H457 C470 0.961 . S
H458 C470 0.959 . S
H459 C473 0.929 1_455 S
H460 C474 0.931 1_455 S
H461 C476 0.930 . S
C462 H450 0.930 . S
C462 C463 1.399 . S
C462 C467 1.399 . S
C463 C462 1.399 . S
C463 C464 1.376 . S
C464 H451 0.930 . S
C464 C463 1.376 . S
C464 C465 1.388 . S
C465 H452 0.930 . S
C465 C464 1.388 . S
C465 C466 1.390 . S
C466 C465 1.390 . S
C466 C467 1.394 . S
C466 C472 1.465 . S
C467 C462 1.399 . S
C467 C466 1.394 . S
C467 C468 1.516 . S
C468 C467 1.516 . S
C468 C469 1.502 . S
C468 C470 1.561 . S
C468 C471 1.526 . S
C469 H453 0.959 . S
C469 H454 0.959 . S
C469 H455 0.961 . S
C469 C468 1.502 . S
C470 H456 0.960 . S
C470 H457 0.961 . S
C470 H458 0.959 . S
C470 C468 1.561 . S
C471 C468 1.526 . S
C471 C472 1.396 . S
C471 C476 1.390 . S
C472 C466 1.465 . S
C472 C471 1.396 . S
C472 C473 1.399 . S
C473 H459 0.929 1_655 S
C473 C472 1.399 . S
C473 C474 1.385 . S
C474 H460 0.931 1_655 S
C474 C473 1.385 . S
C474 C475 1.389 . S
C475 C474 1.389 . S
C475 C476 1.387 . S
C476 H461 0.930 . S
C476 C471 1.390 . S
C476 C475 1.387 . S
H477 C489 0.930 . S
H478 C491 0.930 . S
H479 C492 0.930 . S
H480 C496 0.959 . S
H481 C496 0.959 . S
H482 C496 0.961 . S
H483 C497 0.960 . S
H484 C497 0.961 . S
H485 C497 0.959 . S
H486 C500 0.929 . S
H487 C501 0.931 . S
H488 C503 0.930 . S
C489 H477 0.930 . S
C489 C490 1.399 . S
C489 C494 1.399 . S
C490 C489 1.399 . S
C490 C491 1.376 . S
C491 H478 0.930 . S
C491 C490 1.376 . S
C491 C492 1.388 . S
C492 H479 0.930 . S
C492 C491 1.388 . S
C492 C493 1.390 . S
C493 C492 1.390 . S
C493 C494 1.394 . S
C493 C499 1.465 . S
C494 C489 1.399 . S
C494 C493 1.394 . S
C494 C495 1.516 . S
C495 C494 1.516 . S
C495 C496 1.502 . S
C495 C497 1.561 . S
C495 C498 1.526 . S
C496 H480 0.959 . S
C496 H481 0.959 . S
C496 H482 0.961 . S
C496 C495 1.502 . S
C497 H483 0.960 . S
C497 H484 0.961 . S
C497 H485 0.959 . S
C497 C495 1.561 . S
C498 C495 1.526 . S
C498 C499 1.396 . S
C498 C503 1.390 . S
C499 C493 1.465 . S
C499 C498 1.396 . S
C499 C500 1.399 . S
C500 H486 0.929 . S
C500 C499 1.399 . S
C500 C501 1.385 . S
C501 H487 0.931 . S
C501 C500 1.385 . S
C501 C502 1.389 . S
C502 C501 1.389 . S
C502 C503 1.387 . S
C503 H488 0.930 . S
C503 C498 1.390 . S
C503 C502 1.387 . S
H504 C516 0.930 . S
H505 C518 0.930 . S
H506 C519 0.930 . S
H507 C523 0.959 . S
H508 C523 0.959 . S
H509 C523 0.961 . S
H510 C524 0.960 . S
H511 C524 0.961 . S
H512 C524 0.959 . S
H513 C527 0.929 . S
H514 C528 0.931 . S
H515 C530 0.930 . S
C516 H504 0.930 . S
C516 C517 1.399 1_545 S
C516 C521 1.399 1_545 S
C517 C516 1.399 1_565 S
C517 C518 1.376 . S
C518 H505 0.930 . S
C518 C517 1.376 . S
C518 C519 1.388 . S
C519 H506 0.930 . S
C519 C518 1.388 . S
C519 C520 1.390 . S
C520 C519 1.390 . S
C520 C521 1.407 . S
C520 C526 1.465 . S
C521 C516 1.399 1_565 S
C521 C520 1.407 . S
C521 C522 1.504 1_565 S
C522 C521 1.504 1_545 S
C522 C523 1.502 . S
C522 C524 1.561 1_655 S
C522 C525 1.526 . S
C523 H507 0.959 . S
C523 H508 0.959 . S
C523 H509 0.961 . S
C523 C522 1.502 . S
C524 H510 0.960 . S
C524 H511 0.961 . S
C524 H512 0.959 . S
C524 C522 1.561 1_455 S
C525 C522 1.526 . S
C525 C526 1.396 1_545 S
C525 C530 1.390 . S
C526 C520 1.465 . S
C526 C525 1.396 1_565 S
C526 C527 1.399 . S
C527 H513 0.929 . S
C527 C526 1.399 . S
C527 C528 1.385 . S
C528 H514 0.931 . S
C528 C527 1.385 . S
C528 C529 1.389 . S
C529 C528 1.389 . S
C529 C530 1.387 1_565 S
C530 H515 0.930 . S
C530 C525 1.390 . S
C530 C529 1.387 1_545 S
H531 C543 0.930 . S
H532 C545 0.930 . S
H533 C546 0.930 . S
H534 C550 0.959 . S
H535 C550 0.959 . S
H536 C550 0.961 . S
H537 C551 0.960 . S
H538 C551 0.961 . S
H539 C551 0.959 . S
H540 C554 0.929 1_565 S
H541 C555 0.931 1_565 S
H542 C557 0.930 . S
C543 H531 0.930 . S
C543 C544 1.399 . S
C543 C548 1.399 . S
C544 C543 1.399 . S
C544 C545 1.376 . S
C545 H532 0.930 . S
C545 C544 1.376 . S
C545 C546 1.388 . S
C546 H533 0.930 . S
C546 C545 1.388 . S
C546 C547 1.390 . S
C547 C546 1.390 . S
C547 C548 1.394 . S
C547 C553 1.465 . S
C548 C543 1.399 . S
C548 C547 1.394 . S
C548 C549 1.516 . S
C549 C548 1.516 . S
C549 C550 1.502 . S
C549 C551 1.561 . S
C549 C552 1.526 . S
C550 H534 0.959 . S
C550 H535 0.959 . S
C550 H536 0.961 . S
C550 C549 1.502 . S
C551 H537 0.960 . S
C551 H538 0.961 . S
C551 H539 0.959 . S
C551 C549 1.561 . S
C552 C549 1.526 . S
C552 C553 1.396 . S
C552 C557 1.390 . S
C553 C547 1.465 . S
C553 C552 1.396 . S
C553 C554 1.399 . S
C554 H540 0.929 1_545 S
C554 C553 1.399 . S
C554 C555 1.385 . S
C555 H541 0.931 1_545 S
C555 C554 1.385 . S
C555 C556 1.389 . S
C556 C555 1.389 . S
C556 C557 1.387 . S
C557 H542 0.930 . S
C557 C552 1.390 . S
C557 C556 1.387 . S
H558 C570 0.930 . S
H559 C572 0.930 . S
H560 C573 0.930 . S
H561 C577 0.959 . S
H562 C577 0.959 . S
H563 C577 0.961 . S
H564 C578 0.960 . S
H565 C578 0.961 . S
H566 C578 0.959 . S
H567 C581 0.929 . S
H568 C582 0.931 . S
H569 C584 0.930 . S
C570 H558 0.930 . S
C570 C571 1.399 . S
C570 C575 1.399 . S
C571 C570 1.399 . S
C571 C572 1.376 . S
C572 H559 0.930 . S
C572 C571 1.376 . S
C572 C573 1.388 . S
C573 H560 0.930 . S
C573 C572 1.388 . S
C573 C574 1.390 . S
C574 C573 1.390 . S
C574 C575 1.394 . S
C574 C580 1.465 . S
C575 C570 1.399 . S
C575 C574 1.394 . S
C575 C576 1.516 . S
C576 C575 1.516 . S
C576 C577 1.502 . S
C576 C578 1.561 . S
C576 C579 1.526 . S
C577 H561 0.959 . S
C577 H562 0.959 . S
C577 H563 0.961 . S
C577 C576 1.502 . S
C578 H564 0.960 . S
C578 H565 0.961 . S
C578 H566 0.959 . S
C578 C576 1.561 . S
C579 C576 1.526 . S
C579 C580 1.396 . S
C579 C584 1.390 . S
C580 C574 1.465 . S
C580 C579 1.396 . S
C580 C581 1.399 . S
C581 H567 0.929 . S
C581 C580 1.399 . S
C581 C582 1.385 . S
C582 H568 0.931 . S
C582 C581 1.385 . S
C582 C583 1.389 . S
C583 C582 1.389 . S
C583 C584 1.387 . S
C584 H569 0.930 . S
C584 C579 1.390 . S
C584 C583 1.387 . S
H585 C597 0.930 . S
H586 C599 0.930 . S
H587 C600 0.930 . S
H588 C604 0.959 . S
H589 C604 0.959 . S
H590 C604 0.961 . S
H591 C605 0.960 . S
H592 C605 0.961 . S
H593 C605 0.959 . S
H594 C608 0.929 . S
H595 C609 0.931 . S
H596 C611 0.930 . S
C597 H585 0.930 . S
C597 C598 1.399 . S
C597 C602 1.399 . S
C598 C597 1.399 . S
C598 C599 1.376 . S
C599 H586 0.930 . S
C599 C598 1.376 . S
C599 C600 1.388 . S
C600 H587 0.930 . S
C600 C599 1.388 . S
C600 C601 1.390 . S
C601 C600 1.390 . S
C601 C602 1.394 . S
C601 C607 1.465 . S
C602 C597 1.399 . S
C602 C601 1.394 . S
C602 C603 1.516 . S
C603 C602 1.516 . S
C603 C604 1.502 . S
C603 C605 1.561 . S
C603 C606 1.526 . S
C604 H588 0.959 . S
C604 H589 0.959 . S
C604 H590 0.961 . S
C604 C603 1.502 . S
C605 H591 0.960 . S
C605 H592 0.961 . S
C605 H593 0.959 . S
C605 C603 1.561 . S
C606 C603 1.526 . S
C606 C607 1.396 . S
C606 C611 1.390 . S
C607 C601 1.465 . S
C607 C606 1.396 . S
C607 C608 1.399 . S
C608 H594 0.929 . S
C608 C607 1.399 . S
C608 C609 1.385 . S
C609 H595 0.931 . S
C609 C608 1.385 . S
C609 C610 1.389 . S
C610 C609 1.389 . S
C610 C611 1.387 . S
C611 H596 0.930 . S
C611 C606 1.390 . S
C611 C610 1.387 . S
H612 C624 0.930 . S
H613 C626 0.930 . S
H614 C627 0.930 . S
H615 C631 0.959 . S
H616 C631 0.959 . S
H617 C631 0.961 . S
H618 C632 0.960 . S
H619 C632 0.961 . S
H620 C632 0.959 . S
H621 C635 0.929 . S
H622 C636 0.931 . S
H623 C638 0.930 . S
C624 H612 0.930 . S
C624 C625 1.399 1_544 S
C624 C629 1.399 . S
C625 C624 1.399 1_566 S
C625 C626 1.376 . S
C626 H613 0.930 . S
C626 C625 1.376 . S
C626 C627 1.388 . S
C627 H614 0.930 . S
C627 C626 1.388 . S
C627 C628 1.390 . S
C628 C627 1.390 . S
C628 C629 1.394 1_566 S
C628 C634 1.470 . S
C629 C624 1.399 . S
C629 C628 1.394 1_544 S
C629 C630 1.516 . S
C630 C629 1.516 . S
C630 C631 1.502 . S
C630 C632 1.561 . S
C630 C633 1.526 . S
C631 H615 0.959 . S
C631 H616 0.959 . S
C631 H617 0.961 . S
C631 C630 1.502 . S
C632 H618 0.960 . S
C632 H619 0.961 . S
C632 H620 0.959 . S
C632 C630 1.561 . S
C633 C630 1.526 . S
C633 C634 1.382 1_544 S
C633 C638 1.390 . S
C634 C628 1.470 . S
C634 C633 1.382 1_566 S
C634 C635 1.406 . S
C635 H621 0.929 . S
C635 C634 1.406 . S
C635 C636 1.385 . S
C636 H622 0.931 . S
C636 C635 1.385 . S
C636 C637 1.389 1_566 S
C637 C636 1.389 1_544 S
C637 C638 1.387 . S
C638 H623 0.930 . S
C638 C633 1.390 . S
C638 C637 1.387 . S
H639 C651 0.930 . S
H640 C653 0.930 . S
H641 C654 0.930 . S
H642 C658 0.959 . S
H643 C658 0.959 . S
H644 C658 0.961 . S
H645 C659 0.960 1_565 S
H646 C659 0.961 1_565 S
H647 C659 0.959 . S
H648 C662 0.929 . S
H649 C663 0.931 . S
H650 C665 0.930 1_565 S
C651 H639 0.930 . S
C651 C652 1.399 . S
C651 C656 1.399 . S
C652 C651 1.399 . S
C652 C653 1.376 . S
C653 H640 0.930 . S
C653 C652 1.376 . S
C653 C654 1.388 . S
C654 H641 0.930 . S
C654 C653 1.388 . S
C654 C655 1.390 . S
C655 C654 1.390 . S
C655 C656 1.394 . S
C655 C661 1.465 . S
C656 C651 1.399 . S
C656 C655 1.394 . S
C656 C657 1.516 . S
C657 C656 1.516 . S
C657 C658 1.502 1_545 S
C657 C659 1.561 . S
C657 C660 1.526 . S
C658 H642 0.959 . S
C658 H643 0.959 . S
C658 H644 0.961 . S
C658 C657 1.502 1_565 S
C659 H645 0.960 1_545 S
C659 H646 0.961 1_545 S
C659 H647 0.959 . S
C659 C657 1.561 . S
C660 C657 1.526 . S
C660 C661 1.396 . S
C660 C665 1.390 . S
C661 C655 1.465 . S
C661 C660 1.396 . S
C661 C662 1.399 . S
C662 H648 0.929 . S
C662 C661 1.399 . S
C662 C663 1.385 . S
C663 H649 0.931 . S
C663 C662 1.385 . S
C663 C664 1.389 . S
C664 C663 1.389 . S
C664 C665 1.387 . S
C665 H650 0.930 1_545 S
C665 C660 1.390 . S
C665 C664 1.387 . S
H666 C678 0.930 . S
H667 C680 0.930 . S
H668 C681 0.930 . S
H669 C685 0.959 . S
H670 C685 0.959 . S
H671 C685 0.961 . S
H672 C686 0.960 . S
H673 C686 0.961 . S
H674 C686 0.959 . S
H675 C689 0.929 . S
H676 C690 0.931 . S
H677 C692 0.930 . S
C678 H666 0.930 . S
C678 C679 1.399 . S
C678 C683 1.399 . S
C679 C678 1.399 . S
C679 C680 1.376 . S
C680 H667 0.930 . S
C680 C679 1.376 . S
C680 C681 1.388 . S
C681 H668 0.930 . S
C681 C680 1.388 . S
C681 C682 1.390 . S
C682 C681 1.390 . S
C682 C683 1.394 . S
C682 C688 1.465 . S
C683 C678 1.399 . S
C683 C682 1.394 . S
C683 C684 1.516 . S
C684 C683 1.516 . S
C684 C685 1.502 . S
C684 C686 1.561 . S
C684 C687 1.526 . S
C685 H669 0.959 . S
C685 H670 0.959 . S
C685 H671 0.961 . S
C685 C684 1.502 . S
C686 H672 0.960 . S
C686 H673 0.961 . S
C686 H674 0.959 . S
C686 C684 1.561 . S
C687 C684 1.526 . S
C687 C688 1.396 . S
C687 C692 1.390 . S
C688 C682 1.465 . S
C688 C687 1.396 . S
C688 C689 1.399 . S
C689 H675 0.929 . S
C689 C688 1.399 . S
C689 C690 1.385 . S
C690 H676 0.931 . S
C690 C689 1.385 . S
C690 C691 1.389 . S
C691 C690 1.389 . S
C691 C692 1.387 . S
C692 H677 0.930 . S
C692 C687 1.390 . S
C692 C691 1.387 . S
H693 C705 0.930 . S
H694 C707 0.930 . S
H695 C708 0.930 . S
H696 C712 0.959 . S
H697 C712 0.959 . S
H698 C712 0.961 . S
H699 C713 0.960 . S
H700 C713 0.961 . S
H701 C713 0.959 . S
H702 C716 0.929 . S
H703 C717 0.931 . S
H704 C719 0.930 . S
C705 H693 0.930 . S
C705 C706 1.399 . S
C705 C710 1.399 . S
C706 C705 1.399 . S
C706 C707 1.376 . S
C707 H694 0.930 . S
C707 C706 1.376 . S
C707 C708 1.388 . S
C708 H695 0.930 . S
C708 C707 1.388 . S
C708 C709 1.390 . S
C709 C708 1.390 . S
C709 C710 1.394 . S
C709 C715 1.465 . S
C710 C705 1.399 . S
C710 C709 1.394 . S
C710 C711 1.516 . S
C711 C710 1.516 . S
C711 C712 1.502 . S
C711 C713 1.561 . S
C711 C714 1.526 . S
C712 H696 0.959 . S
C712 H697 0.959 . S
C712 H698 0.961 . S
C712 C711 1.502 . S
C713 H699 0.960 . S
C713 H700 0.961 . S
C713 H701 0.959 . S
C713 C711 1.561 . S
C714 C711 1.526 . S
C714 C715 1.396 . S
C714 C719 1.390 . S
C715 C709 1.465 . S
C715 C714 1.396 . S
C715 C716 1.399 . S
C716 H702 0.929 . S
C716 C715 1.399 . S
C716 C717 1.385 . S
C717 H703 0.931 . S
C717 C716 1.385 . S
C717 C718 1.389 . S
C718 C717 1.389 . S
C718 C719 1.387 . S
C719 H704 0.930 . S
C719 C714 1.390 . S
C719 C718 1.387 . S
H720 C732 0.930 . S
H721 C734 0.930 . S
H722 C735 0.930 . S
H723 C739 0.959 . S
H724 C739 0.959 . S
H725 C739 0.961 . S
H726 C740 0.960 . S
H727 C740 0.961 . S
H728 C740 0.959 . S
H729 C743 0.929 . S
H730 C744 0.931 . S
H731 C746 0.930 . S
C732 H720 0.930 . S
C732 C733 1.399 1_554 S
C732 C737 1.399 . S
C733 C732 1.399 1_556 S
C733 C734 1.376 . S
C734 H721 0.930 . S
C734 C733 1.376 . S
C734 C735 1.388 . S
C735 H722 0.930 . S
C735 C734 1.388 . S
C735 C736 1.390 . S
C736 C735 1.390 . S
C736 C737 1.394 1_556 S
C736 C742 1.465 . S
C737 C732 1.399 . S
C737 C736 1.394 1_554 S
C737 C738 1.516 1_655 S
C738 C737 1.516 1_455 S
C738 C739 1.502 . S
C738 C740 1.561 1_455 S
C738 C741 1.526 1_455 S
C739 H723 0.959 . S
C739 H724 0.959 . S
C739 H725 0.961 . S
C739 C738 1.502 . S
C740 H726 0.960 . S
C740 H727 0.961 . S
C740 H728 0.959 . S
C740 C738 1.561 1_655 S
C741 C738 1.526 1_655 S
C741 C742 1.396 1_554 S
C741 C746 1.390 1_655 S
C742 C736 1.465 . S
C742 C741 1.396 1_556 S
C742 C743 1.399 . S
C743 H729 0.929 . S
C743 C742 1.399 . S
C743 C744 1.385 . S
C744 H730 0.931 . S
C744 C743 1.385 . S
C744 C745 1.389 . S
C745 C744 1.389 . S
C745 C746 1.387 1_656 S
C746 H731 0.930 . S
C746 C741 1.390 1_455 S
C746 C745 1.387 1_454 S
H747 C759 0.930 . S
H748 C761 0.930 . S
H749 C762 0.930 . S
H750 C766 0.959 . S
H751 C766 0.959 . S
H752 C766 0.961 . S
H753 C767 0.960 . S
H754 C767 0.961 . S
H755 C767 0.959 . S
H756 C770 0.929 . S
H757 C771 0.931 . S
H758 C773 0.930 . S
C759 H747 0.930 . S
C759 C760 1.399 . S
C759 C764 1.399 . S
C760 C759 1.399 . S
C760 C761 1.376 . S
C761 H748 0.930 . S
C761 C760 1.376 . S
C761 C762 1.388 . S
C762 H749 0.930 . S
C762 C761 1.388 . S
C762 C763 1.390 . S
C763 C762 1.390 . S
C763 C764 1.394 . S
C763 C769 1.465 . S
C764 C759 1.399 . S
C764 C763 1.394 . S
C764 C765 1.516 . S
C765 C764 1.516 . S
C765 C766 1.502 . S
C765 C767 1.561 . S
C765 C768 1.526 . S
C766 H750 0.959 . S
C766 H751 0.959 . S
C766 H752 0.961 . S
C766 C765 1.502 . S
C767 H753 0.960 . S
C767 H754 0.961 . S
C767 H755 0.959 . S
C767 C765 1.561 . S
C768 C765 1.526 . S
C768 C769 1.396 . S
C768 C773 1.390 . S
C769 C763 1.465 . S
C769 C768 1.396 . S
C769 C770 1.399 . S
C770 H756 0.929 . S
C770 C769 1.399 . S
C770 C771 1.385 . S
C771 H757 0.931 . S
C771 C770 1.385 . S
C771 C772 1.389 . S
C772 C771 1.389 . S
C772 C773 1.387 . S
C773 H758 0.930 . S
C773 C768 1.390 . S
C773 C772 1.387 . S
H774 C786 0.930 . S
H775 C788 0.930 . S
H776 C789 0.930 . S
H777 C793 0.959 . S
H778 C793 0.959 . S
H779 C793 0.961 . S
H780 C794 0.960 . S
H781 C794 0.961 . S
H782 C794 0.959 . S
H783 C797 0.929 . S
H784 C798 0.931 . S
H785 C800 0.930 . S
C786 H774 0.930 . S
C786 C787 1.399 . S
C786 C791 1.399 . S
C787 C786 1.399 . S
C787 C788 1.376 . S
C788 H775 0.930 . S
C788 C787 1.376 . S
C788 C789 1.388 . S
C789 H776 0.930 . S
C789 C788 1.388 . S
C789 C790 1.390 . S
C790 C789 1.390 . S
C790 C791 1.394 . S
C790 C796 1.465 . S
C791 C786 1.399 . S
C791 C790 1.394 . S
C791 C792 1.516 . S
C792 C791 1.516 . S
C792 C793 1.502 . S
C792 C794 1.561 . S
C792 C795 1.526 . S
C793 H777 0.959 . S
C793 H778 0.959 . S
C793 H779 0.961 . S
C793 C792 1.502 . S
C794 H780 0.960 . S
C794 H781 0.961 . S
C794 H782 0.959 . S
C794 C792 1.561 . S
C795 C792 1.526 . S
C795 C796 1.396 . S
C795 C800 1.390 . S
C796 C790 1.465 . S
C796 C795 1.396 . S
C796 C797 1.399 . S
C797 H783 0.929 . S
C797 C796 1.399 . S
C797 C798 1.385 . S
C798 H784 0.931 . S
C798 C797 1.385 . S
C798 C799 1.389 . S
C799 C798 1.389 . S
C799 C800 1.387 . S
C800 H785 0.930 . S
C800 C795 1.390 . S
C800 C799 1.387 . S
H801 C813 0.930 . S
H802 C815 0.930 . S
H803 C816 0.930 . S
H804 C820 0.959 . S
H805 C820 0.959 . S
H806 C820 0.961 . S
H807 C821 0.960 . S
H808 C821 0.961 . S
H809 C821 0.959 . S
H810 C824 0.929 . S
H811 C825 0.931 . S
H812 C827 0.930 . S
C813 H801 0.930 . S
C813 C814 1.399 . S
C813 C818 1.399 . S
C814 C813 1.399 . S
C814 C815 1.376 . S
C815 H802 0.930 . S
C815 C814 1.376 . S
C815 C816 1.388 . S
C816 H803 0.930 . S
C816 C815 1.388 . S
C816 C817 1.390 . S
C817 C816 1.390 . S
C817 C818 1.394 . S
C817 C823 1.465 . S
C818 C813 1.399 . S
C818 C817 1.394 . S
C818 C819 1.516 . S
C819 C818 1.516 . S
C819 C820 1.502 . S
C819 C821 1.561 . S
C819 C822 1.526 . S
C820 H804 0.959 . S
C820 H805 0.959 . S
C820 H806 0.961 . S
C820 C819 1.502 . S
C821 H807 0.960 . S
C821 H808 0.961 . S
C821 H809 0.959 . S
C821 C819 1.561 . S
C822 C819 1.526 . S
C822 C823 1.396 . S
C822 C827 1.390 . S
C823 C817 1.465 . S
C823 C822 1.396 . S
C823 C824 1.399 . S
C824 H810 0.929 . S
C824 C823 1.399 . S
C824 C825 1.385 . S
C825 H811 0.931 . S
C825 C824 1.385 . S
C825 C826 1.389 . S
C826 C825 1.389 . S
C826 C827 1.387 . S
C827 H812 0.930 . S
C827 C822 1.390 . S
C827 C826 1.387 . S
C193 C5 1.692 . S
C205 C106 1.833 . S
C220 C18 1.618 . S
C232 C130 1.614 . S
C259 C150 1.255 . S
C247 C30 1.183 . S
C274 C41 1.183 . S
C286 C173 1.205 . S
C313 C132 1.910 . S
C301 C7 1.900 . S
C340 C108 1.839 . S
C328 C16 1.640 . S
C367 C176 1.629 . S
C355 C29 1.547 . S
C394 C153 1.212 . S
C382 C38 1.215 . S
C409 C8 1.546 . S
C421 C178 1.496 . S
C448 C127 1.759 . S
C436 C27 1.459 . S
C463 C40 1.602 . S
C475 C105 1.623 . S
C490 C19 1.098 . S
C502 C155 1.094 . S
C529 C109 1.658 1_565 S
C517 C51 1.628 . S
C544 C62 1.590 . S
C556 C131 1.743 . S
C571 C74 1.599 . S
C583 C151 1.647 . S
C598 C84 1.510 . S
C610 C174 1.612 . S
C625 C49 1.851 . S
C637 C129 1.878 . S
C664 C107 1.470 . S
C652 C63 1.422 . S
C691 C177 1.406 . S
C679 C71 1.059 . S
C718 C154 1.162 . S
C706 C85 1.225 . S
C733 C52 1.846 . S
C745 C175 1.837 1_655 S
C772 C128 1.828 . S
C760 C73 1.624 . S
C799 C104 1.374 . S
C787 C82 1.164 . S
C814 C60 1.461 . S
C826 C152 1.883 . S
