# Generated by pormake.
# Topology anh, (6,3)-cn, num edge types: 1
# Building blocks:
#     Node 0, Type 0, BuildingBlock: CUWYAW_clean_sbu_0, # of connection points: 6
#     Node 1, Type 0, BuildingBlock: CUWYAW_clean_sbu_0, # of connection points: 6
#     Node 2, Type 0, BuildingBlock: CUWYAW_clean_sbu_0, # of connection points: 6
#     Node 3, Type 1, BuildingBlock: WUSLED_clean_sbu_0, # of connection points: 3
#     Node 4, Type 1, BuildingBlock: WUSLED_clean_sbu_0, # of connection points: 3
#     Node 5, Type 1, BuildingBlock: WUSLED_clean_sbu_0, # of connection points: 3
#     Node 6, Type 1, BuildingBlock: WUSLED_clean_sbu_0, # of connection points: 3
#     Node 7, Type 1, BuildingBlock: WUSLED_clean_sbu_0, # of connection points: 3
#     Node 8, Type 1, BuildingBlock: WUSLED_clean_sbu_0, # of connection points: 3
#     Edge 9, Type (0, 1), BuildingBlock: XUDNAN_clean_linker_2, # of connection points: 2
#     Edge 10, Type (0, 1), BuildingBlock: XUDNAN_clean_linker_2, # of connection points: 2
#     Edge 11, Type (0, 1), BuildingBlock: XUDNAN_clean_linker_2, # of connection points: 2
#     Edge 12, Type (0, 1), BuildingBlock: XUDNAN_clean_linker_2, # of connection points: 2
#     Edge 13, Type (0, 1), BuildingBlock: XUDNAN_clean_linker_2, # of connection points: 2
#     Edge 14, Type (0, 1), BuildingBlock: XUDNAN_clean_linker_2, # of connection points: 2
#     Edge 15, Type (0, 1), BuildingBlock: XUDNAN_clean_linker_2, # of connection points: 2
#     Edge 16, Type (0, 1), BuildingBlock: XUDNAN_clean_linker_2, # of connection points: 2
#     Edge 17, Type (0, 1), BuildingBlock: XUDNAN_clean_linker_2, # of connection points: 2
#     Edge 18, Type (0, 1), BuildingBlock: XUDNAN_clean_linker_2, # of connection points: 2
#     Edge 19, Type (0, 1), BuildingBlock: XUDNAN_clean_linker_2, # of connection points: 2
#     Edge 20, Type (0, 1), BuildingBlock: XUDNAN_clean_linker_2, # of connection points: 2
#     Edge 21, Type (0, 1), BuildingBlock: XUDNAN_clean_linker_2, # of connection points: 2
#     Edge 22, Type (0, 1), BuildingBlock: XUDNAN_clean_linker_2, # of connection points: 2
#     Edge 23, Type (0, 1), BuildingBlock: XUDNAN_clean_linker_2, # of connection points: 2
#     Edge 24, Type (0, 1), BuildingBlock: XUDNAN_clean_linker_2, # of connection points: 2
#     Edge 25, Type (0, 1), BuildingBlock: XUDNAN_clean_linker_2, # of connection points: 2
#     Edge 26, Type (0, 1), BuildingBlock: XUDNAN_clean_linker_2, # of connection points: 2
# Relax obj value: 0.222
# Max RMSD: 0.179
# Mean RMSD: 0.148
data_MOF--net-anh--node1-CUWYAW_clean_sbu_0--node2-WUSLED_clean_sbu_0--edge1-XUDNAN_clean_linker_2
_symmetry_space_group_name_H-M    P1
_symmetry_Int_Tables_number       1
_symmetry_cell_setting            triclinic
loop_
_symmetry_equiv_pos_as_xyz
'x, y, z'
_cell_length_a     40.23151
_cell_length_b     40.338536
_cell_length_c     69.590184
_cell_angle_alpha  89.826209
_cell_angle_beta   90.210495
_cell_angle_gamma 119.70037
loop_
_atom_site_label
_atom_site_type_symbol
_atom_site_fract_x
_atom_site_fract_y
_atom_site_fract_z
_atom_type_partial_charge
C0 C 1.03032 0.42991 0.17341 0.0
Eu1 Eu 0.07252 0.50267 0.17955 0.0
C2 C 0.99081 0.409 0.16604 0.0
C3 C 0.96208 0.38161 0.17778 0.0
C4 C 0.92374 0.36922 0.17375 0.0
C5 C 0.91355 0.38391 0.15784 0.0
C6 C 0.94198 0.40819 0.14496 0.0
C7 C 0.98045 0.42097 0.14911 0.0
C8 C 0.08807 0.53467 0.2155 0.0
C9 C 1.01104 0.53708 0.17404 0.0
C10 C 0.14196 0.65607 0.18587 0.0
Eu11 Eu 0.10287 0.58362 0.17823 0.0
C12 C 0.18037 0.68859 0.18216 0.0
C13 C 0.19172 0.70383 0.16357 0.0
C14 C 0.2269 0.73686 0.1607 0.0
C15 C 0.25134 0.755 0.17633 0.0
C16 C 0.2405 0.73891 0.19477 0.0
C17 C 0.20531 0.70611 0.19765 0.0
C18 C 0.08586 0.55199 0.14307 0.0
C19 C 0.16522 0.54929 0.17468 0.0
O20 O 1.05638 0.45303 0.16138 0.0
O21 O 1.03405 0.44532 0.19033 0.0
O22 O 0.09702 0.50949 0.20976 0.0
O23 O 0.072 0.54245 0.20185 0.0
O24 O 1.01838 0.5084 0.17142 0.0
O25 O 1.03991 0.57041 0.17963 0.0
O26 O 0.13973 0.62971 0.19769 0.0
O27 O 0.11891 0.64204 0.17115 0.0
O28 O 0.08113 0.58036 0.1479 0.0
O29 O 0.10182 0.54372 0.15637 0.0
O30 O 0.15953 0.57934 0.17628 0.0
O31 O 0.13468 0.51456 0.17516 0.0
H32 H 0.96938 0.3719 0.19084 0.0
H33 H 0.90212 0.34971 0.18366 0.0
H34 H 0.93479 0.41978 0.13258 0.0
H35 H 1.00198 0.44222 0.13976 0.0
H36 H 0.1731 0.6909 0.1513 0.0
H37 H 0.23465 0.74868 0.14636 0.0
H38 H 0.25841 0.75269 0.20717 0.0
H39 H 0.19709 0.69507 0.21212 0.0
C40 C 0.56058 0.13477 0.50603 0.0
Eu41 Eu 0.59386 0.09457 0.51174 0.0
C42 C 0.57769 0.17536 0.50057 0.0
C43 C 0.60546 0.20383 0.51241 0.0
C44 C 0.62481 0.24166 0.50638 0.0
C45 C 0.61718 0.25212 0.48831 0.0
C46 C 0.58882 0.22389 0.47659 0.0
C47 C 0.56929 0.18574 0.48266 0.0
C48 C 0.60921 0.07514 0.54696 0.0
C49 C 0.68812 0.14213 0.50794 0.0
C50 C 0.66068 1.00637 0.51346 0.0
Eu51 Eu 0.62725 0.04643 0.50796 0.0
C52 C 0.64444 0.96484 0.51554 0.0
C53 C 0.61919 0.93959 0.50162 0.0
C54 C 0.60165 0.90024 0.5044 0.0
C55 C 0.60861 0.88543 0.52123 0.0
C56 C 0.6338 0.91062 0.53515 0.0
C57 C 0.65168 0.95003 0.53228 0.0
C58 C 0.61425 0.07122 0.47407 0.0
C59 C 0.53426 0.99917 0.5044 0.0
O60 O 0.56203 0.11241 0.49291 0.0
O61 O 0.56916 0.12771 0.52315 0.0
O62 O 0.61515 0.10876 0.54226 0.0
O63 O 0.59498 0.05254 0.5327 0.0
O64 O 0.65645 0.14486 0.50663 0.0
O65 O 0.6834 0.10698 0.51041 0.0
O66 O 0.65318 1.0232 0.52748 0.0
O67 O 0.65727 1.0185 0.49653 0.0
O68 O 0.60753 1.03647 0.47647 0.0
O69 O 0.62814 0.09018 0.48905 0.0
O70 O 0.56504 0.99542 0.50657 0.0
O71 O 0.5392 1.03462 0.50506 0.0
H72 H 0.61288 0.19694 0.52625 0.0
H73 H 0.64569 0.26284 0.51602 0.0
H74 H 0.58226 0.23117 0.46263 0.0
H75 H 0.54826 0.16424 0.4732 0.0
H76 H 0.61249 0.95012 0.48868 0.0
H77 H 0.58221 0.88138 0.49351 0.0
H78 H 0.64003 0.89982 0.54813 0.0
H79 H 0.67076 0.96896 0.54326 0.0
C80 C 0.72685 0.62748 0.84211 0.0
Eu81 Eu 0.65325 0.58406 0.84578 0.0
C82 C 0.75728 0.62114 0.83462 0.0
C83 C 0.75675 0.58667 0.83822 0.0
C84 C 0.78607 0.58105 0.83141 0.0
C85 C 0.81623 0.6095 0.82054 0.0
C86 C 0.81581 0.64343 0.81633 0.0
C87 C 0.78658 0.64922 0.82338 0.0
C88 C 0.61709 0.56218 0.88059 0.0
C89 C 0.61768 0.49242 0.83902 0.0
C90 C 0.49974 0.49974 0.84356 0.0
Eu91 Eu 0.57338 0.54496 0.84076 0.0
C92 C 0.46274 0.49899 0.84254 0.0
C93 C 0.44213 0.48996 0.82516 0.0
C94 C 0.40474 0.48366 0.8247 0.0
C95 C 0.38719 0.48606 0.84162 0.0
C96 C 0.40839 0.4966 0.85884 0.0
C97 C 0.44573 0.50292 0.8593 0.0
C98 C 0.61149 0.56731 0.80725 0.0
C99 C 0.61069 0.63756 0.83851 0.0
O100 O 0.70227 0.62603 0.82937 0.0
O101 O 0.71049 0.60967 0.85803 0.0
O102 O 0.64635 0.55898 0.87562 0.0
O103 O 0.60753 0.57646 0.86675 0.0
O104 O 0.64912 0.52645 0.83793 0.0
O105 O 0.58475 0.49221 0.84226 0.0
O106 O 0.52196 0.5162 0.85839 0.0
O107 O 0.51878 0.50601 0.82757 0.0
O108 O 0.58188 0.57092 0.81106 0.0
O109 O 0.61915 0.55194 0.82102 0.0
O110 O 0.57746 0.60497 0.83948 0.0
O111 O 0.64265 0.63543 0.84025 0.0
H112 H 0.73404 0.56428 0.84661 0.0
H113 H 0.78569 0.55488 0.83535 0.0
H114 H 0.83831 0.66572 0.80782 0.0
H115 H 0.78701 0.67574 0.82019 0.0
H116 H 0.45433 0.48637 0.81201 0.0
H117 H 0.38919 0.47582 0.81121 0.0
H118 H 0.39547 0.498 0.87222 0.0
H119 H 0.46064 0.50931 0.87295 0.0
C120 C 0.59905 0.20668 0.20864 0.0
C121 C 0.61399 0.24412 0.21543 0.0
C122 C 0.65211 0.26865 0.18629 0.0
C123 C 0.6401 0.27492 0.20425 0.0
C124 C 0.63529 0.23109 0.17923 0.0
C125 C 0.60894 0.20052 0.19027 0.0
U126 U 0.56998 0.14956 0.25618 0.0
O127 O 0.51215 0.10719 0.26576 0.0
O128 O 0.55501 0.08981 0.26024 0.0
C129 C 0.51878 0.07868 0.26324 0.0
C130 C 0.57507 0.17322 0.22059 0.0
C131 C 0.49285 0.0493 0.24986 0.0
C132 C 0.47033 1.03051 0.21718 0.0
C133 C 0.49273 0.05869 0.23045 0.0
C134 C 0.44756 0.9833 0.24272 0.0
C135 C 0.4477 0.99247 0.22315 0.0
C136 C 0.47012 1.01157 0.25598 0.0
C137 C 0.61724 0.183 0.304 0.0
C138 C 0.59192 0.13819 0.33061 0.0
C139 C 0.64587 0.20162 0.33564 0.0
C140 C 0.64488 0.21023 0.31624 0.0
C141 C 0.61914 0.16562 0.34309 0.0
C142 C 0.591 0.14683 0.31123 0.0
C143 C 0.61536 0.19208 0.28373 0.0
O144 O 0.59211 0.15469 0.22691 0.0
O145 O 0.55321 0.17668 0.23353 0.0
O146 O 0.58392 0.19243 0.27881 0.0
O147 O 0.62497 0.17354 0.27149 0.0
H148 H 0.60653 0.24949 0.22957 0.0
H149 H 0.65206 0.30348 0.21003 0.0
H150 H 0.64418 0.22481 0.16571 0.0
H151 H 0.5976 0.17177 0.1848 0.0
H152 H 0.47129 1.03838 0.20222 0.0
H153 H 0.51052 0.08777 0.2255 0.0
H154 H 0.42986 0.95432 0.2478 0.0
H155 H 0.47012 1.00395 0.27093 0.0
H156 H 0.57069 0.1104 0.3359 0.0
H157 H 0.66756 0.22317 0.34482 0.0
H158 H 0.6655 0.23818 0.31083 0.0
H159 H 0.56947 0.12542 0.30191 0.0
C160 C 0.63487 0.60557 0.53754 0.0
C161 C 0.59813 0.59193 0.54529 0.0
C162 C 0.59385 0.64408 0.53007 0.0
C163 C 0.57768 0.61087 0.54145 0.0
C164 C 0.62961 0.65608 0.52139 0.0
C165 C 0.64973 0.63684 0.525 0.0
U166 U 0.68404 0.58142 0.5773 0.0
O167 O 0.69313 0.53242 0.58115 0.0
O168 O 0.74257 0.59016 0.57847 0.0
C169 C 0.72999 0.55322 0.57772 0.0
C170 C 0.65973 0.59039 0.54378 0.0
C171 C 0.74237 0.54006 0.56099 0.0
C172 C 0.74289 0.53621 0.52614 0.0
C173 C 0.74299 0.55552 0.54276 0.0
C174 C 0.7449 0.48747 0.54574 0.0
C175 C 0.74188 0.501 0.52748 0.0
C176 C 0.74505 0.50686 0.56237 0.0
C177 C 0.66293 0.59775 0.62929 0.0
C178 C 0.69782 0.59972 0.65823 0.0
C179 C 0.63328 0.58943 0.66052 0.0
C180 C 0.63166 0.59163 0.64057 0.0
C181 C 0.66642 0.59363 0.66963 0.0
C182 C 0.69604 0.60164 0.63818 0.0
C183 C 0.65965 0.59928 0.60833 0.0
O184 O 0.69244 0.6159 0.5514 0.0
O185 O 0.64324 0.55792 0.55327 0.0
O186 O 0.64063 0.56597 0.5998 0.0
O187 O 0.6906 0.6238 0.59899 0.0
H188 H 0.58581 0.56767 0.55495 0.0
H189 H 0.54995 0.60047 0.54808 0.0
H190 H 0.6434 0.68183 0.5128 0.0
H191 H 0.67797 0.64776 0.51884 0.0
H192 H 0.74089 0.54746 0.5123 0.0
H193 H 0.74047 0.58094 0.54133 0.0
H194 H 0.74365 0.46016 0.54732 0.0
H195 H 0.74402 0.49422 0.57628 0.0
H196 H 0.72386 0.60333 0.66477 0.0
H197 H 0.60823 0.58381 0.66875 0.0
H198 H 0.60576 0.58823 0.63392 0.0
H199 H 0.72043 0.60616 0.62967 0.0
C200 C 1.00039 0.47278 0.87524 0.0
C201 C 1.00114 0.50591 0.88193 0.0
C202 C 0.97878 0.51453 0.85083 0.0
C203 C 0.9906 0.52671 0.86979 0.0
C204 C 0.97713 0.48085 0.84431 0.0
C205 C 0.98813 0.46024 0.85642 0.0
U206 U 1.01741 0.43792 0.92377 0.0
O207 O 1.02114 0.38627 0.93003 0.0
O208 O 0.07101 0.4431 0.93458 0.0
C209 C 1.05827 0.4063 0.93312 0.0
C210 C 1.01457 0.45244 0.88723 0.0
C211 C 0.08245 0.39743 0.92094 0.0
C212 C 0.10148 0.39128 0.88864 0.0
C213 C 0.07383 0.38955 0.90131 0.0
C214 C 0.1459 0.40692 0.91522 0.0
C215 C 0.13821 0.40157 0.89541 0.0
C216 C 0.11815 0.40477 0.92791 0.0
C217 C 0.99017 0.45792 0.97165 0.0
C218 C 1.02322 0.45092 0.99924 0.0
C219 C 0.97434 0.46861 1.00383 0.0
C220 C 0.9685 0.46723 0.98391 0.0
C221 C 1.00219 0.46096 0.01172 0.0
C222 C 1.01708 0.44919 0.97947 0.0
C223 C 0.98681 0.4593 0.9507 0.0
O224 O 1.04337 0.47417 0.89858 0.0
O225 O 0.98857 0.42087 0.89555 0.0
O226 O 0.96811 0.42592 0.94212 0.0
O227 O 1.01914 0.48285 0.94213 0.0
H228 H 1.0103 0.51596 0.89646 0.0
H229 H 0.99124 0.55211 0.87531 0.0
H230 H 0.96788 0.4708 0.82979 0.0
H231 H 0.98752 0.43477 0.85102 0.0
H232 H 0.09504 0.38726 0.87341 0.0
H233 H 1.04667 0.38457 0.89556 0.0
H234 H 0.17402 0.41457 0.92075 0.0
H235 H 0.12545 0.41144 0.94295 0.0
H236 H 1.04543 0.44562 1.00464 0.0
H237 H 0.95728 0.47594 0.013 0.0
H238 H 0.94756 0.474 0.97809 0.0
H239 H 1.03418 0.44205 0.97019 0.0
C240 C 1.01332 0.46918 0.47545 0.0
C241 C 0.97802 0.46531 0.48205 0.0
C242 C 0.94288 0.39341 0.48188 0.0
C243 C 0.944 0.42883 0.48504 0.0
C244 C 0.97811 0.39759 0.47482 0.0
C245 C 1.01195 0.43391 0.47187 0.0
U246 U 0.11158 0.57037 0.45845 0.0
O247 O 0.13726 0.62645 0.47393 0.0
O248 O 0.17057 0.59796 0.47169 0.0
C249 C 0.17067 0.62909 0.47745 0.0
C250 C 1.05178 0.50858 0.47525 0.0
C251 C 0.20825 0.66929 0.47735 0.0
C252 C 0.24089 0.73969 0.48369 0.0
C253 C 0.20715 0.70324 0.48119 0.0
C254 C 0.28012 0.7114 0.47883 0.0
C255 C 0.27892 0.74557 0.48253 0.0
C256 C 0.24604 0.6746 0.47642 0.0
C257 C 0.10159 0.56766 0.39977 0.0
C258 C 0.09912 0.53574 0.36923 0.0
C259 C 0.08669 0.58837 0.36932 0.0
C260 C 0.09217 0.5918 0.38934 0.0
C261 C 0.09009 0.56035 0.35873 0.0
C262 C 0.105 0.53949 0.38938 0.0
C263 C 0.11396 0.5771 0.42045 0.0
O264 O 0.08442 0.51078 0.47032 0.0
O265 O 1.05249 0.54096 0.47148 0.0
O266 O 0.09727 0.59063 0.43168 0.0
O267 O 0.12828 0.55877 0.42993 0.0
H268 H 0.97684 0.49085 0.48552 0.0
H269 H 0.91873 0.4286 0.49049 0.0
H270 H 0.98008 0.37247 0.4715 0.0
H271 H 1.03763 0.43414 0.46706 0.0
H272 H 0.23645 0.7633 0.48711 0.0
H273 H 0.17963 0.70163 0.48281 0.0
H274 H 0.30764 0.71287 0.47774 0.0
H275 H 0.24948 0.64995 0.47408 0.0
H276 H 0.10181 0.51355 0.36192 0.0
H277 H 0.08101 0.60885 0.36213 0.0
H278 H 0.09046 0.61464 0.3966 0.0
H279 H 0.11303 0.52081 0.39674 0.0
C280 C 0.6027 0.96048 0.80642 0.0
C281 C 0.63346 0.95655 0.79919 0.0
C282 C 0.60787 0.88968 0.81198 0.0
C283 C 0.63579 0.92243 0.80173 0.0
C284 C 0.57653 0.89332 0.8188 0.0
C285 C 0.57417 0.92756 0.81618 0.0
U286 U 0.60324 0.06089 0.78991 0.0
O287 O 0.57405 0.08908 0.80472 0.0
O288 O 0.6359 0.11755 0.80463 0.0
C289 C 0.60577 0.12034 0.8095 0.0
C290 C 0.60265 0.99937 0.80641 0.0
C291 C 0.60804 0.16035 0.80963 0.0
C292 C 0.57817 0.20219 0.81302 0.0
C293 C 0.57537 0.16537 0.81042 0.0
C294 C 0.64625 0.23098 0.81464 0.0
C295 C 0.61386 0.23655 0.81518 0.0
C296 C 0.64344 0.1945 0.81196 0.0
C297 C 0.60095 0.05818 0.73089 0.0
C298 C 0.58342 0.06757 0.69831 0.0
C299 C 0.62146 1.03695 0.70256 0.0
C300 C 0.62065 1.041 0.72272 0.0
C301 C 0.60318 0.05058 0.68996 0.0
C302 C 0.5822 0.07111 0.71838 0.0
C303 C 0.60166 0.06622 0.75199 0.0
O304 O 0.63366 1.03138 0.80171 0.0
O305 O 0.57167 1.00145 0.80246 0.0
O306 O 0.57049 0.0493 0.7625 0.0
O307 O 0.63338 0.07833 0.76199 0.0
H308 H 0.65657 0.98039 0.79174 0.0
H309 H 0.66024 0.92218 0.79551 0.0
H310 H 0.55407 0.87002 0.82683 0.0
H311 H 0.5501 0.9286 0.82245 0.0
H312 H 0.55199 0.20355 0.81329 0.0
H313 H 0.54716 0.14052 0.80931 0.0
H314 H 0.67464 0.25493 0.81682 0.0
H315 H 0.66961 0.19306 0.81223 0.0
H316 H 0.56852 0.07798 0.68931 0.0
H317 H 0.63722 1.02391 0.69681 0.0
H318 H 0.63575 1.03108 0.73189 0.0
H319 H 0.56702 0.08477 0.72415 0.0
C320 C 0.6849 0.53966 0.14218 0.0
C321 C 0.6838 0.50435 0.14507 0.0
C322 C 0.75529 0.53348 0.14806 0.0
C323 C 0.71747 0.50135 0.14792 0.0
C324 C 0.75646 0.56905 0.14513 0.0
C325 C 0.72244 0.57204 0.14239 0.0
U326 U 0.58935 0.54674 0.12446 0.0
O327 O 0.52987 0.51469 0.13686 0.0
O328 O 0.56194 0.57625 0.13936 0.0
C329 C 0.52904 0.54523 0.14282 0.0
C330 C 0.64722 0.54218 0.14223 0.0
C331 C 0.49084 0.54676 0.14314 0.0
C332 C 0.42227 0.51915 0.15362 0.0
C333 C 0.45623 0.51633 0.15073 0.0
C334 C 0.4552 0.58286 0.14132 0.0
C335 C 0.42062 0.55282 0.14931 0.0
C336 C 0.48903 0.58006 0.1385 0.0
C337 C 0.59349 0.55496 0.06493 0.0
C338 C 0.59025 0.52679 0.03317 0.0
C339 C 0.60034 0.59081 0.03525 0.0
C340 C 0.59965 0.58845 0.05549 0.0
C341 C 0.59535 0.55994 0.02369 0.0
C342 C 0.58901 0.52425 0.05344 0.0
C343 C 0.59202 0.55215 0.08655 0.0
O344 O 0.64745 0.57434 0.13853 0.0
O345 O 0.61444 0.51266 0.13695 0.0
O346 O 0.5755 0.51929 0.0957 0.0
O347 O 0.60669 0.5822 0.09787 0.0
H348 H 0.65631 0.47843 0.14572 0.0
H349 H 0.71307 0.47308 0.15062 0.0
H350 H 0.78386 0.59506 0.14497 0.0
H351 H 0.72569 0.60019 0.14076 0.0
H352 H 0.39752 0.49495 0.15987 0.0
H353 H 0.4556 0.4902 0.15502 0.0
H354 H 0.45662 0.60934 0.13711 0.0
H355 H 0.51427 0.60469 0.13289 0.0
H356 H 0.58613 0.50233 0.02492 0.0
H357 H 0.60484 0.61705 0.02863 0.0
H358 H 0.60346 0.61282 0.06375 0.0
H359 H 0.5845 0.49808 0.06015 0.0
H360 H 0.19242 0.4958 0.16807 0.0
H361 H 0.23413 0.61715 0.17372 0.0
H362 H 0.30002 0.62992 0.16832 0.0
H363 H 0.27496 0.49604 0.19177 0.0
H364 H 0.27582 0.46122 0.17592 0.0
H365 H 0.23146 0.46076 0.18034 0.0
H366 H 0.22243 0.46533 0.14389 0.0
H367 H 0.26677 0.46581 0.13937 0.0
H368 H 0.25972 0.50377 0.13027 0.0
H369 H 0.36428 0.63064 0.16221 0.0
H370 H 0.41802 0.61978 0.15612 0.0
H371 H 0.33921 0.49774 0.15332 0.0
C372 C 0.21532 0.52516 0.16826 0.0
C373 C 0.20651 0.5554 0.17153 0.0
C374 C 0.23855 0.59308 0.17141 0.0
C375 C 0.27672 0.60074 0.16829 0.0
C376 C 0.28422 0.57068 0.16513 0.0
C377 C 0.25432 0.53348 0.16509 0.0
C378 C 0.27081 0.50659 0.16121 0.0
C379 C 0.26277 0.47953 0.17832 0.0
C380 C 0.25391 0.48402 0.14258 0.0
C381 C 0.31437 0.53428 0.15905 0.0
C382 C 0.32117 0.57114 0.16141 0.0
C383 C 0.35872 0.60174 0.1602 0.0
C384 C 0.38969 0.59507 0.15645 0.0
C385 C 0.38474 0.55779 0.15362 0.0
C386 C 0.34557 0.52691 0.15522 0.0
H387 H 0.71416 0.22198 0.49907 0.0
H388 H 0.75816 0.14489 0.50986 0.0
H389 H 0.82382 0.19784 0.50472 0.0
H390 H 0.78226 0.27793 0.46171 0.0
H391 H 0.78986 0.324 0.46886 0.0
H392 H 0.74493 0.28168 0.47405 0.0
H393 H 0.75137 0.29636 0.50999 0.0
H394 H 0.79569 0.34016 0.50569 0.0
H395 H 0.7943 0.3057 0.52262 0.0
H396 H 0.88789 0.26112 0.49815 0.0
H397 H 0.9411 0.32514 0.49137 0.0
H398 H 0.86054 0.36635 0.484 0.0
C399 C 0.7375 0.21602 0.50045 0.0
C400 C 0.72928 0.17763 0.50509 0.0
C401 C 0.76199 0.17278 0.50649 0.0
C402 C 0.80009 0.20325 0.50351 0.0
C403 C 0.80701 0.2401 0.49897 0.0
C404 C 0.77652 0.24671 0.49747 0.0
C405 C 0.79252 0.28949 0.4925 0.0
C406 C 0.77639 0.29352 0.47314 0.0
C407 C 0.78288 0.30914 0.50864 0.0
C408 C 0.83642 0.30578 0.49124 0.0
C409 C 0.84384 0.27643 0.4951 0.0
C410 C 0.8818 0.28386 0.49498 0.0
C411 C 0.91251 0.32119 0.49082 0.0
C412 C 0.90701 0.35284 0.48651 0.0
C413 C 0.86739 0.34409 0.48702 0.0
H414 H 0.55397 0.66316 0.83494 0.0
H415 H 0.67641 0.70602 0.8331 0.0
H416 H 0.68729 0.77043 0.8266 0.0
H417 H 0.55172 0.72597 0.79684 0.0
H418 H 0.51672 0.73471 0.80833 0.0
H419 H 0.51711 0.6909 0.81297 0.0
H420 H 0.52261 0.70473 0.84934 0.0
H421 H 0.52221 0.74858 0.8448 0.0
H422 H 0.56097 0.74933 0.85823 0.0
H423 H 0.68688 0.83303 0.82002 0.0
H424 H 0.67534 0.88638 0.81444 0.0
H425 H 0.55304 0.80922 0.81978 0.0
C426 C 0.58316 0.686 0.83322 0.0
C427 C 0.61429 0.67773 0.83474 0.0
C428 C 0.65163 0.70981 0.83224 0.0
C429 C 0.65829 0.74726 0.82844 0.0
C430 C 0.62757 0.7543 0.82706 0.0
C431 C 0.59057 0.72459 0.82943 0.0
C432 C 0.56306 0.74106 0.82727 0.0
C433 C 0.5355 0.72201 0.81035 0.0
C434 C 0.54087 0.73558 0.84602 0.0
C435 C 0.59024 0.78418 0.8232 0.0
C436 C 0.62735 0.79075 0.82319 0.0
C437 C 0.65774 0.82772 0.81989 0.0
C438 C 0.65063 0.85845 0.81645 0.0
C439 C 0.61307 0.85385 0.81605 0.0
C440 C 0.5824 0.81524 0.81976 0.0
H441 H 0.98086 0.58935 0.17509 0.0
H442 H 0.94572 0.47104 0.16347 0.0
H443 H 0.88077 0.4587 0.15558 0.0
H444 H 0.88929 0.57026 0.19713 0.0
H445 H 0.88995 0.61176 0.187 0.0
H446 H 0.93428 0.61219 0.19164 0.0
H447 H 0.95401 0.63002 0.15624 0.0
H448 H 0.90969 0.62955 0.15149 0.0
H449 H 0.92264 0.60028 0.13739 0.0
H450 H 0.81741 0.45837 0.14795 0.0
H451 H 0.76347 0.46902 0.14242 0.0
H452 H 0.83368 0.58722 0.16008 0.0
C453 C 0.95959 0.56072 0.17094 0.0
C454 C 0.97007 0.53122 0.16991 0.0
C455 C 0.94005 0.4945 0.16435 0.0
C456 C 0.90242 0.48709 0.15984 0.0
C457 C 0.89331 0.51643 0.16089 0.0
C458 C 0.92103 0.55262 0.16642 0.0
C459 C 0.9029 0.57877 0.16645 0.0
C460 C 0.9042 0.59418 0.18677 0.0
C461 C 0.92355 0.61162 0.15204 0.0
C462 C 0.86098 0.55184 0.16005 0.0
C463 C 0.85645 0.51602 0.15691 0.0
C464 C 0.82098 0.48637 0.15067 0.0
C465 C 0.78964 0.49287 0.14772 0.0
C466 C 0.79191 0.52893 0.15107 0.0
C467 C 0.82926 0.55897 0.15726 0.0
H468 H 0.50619 0.91714 0.50482 0.0
H469 H 0.46696 0.99845 0.49525 0.0
H470 H 0.40201 0.94532 0.4887 0.0
H471 H 0.44538 0.84759 0.46798 0.0
H472 H 0.43483 0.80582 0.48195 0.0
H473 H 0.47894 0.84982 0.48588 0.0
H474 H 0.46251 0.84775 0.52177 0.0
H475 H 0.41836 0.80371 0.51798 0.0
H476 H 0.41759 0.84402 0.52861 0.0
H477 H 0.33888 0.88197 0.48204 0.0
H478 H 0.28536 0.81747 0.47747 0.0
H479 H 0.35917 0.77109 0.49244 0.0
C480 C 0.48404 0.924 0.50136 0.0
C481 C 0.4934 0.96367 0.50069 0.0
C482 C 0.46221 0.96962 0.49605 0.0
C483 C 0.42455 0.93905 0.49221 0.0
C484 C 0.4165 0.90097 0.49298 0.0
C485 C 0.44539 0.89318 0.49757 0.0
C486 C 0.42815 0.84912 0.49762 0.0
C487 C 0.44802 0.83739 0.48246 0.0
C488 C 0.43189 0.83533 0.51769 0.0
C489 C 0.38538 0.83348 0.49231 0.0
C490 C 0.37973 0.86431 0.48966 0.0
C491 C 0.34337 0.85795 0.48441 0.0
C492 C 0.31227 0.82012 0.48201 0.0
C493 C 0.31558 0.78674 0.48493 0.0
C494 C 0.35387 0.79457 0.49005 0.0
H495 H 0.56319 0.41017 0.84269 0.0
H496 H 0.67993 0.48934 0.82551 0.0
H497 H 0.68966 0.43548 0.81777 0.0
H498 H 0.58559 0.33922 0.86455 0.0
H499 H 0.54219 0.29787 0.85661 0.0
H500 H 0.54283 0.34228 0.86079 0.0
H501 H 0.51849 0.3405 0.82627 0.0
H502 H 0.51785 0.29612 0.82199 0.0
H503 H 0.54456 0.33631 0.80629 0.0
H504 H 0.68801 0.37234 0.81053 0.0
H505 H 0.67651 0.30749 0.80615 0.0
H506 H 0.56178 0.26255 0.82907 0.0
C507 C 0.59088 0.41636 0.8373 0.0
C508 C 0.62075 0.45571 0.83487 0.0
C509 C 0.6562 0.46079 0.82777 0.0
C510 C 0.66215 0.42982 0.82319 0.0
C511 C 0.63268 0.3921 0.8257 0.0
C512 C 0.59766 0.385 0.83274 0.0
C513 C 0.57142 0.34103 0.83431 0.0
C514 C 0.5598 0.3294 0.85532 0.0
C515 C 0.53595 0.3277 0.82145 0.0
C516 C 0.59698 0.32483 0.82697 0.0
C517 C 0.63217 0.35528 0.82207 0.0
C518 C 0.66061 0.34856 0.81467 0.0
C519 C 0.65369 0.31063 0.8124 0.0
C520 C 0.61842 0.27767 0.81759 0.0
C521 C 0.58943 0.28582 0.82488 0.0
H522 H 0.60657 0.83367 0.49561 0.0
H523 H 0.57238 0.84402 0.55326 0.0
H524 H 0.55021 0.77576 0.5591 0.0
H525 H 0.52956 0.73021 0.48711 0.0
H526 H 0.5631 0.72085 0.4745 0.0
H527 H 0.56744 0.76749 0.47321 0.0
H528 H 0.63754 0.79797 0.48525 0.0
H529 H 0.63342 0.75166 0.48658 0.0
H530 H 0.6475 0.78173 0.50757 0.0
H531 H 0.54419 0.71198 0.5609 0.0
H532 H 0.55787 0.65918 0.5593 0.0
H533 H 0.59329 0.68793 0.49988 0.0
C534 C 0.59298 0.82108 0.50917 0.0
C535 C 0.59083 0.84378 0.52395 0.0
C536 C 0.57422 0.82692 0.54178 0.0
C537 C 0.5612 0.78815 0.54513 0.0
C538 C 0.56479 0.76669 0.53045 0.0
C539 C 0.5801 0.78252 0.51276 0.0
C540 C 0.58634 0.75517 0.5005 0.0
C541 C 0.56002 0.74268 0.48278 0.0
C542 C 0.62869 0.77268 0.49465 0.0
C543 C 0.5745 0.72249 0.51451 0.0
C544 C 0.56117 0.72925 0.5315 0.0
C545 C 0.55345 0.70572 0.54748 0.0
C546 C 0.56115 0.67554 0.54638 0.0
C547 C 0.57663 0.66923 0.52942 0.0
C548 C 0.5815 0.69197 0.51304 0.0
H549 H 0.81602 0.54404 0.80981 0.0
H550 H 0.89205 0.66435 0.8211 0.0
H551 H 0.94696 0.65362 0.82112 0.0
H552 H 0.8513 0.5136 0.84316 0.0
H553 H 0.84724 0.47225 0.83109 0.0
H554 H 0.81627 0.49044 0.82439 0.0
H555 H 0.83883 0.49731 0.78907 0.0
H556 H 0.86981 0.47863 0.79563 0.0
H557 H 0.88919 0.5241 0.78362 0.0
H558 H 0.98952 0.62863 0.82938 0.0
H559 H 1.01603 0.59144 0.84464 0.0
H560 H 0.91286 0.48647 0.83009 0.0
C561 C 0.8444 0.56834 0.81164 0.0
C562 C 0.84961 0.60498 0.81552 0.0
C563 C 0.8872 0.63609 0.81776 0.0
C564 C 0.91871 0.63024 0.81783 0.0
C565 C 0.91225 0.5932 0.81552 0.0
C566 C 0.87599 0.56274 0.81219 0.0
C567 C 0.87536 0.52501 0.81402 0.0
C568 C 0.84584 0.49885 0.82907 0.0
C569 C 0.86787 0.5051 0.79441 0.0
C570 C 0.91599 0.53886 0.82067 0.0
C571 C 0.93719 0.57832 0.82073 0.0
C572 C 0.97367 0.59777 0.82884 0.0
C573 C 0.98836 0.57648 0.83763 0.0
C574 C 0.96644 0.5362 0.8384 0.0
C575 C 0.9305 0.51721 0.82919 0.0
H576 H 0.32173 0.77899 0.19215 0.0
H577 H 0.25801 0.81641 0.15646 0.0
H578 H 0.31015 0.88296 0.15942 0.0
H579 H 0.34703 0.8449 0.22526 0.0
H580 H 0.39458 0.85325 0.23022 0.0
H581 H 0.35914 0.80818 0.22062 0.0
H582 H 0.40318 0.8159 0.19189 0.0
H583 H 0.43936 0.8609 0.2016 0.0
H584 H 0.4225 0.85845 0.17733 0.0
H585 H 0.35958 0.9448 0.17272 0.0
H586 H 0.4043 0.99691 0.19389 0.0
H587 H 0.43661 0.92002 0.22105 0.0
C588 C 0.31956 0.80112 0.18436 0.0
C589 C 0.28605 0.7927 0.17405 0.0
C590 C 0.28378 0.82223 0.16416 0.0
C591 C 0.31325 0.86014 0.16579 0.0
C592 C 0.34493 0.86784 0.17711 0.0
C593 C 0.34865 0.83904 0.18591 0.0
C594 C 0.38239 0.855 0.19957 0.0
C595 C 0.37001 0.83942 0.22012 0.0
C596 C 0.41372 0.8471 0.19215 0.0
C597 C 0.39498 0.89699 0.19833 0.0
C598 C 0.37378 0.90398 0.18489 0.0
C599 C 0.37724 0.93993 0.18282 0.0
C600 C 0.40266 0.96934 0.19494 0.0
C601 C 0.42395 0.96247 0.20908 0.0
C602 C 0.42065 0.92606 0.21039 0.0
H603 H 0.69311 0.30242 0.49279 0.0
H604 H 0.58762 0.29383 0.47184 0.0
H605 H 0.61891 0.36401 0.47036 0.0
H606 H 0.70897 0.36669 0.52577 0.0
H607 H 0.76048 0.39227 0.52418 0.0
H608 H 0.73409 0.34345 0.51686 0.0
H609 H 0.7667 0.36376 0.4827 0.0
H610 H 0.79267 0.41239 0.4911 0.0
H611 H 0.7639 0.40079 0.46961 0.0
H612 H 0.6535 0.43138 0.48024 0.0
H613 H 0.68594 0.48738 0.50124 0.0
H614 H 0.76955 0.45401 0.51692 0.0
C615 C 0.6771 0.31542 0.48721 0.0
C616 C 0.63798 0.29283 0.48251 0.0
C617 C 0.61779 0.3106 0.47527 0.0
C618 C 0.63542 0.35052 0.47439 0.0
C619 C 0.6733 0.37216 0.4806 0.0
C620 C 0.69408 0.35512 0.48667 0.0
C621 C 0.73101 0.38356 0.4964 0.0
C622 C 0.73376 0.37074 0.51699 0.0
C623 C 0.76566 0.39058 0.48424 0.0
C624 C 0.72616 0.41837 0.49654 0.0
C625 C 0.69351 0.41176 0.48665 0.0
C626 C 0.67979 0.43738 0.48744 0.0
C627 C 0.69857 0.46932 0.49942 0.0
C628 C 0.73042 0.47507 0.51067 0.0
C629 C 0.74552 0.45043 0.50831 0.0
H630 H 0.35228 0.51912 0.86111 0.0
H631 H 0.32881 0.42404 0.82376 0.0
H632 H 0.25971 0.39643 0.82967 0.0
H633 H 0.29231 0.46708 0.8962 0.0
H634 H 0.27604 0.4999 0.90271 0.0
H635 H 0.32214 0.51751 0.89179 0.0
H636 H 0.30366 0.54949 0.86463 0.0
H637 H 0.25752 0.53251 0.87565 0.0
H638 H 0.26059 0.52135 0.85089 0.0
H639 H 0.1949 0.37335 0.84421 0.0
H640 H 0.14005 0.35792 0.86572 0.0
H641 H 0.20684 0.46659 0.89448 0.0
C642 C 0.33249 0.49306 0.85375 0.0
C643 C 0.34587 0.4738 0.84195 0.0
C644 C 0.31917 0.43967 0.83259 0.0
C645 C 0.27983 0.42369 0.83591 0.0
C646 C 0.26772 0.44238 0.84846 0.0
C647 C 0.29328 0.47665 0.85702 0.0
C648 C 0.27381 0.48861 0.87177 0.0
C649 C 0.29216 0.49352 0.89179 0.0
C650 C 0.27389 0.52515 0.86534 0.0
C651 C 0.23394 0.45452 0.87111 0.0
C652 C 0.23059 0.42861 0.85722 0.0
C653 C 0.19698 0.39374 0.85489 0.0
C654 C 0.16612 0.38511 0.86717 0.0
C655 C 0.16963 0.41094 0.88178 0.0
C656 C 0.20369 0.44624 0.8835 0.0
H657 H 0.87176 0.3913 0.18605 0.0
H658 H 0.86687 0.36171 0.12594 0.0
H659 H 0.79848 0.34412 0.12486 0.0
H660 H 0.79109 0.3161 0.19951 0.0
H661 H 0.77632 0.33977 0.2166 0.0
H662 H 0.82596 0.35972 0.21095 0.0
H663 H 0.82928 0.42356 0.20127 0.0
H664 H 0.77917 0.40337 0.20686 0.0
H665 H 0.79669 0.4235 0.18343 0.0
H666 H 0.72904 0.31759 0.13216 0.0
H667 H 0.66572 0.28037 0.14728 0.0
H668 H 0.71664 0.32537 0.20298 0.0
C669 C 0.85638 0.38179 0.17256 0.0
C670 C 0.87412 0.37727 0.15615 0.0
C671 C 0.85357 0.36531 0.13866 0.0
C672 C 0.81489 0.35561 0.13791 0.0
C673 C 0.79769 0.35892 0.15465 0.0
C674 C 0.81805 0.37214 0.17162 0.0
C675 C 0.79224 0.36765 0.18831 0.0
C676 C 0.79665 0.3444 0.20478 0.0
C677 C 0.79979 0.40685 0.19538 0.0
C678 C 0.75367 0.34614 0.17855 0.0
C679 C 0.75739 0.34296 0.15898 0.0
C680 C 0.7258 0.32051 0.14739 0.0
C681 C 0.68994 0.29916 0.15616 0.0
C682 C 0.68619 0.29954 0.1764 0.0
C683 C 0.71818 0.32499 0.18747 0.0
H684 H 1.05242 0.56793 0.11292 0.0
H685 H 0.09378 0.49185 0.13112 0.0
H686 H 0.07125 0.45649 0.10055 0.0
H687 H 0.96861 0.49878 0.08674 0.0
H688 H 0.97436 0.53162 0.06771 0.0
H689 H 0.99108 0.54921 0.09161 0.0
H690 H 1.05905 0.59452 0.07838 0.0
H691 H 1.04247 0.5774 0.05445 0.0
H692 H 0.08281 0.57508 0.06425 0.0
H693 H 1.04438 0.4297 0.06806 0.0
H694 H 1.02174 0.41741 0.03452 0.0
H695 H 1.00314 0.51468 0.03644 0.0
C696 C 1.05658 0.54372 0.11048 0.0
C697 C 0.07411 0.53204 0.12449 0.0
C698 C 0.07963 0.50067 0.12072 0.0
C699 C 0.06697 0.48047 0.10341 0.0
C700 C 1.04937 0.49243 0.08996 0.0
C701 C 1.04468 0.52365 0.09316 0.0
C702 C 1.02725 0.53217 0.07584 0.0
C703 C 0.98799 0.52767 0.08078 0.0
C704 C 1.05453 0.57216 0.06775 0.0
C705 C 1.02328 0.50111 0.0623 0.0
C706 C 1.03559 0.47812 0.07085 0.0
C707 C 1.03493 0.44767 0.06116 0.0
C708 C 1.02224 0.44111 0.04205 0.0
C709 C 1.01101 0.46531 0.03266 0.0
C710 C 1.01099 0.49528 0.04315 0.0
H711 H 0.60191 0.04195 0.43709 0.0
H712 H 0.6241 0.1421 0.4701 0.0
H713 H 0.62548 0.17568 0.44043 0.0
H714 H 0.66498 0.09348 0.39859 0.0
H715 H 0.63498 0.06186 0.37989 0.0
H716 H 0.63264 0.04387 0.40386 0.0
H717 H 0.55968 1.01904 0.40478 0.0
H718 H 0.56176 1.03679 0.38076 0.0
H719 H 0.54209 0.05157 0.39997 0.0
H720 H 0.62746 0.19991 0.40767 0.0
H721 H 0.6288 0.21321 0.37303 0.0
H722 H 0.60777 0.09902 0.36032 0.0
C723 C 0.6065 0.07071 0.438 0.0
C724 C 0.61247 0.08924 0.45591 0.0
C725 C 0.61905 0.12715 0.45657 0.0
C726 C 0.62 0.14659 0.43978 0.0
C727 C 0.61459 0.1279 0.42234 0.0
C728 C 0.60793 0.09087 0.42123 0.0
C729 C 0.60466 0.07833 0.40044 0.0
C730 C 0.6362 0.06884 0.3954 0.0
C731 C 0.56466 0.04442 0.39624 0.0
C732 C 0.6108 0.11421 0.39018 0.0
C733 C 0.61635 0.14232 0.40316 0.0
C734 C 0.62315 0.17817 0.39731 0.0
C735 C 0.6242 0.18556 0.3776 0.0
C736 C 0.61862 0.15729 0.36393 0.0
C737 C 0.61179 0.12112 0.3704 0.0
H738 H 0.60186 0.60375 0.77641 0.0
H739 H 0.6591 0.54189 0.79481 0.0
H740 H 0.68358 0.54582 0.76188 0.0
H741 H 0.57149 0.56115 0.73148 0.0
H742 H 0.58005 0.60391 0.71902 0.0
H743 H 0.56969 0.59898 0.74433 0.0
H744 H 0.63265 0.66209 0.75097 0.0
H745 H 0.64314 0.66736 0.72563 0.0
H746 H 0.67739 0.66761 0.74248 0.0
H747 H 0.69626 0.55093 0.7263 0.0
H748 H 0.6984 0.55913 0.69108 0.0
H749 H 0.63624 0.62115 0.69641 0.0
C750 C 0.61994 0.59148 0.77352 0.0
C751 C 0.62849 0.57238 0.78803 0.0
C752 C 0.65227 0.55668 0.78382 0.0
C753 C 0.66632 0.55879 0.76519 0.0
C754 C 0.65684 0.57727 0.75108 0.0
C755 C 0.63463 0.59379 0.75508 0.0
C756 C 0.62772 0.61105 0.73724 0.0
C757 C 0.58469 0.59265 0.73276 0.0
C758 C 0.64634 0.65462 0.7392 0.0
C759 C 0.64821 0.60033 0.72244 0.0
C760 C 0.66508 0.58113 0.7307 0.0
C761 C 0.68378 0.56656 0.7197 0.0
C762 C 0.68501 0.57153 0.6997 0.0
C763 C 0.6676 0.59089 0.69091 0.0
C764 C 0.64955 0.60592 0.70259 0.0
H765 H 0.61656 0.11734 0.57932 0.0
H766 H 0.59866 1.00667 0.56176 0.0
H767 H 0.59645 0.98849 0.5961 0.0
H768 H 0.67599 0.13025 0.62075 0.0
H769 H 0.65517 0.15258 0.63496 0.0
H770 H 0.65636 0.1568 0.60916 0.0
H771 H 0.58296 0.1291 0.60852 0.0
H772 H 0.58154 0.12479 0.63431 0.0
H773 H 0.55232 0.08357 0.61968 0.0
H774 H 0.5971 0.98323 0.6334 0.0
H775 H 0.59695 0.98984 0.66875 0.0
H776 H 0.61206 0.10333 0.66169 0.0
C777 C 0.61231 0.08926 0.58263 0.0
C778 C 0.60797 0.06349 0.56765 0.0
C779 C 0.60212 1.02697 0.57282 0.0
C780 C 0.60088 1.01645 0.59236 0.0
C781 C 0.60516 0.04257 0.60674 0.0
C782 C 0.6105 0.07817 0.60202 0.0
C783 C 0.61328 0.10077 0.62003 0.0
C784 C 0.65254 0.13726 0.62129 0.0
C785 C 0.58058 0.1101 0.62067 0.0
C786 C 0.60879 0.07253 0.63573 0.0
C787 C 0.60444 1.03919 0.62782 0.0
C788 C 0.60041 1.00926 0.6396 0.0
C789 C 0.60058 1.01338 0.65978 0.0
C790 C 0.60438 0.04705 0.66831 0.0
C791 C 0.6086 0.07695 0.65587 0.0
H792 H 0.6398 0.53658 0.91227 0.0
H793 H 0.57108 0.58786 0.89621 0.0
H794 H 0.55767 0.5918 0.9306 0.0
H795 H 0.57939 0.47974 0.95246 0.0
H796 H 0.61938 0.48644 0.96704 0.0
H797 H 0.62272 0.48677 0.94122 0.0
H798 H 0.68357 0.55325 0.94257 0.0
H799 H 0.68034 0.55317 0.96837 0.0
H800 H 0.68192 0.59188 0.95464 0.0
H801 H 0.55437 0.59322 0.96713 0.0
H802 H 0.55828 0.58901 1.00235 0.0
H803 H 0.62778 0.53508 0.99546 0.0
C804 C 0.62163 0.54836 0.91597 0.0
C805 C 0.60652 0.56197 0.90135 0.0
C806 C 0.58294 0.57716 0.90696 0.0
C807 C 0.57525 0.57958 0.92654 0.0
C808 C 0.59097 0.5664 0.94055 0.0
C809 C 0.61339 0.55071 0.9355 0.0
C810 C 0.62686 0.5387 0.95341 0.0
C811 C 0.61115 0.49534 0.95354 0.0
C812 C 0.67078 0.56056 0.95483 0.0
C813 C 0.60895 0.55053 0.96937 0.0
C814 C 0.58847 0.56655 0.96157 0.0
C815 C 0.57023 0.58059 0.97331 0.0
C816 C 0.57286 0.57829 0.99342 0.0
C817 C 0.59343 0.56187 1.00198 0.0
C818 C 0.61152 0.54756 0.98958 0.0
H819 H 0.12234 0.52157 0.24727 0.0
H820 H 1.04751 0.56592 0.23126 0.0
H821 H 1.03917 0.57572 0.26558 0.0
H822 H 0.07293 0.47218 0.29029 0.0
H823 H 0.11568 0.48462 0.30394 0.0
H824 H 0.11608 0.48097 0.27816 0.0
H825 H 0.17311 0.5499 0.27614 0.0
H826 H 0.17307 0.55365 0.30194 0.0
H827 H 0.16919 0.58827 0.28709 0.0
H828 H 1.03592 0.57743 0.30194 0.0
H829 H 1.04259 0.57709 0.33697 0.0
H830 H 0.12374 0.53638 0.33043 0.0
C831 C 0.10434 0.53352 0.25099 0.0
C832 C 0.08542 0.54281 0.23638 0.0
C833 C 1.06233 0.55856 0.242 0.0
C834 C 1.05731 0.56411 0.26155 0.0
C835 C 0.07592 0.55429 0.27555 0.0
C836 C 0.09945 0.53983 0.27054 0.0
C837 C 0.11683 0.53257 0.28853 0.0
C838 C 0.10465 0.49005 0.29033 0.0
C839 C 0.16065 0.55759 0.28842 0.0
C840 C 0.0991 0.54477 0.30442 0.0
C841 C 0.07539 0.55692 0.29654 0.0
C842 C 1.055 0.56861 0.30818 0.0
C843 C 1.05933 0.56861 0.32827 0.0
C844 C 0.08444 0.55758 0.337 0.0
C845 C 0.10422 0.54504 0.32462 0.0
loop_
_geom_bond_atom_site_label_1
_geom_bond_atom_site_label_2
_geom_bond_distance
_geom_bond_site_symmetry_2
_ccdc_geom_bond_type
C0 Eu1 2.854 . S
C0 C2 1.500 . S
C0 O20 1.257 . S
C0 O21 1.260 . S
Eu1 C0 2.854 . S
Eu1 O20 2.492 . S
Eu1 O21 2.496 . S
Eu1 O22 2.431 1_655 S
Eu1 O23 2.668 1_655 S
Eu1 O24 2.420 . S
Eu1 O29 2.360 1_655 S
Eu1 O31 2.348 1_655 S
C2 C0 1.500 . S
C2 C3 1.377 . S
C2 C7 1.377 . S
C3 C2 1.377 . S
C3 C4 1.395 . S
C3 H32 0.931 . S
C4 C3 1.395 . S
C4 C5 1.383 . S
C4 H33 0.931 . S
C5 C4 1.383 . S
C5 C6 1.394 . S
C6 C5 1.394 . S
C6 C7 1.378 . S
C6 H34 0.931 . S
C7 C2 1.377 . S
C7 C6 1.378 . S
C7 H35 0.931 . S
C8 O22 1.259 . S
C8 O23 1.270 . S
C9 O24 1.251 . S
C9 O25 1.251 . S
C10 Eu11 2.835 . S
C10 C12 1.500 . S
C10 O26 1.257 . S
C10 O27 1.260 . S
Eu11 C10 2.835 . S
Eu11 O23 2.355 . S
Eu11 O25 2.374 1_455 S
Eu11 O26 2.473 . S
Eu11 O27 2.480 . S
Eu11 O28 2.430 . S
Eu11 O29 2.670 . S
Eu11 O30 2.394 . S
C12 C10 1.500 . S
C12 C13 1.377 . S
C12 C17 1.377 . S
C13 C12 1.377 . S
C13 C14 1.395 . S
C13 H36 0.931 . S
C14 C13 1.395 . S
C14 C15 1.383 . S
C14 H37 0.931 . S
C15 C14 1.383 . S
C15 C16 1.394 . S
C16 C15 1.394 . S
C16 C17 1.378 . S
C16 H38 0.931 . S
C17 C12 1.377 . S
C17 C16 1.378 . S
C17 H39 0.931 . S
C18 O28 1.259 . S
C18 O29 1.270 . S
C19 O30 1.251 . S
C19 O31 1.251 . S
O20 C0 1.257 . S
O20 Eu1 2.492 . S
O21 C0 1.260 . S
O21 Eu1 2.496 . S
O22 Eu1 2.431 1_455 S
O22 C8 1.259 . S
O23 Eu1 2.668 1_455 S
O23 C8 1.270 . S
O23 Eu11 2.355 . S
O24 Eu1 2.420 . S
O24 C9 1.251 . S
O25 C9 1.251 . S
O25 Eu11 2.374 1_655 S
O26 C10 1.257 . S
O26 Eu11 2.473 . S
O27 C10 1.260 . S
O27 Eu11 2.480 . S
O28 Eu11 2.430 . S
O28 C18 1.259 . S
O29 Eu1 2.360 1_455 S
O29 Eu11 2.670 . S
O29 C18 1.270 . S
O30 Eu11 2.394 . S
O30 C19 1.251 . S
O31 Eu1 2.348 1_455 S
O31 C19 1.251 . S
H32 C3 0.931 . S
H33 C4 0.931 . S
H34 C6 0.931 . S
H35 C7 0.931 . S
H36 C13 0.931 . S
H37 C14 0.931 . S
H38 C16 0.931 . S
H39 C17 0.931 . S
C40 Eu41 2.835 . S
C40 C42 1.500 . S
C40 O60 1.257 . S
C40 O61 1.260 . S
Eu41 C40 2.835 . S
Eu41 O60 2.473 . S
Eu41 O61 2.480 . S
Eu41 O62 2.430 . S
Eu41 O63 2.670 . S
Eu41 O64 2.394 . S
Eu41 O69 2.355 . S
Eu41 O71 2.374 1_545 S
C42 C40 1.500 . S
C42 C43 1.377 . S
C42 C47 1.377 . S
C43 C42 1.377 . S
C43 C44 1.395 . S
C43 H72 0.931 . S
C44 C43 1.395 . S
C44 C45 1.383 . S
C44 H73 0.931 . S
C45 C44 1.383 . S
C45 C46 1.394 . S
C46 C45 1.394 . S
C46 C47 1.378 . S
C46 H74 0.931 . S
C47 C42 1.377 . S
C47 C46 1.378 . S
C47 H75 0.931 . S
C48 O62 1.259 . S
C48 O63 1.270 . S
C49 O64 1.251 . S
C49 O65 1.251 . S
C50 Eu51 2.835 1_565 S
C50 C52 1.500 . S
C50 O66 1.257 . S
C50 O67 1.260 . S
Eu51 C50 2.835 1_545 S
Eu51 O63 2.355 . S
Eu51 O65 2.374 . S
Eu51 O66 2.473 1_545 S
Eu51 O67 2.480 1_545 S
Eu51 O68 2.430 . S
Eu51 O69 2.670 . S
Eu51 O70 2.394 1_545 S
C52 C50 1.500 . S
C52 C53 1.377 . S
C52 C57 1.377 . S
C53 C52 1.377 . S
C53 C54 1.395 . S
C53 H76 0.931 . S
C54 C53 1.395 . S
C54 C55 1.383 . S
C54 H77 0.931 . S
C55 C54 1.383 . S
C55 C56 1.394 . S
C56 C55 1.394 . S
C56 C57 1.378 . S
C56 H78 0.931 . S
C57 C52 1.377 . S
C57 C56 1.378 . S
C57 H79 0.931 . S
C58 O68 1.259 . S
C58 O69 1.270 . S
C59 O70 1.251 . S
C59 O71 1.251 . S
O60 C40 1.257 . S
O60 Eu41 2.473 . S
O61 C40 1.260 . S
O61 Eu41 2.480 . S
O62 Eu41 2.430 . S
O62 C48 1.259 . S
O63 Eu41 2.670 . S
O63 C48 1.270 . S
O63 Eu51 2.355 . S
O64 Eu41 2.394 . S
O64 C49 1.251 . S
O65 C49 1.251 . S
O65 Eu51 2.374 . S
O66 C50 1.257 . S
O66 Eu51 2.473 1_565 S
O67 C50 1.260 . S
O67 Eu51 2.480 1_565 S
O68 Eu51 2.430 . S
O68 C58 1.259 . S
O69 Eu41 2.355 . S
O69 Eu51 2.670 . S
O69 C58 1.270 . S
O70 Eu51 2.394 1_565 S
O70 C59 1.251 . S
O71 Eu41 2.374 1_565 S
O71 C59 1.251 . S
H72 C43 0.931 . S
H73 C44 0.931 . S
H74 C46 0.931 . S
H75 C47 0.931 . S
H76 C53 0.931 . S
H77 C54 0.931 . S
H78 C56 0.931 . S
H79 C57 0.931 . S
C80 Eu81 2.835 . S
C80 C82 1.500 . S
C80 O100 1.257 . S
C80 O101 1.260 . S
Eu81 C80 2.835 . S
Eu81 O100 2.473 . S
Eu81 O101 2.480 . S
Eu81 O102 2.430 . S
Eu81 O103 2.670 . S
Eu81 O104 2.394 . S
Eu81 O109 2.355 . S
Eu81 O111 2.374 . S
C82 C80 1.500 . S
C82 C83 1.377 . S
C82 C87 1.377 . S
C83 C82 1.377 . S
C83 C84 1.395 . S
C83 H112 0.931 . S
C84 C83 1.395 . S
C84 C85 1.383 . S
C84 H113 0.931 . S
C85 C84 1.383 . S
C85 C86 1.394 . S
C86 C85 1.394 . S
C86 C87 1.378 . S
C86 H114 0.931 . S
C87 C82 1.377 . S
C87 C86 1.378 . S
C87 H115 0.931 . S
C88 O102 1.259 . S
C88 O103 1.270 . S
C89 O104 1.251 . S
C89 O105 1.251 . S
C90 Eu91 2.835 . S
C90 C92 1.500 . S
C90 O106 1.257 . S
C90 O107 1.260 . S
Eu91 C90 2.835 . S
Eu91 O103 2.355 . S
Eu91 O105 2.374 . S
Eu91 O106 2.473 . S
Eu91 O107 2.480 . S
Eu91 O108 2.430 . S
Eu91 O109 2.670 . S
Eu91 O110 2.394 . S
C92 C90 1.500 . S
C92 C93 1.377 . S
C92 C97 1.377 . S
C93 C92 1.377 . S
C93 C94 1.395 . S
C93 H116 0.931 . S
C94 C93 1.395 . S
C94 C95 1.383 . S
C94 H117 0.931 . S
C95 C94 1.383 . S
C95 C96 1.394 . S
C96 C95 1.394 . S
C96 C97 1.378 . S
C96 H118 0.931 . S
C97 C92 1.377 . S
C97 C96 1.378 . S
C97 H119 0.931 . S
C98 O108 1.259 . S
C98 O109 1.270 . S
C99 O110 1.251 . S
C99 O111 1.251 . S
O100 C80 1.257 . S
O100 Eu81 2.473 . S
O101 C80 1.260 . S
O101 Eu81 2.480 . S
O102 Eu81 2.430 . S
O102 C88 1.259 . S
O103 Eu81 2.670 . S
O103 C88 1.270 . S
O103 Eu91 2.355 . S
O104 Eu81 2.394 . S
O104 C89 1.251 . S
O105 C89 1.251 . S
O105 Eu91 2.374 . S
O106 C90 1.257 . S
O106 Eu91 2.473 . S
O107 C90 1.260 . S
O107 Eu91 2.480 . S
O108 Eu91 2.430 . S
O108 C98 1.259 . S
O109 Eu81 2.355 . S
O109 Eu91 2.670 . S
O109 C98 1.270 . S
O110 Eu91 2.394 . S
O110 C99 1.251 . S
O111 Eu81 2.374 . S
O111 C99 1.251 . S
H112 C83 0.931 . S
H113 C84 0.931 . S
H114 C86 0.931 . S
H115 C87 0.931 . S
H116 C93 0.931 . S
H117 C94 0.931 . S
H118 C96 0.931 . S
H119 C97 0.931 . S
C120 C121 1.264 . S
C120 C125 1.479 . S
C120 C130 1.465 . S
C121 C120 1.264 . S
C121 C123 1.339 . S
C121 H148 0.931 . S
C122 C123 1.395 . S
C122 C124 1.320 . S
C123 C121 1.339 . S
C123 C122 1.395 . S
C123 H149 0.929 . S
C124 C122 1.320 . S
C124 C125 1.405 . S
C124 H150 0.930 . S
C125 C120 1.479 . S
C125 C124 1.405 . S
C125 H151 0.931 . S
U126 O127 2.454 . S
U126 O128 2.458 1_545 S
U126 C129 2.984 1_545 S
U126 C130 2.847 . S
U126 C143 2.882 . S
U126 O144 2.441 . S
U126 O145 2.420 . S
U126 O146 2.455 . S
U126 O147 2.449 . S
O127 U126 2.454 . S
O127 C129 1.353 1_545 S
O128 U126 2.458 1_565 S
O128 C129 1.286 . S
C129 U126 2.984 1_565 S
C129 O127 1.353 1_565 S
C129 O128 1.286 . S
C129 C131 1.363 . S
C130 C120 1.465 . S
C130 U126 2.847 . S
C130 O144 1.249 . S
C130 O145 1.202 . S
C131 C129 1.363 . S
C131 C133 1.408 . S
C131 C136 1.342 . S
C132 C133 1.310 . S
C132 C135 1.461 . S
C132 H152 0.932 . S
C133 C131 1.408 . S
C133 C132 1.310 . S
C133 H153 0.930 . S
C134 C135 1.474 . S
C134 C136 1.285 . S
C134 H154 0.929 . S
C135 C132 1.461 . S
C135 C134 1.474 . S
C136 C131 1.342 . S
C136 C134 1.285 . S
C136 H155 0.930 . S
C137 C140 1.424 . S
C137 C142 1.245 . S
C137 C143 1.428 . S
C138 C141 1.260 . S
C138 C142 1.477 . S
C138 H156 0.932 . S
C139 C140 1.384 . S
C139 C141 1.479 . S
C139 H157 0.929 . S
C140 C137 1.424 . S
C140 C139 1.384 . S
C140 H158 0.928 . S
C141 C138 1.260 . S
C141 C139 1.479 . S
C142 C137 1.245 . S
C142 C138 1.477 . S
C142 H159 0.932 . S
C143 U126 2.882 . S
C143 C137 1.428 . S
C143 O146 1.301 . S
C143 O147 1.282 . S
O144 U126 2.441 . S
O144 C130 1.249 . S
O145 U126 2.420 . S
O145 C130 1.202 . S
O146 U126 2.455 . S
O146 C143 1.301 . S
O147 U126 2.449 . S
O147 C143 1.282 . S
H148 C121 0.931 . S
H149 C123 0.929 . S
H150 C124 0.930 . S
H151 C125 0.931 . S
H152 C132 0.932 . S
H153 C133 0.930 . S
H154 C134 0.929 . S
H155 C136 0.930 . S
H156 C138 0.932 . S
H157 C139 0.929 . S
H158 C140 0.928 . S
H159 C142 0.932 . S
C160 C161 1.264 . S
C160 C165 1.479 . S
C160 C170 1.465 . S
C161 C160 1.264 . S
C161 C163 1.339 . S
C161 H188 0.931 . S
C162 C163 1.395 . S
C162 C164 1.320 . S
C163 C161 1.339 . S
C163 C162 1.395 . S
C163 H189 0.929 . S
C164 C162 1.320 . S
C164 C165 1.405 . S
C164 H190 0.930 . S
C165 C160 1.479 . S
C165 C164 1.405 . S
C165 H191 0.931 . S
U166 O167 2.454 . S
U166 O168 2.458 . S
U166 C169 2.984 . S
U166 C170 2.847 . S
U166 C183 2.882 . S
U166 O184 2.441 . S
U166 O185 2.420 . S
U166 O186 2.455 . S
U166 O187 2.449 . S
O167 U166 2.454 . S
O167 C169 1.353 . S
O168 U166 2.458 . S
O168 C169 1.286 . S
C169 U166 2.984 . S
C169 O167 1.353 . S
C169 O168 1.286 . S
C169 C171 1.363 . S
C170 C160 1.465 . S
C170 U166 2.847 . S
C170 O184 1.249 . S
C170 O185 1.202 . S
C171 C169 1.363 . S
C171 C173 1.408 . S
C171 C176 1.342 . S
C172 C173 1.310 . S
C172 C175 1.461 . S
C172 H192 0.932 . S
C173 C171 1.408 . S
C173 C172 1.310 . S
C173 H193 0.930 . S
C174 C175 1.474 . S
C174 C176 1.285 . S
C174 H194 0.929 . S
C175 C172 1.461 . S
C175 C174 1.474 . S
C176 C171 1.342 . S
C176 C174 1.285 . S
C176 H195 0.930 . S
C177 C180 1.424 . S
C177 C182 1.245 . S
C177 C183 1.428 . S
C178 C181 1.260 . S
C178 C182 1.477 . S
C178 H196 0.932 . S
C179 C180 1.384 . S
C179 C181 1.479 . S
C179 H197 0.929 . S
C180 C177 1.424 . S
C180 C179 1.384 . S
C180 H198 0.928 . S
C181 C178 1.260 . S
C181 C179 1.479 . S
C182 C177 1.245 . S
C182 C178 1.477 . S
C182 H199 0.932 . S
C183 U166 2.882 . S
C183 C177 1.428 . S
C183 O186 1.301 . S
C183 O187 1.282 . S
O184 U166 2.441 . S
O184 C170 1.249 . S
O185 U166 2.420 . S
O185 C170 1.202 . S
O186 U166 2.455 . S
O186 C183 1.301 . S
O187 U166 2.449 . S
O187 C183 1.282 . S
H188 C161 0.931 . S
H189 C163 0.929 . S
H190 C164 0.930 . S
H191 C165 0.931 . S
H192 C172 0.932 . S
H193 C173 0.930 . S
H194 C174 0.929 . S
H195 C176 0.930 . S
H196 C178 0.932 . S
H197 C179 0.929 . S
H198 C180 0.928 . S
H199 C182 0.932 . S
C200 C201 1.264 . S
C200 C205 1.479 . S
C200 C210 1.465 . S
C201 C200 1.264 . S
C201 C203 1.339 . S
C201 H228 0.931 . S
C202 C203 1.395 . S
C202 C204 1.320 . S
C203 C201 1.339 . S
C203 C202 1.395 . S
C203 H229 0.929 . S
C204 C202 1.320 . S
C204 C205 1.405 . S
C204 H230 0.930 . S
C205 C200 1.479 . S
C205 C204 1.405 . S
C205 H231 0.931 . S
U206 O207 2.454 1_655 S
U206 O208 2.458 1_655 S
U206 C209 2.984 1_655 S
U206 C210 2.847 . S
U206 C223 2.882 . S
U206 O224 2.441 . S
U206 O225 2.420 . S
U206 O226 2.455 1_655 S
U206 O227 2.449 . S
O207 U206 2.454 1_455 S
O207 C209 1.353 . S
O208 U206 2.458 1_455 S
O208 C209 1.286 . S
C209 U206 2.984 1_455 S
C209 O207 1.353 . S
C209 O208 1.286 . S
C209 C211 1.363 . S
C210 C200 1.465 . S
C210 U206 2.847 . S
C210 O224 1.249 . S
C210 O225 1.202 . S
C211 C209 1.363 . S
C211 C213 1.408 . S
C211 C216 1.342 . S
C212 C213 1.310 . S
C212 C215 1.461 . S
C212 H232 0.932 . S
C213 C211 1.408 . S
C213 C212 1.310 . S
C213 H233 0.930 . S
C214 C215 1.474 . S
C214 C216 1.285 . S
C214 H234 0.929 . S
C215 C212 1.461 . S
C215 C214 1.474 . S
C216 C211 1.342 . S
C216 C214 1.285 . S
C216 H235 0.930 . S
C217 C220 1.449 . S
C217 C222 1.222 1_655 S
C217 C223 1.428 . S
C218 C221 1.260 1_556 S
C218 C222 1.477 . S
C218 H236 0.913 1_556 S
C219 C220 1.384 . S
C219 C221 1.479 1_656 S
C219 H237 0.929 . S
C220 C217 1.449 . S
C220 C219 1.384 . S
C220 H238 0.928 . S
C221 C218 1.260 1_554 S
C221 C219 1.479 1_454 S
C222 C217 1.222 1_455 S
C222 C218 1.477 . S
C222 H239 0.932 . S
C223 U206 2.882 . S
C223 C217 1.428 . S
C223 O226 1.301 1_655 S
C223 O227 1.282 . S
O224 U206 2.441 . S
O224 C210 1.249 . S
O225 U206 2.420 . S
O225 C210 1.202 . S
O226 U206 2.455 1_455 S
O226 C223 1.301 1_455 S
O227 U206 2.449 . S
O227 C223 1.282 . S
H228 C201 0.931 . S
H229 C203 0.929 . S
H230 C204 0.930 . S
H231 C205 0.931 . S
H232 C212 0.932 . S
H233 C213 0.930 . S
H234 C214 0.929 . S
H235 C216 0.930 . S
H236 C218 0.913 1_554 S
H237 C219 0.929 . S
H238 C220 0.928 . S
H239 C222 0.932 . S
C240 C241 1.264 . S
C240 C245 1.479 . S
C240 C250 1.465 . S
C241 C240 1.264 . S
C241 C243 1.339 . S
C241 H268 0.931 . S
C242 C243 1.395 . S
C242 C244 1.320 . S
C243 C241 1.339 . S
C243 C242 1.395 . S
C243 H269 0.929 . S
C244 C242 1.320 . S
C244 C245 1.405 . S
C244 H270 0.930 . S
C245 C240 1.479 . S
C245 C244 1.405 . S
C245 H271 0.931 . S
U246 O247 2.454 . S
U246 O248 2.458 . S
U246 C249 2.984 . S
U246 C250 2.847 1_455 S
U246 C263 2.882 . S
U246 O264 2.441 . S
U246 O265 2.420 1_455 S
U246 O266 2.455 . S
U246 O267 2.449 . S
O247 U246 2.454 . S
O247 C249 1.353 . S
O248 U246 2.458 . S
O248 C249 1.286 . S
C249 U246 2.984 . S
C249 O247 1.353 . S
C249 O248 1.286 . S
C249 C251 1.363 . S
C250 C240 1.465 . S
C250 U246 2.847 1_655 S
C250 O264 1.249 1_655 S
C250 O265 1.202 . S
C251 C249 1.363 . S
C251 C253 1.408 . S
C251 C256 1.342 . S
C252 C253 1.310 . S
C252 C255 1.461 . S
C252 H272 0.932 . S
C253 C251 1.408 . S
C253 C252 1.310 . S
C253 H273 0.930 . S
C254 C255 1.474 . S
C254 C256 1.285 . S
C254 H274 0.929 . S
C255 C252 1.461 . S
C255 C254 1.474 . S
C256 C251 1.342 . S
C256 C254 1.285 . S
C256 H275 0.930 . S
C257 C260 1.424 . S
C257 C262 1.245 . S
C257 C263 1.428 . S
C258 C261 1.260 . S
C258 C262 1.477 . S
C258 H276 0.932 . S
C259 C260 1.384 . S
C259 C261 1.479 . S
C259 H277 0.929 1_455 S
C260 C257 1.424 . S
C260 C259 1.384 . S
C260 H278 0.928 1_455 S
C261 C258 1.260 . S
C261 C259 1.479 . S
C262 C257 1.245 . S
C262 C258 1.477 . S
C262 H279 0.932 . S
C263 U246 2.882 . S
C263 C257 1.428 . S
C263 O266 1.301 . S
C263 O267 1.282 . S
O264 U246 2.441 . S
O264 C250 1.249 1_455 S
O265 U246 2.420 1_655 S
O265 C250 1.202 . S
O266 U246 2.455 . S
O266 C263 1.301 . S
O267 U246 2.449 . S
O267 C263 1.282 . S
H268 C241 0.931 . S
H269 C243 0.929 . S
H270 C244 0.930 . S
H271 C245 0.931 . S
H272 C252 0.932 . S
H273 C253 0.930 . S
H274 C254 0.929 . S
H275 C256 0.930 . S
H276 C258 0.932 . S
H277 C259 0.929 1_655 S
H278 C260 0.928 1_655 S
H279 C262 0.932 . S
C280 C281 1.264 . S
C280 C285 1.479 . S
C280 C290 1.465 . S
C281 C280 1.264 . S
C281 C283 1.339 . S
C281 H308 0.931 . S
C282 C283 1.395 . S
C282 C284 1.320 . S
C283 C281 1.339 . S
C283 C282 1.395 . S
C283 H309 0.929 . S
C284 C282 1.320 . S
C284 C285 1.405 . S
C284 H310 0.930 . S
C285 C280 1.479 . S
C285 C284 1.405 . S
C285 H311 0.931 . S
U286 O287 2.454 1_565 S
U286 O288 2.458 1_565 S
U286 C289 2.984 1_565 S
U286 C290 2.847 . S
U286 C303 2.882 . S
U286 O304 2.441 . S
U286 O305 2.420 . S
U286 O306 2.455 1_565 S
U286 O307 2.449 . S
O287 U286 2.454 1_545 S
O287 C289 1.353 . S
O288 U286 2.458 1_545 S
O288 C289 1.286 . S
C289 U286 2.984 1_545 S
C289 O287 1.353 . S
C289 O288 1.286 . S
C289 C291 1.363 . S
C290 C280 1.465 . S
C290 U286 2.847 . S
C290 O304 1.249 . S
C290 O305 1.202 . S
C291 C289 1.363 . S
C291 C293 1.408 . S
C291 C296 1.342 . S
C292 C293 1.310 . S
C292 C295 1.461 . S
C292 H312 0.932 . S
C293 C291 1.408 . S
C293 C292 1.310 . S
C293 H313 0.930 . S
C294 C295 1.474 . S
C294 C296 1.285 . S
C294 H314 0.929 . S
C295 C292 1.461 . S
C295 C294 1.474 . S
C296 C291 1.342 . S
C296 C294 1.285 . S
C296 H315 0.930 . S
C297 C300 1.424 . S
C297 C302 1.245 1_565 S
C297 C303 1.428 . S
C298 C301 1.260 . S
C298 C302 1.477 . S
C298 H316 0.932 . S
C299 C300 1.384 . S
C299 C301 1.479 1_565 S
C299 H317 0.929 . S
C300 C297 1.424 . S
C300 C299 1.384 . S
C300 H318 0.928 . S
C301 C298 1.260 . S
C301 C299 1.479 1_545 S
C302 C297 1.245 1_545 S
C302 C298 1.477 . S
C302 H319 0.932 . S
C303 U286 2.882 . S
C303 C297 1.428 . S
C303 O306 1.301 1_565 S
C303 O307 1.282 . S
O304 U286 2.441 . S
O304 C290 1.249 . S
O305 U286 2.420 . S
O305 C290 1.202 . S
O306 U286 2.455 1_545 S
O306 C303 1.301 1_545 S
O307 U286 2.449 . S
O307 C303 1.282 . S
H308 C281 0.931 . S
H309 C283 0.929 . S
H310 C284 0.930 . S
H311 C285 0.931 . S
H312 C292 0.932 . S
H313 C293 0.930 . S
H314 C294 0.929 . S
H315 C296 0.930 . S
H316 C298 0.932 . S
H317 C299 0.929 . S
H318 C300 0.928 . S
H319 C302 0.932 . S
C320 C321 1.264 . S
C320 C325 1.479 . S
C320 C330 1.465 . S
C321 C320 1.264 . S
C321 C323 1.339 . S
C321 H348 0.931 . S
C322 C323 1.395 . S
C322 C324 1.320 . S
C323 C321 1.339 . S
C323 C322 1.395 . S
C323 H349 0.929 . S
C324 C322 1.320 . S
C324 C325 1.405 . S
C324 H350 0.930 . S
C325 C320 1.479 . S
C325 C324 1.405 . S
C325 H351 0.931 . S
U326 O327 2.454 . S
U326 O328 2.458 . S
U326 C329 2.984 . S
U326 C330 2.847 . S
U326 C343 2.882 . S
U326 O344 2.441 . S
U326 O345 2.420 . S
U326 O346 2.455 . S
U326 O347 2.449 . S
O327 U326 2.454 . S
O327 C329 1.353 . S
O328 U326 2.458 . S
O328 C329 1.286 . S
C329 U326 2.984 . S
C329 O327 1.353 . S
C329 O328 1.286 . S
C329 C331 1.363 . S
C330 C320 1.465 . S
C330 U326 2.847 . S
C330 O344 1.249 . S
C330 O345 1.202 . S
C331 C329 1.363 . S
C331 C333 1.408 . S
C331 C336 1.342 . S
C332 C333 1.310 . S
C332 C335 1.461 . S
C332 H352 0.932 . S
C333 C331 1.408 . S
C333 C332 1.310 . S
C333 H353 0.930 . S
C334 C335 1.474 . S
C334 C336 1.285 . S
C334 H354 0.929 . S
C335 C332 1.461 . S
C335 C334 1.474 . S
C336 C331 1.342 . S
C336 C334 1.285 . S
C336 H355 0.930 . S
C337 C340 1.424 . S
C337 C342 1.245 . S
C337 C343 1.428 . S
C338 C341 1.260 . S
C338 C342 1.477 . S
C338 H356 0.932 . S
C339 C340 1.384 . S
C339 C341 1.479 . S
C339 H357 0.929 . S
C340 C337 1.424 . S
C340 C339 1.384 . S
C340 H358 0.928 . S
C341 C338 1.260 . S
C341 C339 1.479 . S
C342 C337 1.245 . S
C342 C338 1.477 . S
C342 H359 0.932 . S
C343 U326 2.882 . S
C343 C337 1.428 . S
C343 O346 1.301 . S
C343 O347 1.282 . S
O344 U326 2.441 . S
O344 C330 1.249 . S
O345 U326 2.420 . S
O345 C330 1.202 . S
O346 U326 2.455 . S
O346 C343 1.301 . S
O347 U326 2.449 . S
O347 C343 1.282 . S
H348 C321 0.931 . S
H349 C323 0.929 . S
H350 C324 0.930 . S
H351 C325 0.931 . S
H352 C332 0.932 . S
H353 C333 0.930 . S
H354 C334 0.929 . S
H355 C336 0.930 . S
H356 C338 0.932 . S
H357 C339 0.929 . S
H358 C340 0.928 . S
H359 C342 0.932 . S
H360 C372 0.930 . S
H361 C374 0.930 . S
H362 C375 0.930 . S
H363 C379 0.959 . S
H364 C379 0.959 . S
H365 C379 0.961 . S
H366 C380 0.960 . S
H367 C380 0.961 . S
H368 C380 0.959 . S
H369 C383 0.929 . S
H370 C384 0.931 . S
H371 C386 0.930 . S
C372 H360 0.930 . S
C372 C373 1.399 . S
C372 C377 1.399 . S
C373 C372 1.399 . S
C373 C374 1.376 . S
C374 H361 0.930 . S
C374 C373 1.376 . S
C374 C375 1.388 . S
C375 H362 0.930 . S
C375 C374 1.388 . S
C375 C376 1.390 . S
C376 C375 1.390 . S
C376 C377 1.394 . S
C376 C382 1.465 . S
C377 C372 1.399 . S
C377 C376 1.394 . S
C377 C378 1.516 . S
C378 C377 1.516 . S
C378 C379 1.502 . S
C378 C380 1.561 . S
C378 C381 1.526 . S
C379 H363 0.959 . S
C379 H364 0.959 . S
C379 H365 0.961 . S
C379 C378 1.502 . S
C380 H366 0.960 . S
C380 H367 0.961 . S
C380 H368 0.959 . S
C380 C378 1.561 . S
C381 C378 1.526 . S
C381 C382 1.396 . S
C381 C386 1.390 . S
C382 C376 1.465 . S
C382 C381 1.396 . S
C382 C383 1.399 . S
C383 H369 0.929 . S
C383 C382 1.399 . S
C383 C384 1.385 . S
C384 H370 0.931 . S
C384 C383 1.385 . S
C384 C385 1.389 . S
C385 C384 1.389 . S
C385 C386 1.387 . S
C386 H371 0.930 . S
C386 C381 1.390 . S
C386 C385 1.387 . S
H387 C399 0.930 . S
H388 C401 0.930 . S
H389 C402 0.930 . S
H390 C406 0.959 . S
H391 C406 0.959 . S
H392 C406 0.961 . S
H393 C407 0.960 . S
H394 C407 0.961 . S
H395 C407 0.959 . S
H396 C410 0.929 . S
H397 C411 0.931 . S
H398 C413 0.930 . S
C399 H387 0.930 . S
C399 C400 1.399 . S
C399 C404 1.399 . S
C400 C399 1.399 . S
C400 C401 1.376 . S
C401 H388 0.930 . S
C401 C400 1.376 . S
C401 C402 1.388 . S
C402 H389 0.930 . S
C402 C401 1.388 . S
C402 C403 1.390 . S
C403 C402 1.390 . S
C403 C404 1.394 . S
C403 C409 1.465 . S
C404 C399 1.399 . S
C404 C403 1.394 . S
C404 C405 1.516 . S
C405 C404 1.516 . S
C405 C406 1.502 . S
C405 C407 1.561 . S
C405 C408 1.526 . S
C406 H390 0.959 . S
C406 H391 0.959 . S
C406 H392 0.961 . S
C406 C405 1.502 . S
C407 H393 0.960 . S
C407 H394 0.961 . S
C407 H395 0.959 . S
C407 C405 1.561 . S
C408 C405 1.526 . S
C408 C409 1.396 . S
C408 C413 1.390 . S
C409 C403 1.465 . S
C409 C408 1.396 . S
C409 C410 1.399 . S
C410 H396 0.929 . S
C410 C409 1.399 . S
C410 C411 1.385 . S
C411 H397 0.931 . S
C411 C410 1.385 . S
C411 C412 1.389 . S
C412 C411 1.389 . S
C412 C413 1.387 . S
C413 H398 0.930 . S
C413 C408 1.390 . S
C413 C412 1.387 . S
H414 C426 0.930 . S
H415 C428 0.930 . S
H416 C429 0.930 . S
H417 C433 0.959 . S
H418 C433 0.959 . S
H419 C433 0.961 . S
H420 C434 0.960 . S
H421 C434 0.961 . S
H422 C434 0.959 . S
H423 C437 0.929 . S
H424 C438 0.931 . S
H425 C440 0.930 . S
C426 H414 0.930 . S
C426 C427 1.399 . S
C426 C431 1.399 . S
C427 C426 1.399 . S
C427 C428 1.376 . S
C428 H415 0.930 . S
C428 C427 1.376 . S
C428 C429 1.388 . S
C429 H416 0.930 . S
C429 C428 1.388 . S
C429 C430 1.390 . S
C430 C429 1.390 . S
C430 C431 1.394 . S
C430 C436 1.465 . S
C431 C426 1.399 . S
C431 C430 1.394 . S
C431 C432 1.516 . S
C432 C431 1.516 . S
C432 C433 1.502 . S
C432 C434 1.561 . S
C432 C435 1.526 . S
C433 H417 0.959 . S
C433 H418 0.959 . S
C433 H419 0.961 . S
C433 C432 1.502 . S
C434 H420 0.960 . S
C434 H421 0.961 . S
C434 H422 0.959 . S
C434 C432 1.561 . S
C435 C432 1.526 . S
C435 C436 1.396 . S
C435 C440 1.390 . S
C436 C430 1.465 . S
C436 C435 1.396 . S
C436 C437 1.399 . S
C437 H423 0.929 . S
C437 C436 1.399 . S
C437 C438 1.385 . S
C438 H424 0.931 . S
C438 C437 1.385 . S
C438 C439 1.389 . S
C439 C438 1.389 . S
C439 C440 1.387 . S
C440 H425 0.930 . S
C440 C435 1.390 . S
C440 C439 1.387 . S
H441 C453 0.930 . S
H442 C455 0.930 . S
H443 C456 0.930 . S
H444 C460 0.959 . S
H445 C460 0.959 . S
H446 C460 0.961 . S
H447 C461 0.960 . S
H448 C461 0.961 . S
H449 C461 0.959 . S
H450 C464 0.929 . S
H451 C465 0.931 . S
H452 C467 0.930 . S
C453 H441 0.930 . S
C453 C454 1.399 . S
C453 C458 1.399 . S
C454 C453 1.399 . S
C454 C455 1.376 . S
C455 H442 0.930 . S
C455 C454 1.376 . S
C455 C456 1.388 . S
C456 H443 0.930 . S
C456 C455 1.388 . S
C456 C457 1.390 . S
C457 C456 1.390 . S
C457 C458 1.394 . S
C457 C463 1.465 . S
C458 C453 1.399 . S
C458 C457 1.394 . S
C458 C459 1.516 . S
C459 C458 1.516 . S
C459 C460 1.502 . S
C459 C461 1.561 . S
C459 C462 1.526 . S
C460 H444 0.959 . S
C460 H445 0.959 . S
C460 H446 0.961 . S
C460 C459 1.502 . S
C461 H447 0.960 . S
C461 H448 0.961 . S
C461 H449 0.959 . S
C461 C459 1.561 . S
C462 C459 1.526 . S
C462 C463 1.396 . S
C462 C467 1.390 . S
C463 C457 1.465 . S
C463 C462 1.396 . S
C463 C464 1.399 . S
C464 H450 0.929 . S
C464 C463 1.399 . S
C464 C465 1.385 . S
C465 H451 0.931 . S
C465 C464 1.385 . S
C465 C466 1.389 . S
C466 C465 1.389 . S
C466 C467 1.387 . S
C467 H452 0.930 . S
C467 C462 1.390 . S
C467 C466 1.387 . S
H468 C480 0.930 . S
H469 C482 0.930 . S
H470 C483 0.930 . S
H471 C487 0.959 . S
H472 C487 0.959 . S
H473 C487 0.961 . S
H474 C488 0.960 . S
H475 C488 0.961 . S
H476 C488 0.959 . S
H477 C491 0.929 . S
H478 C492 0.931 . S
H479 C494 0.930 . S
C480 H468 0.930 . S
C480 C481 1.399 . S
C480 C485 1.399 . S
C481 C480 1.399 . S
C481 C482 1.376 . S
C482 H469 0.930 . S
C482 C481 1.376 . S
C482 C483 1.388 . S
C483 H470 0.930 . S
C483 C482 1.388 . S
C483 C484 1.390 . S
C484 C483 1.390 . S
C484 C485 1.394 . S
C484 C490 1.465 . S
C485 C480 1.399 . S
C485 C484 1.394 . S
C485 C486 1.516 . S
C486 C485 1.516 . S
C486 C487 1.502 . S
C486 C488 1.561 . S
C486 C489 1.526 . S
C487 H471 0.959 . S
C487 H472 0.959 . S
C487 H473 0.961 . S
C487 C486 1.502 . S
C488 H474 0.960 . S
C488 H475 0.961 . S
C488 H476 0.959 . S
C488 C486 1.561 . S
C489 C486 1.526 . S
C489 C490 1.396 . S
C489 C494 1.390 . S
C490 C484 1.465 . S
C490 C489 1.396 . S
C490 C491 1.399 . S
C491 H477 0.929 . S
C491 C490 1.399 . S
C491 C492 1.385 . S
C492 H478 0.931 . S
C492 C491 1.385 . S
C492 C493 1.389 . S
C493 C492 1.389 . S
C493 C494 1.387 . S
C494 H479 0.930 . S
C494 C489 1.390 . S
C494 C493 1.387 . S
H495 C507 0.930 . S
H496 C509 0.930 . S
H497 C510 0.930 . S
H498 C514 0.959 . S
H499 C514 0.959 . S
H500 C514 0.961 . S
H501 C515 0.960 . S
H502 C515 0.961 . S
H503 C515 0.959 . S
H504 C518 0.929 . S
H505 C519 0.931 . S
H506 C521 0.930 . S
C507 H495 0.930 . S
C507 C508 1.399 . S
C507 C512 1.399 . S
C508 C507 1.399 . S
C508 C509 1.376 . S
C509 H496 0.930 . S
C509 C508 1.376 . S
C509 C510 1.388 . S
C510 H497 0.930 . S
C510 C509 1.388 . S
C510 C511 1.390 . S
C511 C510 1.390 . S
C511 C512 1.394 . S
C511 C517 1.465 . S
C512 C507 1.399 . S
C512 C511 1.394 . S
C512 C513 1.516 . S
C513 C512 1.516 . S
C513 C514 1.502 . S
C513 C515 1.561 . S
C513 C516 1.526 . S
C514 H498 0.959 . S
C514 H499 0.959 . S
C514 H500 0.961 . S
C514 C513 1.502 . S
C515 H501 0.960 . S
C515 H502 0.961 . S
C515 H503 0.959 . S
C515 C513 1.561 . S
C516 C513 1.526 . S
C516 C517 1.396 . S
C516 C521 1.390 . S
C517 C511 1.465 . S
C517 C516 1.396 . S
C517 C518 1.399 . S
C518 H504 0.929 . S
C518 C517 1.399 . S
C518 C519 1.385 . S
C519 H505 0.931 . S
C519 C518 1.385 . S
C519 C520 1.389 . S
C520 C519 1.389 . S
C520 C521 1.387 . S
C521 H506 0.930 . S
C521 C516 1.390 . S
C521 C520 1.387 . S
H522 C534 0.930 . S
H523 C536 0.930 . S
H524 C537 0.930 . S
H525 C541 0.959 . S
H526 C541 0.959 . S
H527 C541 0.961 . S
H528 C542 0.960 . S
H529 C542 0.961 . S
H530 C542 0.959 . S
H531 C545 0.929 . S
H532 C546 0.931 . S
H533 C548 0.930 . S
C534 H522 0.930 . S
C534 C535 1.399 . S
C534 C539 1.399 . S
C535 C534 1.399 . S
C535 C536 1.376 . S
C536 H523 0.930 . S
C536 C535 1.376 . S
C536 C537 1.388 . S
C537 H524 0.930 . S
C537 C536 1.388 . S
C537 C538 1.390 . S
C538 C537 1.390 . S
C538 C539 1.394 . S
C538 C544 1.465 . S
C539 C534 1.399 . S
C539 C538 1.394 . S
C539 C540 1.516 . S
C540 C539 1.516 . S
C540 C541 1.502 . S
C540 C542 1.561 . S
C540 C543 1.526 . S
C541 H525 0.959 . S
C541 H526 0.959 . S
C541 H527 0.961 . S
C541 C540 1.502 . S
C542 H528 0.960 . S
C542 H529 0.961 . S
C542 H530 0.959 . S
C542 C540 1.561 . S
C543 C540 1.526 . S
C543 C544 1.396 . S
C543 C548 1.390 . S
C544 C538 1.465 . S
C544 C543 1.396 . S
C544 C545 1.399 . S
C545 H531 0.929 . S
C545 C544 1.399 . S
C545 C546 1.385 . S
C546 H532 0.931 . S
C546 C545 1.385 . S
C546 C547 1.389 . S
C547 C546 1.389 . S
C547 C548 1.387 . S
C548 H533 0.930 . S
C548 C543 1.390 . S
C548 C547 1.387 . S
H549 C561 0.930 . S
H550 C563 0.930 . S
H551 C564 0.930 . S
H552 C568 0.959 . S
H553 C568 0.959 . S
H554 C568 0.961 . S
H555 C569 0.960 . S
H556 C569 0.961 . S
H557 C569 0.959 . S
H558 C572 0.929 . S
H559 C573 0.931 . S
H560 C575 0.930 . S
C561 H549 0.930 . S
C561 C562 1.399 . S
C561 C566 1.399 . S
C562 C561 1.399 . S
C562 C563 1.376 . S
C563 H550 0.930 . S
C563 C562 1.376 . S
C563 C564 1.388 . S
C564 H551 0.930 . S
C564 C563 1.388 . S
C564 C565 1.390 . S
C565 C564 1.390 . S
C565 C566 1.394 . S
C565 C571 1.465 . S
C566 C561 1.399 . S
C566 C565 1.394 . S
C566 C567 1.516 . S
C567 C566 1.516 . S
C567 C568 1.502 . S
C567 C569 1.561 . S
C567 C570 1.526 . S
C568 H552 0.959 . S
C568 H553 0.959 . S
C568 H554 0.961 . S
C568 C567 1.502 . S
C569 H555 0.960 . S
C569 H556 0.961 . S
C569 H557 0.959 . S
C569 C567 1.561 . S
C570 C567 1.526 . S
C570 C571 1.396 . S
C570 C575 1.390 . S
C571 C565 1.465 . S
C571 C570 1.396 . S
C571 C572 1.399 . S
C572 H558 0.929 . S
C572 C571 1.399 . S
C572 C573 1.385 . S
C573 H559 0.931 . S
C573 C572 1.385 . S
C573 C574 1.389 . S
C574 C573 1.389 . S
C574 C575 1.387 . S
C575 H560 0.930 . S
C575 C570 1.390 . S
C575 C574 1.387 . S
H576 C588 0.930 . S
H577 C590 0.930 . S
H578 C591 0.930 . S
H579 C595 0.959 . S
H580 C595 0.959 . S
H581 C595 0.961 . S
H582 C596 0.960 . S
H583 C596 0.961 . S
H584 C596 0.959 . S
H585 C599 0.929 . S
H586 C600 0.931 . S
H587 C602 0.930 . S
C588 H576 0.930 . S
C588 C589 1.399 . S
C588 C593 1.399 . S
C589 C588 1.399 . S
C589 C590 1.376 . S
C590 H577 0.930 . S
C590 C589 1.376 . S
C590 C591 1.388 . S
C591 H578 0.930 . S
C591 C590 1.388 . S
C591 C592 1.390 . S
C592 C591 1.390 . S
C592 C593 1.394 . S
C592 C598 1.465 . S
C593 C588 1.399 . S
C593 C592 1.394 . S
C593 C594 1.516 . S
C594 C593 1.516 . S
C594 C595 1.502 . S
C594 C596 1.561 . S
C594 C597 1.526 . S
C595 H579 0.959 . S
C595 H580 0.959 . S
C595 H581 0.961 . S
C595 C594 1.502 . S
C596 H582 0.960 . S
C596 H583 0.961 . S
C596 H584 0.959 . S
C596 C594 1.561 . S
C597 C594 1.526 . S
C597 C598 1.396 . S
C597 C602 1.390 . S
C598 C592 1.465 . S
C598 C597 1.396 . S
C598 C599 1.399 . S
C599 H585 0.929 . S
C599 C598 1.399 . S
C599 C600 1.385 . S
C600 H586 0.931 . S
C600 C599 1.385 . S
C600 C601 1.389 . S
C601 C600 1.389 . S
C601 C602 1.387 . S
C602 H587 0.930 . S
C602 C597 1.390 . S
C602 C601 1.387 . S
H603 C615 0.930 . S
H604 C617 0.930 . S
H605 C618 0.930 . S
H606 C622 0.959 . S
H607 C622 0.959 . S
H608 C622 0.961 . S
H609 C623 0.960 . S
H610 C623 0.961 . S
H611 C623 0.959 . S
H612 C626 0.929 . S
H613 C627 0.931 . S
H614 C629 0.930 . S
C615 H603 0.930 . S
C615 C616 1.399 . S
C615 C620 1.399 . S
C616 C615 1.399 . S
C616 C617 1.376 . S
C617 H604 0.930 . S
C617 C616 1.376 . S
C617 C618 1.388 . S
C618 H605 0.930 . S
C618 C617 1.388 . S
C618 C619 1.390 . S
C619 C618 1.390 . S
C619 C620 1.394 . S
C619 C625 1.465 . S
C620 C615 1.399 . S
C620 C619 1.394 . S
C620 C621 1.516 . S
C621 C620 1.516 . S
C621 C622 1.502 . S
C621 C623 1.561 . S
C621 C624 1.526 . S
C622 H606 0.959 . S
C622 H607 0.959 . S
C622 H608 0.961 . S
C622 C621 1.502 . S
C623 H609 0.960 . S
C623 H610 0.961 . S
C623 H611 0.959 . S
C623 C621 1.561 . S
C624 C621 1.526 . S
C624 C625 1.396 . S
C624 C629 1.390 . S
C625 C619 1.465 . S
C625 C624 1.396 . S
C625 C626 1.399 . S
C626 H612 0.929 . S
C626 C625 1.399 . S
C626 C627 1.385 . S
C627 H613 0.931 . S
C627 C626 1.385 . S
C627 C628 1.389 . S
C628 C627 1.389 . S
C628 C629 1.387 . S
C629 H614 0.930 . S
C629 C624 1.390 . S
C629 C628 1.387 . S
H630 C642 0.930 . S
H631 C644 0.930 . S
H632 C645 0.930 . S
H633 C649 0.959 . S
H634 C649 0.959 . S
H635 C649 0.961 . S
H636 C650 0.960 . S
H637 C650 0.961 . S
H638 C650 0.959 . S
H639 C653 0.929 . S
H640 C654 0.931 . S
H641 C656 0.930 . S
C642 H630 0.930 . S
C642 C643 1.399 . S
C642 C647 1.399 . S
C643 C642 1.399 . S
C643 C644 1.376 . S
C644 H631 0.930 . S
C644 C643 1.376 . S
C644 C645 1.388 . S
C645 H632 0.930 . S
C645 C644 1.388 . S
C645 C646 1.390 . S
C646 C645 1.390 . S
C646 C647 1.394 . S
C646 C652 1.465 . S
C647 C642 1.399 . S
C647 C646 1.394 . S
C647 C648 1.516 . S
C648 C647 1.516 . S
C648 C649 1.502 . S
C648 C650 1.561 . S
C648 C651 1.526 . S
C649 H633 0.959 . S
C649 H634 0.959 . S
C649 H635 0.961 . S
C649 C648 1.502 . S
C650 H636 0.960 . S
C650 H637 0.961 . S
C650 H638 0.959 . S
C650 C648 1.561 . S
C651 C648 1.526 . S
C651 C652 1.396 . S
C651 C656 1.390 . S
C652 C646 1.465 . S
C652 C651 1.396 . S
C652 C653 1.399 . S
C653 H639 0.929 . S
C653 C652 1.399 . S
C653 C654 1.385 . S
C654 H640 0.931 . S
C654 C653 1.385 . S
C654 C655 1.389 . S
C655 C654 1.389 . S
C655 C656 1.387 . S
C656 H641 0.930 . S
C656 C651 1.390 . S
C656 C655 1.387 . S
H657 C669 0.930 . S
H658 C671 0.930 . S
H659 C672 0.930 . S
H660 C676 0.959 . S
H661 C676 0.959 . S
H662 C676 0.961 . S
H663 C677 0.960 . S
H664 C677 0.961 . S
H665 C677 0.959 . S
H666 C680 0.929 . S
H667 C681 0.931 . S
H668 C683 0.930 . S
C669 H657 0.930 . S
C669 C670 1.399 . S
C669 C674 1.399 . S
C670 C669 1.399 . S
C670 C671 1.376 . S
C671 H658 0.930 . S
C671 C670 1.376 . S
C671 C672 1.388 . S
C672 H659 0.930 . S
C672 C671 1.388 . S
C672 C673 1.390 . S
C673 C672 1.390 . S
C673 C674 1.394 . S
C673 C679 1.465 . S
C674 C669 1.399 . S
C674 C673 1.394 . S
C674 C675 1.516 . S
C675 C674 1.516 . S
C675 C676 1.502 . S
C675 C677 1.561 . S
C675 C678 1.526 . S
C676 H660 0.959 . S
C676 H661 0.959 . S
C676 H662 0.961 . S
C676 C675 1.502 . S
C677 H663 0.960 . S
C677 H664 0.961 . S
C677 H665 0.959 . S
C677 C675 1.561 . S
C678 C675 1.526 . S
C678 C679 1.396 . S
C678 C683 1.390 . S
C679 C673 1.465 . S
C679 C678 1.396 . S
C679 C680 1.399 . S
C680 H666 0.929 . S
C680 C679 1.399 . S
C680 C681 1.385 . S
C681 H667 0.931 . S
C681 C680 1.385 . S
C681 C682 1.389 . S
C682 C681 1.389 . S
C682 C683 1.387 . S
C683 H668 0.930 . S
C683 C678 1.390 . S
C683 C682 1.387 . S
H684 C696 0.930 . S
H685 C698 0.930 . S
H686 C699 0.930 . S
H687 C703 0.959 . S
H688 C703 0.959 . S
H689 C703 0.961 . S
H690 C704 0.960 . S
H691 C704 0.961 . S
H692 C704 0.959 . S
H693 C707 0.929 . S
H694 C708 0.931 . S
H695 C710 0.930 . S
C696 H684 0.930 . S
C696 C697 1.399 . S
C696 C701 1.399 . S
C697 C696 1.399 . S
C697 C698 1.376 . S
C698 H685 0.930 . S
C698 C697 1.376 . S
C698 C699 1.388 . S
C699 H686 0.930 . S
C699 C698 1.388 . S
C699 C700 1.390 . S
C700 C699 1.390 . S
C700 C701 1.394 . S
C700 C706 1.465 . S
C701 C696 1.399 . S
C701 C700 1.394 . S
C701 C702 1.516 . S
C702 C701 1.516 . S
C702 C703 1.502 1_455 S
C702 C704 1.561 . S
C702 C705 1.526 . S
C703 H687 0.959 . S
C703 H688 0.959 . S
C703 H689 0.961 . S
C703 C702 1.502 1_655 S
C704 H690 0.960 . S
C704 H691 0.961 . S
C704 H692 0.959 . S
C704 C702 1.561 . S
C705 C702 1.526 . S
C705 C706 1.396 . S
C705 C710 1.390 . S
C706 C700 1.465 . S
C706 C705 1.396 . S
C706 C707 1.399 . S
C707 H693 0.929 . S
C707 C706 1.399 . S
C707 C708 1.385 . S
C708 H694 0.931 . S
C708 C707 1.385 . S
C708 C709 1.389 . S
C709 C708 1.389 . S
C709 C710 1.387 . S
C710 H695 0.930 . S
C710 C705 1.390 . S
C710 C709 1.387 . S
H711 C723 0.930 1_565 S
H712 C725 0.930 . S
H713 C726 0.930 . S
H714 C730 0.959 1_545 S
H715 C730 0.959 . S
H716 C730 0.961 . S
H717 C731 0.960 . S
H718 C731 0.961 . S
H719 C731 0.959 . S
H720 C734 0.929 . S
H721 C735 0.931 . S
H722 C737 0.931 . S
C723 H711 0.930 1_545 S
C723 C724 1.399 . S
C723 C728 1.399 . S
C724 C723 1.399 . S
C724 C725 1.376 . S
C725 H712 0.930 . S
C725 C724 1.376 . S
C725 C726 1.388 . S
C726 H713 0.930 . S
C726 C725 1.388 . S
C726 C727 1.390 . S
C727 C726 1.390 . S
C727 C728 1.394 . S
C727 C733 1.465 . S
C728 C723 1.399 . S
C728 C727 1.394 . S
C728 C729 1.516 1_545 S
C729 C728 1.516 1_565 S
C729 C730 1.502 . S
C729 C731 1.561 . S
C729 C732 1.526 1_565 S
C730 H714 0.959 1_565 S
C730 H715 0.959 . S
C730 H716 0.961 . S
C730 C729 1.502 . S
C731 H717 0.960 . S
C731 H718 0.961 . S
C731 H719 0.959 . S
C731 C729 1.561 . S
C732 C729 1.526 1_545 S
C732 C733 1.396 . S
C732 C737 1.390 . S
C733 C727 1.465 . S
C733 C732 1.396 . S
C733 C734 1.399 . S
C734 H720 0.929 . S
C734 C733 1.399 . S
C734 C735 1.385 . S
C735 H721 0.931 . S
C735 C734 1.385 . S
C735 C736 1.389 . S
C736 C735 1.389 . S
C736 C737 1.387 . S
C737 H722 0.931 . S
C737 C732 1.390 . S
C737 C736 1.387 . S
H738 C750 0.930 . S
H739 C752 0.930 . S
H740 C753 0.930 . S
H741 C757 0.959 . S
H742 C757 0.959 . S
H743 C757 0.961 . S
H744 C758 0.960 . S
H745 C758 0.961 . S
H746 C758 0.959 . S
H747 C761 0.929 . S
H748 C762 0.931 . S
H749 C764 0.930 . S
C750 H738 0.930 . S
C750 C751 1.399 . S
C750 C755 1.399 . S
C751 C750 1.399 . S
C751 C752 1.376 . S
C752 H739 0.930 . S
C752 C751 1.376 . S
C752 C753 1.388 . S
C753 H740 0.930 . S
C753 C752 1.388 . S
C753 C754 1.390 . S
C754 C753 1.390 . S
C754 C755 1.394 . S
C754 C760 1.465 . S
C755 C750 1.399 . S
C755 C754 1.394 . S
C755 C756 1.516 . S
C756 C755 1.516 . S
C756 C757 1.502 . S
C756 C758 1.561 . S
C756 C759 1.526 . S
C757 H741 0.959 . S
C757 H742 0.959 . S
C757 H743 0.961 . S
C757 C756 1.502 . S
C758 H744 0.960 . S
C758 H745 0.961 . S
C758 H746 0.959 . S
C758 C756 1.561 . S
C759 C756 1.526 . S
C759 C760 1.396 . S
C759 C764 1.390 . S
C760 C754 1.465 . S
C760 C759 1.396 . S
C760 C761 1.399 . S
C761 H747 0.929 . S
C761 C760 1.399 . S
C761 C762 1.385 . S
C762 H748 0.931 . S
C762 C761 1.385 . S
C762 C763 1.389 . S
C763 C762 1.389 . S
C763 C764 1.387 . S
C764 H749 0.930 . S
C764 C759 1.390 . S
C764 C763 1.387 . S
H765 C777 0.930 . S
H766 C779 0.930 . S
H767 C780 0.930 . S
H768 C784 0.959 . S
H769 C784 0.959 . S
H770 C784 0.961 . S
H771 C785 0.960 . S
H772 C785 0.961 . S
H773 C785 0.959 . S
H774 C788 0.929 . S
H775 C789 0.931 . S
H776 C791 0.930 . S
C777 H765 0.930 . S
C777 C778 1.399 . S
C777 C782 1.399 . S
C778 C777 1.399 . S
C778 C779 1.376 1_545 S
C779 H766 0.930 . S
C779 C778 1.376 1_565 S
C779 C780 1.388 . S
C780 H767 0.930 . S
C780 C779 1.388 . S
C780 C781 1.383 1_565 S
C781 C780 1.383 1_545 S
C781 C782 1.403 . S
C781 C787 1.465 1_545 S
C782 C777 1.399 . S
C782 C781 1.403 . S
C782 C783 1.516 . S
C783 C782 1.516 . S
C783 C784 1.502 . S
C783 C785 1.561 . S
C783 C786 1.526 . S
C784 H768 0.959 . S
C784 H769 0.959 . S
C784 H770 0.961 . S
C784 C783 1.502 . S
C785 H771 0.960 . S
C785 H772 0.961 . S
C785 H773 0.959 . S
C785 C783 1.561 . S
C786 C783 1.526 . S
C786 C787 1.396 1_545 S
C786 C791 1.390 . S
C787 C781 1.465 1_565 S
C787 C786 1.396 1_565 S
C787 C788 1.399 . S
C788 H774 0.929 . S
C788 C787 1.399 . S
C788 C789 1.385 . S
C789 H775 0.931 . S
C789 C788 1.385 . S
C789 C790 1.389 1_565 S
C790 C789 1.389 1_545 S
C790 C791 1.387 . S
C791 H776 0.930 . S
C791 C786 1.390 . S
C791 C790 1.387 . S
H792 C804 0.930 . S
H793 C806 0.930 . S
H794 C807 0.930 . S
H795 C811 0.959 . S
H796 C811 0.959 . S
H797 C811 0.961 . S
H798 C812 0.960 . S
H799 C812 0.961 . S
H800 C812 0.959 . S
H801 C815 0.929 . S
H802 C816 0.931 . S
H803 C818 0.930 . S
C804 H792 0.930 . S
C804 C805 1.399 . S
C804 C809 1.399 . S
C805 C804 1.399 . S
C805 C806 1.376 . S
C806 H793 0.930 . S
C806 C805 1.376 . S
C806 C807 1.388 . S
C807 H794 0.930 . S
C807 C806 1.388 . S
C807 C808 1.390 . S
C808 C807 1.390 . S
C808 C809 1.394 . S
C808 C814 1.465 . S
C809 C804 1.399 . S
C809 C808 1.394 . S
C809 C810 1.516 . S
C810 C809 1.516 . S
C810 C811 1.502 . S
C810 C812 1.561 . S
C810 C813 1.526 . S
C811 H795 0.959 . S
C811 H796 0.959 . S
C811 H797 0.961 . S
C811 C810 1.502 . S
C812 H798 0.960 . S
C812 H799 0.961 . S
C812 H800 0.959 . S
C812 C810 1.561 . S
C813 C810 1.526 . S
C813 C814 1.396 . S
C813 C818 1.390 . S
C814 C808 1.465 . S
C814 C813 1.396 . S
C814 C815 1.399 . S
C815 H801 0.929 . S
C815 C814 1.399 . S
C815 C816 1.385 . S
C816 H802 0.931 . S
C816 C815 1.385 . S
C816 C817 1.389 . S
C817 C816 1.389 . S
C817 C818 1.387 . S
C818 H803 0.930 . S
C818 C813 1.390 . S
C818 C817 1.387 . S
H819 C831 0.930 . S
H820 C833 0.930 . S
H821 C834 0.930 . S
H822 C838 0.959 . S
H823 C838 0.959 . S
H824 C838 0.961 . S
H825 C839 0.960 . S
H826 C839 0.961 . S
H827 C839 0.959 . S
H828 C842 0.929 . S
H829 C843 0.931 1_655 S
H830 C845 0.930 . S
C831 H819 0.930 . S
C831 C832 1.399 . S
C831 C836 1.399 . S
C832 C831 1.399 . S
C832 C833 1.376 1_455 S
C833 H820 0.930 . S
C833 C832 1.376 1_655 S
C833 C834 1.388 . S
C834 H821 0.930 . S
C834 C833 1.388 . S
C834 C835 1.390 1_655 S
C835 C834 1.390 1_455 S
C835 C836 1.394 . S
C835 C841 1.465 . S
C836 C831 1.399 . S
C836 C835 1.394 . S
C836 C837 1.516 . S
C837 C836 1.516 . S
C837 C838 1.502 . S
C837 C839 1.561 . S
C837 C840 1.526 . S
C838 H822 0.959 . S
C838 H823 0.959 . S
C838 H824 0.961 . S
C838 C837 1.502 . S
C839 H825 0.960 . S
C839 H826 0.961 . S
C839 H827 0.959 . S
C839 C837 1.561 . S
C840 C837 1.526 . S
C840 C841 1.396 . S
C840 C845 1.390 . S
C841 C835 1.465 . S
C841 C840 1.396 . S
C841 C842 1.399 1_455 S
C842 H828 0.929 . S
C842 C841 1.399 1_655 S
C842 C843 1.385 1_655 S
C843 H829 0.931 1_455 S
C843 C842 1.385 1_455 S
C843 C844 1.389 . S
C844 C843 1.389 . S
C844 C845 1.387 . S
C845 H830 0.930 . S
C845 C840 1.390 . S
C845 C844 1.387 . S
C373 C19 3.042 . S
C385 C335 2.981 . S
C400 C49 3.117 . S
C412 C242 3.092 . S
C427 C99 3.026 . S
C439 C282 2.987 . S
C454 C9 3.127 . S
C466 C322 3.074 . S
C493 C255 3.019 . S
C481 C59 3.061 . S
C520 C295 3.064 . S
C508 C89 3.142 . S
C535 C55 0.349 . S
C547 C162 0.380 . S
C562 C85 0.306 . S
C574 C202 0.270 . S
C589 C15 0.355 . S
C601 C135 0.366 . S
C628 C175 0.228 . S
C616 C45 0.346 . S
C655 C215 0.409 . S
C643 C95 0.345 . S
C670 C5 0.469 . S
C682 C122 0.294 . S
C709 C221 1.090 . S
C697 C18 1.107 . S
C724 C58 1.117 . S
C736 C141 1.084 . S
C751 C98 1.038 . S
C763 C181 1.044 . S
C790 C301 1.763 . S
C778 C48 1.684 . S
C817 C341 1.779 1_556 S
C805 C88 1.659 . S
C832 C8 1.685 . S
C844 C261 1.765 . S
