# Generated by pormake.
# Topology pto, (3,4)-cn, num edge types: 1
# Building blocks:
#     Node 0, Type 0, BuildingBlock: OLANEW_clean_sbu_2, # of connection points: 3
#     Node 1, Type 0, BuildingBlock: OLANEW_clean_sbu_2, # of connection points: 3
#     Node 2, Type 0, BuildingBlock: OLANEW_clean_sbu_2, # of connection points: 3
#     Node 3, Type 0, BuildingBlock: OLANEW_clean_sbu_2, # of connection points: 3
#     Node 4, Type 0, BuildingBlock: OLANEW_clean_sbu_2, # of connection points: 3
#     Node 5, Type 0, BuildingBlock: OLANEW_clean_sbu_2, # of connection points: 3
#     Node 6, Type 0, BuildingBlock: OLANEW_clean_sbu_2, # of connection points: 3
#     Node 7, Type 0, BuildingBlock: OLANEW_clean_sbu_2, # of connection points: 3
#     Node 8, Type 1, BuildingBlock: NAWXER_clean_sbu_0, # of connection points: 4
#     Node 9, Type 1, BuildingBlock: NAWXER_clean_sbu_0, # of connection points: 4
#     Node 10, Type 1, BuildingBlock: NAWXER_clean_sbu_0, # of connection points: 4
#     Node 11, Type 1, BuildingBlock: NAWXER_clean_sbu_0, # of connection points: 4
#     Node 12, Type 1, BuildingBlock: NAWXER_clean_sbu_0, # of connection points: 4
#     Node 13, Type 1, BuildingBlock: NAWXER_clean_sbu_0, # of connection points: 4
#     Edge 14, Type (0, 1), BuildingBlock: XUDNAN_clean_linker_2, # of connection points: 2
#     Edge 15, Type (0, 1), BuildingBlock: XUDNAN_clean_linker_2, # of connection points: 2
#     Edge 16, Type (0, 1), BuildingBlock: XUDNAN_clean_linker_2, # of connection points: 2
#     Edge 17, Type (0, 1), BuildingBlock: XUDNAN_clean_linker_2, # of connection points: 2
#     Edge 18, Type (0, 1), BuildingBlock: XUDNAN_clean_linker_2, # of connection points: 2
#     Edge 19, Type (0, 1), BuildingBlock: XUDNAN_clean_linker_2, # of connection points: 2
#     Edge 20, Type (0, 1), BuildingBlock: XUDNAN_clean_linker_2, # of connection points: 2
#     Edge 21, Type (0, 1), BuildingBlock: XUDNAN_clean_linker_2, # of connection points: 2
#     Edge 22, Type (0, 1), BuildingBlock: XUDNAN_clean_linker_2, # of connection points: 2
#     Edge 23, Type (0, 1), BuildingBlock: XUDNAN_clean_linker_2, # of connection points: 2
#     Edge 24, Type (0, 1), BuildingBlock: XUDNAN_clean_linker_2, # of connection points: 2
#     Edge 25, Type (0, 1), BuildingBlock: XUDNAN_clean_linker_2, # of connection points: 2
#     Edge 26, Type (0, 1), BuildingBlock: XUDNAN_clean_linker_2, # of connection points: 2
#     Edge 27, Type (0, 1), BuildingBlock: XUDNAN_clean_linker_2, # of connection points: 2
#     Edge 28, Type (0, 1), BuildingBlock: XUDNAN_clean_linker_2, # of connection points: 2
#     Edge 29, Type (0, 1), BuildingBlock: XUDNAN_clean_linker_2, # of connection points: 2
#     Edge 30, Type (0, 1), BuildingBlock: XUDNAN_clean_linker_2, # of connection points: 2
#     Edge 31, Type (0, 1), BuildingBlock: XUDNAN_clean_linker_2, # of connection points: 2
#     Edge 32, Type (0, 1), BuildingBlock: XUDNAN_clean_linker_2, # of connection points: 2
#     Edge 33, Type (0, 1), BuildingBlock: XUDNAN_clean_linker_2, # of connection points: 2
#     Edge 34, Type (0, 1), BuildingBlock: XUDNAN_clean_linker_2, # of connection points: 2
#     Edge 35, Type (0, 1), BuildingBlock: XUDNAN_clean_linker_2, # of connection points: 2
#     Edge 36, Type (0, 1), BuildingBlock: XUDNAN_clean_linker_2, # of connection points: 2
#     Edge 37, Type (0, 1), BuildingBlock: XUDNAN_clean_linker_2, # of connection points: 2
# Relax obj value: 0.012
# Max RMSD: 0.129
# Mean RMSD: 0.056
data_MOF--net-pto--node1-OLANEW_clean_sbu_2--node2-NAWXER_clean_sbu_0--edge1-XUDNAN_clean_linker_2
_symmetry_space_group_name_H-M    P1
_symmetry_Int_Tables_number       1
_symmetry_cell_setting            triclinic
loop_
_symmetry_equiv_pos_as_xyz
'x, y, z'
_cell_length_a     44.752275
_cell_length_b     44.185504
_cell_length_c     40.450648
_cell_angle_alpha  93.041161
_cell_angle_beta   90.378658
_cell_angle_gamma 103.36285
loop_
_atom_site_label
_atom_site_type_symbol
_atom_site_fract_x
_atom_site_fract_y
_atom_site_fract_z
_atom_type_partial_charge
O0 O 0.35047 0.44048 0.24639 0.0
Cd1 Cd 0.31249 0.42222 0.28842 0.0
O2 O 0.32396 0.41295 0.20446 0.0
Cd3 Cd 0.28041 0.40082 0.23012 0.0
O4 O 0.23178 0.40165 0.22767 0.0
C5 C 0.21735 0.39113 0.20074 0.0
O6 O 0.23174 0.37872 0.17734 0.0
C7 C 0.34852 0.43111 0.21603 0.0
C8 C 0.3336 0.38171 0.32871 0.0
O9 O 0.31379 0.37103 0.30545 0.0
O10 O 0.34306 0.41131 0.33315 0.0
O11 O 0.35562 0.91846 0.79103 0.0
Cd12 Cd 0.33193 0.93322 0.74163 0.0
O13 O 0.32218 0.87506 0.77839 0.0
Cd14 Cd 0.29536 0.82671 0.77643 0.0
O15 O 0.26006 0.78416 0.76438 0.0
C16 C 0.23559 0.7785 0.781 0.0
O17 O 0.2326 0.79787 0.80588 0.0
C18 C 0.34377 0.89044 0.79749 0.0
C19 C 0.36186 0.98742 0.7125 0.0
O20 O 0.34042 0.98774 0.73329 0.0
O21 O 0.36997 0.96171 0.70646 0.0
O22 O 0.85067 0.79578 0.24558 0.0
Cd23 Cd 0.83334 0.76725 0.19261 0.0
O24 O 0.80268 0.79667 0.25608 0.0
Cd25 Cd 0.78298 0.7826 0.20668 0.0
O26 O 0.75199 0.79381 0.16977 0.0
C27 C 0.72358 0.78061 0.16984 0.0
O28 O 0.71388 0.75863 0.1905 0.0
C29 C 0.83073 0.8022 0.26534 0.0
C30 C 0.86256 0.71908 0.17675 0.0
O31 O 0.87089 0.74543 0.16365 0.0
O32 O 0.84067 0.71557 0.19749 0.0
O33 O 0.81097 0.30967 0.6986 0.0
Cd34 Cd 0.77167 0.26236 0.68336 0.0
O35 O 0.77414 0.32274 0.72719 0.0
Cd36 Cd 0.75219 0.35229 0.75957 0.0
O37 O 0.72385 0.37398 0.79283 0.0
C38 C 0.72709 0.40332 0.79669 0.0
O39 O 0.74851 0.42175 0.78031 0.0
C40 C 0.80212 0.3288 0.71862 0.0
C41 C 0.79393 0.2122 0.65764 0.0
O42 O 0.78309 0.2294 0.63845 0.0
O43 O 0.79478 0.21902 0.68887 0.0
O44 O 0.73163 0.7516 0.71109 0.0
Cd45 Cd 0.73073 0.71804 0.75757 0.0
O46 O 0.74821 0.79541 0.74095 0.0
Cd47 Cd 0.73408 0.77159 0.78628 0.0
O48 O 0.69996 0.75948 0.82486 0.0
C49 C 0.67819 0.73514 0.82228 0.0
O50 O 0.67715 0.71534 0.79666 0.0
C51 C 0.74155 0.78104 0.71286 0.0
C52 C 0.7817 0.69149 0.75657 0.0
O53 O 0.75774 0.67991 0.73851 0.0
O54 O 0.78164 0.71562 0.77558 0.0
O55 O 0.80879 0.27388 0.28246 0.0
Cd56 Cd 0.76612 0.22836 0.28667 0.0
O57 O 0.77054 0.29509 0.27155 0.0
Cd58 Cd 0.75046 0.33246 0.25531 0.0
O59 O 0.72414 0.35739 0.22561 0.0
C60 C 0.70376 0.34132 0.20566 0.0
O61 O 0.69928 0.31082 0.20426 0.0
C62 C 0.79919 0.29785 0.27598 0.0
C63 C 0.77925 0.17538 0.31194 0.0
O64 O 0.77732 0.17793 0.28062 0.0
O65 O 0.77598 0.19829 0.33126 0.0
O66 O 0.25482 0.3857 0.92648 0.0
Cd67 Cd 0.19845 0.373 0.92436 0.0
O68 O 0.25595 0.37761 0.87256 0.0
Cd69 Cd 0.27919 0.36975 0.82655 0.0
O70 O 0.29942 0.35454 0.78142 0.0
C71 C 0.28273 0.33389 0.76188 0.0
O72 O 0.25385 0.32282 0.76927 0.0
C73 C 0.27011 0.38423 0.9003 0.0
C74 C 0.16944 0.42177 0.91563 0.0
O75 O 0.17628 0.41489 0.94469 0.0
O76 O 0.17722 0.40627 0.89076 0.0
O77 O 0.33199 0.90157 0.2281 0.0
Cd78 Cd 0.2952 0.93295 0.24369 0.0
O79 O 0.29457 0.85994 0.22951 0.0
Cd80 Cd 0.26908 0.81169 0.2191 0.0
O81 O 0.2382 0.76596 0.2089 0.0
C82 C 0.22057 0.75288 0.2311 0.0
O83 O 0.22154 0.76694 0.26066 0.0
C84 C 0.32235 0.87227 0.22288 0.0
C85 C 0.30196 0.96641 0.30479 0.0
O86 O 0.28437 0.93902 0.30123 0.0
O87 O 0.31744 0.97745 0.27981 0.0
C88 C 0.96268 0.48225 0.23841 0.0
C89 C 0.0512 0.56574 0.21557 0.0
O90 O 0.97864 0.5025 0.25885 0.0
Zn91 Zn 0.00658 0.52468 0.22748 0.0
O92 O 0.96872 0.48296 0.20748 0.0
Zn93 Zn 0.00101 0.51136 0.17623 0.0
O94 O 0.02161 0.48154 0.15614 0.0
O95 O 0.03208 0.49135 0.20961 0.0
O96 O 0.03913 0.54976 0.18943 0.0
O97 O 0.0393 0.55929 0.24355 0.0
O98 O 0.97788 0.54789 0.20074 0.0
O99 O 0.97611 0.53065 0.14842 0.0
C100 C 0.03588 0.47704 0.18204 0.0
C101 C 0.96829 0.54833 0.17089 0.0
C102 C 0.96668 0.51556 0.77101 0.0
C103 C 0.05141 0.60681 0.7625 0.0
O104 O 0.96983 0.53457 0.7966 0.0
Zn105 Zn 0.99905 0.57858 0.81374 0.0
O106 O 0.98494 0.52169 0.74704 0.0
Zn107 Zn 0.00881 0.56104 0.76596 0.0
O108 O 0.03246 0.5467 0.80646 0.0
O109 O 0.01852 0.56755 0.85291 0.0
O110 O 0.04218 0.58449 0.74102 0.0
O111 O 0.03721 0.60716 0.7899 0.0
O112 O 0.96986 0.60499 0.81828 0.0
O113 O 0.97522 0.58866 0.76667 0.0
C114 C 0.03434 0.55067 0.83811 0.0
C115 C 0.9622 0.60379 0.78782 0.0
C116 C 0.38152 0.15165 0.55905 0.0
C117 C 0.37061 0.22332 0.47467 0.0
O118 O 0.35349 0.15278 0.55394 0.0
Zn119 Zn 0.32815 0.17552 0.52181 0.0
O120 O 0.40258 0.16748 0.54189 0.0
Zn121 Zn 0.37607 0.18659 0.51612 0.0
O122 O 0.35885 0.21486 0.55356 0.0
O123 O 0.30842 0.19803 0.55329 0.0
O124 O 0.39496 0.21692 0.4856 0.0
O125 O 0.34449 0.20942 0.48571 0.0
O126 O 0.30249 0.14096 0.49694 0.0
O127 O 0.35144 0.14749 0.48473 0.0
C128 C 0.3326 0.21658 0.56513 0.0
C129 C 0.3234 0.13237 0.48047 0.0
C130 C 0.54659 0.82184 0.05104 0.0
C131 C 0.4634 0.82549 0.97402 0.0
O132 O 0.52688 0.79567 0.04716 0.0
Zn133 Zn 0.48457 0.77653 0.01978 0.0
O134 O 0.54218 0.84534 0.03657 0.0
Zn135 Zn 0.50465 0.82438 0.0136 0.0
O136 O 0.47213 0.81564 0.05265 0.0
O137 O 0.4552 0.76477 0.05451 0.0
O138 O 0.4863 0.84725 0.98313 0.0
O139 O 0.46025 0.79859 0.98587 0.0
O140 O 0.49641 0.74429 0.99155 0.0
O141 O 0.52144 0.79208 0.98176 0.0
C142 C 0.45498 0.79213 0.06578 0.0
C143 C 0.51694 0.76258 0.97586 0.0
C144 C 0.7736 0.92921 0.53657 0.0
C145 C 0.78851 0.00279 0.44994 0.0
O146 O 0.75391 0.93609 0.51742 0.0
Zn147 Zn 0.78144 0.96653 0.49332 0.0
O148 O 0.80203 0.94308 0.5346 0.0
Zn149 Zn 0.82894 0.9779 0.50437 0.0
O150 O 0.84667 0.01094 0.53654 0.0
O151 O 0.79691 0.00609 0.52796 0.0
O152 O 0.81394 0.00325 0.4651 0.0
O153 O 0.76389 0.9842 0.45802 0.0
O154 O 0.8075 0.9392 0.46612 0.0
O155 O 0.85618 0.95572 0.48122 0.0
C156 C 0.82236 0.02038 0.54222 0.0
C157 C 0.83552 0.93729 0.46348 0.0
C158 C 0.56739 0.40325 0.04372 0.0
C159 C 0.48461 0.40251 0.96443 0.0
O160 O 0.54815 0.37968 0.03095 0.0
Zn161 Zn 0.5269 0.40203 0.00247 0.0
O162 O 0.56681 0.43053 0.03479 0.0
Zn163 Zn 0.5407 0.45151 0.00194 0.0
O164 O 0.52374 0.47783 0.03318 0.0
O165 O 0.50493 0.42734 0.03728 0.0
O166 O 0.50106 0.43005 0.97125 0.0
O167 O 0.49167 0.37921 0.97686 0.0
O168 O 0.56065 0.41906 0.9665 0.0
O169 O 0.57099 0.47041 0.97071 0.0
C170 C 0.50547 0.45561 0.0466 0.0
C171 C 0.57571 0.44542 0.95702 0.0
H172 H 0.18336 0.42166 0.24111 0.0
H173 H 0.18126 0.37222 0.14514 0.0
H174 H 0.13196 0.38505 0.13159 0.0
H175 H 0.09949 0.40059 0.2546 0.0
H176 H 0.09964 0.43833 0.27395 0.0
H177 H 0.13301 0.42231 0.27748 0.0
H178 H 0.16655 0.47186 0.25339 0.0
H179 H 0.13332 0.48792 0.24964 0.0
H180 H 0.15609 0.48379 0.21383 0.0
H181 H 0.08574 0.40796 0.12615 0.0
H182 H 0.04552 0.43801 0.13008 0.0
H183 H 0.07753 0.47165 0.22984 0.0
C184 C 0.17224 0.41296 0.21752 0.0
C185 C 0.18618 0.39587 0.19423 0.0
C186 C 0.17102 0.38528 0.16345 0.0
C187 C 0.14296 0.39241 0.15552 0.0
C188 C 0.13021 0.40993 0.17872 0.0
C189 C 0.14422 0.41983 0.20921 0.0
C190 C 0.12672 0.43992 0.22893 0.0
C191 C 0.11395 0.42435 0.26062 0.0
C192 C 0.14687 0.47281 0.2369 0.0
C193 C 0.10117 0.44046 0.20443 0.0
C194 C 0.10342 0.42286 0.17569 0.0
C195 C 0.08346 0.42143 0.14873 0.0
C196 C 0.06074 0.43864 0.15115 0.0
C197 C 0.05822 0.45701 0.18033 0.0
C198 C 0.07853 0.45749 0.20736 0.0
H199 H 0.1824 0.75748 0.8144 0.0
H200 H 0.23152 0.73764 0.7267 0.0
H201 H 0.18873 0.69271 0.7109 0.0
H202 H 0.15194 0.67817 0.83289 0.0
H203 H 0.11581 0.68493 0.84706 0.0
H204 H 0.14998 0.71589 0.85077 0.0
H205 H 0.12281 0.75101 0.81791 0.0
H206 H 0.08861 0.72007 0.81394 0.0
H207 H 0.10642 0.73739 0.77748 0.0
H208 H 0.14031 0.64954 0.70495 0.0
H209 H 0.09155 0.61035 0.71086 0.0
H210 H 0.07497 0.6587 0.80274 0.0
C211 C 0.18419 0.74377 0.79182 0.0
C212 C 0.21031 0.75115 0.77176 0.0
C213 C 0.21176 0.73244 0.7425 0.0
C214 C 0.18752 0.70692 0.73326 0.0
C215 C 0.16205 0.70039 0.75356 0.0
C216 C 0.16033 0.7182 0.78232 0.0
C217 C 0.13084 0.70585 0.80028 0.0
C218 C 0.13756 0.6956 0.83478 0.0
C219 C 0.111 0.73002 0.80252 0.0
C220 C 0.11628 0.67821 0.77724 0.0
C221 C 0.13448 0.67551 0.7503 0.0
C222 C 0.12585 0.65146 0.72592 0.0
C223 C 0.09808 0.62936 0.72944 0.0
C224 C 0.0794 0.63142 0.75723 0.0
C225 C 0.08863 0.65643 0.78115 0.0
H226 H 0.86903 0.6722 0.2156 0.0
H227 H 0.89082 0.70856 0.11897 0.0
H228 H 0.91633 0.66559 0.1048 0.0
H229 H 0.94074 0.65306 0.22868 0.0
H230 H 0.9249 0.61864 0.25052 0.0
H231 H 0.90586 0.65035 0.25155 0.0
H232 H 0.85567 0.61253 0.22937 0.0
H233 H 0.87465 0.58071 0.22808 0.0
H234 H 0.85618 0.58957 0.19127 0.0
H235 H 0.93988 0.61858 0.10157 0.0
H236 H 0.9651 0.57556 0.11206 0.0
H237 H 0.93097 0.57276 0.21222 0.0
C238 C 0.87885 0.67086 0.19131 0.0
C239 C 0.87771 0.69342 0.1682 0.0
C240 C 0.89142 0.6914 0.13696 0.0
C241 C 0.90577 0.667 0.12864 0.0
C242 C 0.90655 0.6451 0.15203 0.0
C243 C 0.89381 0.64709 0.1829 0.0
C244 C 0.89998 0.62225 0.2046 0.0
C245 C 0.91901 0.63696 0.23566 0.0
C246 C 0.86982 0.59995 0.21386 0.0
C247 C 0.91839 0.60612 0.18125 0.0
C248 C 0.92142 0.61919 0.1508 0.0
C249 C 0.93766 0.60818 0.12532 0.0
C250 C 0.95176 0.58367 0.13142 0.0
C251 C 0.95 0.57095 0.16293 0.0
C252 C 0.93273 0.58211 0.1879 0.0
H253 H 0.85203 0.36342 0.68802 0.0
H254 H 0.80299 0.35682 0.78049 0.0
H255 H 0.83984 0.40363 0.80364 0.0
H256 H 0.92806 0.38789 0.72455 0.0
H257 H 0.94274 0.41424 0.69284 0.0
H258 H 0.91213 0.38046 0.68306 0.0
H259 H 0.87835 0.41574 0.66118 0.0
H260 H 0.90891 0.4496 0.67076 0.0
H261 H 0.87135 0.4474 0.68766 0.0
H262 H 0.88191 0.45048 0.81704 0.0
H263 H 0.92612 0.49561 0.81969 0.0
H264 H 0.94897 0.47204 0.71879 0.0
C265 C 0.84906 0.37195 0.7131 0.0
C266 C 0.82415 0.35704 0.73218 0.0
C267 C 0.82112 0.36862 0.76498 0.0
C268 C 0.84221 0.39494 0.77851 0.0
C269 C 0.86633 0.40928 0.75898 0.0
C270 C 0.86991 0.3983 0.72698 0.0
C271 C 0.89787 0.41823 0.71136 0.0
C272 C 0.9216 0.39905 0.70243 0.0
C273 C 0.88855 0.43366 0.68094 0.0
C274 C 0.90943 0.44207 0.73963 0.0
C275 C 0.89089 0.43636 0.76685 0.0
C276 C 0.89663 0.45522 0.7959 0.0
C277 C 0.92185 0.48082 0.79713 0.0
C278 C 0.94109 0.48742 0.76946 0.0
C279 C 0.93481 0.46758 0.74041 0.0
H280 H 0.30401 0.32336 0.34608 0.0
H281 H 0.38989 0.39279 0.35909 0.0
H282 H 0.41012 0.35792 0.39455 0.0
H283 H 0.30047 0.30141 0.42964 0.0
H284 H 0.28355 0.26081 0.41951 0.0
H285 H 0.2769 0.28994 0.39273 0.0
H286 H 0.29765 0.26184 0.34316 0.0
H287 H 0.30447 0.23266 0.36986 0.0
H288 H 0.33542 0.25419 0.34614 0.0
H289 H 0.42095 0.3156 0.42864 0.0
H290 H 0.4196 0.27145 0.46408 0.0
H291 H 0.32527 0.23133 0.43238 0.0
C292 C 0.32719 0.33101 0.35611 0.0
C293 C 0.34555 0.3606 0.34965 0.0
C294 C 0.37551 0.37016 0.36375 0.0
C295 C 0.38724 0.35047 0.38374 0.0
C296 C 0.36854 0.32147 0.38977 0.0
C297 C 0.33901 0.31191 0.37674 0.0
C298 C 0.32286 0.28067 0.38915 0.0
C299 C 0.29426 0.28339 0.40894 0.0
C300 C 0.31462 0.25588 0.36036 0.0
C301 C 0.34784 0.27428 0.41135 0.0
C302 C 0.3742 0.29781 0.41085 0.0
C303 C 0.40042 0.29705 0.42929 0.0
C304 C 0.39947 0.27184 0.44924 0.0
C305 C 0.37232 0.24805 0.45105 0.0
C306 C 0.34632 0.24924 0.43158 0.0
H307 H 0.39873 0.91176 0.8306 0.0
H308 H 0.31557 0.8381 0.82954 0.0
H309 H 0.33706 0.81371 0.87451 0.0
H310 H 0.45184 0.86558 0.8468 0.0
H311 H 0.4761 0.8946 0.8743 0.0
H312 H 0.45408 0.90637 0.84199 0.0
H313 H 0.42897 0.93738 0.88549 0.0
H314 H 0.45099 0.92576 0.91794 0.0
H315 H 0.40971 0.91783 0.92011 0.0
H316 H 0.36855 0.7962 0.91818 0.0
H317 H 0.40666 0.78812 0.95914 0.0
H318 H 0.46829 0.8747 0.93393 0.0
C319 C 0.38494 0.89055 0.83987 0.0
C320 C 0.35575 0.87635 0.82571 0.0
C321 C 0.33842 0.84877 0.83885 0.0
C322 C 0.35031 0.83494 0.86479 0.0
C323 C 0.37939 0.84923 0.87768 0.0
C324 C 0.39635 0.8766 0.86592 0.0
C325 C 0.42696 0.88731 0.8842 0.0
C326 C 0.45383 0.88852 0.8604 0.0
C327 C 0.42928 0.91894 0.90306 0.0
C328 C 0.42473 0.86143 0.9078 0.0
C329 C 0.39711 0.83969 0.90361 0.0
C330 C 0.39015 0.81319 0.92186 0.0
C331 C 0.412 0.80877 0.945 0.0
C332 C 0.44042 0.83083 0.94985 0.0
C333 C 0.44669 0.85756 0.93103 0.0
H334 H 0.79246 0.81161 0.3148 0.0
H335 H 0.88891 0.82973 0.29002 0.0
H336 H 0.90204 0.86233 0.3422 0.0
H337 H 0.79237 0.88584 0.34388 0.0
H338 H 0.76545 0.8745 0.37643 0.0
H339 H 0.76451 0.84908 0.34009 0.0
H340 H 0.77084 0.80437 0.37661 0.0
H341 H 0.77161 0.82967 0.4132 0.0
H342 H 0.80269 0.81069 0.40567 0.0
H343 H 0.90331 0.89829 0.39439 0.0
H344 H 0.89259 0.93317 0.44065 0.0
H345 H 0.79526 0.89041 0.42942 0.0
C346 C 0.81648 0.82184 0.32057 0.0
C347 C 0.83968 0.8181 0.29831 0.0
C348 C 0.87077 0.83209 0.3068 0.0
C349 C 0.8784 0.85065 0.33639 0.0
C350 C 0.85472 0.85461 0.35729 0.0
C351 C 0.82441 0.84026 0.34978 0.0
C352 C 0.80283 0.84994 0.37458 0.0
C353 C 0.77997 0.86578 0.35773 0.0
C354 C 0.78601 0.822 0.39365 0.0
C355 C 0.82555 0.87286 0.39672 0.0
C356 C 0.85544 0.87507 0.38681 0.0
C357 C 0.88002 0.89635 0.40262 0.0
C358 C 0.87373 0.91607 0.42885 0.0
C359 C 0.8431 0.91452 0.43865 0.0
C360 C 0.81896 0.89217 0.42265 0.0
H361 H 0.68046 0.37119 0.83365 0.0
H362 H 0.72745 0.46495 0.81074 0.0
H363 H 0.69311 0.48636 0.84832 0.0
H364 H 0.60444 0.38487 0.8379 0.0
H365 H 0.59342 0.35993 0.87173 0.0
H366 H 0.62156 0.3522 0.84284 0.0
H367 H 0.66031 0.35413 0.89129 0.0
H368 H 0.63226 0.36177 0.92032 0.0
H369 H 0.66958 0.38809 0.91951 0.0
H370 H 0.65353 0.49735 0.88937 0.0
H371 H 0.61277 0.49681 0.93057 0.0
H372 H 0.59226 0.39569 0.92555 0.0
C373 C 0.68358 0.39625 0.83643 0.0
C374 C 0.70667 0.41638 0.8192 0.0
C375 C 0.70992 0.44903 0.82366 0.0
C376 C 0.6905 0.46142 0.84493 0.0
C377 C 0.66794 0.44085 0.8615 0.0
C378 C 0.66446 0.40895 0.85747 0.0
C379 C 0.63873 0.39179 0.87829 0.0
C380 C 0.61302 0.37098 0.85637 0.0
C381 C 0.65096 0.37284 0.90387 0.0
C382 C 0.62829 0.41898 0.89478 0.0
C383 C 0.64532 0.44712 0.88483 0.0
C384 C 0.64 0.47543 0.89725 0.0
C385 C 0.61678 0.47489 0.92062 0.0
C386 C 0.59923 0.44623 0.93127 0.0
C387 C 0.6051 0.41802 0.91789 0.0
H388 H 0.33727 0.03757 0.7042 0.0
H389 H 0.41489 0.99881 0.677 0.0
H390 H 0.43257 0.04158 0.63959 0.0
H391 H 0.31997 0.05432 0.62582 0.0
H392 H 0.3084 0.08986 0.6372 0.0
H393 H 0.30523 0.06013 0.66646 0.0
H394 H 0.33865 0.09991 0.70902 0.0
H395 H 0.34176 0.12992 0.67989 0.0
H396 H 0.37596 0.12164 0.69738 0.0
H397 H 0.43863 0.08548 0.60073 0.0
H398 H 0.4308 0.12458 0.56187 0.0
H399 H 0.34762 0.13219 0.61273 0.0
C400 C 0.35854 0.03863 0.69121 0.0
C401 C 0.37493 0.01511 0.69378 0.0
C402 C 0.40212 0.01676 0.67557 0.0
C403 C 0.4124 0.04103 0.65436 0.0
C404 C 0.39517 0.06338 0.65161 0.0
C405 C 0.36881 0.06237 0.66961 0.0
C406 C 0.35239 0.08684 0.65942 0.0
C407 C 0.31958 0.07188 0.64645 0.0
C408 C 0.35219 0.11101 0.68814 0.0
C409 C 0.37291 0.10094 0.63198 0.0
C410 C 0.39792 0.08772 0.62836 0.0
C411 C 0.41932 0.09623 0.6036 0.0
C412 C 0.41472 0.11843 0.58166 0.0
C413 C 0.38858 0.13126 0.58429 0.0
C414 C 0.3678 0.12271 0.61013 0.0
H415 H 0.66271 0.75321 0.15821 0.0
H416 H 0.73402 0.83388 0.13564 0.0
H417 H 0.69596 0.85461 0.10489 0.0
H418 H 0.62316 0.74494 0.07903 0.0
H419 H 0.58565 0.7328 0.09657 0.0
H420 H 0.61863 0.72467 0.11686 0.0
H421 H 0.60569 0.75288 0.17088 0.0
H422 H 0.57288 0.76143 0.1506 0.0
H423 H 0.60192 0.79259 0.17006 0.0
H424 H 0.64955 0.8672 0.07779 0.0
H425 H 0.59953 0.86807 0.05194 0.0
H426 H 0.55931 0.77854 0.09139 0.0
C427 C 0.67038 0.77519 0.14672 0.0
C428 C 0.70132 0.79197 0.14942 0.0
C429 C 0.71044 0.82056 0.13383 0.0
C430 C 0.68896 0.83262 0.11646 0.0
C431 C 0.65853 0.8157 0.11471 0.0
C432 C 0.64933 0.78742 0.12907 0.0
C433 C 0.61546 0.77342 0.12285 0.0
C434 C 0.61044 0.74211 0.10262 0.0
C435 C 0.59796 0.76989 0.15555 0.0
C436 C 0.607 0.79828 0.10283 0.0
C437 C 0.63206 0.82262 0.09862 0.0
C438 C 0.62976 0.84823 0.08088 0.0
C439 C 0.60123 0.84861 0.06646 0.0
C440 C 0.57551 0.8234 0.06965 0.0
C441 C 0.5785 0.79819 0.08849 0.0
H442 H 0.77329 0.17655 0.60125 0.0
H443 H 0.83682 0.18513 0.68451 0.0
H444 H 0.85248 0.13768 0.66314 0.0
H445 H 0.7476 0.0941 0.6013 0.0
H446 H 0.74347 0.0884 0.5569 0.0
H447 H 0.73922 0.12439 0.57716 0.0
H448 H 0.78149 0.15541 0.54039 0.0
H449 H 0.78566 0.11944 0.51995 0.0
H450 H 0.81863 0.14607 0.53912 0.0
H451 H 0.86156 0.08948 0.63198 0.0
H452 H 0.86017 0.04194 0.59603 0.0
H453 H 0.78743 0.0628 0.53628 0.0
C454 C 0.79082 0.16866 0.6147 0.0
C455 C 0.80418 0.18463 0.64428 0.0
C456 C 0.82645 0.17323 0.6617 0.0
C457 C 0.83552 0.14639 0.64972 0.0
C458 C 0.8217 0.131 0.6206 0.0
C459 C 0.7996 0.14156 0.60351 0.0
C460 C 0.78684 0.11969 0.57407 0.0
C461 C 0.75223 0.10583 0.57759 0.0
C462 C 0.79357 0.13615 0.54146 0.0
C463 C 0.80519 0.09518 0.57726 0.0
C464 C 0.82553 0.10233 0.60392 0.0
C465 C 0.84556 0.08353 0.61118 0.0
C466 C 0.84466 0.05665 0.59067 0.0
C467 C 0.82344 0.04861 0.56376 0.0
C468 C 0.80351 0.06815 0.55708 0.0
H469 H 0.35723 0.40614 0.15458 0.0
H470 H 0.39889 0.47969 0.22745 0.0
H471 H 0.44207 0.49728 0.18983 0.0
H472 H 0.42625 0.38659 0.12987 0.0
H473 H 0.41447 0.37838 0.08699 0.0
H474 H 0.38608 0.37343 0.11874 0.0
H475 H 0.3586 0.41045 0.08943 0.0
H476 H 0.3873 0.41611 0.0579 0.0
H477 H 0.37968 0.44924 0.08131 0.0
H478 H 0.48132 0.50628 0.14377 0.0
H479 H 0.51527 0.50212 0.09618 0.0
H480 H 0.44819 0.42128 0.05586 0.0
C481 C 0.37527 0.42612 0.16257 0.0
C482 C 0.37461 0.44165 0.19387 0.0
C483 C 0.39894 0.46742 0.20355 0.0
C484 C 0.42345 0.47771 0.18228 0.0
C485 C 0.42334 0.46186 0.15153 0.0
C486 C 0.39998 0.43644 0.14188 0.0
C487 C 0.40604 0.42215 0.10856 0.0
C488 C 0.40836 0.38814 0.11122 0.0
C489 C 0.38143 0.42465 0.08279 0.0
C490 C 0.43676 0.4431 0.10121 0.0
C491 C 0.44619 0.4663 0.12586 0.0
C492 C 0.47413 0.48822 0.12431 0.0
C493 C 0.49317 0.48582 0.09722 0.0
C494 C 0.4843 0.46133 0.07263 0.0
C495 C 0.45556 0.44014 0.07449 0.0
H496 H 0.82682 0.69496 0.80419 0.0
H497 H 0.79728 0.65623 0.7053 0.0
H498 H 0.84202 0.63252 0.70177 0.0
H499 H 0.90933 0.71102 0.79094 0.0
H500 H 0.91814 0.69925 0.83116 0.0
H501 H 0.88491 0.71507 0.82538 0.0
H502 H 0.8502 0.66572 0.8485 0.0
H503 H 0.88331 0.64981 0.85444 0.0
H504 H 0.85095 0.62791 0.82992 0.0
H505 H 0.88927 0.613 0.70863 0.0
H506 H 0.93407 0.5946 0.72706 0.0
H507 H 0.93226 0.64308 0.82307 0.0
C508 C 0.82999 0.68172 0.78172 0.0
C509 C 0.80873 0.67758 0.75489 0.0
C510 C 0.81328 0.65966 0.72611 0.0
C511 C 0.8387 0.64624 0.72382 0.0
C512 C 0.85917 0.65064 0.75067 0.0
C513 C 0.85501 0.66763 0.77923 0.0
C514 C 0.87954 0.66709 0.80517 0.0
C515 C 0.89914 0.70007 0.81365 0.0
C516 C 0.86513 0.65171 0.83634 0.0
C517 C 0.898 0.64701 0.78672 0.0
C518 C 0.88601 0.63823 0.75516 0.0
C519 C 0.89888 0.61969 0.73328 0.0
C520 C 0.92444 0.60943 0.74402 0.0
C521 C 0.93676 0.61735 0.77656 0.0
C522 C 0.92342 0.63663 0.79807 0.0
H523 H 0.8522 0.31225 0.24083 0.0
H524 H 0.79418 0.35209 0.30732 0.0
H525 H 0.83092 0.40345 0.30691 0.0
H526 H 0.92563 0.35664 0.27178 0.0
H527 H 0.94229 0.36194 0.23144 0.0
H528 H 0.91232 0.32799 0.23829 0.0
H529 H 0.87992 0.3414 0.19022 0.0
H530 H 0.90987 0.37528 0.1831 0.0
H531 H 0.8713 0.37931 0.19071 0.0
H532 H 0.87552 0.4496 0.30161 0.0
H533 H 0.92087 0.48939 0.28516 0.0
H534 H 0.9466 0.42097 0.21718 0.0
C535 C 0.84741 0.33185 0.25532 0.0
C536 C 0.82069 0.32842 0.27438 0.0
C537 C 0.81466 0.35449 0.29262 0.0
C538 C 0.83542 0.38361 0.29265 0.0
C539 C 0.8617 0.38632 0.2737 0.0
C540 C 0.86743 0.36133 0.25479 0.0
C541 C 0.8963 0.37101 0.23489 0.0
C542 C 0.92057 0.35334 0.2447 0.0
C543 C 0.88889 0.36649 0.19752 0.0
C544 C 0.90607 0.40523 0.24585 0.0
C545 C 0.88613 0.41347 0.26872 0.0
C546 C 0.89111 0.44353 0.28343 0.0
C547 C 0.91692 0.46589 0.27412 0.0
C548 C 0.93688 0.45817 0.2498 0.0
C549 C 0.93139 0.42747 0.23558 0.0
H550 H 0.14975 0.43966 0.85706 0.0
H551 H 0.14807 0.45738 0.96353 0.0
H552 H 0.11479 0.49406 0.95559 0.0
H553 H 0.15031 0.51887 0.83464 0.0
H554 H 0.12592 0.50554 0.79865 0.0
H555 H 0.15122 0.48242 0.81288 0.0
H556 H 0.10482 0.43519 0.81643 0.0
H557 H 0.07937 0.45819 0.80243 0.0
H558 H 0.07233 0.43927 0.84094 0.0
H559 H 0.07894 0.52674 0.93574 0.0
H560 H 0.04483 0.55318 0.90558 0.0
H561 H 0.07051 0.51347 0.81254 0.0
C562 C 0.14276 0.45155 0.87874 0.0
C563 C 0.15161 0.44568 0.91093 0.0
C564 C 0.14169 0.46157 0.93861 0.0
C565 C 0.12276 0.48244 0.93435 0.0
C566 C 0.11404 0.48727 0.90227 0.0
C567 C 0.12391 0.47239 0.87495 0.0
C568 C 0.11052 0.48071 0.84316 0.0
C569 C 0.13601 0.49791 0.82104 0.0
C570 C 0.09058 0.45161 0.82467 0.0
C571 C 0.09118 0.5022 0.85685 0.0
C572 C 0.09356 0.50589 0.89096 0.0
C573 C 0.07709 0.52417 0.909 0.0
C574 C 0.05772 0.53905 0.89168 0.0
C575 C 0.05496 0.53546 0.85669 0.0
C576 C 0.07208 0.51683 0.83927 0.0
H577 H 0.17838 0.71927 0.27238 0.0
H578 H 0.21214 0.71868 0.17196 0.0
H579 H 0.17363 0.66988 0.15799 0.0
H580 H 0.16206 0.63511 0.28005 0.0
H581 H 0.12785 0.63428 0.30358 0.0
H582 H 0.15897 0.66852 0.30623 0.0
H583 H 0.12158 0.70213 0.28929 0.0
H584 H 0.09039 0.66801 0.2865 0.0
H585 H 0.09924 0.69179 0.25141 0.0
H586 H 0.13032 0.6228 0.15404 0.0
H587 H 0.08525 0.57963 0.16042 0.0
H588 H 0.07944 0.61006 0.26359 0.0
C589 C 0.17786 0.70876 0.24752 0.0
C590 C 0.19832 0.72284 0.22325 0.0
C591 C 0.19676 0.70836 0.19098 0.0
C592 C 0.17498 0.68061 0.1828 0.0
C593 C 0.155 0.66754 0.20719 0.0
C594 C 0.15628 0.681 0.23892 0.0
C595 C 0.13161 0.66248 0.26023 0.0
C596 C 0.14599 0.64932 0.28923 0.0
C597 C 0.10939 0.68229 0.27257 0.0
C598 C 0.116 0.63675 0.23533 0.0
C599 C 0.12997 0.64012 0.20495 0.0
C600 C 0.11929 0.61979 0.17776 0.0
C601 C 0.09359 0.59536 0.18165 0.0
C602 C 0.07877 0.59139 0.21253 0.0
C603 C 0.09033 0.61234 0.23974 0.0
H604 H 0.77965 0.83765 0.701 0.0
H605 H 0.70682 0.76409 0.65651 0.0
H606 H 0.70661 0.79451 0.60709 0.0
H607 H 0.75471 0.90242 0.67081 0.0
H608 H 0.79277 0.92466 0.66251 0.0
H609 H 0.78718 0.89736 0.69469 0.0
H610 H 0.82619 0.86925 0.66712 0.0
H611 H 0.83206 0.89661 0.63498 0.0
H612 H 0.82057 0.8554 0.62428 0.0
H613 H 0.71174 0.83427 0.5644 0.0
H614 H 0.72655 0.87794 0.52761 0.0
H615 H 0.79913 0.92383 0.59724 0.0
C616 C 0.76376 0.82796 0.68078 0.0
C617 C 0.74314 0.7986 0.68259 0.0
C618 C 0.72289 0.78648 0.65554 0.0
C619 C 0.72248 0.80365 0.62746 0.0
C620 C 0.74286 0.83264 0.62656 0.0
C621 C 0.76354 0.84448 0.65218 0.0
C622 C 0.78373 0.87576 0.64434 0.0
C623 C 0.77932 0.90157 0.66959 0.0
C624 C 0.81765 0.87414 0.64257 0.0
C625 C 0.77089 0.87977 0.61051 0.0
C626 C 0.74704 0.85481 0.60097 0.0
C627 C 0.73061 0.85377 0.57139 0.0
C628 C 0.73907 0.87873 0.55077 0.0
C629 C 0.76405 0.90407 0.55955 0.0
C630 C 0.78014 0.90455 0.58981 0.0
H631 H 0.65797 0.31329 0.16104 0.0
H632 H 0.70888 0.40393 0.20077 0.0
H633 H 0.67947 0.42938 0.16361 0.0
H634 H 0.65394 0.33397 0.07685 0.0
H635 H 0.61556 0.31058 0.06935 0.0
H636 H 0.64039 0.2994 0.09928 0.0
H637 H 0.59942 0.29919 0.14429 0.0
H638 H 0.57443 0.31032 0.11449 0.0
H639 H 0.58489 0.33359 0.15257 0.0
H640 H 0.64525 0.44495 0.12179 0.0
H641 H 0.6077 0.44988 0.07883 0.0
H642 H 0.57852 0.34903 0.06644 0.0
C643 C 0.66293 0.3385 0.16201 0.0
C644 C 0.68577 0.35663 0.18383 0.0
C645 C 0.6915 0.38955 0.18429 0.0
C646 C 0.67493 0.40422 0.16326 0.0
C647 C 0.65269 0.38565 0.14198 0.0
C648 C 0.64658 0.35352 0.14124 0.0
C649 C 0.62146 0.339 0.11601 0.0
C650 C 0.63357 0.3196 0.08876 0.0
C651 C 0.59339 0.31937 0.13286 0.0
C652 C 0.61442 0.36801 0.10266 0.0
C653 C 0.63276 0.39465 0.11795 0.0
C654 C 0.63072 0.42427 0.10968 0.0
C655 C 0.60931 0.42679 0.08517 0.0
C656 C 0.5901 0.39984 0.06922 0.0
C657 C 0.5928 0.37008 0.07818 0.0
H658 H 0.25318 0.28887 0.71598 0.0
H659 H 0.34183 0.35107 0.73994 0.0
H660 H 0.36381 0.32931 0.6908 0.0
H661 H 0.28161 0.22324 0.68926 0.0
H662 H 0.25334 0.21054 0.65644 0.0
H663 H 0.24432 0.23204 0.69258 0.0
H664 H 0.23044 0.27299 0.65537 0.0
H665 H 0.23942 0.2516 0.61909 0.0
H666 H 0.2582 0.29213 0.6266 0.0
H667 H 0.3766 0.2991 0.64035 0.0
H668 H 0.37915 0.26299 0.59228 0.0
H669 H 0.28195 0.22101 0.60128 0.0
C670 C 0.27717 0.29813 0.71081 0.0
C671 C 0.29577 0.32172 0.73182 0.0
C672 C 0.3271 0.33304 0.7242 0.0
C673 C 0.3398 0.32084 0.69633 0.0
C674 C 0.32084 0.29744 0.67629 0.0
C675 C 0.29019 0.28626 0.68313 0.0
C676 C 0.27495 0.26046 0.65818 0.0
C677 C 0.26286 0.22976 0.67513 0.0
C678 C 0.24924 0.26987 0.63866 0.0
C679 C 0.3019 0.25865 0.63639 0.0
C680 C 0.32815 0.2802 0.64718 0.0
C681 C 0.35614 0.28227 0.63155 0.0
C682 C 0.35736 0.26162 0.60428 0.0
C683 C 0.33074 0.23923 0.5929 0.0
C684 C 0.30266 0.23801 0.60914 0.0
H685 H 0.36957 0.89431 0.18218 0.0
H686 H 0.32068 0.80939 0.22494 0.0
H687 H 0.35032 0.7792 0.19056 0.0
H688 H 0.37253 0.86361 0.10128 0.0
H689 H 0.41063 0.88607 0.09355 0.0
H690 H 0.38687 0.90093 0.12298 0.0
H691 H 0.42926 0.90661 0.16841 0.0
H692 H 0.45329 0.89196 0.13901 0.0
H693 H 0.44419 0.87332 0.17743 0.0
H694 H 0.38334 0.75806 0.14789 0.0
H695 H 0.41801 0.74841 0.10306 0.0
H696 H 0.44588 0.8479 0.09059 0.0
C697 C 0.36538 0.86942 0.18478 0.0
C698 C 0.3422 0.8541 0.20565 0.0
C699 C 0.33744 0.82149 0.2082 0.0
C700 C 0.35449 0.80421 0.18907 0.0
C701 C 0.37649 0.81998 0.1679 0.0
C702 C 0.38219 0.85195 0.16602 0.0
C703 C 0.40635 0.8634 0.14076 0.0
C704 C 0.3933 0.87943 0.11301 0.0
C705 C 0.43497 0.8851 0.1574 0.0
C706 C 0.413 0.83286 0.12816 0.0
C707 C 0.39571 0.80802 0.14412 0.0
C708 C 0.39722 0.7774 0.13552 0.0
C709 C 0.41691 0.77213 0.10997 0.0
C710 C 0.43478 0.79737 0.09336 0.0
C711 C 0.43277 0.82806 0.10289 0.0
H712 H 0.801 0.16728 0.37356 0.0
H713 H 0.76521 0.11727 0.28115 0.0
H714 H 0.76584 0.06741 0.30573 0.0
H715 H 0.85223 0.11576 0.39328 0.0
H716 H 0.84562 0.11915 0.43709 0.0
H717 H 0.84386 0.15092 0.41155 0.0
H718 H 0.78899 0.15001 0.4322 0.0
H719 H 0.79051 0.11809 0.45749 0.0
H720 H 0.75969 0.11431 0.42754 0.0
H721 H 0.76406 0.02301 0.34256 0.0
H722 H 0.76643 0.9872 0.38716 0.0
H723 H 0.80793 0.06595 0.45377 0.0
C724 C 0.79373 0.14585 0.35837 0.0
C725 C 0.78298 0.14606 0.3255 0.0
C726 C 0.77369 0.11761 0.30634 0.0
C727 C 0.77387 0.08919 0.32011 0.0
C728 C 0.78402 0.08972 0.35282 0.0
C729 C 0.7944 0.11734 0.3715 0.0
C730 C 0.80394 0.11143 0.40614 0.0
C731 C 0.83847 0.12513 0.41237 0.0
C732 C 0.78461 0.12422 0.43237 0.0
C733 C 0.79654 0.07617 0.40428 0.0
C734 C 0.7848 0.06409 0.3734 0.0
C735 C 0.77387 0.03215 0.36659 0.0
C736 C 0.77516 0.01204 0.39198 0.0
C737 C 0.78782 0.02399 0.4234 0.0
C738 C 0.79883 0.05637 0.42957 0.0
H739 H 0.30288 0.36227 0.94668 0.0
H740 H 0.31302 0.41601 0.85918 0.0
H741 H 0.36954 0.42367 0.86356 0.0
H742 H 0.36825 0.40677 0.99169 0.0
H743 H 0.37838 0.37351 0.00869 0.0
H744 H 0.33897 0.37207 0.99802 0.0
H745 H 0.337 0.32231 0.96022 0.0
H746 H 0.37657 0.3239 0.97063 0.0
H747 H 0.36466 0.32316 0.92788 0.0
H748 H 0.42504 0.42953 0.88095 0.0
H749 H 0.47513 0.43026 0.90794 0.0
H750 H 0.42851 0.36867 0.98084 0.0
C751 C 0.31707 0.37557 0.92842 0.0
C752 C 0.30376 0.3885 0.90251 0.0
C753 C 0.32287 0.40561 0.87894 0.0
C754 C 0.35494 0.41015 0.88131 0.0
C755 C 0.36739 0.39696 0.9071 0.0
C756 C 0.34902 0.37973 0.93004 0.0
C757 C 0.36807 0.36801 0.95536 0.0
C758 C 0.36312 0.38087 0.9905 0.0
C759 C 0.36116 0.33222 0.95338 0.0
C760 C 0.40009 0.38188 0.94354 0.0
C761 C 0.39925 0.39868 0.9158 0.0
C762 C 0.426 0.41586 0.90219 0.0
C763 C 0.45429 0.41613 0.91757 0.0
C764 C 0.45555 0.39881 0.94575 0.0
C765 C 0.42815 0.38114 0.95855 0.0
H766 H 0.34367 0.02051 0.32461 0.0
H767 H 0.26096 0.95625 0.35499 0.0
H768 H 0.25812 0.99127 0.40388 0.0
H769 H 0.37541 0.04326 0.40906 0.0
H770 H 0.39121 0.08302 0.3992 0.0
H771 H 0.38759 0.05204 0.36755 0.0
H772 H 0.35596 0.08012 0.33094 0.0
H773 H 0.35918 0.11098 0.36258 0.0
H774 H 0.32182 0.09002 0.34722 0.0
H775 H 0.26125 0.03559 0.44609 0.0
H776 H 0.27352 0.08355 0.48268 0.0
H777 H 0.35589 0.1177 0.42702 0.0
C778 C 0.32522 0.0136 0.34181 0.0
C779 C 0.30249 0.98567 0.33596 0.0
C780 C 0.27871 0.97744 0.35904 0.0
C781 C 0.27683 0.99724 0.38682 0.0
C782 C 0.29918 0.02493 0.39145 0.0
C783 C 0.32326 0.03286 0.36996 0.0
C784 C 0.34417 0.06408 0.3806 0.0
C785 C 0.37651 0.06037 0.38965 0.0
C786 C 0.34533 0.08769 0.35373 0.0
C787 C 0.32765 0.07279 0.41095 0.0
C788 C 0.30166 0.04996 0.41665 0.0
C789 C 0.28178 0.05343 0.44218 0.0
C790 C 0.28882 0.08083 0.46268 0.0
C791 C 0.31571 0.10423 0.45777 0.0
C792 C 0.33535 0.10004 0.43157 0.0
H793 H 0.6677 0.7774 0.87002 0.0
H794 H 0.6302 0.68406 0.8272 0.0
H795 H 0.5853 0.67938 0.86359 0.0
H796 H 0.64139 0.76324 0.95438 0.0
H797 H 0.63305 0.80114 0.9603 0.0
H798 H 0.66326 0.79566 0.93303 0.0
H799 H 0.63739 0.81791 0.88534 0.0
H800 H 0.60703 0.82324 0.91235 0.0
H801 H 0.59795 0.80039 0.87381 0.0
H802 H 0.54313 0.68617 0.90401 0.0
H803 H 0.50772 0.7045 0.94323 0.0
H804 H 0.57299 0.79383 0.95651 0.0
C805 C 0.65035 0.75573 0.86862 0.0
C806 C 0.65258 0.73103 0.84589 0.0
C807 C 0.62905 0.70327 0.84453 0.0
C808 C 0.60347 0.70039 0.86512 0.0
C809 C 0.60175 0.72548 0.88685 0.0
C810 C 0.62466 0.75259 0.88868 0.0
C811 C 0.61679 0.77687 0.91263 0.0
C812 C 0.64 0.78467 0.94182 0.0
C813 C 0.61466 0.80633 0.89496 0.0
C814 C 0.58564 0.75945 0.92362 0.0
C815 C 0.57738 0.7297 0.90894 0.0
C816 C 0.54942 0.70945 0.91564 0.0
C817 C 0.52945 0.72001 0.93788 0.0
C818 C 0.53745 0.75065 0.95261 0.0
C819 C 0.56597 0.77039 0.94533 0.0
loop_
_geom_bond_atom_site_label_1
_geom_bond_atom_site_label_2
_geom_bond_distance
_geom_bond_site_symmetry_2
_ccdc_geom_bond_type
O0 Cd1 2.300 . S
O0 C7 1.275 . S
Cd1 O0 2.300 . S
Cd1 O9 2.381 . S
Cd1 O10 2.378 . S
O2 Cd3 2.385 . S
O2 C7 1.255 . S
Cd3 O2 2.385 . S
Cd3 O4 2.317 . S
O4 Cd3 2.317 . S
O4 C5 1.232 . S
C5 O4 1.232 . S
C5 O6 1.218 . S
O6 C5 1.218 . S
C7 O0 1.275 . S
C7 O2 1.255 . S
C8 O9 1.258 . S
C8 O10 1.256 . S
O9 Cd1 2.381 . S
O9 C8 1.258 . S
O10 Cd1 2.378 . S
O10 C8 1.256 . S
O11 Cd12 2.300 . S
O11 C18 1.275 . S
Cd12 O11 2.300 . S
Cd12 O20 2.381 . S
Cd12 O21 2.378 . S
O13 Cd14 2.385 . S
O13 C18 1.255 . S
Cd14 O13 2.385 . S
Cd14 O15 2.317 . S
O15 Cd14 2.317 . S
O15 C16 1.232 . S
C16 O15 1.232 . S
C16 O17 1.218 . S
O17 C16 1.218 . S
C18 O11 1.275 . S
C18 O13 1.255 . S
C19 O20 1.258 . S
C19 O21 1.256 . S
O20 Cd12 2.381 . S
O20 C19 1.258 . S
O21 Cd12 2.378 . S
O21 C19 1.256 . S
O22 Cd23 2.300 . S
O22 C29 1.275 . S
Cd23 O22 2.300 . S
Cd23 O31 2.381 . S
Cd23 O32 2.378 . S
O24 Cd25 2.385 . S
O24 C29 1.255 . S
Cd25 O24 2.385 . S
Cd25 O26 2.317 . S
O26 Cd25 2.317 . S
O26 C27 1.232 . S
C27 O26 1.232 . S
C27 O28 1.218 . S
O28 C27 1.218 . S
C29 O22 1.275 . S
C29 O24 1.255 . S
C30 O31 1.258 . S
C30 O32 1.256 . S
O31 Cd23 2.381 . S
O31 C30 1.258 . S
O32 Cd23 2.378 . S
O32 C30 1.256 . S
O33 Cd34 2.300 . S
O33 C40 1.275 . S
Cd34 O33 2.300 . S
Cd34 O42 2.381 . S
Cd34 O43 2.378 . S
O35 Cd36 2.385 . S
O35 C40 1.255 . S
Cd36 O35 2.385 . S
Cd36 O37 2.317 . S
O37 Cd36 2.317 . S
O37 C38 1.232 . S
C38 O37 1.232 . S
C38 O39 1.218 . S
O39 C38 1.218 . S
C40 O33 1.275 . S
C40 O35 1.255 . S
C41 O42 1.258 . S
C41 O43 1.256 . S
O42 Cd34 2.381 . S
O42 C41 1.258 . S
O43 Cd34 2.378 . S
O43 C41 1.256 . S
O44 Cd45 2.300 . S
O44 C51 1.275 . S
Cd45 O44 2.300 . S
Cd45 O53 2.381 . S
Cd45 O54 2.378 . S
O46 Cd47 2.385 . S
O46 C51 1.255 . S
Cd47 O46 2.385 . S
Cd47 O48 2.317 . S
O48 Cd47 2.317 . S
O48 C49 1.232 . S
C49 O48 1.232 . S
C49 O50 1.218 . S
O50 C49 1.218 . S
C51 O44 1.275 . S
C51 O46 1.255 . S
C52 O53 1.258 . S
C52 O54 1.256 . S
O53 Cd45 2.381 . S
O53 C52 1.258 . S
O54 Cd45 2.378 . S
O54 C52 1.256 . S
O55 Cd56 2.300 . S
O55 C62 1.275 . S
Cd56 O55 2.300 . S
Cd56 O64 2.381 . S
Cd56 O65 2.378 . S
O57 Cd58 2.385 . S
O57 C62 1.255 . S
Cd58 O57 2.385 . S
Cd58 O59 2.317 . S
O59 Cd58 2.317 . S
O59 C60 1.232 . S
C60 O59 1.232 . S
C60 O61 1.218 . S
O61 C60 1.218 . S
C62 O55 1.275 . S
C62 O57 1.255 . S
C63 O64 1.258 . S
C63 O65 1.256 . S
O64 Cd56 2.381 . S
O64 C63 1.258 . S
O65 Cd56 2.378 . S
O65 C63 1.256 . S
O66 Cd67 2.300 . S
O66 C73 1.275 . S
Cd67 O66 2.300 . S
Cd67 O75 2.381 . S
Cd67 O76 2.378 . S
O68 Cd69 2.385 . S
O68 C73 1.255 . S
Cd69 O68 2.385 . S
Cd69 O70 2.317 . S
O70 Cd69 2.317 . S
O70 C71 1.232 . S
C71 O70 1.232 . S
C71 O72 1.218 . S
O72 C71 1.218 . S
C73 O66 1.275 . S
C73 O68 1.255 . S
C74 O75 1.258 . S
C74 O76 1.256 . S
O75 Cd67 2.381 . S
O75 C74 1.258 . S
O76 Cd67 2.378 . S
O76 C74 1.256 . S
O77 Cd78 2.300 . S
O77 C84 1.275 . S
Cd78 O77 2.300 . S
Cd78 O86 2.381 . S
Cd78 O87 2.378 . S
O79 Cd80 2.385 . S
O79 C84 1.255 . S
Cd80 O79 2.385 . S
Cd80 O81 2.317 . S
O81 Cd80 2.317 . S
O81 C82 1.232 . S
C82 O81 1.232 . S
C82 O83 1.218 . S
O83 C82 1.218 . S
C84 O77 1.275 . S
C84 O79 1.255 . S
C85 O86 1.258 . S
C85 O87 1.256 . S
O86 Cd78 2.381 . S
O86 C85 1.258 . S
O87 Cd78 2.378 . S
O87 C85 1.256 . S
C88 O90 1.242 1_655 S
C88 O92 1.258 1_655 S
C89 O96 1.247 . S
C89 O97 1.258 . S
O90 C88 1.242 1_455 S
O90 Zn91 2.037 . S
Zn91 O90 2.037 . S
Zn91 O95 2.035 . S
Zn91 O97 2.035 . S
Zn91 O98 2.028 . S
O92 C88 1.258 1_455 S
O92 Zn93 2.035 . S
Zn93 O92 2.035 . S
Zn93 O94 2.028 . S
Zn93 O96 2.028 . S
Zn93 O99 2.035 . S
O94 Zn93 2.028 . S
O94 C100 1.247 . S
O95 Zn91 2.035 . S
O95 C100 1.258 . S
O96 C89 1.247 . S
O96 Zn93 2.028 . S
O97 C89 1.258 . S
O97 Zn91 2.035 . S
O98 Zn91 2.028 . S
O98 C101 1.247 1_455 S
O99 Zn93 2.035 . S
O99 C101 1.258 1_455 S
C100 O94 1.247 . S
C100 O95 1.258 . S
C101 O98 1.247 1_655 S
C101 O99 1.258 1_655 S
C102 O104 1.247 . S
C102 O106 1.258 . S
C103 O110 1.247 . S
C103 O111 1.258 . S
O104 C102 1.247 . S
O104 Zn105 2.028 1_655 S
Zn105 O104 2.028 1_455 S
Zn105 O109 2.035 . S
Zn105 O111 2.035 . S
Zn105 O112 2.028 1_455 S
O106 C102 1.258 . S
O106 Zn107 2.035 1_655 S
Zn107 O106 2.035 1_455 S
Zn107 O108 2.028 . S
Zn107 O110 2.028 . S
Zn107 O113 2.035 1_455 S
O108 Zn107 2.028 . S
O108 C114 1.247 . S
O109 Zn105 2.035 . S
O109 C114 1.258 . S
O110 C103 1.247 . S
O110 Zn107 2.028 . S
O111 C103 1.258 . S
O111 Zn105 2.035 . S
O112 Zn105 2.028 1_655 S
O112 C115 1.247 . S
O113 Zn107 2.035 1_655 S
O113 C115 1.258 . S
C114 O108 1.247 . S
C114 O109 1.258 . S
C115 O112 1.247 . S
C115 O113 1.258 . S
C116 O118 1.247 . S
C116 O120 1.258 . S
C117 O124 1.247 . S
C117 O125 1.258 . S
O118 C116 1.247 . S
O118 Zn119 2.028 . S
Zn119 O118 2.028 . S
Zn119 O123 2.035 . S
Zn119 O125 2.035 . S
Zn119 O126 2.028 . S
O120 C116 1.258 . S
O120 Zn121 2.035 . S
Zn121 O120 2.035 . S
Zn121 O122 2.028 . S
Zn121 O124 2.028 . S
Zn121 O127 2.035 . S
O122 Zn121 2.028 . S
O122 C128 1.247 . S
O123 Zn119 2.035 . S
O123 C128 1.258 . S
O124 C117 1.247 . S
O124 Zn121 2.028 . S
O125 C117 1.258 . S
O125 Zn119 2.035 . S
O126 Zn119 2.028 . S
O126 C129 1.247 . S
O127 Zn121 2.035 . S
O127 C129 1.258 . S
C128 O122 1.247 . S
C128 O123 1.258 . S
C129 O126 1.247 . S
C129 O127 1.258 . S
C130 O132 1.247 . S
C130 O134 1.258 . S
C131 O138 1.247 . S
C131 O139 1.258 . S
O132 C130 1.247 . S
O132 Zn133 2.028 . S
Zn133 O132 2.028 . S
Zn133 O137 2.035 . S
Zn133 O139 2.035 1_554 S
Zn133 O140 2.028 1_554 S
O134 C130 1.258 . S
O134 Zn135 2.035 . S
Zn135 O134 2.035 . S
Zn135 O136 2.028 . S
Zn135 O138 2.028 1_554 S
Zn135 O141 2.035 1_554 S
O136 Zn135 2.028 . S
O136 C142 1.247 . S
O137 Zn133 2.035 . S
O137 C142 1.258 . S
O138 C131 1.247 . S
O138 Zn135 2.028 1_556 S
O139 C131 1.258 . S
O139 Zn133 2.035 1_556 S
O140 Zn133 2.028 1_556 S
O140 C143 1.247 . S
O141 Zn135 2.035 1_556 S
O141 C143 1.258 . S
C142 O136 1.247 . S
C142 O137 1.258 . S
C143 O140 1.247 . S
C143 O141 1.258 . S
C144 O146 1.247 . S
C144 O148 1.258 . S
C145 O152 1.247 . S
C145 O153 1.258 . S
O146 C144 1.247 . S
O146 Zn147 2.028 . S
Zn147 O146 2.028 . S
Zn147 O151 2.035 1_565 S
Zn147 O153 2.035 1_565 S
Zn147 O154 2.028 . S
O148 C144 1.258 . S
O148 Zn149 2.035 1_565 S
Zn149 O148 2.035 1_545 S
Zn149 O150 2.028 . S
Zn149 O152 2.028 . S
Zn149 O155 2.035 1_545 S
O150 Zn149 2.028 . S
O150 C156 1.247 . S
O151 Zn147 2.035 1_545 S
O151 C156 1.258 . S
O152 C145 1.247 . S
O152 Zn149 2.028 . S
O153 C145 1.258 . S
O153 Zn147 2.035 1_545 S
O154 Zn147 2.028 . S
O154 C157 1.247 . S
O155 Zn149 2.035 1_565 S
O155 C157 1.258 . S
C156 O150 1.247 . S
C156 O151 1.258 . S
C157 O154 1.247 . S
C157 O155 1.258 . S
C158 O160 1.247 . S
C158 O162 1.258 . S
C159 O166 1.247 . S
C159 O167 1.258 . S
O160 C158 1.247 . S
O160 Zn161 2.028 . S
Zn161 O160 2.028 . S
Zn161 O165 2.035 . S
Zn161 O167 2.035 1_554 S
Zn161 O168 2.028 1_554 S
O162 C158 1.258 . S
O162 Zn163 2.035 . S
Zn163 O162 2.035 . S
Zn163 O164 2.028 . S
Zn163 O166 2.028 1_554 S
Zn163 O169 2.035 1_554 S
O164 Zn163 2.028 . S
O164 C170 1.247 . S
O165 Zn161 2.035 . S
O165 C170 1.258 . S
O166 C159 1.247 . S
O166 Zn163 2.028 1_556 S
O167 C159 1.258 . S
O167 Zn161 2.035 1_556 S
O168 Zn161 2.028 1_556 S
O168 C171 1.247 . S
O169 Zn163 2.035 1_556 S
O169 C171 1.258 . S
C170 O164 1.247 . S
C170 O165 1.258 . S
C171 O168 1.247 . S
C171 O169 1.258 . S
H172 C184 0.930 . S
H173 C186 0.930 . S
H174 C187 0.930 . S
H175 C191 0.959 . S
H176 C191 0.959 . S
H177 C191 0.961 . S
H178 C192 0.960 . S
H179 C192 0.961 . S
H180 C192 0.959 . S
H181 C195 0.929 . S
H182 C196 0.931 . S
H183 C198 0.930 . S
C184 H172 0.930 . S
C184 C185 1.399 . S
C184 C189 1.399 . S
C185 C184 1.399 . S
C185 C186 1.376 . S
C186 H173 0.930 . S
C186 C185 1.376 . S
C186 C187 1.388 . S
C187 H174 0.930 . S
C187 C186 1.388 . S
C187 C188 1.390 . S
C188 C187 1.390 . S
C188 C189 1.394 . S
C188 C194 1.465 . S
C189 C184 1.399 . S
C189 C188 1.394 . S
C189 C190 1.516 . S
C190 C189 1.516 . S
C190 C191 1.502 . S
C190 C192 1.561 . S
C190 C193 1.526 . S
C191 H175 0.959 . S
C191 H176 0.959 . S
C191 H177 0.961 . S
C191 C190 1.502 . S
C192 H178 0.960 . S
C192 H179 0.961 . S
C192 H180 0.959 . S
C192 C190 1.561 . S
C193 C190 1.526 . S
C193 C194 1.396 . S
C193 C198 1.390 . S
C194 C188 1.465 . S
C194 C193 1.396 . S
C194 C195 1.399 . S
C195 H181 0.929 . S
C195 C194 1.399 . S
C195 C196 1.385 . S
C196 H182 0.931 . S
C196 C195 1.385 . S
C196 C197 1.389 . S
C197 C196 1.389 . S
C197 C198 1.387 . S
C198 H183 0.930 . S
C198 C193 1.390 . S
C198 C197 1.387 . S
H199 C211 0.930 . S
H200 C213 0.930 . S
H201 C214 0.930 . S
H202 C218 0.959 . S
H203 C218 0.959 . S
H204 C218 0.961 . S
H205 C219 0.960 . S
H206 C219 0.961 . S
H207 C219 0.959 . S
H208 C222 0.929 . S
H209 C223 0.931 . S
H210 C225 0.930 . S
C211 H199 0.930 . S
C211 C212 1.399 . S
C211 C216 1.399 . S
C212 C211 1.399 . S
C212 C213 1.376 . S
C213 H200 0.930 . S
C213 C212 1.376 . S
C213 C214 1.388 . S
C214 H201 0.930 . S
C214 C213 1.388 . S
C214 C215 1.390 . S
C215 C214 1.390 . S
C215 C216 1.394 . S
C215 C221 1.465 . S
C216 C211 1.399 . S
C216 C215 1.394 . S
C216 C217 1.516 . S
C217 C216 1.516 . S
C217 C218 1.502 . S
C217 C219 1.561 . S
C217 C220 1.526 . S
C218 H202 0.959 . S
C218 H203 0.959 . S
C218 H204 0.961 . S
C218 C217 1.502 . S
C219 H205 0.960 . S
C219 H206 0.961 . S
C219 H207 0.959 . S
C219 C217 1.561 . S
C220 C217 1.526 . S
C220 C221 1.396 . S
C220 C225 1.390 . S
C221 C215 1.465 . S
C221 C220 1.396 . S
C221 C222 1.399 . S
C222 H208 0.929 . S
C222 C221 1.399 . S
C222 C223 1.385 . S
C223 H209 0.931 . S
C223 C222 1.385 . S
C223 C224 1.389 . S
C224 C223 1.389 . S
C224 C225 1.387 . S
C225 H210 0.930 . S
C225 C220 1.390 . S
C225 C224 1.387 . S
H226 C238 0.930 . S
H227 C240 0.930 . S
H228 C241 0.930 . S
H229 C245 0.959 . S
H230 C245 0.959 . S
H231 C245 0.961 . S
H232 C246 0.960 . S
H233 C246 0.961 . S
H234 C246 0.959 . S
H235 C249 0.929 . S
H236 C250 0.931 . S
H237 C252 0.930 . S
C238 H226 0.930 . S
C238 C239 1.399 . S
C238 C243 1.399 . S
C239 C238 1.399 . S
C239 C240 1.376 . S
C240 H227 0.930 . S
C240 C239 1.376 . S
C240 C241 1.388 . S
C241 H228 0.930 . S
C241 C240 1.388 . S
C241 C242 1.390 . S
C242 C241 1.390 . S
C242 C243 1.394 . S
C242 C248 1.465 . S
C243 C238 1.399 . S
C243 C242 1.394 . S
C243 C244 1.516 . S
C244 C243 1.516 . S
C244 C245 1.502 . S
C244 C246 1.561 . S
C244 C247 1.526 . S
C245 H229 0.959 . S
C245 H230 0.959 . S
C245 H231 0.961 . S
C245 C244 1.502 . S
C246 H232 0.960 . S
C246 H233 0.961 . S
C246 H234 0.959 . S
C246 C244 1.561 . S
C247 C244 1.526 . S
C247 C248 1.396 . S
C247 C252 1.390 . S
C248 C242 1.465 . S
C248 C247 1.396 . S
C248 C249 1.399 . S
C249 H235 0.929 . S
C249 C248 1.399 . S
C249 C250 1.385 . S
C250 H236 0.931 . S
C250 C249 1.385 . S
C250 C251 1.389 . S
C251 C250 1.389 . S
C251 C252 1.387 . S
C252 H237 0.930 . S
C252 C247 1.390 . S
C252 C251 1.387 . S
H253 C265 0.930 . S
H254 C267 0.930 . S
H255 C268 0.930 . S
H256 C272 0.959 . S
H257 C272 0.959 . S
H258 C272 0.961 . S
H259 C273 0.960 . S
H260 C273 0.961 . S
H261 C273 0.959 . S
H262 C276 0.929 . S
H263 C277 0.931 . S
H264 C279 0.930 . S
C265 H253 0.930 . S
C265 C266 1.399 . S
C265 C270 1.399 . S
C266 C265 1.399 . S
C266 C267 1.376 . S
C267 H254 0.930 . S
C267 C266 1.376 . S
C267 C268 1.388 . S
C268 H255 0.930 . S
C268 C267 1.388 . S
C268 C269 1.390 . S
C269 C268 1.390 . S
C269 C270 1.394 . S
C269 C275 1.465 . S
C270 C265 1.399 . S
C270 C269 1.394 . S
C270 C271 1.516 . S
C271 C270 1.516 . S
C271 C272 1.502 . S
C271 C273 1.561 . S
C271 C274 1.526 . S
C272 H256 0.959 . S
C272 H257 0.959 . S
C272 H258 0.961 . S
C272 C271 1.502 . S
C273 H259 0.960 . S
C273 H260 0.961 . S
C273 H261 0.959 . S
C273 C271 1.561 . S
C274 C271 1.526 . S
C274 C275 1.396 . S
C274 C279 1.390 . S
C275 C269 1.465 . S
C275 C274 1.396 . S
C275 C276 1.399 . S
C276 H262 0.929 . S
C276 C275 1.399 . S
C276 C277 1.385 . S
C277 H263 0.931 . S
C277 C276 1.385 . S
C277 C278 1.389 . S
C278 C277 1.389 . S
C278 C279 1.387 . S
C279 H264 0.930 . S
C279 C274 1.390 . S
C279 C278 1.387 . S
H280 C292 0.930 . S
H281 C294 0.930 . S
H282 C295 0.930 . S
H283 C299 0.959 . S
H284 C299 0.959 . S
H285 C299 0.961 . S
H286 C300 0.960 . S
H287 C300 0.961 . S
H288 C300 0.959 . S
H289 C303 0.929 . S
H290 C304 0.931 . S
H291 C306 0.930 . S
C292 H280 0.930 . S
C292 C293 1.399 . S
C292 C297 1.399 . S
C293 C292 1.399 . S
C293 C294 1.376 . S
C294 H281 0.930 . S
C294 C293 1.376 . S
C294 C295 1.388 . S
C295 H282 0.930 . S
C295 C294 1.388 . S
C295 C296 1.390 . S
C296 C295 1.390 . S
C296 C297 1.394 . S
C296 C302 1.465 . S
C297 C292 1.399 . S
C297 C296 1.394 . S
C297 C298 1.516 . S
C298 C297 1.516 . S
C298 C299 1.502 . S
C298 C300 1.561 . S
C298 C301 1.526 . S
C299 H283 0.959 . S
C299 H284 0.959 . S
C299 H285 0.961 . S
C299 C298 1.502 . S
C300 H286 0.960 . S
C300 H287 0.961 . S
C300 H288 0.959 . S
C300 C298 1.561 . S
C301 C298 1.526 . S
C301 C302 1.396 . S
C301 C306 1.390 . S
C302 C296 1.465 . S
C302 C301 1.396 . S
C302 C303 1.399 . S
C303 H289 0.929 . S
C303 C302 1.399 . S
C303 C304 1.385 . S
C304 H290 0.931 . S
C304 C303 1.385 . S
C304 C305 1.389 . S
C305 C304 1.389 . S
C305 C306 1.387 . S
C306 H291 0.930 . S
C306 C301 1.390 . S
C306 C305 1.387 . S
H307 C319 0.930 . S
H308 C321 0.930 . S
H309 C322 0.930 . S
H310 C326 0.959 . S
H311 C326 0.959 . S
H312 C326 0.961 . S
H313 C327 0.960 . S
H314 C327 0.961 . S
H315 C327 0.959 . S
H316 C330 0.929 . S
H317 C331 0.931 . S
H318 C333 0.930 . S
C319 H307 0.930 . S
C319 C320 1.399 . S
C319 C324 1.399 . S
C320 C319 1.399 . S
C320 C321 1.376 . S
C321 H308 0.930 . S
C321 C320 1.376 . S
C321 C322 1.388 . S
C322 H309 0.930 . S
C322 C321 1.388 . S
C322 C323 1.390 . S
C323 C322 1.390 . S
C323 C324 1.394 . S
C323 C329 1.465 . S
C324 C319 1.399 . S
C324 C323 1.394 . S
C324 C325 1.516 . S
C325 C324 1.516 . S
C325 C326 1.502 . S
C325 C327 1.561 . S
C325 C328 1.526 . S
C326 H310 0.959 . S
C326 H311 0.959 . S
C326 H312 0.961 . S
C326 C325 1.502 . S
C327 H313 0.960 . S
C327 H314 0.961 . S
C327 H315 0.959 . S
C327 C325 1.561 . S
C328 C325 1.526 . S
C328 C329 1.396 . S
C328 C333 1.390 . S
C329 C323 1.465 . S
C329 C328 1.396 . S
C329 C330 1.399 . S
C330 H316 0.929 . S
C330 C329 1.399 . S
C330 C331 1.385 . S
C331 H317 0.931 . S
C331 C330 1.385 . S
C331 C332 1.389 . S
C332 C331 1.389 . S
C332 C333 1.387 . S
C333 H318 0.930 . S
C333 C328 1.390 . S
C333 C332 1.387 . S
H334 C346 0.930 . S
H335 C348 0.930 . S
H336 C349 0.930 . S
H337 C353 0.959 . S
H338 C353 0.959 . S
H339 C353 0.961 . S
H340 C354 0.960 . S
H341 C354 0.961 . S
H342 C354 0.959 . S
H343 C357 0.929 . S
H344 C358 0.931 . S
H345 C360 0.930 . S
C346 H334 0.930 . S
C346 C347 1.399 . S
C346 C351 1.399 . S
C347 C346 1.399 . S
C347 C348 1.376 . S
C348 H335 0.930 . S
C348 C347 1.376 . S
C348 C349 1.388 . S
C349 H336 0.930 . S
C349 C348 1.388 . S
C349 C350 1.390 . S
C350 C349 1.390 . S
C350 C351 1.394 . S
C350 C356 1.465 . S
C351 C346 1.399 . S
C351 C350 1.394 . S
C351 C352 1.516 . S
C352 C351 1.516 . S
C352 C353 1.502 . S
C352 C354 1.561 . S
C352 C355 1.526 . S
C353 H337 0.959 . S
C353 H338 0.959 . S
C353 H339 0.961 . S
C353 C352 1.502 . S
C354 H340 0.960 . S
C354 H341 0.961 . S
C354 H342 0.959 . S
C354 C352 1.561 . S
C355 C352 1.526 . S
C355 C356 1.396 . S
C355 C360 1.390 . S
C356 C350 1.465 . S
C356 C355 1.396 . S
C356 C357 1.399 . S
C357 H343 0.929 . S
C357 C356 1.399 . S
C357 C358 1.385 . S
C358 H344 0.931 . S
C358 C357 1.385 . S
C358 C359 1.389 . S
C359 C358 1.389 . S
C359 C360 1.387 . S
C360 H345 0.930 . S
C360 C355 1.390 . S
C360 C359 1.387 . S
H361 C373 0.930 . S
H362 C375 0.930 . S
H363 C376 0.930 . S
H364 C380 0.959 . S
H365 C380 0.959 . S
H366 C380 0.961 . S
H367 C381 0.960 . S
H368 C381 0.961 . S
H369 C381 0.959 . S
H370 C384 0.929 . S
H371 C385 0.931 . S
H372 C387 0.930 . S
C373 H361 0.930 . S
C373 C374 1.399 . S
C373 C378 1.399 . S
C374 C373 1.399 . S
C374 C375 1.376 . S
C375 H362 0.930 . S
C375 C374 1.376 . S
C375 C376 1.388 . S
C376 H363 0.930 . S
C376 C375 1.388 . S
C376 C377 1.390 . S
C377 C376 1.390 . S
C377 C378 1.394 . S
C377 C383 1.465 . S
C378 C373 1.399 . S
C378 C377 1.394 . S
C378 C379 1.516 . S
C379 C378 1.516 . S
C379 C380 1.502 . S
C379 C381 1.561 . S
C379 C382 1.526 . S
C380 H364 0.959 . S
C380 H365 0.959 . S
C380 H366 0.961 . S
C380 C379 1.502 . S
C381 H367 0.960 . S
C381 H368 0.961 . S
C381 H369 0.959 . S
C381 C379 1.561 . S
C382 C379 1.526 . S
C382 C383 1.396 . S
C382 C387 1.390 . S
C383 C377 1.465 . S
C383 C382 1.396 . S
C383 C384 1.399 . S
C384 H370 0.929 . S
C384 C383 1.399 . S
C384 C385 1.385 . S
C385 H371 0.931 . S
C385 C384 1.385 . S
C385 C386 1.389 . S
C386 C385 1.389 . S
C386 C387 1.387 . S
C387 H372 0.930 . S
C387 C382 1.390 . S
C387 C386 1.387 . S
H388 C400 0.930 1_545 S
H389 C402 0.930 . S
H390 C403 0.930 . S
H391 C407 0.959 . S
H392 C407 0.959 . S
H393 C407 0.961 . S
H394 C408 0.960 . S
H395 C408 0.961 . S
H396 C408 0.959 . S
H397 C411 0.929 1_565 S
H398 C412 0.931 . S
H399 C414 0.930 . S
C400 H388 0.930 1_565 S
C400 C401 1.399 . S
C400 C405 1.399 1_565 S
C401 C400 1.399 . S
C401 C402 1.376 . S
C402 H389 0.930 . S
C402 C401 1.376 . S
C402 C403 1.388 . S
C403 H390 0.930 . S
C403 C402 1.388 . S
C403 C404 1.390 . S
C404 C403 1.390 . S
C404 C405 1.394 1_565 S
C404 C410 1.465 1_565 S
C405 C400 1.399 1_545 S
C405 C404 1.394 1_545 S
C405 C406 1.516 . S
C406 C405 1.516 . S
C406 C407 1.502 . S
C406 C408 1.561 . S
C406 C409 1.526 . S
C407 H391 0.959 . S
C407 H392 0.959 . S
C407 H393 0.961 . S
C407 C406 1.502 . S
C408 H394 0.960 . S
C408 H395 0.961 . S
C408 H396 0.959 . S
C408 C406 1.561 . S
C409 C406 1.526 . S
C409 C410 1.396 . S
C409 C414 1.390 . S
C410 C404 1.465 1_545 S
C410 C409 1.396 . S
C410 C411 1.399 . S
C411 H397 0.929 1_545 S
C411 C410 1.399 . S
C411 C412 1.385 . S
C412 H398 0.931 . S
C412 C411 1.385 . S
C412 C413 1.389 . S
C413 C412 1.389 . S
C413 C414 1.387 . S
C414 H399 0.930 . S
C414 C409 1.390 . S
C414 C413 1.387 . S
H415 C427 0.930 . S
H416 C429 0.930 . S
H417 C430 0.930 . S
H418 C434 0.959 . S
H419 C434 0.959 . S
H420 C434 0.961 . S
H421 C435 0.960 . S
H422 C435 0.961 . S
H423 C435 0.959 . S
H424 C438 0.929 . S
H425 C439 0.931 . S
H426 C441 0.930 . S
C427 H415 0.930 . S
C427 C428 1.399 . S
C427 C432 1.399 . S
C428 C427 1.399 . S
C428 C429 1.376 . S
C429 H416 0.930 . S
C429 C428 1.376 . S
C429 C430 1.388 . S
C430 H417 0.930 . S
C430 C429 1.388 . S
C430 C431 1.390 . S
C431 C430 1.390 . S
C431 C432 1.394 . S
C431 C437 1.465 . S
C432 C427 1.399 . S
C432 C431 1.394 . S
C432 C433 1.516 . S
C433 C432 1.516 . S
C433 C434 1.502 . S
C433 C435 1.561 . S
C433 C436 1.526 . S
C434 H418 0.959 . S
C434 H419 0.959 . S
C434 H420 0.961 . S
C434 C433 1.502 . S
C435 H421 0.960 . S
C435 H422 0.961 . S
C435 H423 0.959 . S
C435 C433 1.561 . S
C436 C433 1.526 . S
C436 C437 1.396 . S
C436 C441 1.390 . S
C437 C431 1.465 . S
C437 C436 1.396 . S
C437 C438 1.399 . S
C438 H424 0.929 . S
C438 C437 1.399 . S
C438 C439 1.385 . S
C439 H425 0.931 . S
C439 C438 1.385 . S
C439 C440 1.389 . S
C440 C439 1.389 . S
C440 C441 1.387 . S
C441 H426 0.930 . S
C441 C436 1.390 . S
C441 C440 1.387 . S
H442 C454 0.930 . S
H443 C456 0.930 . S
H444 C457 0.930 . S
H445 C461 0.959 . S
H446 C461 0.959 . S
H447 C461 0.961 . S
H448 C462 0.960 . S
H449 C462 0.961 . S
H450 C462 0.959 . S
H451 C465 0.929 . S
H452 C466 0.931 . S
H453 C468 0.930 . S
C454 H442 0.930 . S
C454 C455 1.399 . S
C454 C459 1.399 . S
C455 C454 1.399 . S
C455 C456 1.376 . S
C456 H443 0.930 . S
C456 C455 1.376 . S
C456 C457 1.388 . S
C457 H444 0.930 . S
C457 C456 1.388 . S
C457 C458 1.390 . S
C458 C457 1.390 . S
C458 C459 1.394 . S
C458 C464 1.465 . S
C459 C454 1.399 . S
C459 C458 1.394 . S
C459 C460 1.516 . S
C460 C459 1.516 . S
C460 C461 1.502 . S
C460 C462 1.561 . S
C460 C463 1.526 . S
C461 H445 0.959 . S
C461 H446 0.959 . S
C461 H447 0.961 . S
C461 C460 1.502 . S
C462 H448 0.960 . S
C462 H449 0.961 . S
C462 H450 0.959 . S
C462 C460 1.561 . S
C463 C460 1.526 . S
C463 C464 1.396 . S
C463 C468 1.390 . S
C464 C458 1.465 . S
C464 C463 1.396 . S
C464 C465 1.399 . S
C465 H451 0.929 . S
C465 C464 1.399 . S
C465 C466 1.385 . S
C466 H452 0.931 . S
C466 C465 1.385 . S
C466 C467 1.389 . S
C467 C466 1.389 . S
C467 C468 1.387 . S
C468 H453 0.930 . S
C468 C463 1.390 . S
C468 C467 1.387 . S
H469 C481 0.930 . S
H470 C483 0.930 . S
H471 C484 0.930 . S
H472 C488 0.959 . S
H473 C488 0.959 . S
H474 C488 0.961 . S
H475 C489 0.960 . S
H476 C489 0.961 . S
H477 C489 0.959 . S
H478 C492 0.929 . S
H479 C493 0.931 . S
H480 C495 0.930 . S
C481 H469 0.930 . S
C481 C482 1.399 . S
C481 C486 1.399 . S
C482 C481 1.399 . S
C482 C483 1.376 . S
C483 H470 0.930 . S
C483 C482 1.376 . S
C483 C484 1.388 . S
C484 H471 0.930 . S
C484 C483 1.388 . S
C484 C485 1.390 . S
C485 C484 1.390 . S
C485 C486 1.394 . S
C485 C491 1.465 . S
C486 C481 1.399 . S
C486 C485 1.394 . S
C486 C487 1.516 . S
C487 C486 1.516 . S
C487 C488 1.502 . S
C487 C489 1.561 . S
C487 C490 1.526 . S
C488 H472 0.959 . S
C488 H473 0.959 . S
C488 H474 0.961 . S
C488 C487 1.502 . S
C489 H475 0.960 . S
C489 H476 0.961 . S
C489 H477 0.959 . S
C489 C487 1.561 . S
C490 C487 1.526 . S
C490 C491 1.396 . S
C490 C495 1.390 . S
C491 C485 1.465 . S
C491 C490 1.396 . S
C491 C492 1.399 . S
C492 H478 0.929 . S
C492 C491 1.399 . S
C492 C493 1.385 . S
C493 H479 0.931 . S
C493 C492 1.385 . S
C493 C494 1.389 . S
C494 C493 1.389 . S
C494 C495 1.387 . S
C495 H480 0.930 . S
C495 C490 1.390 . S
C495 C494 1.387 . S
H496 C508 0.930 . S
H497 C510 0.930 . S
H498 C511 0.930 . S
H499 C515 0.959 . S
H500 C515 0.959 . S
H501 C515 0.961 . S
H502 C516 0.960 . S
H503 C516 0.961 . S
H504 C516 0.959 . S
H505 C519 0.929 . S
H506 C520 0.931 . S
H507 C522 0.930 . S
C508 H496 0.930 . S
C508 C509 1.399 . S
C508 C513 1.399 . S
C509 C508 1.399 . S
C509 C510 1.376 . S
C510 H497 0.930 . S
C510 C509 1.376 . S
C510 C511 1.388 . S
C511 H498 0.930 . S
C511 C510 1.388 . S
C511 C512 1.390 . S
C512 C511 1.390 . S
C512 C513 1.394 . S
C512 C518 1.465 . S
C513 C508 1.399 . S
C513 C512 1.394 . S
C513 C514 1.516 . S
C514 C513 1.516 . S
C514 C515 1.502 . S
C514 C516 1.561 . S
C514 C517 1.526 . S
C515 H499 0.959 . S
C515 H500 0.959 . S
C515 H501 0.961 . S
C515 C514 1.502 . S
C516 H502 0.960 . S
C516 H503 0.961 . S
C516 H504 0.959 . S
C516 C514 1.561 . S
C517 C514 1.526 . S
C517 C518 1.396 . S
C517 C522 1.390 . S
C518 C512 1.465 . S
C518 C517 1.396 . S
C518 C519 1.399 . S
C519 H505 0.929 . S
C519 C518 1.399 . S
C519 C520 1.385 . S
C520 H506 0.931 . S
C520 C519 1.385 . S
C520 C521 1.389 . S
C521 C520 1.389 . S
C521 C522 1.387 . S
C522 H507 0.930 . S
C522 C517 1.390 . S
C522 C521 1.387 . S
H523 C535 0.930 . S
H524 C537 0.930 . S
H525 C538 0.930 . S
H526 C542 0.959 . S
H527 C542 0.959 . S
H528 C542 0.961 . S
H529 C543 0.960 . S
H530 C543 0.961 . S
H531 C543 0.959 . S
H532 C546 0.929 . S
H533 C547 0.931 . S
H534 C549 0.930 . S
C535 H523 0.930 . S
C535 C536 1.399 . S
C535 C540 1.399 . S
C536 C535 1.399 . S
C536 C537 1.376 . S
C537 H524 0.930 . S
C537 C536 1.376 . S
C537 C538 1.388 . S
C538 H525 0.930 . S
C538 C537 1.388 . S
C538 C539 1.390 . S
C539 C538 1.390 . S
C539 C540 1.394 . S
C539 C545 1.465 . S
C540 C535 1.399 . S
C540 C539 1.394 . S
C540 C541 1.516 . S
C541 C540 1.516 . S
C541 C542 1.502 . S
C541 C543 1.561 . S
C541 C544 1.526 . S
C542 H526 0.959 . S
C542 H527 0.959 . S
C542 H528 0.961 . S
C542 C541 1.502 . S
C543 H529 0.960 . S
C543 H530 0.961 . S
C543 H531 0.959 . S
C543 C541 1.561 . S
C544 C541 1.526 . S
C544 C545 1.396 . S
C544 C549 1.390 . S
C545 C539 1.465 . S
C545 C544 1.396 . S
C545 C546 1.399 . S
C546 H532 0.929 . S
C546 C545 1.399 . S
C546 C547 1.385 . S
C547 H533 0.931 . S
C547 C546 1.385 . S
C547 C548 1.389 . S
C548 C547 1.389 . S
C548 C549 1.387 . S
C549 H534 0.930 . S
C549 C544 1.390 . S
C549 C548 1.387 . S
H550 C562 0.930 . S
H551 C564 0.930 . S
H552 C565 0.930 . S
H553 C569 0.959 . S
H554 C569 0.959 . S
H555 C569 0.961 . S
H556 C570 0.960 . S
H557 C570 0.961 . S
H558 C570 0.959 . S
H559 C573 0.929 . S
H560 C574 0.931 . S
H561 C576 0.930 . S
C562 H550 0.930 . S
C562 C563 1.399 . S
C562 C567 1.399 . S
C563 C562 1.399 . S
C563 C564 1.376 . S
C564 H551 0.930 . S
C564 C563 1.376 . S
C564 C565 1.388 . S
C565 H552 0.930 . S
C565 C564 1.388 . S
C565 C566 1.390 . S
C566 C565 1.390 . S
C566 C567 1.394 . S
C566 C572 1.465 . S
C567 C562 1.399 . S
C567 C566 1.394 . S
C567 C568 1.516 . S
C568 C567 1.516 . S
C568 C569 1.502 . S
C568 C570 1.561 . S
C568 C571 1.526 . S
C569 H553 0.959 . S
C569 H554 0.959 . S
C569 H555 0.961 . S
C569 C568 1.502 . S
C570 H556 0.960 . S
C570 H557 0.961 . S
C570 H558 0.959 . S
C570 C568 1.561 . S
C571 C568 1.526 . S
C571 C572 1.396 . S
C571 C576 1.390 . S
C572 C566 1.465 . S
C572 C571 1.396 . S
C572 C573 1.399 . S
C573 H559 0.929 . S
C573 C572 1.399 . S
C573 C574 1.385 . S
C574 H560 0.931 . S
C574 C573 1.385 . S
C574 C575 1.389 . S
C575 C574 1.389 . S
C575 C576 1.387 . S
C576 H561 0.930 . S
C576 C571 1.390 . S
C576 C575 1.387 . S
H577 C589 0.930 . S
H578 C591 0.930 . S
H579 C592 0.930 . S
H580 C596 0.959 . S
H581 C596 0.959 . S
H582 C596 0.961 . S
H583 C597 0.960 . S
H584 C597 0.961 . S
H585 C597 0.959 . S
H586 C600 0.929 . S
H587 C601 0.931 . S
H588 C603 0.930 . S
C589 H577 0.930 . S
C589 C590 1.399 . S
C589 C594 1.399 . S
C590 C589 1.399 . S
C590 C591 1.376 . S
C591 H578 0.930 . S
C591 C590 1.376 . S
C591 C592 1.388 . S
C592 H579 0.930 . S
C592 C591 1.388 . S
C592 C593 1.390 . S
C593 C592 1.390 . S
C593 C594 1.394 . S
C593 C599 1.465 . S
C594 C589 1.399 . S
C594 C593 1.394 . S
C594 C595 1.516 . S
C595 C594 1.516 . S
C595 C596 1.502 . S
C595 C597 1.561 . S
C595 C598 1.526 . S
C596 H580 0.959 . S
C596 H581 0.959 . S
C596 H582 0.961 . S
C596 C595 1.502 . S
C597 H583 0.960 . S
C597 H584 0.961 . S
C597 H585 0.959 . S
C597 C595 1.561 . S
C598 C595 1.526 . S
C598 C599 1.396 . S
C598 C603 1.390 . S
C599 C593 1.465 . S
C599 C598 1.396 . S
C599 C600 1.399 . S
C600 H586 0.929 . S
C600 C599 1.399 . S
C600 C601 1.385 . S
C601 H587 0.931 . S
C601 C600 1.385 . S
C601 C602 1.389 . S
C602 C601 1.389 . S
C602 C603 1.387 . S
C603 H588 0.930 . S
C603 C598 1.390 . S
C603 C602 1.387 . S
H604 C616 0.930 . S
H605 C618 0.930 . S
H606 C619 0.930 . S
H607 C623 0.959 . S
H608 C623 0.959 . S
H609 C623 0.961 . S
H610 C624 0.960 . S
H611 C624 0.961 . S
H612 C624 0.959 . S
H613 C627 0.929 . S
H614 C628 0.931 . S
H615 C630 0.930 . S
C616 H604 0.930 . S
C616 C617 1.399 . S
C616 C621 1.399 . S
C617 C616 1.399 . S
C617 C618 1.376 . S
C618 H605 0.930 . S
C618 C617 1.376 . S
C618 C619 1.388 . S
C619 H606 0.930 . S
C619 C618 1.388 . S
C619 C620 1.390 . S
C620 C619 1.390 . S
C620 C621 1.394 . S
C620 C626 1.465 . S
C621 C616 1.399 . S
C621 C620 1.394 . S
C621 C622 1.516 . S
C622 C621 1.516 . S
C622 C623 1.502 . S
C622 C624 1.561 . S
C622 C625 1.526 . S
C623 H607 0.959 . S
C623 H608 0.959 . S
C623 H609 0.961 . S
C623 C622 1.502 . S
C624 H610 0.960 . S
C624 H611 0.961 . S
C624 H612 0.959 . S
C624 C622 1.561 . S
C625 C622 1.526 . S
C625 C626 1.396 . S
C625 C630 1.390 . S
C626 C620 1.465 . S
C626 C625 1.396 . S
C626 C627 1.399 . S
C627 H613 0.929 . S
C627 C626 1.399 . S
C627 C628 1.385 . S
C628 H614 0.931 . S
C628 C627 1.385 . S
C628 C629 1.389 . S
C629 C628 1.389 . S
C629 C630 1.387 . S
C630 H615 0.930 . S
C630 C625 1.390 . S
C630 C629 1.387 . S
H631 C643 0.930 . S
H632 C645 0.930 . S
H633 C646 0.930 . S
H634 C650 0.959 . S
H635 C650 0.959 . S
H636 C650 0.961 . S
H637 C651 0.960 . S
H638 C651 0.961 . S
H639 C651 0.959 . S
H640 C654 0.929 . S
H641 C655 0.931 . S
H642 C657 0.930 . S
C643 H631 0.930 . S
C643 C644 1.399 . S
C643 C648 1.399 . S
C644 C643 1.399 . S
C644 C645 1.376 . S
C645 H632 0.930 . S
C645 C644 1.376 . S
C645 C646 1.388 . S
C646 H633 0.930 . S
C646 C645 1.388 . S
C646 C647 1.390 . S
C647 C646 1.390 . S
C647 C648 1.394 . S
C647 C653 1.465 . S
C648 C643 1.399 . S
C648 C647 1.394 . S
C648 C649 1.516 . S
C649 C648 1.516 . S
C649 C650 1.502 . S
C649 C651 1.561 . S
C649 C652 1.526 . S
C650 H634 0.959 . S
C650 H635 0.959 . S
C650 H636 0.961 . S
C650 C649 1.502 . S
C651 H637 0.960 . S
C651 H638 0.961 . S
C651 H639 0.959 . S
C651 C649 1.561 . S
C652 C649 1.526 . S
C652 C653 1.396 . S
C652 C657 1.390 . S
C653 C647 1.465 . S
C653 C652 1.396 . S
C653 C654 1.399 . S
C654 H640 0.929 . S
C654 C653 1.399 . S
C654 C655 1.385 . S
C655 H641 0.931 . S
C655 C654 1.385 . S
C655 C656 1.389 . S
C656 C655 1.389 . S
C656 C657 1.387 . S
C657 H642 0.930 . S
C657 C652 1.390 . S
C657 C656 1.387 . S
H658 C670 0.930 . S
H659 C672 0.930 . S
H660 C673 0.930 . S
H661 C677 0.959 . S
H662 C677 0.959 . S
H663 C677 0.961 . S
H664 C678 0.960 . S
H665 C678 0.961 . S
H666 C678 0.959 . S
H667 C681 0.929 . S
H668 C682 0.931 . S
H669 C684 0.930 . S
C670 H658 0.930 . S
C670 C671 1.399 . S
C670 C675 1.399 . S
C671 C670 1.399 . S
C671 C672 1.376 . S
C672 H659 0.930 . S
C672 C671 1.376 . S
C672 C673 1.388 . S
C673 H660 0.930 . S
C673 C672 1.388 . S
C673 C674 1.390 . S
C674 C673 1.390 . S
C674 C675 1.394 . S
C674 C680 1.465 . S
C675 C670 1.399 . S
C675 C674 1.394 . S
C675 C676 1.516 . S
C676 C675 1.516 . S
C676 C677 1.502 . S
C676 C678 1.561 . S
C676 C679 1.526 . S
C677 H661 0.959 . S
C677 H662 0.959 . S
C677 H663 0.961 . S
C677 C676 1.502 . S
C678 H664 0.960 . S
C678 H665 0.961 . S
C678 H666 0.959 . S
C678 C676 1.561 . S
C679 C676 1.526 . S
C679 C680 1.396 . S
C679 C684 1.390 . S
C680 C674 1.465 . S
C680 C679 1.396 . S
C680 C681 1.399 . S
C681 H667 0.929 . S
C681 C680 1.399 . S
C681 C682 1.385 . S
C682 H668 0.931 . S
C682 C681 1.385 . S
C682 C683 1.389 . S
C683 C682 1.389 . S
C683 C684 1.387 . S
C684 H669 0.930 . S
C684 C679 1.390 . S
C684 C683 1.387 . S
H685 C697 0.930 . S
H686 C699 0.930 . S
H687 C700 0.930 . S
H688 C704 0.959 . S
H689 C704 0.959 . S
H690 C704 0.961 . S
H691 C705 0.960 . S
H692 C705 0.961 . S
H693 C705 0.959 . S
H694 C708 0.929 . S
H695 C709 0.931 . S
H696 C711 0.930 . S
C697 H685 0.930 . S
C697 C698 1.399 . S
C697 C702 1.399 . S
C698 C697 1.399 . S
C698 C699 1.376 . S
C699 H686 0.930 . S
C699 C698 1.376 . S
C699 C700 1.388 . S
C700 H687 0.930 . S
C700 C699 1.388 . S
C700 C701 1.390 . S
C701 C700 1.390 . S
C701 C702 1.394 . S
C701 C707 1.465 . S
C702 C697 1.399 . S
C702 C701 1.394 . S
C702 C703 1.516 . S
C703 C702 1.516 . S
C703 C704 1.502 . S
C703 C705 1.561 . S
C703 C706 1.526 . S
C704 H688 0.959 . S
C704 H689 0.959 . S
C704 H690 0.961 . S
C704 C703 1.502 . S
C705 H691 0.960 . S
C705 H692 0.961 . S
C705 H693 0.959 . S
C705 C703 1.561 . S
C706 C703 1.526 . S
C706 C707 1.396 . S
C706 C711 1.390 . S
C707 C701 1.465 . S
C707 C706 1.396 . S
C707 C708 1.399 . S
C708 H694 0.929 . S
C708 C707 1.399 . S
C708 C709 1.385 . S
C709 H695 0.931 . S
C709 C708 1.385 . S
C709 C710 1.389 . S
C710 C709 1.389 . S
C710 C711 1.387 . S
C711 H696 0.930 . S
C711 C706 1.390 . S
C711 C710 1.387 . S
H712 C724 0.930 . S
H713 C726 0.930 . S
H714 C727 0.930 . S
H715 C731 0.959 . S
H716 C731 0.959 . S
H717 C731 0.961 . S
H718 C732 0.960 . S
H719 C732 0.961 . S
H720 C732 0.959 . S
H721 C735 0.929 . S
H722 C736 0.931 . S
H723 C738 0.930 . S
C724 H712 0.930 . S
C724 C725 1.399 . S
C724 C729 1.399 . S
C725 C724 1.399 . S
C725 C726 1.376 . S
C726 H713 0.930 . S
C726 C725 1.376 . S
C726 C727 1.388 . S
C727 H714 0.930 . S
C727 C726 1.388 . S
C727 C728 1.390 . S
C728 C727 1.390 . S
C728 C729 1.394 . S
C728 C734 1.465 . S
C729 C724 1.399 . S
C729 C728 1.394 . S
C729 C730 1.516 . S
C730 C729 1.516 . S
C730 C731 1.502 . S
C730 C732 1.561 . S
C730 C733 1.526 . S
C731 H715 0.959 . S
C731 H716 0.959 . S
C731 H717 0.961 . S
C731 C730 1.502 . S
C732 H718 0.960 . S
C732 H719 0.961 . S
C732 H720 0.959 . S
C732 C730 1.561 . S
C733 C730 1.526 . S
C733 C734 1.396 . S
C733 C738 1.390 . S
C734 C728 1.465 . S
C734 C733 1.396 . S
C734 C735 1.399 . S
C735 H721 0.929 . S
C735 C734 1.399 . S
C735 C736 1.385 . S
C736 H722 0.931 . S
C736 C735 1.385 . S
C736 C737 1.389 . S
C737 C736 1.389 . S
C737 C738 1.387 . S
C738 H723 0.930 . S
C738 C733 1.390 . S
C738 C737 1.387 . S
H739 C751 0.930 . S
H740 C753 0.930 . S
H741 C754 0.930 . S
H742 C758 0.959 . S
H743 C758 0.959 . S
H744 C758 0.961 . S
H745 C759 0.960 . S
H746 C759 0.961 . S
H747 C759 0.959 . S
H748 C762 0.929 . S
H749 C763 0.931 . S
H750 C765 0.930 . S
C751 H739 0.930 . S
C751 C752 1.399 . S
C751 C756 1.399 . S
C752 C751 1.399 . S
C752 C753 1.376 . S
C753 H740 0.930 . S
C753 C752 1.376 . S
C753 C754 1.388 . S
C754 H741 0.930 . S
C754 C753 1.388 . S
C754 C755 1.390 . S
C755 C754 1.390 . S
C755 C756 1.394 . S
C755 C761 1.465 . S
C756 C751 1.399 . S
C756 C755 1.394 . S
C756 C757 1.516 . S
C757 C756 1.516 . S
C757 C758 1.502 . S
C757 C759 1.561 . S
C757 C760 1.526 . S
C758 H742 0.959 . S
C758 H743 0.959 . S
C758 H744 0.961 . S
C758 C757 1.502 . S
C759 H745 0.960 . S
C759 H746 0.961 . S
C759 H747 0.959 . S
C759 C757 1.561 . S
C760 C757 1.526 . S
C760 C761 1.396 . S
C760 C765 1.390 . S
C761 C755 1.465 . S
C761 C760 1.396 . S
C761 C762 1.399 . S
C762 H748 0.929 . S
C762 C761 1.399 . S
C762 C763 1.385 . S
C763 H749 0.931 . S
C763 C762 1.385 . S
C763 C764 1.389 . S
C764 C763 1.389 . S
C764 C765 1.387 . S
C765 H750 0.930 . S
C765 C760 1.390 . S
C765 C764 1.387 . S
H766 C778 0.930 . S
H767 C780 0.930 . S
H768 C781 0.930 . S
H769 C785 0.959 . S
H770 C785 0.959 . S
H771 C785 0.961 . S
H772 C786 0.960 . S
H773 C786 0.961 . S
H774 C786 0.959 . S
H775 C789 0.937 . S
H776 C790 0.931 . S
H777 C792 0.930 . S
C778 H766 0.930 . S
C778 C779 1.399 . S
C778 C783 1.399 . S
C779 C778 1.399 . S
C779 C780 1.376 . S
C780 H767 0.930 . S
C780 C779 1.376 . S
C780 C781 1.388 . S
C781 H768 0.930 . S
C781 C780 1.388 . S
C781 C782 1.390 . S
C782 C781 1.390 . S
C782 C783 1.394 . S
C782 C788 1.465 1_565 S
C783 C778 1.399 . S
C783 C782 1.394 . S
C783 C784 1.516 1_565 S
C784 C783 1.516 1_545 S
C784 C785 1.502 . S
C784 C786 1.561 . S
C784 C787 1.526 . S
C785 H769 0.959 . S
C785 H770 0.959 . S
C785 H771 0.961 . S
C785 C784 1.502 . S
C786 H772 0.960 . S
C786 H773 0.961 . S
C786 H774 0.959 . S
C786 C784 1.561 . S
C787 C784 1.526 . S
C787 C788 1.396 . S
C787 C792 1.390 . S
C788 C782 1.465 1_545 S
C788 C787 1.396 . S
C788 C789 1.399 . S
C789 H775 0.937 . S
C789 C788 1.399 . S
C789 C790 1.385 . S
C790 H776 0.931 . S
C790 C789 1.385 . S
C790 C791 1.389 . S
C791 C790 1.389 . S
C791 C792 1.387 . S
C792 H777 0.930 . S
C792 C787 1.390 . S
C792 C791 1.387 . S
H793 C805 0.930 . S
H794 C807 0.930 . S
H795 C808 0.930 . S
H796 C812 0.959 . S
H797 C812 0.959 . S
H798 C812 0.961 . S
H799 C813 0.960 . S
H800 C813 0.961 . S
H801 C813 0.959 . S
H802 C816 0.929 . S
H803 C817 0.931 . S
H804 C819 0.930 . S
C805 H793 0.930 . S
C805 C806 1.399 . S
C805 C810 1.399 . S
C806 C805 1.399 . S
C806 C807 1.376 . S
C807 H794 0.930 . S
C807 C806 1.376 . S
C807 C808 1.388 . S
C808 H795 0.930 . S
C808 C807 1.388 . S
C808 C809 1.390 . S
C809 C808 1.390 . S
C809 C810 1.394 . S
C809 C815 1.465 . S
C810 C805 1.399 . S
C810 C809 1.394 . S
C810 C811 1.516 . S
C811 C810 1.516 . S
C811 C812 1.502 . S
C811 C813 1.561 . S
C811 C814 1.526 . S
C812 H796 0.959 . S
C812 H797 0.959 . S
C812 H798 0.961 . S
C812 C811 1.502 . S
C813 H799 0.960 . S
C813 H800 0.961 . S
C813 H801 0.959 . S
C813 C811 1.561 . S
C814 C811 1.526 . S
C814 C815 1.396 . S
C814 C819 1.390 . S
C815 C809 1.465 . S
C815 C814 1.396 . S
C815 C816 1.399 . S
C816 H802 0.929 . S
C816 C815 1.399 . S
C816 C817 1.385 . S
C817 H803 0.931 . S
C817 C816 1.385 . S
C817 C818 1.389 . S
C818 C817 1.389 . S
C818 C819 1.387 . S
C819 H804 0.930 . S
C819 C814 1.390 . S
C819 C818 1.387 . S
C197 C100 1.671 . S
C185 C5 1.488 . S
C224 C103 1.436 . S
C212 C16 1.291 . S
C251 C101 1.710 . S
C239 C30 1.748 . S
C278 C102 1.584 . S
C266 C40 1.548 . S
C305 C117 1.450 . S
C293 C8 1.409 . S
C332 C131 1.367 . S
C320 C18 1.350 . S
C347 C29 1.682 . S
C359 C157 1.724 . S
C386 C171 1.575 . S
C374 C38 1.380 . S
C413 C116 1.417 . S
C401 C19 1.368 . S
C428 C27 1.490 . S
C440 C130 1.588 . S
C467 C156 1.532 . S
C455 C41 1.502 . S
C494 C170 1.612 . S
C482 C7 1.534 . S
C509 C52 1.589 . S
C521 C115 1.573 . S
C548 C88 1.693 . S
C536 C62 1.665 . S
C563 C74 1.403 . S
C575 C114 1.403 . S
C590 C82 1.188 . S
C602 C89 1.488 . S
C629 C144 1.801 . S
C617 C51 1.687 . S
C656 C158 1.682 . S
C644 C60 1.360 . S
C683 C128 1.452 . S
C671 C71 1.223 . S
C698 C84 1.422 . S
C710 C142 1.421 . S
C737 C145 1.654 . S
C725 C63 1.658 . S
C764 C159 1.503 . S
C752 C73 1.439 . S
C791 C129 1.483 . S
C779 C85 1.499 . S
C806 C49 1.234 . S
C818 C143 1.590 . S
