# Generated by pormake.
# Topology ant, (3,6)-cn, num edge types: 1
# Building blocks:
#     Node 0, Type 0, BuildingBlock: OLANEW_clean_sbu_2, # of connection points: 3
#     Node 1, Type 0, BuildingBlock: OLANEW_clean_sbu_2, # of connection points: 3
#     Node 2, Type 0, BuildingBlock: OLANEW_clean_sbu_2, # of connection points: 3
#     Node 3, Type 0, BuildingBlock: OLANEW_clean_sbu_2, # of connection points: 3
#     Node 4, Type 0, BuildingBlock: OLANEW_clean_sbu_2, # of connection points: 3
#     Node 5, Type 0, BuildingBlock: OLANEW_clean_sbu_2, # of connection points: 3
#     Node 6, Type 0, BuildingBlock: OLANEW_clean_sbu_2, # of connection points: 3
#     Node 7, Type 0, BuildingBlock: OLANEW_clean_sbu_2, # of connection points: 3
#     Node 8, Type 1, BuildingBlock: MIDCAF_clean_sbu_0, # of connection points: 6
#     Node 9, Type 1, BuildingBlock: MIDCAF_clean_sbu_0, # of connection points: 6
#     Node 10, Type 1, BuildingBlock: MIDCAF_clean_sbu_0, # of connection points: 6
#     Node 11, Type 1, BuildingBlock: MIDCAF_clean_sbu_0, # of connection points: 6
#     Edge 12, Type (0, 1), BuildingBlock: TEMPAE_clean_linker_10, # of connection points: 2
#     Edge 13, Type (0, 1), BuildingBlock: TEMPAE_clean_linker_10, # of connection points: 2
#     Edge 14, Type (0, 1), BuildingBlock: TEMPAE_clean_linker_10, # of connection points: 2
#     Edge 15, Type (0, 1), BuildingBlock: TEMPAE_clean_linker_10, # of connection points: 2
#     Edge 16, Type (0, 1), BuildingBlock: TEMPAE_clean_linker_10, # of connection points: 2
#     Edge 17, Type (0, 1), BuildingBlock: TEMPAE_clean_linker_10, # of connection points: 2
#     Edge 18, Type (0, 1), BuildingBlock: TEMPAE_clean_linker_10, # of connection points: 2
#     Edge 19, Type (0, 1), BuildingBlock: TEMPAE_clean_linker_10, # of connection points: 2
#     Edge 20, Type (0, 1), BuildingBlock: TEMPAE_clean_linker_10, # of connection points: 2
#     Edge 21, Type (0, 1), BuildingBlock: TEMPAE_clean_linker_10, # of connection points: 2
#     Edge 22, Type (0, 1), BuildingBlock: TEMPAE_clean_linker_10, # of connection points: 2
#     Edge 23, Type (0, 1), BuildingBlock: TEMPAE_clean_linker_10, # of connection points: 2
#     Edge 24, Type (0, 1), BuildingBlock: TEMPAE_clean_linker_10, # of connection points: 2
#     Edge 25, Type (0, 1), BuildingBlock: TEMPAE_clean_linker_10, # of connection points: 2
#     Edge 26, Type (0, 1), BuildingBlock: TEMPAE_clean_linker_10, # of connection points: 2
#     Edge 27, Type (0, 1), BuildingBlock: TEMPAE_clean_linker_10, # of connection points: 2
#     Edge 28, Type (0, 1), BuildingBlock: TEMPAE_clean_linker_10, # of connection points: 2
#     Edge 29, Type (0, 1), BuildingBlock: TEMPAE_clean_linker_10, # of connection points: 2
#     Edge 30, Type (0, 1), BuildingBlock: TEMPAE_clean_linker_10, # of connection points: 2
#     Edge 31, Type (0, 1), BuildingBlock: TEMPAE_clean_linker_10, # of connection points: 2
#     Edge 32, Type (0, 1), BuildingBlock: TEMPAE_clean_linker_10, # of connection points: 2
#     Edge 33, Type (0, 1), BuildingBlock: TEMPAE_clean_linker_10, # of connection points: 2
#     Edge 34, Type (0, 1), BuildingBlock: TEMPAE_clean_linker_10, # of connection points: 2
#     Edge 35, Type (0, 1), BuildingBlock: TEMPAE_clean_linker_10, # of connection points: 2
# Relax obj value: 0.058
# Max RMSD: 0.137
# Mean RMSD: 0.094
data_MOF--net-ant--node1-OLANEW_clean_sbu_2--node2-MIDCAF_clean_sbu_0--edge1-TEMPAE_clean_linker_10
_symmetry_space_group_name_H-M    P1
_symmetry_Int_Tables_number       1
_symmetry_cell_setting            triclinic
loop_
_symmetry_equiv_pos_as_xyz
'x, y, z'
_cell_length_a     31.704677
_cell_length_b     31.627151
_cell_length_c     73.61823
_cell_angle_alpha  93.138659
_cell_angle_beta   93.856477
_cell_angle_gamma 89.987692
loop_
_atom_site_label
_atom_site_type_symbol
_atom_site_fract_x
_atom_site_fract_y
_atom_site_fract_z
_atom_type_partial_charge
O0 O 0.25625 0.15167 0.03213 0.0
Cd1 Cd 0.29158 0.16892 0.06233 0.0
O2 O 0.27444 0.21098 0.02026 0.0
Cd3 Cd 0.29405 0.24838 0.04513 0.0
O4 O 0.28383 0.31266 0.05662 0.0
C5 C 0.24983 0.33067 0.05104 0.0
O6 O 0.2232 0.30948 0.03948 0.0
C7 C 0.25775 0.17429 0.01844 0.0
C8 C 0.29735 0.09492 0.08146 0.0
O9 O 0.26508 0.11924 0.0821 0.0
O10 O 0.3278 0.10621 0.07217 0.0
O11 O 0.10854 0.84464 0.28839 0.0
Cd12 Cd 0.10762 0.86773 0.32061 0.0
O13 O 0.04008 0.83436 0.28295 0.0
Cd14 Cd 0.02191 0.85071 0.31044 0.0
O15 O 0.96958 0.84922 0.32811 0.0
C16 C 0.93371 0.85783 0.32046 0.0
O17 O 0.93177 0.86876 0.30346 0.0
C18 C 0.07718 0.8339 0.27743 0.0
C19 C 0.18743 0.8518 0.33725 0.0
O20 O 0.15751 0.82445 0.33691 0.0
O21 O 0.17924 0.88727 0.33018 0.0
O22 O 0.75623 0.65619 0.54848 0.0
Cd23 Cd 0.79032 0.67319 0.5789 0.0
O24 O 0.78668 0.70933 0.53642 0.0
Cd25 Cd 0.80271 0.74416 0.56235 0.0
O26 O 0.7881 0.80509 0.57599 0.0
C27 C 0.80109 0.83831 0.56911 0.0
O28 O 0.825 0.83424 0.55522 0.0
C29 C 0.76434 0.6758 0.53451 0.0
C30 C 0.79777 0.59706 0.59612 0.0
O31 O 0.76522 0.62074 0.59758 0.0
O32 O 0.82793 0.61039 0.58716 0.0
O33 O 0.5805 0.23275 0.78205 0.0
Cd34 Cd 0.5757 0.2585 0.81379 0.0
O35 O 0.55455 0.2918 0.77148 0.0
Cd36 Cd 0.52143 0.30854 0.79589 0.0
O37 O 0.46064 0.31534 0.80812 0.0
C38 C 0.4486 0.28835 0.81886 0.0
O39 O 0.47438 0.25762 0.82348 0.0
C40 C 0.573 0.25651 0.76885 0.0
C41 C 0.65875 0.26447 0.82927 0.0
O42 O 0.63651 0.23095 0.8303 0.0
O43 O 0.6412 0.29587 0.82149 0.0
O44 O 0.98114 0.77789 0.97742 0.0
Cd45 Cd 0.93632 0.82803 0.96108 0.0
O46 O 0.9534 0.72062 0.96334 0.0
Cd47 Cd 0.94068 0.65335 0.95674 0.0
O48 O 0.93942 0.5892 0.94419 0.0
C49 C 0.90954 0.57478 0.93318 0.0
O50 O 0.87654 0.59873 0.9295 0.0
C51 C 0.97944 0.73769 0.97549 0.0
C52 C 0.98004 0.88996 0.94421 0.0
O53 O 0.97649 0.89271 0.96146 0.0
O54 O 0.9638 0.85768 0.93502 0.0
O55 O 0.71846 0.81335 0.21457 0.0
Cd56 Cd 0.72271 0.80835 0.18151 0.0
O57 O 0.65198 0.83377 0.21272 0.0
Cd58 Cd 0.64189 0.83647 0.18312 0.0
O59 O 0.59192 0.82866 0.16118 0.0
C60 C 0.56329 0.85672 0.15988 0.0
O61 O 0.56719 0.89138 0.17055 0.0
C62 C 0.68494 0.82352 0.22228 0.0
C63 C 0.80565 0.79966 0.17138 0.0
O64 O 0.78657 0.8353 0.17056 0.0
O65 O 0.78574 0.76823 0.17703 0.0
O66 O 0.44911 0.29696 0.48353 0.0
Cd67 Cd 0.40598 0.35427 0.47151 0.0
O68 O 0.43158 0.24793 0.46228 0.0
Cd69 Cd 0.42785 0.18879 0.44535 0.0
O70 O 0.43382 0.1296 0.42915 0.0
C71 C 0.40313 0.10833 0.42125 0.0
O72 O 0.36433 0.12218 0.42257 0.0
C73 C 0.45276 0.25905 0.47711 0.0
C74 C 0.45375 0.41635 0.45665 0.0
O75 O 0.45194 0.41522 0.47394 0.0
O76 O 0.43347 0.38804 0.44643 0.0
O77 O 0.24482 0.37639 0.71888 0.0
Cd78 Cd 0.26087 0.4083 0.69072 0.0
O79 O 0.18512 0.35906 0.70376 0.0
Cd80 Cd 0.12331 0.32855 0.69778 0.0
O81 O 0.06275 0.30354 0.68582 0.0
C82 C 0.0287 0.32371 0.6882 0.0
O83 O 0.03031 0.35915 0.69842 0.0
C84 C 0.20886 0.35854 0.7184 0.0
C85 C 0.33259 0.37361 0.67605 0.0
O86 O 0.3346 0.40892 0.68549 0.0
O87 O 0.29677 0.35466 0.67363 0.0
Zn88 Zn 0.22053 0.67196 0.13989 0.0
Zn89 Zn 0.14042 0.76673 0.09221 0.0
Zn90 Zn 0.18246 0.71938 0.11489 0.0
C91 C 0.14864 0.68725 0.07439 0.0
C92 C 0.21676 0.80714 0.09996 0.0
O93 O 0.14976 0.72492 0.14068 0.0
O94 O 0.18398 0.68412 0.1602 0.0
C95 C 0.19971 0.61806 0.10945 0.0
O96 O 0.16533 0.67779 0.09008 0.0
O97 O 0.13678 0.72455 0.07167 0.0
O98 O 0.18173 0.81226 0.09121 0.0
O99 O 0.22328 0.77414 0.10929 0.0
O100 O 0.21398 0.61713 0.12585 0.0
O101 O 0.18761 0.65339 0.10285 0.0
O102 O 0.24637 0.74639 0.1203 0.0
O103 O 0.27528 0.70346 0.14036 0.0
C104 C 0.27825 0.73501 0.13067 0.0
O105 O 0.12275 0.74074 0.12666 0.0
O106 O 0.08875 0.77726 0.10545 0.0
C107 C 0.15488 0.71023 0.15669 0.0
C108 C 0.09014 0.76176 0.1209 0.0
Zn109 Zn 0.55029 0.6904 0.35805 0.0
Zn110 Zn 0.60682 0.81031 0.40837 0.0
Zn111 Zn 0.57736 0.75233 0.38348 0.0
C112 C 0.52694 0.83662 0.39693 0.0
C113 C 0.66383 0.80586 0.38104 0.0
O114 O 0.57479 0.69054 0.396 0.0
O115 O 0.55912 0.64151 0.37392 0.0
C116 C 0.48389 0.7504 0.3641 0.0
O117 O 0.52852 0.80197 0.38695 0.0
O118 O 0.55782 0.84818 0.40774 0.0
O119 O 0.65819 0.82561 0.39606 0.0
O120 O 0.63643 0.77827 0.37418 0.0
O121 O 0.49229 0.71654 0.3551 0.0
O122 O 0.51219 0.76864 0.37522 0.0
O123 O 0.61493 0.75487 0.35923 0.0
O124 O 0.59126 0.70291 0.33983 0.0
C125 C 0.61543 0.73436 0.34361 0.0
O126 O 0.59473 0.71999 0.40889 0.0
O127 O 0.6131 0.77269 0.42883 0.0
C128 C 0.56787 0.65155 0.39059 0.0
C129 C 0.60696 0.73363 0.4252 0.0
Zn130 Zn 0.63596 0.26452 0.58149 0.0
Zn131 Zn 0.74002 0.13766 0.64775 0.0
Zn132 Zn 0.66867 0.21925 0.60411 0.0
C133 C 0.75161 0.22145 0.62532 0.0
C134 C 0.69935 0.13137 0.60552 0.0
O135 O 0.61143 0.24035 0.61696 0.0
O136 O 0.58288 0.27586 0.59427 0.0
C137 C 0.71035 0.3055 0.59248 0.0
O138 O 0.73168 0.24295 0.61327 0.0
O139 O 0.73298 0.18828 0.62998 0.0
O140 O 0.70883 0.14882 0.62142 0.0
O141 O 0.67927 0.15426 0.59401 0.0
O142 O 0.67813 0.31036 0.58179 0.0
O143 O 0.7135 0.27244 0.60194 0.0
O144 O 0.65517 0.17478 0.57994 0.0
O145 O 0.63405 0.22272 0.56069 0.0
C146 C 0.64224 0.18466 0.56379 0.0
O147 O 0.6357 0.21509 0.62898 0.0
O148 O 0.68945 0.17512 0.63653 0.0
C149 C 0.58098 0.26256 0.61009 0.0
C150 C 0.6555 0.1936 0.64106 0.0
Zn151 Zn 0.0418 0.17066 0.84157 0.0
Zn152 Zn 0.09544 0.29149 0.88904 0.0
Zn153 Zn 0.06552 0.23303 0.86676 0.0
C154 C 0.09253 0.21904 0.90856 0.0
C155 C 0.01732 0.31966 0.87753 0.0
O156 O 0.1004 0.23815 0.84179 0.0
O157 O 0.07729 0.18702 0.82186 0.0
C158 C 0.064 0.13219 0.87379 0.0
O159 O 0.08463 0.2027 0.8923 0.0
O160 O 0.09433 0.25879 0.91129 0.0
O161 O 0.05164 0.33441 0.88488 0.0
O162 O 0.01508 0.28105 0.87098 0.0
O163 O 0.05696 0.12192 0.85703 0.0
O164 O 0.06691 0.17148 0.87935 0.0
O165 O 0.99899 0.2466 0.85949 0.0
O166 O 0.98187 0.19191 0.8403 0.0
C167 C 0.97142 0.22551 0.84899 0.0
O168 O 0.12534 0.2573 0.85677 0.0
O169 O 0.1513 0.30016 0.87945 0.0
C170 C 0.09981 0.21963 0.82569 0.0
C171 C 0.15557 0.28111 0.86418 0.0
C172 C 0.19952 0.39142 0.05378 0.0
C173 C 0.24012 0.37475 0.05733 0.0
C174 C 0.18932 0.43259 0.06015 0.0
C175 C 0.22059 0.45787 0.07015 0.0
C176 C 0.26203 0.44177 0.07321 0.0
C177 C 0.27121 0.40031 0.06687 0.0
C178 C 0.1447 0.44842 0.05679 0.0
C179 C 0.2964 0.46791 0.08365 0.0
C180 C 0.20766 0.57662 0.07984 0.0
C181 C 0.19831 0.57792 0.09819 0.0
C182 C 0.21333 0.53762 0.07016 0.0
C183 C 0.20919 0.49933 0.07907 0.0
C184 C 0.19708 0.50068 0.09724 0.0
C185 C 0.1921 0.53991 0.10659 0.0
C186 C 0.2262 0.53755 0.0508 0.0
C187 C 0.19137 0.4607 0.10716 0.0
H188 H 0.17529 0.37193 0.04636 0.0
H189 H 0.30276 0.38786 0.0695 0.0
H190 H 0.1295 0.45214 0.06992 0.0
H191 H 0.14484 0.48002 0.05095 0.0
H192 H 0.12513 0.42646 0.0474 0.0
H193 H 0.32776 0.45226 0.08349 0.0
H194 H 0.29874 0.49936 0.07781 0.0
H195 H 0.28846 0.4734 0.09804 0.0
H196 H 0.21295 0.60596 0.07338 0.0
H197 H 0.18445 0.54087 0.12075 0.0
H198 H 0.20778 0.51367 0.04196 0.0
H199 H 0.26005 0.5288 0.0505 0.0
H200 H 0.22178 0.56907 0.04498 0.0
H201 H 0.17004 0.43831 0.09885 0.0
H202 H 0.17813 0.46713 0.12063 0.0
H203 H 0.22233 0.44476 0.10935 0.0
C204 C 0.89538 0.83479 0.34695 0.0
C205 C 0.89442 0.85272 0.32991 0.0
C206 C 0.85788 0.82752 0.35544 0.0
C207 C 0.81859 0.8386 0.34671 0.0
C208 C 0.81754 0.85739 0.32969 0.0
C209 C 0.85541 0.86418 0.32149 0.0
C210 C 0.86022 0.80752 0.37363 0.0
C211 C 0.77631 0.86971 0.32002 0.0
C212 C 0.71994 0.78328 0.36023 0.0
C213 C 0.7026 0.81443 0.37173 0.0
C214 C 0.75722 0.79098 0.35168 0.0
C215 C 0.77847 0.83026 0.35527 0.0
C216 C 0.76136 0.86166 0.36706 0.0
C217 C 0.72355 0.85341 0.37509 0.0
C218 C 0.77419 0.75661 0.33915 0.0
C219 C 0.78317 0.90384 0.37131 0.0
H220 H 0.92539 0.82577 0.35354 0.0
H221 H 0.85434 0.87816 0.30834 0.0
H222 H 0.84433 0.82801 0.3838 0.0
H223 H 0.84328 0.7767 0.37233 0.0
H224 H 0.89332 0.8021 0.37892 0.0
H225 H 0.78052 0.88157 0.30633 0.0
H226 H 0.75477 0.84199 0.31848 0.0
H227 H 0.76069 0.8947 0.32831 0.0
H228 H 0.70471 0.7526 0.35809 0.0
H229 H 0.71042 0.87755 0.38407 0.0
H230 H 0.80124 0.74094 0.34636 0.0
H231 H 0.78591 0.76995 0.3268 0.0
H232 H 0.74984 0.73217 0.33481 0.0
H233 H 0.81559 0.89886 0.37746 0.0
H234 H 0.76582 0.92476 0.38084 0.0
H235 H 0.78628 0.92036 0.35856 0.0
C236 C 0.7606 0.53648 0.60831 0.0
C237 C 0.79785 0.5534 0.60243 0.0
C238 C 0.75617 0.49283 0.60994 0.0
C239 C 0.79016 0.46553 0.60593 0.0
C240 C 0.82955 0.48297 0.60221 0.0
C241 C 0.83284 0.52679 0.60028 0.0
C242 C 0.7135 0.47571 0.614 0.0
C243 C 0.86712 0.4552 0.59864 0.0
C244 C 0.75991 0.35196 0.61252 0.0
C245 C 0.74121 0.34048 0.59516 0.0
C246 C 0.78043 0.39127 0.61597 0.0
C247 C 0.78103 0.4198 0.60182 0.0
C248 C 0.7655 0.40657 0.58392 0.0
C249 C 0.74601 0.36696 0.58082 0.0
C250 C 0.79871 0.40345 0.63497 0.0
C251 C 0.76558 0.43578 0.56834 0.0
H252 H 0.73361 0.55687 0.61027 0.0
H253 H 0.86208 0.53974 0.59608 0.0
H254 H 0.69838 0.45955 0.60145 0.0
H255 H 0.71697 0.45203 0.62455 0.0
H256 H 0.692 0.50112 0.61876 0.0
H257 H 0.89725 0.47287 0.60175 0.0
H258 H 0.86746 0.42674 0.60682 0.0
H259 H 0.86555 0.44437 0.58402 0.0
H260 H 0.75585 0.33171 0.62369 0.0
H261 H 0.73189 0.35787 0.56734 0.0
H262 H 0.77996 0.42949 0.6411 0.0
H263 H 0.83153 0.4153 0.63449 0.0
H264 H 0.7989 0.37638 0.64397 0.0
H265 H 0.74396 0.46275 0.5709 0.0
H266 H 0.7552 0.41948 0.55504 0.0
H267 H 0.79765 0.449 0.5673 0.0
C268 C 0.72288 0.23048 0.84376 0.0
C269 C 0.70418 0.26559 0.83563 0.0
C270 C 0.76675 0.22859 0.84768 0.0
C271 C 0.79266 0.26257 0.84334 0.0
C272 C 0.77378 0.29917 0.83613 0.0
C273 C 0.72974 0.30025 0.83235 0.0
C274 C 0.78558 0.18923 0.85563 0.0
C275 C 0.8003 0.33622 0.83151 0.0
C276 C 0.9077 0.25957 0.86184 0.0
C277 C 0.92681 0.23925 0.84716 0.0
C278 C 0.86424 0.26886 0.86069 0.0
C279 C 0.83946 0.25745 0.84442 0.0
C280 C 0.85901 0.23806 0.82936 0.0
C281 C 0.90235 0.22907 0.83095 0.0
C282 C 0.84478 0.28995 0.87699 0.0
C283 C 0.83386 0.22543 0.81174 0.0
H284 H 0.70339 0.20372 0.84651 0.0
H285 H 0.71557 0.32765 0.82618 0.0
H286 H 0.80439 0.17212 0.8454 0.0
H287 H 0.80736 0.19786 0.8677 0.0
H288 H 0.761 0.16735 0.85977 0.0
H289 H 0.78068 0.36398 0.82784 0.0
H290 H 0.82283 0.34584 0.84319 0.0
H291 H 0.81924 0.32677 0.81982 0.0
H292 H 0.92631 0.26632 0.87451 0.0
H293 H 0.91705 0.21341 0.81953 0.0
H294 H 0.816 0.27264 0.88019 0.0
H295 H 0.83508 0.3226 0.87385 0.0
H296 H 0.86713 0.29176 0.88929 0.0
H297 H 0.81041 0.20069 0.81419 0.0
H298 H 0.85423 0.21291 0.80099 0.0
H299 H 0.81604 0.253 0.80658 0.0
C300 C 0.88169 0.51616 0.91111 0.0
C301 C 0.91382 0.53273 0.92356 0.0
C302 C 0.88708 0.47751 0.90113 0.0
C303 C 0.92571 0.45541 0.9035 0.0
C304 C 0.95774 0.47153 0.9164 0.0
C305 C 0.95129 0.50976 0.9263 0.0
C306 C 0.85203 0.46117 0.88769 0.0
C307 C 0.99951 0.44902 0.91943 0.0
C308 C 0.95336 0.34198 0.89264 0.0
C309 C 0.98009 0.34691 0.87853 0.0
C310 C 0.92994 0.37632 0.89941 0.0
C311 C 0.93453 0.41647 0.89215 0.0
C312 C 0.95723 0.42002 0.87637 0.0
C313 C 0.97999 0.38507 0.86979 0.0
C314 C 0.90495 0.37094 0.91586 0.0
C315 C 0.96248 0.46205 0.86802 0.0
H316 H 0.85255 0.53364 0.90894 0.0
H317 H 0.97624 0.52215 0.93592 0.0
H318 H 0.85983 0.46815 0.87369 0.0
H319 H 0.84844 0.42634 0.88807 0.0
H320 H 0.8213 0.47637 0.89037 0.0
H321 H 0.02079 0.46553 0.93015 0.0
H322 H 0.99411 0.4163 0.92349 0.0
H323 H 0.01593 0.44672 0.90657 0.0
H324 H 0.95425 0.31273 0.89969 0.0
H325 H 0.00122 0.3889 0.85904 0.0
H326 H 0.87482 0.38874 0.91469 0.0
H327 H 0.92345 0.38382 0.92827 0.0
H328 H 0.89786 0.3371 0.91768 0.0
H329 H 0.93222 0.47965 0.8673 0.0
H330 H 0.97394 0.45807 0.8541 0.0
H331 H 0.98586 0.4816 0.87668 0.0
C332 C 0.86149 0.81561 0.15051 0.0
C333 C 0.84902 0.79458 0.16552 0.0
C334 C 0.90178 0.80915 0.14406 0.0
C335 C 0.93092 0.78255 0.15338 0.0
C336 C 0.91877 0.76219 0.1689 0.0
C337 C 0.87759 0.76774 0.17453 0.0
C338 C 0.91256 0.82955 0.12686 0.0
C339 C 0.94847 0.73357 0.17938 0.0
C340 C 0.01986 0.73463 0.12705 0.0
C341 C 0.05214 0.7644 0.13121 0.0
C342 C 0.98039 0.73976 0.13441 0.0
C343 C 0.97349 0.77519 0.14645 0.0
C344 C 0.00669 0.8046 0.15116 0.0
C345 C 0.04551 0.79925 0.14319 0.0
C346 C 0.94559 0.70825 0.12871 0.0
C347 C 0.00077 0.84218 0.16427 0.0
H348 H 0.83912 0.8359 0.14339 0.0
H349 H 0.8679 0.75143 0.18615 0.0
H350 H 0.94048 0.85058 0.12965 0.0
H351 H 0.92098 0.80474 0.11648 0.0
H352 H 0.88596 0.84846 0.121 0.0
H353 H 0.94119 0.73376 0.19393 0.0
H354 H 0.94438 0.70061 0.17357 0.0
H355 H 0.98206 0.74269 0.17863 0.0
H356 H 0.02503 0.70818 0.11746 0.0
H357 H 0.07029 0.82277 0.14596 0.0
H358 H 0.91761 0.72487 0.12269 0.0
H359 H 0.93554 0.6925 0.1408 0.0
H360 H 0.95559 0.68352 0.1186 0.0
H361 H 0.97588 0.86327 0.15858 0.0
H362 H 0.0302 0.86103 0.16716 0.0
H363 H 0.98996 0.83132 0.17726 0.0
C364 C 0.46173 0.46573 0.43197 0.0
C365 C 0.47699 0.45042 0.44863 0.0
C366 C 0.48186 0.49944 0.42444 0.0
C367 C 0.51916 0.51724 0.43345 0.0
C368 C 0.53543 0.50115 0.45007 0.0
C369 C 0.51363 0.46836 0.45767 0.0
C370 C 0.46272 0.51644 0.40696 0.0
C371 C 0.57592 0.51831 0.4597 0.0
C372 C 0.57811 0.57767 0.40017 0.0
C373 C 0.56423 0.61902 0.40398 0.0
C374 C 0.56723 0.54461 0.41095 0.0
C375 C 0.54036 0.55297 0.42532 0.0
C376 C 0.52869 0.59525 0.42995 0.0
C377 C 0.54132 0.62791 0.41933 0.0
C378 C 0.58201 0.5003 0.40611 0.0
C379 C 0.49942 0.60562 0.44491 0.0
H380 H 0.4332 0.45213 0.42507 0.0
H381 H 0.52559 0.45628 0.47051 0.0
H382 H 0.45686 0.55093 0.40895 0.0
H383 H 0.48504 0.51204 0.39605 0.0
H384 H 0.43242 0.50051 0.40221 0.0
H385 H 0.58502 0.50152 0.47223 0.0
H386 H 0.60201 0.51533 0.45039 0.0
H387 H 0.57252 0.5525 0.46349 0.0
H388 H 0.5962 0.57095 0.38837 0.0
H389 H 0.53038 0.65992 0.4222 0.0
H390 H 0.55563 0.48189 0.39885 0.0
H391 H 0.59191 0.48377 0.41861 0.0
H392 H 0.60883 0.50033 0.39715 0.0
H393 H 0.46695 0.5949 0.44026 0.0
H394 H 0.49853 0.64016 0.44855 0.0
H395 H 0.50902 0.58881 0.45733 0.0
C396 C 0.98687 0.27239 0.66696 0.0
C397 C 0.98802 0.30827 0.67908 0.0
C398 C 0.94873 0.25802 0.65791 0.0
C399 C 0.91075 0.27989 0.66112 0.0
C400 C 0.91162 0.31595 0.67342 0.0
C401 C 0.95026 0.32979 0.6822 0.0
C402 C 0.94906 0.21944 0.64489 0.0
C403 C 0.87181 0.34015 0.6772 0.0
C404 C 0.8178 0.26459 0.62595 0.0
C405 C 0.79292 0.23537 0.63412 0.0
C406 C 0.856 0.27979 0.63466 0.0
C407 C 0.87004 0.26464 0.65178 0.0
C408 C 0.84531 0.2346 0.65996 0.0
C409 C 0.80702 0.22037 0.65103 0.0
C410 C 0.88123 0.31207 0.62556 0.0
C411 C 0.85906 0.21787 0.67824 0.0
H412 H 0.01588 0.25561 0.66442 0.0
H413 H 0.95081 0.35757 0.69151 0.0
H414 H 0.92821 0.19451 0.64947 0.0
H415 H 0.93638 0.22767 0.63112 0.0
H416 H 0.98129 0.20615 0.64381 0.0
H417 H 0.87732 0.36554 0.68813 0.0
H418 H 0.85933 0.35483 0.66461 0.0
H419 H 0.84706 0.3184 0.68122 0.0
H420 H 0.80743 0.27553 0.6127 0.0
H421 H 0.78778 0.198 0.65747 0.0
H422 H 0.91283 0.29907 0.62284 0.0
H423 H 0.88631 0.34089 0.63473 0.0
H424 H 0.86529 0.32145 0.61248 0.0
H425 H 0.8904 0.20246 0.67758 0.0
H426 H 0.83623 0.19457 0.68272 0.0
H427 H 0.86252 0.24443 0.68872 0.0
C428 C 0.37333 0.31196 0.66392 0.0
C429 C 0.37027 0.35569 0.66779 0.0
C430 C 0.40838 0.29469 0.65553 0.0
C431 C 0.44039 0.32199 0.65043 0.0
C432 C 0.43755 0.36618 0.65442 0.0
C433 C 0.40276 0.38244 0.6633 0.0
C434 C 0.41097 0.24733 0.65194 0.0
C435 C 0.47056 0.39641 0.64882 0.0
C436 C 0.5482 0.27838 0.6397 0.0
C437 C 0.54434 0.27455 0.62061 0.0
C438 C 0.5144 0.29336 0.64962 0.0
C439 C 0.47596 0.30457 0.64022 0.0
C440 C 0.47175 0.30017 0.62095 0.0
C441 C 0.506 0.28527 0.61139 0.0
C442 C 0.52016 0.29835 0.67012 0.0
C443 C 0.4314 0.31219 0.61041 0.0
H444 H 0.34839 0.2912 0.66754 0.0
H445 H 0.40029 0.4163 0.66619 0.0
H446 H 0.4102 0.23954 0.63705 0.0
H447 H 0.44138 0.23538 0.65802 0.0
H448 H 0.38461 0.23033 0.65762 0.0
H449 H 0.46438 0.42971 0.65346 0.0
H450 H 0.50239 0.38736 0.65446 0.0
H451 H 0.47125 0.39465 0.63374 0.0
H452 H 0.57812 0.27123 0.64684 0.0
H453 H 0.50291 0.28242 0.59662 0.0
H454 H 0.49472 0.28122 0.67635 0.0
H455 H 0.51783 0.33223 0.67466 0.0
H456 H 0.55125 0.28634 0.67532 0.0
H457 H 0.40443 0.2938 0.61477 0.0
H458 H 0.43315 0.30649 0.59545 0.0
H459 H 0.42454 0.3462 0.61334 0.0
C460 C 0.48805 0.87432 0.15081 0.0
C461 C 0.52253 0.84673 0.14943 0.0
C462 C 0.44709 0.86138 0.14441 0.0
C463 C 0.44054 0.81995 0.13647 0.0
C464 C 0.47579 0.79375 0.13328 0.0
C465 C 0.51639 0.8074 0.13984 0.0
C466 C 0.41044 0.89073 0.14748 0.0
C467 C 0.47023 0.74981 0.12437 0.0
C468 C 0.34401 0.75958 0.14829 0.0
C469 C 0.3184 0.75911 0.13202 0.0
C470 C 0.38318 0.78028 0.14993 0.0
C471 C 0.39733 0.80112 0.1349 0.0
C472 C 0.37107 0.80191 0.11856 0.0
C473 C 0.33205 0.78036 0.11725 0.0
C474 C 0.40978 0.77912 0.16773 0.0
C475 C 0.38455 0.82404 0.10225 0.0
H476 H 0.49252 0.90512 0.15787 0.0
H477 H 0.54293 0.78615 0.13837 0.0
H478 H 0.38898 0.89108 0.13496 0.0
H479 H 0.39195 0.8791 0.15849 0.0
H480 H 0.42103 0.92364 0.15142 0.0
H481 H 0.50074 0.73598 0.12043 0.0
H482 H 0.45633 0.72879 0.13399 0.0
H483 H 0.44812 0.75034 0.11204 0.0
H484 H 0.33346 0.74345 0.1598 0.0
H485 H 0.31278 0.77927 0.10451 0.0
H486 H 0.41792 0.81179 0.17306 0.0
H487 H 0.43985 0.7623 0.16546 0.0
H488 H 0.39343 0.76291 0.1783 0.0
H489 H 0.40242 0.85353 0.10639 0.0
H490 H 0.35691 0.832 0.09298 0.0
H491 H 0.40556 0.80276 0.09451 0.0
C492 C 0.39377 0.26425 0.83895 0.0
C493 C 0.40509 0.28983 0.82509 0.0
C494 C 0.35238 0.26434 0.84462 0.0
C495 C 0.32125 0.28996 0.83598 0.0
C496 C 0.33251 0.31599 0.82199 0.0
C497 C 0.37438 0.31588 0.81685 0.0
C498 C 0.3421 0.23737 0.86006 0.0
C499 C 0.30112 0.34473 0.81249 0.0
C500 C 0.20873 0.25508 0.84236 0.0
C501 C 0.19629 0.28522 0.8556 0.0
C502 C 0.24831 0.25772 0.835 0.0
C503 C 0.27727 0.28974 0.8419 0.0
C504 C 0.26491 0.32033 0.85523 0.0
C505 C 0.22442 0.31804 0.86172 0.0
C506 C 0.25926 0.22525 0.82028 0.0
C507 C 0.29486 0.35483 0.86302 0.0
H508 H 0.41737 0.24427 0.84548 0.0
H509 H 0.38279 0.33586 0.80613 0.0
H510 H 0.32779 0.25718 0.87093 0.0
H511 H 0.31858 0.21277 0.85504 0.0
H512 H 0.37048 0.22142 0.86613 0.0
H513 H 0.30677 0.34538 0.79778 0.0
H514 H 0.26782 0.3354 0.8138 0.0
H515 H 0.30572 0.37751 0.81847 0.0
H516 H 0.18803 0.22873 0.83802 0.0
H517 H 0.21521 0.3415 0.87199 0.0
H518 H 0.27557 0.19822 0.82666 0.0
H519 H 0.28061 0.23855 0.81068 0.0
H520 H 0.23036 0.21284 0.81238 0.0
H521 H 0.32463 0.34067 0.86868 0.0
H522 H 0.2811 0.37494 0.87396 0.0
H523 H 0.30316 0.37536 0.85205 0.0
C524 C 0.23924 0.80221 0.35184 0.0
C525 C 0.23078 0.84156 0.34449 0.0
C526 C 0.28078 0.78997 0.35679 0.0
C527 C 0.31473 0.81767 0.3543 0.0
C528 C 0.30625 0.85833 0.34781 0.0
C529 C 0.26436 0.86979 0.34296 0.0
C530 C 0.28849 0.74654 0.3639 0.0
C531 C 0.34153 0.88887 0.34505 0.0
C532 C 0.42275 0.7905 0.37617 0.0
C533 C 0.44126 0.76894 0.36161 0.0
C534 C 0.382 0.8077 0.37393 0.0
C535 C 0.35901 0.80237 0.35679 0.0
C536 C 0.37769 0.78068 0.34203 0.0
C537 C 0.41853 0.76413 0.34464 0.0
C538 C 0.36342 0.83111 0.38992 0.0
C539 C 0.35433 0.77454 0.3235 0.0
H540 H 0.21349 0.78033 0.35321 0.0
H541 H 0.25814 0.90035 0.33737 0.0
H542 H 0.30507 0.72658 0.35378 0.0
H543 H 0.30919 0.74887 0.37668 0.0
H544 H 0.25863 0.73036 0.3666 0.0
H545 H 0.32969 0.92155 0.34328 0.0
H546 H 0.36546 0.88949 0.35675 0.0
H547 H 0.35767 0.87827 0.33269 0.0
H548 H 0.43972 0.793 0.38945 0.0
H549 H 0.4328 0.74746 0.33335 0.0
H550 H 0.33364 0.81553 0.39308 0.0
H551 H 0.35542 0.86396 0.38642 0.0
H552 H 0.38545 0.83247 0.40233 0.0
H553 H 0.32517 0.7557 0.32457 0.0
H554 H 0.37382 0.75806 0.31332 0.0
H555 H 0.34454 0.80566 0.3184 0.0
C556 C 0.7526 0.88519 0.58667 0.0
C557 C 0.78665 0.88083 0.57548 0.0
C558 C 0.7369 0.92536 0.59175 0.0
C559 C 0.75607 0.96203 0.5857 0.0
C560 C 0.79091 0.95783 0.57469 0.0
C561 C 0.80561 0.9173 0.56963 0.0
C562 C 0.69948 0.92857 0.60339 0.0
C563 C 0.81262 0.99619 0.5682 0.0
C564 C 0.69597 0.06613 0.58457 0.0
C565 C 0.71249 0.08753 0.60066 0.0
C566 C 0.70923 0.0249 0.57969 0.0
C567 C 0.74012 0.00489 0.59107 0.0
C568 C 0.75672 0.02632 0.60737 0.0
C569 C 0.74255 0.06726 0.612 0.0
C570 C 0.69046 0.00288 0.56229 0.0
C571 C 0.79007 0.00633 0.61975 0.0
H572 H 0.73759 0.85716 0.59115 0.0
H573 H 0.83199 0.91421 0.56102 0.0
H574 H 0.7081 0.94747 0.61624 0.0
H575 H 0.67317 0.94528 0.59613 0.0
H576 H 0.68796 0.89702 0.60685 0.0
H577 H 0.83974 0.98752 0.55995 0.0
H578 H 0.78977 0.01477 0.55981 0.0
H579 H 0.82429 0.01713 0.58006 0.0
H580 H 0.67263 0.08159 0.57578 0.0
H581 H 0.75578 0.08372 0.62436 0.0
H582 H 0.67646 0.97207 0.56527 0.0
H583 H 0.71565 0.99607 0.55281 0.0
H584 H 0.66564 0.02216 0.55531 0.0
H585 H 0.77844 0.97569 0.62413 0.0
H586 H 0.79922 0.02696 0.63208 0.0
H587 H 0.81873 -0.00044 0.61224 0.0
C588 C 0.33351 0.02734 0.09001 0.0
C589 C 0.29743 0.05317 0.0897 0.0
C590 C 0.33147 0.98512 0.09503 0.0
C591 C 0.29226 0.96825 0.09934 0.0
C592 C 0.25669 0.99519 0.10041 0.0
C593 C 0.25985 0.03737 0.09575 0.0
C594 C 0.37051 0.95789 0.09461 0.0
C595 C 0.21419 0.97862 0.10497 0.0
C596 C 0.25361 0.85956 0.08319 0.0
C597 C 0.2483 0.84116 0.09973 0.0
C598 C 0.27219 0.89955 0.08279 0.0
C599 C 0.28572 0.92167 0.09941 0.0
C600 C 0.28489 0.90106 0.11601 0.0
C601 C 0.26582 0.86087 0.116 0.0
C602 C 0.27267 0.91994 0.06471 0.0
C603 C 0.30008 0.92289 0.13397 0.0
H604 H 0.36293 0.03955 0.08568 0.0
H605 H 0.23195 0.05719 0.09576 0.0
H606 H 0.37282 0.9373 0.10636 0.0
H607 H 0.36868 0.93693 0.08199 0.0
H608 H 0.39975 0.97731 0.09483 0.0
H609 H 0.19067 0.00433 0.10667 0.0
H610 H 0.20173 0.95586 0.09388 0.0
H611 H 0.21734 0.96143 0.11771 0.0
H612 H 0.2402 0.844 0.07062 0.0
H613 H 0.26163 0.84657 0.12882 0.0
H614 H 0.30396 0.93439 0.06314 0.0
H615 H 0.2488 0.94561 0.06418 0.0
H616 H 0.26532 0.89692 0.05298 0.0
H617 H 0.32697 0.94454 0.13238 0.0
H618 H 0.30986 0.89948 0.14415 0.0
H619 H 0.27397 0.94199 0.13944 0.0
C620 C 0.45317 0.05392 0.40992 0.0
C621 C 0.41137 0.06659 0.41206 0.0
C622 C 0.46253 0.01268 0.40364 0.0
C623 C 0.42923 0.9832 0.39933 0.0
C624 C 0.38676 0.99662 0.40005 0.0
C625 C 0.37827 0.03828 0.40648 0.0
C626 C 0.50838 -6e-05 0.4029 0.0
C627 C 0.35052 0.9664 0.39499 0.0
C628 C 0.4773 0.88333 0.37975 0.0
C629 C 0.48998 0.86447 0.39597 0.0
C630 C 0.45222 0.92 0.38012 0.0
C631 C 0.43999 0.93757 0.3971 0.0
C632 C 0.44801 0.91494 0.41304 0.0
C633 C 0.47335 0.87881 0.41229 0.0
C634 C 0.44345 0.94247 0.36273 0.0
C635 C 0.43488 0.93186 0.43139 0.0
H636 H 0.47891 0.0758 0.41385 0.0
H637 H 0.34581 0.04804 0.40783 0.0
H638 H 0.51649 0.977 0.41347 0.0
H639 H 0.51391 0.98413 0.38946 0.0
H640 H 0.53022 0.02745 0.40526 0.0
H641 H 0.31972 0.9831 0.39367 0.0
H642 H 0.35555 0.94849 0.38194 0.0
H643 H 0.34883 0.94298 0.40559 0.0
H644 H 0.49011 0.87187 0.36711 0.0
H645 H 0.48296 0.86367 0.42477 0.0
H646 H 0.46916 0.96563 0.36133 0.0
H647 H 0.41317 0.96003 0.36279 0.0
H648 H 0.44247 0.91976 0.35065 0.0
H649 H 0.45578 0.95878 0.43639 0.0
H650 H 0.43725 0.90736 0.44166 0.0
H651 H 0.40197 0.94375 0.43033 0.0
C652 C 0.03386 0.94777 0.94347 0.0
C653 C -0.00032 0.92445 0.93497 0.0
C654 C 0.0513 0.98179 0.93492 0.0
C655 C 0.03296 0.99355 0.91786 0.0
C656 C 0.99835 0.97004 0.90931 0.0
C657 C 0.98273 0.93527 0.91782 0.0
C658 C 0.08937 0.00494 0.94402 0.0
C659 C 0.97692 0.98234 0.89142 0.0
C660 C 0.03916 0.10527 0.90223 0.0
C661 C 0.06333 0.09913 0.88708 0.0
C662 C 0.03096 0.07161 0.91312 0.0
C663 C 0.04846 0.03126 0.90904 0.0
C664 C 0.07613 0.02606 0.89476 0.0
C665 C 0.08247 0.05988 0.88365 0.0
C666 C 0.00066 0.07845 0.92797 0.0
C667 C 0.09707 0.98415 0.89054 0.0
H668 H 0.04718 0.93911 0.95669 0.0
H669 H 0.95604 0.91749 0.91134 0.0
H670 H 0.11638 0.00129 0.93523 0.0
H671 H 0.08289 0.03933 0.94571 0.0
H672 H 0.09892 0.99296 0.95759 0.0
H673 H 0.94939 0.96171 0.88696 0.0
H674 H 0.96588 0.01562 0.8927 0.0
H675 H -0.00032 0.98044 0.88061 0.0
H676 H 0.02422 0.13566 0.9048 0.0
H677 H 0.10153 0.05537 0.87201 0.0
H678 H 0.0138 0.06563 0.94087 0.0
H679 H 0.97073 0.06119 0.92391 0.0
H680 H 0.99324 0.11249 0.9306 0.0
H681 H 0.10959 0.97008 0.90328 0.0
H682 H 0.12336 0.98742 0.88146 0.0
H683 H 0.07348 0.9617 0.88365 0.0
C684 C 0.20233 0.13159 -0.00049 0.0
C685 C 0.2359 0.16079 0.00065 0.0
C686 C 0.17532 0.1265 0.98356 0.0
C687 C 0.18211 0.15136 0.96859 0.0
C688 C 0.21872 0.1772 0.96905 0.0
C689 C 0.24508 0.1816 0.98507 0.0
C690 C 0.13773 0.09725 0.98338 0.0
C691 C 0.22794 0.20358 0.95326 0.0
C692 C 0.12763 0.15545 0.92164 0.0
C693 C 0.10416 0.19268 0.92405 0.0
C694 C 0.14913 0.13738 0.93664 0.0
C695 C 0.14785 0.15788 0.95419 0.0
C696 C 0.1198 0.19217 0.95687 0.0
C697 C 0.09823 0.20906 0.94174 0.0
C698 C 0.17642 0.09908 0.93334 0.0
C699 C 0.11641 0.21443 0.9754 0.0
H700 H 0.19532 0.1149 0.01143 0.0
H701 H 0.27159 0.20341 0.98572 0.0
H702 H 0.11034 0.1152 0.98836 0.0
H703 H 0.12867 0.08383 0.96943 0.0
H704 H 0.1443 0.07087 0.99252 0.0
H705 H 0.25964 0.21877 0.95512 0.0
H706 H 0.22627 0.18374 0.94034 0.0
H707 H 0.20382 0.22885 0.95186 0.0
H708 H 0.13224 0.14251 0.90799 0.0
H709 H 0.07929 0.23732 0.94366 0.0
H710 H 0.17919 0.07946 0.9454 0.0
H711 H 0.20861 0.10957 0.93052 0.0
H712 H 0.16346 0.07921 0.92133 0.0
H713 H 0.11244 0.19114 0.98588 0.0
H714 H 0.08947 0.23689 0.97555 0.0
H715 H 0.14596 0.23247 0.97932 0.0
C716 C 0.12497 0.81339 0.25272 0.0
C717 C 0.08391 0.81897 0.25841 0.0
C718 C 0.1318 0.79661 0.23514 0.0
C719 C 0.09672 0.78536 0.22289 0.0
C720 C 0.05522 0.79204 0.22835 0.0
C721 C 0.04928 0.8086 0.24607 0.0
C722 C 0.17662 0.78993 0.22982 0.0
C723 C 0.01709 0.78055 0.21569 0.0
C724 C 0.12358 0.77151 0.17351 0.0
C725 C 0.13116 0.72791 0.17186 0.0
C726 C 0.10998 0.79052 0.18977 0.0
C727 C 0.10389 0.76517 0.20465 0.0
C728 C 0.10888 0.72072 0.2026 0.0
C729 C 0.12276 0.70264 0.18624 0.0
C730 C 0.10509 0.838 0.19147 0.0
C731 C 0.10236 0.69255 0.21809 0.0
H732 H 0.15192 0.8213 0.26214 0.0
H733 H 0.0174 0.81287 0.2503 0.0
H734 H 0.18221 0.75569 0.22684 0.0
H735 H 0.18175 0.8064 0.21723 0.0
H736 H 0.20038 0.80168 0.24071 0.0
H737 H 0.98736 0.79354 0.22088 0.0
H738 H 0.02087 0.79236 0.20199 0.0
H739 H 0.0141 0.74559 0.21407 0.0
H740 H 0.13123 0.7912 0.16259 0.0
H741 H 0.12885 0.6689 0.18498 0.0
H742 H 0.13027 0.85181 0.20121 0.0
H743 H 0.0743 0.84646 0.19699 0.0
H744 H 0.10723 0.85272 0.1782 0.0
H745 H 0.12739 0.69908 0.22916 0.0
H746 H 0.10343 0.65841 0.21372 0.0
H747 H 0.07151 0.69936 0.22387 0.0
C748 C 0.75471 0.68429 0.50106 0.0
C749 C 0.74363 0.66334 0.51634 0.0
C750 C 0.72937 0.68111 0.48472 0.0
C751 C 0.69206 0.65616 0.48359 0.0
C752 C 0.68368 0.63068 0.49815 0.0
C753 C 0.70947 0.63477 0.51448 0.0
C754 C 0.74029 0.70807 0.46936 0.0
C755 C 0.64558 0.60188 0.49712 0.0
C756 C 0.61073 0.71906 0.45783 0.0
C757 C 0.61679 0.70464 0.43989 0.0
C758 C 0.63126 0.69978 0.47258 0.0
C759 C 0.6584 0.66505 0.46925 0.0
C760 C 0.65954 0.64652 0.45132 0.0
C761 C 0.63896 0.66693 0.4367 0.0
C762 C 0.62798 0.7201 0.4915 0.0
C763 C 0.68575 0.60783 0.44726 0.0
H764 H 0.78172 0.70551 0.5022 0.0
H765 H 0.70114 0.61768 0.5261 0.0
H766 H 0.73889 0.68891 0.45627 0.0
H767 H 0.71692 0.73403 0.46797 0.0
H768 H 0.77232 0.7224 0.47171 0.0
H769 H 0.65068 0.57533 0.5063 0.0
H770 H 0.61778 0.62009 0.50149 0.0
H771 H 0.63802 0.5887 0.483 0.0
H772 H 0.59267 0.74771 0.46028 0.0
H773 H 0.64335 0.65541 0.42282 0.0
H774 H 0.65815 0.73648 0.49602 0.0
H775 H 0.62245 0.69579 0.50136 0.0
H776 H 0.60203 0.74367 0.49198 0.0
H777 H 0.71781 0.61783 0.44402 0.0
H778 H 0.67149 0.58891 0.43523 0.0
H779 H 0.68903 0.58744 0.45907 0.0
C780 C 0.59123 0.27399 0.73772 0.0
C781 C 0.58579 0.24343 0.75043 0.0
C782 C 0.60332 0.26255 0.72018 0.0
C783 C 0.6091 0.21917 0.71502 0.0
C784 C 0.60376 0.1881 0.72782 0.0
C785 C 0.5925 0.20064 0.74545 0.0
C786 C 0.61013 0.29779 0.70762 0.0
C787 C 0.61001 0.14166 0.7229 0.0
C788 C 0.60072 0.19429 0.66389 0.0
C789 C 0.64329 0.19472 0.66 0.0
C790 C 0.58909 0.19966 0.68195 0.0
C791 C 0.6209 0.20659 0.69629 0.0
C792 C 0.66402 0.20557 0.69239 0.0
C793 C 0.6747 0.19906 0.67429 0.0
C794 C 0.54285 0.19844 0.68564 0.0
C795 C 0.69877 0.2138 0.70721 0.0
H796 H 0.58667 0.30721 0.74154 0.0
H797 H 0.5883 0.17688 0.75525 0.0
H798 H 0.6353 0.31933 0.71395 0.0
H799 H 0.61925 0.28686 0.69388 0.0
H800 H 0.58085 0.31693 0.70613 0.0
H801 H 0.60542 0.12155 0.73453 0.0
H802 H 0.5874 0.13126 0.71137 0.0
H803 H 0.64232 0.13628 0.71833 0.0
H804 H 0.57655 0.19018 0.65279 0.0
H805 H 0.70768 0.19957 0.67122 0.0
H806 H 0.53463 0.22545 0.69499 0.0
H807 H 0.53615 0.16899 0.69245 0.0
H808 H 0.52199 0.19908 0.67291 0.0
H809 H 0.69707 0.2472 0.71259 0.0
H810 H 0.73068 0.20816 0.7022 0.0
H811 H 0.69462 0.19334 0.71873 0.0
C812 C 0.01997 0.73173 0.0052 0.0
C813 C 0.00614 0.71254 0.98825 0.0
C814 C 0.04649 0.71063 0.01762 0.0
C815 C 0.05961 0.66865 0.01317 0.0
C816 C 0.04509 0.64848 0.99623 0.0
C817 C 0.01889 0.67091 0.98385 0.0
C818 C 0.0611 0.73403 0.03541 0.0
C819 C 0.05794 0.6039 0.99079 0.0
C820 C 0.15762 0.66211 0.04299 0.0
C821 C 0.13902 0.65564 0.05934 0.0
C822 C 0.13335 0.6585 0.02632 0.0
C823 C 0.08994 0.64808 0.02631 0.0
C824 C 0.07452 0.63165 0.04211 0.0
C825 C 0.09945 0.63577 0.05865 0.0
C826 C 0.15196 0.67365 0.00952 0.0
C827 C 0.0293 0.6172 0.04234 0.0
H828 H 0.01015 0.76378 0.00879 0.0
H829 H 0.0096 0.65615 0.97059 0.0
H830 H 0.05181 0.71627 0.0471 0.0
H831 H 0.09606 0.73692 0.03643 0.0
H832 H 0.04761 0.76638 0.03674 0.0
H833 H 0.03288 0.58781 0.98164 0.0
H834 H 0.08689 0.60503 0.98316 0.0
H835 H 0.06479 0.58465 0.00278 0.0
H836 H 0.18865 0.67675 0.04351 0.0
H837 H 0.08524 0.63001 0.07129 0.0
H838 H 0.14295 0.70721 0.00783 0.0
H839 H 0.13958 0.65478 0.99718 0.0
H840 H 0.18703 0.6717 0.01059 0.0
H841 H 0.00882 0.64518 0.0447 0.0
H842 H 0.02544 0.5954 0.05345 0.0
H843 H 0.01835 0.60106 0.02909 0.0
C844 C 0.64283 0.81935 0.24957 0.0
C845 C 0.68241 0.81884 0.24213 0.0
C846 C 0.63852 0.80861 0.26756 0.0
C847 C 0.67486 0.79815 0.27867 0.0
C848 C 0.71528 0.79975 0.27155 0.0
C849 C 0.7185 0.8099 0.25334 0.0
C850 C 0.59462 0.80592 0.27428 0.0
C851 C 0.75541 0.78915 0.28254 0.0
C852 C 0.64688 0.7937 0.32784 0.0
C853 C 0.63989 0.75017 0.32894 0.0
C854 C 0.66181 0.80983 0.31206 0.0
C855 C 0.6692 0.78174 0.29694 0.0
C856 C 0.66517 0.73752 0.29856 0.0
C857 C 0.65065 0.7223 0.31455 0.0
C858 C 0.6664 0.85717 0.31132 0.0
C859 C 0.67319 0.70639 0.28288 0.0
H860 H 0.61469 0.82614 0.24104 0.0
H861 H 0.74932 0.80963 0.24777 0.0
H862 H 0.58886 0.77362 0.2788 0.0
H863 H 0.59165 0.82846 0.28618 0.0
H864 H 0.56956 0.8132 0.26363 0.0
H865 H 0.77093 0.76173 0.27571 0.0
H866 H 0.77778 0.81623 0.28286 0.0
H867 H 0.75029 0.78146 0.29672 0.0
H868 H 0.63834 0.81551 0.33886 0.0
H869 H 0.64564 0.68858 0.31543 0.0
H870 H 0.63495 0.87119 0.30796 0.0
H871 H 0.6881 0.86607 0.30094 0.0
H872 H 0.6782 0.8714 0.32485 0.0
H873 H 0.65134 0.71279 0.27092 0.0
H874 H 0.66879 0.67302 0.28637 0.0
H875 H 0.70594 0.71024 0.27878 0.0
C876 C 0.50547 0.24698 0.50284 0.0
C877 C 0.48209 0.23022 0.48724 0.0
C878 C 0.5333 0.22211 0.51317 0.0
C879 C 0.53881 0.17882 0.50781 0.0
C880 C 0.51561 0.16134 0.49205 0.0
C881 C 0.48716 0.18715 0.48207 0.0
C882 C 0.55709 0.24274 0.52985 0.0
C883 C 0.51995 0.11542 0.4858 0.0
C884 C 0.64207 0.15853 0.53198 0.0
C885 C 0.62767 0.15321 0.5493 0.0
C886 C 0.6133 0.15872 0.51662 0.0
C887 C 0.56968 0.15356 0.51894 0.0
C888 C 0.55722 0.13769 0.53539 0.0
C889 C 0.58684 0.13714 0.55049 0.0
C890 C 0.62851 0.1725 0.49891 0.0
C891 C 0.5114 0.12913 0.53812 0.0
H892 H 0.50211 0.28006 0.50715 0.0
H893 H 0.46906 0.17322 0.47036 0.0
H894 H 0.5513 0.22522 0.54209 0.0
H895 H 0.59152 0.24207 0.528 0.0
H896 H 0.54776 0.27625 0.53252 0.0
H897 H 0.51208 0.11051 0.4709 0.0
H898 H 0.5523 0.10335 0.48901 0.0
H899 H 0.49753 0.09621 0.49288 0.0
H900 H 0.67405 0.16989 0.53093 0.0
H901 H 0.57581 0.13194 0.56383 0.0
H902 H 0.62506 0.20736 0.49838 0.0
H903 H 0.6095 0.15744 0.48709 0.0
H904 H 0.66238 0.16454 0.49769 0.0
H905 H 0.49535 0.15955 0.54136 0.0
H906 H 0.50798 0.10817 0.54956 0.0
H907 H 0.49524 0.11429 0.52553 0.0
C908 C 0.15297 0.33563 0.73817 0.0
C909 C 0.19566 0.33717 0.73446 0.0
C910 C 0.14016 0.31565 0.75344 0.0
C911 C 0.17087 0.29703 0.76536 0.0
C912 C 0.21412 0.29885 0.76178 0.0
C913 C 0.22602 0.31902 0.74638 0.0
C914 C 0.09374 0.31463 0.75685 0.0
C915 C 0.24777 0.27901 0.77404 0.0
C916 C 0.13514 0.28081 0.81263 0.0
C917 C 0.12272 0.23813 0.81111 0.0
C918 C 0.15308 0.29979 0.79818 0.0
C919 C 0.15742 0.2759 0.78158 0.0
C920 C 0.14615 0.23251 0.78013 0.0
C921 C 0.12908 0.2141 0.79493 0.0
C922 C 0.16577 0.34588 0.80045 0.0
C923 C 0.15053 0.20595 0.76269 0.0
H924 H 0.12959 0.35094 0.72938 0.0
H925 H 0.25911 0.32018 0.74356 0.0
H926 H 0.08303 0.28141 0.75758 0.0
H927 H 0.08851 0.3313 0.77017 0.0
H928 H 0.0738 0.32973 0.74604 0.0
H929 H 0.28005 0.2896 0.77134 0.0
H930 H 0.2424 0.28663 0.78857 0.0
H931 H 0.24619 0.24406 0.77181 0.0
H932 H 0.12979 0.29983 0.82494 0.0
H933 H 0.11964 0.18107 0.79365 0.0
H934 H 0.14287 0.36499 0.79233 0.0
H935 H 0.19741 0.35068 0.79529 0.0
H936 H 0.16651 0.35801 0.81492 0.0
H937 H 0.12922 0.21829 0.75164 0.0
H938 H 0.14264 0.17212 0.76411 0.0
H939 H 0.18329 0.20802 0.75839 0.0
loop_
_geom_bond_atom_site_label_1
_geom_bond_atom_site_label_2
_geom_bond_distance
_geom_bond_site_symmetry_2
_ccdc_geom_bond_type
O0 Cd1 2.300 . S
O0 C7 1.275 . S
Cd1 O0 2.300 . S
Cd1 O9 2.381 . S
Cd1 O10 2.378 . S
O2 Cd3 2.385 . S
O2 C7 1.255 . S
Cd3 O2 2.385 . S
Cd3 O4 2.317 . S
O4 Cd3 2.317 . S
O4 C5 1.232 . S
C5 O4 1.232 . S
C5 O6 1.218 . S
O6 C5 1.218 . S
C7 O0 1.275 . S
C7 O2 1.255 . S
C8 O9 1.258 . S
C8 O10 1.256 . S
O9 Cd1 2.381 . S
O9 C8 1.258 . S
O10 Cd1 2.378 . S
O10 C8 1.256 . S
O11 Cd12 2.300 . S
O11 C18 1.275 . S
Cd12 O11 2.300 . S
Cd12 O20 2.381 . S
Cd12 O21 2.378 . S
O13 Cd14 2.385 . S
O13 C18 1.255 . S
Cd14 O13 2.385 . S
Cd14 O15 2.317 . S
O15 Cd14 2.317 . S
O15 C16 1.232 . S
C16 O15 1.232 . S
C16 O17 1.218 1_455 S
O17 C16 1.218 1_655 S
C18 O11 1.275 . S
C18 O13 1.255 . S
C19 O20 1.258 . S
C19 O21 1.256 . S
O20 Cd12 2.381 . S
O20 C19 1.258 . S
O21 Cd12 2.378 . S
O21 C19 1.256 . S
O22 Cd23 2.300 . S
O22 C29 1.275 . S
Cd23 O22 2.300 . S
Cd23 O31 2.381 . S
Cd23 O32 2.378 . S
O24 Cd25 2.385 . S
O24 C29 1.255 . S
Cd25 O24 2.385 . S
Cd25 O26 2.317 . S
O26 Cd25 2.317 . S
O26 C27 1.232 . S
C27 O26 1.232 . S
C27 O28 1.218 . S
O28 C27 1.218 . S
C29 O22 1.275 . S
C29 O24 1.255 . S
C30 O31 1.258 . S
C30 O32 1.256 . S
O31 Cd23 2.381 . S
O31 C30 1.258 . S
O32 Cd23 2.378 . S
O32 C30 1.256 . S
O33 Cd34 2.300 . S
O33 C40 1.275 . S
Cd34 O33 2.300 . S
Cd34 O42 2.381 . S
Cd34 O43 2.378 . S
O35 Cd36 2.385 . S
O35 C40 1.255 . S
Cd36 O35 2.385 . S
Cd36 O37 2.317 . S
O37 Cd36 2.317 . S
O37 C38 1.232 . S
C38 O37 1.232 . S
C38 O39 1.218 . S
O39 C38 1.218 . S
C40 O33 1.275 . S
C40 O35 1.255 . S
C41 O42 1.258 . S
C41 O43 1.256 . S
O42 Cd34 2.381 . S
O42 C41 1.258 . S
O43 Cd34 2.378 . S
O43 C41 1.256 . S
O44 Cd45 2.300 . S
O44 C51 1.275 . S
Cd45 O44 2.300 . S
Cd45 O53 2.381 . S
Cd45 O54 2.378 . S
O46 Cd47 2.385 . S
O46 C51 1.255 . S
Cd47 O46 2.385 . S
Cd47 O48 2.317 . S
O48 Cd47 2.317 . S
O48 C49 1.232 . S
C49 O48 1.232 . S
C49 O50 1.218 . S
O50 C49 1.218 . S
C51 O44 1.275 . S
C51 O46 1.255 . S
C52 O53 1.258 . S
C52 O54 1.256 . S
O53 Cd45 2.381 . S
O53 C52 1.258 . S
O54 Cd45 2.378 . S
O54 C52 1.256 . S
O55 Cd56 2.300 . S
O55 C62 1.275 . S
Cd56 O55 2.300 . S
Cd56 O64 2.381 . S
Cd56 O65 2.378 . S
O57 Cd58 2.385 . S
O57 C62 1.255 . S
Cd58 O57 2.385 . S
Cd58 O59 2.317 . S
O59 Cd58 2.317 . S
O59 C60 1.232 . S
C60 O59 1.232 . S
C60 O61 1.218 . S
O61 C60 1.218 . S
C62 O55 1.275 . S
C62 O57 1.255 . S
C63 O64 1.258 . S
C63 O65 1.256 . S
O64 Cd56 2.381 . S
O64 C63 1.258 . S
O65 Cd56 2.378 . S
O65 C63 1.256 . S
O66 Cd67 2.300 . S
O66 C73 1.275 . S
Cd67 O66 2.300 . S
Cd67 O75 2.381 . S
Cd67 O76 2.378 . S
O68 Cd69 2.385 . S
O68 C73 1.255 . S
Cd69 O68 2.385 . S
Cd69 O70 2.317 . S
O70 Cd69 2.317 . S
O70 C71 1.232 . S
C71 O70 1.232 . S
C71 O72 1.218 . S
O72 C71 1.218 . S
C73 O66 1.275 . S
C73 O68 1.255 . S
C74 O75 1.258 . S
C74 O76 1.256 . S
O75 Cd67 2.381 . S
O75 C74 1.258 . S
O76 Cd67 2.378 . S
O76 C74 1.256 . S
O77 Cd78 2.300 . S
O77 C84 1.275 . S
Cd78 O77 2.300 . S
Cd78 O86 2.381 . S
Cd78 O87 2.378 . S
O79 Cd80 2.385 . S
O79 C84 1.255 . S
Cd80 O79 2.385 . S
Cd80 O81 2.317 . S
O81 Cd80 2.317 . S
O81 C82 1.232 . S
C82 O81 1.232 . S
C82 O83 1.218 . S
O83 C82 1.218 . S
C84 O77 1.275 . S
C84 O79 1.255 . S
C85 O86 1.258 . S
C85 O87 1.256 . S
O86 Cd78 2.381 . S
O86 C85 1.258 . S
O87 Cd78 2.378 . S
O87 C85 1.256 . S
Zn88 O94 1.920 . S
Zn88 O100 1.898 . S
Zn88 O103 1.905 . S
Zn89 O97 1.905 . S
Zn89 O98 1.898 . S
Zn89 O106 1.920 . S
Zn90 O93 2.080 . S
Zn90 O96 2.114 . S
Zn90 O99 2.120 . S
Zn90 O101 2.120 . S
Zn90 O102 2.114 . S
Zn90 O105 2.080 . S
C91 O96 1.166 . S
C91 O97 1.182 . S
C92 O98 1.167 . S
C92 O99 1.299 . S
O93 Zn90 2.080 . S
O93 C107 1.305 . S
O94 Zn88 1.920 . S
O94 C107 1.234 . S
C95 O100 1.167 . S
C95 O101 1.299 . S
O96 Zn90 2.114 . S
O96 C91 1.166 . S
O97 Zn89 1.905 . S
O97 C91 1.182 . S
O98 Zn89 1.898 . S
O98 C92 1.167 . S
O99 Zn90 2.120 . S
O99 C92 1.299 . S
O100 Zn88 1.898 . S
O100 C95 1.167 . S
O101 Zn90 2.120 . S
O101 C95 1.299 . S
O102 Zn90 2.114 . S
O102 C104 1.166 . S
O103 Zn88 1.905 . S
O103 C104 1.182 . S
C104 O102 1.166 . S
C104 O103 1.182 . S
O105 Zn90 2.080 . S
O105 C108 1.305 . S
O106 Zn89 1.920 . S
O106 C108 1.234 . S
C107 O93 1.305 . S
C107 O94 1.234 . S
C108 O105 1.305 . S
C108 O106 1.234 . S
Zn109 O115 1.920 . S
Zn109 O121 1.898 . S
Zn109 O124 1.905 . S
Zn110 O118 1.905 . S
Zn110 O119 1.898 . S
Zn110 O127 1.920 . S
Zn111 O114 2.080 . S
Zn111 O117 2.114 . S
Zn111 O120 2.120 . S
Zn111 O122 2.120 . S
Zn111 O123 2.114 . S
Zn111 O126 2.080 . S
C112 O117 1.166 . S
C112 O118 1.182 . S
C113 O119 1.167 . S
C113 O120 1.299 . S
O114 Zn111 2.080 . S
O114 C128 1.305 . S
O115 Zn109 1.920 . S
O115 C128 1.234 . S
C116 O121 1.167 . S
C116 O122 1.299 . S
O117 Zn111 2.114 . S
O117 C112 1.166 . S
O118 Zn110 1.905 . S
O118 C112 1.182 . S
O119 Zn110 1.898 . S
O119 C113 1.167 . S
O120 Zn111 2.120 . S
O120 C113 1.299 . S
O121 Zn109 1.898 . S
O121 C116 1.167 . S
O122 Zn111 2.120 . S
O122 C116 1.299 . S
O123 Zn111 2.114 . S
O123 C125 1.166 . S
O124 Zn109 1.905 . S
O124 C125 1.182 . S
C125 O123 1.166 . S
C125 O124 1.182 . S
O126 Zn111 2.080 . S
O126 C129 1.305 . S
O127 Zn110 1.920 . S
O127 C129 1.234 . S
C128 O114 1.305 . S
C128 O115 1.234 . S
C129 O126 1.305 . S
C129 O127 1.234 . S
Zn130 O136 1.920 . S
Zn130 O142 1.898 . S
Zn130 O145 1.905 . S
Zn131 O139 1.905 . S
Zn131 O140 1.898 . S
Zn131 O148 1.920 . S
Zn132 O135 2.080 . S
Zn132 O138 2.114 . S
Zn132 O141 2.120 . S
Zn132 O143 2.120 . S
Zn132 O144 2.114 . S
Zn132 O147 2.080 . S
C133 O138 1.166 . S
C133 O139 1.182 . S
C134 O140 1.167 . S
C134 O141 1.299 . S
O135 Zn132 2.080 . S
O135 C149 1.305 . S
O136 Zn130 1.920 . S
O136 C149 1.234 . S
C137 O142 1.167 . S
C137 O143 1.299 . S
O138 Zn132 2.114 . S
O138 C133 1.166 . S
O139 Zn131 1.905 . S
O139 C133 1.182 . S
O140 Zn131 1.898 . S
O140 C134 1.167 . S
O141 Zn132 2.120 . S
O141 C134 1.299 . S
O142 Zn130 1.898 . S
O142 C137 1.167 . S
O143 Zn132 2.120 . S
O143 C137 1.299 . S
O144 Zn132 2.114 . S
O144 C146 1.166 . S
O145 Zn130 1.905 . S
O145 C146 1.182 . S
C146 O144 1.166 . S
C146 O145 1.182 . S
O147 Zn132 2.080 . S
O147 C150 1.305 . S
O148 Zn131 1.920 . S
O148 C150 1.234 . S
C149 O135 1.305 . S
C149 O136 1.234 . S
C150 O147 1.305 . S
C150 O148 1.234 . S
Zn151 O157 1.920 . S
Zn151 O163 1.898 . S
Zn151 O166 1.905 . S
Zn152 O160 1.905 . S
Zn152 O161 1.898 . S
Zn152 O169 1.920 . S
Zn153 O156 2.080 . S
Zn153 O159 2.114 . S
Zn153 O162 2.120 . S
Zn153 O164 2.120 . S
Zn153 O165 2.114 . S
Zn153 O168 2.080 . S
C154 O159 1.166 . S
C154 O160 1.182 . S
C155 O161 1.167 . S
C155 O162 1.299 . S
O156 Zn153 2.080 . S
O156 C170 1.305 . S
O157 Zn151 1.920 . S
O157 C170 1.234 . S
C158 O163 1.167 . S
C158 O164 1.299 . S
O159 Zn153 2.114 . S
O159 C154 1.166 . S
O160 Zn152 1.905 . S
O160 C154 1.182 . S
O161 Zn152 1.898 . S
O161 C155 1.167 . S
O162 Zn153 2.120 . S
O162 C155 1.299 . S
O163 Zn151 1.898 . S
O163 C158 1.167 . S
O164 Zn153 2.120 . S
O164 C158 1.299 . S
O165 Zn153 2.114 . S
O165 C167 1.166 . S
O166 Zn151 1.905 . S
O166 C167 1.182 . S
C167 O165 1.166 . S
C167 O166 1.182 . S
O168 Zn153 2.080 . S
O168 C171 1.305 . S
O169 Zn152 1.920 . S
O169 C171 1.234 . S
C170 O156 1.305 . S
C170 O157 1.234 . S
C171 O168 1.305 . S
C171 O169 1.234 . S
C172 C173 1.391 . S
C172 C174 1.394 . S
C172 H188 0.931 . S
C173 C172 1.391 . S
C173 C177 1.376 . S
C174 C172 1.394 . S
C174 C175 1.369 . S
C174 C178 1.531 . S
C175 C174 1.369 . S
C175 C176 1.410 . S
C175 C183 1.503 . S
C176 C175 1.410 . S
C176 C177 1.392 . S
C176 C179 1.511 . S
C177 C173 1.376 . S
C177 C176 1.392 . S
C177 H189 0.929 . S
C178 C174 1.531 . S
C178 H190 0.960 . S
C178 H191 0.962 . S
C178 H192 0.960 . S
C179 C176 1.511 . S
C179 H193 0.961 . S
C179 H194 0.961 . S
C179 H195 0.961 . S
C180 C181 1.370 . S
C180 C182 1.363 . S
C180 H196 0.931 . S
C181 C180 1.370 . S
C181 C185 1.408 . S
C182 C180 1.363 . S
C182 C183 1.370 . S
C182 C186 1.524 . S
C183 C175 1.503 . S
C183 C182 1.370 . S
C183 C184 1.403 . S
C184 C183 1.403 . S
C184 C185 1.404 . S
C184 C187 1.539 . S
C185 C181 1.408 . S
C185 C184 1.404 . S
C185 H197 0.930 . S
C186 C182 1.524 . S
C186 H198 0.956 . S
C186 H199 0.961 . S
C186 H200 0.961 . S
C187 C184 1.539 . S
C187 H201 0.958 . S
C187 H202 0.961 . S
C187 H203 0.960 . S
H188 C172 0.931 . S
H189 C177 0.929 . S
H190 C178 0.960 . S
H191 C178 0.962 . S
H192 C178 0.960 . S
H193 C179 0.961 . S
H194 C179 0.961 . S
H195 C179 0.961 . S
H196 C180 0.931 . S
H197 C185 0.930 . S
H198 C186 0.956 . S
H199 C186 0.961 . S
H200 C186 0.961 . S
H201 C187 0.958 . S
H202 C187 0.961 . S
H203 C187 0.960 . S
C204 C205 1.391 . S
C204 C206 1.394 . S
C204 H220 0.931 . S
C205 C204 1.391 . S
C205 C209 1.376 . S
C206 C204 1.394 . S
C206 C207 1.369 . S
C206 C210 1.531 . S
C207 C206 1.369 . S
C207 C208 1.410 . S
C207 C215 1.503 . S
C208 C207 1.410 . S
C208 C209 1.392 . S
C208 C211 1.511 . S
C209 C205 1.376 . S
C209 C208 1.392 . S
C209 H221 0.929 . S
C210 C206 1.531 . S
C210 H222 0.960 . S
C210 H223 0.962 . S
C210 H224 0.960 . S
C211 C208 1.511 . S
C211 H225 0.961 . S
C211 H226 0.961 . S
C211 H227 0.961 . S
C212 C213 1.370 . S
C212 C214 1.363 . S
C212 H228 0.931 . S
C213 C212 1.370 . S
C213 C217 1.408 . S
C214 C212 1.363 . S
C214 C215 1.370 . S
C214 C218 1.524 . S
C215 C207 1.503 . S
C215 C214 1.370 . S
C215 C216 1.403 . S
C216 C215 1.403 . S
C216 C217 1.404 . S
C216 C219 1.539 . S
C217 C213 1.408 . S
C217 C216 1.404 . S
C217 H229 0.930 . S
C218 C214 1.524 . S
C218 H230 0.956 . S
C218 H231 0.961 . S
C218 H232 0.961 . S
C219 C216 1.539 . S
C219 H233 0.958 . S
C219 H234 0.961 . S
C219 H235 0.960 . S
H220 C204 0.931 . S
H221 C209 0.929 . S
H222 C210 0.960 . S
H223 C210 0.962 . S
H224 C210 0.960 . S
H225 C211 0.961 . S
H226 C211 0.961 . S
H227 C211 0.961 . S
H228 C212 0.931 . S
H229 C217 0.930 . S
H230 C218 0.956 . S
H231 C218 0.961 . S
H232 C218 0.961 . S
H233 C219 0.958 . S
H234 C219 0.961 . S
H235 C219 0.960 . S
C236 C237 1.391 . S
C236 C238 1.394 . S
C236 H252 0.931 . S
C237 C236 1.391 . S
C237 C241 1.376 . S
C238 C236 1.394 . S
C238 C239 1.369 . S
C238 C242 1.531 . S
C239 C238 1.369 . S
C239 C240 1.410 . S
C239 C247 1.503 . S
C240 C239 1.410 . S
C240 C241 1.392 . S
C240 C243 1.511 . S
C241 C237 1.376 . S
C241 C240 1.392 . S
C241 H253 0.929 . S
C242 C238 1.531 . S
C242 H254 0.960 . S
C242 H255 0.962 . S
C242 H256 0.960 . S
C243 C240 1.511 . S
C243 H257 0.961 . S
C243 H258 0.961 . S
C243 H259 0.961 . S
C244 C245 1.370 . S
C244 C246 1.363 . S
C244 H260 0.931 . S
C245 C244 1.370 . S
C245 C249 1.408 . S
C246 C244 1.363 . S
C246 C247 1.370 . S
C246 C250 1.524 . S
C247 C239 1.503 . S
C247 C246 1.370 . S
C247 C248 1.403 . S
C248 C247 1.403 . S
C248 C249 1.404 . S
C248 C251 1.539 . S
C249 C245 1.408 . S
C249 C248 1.404 . S
C249 H261 0.930 . S
C250 C246 1.524 . S
C250 H262 0.956 . S
C250 H263 0.961 . S
C250 H264 0.961 . S
C251 C248 1.539 . S
C251 H265 0.958 . S
C251 H266 0.961 . S
C251 H267 0.960 . S
H252 C236 0.931 . S
H253 C241 0.929 . S
H254 C242 0.960 . S
H255 C242 0.962 . S
H256 C242 0.960 . S
H257 C243 0.961 . S
H258 C243 0.961 . S
H259 C243 0.961 . S
H260 C244 0.931 . S
H261 C249 0.930 . S
H262 C250 0.956 . S
H263 C250 0.961 . S
H264 C250 0.961 . S
H265 C251 0.958 . S
H266 C251 0.961 . S
H267 C251 0.960 . S
C268 C269 1.391 . S
C268 C270 1.394 . S
C268 H284 0.931 . S
C269 C268 1.391 . S
C269 C273 1.376 . S
C270 C268 1.394 . S
C270 C271 1.369 . S
C270 C274 1.531 . S
C271 C270 1.369 . S
C271 C272 1.410 . S
C271 C279 1.503 . S
C272 C271 1.410 . S
C272 C273 1.392 . S
C272 C275 1.511 . S
C273 C269 1.376 . S
C273 C272 1.392 . S
C273 H285 0.929 . S
C274 C270 1.531 . S
C274 H286 0.960 . S
C274 H287 0.962 . S
C274 H288 0.960 . S
C275 C272 1.511 . S
C275 H289 0.961 . S
C275 H290 0.961 . S
C275 H291 0.961 . S
C276 C277 1.370 . S
C276 C278 1.363 . S
C276 H292 0.931 . S
C277 C276 1.370 . S
C277 C281 1.408 . S
C278 C276 1.363 . S
C278 C279 1.370 . S
C278 C282 1.524 . S
C279 C271 1.503 . S
C279 C278 1.370 . S
C279 C280 1.403 . S
C280 C279 1.403 . S
C280 C281 1.404 . S
C280 C283 1.539 . S
C281 C277 1.408 . S
C281 C280 1.404 . S
C281 H293 0.930 . S
C282 C278 1.524 . S
C282 H294 0.956 . S
C282 H295 0.961 . S
C282 H296 0.961 . S
C283 C280 1.539 . S
C283 H297 0.958 . S
C283 H298 0.961 . S
C283 H299 0.960 . S
H284 C268 0.931 . S
H285 C273 0.929 . S
H286 C274 0.960 . S
H287 C274 0.962 . S
H288 C274 0.960 . S
H289 C275 0.961 . S
H290 C275 0.961 . S
H291 C275 0.961 . S
H292 C276 0.931 . S
H293 C281 0.930 . S
H294 C282 0.956 . S
H295 C282 0.961 . S
H296 C282 0.961 . S
H297 C283 0.958 . S
H298 C283 0.961 . S
H299 C283 0.960 . S
C300 C301 1.391 . S
C300 C302 1.394 . S
C300 H316 0.931 1_455 S
C301 C300 1.391 . S
C301 C305 1.376 . S
C302 C300 1.394 . S
C302 C303 1.369 . S
C302 C306 1.531 1_455 S
C303 C302 1.369 . S
C303 C304 1.410 . S
C303 C311 1.503 . S
C304 C303 1.410 . S
C304 C305 1.392 . S
C304 C307 1.511 . S
C305 C301 1.376 . S
C305 C304 1.392 . S
C305 H317 0.929 . S
C306 C302 1.531 1_655 S
C306 H318 0.960 . S
C306 H319 0.962 . S
C306 H320 0.960 . S
C307 C304 1.511 . S
C307 H321 0.961 . S
C307 H322 0.961 . S
C307 H323 0.961 . S
C308 C309 1.370 . S
C308 C310 1.363 . S
C308 H324 0.931 . S
C309 C308 1.370 . S
C309 C313 1.408 . S
C310 C308 1.363 . S
C310 C311 1.370 . S
C310 C314 1.524 . S
C311 C303 1.503 . S
C311 C310 1.370 . S
C311 C312 1.403 . S
C312 C311 1.403 . S
C312 C313 1.404 . S
C312 C315 1.539 . S
C313 C309 1.408 . S
C313 C312 1.404 . S
C313 H325 0.930 . S
C314 C310 1.524 . S
C314 H326 0.956 . S
C314 H327 0.961 . S
C314 H328 0.961 . S
C315 C312 1.539 . S
C315 H329 0.958 . S
C315 H330 0.961 . S
C315 H331 0.960 . S
H316 C300 0.931 1_655 S
H317 C305 0.929 . S
H318 C306 0.960 . S
H319 C306 0.962 . S
H320 C306 0.960 . S
H321 C307 0.961 . S
H322 C307 0.961 . S
H323 C307 0.961 . S
H324 C308 0.931 . S
H325 C313 0.930 . S
H326 C314 0.956 . S
H327 C314 0.961 . S
H328 C314 0.961 . S
H329 C315 0.958 . S
H330 C315 0.961 . S
H331 C315 0.960 . S
C332 C333 1.391 . S
C332 C334 1.394 . S
C332 H348 0.931 . S
C333 C332 1.391 . S
C333 C337 1.376 . S
C334 C332 1.394 . S
C334 C335 1.369 . S
C334 C338 1.531 . S
C335 C334 1.369 . S
C335 C336 1.410 . S
C335 C343 1.503 . S
C336 C335 1.410 . S
C336 C337 1.392 . S
C336 C339 1.511 . S
C337 C333 1.376 . S
C337 C336 1.392 . S
C337 H349 0.929 . S
C338 C334 1.531 . S
C338 H350 0.960 . S
C338 H351 0.962 . S
C338 H352 0.960 . S
C339 C336 1.511 . S
C339 H353 0.961 . S
C339 H354 0.961 . S
C339 H355 0.961 . S
C340 C341 1.370 . S
C340 C342 1.363 . S
C340 H356 0.931 . S
C341 C340 1.370 . S
C341 C345 1.408 . S
C342 C340 1.363 . S
C342 C343 1.370 . S
C342 C346 1.524 . S
C343 C335 1.503 . S
C343 C342 1.370 . S
C343 C344 1.403 . S
C344 C343 1.403 . S
C344 C345 1.404 . S
C344 C347 1.539 . S
C345 C341 1.408 . S
C345 C344 1.404 . S
C345 H357 0.930 . S
C346 C342 1.524 . S
C346 H358 0.956 . S
C346 H359 0.961 . S
C346 H360 0.961 . S
C347 C344 1.539 . S
C347 H361 0.958 . S
C347 H362 0.961 . S
C347 H363 0.960 . S
H348 C332 0.931 . S
H349 C337 0.929 . S
H350 C338 0.960 . S
H351 C338 0.962 . S
H352 C338 0.960 . S
H353 C339 0.961 . S
H354 C339 0.961 . S
H355 C339 0.961 . S
H356 C340 0.931 . S
H357 C345 0.930 . S
H358 C346 0.956 . S
H359 C346 0.961 . S
H360 C346 0.961 . S
H361 C347 0.958 . S
H362 C347 0.961 . S
H363 C347 0.960 . S
C364 C365 1.391 . S
C364 C366 1.394 . S
C364 H380 0.931 . S
C365 C364 1.391 . S
C365 C369 1.376 . S
C366 C364 1.394 . S
C366 C367 1.369 . S
C366 C370 1.531 . S
C367 C366 1.369 . S
C367 C368 1.410 . S
C367 C375 1.503 . S
C368 C367 1.410 . S
C368 C369 1.392 . S
C368 C371 1.511 . S
C369 C365 1.376 . S
C369 C368 1.392 . S
C369 H381 0.929 . S
C370 C366 1.531 . S
C370 H382 0.960 . S
C370 H383 0.962 . S
C370 H384 0.960 . S
C371 C368 1.511 . S
C371 H385 0.961 . S
C371 H386 0.961 . S
C371 H387 0.961 . S
C372 C373 1.370 . S
C372 C374 1.363 . S
C372 H388 0.931 . S
C373 C372 1.370 . S
C373 C377 1.408 . S
C374 C372 1.363 . S
C374 C375 1.370 . S
C374 C378 1.524 . S
C375 C367 1.503 . S
C375 C374 1.370 . S
C375 C376 1.403 . S
C376 C375 1.403 . S
C376 C377 1.404 . S
C376 C379 1.539 . S
C377 C373 1.408 . S
C377 C376 1.404 . S
C377 H389 0.930 . S
C378 C374 1.524 . S
C378 H390 0.956 . S
C378 H391 0.961 . S
C378 H392 0.961 . S
C379 C376 1.539 . S
C379 H393 0.958 . S
C379 H394 0.961 . S
C379 H395 0.960 . S
H380 C364 0.931 . S
H381 C369 0.929 . S
H382 C370 0.960 . S
H383 C370 0.962 . S
H384 C370 0.960 . S
H385 C371 0.961 . S
H386 C371 0.961 . S
H387 C371 0.961 . S
H388 C372 0.931 . S
H389 C377 0.930 . S
H390 C378 0.956 . S
H391 C378 0.961 . S
H392 C378 0.961 . S
H393 C379 0.958 . S
H394 C379 0.961 . S
H395 C379 0.960 . S
C396 C397 1.391 . S
C396 C398 1.394 . S
C396 H412 0.931 . S
C397 C396 1.391 . S
C397 C401 1.376 . S
C398 C396 1.394 . S
C398 C399 1.369 . S
C398 C402 1.531 . S
C399 C398 1.369 . S
C399 C400 1.410 . S
C399 C407 1.503 . S
C400 C399 1.410 . S
C400 C401 1.392 . S
C400 C403 1.511 . S
C401 C397 1.376 . S
C401 C400 1.392 . S
C401 H413 0.929 . S
C402 C398 1.531 . S
C402 H414 0.960 . S
C402 H415 0.962 . S
C402 H416 0.960 . S
C403 C400 1.511 . S
C403 H417 0.961 . S
C403 H418 0.961 . S
C403 H419 0.961 . S
C404 C405 1.370 . S
C404 C406 1.363 . S
C404 H420 0.931 . S
C405 C404 1.370 . S
C405 C409 1.408 . S
C406 C404 1.363 . S
C406 C407 1.370 . S
C406 C410 1.524 . S
C407 C399 1.503 . S
C407 C406 1.370 . S
C407 C408 1.403 . S
C408 C407 1.403 . S
C408 C409 1.404 . S
C408 C411 1.539 . S
C409 C405 1.408 . S
C409 C408 1.404 . S
C409 H421 0.930 . S
C410 C406 1.524 . S
C410 H422 0.956 . S
C410 H423 0.961 . S
C410 H424 0.961 . S
C411 C408 1.539 . S
C411 H425 0.958 . S
C411 H426 0.961 . S
C411 H427 0.960 . S
H412 C396 0.931 . S
H413 C401 0.929 . S
H414 C402 0.960 . S
H415 C402 0.962 . S
H416 C402 0.960 . S
H417 C403 0.961 . S
H418 C403 0.961 . S
H419 C403 0.961 . S
H420 C404 0.931 . S
H421 C409 0.930 . S
H422 C410 0.956 . S
H423 C410 0.961 . S
H424 C410 0.961 . S
H425 C411 0.958 . S
H426 C411 0.961 . S
H427 C411 0.960 . S
C428 C429 1.391 . S
C428 C430 1.394 . S
C428 H444 0.931 . S
C429 C428 1.391 . S
C429 C433 1.376 . S
C430 C428 1.394 . S
C430 C431 1.369 . S
C430 C434 1.531 . S
C431 C430 1.369 . S
C431 C432 1.410 . S
C431 C439 1.503 . S
C432 C431 1.410 . S
C432 C433 1.392 . S
C432 C435 1.511 . S
C433 C429 1.376 . S
C433 C432 1.392 . S
C433 H445 0.929 . S
C434 C430 1.531 . S
C434 H446 0.960 . S
C434 H447 0.962 . S
C434 H448 0.960 . S
C435 C432 1.511 . S
C435 H449 0.961 . S
C435 H450 0.961 . S
C435 H451 0.961 . S
C436 C437 1.370 . S
C436 C438 1.363 . S
C436 H452 0.931 . S
C437 C436 1.370 . S
C437 C441 1.408 . S
C438 C436 1.363 . S
C438 C439 1.370 . S
C438 C442 1.524 . S
C439 C431 1.503 . S
C439 C438 1.370 . S
C439 C440 1.403 . S
C440 C439 1.403 . S
C440 C441 1.404 . S
C440 C443 1.539 . S
C441 C437 1.408 . S
C441 C440 1.404 . S
C441 H453 0.930 . S
C442 C438 1.524 . S
C442 H454 0.956 . S
C442 H455 0.961 . S
C442 H456 0.961 . S
C443 C440 1.539 . S
C443 H457 0.958 . S
C443 H458 0.961 . S
C443 H459 0.960 . S
H444 C428 0.931 . S
H445 C433 0.929 . S
H446 C434 0.960 . S
H447 C434 0.962 . S
H448 C434 0.960 . S
H449 C435 0.961 . S
H450 C435 0.961 . S
H451 C435 0.961 . S
H452 C436 0.931 . S
H453 C441 0.930 . S
H454 C442 0.956 . S
H455 C442 0.961 . S
H456 C442 0.961 . S
H457 C443 0.958 . S
H458 C443 0.961 . S
H459 C443 0.960 . S
C460 C461 1.391 . S
C460 C462 1.394 . S
C460 H476 0.931 . S
C461 C460 1.391 . S
C461 C465 1.376 . S
C462 C460 1.394 . S
C462 C463 1.369 . S
C462 C466 1.531 . S
C463 C462 1.369 . S
C463 C464 1.410 . S
C463 C471 1.503 . S
C464 C463 1.410 . S
C464 C465 1.392 . S
C464 C467 1.511 . S
C465 C461 1.376 . S
C465 C464 1.392 . S
C465 H477 0.929 . S
C466 C462 1.531 . S
C466 H478 0.960 . S
C466 H479 0.962 . S
C466 H480 0.960 . S
C467 C464 1.511 . S
C467 H481 0.961 . S
C467 H482 0.961 . S
C467 H483 0.961 . S
C468 C469 1.370 . S
C468 C470 1.363 . S
C468 H484 0.931 . S
C469 C468 1.370 . S
C469 C473 1.408 . S
C470 C468 1.363 . S
C470 C471 1.370 . S
C470 C474 1.524 . S
C471 C463 1.503 . S
C471 C470 1.370 . S
C471 C472 1.403 . S
C472 C471 1.403 . S
C472 C473 1.404 . S
C472 C475 1.539 . S
C473 C469 1.408 . S
C473 C472 1.404 . S
C473 H485 0.930 . S
C474 C470 1.524 . S
C474 H486 0.956 . S
C474 H487 0.961 . S
C474 H488 0.961 . S
C475 C472 1.539 . S
C475 H489 0.958 . S
C475 H490 0.961 . S
C475 H491 0.960 . S
H476 C460 0.931 . S
H477 C465 0.929 . S
H478 C466 0.960 . S
H479 C466 0.962 . S
H480 C466 0.960 . S
H481 C467 0.961 . S
H482 C467 0.961 . S
H483 C467 0.961 . S
H484 C468 0.931 . S
H485 C473 0.930 . S
H486 C474 0.956 . S
H487 C474 0.961 . S
H488 C474 0.961 . S
H489 C475 0.958 . S
H490 C475 0.961 . S
H491 C475 0.960 . S
C492 C493 1.391 . S
C492 C494 1.394 . S
C492 H508 0.931 . S
C493 C492 1.391 . S
C493 C497 1.376 . S
C494 C492 1.394 . S
C494 C495 1.369 . S
C494 C498 1.531 . S
C495 C494 1.369 . S
C495 C496 1.410 . S
C495 C503 1.503 . S
C496 C495 1.410 . S
C496 C497 1.392 . S
C496 C499 1.511 . S
C497 C493 1.376 . S
C497 C496 1.392 . S
C497 H509 0.929 . S
C498 C494 1.531 . S
C498 H510 0.960 . S
C498 H511 0.962 . S
C498 H512 0.960 . S
C499 C496 1.511 . S
C499 H513 0.961 . S
C499 H514 0.961 . S
C499 H515 0.961 . S
C500 C501 1.370 . S
C500 C502 1.363 . S
C500 H516 0.931 . S
C501 C500 1.370 . S
C501 C505 1.408 . S
C502 C500 1.363 . S
C502 C503 1.370 . S
C502 C506 1.524 . S
C503 C495 1.503 . S
C503 C502 1.370 . S
C503 C504 1.403 . S
C504 C503 1.403 . S
C504 C505 1.404 . S
C504 C507 1.539 . S
C505 C501 1.408 . S
C505 C504 1.404 . S
C505 H517 0.930 . S
C506 C502 1.524 . S
C506 H518 0.956 . S
C506 H519 0.961 . S
C506 H520 0.961 . S
C507 C504 1.539 . S
C507 H521 0.958 . S
C507 H522 0.961 . S
C507 H523 0.960 . S
H508 C492 0.931 . S
H509 C497 0.929 . S
H510 C498 0.960 . S
H511 C498 0.962 . S
H512 C498 0.960 . S
H513 C499 0.961 . S
H514 C499 0.961 . S
H515 C499 0.961 . S
H516 C500 0.931 . S
H517 C505 0.930 . S
H518 C506 0.956 . S
H519 C506 0.961 . S
H520 C506 0.961 . S
H521 C507 0.958 . S
H522 C507 0.961 . S
H523 C507 0.960 . S
C524 C525 1.391 . S
C524 C526 1.394 . S
C524 H540 0.931 . S
C525 C524 1.391 . S
C525 C529 1.376 . S
C526 C524 1.394 . S
C526 C527 1.369 . S
C526 C530 1.531 . S
C527 C526 1.369 . S
C527 C528 1.410 . S
C527 C535 1.503 . S
C528 C527 1.410 . S
C528 C529 1.392 . S
C528 C531 1.511 . S
C529 C525 1.376 . S
C529 C528 1.392 . S
C529 H541 0.929 . S
C530 C526 1.531 . S
C530 H542 0.960 . S
C530 H543 0.962 . S
C530 H544 0.960 . S
C531 C528 1.511 . S
C531 H545 0.961 . S
C531 H546 0.961 . S
C531 H547 0.961 . S
C532 C533 1.370 . S
C532 C534 1.363 . S
C532 H548 0.931 . S
C533 C532 1.370 . S
C533 C537 1.408 . S
C534 C532 1.363 . S
C534 C535 1.370 . S
C534 C538 1.524 . S
C535 C527 1.503 . S
C535 C534 1.370 . S
C535 C536 1.403 . S
C536 C535 1.403 . S
C536 C537 1.404 . S
C536 C539 1.539 . S
C537 C533 1.408 . S
C537 C536 1.404 . S
C537 H549 0.930 . S
C538 C534 1.524 . S
C538 H550 0.956 . S
C538 H551 0.961 . S
C538 H552 0.961 . S
C539 C536 1.539 . S
C539 H553 0.958 . S
C539 H554 0.961 . S
C539 H555 0.960 . S
H540 C524 0.931 . S
H541 C529 0.929 . S
H542 C530 0.960 . S
H543 C530 0.962 . S
H544 C530 0.960 . S
H545 C531 0.961 . S
H546 C531 0.961 . S
H547 C531 0.961 . S
H548 C532 0.931 . S
H549 C537 0.930 . S
H550 C538 0.956 . S
H551 C538 0.961 . S
H552 C538 0.961 . S
H553 C539 0.958 . S
H554 C539 0.961 . S
H555 C539 0.960 . S
C556 C557 1.391 . S
C556 C558 1.394 . S
C556 H572 0.931 . S
C557 C556 1.391 . S
C557 C561 1.376 . S
C558 C556 1.394 . S
C558 C559 1.369 . S
C558 C562 1.531 . S
C559 C558 1.369 . S
C559 C560 1.410 . S
C559 C567 1.503 1_565 S
C560 C559 1.410 . S
C560 C561 1.392 . S
C560 C563 1.511 . S
C561 C557 1.376 . S
C561 C560 1.392 . S
C561 H573 0.929 . S
C562 C558 1.531 . S
C562 H574 0.960 . S
C562 H575 0.962 . S
C562 H576 0.960 . S
C563 C560 1.511 . S
C563 H577 0.961 . S
C563 H578 0.940 1_565 S
C563 H579 0.961 . S
C564 C565 1.370 . S
C564 C566 1.363 . S
C564 H580 0.931 . S
C565 C564 1.370 . S
C565 C569 1.408 . S
C566 C564 1.363 . S
C566 C567 1.370 . S
C566 C570 1.524 1_545 S
C567 C559 1.503 1_545 S
C567 C566 1.370 . S
C567 C568 1.403 . S
C568 C567 1.403 . S
C568 C569 1.404 . S
C568 C571 1.539 . S
C569 C565 1.408 . S
C569 C568 1.404 . S
C569 H581 0.930 . S
C570 C566 1.524 1_565 S
C570 H582 0.956 . S
C570 H583 0.961 . S
C570 H584 0.961 1_565 S
C571 C568 1.539 . S
C571 H585 0.958 . S
C571 H586 0.961 . S
C571 H587 0.960 1_545 S
H572 C556 0.931 . S
H573 C561 0.929 . S
H574 C562 0.960 . S
H575 C562 0.962 . S
H576 C562 0.960 . S
H577 C563 0.961 . S
H578 C563 0.940 1_545 S
H579 C563 0.961 . S
H580 C564 0.931 . S
H581 C569 0.930 . S
H582 C570 0.956 . S
H583 C570 0.961 . S
H584 C570 0.961 1_545 S
H585 C571 0.958 . S
H586 C571 0.961 . S
H587 C571 0.960 1_565 S
C588 C589 1.391 . S
C588 C590 1.394 . S
C588 H604 0.931 . S
C589 C588 1.391 . S
C589 C593 1.376 . S
C590 C588 1.394 . S
C590 C591 1.369 1_545 S
C590 C594 1.531 1_545 S
C591 C590 1.369 1_565 S
C591 C592 1.410 1_565 S
C591 C599 1.503 . S
C592 C591 1.410 1_545 S
C592 C593 1.392 . S
C592 C595 1.511 1_545 S
C593 C589 1.376 . S
C593 C592 1.392 . S
C593 H605 0.929 . S
C594 C590 1.531 1_565 S
C594 H606 0.960 . S
C594 H607 0.962 . S
C594 H608 0.960 1_565 S
C595 C592 1.511 1_565 S
C595 H609 0.961 1_565 S
C595 H610 0.961 . S
C595 H611 0.961 1_565 S
C596 C597 1.370 . S
C596 C598 1.363 . S
C596 H612 0.931 . S
C597 C596 1.370 . S
C597 C601 1.408 . S
C598 C596 1.363 . S
C598 C599 1.370 . S
C598 C602 1.524 . S
C599 C591 1.503 . S
C599 C598 1.370 . S
C599 C600 1.403 . S
C600 C599 1.403 . S
C600 C601 1.404 . S
C600 C603 1.539 . S
C601 C597 1.408 . S
C601 C600 1.404 . S
C601 H613 0.930 . S
C602 C598 1.524 . S
C602 H614 0.956 . S
C602 H615 0.961 . S
C602 H616 0.961 . S
C603 C600 1.539 . S
C603 H617 0.958 . S
C603 H618 0.961 . S
C603 H619 0.960 . S
H604 C588 0.931 . S
H605 C593 0.929 . S
H606 C594 0.960 . S
H607 C594 0.962 . S
H608 C594 0.960 1_545 S
H609 C595 0.961 1_545 S
H610 C595 0.961 . S
H611 C595 0.961 1_545 S
H612 C596 0.931 . S
H613 C601 0.930 . S
H614 C602 0.956 . S
H615 C602 0.961 . S
H616 C602 0.961 . S
H617 C603 0.958 . S
H618 C603 0.961 . S
H619 C603 0.960 . S
C620 C621 1.391 . S
C620 C622 1.394 . S
C620 H636 0.931 . S
C621 C620 1.391 . S
C621 C625 1.376 . S
C622 C620 1.394 . S
C622 C623 1.369 . S
C622 C626 1.531 . S
C623 C622 1.369 . S
C623 C624 1.410 . S
C623 C631 1.503 1_545 S
C624 C623 1.410 . S
C624 C625 1.392 . S
C624 C627 1.511 1_545 S
C625 C621 1.376 . S
C625 C624 1.392 . S
C625 H637 0.929 . S
C626 C622 1.531 . S
C626 H638 0.960 . S
C626 H639 0.962 . S
C626 H640 0.960 . S
C627 C624 1.511 1_565 S
C627 H641 0.961 1_565 S
C627 H642 0.961 . S
C627 H643 0.961 . S
C628 C629 1.370 . S
C628 C630 1.363 . S
C628 H644 0.931 . S
C629 C628 1.370 . S
C629 C633 1.408 . S
C630 C628 1.363 . S
C630 C631 1.370 . S
C630 C634 1.524 . S
C631 C623 1.503 1_565 S
C631 C630 1.370 . S
C631 C632 1.403 . S
C632 C631 1.403 . S
C632 C633 1.404 . S
C632 C635 1.539 . S
C633 C629 1.408 . S
C633 C632 1.404 . S
C633 H645 0.930 . S
C634 C630 1.524 . S
C634 H646 0.950 1_565 S
C634 H647 0.961 . S
C634 H648 0.961 . S
C635 C632 1.539 . S
C635 H649 0.958 . S
C635 H650 0.961 . S
C635 H651 0.960 . S
H636 C620 0.931 . S
H637 C625 0.929 . S
H638 C626 0.960 . S
H639 C626 0.962 . S
H640 C626 0.960 . S
H641 C627 0.961 1_545 S
H642 C627 0.961 . S
H643 C627 0.961 . S
H644 C628 0.931 . S
H645 C633 0.930 . S
H646 C634 0.950 1_545 S
H647 C634 0.961 . S
H648 C634 0.961 . S
H649 C635 0.958 . S
H650 C635 0.961 . S
H651 C635 0.960 . S
C652 C653 1.391 . S
C652 C654 1.394 . S
C652 H668 0.931 . S
C653 C652 1.391 . S
C653 C657 1.376 . S
C654 C652 1.394 . S
C654 C655 1.369 . S
C654 C658 1.531 1_565 S
C655 C654 1.369 . S
C655 C656 1.410 . S
C655 C663 1.503 1_565 S
C656 C655 1.410 . S
C656 C657 1.392 . S
C656 C659 1.511 . S
C657 C653 1.376 . S
C657 C656 1.392 . S
C657 H669 0.929 . S
C658 C654 1.531 1_545 S
C658 H670 0.960 . S
C658 H671 0.962 . S
C658 H672 0.960 . S
C659 C656 1.511 . S
C659 H673 0.961 . S
C659 H674 0.961 . S
C659 H675 0.961 . S
C660 C661 1.370 . S
C660 C662 1.363 . S
C660 H676 0.931 . S
C661 C660 1.370 . S
C661 C665 1.408 . S
C662 C660 1.363 . S
C662 C663 1.370 . S
C662 C666 1.524 . S
C663 C655 1.503 1_545 S
C663 C662 1.370 . S
C663 C664 1.403 . S
C664 C663 1.403 . S
C664 C665 1.404 . S
C664 C667 1.539 . S
C665 C661 1.408 . S
C665 C664 1.404 . S
C665 H677 0.930 . S
C666 C662 1.524 . S
C666 H678 0.956 1_455 S
C666 H679 0.961 . S
C666 H680 0.961 1_455 S
C667 C664 1.539 . S
C667 H681 0.958 . S
C667 H682 0.961 . S
C667 H683 0.972 . S
H668 C652 0.931 . S
H669 C657 0.929 . S
H670 C658 0.960 . S
H671 C658 0.962 . S
H672 C658 0.960 . S
H673 C659 0.961 . S
H674 C659 0.961 . S
H675 C659 0.961 . S
H676 C660 0.931 . S
H677 C665 0.930 . S
H678 C666 0.956 1_655 S
H679 C666 0.961 . S
H680 C666 0.961 1_655 S
H681 C667 0.958 . S
H682 C667 0.961 . S
H683 C667 0.972 . S
C684 C685 1.391 . S
C684 C686 1.448 . S
C684 H700 0.931 . S
C685 C684 1.391 . S
C685 C689 1.376 . S
C686 C684 1.448 . S
C686 C687 1.332 1_554 S
C686 C690 1.515 1_554 S
C687 C686 1.332 1_556 S
C687 C688 1.410 . S
C687 C695 1.503 . S
C688 C687 1.410 . S
C688 C689 1.392 1_556 S
C688 C691 1.511 . S
C689 C685 1.376 . S
C689 C688 1.392 1_554 S
C689 H701 0.929 . S
C690 C686 1.515 1_556 S
C690 H702 0.960 . S
C690 H703 0.962 . S
C690 H704 0.960 1_556 S
C691 C688 1.511 . S
C691 H705 0.961 . S
C691 H706 0.961 . S
C691 H707 0.961 . S
C692 C693 1.370 . S
C692 C694 1.363 . S
C692 H708 0.931 . S
C693 C692 1.370 . S
C693 C697 1.408 . S
C694 C692 1.363 . S
C694 C695 1.370 . S
C694 C698 1.524 . S
C695 C687 1.503 . S
C695 C694 1.370 . S
C695 C696 1.403 . S
C696 C695 1.403 . S
C696 C697 1.404 . S
C696 C699 1.539 . S
C697 C693 1.408 . S
C697 C696 1.404 . S
C697 H709 0.930 . S
C698 C694 1.524 . S
C698 H710 0.956 . S
C698 H711 0.961 . S
C698 H712 0.961 . S
C699 C696 1.539 . S
C699 H713 0.958 . S
C699 H714 0.961 . S
C699 H715 0.960 . S
H700 C684 0.931 . S
H701 C689 0.929 . S
H702 C690 0.960 . S
H703 C690 0.962 . S
H704 C690 0.960 1_554 S
H705 C691 0.961 . S
H706 C691 0.961 . S
H707 C691 0.961 . S
H708 C692 0.931 . S
H709 C697 0.930 . S
H710 C698 0.956 . S
H711 C698 0.961 . S
H712 C698 0.961 . S
H713 C699 0.958 . S
H714 C699 0.961 . S
H715 C699 0.960 . S
C716 C717 1.391 . S
C716 C718 1.394 . S
C716 H732 0.931 . S
C717 C716 1.391 . S
C717 C721 1.376 . S
C718 C716 1.394 . S
C718 C719 1.369 . S
C718 C722 1.531 . S
C719 C718 1.369 . S
C719 C720 1.410 . S
C719 C727 1.503 . S
C720 C719 1.410 . S
C720 C721 1.392 . S
C720 C723 1.511 . S
C721 C717 1.376 . S
C721 C720 1.392 . S
C721 H733 0.929 . S
C722 C718 1.531 . S
C722 H734 0.960 . S
C722 H735 0.962 . S
C722 H736 0.960 . S
C723 C720 1.511 . S
C723 H737 0.961 . S
C723 H738 0.961 . S
C723 H739 0.961 . S
C724 C725 1.370 . S
C724 C726 1.363 . S
C724 H740 0.931 . S
C725 C724 1.370 . S
C725 C729 1.408 . S
C726 C724 1.363 . S
C726 C727 1.370 . S
C726 C730 1.524 . S
C727 C719 1.503 . S
C727 C726 1.370 . S
C727 C728 1.403 . S
C728 C727 1.403 . S
C728 C729 1.404 . S
C728 C731 1.539 . S
C729 C725 1.408 . S
C729 C728 1.404 . S
C729 H741 0.930 . S
C730 C726 1.524 . S
C730 H742 0.956 . S
C730 H743 0.961 . S
C730 H744 0.961 . S
C731 C728 1.539 . S
C731 H745 0.958 . S
C731 H746 0.961 . S
C731 H747 0.960 . S
H732 C716 0.931 . S
H733 C721 0.929 . S
H734 C722 0.960 . S
H735 C722 0.962 . S
H736 C722 0.960 . S
H737 C723 0.961 . S
H738 C723 0.961 . S
H739 C723 0.961 . S
H740 C724 0.931 . S
H741 C729 0.930 . S
H742 C730 0.956 . S
H743 C730 0.961 . S
H744 C730 0.961 . S
H745 C731 0.958 . S
H746 C731 0.961 . S
H747 C731 0.960 . S
C748 C749 1.391 . S
C748 C750 1.394 . S
C748 H764 0.931 . S
C749 C748 1.391 . S
C749 C753 1.376 . S
C750 C748 1.394 . S
C750 C751 1.369 . S
C750 C754 1.531 . S
C751 C750 1.369 . S
C751 C752 1.410 . S
C751 C759 1.503 . S
C752 C751 1.410 . S
C752 C753 1.392 . S
C752 C755 1.511 . S
C753 C749 1.376 . S
C753 C752 1.392 . S
C753 H765 0.929 . S
C754 C750 1.531 . S
C754 H766 0.960 . S
C754 H767 0.962 . S
C754 H768 0.960 . S
C755 C752 1.511 . S
C755 H769 0.961 . S
C755 H770 0.961 . S
C755 H771 0.961 . S
C756 C757 1.370 . S
C756 C758 1.363 . S
C756 H772 0.931 . S
C757 C756 1.370 . S
C757 C761 1.408 . S
C758 C756 1.363 . S
C758 C759 1.370 . S
C758 C762 1.524 . S
C759 C751 1.503 . S
C759 C758 1.370 . S
C759 C760 1.403 . S
C760 C759 1.403 . S
C760 C761 1.404 . S
C760 C763 1.539 . S
C761 C757 1.408 . S
C761 C760 1.404 . S
C761 H773 0.930 . S
C762 C758 1.524 . S
C762 H774 0.956 . S
C762 H775 0.961 . S
C762 H776 0.961 . S
C763 C760 1.539 . S
C763 H777 0.958 . S
C763 H778 0.961 . S
C763 H779 0.960 . S
H764 C748 0.931 . S
H765 C753 0.929 . S
H766 C754 0.960 . S
H767 C754 0.962 . S
H768 C754 0.960 . S
H769 C755 0.961 . S
H770 C755 0.961 . S
H771 C755 0.961 . S
H772 C756 0.931 . S
H773 C761 0.930 . S
H774 C762 0.956 . S
H775 C762 0.961 . S
H776 C762 0.961 . S
H777 C763 0.958 . S
H778 C763 0.961 . S
H779 C763 0.960 . S
C780 C781 1.391 . S
C780 C782 1.394 . S
C780 H796 0.931 . S
C781 C780 1.391 . S
C781 C785 1.376 . S
C782 C780 1.394 . S
C782 C783 1.369 . S
C782 C786 1.531 . S
C783 C782 1.369 . S
C783 C784 1.410 . S
C783 C791 1.503 . S
C784 C783 1.410 . S
C784 C785 1.392 . S
C784 C787 1.511 . S
C785 C781 1.376 . S
C785 C784 1.392 . S
C785 H797 0.929 . S
C786 C782 1.531 . S
C786 H798 0.960 . S
C786 H799 0.962 . S
C786 H800 0.960 . S
C787 C784 1.511 . S
C787 H801 0.961 . S
C787 H802 0.961 . S
C787 H803 0.961 . S
C788 C789 1.370 . S
C788 C790 1.363 . S
C788 H804 0.931 . S
C789 C788 1.370 . S
C789 C793 1.408 . S
C790 C788 1.363 . S
C790 C791 1.370 . S
C790 C794 1.524 . S
C791 C783 1.503 . S
C791 C790 1.370 . S
C791 C792 1.403 . S
C792 C791 1.403 . S
C792 C793 1.404 . S
C792 C795 1.539 . S
C793 C789 1.408 . S
C793 C792 1.404 . S
C793 H805 0.930 . S
C794 C790 1.524 . S
C794 H806 0.956 . S
C794 H807 0.961 . S
C794 H808 0.961 . S
C795 C792 1.539 . S
C795 H809 0.958 . S
C795 H810 0.961 . S
C795 H811 0.960 . S
H796 C780 0.931 . S
H797 C785 0.929 . S
H798 C786 0.960 . S
H799 C786 0.962 . S
H800 C786 0.960 . S
H801 C787 0.961 . S
H802 C787 0.961 . S
H803 C787 0.961 . S
H804 C788 0.931 . S
H805 C793 0.930 . S
H806 C794 0.956 . S
H807 C794 0.961 . S
H808 C794 0.961 . S
H809 C795 0.958 . S
H810 C795 0.961 . S
H811 C795 0.960 . S
C812 C813 1.391 . S
C812 C814 1.456 . S
C812 H828 0.914 1_455 S
C813 C812 1.391 . S
C813 C817 1.376 . S
C814 C812 1.456 . S
C814 C815 1.346 1_556 S
C814 C818 1.494 1_556 S
C815 C814 1.346 1_554 S
C815 C816 1.410 1_554 S
C815 C823 1.503 . S
C816 C815 1.410 1_556 S
C816 C817 1.392 . S
C816 C819 1.511 1_556 S
C817 C813 1.376 . S
C817 C816 1.392 . S
C817 H829 0.929 . S
C818 C814 1.494 1_554 S
C818 H830 0.960 . S
C818 H831 0.962 1_455 S
C818 H832 0.960 1_455 S
C819 C816 1.511 1_554 S
C819 H833 0.941 1_554 S
C819 H834 0.961 . S
C819 H835 0.961 . S
C820 C821 1.370 . S
C820 C822 1.363 . S
C820 H836 0.931 . S
C821 C820 1.370 . S
C821 C825 1.408 . S
C822 C820 1.363 . S
C822 C823 1.370 . S
C822 C826 1.524 . S
C823 C815 1.503 . S
C823 C822 1.370 . S
C823 C824 1.403 . S
C824 C823 1.403 . S
C824 C825 1.404 . S
C824 C827 1.539 . S
C825 C821 1.408 . S
C825 C824 1.404 . S
C825 H837 0.930 . S
C826 C822 1.524 . S
C826 H838 0.956 . S
C826 H839 0.961 . S
C826 H840 0.961 . S
C827 C824 1.539 . S
C827 H841 0.958 . S
C827 H842 0.961 . S
C827 H843 0.960 . S
H828 C812 0.914 1_655 S
H829 C817 0.929 . S
H830 C818 0.960 . S
H831 C818 0.962 1_655 S
H832 C818 0.960 1_655 S
H833 C819 0.941 1_556 S
H834 C819 0.961 . S
H835 C819 0.961 . S
H836 C820 0.931 . S
H837 C825 0.930 . S
H838 C826 0.956 . S
H839 C826 0.961 . S
H840 C826 0.961 . S
H841 C827 0.958 . S
H842 C827 0.961 . S
H843 C827 0.960 . S
C844 C845 1.391 . S
C844 C846 1.394 . S
C844 H860 0.931 . S
C845 C844 1.391 . S
C845 C849 1.376 . S
C846 C844 1.394 . S
C846 C847 1.369 . S
C846 C850 1.531 . S
C847 C846 1.369 . S
C847 C848 1.410 . S
C847 C855 1.503 . S
C848 C847 1.410 . S
C848 C849 1.392 . S
C848 C851 1.511 . S
C849 C845 1.376 . S
C849 C848 1.392 . S
C849 H861 0.929 . S
C850 C846 1.531 . S
C850 H862 0.960 . S
C850 H863 0.962 . S
C850 H864 0.960 . S
C851 C848 1.511 . S
C851 H865 0.961 . S
C851 H866 0.961 . S
C851 H867 0.961 . S
C852 C853 1.370 . S
C852 C854 1.363 . S
C852 H868 0.931 . S
C853 C852 1.370 . S
C853 C857 1.408 . S
C854 C852 1.363 . S
C854 C855 1.370 . S
C854 C858 1.524 . S
C855 C847 1.503 . S
C855 C854 1.370 . S
C855 C856 1.403 . S
C856 C855 1.403 . S
C856 C857 1.404 . S
C856 C859 1.539 . S
C857 C853 1.408 . S
C857 C856 1.404 . S
C857 H869 0.930 . S
C858 C854 1.524 . S
C858 H870 0.956 . S
C858 H871 0.961 . S
C858 H872 0.961 . S
C859 C856 1.539 . S
C859 H873 0.958 . S
C859 H874 0.961 . S
C859 H875 0.960 . S
H860 C844 0.931 . S
H861 C849 0.929 . S
H862 C850 0.960 . S
H863 C850 0.962 . S
H864 C850 0.960 . S
H865 C851 0.961 . S
H866 C851 0.961 . S
H867 C851 0.961 . S
H868 C852 0.931 . S
H869 C857 0.930 . S
H870 C858 0.956 . S
H871 C858 0.961 . S
H872 C858 0.961 . S
H873 C859 0.958 . S
H874 C859 0.961 . S
H875 C859 0.960 . S
C876 C877 1.391 . S
C876 C878 1.394 . S
C876 H892 0.931 . S
C877 C876 1.391 . S
C877 C881 1.376 . S
C878 C876 1.394 . S
C878 C879 1.369 . S
C878 C882 1.531 . S
C879 C878 1.369 . S
C879 C880 1.410 . S
C879 C887 1.503 . S
C880 C879 1.410 . S
C880 C881 1.392 . S
C880 C883 1.511 . S
C881 C877 1.376 . S
C881 C880 1.392 . S
C881 H893 0.929 . S
C882 C878 1.531 . S
C882 H894 0.960 . S
C882 H895 0.962 . S
C882 H896 0.960 . S
C883 C880 1.511 . S
C883 H897 0.961 . S
C883 H898 0.961 . S
C883 H899 0.961 . S
C884 C885 1.370 . S
C884 C886 1.363 . S
C884 H900 0.931 . S
C885 C884 1.370 . S
C885 C889 1.408 . S
C886 C884 1.363 . S
C886 C887 1.370 . S
C886 C890 1.524 . S
C887 C879 1.503 . S
C887 C886 1.370 . S
C887 C888 1.403 . S
C888 C887 1.403 . S
C888 C889 1.404 . S
C888 C891 1.539 . S
C889 C885 1.408 . S
C889 C888 1.404 . S
C889 H901 0.930 . S
C890 C886 1.524 . S
C890 H902 0.956 . S
C890 H903 0.961 . S
C890 H904 0.961 . S
C891 C888 1.539 . S
C891 H905 0.958 . S
C891 H906 0.961 . S
C891 H907 0.960 . S
H892 C876 0.931 . S
H893 C881 0.929 . S
H894 C882 0.960 . S
H895 C882 0.962 . S
H896 C882 0.960 . S
H897 C883 0.961 . S
H898 C883 0.961 . S
H899 C883 0.961 . S
H900 C884 0.931 . S
H901 C889 0.930 . S
H902 C890 0.956 . S
H903 C890 0.961 . S
H904 C890 0.961 . S
H905 C891 0.958 . S
H906 C891 0.961 . S
H907 C891 0.960 . S
C908 C909 1.391 . S
C908 C910 1.394 . S
C908 H924 0.931 . S
C909 C908 1.391 . S
C909 C913 1.376 . S
C910 C908 1.394 . S
C910 C911 1.369 . S
C910 C914 1.531 . S
C911 C910 1.369 . S
C911 C912 1.410 . S
C911 C919 1.503 . S
C912 C911 1.410 . S
C912 C913 1.392 . S
C912 C915 1.511 . S
C913 C909 1.376 . S
C913 C912 1.392 . S
C913 H925 0.929 . S
C914 C910 1.531 . S
C914 H926 0.960 . S
C914 H927 0.962 . S
C914 H928 0.960 . S
C915 C912 1.511 . S
C915 H929 0.961 . S
C915 H930 0.961 . S
C915 H931 0.961 . S
C916 C917 1.370 . S
C916 C918 1.363 . S
C916 H932 0.931 . S
C917 C916 1.370 . S
C917 C921 1.408 . S
C918 C916 1.363 . S
C918 C919 1.370 . S
C918 C922 1.524 . S
C919 C911 1.503 . S
C919 C918 1.370 . S
C919 C920 1.403 . S
C920 C919 1.403 . S
C920 C921 1.404 . S
C920 C923 1.539 . S
C921 C917 1.408 . S
C921 C920 1.404 . S
C921 H933 0.930 . S
C922 C918 1.524 . S
C922 H934 0.956 . S
C922 H935 0.961 . S
C922 H936 0.961 . S
C923 C920 1.539 . S
C923 H937 0.958 . S
C923 H938 0.961 . S
C923 H939 0.960 . S
H924 C908 0.931 . S
H925 C913 0.929 . S
H926 C914 0.960 . S
H927 C914 0.962 . S
H928 C914 0.960 . S
H929 C915 0.961 . S
H930 C915 0.961 . S
H931 C915 0.961 . S
H932 C916 0.931 . S
H933 C921 0.930 . S
H934 C922 0.956 . S
H935 C922 0.961 . S
H936 C922 0.961 . S
H937 C923 0.958 . S
H938 C923 0.961 . S
H939 C923 0.960 . S
C181 C95 1.444 . S
C173 C5 1.465 . S
C213 C113 1.496 . S
C205 C16 1.363 1_655 S
C237 C30 1.409 . S
C245 C137 1.311 . S
C277 C167 1.173 1_655 S
C269 C41 1.300 . S
C309 C155 1.297 . S
C301 C49 1.170 . S
C333 C63 1.291 . S
C341 C108 1.207 1_655 S
C365 C74 1.620 . S
C373 C128 1.492 . S
C397 C82 1.337 1_655 S
C405 C133 1.442 . S
C429 C85 1.267 . S
C437 C149 1.198 . S
C461 C60 1.447 . S
C469 C104 1.478 . S
C501 C171 1.499 . S
C493 C38 1.400 . S
C533 C116 1.170 . S
C525 C19 1.287 . S
C557 C27 1.435 . S
C565 C134 1.442 . S
C589 C8 1.447 . S
C597 C92 1.318 . S
C629 C112 1.262 . S
C621 C71 1.054 . S
C661 C158 1.516 . S
C653 C52 1.574 . S
C693 C154 1.322 . S
C685 C7 1.482 . S
C725 C107 1.440 . S
C717 C18 1.491 . S
C749 C29 1.414 . S
C757 C129 1.338 . S
C781 C40 1.470 . S
C789 C150 1.437 . S
C821 C91 1.351 . S
C813 C51 1.467 . S
C845 C62 1.392 . S
C853 C125 1.390 . S
C885 C146 1.319 . S
C877 C73 1.481 . S
C917 C170 1.375 . S
C909 C84 1.365 . S
