# Generated by pormake.
# Topology gar, (4,6)-cn, num edge types: 1
# Building blocks:
#     Node 0, Type 0, BuildingBlock: CEKHIL_clean_sbu_0, # of connection points: 4
#     Node 1, Type 0, BuildingBlock: CEKHIL_clean_sbu_0, # of connection points: 4
#     Node 2, Type 0, BuildingBlock: CEKHIL_clean_sbu_0, # of connection points: 4
#     Node 3, Type 0, BuildingBlock: CEKHIL_clean_sbu_0, # of connection points: 4
#     Node 4, Type 0, BuildingBlock: CEKHIL_clean_sbu_0, # of connection points: 4
#     Node 5, Type 0, BuildingBlock: CEKHIL_clean_sbu_0, # of connection points: 4
#     Node 6, Type 0, BuildingBlock: CEKHIL_clean_sbu_0, # of connection points: 4
#     Node 7, Type 0, BuildingBlock: CEKHIL_clean_sbu_0, # of connection points: 4
#     Node 8, Type 0, BuildingBlock: CEKHIL_clean_sbu_0, # of connection points: 4
#     Node 9, Type 0, BuildingBlock: CEKHIL_clean_sbu_0, # of connection points: 4
#     Node 10, Type 0, BuildingBlock: CEKHIL_clean_sbu_0, # of connection points: 4
#     Node 11, Type 0, BuildingBlock: CEKHIL_clean_sbu_0, # of connection points: 4
#     Node 12, Type 0, BuildingBlock: CEKHIL_clean_sbu_0, # of connection points: 4
#     Node 13, Type 0, BuildingBlock: CEKHIL_clean_sbu_0, # of connection points: 4
#     Node 14, Type 0, BuildingBlock: CEKHIL_clean_sbu_0, # of connection points: 4
#     Node 15, Type 0, BuildingBlock: CEKHIL_clean_sbu_0, # of connection points: 4
#     Node 16, Type 0, BuildingBlock: CEKHIL_clean_sbu_0, # of connection points: 4
#     Node 17, Type 0, BuildingBlock: CEKHIL_clean_sbu_0, # of connection points: 4
#     Node 18, Type 0, BuildingBlock: CEKHIL_clean_sbu_0, # of connection points: 4
#     Node 19, Type 0, BuildingBlock: CEKHIL_clean_sbu_0, # of connection points: 4
#     Node 20, Type 0, BuildingBlock: CEKHIL_clean_sbu_0, # of connection points: 4
#     Node 21, Type 0, BuildingBlock: CEKHIL_clean_sbu_0, # of connection points: 4
#     Node 22, Type 0, BuildingBlock: CEKHIL_clean_sbu_0, # of connection points: 4
#     Node 23, Type 0, BuildingBlock: CEKHIL_clean_sbu_0, # of connection points: 4
#     Node 24, Type 1, BuildingBlock: MIFKUJ_clean_sbu_0, # of connection points: 6
#     Node 25, Type 1, BuildingBlock: MIFKUJ_clean_sbu_0, # of connection points: 6
#     Node 26, Type 1, BuildingBlock: MIFKUJ_clean_sbu_0, # of connection points: 6
#     Node 27, Type 1, BuildingBlock: MIFKUJ_clean_sbu_0, # of connection points: 6
#     Node 28, Type 1, BuildingBlock: MIFKUJ_clean_sbu_0, # of connection points: 6
#     Node 29, Type 1, BuildingBlock: MIFKUJ_clean_sbu_0, # of connection points: 6
#     Node 30, Type 1, BuildingBlock: MIFKUJ_clean_sbu_0, # of connection points: 6
#     Node 31, Type 1, BuildingBlock: MIFKUJ_clean_sbu_0, # of connection points: 6
#     Node 32, Type 1, BuildingBlock: MIFKUJ_clean_sbu_0, # of connection points: 6
#     Node 33, Type 1, BuildingBlock: MIFKUJ_clean_sbu_0, # of connection points: 6
#     Node 34, Type 1, BuildingBlock: MIFKUJ_clean_sbu_0, # of connection points: 6
#     Node 35, Type 1, BuildingBlock: MIFKUJ_clean_sbu_0, # of connection points: 6
#     Node 36, Type 1, BuildingBlock: MIFKUJ_clean_sbu_0, # of connection points: 6
#     Node 37, Type 1, BuildingBlock: MIFKUJ_clean_sbu_0, # of connection points: 6
#     Node 38, Type 1, BuildingBlock: MIFKUJ_clean_sbu_0, # of connection points: 6
#     Node 39, Type 1, BuildingBlock: MIFKUJ_clean_sbu_0, # of connection points: 6
#     Edge 40, Type (0, 1), None
#     Edge 41, Type (0, 1), None
#     Edge 42, Type (0, 1), None
#     Edge 43, Type (0, 1), None
#     Edge 44, Type (0, 1), None
#     Edge 45, Type (0, 1), None
#     Edge 46, Type (0, 1), None
#     Edge 47, Type (0, 1), None
#     Edge 48, Type (0, 1), None
#     Edge 49, Type (0, 1), None
#     Edge 50, Type (0, 1), None
#     Edge 51, Type (0, 1), None
#     Edge 52, Type (0, 1), None
#     Edge 53, Type (0, 1), None
#     Edge 54, Type (0, 1), None
#     Edge 55, Type (0, 1), None
#     Edge 56, Type (0, 1), None
#     Edge 57, Type (0, 1), None
#     Edge 58, Type (0, 1), None
#     Edge 59, Type (0, 1), None
#     Edge 60, Type (0, 1), None
#     Edge 61, Type (0, 1), None
#     Edge 62, Type (0, 1), None
#     Edge 63, Type (0, 1), None
#     Edge 64, Type (0, 1), None
#     Edge 65, Type (0, 1), None
#     Edge 66, Type (0, 1), None
#     Edge 67, Type (0, 1), None
#     Edge 68, Type (0, 1), None
#     Edge 69, Type (0, 1), None
#     Edge 70, Type (0, 1), None
#     Edge 71, Type (0, 1), None
#     Edge 72, Type (0, 1), None
#     Edge 73, Type (0, 1), None
#     Edge 74, Type (0, 1), None
#     Edge 75, Type (0, 1), None
#     Edge 76, Type (0, 1), None
#     Edge 77, Type (0, 1), None
#     Edge 78, Type (0, 1), None
#     Edge 79, Type (0, 1), None
#     Edge 80, Type (0, 1), None
#     Edge 81, Type (0, 1), None
#     Edge 82, Type (0, 1), None
#     Edge 83, Type (0, 1), None
#     Edge 84, Type (0, 1), None
#     Edge 85, Type (0, 1), None
#     Edge 86, Type (0, 1), None
#     Edge 87, Type (0, 1), None
#     Edge 88, Type (0, 1), None
#     Edge 89, Type (0, 1), None
#     Edge 90, Type (0, 1), None
#     Edge 91, Type (0, 1), None
#     Edge 92, Type (0, 1), None
#     Edge 93, Type (0, 1), None
#     Edge 94, Type (0, 1), None
#     Edge 95, Type (0, 1), None
#     Edge 96, Type (0, 1), None
#     Edge 97, Type (0, 1), None
#     Edge 98, Type (0, 1), None
#     Edge 99, Type (0, 1), None
#     Edge 100, Type (0, 1), None
#     Edge 101, Type (0, 1), None
#     Edge 102, Type (0, 1), None
#     Edge 103, Type (0, 1), None
#     Edge 104, Type (0, 1), None
#     Edge 105, Type (0, 1), None
#     Edge 106, Type (0, 1), None
#     Edge 107, Type (0, 1), None
#     Edge 108, Type (0, 1), None
#     Edge 109, Type (0, 1), None
#     Edge 110, Type (0, 1), None
#     Edge 111, Type (0, 1), None
#     Edge 112, Type (0, 1), None
#     Edge 113, Type (0, 1), None
#     Edge 114, Type (0, 1), None
#     Edge 115, Type (0, 1), None
#     Edge 116, Type (0, 1), None
#     Edge 117, Type (0, 1), None
#     Edge 118, Type (0, 1), None
#     Edge 119, Type (0, 1), None
#     Edge 120, Type (0, 1), None
#     Edge 121, Type (0, 1), None
#     Edge 122, Type (0, 1), None
#     Edge 123, Type (0, 1), None
#     Edge 124, Type (0, 1), None
#     Edge 125, Type (0, 1), None
#     Edge 126, Type (0, 1), None
#     Edge 127, Type (0, 1), None
#     Edge 128, Type (0, 1), None
#     Edge 129, Type (0, 1), None
#     Edge 130, Type (0, 1), None
#     Edge 131, Type (0, 1), None
#     Edge 132, Type (0, 1), None
#     Edge 133, Type (0, 1), None
#     Edge 134, Type (0, 1), None
#     Edge 135, Type (0, 1), None
# Relax obj value: 0.131
# Max RMSD: 0.367
# Mean RMSD: 0.147
data_MOF--net-gar--node1-CEKHIL_clean_sbu_0--node2-MIFKUJ_clean_sbu_0--edge1-none
_symmetry_space_group_name_H-M    P1
_symmetry_Int_Tables_number       1
_symmetry_cell_setting            triclinic
loop_
_symmetry_equiv_pos_as_xyz
'x, y, z'
_cell_length_a     26.836183
_cell_length_b     26.514892
_cell_length_c     24.484469
_cell_angle_alpha  94.474
_cell_angle_beta   95.326606
_cell_angle_gamma 103.00819
loop_
_atom_site_label
_atom_site_type_symbol
_atom_site_fract_x
_atom_site_fract_y
_atom_site_fract_z
_atom_type_partial_charge
Co0 Co 0.0707 0.32565 0.43628 0.0
O1 O 0.14352 0.33715 0.44308 0.0
O2 O 0.09165 0.30264 0.36671 0.0
C3 C 0.06942 0.40572 0.47567 0.0
O4 O 0.99484 0.30955 0.41175 0.0
Co5 Co 1.0133 0.32378 0.53817 0.0
O6 O 0.95518 0.28368 0.48452 0.0
C7 C 0.04029 0.22838 0.49775 0.0
C8 C 0.13808 0.31906 0.39151 0.0
C9 C 0.95527 0.2868 0.43311 0.0
O10 O 0.06325 0.25324 0.46052 0.0
O11 O 0.019 0.24972 0.53473 0.0
O12 O 0.07531 0.39795 0.42399 0.0
O13 O 0.06862 0.36624 0.50394 0.0
Co14 Co 0.04258 0.76996 0.64417 0.0
O15 O 0.96952 0.7607 0.63586 0.0
O16 O 1.01515 0.74219 0.70892 0.0
C17 C 0.06105 0.85128 0.61945 0.0
O18 O 0.11877 0.77741 0.66738 0.0
Co19 Co 0.09804 0.78268 0.53954 0.0
O20 O 0.15908 0.80729 0.59562 0.0
C21 C 0.03544 0.68092 0.55536 0.0
C22 C 0.9708 0.74513 0.68465 0.0
C23 C 0.15956 0.79762 0.64587 0.0
O24 O 0.03514 0.69756 0.60612 0.0
O25 O 0.05238 0.71101 0.51948 0.0
O26 O 0.05154 0.84272 0.66926 0.0
O27 O 0.05289 0.81041 0.58437 0.0
Co28 Co 0.5707 0.82565 0.93628 0.0
O29 O 0.64352 0.83715 0.94308 0.0
O30 O 0.59165 0.80264 0.8667 0.0
C31 C 0.56942 0.90573 0.97566 0.0
O32 O 0.49484 0.80955 0.91175 0.0
Co33 Co 0.5133 0.82378 0.03817 0.0
O34 O 0.45518 0.78368 0.98452 0.0
C35 C 0.54029 0.72838 -0.00226 0.0
C36 C 0.63808 0.81906 0.89151 0.0
C37 C 0.45527 0.7868 0.93311 0.0
O38 O 0.56325 0.75324 0.96052 0.0
O39 O 0.519 0.74972 0.03473 0.0
O40 O 0.57531 0.89795 0.92399 0.0
O41 O 0.56862 0.86624 0.00394 0.0
Co42 Co 0.54258 0.26996 0.14417 0.0
O43 O 0.46952 0.2607 0.13585 0.0
O44 O 0.51514 0.24219 0.20892 0.0
C45 C 0.56104 0.35128 0.11944 0.0
O46 O 0.61877 0.27741 0.16737 0.0
Co47 Co 0.59804 0.28269 0.03954 0.0
O48 O 0.65907 0.3073 0.09562 0.0
C49 C 0.53544 0.18092 0.05535 0.0
C50 C 0.4708 0.24513 0.18464 0.0
C51 C 0.65955 0.29763 0.14587 0.0
O52 O 0.53514 0.19756 0.10611 0.0
O53 O 0.55238 0.21102 0.01947 0.0
O54 O 0.55154 0.34272 0.16926 0.0
O55 O 0.55289 0.31041 0.08437 0.0
Co56 Co 0.05665 0.78818 0.2008 0.0
O57 O 0.98533 0.77805 0.17796 0.0
O58 O 1.01783 0.76733 0.26189 0.0
C59 C 0.07713 0.86316 0.16314 0.0
O60 O 0.12984 0.79731 0.23852 0.0
Co61 Co 0.12992 0.79023 0.10996 0.0
O62 O 0.18378 0.8138 0.17354 0.0
C63 C 0.06232 0.69187 0.13096 0.0
C64 C 0.97768 0.76667 0.2273 0.0
C65 C 0.17542 0.80974 0.22364 0.0
O66 O 0.05261 0.71407 0.17573 0.0
O67 O 0.08876 0.716 0.09602 0.0
O68 O 0.06353 0.86276 0.21267 0.0
O69 O 0.07543 0.8186 0.13699 0.0
Co70 Co 0.53821 0.79078 0.3891 0.0
O71 O 0.61116 0.80724 0.40454 0.0
O72 O 0.56815 0.76663 0.32561 0.0
C73 C 0.53514 0.87013 0.42034 0.0
O74 O 0.46144 0.77056 0.36062 0.0
Co75 Co 0.47686 0.79696 0.48943 0.0
O76 O 0.41883 0.79108 0.43121 0.0
C77 C 0.5298 0.71342 0.4729 0.0
C78 C 0.6121 0.78798 0.35485 0.0
C79 C 0.42 0.77625 0.38063 0.0
O80 O 0.53379 0.72411 0.42298 0.0
O81 O 0.51378 0.74162 0.50892 0.0
O82 O 0.54159 0.85996 0.36918 0.0
O83 O 0.5318 0.83227 0.45084 0.0
Co84 Co 0.55665 0.28818 0.7008 0.0
O85 O 0.48533 0.27805 0.67796 0.0
O86 O 0.51784 0.26732 0.76189 0.0
C87 C 0.57713 0.36316 0.66314 0.0
O88 O 0.62984 0.2973 0.73852 0.0
Co89 Co 0.62993 0.29024 0.60995 0.0
O90 O 0.68378 0.31379 0.67353 0.0
C91 C 0.56233 0.19187 0.63096 0.0
C92 C 0.47769 0.26666 0.7273 0.0
C93 C 0.67542 0.30974 0.72363 0.0
O94 O 0.55261 0.21407 0.67572 0.0
O95 O 0.58877 0.216 0.59601 0.0
O96 O 0.56353 0.36275 0.71266 0.0
O97 O 0.57544 0.31859 0.63699 0.0
Co98 Co 0.03822 0.29078 0.8891 0.0
O99 O 0.11117 0.30724 0.90454 0.0
O100 O 0.06816 0.26663 0.8256 0.0
C101 C 0.03515 0.37013 0.92034 0.0
O102 O 0.96145 0.27056 0.86061 0.0
Co103 Co 0.97686 0.29696 0.98942 0.0
O104 O 0.91884 0.29108 0.9312 0.0
C105 C 0.02981 0.21342 0.9729 0.0
C106 C 0.11211 0.28797 0.85485 0.0
C107 C 0.92001 0.27625 0.88063 0.0
O108 O 0.03379 0.2241 0.92297 0.0
O109 O 1.01379 0.24162 0.00891 0.0
O110 O 0.0416 0.35996 0.86918 0.0
O111 O 0.0318 0.33227 0.95084 0.0
Co112 Co 0.45427 0.04883 0.3364 0.0
O113 O 0.45653 0.1215 0.33988 0.0
O114 O 0.38666 0.05839 0.3121 0.0
C115 C 0.50086 0.05124 0.4188 0.0
O116 O 0.43482 0.97013 0.32724 0.0
Co117 Co 0.55397 1.00636 0.33739 0.0
O118 O 0.50474 0.93781 0.32015 0.0
C119 C 0.5056 0.03449 0.23447 0.0
C120 C 0.40817 0.10772 0.32031 0.0
C121 C 0.45627 0.93224 0.31795 0.0
O122 O 0.46995 0.04814 0.25884 0.0
O123 O 0.54324 0.01945 0.25852 0.0
O124 O 0.4518 0.04958 0.41551 0.0
O125 O 0.52105 0.05546 0.37329 0.0
Co126 Co 0.29655 0.15842 0.49538 0.0
O127 O 0.37131 0.17566 0.50136 0.0
O128 O 0.32367 0.09681 0.50483 0.0
C129 C 0.28799 0.2086 0.42113 0.0
O130 O 0.21959 0.11898 0.49134 0.0
Co131 Co 0.23319 0.23463 0.51673 0.0
O132 O 0.17554 0.17451 0.52375 0.0
C133 C 0.28933 0.20569 0.61171 0.0
C134 C 0.36925 0.12712 0.50811 0.0
C135 C 0.17887 0.12817 0.51045 0.0
O136 O 0.30026 0.17086 0.57847 0.0
O137 O 0.26573 0.2394 0.59502 0.0
O138 O 0.29315 0.16089 0.41462 0.0
O139 O 0.28843 0.22578 0.47234 0.0
Co140 Co 0.17042 0.03286 0.83861 0.0
O141 O 0.15477 0.95726 0.82974 0.0
O142 O 0.23203 1.00791 0.82823 0.0
C143 C 0.12144 0.03898 0.91287 0.0
O144 O 0.20856 0.11042 0.84577 0.0
Co145 Co 0.09484 0.09703 0.81825 0.0
O146 O 0.15489 0.15265 0.80535 0.0
C147 C 0.12262 0.04343 0.72265 0.0
C148 C 0.20298 0.96132 0.82276 0.0
C149 C 0.20044 0.14964 0.82149 0.0
O150 O 0.15781 0.03242 0.75568 0.0
O151 O 0.08879 0.0659 0.73967 0.0
O152 O 0.16848 0.03314 0.91909 0.0
O153 O 0.10384 0.03986 0.86181 0.0
Co154 Co 0.28522 0.87739 -0.003 0.0
O155 O 0.21286 0.86646 0.00482 0.0
O156 O 0.26909 0.94241 0.02333 0.0
C157 C 0.27651 0.82844 0.91319 0.0
O158 O 0.36155 0.90756 0.99476 0.0
Co159 Co 0.34028 0.78541 0.98928 0.0
O160 O 0.39992 0.84416 0.01644 0.0
C161 C 0.32239 0.83003 0.09717 0.0
C162 C 0.22218 0.91562 0.02246 0.0
C163 C 0.4011 0.89187 0.01308 0.0
O164 O 0.30107 0.86342 0.07505 0.0
O165 O 0.33731 0.79397 0.07029 0.0
O166 O 0.27175 0.87641 0.91644 0.0
O167 O 0.28249 0.81062 0.95992 0.0
Co168 Co 0.30082 0.40112 0.05871 0.0
O169 O 0.22617 0.38379 0.0496 0.0
O170 O 0.27378 0.45714 0.09304 0.0
C171 C 0.3047 0.38063 0.96776 0.0
O172 O 0.37913 0.43802 0.07102 0.0
Co173 Co 0.36426 0.32377 0.03614 0.0
O174 O 0.41925 0.38551 0.02559 0.0
C175 C 0.30877 0.31379 0.13446 0.0
C176 C 0.22836 0.42995 0.07267 0.0
C177 C 0.41854 0.43048 0.04745 0.0
O178 O 0.30067 0.35991 0.12827 0.0
O179 O 0.33097 0.29089 0.09937 0.0
O180 O 0.3 0.42612 0.98649 0.0
O181 O 0.30562 0.34753 0.00388 0.0
Co182 Co 0.81658 0.1757 0.05222 0.0
O183 O 0.88819 0.17911 0.04378 0.0
O184 O 0.83856 0.11778 0.08371 0.0
C185 C 0.79298 0.18793 0.96647 0.0
O186 O 0.73997 0.15716 0.06229 0.0
Co187 Co 0.77346 0.27545 0.03275 0.0
O188 O 0.70848 0.22113 0.02634 0.0
C189 C 0.83387 0.27268 0.13658 0.0
C190 C 0.8821 0.1348 0.06422 0.0
C191 C 0.70234 0.17607 0.04338 0.0
O192 O 0.83333 0.22386 0.12434 0.0
O193 O 0.81899 0.30162 0.10233 0.0
O194 O 0.79813 0.14211 0.97723 0.0
O195 O 0.80902 0.22519 0.00524 0.0
Co196 Co 0.164 0.51468 0.27899 0.0
O197 O 0.16202 0.44228 0.28269 0.0
O198 O 0.22097 0.49668 0.24437 0.0
C199 C 0.1537 0.53138 0.36573 0.0
O200 O 0.17926 0.59264 0.27224 0.0
Co201 Co 0.06477 0.55383 0.30671 0.0
O202 O 0.11403 0.62168 0.30599 0.0
C203 C 0.06661 0.50295 0.19775 0.0
C204 C 0.20516 0.45107 0.26142 0.0
C205 C 0.15779 0.62941 0.28752 0.0
O206 O 0.11453 0.50126 0.20874 0.0
O207 O 0.03861 0.51603 0.23313 0.0
O208 O 0.19938 0.52951 0.35379 0.0
O209 O 0.11636 0.51696 0.32708 0.0
Co210 Co 0.80082 0.90112 0.55871 0.0
O211 O 0.72617 0.88379 0.5496 0.0
O212 O 0.77378 0.95714 0.59304 0.0
C213 C 0.8047 0.88063 0.46776 0.0
O214 O 0.87913 0.93802 0.57102 0.0
Co215 Co 0.86426 0.82377 0.53614 0.0
O216 O 0.91925 0.88551 0.52559 0.0
C217 C 0.80877 0.81379 0.63446 0.0
C218 C 0.72836 0.92995 0.57267 0.0
C219 C 0.91855 0.93048 0.54745 0.0
O220 O 0.80067 0.85991 0.62827 0.0
O221 O 0.83097 0.79089 0.59937 0.0
O222 O 0.8 0.92612 0.48649 0.0
O223 O 0.80562 0.84754 0.50388 0.0
Co224 Co 0.92728 0.02866 0.27236 0.0
O225 O 0.94612 0.10401 0.28091 0.0
O226 O 0.87279 0.05752 0.23706 0.0
C227 C 0.94696 0.02401 0.36341 0.0
O228 O 0.88962 0.95006 0.26049 0.0
Co229 Co 1.003 0.96333 0.29666 0.0
O230 O 0.94101 0.90909 0.30767 0.0
C231 C 1.01303 0.01873 0.19759 0.0
C232 C 0.90063 0.10296 0.25746 0.0
C233 C 0.89661 0.91032 0.28517 0.0
O234 O 0.96784 0.02779 0.20359 0.0
O235 O 0.03581 0.99608 0.23307 0.0
O236 O 0.90234 0.02979 0.34396 0.0
O237 O 0.97977 0.02271 0.32795 0.0
Co238 Co 0.31658 0.6757 0.55223 0.0
O239 O 0.38819 0.6791 0.54378 0.0
O240 O 0.33856 0.61778 0.58371 0.0
C241 C 0.29298 0.68792 0.46647 0.0
O242 O 0.23997 0.65715 0.5623 0.0
Co243 Co 0.27347 0.77545 0.53276 0.0
O244 O 0.20848 0.72113 0.52635 0.0
C245 C 0.33388 0.77268 0.63658 0.0
C246 C 0.3821 0.6348 0.56423 0.0
C247 C 0.20234 0.67607 0.54339 0.0
O248 O 0.33334 0.72386 0.62434 0.0
O249 O 0.31899 0.80162 0.60234 0.0
O250 O 0.29813 0.64211 0.47723 0.0
O251 O 0.30902 0.72519 0.50524 0.0
Co252 Co 0.42728 0.52866 0.77236 0.0
O253 O 0.44612 0.60401 0.78092 0.0
O254 O 0.37279 0.55752 0.73706 0.0
C255 C 0.44696 0.52401 0.86341 0.0
O256 O 0.38962 0.45006 0.76049 0.0
Co257 Co 0.503 0.46333 0.79666 0.0
O258 O 0.44101 0.40909 0.80767 0.0
C259 C 0.51303 0.51873 0.6976 0.0
C260 C 0.40063 0.60296 0.75746 0.0
C261 C 0.39662 0.41032 0.78517 0.0
O262 O 0.46784 0.52779 0.70359 0.0
O263 O 0.53581 0.49608 0.73307 0.0
O264 O 0.40234 0.52979 0.84396 0.0
O265 O 0.47977 0.52271 0.82795 0.0
Co266 Co 0.664 0.01468 0.77899 0.0
O267 O 0.66203 0.94228 0.78268 0.0
O268 O 0.72097 0.99669 0.74437 0.0
C269 C 0.6537 0.03138 0.86572 0.0
O270 O 0.67927 0.09264 0.77224 0.0
Co271 Co 0.56478 0.05384 0.8067 0.0
O272 O 0.61403 0.12169 0.80599 0.0
C273 C 0.56662 1.00295 0.69775 0.0
C274 C 0.70516 0.95107 0.76142 0.0
C275 C 0.65779 0.12941 0.78752 0.0
O276 O 0.61453 1.00126 0.70874 0.0
O277 O 0.53862 0.01604 0.73312 0.0
O278 O 0.69938 0.02951 0.85379 0.0
O279 O 0.61636 0.01696 0.82707 0.0
Co280 Co 0.79655 0.65843 0.99538 0.0
O281 O 0.8713 0.67567 0.00137 0.0
O282 O 0.82366 0.59682 0.00483 0.0
C283 C 0.78799 0.7086 0.92113 0.0
O284 O 0.71959 0.61898 0.99134 0.0
Co285 Co 0.73319 0.73464 0.01673 0.0
O286 O 0.67554 0.67451 0.02375 0.0
C287 C 0.78932 0.7057 0.11171 0.0
C288 C 0.86924 0.62712 0.00811 0.0
C289 C 0.67887 0.62818 0.01045 0.0
O290 O 0.80025 0.67086 0.07847 0.0
O291 O 0.76573 0.7394 0.09502 0.0
O292 O 0.79315 0.6609 0.91462 0.0
O293 O 0.78842 0.72578 0.97234 0.0
Co294 Co 0.95426 0.54883 0.8364 0.0
O295 O 0.95653 0.6215 0.83989 0.0
O296 O 0.88666 0.55839 0.8121 0.0
C297 C 1.00086 0.55124 0.91881 0.0
O298 O 0.93482 0.47013 0.82724 0.0
Co299 Co 0.05397 0.50636 0.83739 0.0
O300 O 1.00474 0.43781 0.82016 0.0
C301 C 1.0056 0.53449 0.73448 0.0
C302 C 0.90817 0.60772 0.82032 0.0
C303 C 0.95626 0.43224 0.81795 0.0
O304 O 0.96995 0.54814 0.75885 0.0
O305 O 0.04323 0.51945 0.75853 0.0
O306 O 0.95179 0.54958 0.91552 0.0
O307 O 0.02105 0.55546 0.87329 0.0
Co308 Co 0.78522 0.37739 0.49699 0.0
O309 O 0.71286 0.36646 0.50482 0.0
O310 O 0.76909 0.44241 0.52332 0.0
C311 C 0.77651 0.32844 0.41318 0.0
O312 O 0.86155 0.40756 0.49476 0.0
Co313 Co 0.84028 0.28541 0.48927 0.0
O314 O 0.89992 0.34416 0.51644 0.0
C315 C 0.82239 0.33003 0.59717 0.0
C316 C 0.72218 0.41562 0.52246 0.0
C317 C 0.9011 0.39187 0.51308 0.0
O318 O 0.80107 0.36342 0.57505 0.0
O319 O 0.83731 0.29397 0.57029 0.0
O320 O 0.77175 0.37641 0.41643 0.0
O321 O 0.78249 0.31062 0.45991 0.0
Co322 Co 0.67042 0.53286 0.33861 0.0
O323 O 0.65477 0.45727 0.32974 0.0
O324 O 0.73203 0.50791 0.32823 0.0
C325 C 0.62144 0.53898 0.41287 0.0
O326 O 0.70856 0.61042 0.34577 0.0
Co327 Co 0.59484 0.59703 0.31824 0.0
O328 O 0.65489 0.65265 0.30535 0.0
C329 C 0.62262 0.54344 0.22265 0.0
C330 C 0.70298 0.46132 0.32276 0.0
C331 C 0.70043 0.64965 0.32149 0.0
O332 O 0.6578 0.53242 0.25568 0.0
O333 O 0.58878 0.5659 0.23967 0.0
O334 O 0.66848 0.53315 0.41909 0.0
O335 O 0.60384 0.53986 0.36182 0.0
Zn336 Zn 0.1131 0.99123 0.0789 0.0
Zn337 Zn 1.01005 0.07246 0.02894 0.0
C338 C 0.09479 0.9116 0.13957 0.0
O339 O 0.12819 0.94944 0.1701 0.0
C340 C 0.02988 0.16059 0.98376 0.0
O341 O 1.00652 0.12391 0.94476 0.0
O342 O 0.1849 0.97641 0.07525 0.0
O343 O 0.1048 0.01658 0.00351 0.0
O344 O 0.04484 0.0465 0.9588 0.0
C345 C 0.17997 0.93953 0.0364 0.0
O346 O 0.13457 0.9202 0.00854 0.0
O347 O 0.07719 0.91878 0.09125 0.0
C348 C 0.924 0.10696 0.06662 0.0
O349 O 0.95684 0.11659 0.11141 0.0
O350 O 0.93564 0.0841 0.02284 0.0
O351 O 1.01369 0.04377 0.10526 0.0
O352 O 0.08644 0.02909 0.14465 0.0
O353 O 0.04119 0.14861 0.03207 0.0
C354 C 0.08827 0.03389 0.9603 0.0
C355 C 0.03919 0.03129 0.14651 0.0
Zn356 Zn 0.26279 0.76324 0.33744 0.0
Zn357 Zn 0.33536 0.80299 0.25672 0.0
C358 C 0.18664 0.68367 0.29267 0.0
O359 O 0.16628 0.71779 0.31881 0.0
C360 C 0.42342 0.88101 0.29807 0.0
O361 O 0.44441 0.84408 0.27878 0.0
O362 O 0.25193 0.73659 0.40902 0.0
O363 O 0.33839 0.79301 0.35978 0.0
O364 O 0.36617 0.75021 0.29465 0.0
C365 C 0.272 0.6976 0.41325 0.0
O366 O 0.28656 0.67508 0.36994 0.0
O367 O 0.2343 0.69638 0.28618 0.0
C368 C 0.33067 0.8337 0.15659 0.0
O369 O 0.31511 0.8696 0.18598 0.0
O370 O 0.34981 0.80033 0.18024 0.0
O371 O 0.25916 0.79952 0.24154 0.0
O372 O 0.22012 0.81291 0.31437 0.0
O373 O 0.37465 0.87371 0.29278 0.0
C374 C 0.37179 0.76989 0.34417 0.0
C375 C 0.22072 0.80995 0.2625 0.0
Zn376 Zn 0.48696 0.04604 0.55977 0.0
Zn377 Zn 0.59975 0.99668 0.5312 0.0
C378 C 0.53711 0.13711 0.61788 0.0
O379 O 0.50462 0.11462 0.65056 0.0
C380 C 0.55478 0.92212 0.44623 0.0
O381 O 0.58011 0.95771 0.41822 0.0
O382 O 0.41687 0.06677 0.5435 0.0
O383 O 0.49972 1.00495 0.49573 0.0
O384 O 0.57611 0.0454 0.47769 0.0
C385 C 0.4167 0.10838 0.52008 0.0
O386 O 0.46031 0.13679 0.50825 0.0
O387 O 0.53953 0.11337 0.57161 0.0
C388 C 0.68124 0.95022 0.57199 0.0
O389 O 0.64121 0.92253 0.5917 0.0
O390 O 0.67471 0.98654 0.54223 0.0
O391 O 0.57827 1.00031 0.60542 0.0
O392 O 0.50226 1.01082 0.62758 0.0
O393 O 0.55909 0.92921 0.49823 0.0
C394 C 0.52709 0.0349 0.46693 0.0
C395 C 0.54652 1.0016 0.64026 0.0
Zn396 Zn 0.33729 0.24998 0.78562 0.0
Zn397 Zn 0.25718 0.30471 0.80684 0.0
C398 C 0.30605 0.20691 0.67106 0.0
O399 O 0.32951 0.17157 0.68802 0.0
C400 C 0.29505 0.36507 0.9081 0.0
O401 O 0.28711 0.39988 0.87506 0.0
O402 O 0.40655 0.23345 0.77766 0.0
O403 O 0.36414 0.32699 0.81528 0.0
O404 O 0.30768 0.35777 0.76627 0.0
C405 C 0.42649 0.26353 0.74341 0.0
O406 O 0.39951 0.29284 0.71944 0.0
O407 O 0.30192 0.24389 0.70559 0.0
C408 C 0.16157 0.2845 0.83789 0.0
O409 O 0.18728 0.25742 0.86713 0.0
O410 O 0.18577 0.31733 0.8084 0.0
O411 O 0.23334 0.22701 0.78037 0.0
O412 O 0.29046 0.19854 0.83032 0.0
O413 O 0.28654 0.31764 0.88845 0.0
C414 C 0.3539 0.36318 0.78811 0.0
C415 C 0.2437 0.19336 0.81102 0.0
Zn416 Zn 0.07766 0.99144 0.55146 0.0
Zn417 Zn 0.02255 0.07202 0.52411 0.0
C418 C 0.12099 0.02765 0.66329 0.0
O419 O 0.15656 1.00533 0.64625 0.0
C420 C 0.96221 0.03323 0.42309 0.0
O421 O 0.92735 0.03914 0.45576 0.0
O422 O 0.09294 0.92195 0.56659 0.0
O423 O 1.00203 0.96262 0.51969 0.0
O424 O 0.97098 0.02023 0.56533 0.0
C425 C 0.06437 0.9032 0.60247 0.0
O426 O 0.0353 0.93086 0.62477 0.0
O427 O 0.08298 0.03003 0.62907 0.0
C428 C 0.03734 0.17246 0.49643 0.0
O429 O 0.06482 0.15152 0.46359 0.0
O430 O 1.0085 0.14366 0.52604 0.0
O431 O 0.09998 0.0976 0.54771 0.0
O432 O 0.13005 0.03711 0.50601 0.0
O433 O 1.0093 0.04394 0.44294 0.0
C434 C 0.96582 0.97327 0.54515 0.0
C435 C 0.13416 0.08529 0.52023 0.0
Zn436 Zn 0.28423 0.84921 0.76462 0.0
Zn437 Zn 0.33891 0.73357 0.80426 0.0
C438 C 0.20821 0.81711 0.68128 0.0
O439 O 0.24244 0.85491 0.66497 0.0
C440 C 0.40867 0.76263 0.89684 0.0
O441 O 0.37068 0.73105 0.91591 0.0
O442 O 0.26498 0.91902 0.78496 0.0
O443 O 0.31694 0.83121 0.83289 0.0
O444 O 0.28722 0.75378 0.85623 0.0
C445 C 0.22288 0.91528 0.80693 0.0
O446 O 0.19528 0.86901 0.81343 0.0
O447 O 0.21637 0.80288 0.72923 0.0
C448 C 0.38153 0.65118 0.75904 0.0
O449 O 0.41037 0.6925 0.742 0.0
O450 O 0.34577 0.65721 0.78856 0.0
O451 O 0.33824 0.76073 0.7302 0.0
O452 O 0.3316 0.83876 0.70694 0.0
O453 O 0.40554 0.76975 0.84616 0.0
C454 C 0.28933 0.80259 0.8624 0.0
C455 C 0.33895 0.79325 0.69473 0.0
Zn456 Zn 0.5727 0.06261 0.98622 0.0
Zn457 Zn 0.52749 0.01671 0.07158 0.0
C458 C 0.65084 0.14235 0.02794 0.0
O459 O 0.62206 0.15713 0.98891 0.0
C460 C 0.4489 0.92916 0.03665 0.0
O461 O 0.48336 0.91171 0.06653 0.0
O462 O 0.60389 0.07038 0.91871 0.0
O463 O 0.5454 0.98538 0.96853 0.0
O464 O 0.57833 0.97394 0.04913 0.0
C465 C 0.64388 0.0524 0.91798 0.0
O466 O 0.66516 0.03831 0.96293 0.0
O467 O 0.63668 0.09624 0.04167 0.0
C468 C 0.50179 0.0335 0.17534 0.0
O469 O 0.47047 0.05729 0.14888 0.0
O470 O 0.52819 1.00823 0.14914 0.0
O471 O 0.53883 0.09639 0.07646 0.0
O472 O 0.52151 0.10681 0.99002 0.0
O473 O 0.45659 0.97788 0.03301 0.0
C474 C 0.56452 0.95694 -0.0009 0.0
C475 C 0.52628 0.12442 0.04027 0.0
Zn476 Zn 0.33801 0.21551 0.25864 0.0
Zn477 Zn 0.25953 0.32327 0.30466 0.0
C478 C 0.42273 0.22705 0.20763 0.0
O479 O 0.38621 0.19231 0.17692 0.0
C480 C 0.18382 0.32317 0.36309 0.0
O481 O 0.22653 0.35309 0.38906 0.0
O482 O 0.34761 0.14251 0.26538 0.0
O483 O 0.31105 0.22804 0.33118 0.0
O484 O 0.28354 0.2882 0.37644 0.0
C485 C 0.38042 0.14749 0.3081 0.0
O486 O 0.3967 0.19298 0.33712 0.0
O487 O 0.41239 0.24931 0.25187 0.0
C488 C 0.23402 0.4103 0.25853 0.0
O489 O 0.21856 0.37326 0.21777 0.0
O490 O 0.25839 0.40066 0.30274 0.0
O491 O 0.28291 0.30984 0.2269 0.0
O492 O 0.3055 0.24103 0.18884 0.0
O493 O 0.18412 0.30111 0.31472 0.0
C494 C 0.29358 0.24327 0.37415 0.0
C495 C 0.29712 0.28653 0.18564 0.0
Zn496 Zn 0.57766 0.49145 0.05146 0.0
Zn497 Zn 0.52254 0.57202 0.02411 0.0
C498 C 0.62099 0.52765 0.16329 0.0
O499 O 0.65656 0.50534 0.14624 0.0
C500 C 0.46221 0.53323 0.92309 0.0
O501 O 0.42735 0.53914 0.95576 0.0
O502 O 0.59293 0.42195 0.06658 0.0
O503 O 0.50203 0.46262 0.01969 0.0
O504 O 0.47097 0.52023 0.06533 0.0
C505 C 0.56437 0.4032 0.10247 0.0
O506 O 0.5353 0.43086 0.12476 0.0
O507 O 0.58298 0.53003 0.12906 0.0
C508 C 0.53734 0.67246 0.99643 0.0
O509 O 0.56482 0.65153 0.96359 0.0
O510 O 0.5085 0.64366 0.02604 0.0
O511 O 0.59998 0.5976 0.04771 0.0
O512 O 0.63005 0.53711 0.00601 0.0
O513 O 0.5093 0.54394 0.94294 0.0
C514 C 0.46581 0.47327 0.04515 0.0
C515 C 0.63416 0.58529 0.02023 0.0
Zn516 Zn 0.78422 0.34921 0.26462 0.0
Zn517 Zn 0.83891 0.23358 0.30426 0.0
C518 C 0.7082 0.31711 0.18128 0.0
O519 O 0.74244 0.35491 0.16497 0.0
C520 C 0.90867 0.26263 0.39684 0.0
O521 O 0.87068 0.23105 0.41591 0.0
O522 O 0.76498 0.41902 0.28496 0.0
O523 O 0.81693 0.33121 0.33289 0.0
O524 O 0.78722 0.25378 0.35623 0.0
C525 C 0.72288 0.41528 0.30693 0.0
O526 O 0.69528 0.36901 0.31343 0.0
O527 O 0.71636 0.30288 0.22922 0.0
C528 C 0.88153 0.15119 0.25904 0.0
O529 O 0.91038 0.1925 0.24201 0.0
O530 O 0.84577 0.15721 0.28856 0.0
O531 O 0.83824 0.26073 0.23019 0.0
O532 O 0.8316 0.33876 0.20694 0.0
O533 O 0.90554 0.26976 0.34616 0.0
C534 C 0.78933 0.30259 0.36239 0.0
C535 C 0.83895 0.29325 0.19473 0.0
Zn536 Zn 0.0727 0.56261 0.48623 0.0
Zn537 Zn 0.02749 0.51671 0.57159 0.0
C538 C 0.15084 0.64235 0.52795 0.0
O539 O 0.12206 0.65713 0.48892 0.0
C540 C 0.94889 0.42916 0.53666 0.0
O541 O 0.98336 0.4117 0.56653 0.0
O542 O 0.10389 0.57038 0.41872 0.0
O543 O 0.04541 0.48538 0.46853 0.0
O544 O 0.07833 0.47394 0.54914 0.0
C545 C 0.14388 0.5524 0.41798 0.0
O546 O 0.16517 0.53831 0.46293 0.0
O547 O 0.13668 0.59624 0.54168 0.0
C548 C 1.00179 0.5335 0.67534 0.0
O549 O 0.97047 0.55729 0.64888 0.0
O550 O 0.02819 0.50823 0.64914 0.0
O551 O 0.03883 0.59639 0.57646 0.0
O552 O 0.02152 0.60681 0.49003 0.0
O553 O 0.95659 0.47788 0.53301 0.0
C554 C 0.06452 0.45694 0.49911 0.0
C555 C 0.02628 0.62442 0.54028 0.0
Zn556 Zn 0.83729 0.74999 0.28561 0.0
Zn557 Zn 0.75717 0.80471 0.30684 0.0
C558 C 0.80604 0.70691 0.17106 0.0
O559 O 0.82951 0.67157 0.18802 0.0
C560 C 0.79505 0.86507 0.4081 0.0
O561 O 0.7871 0.89988 0.37506 0.0
O562 O 0.90654 0.73346 0.27766 0.0
O563 O 0.86414 0.827 0.31528 0.0
O564 O 0.80768 0.85777 0.26627 0.0
C565 C 0.92649 0.76354 0.24341 0.0
O566 O 0.8995 0.79284 0.21944 0.0
O567 O 0.80191 0.74389 0.20559 0.0
C568 C 0.66156 0.7845 0.33789 0.0
O569 O 0.68727 0.75742 0.36713 0.0
O570 O 0.68576 0.81733 0.30841 0.0
O571 O 0.73334 0.72702 0.28037 0.0
O572 O 0.79045 0.69855 0.33032 0.0
O573 O 0.78653 0.81764 0.38844 0.0
C574 C 0.85389 0.86319 0.28811 0.0
C575 C 0.74369 0.69337 0.31102 0.0
Zn576 Zn 0.76279 0.26324 0.83743 0.0
Zn577 Zn 0.83536 0.30298 0.75671 0.0
C578 C 0.68665 0.18367 0.79267 0.0
O579 O 0.66629 0.2178 0.81881 0.0
C580 C 0.92341 0.38101 0.79807 0.0
O581 O 0.94441 0.34409 0.77878 0.0
O582 O 0.75194 0.2366 0.90901 0.0
O583 O 0.8384 0.29301 0.85978 0.0
O584 O 0.86617 0.25021 0.79465 0.0
C585 C 0.77201 0.19761 0.91325 0.0
O586 O 0.78657 0.17508 0.86993 0.0
O587 O 0.73431 0.19638 0.78617 0.0
C588 C 0.83068 0.33371 0.65658 0.0
O589 O 0.81511 0.3696 0.68597 0.0
O590 O 0.84982 0.30034 0.68024 0.0
O591 O 0.75916 0.29951 0.74152 0.0
O592 O 0.72013 0.31292 0.81436 0.0
O593 O 0.87464 0.37371 0.79278 0.0
C594 C 0.8718 0.26988 0.84417 0.0
C595 C 0.72073 0.30995 0.76249 0.0
Zn596 Zn 0.83802 0.71551 0.75864 0.0
Zn597 Zn 0.75953 0.82327 0.80466 0.0
C598 C 0.92274 0.72705 0.70764 0.0
O599 O 0.88622 0.69231 0.67693 0.0
C600 C 0.68382 0.82317 0.86308 0.0
O601 O 0.72653 0.8531 0.88906 0.0
O602 O 0.84761 0.64251 0.76539 0.0
O603 O 0.81105 0.72804 0.83118 0.0
O604 O 0.78354 0.78821 0.87644 0.0
C605 C 0.88042 0.64749 0.80811 0.0
O606 O 0.8967 0.69298 0.83713 0.0
O607 O 0.91239 0.74931 0.75187 0.0
C608 C 0.73403 0.9103 0.75853 0.0
O609 O 0.71857 0.87327 0.71777 0.0
O610 O 0.75839 0.90066 0.80274 0.0
O611 O 0.78291 0.80984 0.7269 0.0
O612 O 0.8055 0.74103 0.68884 0.0
O613 O 0.68412 0.80111 0.81471 0.0
C614 C 0.79358 0.74327 0.87415 0.0
C615 C 0.79713 0.78653 0.68564 0.0
Zn616 Zn 0.6131 0.49123 0.5789 0.0
Zn617 Zn 0.51006 0.57246 0.52895 0.0
C618 C 0.59479 0.4116 0.63957 0.0
O619 O 0.62819 0.44944 0.6701 0.0
C620 C 0.52988 0.66059 0.48376 0.0
O621 O 0.50652 0.62391 0.44476 0.0
O622 O 0.6849 0.47641 0.57525 0.0
O623 O 0.6048 0.51658 0.50351 0.0
O624 O 0.54484 0.5465 0.45881 0.0
C625 C 0.67997 0.43953 0.5364 0.0
O626 O 0.63457 0.42021 0.50854 0.0
O627 O 0.57719 0.41878 0.59125 0.0
C628 C 0.424 0.60696 0.56662 0.0
O629 O 0.45684 0.61658 0.61141 0.0
O630 O 0.43564 0.5841 0.52284 0.0
O631 O 0.51369 0.54377 0.60526 0.0
O632 O 0.58644 0.52909 0.64465 0.0
O633 O 0.54119 0.64861 0.53207 0.0
C634 C 0.58827 0.53389 0.4603 0.0
C635 C 0.53919 0.53129 0.64651 0.0
Zn636 Zn 0.98695 0.54604 0.05978 0.0
Zn637 Zn 0.09975 0.49667 0.03121 0.0
C638 C 0.03711 0.63711 0.11788 0.0
O639 O 1.00462 0.61462 0.15057 0.0
C640 C 0.05478 0.42211 0.94623 0.0
O641 O 0.08012 0.45771 0.91823 0.0
O642 O 0.91686 0.56677 0.0435 0.0
O643 O 0.99971 0.50494 0.99574 0.0
O644 O 0.07611 0.5454 0.9777 0.0
C645 C 0.9167 0.60839 0.02008 0.0
O646 O 0.96031 0.63679 0.00825 0.0
O647 O 0.03952 0.61337 0.07162 0.0
C648 C 0.18123 0.45021 0.07199 0.0
O649 O 0.1412 0.42252 0.09169 0.0
O650 O 0.1747 0.48654 0.04224 0.0
O651 O 0.07826 0.5003 0.10543 0.0
O652 O 1.00225 0.51082 0.12759 0.0
O653 O 0.05909 0.42921 -0.00177 0.0
C654 C 0.02708 0.5349 0.96694 0.0
C655 C 0.04651 0.5016 0.14026 0.0
loop_
_geom_bond_atom_site_label_1
_geom_bond_atom_site_label_2
_geom_bond_distance
_geom_bond_site_symmetry_2
_ccdc_geom_bond_type
Co0 O1 2.216 . S
Co0 O2 2.091 . S
Co0 O4 2.004 1_455 S
Co0 O10 2.021 . S
Co0 O12 2.137 . S
Co0 O13 2.244 . S
O1 Co0 2.216 . S
O1 C8 1.247 . S
O2 Co0 2.091 . S
O2 C8 1.261 . S
C3 O12 1.247 . S
C3 O13 1.272 . S
O4 Co0 2.004 1_655 S
O4 C9 1.259 . S
Co5 O6 2.061 . S
Co5 O11 2.052 1_655 S
Co5 O13 2.135 1_655 S
O6 Co5 2.061 . S
O6 C9 1.235 . S
C7 O10 1.238 . S
C7 O11 1.241 . S
C8 O1 1.247 . S
C8 O2 1.261 . S
C9 O4 1.259 . S
C9 O6 1.235 . S
O10 Co0 2.021 . S
O10 C7 1.238 . S
O11 Co5 2.052 1_455 S
O11 C7 1.241 . S
O12 Co0 2.137 . S
O12 C3 1.247 . S
O13 Co0 2.244 . S
O13 C3 1.272 . S
O13 Co5 2.135 1_455 S
Co14 O15 2.216 1_455 S
Co14 O16 2.091 1_455 S
Co14 O18 2.004 . S
Co14 O24 2.021 . S
Co14 O26 2.137 . S
Co14 O27 2.244 . S
O15 Co14 2.216 1_655 S
O15 C22 1.247 . S
O16 Co14 2.091 1_655 S
O16 C22 1.261 . S
C17 O26 1.247 . S
C17 O27 1.272 . S
O18 Co14 2.004 . S
O18 C23 1.259 . S
Co19 O20 2.061 . S
Co19 O25 2.052 . S
Co19 O27 2.135 . S
O20 Co19 2.061 . S
O20 C23 1.235 . S
C21 O24 1.238 . S
C21 O25 1.241 . S
C22 O15 1.247 . S
C22 O16 1.261 . S
C23 O18 1.259 . S
C23 O20 1.235 . S
O24 Co14 2.021 . S
O24 C21 1.238 . S
O25 Co19 2.052 . S
O25 C21 1.241 . S
O26 Co14 2.137 . S
O26 C17 1.247 . S
O27 Co14 2.244 . S
O27 C17 1.272 . S
O27 Co19 2.135 . S
Co28 O29 2.216 . S
Co28 O30 2.091 . S
Co28 O32 2.004 . S
Co28 O38 2.021 . S
Co28 O40 2.137 . S
Co28 O41 2.244 1_556 S
O29 Co28 2.216 . S
O29 C36 1.247 . S
O30 Co28 2.091 . S
O30 C36 1.261 . S
C31 O40 1.247 . S
C31 O41 1.272 1_556 S
O32 Co28 2.004 . S
O32 C37 1.259 . S
Co33 O34 2.061 1_554 S
Co33 O39 2.052 . S
Co33 O41 2.135 . S
O34 Co33 2.061 1_556 S
O34 C37 1.235 . S
C35 O38 1.238 . S
C35 O39 1.241 1_556 S
C36 O29 1.247 . S
C36 O30 1.261 . S
C37 O32 1.259 . S
C37 O34 1.235 . S
O38 Co28 2.021 . S
O38 C35 1.238 . S
O39 Co33 2.052 . S
O39 C35 1.241 1_554 S
O40 Co28 2.137 . S
O40 C31 1.247 . S
O41 Co28 2.244 1_554 S
O41 C31 1.272 1_554 S
O41 Co33 2.135 . S
Co42 O43 2.216 . S
Co42 O44 2.091 . S
Co42 O46 2.004 . S
Co42 O52 2.021 . S
Co42 O54 2.137 . S
Co42 O55 2.244 . S
O43 Co42 2.216 . S
O43 C50 1.247 . S
O44 Co42 2.091 . S
O44 C50 1.261 . S
C45 O54 1.247 . S
C45 O55 1.272 . S
O46 Co42 2.004 . S
O46 C51 1.259 . S
Co47 O48 2.061 . S
Co47 O53 2.052 . S
Co47 O55 2.135 . S
O48 Co47 2.061 . S
O48 C51 1.235 . S
C49 O52 1.238 . S
C49 O53 1.241 . S
C50 O43 1.247 . S
C50 O44 1.261 . S
C51 O46 1.259 . S
C51 O48 1.235 . S
O52 Co42 2.021 . S
O52 C49 1.238 . S
O53 Co47 2.052 . S
O53 C49 1.241 . S
O54 Co42 2.137 . S
O54 C45 1.247 . S
O55 Co42 2.244 . S
O55 C45 1.272 . S
O55 Co47 2.135 . S
Co56 O57 2.216 1_455 S
Co56 O58 2.091 . S
Co56 O60 2.004 . S
Co56 O66 2.021 . S
Co56 O68 2.137 . S
Co56 O69 2.244 . S
O57 Co56 2.216 1_655 S
O57 C64 1.247 . S
O58 Co56 2.091 . S
O58 C64 1.261 1_455 S
C59 O68 1.247 . S
C59 O69 1.272 . S
O60 Co56 2.004 . S
O60 C65 1.259 . S
Co61 O62 2.061 . S
Co61 O67 2.052 . S
Co61 O69 2.135 . S
O62 Co61 2.061 . S
O62 C65 1.235 . S
C63 O66 1.238 . S
C63 O67 1.241 . S
C64 O57 1.247 . S
C64 O58 1.261 1_655 S
C65 O60 1.259 . S
C65 O62 1.235 . S
O66 Co56 2.021 . S
O66 C63 1.238 . S
O67 Co61 2.052 . S
O67 C63 1.241 . S
O68 Co56 2.137 . S
O68 C59 1.247 . S
O69 Co56 2.244 . S
O69 C59 1.272 . S
O69 Co61 2.135 . S
Co70 O71 2.216 . S
Co70 O72 2.091 . S
Co70 O74 2.004 . S
Co70 O80 2.021 . S
Co70 O82 2.137 . S
Co70 O83 2.244 . S
O71 Co70 2.216 . S
O71 C78 1.247 . S
O72 Co70 2.091 . S
O72 C78 1.261 . S
C73 O82 1.247 . S
C73 O83 1.272 . S
O74 Co70 2.004 . S
O74 C79 1.259 . S
Co75 O76 2.061 . S
Co75 O81 2.052 . S
Co75 O83 2.135 . S
O76 Co75 2.061 . S
O76 C79 1.235 . S
C77 O80 1.238 . S
C77 O81 1.241 . S
C78 O71 1.247 . S
C78 O72 1.261 . S
C79 O74 1.259 . S
C79 O76 1.235 . S
O80 Co70 2.021 . S
O80 C77 1.238 . S
O81 Co75 2.052 . S
O81 C77 1.241 . S
O82 Co70 2.137 . S
O82 C73 1.247 . S
O83 Co70 2.244 . S
O83 C73 1.272 . S
O83 Co75 2.135 . S
Co84 O85 2.216 . S
Co84 O86 2.091 . S
Co84 O88 2.004 . S
Co84 O94 2.021 . S
Co84 O96 2.137 . S
Co84 O97 2.244 . S
O85 Co84 2.216 . S
O85 C92 1.247 . S
O86 Co84 2.091 . S
O86 C92 1.261 . S
C87 O96 1.247 . S
C87 O97 1.272 . S
O88 Co84 2.004 . S
O88 C93 1.259 . S
Co89 O90 2.061 . S
Co89 O95 2.052 . S
Co89 O97 2.135 . S
O90 Co89 2.061 . S
O90 C93 1.235 . S
C91 O94 1.238 . S
C91 O95 1.241 . S
C92 O85 1.247 . S
C92 O86 1.261 . S
C93 O88 1.259 . S
C93 O90 1.235 . S
O94 Co84 2.021 . S
O94 C91 1.238 . S
O95 Co89 2.052 . S
O95 C91 1.241 . S
O96 Co84 2.137 . S
O96 C87 1.247 . S
O97 Co84 2.244 . S
O97 C87 1.272 . S
O97 Co89 2.135 . S
Co98 O99 2.216 . S
Co98 O100 2.091 . S
Co98 O102 2.004 1_455 S
Co98 O108 2.021 1_455 S
Co98 O110 2.137 . S
Co98 O111 2.244 1_455 S
O99 Co98 2.216 . S
O99 C106 1.247 . S
O100 Co98 2.091 . S
O100 C106 1.261 . S
C101 O110 1.247 . S
C101 O111 1.272 1_455 S
O102 Co98 2.004 1_655 S
O102 C107 1.259 . S
Co103 O104 2.061 . S
Co103 O109 2.052 . S
Co103 O111 2.135 . S
O104 Co103 2.061 . S
O104 C107 1.235 . S
C105 O108 1.238 . S
C105 O109 1.241 . S
C106 O99 1.247 . S
C106 O100 1.261 . S
C107 O102 1.259 . S
C107 O104 1.235 . S
O108 Co98 2.021 1_655 S
O108 C105 1.238 . S
O109 Co103 2.052 . S
O109 C105 1.241 . S
O110 Co98 2.137 . S
O110 C101 1.247 . S
O111 Co98 2.244 1_655 S
O111 C101 1.272 1_655 S
O111 Co103 2.135 . S
Co112 O113 2.216 . S
Co112 O114 2.091 . S
Co112 O116 2.004 1_545 S
Co112 O122 2.021 . S
Co112 O124 2.137 . S
Co112 O125 2.244 . S
O113 Co112 2.216 . S
O113 C120 1.247 . S
O114 Co112 2.091 . S
O114 C120 1.261 . S
C115 O124 1.247 . S
C115 O125 1.272 . S
O116 Co112 2.004 1_565 S
O116 C121 1.259 . S
Co117 O118 2.061 . S
Co117 O123 2.052 1_565 S
Co117 O125 2.135 1_565 S
O118 Co117 2.061 . S
O118 C121 1.235 . S
C119 O122 1.238 . S
C119 O123 1.241 . S
C120 O113 1.247 . S
C120 O114 1.261 . S
C121 O116 1.259 . S
C121 O118 1.235 . S
O122 Co112 2.021 . S
O122 C119 1.238 . S
O123 Co117 2.052 1_545 S
O123 C119 1.241 . S
O124 Co112 2.137 . S
O124 C115 1.247 . S
O125 Co112 2.244 . S
O125 C115 1.272 . S
O125 Co117 2.135 1_545 S
Co126 O127 2.216 . S
Co126 O128 2.091 . S
Co126 O130 2.004 . S
Co126 O136 2.021 . S
Co126 O138 2.137 . S
Co126 O139 2.244 . S
O127 Co126 2.216 . S
O127 C134 1.247 . S
O128 Co126 2.091 . S
O128 C134 1.261 . S
C129 O138 1.247 . S
C129 O139 1.272 . S
O130 Co126 2.004 . S
O130 C135 1.259 . S
Co131 O132 2.061 . S
Co131 O137 2.052 . S
Co131 O139 2.135 . S
O132 Co131 2.061 . S
O132 C135 1.235 . S
C133 O136 1.238 . S
C133 O137 1.241 . S
C134 O127 1.247 . S
C134 O128 1.261 . S
C135 O130 1.259 . S
C135 O132 1.235 . S
O136 Co126 2.021 . S
O136 C133 1.238 . S
O137 Co131 2.052 . S
O137 C133 1.241 . S
O138 Co126 2.137 . S
O138 C129 1.247 . S
O139 Co126 2.244 . S
O139 C129 1.272 . S
O139 Co131 2.135 . S
Co140 O141 2.216 1_545 S
Co140 O142 2.091 1_545 S
Co140 O144 2.004 . S
Co140 O150 2.021 . S
Co140 O152 2.137 . S
Co140 O153 2.244 . S
O141 Co140 2.216 1_565 S
O141 C148 1.247 . S
O142 Co140 2.091 1_565 S
O142 C148 1.261 . S
C143 O152 1.247 . S
C143 O153 1.272 . S
O144 Co140 2.004 . S
O144 C149 1.259 . S
Co145 O146 2.061 . S
Co145 O151 2.052 . S
Co145 O153 2.135 . S
O146 Co145 2.061 . S
O146 C149 1.235 . S
C147 O150 1.238 . S
C147 O151 1.241 . S
C148 O141 1.247 . S
C148 O142 1.261 . S
C149 O144 1.259 . S
C149 O146 1.235 . S
O150 Co140 2.021 . S
O150 C147 1.238 . S
O151 Co145 2.052 . S
O151 C147 1.241 . S
O152 Co140 2.137 . S
O152 C143 1.247 . S
O153 Co140 2.244 . S
O153 C143 1.272 . S
O153 Co145 2.135 . S
Co154 O155 2.216 . S
Co154 O156 2.091 . S
Co154 O158 2.004 . S
Co154 O164 2.021 . S
Co154 O166 2.137 1_554 S
Co154 O167 2.244 1_554 S
O155 Co154 2.216 . S
O155 C162 1.247 . S
O156 Co154 2.091 . S
O156 C162 1.261 . S
C157 O166 1.247 . S
C157 O167 1.272 . S
O158 Co154 2.004 . S
O158 C163 1.259 . S
Co159 O160 2.061 . S
Co159 O165 2.052 . S
Co159 O167 2.135 1_554 S
O160 Co159 2.061 . S
O160 C163 1.235 . S
C161 O164 1.238 . S
C161 O165 1.241 . S
C162 O155 1.247 . S
C162 O156 1.261 . S
C163 O158 1.259 . S
C163 O160 1.235 . S
O164 Co154 2.021 . S
O164 C161 1.238 . S
O165 Co159 2.052 . S
O165 C161 1.241 . S
O166 Co154 2.137 1_556 S
O166 C157 1.247 . S
O167 Co154 2.244 1_556 S
O167 C157 1.272 . S
O167 Co159 2.135 1_556 S
Co168 O169 2.216 . S
Co168 O170 2.091 . S
Co168 O172 2.004 . S
Co168 O178 2.021 . S
Co168 O180 2.137 1_554 S
Co168 O181 2.244 . S
O169 Co168 2.216 . S
O169 C176 1.247 . S
O170 Co168 2.091 . S
O170 C176 1.261 . S
C171 O180 1.247 . S
C171 O181 1.272 1_556 S
O172 Co168 2.004 . S
O172 C177 1.259 . S
Co173 O174 2.061 . S
Co173 O179 2.052 . S
Co173 O181 2.135 . S
O174 Co173 2.061 . S
O174 C177 1.235 . S
C175 O178 1.238 . S
C175 O179 1.241 . S
C176 O169 1.247 . S
C176 O170 1.261 . S
C177 O172 1.259 . S
C177 O174 1.235 . S
O178 Co168 2.021 . S
O178 C175 1.238 . S
O179 Co173 2.052 . S
O179 C175 1.241 . S
O180 Co168 2.137 1_556 S
O180 C171 1.247 . S
O181 Co168 2.244 . S
O181 C171 1.272 1_554 S
O181 Co173 2.135 . S
Co182 O183 2.216 . S
Co182 O184 2.091 . S
Co182 O186 2.004 . S
Co182 O192 2.021 . S
Co182 O194 2.137 1_554 S
Co182 O195 2.244 . S
O183 Co182 2.216 . S
O183 C190 1.247 . S
O184 Co182 2.091 . S
O184 C190 1.261 . S
C185 O194 1.247 . S
C185 O195 1.272 1_556 S
O186 Co182 2.004 . S
O186 C191 1.259 . S
Co187 O188 2.061 . S
Co187 O193 2.052 . S
Co187 O195 2.135 . S
O188 Co187 2.061 . S
O188 C191 1.235 . S
C189 O192 1.238 . S
C189 O193 1.241 . S
C190 O183 1.247 . S
C190 O184 1.261 . S
C191 O186 1.259 . S
C191 O188 1.235 . S
O192 Co182 2.021 . S
O192 C189 1.238 . S
O193 Co187 2.052 . S
O193 C189 1.241 . S
O194 Co182 2.137 1_556 S
O194 C185 1.247 . S
O195 Co182 2.244 . S
O195 C185 1.272 1_554 S
O195 Co187 2.135 . S
Co196 O197 2.216 . S
Co196 O198 2.091 . S
Co196 O200 2.004 . S
Co196 O206 2.021 . S
Co196 O208 2.137 . S
Co196 O209 2.244 . S
O197 Co196 2.216 . S
O197 C204 1.247 . S
O198 Co196 2.091 . S
O198 C204 1.261 . S
C199 O208 1.247 . S
C199 O209 1.272 . S
O200 Co196 2.004 . S
O200 C205 1.259 . S
Co201 O202 2.061 . S
Co201 O207 2.052 . S
Co201 O209 2.135 . S
O202 Co201 2.061 . S
O202 C205 1.235 . S
C203 O206 1.238 . S
C203 O207 1.241 . S
C204 O197 1.247 . S
C204 O198 1.261 . S
C205 O200 1.259 . S
C205 O202 1.235 . S
O206 Co196 2.021 . S
O206 C203 1.238 . S
O207 Co201 2.052 . S
O207 C203 1.241 . S
O208 Co196 2.137 . S
O208 C199 1.247 . S
O209 Co196 2.244 . S
O209 C199 1.272 . S
O209 Co201 2.135 . S
Co210 O211 2.216 . S
Co210 O212 2.091 . S
Co210 O214 2.004 . S
Co210 O220 2.021 . S
Co210 O222 2.137 . S
Co210 O223 2.244 . S
O211 Co210 2.216 . S
O211 C218 1.247 . S
O212 Co210 2.091 . S
O212 C218 1.261 . S
C213 O222 1.247 . S
C213 O223 1.272 . S
O214 Co210 2.004 . S
O214 C219 1.259 . S
Co215 O216 2.061 . S
Co215 O221 2.052 . S
Co215 O223 2.135 . S
O216 Co215 2.061 . S
O216 C219 1.235 . S
C217 O220 1.238 . S
C217 O221 1.241 . S
C218 O211 1.247 . S
C218 O212 1.261 . S
C219 O214 1.259 . S
C219 O216 1.235 . S
O220 Co210 2.021 . S
O220 C217 1.238 . S
O221 Co215 2.052 . S
O221 C217 1.241 . S
O222 Co210 2.137 . S
O222 C213 1.247 . S
O223 Co210 2.244 . S
O223 C213 1.272 . S
O223 Co215 2.135 . S
Co224 O225 2.216 . S
Co224 O226 2.091 . S
Co224 O228 2.004 1_545 S
Co224 O234 2.021 . S
Co224 O236 2.137 . S
Co224 O237 2.244 1_545 S
O225 Co224 2.216 . S
O225 C232 1.247 . S
O226 Co224 2.091 . S
O226 C232 1.261 . S
C227 O236 1.247 . S
C227 O237 1.272 1_545 S
O228 Co224 2.004 1_565 S
O228 C233 1.259 . S
Co229 O230 2.061 . S
Co229 O235 2.052 . S
Co229 O237 2.135 . S
O230 Co229 2.061 . S
O230 C233 1.235 . S
C231 O234 1.238 1_565 S
C231 O235 1.241 . S
C232 O225 1.247 . S
C232 O226 1.261 . S
C233 O228 1.259 . S
C233 O230 1.235 . S
O234 Co224 2.021 . S
O234 C231 1.238 1_545 S
O235 Co229 2.052 . S
O235 C231 1.241 . S
O236 Co224 2.137 . S
O236 C227 1.247 . S
O237 Co224 2.244 1_565 S
O237 C227 1.272 1_565 S
O237 Co229 2.135 . S
Co238 O239 2.216 . S
Co238 O240 2.091 . S
Co238 O242 2.004 . S
Co238 O248 2.021 . S
Co238 O250 2.137 . S
Co238 O251 2.244 . S
O239 Co238 2.216 . S
O239 C246 1.247 . S
O240 Co238 2.091 . S
O240 C246 1.261 . S
C241 O250 1.247 . S
C241 O251 1.272 . S
O242 Co238 2.004 . S
O242 C247 1.259 . S
Co243 O244 2.061 . S
Co243 O249 2.052 . S
Co243 O251 2.135 . S
O244 Co243 2.061 . S
O244 C247 1.235 . S
C245 O248 1.238 . S
C245 O249 1.241 . S
C246 O239 1.247 . S
C246 O240 1.261 . S
C247 O242 1.259 . S
C247 O244 1.235 . S
O248 Co238 2.021 . S
O248 C245 1.238 . S
O249 Co243 2.052 . S
O249 C245 1.241 . S
O250 Co238 2.137 . S
O250 C241 1.247 . S
O251 Co238 2.244 . S
O251 C241 1.272 . S
O251 Co243 2.135 . S
Co252 O253 2.216 . S
Co252 O254 2.091 . S
Co252 O256 2.004 . S
Co252 O262 2.021 . S
Co252 O264 2.137 . S
Co252 O265 2.244 . S
O253 Co252 2.216 . S
O253 C260 1.247 . S
O254 Co252 2.091 . S
O254 C260 1.261 . S
C255 O264 1.247 . S
C255 O265 1.272 . S
O256 Co252 2.004 . S
O256 C261 1.259 . S
Co257 O258 2.061 . S
Co257 O263 2.052 . S
Co257 O265 2.135 . S
O258 Co257 2.061 . S
O258 C261 1.235 . S
C259 O262 1.238 . S
C259 O263 1.241 . S
C260 O253 1.247 . S
C260 O254 1.261 . S
C261 O256 1.259 . S
C261 O258 1.235 . S
O262 Co252 2.021 . S
O262 C259 1.238 . S
O263 Co257 2.052 . S
O263 C259 1.241 . S
O264 Co252 2.137 . S
O264 C255 1.247 . S
O265 Co252 2.244 . S
O265 C255 1.272 . S
O265 Co257 2.135 . S
Co266 O267 2.216 . S
Co266 O268 2.091 . S
Co266 O270 2.004 1_565 S
Co266 O276 2.021 . S
Co266 O278 2.137 . S
Co266 O279 2.244 1_565 S
O267 Co266 2.216 . S
O267 C274 1.247 . S
O268 Co266 2.091 . S
O268 C274 1.261 . S
C269 O278 1.247 1_545 S
C269 O279 1.272 . S
O270 Co266 2.004 1_545 S
O270 C275 1.259 . S
Co271 O272 2.061 . S
Co271 O277 2.052 . S
Co271 O279 2.135 . S
O272 Co271 2.061 . S
O272 C275 1.235 . S
C273 O276 1.245 . S
C273 O277 1.232 1_565 S
C274 O267 1.247 . S
C274 O268 1.261 . S
C275 O270 1.259 . S
C275 O272 1.235 . S
O276 Co266 2.021 . S
O276 C273 1.245 . S
O277 Co271 2.052 . S
O277 C273 1.232 1_545 S
O278 Co266 2.137 . S
O278 C269 1.247 1_565 S
O279 Co266 2.244 1_545 S
O279 C269 1.272 . S
O279 Co271 2.135 . S
Co280 O281 2.216 1_556 S
Co280 O282 2.091 . S
Co280 O284 2.004 . S
Co280 O290 2.021 1_556 S
Co280 O292 2.137 . S
Co280 O293 2.244 . S
O281 Co280 2.216 1_554 S
O281 C288 1.247 . S
O282 Co280 2.091 . S
O282 C288 1.261 1_556 S
C283 O292 1.247 . S
C283 O293 1.272 . S
O284 Co280 2.004 . S
O284 C289 1.259 . S
Co285 O286 2.061 1_554 S
Co285 O291 2.052 . S
Co285 O293 2.135 1_554 S
O286 Co285 2.061 1_556 S
O286 C289 1.235 . S
C287 O290 1.238 . S
C287 O291 1.241 . S
C288 O281 1.247 . S
C288 O282 1.261 1_554 S
C289 O284 1.259 . S
C289 O286 1.235 . S
O290 Co280 2.021 1_554 S
O290 C287 1.238 . S
O291 Co285 2.052 . S
O291 C287 1.241 . S
O292 Co280 2.137 . S
O292 C283 1.247 . S
O293 Co280 2.244 . S
O293 C283 1.272 . S
O293 Co285 2.135 1_556 S
Co294 O295 2.216 . S
Co294 O296 2.091 . S
Co294 O298 2.004 . S
Co294 O304 2.021 . S
Co294 O306 2.137 . S
Co294 O307 2.244 . S
O295 Co294 2.216 . S
O295 C302 1.247 . S
O296 Co294 2.091 . S
O296 C302 1.261 . S
C297 O306 1.247 . S
C297 O307 1.272 . S
O298 Co294 2.004 . S
O298 C303 1.259 . S
Co299 O300 2.061 1_455 S
Co299 O305 2.052 . S
Co299 O307 2.135 1_455 S
O300 Co299 2.061 1_655 S
O300 C303 1.235 . S
C301 O304 1.238 . S
C301 O305 1.241 1_655 S
C302 O295 1.247 . S
C302 O296 1.261 . S
C303 O298 1.259 . S
C303 O300 1.235 . S
O304 Co294 2.021 . S
O304 C301 1.238 . S
O305 Co299 2.052 . S
O305 C301 1.241 1_455 S
O306 Co294 2.137 . S
O306 C297 1.247 . S
O307 Co294 2.244 . S
O307 C297 1.272 . S
O307 Co299 2.135 1_655 S
Co308 O309 2.216 . S
Co308 O310 2.091 . S
Co308 O312 2.004 . S
Co308 O318 2.021 . S
Co308 O320 2.137 . S
Co308 O321 2.244 . S
O309 Co308 2.216 . S
O309 C316 1.247 . S
O310 Co308 2.091 . S
O310 C316 1.261 . S
C311 O320 1.247 . S
C311 O321 1.272 . S
O312 Co308 2.004 . S
O312 C317 1.259 . S
Co313 O314 2.061 . S
Co313 O319 2.052 . S
Co313 O321 2.135 . S
O314 Co313 2.061 . S
O314 C317 1.235 . S
C315 O318 1.238 . S
C315 O319 1.241 . S
C316 O309 1.247 . S
C316 O310 1.261 . S
C317 O312 1.259 . S
C317 O314 1.235 . S
O318 Co308 2.021 . S
O318 C315 1.238 . S
O319 Co313 2.052 . S
O319 C315 1.241 . S
O320 Co308 2.137 . S
O320 C311 1.247 . S
O321 Co308 2.244 . S
O321 C311 1.272 . S
O321 Co313 2.135 . S
Co322 O323 2.216 . S
Co322 O324 2.091 . S
Co322 O326 2.004 . S
Co322 O332 2.021 . S
Co322 O334 2.137 . S
Co322 O335 2.244 . S
O323 Co322 2.216 . S
O323 C330 1.247 . S
O324 Co322 2.091 . S
O324 C330 1.261 . S
C325 O334 1.247 . S
C325 O335 1.272 . S
O326 Co322 2.004 . S
O326 C331 1.259 . S
Co327 O328 2.061 . S
Co327 O333 2.052 . S
Co327 O335 2.135 . S
O328 Co327 2.061 . S
O328 C331 1.235 . S
C329 O332 1.238 . S
C329 O333 1.241 . S
C330 O323 1.247 . S
C330 O324 1.261 . S
C331 O326 1.259 . S
C331 O328 1.235 . S
O332 Co322 2.021 . S
O332 C329 1.238 . S
O333 Co327 2.052 . S
O333 C329 1.241 . S
O334 Co322 2.137 . S
O334 C325 1.247 . S
O335 Co322 2.244 . S
O335 C325 1.272 . S
O335 Co327 2.135 . S
Zn336 O342 1.969 . S
Zn336 O343 1.965 1_565 S
Zn336 O347 2.024 . S
Zn336 O352 1.964 1_565 S
Zn337 O344 1.969 1_654 S
Zn337 O350 1.969 1_554 S
Zn337 O351 1.965 . S
Zn337 O353 2.024 1_655 S
C338 O339 1.229 . S
C338 O347 1.058 . S
O339 C338 1.229 . S
C340 O341 1.229 1_454 S
C340 O353 1.058 . S
O341 C340 1.229 1_656 S
O342 Zn336 1.969 . S
O342 C345 1.267 . S
O343 Zn336 1.965 1_545 S
O343 C354 1.260 1_554 S
O344 Zn337 1.969 1_456 S
O344 C354 1.258 . S
C345 O342 1.267 . S
C345 O346 1.228 . S
O346 C345 1.228 . S
O347 Zn336 2.024 . S
O347 C338 1.058 . S
C348 O349 1.228 . S
C348 O350 1.267 1_554 S
O349 C348 1.228 . S
O350 Zn337 1.969 1_556 S
O350 C348 1.267 1_556 S
O351 Zn337 1.965 . S
O351 C355 1.260 1_655 S
O352 Zn336 1.964 1_545 S
O352 C355 1.268 . S
O353 Zn337 2.024 1_455 S
O353 C340 1.058 . S
C354 O343 1.260 1_556 S
C354 O344 1.258 . S
C355 O351 1.260 1_455 S
C355 O352 1.268 . S
Zn356 O362 1.969 . S
Zn356 O363 1.965 . S
Zn356 O367 2.024 . S
Zn356 O372 1.969 . S
Zn357 O364 1.969 . S
Zn357 O370 1.969 . S
Zn357 O371 1.965 . S
Zn357 O373 2.024 . S
C358 O359 1.229 . S
C358 O367 1.058 . S
O359 C358 1.229 . S
C360 O361 1.229 . S
C360 O373 1.058 . S
O361 C360 1.229 . S
O362 Zn356 1.969 . S
O362 C365 1.267 . S
O363 Zn356 1.965 . S
O363 C374 1.260 . S
O364 Zn357 1.969 . S
O364 C374 1.258 . S
C365 O362 1.267 . S
C365 O366 1.228 . S
O366 C365 1.228 . S
O367 Zn356 2.024 . S
O367 C358 1.058 . S
C368 O369 1.228 . S
C368 O370 1.267 . S
O369 C368 1.228 . S
O370 Zn357 1.969 . S
O370 C368 1.267 . S
O371 Zn357 1.965 . S
O371 C375 1.260 . S
O372 Zn356 1.969 . S
O372 C375 1.258 . S
O373 Zn357 2.024 . S
O373 C360 1.058 . S
C374 O363 1.260 . S
C374 O364 1.258 . S
C375 O371 1.260 . S
C375 O372 1.258 . S
Zn376 O382 1.969 . S
Zn376 O383 1.965 . S
Zn376 O387 2.024 . S
Zn376 O392 1.969 . S
Zn377 O384 1.969 . S
Zn377 O390 1.969 . S
Zn377 O391 1.965 1_565 S
Zn377 O393 2.024 . S
C378 O379 1.229 . S
C378 O387 1.058 . S
O379 C378 1.229 . S
C380 O381 1.229 . S
C380 O393 1.058 . S
O381 C380 1.229 . S
O382 Zn376 1.969 . S
O382 C385 1.267 . S
O383 Zn376 1.965 . S
O383 C394 1.260 . S
O384 Zn377 1.969 . S
O384 C394 1.258 1_565 S
C385 O382 1.267 . S
C385 O386 1.228 . S
O386 C385 1.228 . S
O387 Zn376 2.024 . S
O387 C378 1.058 . S
C388 O389 1.228 . S
C388 O390 1.267 . S
O389 C388 1.228 . S
O390 Zn377 1.969 . S
O390 C388 1.267 . S
O391 Zn377 1.965 1_545 S
O391 C395 1.260 . S
O392 Zn376 1.969 . S
O392 C395 1.258 . S
O393 Zn377 2.024 . S
O393 C380 1.058 . S
C394 O383 1.260 . S
C394 O384 1.258 1_545 S
C395 O391 1.260 . S
C395 O392 1.258 . S
Zn396 O402 1.969 . S
Zn396 O403 1.965 . S
Zn396 O407 2.024 . S
Zn396 O412 1.969 . S
Zn397 O404 1.969 . S
Zn397 O410 1.969 . S
Zn397 O411 1.965 . S
Zn397 O413 2.024 . S
C398 O399 1.229 . S
C398 O407 1.058 . S
O399 C398 1.229 . S
C400 O401 1.229 . S
C400 O413 1.058 . S
O401 C400 1.229 . S
O402 Zn396 1.969 . S
O402 C405 1.267 . S
O403 Zn396 1.965 . S
O403 C414 1.260 . S
O404 Zn397 1.969 . S
O404 C414 1.258 . S
C405 O402 1.267 . S
C405 O406 1.228 . S
O406 C405 1.228 . S
O407 Zn396 2.024 . S
O407 C398 1.058 . S
C408 O409 1.228 . S
C408 O410 1.267 . S
O409 C408 1.228 . S
O410 Zn397 1.969 . S
O410 C408 1.267 . S
O411 Zn397 1.965 . S
O411 C415 1.260 . S
O412 Zn396 1.969 . S
O412 C415 1.258 . S
O413 Zn397 2.024 . S
O413 C400 1.058 . S
C414 O403 1.260 . S
C414 O404 1.258 . S
C415 O411 1.260 . S
C415 O412 1.258 . S
Zn416 O422 1.969 . S
Zn416 O423 1.965 1_455 S
Zn416 O427 2.024 1_565 S
Zn416 O432 1.969 1_565 S
Zn417 O424 1.969 1_455 S
Zn417 O430 1.969 1_455 S
Zn417 O431 1.965 . S
Zn417 O433 2.024 . S
C418 O419 1.229 1_545 S
C418 O427 1.058 . S
O419 C418 1.229 1_565 S
C420 O421 1.229 . S
C420 O433 1.058 1_655 S
O421 C420 1.229 . S
O422 Zn416 1.969 . S
O422 C425 1.267 . S
O423 Zn416 1.965 1_655 S
O423 C434 1.260 . S
O424 Zn417 1.969 1_655 S
O424 C434 1.258 1_545 S
C425 O422 1.267 . S
C425 O426 1.228 . S
O426 C425 1.228 . S
O427 Zn416 2.024 1_545 S
O427 C418 1.058 . S
C428 O429 1.228 . S
C428 O430 1.267 1_455 S
O429 C428 1.228 . S
O430 Zn417 1.969 1_655 S
O430 C428 1.267 1_655 S
O431 Zn417 1.965 . S
O431 C435 1.260 . S
O432 Zn416 1.969 1_545 S
O432 C435 1.258 . S
O433 Zn417 2.024 . S
O433 C420 1.058 1_455 S
C434 O423 1.260 . S
C434 O424 1.258 1_565 S
C435 O431 1.260 . S
C435 O432 1.258 . S
Zn436 O442 1.969 . S
Zn436 O443 1.965 . S
Zn436 O447 2.024 . S
Zn436 O452 1.969 . S
Zn437 O444 1.969 . S
Zn437 O450 1.969 . S
Zn437 O451 1.965 . S
Zn437 O453 2.024 . S
C438 O439 1.229 . S
C438 O447 1.058 . S
O439 C438 1.229 . S
C440 O441 1.229 . S
C440 O453 1.058 . S
O441 C440 1.229 . S
O442 Zn436 1.969 . S
O442 C445 1.267 . S
O443 Zn436 1.965 . S
O443 C454 1.260 . S
O444 Zn437 1.969 . S
O444 C454 1.258 . S
C445 O442 1.267 . S
C445 O446 1.228 . S
O446 C445 1.228 . S
O447 Zn436 2.024 . S
O447 C438 1.058 . S
C448 O449 1.228 . S
C448 O450 1.267 . S
O449 C448 1.228 . S
O450 Zn437 1.969 . S
O450 C448 1.267 . S
O451 Zn437 1.965 . S
O451 C455 1.260 . S
O452 Zn436 1.969 . S
O452 C455 1.258 . S
O453 Zn437 2.024 . S
O453 C440 1.058 . S
C454 O443 1.260 . S
C454 O444 1.258 . S
C455 O451 1.260 . S
C455 O452 1.258 . S
Zn456 O462 1.969 . S
Zn456 O463 1.965 1_545 S
Zn456 O467 2.024 1_556 S
Zn456 O472 1.969 1_556 S
Zn457 O464 1.969 . S
Zn457 O470 1.969 . S
Zn457 O471 1.965 1_565 S
Zn457 O473 2.024 . S
C458 O459 1.229 . S
C458 O467 1.058 . S
O459 C458 1.229 . S
C460 O461 1.229 . S
C460 O473 1.058 . S
O461 C460 1.229 . S
O462 Zn456 1.969 . S
O462 C465 1.267 . S
O463 Zn456 1.965 1_565 S
O463 C474 1.260 1_556 S
O464 Zn457 1.969 . S
O464 C474 1.258 . S
C465 O462 1.267 . S
C465 O466 1.228 . S
O466 C465 1.228 . S
O467 Zn456 2.024 1_554 S
O467 C458 1.058 . S
C468 O469 1.228 . S
C468 O470 1.267 1_545 S
O469 C468 1.228 . S
O470 Zn457 1.969 . S
O470 C468 1.267 1_565 S
O471 Zn457 1.965 1_545 S
O471 C475 1.260 . S
O472 Zn456 1.969 1_554 S
O472 C475 1.258 . S
O473 Zn457 2.024 . S
O473 C460 1.058 . S
C474 O463 1.260 1_554 S
C474 O464 1.258 . S
C475 O471 1.260 . S
C475 O472 1.258 . S
Zn476 O482 1.969 . S
Zn476 O483 1.965 . S
Zn476 O487 2.024 . S
Zn476 O492 1.969 . S
Zn477 O484 1.969 . S
Zn477 O490 1.969 . S
Zn477 O491 1.965 . S
Zn477 O493 2.024 . S
C478 O479 1.229 . S
C478 O487 1.058 . S
O479 C478 1.229 . S
C480 O481 1.229 . S
C480 O493 1.058 . S
O481 C480 1.229 . S
O482 Zn476 1.969 . S
O482 C485 1.267 . S
O483 Zn476 1.965 . S
O483 C494 1.260 . S
O484 Zn477 1.969 . S
O484 C494 1.258 . S
C485 O482 1.267 . S
C485 O486 1.228 . S
O486 C485 1.228 . S
O487 Zn476 2.024 . S
O487 C478 1.058 . S
C488 O489 1.228 . S
C488 O490 1.267 . S
O489 C488 1.228 . S
O490 Zn477 1.969 . S
O490 C488 1.267 . S
O491 Zn477 1.965 . S
O491 C495 1.260 . S
O492 Zn476 1.969 . S
O492 C495 1.258 . S
O493 Zn477 2.024 . S
O493 C480 1.058 . S
C494 O483 1.260 . S
C494 O484 1.258 . S
C495 O491 1.260 . S
C495 O492 1.258 . S
Zn496 O502 1.969 . S
Zn496 O503 1.965 . S
Zn496 O507 2.024 . S
Zn496 O512 1.969 . S
Zn497 O504 1.969 1_556 S
Zn497 O510 1.969 1_556 S
Zn497 O511 1.965 1_556 S
Zn497 O513 2.024 . S
C498 O499 1.229 . S
C498 O507 1.058 . S
O499 C498 1.229 . S
C500 O501 1.229 . S
C500 O513 1.058 . S
O501 C500 1.229 . S
O502 Zn496 1.969 . S
O502 C505 1.267 . S
O503 Zn496 1.965 . S
O503 C514 1.260 . S
O504 Zn497 1.969 1_554 S
O504 C514 1.258 . S
C505 O502 1.267 . S
C505 O506 1.228 . S
O506 C505 1.228 . S
O507 Zn496 2.024 . S
O507 C498 1.058 . S
C508 O509 1.228 . S
C508 O510 1.267 1_556 S
O509 C508 1.228 . S
O510 Zn497 1.969 1_554 S
O510 C508 1.267 1_554 S
O511 Zn497 1.965 1_554 S
O511 C515 1.260 . S
O512 Zn496 1.969 . S
O512 C515 1.258 . S
O513 Zn497 2.024 . S
O513 C500 1.058 . S
C514 O503 1.260 . S
C514 O504 1.258 . S
C515 O511 1.260 . S
C515 O512 1.258 . S
Zn516 O522 1.969 . S
Zn516 O523 1.965 . S
Zn516 O527 2.024 . S
Zn516 O532 1.969 . S
Zn517 O524 1.969 . S
Zn517 O530 1.969 . S
Zn517 O531 1.965 . S
Zn517 O533 2.024 . S
C518 O519 1.229 . S
C518 O527 1.058 . S
O519 C518 1.229 . S
C520 O521 1.229 . S
C520 O533 1.058 . S
O521 C520 1.229 . S
O522 Zn516 1.969 . S
O522 C525 1.267 . S
O523 Zn516 1.965 . S
O523 C534 1.260 . S
O524 Zn517 1.969 . S
O524 C534 1.258 . S
C525 O522 1.267 . S
C525 O526 1.228 . S
O526 C525 1.228 . S
O527 Zn516 2.024 . S
O527 C518 1.058 . S
C528 O529 1.228 . S
C528 O530 1.267 . S
O529 C528 1.228 . S
O530 Zn517 1.969 . S
O530 C528 1.267 . S
O531 Zn517 1.965 . S
O531 C535 1.260 . S
O532 Zn516 1.969 . S
O532 C535 1.258 . S
O533 Zn517 2.024 . S
O533 C520 1.058 . S
C534 O523 1.260 . S
C534 O524 1.258 . S
C535 O531 1.260 . S
C535 O532 1.258 . S
Zn536 O542 1.969 . S
Zn536 O543 1.965 . S
Zn536 O547 2.024 . S
Zn536 O552 1.969 . S
Zn537 O544 1.969 1_655 S
Zn537 O550 1.969 . S
Zn537 O551 1.965 1_655 S
Zn537 O553 2.024 . S
C538 O539 1.229 . S
C538 O547 1.058 . S
O539 C538 1.229 . S
C540 O541 1.229 . S
C540 O553 1.058 . S
O541 C540 1.229 . S
O542 Zn536 1.969 . S
O542 C545 1.267 . S
O543 Zn536 1.965 . S
O543 C554 1.260 . S
O544 Zn537 1.969 1_455 S
O544 C554 1.258 . S
C545 O542 1.267 . S
C545 O546 1.228 . S
O546 C545 1.228 . S
O547 Zn536 2.024 . S
O547 C538 1.058 . S
C548 O549 1.228 . S
C548 O550 1.267 . S
O549 C548 1.228 . S
O550 Zn537 1.969 . S
O550 C548 1.267 . S
O551 Zn537 1.965 1_455 S
O551 C555 1.260 . S
O552 Zn536 1.969 . S
O552 C555 1.258 . S
O553 Zn537 2.024 . S
O553 C540 1.058 . S
C554 O543 1.260 . S
C554 O544 1.258 . S
C555 O551 1.260 . S
C555 O552 1.258 . S
Zn556 O562 1.969 . S
Zn556 O563 1.965 . S
Zn556 O567 2.024 . S
Zn556 O572 1.969 . S
Zn557 O564 1.969 . S
Zn557 O570 1.969 . S
Zn557 O571 1.965 . S
Zn557 O573 2.024 . S
C558 O559 1.229 . S
C558 O567 1.058 . S
O559 C558 1.229 . S
C560 O561 1.229 . S
C560 O573 1.058 . S
O561 C560 1.229 . S
O562 Zn556 1.969 . S
O562 C565 1.267 . S
O563 Zn556 1.965 . S
O563 C574 1.260 . S
O564 Zn557 1.969 . S
O564 C574 1.258 . S
C565 O562 1.267 . S
C565 O566 1.228 . S
O566 C565 1.228 . S
O567 Zn556 2.024 . S
O567 C558 1.058 . S
C568 O569 1.228 . S
C568 O570 1.267 . S
O569 C568 1.228 . S
O570 Zn557 1.969 . S
O570 C568 1.267 . S
O571 Zn557 1.965 . S
O571 C575 1.260 . S
O572 Zn556 1.969 . S
O572 C575 1.258 . S
O573 Zn557 2.024 . S
O573 C560 1.058 . S
C574 O563 1.260 . S
C574 O564 1.258 . S
C575 O571 1.260 . S
C575 O572 1.258 . S
Zn576 O582 1.969 . S
Zn576 O583 1.965 . S
Zn576 O587 2.024 . S
Zn576 O592 1.969 . S
Zn577 O584 1.969 . S
Zn577 O590 1.969 . S
Zn577 O591 1.965 . S
Zn577 O593 2.024 . S
C578 O579 1.229 . S
C578 O587 1.058 . S
O579 C578 1.229 . S
C580 O581 1.229 . S
C580 O593 1.058 . S
O581 C580 1.229 . S
O582 Zn576 1.969 . S
O582 C585 1.267 . S
O583 Zn576 1.965 . S
O583 C594 1.260 . S
O584 Zn577 1.969 . S
O584 C594 1.258 . S
C585 O582 1.267 . S
C585 O586 1.228 . S
O586 C585 1.228 . S
O587 Zn576 2.024 . S
O587 C578 1.058 . S
C588 O589 1.228 . S
C588 O590 1.267 . S
O589 C588 1.228 . S
O590 Zn577 1.969 . S
O590 C588 1.267 . S
O591 Zn577 1.965 . S
O591 C595 1.260 . S
O592 Zn576 1.969 . S
O592 C595 1.258 . S
O593 Zn577 2.024 . S
O593 C580 1.058 . S
C594 O583 1.260 . S
C594 O584 1.258 . S
C595 O591 1.260 . S
C595 O592 1.258 . S
Zn596 O602 1.969 . S
Zn596 O603 1.965 . S
Zn596 O607 2.024 . S
Zn596 O612 1.969 . S
Zn597 O604 1.969 . S
Zn597 O610 1.969 . S
Zn597 O611 1.965 . S
Zn597 O613 2.024 . S
C598 O599 1.229 . S
C598 O607 1.058 . S
O599 C598 1.229 . S
C600 O601 1.229 . S
C600 O613 1.058 . S
O601 C600 1.229 . S
O602 Zn596 1.969 . S
O602 C605 1.267 . S
O603 Zn596 1.965 . S
O603 C614 1.260 . S
O604 Zn597 1.969 . S
O604 C614 1.258 . S
C605 O602 1.267 . S
C605 O606 1.228 . S
O606 C605 1.228 . S
O607 Zn596 2.024 . S
O607 C598 1.058 . S
C608 O609 1.228 . S
C608 O610 1.267 . S
O609 C608 1.228 . S
O610 Zn597 1.969 . S
O610 C608 1.267 . S
O611 Zn597 1.965 . S
O611 C615 1.260 . S
O612 Zn596 1.969 . S
O612 C615 1.258 . S
O613 Zn597 2.024 . S
O613 C600 1.058 . S
C614 O603 1.260 . S
C614 O604 1.258 . S
C615 O611 1.260 . S
C615 O612 1.258 . S
Zn616 O622 1.969 . S
Zn616 O623 1.965 . S
Zn616 O627 2.024 . S
Zn616 O632 1.969 . S
Zn617 O624 1.969 . S
Zn617 O630 1.969 . S
Zn617 O631 1.965 . S
Zn617 O633 2.024 . S
C618 O619 1.229 . S
C618 O627 1.058 . S
O619 C618 1.229 . S
C620 O621 1.229 . S
C620 O633 1.058 . S
O621 C620 1.229 . S
O622 Zn616 1.969 . S
O622 C625 1.267 . S
O623 Zn616 1.965 . S
O623 C634 1.260 . S
O624 Zn617 1.969 . S
O624 C634 1.258 . S
C625 O622 1.267 . S
C625 O626 1.228 . S
O626 C625 1.228 . S
O627 Zn616 2.024 . S
O627 C618 1.058 . S
C628 O629 1.228 . S
C628 O630 1.267 . S
O629 C628 1.228 . S
O630 Zn617 1.969 . S
O630 C628 1.267 . S
O631 Zn617 1.965 . S
O631 C635 1.260 . S
O632 Zn616 1.969 . S
O632 C635 1.258 . S
O633 Zn617 2.024 . S
O633 C620 1.058 . S
C634 O623 1.260 . S
C634 O624 1.258 . S
C635 O631 1.260 . S
C635 O632 1.258 . S
Zn636 O642 1.969 . S
Zn636 O643 1.965 . S
Zn636 O647 2.024 1_655 S
Zn636 O652 1.969 1_655 S
Zn637 O644 1.969 1_554 S
Zn637 O650 1.969 . S
Zn637 O651 1.965 . S
Zn637 O653 2.024 . S
C638 O639 1.229 . S
C638 O647 1.058 . S
O639 C638 1.229 . S
C640 O641 1.229 . S
C640 O653 1.058 1_556 S
O641 C640 1.229 . S
O642 Zn636 1.969 . S
O642 C645 1.267 . S
O643 Zn636 1.965 . S
O643 C654 1.260 1_654 S
O644 Zn637 1.969 1_556 S
O644 C654 1.258 . S
C645 O642 1.267 . S
C645 O646 1.228 . S
O646 C645 1.228 . S
O647 Zn636 2.024 1_455 S
O647 C638 1.058 . S
C648 O649 1.228 . S
C648 O650 1.267 . S
O649 C648 1.228 . S
O650 Zn637 1.969 . S
O650 C648 1.267 . S
O651 Zn637 1.965 . S
O651 C655 1.260 . S
O652 Zn636 1.969 1_455 S
O652 C655 1.258 . S
O653 Zn637 2.024 . S
O653 C640 1.058 1_554 S
C654 O643 1.260 1_456 S
C654 O644 1.258 . S
C655 O651 1.260 . S
C655 O652 1.258 . S
C105 C340 1.901 1_656 S
C65 C375 1.882 . S
C73 C380 1.152 . S
C405 C92 1.454 . S
C17 C425 1.490 . S
C440 C37 1.261 . S
C475 C49 1.710 . S
C8 C480 2.010 . S
C355 C231 2.267 1_445 S
C241 C365 1.142 . S
C395 C273 1.380 1_545 S
C400 C171 1.159 . S
C227 C420 1.154 . S
C455 C245 1.400 . S
C465 C269 1.145 . S
C495 C175 2.250 . S
C345 C162 2.355 . S
C289 C515 2.360 1_556 S
C525 C330 1.967 . S
C540 C317 1.277 . S
C120 C485 2.386 . S
C134 C385 1.982 . S
C331 C575 2.331 . S
C580 C303 1.355 . S
C338 C59 1.904 . S
C594 C107 1.867 . S
C91 C378 1.138 . S
C78 C568 1.468 . S
C428 C7 1.550 . S
C51 C518 1.204 . S
C474 C31 1.901 1_554 S
C598 C22 1.872 . S
C354 C143 2.342 . S
C588 C315 1.076 . S
C115 C394 1.620 . S
C287 C558 1.206 . S
C147 C418 1.211 . S
C534 C311 1.631 . S
C119 C468 1.078 . S
C283 C614 2.316 . S
C190 C348 2.218 . S
C177 C514 2.334 . S
C260 C448 1.919 . S
C247 C538 1.207 . S
C608 C274 2.225 . S
C218 C388 1.935 . S
C414 C261 2.299 . S
C358 C205 1.280 . S
C77 C620 1.901 . S
C595 C93 1.882 . S
C101 C640 1.152 . S
C64 C565 1.454 . S
C45 C505 1.490 . S
C520 C9 1.261 . S
C555 C21 1.710 . S
C600 C36 2.010 . S
C635 C259 2.267 . S
C185 C585 1.142 . S
C655 C203 1.389 . S
C560 C213 1.159 . S
C500 C255 1.154 . S
C189 C535 1.400 . S
C545 C199 1.145 . S
C217 C615 2.251 . S
C625 C316 2.355 . S
C135 C435 2.361 . S
C445 C148 1.967 . S
C460 C163 1.277 . S
C605 C302 2.386 . S
C288 C645 1.981 . S
C415 C149 2.331 . S
C360 C121 1.355 . S
C87 C618 1.904 . S
C374 C79 1.867 . S
C63 C638 1.138 . S
C106 C408 1.468 . S
C35 C508 1.550 . S
C438 C23 1.204 . S
C3 C554 1.901 . S
C50 C478 1.872 . S
C634 C325 2.342 . S
C161 C368 1.076 . S
C654 C297 1.620 1_455 S
C133 C398 1.207 . S
C329 C498 1.211 . S
C454 C157 1.631 . S
C301 C548 1.078 . S
C494 C129 2.315 . S
C628 C246 2.218 . S
C434 C219 2.334 . S
C232 C528 1.919 . S
C458 C191 1.207 . S
C204 C488 2.225 . S
C176 C648 1.935 . S
C574 C233 2.299 . S
C578 C275 1.280 . S
