# Generated by pormake.
# Topology pth, (4,4)-cn, num edge types: 1
# Building blocks:
#     Node 0, Type 0, BuildingBlock: KUFVIS_clean_sbu_0, # of connection points: 4
#     Node 1, Type 0, BuildingBlock: KUFVIS_clean_sbu_0, # of connection points: 4
#     Node 2, Type 0, BuildingBlock: KUFVIS_clean_sbu_0, # of connection points: 4
#     Node 3, Type 1, BuildingBlock: KOZSID_clean_sbu_0, # of connection points: 4
#     Node 4, Type 1, BuildingBlock: KOZSID_clean_sbu_0, # of connection points: 4
#     Node 5, Type 1, BuildingBlock: KOZSID_clean_sbu_0, # of connection points: 4
#     Edge 6, Type (0, 1), BuildingBlock: AJUNOK_clean_linker_0, # of connection points: 2
#     Edge 7, Type (0, 1), BuildingBlock: AJUNOK_clean_linker_0, # of connection points: 2
#     Edge 8, Type (0, 1), BuildingBlock: AJUNOK_clean_linker_0, # of connection points: 2
#     Edge 9, Type (0, 1), BuildingBlock: AJUNOK_clean_linker_0, # of connection points: 2
#     Edge 10, Type (0, 1), BuildingBlock: AJUNOK_clean_linker_0, # of connection points: 2
#     Edge 11, Type (0, 1), BuildingBlock: AJUNOK_clean_linker_0, # of connection points: 2
#     Edge 12, Type (0, 1), BuildingBlock: AJUNOK_clean_linker_0, # of connection points: 2
#     Edge 13, Type (0, 1), BuildingBlock: AJUNOK_clean_linker_0, # of connection points: 2
#     Edge 14, Type (0, 1), BuildingBlock: AJUNOK_clean_linker_0, # of connection points: 2
#     Edge 15, Type (0, 1), BuildingBlock: AJUNOK_clean_linker_0, # of connection points: 2
#     Edge 16, Type (0, 1), BuildingBlock: AJUNOK_clean_linker_0, # of connection points: 2
#     Edge 17, Type (0, 1), BuildingBlock: AJUNOK_clean_linker_0, # of connection points: 2
# Relax obj value: 0.011
# Max RMSD: 0.089
# Mean RMSD: 0.053
data_MOF--net-pth--node1-KUFVIS_clean_sbu_0--node2-KOZSID_clean_sbu_0--edge1-AJUNOK_clean_linker_0
_symmetry_space_group_name_H-M    P1
_symmetry_Int_Tables_number       1
_symmetry_cell_setting            triclinic
loop_
_symmetry_equiv_pos_as_xyz
'x, y, z'
_cell_length_a     19.806076
_cell_length_b     19.89902
_cell_length_c     46.218768
_cell_angle_alpha  86.944449
_cell_angle_beta   88.621238
_cell_angle_gamma 119.93445
loop_
_atom_site_label
_atom_site_type_symbol
_atom_site_fract_x
_atom_site_fract_y
_atom_site_fract_z
_atom_type_partial_charge
Mn0 Mn 0.1164 0.06208 0.04474 0.0
Mn1 Mn 0.03216 0.14302 1.00425 0.0
C2 C 0.04408 0.9999 1.00588 0.0
C3 C 0.11233 0.97677 0.08286 0.0
C4 C 0.20407 0.19706 0.9971 0.0
O5 O 0.11588 0.14054 0.07159 0.0
O6 O 0.06674 0.19564 0.04113 0.0
C7 C 0.89245 0.09117 0.04381 0.0
N8 N 0.9244 0.09352 0.01708 0.0
C9 C 0.79737 0.01772 0.99854 0.0
C10 C 0.76313 0.01492 0.02582 0.0
C11 C 0.8109 0.05169 0.04856 0.0
C12 C 0.87896 0.05818 0.99507 0.0
H13 H 0.92887 0.11907 0.06138 0.0
C14 C 0.09599 0.19139 0.06519 0.0
O15 O 0.1782 0.03383 0.07166 0.0
O16 O 0.0494 0.97197 0.07319 0.0
N17 N 0.99534 0.09801 0.96824 0.0
C18 C 0.03743 0.10294 0.94364 0.0
C19 C 0.99832 0.06755 0.91904 0.0
C20 C 0.91641 0.02795 0.91989 0.0
C21 C 0.87436 0.02437 0.94533 0.0
C22 C 0.91654 0.06111 0.96913 0.0
H23 H 0.10028 0.1325 0.94297 0.0
O24 O 0.09792 0.9863 0.01487 0.0
O25 O 0.03526 0.05086 0.01946 0.0
O26 O 0.20438 0.15268 0.01817 0.0
O27 O 0.14208 0.19572 0.98918 0.0
C28 C 0.79221 0.98465 0.94817 0.0
C29 C 0.75374 0.98107 0.97479 0.0
H30 H 0.70026 0.98427 0.02961 0.0
H31 H 0.78492 0.04949 0.06971 0.0
H32 H 0.03119 0.07021 0.89955 0.0
H33 H 0.88643 1.0 0.90097 0.0
H34 H 0.75805 0.9559 0.93012 0.0
H35 H 0.69055 0.94947 0.97682 0.0
Mn36 Mn 0.07122 0.0815 0.37815 0.0
Mn37 Mn 0.16975 0.2428 0.41437 0.0
C38 C 0.15161 0.08464 0.41451 0.0
C39 C 0.06346 1.00177 0.34106 0.0
C40 C 0.99642 0.1302 0.42623 0.0
O41 O 0.06823 0.16475 0.35098 0.0
O42 O 0.13433 0.26827 0.37725 0.0
C43 C 0.30703 0.32909 0.37282 0.0
N44 N 0.27661 0.29723 0.40013 0.0
C45 C 0.40448 0.33923 0.41725 0.0
C46 C 0.43719 0.37293 0.38935 0.0
C47 C 0.38822 0.36774 0.36704 0.0
C48 C 0.32321 0.30201 0.42177 0.0
H49 H 0.26962 0.32493 0.35556 0.0
C50 C 0.09723 0.23714 0.35478 0.0
O51 O 1.00125 0.99431 0.35433 0.0
O52 O 0.12955 0.05904 0.34782 0.0
N53 N 0.20803 0.22682 0.45024 0.0
C54 C 0.167 0.18652 0.47537 0.0
C55 C 0.20722 0.18372 0.4996 0.0
C56 C 0.28914 0.22252 0.49778 0.0
C57 C 0.33013 0.26388 0.47174 0.0
C58 C 0.28691 0.26514 0.44837 0.0
H59 H 0.10407 0.15567 0.47676 0.0
O60 O 0.09427 0.01918 0.40747 0.0
O61 O 0.15932 0.14681 0.40048 0.0
O62 O 0.99067 0.08409 0.40692 0.0
O63 O 0.06098 0.19021 0.43117 0.0
C64 C 0.41208 0.30212 0.46781 0.0
C65 C 0.44923 0.33974 0.44058 0.0
H66 H 0.49975 0.40232 0.38474 0.0
H67 H 0.41301 0.39326 0.34541 0.0
H68 H 0.17513 0.15111 0.51954 0.0
H69 H 0.31993 0.2194 0.5164 0.0
H70 H 0.44701 0.3018 0.48544 0.0
H71 H 0.51219 0.36798 0.43771 0.0
Mn72 Mn 0.13376 0.07622 0.71203 0.0
Mn73 Mn 0.06063 0.16629 0.7514 0.0
C74 C 0.20173 0.15057 0.7499 0.0
C75 C 0.21595 0.07393 0.67485 0.0
C76 C 1.00034 0.99308 0.75972 0.0
O77 O 0.0519 0.07706 0.68511 0.0
O78 O 1.009 0.13723 0.71405 0.0
C79 C 0.11931 0.3094 0.71229 0.0
N80 N 0.11417 0.27463 0.73909 0.0
C81 C 0.18999 0.39861 0.75892 0.0
C82 C 0.19535 0.43575 0.73161 0.0
C83 C 0.1601 0.39092 0.70818 0.0
C84 C 0.14846 0.3172 0.76172 0.0
H85 H 0.09265 0.27521 0.69419 0.0
C86 C 1.00739 0.10534 0.69048 0.0
O87 O 0.15824 0.01041 0.68728 0.0
O88 O 0.22216 0.13864 0.68222 0.0
N89 N 0.10595 0.19844 0.78785 0.0
C90 C 0.09974 0.15374 0.81227 0.0
C91 C 0.13425 0.18969 0.83745 0.0
C92 C 0.17415 0.27114 0.83735 0.0
C93 C 0.17925 0.31591 0.81204 0.0
C94 C 0.14364 0.27684 0.78761 0.0
H95 H 0.0697 0.0912 0.8124 0.0
O96 O 0.21295 0.09552 0.74167 0.0
O97 O 0.15003 0.15967 0.73621 0.0
O98 O 0.04498 0.99132 0.7397 0.0
O99 O 1.00274 0.05573 0.76628 0.0
C100 C 0.21929 0.3978 0.80995 0.0
C101 C 0.22509 0.43915 0.78337 0.0
H102 H 0.22694 0.49861 0.72833 0.0
H103 H 0.16443 0.41914 0.68699 0.0
H104 H 0.13052 0.15474 0.85683 0.0
H105 H 0.20122 0.29869 0.85675 0.0
H106 H 0.24678 0.42959 0.82856 0.0
H107 H 0.25726 0.50213 0.78191 0.0
C108 C 0.16887 0.72925 0.16755 0.0
C109 C 0.24196 0.78976 0.15752 0.0
C110 C 0.29537 0.78033 0.17259 0.0
C111 C 0.25214 0.71471 0.19076 0.0
N112 N 0.17437 0.68034 0.18777 0.0
Co113 Co 0.0906 0.58613 0.21125 0.0
N114 N 0.16896 0.57665 0.23536 0.0
C115 C 0.24748 0.62174 0.23198 0.0
C116 C 0.28691 0.59867 0.25017 0.0
C117 C 0.23033 0.53418 0.2659 0.0
C118 C 0.15919 0.52183 0.25651 0.0
N119 N 1.00668 0.49378 0.23554 0.0
C120 C 1.01181 0.44796 0.25727 0.0
C121 C 0.93857 0.38997 0.26826 0.0
C122 C 0.88534 0.39843 0.25261 0.0
C123 C 0.92883 0.46119 0.23316 0.0
N124 N 1.01257 0.59424 0.18648 0.0
C125 C 0.93456 0.54478 0.18806 0.0
C126 C 0.89511 0.56767 0.16979 0.0
C127 C 0.95098 0.63621 0.15593 0.0
C128 C 0.02198 0.65119 0.16635 0.0
N129 N 0.09788 0.51511 0.18377 0.0
C130 C 0.1074 0.41126 0.14641 0.0
C131 C 0.03631 0.3945 0.15981 0.0
C132 C 0.03271 0.44699 0.17791 0.0
C133 C 0.17382 0.48098 0.15195 0.0
C134 C 0.16794 0.53134 0.1707 0.0
N135 N 0.08287 0.65691 0.23849 0.0
C136 C 1.00708 0.70819 0.26034 0.0
C137 C 0.07284 0.76668 0.27244 0.0
C138 C 0.14378 0.7683 0.26748 0.0
C139 C 0.14752 0.71349 0.25057 0.0
C140 C 1.01305 0.65384 0.24412 0.0
H141 H 0.20346 0.71852 0.24723 0.0
H142 H 0.96032 0.61074 0.23586 0.0
H143 H 0.97623 0.43086 0.18686 0.0
H144 H 0.22098 0.58287 0.1743 0.0
C145 C 0.28255 0.68485 0.2113 0.0
C146 C 0.09611 0.72225 0.15774 0.0
C147 C 0.08433 0.45557 0.26765 0.0
C148 C 0.89902 0.48563 0.2104 0.0
H149 H 0.25532 0.8367 0.14135 0.0
H150 H 0.35815 0.81774 0.17092 0.0
H151 H 0.34944 0.62481 0.25145 0.0
H152 H 0.24055 0.49939 0.28207 0.0
H153 H 0.92509 0.34509 0.28538 0.0
H154 H 0.8225 0.36156 0.25452 0.0
H155 H 0.8326 0.54042 0.16812 0.0
H156 H 0.93995 0.67246 0.14077 0.0
H157 H 0.98314 0.34157 0.15586 0.0
H158 H 0.23033 0.49629 0.14208 0.0
H159 H 0.95102 0.70498 0.26272 0.0
H160 H 0.19647 0.81178 0.27657 0.0
C161 C 0.46154 0.0088 0.59549 0.0
C162 C 0.39925 0.93611 0.60508 0.0
C163 C 0.39818 0.88434 0.58662 0.0
C164 C 0.45916 0.92774 0.5667 0.0
N165 N 0.50024 1.00375 0.57167 0.0
Co166 Co 0.58693 0.08639 0.54533 0.0
N167 N 0.59607 0.00859 0.52252 0.0
C168 C 0.54403 0.93206 0.5233 0.0
C169 C 0.56846 0.8919 0.50686 0.0
C170 C 0.64056 0.94652 0.49492 0.0
C171 C 0.65567 0.01739 0.5045 0.0
N172 N 0.6722 0.16827 0.51864 0.0
C173 C 0.72378 0.16359 0.50018 0.0
C174 C 0.77341 0.23503 0.48537 0.0
C175 C 0.75261 0.28634 0.49516 0.0
C176 C 0.69145 0.24345 0.51522 0.0
N177 N 0.5791 0.16501 0.5682 0.0
C178 C 0.61313 0.24172 0.56035 0.0
C179 C 0.59792 0.28234 0.58003 0.0
C180 C 0.54948 0.22772 0.60132 0.0
C181 C 0.53695 0.15633 0.59323 0.0
N182 N 0.66519 0.08762 0.5713 0.0
C183 C 0.77953 0.09139 0.60761 0.0
C184 C 0.7848 0.1601 0.59548 0.0
C185 C 0.72729 0.15701 0.57766 0.0
C186 C 0.71645 0.02051 0.60053 0.0
C187 C 0.65997 0.01989 0.58247 0.0
N188 N 0.50879 0.08547 0.51928 0.0
C189 C 0.45908 0.07995 0.47161 0.0
C190 C 0.39421 0.08233 0.48334 0.0
C191 C 0.38989 0.089 0.51318 0.0
C192 C 0.4463 0.08911 0.53058 0.0
C193 C 0.5158 0.0819 0.48991 0.0
H194 H 0.43835 0.09219 0.55328 0.0
H195 H 0.56505 0.08014 0.48031 0.0
H196 H 0.73343 0.21117 0.56903 0.0
H197 H 0.612 0.96446 0.57765 0.0
C198 C 0.481 0.89854 0.54373 0.0
C199 C 0.47412 0.08172 0.60695 0.0
C200 C 0.72552 0.0922 0.49533 0.0
C201 C 0.66168 0.27401 0.53505 0.0
H202 H 0.35639 0.92187 0.62271 0.0
H203 H 0.35687 0.82257 0.58733 0.0
H204 H 0.53937 0.82971 0.50507 0.0
H205 H 0.67791 0.93504 0.48109 0.0
H206 H 0.82013 0.2487 0.46937 0.0
H207 H 0.78128 0.34828 0.4894 0.0
H208 H 0.61874 0.34416 0.57887 0.0
H209 H 0.52291 0.23857 0.61989 0.0
H210 H 0.83315 0.21634 0.59982 0.0
H211 H 0.70975 0.96591 0.60942 0.0
H212 H 0.4655 0.07558 0.44856 0.0
H213 H 0.34304 0.09437 0.52326 0.0
C214 C 0.76112 0.64485 0.83468 0.0
C215 C 0.82206 0.63391 0.82563 0.0
C216 C 0.8113 0.56811 0.84069 0.0
C217 C 0.74507 0.54289 0.85822 0.0
N218 N 0.71197 0.58789 0.85495 0.0
Co219 Co 0.6198 0.57677 0.87853 0.0
N220 N 0.61072 0.48656 0.90365 0.0
C221 C 0.65743 0.45521 0.90178 0.0
C222 C 0.63375 0.39032 0.92028 0.0
C223 C 0.56722 0.37862 0.93456 0.0
C224 C 0.55428 0.43763 0.92405 0.0
N225 N 0.5277 0.56576 0.90197 0.0
C226 C 0.48033 0.51063 0.92301 0.0
C227 C 0.42192 0.52398 0.93326 0.0
C228 C 0.43111 0.58828 0.91755 0.0
C229 C 0.49462 0.6108 0.8988 0.0
N230 N 0.62883 0.66697 0.85359 0.0
C231 C 0.58177 0.69798 0.85524 0.0
C232 C 0.60339 0.7607 0.8358 0.0
C233 C 0.66927 0.77164 0.82126 0.0
C234 C 0.68439 0.71502 0.83288 0.0
N235 N 0.54692 0.50224 0.85154 0.0
C236 C 0.43472 0.38792 0.81803 0.0
C237 C 0.43042 0.45359 0.82435 0.0
C238 C 0.48624 0.50923 0.84115 0.0
C239 C 0.49807 0.38222 0.82769 0.0
C240 C 0.55329 0.43977 0.84403 0.0
N241 N 0.69276 0.65129 0.90547 0.0
C242 C 0.73998 0.76947 0.93045 0.0
C243 C 0.80633 0.76668 0.93817 0.0
C244 C 0.81305 0.70333 0.9304 0.0
C245 C 0.75587 0.64656 0.91442 0.0
C246 C 0.68452 0.71184 0.91415 0.0
H247 H 0.76469 0.59996 0.90922 0.0
H248 H 0.63621 0.71829 0.9084 0.0
H249 H 0.47833 0.55675 0.84579 0.0
H250 H 0.60011 0.43186 0.8506 0.0
C251 C 0.71799 0.48299 0.88028 0.0
C252 C 0.7548 0.71247 0.82472 0.0
C253 C 0.48528 0.44221 0.93279 0.0
C254 C 0.52124 0.67046 0.8767 0.0
H255 H 0.8709 0.67101 0.8105 0.0
H256 H 0.84948 0.54382 0.84002 0.0
H257 H 0.65971 0.35371 0.92218 0.0
H258 H 0.53101 0.33047 0.95018 0.0
H259 H 0.37604 0.48941 0.94983 0.0
H260 H 0.39431 0.61403 0.91897 0.0
H261 H 0.57608 0.79595 0.83321 0.0
H262 H 0.70372 0.8176 0.8046 0.0
H263 H 0.38324 0.46134 0.81689 0.0
H264 H 0.50533 0.33364 0.82255 0.0
H265 H 0.73173 0.81689 0.93637 0.0
H266 H 0.86228 0.69741 0.93669 0.0
C267 C 0.08099 0.22544 0.11576 0.0
C268 C 0.10616 0.24904 0.08636 0.0
C269 C 0.08246 0.27836 0.13519 0.0
C270 C 0.11105 0.35717 0.12609 0.0
H271 H 0.05728 0.16512 0.12353 0.0
H272 H 0.06048 0.25739 0.15745 0.0
S273 S 0.18809 0.44903 0.05182 0.0
N274 N 0.16286 0.35699 0.04939 0.0
N275 N 0.16749 0.45634 0.08595 0.0
C276 C 0.13888 0.38186 0.09702 0.0
C277 C 0.1359 0.32784 0.07716 0.0
C278 C 0.93169 0.13919 0.47228 0.0
C279 C 0.92514 0.11513 0.4438 0.0
C280 C 0.86664 0.12976 0.48889 0.0
C281 C 0.79238 0.09674 0.47764 0.0
H282 H 0.9877 0.16595 0.4819 0.0
H283 H 0.87466 0.14938 0.51062 0.0
S284 S 0.7442 0.03085 0.40351 0.0
N285 N 0.83795 0.05946 0.4048 0.0
N286 N 0.71682 0.04496 0.43559 0.0
C287 C 0.78497 0.07381 0.44907 0.0
C288 C 0.85091 0.08197 0.43232 0.0
C289 C 0.91833 0.92038 0.80519 0.0
C290 C 0.94163 0.91917 0.77623 0.0
C291 C 0.85995 0.85286 0.82087 0.0
C292 C 0.82136 0.7815 0.80813 0.0
H293 H 0.94498 0.97409 0.81589 0.0
H294 H 0.84368 0.85677 0.84301 0.0
S295 S 0.85668 0.74679 0.73271 0.0
N296 N 0.92017 0.83975 0.73545 0.0
N297 N 0.80826 0.71376 0.76465 0.0
C298 C 0.84351 0.77914 0.77925 0.0
C299 C 0.90418 0.84763 0.7634 0.0
C300 C 0.13063 0.92295 0.13074 0.0
C301 C 0.10839 0.91253 0.10194 0.0
C302 C 0.12518 0.86083 0.1488 0.0
C303 C 0.09864 0.78674 0.13849 0.0
H304 H 0.15145 0.97904 0.13943 0.0
H305 H 0.14223 0.87078 0.17096 0.0
S306 S 0.03947 0.73201 0.06398 0.0
N307 N 0.06104 0.82368 0.0637 0.0
N308 N 0.05477 0.70861 0.09703 0.0
C309 C 0.07826 0.77659 0.10949 0.0
C310 C 0.08208 0.83906 0.0914 0.0
C311 C 0.29164 0.12559 0.42214 0.0
C312 C 0.21272 0.08432 0.43232 0.0
C313 C 0.34998 0.12344 0.43831 0.0
C314 C 0.33129 0.07879 0.46505 0.0
H315 H 0.30848 0.16016 0.40159 0.0
H316 H 0.41023 0.15857 0.43016 0.0
S317 S 0.13113 0.95031 0.49863 0.0
N318 N 0.11789 0.9916 0.46906 0.0
N319 N 0.22618 0.98517 0.49907 0.0
C320 C 0.2517 0.03371 0.47449 0.0
C321 C 0.19277 0.03657 0.45813 0.0
C322 C 0.29582 0.28905 0.75853 0.0
C323 C 0.25838 0.20978 0.7682 0.0
C324 C 0.35196 0.3463 0.7749 0.0
C325 C 0.37401 0.32626 0.80126 0.0
H326 H 0.2819 0.30694 0.73805 0.0
H327 H 0.37915 0.40663 0.76662 0.0
S328 S 0.29291 0.12651 0.83599 0.0
N329 N 0.2475 0.11395 0.80551 0.0
N330 N 0.35247 0.22119 0.83647 0.0
C331 C 0.33739 0.24696 0.81098 0.0
C332 C 0.28021 0.1888 0.7943 0.0
C333 C 0.93118 0.05548 0.64525 0.0
C334 C 0.95027 0.10257 0.66892 0.0
C335 C 0.87553 0.05114 0.62566 0.0
C336 C 0.83739 0.0945 0.62867 0.0
H337 H 0.95878 0.02104 0.64194 0.0
H338 H 0.86294 0.01427 0.60781 0.0
S339 S 0.86385 0.22542 0.68693 0.0
N340 N 0.92434 0.19315 0.69396 0.0
N341 N 0.82085 0.18396 0.6576 0.0
C342 C 0.85563 0.14142 0.65218 0.0
C343 C 0.91162 0.14574 0.67211 0.0
C344 C 0.90498 0.90731 0.9965 0.0
C345 C 0.98449 0.94486 0.98728 0.0
C346 C 0.84756 0.85095 0.98024 0.0
C347 C 0.86778 0.82884 0.95447 0.0
H348 H 0.88709 0.92093 0.01666 0.0
H349 H 0.78707 0.82333 0.98821 0.0
S350 S 0.06797 0.9108 0.92087 0.0
N351 N 0.08058 0.95633 0.95086 0.0
N352 N 0.97302 0.85083 0.92012 0.0
C353 C 0.94723 0.86596 0.94509 0.0
C354 C 1.00552 0.92338 0.96165 0.0
C355 C 0.1236 0.96179 0.30192 0.0
C356 C 0.06086 0.9425 0.322 0.0
C357 C 0.12665 0.90505 0.28591 0.0
C358 C 0.06767 0.82616 0.28959 0.0
H359 H 0.1712 0.0213 0.29867 0.0
H360 H 0.17578 0.92334 0.27049 0.0
S361 S 0.89337 0.74424 0.34114 0.0
N362 N 0.93921 0.83849 0.34522 0.0
N363 N 0.94629 0.73168 0.31619 0.0
C364 C 1.00476 0.80612 0.30979 0.0
C365 C 1.00103 0.86418 0.3257 0.0
C366 C 0.30249 0.11023 0.62914 0.0
C367 C 0.27952 0.07335 0.6573 0.0
C368 C 0.36511 0.11254 0.61304 0.0
C369 C 0.40895 0.08056 0.6249 0.0
H370 H 0.27131 0.13663 0.61937 0.0
H371 H 0.37941 0.13967 0.59113 0.0
S372 S 0.3765 0.98387 0.69877 0.0
N373 N 0.30693 1.00649 0.69672 0.0
N374 N 0.4271 0.01501 0.6672 0.0
C375 C 0.3878 0.04573 0.65336 0.0
C376 C 0.32259 0.04112 0.66936 0.0
C377 C 0.27842 0.27552 0.95126 0.0
C378 C 0.27879 0.25454 0.98088 0.0
C379 C 0.34601 0.33409 0.93578 0.0
C380 C 0.41668 0.37512 0.94933 0.0
H381 H 0.22516 0.24712 0.93991 0.0
H382 H 0.3426 0.34873 0.91315 0.0
S383 S 0.4493 0.34565 0.02646 0.0
N384 N 0.35677 0.28031 0.02307 0.0
N385 N 0.48309 0.39235 0.99411 0.0
C386 C 0.41839 0.3549 0.97881 0.0
C387 C 0.34975 0.29412 0.99451 0.0
C388 C 0.1069 0.36493 0.33893 0.0
C389 C 0.08913 0.28949 0.33228 0.0
C390 C 0.10341 0.41726 0.31822 0.0
C391 C 0.08247 0.39686 0.28985 0.0
H392 H 0.12423 0.38431 0.36036 0.0
H393 H 0.1184 0.47471 0.32429 0.0
S394 S 0.02945 0.20791 0.2607 0.0
N395 N 0.04829 0.19754 0.29476 0.0
N396 N 0.04276 0.29667 0.25596 0.0
C397 C 0.06338 0.32181 0.28283 0.0
C398 C 0.06646 0.26804 0.30395 0.0
loop_
_geom_bond_atom_site_label_1
_geom_bond_atom_site_label_2
_geom_bond_distance
_geom_bond_site_symmetry_2
_ccdc_geom_bond_type
Mn0 O5 2.095 . S
Mn0 O15 2.162 1_545 S
Mn0 O16 2.297 1_545 S
Mn0 O24 2.385 1_545 S
Mn0 O25 2.209 . S
Mn0 O26 2.094 . S
Mn1 O6 2.121 . S
Mn1 N8 2.257 1_454 S
Mn1 N17 2.282 1_554 S
Mn1 O25 2.215 . S
Mn1 O27 2.117 1_554 S
C2 O24 1.234 . S
C2 O25 1.283 1_565 S
C3 O15 1.281 . S
C3 O16 1.236 . S
C4 O26 1.240 1_556 S
C4 O27 1.264 . S
O5 Mn0 2.095 . S
O5 C14 1.250 . S
O6 Mn1 2.121 . S
O6 C14 1.258 . S
C7 N8 1.326 1_554 S
C7 C11 1.460 . S
C7 H13 0.929 . S
N8 Mn1 2.257 1_656 S
N8 C7 1.326 1_556 S
N8 C12 1.362 . S
C9 C10 1.258 . S
C9 C12 1.431 . S
C9 C29 1.449 . S
C10 C9 1.258 . S
C10 C11 1.477 1_556 S
C10 H30 0.931 . S
C11 C7 1.460 . S
C11 C10 1.477 1_554 S
C11 H31 0.930 . S
C12 N8 1.362 . S
C12 C9 1.431 . S
C12 C22 1.476 . S
H13 C7 0.929 . S
C14 O5 1.250 . S
C14 O6 1.258 . S
O15 Mn0 2.162 1_565 S
O15 C3 1.281 . S
O16 Mn0 2.297 1_565 S
O16 C3 1.236 . S
N17 Mn1 2.282 1_556 S
N17 C18 1.328 . S
N17 C22 1.318 1_455 S
C18 N17 1.328 . S
C18 C19 1.457 . S
C18 H23 0.929 . S
C19 C18 1.457 . S
C19 C20 1.291 1_455 S
C19 H32 0.931 . S
C20 C19 1.291 1_655 S
C20 C21 1.373 . S
C20 H33 0.929 . S
C21 C20 1.373 . S
C21 C22 1.396 . S
C21 C28 1.403 . S
C22 C12 1.476 . S
C22 N17 1.318 1_655 S
C22 C21 1.396 . S
H23 C18 0.929 . S
O24 Mn0 2.385 1_565 S
O24 C2 1.234 . S
O25 Mn0 2.209 . S
O25 Mn1 2.215 . S
O25 C2 1.283 1_545 S
O26 Mn0 2.094 . S
O26 C4 1.240 1_554 S
O27 Mn1 2.117 1_556 S
O27 C4 1.264 . S
C28 C21 1.403 . S
C28 C29 1.399 . S
C28 H34 0.929 . S
C29 C9 1.449 . S
C29 C28 1.399 . S
C29 H35 0.930 . S
H30 C10 0.931 . S
H31 C11 0.930 . S
H32 C19 0.931 . S
H33 C20 0.929 . S
H34 C28 0.929 . S
H35 C29 0.930 . S
Mn36 O41 2.095 . S
Mn36 O51 2.162 1_445 S
Mn36 O52 2.297 . S
Mn36 O60 2.385 . S
Mn36 O61 2.209 . S
Mn36 O62 2.094 1_455 S
Mn37 O42 2.121 . S
Mn37 N44 2.257 . S
Mn37 N53 2.282 . S
Mn37 O61 2.215 . S
Mn37 O63 2.117 . S
C38 O60 1.234 . S
C38 O61 1.283 . S
C39 O51 1.281 1_455 S
C39 O52 1.236 1_565 S
C40 O62 1.240 . S
C40 O63 1.264 1_655 S
O41 Mn36 2.095 . S
O41 C50 1.250 . S
O42 Mn37 2.121 . S
O42 C50 1.258 . S
C43 N44 1.326 . S
C43 C47 1.460 . S
C43 H49 0.929 . S
N44 Mn37 2.257 . S
N44 C43 1.326 . S
N44 C48 1.362 . S
C45 C46 1.258 . S
C45 C48 1.431 . S
C45 C65 1.449 . S
C46 C45 1.258 . S
C46 C47 1.477 . S
C46 H66 0.931 . S
C47 C43 1.460 . S
C47 C46 1.477 . S
C47 H67 0.930 . S
C48 N44 1.362 . S
C48 C45 1.431 . S
C48 C58 1.476 . S
H49 C43 0.929 . S
C50 O41 1.250 . S
C50 O42 1.258 . S
O51 Mn36 2.162 1_665 S
O51 C39 1.281 1_655 S
O52 Mn36 2.297 . S
O52 C39 1.236 1_545 S
N53 Mn37 2.282 . S
N53 C54 1.328 . S
N53 C58 1.318 . S
C54 N53 1.328 . S
C54 C55 1.457 . S
C54 H59 0.929 . S
C55 C54 1.457 . S
C55 C56 1.291 . S
C55 H68 0.931 . S
C56 C55 1.291 . S
C56 C57 1.373 . S
C56 H69 0.929 . S
C57 C56 1.373 . S
C57 C58 1.396 . S
C57 C64 1.403 . S
C58 C48 1.476 . S
C58 N53 1.318 . S
C58 C57 1.396 . S
H59 C54 0.929 . S
O60 Mn36 2.385 . S
O60 C38 1.234 . S
O61 Mn36 2.209 . S
O61 Mn37 2.215 . S
O61 C38 1.283 . S
O62 Mn36 2.094 1_655 S
O62 C40 1.240 . S
O63 Mn37 2.117 . S
O63 C40 1.264 1_455 S
C64 C57 1.403 . S
C64 C65 1.399 . S
C64 H70 0.929 . S
C65 C45 1.449 . S
C65 C64 1.399 . S
C65 H71 0.930 . S
H66 C46 0.931 . S
H67 C47 0.930 . S
H68 C55 0.931 . S
H69 C56 0.929 . S
H70 C64 0.929 . S
H71 C65 0.930 . S
Mn72 O77 2.095 . S
Mn72 O87 2.162 1_545 S
Mn72 O88 2.297 . S
Mn72 O96 2.385 . S
Mn72 O97 2.209 . S
Mn72 O98 2.094 1_545 S
Mn73 O78 2.121 1_455 S
Mn73 N80 2.257 . S
Mn73 N89 2.282 . S
Mn73 O97 2.215 . S
Mn73 O99 2.115 1_445 S
C74 O96 1.234 . S
C74 O97 1.283 . S
C75 O87 1.281 1_545 S
C75 O88 1.236 . S
C76 O98 1.240 1_655 S
C76 O99 1.266 . S
O77 Mn72 2.095 . S
O77 C86 1.250 1_455 S
O78 Mn73 2.121 1_655 S
O78 C86 1.258 . S
C79 N80 1.326 . S
C79 C83 1.460 . S
C79 H85 0.929 . S
N80 Mn73 2.257 . S
N80 C79 1.326 . S
N80 C84 1.362 . S
C81 C82 1.258 . S
C81 C84 1.431 . S
C81 C101 1.449 . S
C82 C81 1.258 . S
C82 C83 1.477 . S
C82 H102 0.931 . S
C83 C79 1.460 . S
C83 C82 1.477 . S
C83 H103 0.930 . S
C84 N80 1.362 . S
C84 C81 1.431 . S
C84 C94 1.476 . S
H85 C79 0.929 . S
C86 O77 1.250 1_655 S
C86 O78 1.258 . S
O87 Mn72 2.162 1_565 S
O87 C75 1.281 1_565 S
O88 Mn72 2.297 . S
O88 C75 1.236 . S
N89 Mn73 2.282 . S
N89 C90 1.328 . S
N89 C94 1.318 . S
C90 N89 1.328 . S
C90 C91 1.457 . S
C90 H95 0.929 . S
C91 C90 1.457 . S
C91 C92 1.291 . S
C91 H104 0.931 . S
C92 C91 1.291 . S
C92 C93 1.373 . S
C92 H105 0.929 . S
C93 C92 1.373 . S
C93 C94 1.396 . S
C93 C100 1.403 . S
C94 C84 1.476 . S
C94 N89 1.318 . S
C94 C93 1.396 . S
H95 C90 0.929 . S
O96 Mn72 2.385 . S
O96 C74 1.234 . S
O97 Mn72 2.209 . S
O97 Mn73 2.215 . S
O97 C74 1.283 . S
O98 Mn72 2.094 1_565 S
O98 C76 1.240 1_455 S
O99 Mn73 2.115 1_665 S
O99 C76 1.266 . S
C100 C93 1.403 . S
C100 C101 1.399 . S
C100 H106 0.929 . S
C101 C81 1.449 . S
C101 C100 1.399 . S
C101 H107 0.930 . S
H102 C82 0.931 . S
H103 C83 0.930 . S
H104 C91 0.931 . S
H105 C92 0.929 . S
H106 C100 0.929 . S
H107 C101 0.930 . S
C108 C109 1.443 . S
C108 N112 1.376 . S
C108 C146 1.389 . S
C109 C108 1.443 . S
C109 C110 1.340 . S
C109 H149 0.951 . S
C110 C109 1.340 . S
C110 C111 1.439 . S
C110 H150 0.950 . S
C111 C110 1.439 . S
C111 N112 1.374 . S
C111 C145 1.395 . S
N112 C108 1.376 . S
N112 C111 1.374 . S
N112 Co113 2.008 . S
Co113 N112 2.008 . S
Co113 N114 1.995 . S
Co113 N119 2.008 1_455 S
Co113 N124 1.995 1_455 S
Co113 N129 2.282 . S
Co113 N135 2.282 . S
N114 Co113 1.995 . S
N114 C115 1.376 . S
N114 C118 1.383 . S
C115 N114 1.376 . S
C115 C116 1.446 . S
C115 C145 1.391 . S
C116 C115 1.446 . S
C116 C117 1.339 . S
C116 H151 0.949 . S
C117 C116 1.339 . S
C117 C118 1.439 . S
C117 H152 0.950 . S
C118 N114 1.383 . S
C118 C117 1.439 . S
C118 C147 1.392 . S
N119 Co113 2.008 1_655 S
N119 C120 1.376 . S
N119 C123 1.374 . S
C120 N119 1.376 . S
C120 C121 1.443 . S
C120 C147 1.389 1_655 S
C121 C120 1.443 . S
C121 C122 1.340 . S
C121 H153 0.951 . S
C122 C121 1.340 . S
C122 C123 1.439 . S
C122 H154 0.950 . S
C123 N119 1.374 . S
C123 C122 1.439 . S
C123 C148 1.395 . S
N124 Co113 1.995 1_655 S
N124 C125 1.376 . S
N124 C128 1.383 1_655 S
C125 N124 1.376 . S
C125 C126 1.446 . S
C125 C148 1.391 . S
C126 C125 1.446 . S
C126 C127 1.339 . S
C126 H155 0.949 . S
C127 C126 1.339 . S
C127 C128 1.439 1_655 S
C127 H156 0.950 . S
C128 N124 1.383 1_455 S
C128 C127 1.439 1_455 S
C128 C146 1.392 . S
N129 Co113 2.282 . S
N129 C132 1.332 . S
N129 C134 1.332 . S
C130 C131 1.386 . S
C130 C133 1.388 . S
C131 C130 1.386 . S
C131 C132 1.382 . S
C131 H157 0.950 1_455 S
C132 N129 1.332 . S
C132 C131 1.382 . S
C132 H143 0.952 1_455 S
C133 C130 1.388 . S
C133 C134 1.382 . S
C133 H158 0.950 . S
C134 N129 1.332 . S
C134 C133 1.382 . S
C134 H144 0.948 . S
N135 Co113 2.282 . S
N135 C139 1.332 . S
N135 C140 1.332 1_455 S
C136 C137 1.388 1_655 S
C136 C140 1.382 . S
C136 H159 0.950 . S
C137 C136 1.388 1_455 S
C137 C138 1.386 . S
C138 C137 1.386 . S
C138 C139 1.382 . S
C138 H160 0.950 . S
C139 N135 1.332 . S
C139 C138 1.382 . S
C139 H141 0.952 . S
C140 N135 1.332 1_655 S
C140 C136 1.382 . S
C140 H142 0.948 . S
H141 C139 0.952 . S
H142 C140 0.948 . S
H143 C132 0.952 1_655 S
H144 C134 0.948 . S
C145 C111 1.395 . S
C145 C115 1.391 . S
C146 C108 1.389 . S
C146 C128 1.392 . S
C147 C118 1.392 . S
C147 C120 1.389 1_455 S
C148 C123 1.395 . S
C148 C125 1.391 . S
H149 C109 0.951 . S
H150 C110 0.950 . S
H151 C116 0.949 . S
H152 C117 0.950 . S
H153 C121 0.951 . S
H154 C122 0.950 . S
H155 C126 0.949 . S
H156 C127 0.950 . S
H157 C131 0.950 1_655 S
H158 C133 0.950 . S
H159 C136 0.950 . S
H160 C138 0.950 . S
C161 C162 1.443 1_545 S
C161 N165 1.376 . S
C161 C199 1.389 . S
C162 C161 1.443 1_565 S
C162 C163 1.340 . S
C162 H202 0.951 . S
C163 C162 1.340 . S
C163 C164 1.439 . S
C163 H203 0.950 . S
C164 C163 1.439 . S
C164 N165 1.374 1_565 S
C164 C198 1.395 . S
N165 C161 1.376 . S
N165 C164 1.374 1_545 S
N165 Co166 2.008 . S
Co166 N165 2.008 . S
Co166 N167 1.995 . S
Co166 N172 2.008 . S
Co166 N177 1.995 . S
Co166 N182 2.282 . S
Co166 N188 2.282 . S
N167 Co166 1.995 . S
N167 C168 1.376 1_545 S
N167 C171 1.383 . S
C168 N167 1.376 1_565 S
C168 C169 1.446 . S
C168 C198 1.391 . S
C169 C168 1.446 . S
C169 C170 1.339 . S
C169 H204 0.949 . S
C170 C169 1.339 . S
C170 C171 1.439 1_565 S
C170 H205 0.950 . S
C171 N167 1.383 . S
C171 C170 1.439 1_545 S
C171 C200 1.392 . S
N172 Co166 2.008 . S
N172 C173 1.376 . S
N172 C176 1.374 . S
C173 N172 1.376 . S
C173 C174 1.443 . S
C173 C200 1.389 . S
C174 C173 1.443 . S
C174 C175 1.340 . S
C174 H206 0.951 . S
C175 C174 1.340 . S
C175 C176 1.439 . S
C175 H207 0.950 . S
C176 N172 1.374 . S
C176 C175 1.439 . S
C176 C201 1.395 . S
N177 Co166 1.995 . S
N177 C178 1.376 . S
N177 C181 1.383 . S
C178 N177 1.376 . S
C178 C179 1.446 . S
C178 C201 1.391 . S
C179 C178 1.446 . S
C179 C180 1.339 . S
C179 H208 0.949 . S
C180 C179 1.339 . S
C180 C181 1.439 . S
C180 H209 0.950 . S
C181 N177 1.383 . S
C181 C180 1.439 . S
C181 C199 1.392 . S
N182 Co166 2.282 . S
N182 C185 1.332 . S
N182 C187 1.332 . S
C183 C184 1.386 . S
C183 C186 1.388 . S
C184 C183 1.386 . S
C184 C185 1.382 . S
C184 H210 0.950 . S
C185 N182 1.332 . S
C185 C184 1.382 . S
C185 H196 0.952 . S
C186 C183 1.388 . S
C186 C187 1.382 . S
C186 H211 0.950 . S
C187 N182 1.332 . S
C187 C186 1.382 . S
C187 H197 0.948 . S
N188 Co166 2.282 . S
N188 C192 1.332 . S
N188 C193 1.332 . S
C189 C190 1.388 . S
C189 C193 1.382 . S
C189 H212 0.950 . S
C190 C189 1.388 . S
C190 C191 1.386 . S
C191 C190 1.386 . S
C191 C192 1.382 . S
C191 H213 0.950 . S
C192 N188 1.332 . S
C192 C191 1.382 . S
C192 H194 0.952 . S
C193 N188 1.332 . S
C193 C189 1.382 . S
C193 H195 0.948 . S
H194 C192 0.952 . S
H195 C193 0.948 . S
H196 C185 0.952 . S
H197 C187 0.948 . S
C198 C164 1.395 . S
C198 C168 1.391 . S
C199 C161 1.389 . S
C199 C181 1.392 . S
C200 C171 1.392 . S
C200 C173 1.389 . S
C201 C176 1.395 . S
C201 C178 1.391 . S
H202 C162 0.951 . S
H203 C163 0.950 . S
H204 C169 0.949 . S
H205 C170 0.950 . S
H206 C174 0.951 . S
H207 C175 0.950 . S
H208 C179 0.949 . S
H209 C180 0.950 . S
H210 C184 0.950 . S
H211 C186 0.950 . S
H212 C189 0.950 . S
H213 C191 0.950 . S
C214 C215 1.443 . S
C214 N218 1.376 . S
C214 C252 1.389 . S
C215 C214 1.443 . S
C215 C216 1.340 . S
C215 H255 0.951 . S
C216 C215 1.340 . S
C216 C217 1.439 . S
C216 H256 0.950 . S
C217 C216 1.439 . S
C217 N218 1.374 . S
C217 C251 1.395 . S
N218 C214 1.376 . S
N218 C217 1.374 . S
N218 Co219 2.008 . S
Co219 N218 2.008 . S
Co219 N220 1.995 . S
Co219 N225 2.008 . S
Co219 N230 1.995 . S
Co219 N235 2.282 . S
Co219 N241 2.282 . S
N220 Co219 1.995 . S
N220 C221 1.376 . S
N220 C224 1.383 . S
C221 N220 1.376 . S
C221 C222 1.446 . S
C221 C251 1.391 . S
C222 C221 1.446 . S
C222 C223 1.339 . S
C222 H257 0.949 . S
C223 C222 1.339 . S
C223 C224 1.439 . S
C223 H258 0.950 . S
C224 N220 1.383 . S
C224 C223 1.439 . S
C224 C253 1.392 . S
N225 Co219 2.008 . S
N225 C226 1.376 . S
N225 C229 1.374 . S
C226 N225 1.376 . S
C226 C227 1.443 . S
C226 C253 1.389 . S
C227 C226 1.443 . S
C227 C228 1.340 . S
C227 H259 0.951 . S
C228 C227 1.340 . S
C228 C229 1.439 . S
C228 H260 0.950 . S
C229 N225 1.374 . S
C229 C228 1.439 . S
C229 C254 1.395 . S
N230 Co219 1.995 . S
N230 C231 1.376 . S
N230 C234 1.383 . S
C231 N230 1.376 . S
C231 C232 1.446 . S
C231 C254 1.391 . S
C232 C231 1.446 . S
C232 C233 1.339 . S
C232 H261 0.949 . S
C233 C232 1.339 . S
C233 C234 1.439 . S
C233 H262 0.950 . S
C234 N230 1.383 . S
C234 C233 1.439 . S
C234 C252 1.392 . S
N235 Co219 2.282 . S
N235 C238 1.332 . S
N235 C240 1.332 . S
C236 C237 1.386 . S
C236 C239 1.388 . S
C237 C236 1.386 . S
C237 C238 1.382 . S
C237 H263 0.950 . S
C238 N235 1.332 . S
C238 C237 1.382 . S
C238 H249 0.952 . S
C239 C236 1.388 . S
C239 C240 1.382 . S
C239 H264 0.950 . S
C240 N235 1.332 . S
C240 C239 1.382 . S
C240 H250 0.948 . S
N241 Co219 2.282 . S
N241 C245 1.332 . S
N241 C246 1.332 . S
C242 C243 1.388 . S
C242 C246 1.382 . S
C242 H265 0.950 . S
C243 C242 1.388 . S
C243 C244 1.386 . S
C244 C243 1.386 . S
C244 C245 1.382 . S
C244 H266 0.950 . S
C245 N241 1.332 . S
C245 C244 1.382 . S
C245 H247 0.952 . S
C246 N241 1.332 . S
C246 C242 1.382 . S
C246 H248 0.948 . S
H247 C245 0.952 . S
H248 C246 0.948 . S
H249 C238 0.952 . S
H250 C240 0.948 . S
C251 C217 1.395 . S
C251 C221 1.391 . S
C252 C214 1.389 . S
C252 C234 1.392 . S
C253 C224 1.392 . S
C253 C226 1.389 . S
C254 C229 1.395 . S
C254 C231 1.391 . S
H255 C215 0.951 . S
H256 C216 0.950 . S
H257 C222 0.949 . S
H258 C223 0.950 . S
H259 C227 0.951 . S
H260 C228 0.950 . S
H261 C232 0.949 . S
H262 C233 0.950 . S
H263 C237 0.950 . S
H264 C239 0.950 . S
H265 C242 0.950 . S
H266 C244 0.950 . S
C267 C268 1.369 . S
C267 C269 1.419 . S
C267 H271 0.930 1_455 S
C268 C267 1.369 . S
C268 C277 1.429 . S
C269 C267 1.419 . S
C269 C270 1.363 . S
C269 H272 0.929 1_455 S
C270 C269 1.363 . S
C270 C276 1.428 . S
H271 C267 0.930 1_655 S
H272 C269 0.929 1_655 S
S273 N274 1.613 . S
S273 N275 1.610 . S
N274 S273 1.613 . S
N274 C277 1.350 . S
N275 S273 1.610 . S
N275 C276 1.351 . S
C276 C270 1.428 . S
C276 N275 1.351 . S
C276 C277 1.434 . S
C277 C268 1.429 . S
C277 N274 1.350 . S
C277 C276 1.434 . S
C278 C279 1.369 . S
C278 C280 1.419 . S
C278 H282 0.930 . S
C279 C278 1.369 . S
C279 C288 1.429 . S
C280 C278 1.419 . S
C280 C281 1.363 . S
C280 H283 0.929 . S
C281 C280 1.363 . S
C281 C287 1.428 . S
H282 C278 0.930 . S
H283 C280 0.929 . S
S284 N285 1.613 1_565 S
S284 N286 1.610 1_565 S
N285 S284 1.613 1_545 S
N285 C288 1.350 . S
N286 S284 1.610 1_545 S
N286 C287 1.351 . S
C287 C281 1.428 . S
C287 N286 1.351 . S
C287 C288 1.434 . S
C288 C279 1.429 . S
C288 N285 1.350 . S
C288 C287 1.434 . S
C289 C290 1.369 . S
C289 C291 1.419 . S
C289 H293 0.930 . S
C290 C289 1.369 . S
C290 C299 1.429 . S
C291 C289 1.419 . S
C291 C292 1.363 . S
C291 H294 0.929 . S
C292 C291 1.363 . S
C292 C298 1.428 . S
H293 C289 0.930 . S
H294 C291 0.929 . S
S295 N296 1.613 . S
S295 N297 1.610 . S
N296 S295 1.613 . S
N296 C299 1.350 . S
N297 S295 1.610 . S
N297 C298 1.351 . S
C298 C292 1.428 . S
C298 N297 1.351 . S
C298 C299 1.434 . S
C299 C290 1.429 . S
C299 N296 1.350 . S
C299 C298 1.434 . S
C300 C301 1.369 . S
C300 C302 1.419 . S
C300 H304 0.930 . S
C301 C300 1.369 . S
C301 C310 1.429 . S
C302 C300 1.419 . S
C302 C303 1.363 . S
C302 H305 0.929 . S
C303 C302 1.363 . S
C303 C309 1.428 . S
H304 C300 0.930 . S
H305 C302 0.929 . S
S306 N307 1.613 . S
S306 N308 1.610 . S
N307 S306 1.613 . S
N307 C310 1.350 . S
N308 S306 1.610 . S
N308 C309 1.351 . S
C309 C303 1.428 . S
C309 N308 1.351 . S
C309 C310 1.434 . S
C310 C301 1.429 . S
C310 N307 1.350 . S
C310 C309 1.434 . S
C311 C312 1.369 . S
C311 C313 1.419 . S
C311 H315 0.930 . S
C312 C311 1.369 . S
C312 C321 1.429 . S
C313 C311 1.419 . S
C313 C314 1.363 . S
C313 H316 0.929 . S
C314 C313 1.363 . S
C314 C320 1.428 . S
H315 C311 0.930 . S
H316 C313 0.929 . S
S317 N318 1.613 . S
S317 N319 1.612 . S
N318 S317 1.613 . S
N318 C321 1.350 1_565 S
N319 S317 1.612 . S
N319 C320 1.347 1_565 S
C320 C314 1.428 . S
C320 N319 1.347 1_545 S
C320 C321 1.434 . S
C321 C312 1.429 . S
C321 N318 1.350 1_545 S
C321 C320 1.434 . S
C322 C323 1.369 . S
C322 C324 1.419 . S
C322 H326 0.930 . S
C323 C322 1.369 . S
C323 C332 1.429 . S
C324 C322 1.419 . S
C324 C325 1.363 . S
C324 H327 0.929 . S
C325 C324 1.363 . S
C325 C331 1.428 . S
H326 C322 0.930 . S
H327 C324 0.929 . S
S328 N329 1.613 . S
S328 N330 1.610 . S
N329 S328 1.613 . S
N329 C332 1.350 . S
N330 S328 1.610 . S
N330 C331 1.351 . S
C331 C325 1.428 . S
C331 N330 1.351 . S
C331 C332 1.434 . S
C332 C323 1.429 . S
C332 N329 1.350 . S
C332 C331 1.434 . S
C333 C334 1.369 . S
C333 C335 1.419 . S
C333 H337 0.930 . S
C334 C333 1.369 . S
C334 C343 1.429 . S
C335 C333 1.419 . S
C335 C336 1.363 . S
C335 H338 0.929 . S
C336 C335 1.363 . S
C336 C342 1.428 . S
H337 C333 0.930 . S
H338 C335 0.929 . S
S339 N340 1.613 . S
S339 N341 1.610 . S
N340 S339 1.613 . S
N340 C343 1.350 . S
N341 S339 1.610 . S
N341 C342 1.351 . S
C342 C336 1.428 . S
C342 N341 1.351 . S
C342 C343 1.434 . S
C343 C334 1.429 . S
C343 N340 1.350 . S
C343 C342 1.434 . S
C344 C345 1.369 . S
C344 C346 1.419 . S
C344 H348 0.930 . S
C345 C344 1.369 . S
C345 C354 1.429 . S
C346 C344 1.419 . S
C346 C347 1.363 . S
C346 H349 0.929 . S
C347 C346 1.363 . S
C347 C353 1.428 . S
H348 C344 0.930 . S
H349 C346 0.929 . S
S350 N351 1.613 . S
S350 N352 1.610 1_455 S
N351 S350 1.613 . S
N351 C354 1.350 1_455 S
N352 S350 1.610 1_655 S
N352 C353 1.351 . S
C353 C347 1.428 . S
C353 N352 1.351 . S
C353 C354 1.434 . S
C354 C345 1.429 . S
C354 N351 1.350 1_655 S
C354 C353 1.434 . S
C355 C356 1.369 . S
C355 C357 1.419 . S
C355 H359 0.930 . S
C356 C355 1.369 . S
C356 C365 1.429 . S
C357 C355 1.419 . S
C357 C358 1.363 . S
C357 H360 0.929 . S
C358 C357 1.363 . S
C358 C364 1.428 . S
H359 C355 0.930 . S
H360 C357 0.929 . S
S361 N362 1.613 . S
S361 N363 1.614 . S
N362 S361 1.613 . S
N362 C365 1.350 1_655 S
N363 S361 1.614 . S
N363 C364 1.353 1_655 S
C364 C358 1.428 . S
C364 N363 1.353 1_455 S
C364 C365 1.434 . S
C365 C356 1.429 . S
C365 N362 1.350 1_455 S
C365 C364 1.434 . S
C366 C367 1.369 . S
C366 C368 1.419 . S
C366 H370 0.930 . S
C367 C366 1.369 . S
C367 C376 1.429 . S
C368 C366 1.419 . S
C368 C369 1.363 . S
C368 H371 0.929 . S
C369 C368 1.363 . S
C369 C375 1.428 . S
H370 C366 0.930 . S
H371 C368 0.929 . S
S372 N373 1.613 . S
S372 N374 1.610 . S
N373 S372 1.613 . S
N373 C376 1.350 . S
N374 S372 1.610 . S
N374 C375 1.351 . S
C375 C369 1.428 . S
C375 N374 1.351 . S
C375 C376 1.434 . S
C376 C367 1.429 . S
C376 N373 1.350 . S
C376 C375 1.434 . S
C377 C378 1.369 . S
C377 C379 1.419 . S
C377 H381 0.930 . S
C378 C377 1.369 . S
C378 C387 1.429 . S
C379 C377 1.419 . S
C379 C380 1.363 . S
C379 H382 0.929 . S
C380 C379 1.363 . S
C380 C386 1.428 . S
H381 C377 0.930 . S
H382 C379 0.929 . S
S383 N384 1.613 . S
S383 N385 1.610 1_554 S
N384 S383 1.613 . S
N384 C387 1.350 1_554 S
N385 S383 1.610 1_556 S
N385 C386 1.351 . S
C386 C380 1.428 . S
C386 N385 1.351 . S
C386 C387 1.434 . S
C387 C378 1.429 . S
C387 N384 1.350 1_556 S
C387 C386 1.434 . S
C388 C389 1.369 . S
C388 C390 1.419 . S
C388 H392 0.930 . S
C389 C388 1.369 . S
C389 C398 1.429 . S
C390 C388 1.419 . S
C390 C391 1.363 . S
C390 H393 0.929 . S
C391 C390 1.363 . S
C391 C397 1.428 . S
H392 C388 0.930 . S
H393 C390 0.929 . S
S394 N395 1.613 . S
S394 N396 1.610 . S
N395 S394 1.613 . S
N395 C398 1.350 . S
N396 S394 1.610 . S
N396 C397 1.351 . S
C397 C391 1.428 . S
C397 N396 1.351 . S
C397 C398 1.434 . S
C398 C389 1.429 . S
C398 N395 1.350 . S
C398 C397 1.434 . S
C270 C130 1.491 . S
C268 C14 1.449 . S
C279 C40 1.502 . S
C281 C200 1.520 . S
C290 C76 1.471 . S
C292 C252 1.489 . S
C301 C3 1.480 . S
C303 C146 1.479 . S
C314 C190 1.509 . S
C312 C38 1.497 . S
C323 C74 1.464 . S
C325 C236 1.483 . S
C336 C183 1.472 . S
C334 C86 1.428 . S
C345 C2 1.464 1_656 S
C347 C243 1.484 . S
C358 C137 1.469 . S
C356 C39 1.471 . S
C369 C199 1.487 . S
C367 C75 1.495 . S
C380 C253 1.492 . S
C378 C4 1.475 . S
C389 C50 1.451 . S
C391 C147 1.494 . S
