# Generated by pormake.
# Topology myd, (4,6)-cn, num edge types: 1
# Building blocks:
#     Node 0, Type 0, BuildingBlock: KOZSID_clean_sbu_0, # of connection points: 4
#     Node 1, Type 0, BuildingBlock: KOZSID_clean_sbu_0, # of connection points: 4
#     Node 2, Type 0, BuildingBlock: KOZSID_clean_sbu_0, # of connection points: 4
#     Node 3, Type 0, BuildingBlock: KOZSID_clean_sbu_0, # of connection points: 4
#     Node 4, Type 0, BuildingBlock: KOZSID_clean_sbu_0, # of connection points: 4
#     Node 5, Type 0, BuildingBlock: KOZSID_clean_sbu_0, # of connection points: 4
#     Node 6, Type 0, BuildingBlock: KOZSID_clean_sbu_0, # of connection points: 4
#     Node 7, Type 0, BuildingBlock: KOZSID_clean_sbu_0, # of connection points: 4
#     Node 8, Type 0, BuildingBlock: KOZSID_clean_sbu_0, # of connection points: 4
#     Node 9, Type 0, BuildingBlock: KOZSID_clean_sbu_0, # of connection points: 4
#     Node 10, Type 0, BuildingBlock: KOZSID_clean_sbu_0, # of connection points: 4
#     Node 11, Type 0, BuildingBlock: KOZSID_clean_sbu_0, # of connection points: 4
#     Node 12, Type 1, BuildingBlock: VOLQOD_clean_sbu_1, # of connection points: 6
#     Node 13, Type 1, BuildingBlock: VOLQOD_clean_sbu_1, # of connection points: 6
#     Node 14, Type 1, BuildingBlock: VOLQOD_clean_sbu_1, # of connection points: 6
#     Node 15, Type 1, BuildingBlock: VOLQOD_clean_sbu_1, # of connection points: 6
#     Node 16, Type 1, BuildingBlock: VOLQOD_clean_sbu_1, # of connection points: 6
#     Node 17, Type 1, BuildingBlock: VOLQOD_clean_sbu_1, # of connection points: 6
#     Node 18, Type 1, BuildingBlock: VOLQOD_clean_sbu_1, # of connection points: 6
#     Node 19, Type 1, BuildingBlock: VOLQOD_clean_sbu_1, # of connection points: 6
#     Edge 20, Type (0, 1), BuildingBlock: XIVTED_clean_linker_0, # of connection points: 2
#     Edge 21, Type (0, 1), BuildingBlock: XIVTED_clean_linker_0, # of connection points: 2
#     Edge 22, Type (0, 1), BuildingBlock: XIVTED_clean_linker_0, # of connection points: 2
#     Edge 23, Type (0, 1), BuildingBlock: XIVTED_clean_linker_0, # of connection points: 2
#     Edge 24, Type (0, 1), BuildingBlock: XIVTED_clean_linker_0, # of connection points: 2
#     Edge 25, Type (0, 1), BuildingBlock: XIVTED_clean_linker_0, # of connection points: 2
#     Edge 26, Type (0, 1), BuildingBlock: XIVTED_clean_linker_0, # of connection points: 2
#     Edge 27, Type (0, 1), BuildingBlock: XIVTED_clean_linker_0, # of connection points: 2
#     Edge 28, Type (0, 1), BuildingBlock: XIVTED_clean_linker_0, # of connection points: 2
#     Edge 29, Type (0, 1), BuildingBlock: XIVTED_clean_linker_0, # of connection points: 2
#     Edge 30, Type (0, 1), BuildingBlock: XIVTED_clean_linker_0, # of connection points: 2
#     Edge 31, Type (0, 1), BuildingBlock: XIVTED_clean_linker_0, # of connection points: 2
#     Edge 32, Type (0, 1), BuildingBlock: XIVTED_clean_linker_0, # of connection points: 2
#     Edge 33, Type (0, 1), BuildingBlock: XIVTED_clean_linker_0, # of connection points: 2
#     Edge 34, Type (0, 1), BuildingBlock: XIVTED_clean_linker_0, # of connection points: 2
#     Edge 35, Type (0, 1), BuildingBlock: XIVTED_clean_linker_0, # of connection points: 2
#     Edge 36, Type (0, 1), BuildingBlock: XIVTED_clean_linker_0, # of connection points: 2
#     Edge 37, Type (0, 1), BuildingBlock: XIVTED_clean_linker_0, # of connection points: 2
#     Edge 38, Type (0, 1), BuildingBlock: XIVTED_clean_linker_0, # of connection points: 2
#     Edge 39, Type (0, 1), BuildingBlock: XIVTED_clean_linker_0, # of connection points: 2
#     Edge 40, Type (0, 1), BuildingBlock: XIVTED_clean_linker_0, # of connection points: 2
#     Edge 41, Type (0, 1), BuildingBlock: XIVTED_clean_linker_0, # of connection points: 2
#     Edge 42, Type (0, 1), BuildingBlock: XIVTED_clean_linker_0, # of connection points: 2
#     Edge 43, Type (0, 1), BuildingBlock: XIVTED_clean_linker_0, # of connection points: 2
#     Edge 44, Type (0, 1), BuildingBlock: XIVTED_clean_linker_0, # of connection points: 2
#     Edge 45, Type (0, 1), BuildingBlock: XIVTED_clean_linker_0, # of connection points: 2
#     Edge 46, Type (0, 1), BuildingBlock: XIVTED_clean_linker_0, # of connection points: 2
#     Edge 47, Type (0, 1), BuildingBlock: XIVTED_clean_linker_0, # of connection points: 2
#     Edge 48, Type (0, 1), BuildingBlock: XIVTED_clean_linker_0, # of connection points: 2
#     Edge 49, Type (0, 1), BuildingBlock: XIVTED_clean_linker_0, # of connection points: 2
#     Edge 50, Type (0, 1), BuildingBlock: XIVTED_clean_linker_0, # of connection points: 2
#     Edge 51, Type (0, 1), BuildingBlock: XIVTED_clean_linker_0, # of connection points: 2
#     Edge 52, Type (0, 1), BuildingBlock: XIVTED_clean_linker_0, # of connection points: 2
#     Edge 53, Type (0, 1), BuildingBlock: XIVTED_clean_linker_0, # of connection points: 2
#     Edge 54, Type (0, 1), BuildingBlock: XIVTED_clean_linker_0, # of connection points: 2
#     Edge 55, Type (0, 1), BuildingBlock: XIVTED_clean_linker_0, # of connection points: 2
#     Edge 56, Type (0, 1), BuildingBlock: XIVTED_clean_linker_0, # of connection points: 2
#     Edge 57, Type (0, 1), BuildingBlock: XIVTED_clean_linker_0, # of connection points: 2
#     Edge 58, Type (0, 1), BuildingBlock: XIVTED_clean_linker_0, # of connection points: 2
#     Edge 59, Type (0, 1), BuildingBlock: XIVTED_clean_linker_0, # of connection points: 2
#     Edge 60, Type (0, 1), BuildingBlock: XIVTED_clean_linker_0, # of connection points: 2
#     Edge 61, Type (0, 1), BuildingBlock: XIVTED_clean_linker_0, # of connection points: 2
#     Edge 62, Type (0, 1), BuildingBlock: XIVTED_clean_linker_0, # of connection points: 2
#     Edge 63, Type (0, 1), BuildingBlock: XIVTED_clean_linker_0, # of connection points: 2
#     Edge 64, Type (0, 1), BuildingBlock: XIVTED_clean_linker_0, # of connection points: 2
#     Edge 65, Type (0, 1), BuildingBlock: XIVTED_clean_linker_0, # of connection points: 2
#     Edge 66, Type (0, 1), BuildingBlock: XIVTED_clean_linker_0, # of connection points: 2
#     Edge 67, Type (0, 1), BuildingBlock: XIVTED_clean_linker_0, # of connection points: 2
# Relax obj value: 0.174
# Max RMSD: 0.167
# Mean RMSD: 0.128
data_MOF--net-myd--node1-KOZSID_clean_sbu_0--node2-VOLQOD_clean_sbu_1--edge1-XIVTED_clean_linker_0
_symmetry_space_group_name_H-M    P1
_symmetry_Int_Tables_number       1
_symmetry_cell_setting            triclinic
loop_
_symmetry_equiv_pos_as_xyz
'x, y, z'
_cell_length_a     52.212712
_cell_length_b     52.330415
_cell_length_c     52.347326
_cell_angle_alpha  92.686344
_cell_angle_beta   90.444583
_cell_angle_gamma 93.069693
loop_
_atom_site_label
_atom_site_type_symbol
_atom_site_fract_x
_atom_site_fract_y
_atom_site_fract_z
_atom_type_partial_charge
C0 C 0.97714 0.27757 0.35321 0.0
C1 C 0.95276 0.27775 0.36341 0.0
C2 C 0.93936 0.25637 0.35287 0.0
C3 C 0.95635 0.24444 0.33691 0.0
N4 N 0.97946 0.257 0.337 0.0
Co5 Co 0.00923 0.24834 0.31583 0.0
N6 N 0.98716 0.22742 0.29103 0.0
C7 C 0.96324 0.21774 0.29555 0.0
C8 C 0.95289 0.20326 0.2751 0.0
C9 C 0.97157 0.20356 0.25681 0.0
C10 C 0.99243 0.21821 0.26717 0.0
N11 N 0.03925 0.24023 0.29465 0.0
C12 C 0.04014 0.23057 0.27024 0.0
C13 C 0.06537 0.2275 0.26292 0.0
C14 C 0.0806 0.23511 0.28364 0.0
C15 C 0.06396 0.24243 0.30243 0.0
N16 N 0.03108 0.2688 0.34106 0.0
C17 C 0.05647 0.26739 0.34459 0.0
C18 C 0.06618 0.28497 0.363 0.0
C19 C 0.04556 0.29824 0.37134 0.0
C20 C 0.02442 0.28787 0.35753 0.0
N21 N 0.01352 0.21754 0.335 0.0
C22 C 0.01217 0.17101 0.35949 0.0
C23 C 0.01848 0.17212 0.33364 0.0
C24 C 0.01893 0.19533 0.32184 0.0
C25 C 0.00826 0.19407 0.37337 0.0
C26 C 0.00912 0.21721 0.36074 0.0
N27 N 0.00457 0.27869 0.29633 0.0
C28 C 0.0216 0.31624 0.27611 0.0
C29 C 0.99754 0.31988 0.26499 0.0
C30 C 0.97702 0.30275 0.27075 0.0
C31 C 0.98085 0.28268 0.28663 0.0
C32 C 0.02474 0.29543 0.29151 0.0
H33 H 0.96461 0.26995 0.29051 0.0
H34 H 0.04356 0.29266 0.2992 0.0
H35 H 0.0227 0.19494 0.30169 0.0
H36 H 0.00532 0.23468 0.37153 0.0
C37 C 0.95 0.22563 0.31759 0.0
C38 C 0.99824 0.29624 0.35994 0.0
C39 C 0.01769 0.22061 0.25499 0.0
C40 C 0.07089 0.25429 0.32627 0.0
H41 H 0.94547 0.29192 0.3768 0.0
H42 H 0.91924 0.2511 0.35536 0.0
H43 H 0.93384 0.19407 0.27342 0.0
H44 H 0.97019 0.19371 0.23816 0.0
H45 H 0.07204 0.21981 0.24476 0.0
H46 H 0.10133 0.2356 0.28472 0.0
H47 H 0.08609 0.28896 0.36842 0.0
H48 H 0.04619 0.31402 0.38546 0.0
H49 H 0.02251 0.15499 0.32229 0.0
H50 H 0.0036 0.19414 0.39349 0.0
H51 H 0.03801 0.32912 0.27281 0.0
H52 H 0.95814 0.3041 0.26244 0.0
C53 C 0.00316 0.71073 0.11609 0.0
C54 C 0.98113 0.70291 0.10225 0.0
C55 C 0.96191 0.71697 0.11206 0.0
C56 C 0.97329 0.73236 0.1313 0.0
N57 N 0.99874 0.72947 0.13394 0.0
Co58 Co 0.02256 0.74629 0.16064 0.0
N59 N 0.99382 0.76463 0.17722 0.0
C60 C 0.96918 0.76447 0.16894 0.0
C61 C 0.95407 0.77965 0.18381 0.0
C62 C 0.97002 0.79029 0.20263 0.0
C63 C 0.99401 0.78083 0.19818 0.0
N64 N 0.0463 0.76229 0.18786 0.0
C65 C 0.04133 0.77804 0.20827 0.0
C66 C 0.0632 0.78399 0.22312 0.0
C67 C 0.08273 0.7718 0.2115 0.0
C68 C 0.07172 0.759 0.19043 0.0
N69 N 0.05138 0.72865 0.14354 0.0
C70 C 0.07662 0.73129 0.14962 0.0
C71 C 0.09157 0.71604 0.13458 0.0
C72 C 0.07478 0.70254 0.11823 0.0
C73 C 0.05058 0.7104 0.12436 0.0
N74 N 0.02928 0.77627 0.13916 0.0
C75 C 0.0364 0.82401 0.11686 0.0
C76 C 0.05673 0.81296 0.12889 0.0
C77 C 0.05286 0.78914 0.13955 0.0
C78 C 0.01306 0.80985 0.11428 0.0
C79 C 0.00997 0.78616 0.12541 0.0
N80 N 0.01579 0.71675 0.18247 0.0
C81 C 0.03124 0.68566 0.21085 0.0
C82 C 0.00635 0.67992 0.2192 0.0
C83 C 0.98614 0.69162 0.20762 0.0
C84 C 0.99122 0.70956 0.18915 0.0
C85 C 0.03553 0.70409 0.19262 0.0
H86 H 0.97503 0.7179 0.18102 0.0
H87 H 0.055 0.70835 0.18757 0.0
H88 H 0.06907 0.78199 0.14867 0.0
H89 H 0.9915 0.77673 0.1233 0.0
C90 C 0.96053 0.74898 0.14783 0.0
C91 C 0.02721 0.69816 0.11339 0.0
C92 C 0.01643 0.78809 0.21416 0.0
C93 C 0.08499 0.74498 0.17194 0.0
H94 H 0.97904 0.68804 0.0872 0.0
H95 H 0.94188 0.71553 0.1064 0.0
H96 H 0.93384 0.78252 0.18134 0.0
H97 H 0.96462 0.80356 0.21787 0.0
H98 H 0.06493 0.79608 0.24046 0.0
H99 H 0.10264 0.77246 0.21752 0.0
H100 H 0.112 0.71385 0.13632 0.0
H101 H 0.07953 0.68773 0.10418 0.0
H102 H 0.07544 0.82292 0.13062 0.0
H103 H 0.99681 0.81753 0.10485 0.0
H104 H 0.04746 0.6769 0.21922 0.0
H105 H 0.96649 0.68727 0.21315 0.0
C106 C 0.36807 0.97007 0.2868 0.0
C107 C 0.37417 0.94528 0.29162 0.0
C108 C 0.36207 0.92968 0.2731 0.0
C109 C 0.3494 0.9458 0.25808 0.0
N110 N 0.35319 0.97082 0.26557 0.0
Co111 Co 0.33717 0.00078 0.25059 0.0
N112 N 0.31428 0.97766 0.22756 0.0
C113 C 0.31349 0.95173 0.22579 0.0
C114 C 0.29561 0.94115 0.20854 0.0
C115 C 0.28425 0.9615 0.19873 0.0
C116 C 0.29591 0.98343 0.21061 0.0
N117 N 0.32156 0.03082 0.23527 0.0
C118 C 0.30304 0.03158 0.21704 0.0
C119 C 0.29818 0.05661 0.2116 0.0
C120 C 0.31433 0.07219 0.22675 0.0
C121 C 0.32804 0.05591 0.24056 0.0
N122 N 0.35943 0.02378 0.27428 0.0
C123 C 0.36111 0.04968 0.27552 0.0
C124 C 0.37629 0.06007 0.29524 0.0
C125 C 0.3842 0.0396 0.30783 0.0
C126 C 0.37343 0.01783 0.29489 0.0
N127 N 0.36386 0.00177 0.22359 0.0
C128 C 0.39279 0.00525 0.17864 0.0
C129 C 0.39129 0.02642 0.19567 0.0
C130 C 0.37693 0.02423 0.21798 0.0
C131 C 0.3818 0.98181 0.18568 0.0
C132 C 0.36785 0.98046 0.20821 0.0
N133 N 0.31046 -0.00024 0.27713 0.0
C134 C 0.28229 0.0212 0.30653 0.0
C135 C 0.27177 0.99766 0.31405 0.0
C136 C 0.28112 0.97527 0.30306 0.0
C137 C 0.30015 0.97674 0.28466 0.0
C138 C 0.30175 0.02181 0.28831 0.0
H139 H 0.30605 0.95897 0.27658 0.0
H140 H 0.30939 0.04026 0.28342 0.0
H141 H 0.37595 0.04122 0.22978 0.0
H142 H 0.35975 0.96208 0.21212 0.0
C143 C 0.33037 0.9379 0.23999 0.0
C144 C 0.37512 0.99207 0.30396 0.0
C145 C 0.28935 0.00927 0.20461 0.0
C146 C 0.34624 0.0636 0.25946 0.0
H147 H 0.38524 0.93911 0.30756 0.0
H148 H 0.36121 0.90894 0.2718 0.0
H149 H 0.2915 0.92105 0.2035 0.0
H150 H 0.26926 0.96036 0.18425 0.0
H151 H 0.2843 0.06298 0.19818 0.0
H152 H 0.3157 0.09292 0.22778 0.0
H153 H 0.38007 0.08016 0.30061 0.0
H154 H 0.39573 0.04065 0.32514 0.0
H155 H 0.3999 0.04495 0.19114 0.0
H156 H 0.38322 0.96468 0.17342 0.0
H157 H 0.2756 0.03901 0.3147 0.0
H158 H 0.27321 0.95662 0.30806 0.0
C159 C 0.6324 0.47814 0.22754 0.0
C160 C 0.61941 0.45567 0.21863 0.0
C161 C 0.63068 0.43618 0.23019 0.0
C162 C 0.6498 0.44793 0.2454 0.0
N163 N 0.65104 0.47373 0.24455 0.0
Co164 Co 0.67591 0.49867 0.26289 0.0
N165 N 0.69642 0.4702 0.27505 0.0
C166 C 0.69174 0.44475 0.27001 0.0
C167 C 0.70967 0.42995 0.28033 0.0
C168 C 0.72691 0.44694 0.29256 0.0
C169 C 0.7184 0.47122 0.28901 0.0
N170 N 0.7001 0.5237 0.2821 0.0
C171 C 0.72112 0.51957 0.29629 0.0
C172 C 0.73235 0.54236 0.30688 0.0
C173 C 0.71772 0.56151 0.29931 0.0
C174 C 0.69852 0.54943 0.28456 0.0
N175 N 0.65609 0.52709 0.24955 0.0
C176 C 0.66036 0.55255 0.2545 0.0
C177 C 0.64478 0.56727 0.24078 0.0
C178 C 0.63016 0.55018 0.2256 0.0
C179 C 0.63768 0.52604 0.23118 0.0
N180 N 0.65416 0.49724 0.294 0.0
C181 C 0.63045 0.49628 0.34214 0.0
C182 C 0.63303 0.51893 0.32918 0.0
C183 C 0.64487 0.519 0.30533 0.0
C184 C 0.63834 0.47384 0.32999 0.0
C185 C 0.64967 0.47467 0.30597 0.0
N186 N 0.69795 0.49999 0.23228 0.0
C187 C 0.72936 0.52288 0.20703 0.0
C188 C 0.73478 0.50031 0.19321 0.0
C189 C 0.72025 0.47792 0.19827 0.0
C190 C 0.70206 0.47818 0.21771 0.0
C191 C 0.71083 0.52235 0.22617 0.0
H192 H 0.69204 0.46037 0.22114 0.0
H193 H 0.70763 0.5401 0.23626 0.0
H194 H 0.64684 0.53706 0.29691 0.0
H195 H 0.65512 0.45683 0.29789 0.0
C196 C 0.66952 0.43535 0.25683 0.0
C197 C 0.62863 0.50282 0.21701 0.0
C198 C 0.73133 0.49459 0.29995 0.0
C199 C 0.68001 0.56191 0.27118 0.0
H200 H 0.6043 0.45361 0.20429 0.0
H201 H 0.62657 0.41583 0.22659 0.0
H202 H 0.70996 0.40926 0.2794 0.0
H203 H 0.74366 0.44201 0.3032 0.0
H204 H 0.7495 0.54496 0.31865 0.0
H205 H 0.72099 0.58186 0.30362 0.0
H206 H 0.64474 0.58797 0.24107 0.0
H207 H 0.61617 0.55487 0.21144 0.0
H208 H 0.62699 0.53679 0.33788 0.0
H209 H 0.63611 0.45571 0.33914 0.0
H210 H 0.73965 0.54084 0.20336 0.0
H211 H 0.72366 0.45995 0.18807 0.0
C212 C 0.31046 0.38399 0.99043 0.0
C213 C 0.31745 0.39493 0.96774 0.0
C214 C 0.30169 0.38343 0.94914 0.0
C215 C 0.28609 0.36621 0.96156 0.0
N216 N 0.2905 0.36654 0.98707 0.0
Co217 Co 0.27419 0.34341 0.01244 0.0
N218 N 0.25543 0.32225 0.98458 0.0
C219 C 0.25556 0.32638 0.95924 0.0
C220 C 0.24102 0.30841 0.94482 0.0
C221 C 0.23106 0.29177 0.96194 0.0
C222 C 0.24012 0.30062 0.98591 0.0
N223 N 0.258 0.32027 0.03792 0.0
C224 C 0.24238 0.2989 0.03417 0.0
C225 C 0.23545 0.2884 0.05717 0.0
C226 C 0.24716 0.30367 0.07613 0.0
C227 C 0.26051 0.32253 0.06371 0.0
N228 N 0.29326 0.36442 0.04018 0.0
C229 C 0.2915 0.36195 0.06571 0.0
C230 C 0.3085 0.37801 0.07969 0.0
C231 C 0.32242 0.391 0.06199 0.0
C232 C 0.31296 0.3821 0.03821 0.0
N233 N 0.24439 0.36568 0.01568 0.0
C234 C 0.19626 0.3875 0.01964 0.0
C235 C 0.21008 0.38205 0.04147 0.0
C236 C 0.23404 0.37157 0.03907 0.0
C237 C 0.20794 0.38404 0.99595 0.0
C238 C 0.23187 0.37335 0.99445 0.0
N239 N 0.30335 0.32091 0.00915 0.0
C240 C 0.33242 0.2926 0.02804 0.0
C241 C 0.34108 0.28473 0.00389 0.0
C242 C 0.33149 0.29625 0.98254 0.0
C243 C 0.31273 0.31413 0.98557 0.0
C244 C 0.31385 0.3108 0.03024 0.0
H245 H 0.30559 0.32177 0.96854 0.0
H246 H 0.30783 0.31605 0.04912 0.0
H247 H 0.24335 0.36776 0.05645 0.0
H248 H 0.23928 0.37074 0.97578 0.0
C249 C 0.26997 0.347 0.94951 0.0
C250 C 0.32476 0.38895 0.01424 0.0
C251 C 0.23365 0.28783 0.00933 0.0
C252 C 0.27624 0.3421 0.07566 0.0
H253 H 0.33309 0.4089 0.96485 0.0
H254 H 0.3026 0.38614 0.92878 0.0
H255 H 0.23817 0.30741 0.92429 0.0
H256 H 0.21857 0.27497 0.95732 0.0
H257 H 0.22326 0.27139 0.05995 0.0
H258 H 0.24626 0.30116 0.09651 0.0
H259 H 0.31147 0.37903 0.10021 0.0
H260 H 0.33842 0.40462 0.06606 0.0
H261 H 0.20221 0.38532 0.06036 0.0
H262 H 0.19816 0.38832 0.97846 0.0
H263 H 0.3397 0.28451 0.04516 0.0
H264 H 0.33759 0.29071 0.96344 0.0
C265 C 0.21545 0.61593 0.47943 0.0
C266 C 0.21011 0.60146 0.45697 0.0
C267 C 0.22583 0.61144 0.43879 0.0
C268 C 0.23972 0.63135 0.4512 0.0
N269 N 0.23424 0.63428 0.47633 0.0
Co270 Co 0.2485 0.66141 0.50152 0.0
N271 N 0.26784 0.67925 0.47397 0.0
C272 C 0.2689 0.67174 0.44891 0.0
C273 C 0.28337 0.68825 0.4346 0.0
C274 C 0.292 0.7075 0.45148 0.0
C275 C 0.28228 0.70153 0.47522 0.0
N276 N 0.26269 0.68851 0.52684 0.0
C277 C 0.27764 0.70988 0.52302 0.0
C278 C 0.28321 0.72379 0.54583 0.0
C279 C 0.27117 0.7108 0.56471 0.0
C280 C 0.25904 0.68977 0.55245 0.0
N281 N 0.22891 0.64362 0.52895 0.0
C282 C 0.22921 0.64973 0.55435 0.0
C283 C 0.21233 0.63476 0.56792 0.0
C284 C 0.20007 0.61854 0.55001 0.0
C285 C 0.21033 0.62461 0.52659 0.0
N286 N 0.27883 0.64079 0.50785 0.0
C287 C 0.32676 0.6203 0.51702 0.0
C288 C 0.31137 0.62823 0.53721 0.0
C289 C 0.28762 0.63801 0.53225 0.0
C290 C 0.3169 0.62079 0.4922 0.0
C291 C 0.29302 0.63097 0.48809 0.0
N292 N 0.2188 0.68243 0.49531 0.0
C293 C 0.18912 0.71289 0.51166 0.0
C294 C 0.18254 0.71916 0.48691 0.0
C295 C 0.19293 0.70524 0.46637 0.0
C296 C 0.21089 0.68699 0.47099 0.0
C297 C 0.20697 0.69448 0.5154 0.0
H298 H 0.21882 0.67736 0.45466 0.0
H299 H 0.21153 0.69089 0.53473 0.0
H300 H 0.27717 0.6438 0.54857 0.0
H301 H 0.28691 0.63134 0.46872 0.0
C302 C 0.25563 0.6494 0.43929 0.0
C303 C 0.20033 0.61352 0.50241 0.0
C304 C 0.28708 0.71773 0.4983 0.0
C305 C 0.24335 0.67143 0.56434 0.0
H306 H 0.19558 0.58606 0.45388 0.0
H307 H 0.22609 0.60575 0.41864 0.0
H308 H 0.28699 0.68661 0.41427 0.0
H309 H 0.30395 0.72415 0.44683 0.0
H310 H 0.2947 0.74156 0.54854 0.0
H311 H 0.27105 0.71619 0.58492 0.0
H312 H 0.20844 0.63635 0.58819 0.0
H313 H 0.18465 0.60453 0.55353 0.0
H314 H 0.31786 0.62738 0.55685 0.0
H315 H 0.32801 0.61446 0.47593 0.0
H316 H 0.18097 0.72257 0.52818 0.0
H317 H 0.18819 0.70923 0.44683 0.0
C318 C 0.78556 0.84957 0.4671 0.0
C319 C 0.79018 0.85636 0.44221 0.0
C320 C 0.77399 0.8409 0.4269 0.0
C321 C 0.76045 0.82569 0.4433 0.0
N322 N 0.76667 0.83095 0.46819 0.0
Co323 Co 0.75292 0.81297 0.49854 0.0
N324 N 0.73387 0.78616 0.47602 0.0
C325 C 0.73362 0.78437 0.45013 0.0
C326 C 0.71918 0.76362 0.44005 0.0
C327 C 0.70966 0.7514 0.4607 0.0
C328 C 0.71887 0.76549 0.48229 0.0
N329 N 0.73847 0.79561 0.52899 0.0
C330 C 0.72228 0.77461 0.53022 0.0
C331 C 0.71646 0.76933 0.55536 0.0
C332 C 0.72917 0.78784 0.57051 0.0
C333 C 0.74201 0.80326 0.55388 0.0
N334 N 0.77295 0.83914 0.52095 0.0
C335 C 0.77332 0.8412 0.54679 0.0
C336 C 0.79064 0.85971 0.55674 0.0
C337 C 0.80261 0.86958 0.53602 0.0
C338 C 0.79171 0.85651 0.5146 0.0
N339 N 0.72258 0.83454 0.49869 0.0
C340 C 0.67498 0.85742 0.5009 0.0
C341 C 0.69172 0.85941 0.52189 0.0
C342 C 0.71531 0.84791 0.52038 0.0
C343 C 0.68319 0.84553 0.47829 0.0
C344 C 0.70696 0.83464 0.47752 0.0
N345 N 0.78277 0.79112 0.49831 0.0
C346 C 0.81236 0.76564 0.52049 0.0
C347 C 0.82189 0.75614 0.49724 0.0
C348 C 0.81229 0.76527 0.47467 0.0
C349 C 0.79283 0.78249 0.47561 0.0
C350 C 0.79315 0.78332 0.5206 0.0
H351 H 0.78582 0.78808 0.45766 0.0
H352 H 0.78664 0.79011 0.53886 0.0
H353 H 0.72689 0.8495 0.53724 0.0
H354 H 0.71179 0.8258 0.45971 0.0
C355 C 0.74569 0.80344 0.43587 0.0
C356 C 0.80121 0.85948 0.48881 0.0
C357 C 0.71204 0.75905 0.50826 0.0
C358 C 0.75852 0.82424 0.56111 0.0
H359 H 0.80466 0.87014 0.43581 0.0
H360 H 0.77346 0.83966 0.4062 0.0
H361 H 0.71556 0.75831 0.42006 0.0
H362 H 0.69702 0.7343 0.45997 0.0
H363 H 0.70436 0.75366 0.56209 0.0
H364 H 0.72926 0.78967 0.59119 0.0
H365 H 0.79486 0.86464 0.5767 0.0
H366 H 0.81821 0.88406 0.53669 0.0
H367 H 0.68621 0.86877 0.53976 0.0
H368 H 0.67109 0.8442 0.46131 0.0
H369 H 0.81955 0.75932 0.53847 0.0
H370 H 0.81898 0.75834 0.4562 0.0
C371 C 0.48217 0.80083 0.87173 0.0
C372 C 0.45849 0.80621 0.88185 0.0
C373 C 0.44199 0.786 0.87456 0.0
C374 C 0.45651 0.76953 0.86044 0.0
N375 N 0.48143 0.77774 0.85878 0.0
Co376 Co 0.50883 0.76127 0.83819 0.0
N377 N 0.48367 0.73411 0.82337 0.0
C378 C 0.45862 0.73056 0.82945 0.0
C379 C 0.44628 0.7102 0.81623 0.0
C380 C 0.46452 0.70013 0.80078 0.0
C381 C 0.487 0.71504 0.80546 0.0
N382 N 0.53621 0.74528 0.81715 0.0
C383 C 0.5345 0.7253 0.79967 0.0
C384 C 0.55814 0.72081 0.78884 0.0
C385 C 0.5754 0.73852 0.7999 0.0
C386 C 0.5614 0.75283 0.8167 0.0
N387 N 0.53402 0.78826 0.85323 0.0
C388 C 0.55967 0.79009 0.84965 0.0
C389 C 0.57166 0.81135 0.86164 0.0
C390 C 0.55247 0.82418 0.87314 0.0
C391 C 0.5298 0.80989 0.86747 0.0
N392 N 0.51618 0.73844 0.86649 0.0
C393 C 0.52621 0.69627 0.8958 0.0
C394 C 0.54624 0.71173 0.88632 0.0
C395 C 0.54084 0.7327 0.87207 0.0
C396 C 0.50126 0.70417 0.89309 0.0
C397 C 0.49677 0.72539 0.87874 0.0
N398 N 0.50146 0.78344 0.80976 0.0
C399 C 0.51601 0.81117 0.77657 0.0
C400 C 0.49107 0.81156 0.76679 0.0
C401 C 0.47133 0.79845 0.7794 0.0
C402 C 0.47687 0.78484 0.80085 0.0
C403 C 0.52078 0.79696 0.79788 0.0
H404 H 0.461 0.7753 0.80975 0.0
H405 H 0.54025 0.79679 0.80421 0.0
H406 H 0.55696 0.74321 0.86491 0.0
H407 H 0.47732 0.73005 0.87696 0.0
C408 C 0.44691 0.74756 0.84655 0.0
C409 C 0.50457 0.81865 0.87398 0.0
C410 C 0.51099 0.71029 0.79246 0.0
C411 C 0.57133 0.7735 0.83221 0.0
H412 H 0.45358 0.82331 0.89278 0.0
H413 H 0.42162 0.78405 0.87819 0.0
H414 H 0.42632 0.70367 0.81741 0.0
H415 H 0.46162 0.68374 0.78749 0.0
H416 H 0.56248 0.70631 0.77432 0.0
H417 H 0.59571 0.74079 0.79604 0.0
H418 H 0.59175 0.81754 0.86091 0.0
H419 H 0.55479 0.84251 0.88356 0.0
H420 H 0.56603 0.70706 0.88895 0.0
H421 H 0.48508 0.6932 0.90059 0.0
H422 H 0.53187 0.82112 0.76735 0.0
H423 H 0.45165 0.79867 0.77273 0.0
C424 C 0.5382 0.29223 0.6454 0.0
C425 C 0.56195 0.30093 0.63668 0.0
C426 C 0.57956 0.28573 0.64675 0.0
C427 C 0.56554 0.2687 0.66095 0.0
N428 N 0.54 0.27177 0.66004 0.0
Co429 Co 0.5125 0.25274 0.67908 0.0
N430 N 0.53855 0.23441 0.69864 0.0
C431 C 0.56435 0.23643 0.69606 0.0
C432 C 0.57724 0.22161 0.7122 0.0
C433 C 0.55861 0.20942 0.72598 0.0
C434 C 0.53531 0.21759 0.71746 0.0
N435 N 0.48489 0.23348 0.69797 0.0
C436 C 0.48672 0.21641 0.71652 0.0
C437 C 0.46267 0.20756 0.72454 0.0
C438 C 0.44506 0.21928 0.71043 0.0
C439 C 0.45922 0.23464 0.69474 0.0
N440 N 0.48649 0.27149 0.65993 0.0
C441 C 0.46065 0.26846 0.66119 0.0
C442 C 0.448 0.2855 0.64726 0.0
C443 C 0.4669 0.30081 0.63708 0.0
C444 C 0.49002 0.29206 0.64536 0.0
N445 N 0.51129 0.22471 0.65206 0.0
C446 C 0.50821 0.17834 0.62297 0.0
C447 C 0.48626 0.19152 0.6282 0.0
C448 C 0.48827 0.2147 0.64236 0.0
C449 C 0.532 0.18997 0.6299 0.0
C450 C 0.53309 0.21317 0.64426 0.0
N451 N 0.51371 0.28048 0.70596 0.0
C452 C 0.49216 0.30881 0.73535 0.0
C453 C 0.51565 0.31986 0.74427 0.0
C454 C 0.53813 0.31114 0.73349 0.0
C455 C 0.53674 0.29148 0.71458 0.0
C456 C 0.49163 0.28933 0.71621 0.0
H457 H 0.55452 0.28531 0.70734 0.0
H458 H 0.47318 0.28161 0.71005 0.0
H459 H 0.47076 0.22341 0.64612 0.0
H460 H 0.55171 0.22064 0.64972 0.0
C461 C 0.57592 0.25239 0.67824 0.0
C462 C 0.51475 0.30523 0.64111 0.0
C463 C 0.51065 0.20841 0.7275 0.0
C464 C 0.44896 0.25119 0.67764 0.0
H465 H 0.56612 0.31726 0.62515 0.0
H466 H 0.60022 0.28784 0.64518 0.0
H467 H 0.59775 0.21983 0.71372 0.0
H468 H 0.5618 0.19591 0.74057 0.0
H469 H 0.45824 0.19421 0.73924 0.0
H470 H 0.42438 0.21714 0.71173 0.0
H471 H 0.42751 0.28741 0.64579 0.0
H472 H 0.46394 0.31718 0.62575 0.0
H473 H 0.46746 0.18331 0.62251 0.0
H474 H 0.54952 0.18042 0.62583 0.0
H475 H 0.47426 0.31512 0.74311 0.0
H476 H 0.55679 0.3189 0.74014 0.0
C477 C 0.87846 0.47344 0.79063 0.0
C478 C 0.88514 0.44904 0.79619 0.0
C479 C 0.87019 0.43239 0.78078 0.0
C480 C 0.85533 0.44759 0.76675 0.0
N481 N 0.86043 0.47291 0.77187 0.0
Co482 Co 0.84246 0.50196 0.75759 0.0
N483 N 0.81509 0.478 0.74136 0.0
C484 C 0.8135 0.45213 0.74206 0.0
C485 C 0.79218 0.44088 0.72984 0.0
C486 C 0.77929 0.46074 0.72095 0.0
C487 C 0.79357 0.48307 0.72826 0.0
N488 N 0.825 0.53107 0.74265 0.0
C489 C 0.80313 0.53107 0.72849 0.0
C490 C 0.79812 0.5556 0.72148 0.0
C491 C 0.81761 0.57158 0.73137 0.0
C492 C 0.83334 0.55603 0.74386 0.0
N493 N 0.86906 0.52589 0.7751 0.0
C494 C 0.87157 0.55163 0.77374 0.0
C495 C 0.88981 0.56305 0.79015 0.0
C496 C 0.8989 0.5435 0.80341 0.0
C497 C 0.8857 0.52125 0.79412 0.0
N498 N 0.8636 0.49924 0.72602 0.0
C499 C 0.88661 0.49757 0.67743 0.0
C500 C 0.88969 0.51941 0.69372 0.0
C501 C 0.87816 0.51981 0.71776 0.0
C502 C 0.87348 0.47603 0.68651 0.0
C503 C 0.86254 0.47717 0.71073 0.0
N504 N 0.8214 0.50463 0.78863 0.0
C505 C 0.79949 0.53002 0.82043 0.0
C506 C 0.78996 0.50786 0.8318 0.0
C507 C 0.79697 0.48416 0.82159 0.0
C508 C 0.81248 0.48297 0.80011 0.0
C509 C 0.81527 0.52799 0.79906 0.0
H510 H 0.81672 0.4643 0.79284 0.0
H511 H 0.8221 0.54546 0.79105 0.0
H512 H 0.88083 0.53726 0.72887 0.0
H513 H 0.85285 0.46002 0.71619 0.0
C514 C 0.83295 0.43894 0.75341 0.0
C515 C 0.88776 0.49645 0.80525 0.0
C516 C 0.78636 0.50852 0.72157 0.0
C517 C 0.85475 0.56458 0.7587 0.0
H518 H 0.89842 0.44388 0.81084 0.0
H519 H 0.86882 0.41171 0.7813 0.0
H520 H 0.78679 0.42065 0.72744 0.0
H521 H 0.76153 0.45897 0.71005 0.0
H522 H 0.78191 0.56141 0.71058 0.0
H523 H 0.81973 0.59217 0.73011 0.0
H524 H 0.89489 0.58331 0.79311 0.0
H525 H 0.91286 0.54554 0.81885 0.0
H526 H 0.89996 0.53654 0.68755 0.0
H527 H 0.87126 0.45842 0.67479 0.0
H528 H 0.79463 0.5488 0.82784 0.0
H529 H 0.78972 0.46646 0.82952 0.0
C530 C 0.15462 0.03424 0.78809 0.0
C531 C 0.14933 0.05883 0.79672 0.0
C532 C 0.16125 0.07514 0.78039 0.0
C533 C 0.17302 0.05961 0.76275 0.0
N534 N 0.16883 0.03435 0.76657 0.0
Co535 Co 0.18329 0.00498 0.74659 0.0
N536 N 0.20629 0.02874 0.72688 0.0
C537 C 0.20786 0.05466 0.72913 0.0
C538 C 0.22584 0.06573 0.71358 0.0
C539 C 0.23655 0.04572 0.70075 0.0
C540 C 0.22444 0.02347 0.70926 0.0
N541 N 0.19724 0.97558 0.72609 0.0
C542 C 0.21558 0.97536 0.70787 0.0
C543 C 0.21925 0.95063 0.69829 0.0
C544 C 0.20254 0.93473 0.71074 0.0
C545 C 0.18972 0.95051 0.72722 0.0
N546 N 0.16117 0.98124 0.76715 0.0
C547 C 0.15878 0.9554 0.76439 0.0
C548 C 0.14411 0.94422 0.78284 0.0
C549 C 0.13734 0.96405 0.7988 0.0
C550 C 0.14818 0.98627 0.78897 0.0
N551 N 0.15562 0.00664 0.72044 0.0
C552 C 0.12318 0.00677 0.67735 0.0
C553 C 0.12443 0.98491 0.69146 0.0
C554 C 0.14057 0.98531 0.71286 0.0
C555 C 0.13646 0.02917 0.68649 0.0
C556 C 0.15222 0.02874 0.70804 0.0
N557 N 0.21073 0.00337 0.77245 0.0
C558 C 0.23796 0.97914 0.79862 0.0
C559 C 0.24863 0.00176 0.81041 0.0
C560 C 0.24023 0.0251 0.80281 0.0
C561 C 0.2216 0.02547 0.78376 0.0
C562 C 0.2189 0.98037 0.7799 0.0
H563 H 0.21632 0.04389 0.77844 0.0
H564 H 0.211 0.96257 0.77169 0.0
H565 H 0.14115 0.96782 0.72225 0.0
H566 H 0.16204 0.04637 0.71359 0.0
C567 C 0.19175 0.06805 0.74563 0.0
C568 C 0.14744 0.01149 0.80192 0.0
C569 C 0.23053 0.99787 0.69963 0.0
C570 C 0.17219 0.94216 0.74547 0.0
H571 H 0.13889 0.06436 0.81371 0.0
H572 H 0.16262 0.09586 0.7822 0.0
H573 H 0.23053 0.08596 0.71171 0.0
H574 H 0.25148 0.04732 0.68659 0.0
H575 H 0.23286 0.94458 0.68407 0.0
H576 H 0.20048 0.91405 0.70853 0.0
H577 H 0.13986 0.92398 0.7851 0.0
H578 H 0.12645 0.96221 0.81617 0.0
H579 H 0.11428 0.9671 0.68516 0.0
H580 H 0.13547 0.04676 0.67648 0.0
H581 H 0.24414 0.96067 0.80396 0.0
H582 H 0.24847 0.04308 0.8111 0.0
C583 C 0.73289 0.135 0.96557 0.0
C584 C 0.7246 0.12367 0.9423 0.0
C585 C 0.739 0.13522 0.92396 0.0
C586 C 0.75518 0.15283 0.93713 0.0
N587 N 0.75222 0.1528 0.96274 0.0
Co588 Co 0.77101 0.17528 0.98933 0.0
N589 N 0.78696 0.19708 0.96259 0.0
C590 C 0.78359 0.19399 0.93695 0.0
C591 C 0.79616 0.21266 0.92356 0.0
C592 C 0.80805 0.22878 0.94176 0.0
C593 C 0.80206 0.21889 0.96527 0.0
N594 N 0.79066 0.19702 0.01597 0.0
C595 C 0.80645 0.2181 0.01349 0.0
C596 C 0.81675 0.2272 0.03694 0.0
C597 C 0.80723 0.21117 0.0548 0.0
C598 C 0.79169 0.1933 0.04135 0.0
N599 N 0.75375 0.15438 0.01604 0.0
C600 C 0.75747 0.15676 0.04164 0.0
C601 C 0.74106 0.14119 0.05509 0.0
C602 C 0.72542 0.12867 0.037 0.0
C603 C 0.73343 0.13727 0.01356 0.0
N604 N 0.80032 0.15222 0.98743 0.0
C605 C 0.84725 0.12788 0.98732 0.0
C606 C 0.83178 0.12816 0.00892 0.0
C607 C 0.80856 0.14025 0.00855 0.0
C608 C 0.83792 0.13807 0.96518 0.0
C609 C 0.81445 0.14966 0.96554 0.0
N610 N 0.74237 0.19856 0.99123 0.0
C611 C 0.71822 0.2293 0.01542 0.0
C612 C 0.70634 0.23675 0.99312 0.0
C613 C 0.71174 0.22363 0.97005 0.0
C614 C 0.72968 0.2047 0.96954 0.0
C615 C 0.73589 0.21016 0.01409 0.0
H616 H 0.73359 0.19576 0.9513 0.0
H617 H 0.7446 0.20541 0.03167 0.0
H618 H 0.79816 0.14021 0.02589 0.0
H619 H 0.80865 0.15694 0.94794 0.0
C620 C 0.76939 0.17273 0.92606 0.0
C621 C 0.72015 0.13029 0.98958 0.0
C622 C 0.81168 0.23047 0.98954 0.0
C623 C 0.77573 0.17467 0.05235 0.0
H624 H 0.70894 0.10946 0.93896 0.0
H625 H 0.73669 0.1324 0.90344 0.0
H626 H 0.79676 0.21425 0.90303 0.0
H627 H 0.81998 0.24576 0.93815 0.0
H628 H 0.82949 0.24395 0.04085 0.0
H629 H 0.8106 0.21283 0.07526 0.0
H630 H 0.73998 0.13983 0.07563 0.0
H631 H 0.70949 0.1153 0.04066 0.0
H632 H 0.8381 0.12021 0.02649 0.0
H633 H 0.84893 0.13754 0.94772 0.0
H634 H 0.71417 0.23844 0.03384 0.0
H635 H 0.70301 0.22865 0.95227 0.0
O636 O 0.12297 0.05222 0.09795 0.0
Zn637 Zn 0.08764 0.05791 0.08484 0.0
O638 O 0.08933 0.06874 0.04987 0.0
Zn639 Zn 0.07614 0.10274 0.04806 0.0
Zn640 Zn 0.12481 0.069 0.03806 0.0
Zn641 Zn 0.06799 0.04487 0.02825 0.0
O642 O 0.04309 0.10171 0.02764 0.0
O643 O 0.03444 0.06005 0.01972 0.0
O644 O 0.07193 0.08425 0.10859 0.0
O645 O 0.06725 0.11654 0.08322 0.0
O646 O 0.10258 0.12777 0.03412 0.0
O647 O 0.13747 0.10527 0.03197 0.0
O648 O 0.12663 0.05011 0.00342 0.0
O649 O 0.0689 0.02344 0.08646 0.0
O650 O 0.08608 0.03696 0.99522 0.0
O651 O 0.0602 0.01194 0.04582 0.0
C652 C 0.145 0.05041 0.08797 0.0
C653 C 0.02803 0.08317 0.01926 0.0
C654 C 0.12647 0.12625 0.02989 0.0
C655 C 0.06569 0.10708 0.10516 0.0
C656 C 0.10941 0.03954 0.98837 0.0
C657 C 0.06058 0.00684 0.06938 0.0
O658 O 0.14871 0.05495 0.06448 0.0
O659 O 0.91215 0.47838 0.09688 0.0
Zn660 Zn 0.94839 0.47013 0.0874 0.0
O661 O 0.94863 0.4525 0.05378 0.0
Zn662 Zn 0.96003 0.41824 0.05804 0.0
Zn663 Zn 0.91432 0.45053 0.03864 0.0
Zn664 Zn 0.97215 0.47053 0.0311 0.0
O665 O 0.9962 0.41547 0.04568 0.0
O666 O 0.00467 0.45166 0.02614 0.0
O667 O 0.96145 0.44834 0.11527 0.0
O668 O 0.96047 0.40991 0.09515 0.0
O669 O 0.93686 0.39177 0.03929 0.0
O670 O 0.90317 0.41384 0.02982 0.0
O671 O 0.91403 0.46751 0.00476 0.0
O672 O 0.96959 0.50323 0.08714 0.0
O673 O 0.95535 0.47554 0.99679 0.0
O674 O 0.98298 0.50518 0.04701 0.0
C675 C 0.89039 0.47535 0.08559 0.0
C676 C 0.01147 0.43012 0.03344 0.0
C677 C 0.91435 0.39282 0.03001 0.0
C678 C 0.96304 0.42415 0.11548 0.0
C679 C 0.93186 0.47478 0.98978 0.0
C680 C 0.98148 0.515 0.06965 0.0
O681 O 0.88827 0.46518 0.06299 0.0
O682 O 0.09276 0.89419 0.45718 0.0
Zn683 Zn 0.08371 0.93056 0.4515 0.0
O684 O 0.05002 0.93161 0.43532 0.0
Zn685 Zn 0.0534 0.94681 0.40204 0.0
Zn686 Zn 0.03483 0.89673 0.43123 0.0
Zn687 Zn 0.02785 0.95254 0.4566 0.0
O688 O 0.03533 0.97977 0.40106 0.0
O689 O 0.02183 0.98633 0.44083 0.0
O690 O 0.11147 0.94645 0.42988 0.0
O691 O 0.09038 0.95644 0.39505 0.0
O692 O 0.04017 0.92229 0.37349 0.0
O693 O 0.02848 0.88749 0.39413 0.0
O694 O 0.00024 0.89389 0.44795 0.0
O695 O 0.08416 0.94952 0.48573 0.0
O696 O 0.99368 0.93377 0.46183 0.0
O697 O 0.04408 0.96102 0.49102 0.0
C698 C 0.08089 0.87238 0.45363 0.0
C699 C 0.025 0.99378 0.4182 0.0
C700 C 0.03109 0.8992 0.37347 0.0
C701 C 0.11117 0.95566 0.4078 0.0
C702 C 0.9859 0.91036 0.45822 0.0
C703 C 0.06694 0.95971 0.49928 0.0
O704 O 0.0582 0.87037 0.44431 0.0
O705 O 0.97505 0.58957 0.39634 0.0
Zn706 Zn 0.96945 0.57923 0.43252 0.0
O707 O 0.95361 0.54468 0.43291 0.0
Zn708 Zn 0.91975 0.54616 0.44829 0.0
Zn709 Zn 0.95105 0.53009 0.39786 0.0
Zn710 Zn 0.97431 0.52293 0.45308 0.0
O711 O 0.91805 0.52814 0.48135 0.0
O712 O 0.95778 0.51618 0.48701 0.0
O713 O 0.94719 0.60558 0.4492 0.0
O714 O 0.91149 0.58263 0.45748 0.0
O715 O 0.8924 0.53092 0.42409 0.0
O716 O 0.91404 0.52286 0.38849 0.0
O717 O 0.96652 0.49558 0.39466 0.0
O718 O 0.004 0.58061 0.44999 0.0
O719 O 0.97895 0.48873 0.4343 0.0
O720 O 0.0088 0.54054 0.46083 0.0
C721 C 0.97377 0.57784 0.37446 0.0
C722 C 0.93498 0.5184 0.49495 0.0
C723 C 0.89306 0.52316 0.40069 0.0
C724 C 0.92431 0.60404 0.4575 0.0
C725 C 0.97559 0.48106 0.41097 0.0
C726 C 0.01742 0.56367 0.45947 0.0
O727 O 0.96617 0.55428 0.37198 0.0
O728 O 0.39974 0.95929 0.59493 0.0
Zn729 Zn 0.43506 0.95039 0.58394 0.0
O730 O 0.43442 0.93536 0.54935 0.0
Zn731 Zn 0.44586 0.90054 0.55029 0.0
Zn732 Zn 0.39953 0.93534 0.53535 0.0
Zn733 Zn 0.45781 0.9553 0.52809 0.0
O734 O 0.48039 0.89752 0.53383 0.0
O735 O 0.49001 0.93669 0.521 0.0
O736 O 0.44801 0.92658 0.60955 0.0
O737 O 0.45048 0.89008 0.5866 0.0
O738 O 0.42009 0.87553 0.53314 0.0
O739 O 0.3866 0.89904 0.52679 0.0
O740 O 0.39941 0.95273 0.5015 0.0
O741 O 0.45688 0.98285 0.58591 0.0
O742 O 0.4407 0.9624 0.49463 0.0
O743 O 0.46923 0.98882 0.54604 0.0
C744 C 0.3778 0.95904 0.58411 0.0
C745 C 0.49596 0.91373 0.52393 0.0
C746 C 0.39702 0.87756 0.52578 0.0
C747 C 0.45206 0.9028 0.60795 0.0
C748 C 0.41732 0.96121 0.4872 0.0
C749 C 0.46844 0.99631 0.56949 0.0
O750 O 0.37462 0.95105 0.56082 0.0
O751 O 0.60378 0.53633 0.6337 0.0
Zn752 Zn 0.56731 0.54103 0.62216 0.0
O753 O 0.56658 0.55278 0.58725 0.0
Zn754 Zn 0.55463 0.58742 0.58725 0.0
Zn755 Zn 0.60098 0.55171 0.57304 0.0
Zn756 Zn 0.5432 0.53058 0.56589 0.0
O757 O 0.52054 0.58823 0.56899 0.0
O758 O 0.51043 0.5475 0.55783 0.0
O759 O 0.55217 0.56678 0.64725 0.0
O760 O 0.54791 0.6002 0.62317 0.0
O761 O 0.58062 0.61177 0.57129 0.0
O762 O 0.61311 0.58693 0.5634 0.0
O763 O 0.60113 0.53017 0.54001 0.0
O764 O 0.54891 0.50612 0.62336 0.0
O765 O 0.55962 0.52134 0.53233 0.0
O766 O 0.53464 0.49802 0.58351 0.0
C767 C 0.62516 0.53563 0.62217 0.0
C768 C 0.50481 0.5709 0.55932 0.0
C769 C 0.60323 0.60863 0.56311 0.0
C770 C 0.54647 0.58995 0.64475 0.0
C771 C 0.58291 0.5211 0.52536 0.0
C772 C 0.53769 0.49118 0.60633 0.0
O773 O 0.6268 0.54002 0.59847 0.0
O774 O 0.61732 0.415 0.98535 0.0
Zn775 Zn 0.60917 0.45195 0.98177 0.0
O776 O 0.57536 0.45456 0.96608 0.0
Zn777 Zn 0.5795 0.46971 0.93306 0.0
Zn778 Zn 0.55878 0.4203 0.9617 0.0
Zn779 Zn 0.55387 0.47633 0.98743 0.0
O780 O 0.56377 0.5036 0.93271 0.0
O781 O 0.54784 0.51018 0.97145 0.0
O782 O 0.63749 0.46814 0.96076 0.0
O783 O 0.61649 0.47752 0.92568 0.0
O784 O 0.56406 0.44682 0.90448 0.0
O785 O 0.54967 0.41271 0.92482 0.0
O786 O 0.52519 0.41798 0.9803 0.0
O787 O 0.60985 0.46896 0.01691 0.0
O788 O 0.51951 0.45817 0.99374 0.0
O789 O 0.57112 0.48423 0.02151 0.0
C790 C 0.60485 0.39362 0.98101 0.0
C791 C 0.55266 0.51775 0.94912 0.0
C792 C 0.55271 0.42468 0.90436 0.0
C793 C 0.63724 0.47688 0.93846 0.0
C794 C 0.51139 0.43479 0.9908 0.0
C795 C 0.59338 0.48056 0.03028 0.0
O796 O 0.58192 0.39264 0.97232 0.0
O797 O 0.48989 0.11333 0.90262 0.0
Zn798 Zn 0.48421 0.10394 0.93894 0.0
O799 O 0.46843 0.06943 0.93996 0.0
Zn800 Zn 0.43484 0.07102 0.95576 0.0
Zn801 Zn 0.46524 0.05406 0.90516 0.0
Zn802 Zn 0.48963 0.04845 0.96042 0.0
O803 O 0.43387 0.05363 0.9891 0.0
O804 O 0.47366 0.04179 0.9946 0.0
O805 O 0.4618 0.13053 0.95495 0.0
O806 O 0.42635 0.10751 0.96398 0.0
O807 O 0.40724 0.05441 0.93272 0.0
O808 O 0.42823 0.04469 0.89712 0.0
O809 O 0.48187 0.02004 0.90227 0.0
O810 O 0.51895 0.10599 0.95597 0.0
O811 O 0.49425 0.01421 0.94216 0.0
O812 O 0.52418 0.06615 0.9672 0.0
C813 C 0.48735 0.10172 0.88075 0.0
C814 C 0.45089 0.04396 0.00263 0.0
C815 C 0.40756 0.04511 0.90983 0.0
C816 C 0.43896 0.12898 0.96335 0.0
C817 C 0.49105 0.00601 0.91898 0.0
C818 C 0.53268 0.08925 0.96534 0.0
O819 O 0.47867 0.07845 0.87848 0.0
H820 H 0.98867 0.1273 0.33813 0.0
H821 H 0.02176 0.03623 0.45068 0.0
H822 H 0.02794 0.15668 0.4071 0.0
H823 H 0.01349 0.01083 0.37128 0.0
H824 H 0.01501 0.08026 0.43867 0.0
H825 H 0.98816 0.08437 0.35415 0.0
C826 C 0.9972 0.12474 0.35671 0.0
C827 C 0.00899 0.14558 0.371 0.0
C828 C 0.01447 0.06495 0.42399 0.0
C829 C 0.008 0.09631 0.38967 0.0
C830 C 0.01813 0.03984 0.4308 0.0
C831 C 0.01826 0.01987 0.4119 0.0
C832 C 0.01041 0.06993 0.3982 0.0
C833 C 0.0137 0.02565 0.38644 0.0
C834 C 0.99679 0.1002 0.36586 0.0
C835 C 0.01883 0.14115 0.39537 0.0
N836 N 0.00994 0.0501 0.38036 0.0
N837 N 0.01834 0.1169 0.40388 0.0
H838 H 0.0026 0.31853 0.4082 0.0
H839 H 0.97044 0.45776 0.36302 0.0
H840 H 0.98328 0.3342 0.33058 0.0
H841 H 0.99114 0.44266 0.44069 0.0
H842 H 0.97514 0.41269 0.35084 0.0
H843 H 0.9978 0.36382 0.42078 0.0
C844 C 0.99721 0.3316 0.3939 0.0
C845 C 0.99342 0.32292 0.36838 0.0
C846 C 0.97874 0.41923 0.37054 0.0
C847 C 0.98797 0.37453 0.3824 0.0
C848 C 0.97615 0.44504 0.37752 0.0
C849 C 0.98039 0.45413 0.40297 0.0
C850 C 0.98559 0.40224 0.3891 0.0
C851 C 0.9877 0.43661 0.42085 0.0
C852 C 0.99453 0.35739 0.401 0.0
C853 C 0.98632 0.34035 0.35047 0.0
N854 N 0.98998 0.41153 0.41359 0.0
N855 N 0.98392 0.36538 0.35779 0.0
H856 H 0.01959 0.84371 0.07228 0.0
H857 H 0.06346 0.98781 0.11703 0.0
H858 H 0.05858 0.86535 0.14364 0.0
H859 H 0.04183 0.96564 0.03896 0.0
H860 H 0.05619 0.94345 0.1284 0.0
H861 H 0.02288 0.88872 0.0608 0.0
C862 C 0.02885 0.85793 0.08549 0.0
C863 C 0.03902 0.8508 0.10885 0.0
C864 C 0.05293 0.94829 0.10879 0.0
C865 C 0.0426 0.90213 0.09601 0.0
C866 C 0.05695 0.97368 0.10228 0.0
C867 C 0.05346 0.9805 0.07693 0.0
C868 C 0.04525 0.92948 0.08988 0.0
C869 C 0.04492 0.96126 0.05872 0.0
C870 C 0.03075 0.88355 0.07892 0.0
C871 C 0.05087 0.86993 0.12525 0.0
N872 N 0.04121 0.93658 0.06553 0.0
N873 N 0.05225 0.89469 0.11856 0.0
H874 H 0.02649 0.65984 0.14612 0.0
H875 H 0.0014 0.54962 0.03635 0.0
H876 H 0.02559 0.67428 0.06581 0.0
H877 H 0.98814 0.5395 0.11669 0.0
H878 H 0.01761 0.59363 0.04673 0.0
H879 H 0.02009 0.61384 0.13552 0.0
C880 C 0.02526 0.6531 0.12622 0.0
C881 C 0.02634 0.67047 0.10672 0.0
C882 C 0.01129 0.58168 0.06206 0.0
C883 C 0.0188 0.61834 0.09442 0.0
C884 C 0.00207 0.55656 0.05618 0.0
C885 C 0.99308 0.54095 0.07566 0.0
C886 C 0.01165 0.59116 0.0876 0.0
C887 C 0.99455 0.55092 0.10101 0.0
C888 C 0.02153 0.62699 0.12016 0.0
C889 C 0.02469 0.6612 0.08124 0.0
N890 N 0.00352 0.57543 0.10622 0.0
N891 N 0.02078 0.63565 0.07576 0.0
H892 H 0.37099 0.98729 0.13361 0.0
H893 H 0.48276 0.03952 0.0439 0.0
H894 H 0.43808 0.0299 0.16465 0.0
H895 H 0.40339 0.02986 0.01998 0.0
H896 H 0.47013 0.02806 0.0872 0.0
H897 H 0.38648 0.99439 0.09049 0.0
C898 C 0.3892 0.99783 0.13132 0.0
C899 C 0.40333 0.00801 0.15268 0.0
C900 C 0.45558 0.02838 0.07237 0.0
C901 C 0.42103 0.0163 0.10343 0.0
C902 C 0.46274 0.03476 0.0477 0.0
C903 C 0.44405 0.03572 0.02839 0.0
C904 C 0.42966 0.02243 0.07751 0.0
C905 C 0.41838 0.02953 0.03434 0.0
C906 C 0.39789 0.00204 0.10674 0.0
C907 C 0.42658 0.02188 0.14863 0.0
N908 N 0.41196 0.02305 0.05835 0.0
N909 N 0.43479 0.0256 0.1244 0.0
H910 H 0.5835 0.51166 0.19314 0.0
H911 H 0.63993 0.48007 0.05449 0.0
H912 H 0.66237 0.49593 0.17891 0.0
H913 H 0.56143 0.49921 0.06719 0.0
H914 H 0.6492 0.48938 0.09972 0.0
H915 H 0.57542 0.51046 0.14674 0.0
C916 C 0.59906 0.50815 0.18009 0.0
C917 C 0.62351 0.50376 0.18941 0.0
C918 C 0.62998 0.49173 0.0926 0.0
C919 C 0.61467 0.50224 0.1369 0.0
C920 C 0.62466 0.48639 0.06675 0.0
C921 C 0.59979 0.48857 0.05708 0.0
C922 C 0.61024 0.4991 0.10898 0.0
C923 C 0.58085 0.4971 0.07385 0.0
C924 C 0.59455 0.50748 0.15375 0.0
C925 C 0.64324 0.49927 0.17214 0.0
N926 N 0.58641 0.50182 0.09906 0.0
N927 N 0.63836 0.49848 0.14665 0.0
H928 H 0.34199 0.97745 0.34091 0.0
H929 H 0.45021 0.9793 0.45071 0.0
H930 H 0.42175 0.99778 0.3284 0.0
H931 H 0.37022 0.95874 0.46315 0.0
H932 H 0.44 0.98759 0.40636 0.0
H933 H 0.35179 0.97134 0.38609 0.0
C934 C 0.36158 0.98061 0.34783 0.0
C935 C 0.38112 0.98823 0.33121 0.0
C936 C 0.42466 0.98137 0.41882 0.0
C937 C 0.39256 0.98134 0.38261 0.0
C938 C 0.43046 0.97668 0.44421 0.0
C939 C 0.41107 0.96822 0.46078 0.0
C940 C 0.39927 0.97755 0.40979 0.0
C941 C 0.38584 0.9652 0.45115 0.0
C942 C 0.36718 0.97719 0.37354 0.0
C943 C 0.40621 0.99204 0.34082 0.0
N944 N 0.3807 0.96976 0.42631 0.0
N945 N 0.41123 0.98858 0.36593 0.0
H946 H 0.58752 0.51756 0.36165 0.0
H947 H 0.62892 0.50672 0.50613 0.0
H948 H 0.6526 0.47559 0.3831 0.0
H949 H 0.55032 0.51646 0.48406 0.0
H950 H 0.63908 0.49734 0.4612 0.0
H951 H 0.57441 0.51992 0.40659 0.0
C952 C 0.59892 0.50873 0.37584 0.0
C953 C 0.62113 0.49636 0.36876 0.0
C954 C 0.61956 0.50123 0.46627 0.0
C955 C 0.60651 0.49922 0.41998 0.0
C956 C 0.61376 0.50663 0.49188 0.0
C957 C 0.58876 0.51247 0.49884 0.0
C958 C 0.60036 0.50221 0.44747 0.0
C959 C 0.56984 0.51202 0.47957 0.0
C960 C 0.5914 0.50996 0.40138 0.0
C961 C 0.63523 0.48512 0.38779 0.0
N962 N 0.57611 0.50735 0.45471 0.0
N963 N 0.62786 0.48709 0.41261 0.0
H964 H 0.17252 0.42425 0.99351 0.0
H965 H 0.03428 0.38828 0.05085 0.0
H966 H 0.15839 0.36726 0.04943 0.0
H967 H 0.04986 0.45527 0.00716 0.0
H968 H 0.07912 0.37816 0.04707 0.0
H969 H 0.12717 0.43416 0.99537 0.0
C970 C 0.1599 0.41388 0.0062 0.0
C971 C 0.16928 0.395 0.02144 0.0
C972 C 0.07275 0.39505 0.03824 0.0
C973 C 0.11745 0.40609 0.02353 0.0
C974 C 0.04706 0.40079 0.04028 0.0
C975 C 0.03822 0.42274 0.02938 0.0
C976 C 0.08983 0.41126 0.02511 0.0
C977 C 0.0558 0.43819 0.01593 0.0
C978 C 0.13406 0.41957 0.0073 0.0
C979 C 0.1521 0.38224 0.03764 0.0
N980 N 0.08078 0.43218 0.01421 0.0
N981 N 0.12705 0.38794 0.03817 0.0
H982 H 0.16238 0.64545 0.49487 0.0
H983 H 0.05306 0.53256 0.47821 0.0
H984 H 0.17633 0.56594 0.50351 0.0
H985 H 0.04188 0.61136 0.46181 0.0
H986 H 0.09707 0.5448 0.49167 0.0
H987 H 0.11684 0.63375 0.48702 0.0
C988 C 0.15561 0.62553 0.49532 0.0
C989 C 0.17272 0.60653 0.49976 0.0
C990 C 0.08494 0.55941 0.4852 0.0
C991 C 0.1211 0.59292 0.49066 0.0
C992 C 0.05979 0.55245 0.47751 0.0
C993 C 0.04377 0.57093 0.46867 0.0
C994 C 0.09412 0.58503 0.48409 0.0
C995 C 0.05355 0.59642 0.46831 0.0
C996 C 0.12975 0.61882 0.49079 0.0
C997 C 0.16344 0.58099 0.50013 0.0
N998 N 0.07811 0.60269 0.47583 0.0
N999 N 0.13816 0.57486 0.49551 0.0
H1000 H 0.82373 0.90792 0.49352 0.0
H1001 H 0.96273 0.86207 0.45448 0.0
H1002 H 0.83987 0.82939 0.47502 0.0
H1003 H 0.94796 0.94045 0.47649 0.0
H1004 H 0.91793 0.84975 0.46253 0.0
H1005 H 0.86924 0.92045 0.48753 0.0
C1006 C 0.83699 0.8934 0.48821 0.0
C1007 C 0.82838 0.86767 0.48484 0.0
C1008 C 0.92449 0.86964 0.4657 0.0
C1009 C 0.88009 0.88162 0.47788 0.0
C1010 C 0.95013 0.8767 0.46114 0.0
C1011 C 0.95918 0.90238 0.46472 0.0
C1012 C 0.90767 0.88837 0.47383 0.0
C1013 C 0.94188 0.92044 0.47343 0.0
C1014 C 0.86287 0.90047 0.48481 0.0
C1015 C 0.846 0.84944 0.47778 0.0
N1016 N 0.91694 0.9131 0.47757 0.0
N1017 N 0.87106 0.85676 0.47454 0.0
H1018 H 0.36246 0.64553 0.54836 0.0
H1019 H 0.46765 0.54097 0.53277 0.0
H1020 H 0.3517 0.579 0.4968 0.0
H1021 H 0.48326 0.61716 0.56651 0.0
H1022 H 0.42455 0.55299 0.52094 0.0
H1023 H 0.40609 0.63375 0.55715 0.0
C1024 C 0.36928 0.62833 0.53898 0.0
C1025 C 0.35338 0.61309 0.52199 0.0
C1026 C 0.43751 0.56708 0.53079 0.0
C1027 C 0.40349 0.59952 0.53187 0.0
C1028 C 0.4621 0.56024 0.53761 0.0
C1029 C 0.47914 0.57806 0.55075 0.0
C1030 C 0.42982 0.5918 0.53743 0.0
C1031 C 0.47086 0.60276 0.55642 0.0
C1032 C 0.39427 0.62171 0.54386 0.0
C1033 C 0.36338 0.59127 0.51 0.0
N1034 N 0.44679 0.60881 0.54989 0.0
N1035 N 0.38778 0.58501 0.51532 0.0
H1036 H 0.55905 0.6617 0.87675 0.0
H1037 H 0.52729 0.5544 0.97728 0.0
H1038 H 0.50401 0.6725 0.9369 0.0
H1039 H 0.56555 0.5413 0.90534 0.0
H1040 H 0.52091 0.59862 0.9657 0.0
H1041 H 0.56505 0.61877 0.8906 0.0
C1042 C 0.54849 0.65519 0.89317 0.0
C1043 C 0.53112 0.67086 0.90578 0.0
C1044 C 0.53059 0.58593 0.95249 0.0
C1045 C 0.5375 0.62118 0.92147 0.0
C1046 C 0.53422 0.56072 0.95905 0.0
C1047 C 0.547 0.54405 0.94229 0.0
C1048 C 0.54006 0.59452 0.92916 0.0
C1049 C 0.55558 0.55333 0.91893 0.0
C1050 C 0.5517 0.63049 0.90089 0.0
C1051 C 0.51751 0.66102 0.92655 0.0
N1052 N 0.55207 0.57788 0.91318 0.0
N1053 N 0.521 0.63677 0.9338 0.0
H1054 H 0.48849 0.85492 0.84302 0.0
H1055 H 0.50919 0.96961 0.94951 0.0
H1056 H 0.5144 0.8444 0.9199 0.0
H1057 H 0.48284 0.98017 0.8725 0.0
H1058 H 0.51235 0.92401 0.93873 0.0
H1059 H 0.48642 0.90101 0.85335 0.0
C1060 C 0.49353 0.86244 0.86215 0.0
C1061 C 0.50157 0.84615 0.88071 0.0
C1062 C 0.506 0.93632 0.92415 0.0
C1063 C 0.49958 0.89858 0.89267 0.0
C1064 C 0.50429 0.96243 0.93026 0.0
C1065 C 0.49568 0.97885 0.91192 0.0
C1066 C 0.499 0.92643 0.89952 0.0
C1067 C 0.48957 0.96832 0.88729 0.0
C1068 C 0.49249 0.88867 0.86803 0.0
C1069 C 0.50807 0.85655 0.90517 0.0
N1070 N 0.49125 0.9428 0.88187 0.0
N1071 N 0.507 0.88216 0.91046 0.0
H1072 H 0.52835 0.34404 0.67539 0.0
H1073 H 0.51505 0.45319 0.57463 0.0
H1074 H 0.50472 0.32876 0.59691 0.0
H1075 H 0.54356 0.46809 0.65187 0.0
H1076 H 0.50747 0.40813 0.58357 0.0
H1077 H 0.53114 0.39007 0.6681 0.0
C1078 C 0.52373 0.35056 0.65663 0.0
C1079 C 0.51624 0.33294 0.63669 0.0
C1080 C 0.51523 0.42128 0.59862 0.0
C1081 C 0.5193 0.38518 0.62813 0.0
C1082 C 0.51949 0.44708 0.59356 0.0
C1083 C 0.53017 0.4645 0.61247 0.0
C1084 C 0.5217 0.41276 0.62275 0.0
C1085 C 0.53543 0.45538 0.63666 0.0
C1086 C 0.52525 0.37671 0.65246 0.0
C1087 C 0.51044 0.34198 0.61271 0.0
N1088 N 0.5313 0.43011 0.64105 0.0
N1089 N 0.5121 0.36755 0.60906 0.0
H1090 H 0.53069 0.15447 0.58154 0.0
H1091 H 0.4715 0.01742 0.61805 0.0
H1092 H 0.48088 0.1408 0.64537 0.0
H1093 H 0.4914 0.0332 0.54014 0.0
H1094 H 0.48544 0.06111 0.63122 0.0
H1095 H 0.52553 0.10847 0.56853 0.0
C1096 C 0.51874 0.14174 0.59273 0.0
C1097 C 0.50581 0.15122 0.61423 0.0
C1098 C 0.48689 0.05497 0.61125 0.0
C1099 C 0.50045 0.09929 0.6001 0.0
C1100 C 0.47896 0.03 0.60369 0.0
C1101 C 0.47977 0.02179 0.57784 0.0
C1102 C 0.49571 0.07191 0.59289 0.0
C1103 C 0.49011 0.03889 0.56022 0.0
C1104 C 0.51583 0.11569 0.58537 0.0
C1105 C 0.49074 0.13419 0.62838 0.0
N1106 N 0.49748 0.06334 0.56804 0.0
N1107 N 0.48852 0.10905 0.62109 0.0
H1108 H 0.93318 0.51534 0.65933 0.0
H1109 H 0.88731 0.50777 0.51424 0.0
H1110 H 0.85984 0.48057 0.63456 0.0
H1111 H 0.96752 0.51345 0.53553 0.0
H1112 H 0.87643 0.50008 0.55864 0.0
H1113 H 0.94594 0.51746 0.6144 0.0
C1114 C 0.91985 0.50807 0.64443 0.0
C1115 C 0.89546 0.49774 0.65061 0.0
C1116 C 0.89643 0.50276 0.55354 0.0
C1117 C 0.90976 0.50028 0.59941 0.0
C1118 C 0.90264 0.5072 0.52822 0.0
C1119 C 0.92835 0.5113 0.52119 0.0
C1120 C 0.91601 0.5029 0.57209 0.0
C1121 C 0.94745 0.51029 0.54011 0.0
C1122 C 0.92717 0.50914 0.61886 0.0
C1123 C 0.87892 0.48845 0.63062 0.0
N1124 N 0.94088 0.5065 0.56479 0.0
N1125 N 0.88628 0.49017 0.60592 0.0
H1126 H 0.07631 0.98418 0.66256 0.0
H1127 H 0.11428 0.97613 0.51744 0.0
H1128 H 0.14314 0.02509 0.63369 0.0
H1129 H 0.03504 0.96717 0.53992 0.0
H1130 H 0.12561 0.99206 0.56083 0.0
H1131 H 0.06049 0.97617 0.61845 0.0
C1132 C 0.08741 0.99178 0.64697 0.0
C1133 C 0.11107 0.00522 0.65169 0.0
C1134 C 0.1057 0.98683 0.55621 0.0
C1135 C 0.09343 0.99584 0.60157 0.0
C1136 C 0.09926 0.97756 0.53153 0.0
C1137 C 0.07372 0.97021 0.52518 0.0
C1138 C 0.08655 0.98825 0.57481 0.0
C1139 C 0.05497 0.97267 0.54409 0.0
C1140 C 0.07838 0.98729 0.6219 0.0
C1141 C 0.12471 0.0148 0.6309 0.0
N1142 N 0.06181 0.98119 0.56823 0.0
N1143 N 0.11588 0.00958 0.60671 0.0
H1144 H 0.93562 0.50244 0.82727 0.0
H1145 H 0.88401 0.47488 0.96784 0.0
H1146 H 0.85608 0.48655 0.84479 0.0
H1147 H 0.9643 0.48802 0.95079 0.0
H1148 H 0.87342 0.4815 0.92329 0.0
H1149 H 0.94663 0.49922 0.87273 0.0
C1150 C 0.92053 0.49837 0.84082 0.0
C1151 C 0.89496 0.49485 0.83256 0.0
C1152 C 0.89336 0.48304 0.92928 0.0
C1153 C 0.90722 0.49102 0.88428 0.0
C1154 C 0.89945 0.47933 0.9548 0.0
C1155 C 0.92513 0.48078 0.96317 0.0
C1156 C 0.91306 0.48824 0.91184 0.0
C1157 C 0.94424 0.48665 0.94527 0.0
C1158 C 0.92676 0.49651 0.86668 0.0
C1159 C 0.87602 0.4894 0.85059 0.0
N1160 N 0.93782 0.49005 0.92045 0.0
N1161 N 0.88252 0.48766 0.87562 0.0
H1162 H 0.10103 0.00441 0.82511 0.0
H1163 H 0.15662 0.04345 0.96557 0.0
H1164 H 0.18077 0.02463 0.84104 0.0
H1165 H 0.07745 0.01924 0.94991 0.0
H1166 H 0.16621 0.03524 0.92041 0.0
H1167 H 0.09212 0.00888 0.87103 0.0
C1168 C 0.11662 0.00969 0.83842 0.0
C1169 C 0.14163 0.01399 0.82958 0.0
C1170 C 0.14677 0.03157 0.92689 0.0
C1171 C 0.13176 0.01934 0.88188 0.0
C1172 C 0.14128 0.03619 0.95273 0.0
C1173 C 0.11615 0.03216 0.96163 0.0
C1174 C 0.12698 0.02295 0.90974 0.0
C1175 C 0.0971 0.02271 0.94399 0.0
C1176 C 0.1116 0.01225 0.86456 0.0
C1177 C 0.16124 0.02109 0.84733 0.0
N1178 N 0.10288 0.01859 0.91891 0.0
N1179 N 0.1559 0.02356 0.87268 0.0
H1180 H 0.6307 0.83086 0.48622 0.0
H1181 H 0.53912 0.94497 0.51823 0.0
H1182 H 0.65921 0.90374 0.51998 0.0
H1183 H 0.51256 0.86532 0.51571 0.0
H1184 H 0.583 0.93184 0.5115 0.0
H1185 H 0.58691 0.84498 0.48977 0.0
C1186 C 0.6277 0.84993 0.49421 0.0
C1187 C 0.64854 0.86622 0.50278 0.0
C1188 C 0.56751 0.9173 0.51232 0.0
C1189 C 0.59857 0.88247 0.50684 0.0
C1190 C 0.54245 0.92474 0.51595 0.0
C1191 C 0.52214 0.90619 0.51757 0.0
C1192 C 0.5722 0.89116 0.50986 0.0
C1193 C 0.52764 0.88025 0.51469 0.0
C1194 C 0.60274 0.8579 0.49636 0.0
C1195 C 0.64361 0.8906 0.51328 0.0
N1196 N 0.55214 0.87351 0.51092 0.0
N1197 N 0.61909 0.89808 0.5149 0.0
H1198 H 0.69471 0.08478 0.99895 0.0
H1199 H 0.55776 0.13653 0.96448 0.0
H1200 H 0.68292 0.16236 0.97947 0.0
H1201 H 0.56891 0.05833 0.98321 0.0
H1202 H 0.60306 0.14712 0.97343 0.0
H1203 H 0.64813 0.07524 0.99649 0.0
C1204 C 0.68215 0.09976 0.99434 0.0
C1205 C 0.69226 0.12429 0.98939 0.0
C1206 C 0.59557 0.12767 0.97573 0.0
C1207 C 0.63948 0.11375 0.98638 0.0
C1208 C 0.56967 0.1216 0.97064 0.0
C1209 C 0.55954 0.09643 0.97285 0.0
C1210 C 0.61151 0.10842 0.98299 0.0
C1211 C 0.57591 0.07795 0.98107 0.0
C1212 C 0.65569 0.0944 0.99291 0.0
C1213 C 0.67557 0.1432 0.98335 0.0
N1214 N 0.60114 0.08428 0.98567 0.0
N1215 N 0.64994 0.13752 0.98193 0.0
H1216 H 0.34933 0.4355 0.0263 0.0
H1217 H 0.48733 0.38691 0.9873 0.0
H1218 H 0.36272 0.3582 4e-05 0.0
H1219 H 0.47441 0.46548 0.01031 0.0
H1220 H 0.44233 0.37551 0.99525 0.0
H1221 H 0.39558 0.44653 0.0235 0.0
C1222 C 0.36216 0.4209 0.02008 0.0
C1223 C 0.35254 0.39599 0.01341 0.0
C1224 C 0.44934 0.39523 0.9987 0.0
C1225 C 0.40506 0.40823 0.01006 0.0
C1226 C 0.4751 0.40177 0.99422 0.0
C1227 C 0.48471 0.42726 0.99795 0.0
C1228 C 0.43293 0.41429 0.00694 0.0
C1229 C 0.46787 0.44561 0.00705 0.0
C1230 C 0.38844 0.42712 0.01846 0.0
C1231 C 0.36963 0.37763 0.00531 0.0
N1232 N 0.44278 0.43879 0.01108 0.0
N1233 N 0.39509 0.38412 0.00383 0.0
H1234 H 0.86342 0.08398 0.00766 0.0
H1235 H 0.01091 0.12873 0.00428 0.0
H1236 H 0.89112 0.15154 0.97008 0.0
H1237 H 0.9856 0.05005 0.01471 0.0
H1238 H 0.96687 0.13812 0.99345 0.0
H1239 H 0.90783 0.07162 0.01238 0.0
C1240 C 0.87885 0.09609 0.00026 0.0
C1241 C 0.87363 0.11879 0.98846 0.0
C1242 C 0.97101 0.11874 0.99786 0.0
C1243 C 0.92431 0.10498 0.994 0.0
C1244 C 0.99612 0.11338 0.00411 0.0
C1245 C 0.00194 0.08858 0.01048 0.0
C1246 C 0.95145 0.09929 0.99843 0.0
C1247 C 0.982 0.06943 0.00987 0.0
C1248 C 0.90413 0.08899 0.00285 0.0
C1249 C 0.89429 0.13375 0.97908 0.0
N1250 N 0.95757 0.07525 0.00426 0.0
N1251 N 0.91873 0.12673 0.98231 0.0
H1252 H 0.02446 0.23474 0.20574 0.0
H1253 H 0.05785 0.09361 0.15469 0.0
H1254 H 0.02224 0.16922 0.2526 0.0
H1255 H 0.05359 0.15745 0.10573 0.0
H1256 H 0.04455 0.12101 0.19069 0.0
H1257 H 0.03483 0.20681 0.16854 0.0
C1258 C 0.02595 0.2144 0.208 0.0
C1259 C 0.02234 0.20405 0.23193 0.0
C1260 C 0.04645 0.12901 0.17204 0.0
C1261 C 0.03443 0.17216 0.19 0.0
C1262 C 0.05407 0.11335 0.15146 0.0
C1263 C 0.05693 0.1232 0.1271 0.0
C1264 C 0.04173 0.15478 0.16834 0.0
C1265 C 0.05169 0.14898 0.12414 0.0
C1266 C 0.03189 0.19849 0.18691 0.0
C1267 C 0.02471 0.17772 0.23425 0.0
N1268 N 0.04445 0.16388 0.14451 0.0
N1269 N 0.03068 0.16266 0.21355 0.0
H1270 H 0.03273 0.34083 0.23147 0.0
H1271 H 0.93496 0.38486 0.13512 0.0
H1272 H 0.95394 0.34576 0.25539 0.0
H1273 H 0.00154 0.43572 0.15048 0.0
H1274 H 0.94367 0.36323 0.17469 0.0
H1275 H 0.02451 0.37013 0.19768 0.0
C1276 C 0.01385 0.34824 0.23006 0.0
C1277 C 0.99391 0.34021 0.24631 0.0
C1278 C 0.95622 0.37926 0.16943 0.0
C1279 C 0.98439 0.37297 0.20693 0.0
C1280 C 0.95135 0.39147 0.14694 0.0
C1281 C 0.96753 0.41206 0.13979 0.0
C1282 C 0.97791 0.38714 0.1843 0.0
C1283 C 0.98857 0.41998 0.1556 0.0
C1284 C 0.00922 0.36487 0.21061 0.0
C1285 C 0.96975 0.35042 0.24292 0.0
N1286 N 0.99349 0.40717 0.177 0.0
N1287 N 0.96553 0.36578 0.22328 0.0
H1288 H 0.9948 0.77791 0.25984 0.0
H1289 H 0.03969 0.91471 0.32473 0.0
H1290 H 0.03296 0.83828 0.21902 0.0
H1291 H 0.00768 0.85139 0.36635 0.0
H1292 H 0.03222 0.88917 0.2848 0.0
H1293 H 0.9942 0.80671 0.29814 0.0
C1294 C 0.0028 0.79739 0.25904 0.0
C1295 C 0.01405 0.80593 0.23662 0.0
C1296 C 0.02667 0.88096 0.30268 0.0
C1297 C 0.0137 0.83879 0.27998 0.0
C1298 C 0.03089 0.89555 0.32548 0.0
C1299 C 0.02459 0.88508 0.34896 0.0
C1300 C 0.01606 0.85577 0.30339 0.0
C1301 C 0.01313 0.86017 0.34874 0.0
C1302 C 0.00254 0.81378 0.28078 0.0
C1303 C 0.02423 0.83119 0.23619 0.0
N1304 N 0.00939 0.84633 0.32634 0.0
N1305 N 0.02397 0.84676 0.25766 0.0
H1306 H 0.0237 0.6321 0.22681 0.0
H1307 H 0.97584 0.6297 0.37058 0.0
H1308 H 0.97863 0.6907 0.26172 0.0
H1309 H 0.98545 0.55942 0.32597 0.0
H1310 H 0.98399 0.65379 0.33243 0.0
H1311 H 0.01639 0.6063 0.26453 0.0
C1312 C 0.01226 0.63947 0.24239 0.0
C1313 C 0.0016 0.66345 0.24115 0.0
C1314 C 0.98435 0.6331 0.33099 0.0
C1315 C 0.99363 0.63446 0.28424 0.0
C1316 C 0.97986 0.6193 0.3528 0.0
C1317 C 0.9799 0.59245 0.35149 0.0
C1318 C 0.98937 0.62007 0.30769 0.0
C1319 C 0.98511 0.58009 0.32781 0.0
C1320 C 0.00804 0.62476 0.26378 0.0
C1321 C 0.98693 0.67218 0.2618 0.0
N1322 N 0.98977 0.59401 0.30683 0.0
N1323 N 0.98355 0.6578 0.28256 0.0
H1324 H 0.29371 0.02332 0.15515 0.0
H1325 H 0.14236 0.03468 0.13697 0.0
H1326 H 0.23787 0.00409 0.21219 0.0
H1327 H 0.19647 0.04855 0.07653 0.0
H1328 H 0.1773 0.02301 0.16429 0.0
H1329 H 0.25874 0.03203 0.12556 0.0
C1330 C 0.274 0.02078 0.16126 0.0
C1331 C 0.26845 0.01303 0.18597 0.0
C1332 C 0.18161 0.02853 0.14505 0.0
C1333 C 0.22852 0.02305 0.15259 0.0
C1334 C 0.16161 0.03528 0.12937 0.0
C1335 C 0.16641 0.04275 0.10434 0.0
C1336 C 0.20679 0.02931 0.13584 0.0
C1337 C 0.19183 0.04296 0.09567 0.0
C1338 C 0.2541 0.02576 0.14447 0.0
C1339 C 0.24277 0.01002 0.19321 0.0
N1340 N 0.21108 0.03645 0.11143 0.0
N1341 N 0.22375 0.01515 0.17664 0.0
H1342 H 0.7365 0.4749 0.14606 0.0
H1343 H 0.88752 0.5028 0.1313 0.0
H1344 H 0.78269 0.52393 0.1989 0.0
H1345 H 0.8399 0.46392 0.07221 0.0
H1346 H 0.8491 0.51144 0.1558 0.0
H1347 H 0.77378 0.47121 0.11828 0.0
C1348 C 0.75444 0.48499 0.15176 0.0
C1349 C 0.75645 0.49969 0.17491 0.0
C1350 C 0.84701 0.50118 0.13739 0.0
C1351 C 0.79925 0.4955 0.14321 0.0
C1352 C 0.86898 0.4962 0.12337 0.0
C1353 C 0.86702 0.48249 0.09966 0.0
C1354 C 0.8228 0.49219 0.12783 0.0
C1355 C 0.84239 0.47455 0.09038 0.0
C1356 C 0.77569 0.48296 0.13584 0.0
C1357 C 0.78013 0.51258 0.18115 0.0
N1358 N 0.82129 0.47931 0.10457 0.0
N1359 N 0.80061 0.51001 0.16553 0.0
H1360 H 0.2668 0.96814 0.35557 0.0
H1361 H 0.1173 0.98559 0.36659 0.0
H1362 H 0.22743 0.02298 0.31296 0.0
H1363 H 0.16036 0.94801 0.4233 0.0
H1364 H 0.15751 -0.00026 0.3469 0.0
H1365 H 0.22833 0.961 0.38125 0.0
C1366 C 0.2501 0.97889 0.35187 0.0
C1367 C 0.25014 0.99604 0.33206 0.0
C1368 C 0.15818 0.98858 0.36378 0.0
C1369 C 0.20607 0.98778 0.36104 0.0
C1370 C 0.13522 0.98037 0.37496 0.0
C1371 C 0.13545 0.96539 0.39651 0.0
C1372 C 0.18156 0.98149 0.37398 0.0
C1373 C 0.15926 0.95944 0.40666 0.0
C1374 C 0.2282 0.97486 0.36653 0.0
C1375 C 0.22816 0.00966 0.32813 0.0
N1376 N 0.18136 0.96728 0.39514 0.0
N1377 N 0.20685 0.00497 0.34226 0.0
H1378 H 0.7793 0.48645 0.28287 0.0
H1379 H 0.84419 0.52124 0.41965 0.0
H1380 H 0.73638 0.49996 0.35165 0.0
H1381 H 0.88695 0.5058 0.35079 0.0
H1382 H 0.80449 0.50958 0.39599 0.0
H1383 H 0.81906 0.48917 0.30832 0.0
C1384 C 0.77839 0.48964 0.30343 0.0
C1385 C 0.75492 0.49314 0.31538 0.0
C1386 C 0.82258 0.50859 0.38612 0.0
C1387 C 0.79985 0.49662 0.34448 0.0
C1388 C 0.84527 0.51528 0.3996 0.0
C1389 C 0.86894 0.51478 0.38713 0.0
C1390 C 0.82357 0.50143 0.35996 0.0
C1391 C 0.86914 0.50671 0.36117 0.0
C1392 C 0.80095 0.49127 0.31794 0.0
C1393 C 0.75435 0.49728 0.34196 0.0
N1394 N 0.84679 0.50054 0.34842 0.0
N1395 N 0.77659 0.49915 0.35567 0.0
H1396 H 0.18158 0.28316 0.01089 0.0
H1397 H 0.17777 0.13054 0.019 0.0
H1398 H 0.24862 0.23882 0.00594 0.0
H1399 H 0.11066 0.1751 0.02584 0.0
H1400 H 0.20348 0.16953 0.01074 0.0
H1401 H 0.15466 0.24338 0.01289 0.0
C1402 C 0.19048 0.26491 0.00993 0.0
C1403 C 0.21713 0.26394 0.00821 0.0
C1404 C 0.18311 0.17077 0.01392 0.0
C1405 C 0.18684 0.21862 0.01073 0.0
C1406 C 0.16838 0.14848 0.01865 0.0
C1407 C 0.14199 0.14952 0.02332 0.0
C1408 C 0.17144 0.19433 0.0139 0.0
C1409 C 0.13094 0.17336 0.02247 0.0
C1410 C 0.17523 0.24227 0.01114 0.0
C1411 C 0.22804 0.24009 0.0072 0.0
N1412 N 0.14574 0.19481 0.01801 0.0
N1413 N 0.21284 0.2183 0.00859 0.0
H1414 H 0.18586 0.76617 0.51184 0.0
H1415 H 0.06761 0.82227 0.43869 0.0
H1416 H 0.14272 0.7226 0.45245 0.0
H1417 H 0.12479 0.8691 0.48194 0.0
H1418 H 0.09142 0.78434 0.44712 0.0
H1419 H 0.16009 0.80276 0.50477 0.0
C1420 C 0.17078 0.76422 0.49744 0.0
C1421 C 0.16637 0.74121 0.48279 0.0
C1422 C 0.09867 0.80293 0.45478 0.0
C1423 C 0.13683 0.78327 0.47443 0.0
C1424 C 0.08504 0.82459 0.4501 0.0
C1425 C 0.09422 0.84897 0.45959 0.0
C1426 C 0.12147 0.80563 0.46931 0.0
C1427 C 0.11701 0.85076 0.47414 0.0
C1428 C 0.15619 0.78521 0.49329 0.0
C1429 C 0.14686 0.74001 0.46407 0.0
N1430 N 0.12978 0.82942 0.47858 0.0
N1431 N 0.13272 0.76072 0.46048 0.0
H1432 H 0.82014 0.71192 0.52311 0.0
H1433 H 0.93996 0.65408 0.45026 0.0
H1434 H 0.86527 0.75332 0.46834 0.0
H1435 H 0.8806 0.60772 0.48573 0.0
H1436 H 0.9177 0.69248 0.46344 0.0
H1437 H 0.84748 0.6756 0.51662 0.0
C1438 C 0.8361 0.71353 0.51008 0.0
C1439 C 0.84038 0.73557 0.49612 0.0
C1440 C 0.90967 0.67389 0.46845 0.0
C1441 C 0.87154 0.69409 0.48845 0.0
C1442 C 0.92238 0.65197 0.461 0.0
C1443 C 0.91202 0.6276 0.4667 0.0
C1444 C 0.8866 0.67148 0.48195 0.0
C1445 C 0.88917 0.62607 0.48068 0.0
C1446 C 0.85154 0.69273 0.50622 0.0
C1447 C 0.86116 0.73654 0.47926 0.0
N1448 N 0.87722 0.64769 0.48778 0.0
N1449 N 0.87591 0.71605 0.47581 0.0
H1450 H 0.27134 0.76631 0.4974 0.0
H1451 H 0.41318 0.82893 0.51782 0.0
H1452 H 0.33904 0.7228 0.497 0.0
H1453 H 0.34584 0.87309 0.51339 0.0
H1454 H 0.38677 0.79017 0.50651 0.0
H1455 H 0.29858 0.80607 0.49958 0.0
C1456 C 0.29201 0.76532 0.49748 0.0
C1457 C 0.30321 0.74163 0.49709 0.0
C1458 C 0.37779 0.80836 0.50783 0.0
C1459 C 0.33434 0.78651 0.49985 0.0
C1460 C 0.39287 0.83052 0.51433 0.0
C1461 C 0.38166 0.85428 0.51688 0.0
C1462 C 0.35129 0.80992 0.50401 0.0
C1463 C 0.35528 0.85517 0.51185 0.0
C1464 C 0.30754 0.78786 0.49874 0.0
C1465 C 0.32993 0.74093 0.49729 0.0
N1466 N 0.34095 0.83327 0.50589 0.0
N1467 N 0.34467 0.76311 0.49886 0.0
H1468 H 0.49626 0.7145 0.74306 0.0
H1469 H 0.5476 0.57866 0.69561 0.0
H1470 H 0.52775 0.66188 0.79411 0.0
H1471 H 0.5263 0.63708 0.6451 0.0
H1472 H 0.53553 0.60623 0.73223 0.0
H1473 H 0.50183 0.68353 0.70715 0.0
C1474 C 0.50404 0.6962 0.74661 0.0
C1475 C 0.51162 0.69054 0.77129 0.0
C1476 C 0.53342 0.61292 0.7131 0.0
C1477 C 0.51836 0.65522 0.73062 0.0
C1478 C 0.54027 0.59718 0.69219 0.0
C1479 C 0.53819 0.60563 0.66722 0.0
C1480 C 0.52428 0.63719 0.70899 0.0
C1481 C 0.5285 0.62981 0.66397 0.0
C1482 C 0.50735 0.6786 0.72621 0.0
C1483 C 0.52172 0.66674 0.77519 0.0
N1484 N 0.52199 0.64472 0.68458 0.0
N1485 N 0.52495 0.64995 0.75499 0.0
H1486 H 0.46284 0.79306 0.72529 0.0
H1487 H 0.46849 0.9245 0.65426 0.0
H1488 H 0.50705 0.8602 0.75466 0.0
H1489 H 0.45033 0.85123 0.61511 0.0
H1490 H 0.47858 0.90237 0.69295 0.0
H1491 H 0.45373 0.81527 0.68639 0.0
C1492 C 0.47053 0.81254 0.72355 0.0
C1493 C 0.48566 0.82488 0.74318 0.0
C1494 C 0.47247 0.89118 0.67584 0.0
C1495 C 0.47531 0.85036 0.69884 0.0
C1496 C 0.4666 0.90377 0.65379 0.0
C1497 C 0.45855 0.88969 0.6314 0.0
C1498 C 0.46988 0.86434 0.67563 0.0
C1499 C 0.45656 0.86286 0.63189 0.0
C1500 C 0.46548 0.82512 0.70132 0.0
C1501 C 0.49542 0.85 0.73987 0.0
N1502 N 0.46202 0.85106 0.65371 0.0
N1503 N 0.48993 0.86201 0.71816 0.0
H1504 H 0.54572 0.36436 0.74895 0.0
H1505 H 0.51929 0.38296 0.89758 0.0
H1506 H 0.48879 0.31896 0.78873 0.0
H1507 H 0.56464 0.43795 0.85563 0.0
H1508 H 0.50634 0.36057 0.85734 0.0
H1509 H 0.55138 0.39304 0.78709 0.0
C1510 C 0.53427 0.36059 0.76566 0.0
C1511 C 0.51696 0.33916 0.76583 0.0
C1512 C 0.51894 0.37767 0.85688 0.0
C1513 C 0.52335 0.3717 0.80943 0.0
C1514 C 0.52645 0.3904 0.87988 0.0
C1515 C 0.54332 0.41218 0.87997 0.0
C1516 C 0.52862 0.38656 0.83379 0.0
C1517 C 0.55171 0.42114 0.85644 0.0
C1518 C 0.53741 0.377 0.78735 0.0
C1519 C 0.50229 0.33532 0.78778 0.0
N1520 N 0.5445 0.40809 0.83427 0.0
N1521 N 0.50606 0.35125 0.80882 0.0
H1522 H 0.49624 0.15738 0.7269 0.0
H1523 H 0.50928 0.15023 0.87899 0.0
H1524 H 0.52309 0.22071 0.7773 0.0
H1525 H 0.47991 0.08653 0.82992 0.0
H1526 H 0.51718 0.17512 0.84148 0.0
H1527 H 0.49272 0.13 0.76376 0.0
C1528 C 0.50152 0.16537 0.74579 0.0
C1529 C 0.50983 0.19122 0.7493 0.0
C1530 C 0.50911 0.15567 0.83883 0.0
C1531 C 0.50591 0.1603 0.79138 0.0
C1532 C 0.50457 0.14137 0.8603 0.0
C1533 C 0.49374 0.11621 0.8577 0.0
C1534 C 0.50273 0.14488 0.81441 0.0
C1535 C 0.48823 0.10585 0.83289 0.0
C1536 C 0.49951 0.14984 0.76678 0.0
C1537 C 0.51655 0.20084 0.77397 0.0
N1538 N 0.49265 0.12027 0.81222 0.0
N1539 N 0.51435 0.18541 0.7941 0.0
H1540 H 0.7824 0.51784 0.67093 0.0
H1541 H 0.62925 0.5245 0.67275 0.0
H1542 H 0.73681 0.50559 0.73786 0.0
H1543 H 0.67475 0.53447 0.60505 0.0
H1544 H 0.66821 0.51691 0.6967 0.0
H1545 H 0.74308 0.52342 0.64623 0.0
C1546 C 0.764 0.51629 0.68031 0.0
C1547 C 0.76262 0.51135 0.70634 0.0
C1548 C 0.66968 0.52069 0.67659 0.0
C1549 C 0.71768 0.51767 0.67845 0.0
C1550 C 0.6474 0.52503 0.66286 0.0
C1551 C 0.64863 0.5302 0.63678 0.0
C1552 C 0.69348 0.52154 0.66425 0.0
C1553 C 0.67279 0.53059 0.62509 0.0
C1554 C 0.7416 0.51946 0.66629 0.0
C1555 C 0.73849 0.50943 0.71778 0.0
N1556 N 0.69421 0.5264 0.63891 0.0
N1557 N 0.71693 0.51266 0.70378 0.0
H1558 H 0.28157 0.00471 0.71042 0.0
H1559 H 0.32653 0.95753 0.5704 0.0
H1560 H 0.22863 0.98366 0.64858 0.0
H1561 H 0.37841 0.97921 0.63331 0.0
H1562 H 0.29046 0.9689 0.59764 0.0
H1563 H 0.31742 0.99743 0.68147 0.0
C1564 C 0.27762 0.99866 0.69064 0.0
C1565 C 0.2523 0.99461 0.68178 0.0
C1566 C 0.30977 0.97127 0.6054 0.0
C1567 C 0.29302 0.98611 0.64853 0.0
C1568 C 0.33039 0.96482 0.58983 0.0
C1569 C 0.35562 0.96727 0.59954 0.0
C1570 C 0.31438 0.98024 0.63086 0.0
C1571 C 0.35936 0.97683 0.62493 0.0
C1572 C 0.298 0.99447 0.67412 0.0
C1573 C 0.248 0.98683 0.65604 0.0
N1574 N 0.33903 0.98284 0.63965 0.0
N1575 N 0.26816 0.98269 0.6403 0.0
H1576 H 0.78841 0.48101 0.87554 0.0
H1577 H 0.64279 0.50897 0.89917 0.0
H1578 H 0.7481 0.53685 0.83512 0.0
H1579 H 0.68663 0.46628 0.95108 0.0
H1580 H 0.68218 0.52156 0.87742 0.0
H1581 H 0.75282 0.47767 0.90558 0.0
C1582 C 0.7722 0.49282 0.87323 0.0
C1583 C 0.77102 0.509 0.85266 0.0
C1584 C 0.6833 0.50966 0.89372 0.0
C1585 C 0.73025 0.50515 0.88674 0.0
C1586 C 0.66076 0.50233 0.90608 0.0
C1587 C 0.6614 0.48625 0.92675 0.0
C1588 C 0.70668 0.50053 0.90179 0.0
C1589 C 0.68528 0.47857 0.93511 0.0
C1590 C 0.75195 0.49097 0.89041 0.0
C1591 C 0.74981 0.52417 0.85073 0.0
N1592 N 0.70698 0.48548 0.92235 0.0
N1593 N 0.73009 0.52157 0.86731 0.0
H1594 H 0.25185 0.02689 0.85717 0.0
H1595 H 0.40198 0.01516 0.86574 0.0
H1596 H 0.29308 0.97689 0.80637 0.0
H1597 H 0.35837 0.05006 0.92651 0.0
H1598 H 0.36201 0.99897 0.84499 0.0
H1599 H 0.28996 0.03307 0.88466 0.0
C1600 C 0.26887 0.01689 0.8521 0.0
C1601 C 0.26956 0.0016 0.82943 0.0
C1602 C 0.36118 0.00996 0.86299 0.0
C1603 C 0.31321 0.00886 0.86039 0.0
C1604 C 0.38399 0.01938 0.87476 0.0
C1605 C 0.3835 0.0343 0.89772 0.0
C1606 C 0.33767 0.01576 0.87407 0.0
C1607 C 0.35964 0.03882 0.90872 0.0
C1608 C 0.29058 0.02039 0.86775 0.0
C1609 C 0.29187 0.98884 0.82372 0.0
N1610 N 0.33765 0.02984 0.89662 0.0
N1611 N 0.31302 0.99311 0.8389 0.0
H1612 H 0.66177 0.75915 0.5216 0.0
H1613 H 0.65131 0.60846 0.54272 0.0
H1614 H 0.7227 0.7087 0.50549 0.0
H1615 H 0.59007 0.65862 0.56008 0.0
H1616 H 0.67665 0.64455 0.52667 0.0
H1617 H 0.63397 0.72219 0.53308 0.0
C1618 C 0.66907 0.74014 0.52023 0.0
C1619 C 0.69435 0.73668 0.51264 0.0
C1620 C 0.65765 0.64769 0.53392 0.0
C1621 C 0.66308 0.69458 0.52589 0.0
C1622 C 0.64313 0.62706 0.54316 0.0
C1623 C 0.61851 0.63049 0.55293 0.0
C1624 C 0.64758 0.67204 0.53446 0.0
C1625 C 0.60898 0.65507 0.55283 0.0
C1626 C 0.65333 0.71912 0.52683 0.0
C1627 C 0.70321 0.71191 0.51121 0.0
N1628 N 0.62357 0.67493 0.54382 0.0
N1629 N 0.68762 0.69176 0.51792 0.0
H1630 H 0.71417 0.28263 0.02002 0.0
H1631 H 0.58881 0.34433 0.96556 0.0
H1632 H 0.66086 0.24184 0.96726 0.0
H1633 H 0.65066 0.38789 0.00544 0.0
H1634 H 0.6121 0.30536 0.97011 0.0
H1635 H 0.68814 0.31996 0.01913 0.0
C1636 C 0.6968 0.2814 0.00847 0.0
C1637 C 0.68971 0.25901 0.9937 0.0
C1638 C 0.62049 0.32345 0.97794 0.0
C1639 C 0.65988 0.30194 0.99236 0.0
C1640 C 0.60717 0.34571 0.97545 0.0
C1641 C 0.61781 0.36951 0.98504 0.0
C1642 C 0.64454 0.32492 0.9903 0.0
C1643 C 0.64172 0.37005 0.99761 0.0
C1644 C 0.68204 0.30282 0.00782 0.0
C1645 C 0.66721 0.25877 0.97876 0.0
N1646 N 0.65425 0.34814 -0.00016 0.0
N1647 N 0.6531 0.2799 0.97846 0.0
H1648 H 0.38318 0.28163 0.97302 0.0
H1649 H 0.39557 0.13274 0.99188 0.0
H1650 H 0.33832 0.23909 0.02717 0.0
H1651 H 0.45375 0.17893 0.95451 0.0
H1652 H 0.37388 0.17152 0.00417 0.0
H1653 H 0.40901 0.24434 0.96517 0.0
C1654 C 0.3789 0.26449 0.98337 0.0
C1655 C 0.35856 0.26341 0.00073 0.0
C1656 C 0.39149 0.17322 0.99344 0.0
C1657 C 0.38783 0.22072 0.99174 0.0
C1658 C 0.40385 0.15106 0.98631 0.0
C1659 C 0.42647 0.15255 0.97202 0.0
C1660 C 0.40158 0.19709 0.98595 0.0
C1661 C 0.43636 0.17686 0.96553 0.0
C1662 C 0.39369 0.24328 0.97897 0.0
C1663 C 0.35396 0.24083 0.0138 0.0
N1664 N 0.42372 0.19817 0.97233 0.0
N1665 N 0.3683 0.22031 0.00884 0.0
H1666 H 0.79557 0.27855 0.98514 0.0
H1667 H 0.93233 0.34459 0.02514 0.0
H1668 H 0.86344 0.23674 0.99533 0.0
H1669 H 0.86511 0.38686 0.01143 0.0
H1670 H 0.90839 0.30522 0.01064 0.0
H1671 H 0.82163 0.31888 0.99077 0.0
C1672 C 0.81608 0.27804 0.98826 0.0
C1673 C 0.82757 0.25467 0.99 0.0
C1674 C 0.89893 0.32313 0.01064 0.0
C1675 C 0.85734 0.30022 0.99671 0.0
C1676 C 0.91257 0.34564 0.01898 0.0
C1677 C 0.90063 0.36905 0.0198 0.0
C1678 C 0.8731 0.32401 0.0032 0.0
C1679 C 0.87505 0.36923 0.01134 0.0
C1680 C 0.83092 0.30092 0.99152 0.0
C1681 C 0.85408 0.25461 0.99403 0.0
N1682 N 0.86209 0.34702 0.00359 0.0
N1683 N 0.8681 0.27711 0.9975 0.0
loop_
_geom_bond_atom_site_label_1
_geom_bond_atom_site_label_2
_geom_bond_distance
_geom_bond_site_symmetry_2
_ccdc_geom_bond_type
C0 C1 1.443 . S
C0 N4 1.376 . S
C0 C38 1.389 . S
C1 C0 1.443 . S
C1 C2 1.340 . S
C1 H41 0.951 . S
C2 C1 1.340 . S
C2 C3 1.439 . S
C2 H42 0.950 . S
C3 C2 1.439 . S
C3 N4 1.374 . S
C3 C37 1.395 . S
N4 C0 1.376 . S
N4 C3 1.374 . S
N4 Co5 2.008 1_655 S
Co5 N4 2.008 1_455 S
Co5 N6 1.995 1_455 S
Co5 N11 2.008 . S
Co5 N16 1.995 . S
Co5 N21 2.282 . S
Co5 N27 2.282 1_455 S
N6 Co5 1.995 1_655 S
N6 C7 1.376 . S
N6 C10 1.383 . S
C7 N6 1.376 . S
C7 C8 1.446 . S
C7 C37 1.391 . S
C8 C7 1.446 . S
C8 C9 1.339 . S
C8 H43 0.949 . S
C9 C8 1.339 . S
C9 C10 1.439 . S
C9 H44 0.950 . S
C10 N6 1.383 . S
C10 C9 1.439 . S
C10 C39 1.392 1_655 S
N11 Co5 2.008 . S
N11 C12 1.376 . S
N11 C15 1.374 . S
C12 N11 1.376 . S
C12 C13 1.443 . S
C12 C39 1.389 . S
C13 C12 1.443 . S
C13 C14 1.340 . S
C13 H45 0.951 . S
C14 C13 1.340 . S
C14 C15 1.439 . S
C14 H46 0.950 . S
C15 N11 1.374 . S
C15 C14 1.439 . S
C15 C40 1.395 . S
N16 Co5 1.995 . S
N16 C17 1.376 . S
N16 C20 1.383 . S
C17 N16 1.376 . S
C17 C18 1.446 . S
C17 C40 1.391 . S
C18 C17 1.446 . S
C18 C19 1.339 . S
C18 H47 0.949 . S
C19 C18 1.339 . S
C19 C20 1.439 . S
C19 H48 0.950 . S
C20 N16 1.383 . S
C20 C19 1.439 . S
C20 C38 1.392 1_455 S
N21 Co5 2.282 . S
N21 C24 1.332 . S
N21 C26 1.332 1_455 S
C22 C23 1.386 . S
C22 C25 1.388 1_455 S
C23 C22 1.386 . S
C23 C24 1.382 . S
C23 H49 0.950 . S
C24 N21 1.332 . S
C24 C23 1.382 . S
C24 H35 0.952 . S
C25 C22 1.388 1_655 S
C25 C26 1.382 . S
C25 H50 0.950 . S
C26 N21 1.332 1_655 S
C26 C25 1.382 . S
C26 H36 0.948 . S
N27 Co5 2.282 1_655 S
N27 C31 1.332 . S
N27 C32 1.332 1_655 S
C28 C29 1.388 1_455 S
C28 C32 1.382 . S
C28 H51 0.950 . S
C29 C28 1.388 1_655 S
C29 C30 1.386 . S
C30 C29 1.386 . S
C30 C31 1.382 . S
C30 H52 0.950 . S
C31 N27 1.332 . S
C31 C30 1.382 . S
C31 H33 0.952 . S
C32 N27 1.332 1_455 S
C32 C28 1.382 . S
C32 H34 0.948 . S
H33 C31 0.952 . S
H34 C32 0.948 . S
H35 C24 0.952 . S
H36 C26 0.948 . S
C37 C3 1.395 . S
C37 C7 1.391 . S
C38 C0 1.389 . S
C38 C20 1.392 1_655 S
C39 C10 1.392 1_455 S
C39 C12 1.389 . S
C40 C15 1.395 . S
C40 C17 1.391 . S
H41 C1 0.951 . S
H42 C2 0.950 . S
H43 C8 0.949 . S
H44 C9 0.950 . S
H45 C13 0.951 . S
H46 C14 0.950 . S
H47 C18 0.949 . S
H48 C19 0.950 . S
H49 C23 0.950 . S
H50 C25 0.950 . S
H51 C28 0.950 . S
H52 C30 0.950 . S
C53 C54 1.443 . S
C53 N57 1.376 . S
C53 C91 1.389 1_655 S
C54 C53 1.443 . S
C54 C55 1.340 . S
C54 H94 0.951 . S
C55 C54 1.340 . S
C55 C56 1.439 . S
C55 H95 0.950 . S
C56 C55 1.439 . S
C56 N57 1.374 . S
C56 C90 1.395 . S
N57 C53 1.376 . S
N57 C56 1.374 . S
N57 Co58 2.008 1_655 S
Co58 N57 2.008 1_455 S
Co58 N59 1.986 1_455 S
Co58 N64 2.008 . S
Co58 N69 1.995 . S
Co58 N74 2.282 . S
Co58 N80 2.282 . S
N59 Co58 1.986 1_655 S
N59 C60 1.389 . S
N59 C63 1.380 1_655 S
C60 N59 1.389 . S
C60 C61 1.446 . S
C60 C90 1.391 . S
C61 C60 1.446 . S
C61 C62 1.339 . S
C61 H96 0.949 . S
C62 C61 1.339 . S
C62 C63 1.439 1_655 S
C62 H97 0.950 . S
C63 N59 1.380 1_455 S
C63 C62 1.439 1_455 S
C63 C92 1.392 . S
N64 Co58 2.008 . S
N64 C65 1.376 . S
N64 C68 1.374 . S
C65 N64 1.376 . S
C65 C66 1.443 . S
C65 C92 1.389 . S
C66 C65 1.443 . S
C66 C67 1.340 . S
C66 H98 0.951 . S
C67 C66 1.340 . S
C67 C68 1.439 . S
C67 H99 0.950 . S
C68 N64 1.374 . S
C68 C67 1.439 . S
C68 C93 1.395 . S
N69 Co58 1.995 . S
N69 C70 1.376 . S
N69 C73 1.383 . S
C70 N69 1.376 . S
C70 C71 1.446 . S
C70 C93 1.391 . S
C71 C70 1.446 . S
C71 C72 1.339 . S
C71 H100 0.949 . S
C72 C71 1.339 . S
C72 C73 1.439 . S
C72 H101 0.950 . S
C73 N69 1.383 . S
C73 C72 1.439 . S
C73 C91 1.392 . S
N74 Co58 2.282 . S
N74 C77 1.332 . S
N74 C79 1.332 . S
C75 C76 1.386 . S
C75 C78 1.388 . S
C76 C75 1.386 . S
C76 C77 1.382 . S
C76 H102 0.950 . S
C77 N74 1.332 . S
C77 C76 1.382 . S
C77 H88 0.952 . S
C78 C75 1.388 . S
C78 C79 1.382 . S
C78 H103 0.950 . S
C79 N74 1.332 . S
C79 C78 1.382 . S
C79 H89 0.948 1_455 S
N80 Co58 2.282 . S
N80 C84 1.332 1_455 S
N80 C85 1.332 . S
C81 C82 1.388 . S
C81 C85 1.382 . S
C81 H104 0.950 . S
C82 C81 1.388 . S
C82 C83 1.386 1_455 S
C83 C82 1.386 1_655 S
C83 C84 1.382 . S
C83 H105 0.950 . S
C84 N80 1.332 1_655 S
C84 C83 1.382 . S
C84 H86 0.952 . S
C85 N80 1.332 . S
C85 C81 1.382 . S
C85 H87 0.948 . S
H86 C84 0.952 . S
H87 C85 0.948 . S
H88 C77 0.952 . S
H89 C79 0.948 1_655 S
C90 C56 1.395 . S
C90 C60 1.391 . S
C91 C53 1.389 1_455 S
C91 C73 1.392 . S
C92 C63 1.392 . S
C92 C65 1.389 . S
C93 C68 1.395 . S
C93 C70 1.391 . S
H94 C54 0.951 . S
H95 C55 0.950 . S
H96 C61 0.949 . S
H97 C62 0.950 . S
H98 C66 0.951 . S
H99 C67 0.950 . S
H100 C71 0.949 . S
H101 C72 0.950 . S
H102 C76 0.950 . S
H103 C78 0.950 . S
H104 C81 0.950 . S
H105 C83 0.950 . S
C106 C107 1.443 . S
C106 N110 1.376 . S
C106 C144 1.389 . S
C107 C106 1.443 . S
C107 C108 1.340 . S
C107 H147 0.951 . S
C108 C107 1.340 . S
C108 C109 1.439 . S
C108 H148 0.950 . S
C109 C108 1.439 . S
C109 N110 1.374 . S
C109 C143 1.395 . S
N110 C106 1.376 . S
N110 C109 1.374 . S
N110 Co111 2.008 1_565 S
Co111 N110 2.008 1_545 S
Co111 N112 1.995 1_545 S
Co111 N117 2.008 . S
Co111 N122 1.995 . S
Co111 N127 2.282 . S
Co111 N133 2.278 1_545 S
N112 Co111 1.995 1_565 S
N112 C113 1.376 . S
N112 C116 1.383 . S
C113 N112 1.376 . S
C113 C114 1.446 . S
C113 C143 1.391 . S
C114 C113 1.446 . S
C114 C115 1.339 . S
C114 H149 0.949 . S
C115 C114 1.339 . S
C115 C116 1.439 . S
C115 H150 0.950 . S
C116 N112 1.383 . S
C116 C115 1.439 . S
C116 C145 1.392 1_565 S
N117 Co111 2.008 . S
N117 C118 1.376 . S
N117 C121 1.374 . S
C118 N117 1.376 . S
C118 C119 1.443 . S
C118 C145 1.389 . S
C119 C118 1.443 . S
C119 C120 1.340 . S
C119 H151 0.951 . S
C120 C119 1.340 . S
C120 C121 1.439 . S
C120 H152 0.950 . S
C121 N117 1.374 . S
C121 C120 1.439 . S
C121 C146 1.395 . S
N122 Co111 1.995 . S
N122 C123 1.376 . S
N122 C126 1.383 . S
C123 N122 1.376 . S
C123 C124 1.446 . S
C123 C146 1.391 . S
C124 C123 1.446 . S
C124 C125 1.339 . S
C124 H153 0.949 . S
C125 C124 1.339 . S
C125 C126 1.439 . S
C125 H154 0.950 . S
C126 N122 1.383 . S
C126 C125 1.439 . S
C126 C144 1.392 1_545 S
N127 Co111 2.282 . S
N127 C130 1.332 . S
N127 C132 1.332 1_545 S
C128 C129 1.386 . S
C128 C131 1.388 . S
C129 C128 1.386 . S
C129 C130 1.382 . S
C129 H155 0.950 . S
C130 N127 1.332 . S
C130 C129 1.382 . S
C130 H141 0.952 . S
C131 C128 1.388 . S
C131 C132 1.382 1_545 S
C131 H156 0.950 1_545 S
C132 N127 1.332 1_565 S
C132 C131 1.382 1_565 S
C132 H142 0.948 . S
N133 Co111 2.278 1_565 S
N133 C137 1.360 . S
N133 C138 1.313 1_565 S
C134 C135 1.388 1_545 S
C134 C138 1.382 . S
C134 H157 0.950 . S
C135 C134 1.388 1_565 S
C135 C136 1.386 . S
C136 C135 1.386 . S
C136 C137 1.382 . S
C136 H158 0.950 . S
C137 N133 1.360 . S
C137 C136 1.382 . S
C137 H139 0.952 . S
C138 N133 1.313 1_545 S
C138 C134 1.382 . S
C138 H140 0.948 . S
H139 C137 0.952 . S
H140 C138 0.948 . S
H141 C130 0.952 . S
H142 C132 0.948 . S
C143 C109 1.395 . S
C143 C113 1.391 . S
C144 C106 1.389 . S
C144 C126 1.392 1_565 S
C145 C116 1.392 1_545 S
C145 C118 1.389 . S
C146 C121 1.395 . S
C146 C123 1.391 . S
H147 C107 0.951 . S
H148 C108 0.950 . S
H149 C114 0.949 . S
H150 C115 0.950 . S
H151 C119 0.951 . S
H152 C120 0.950 . S
H153 C124 0.949 . S
H154 C125 0.950 . S
H155 C129 0.950 . S
H156 C131 0.950 1_565 S
H157 C134 0.950 . S
H158 C136 0.950 . S
C159 C160 1.443 . S
C159 N163 1.376 . S
C159 C197 1.389 . S
C160 C159 1.443 . S
C160 C161 1.340 . S
C160 H200 0.951 . S
C161 C160 1.340 . S
C161 C162 1.439 . S
C161 H201 0.950 . S
C162 C161 1.439 . S
C162 N163 1.374 . S
C162 C196 1.395 . S
N163 C159 1.376 . S
N163 C162 1.374 . S
N163 Co164 2.008 . S
Co164 N163 2.008 . S
Co164 N165 1.995 . S
Co164 N170 2.008 . S
Co164 N175 1.995 . S
Co164 N180 2.282 . S
Co164 N186 2.282 . S
N165 Co164 1.995 . S
N165 C166 1.376 . S
N165 C169 1.383 . S
C166 N165 1.376 . S
C166 C167 1.446 . S
C166 C196 1.391 . S
C167 C166 1.446 . S
C167 C168 1.339 . S
C167 H202 0.949 . S
C168 C167 1.339 . S
C168 C169 1.439 . S
C168 H203 0.950 . S
C169 N165 1.383 . S
C169 C168 1.439 . S
C169 C198 1.392 . S
N170 Co164 2.008 . S
N170 C171 1.376 . S
N170 C174 1.374 . S
C171 N170 1.376 . S
C171 C172 1.443 . S
C171 C198 1.389 . S
C172 C171 1.443 . S
C172 C173 1.340 . S
C172 H204 0.951 . S
C173 C172 1.340 . S
C173 C174 1.439 . S
C173 H205 0.950 . S
C174 N170 1.374 . S
C174 C173 1.439 . S
C174 C199 1.395 . S
N175 Co164 1.995 . S
N175 C176 1.376 . S
N175 C179 1.383 . S
C176 N175 1.376 . S
C176 C177 1.446 . S
C176 C199 1.391 . S
C177 C176 1.446 . S
C177 C178 1.339 . S
C177 H206 0.949 . S
C178 C177 1.339 . S
C178 C179 1.439 . S
C178 H207 0.950 . S
C179 N175 1.383 . S
C179 C178 1.439 . S
C179 C197 1.392 . S
N180 Co164 2.282 . S
N180 C183 1.332 . S
N180 C185 1.332 . S
C181 C182 1.386 . S
C181 C184 1.388 . S
C182 C181 1.386 . S
C182 C183 1.382 . S
C182 H208 0.950 . S
C183 N180 1.332 . S
C183 C182 1.382 . S
C183 H194 0.952 . S
C184 C181 1.388 . S
C184 C185 1.382 . S
C184 H209 0.950 . S
C185 N180 1.332 . S
C185 C184 1.382 . S
C185 H195 0.948 . S
N186 Co164 2.282 . S
N186 C190 1.332 . S
N186 C191 1.332 . S
C187 C188 1.388 . S
C187 C191 1.382 . S
C187 H210 0.950 . S
C188 C187 1.388 . S
C188 C189 1.386 . S
C189 C188 1.386 . S
C189 C190 1.382 . S
C189 H211 0.950 . S
C190 N186 1.332 . S
C190 C189 1.382 . S
C190 H192 0.952 . S
C191 N186 1.332 . S
C191 C187 1.382 . S
C191 H193 0.948 . S
H192 C190 0.952 . S
H193 C191 0.948 . S
H194 C183 0.952 . S
H195 C185 0.948 . S
C196 C162 1.395 . S
C196 C166 1.391 . S
C197 C159 1.389 . S
C197 C179 1.392 . S
C198 C169 1.392 . S
C198 C171 1.389 . S
C199 C174 1.395 . S
C199 C176 1.391 . S
H200 C160 0.951 . S
H201 C161 0.950 . S
H202 C167 0.949 . S
H203 C168 0.950 . S
H204 C172 0.951 . S
H205 C173 0.950 . S
H206 C177 0.949 . S
H207 C178 0.950 . S
H208 C182 0.950 . S
H209 C184 0.950 . S
H210 C187 0.950 . S
H211 C189 0.950 . S
C212 C213 1.443 . S
C212 N216 1.376 . S
C212 C250 1.389 1_556 S
C213 C212 1.443 . S
C213 C214 1.340 . S
C213 H253 0.951 . S
C214 C213 1.340 . S
C214 C215 1.439 . S
C214 H254 0.950 . S
C215 C214 1.439 . S
C215 N216 1.374 . S
C215 C249 1.395 . S
N216 C212 1.376 . S
N216 C215 1.374 . S
N216 Co217 2.008 1_556 S
Co217 N216 2.008 1_554 S
Co217 N218 1.995 1_554 S
Co217 N223 2.008 . S
Co217 N228 1.995 . S
Co217 N233 2.282 . S
Co217 N239 2.282 . S
N218 Co217 1.995 1_556 S
N218 C219 1.376 . S
N218 C222 1.383 1_556 S
C219 N218 1.376 . S
C219 C220 1.446 . S
C219 C249 1.391 . S
C220 C219 1.446 . S
C220 C221 1.339 . S
C220 H255 0.949 . S
C221 C220 1.339 . S
C221 C222 1.439 1_556 S
C221 H256 0.950 . S
C222 N218 1.383 1_554 S
C222 C221 1.439 1_554 S
C222 C251 1.392 . S
N223 Co217 2.008 . S
N223 C224 1.376 . S
N223 C227 1.374 . S
C224 N223 1.376 . S
C224 C225 1.443 . S
C224 C251 1.389 . S
C225 C224 1.443 . S
C225 C226 1.340 . S
C225 H257 0.951 . S
C226 C225 1.340 . S
C226 C227 1.439 . S
C226 H258 0.950 . S
C227 N223 1.374 . S
C227 C226 1.439 . S
C227 C252 1.395 . S
N228 Co217 1.995 . S
N228 C229 1.376 . S
N228 C232 1.383 . S
C229 N228 1.376 . S
C229 C230 1.446 . S
C229 C252 1.391 . S
C230 C229 1.446 . S
C230 C231 1.339 . S
C230 H259 0.949 . S
C231 C230 1.339 . S
C231 C232 1.439 . S
C231 H260 0.950 . S
C232 N228 1.383 . S
C232 C231 1.439 . S
C232 C250 1.392 . S
N233 Co217 2.282 . S
N233 C236 1.332 . S
N233 C238 1.332 . S
C234 C235 1.386 . S
C234 C237 1.388 . S
C235 C234 1.386 . S
C235 C236 1.382 . S
C235 H261 0.950 . S
C236 N233 1.332 . S
C236 C235 1.382 . S
C236 H247 0.952 . S
C237 C234 1.388 . S
C237 C238 1.382 . S
C237 H262 0.943 1_554 S
C238 N233 1.332 . S
C238 C237 1.382 . S
C238 H248 0.948 1_554 S
N239 Co217 2.282 . S
N239 C243 1.332 1_554 S
N239 C244 1.332 . S
C240 C241 1.388 . S
C240 C244 1.382 . S
C240 H263 0.950 . S
C241 C240 1.388 . S
C241 C242 1.386 1_554 S
C242 C241 1.386 1_556 S
C242 C243 1.382 . S
C242 H264 0.950 . S
C243 N239 1.332 1_556 S
C243 C242 1.382 . S
C243 H245 0.952 . S
C244 N239 1.332 . S
C244 C240 1.382 . S
C244 H246 0.948 . S
H245 C243 0.952 . S
H246 C244 0.948 . S
H247 C236 0.952 . S
H248 C238 0.948 1_556 S
C249 C215 1.395 . S
C249 C219 1.391 . S
C250 C212 1.389 1_554 S
C250 C232 1.392 . S
C251 C222 1.392 . S
C251 C224 1.389 . S
C252 C227 1.395 . S
C252 C229 1.391 . S
H253 C213 0.951 . S
H254 C214 0.950 . S
H255 C220 0.949 . S
H256 C221 0.950 . S
H257 C225 0.951 . S
H258 C226 0.950 . S
H259 C230 0.949 . S
H260 C231 0.950 . S
H261 C235 0.950 . S
H262 C237 0.943 1_556 S
H263 C240 0.950 . S
H264 C242 0.950 . S
C265 C266 1.443 . S
C265 N269 1.376 . S
C265 C303 1.389 . S
C266 C265 1.443 . S
C266 C267 1.340 . S
C266 H306 0.951 . S
C267 C266 1.340 . S
C267 C268 1.439 . S
C267 H307 0.950 . S
C268 C267 1.439 . S
C268 N269 1.374 . S
C268 C302 1.395 . S
N269 C265 1.376 . S
N269 C268 1.374 . S
N269 Co270 2.008 . S
Co270 N269 2.008 . S
Co270 N271 1.995 . S
Co270 N276 2.008 . S
Co270 N281 1.995 . S
Co270 N286 2.282 . S
Co270 N292 2.282 . S
N271 Co270 1.995 . S
N271 C272 1.376 . S
N271 C275 1.383 . S
C272 N271 1.376 . S
C272 C273 1.446 . S
C272 C302 1.391 . S
C273 C272 1.446 . S
C273 C274 1.339 . S
C273 H308 0.949 . S
C274 C273 1.339 . S
C274 C275 1.439 . S
C274 H309 0.950 . S
C275 N271 1.383 . S
C275 C274 1.439 . S
C275 C304 1.392 . S
N276 Co270 2.008 . S
N276 C277 1.376 . S
N276 C280 1.374 . S
C277 N276 1.376 . S
C277 C278 1.443 . S
C277 C304 1.389 . S
C278 C277 1.443 . S
C278 C279 1.340 . S
C278 H310 0.951 . S
C279 C278 1.340 . S
C279 C280 1.439 . S
C279 H311 0.950 . S
C280 N276 1.374 . S
C280 C279 1.439 . S
C280 C305 1.395 . S
N281 Co270 1.995 . S
N281 C282 1.376 . S
N281 C285 1.383 . S
C282 N281 1.376 . S
C282 C283 1.446 . S
C282 C305 1.391 . S
C283 C282 1.446 . S
C283 C284 1.339 . S
C283 H312 0.949 . S
C284 C283 1.339 . S
C284 C285 1.439 . S
C284 H313 0.950 . S
C285 N281 1.383 . S
C285 C284 1.439 . S
C285 C303 1.392 . S
N286 Co270 2.282 . S
N286 C289 1.332 . S
N286 C291 1.332 . S
C287 C288 1.386 . S
C287 C290 1.388 . S
C288 C287 1.386 . S
C288 C289 1.382 . S
C288 H314 0.950 . S
C289 N286 1.332 . S
C289 C288 1.382 . S
C289 H300 0.952 . S
C290 C287 1.388 . S
C290 C291 1.382 . S
C290 H315 0.950 . S
C291 N286 1.332 . S
C291 C290 1.382 . S
C291 H301 0.948 . S
N292 Co270 2.282 . S
N292 C296 1.332 . S
N292 C297 1.332 . S
C293 C294 1.388 . S
C293 C297 1.382 . S
C293 H316 0.950 . S
C294 C293 1.388 . S
C294 C295 1.386 . S
C295 C294 1.386 . S
C295 C296 1.382 . S
C295 H317 0.950 . S
C296 N292 1.332 . S
C296 C295 1.382 . S
C296 H298 0.952 . S
C297 N292 1.332 . S
C297 C293 1.382 . S
C297 H299 0.948 . S
H298 C296 0.952 . S
H299 C297 0.948 . S
H300 C289 0.952 . S
H301 C291 0.948 . S
C302 C268 1.395 . S
C302 C272 1.391 . S
C303 C265 1.389 . S
C303 C285 1.392 . S
C304 C275 1.392 . S
C304 C277 1.389 . S
C305 C280 1.395 . S
C305 C282 1.391 . S
H306 C266 0.951 . S
H307 C267 0.950 . S
H308 C273 0.949 . S
H309 C274 0.950 . S
H310 C278 0.951 . S
H311 C279 0.950 . S
H312 C283 0.949 . S
H313 C284 0.950 . S
H314 C288 0.950 . S
H315 C290 0.950 . S
H316 C293 0.950 . S
H317 C295 0.950 . S
C318 C319 1.443 . S
C318 N322 1.376 . S
C318 C356 1.389 . S
C319 C318 1.443 . S
C319 C320 1.340 . S
C319 H359 0.951 . S
C320 C319 1.340 . S
C320 C321 1.439 . S
C320 H360 0.950 . S
C321 C320 1.439 . S
C321 N322 1.374 . S
C321 C355 1.395 . S
N322 C318 1.376 . S
N322 C321 1.374 . S
N322 Co323 2.008 . S
Co323 N322 2.008 . S
Co323 N324 1.995 . S
Co323 N329 2.008 . S
Co323 N334 1.995 . S
Co323 N339 2.282 . S
Co323 N345 2.282 . S
N324 Co323 1.995 . S
N324 C325 1.376 . S
N324 C328 1.383 . S
C325 N324 1.376 . S
C325 C326 1.446 . S
C325 C355 1.391 . S
C326 C325 1.446 . S
C326 C327 1.339 . S
C326 H361 0.949 . S
C327 C326 1.339 . S
C327 C328 1.439 . S
C327 H362 0.950 . S
C328 N324 1.383 . S
C328 C327 1.439 . S
C328 C357 1.392 . S
N329 Co323 2.008 . S
N329 C330 1.376 . S
N329 C333 1.374 . S
C330 N329 1.376 . S
C330 C331 1.443 . S
C330 C357 1.389 . S
C331 C330 1.443 . S
C331 C332 1.340 . S
C331 H363 0.951 . S
C332 C331 1.340 . S
C332 C333 1.439 . S
C332 H364 0.950 . S
C333 N329 1.374 . S
C333 C332 1.439 . S
C333 C358 1.395 . S
N334 Co323 1.995 . S
N334 C335 1.376 . S
N334 C338 1.383 . S
C335 N334 1.376 . S
C335 C336 1.446 . S
C335 C358 1.391 . S
C336 C335 1.446 . S
C336 C337 1.339 . S
C336 H365 0.949 . S
C337 C336 1.339 . S
C337 C338 1.439 . S
C337 H366 0.950 . S
C338 N334 1.383 . S
C338 C337 1.439 . S
C338 C356 1.392 . S
N339 Co323 2.282 . S
N339 C342 1.332 . S
N339 C344 1.332 . S
C340 C341 1.386 . S
C340 C343 1.388 . S
C341 C340 1.386 . S
C341 C342 1.382 . S
C341 H367 0.950 . S
C342 N339 1.332 . S
C342 C341 1.382 . S
C342 H353 0.952 . S
C343 C340 1.388 . S
C343 C344 1.382 . S
C343 H368 0.950 . S
C344 N339 1.332 . S
C344 C343 1.382 . S
C344 H354 0.948 . S
N345 Co323 2.282 . S
N345 C349 1.332 . S
N345 C350 1.332 . S
C346 C347 1.388 . S
C346 C350 1.382 . S
C346 H369 0.950 . S
C347 C346 1.388 . S
C347 C348 1.386 . S
C348 C347 1.386 . S
C348 C349 1.382 . S
C348 H370 0.950 . S
C349 N345 1.332 . S
C349 C348 1.382 . S
C349 H351 0.952 . S
C350 N345 1.332 . S
C350 C346 1.382 . S
C350 H352 0.948 . S
H351 C349 0.952 . S
H352 C350 0.948 . S
H353 C342 0.952 . S
H354 C344 0.948 . S
C355 C321 1.395 . S
C355 C325 1.391 . S
C356 C318 1.389 . S
C356 C338 1.392 . S
C357 C328 1.392 . S
C357 C330 1.389 . S
C358 C333 1.395 . S
C358 C335 1.391 . S
H359 C319 0.951 . S
H360 C320 0.950 . S
H361 C326 0.949 . S
H362 C327 0.950 . S
H363 C331 0.951 . S
H364 C332 0.950 . S
H365 C336 0.949 . S
H366 C337 0.950 . S
H367 C341 0.950 . S
H368 C343 0.950 . S
H369 C346 0.950 . S
H370 C348 0.950 . S
C371 C372 1.443 . S
C371 N375 1.376 . S
C371 C409 1.389 . S
C372 C371 1.443 . S
C372 C373 1.340 . S
C372 H412 0.951 . S
C373 C372 1.340 . S
C373 C374 1.439 . S
C373 H413 0.950 . S
C374 C373 1.439 . S
C374 N375 1.374 . S
C374 C408 1.395 . S
N375 C371 1.376 . S
N375 C374 1.374 . S
N375 Co376 2.008 . S
Co376 N375 2.008 . S
Co376 N377 1.995 . S
Co376 N382 2.008 . S
Co376 N387 1.995 . S
Co376 N392 2.282 . S
Co376 N398 2.282 . S
N377 Co376 1.995 . S
N377 C378 1.376 . S
N377 C381 1.383 . S
C378 N377 1.376 . S
C378 C379 1.446 . S
C378 C408 1.391 . S
C379 C378 1.446 . S
C379 C380 1.339 . S
C379 H414 0.949 . S
C380 C379 1.339 . S
C380 C381 1.439 . S
C380 H415 0.950 . S
C381 N377 1.383 . S
C381 C380 1.439 . S
C381 C410 1.392 . S
N382 Co376 2.008 . S
N382 C383 1.376 . S
N382 C386 1.374 . S
C383 N382 1.376 . S
C383 C384 1.443 . S
C383 C410 1.389 . S
C384 C383 1.443 . S
C384 C385 1.340 . S
C384 H416 0.951 . S
C385 C384 1.340 . S
C385 C386 1.439 . S
C385 H417 0.950 . S
C386 N382 1.374 . S
C386 C385 1.439 . S
C386 C411 1.395 . S
N387 Co376 1.995 . S
N387 C388 1.376 . S
N387 C391 1.383 . S
C388 N387 1.376 . S
C388 C389 1.446 . S
C388 C411 1.391 . S
C389 C388 1.446 . S
C389 C390 1.339 . S
C389 H418 0.949 . S
C390 C389 1.339 . S
C390 C391 1.439 . S
C390 H419 0.950 . S
C391 N387 1.383 . S
C391 C390 1.439 . S
C391 C409 1.392 . S
N392 Co376 2.282 . S
N392 C395 1.332 . S
N392 C397 1.332 . S
C393 C394 1.386 . S
C393 C396 1.388 . S
C394 C393 1.386 . S
C394 C395 1.382 . S
C394 H420 0.950 . S
C395 N392 1.332 . S
C395 C394 1.382 . S
C395 H406 0.952 . S
C396 C393 1.388 . S
C396 C397 1.382 . S
C396 H421 0.950 . S
C397 N392 1.332 . S
C397 C396 1.382 . S
C397 H407 0.948 . S
N398 Co376 2.282 . S
N398 C402 1.332 . S
N398 C403 1.332 . S
C399 C400 1.388 . S
C399 C403 1.382 . S
C399 H422 0.950 . S
C400 C399 1.388 . S
C400 C401 1.386 . S
C401 C400 1.386 . S
C401 C402 1.382 . S
C401 H423 0.950 . S
C402 N398 1.332 . S
C402 C401 1.382 . S
C402 H404 0.952 . S
C403 N398 1.332 . S
C403 C399 1.382 . S
C403 H405 0.948 . S
H404 C402 0.952 . S
H405 C403 0.948 . S
H406 C395 0.952 . S
H407 C397 0.948 . S
C408 C374 1.395 . S
C408 C378 1.391 . S
C409 C371 1.389 . S
C409 C391 1.392 . S
C410 C381 1.392 . S
C410 C383 1.389 . S
C411 C386 1.395 . S
C411 C388 1.391 . S
H412 C372 0.951 . S
H413 C373 0.950 . S
H414 C379 0.949 . S
H415 C380 0.950 . S
H416 C384 0.951 . S
H417 C385 0.950 . S
H418 C389 0.949 . S
H419 C390 0.950 . S
H420 C394 0.950 . S
H421 C396 0.950 . S
H422 C399 0.950 . S
H423 C401 0.950 . S
C424 C425 1.443 . S
C424 N428 1.376 . S
C424 C462 1.389 . S
C425 C424 1.443 . S
C425 C426 1.340 . S
C425 H465 0.951 . S
C426 C425 1.340 . S
C426 C427 1.439 . S
C426 H466 0.950 . S
C427 C426 1.439 . S
C427 N428 1.374 . S
C427 C461 1.395 . S
N428 C424 1.376 . S
N428 C427 1.374 . S
N428 Co429 2.008 . S
Co429 N428 2.008 . S
Co429 N430 1.995 . S
Co429 N435 2.008 . S
Co429 N440 1.995 . S
Co429 N445 2.282 . S
Co429 N451 2.282 . S
N430 Co429 1.995 . S
N430 C431 1.376 . S
N430 C434 1.383 . S
C431 N430 1.376 . S
C431 C432 1.446 . S
C431 C461 1.391 . S
C432 C431 1.446 . S
C432 C433 1.339 . S
C432 H467 0.949 . S
C433 C432 1.339 . S
C433 C434 1.439 . S
C433 H468 0.950 . S
C434 N430 1.383 . S
C434 C433 1.439 . S
C434 C463 1.392 . S
N435 Co429 2.008 . S
N435 C436 1.376 . S
N435 C439 1.374 . S
C436 N435 1.376 . S
C436 C437 1.443 . S
C436 C463 1.389 . S
C437 C436 1.443 . S
C437 C438 1.340 . S
C437 H469 0.951 . S
C438 C437 1.340 . S
C438 C439 1.439 . S
C438 H470 0.950 . S
C439 N435 1.374 . S
C439 C438 1.439 . S
C439 C464 1.395 . S
N440 Co429 1.995 . S
N440 C441 1.376 . S
N440 C444 1.383 . S
C441 N440 1.376 . S
C441 C442 1.446 . S
C441 C464 1.391 . S
C442 C441 1.446 . S
C442 C443 1.339 . S
C442 H471 0.949 . S
C443 C442 1.339 . S
C443 C444 1.439 . S
C443 H472 0.950 . S
C444 N440 1.383 . S
C444 C443 1.439 . S
C444 C462 1.392 . S
N445 Co429 2.282 . S
N445 C448 1.332 . S
N445 C450 1.332 . S
C446 C447 1.386 . S
C446 C449 1.388 . S
C447 C446 1.386 . S
C447 C448 1.382 . S
C447 H473 0.950 . S
C448 N445 1.332 . S
C448 C447 1.382 . S
C448 H459 0.952 . S
C449 C446 1.388 . S
C449 C450 1.382 . S
C449 H474 0.950 . S
C450 N445 1.332 . S
C450 C449 1.382 . S
C450 H460 0.948 . S
N451 Co429 2.282 . S
N451 C455 1.332 . S
N451 C456 1.332 . S
C452 C453 1.388 . S
C452 C456 1.382 . S
C452 H475 0.950 . S
C453 C452 1.388 . S
C453 C454 1.386 . S
C454 C453 1.386 . S
C454 C455 1.382 . S
C454 H476 0.950 . S
C455 N451 1.332 . S
C455 C454 1.382 . S
C455 H457 0.952 . S
C456 N451 1.332 . S
C456 C452 1.382 . S
C456 H458 0.948 . S
H457 C455 0.952 . S
H458 C456 0.948 . S
H459 C448 0.952 . S
H460 C450 0.948 . S
C461 C427 1.395 . S
C461 C431 1.391 . S
C462 C424 1.389 . S
C462 C444 1.392 . S
C463 C434 1.392 . S
C463 C436 1.389 . S
C464 C439 1.395 . S
C464 C441 1.391 . S
H465 C425 0.951 . S
H466 C426 0.950 . S
H467 C432 0.949 . S
H468 C433 0.950 . S
H469 C437 0.951 . S
H470 C438 0.950 . S
H471 C442 0.949 . S
H472 C443 0.950 . S
H473 C447 0.950 . S
H474 C449 0.950 . S
H475 C452 0.950 . S
H476 C454 0.950 . S
C477 C478 1.443 . S
C477 N481 1.376 . S
C477 C515 1.389 . S
C478 C477 1.443 . S
C478 C479 1.340 . S
C478 H518 0.951 . S
C479 C478 1.340 . S
C479 C480 1.439 . S
C479 H519 0.950 . S
C480 C479 1.439 . S
C480 N481 1.374 . S
C480 C514 1.395 . S
N481 C477 1.376 . S
N481 C480 1.374 . S
N481 Co482 2.008 . S
Co482 N481 2.008 . S
Co482 N483 1.995 . S
Co482 N488 2.008 . S
Co482 N493 1.995 . S
Co482 N498 2.282 . S
Co482 N504 2.282 . S
N483 Co482 1.995 . S
N483 C484 1.376 . S
N483 C487 1.383 . S
C484 N483 1.376 . S
C484 C485 1.446 . S
C484 C514 1.391 . S
C485 C484 1.446 . S
C485 C486 1.339 . S
C485 H520 0.949 . S
C486 C485 1.339 . S
C486 C487 1.439 . S
C486 H521 0.950 . S
C487 N483 1.383 . S
C487 C486 1.439 . S
C487 C516 1.392 . S
N488 Co482 2.008 . S
N488 C489 1.376 . S
N488 C492 1.374 . S
C489 N488 1.376 . S
C489 C490 1.443 . S
C489 C516 1.389 . S
C490 C489 1.443 . S
C490 C491 1.340 . S
C490 H522 0.951 . S
C491 C490 1.340 . S
C491 C492 1.439 . S
C491 H523 0.950 . S
C492 N488 1.374 . S
C492 C491 1.439 . S
C492 C517 1.395 . S
N493 Co482 1.995 . S
N493 C494 1.376 . S
N493 C497 1.383 . S
C494 N493 1.376 . S
C494 C495 1.446 . S
C494 C517 1.391 . S
C495 C494 1.446 . S
C495 C496 1.339 . S
C495 H524 0.949 . S
C496 C495 1.339 . S
C496 C497 1.439 . S
C496 H525 0.950 . S
C497 N493 1.383 . S
C497 C496 1.439 . S
C497 C515 1.392 . S
N498 Co482 2.282 . S
N498 C501 1.332 . S
N498 C503 1.332 . S
C499 C500 1.386 . S
C499 C502 1.388 . S
C500 C499 1.386 . S
C500 C501 1.382 . S
C500 H526 0.950 . S
C501 N498 1.332 . S
C501 C500 1.382 . S
C501 H512 0.952 . S
C502 C499 1.388 . S
C502 C503 1.382 . S
C502 H527 0.950 . S
C503 N498 1.332 . S
C503 C502 1.382 . S
C503 H513 0.948 . S
N504 Co482 2.282 . S
N504 C508 1.332 . S
N504 C509 1.332 . S
C505 C506 1.388 . S
C505 C509 1.382 . S
C505 H528 0.950 . S
C506 C505 1.388 . S
C506 C507 1.386 . S
C507 C506 1.386 . S
C507 C508 1.382 . S
C507 H529 0.950 . S
C508 N504 1.332 . S
C508 C507 1.382 . S
C508 H510 0.952 . S
C509 N504 1.332 . S
C509 C505 1.382 . S
C509 H511 0.948 . S
H510 C508 0.952 . S
H511 C509 0.948 . S
H512 C501 0.952 . S
H513 C503 0.948 . S
C514 C480 1.395 . S
C514 C484 1.391 . S
C515 C477 1.389 . S
C515 C497 1.392 . S
C516 C487 1.392 . S
C516 C489 1.389 . S
C517 C492 1.395 . S
C517 C494 1.391 . S
H518 C478 0.951 . S
H519 C479 0.950 . S
H520 C485 0.949 . S
H521 C486 0.950 . S
H522 C490 0.951 . S
H523 C491 0.950 . S
H524 C495 0.949 . S
H525 C496 0.950 . S
H526 C500 0.950 . S
H527 C502 0.950 . S
H528 C505 0.950 . S
H529 C507 0.950 . S
C530 C531 1.443 . S
C530 N534 1.376 . S
C530 C568 1.389 . S
C531 C530 1.443 . S
C531 C532 1.340 . S
C531 H571 0.951 . S
C532 C531 1.340 . S
C532 C533 1.439 . S
C532 H572 0.950 . S
C533 C532 1.439 . S
C533 N534 1.374 . S
C533 C567 1.395 . S
N534 C530 1.376 . S
N534 C533 1.374 . S
N534 Co535 2.008 . S
Co535 N534 2.008 . S
Co535 N536 1.995 . S
Co535 N541 2.008 1_545 S
Co535 N546 1.995 1_545 S
Co535 N551 2.282 . S
Co535 N557 2.282 . S
N536 Co535 1.995 . S
N536 C537 1.376 . S
N536 C540 1.383 . S
C537 N536 1.376 . S
C537 C538 1.446 . S
C537 C567 1.391 . S
C538 C537 1.446 . S
C538 C539 1.339 . S
C538 H573 0.949 . S
C539 C538 1.339 . S
C539 C540 1.439 . S
C539 H574 0.950 . S
C540 N536 1.383 . S
C540 C539 1.439 . S
C540 C569 1.366 1_545 S
N541 Co535 2.008 1_565 S
N541 C542 1.376 . S
N541 C545 1.374 . S
C542 N541 1.376 . S
C542 C543 1.443 . S
C542 C569 1.409 . S
C543 C542 1.443 . S
C543 C544 1.340 . S
C543 H575 0.951 . S
C544 C543 1.340 . S
C544 C545 1.439 . S
C544 H576 0.950 . S
C545 N541 1.374 . S
C545 C544 1.439 . S
C545 C570 1.395 . S
N546 Co535 1.995 1_565 S
N546 C547 1.376 . S
N546 C550 1.383 1_565 S
C547 N546 1.376 . S
C547 C548 1.446 . S
C547 C570 1.391 . S
C548 C547 1.446 . S
C548 C549 1.339 . S
C548 H577 0.949 . S
C549 C548 1.339 . S
C549 C550 1.439 1_565 S
C549 H578 0.950 . S
C550 N546 1.383 1_545 S
C550 C549 1.439 1_545 S
C550 C568 1.392 . S
N551 Co535 2.282 . S
N551 C554 1.332 1_545 S
N551 C556 1.332 . S
C552 C553 1.386 . S
C552 C555 1.388 1_565 S
C553 C552 1.386 . S
C553 C554 1.382 . S
C553 H579 0.950 . S
C554 N551 1.332 1_565 S
C554 C553 1.382 . S
C554 H565 0.952 . S
C555 C552 1.388 1_545 S
C555 C556 1.382 . S
C555 H580 0.950 . S
C556 N551 1.332 . S
C556 C555 1.382 . S
C556 H566 0.948 . S
N557 Co535 2.282 . S
N557 C561 1.332 . S
N557 C562 1.332 . S
C558 C559 1.388 . S
C558 C562 1.382 . S
C558 H581 0.950 1_545 S
C559 C558 1.388 . S
C559 C560 1.386 . S
C560 C559 1.386 . S
C560 C561 1.382 . S
C560 H582 0.950 . S
C561 N557 1.332 . S
C561 C560 1.382 . S
C561 H563 0.952 . S
C562 N557 1.332 . S
C562 C558 1.382 . S
C562 H564 0.948 1_545 S
H563 C561 0.952 . S
H564 C562 0.948 1_565 S
H565 C554 0.952 . S
H566 C556 0.948 . S
C567 C533 1.395 . S
C567 C537 1.391 . S
C568 C530 1.389 . S
C568 C550 1.392 . S
C569 C540 1.366 1_565 S
C569 C542 1.409 . S
C570 C545 1.395 . S
C570 C547 1.391 . S
H571 C531 0.951 . S
H572 C532 0.950 . S
H573 C538 0.949 . S
H574 C539 0.950 . S
H575 C543 0.951 . S
H576 C544 0.950 . S
H577 C548 0.949 . S
H578 C549 0.950 . S
H579 C553 0.950 . S
H580 C555 0.950 . S
H581 C558 0.950 1_565 S
H582 C560 0.950 . S
C583 C584 1.443 . S
C583 N587 1.376 . S
C583 C621 1.389 . S
C584 C583 1.443 . S
C584 C585 1.340 . S
C584 H624 0.951 . S
C585 C584 1.340 . S
C585 C586 1.439 . S
C585 H625 0.950 . S
C586 C585 1.439 . S
C586 N587 1.374 . S
C586 C620 1.395 . S
N587 C583 1.376 . S
N587 C586 1.374 . S
N587 Co588 2.008 1_556 S
Co588 N587 2.008 1_554 S
Co588 N589 1.995 1_554 S
Co588 N594 2.008 . S
Co588 N599 1.995 . S
Co588 N604 2.282 . S
Co588 N610 2.282 1_554 S
N589 Co588 1.995 1_556 S
N589 C590 1.376 . S
N589 C593 1.383 . S
C590 N589 1.376 . S
C590 C591 1.446 . S
C590 C620 1.391 . S
C591 C590 1.446 . S
C591 C592 1.339 . S
C591 H626 0.949 . S
C592 C591 1.339 . S
C592 C593 1.439 . S
C592 H627 0.950 . S
C593 N589 1.383 . S
C593 C592 1.439 . S
C593 C622 1.392 1_556 S
N594 Co588 2.008 . S
N594 C595 1.376 . S
N594 C598 1.374 . S
C595 N594 1.376 . S
C595 C596 1.443 . S
C595 C622 1.389 . S
C596 C595 1.443 . S
C596 C597 1.340 . S
C596 H628 0.951 . S
C597 C596 1.340 . S
C597 C598 1.439 . S
C597 H629 0.950 . S
C598 N594 1.374 . S
C598 C597 1.439 . S
C598 C623 1.395 . S
N599 Co588 1.995 . S
N599 C600 1.376 . S
N599 C603 1.383 . S
C600 N599 1.376 . S
C600 C601 1.446 . S
C600 C623 1.391 . S
C601 C600 1.446 . S
C601 C602 1.339 . S
C601 H630 0.949 . S
C602 C601 1.339 . S
C602 C603 1.439 . S
C602 H631 0.950 . S
C603 N599 1.383 . S
C603 C602 1.439 . S
C603 C621 1.392 1_554 S
N604 Co588 2.282 . S
N604 C607 1.332 . S
N604 C609 1.332 1_554 S
C605 C606 1.386 . S
C605 C608 1.388 1_554 S
C606 C605 1.386 . S
C606 C607 1.382 . S
C606 H632 0.950 . S
C607 N604 1.332 . S
C607 C606 1.382 . S
C607 H618 0.952 . S
C608 C605 1.388 1_556 S
C608 C609 1.382 . S
C608 H633 0.950 . S
C609 N604 1.332 1_556 S
C609 C608 1.382 . S
C609 H619 0.948 . S
N610 Co588 2.282 1_556 S
N610 C614 1.332 . S
N610 C615 1.332 1_556 S
C611 C612 1.388 1_554 S
C611 C615 1.382 . S
C611 H634 0.950 . S
C612 C611 1.388 1_556 S
C612 C613 1.386 . S
C613 C612 1.386 . S
C613 C614 1.382 . S
C613 H635 0.950 . S
C614 N610 1.332 . S
C614 C613 1.382 . S
C614 H616 0.952 . S
C615 N610 1.332 1_554 S
C615 C611 1.382 . S
C615 H617 0.948 . S
H616 C614 0.952 . S
H617 C615 0.948 . S
H618 C607 0.952 . S
H619 C609 0.948 . S
C620 C586 1.395 . S
C620 C590 1.391 . S
C621 C583 1.389 . S
C621 C603 1.392 1_556 S
C622 C593 1.392 1_554 S
C622 C595 1.389 . S
C623 C598 1.395 . S
C623 C600 1.391 . S
H624 C584 0.951 . S
H625 C585 0.950 . S
H626 C591 0.949 . S
H627 C592 0.950 . S
H628 C596 0.951 . S
H629 C597 0.950 . S
H630 C601 0.949 . S
H631 C602 0.950 . S
H632 C606 0.950 . S
H633 C608 0.950 . S
H634 C611 0.950 . S
H635 C613 0.950 . S
O636 Zn637 1.953 . S
O636 C652 1.225 . S
Zn637 O636 1.953 . S
Zn637 O638 1.949 . S
Zn637 O644 1.919 . S
Zn637 O649 1.924 . S
O638 Zn637 1.949 . S
O638 Zn639 1.923 . S
O638 Zn640 1.950 . S
O638 Zn641 1.945 . S
Zn639 O638 1.923 . S
Zn639 O642 1.933 . S
Zn639 O645 1.941 . S
Zn639 O646 1.965 . S
Zn640 O638 1.950 . S
Zn640 O647 1.938 . S
Zn640 O648 1.906 . S
Zn640 O658 1.953 . S
Zn641 O638 1.945 . S
Zn641 O643 1.932 . S
Zn641 O650 1.977 . S
Zn641 O651 1.910 . S
O642 Zn639 1.933 . S
O642 C653 1.226 . S
O643 Zn641 1.932 . S
O643 C653 1.307 . S
O644 Zn637 1.919 . S
O644 C655 1.253 . S
O645 Zn639 1.941 . S
O645 C655 1.283 . S
O646 Zn639 1.965 . S
O646 C654 1.303 . S
O647 Zn640 1.938 . S
O647 C654 1.247 . S
O648 Zn640 1.906 . S
O648 C656 1.304 1_554 S
O649 Zn637 1.924 . S
O649 C657 1.311 . S
O650 Zn641 1.977 . S
O650 C656 1.272 1_554 S
O651 Zn641 1.910 . S
O651 C657 1.231 . S
C652 O636 1.225 . S
C652 O658 1.298 . S
C653 O642 1.226 . S
C653 O643 1.307 . S
C654 O646 1.303 . S
C654 O647 1.247 . S
C655 O644 1.253 . S
C655 O645 1.283 . S
C656 O648 1.304 1_556 S
C656 O650 1.272 1_556 S
C657 O649 1.311 . S
C657 O651 1.231 . S
O658 Zn640 1.953 . S
O658 C652 1.298 . S
O659 Zn660 1.953 . S
O659 C675 1.225 . S
Zn660 O659 1.953 . S
Zn660 O661 1.949 . S
Zn660 O667 1.919 . S
Zn660 O672 1.924 . S
O661 Zn660 1.949 . S
O661 Zn662 1.923 . S
O661 Zn663 1.950 . S
O661 Zn664 1.945 . S
Zn662 O661 1.923 . S
Zn662 O665 1.933 . S
Zn662 O668 1.941 . S
Zn662 O669 1.965 . S
Zn663 O661 1.950 . S
Zn663 O670 1.938 . S
Zn663 O671 1.906 1_554 S
Zn663 O681 1.953 . S
Zn664 O661 1.945 . S
Zn664 O666 1.932 1_655 S
Zn664 O673 2.002 . S
Zn664 O674 1.910 . S
O665 Zn662 1.933 . S
O665 C676 1.226 1_655 S
O666 Zn664 1.932 1_455 S
O666 C676 1.307 . S
O667 Zn660 1.919 . S
O667 C678 1.253 . S
O668 Zn662 1.941 . S
O668 C678 1.283 . S
O669 Zn662 1.965 . S
O669 C677 1.303 . S
O670 Zn663 1.938 . S
O670 C677 1.247 . S
O671 Zn663 1.906 1_556 S
O671 C679 1.304 . S
O672 Zn660 1.924 . S
O672 C680 1.311 . S
O673 Zn664 2.002 . S
O673 C679 1.255 1_554 S
O674 Zn664 1.910 . S
O674 C680 1.231 . S
C675 O659 1.225 . S
C675 O681 1.298 . S
C676 O665 1.226 1_455 S
C676 O666 1.307 . S
C677 O669 1.303 . S
C677 O670 1.247 . S
C678 O667 1.253 . S
C678 O668 1.283 . S
C679 O671 1.304 . S
C679 O673 1.255 1_556 S
C680 O672 1.311 . S
C680 O674 1.231 . S
O681 Zn663 1.953 . S
O681 C675 1.298 . S
O682 Zn683 1.953 . S
O682 C698 1.225 . S
Zn683 O682 1.953 . S
Zn683 O684 1.949 . S
Zn683 O690 1.919 . S
Zn683 O695 1.924 . S
O684 Zn683 1.949 . S
O684 Zn685 1.923 . S
O684 Zn686 1.950 . S
O684 Zn687 1.945 . S
Zn685 O684 1.923 . S
Zn685 O688 1.933 . S
Zn685 O691 1.941 . S
Zn685 O692 1.965 . S
Zn686 O684 1.950 . S
Zn686 O693 1.938 . S
Zn686 O694 1.935 . S
Zn686 O704 1.953 . S
Zn687 O684 1.945 . S
Zn687 O689 1.932 . S
Zn687 O696 1.977 . S
Zn687 O697 1.910 . S
O688 Zn685 1.933 . S
O688 C699 1.226 . S
O689 Zn687 1.932 . S
O689 C699 1.307 . S
O690 Zn683 1.919 . S
O690 C701 1.253 . S
O691 Zn685 1.941 . S
O691 C701 1.283 . S
O692 Zn685 1.965 . S
O692 C700 1.303 . S
O693 Zn686 1.938 . S
O693 C700 1.247 . S
O694 Zn686 1.935 . S
O694 C702 1.290 1_455 S
O695 Zn683 1.924 . S
O695 C703 1.311 . S
O696 Zn687 1.977 . S
O696 C702 1.272 1_455 S
O697 Zn687 1.910 . S
O697 C703 1.231 . S
C698 O682 1.225 . S
C698 O704 1.298 . S
C699 O688 1.226 . S
C699 O689 1.307 . S
C700 O692 1.303 . S
C700 O693 1.247 . S
C701 O690 1.253 . S
C701 O691 1.283 . S
C702 O694 1.290 1_655 S
C702 O696 1.272 1_655 S
C703 O695 1.311 . S
C703 O697 1.231 . S
O704 Zn686 1.953 . S
O704 C698 1.298 . S
O705 Zn706 1.953 . S
O705 C721 1.225 . S
Zn706 O705 1.953 . S
Zn706 O707 1.949 . S
Zn706 O713 1.919 . S
Zn706 O718 1.948 . S
O707 Zn706 1.949 . S
O707 Zn708 1.923 . S
O707 Zn709 1.950 . S
O707 Zn710 1.945 . S
Zn708 O707 1.923 . S
Zn708 O711 1.933 . S
Zn708 O714 1.941 . S
Zn708 O715 1.965 . S
Zn709 O707 1.950 . S
Zn709 O716 1.938 . S
Zn709 O717 1.906 . S
Zn709 O727 1.953 . S
Zn710 O707 1.945 . S
Zn710 O712 1.932 . S
Zn710 O719 1.977 . S
Zn710 O720 1.910 1_655 S
O711 Zn708 1.933 . S
O711 C722 1.226 . S
O712 Zn710 1.932 . S
O712 C722 1.307 . S
O713 Zn706 1.919 . S
O713 C724 1.253 . S
O714 Zn708 1.941 . S
O714 C724 1.283 . S
O715 Zn708 1.965 . S
O715 C723 1.303 . S
O716 Zn709 1.938 . S
O716 C723 1.247 . S
O717 Zn709 1.906 . S
O717 C725 1.304 . S
O718 Zn706 1.948 . S
O718 C726 1.296 1_655 S
O719 Zn710 1.977 . S
O719 C725 1.272 . S
O720 Zn710 1.910 1_455 S
O720 C726 1.231 . S
C721 O705 1.225 . S
C721 O727 1.298 . S
C722 O711 1.226 . S
C722 O712 1.307 . S
C723 O715 1.303 . S
C723 O716 1.247 . S
C724 O713 1.253 . S
C724 O714 1.283 . S
C725 O717 1.304 . S
C725 O719 1.272 . S
C726 O718 1.296 1_455 S
C726 O720 1.231 . S
O727 Zn709 1.953 . S
O727 C721 1.298 . S
O728 Zn729 1.953 . S
O728 C744 1.225 . S
Zn729 O728 1.953 . S
Zn729 O730 1.949 . S
Zn729 O736 1.919 . S
Zn729 O741 1.924 . S
O730 Zn729 1.949 . S
O730 Zn731 1.923 . S
O730 Zn732 1.950 . S
O730 Zn733 1.945 . S
Zn731 O730 1.923 . S
Zn731 O734 1.933 . S
Zn731 O737 1.941 . S
Zn731 O738 1.965 . S
Zn732 O730 1.950 . S
Zn732 O739 1.938 . S
Zn732 O740 1.906 . S
Zn732 O750 1.953 . S
Zn733 O730 1.945 . S
Zn733 O735 1.932 . S
Zn733 O742 1.977 . S
Zn733 O743 1.910 . S
O734 Zn731 1.933 . S
O734 C745 1.226 . S
O735 Zn733 1.932 . S
O735 C745 1.307 . S
O736 Zn729 1.919 . S
O736 C747 1.253 . S
O737 Zn731 1.941 . S
O737 C747 1.283 . S
O738 Zn731 1.965 . S
O738 C746 1.303 . S
O739 Zn732 1.938 . S
O739 C746 1.247 . S
O740 Zn732 1.906 . S
O740 C748 1.304 . S
O741 Zn729 1.924 . S
O741 C749 1.311 . S
O742 Zn733 1.977 . S
O742 C748 1.272 . S
O743 Zn733 1.910 . S
O743 C749 1.231 . S
C744 O728 1.225 . S
C744 O750 1.298 . S
C745 O734 1.226 . S
C745 O735 1.307 . S
C746 O738 1.303 . S
C746 O739 1.247 . S
C747 O736 1.253 . S
C747 O737 1.283 . S
C748 O740 1.304 . S
C748 O742 1.272 . S
C749 O741 1.311 . S
C749 O743 1.231 . S
O750 Zn732 1.953 . S
O750 C744 1.298 . S
O751 Zn752 1.953 . S
O751 C767 1.225 . S
Zn752 O751 1.953 . S
Zn752 O753 1.949 . S
Zn752 O759 1.919 . S
Zn752 O764 1.924 . S
O753 Zn752 1.949 . S
O753 Zn754 1.923 . S
O753 Zn755 1.950 . S
O753 Zn756 1.945 . S
Zn754 O753 1.923 . S
Zn754 O757 1.933 . S
Zn754 O760 1.941 . S
Zn754 O761 1.965 . S
Zn755 O753 1.950 . S
Zn755 O762 1.938 . S
Zn755 O763 1.906 . S
Zn755 O773 1.953 . S
Zn756 O753 1.945 . S
Zn756 O758 1.932 . S
Zn756 O765 1.977 . S
Zn756 O766 1.910 . S
O757 Zn754 1.933 . S
O757 C768 1.226 . S
O758 Zn756 1.932 . S
O758 C768 1.307 . S
O759 Zn752 1.919 . S
O759 C770 1.253 . S
O760 Zn754 1.941 . S
O760 C770 1.283 . S
O761 Zn754 1.965 . S
O761 C769 1.303 . S
O762 Zn755 1.938 . S
O762 C769 1.247 . S
O763 Zn755 1.906 . S
O763 C771 1.304 . S
O764 Zn752 1.924 . S
O764 C772 1.311 . S
O765 Zn756 1.977 . S
O765 C771 1.272 . S
O766 Zn756 1.910 . S
O766 C772 1.231 . S
C767 O751 1.225 . S
C767 O773 1.298 . S
C768 O757 1.226 . S
C768 O758 1.307 . S
C769 O761 1.303 . S
C769 O762 1.247 . S
C770 O759 1.253 . S
C770 O760 1.283 . S
C771 O763 1.304 . S
C771 O765 1.272 . S
C772 O764 1.311 . S
C772 O766 1.231 . S
O773 Zn755 1.953 . S
O773 C767 1.298 . S
O774 Zn775 1.953 . S
O774 C790 1.225 . S
Zn775 O774 1.953 . S
Zn775 O776 1.949 . S
Zn775 O782 1.919 . S
Zn775 O787 1.924 1_556 S
O776 Zn775 1.949 . S
O776 Zn777 1.923 . S
O776 Zn778 1.950 . S
O776 Zn779 1.945 . S
Zn777 O776 1.923 . S
Zn777 O780 1.933 . S
Zn777 O783 1.941 . S
Zn777 O784 1.965 . S
Zn778 O776 1.950 . S
Zn778 O785 1.938 . S
Zn778 O786 1.906 . S
Zn778 O796 1.953 . S
Zn779 O776 1.945 . S
Zn779 O781 1.932 . S
Zn779 O788 1.977 . S
Zn779 O789 1.910 1_556 S
O780 Zn777 1.933 . S
O780 C791 1.226 . S
O781 Zn779 1.932 . S
O781 C791 1.307 . S
O782 Zn775 1.919 . S
O782 C793 1.253 . S
O783 Zn777 1.941 . S
O783 C793 1.283 . S
O784 Zn777 1.965 . S
O784 C792 1.303 . S
O785 Zn778 1.938 . S
O785 C792 1.247 . S
O786 Zn778 1.906 . S
O786 C794 1.304 . S
O787 Zn775 1.924 1_554 S
O787 C795 1.311 . S
O788 Zn779 1.977 . S
O788 C794 1.272 . S
O789 Zn779 1.910 1_554 S
O789 C795 1.231 . S
C790 O774 1.225 . S
C790 O796 1.298 . S
C791 O780 1.226 . S
C791 O781 1.307 . S
C792 O784 1.303 . S
C792 O785 1.247 . S
C793 O782 1.253 . S
C793 O783 1.283 . S
C794 O786 1.304 . S
C794 O788 1.272 . S
C795 O787 1.311 . S
C795 O789 1.231 . S
O796 Zn778 1.953 . S
O796 C790 1.298 . S
O797 Zn798 1.953 . S
O797 C813 1.225 . S
Zn798 O797 1.953 . S
Zn798 O799 1.949 . S
Zn798 O805 1.919 . S
Zn798 O810 1.924 . S
O799 Zn798 1.949 . S
O799 Zn800 1.923 . S
O799 Zn801 1.950 . S
O799 Zn802 1.945 . S
Zn800 O799 1.923 . S
Zn800 O803 1.933 . S
Zn800 O806 1.941 . S
Zn800 O807 1.965 . S
Zn801 O799 1.950 . S
Zn801 O808 1.938 . S
Zn801 O809 1.906 . S
Zn801 O819 1.953 . S
Zn802 O799 1.945 . S
Zn802 O804 1.932 . S
Zn802 O811 1.977 . S
Zn802 O812 1.910 . S
O803 Zn800 1.933 . S
O803 C814 1.226 . S
O804 Zn802 1.932 . S
O804 C814 1.307 . S
O805 Zn798 1.919 . S
O805 C816 1.253 . S
O806 Zn800 1.941 . S
O806 C816 1.283 . S
O807 Zn800 1.965 . S
O807 C815 1.303 . S
O808 Zn801 1.938 . S
O808 C815 1.247 . S
O809 Zn801 1.906 . S
O809 C817 1.304 . S
O810 Zn798 1.924 . S
O810 C818 1.311 . S
O811 Zn802 1.977 . S
O811 C817 1.272 . S
O812 Zn802 1.910 . S
O812 C818 1.231 . S
C813 O797 1.225 . S
C813 O819 1.298 . S
C814 O803 1.226 . S
C814 O804 1.307 . S
C815 O807 1.303 . S
C815 O808 1.247 . S
C816 O805 1.253 . S
C816 O806 1.283 . S
C817 O809 1.304 . S
C817 O811 1.272 . S
C818 O810 1.311 . S
C818 O812 1.231 . S
O819 Zn801 1.953 . S
O819 C813 1.298 . S
H820 C826 0.930 . S
H821 C830 0.930 1_655 S
H822 C835 0.929 1_655 S
H823 C833 0.929 . S
H824 C828 0.929 1_655 S
H825 C834 0.929 . S
C826 H820 0.930 . S
C826 C827 1.367 . S
C826 C834 1.378 . S
C827 C826 1.367 . S
C827 C835 1.433 . S
C828 H824 0.929 1_455 S
C828 C830 1.378 . S
C828 C832 1.350 . S
C829 C832 1.463 . S
C829 C834 1.350 . S
C829 N837 1.427 . S
C830 H821 0.930 1_455 S
C830 C828 1.378 . S
C830 C831 1.367 . S
C831 C830 1.367 . S
C831 C833 1.433 . S
C832 C828 1.350 . S
C832 C829 1.463 . S
C832 N836 1.427 . S
C833 H823 0.929 . S
C833 C831 1.433 . S
C833 N836 1.384 . S
C834 H825 0.929 . S
C834 C826 1.378 . S
C834 C829 1.350 . S
C835 H822 0.929 1_455 S
C835 C827 1.433 . S
C835 N837 1.384 . S
N836 C832 1.427 . S
N836 C833 1.384 . S
N837 C829 1.427 . S
N837 C835 1.384 . S
H838 C844 0.930 . S
H839 C848 0.930 1_455 S
H840 C853 0.929 1_455 S
H841 C851 0.929 . S
H842 C846 0.929 1_455 S
H843 C852 0.929 . S
C844 H838 0.930 . S
C844 C845 1.367 . S
C844 C852 1.378 . S
C845 C844 1.367 . S
C845 C853 1.433 . S
C846 H842 0.929 1_655 S
C846 C848 1.378 . S
C846 C850 1.350 . S
C847 C850 1.463 . S
C847 C852 1.350 . S
C847 N855 1.427 . S
C848 H839 0.930 1_655 S
C848 C846 1.378 . S
C848 C849 1.367 . S
C849 C848 1.367 . S
C849 C851 1.433 . S
C850 C846 1.350 . S
C850 C847 1.463 . S
C850 N854 1.427 . S
C851 H841 0.929 . S
C851 C849 1.433 . S
C851 N854 1.384 . S
C852 H843 0.929 . S
C852 C844 1.378 . S
C852 C847 1.350 . S
C853 H840 0.929 1_655 S
C853 C845 1.433 . S
C853 N855 1.384 . S
N854 C850 1.427 . S
N854 C851 1.384 . S
N855 C847 1.427 . S
N855 C853 1.384 . S
H856 C862 0.930 . S
H857 C866 0.930 . S
H858 C871 0.929 . S
H859 C869 0.929 . S
H860 C864 0.929 . S
H861 C870 0.929 . S
C862 H856 0.930 . S
C862 C863 1.367 . S
C862 C870 1.378 . S
C863 C862 1.367 . S
C863 C871 1.433 . S
C864 H860 0.929 . S
C864 C866 1.378 . S
C864 C868 1.350 . S
C865 C868 1.463 . S
C865 C870 1.350 . S
C865 N873 1.427 . S
C866 H857 0.930 . S
C866 C864 1.378 . S
C866 C867 1.367 . S
C867 C866 1.367 . S
C867 C869 1.433 . S
C868 C864 1.350 . S
C868 C865 1.463 . S
C868 N872 1.427 . S
C869 H859 0.929 . S
C869 C867 1.433 . S
C869 N872 1.384 . S
C870 H861 0.929 . S
C870 C862 1.378 . S
C870 C865 1.350 . S
C871 H858 0.929 . S
C871 C863 1.433 . S
C871 N873 1.384 . S
N872 C868 1.427 . S
N872 C869 1.384 . S
N873 C865 1.427 . S
N873 C871 1.384 . S
H874 C880 0.930 . S
H875 C884 0.930 . S
H876 C889 0.929 . S
H877 C887 0.929 . S
H878 C882 0.929 . S
H879 C888 0.929 . S
C880 H874 0.930 . S
C880 C881 1.367 1_655 S
C880 C888 1.378 . S
C881 C880 1.367 1_455 S
C881 C889 1.433 . S
C882 H878 0.929 . S
C882 C884 1.378 . S
C882 C886 1.350 1_455 S
C883 C886 1.463 . S
C883 C888 1.350 . S
C883 N891 1.427 1_655 S
C884 H875 0.930 . S
C884 C882 1.378 . S
C884 C885 1.367 1_455 S
C885 C884 1.367 1_655 S
C885 C887 1.433 . S
C886 C882 1.350 1_655 S
C886 C883 1.463 . S
C886 N890 1.427 . S
C887 H877 0.929 . S
C887 C885 1.433 . S
C887 N890 1.384 . S
C888 H879 0.929 . S
C888 C880 1.378 . S
C888 C883 1.350 . S
C889 H876 0.929 . S
C889 C881 1.433 . S
C889 N891 1.384 . S
N890 C886 1.427 . S
N890 C887 1.384 . S
N891 C883 1.427 1_455 S
N891 C889 1.384 . S
H892 C898 0.930 1_565 S
H893 C902 0.930 . S
H894 C907 0.929 . S
H895 C905 0.929 1_565 S
H896 C900 0.929 . S
H897 C906 0.929 1_565 S
C898 H892 0.930 1_545 S
C898 C899 1.367 . S
C898 C906 1.378 . S
C899 C898 1.367 . S
C899 C907 1.433 . S
C900 H896 0.929 . S
C900 C902 1.378 . S
C900 C904 1.350 . S
C901 C904 1.463 . S
C901 C906 1.350 . S
C901 N909 1.427 . S
C902 H893 0.930 . S
C902 C900 1.378 . S
C902 C903 1.367 . S
C903 C902 1.367 . S
C903 C905 1.433 . S
C904 C900 1.350 . S
C904 C901 1.463 . S
C904 N908 1.427 . S
C905 H895 0.929 1_545 S
C905 C903 1.433 . S
C905 N908 1.384 . S
C906 H897 0.929 1_545 S
C906 C898 1.378 . S
C906 C901 1.350 . S
C907 H894 0.929 . S
C907 C899 1.433 . S
C907 N909 1.384 . S
N908 C904 1.427 . S
N908 C905 1.384 . S
N909 C901 1.427 . S
N909 C907 1.384 . S
H910 C916 0.930 . S
H911 C920 0.930 . S
H912 C925 0.929 . S
H913 C923 0.929 . S
H914 C918 0.929 . S
H915 C924 0.929 . S
C916 H910 0.930 . S
C916 C917 1.367 . S
C916 C924 1.378 . S
C917 C916 1.367 . S
C917 C925 1.433 . S
C918 H914 0.929 . S
C918 C920 1.378 . S
C918 C922 1.350 . S
C919 C922 1.463 . S
C919 C924 1.350 . S
C919 N927 1.427 . S
C920 H911 0.930 . S
C920 C918 1.378 . S
C920 C921 1.367 . S
C921 C920 1.367 . S
C921 C923 1.433 . S
C922 C918 1.350 . S
C922 C919 1.463 . S
C922 N926 1.427 . S
C923 H913 0.929 . S
C923 C921 1.433 . S
C923 N926 1.384 . S
C924 H915 0.929 . S
C924 C916 1.378 . S
C924 C919 1.350 . S
C925 H912 0.929 . S
C925 C917 1.433 . S
C925 N927 1.384 . S
N926 C922 1.427 . S
N926 C923 1.384 . S
N927 C919 1.427 . S
N927 C925 1.384 . S
H928 C934 0.930 . S
H929 C938 0.930 . S
H930 C943 0.929 . S
H931 C941 0.929 1_545 S
H932 C936 0.929 . S
H933 C942 0.929 . S
C934 H928 0.930 . S
C934 C935 1.367 1_545 S
C934 C942 1.378 . S
C935 C934 1.367 1_565 S
C935 C943 1.433 . S
C936 H932 0.929 . S
C936 C938 1.378 . S
C936 C940 1.350 . S
C937 C940 1.463 . S
C937 C942 1.350 1_565 S
C937 N945 1.427 . S
C938 H929 0.930 . S
C938 C936 1.378 . S
C938 C939 1.367 . S
C939 C938 1.367 . S
C939 C941 1.433 . S
C940 C936 1.350 . S
C940 C937 1.463 . S
C940 N944 1.427 . S
C941 H931 0.929 1_565 S
C941 C939 1.433 . S
C941 N944 1.384 . S
C942 H933 0.929 . S
C942 C934 1.378 . S
C942 C937 1.350 1_545 S
C943 H930 0.929 . S
C943 C935 1.433 . S
C943 N945 1.384 . S
N944 C940 1.427 . S
N944 C941 1.384 . S
N945 C937 1.427 . S
N945 C943 1.384 . S
H946 C952 0.930 . S
H947 C956 0.930 . S
H948 C961 0.929 . S
H949 C959 0.929 . S
H950 C954 0.929 . S
H951 C960 0.929 . S
C952 H946 0.930 . S
C952 C953 1.367 . S
C952 C960 1.378 . S
C953 C952 1.367 . S
C953 C961 1.433 . S
C954 H950 0.929 . S
C954 C956 1.378 . S
C954 C958 1.350 . S
C955 C958 1.463 . S
C955 C960 1.350 . S
C955 N963 1.427 . S
C956 H947 0.930 . S
C956 C954 1.378 . S
C956 C957 1.367 . S
C957 C956 1.367 . S
C957 C959 1.433 . S
C958 C954 1.350 . S
C958 C955 1.463 . S
C958 N962 1.427 . S
C959 H949 0.929 . S
C959 C957 1.433 . S
C959 N962 1.384 . S
C960 H951 0.929 . S
C960 C952 1.378 . S
C960 C955 1.350 . S
C961 H948 0.929 . S
C961 C953 1.433 . S
C961 N963 1.384 . S
N962 C958 1.427 . S
N962 C959 1.384 . S
N963 C955 1.427 . S
N963 C961 1.384 . S
H964 C970 0.930 1_556 S
H965 C974 0.930 . S
H966 C979 0.929 . S
H967 C977 0.929 . S
H968 C972 0.929 . S
H969 C978 0.929 1_556 S
C970 H964 0.930 1_554 S
C970 C971 1.367 . S
C970 C978 1.378 . S
C971 C970 1.367 . S
C971 C979 1.433 . S
C972 H968 0.929 . S
C972 C974 1.378 . S
C972 C976 1.350 . S
C973 C976 1.463 . S
C973 C978 1.350 . S
C973 N981 1.427 . S
C974 H965 0.930 . S
C974 C972 1.378 . S
C974 C975 1.367 . S
C975 C974 1.367 . S
C975 C977 1.433 1_554 S
C976 C972 1.350 . S
C976 C973 1.463 . S
C976 N980 1.459 . S
C977 H967 0.929 . S
C977 C975 1.433 1_556 S
C977 N980 1.379 1_556 S
C978 H969 0.929 1_554 S
C978 C970 1.378 . S
C978 C973 1.350 . S
C979 H966 0.929 . S
C979 C971 1.433 . S
C979 N981 1.384 . S
N980 C976 1.459 . S
N980 C977 1.379 1_554 S
N981 C973 1.427 . S
N981 C979 1.384 . S
H982 C988 0.930 . S
H983 C992 0.930 . S
H984 C997 0.929 . S
H985 C995 0.929 . S
H986 C990 0.929 . S
H987 C996 0.929 . S
C988 H982 0.930 . S
C988 C989 1.367 . S
C988 C996 1.378 . S
C989 C988 1.367 . S
C989 C997 1.433 . S
C990 H986 0.929 . S
C990 C992 1.378 . S
C990 C994 1.350 . S
C991 C994 1.463 . S
C991 C996 1.350 . S
C991 N999 1.427 . S
C992 H983 0.930 . S
C992 C990 1.378 . S
C992 C993 1.367 . S
C993 C992 1.367 . S
C993 C995 1.433 . S
C994 C990 1.350 . S
C994 C991 1.463 . S
C994 N998 1.427 . S
C995 H985 0.929 . S
C995 C993 1.433 . S
C995 N998 1.384 . S
C996 H987 0.929 . S
C996 C988 1.378 . S
C996 C991 1.350 . S
C997 H984 0.929 . S
C997 C989 1.433 . S
C997 N999 1.384 . S
N998 C994 1.427 . S
N998 C995 1.384 . S
N999 C991 1.427 . S
N999 C997 1.384 . S
H1000 C1006 0.930 . S
H1001 C1010 0.930 . S
H1002 C1015 0.929 . S
H1003 C1013 0.929 . S
H1004 C1008 0.929 . S
H1005 C1014 0.929 . S
C1006 H1000 0.930 . S
C1006 C1007 1.367 . S
C1006 C1014 1.378 . S
C1007 C1006 1.367 . S
C1007 C1015 1.433 . S
C1008 H1004 0.929 . S
C1008 C1010 1.378 . S
C1008 C1012 1.350 . S
C1009 C1012 1.463 . S
C1009 C1014 1.350 . S
C1009 N1017 1.427 . S
C1010 H1001 0.930 . S
C1010 C1008 1.378 . S
C1010 C1011 1.367 . S
C1011 C1010 1.367 . S
C1011 C1013 1.433 . S
C1012 C1008 1.350 . S
C1012 C1009 1.463 . S
C1012 N1016 1.427 . S
C1013 H1003 0.929 . S
C1013 C1011 1.433 . S
C1013 N1016 1.384 . S
C1014 H1005 0.929 . S
C1014 C1006 1.378 . S
C1014 C1009 1.350 . S
C1015 H1002 0.929 . S
C1015 C1007 1.433 . S
C1015 N1017 1.384 . S
N1016 C1012 1.427 . S
N1016 C1013 1.384 . S
N1017 C1009 1.427 . S
N1017 C1015 1.384 . S
H1018 C1024 0.930 . S
H1019 C1028 0.930 . S
H1020 C1033 0.929 . S
H1021 C1031 0.929 . S
H1022 C1026 0.929 . S
H1023 C1032 0.929 . S
C1024 H1018 0.930 . S
C1024 C1025 1.367 . S
C1024 C1032 1.378 . S
C1025 C1024 1.367 . S
C1025 C1033 1.433 . S
C1026 H1022 0.929 . S
C1026 C1028 1.378 . S
C1026 C1030 1.350 . S
C1027 C1030 1.463 . S
C1027 C1032 1.350 . S
C1027 N1035 1.427 . S
C1028 H1019 0.930 . S
C1028 C1026 1.378 . S
C1028 C1029 1.367 . S
C1029 C1028 1.367 . S
C1029 C1031 1.433 . S
C1030 C1026 1.350 . S
C1030 C1027 1.463 . S
C1030 N1034 1.427 . S
C1031 H1021 0.929 . S
C1031 C1029 1.433 . S
C1031 N1034 1.384 . S
C1032 H1023 0.929 . S
C1032 C1024 1.378 . S
C1032 C1027 1.350 . S
C1033 H1020 0.929 . S
C1033 C1025 1.433 . S
C1033 N1035 1.384 . S
N1034 C1030 1.427 . S
N1034 C1031 1.384 . S
N1035 C1027 1.427 . S
N1035 C1033 1.384 . S
H1036 C1042 0.930 . S
H1037 C1046 0.930 . S
H1038 C1051 0.929 . S
H1039 C1049 0.929 . S
H1040 C1044 0.929 . S
H1041 C1050 0.929 . S
C1042 H1036 0.930 . S
C1042 C1043 1.367 . S
C1042 C1050 1.378 . S
C1043 C1042 1.367 . S
C1043 C1051 1.433 . S
C1044 H1040 0.929 . S
C1044 C1046 1.378 . S
C1044 C1048 1.350 . S
C1045 C1048 1.463 . S
C1045 C1050 1.350 . S
C1045 N1053 1.427 . S
C1046 H1037 0.930 . S
C1046 C1044 1.378 . S
C1046 C1047 1.367 . S
C1047 C1046 1.367 . S
C1047 C1049 1.433 . S
C1048 C1044 1.350 . S
C1048 C1045 1.463 . S
C1048 N1052 1.427 . S
C1049 H1039 0.929 . S
C1049 C1047 1.433 . S
C1049 N1052 1.384 . S
C1050 H1041 0.929 . S
C1050 C1042 1.378 . S
C1050 C1045 1.350 . S
C1051 H1038 0.929 . S
C1051 C1043 1.433 . S
C1051 N1053 1.384 . S
N1052 C1048 1.427 . S
N1052 C1049 1.384 . S
N1053 C1045 1.427 . S
N1053 C1051 1.384 . S
H1054 C1060 0.930 . S
H1055 C1064 0.930 . S
H1056 C1069 0.929 . S
H1057 C1067 0.929 . S
H1058 C1062 0.929 . S
H1059 C1068 0.929 . S
C1060 H1054 0.930 . S
C1060 C1061 1.367 . S
C1060 C1068 1.378 . S
C1061 C1060 1.367 . S
C1061 C1069 1.433 . S
C1062 H1058 0.929 . S
C1062 C1064 1.378 . S
C1062 C1066 1.350 . S
C1063 C1066 1.463 . S
C1063 C1068 1.350 . S
C1063 N1071 1.427 . S
C1064 H1055 0.930 . S
C1064 C1062 1.378 . S
C1064 C1065 1.367 . S
C1065 C1064 1.367 . S
C1065 C1067 1.433 . S
C1066 C1062 1.350 . S
C1066 C1063 1.463 . S
C1066 N1070 1.427 . S
C1067 H1057 0.929 . S
C1067 C1065 1.433 . S
C1067 N1070 1.384 . S
C1068 H1059 0.929 . S
C1068 C1060 1.378 . S
C1068 C1063 1.350 . S
C1069 H1056 0.929 . S
C1069 C1061 1.433 . S
C1069 N1071 1.384 . S
N1070 C1066 1.427 . S
N1070 C1067 1.384 . S
N1071 C1063 1.427 . S
N1071 C1069 1.384 . S
H1072 C1078 0.930 . S
H1073 C1082 0.930 . S
H1074 C1087 0.929 . S
H1075 C1085 0.929 . S
H1076 C1080 0.929 . S
H1077 C1086 0.929 . S
C1078 H1072 0.930 . S
C1078 C1079 1.367 . S
C1078 C1086 1.378 . S
C1079 C1078 1.367 . S
C1079 C1087 1.433 . S
C1080 H1076 0.929 . S
C1080 C1082 1.378 . S
C1080 C1084 1.350 . S
C1081 C1084 1.463 . S
C1081 C1086 1.350 . S
C1081 N1089 1.427 . S
C1082 H1073 0.930 . S
C1082 C1080 1.378 . S
C1082 C1083 1.367 . S
C1083 C1082 1.367 . S
C1083 C1085 1.433 . S
C1084 C1080 1.350 . S
C1084 C1081 1.463 . S
C1084 N1088 1.427 . S
C1085 H1075 0.929 . S
C1085 C1083 1.433 . S
C1085 N1088 1.384 . S
C1086 H1077 0.929 . S
C1086 C1078 1.378 . S
C1086 C1081 1.350 . S
C1087 H1074 0.929 . S
C1087 C1079 1.433 . S
C1087 N1089 1.384 . S
N1088 C1084 1.427 . S
N1088 C1085 1.384 . S
N1089 C1081 1.427 . S
N1089 C1087 1.384 . S
H1090 C1096 0.930 . S
H1091 C1100 0.930 . S
H1092 C1105 0.929 . S
H1093 C1103 0.929 . S
H1094 C1098 0.929 . S
H1095 C1104 0.929 . S
C1096 H1090 0.930 . S
C1096 C1097 1.367 . S
C1096 C1104 1.378 . S
C1097 C1096 1.367 . S
C1097 C1105 1.433 . S
C1098 H1094 0.929 . S
C1098 C1100 1.378 . S
C1098 C1102 1.350 . S
C1099 C1102 1.463 . S
C1099 C1104 1.350 . S
C1099 N1107 1.427 . S
C1100 H1091 0.930 . S
C1100 C1098 1.378 . S
C1100 C1101 1.367 . S
C1101 C1100 1.367 . S
C1101 C1103 1.433 . S
C1102 C1098 1.350 . S
C1102 C1099 1.463 . S
C1102 N1106 1.427 . S
C1103 H1093 0.929 . S
C1103 C1101 1.433 . S
C1103 N1106 1.384 . S
C1104 H1095 0.929 . S
C1104 C1096 1.378 . S
C1104 C1099 1.350 . S
C1105 H1092 0.929 . S
C1105 C1097 1.433 . S
C1105 N1107 1.384 . S
N1106 C1102 1.427 . S
N1106 C1103 1.384 . S
N1107 C1099 1.427 . S
N1107 C1105 1.384 . S
H1108 C1114 0.930 . S
H1109 C1118 0.930 . S
H1110 C1123 0.929 . S
H1111 C1121 0.929 . S
H1112 C1116 0.929 . S
H1113 C1122 0.929 . S
C1114 H1108 0.930 . S
C1114 C1115 1.367 . S
C1114 C1122 1.378 . S
C1115 C1114 1.367 . S
C1115 C1123 1.433 . S
C1116 H1112 0.929 . S
C1116 C1118 1.378 . S
C1116 C1120 1.350 . S
C1117 C1120 1.463 . S
C1117 C1122 1.350 . S
C1117 N1125 1.427 . S
C1118 H1109 0.930 . S
C1118 C1116 1.378 . S
C1118 C1119 1.367 . S
C1119 C1118 1.367 . S
C1119 C1121 1.433 . S
C1120 C1116 1.350 . S
C1120 C1117 1.463 . S
C1120 N1124 1.427 . S
C1121 H1111 0.929 . S
C1121 C1119 1.433 . S
C1121 N1124 1.384 . S
C1122 H1113 0.929 . S
C1122 C1114 1.378 . S
C1122 C1117 1.350 . S
C1123 H1110 0.929 . S
C1123 C1115 1.433 . S
C1123 N1125 1.384 . S
N1124 C1120 1.427 . S
N1124 C1121 1.384 . S
N1125 C1117 1.427 . S
N1125 C1123 1.384 . S
H1126 C1132 0.930 . S
H1127 C1136 0.930 . S
H1128 C1141 0.929 . S
H1129 C1139 0.929 . S
H1130 C1134 0.929 . S
H1131 C1140 0.929 . S
C1132 H1126 0.930 . S
C1132 C1133 1.367 . S
C1132 C1140 1.378 . S
C1133 C1132 1.367 . S
C1133 C1141 1.433 1_565 S
C1134 H1130 0.929 . S
C1134 C1136 1.378 . S
C1134 C1138 1.350 . S
C1135 C1138 1.463 . S
C1135 C1140 1.350 . S
C1135 N1143 1.427 . S
C1136 H1127 0.930 . S
C1136 C1134 1.378 . S
C1136 C1137 1.367 . S
C1137 C1136 1.367 . S
C1137 C1139 1.433 . S
C1138 C1134 1.350 . S
C1138 C1135 1.463 . S
C1138 N1142 1.427 . S
C1139 H1129 0.929 . S
C1139 C1137 1.433 . S
C1139 N1142 1.384 . S
C1140 H1131 0.929 . S
C1140 C1132 1.378 . S
C1140 C1135 1.350 . S
C1141 H1128 0.929 . S
C1141 C1133 1.433 1_545 S
C1141 N1143 1.384 1_545 S
N1142 C1138 1.427 . S
N1142 C1139 1.384 . S
N1143 C1135 1.427 . S
N1143 C1141 1.384 1_565 S
H1144 C1150 0.930 . S
H1145 C1154 0.930 . S
H1146 C1159 0.929 . S
H1147 C1157 0.929 . S
H1148 C1152 0.929 . S
H1149 C1158 0.929 . S
C1150 H1144 0.930 . S
C1150 C1151 1.367 . S
C1150 C1158 1.378 . S
C1151 C1150 1.367 . S
C1151 C1159 1.433 . S
C1152 H1148 0.929 . S
C1152 C1154 1.378 . S
C1152 C1156 1.350 . S
C1153 C1156 1.463 . S
C1153 C1158 1.350 . S
C1153 N1161 1.427 . S
C1154 H1145 0.930 . S
C1154 C1152 1.378 . S
C1154 C1155 1.367 . S
C1155 C1154 1.367 . S
C1155 C1157 1.433 . S
C1156 C1152 1.350 . S
C1156 C1153 1.463 . S
C1156 N1160 1.427 . S
C1157 H1147 0.929 . S
C1157 C1155 1.433 . S
C1157 N1160 1.384 . S
C1158 H1149 0.929 . S
C1158 C1150 1.378 . S
C1158 C1153 1.350 . S
C1159 H1146 0.929 . S
C1159 C1151 1.433 . S
C1159 N1161 1.384 . S
N1160 C1156 1.427 . S
N1160 C1157 1.384 . S
N1161 C1153 1.427 . S
N1161 C1159 1.384 . S
H1162 C1168 0.930 . S
H1163 C1172 0.930 1_565 S
H1164 C1177 0.929 1_565 S
H1165 C1175 0.929 . S
H1166 C1170 0.929 1_565 S
H1167 C1176 0.929 . S
C1168 H1162 0.930 . S
C1168 C1169 1.367 . S
C1168 C1176 1.378 . S
C1169 C1168 1.367 . S
C1169 C1177 1.433 . S
C1170 H1166 0.929 1_545 S
C1170 C1172 1.378 . S
C1170 C1174 1.350 . S
C1171 C1174 1.463 . S
C1171 C1176 1.350 . S
C1171 N1179 1.427 . S
C1172 H1163 0.930 1_545 S
C1172 C1170 1.378 . S
C1172 C1173 1.367 . S
C1173 C1172 1.367 . S
C1173 C1175 1.433 . S
C1174 C1170 1.350 . S
C1174 C1171 1.463 . S
C1174 N1178 1.427 . S
C1175 H1165 0.929 . S
C1175 C1173 1.433 . S
C1175 N1178 1.384 . S
C1176 H1167 0.929 . S
C1176 C1168 1.378 . S
C1176 C1171 1.350 . S
C1177 H1164 0.929 1_545 S
C1177 C1169 1.433 . S
C1177 N1179 1.384 . S
N1178 C1174 1.427 . S
N1178 C1175 1.384 . S
N1179 C1171 1.427 . S
N1179 C1177 1.384 . S
H1180 C1186 0.930 . S
H1181 C1190 0.930 . S
H1182 C1195 0.929 . S
H1183 C1193 0.929 . S
H1184 C1188 0.929 . S
H1185 C1194 0.929 . S
C1186 H1180 0.930 . S
C1186 C1187 1.367 . S
C1186 C1194 1.378 . S
C1187 C1186 1.367 . S
C1187 C1195 1.433 . S
C1188 H1184 0.929 . S
C1188 C1190 1.378 . S
C1188 C1192 1.350 . S
C1189 C1192 1.463 . S
C1189 C1194 1.350 . S
C1189 N1197 1.427 . S
C1190 H1181 0.930 . S
C1190 C1188 1.378 . S
C1190 C1191 1.367 . S
C1191 C1190 1.367 . S
C1191 C1193 1.433 . S
C1192 C1188 1.350 . S
C1192 C1189 1.463 . S
C1192 N1196 1.427 . S
C1193 H1183 0.929 . S
C1193 C1191 1.433 . S
C1193 N1196 1.384 . S
C1194 H1185 0.929 . S
C1194 C1186 1.378 . S
C1194 C1189 1.350 . S
C1195 H1182 0.929 . S
C1195 C1187 1.433 . S
C1195 N1197 1.384 . S
N1196 C1192 1.427 . S
N1196 C1193 1.384 . S
N1197 C1189 1.427 . S
N1197 C1195 1.384 . S
H1198 C1204 0.930 . S
H1199 C1208 0.930 . S
H1200 C1213 0.929 . S
H1201 C1211 0.929 . S
H1202 C1206 0.929 1_554 S
H1203 C1212 0.929 . S
C1204 H1198 0.930 . S
C1204 C1205 1.367 . S
C1204 C1212 1.378 . S
C1205 C1204 1.367 . S
C1205 C1213 1.433 1_556 S
C1206 H1202 0.929 1_556 S
C1206 C1208 1.378 . S
C1206 C1210 1.350 . S
C1207 C1210 1.463 . S
C1207 C1212 1.350 . S
C1207 N1215 1.427 . S
C1208 H1199 0.930 . S
C1208 C1206 1.378 . S
C1208 C1209 1.367 . S
C1209 C1208 1.367 . S
C1209 C1211 1.433 . S
C1210 C1206 1.350 . S
C1210 C1207 1.463 . S
C1210 N1214 1.427 . S
C1211 H1201 0.929 . S
C1211 C1209 1.433 . S
C1211 N1214 1.384 . S
C1212 H1203 0.929 . S
C1212 C1204 1.378 . S
C1212 C1207 1.350 . S
C1213 H1200 0.929 . S
C1213 C1205 1.433 1_554 S
C1213 N1215 1.384 1_554 S
N1214 C1210 1.427 . S
N1214 C1211 1.384 . S
N1215 C1207 1.427 . S
N1215 C1213 1.384 1_556 S
H1216 C1222 0.930 . S
H1217 C1226 0.930 . S
H1218 C1231 0.929 . S
H1219 C1229 0.929 . S
H1220 C1224 0.929 . S
H1221 C1230 0.929 . S
C1222 H1216 0.930 . S
C1222 C1223 1.367 1_556 S
C1222 C1230 1.378 . S
C1223 C1222 1.367 1_554 S
C1223 C1231 1.433 . S
C1224 H1220 0.929 . S
C1224 C1226 1.378 . S
C1224 C1228 1.350 1_554 S
C1225 C1228 1.463 1_554 S
C1225 C1230 1.351 1_554 S
C1225 N1233 1.425 . S
C1226 H1217 0.930 . S
C1226 C1224 1.378 . S
C1226 C1227 1.367 1_554 S
C1227 C1226 1.367 1_556 S
C1227 C1229 1.433 . S
C1228 C1224 1.350 1_556 S
C1228 C1225 1.463 1_556 S
C1228 N1232 1.427 . S
C1229 H1219 0.929 . S
C1229 C1227 1.433 . S
C1229 N1232 1.384 . S
C1230 H1221 0.929 . S
C1230 C1222 1.378 . S
C1230 C1225 1.351 1_556 S
C1231 H1218 0.929 . S
C1231 C1223 1.433 . S
C1231 N1233 1.384 . S
N1232 C1228 1.427 . S
N1232 C1229 1.384 . S
N1233 C1225 1.425 . S
N1233 C1231 1.384 . S
H1234 C1240 0.930 . S
H1235 C1244 0.930 1_455 S
H1236 C1249 0.929 . S
H1237 C1247 0.929 . S
H1238 C1242 0.929 . S
H1239 C1248 0.929 . S
C1240 H1234 0.930 . S
C1240 C1241 1.367 . S
C1240 C1248 1.378 . S
C1241 C1240 1.367 . S
C1241 C1249 1.433 . S
C1242 H1238 0.929 . S
C1242 C1244 1.378 . S
C1242 C1246 1.350 . S
C1243 C1246 1.463 . S
C1243 C1248 1.350 . S
C1243 N1251 1.427 . S
C1244 H1235 0.930 1_655 S
C1244 C1242 1.378 . S
C1244 C1245 1.367 . S
C1245 C1244 1.367 . S
C1245 C1247 1.433 . S
C1246 C1242 1.350 . S
C1246 C1243 1.463 . S
C1246 N1250 1.427 . S
C1247 H1237 0.929 . S
C1247 C1245 1.433 . S
C1247 N1250 1.384 . S
C1248 H1239 0.929 . S
C1248 C1240 1.378 . S
C1248 C1243 1.350 . S
C1249 H1236 0.929 . S
C1249 C1241 1.433 . S
C1249 N1251 1.384 . S
N1250 C1246 1.427 . S
N1250 C1247 1.384 . S
N1251 C1243 1.427 . S
N1251 C1249 1.384 . S
H1252 C1258 0.930 . S
H1253 C1262 0.930 . S
H1254 C1267 0.891 1_655 S
H1255 C1265 0.929 . S
H1256 C1260 0.929 . S
H1257 C1266 0.929 . S
C1258 H1252 0.930 . S
C1258 C1259 1.367 . S
C1258 C1266 1.378 . S
C1259 C1258 1.367 . S
C1259 C1267 1.463 . S
C1260 H1256 0.929 . S
C1260 C1262 1.378 . S
C1260 C1264 1.350 . S
C1261 C1264 1.463 . S
C1261 C1266 1.350 . S
C1261 N1269 1.427 . S
C1262 H1253 0.930 . S
C1262 C1260 1.378 . S
C1262 C1263 1.367 . S
C1263 C1262 1.367 . S
C1263 C1265 1.433 . S
C1264 C1260 1.350 . S
C1264 C1261 1.463 . S
C1264 N1268 1.427 . S
C1265 H1255 0.929 . S
C1265 C1263 1.433 . S
C1265 N1268 1.384 . S
C1266 H1257 0.929 . S
C1266 C1258 1.378 . S
C1266 C1261 1.350 . S
C1267 H1254 0.891 1_455 S
C1267 C1259 1.463 . S
C1267 N1269 1.395 . S
N1268 C1264 1.427 . S
N1268 C1265 1.384 . S
N1269 C1261 1.427 . S
N1269 C1267 1.395 . S
H1270 C1276 0.930 . S
H1271 C1280 0.930 . S
H1272 C1285 0.929 . S
H1273 C1283 0.929 . S
H1274 C1278 0.929 . S
H1275 C1284 0.929 . S
C1276 H1270 0.930 . S
C1276 C1277 1.367 1_455 S
C1276 C1284 1.378 . S
C1277 C1276 1.367 1_655 S
C1277 C1285 1.433 . S
C1278 H1274 0.929 . S
C1278 C1280 1.378 . S
C1278 C1282 1.350 . S
C1279 C1282 1.463 . S
C1279 C1284 1.350 1_655 S
C1279 N1287 1.427 . S
C1280 H1271 0.930 . S
C1280 C1278 1.378 . S
C1280 C1281 1.367 . S
C1281 C1280 1.367 . S
C1281 C1283 1.433 1_655 S
C1282 C1278 1.350 . S
C1282 C1279 1.463 . S
C1282 N1286 1.427 1_655 S
C1283 H1273 0.929 . S
C1283 C1281 1.433 1_455 S
C1283 N1286 1.384 . S
C1284 H1275 0.929 . S
C1284 C1276 1.378 . S
C1284 C1279 1.350 1_455 S
C1285 H1272 0.929 . S
C1285 C1277 1.433 . S
C1285 N1287 1.384 . S
N1286 C1282 1.427 1_455 S
N1286 C1283 1.384 . S
N1287 C1279 1.427 . S
N1287 C1285 1.384 . S
H1288 C1294 0.930 . S
H1289 C1298 0.930 . S
H1290 C1303 0.929 . S
H1291 C1301 0.929 . S
H1292 C1296 0.929 . S
H1293 C1302 0.929 . S
C1294 H1288 0.930 . S
C1294 C1295 1.367 . S
C1294 C1302 1.378 . S
C1295 C1294 1.367 . S
C1295 C1303 1.433 . S
C1296 H1292 0.929 . S
C1296 C1298 1.378 . S
C1296 C1300 1.350 . S
C1297 C1300 1.463 . S
C1297 C1302 1.350 . S
C1297 N1305 1.427 . S
C1298 H1289 0.930 . S
C1298 C1296 1.378 . S
C1298 C1299 1.367 . S
C1299 C1298 1.367 . S
C1299 C1301 1.433 . S
C1300 C1296 1.350 . S
C1300 C1297 1.463 . S
C1300 N1304 1.427 . S
C1301 H1291 0.929 . S
C1301 C1299 1.433 . S
C1301 N1304 1.384 . S
C1302 H1293 0.929 . S
C1302 C1294 1.378 . S
C1302 C1297 1.350 . S
C1303 H1290 0.929 . S
C1303 C1295 1.433 . S
C1303 N1305 1.384 . S
N1304 C1300 1.427 . S
N1304 C1301 1.384 . S
N1305 C1297 1.427 . S
N1305 C1303 1.384 . S
H1306 C1312 0.930 . S
H1307 C1316 0.930 . S
H1308 C1321 0.929 . S
H1309 C1319 0.929 . S
H1310 C1314 0.929 . S
H1311 C1320 0.929 . S
C1312 H1306 0.930 . S
C1312 C1313 1.367 1_455 S
C1312 C1320 1.378 . S
C1313 C1312 1.367 1_655 S
C1313 C1321 1.433 . S
C1314 H1310 0.929 . S
C1314 C1316 1.378 . S
C1314 C1318 1.350 . S
C1315 C1318 1.463 . S
C1315 C1320 1.350 1_655 S
C1315 N1323 1.427 . S
C1316 H1307 0.930 . S
C1316 C1314 1.378 . S
C1316 C1317 1.367 . S
C1317 C1316 1.367 . S
C1317 C1319 1.433 . S
C1318 C1314 1.350 . S
C1318 C1315 1.463 . S
C1318 N1322 1.427 . S
C1319 H1309 0.929 . S
C1319 C1317 1.433 . S
C1319 N1322 1.384 . S
C1320 H1311 0.929 . S
C1320 C1312 1.378 . S
C1320 C1315 1.350 1_455 S
C1321 H1308 0.929 . S
C1321 C1313 1.433 . S
C1321 N1323 1.384 . S
N1322 C1318 1.427 . S
N1322 C1319 1.384 . S
N1323 C1315 1.427 . S
N1323 C1321 1.384 . S
H1324 C1330 0.930 1_565 S
H1325 C1334 0.930 . S
H1326 C1339 0.929 . S
H1327 C1337 0.929 . S
H1328 C1332 0.929 . S
H1329 C1338 0.929 1_565 S
C1330 H1324 0.930 1_545 S
C1330 C1331 1.367 . S
C1330 C1338 1.378 . S
C1331 C1330 1.367 . S
C1331 C1339 1.433 . S
C1332 H1328 0.929 . S
C1332 C1334 1.378 . S
C1332 C1336 1.350 . S
C1333 C1336 1.463 . S
C1333 C1338 1.350 . S
C1333 N1341 1.427 . S
C1334 H1325 0.930 . S
C1334 C1332 1.378 . S
C1334 C1335 1.367 . S
C1335 C1334 1.367 . S
C1335 C1337 1.433 . S
C1336 C1332 1.350 . S
C1336 C1333 1.463 . S
C1336 N1340 1.427 . S
C1337 H1327 0.929 . S
C1337 C1335 1.433 . S
C1337 N1340 1.384 . S
C1338 H1329 0.929 1_545 S
C1338 C1330 1.378 . S
C1338 C1333 1.350 . S
C1339 H1326 0.929 . S
C1339 C1331 1.433 . S
C1339 N1341 1.384 . S
N1340 C1336 1.427 . S
N1340 C1337 1.384 . S
N1341 C1333 1.427 . S
N1341 C1339 1.384 . S
H1342 C1348 0.930 . S
H1343 C1352 0.930 . S
H1344 C1357 0.929 . S
H1345 C1355 0.929 . S
H1346 C1350 0.929 . S
H1347 C1356 0.929 . S
C1348 H1342 0.930 . S
C1348 C1349 1.367 . S
C1348 C1356 1.378 . S
C1349 C1348 1.367 . S
C1349 C1357 1.433 . S
C1350 H1346 0.929 . S
C1350 C1352 1.378 . S
C1350 C1354 1.350 . S
C1351 C1354 1.463 . S
C1351 C1356 1.350 . S
C1351 N1359 1.427 . S
C1352 H1343 0.930 . S
C1352 C1350 1.378 . S
C1352 C1353 1.367 . S
C1353 C1352 1.367 . S
C1353 C1355 1.433 . S
C1354 C1350 1.350 . S
C1354 C1351 1.463 . S
C1354 N1358 1.427 . S
C1355 H1345 0.929 . S
C1355 C1353 1.433 . S
C1355 N1358 1.384 . S
C1356 H1347 0.929 . S
C1356 C1348 1.378 . S
C1356 C1351 1.350 . S
C1357 H1344 0.929 . S
C1357 C1349 1.433 . S
C1357 N1359 1.384 . S
N1358 C1354 1.427 . S
N1358 C1355 1.384 . S
N1359 C1351 1.427 . S
N1359 C1357 1.384 . S
H1360 C1366 0.930 . S
H1361 C1370 0.930 1_545 S
H1362 C1375 0.929 . S
H1363 C1373 0.929 . S
H1364 C1368 0.929 1_545 S
H1365 C1374 0.929 . S
C1366 H1360 0.930 . S
C1366 C1367 1.367 . S
C1366 C1374 1.378 . S
C1367 C1366 1.367 . S
C1367 C1375 1.433 1_565 S
C1368 H1364 0.929 1_565 S
C1368 C1370 1.378 . S
C1368 C1372 1.350 . S
C1369 C1372 1.463 . S
C1369 C1374 1.350 . S
C1369 N1377 1.461 . S
C1370 H1361 0.930 1_565 S
C1370 C1368 1.378 . S
C1370 C1371 1.367 . S
C1371 C1370 1.367 . S
C1371 C1373 1.433 . S
C1372 C1368 1.350 . S
C1372 C1369 1.463 . S
C1372 N1376 1.427 . S
C1373 H1363 0.929 . S
C1373 C1371 1.433 . S
C1373 N1376 1.384 . S
C1374 H1365 0.929 . S
C1374 C1366 1.378 . S
C1374 C1369 1.350 . S
C1375 H1362 0.929 . S
C1375 C1367 1.433 1_545 S
C1375 N1377 1.381 1_545 S
N1376 C1372 1.427 . S
N1376 C1373 1.384 . S
N1377 C1369 1.461 . S
N1377 C1375 1.381 1_565 S
H1378 C1384 0.930 . S
H1379 C1388 0.930 . S
H1380 C1393 0.929 . S
H1381 C1391 0.929 . S
H1382 C1386 0.929 . S
H1383 C1392 0.929 . S
C1384 H1378 0.930 . S
C1384 C1385 1.367 . S
C1384 C1392 1.378 . S
C1385 C1384 1.367 . S
C1385 C1393 1.433 . S
C1386 H1382 0.929 . S
C1386 C1388 1.378 . S
C1386 C1390 1.350 . S
C1387 C1390 1.463 . S
C1387 C1392 1.350 . S
C1387 N1395 1.427 . S
C1388 H1379 0.930 . S
C1388 C1386 1.378 . S
C1388 C1389 1.367 . S
C1389 C1388 1.367 . S
C1389 C1391 1.433 . S
C1390 C1386 1.350 . S
C1390 C1387 1.463 . S
C1390 N1394 1.427 . S
C1391 H1381 0.929 . S
C1391 C1389 1.433 . S
C1391 N1394 1.384 . S
C1392 H1383 0.929 . S
C1392 C1384 1.378 . S
C1392 C1387 1.350 . S
C1393 H1380 0.929 . S
C1393 C1385 1.433 . S
C1393 N1395 1.384 . S
N1394 C1390 1.427 . S
N1394 C1391 1.384 . S
N1395 C1387 1.427 . S
N1395 C1393 1.384 . S
H1396 C1402 0.930 . S
H1397 C1406 0.930 . S
H1398 C1411 0.929 . S
H1399 C1409 0.929 . S
H1400 C1404 0.929 . S
H1401 C1410 0.929 . S
C1402 H1396 0.930 . S
C1402 C1403 1.367 . S
C1402 C1410 1.378 . S
C1403 C1402 1.367 . S
C1403 C1411 1.433 . S
C1404 H1400 0.929 . S
C1404 C1406 1.378 . S
C1404 C1408 1.350 . S
C1405 C1408 1.463 . S
C1405 C1410 1.350 . S
C1405 N1413 1.427 . S
C1406 H1397 0.930 . S
C1406 C1404 1.378 . S
C1406 C1407 1.367 . S
C1407 C1406 1.367 . S
C1407 C1409 1.433 . S
C1408 C1404 1.350 . S
C1408 C1405 1.463 . S
C1408 N1412 1.427 . S
C1409 H1399 0.929 . S
C1409 C1407 1.433 . S
C1409 N1412 1.384 . S
C1410 H1401 0.929 . S
C1410 C1402 1.378 . S
C1410 C1405 1.350 . S
C1411 H1398 0.929 . S
C1411 C1403 1.433 . S
C1411 N1413 1.384 . S
N1412 C1408 1.427 . S
N1412 C1409 1.384 . S
N1413 C1405 1.427 . S
N1413 C1411 1.384 . S
H1414 C1420 0.930 . S
H1415 C1424 0.930 . S
H1416 C1429 0.929 . S
H1417 C1427 0.929 . S
H1418 C1422 0.929 . S
H1419 C1428 0.929 . S
C1420 H1414 0.930 . S
C1420 C1421 1.367 . S
C1420 C1428 1.378 . S
C1421 C1420 1.367 . S
C1421 C1429 1.433 . S
C1422 H1418 0.929 . S
C1422 C1424 1.378 . S
C1422 C1426 1.350 . S
C1423 C1426 1.463 . S
C1423 C1428 1.350 . S
C1423 N1431 1.427 . S
C1424 H1415 0.930 . S
C1424 C1422 1.378 . S
C1424 C1425 1.367 . S
C1425 C1424 1.367 . S
C1425 C1427 1.433 . S
C1426 C1422 1.350 . S
C1426 C1423 1.463 . S
C1426 N1430 1.427 . S
C1427 H1417 0.929 . S
C1427 C1425 1.433 . S
C1427 N1430 1.384 . S
C1428 H1419 0.929 . S
C1428 C1420 1.378 . S
C1428 C1423 1.350 . S
C1429 H1416 0.929 . S
C1429 C1421 1.433 . S
C1429 N1431 1.384 . S
N1430 C1426 1.427 . S
N1430 C1427 1.384 . S
N1431 C1423 1.427 . S
N1431 C1429 1.384 . S
H1432 C1438 0.930 . S
H1433 C1442 0.930 . S
H1434 C1447 0.929 . S
H1435 C1445 0.929 . S
H1436 C1440 0.929 . S
H1437 C1446 0.929 . S
C1438 H1432 0.930 . S
C1438 C1439 1.367 . S
C1438 C1446 1.378 . S
C1439 C1438 1.367 . S
C1439 C1447 1.433 . S
C1440 H1436 0.929 . S
C1440 C1442 1.378 . S
C1440 C1444 1.350 . S
C1441 C1444 1.463 . S
C1441 C1446 1.350 . S
C1441 N1449 1.427 . S
C1442 H1433 0.930 . S
C1442 C1440 1.378 . S
C1442 C1443 1.367 . S
C1443 C1442 1.367 . S
C1443 C1445 1.433 . S
C1444 C1440 1.350 . S
C1444 C1441 1.463 . S
C1444 N1448 1.427 . S
C1445 H1435 0.929 . S
C1445 C1443 1.433 . S
C1445 N1448 1.384 . S
C1446 H1437 0.929 . S
C1446 C1438 1.378 . S
C1446 C1441 1.350 . S
C1447 H1434 0.929 . S
C1447 C1439 1.433 . S
C1447 N1449 1.384 . S
N1448 C1444 1.427 . S
N1448 C1445 1.384 . S
N1449 C1441 1.427 . S
N1449 C1447 1.384 . S
H1450 C1456 0.930 . S
H1451 C1460 0.930 . S
H1452 C1465 0.929 . S
H1453 C1463 0.929 . S
H1454 C1458 0.929 . S
H1455 C1464 0.929 . S
C1456 H1450 0.930 . S
C1456 C1457 1.367 . S
C1456 C1464 1.378 . S
C1457 C1456 1.367 . S
C1457 C1465 1.433 . S
C1458 H1454 0.929 . S
C1458 C1460 1.378 . S
C1458 C1462 1.350 . S
C1459 C1462 1.463 . S
C1459 C1464 1.350 . S
C1459 N1467 1.427 . S
C1460 H1451 0.930 . S
C1460 C1458 1.378 . S
C1460 C1461 1.367 . S
C1461 C1460 1.367 . S
C1461 C1463 1.433 . S
C1462 C1458 1.350 . S
C1462 C1459 1.463 . S
C1462 N1466 1.427 . S
C1463 H1453 0.929 . S
C1463 C1461 1.433 . S
C1463 N1466 1.384 . S
C1464 H1455 0.929 . S
C1464 C1456 1.378 . S
C1464 C1459 1.350 . S
C1465 H1452 0.929 . S
C1465 C1457 1.433 . S
C1465 N1467 1.384 . S
N1466 C1462 1.427 . S
N1466 C1463 1.384 . S
N1467 C1459 1.427 . S
N1467 C1465 1.384 . S
H1468 C1474 0.930 . S
H1469 C1478 0.930 . S
H1470 C1483 0.929 . S
H1471 C1481 0.929 . S
H1472 C1476 0.929 . S
H1473 C1482 0.929 . S
C1474 H1468 0.930 . S
C1474 C1475 1.367 . S
C1474 C1482 1.378 . S
C1475 C1474 1.367 . S
C1475 C1483 1.433 . S
C1476 H1472 0.929 . S
C1476 C1478 1.378 . S
C1476 C1480 1.350 . S
C1477 C1480 1.463 . S
C1477 C1482 1.350 . S
C1477 N1485 1.427 . S
C1478 H1469 0.930 . S
C1478 C1476 1.378 . S
C1478 C1479 1.367 . S
C1479 C1478 1.367 . S
C1479 C1481 1.433 . S
C1480 C1476 1.350 . S
C1480 C1477 1.463 . S
C1480 N1484 1.427 . S
C1481 H1471 0.929 . S
C1481 C1479 1.433 . S
C1481 N1484 1.384 . S
C1482 H1473 0.929 . S
C1482 C1474 1.378 . S
C1482 C1477 1.350 . S
C1483 H1470 0.929 . S
C1483 C1475 1.433 . S
C1483 N1485 1.384 . S
N1484 C1480 1.427 . S
N1484 C1481 1.384 . S
N1485 C1477 1.427 . S
N1485 C1483 1.384 . S
H1486 C1492 0.930 . S
H1487 C1496 0.930 . S
H1488 C1501 0.929 . S
H1489 C1499 0.929 . S
H1490 C1494 0.929 . S
H1491 C1500 0.929 . S
C1492 H1486 0.930 . S
C1492 C1493 1.367 . S
C1492 C1500 1.378 . S
C1493 C1492 1.367 . S
C1493 C1501 1.433 . S
C1494 H1490 0.929 . S
C1494 C1496 1.378 . S
C1494 C1498 1.350 . S
C1495 C1498 1.463 . S
C1495 C1500 1.350 . S
C1495 N1503 1.427 . S
C1496 H1487 0.930 . S
C1496 C1494 1.378 . S
C1496 C1497 1.367 . S
C1497 C1496 1.367 . S
C1497 C1499 1.433 . S
C1498 C1494 1.350 . S
C1498 C1495 1.463 . S
C1498 N1502 1.427 . S
C1499 H1489 0.929 . S
C1499 C1497 1.433 . S
C1499 N1502 1.384 . S
C1500 H1491 0.929 . S
C1500 C1492 1.378 . S
C1500 C1495 1.350 . S
C1501 H1488 0.929 . S
C1501 C1493 1.433 . S
C1501 N1503 1.384 . S
N1502 C1498 1.427 . S
N1502 C1499 1.384 . S
N1503 C1495 1.427 . S
N1503 C1501 1.384 . S
H1504 C1510 0.930 . S
H1505 C1514 0.930 . S
H1506 C1519 0.929 . S
H1507 C1517 0.929 . S
H1508 C1512 0.929 . S
H1509 C1518 0.929 . S
C1510 H1504 0.930 . S
C1510 C1511 1.367 . S
C1510 C1518 1.378 . S
C1511 C1510 1.367 . S
C1511 C1519 1.433 . S
C1512 H1508 0.929 . S
C1512 C1514 1.378 . S
C1512 C1516 1.350 . S
C1513 C1516 1.463 . S
C1513 C1518 1.350 . S
C1513 N1521 1.427 . S
C1514 H1505 0.930 . S
C1514 C1512 1.378 . S
C1514 C1515 1.367 . S
C1515 C1514 1.367 . S
C1515 C1517 1.433 . S
C1516 C1512 1.350 . S
C1516 C1513 1.463 . S
C1516 N1520 1.427 . S
C1517 H1507 0.929 . S
C1517 C1515 1.433 . S
C1517 N1520 1.384 . S
C1518 H1509 0.929 . S
C1518 C1510 1.378 . S
C1518 C1513 1.350 . S
C1519 H1506 0.929 . S
C1519 C1511 1.433 . S
C1519 N1521 1.384 . S
N1520 C1516 1.427 . S
N1520 C1517 1.384 . S
N1521 C1513 1.427 . S
N1521 C1519 1.384 . S
H1522 C1528 0.930 . S
H1523 C1532 0.930 . S
H1524 C1537 0.929 . S
H1525 C1535 0.929 . S
H1526 C1530 0.929 . S
H1527 C1536 0.929 . S
C1528 H1522 0.930 . S
C1528 C1529 1.367 . S
C1528 C1536 1.378 . S
C1529 C1528 1.367 . S
C1529 C1537 1.433 . S
C1530 H1526 0.929 . S
C1530 C1532 1.378 . S
C1530 C1534 1.350 . S
C1531 C1534 1.463 . S
C1531 C1536 1.350 . S
C1531 N1539 1.427 . S
C1532 H1523 0.930 . S
C1532 C1530 1.378 . S
C1532 C1533 1.367 . S
C1533 C1532 1.367 . S
C1533 C1535 1.433 . S
C1534 C1530 1.350 . S
C1534 C1531 1.463 . S
C1534 N1538 1.427 . S
C1535 H1525 0.929 . S
C1535 C1533 1.433 . S
C1535 N1538 1.384 . S
C1536 H1527 0.929 . S
C1536 C1528 1.378 . S
C1536 C1531 1.350 . S
C1537 H1524 0.929 . S
C1537 C1529 1.433 . S
C1537 N1539 1.384 . S
N1538 C1534 1.427 . S
N1538 C1535 1.384 . S
N1539 C1531 1.427 . S
N1539 C1537 1.384 . S
H1540 C1546 0.930 . S
H1541 C1550 0.930 . S
H1542 C1555 0.929 . S
H1543 C1553 0.929 . S
H1544 C1548 0.929 . S
H1545 C1554 0.929 . S
C1546 H1540 0.930 . S
C1546 C1547 1.367 . S
C1546 C1554 1.378 . S
C1547 C1546 1.367 . S
C1547 C1555 1.433 . S
C1548 H1544 0.929 . S
C1548 C1550 1.378 . S
C1548 C1552 1.350 . S
C1549 C1552 1.463 . S
C1549 C1554 1.350 . S
C1549 N1557 1.427 . S
C1550 H1541 0.930 . S
C1550 C1548 1.378 . S
C1550 C1551 1.367 . S
C1551 C1550 1.367 . S
C1551 C1553 1.433 . S
C1552 C1548 1.350 . S
C1552 C1549 1.463 . S
C1552 N1556 1.427 . S
C1553 H1543 0.929 . S
C1553 C1551 1.433 . S
C1553 N1556 1.384 . S
C1554 H1545 0.929 . S
C1554 C1546 1.378 . S
C1554 C1549 1.350 . S
C1555 H1542 0.929 . S
C1555 C1547 1.433 . S
C1555 N1557 1.384 . S
N1556 C1552 1.427 . S
N1556 C1553 1.384 . S
N1557 C1549 1.427 . S
N1557 C1555 1.384 . S
H1558 C1564 0.930 . S
H1559 C1568 0.930 . S
H1560 C1573 0.929 . S
H1561 C1571 0.929 . S
H1562 C1566 0.929 . S
H1563 C1572 0.929 . S
C1564 H1558 0.930 . S
C1564 C1565 1.367 . S
C1564 C1572 1.378 . S
C1565 C1564 1.367 . S
C1565 C1573 1.433 . S
C1566 H1562 0.929 . S
C1566 C1568 1.378 . S
C1566 C1570 1.350 . S
C1567 C1570 1.463 . S
C1567 C1572 1.350 . S
C1567 N1575 1.427 . S
C1568 H1559 0.930 . S
C1568 C1566 1.378 . S
C1568 C1569 1.367 . S
C1569 C1568 1.367 . S
C1569 C1571 1.433 . S
C1570 C1566 1.350 . S
C1570 C1567 1.463 . S
C1570 N1574 1.427 . S
C1571 H1561 0.929 . S
C1571 C1569 1.433 . S
C1571 N1574 1.384 . S
C1572 H1563 0.929 . S
C1572 C1564 1.378 . S
C1572 C1567 1.350 . S
C1573 H1560 0.929 . S
C1573 C1565 1.433 . S
C1573 N1575 1.384 . S
N1574 C1570 1.427 . S
N1574 C1571 1.384 . S
N1575 C1567 1.427 . S
N1575 C1573 1.384 . S
H1576 C1582 0.930 . S
H1577 C1586 0.930 . S
H1578 C1591 0.929 . S
H1579 C1589 0.929 . S
H1580 C1584 0.929 . S
H1581 C1590 0.929 . S
C1582 H1576 0.930 . S
C1582 C1583 1.367 . S
C1582 C1590 1.378 . S
C1583 C1582 1.367 . S
C1583 C1591 1.433 . S
C1584 H1580 0.929 . S
C1584 C1586 1.378 . S
C1584 C1588 1.350 . S
C1585 C1588 1.463 . S
C1585 C1590 1.350 . S
C1585 N1593 1.427 . S
C1586 H1577 0.930 . S
C1586 C1584 1.378 . S
C1586 C1587 1.367 . S
C1587 C1586 1.367 . S
C1587 C1589 1.433 . S
C1588 C1584 1.350 . S
C1588 C1585 1.463 . S
C1588 N1592 1.427 . S
C1589 H1579 0.929 . S
C1589 C1587 1.433 . S
C1589 N1592 1.384 . S
C1590 H1581 0.929 . S
C1590 C1582 1.378 . S
C1590 C1585 1.350 . S
C1591 H1578 0.929 . S
C1591 C1583 1.433 . S
C1591 N1593 1.384 . S
N1592 C1588 1.427 . S
N1592 C1589 1.384 . S
N1593 C1585 1.427 . S
N1593 C1591 1.384 . S
H1594 C1600 0.930 . S
H1595 C1604 0.930 . S
H1596 C1609 0.929 1_565 S
H1597 C1607 0.929 . S
H1598 C1602 0.929 . S
H1599 C1608 0.929 . S
C1600 H1594 0.930 . S
C1600 C1601 1.367 . S
C1600 C1608 1.378 . S
C1601 C1600 1.367 . S
C1601 C1609 1.433 . S
C1602 H1598 0.929 . S
C1602 C1604 1.378 . S
C1602 C1606 1.350 . S
C1603 C1606 1.463 . S
C1603 C1608 1.350 . S
C1603 N1611 1.427 . S
C1604 H1595 0.930 . S
C1604 C1602 1.378 . S
C1604 C1605 1.367 . S
C1605 C1604 1.367 . S
C1605 C1607 1.433 . S
C1606 C1602 1.350 . S
C1606 C1603 1.463 . S
C1606 N1610 1.427 . S
C1607 H1597 0.929 . S
C1607 C1605 1.433 . S
C1607 N1610 1.384 . S
C1608 H1599 0.929 . S
C1608 C1600 1.378 . S
C1608 C1603 1.350 . S
C1609 H1596 0.929 1_545 S
C1609 C1601 1.433 . S
C1609 N1611 1.384 . S
N1610 C1606 1.427 . S
N1610 C1607 1.384 . S
N1611 C1603 1.427 . S
N1611 C1609 1.384 . S
H1612 C1618 0.930 . S
H1613 C1622 0.930 . S
H1614 C1627 0.929 . S
H1615 C1625 0.929 . S
H1616 C1620 0.929 . S
H1617 C1626 0.929 . S
C1618 H1612 0.930 . S
C1618 C1619 1.367 . S
C1618 C1626 1.378 . S
C1619 C1618 1.367 . S
C1619 C1627 1.433 . S
C1620 H1616 0.929 . S
C1620 C1622 1.378 . S
C1620 C1624 1.350 . S
C1621 C1624 1.463 . S
C1621 C1626 1.350 . S
C1621 N1629 1.427 . S
C1622 H1613 0.930 . S
C1622 C1620 1.378 . S
C1622 C1623 1.367 . S
C1623 C1622 1.367 . S
C1623 C1625 1.433 . S
C1624 C1620 1.350 . S
C1624 C1621 1.463 . S
C1624 N1628 1.427 . S
C1625 H1615 0.929 . S
C1625 C1623 1.433 . S
C1625 N1628 1.384 . S
C1626 H1617 0.929 . S
C1626 C1618 1.378 . S
C1626 C1621 1.350 . S
C1627 H1614 0.929 . S
C1627 C1619 1.433 . S
C1627 N1629 1.384 . S
N1628 C1624 1.427 . S
N1628 C1625 1.384 . S
N1629 C1621 1.427 . S
N1629 C1627 1.384 . S
H1630 C1636 0.930 . S
H1631 C1640 0.930 . S
H1632 C1645 0.929 . S
H1633 C1643 0.929 . S
H1634 C1638 0.929 . S
H1635 C1644 0.929 . S
C1636 H1630 0.930 . S
C1636 C1637 1.367 1_554 S
C1636 C1644 1.378 . S
C1637 C1636 1.367 1_556 S
C1637 C1645 1.433 . S
C1638 H1634 0.929 . S
C1638 C1640 1.378 . S
C1638 C1642 1.350 . S
C1639 C1642 1.463 . S
C1639 C1644 1.350 1_556 S
C1639 N1647 1.427 . S
C1640 H1631 0.930 . S
C1640 C1638 1.378 . S
C1640 C1641 1.367 . S
C1641 C1640 1.367 . S
C1641 C1643 1.433 1_556 S
C1642 C1638 1.350 . S
C1642 C1639 1.463 . S
C1642 N1646 1.427 1_556 S
C1643 H1633 0.929 . S
C1643 C1641 1.433 1_554 S
C1643 N1646 1.384 . S
C1644 H1635 0.929 . S
C1644 C1636 1.378 . S
C1644 C1639 1.350 1_554 S
C1645 H1632 0.929 . S
C1645 C1637 1.433 . S
C1645 N1647 1.384 . S
N1646 C1642 1.427 1_554 S
N1646 C1643 1.384 . S
N1647 C1639 1.427 . S
N1647 C1645 1.384 . S
H1648 C1654 0.930 . S
H1649 C1658 0.930 1_554 S
H1650 C1663 0.929 . S
H1651 C1661 0.929 . S
H1652 C1656 0.929 . S
H1653 C1662 0.929 . S
C1654 H1648 0.930 . S
C1654 C1655 1.367 . S
C1654 C1662 1.378 . S
C1655 C1654 1.367 . S
C1655 C1663 1.433 1_556 S
C1656 H1652 0.929 . S
C1656 C1658 1.378 1_554 S
C1656 C1660 1.350 1_554 S
C1657 C1660 1.463 . S
C1657 C1662 1.350 . S
C1657 N1665 1.427 1_556 S
C1658 H1649 0.930 1_556 S
C1658 C1656 1.378 1_556 S
C1658 C1659 1.367 . S
C1659 C1658 1.367 . S
C1659 C1661 1.433 . S
C1660 C1656 1.350 1_556 S
C1660 C1657 1.463 . S
C1660 N1664 1.427 . S
C1661 H1651 0.929 . S
C1661 C1659 1.433 . S
C1661 N1664 1.384 . S
C1662 H1653 0.929 . S
C1662 C1654 1.378 . S
C1662 C1657 1.350 . S
C1663 H1650 0.929 . S
C1663 C1655 1.433 1_554 S
C1663 N1665 1.384 . S
N1664 C1660 1.427 . S
N1664 C1661 1.384 . S
N1665 C1657 1.427 1_554 S
N1665 C1663 1.384 . S
H1666 C1672 0.930 . S
H1667 C1676 0.930 . S
H1668 C1681 0.929 . S
H1669 C1679 0.929 1_556 S
H1670 C1674 0.929 . S
H1671 C1680 0.929 . S
C1672 H1666 0.930 . S
C1672 C1673 1.367 1_556 S
C1672 C1680 1.378 . S
C1673 C1672 1.367 1_554 S
C1673 C1681 1.433 . S
C1674 H1670 0.929 . S
C1674 C1676 1.378 . S
C1674 C1678 1.350 . S
C1675 C1678 1.463 . S
C1675 C1680 1.350 1_554 S
C1675 N1683 1.427 . S
C1676 H1667 0.930 . S
C1676 C1674 1.378 . S
C1676 C1677 1.367 . S
C1677 C1676 1.367 . S
C1677 C1679 1.433 . S
C1678 C1674 1.350 . S
C1678 C1675 1.463 . S
C1678 N1682 1.427 . S
C1679 H1669 0.929 1_554 S
C1679 C1677 1.433 . S
C1679 N1682 1.384 . S
C1680 H1671 0.929 . S
C1680 C1672 1.378 . S
C1680 C1675 1.350 1_556 S
C1681 H1668 0.929 . S
C1681 C1673 1.433 . S
C1681 N1683 1.384 . S
N1682 C1678 1.427 . S
N1682 C1679 1.384 . S
N1683 C1675 1.427 . S
N1683 C1681 1.384 . S
C827 C22 1.663 . S
C831 C699 1.668 1_545 S
C849 C725 1.780 . S
C845 C38 1.806 . S
C867 C657 1.756 1_565 S
C863 C75 1.734 . S
C881 C91 1.522 . S
C885 C680 1.533 . S
C899 C128 1.609 . S
C903 C814 1.620 1_554 S
C917 C197 1.443 . S
C921 C795 1.455 . S
C939 C748 1.836 . S
C935 C144 1.851 . S
C953 C181 1.750 . S
C957 C771 1.748 . S
C975 C676 1.799 . S
C971 C234 1.808 . S
C993 C726 1.581 . S
C989 C303 1.572 . S
C1007 C356 1.705 . S
C1011 C702 1.679 . S
C1025 C287 1.824 . S
C1029 C768 1.836 . S
C1047 C791 1.619 . S
C1043 C393 1.612 . S
C1065 C817 1.839 1_565 S
C1061 C409 1.838 . S
C1079 C462 1.925 . S
C1083 C772 1.947 . S
C1101 C749 1.436 1_545 S
C1097 C446 1.428 . S
C1115 C499 1.629 . S
C1119 C722 1.624 . S
C1133 C552 1.425 . S
C1137 C703 1.437 . S
C1155 C679 1.700 . S
C1151 C515 1.734 . S
C1169 C568 1.998 . S
C1173 C656 1.995 . S
C1191 C745 1.879 . S
C1187 C340 1.877 . S
C1209 C818 1.476 . S
C1205 C621 1.473 . S
C1223 C250 1.612 . S
C1227 C794 1.583 . S
C1241 C605 1.773 . S
C1245 C653 1.767 1_655 S
C1263 C655 1.441 . S
C1259 C39 1.451 . S
C1277 C29 1.270 . S
C1281 C678 1.215 . S
C1299 C700 1.352 . S
C1295 C92 1.322 . S
C1317 C721 1.203 . S
C1313 C82 1.193 1_655 S
C1331 C145 1.548 . S
C1335 C652 1.557 . S
C1349 C188 1.250 . S
C1353 C675 1.271 . S
C1371 C701 1.310 . S
C1367 C135 1.337 . S
C1385 C198 1.454 . S
C1389 C723 1.480 . S
C1403 C251 1.367 . S
C1407 C654 1.371 . S
C1425 C698 1.219 . S
C1421 C294 1.195 . S
C1439 C347 1.317 . S
C1443 C724 1.291 . S
C1457 C304 1.374 . S
C1461 C746 1.398 . S
C1479 C770 1.443 . S
C1475 C410 1.469 . S
C1493 C400 1.281 . S
C1497 C747 1.262 . S
C1511 C453 1.059 . S
C1515 C792 1.075 . S
C1529 C463 1.496 . S
C1533 C813 1.497 . S
C1547 C516 1.527 . S
C1551 C767 1.549 . S
C1569 C744 1.572 . S
C1565 C569 1.562 . S
C1583 C506 1.280 . S
C1587 C793 1.238 . S
C1605 C815 1.247 . S
C1601 C559 1.232 . S
C1623 C769 1.351 . S
C1619 C357 1.359 . S
C1641 C790 1.226 . S
C1637 C612 1.214 . S
C1659 C816 1.265 . S
C1655 C241 1.284 1_556 S
C1673 C622 1.266 . S
C1677 C677 1.295 . S
