# Generated by pormake.
# Topology zzz, (3,6)-cn, num edge types: 1
# Building blocks:
#     Node 0, Type 0, BuildingBlock: OLANEW_clean_sbu_2, # of connection points: 3
#     Node 1, Type 0, BuildingBlock: OLANEW_clean_sbu_2, # of connection points: 3
#     Node 2, Type 0, BuildingBlock: OLANEW_clean_sbu_2, # of connection points: 3
#     Node 3, Type 0, BuildingBlock: OLANEW_clean_sbu_2, # of connection points: 3
#     Node 4, Type 0, BuildingBlock: OLANEW_clean_sbu_2, # of connection points: 3
#     Node 5, Type 0, BuildingBlock: OLANEW_clean_sbu_2, # of connection points: 3
#     Node 6, Type 0, BuildingBlock: OLANEW_clean_sbu_2, # of connection points: 3
#     Node 7, Type 0, BuildingBlock: OLANEW_clean_sbu_2, # of connection points: 3
#     Node 8, Type 1, BuildingBlock: VOLQOD_clean_sbu_1, # of connection points: 6
#     Node 9, Type 1, BuildingBlock: VOLQOD_clean_sbu_1, # of connection points: 6
#     Node 10, Type 1, BuildingBlock: VOLQOD_clean_sbu_1, # of connection points: 6
#     Node 11, Type 1, BuildingBlock: VOLQOD_clean_sbu_1, # of connection points: 6
#     Edge 12, Type (0, 1), BuildingBlock: OJICUG_clean_linker_0, # of connection points: 2
#     Edge 13, Type (0, 1), BuildingBlock: OJICUG_clean_linker_0, # of connection points: 2
#     Edge 14, Type (0, 1), BuildingBlock: OJICUG_clean_linker_0, # of connection points: 2
#     Edge 15, Type (0, 1), BuildingBlock: OJICUG_clean_linker_0, # of connection points: 2
#     Edge 16, Type (0, 1), BuildingBlock: OJICUG_clean_linker_0, # of connection points: 2
#     Edge 17, Type (0, 1), BuildingBlock: OJICUG_clean_linker_0, # of connection points: 2
#     Edge 18, Type (0, 1), BuildingBlock: OJICUG_clean_linker_0, # of connection points: 2
#     Edge 19, Type (0, 1), BuildingBlock: OJICUG_clean_linker_0, # of connection points: 2
#     Edge 20, Type (0, 1), BuildingBlock: OJICUG_clean_linker_0, # of connection points: 2
#     Edge 21, Type (0, 1), BuildingBlock: OJICUG_clean_linker_0, # of connection points: 2
#     Edge 22, Type (0, 1), BuildingBlock: OJICUG_clean_linker_0, # of connection points: 2
#     Edge 23, Type (0, 1), BuildingBlock: OJICUG_clean_linker_0, # of connection points: 2
#     Edge 24, Type (0, 1), BuildingBlock: OJICUG_clean_linker_0, # of connection points: 2
#     Edge 25, Type (0, 1), BuildingBlock: OJICUG_clean_linker_0, # of connection points: 2
#     Edge 26, Type (0, 1), BuildingBlock: OJICUG_clean_linker_0, # of connection points: 2
#     Edge 27, Type (0, 1), BuildingBlock: OJICUG_clean_linker_0, # of connection points: 2
#     Edge 28, Type (0, 1), BuildingBlock: OJICUG_clean_linker_0, # of connection points: 2
#     Edge 29, Type (0, 1), BuildingBlock: OJICUG_clean_linker_0, # of connection points: 2
#     Edge 30, Type (0, 1), BuildingBlock: OJICUG_clean_linker_0, # of connection points: 2
#     Edge 31, Type (0, 1), BuildingBlock: OJICUG_clean_linker_0, # of connection points: 2
#     Edge 32, Type (0, 1), BuildingBlock: OJICUG_clean_linker_0, # of connection points: 2
#     Edge 33, Type (0, 1), BuildingBlock: OJICUG_clean_linker_0, # of connection points: 2
#     Edge 34, Type (0, 1), BuildingBlock: OJICUG_clean_linker_0, # of connection points: 2
#     Edge 35, Type (0, 1), BuildingBlock: OJICUG_clean_linker_0, # of connection points: 2
# Relax obj value: 0.168
# Max RMSD: 0.226
# Mean RMSD: 0.108
data_MOF--net-zzz--node1-OLANEW_clean_sbu_2--node2-VOLQOD_clean_sbu_1--edge1-OJICUG_clean_linker_0
_symmetry_space_group_name_H-M    P1
_symmetry_Int_Tables_number       1
_symmetry_cell_setting            triclinic
loop_
_symmetry_equiv_pos_as_xyz
'x, y, z'
_cell_length_a     40.569487
_cell_length_b     40.57241
_cell_length_c     14.549001
_cell_angle_alpha  89.990154
_cell_angle_beta   90.054889
_cell_angle_gamma 91.301529
loop_
_atom_site_label
_atom_site_type_symbol
_atom_site_fract_x
_atom_site_fract_y
_atom_site_fract_z
_atom_type_partial_charge
O0 O 0.81329 0.3727 0.88517 0.0
Cd1 Cd 0.75894 0.35135 0.93129 0.0
O2 O 0.81555 0.39337 0.02414 0.0
Cd3 Cd 0.84272 0.41648 0.13736 0.0
O4 O 0.88134 0.43105 0.23369 0.0
C5 C 0.89528 0.45942 0.23663 0.0
O6 O 0.88573 0.48259 0.18011 0.0
C7 C 0.82894 0.38916 0.94613 0.0
C8 C 0.70667 0.38449 0.85177 0.0
O9 O 0.7228 0.39686 0.91971 0.0
O10 O 0.7154 0.35651 0.8203 0.0
O11 O 0.89497 0.78545 0.90677 0.0
Cd12 Cd 0.86312 0.73447 0.93042 0.0
O13 O 0.87059 0.80911 0.02346 0.0
Cd14 Cd 0.86773 0.8511 0.11693 0.0
O15 O 0.88062 0.88895 0.21801 0.0
C16 C 0.9075 0.90535 0.20909 0.0
O17 O 0.92615 0.89993 0.1371 0.0
C18 C 0.89112 0.81049 0.95758 0.0
C19 C 0.90123 0.67996 0.89178 0.0
O20 O 0.88536 0.69456 0.828 0.0
O21 O 0.89888 0.69103 0.97399 0.0
O22 O 0.70975 0.14913 0.82266 0.0
Cd23 Cd 0.76013 0.1741 0.88717 0.0
O24 O 0.69837 0.13593 0.96528 0.0
Cd25 Cd 0.66947 0.10717 0.0641 0.0
O26 O 0.64186 0.07472 0.1564 0.0
C27 C 0.61066 0.07182 0.15128 0.0
O28 O 0.59485 0.0889 0.0893 0.0
C29 C 0.69052 0.13543 0.88078 0.0
C30 C 0.81508 0.13569 0.85436 0.0
O31 O 0.7947 0.12838 0.91882 0.0
O32 O 0.80961 0.1612 0.80519 0.0
O33 O 0.63942 0.7109 0.83215 0.0
Cd34 Cd 0.66925 0.76126 0.87642 0.0
O35 O 0.62824 0.7032 0.97808 0.0
Cd36 Cd 0.61075 0.67064 0.08748 0.0
O37 O 0.59921 0.63018 0.18081 0.0
C38 C 0.57206 0.61405 0.17609 0.0
O39 O 0.55002 0.62247 0.11477 0.0
C40 C 0.62555 0.69389 0.89502 0.0
C41 C 0.63316 0.81604 0.82785 0.0
O42 O 0.65607 0.80571 0.77533 0.0
O43 O 0.62767 0.80069 0.90348 0.0
O44 O 0.21899 0.64286 0.63421 0.0
Cd45 Cd 0.27113 0.67285 0.60919 0.0
O46 O 0.21943 0.62459 0.49174 0.0
Cd47 Cd 0.19246 0.59598 0.3876 0.0
O48 O 0.15467 0.57192 0.30237 0.0
C49 C 0.15831 0.54285 0.27219 0.0
O50 O 0.18533 0.52718 0.29275 0.0
C51 C 0.20598 0.6256 0.57041 0.0
C52 C 0.32491 0.63215 0.63694 0.0
O53 O 0.31334 0.64924 0.70309 0.0
O54 O 0.31109 0.63441 0.55799 0.0
O55 O 0.14492 0.19937 0.58812 0.0
Cd56 Cd 0.18092 0.24573 0.54625 0.0
O57 O 0.15687 0.17295 0.46145 0.0
Cd58 Cd 0.15215 0.13193 0.3648 0.0
O59 O 0.12291 0.10492 0.26324 0.0
C60 C 0.11586 0.07424 0.26432 0.0
O61 O 0.12809 0.05548 0.32896 0.0
C62 C 0.14014 0.17486 0.53514 0.0
C63 C 0.14846 0.30269 0.59591 0.0
O64 O 0.14264 0.28845 0.5188 0.0
O65 O 0.17043 0.29057 0.64861 0.0
O66 O 0.29613 0.87555 0.56218 0.0
Cd67 Cd 0.24439 0.8469 0.52234 0.0
O68 O 0.30082 0.89421 0.42097 0.0
Cd69 Cd 0.33049 0.9181 0.31324 0.0
O70 O 0.37023 0.93521 0.22296 0.0
C71 C 0.38244 0.96437 0.2212 0.0
O72 O 0.37043 0.98696 0.27562 0.0
C73 C 0.31209 0.89221 0.50234 0.0
C74 C 0.18885 0.88179 0.57356 0.0
O75 O 0.20209 0.86142 0.62907 0.0
O76 O 0.20202 0.88576 0.49413 0.0
O77 O 0.37547 0.2974 0.56627 0.0
Cd78 Cd 0.34065 0.24803 0.55057 0.0
O79 O 0.3646 0.31838 0.43026 0.0
Cd80 Cd 0.37504 0.35494 0.3224 0.0
O81 O 0.39711 0.39298 0.23372 0.0
C82 C 0.42839 0.39487 0.23003 0.0
O83 O 0.44561 0.37436 0.27969 0.0
C84 C 0.37977 0.32003 0.50678 0.0
C85 C 0.37845 0.19288 0.58639 0.0
O86 O 0.37422 0.20329 0.50412 0.0
O87 O 0.36435 0.20826 0.6519 0.0
O88 O 0.06105 0.95081 0.75717 0.0
Zn89 Zn 0.02226 0.97118 0.82113 0.0
O90 O 0.99986 0.00209 0.73884 0.0
Zn91 Zn 1.00148 0.04613 0.79084 0.0
Zn92 Zn 0.02136 0.00315 0.61808 0.0
Zn93 Zn 0.95367 0.98901 0.72557 0.0
O94 O 0.95675 0.06686 0.79789 0.0
O95 O 0.92294 0.02497 0.76249 0.0
O96 O 0.03972 0.99469 0.93518 0.0
O97 O 0.02147 0.0454 0.91589 0.0
O98 O 0.0316 0.07553 0.71818 0.0
O99 O 0.04166 0.0481 0.58954 0.0
O100 O 0.98999 0.98808 0.51779 0.0
O101 O 0.99111 0.93399 0.86012 0.0
O102 O 0.94387 0.97643 0.59449 0.0
O103 O 0.94305 0.9493 0.80237 0.0
C104 C 0.07254 0.9534 0.67592 0.0
C105 C 0.92776 0.05478 0.7872 0.0
C106 C 0.04513 0.0737 0.63966 0.0
C107 C 0.03675 0.02424 0.96327 0.0
C108 C 0.96018 0.97749 0.5197 0.0
C109 C 0.96016 0.92947 0.84925 0.0
O110 O 0.05935 0.9721 0.61673 0.0
O111 O 0.47318 0.07573 0.73349 0.0
Zn112 Zn 0.50284 0.04004 0.78289 0.0
O113 O 0.50716 0.00431 0.69119 0.0
Zn114 Zn 0.49053 0.96279 0.74117 0.0
Zn115 Zn 0.48245 0.01463 0.57981 0.0
Zn116 Zn 0.55315 -0.00165 0.65858 0.0
O117 O 0.52541 0.92871 0.75148 0.0
O118 O 0.57 0.95379 0.69445 0.0
O119 O 0.48152 0.02277 0.90161 0.0
O120 O 0.47371 0.96986 0.86713 0.0
O121 O 0.45198 0.94464 0.66898 0.0
O122 O 0.4455 0.9816 0.55838 0.0
O123 O 0.51177 0.01788 0.46804 0.0
O124 O 0.54796 0.06165 0.80847 0.0
O125 O 0.56059 0.00495 0.52435 0.0
O126 O 0.58123 0.0329 0.71929 0.0
C127 C 0.45895 0.07961 0.65616 0.0
C128 C 0.55588 0.92871 0.73097 0.0
C129 C 0.43636 0.95522 0.59948 0.0
C130 C 0.47122 0.99379 0.92285 0.0
C131 C 0.54247 0.01329 0.45731 0.0
C132 C 0.57655 0.05626 0.77571 0.0
O133 O 0.46119 0.05832 0.59243 0.0
O134 O 0.45405 0.54982 0.7624 0.0
Zn135 Zn 0.49566 0.52737 0.80469 0.0
O136 O 0.51317 0.49906 0.70629 0.0
Zn137 Zn 0.51641 0.45356 0.74736 0.0
Zn138 Zn 0.48444 0.50088 0.59838 0.0
Zn139 Zn 0.55735 0.51369 0.67201 0.0
O140 O 0.56294 0.43699 0.74767 0.0
O141 O 0.59213 0.48115 0.70437 0.0
O142 O 0.48356 0.49969 0.91757 0.0
O143 O 0.49993 0.44982 0.87625 0.0
O144 O 0.48766 0.4233 0.67138 0.0
O145 O 0.4641 0.45633 0.57022 0.0
O146 O 0.50884 0.51846 0.48746 0.0
O147 O 0.52883 0.56442 0.83631 0.0
O148 O 0.56008 0.52512 0.53862 0.0
O149 O 0.56919 0.55505 0.73742 0.0
C150 C 0.43801 0.54922 0.687 0.0
C151 C 0.59053 0.45141 0.73188 0.0
C152 C 0.46784 0.42784 0.60492 0.0
C153 C 0.48735 0.46915 0.93473 0.0
C154 C 0.53889 0.52694 0.4744 0.0
C155 C 0.55659 0.57242 0.8003 0.0
O156 O 0.44717 0.53159 0.61977 0.0
O157 O 0.99666 0.51199 0.55749 0.0
Zn158 Zn 0.02019 0.52813 0.67355 0.0
O159 O 0.02749 0.49169 0.76065 0.0
Zn160 Zn 0.00669 0.50161 0.87881 0.0
Zn161 Zn 0.00917 0.45068 0.7113 0.0
Zn162 Zn 0.07438 0.4852 0.77891 0.0
O163 O 0.04022 0.50363 0.98272 0.0
O164 O 0.08669 0.49143 0.91084 0.0
O165 O 0.99152 0.56261 0.73032 0.0
O166 O 0.98535 0.54583 0.87458 0.0
O167 O 0.96934 0.46892 0.90468 0.0
O168 O 0.9718 0.43342 0.78877 0.0
O169 O 0.04295 0.41569 0.6933 0.0
O170 O 0.06367 0.55096 0.64129 0.0
O171 O 0.08925 0.44046 0.73996 0.0
O172 O 0.10051 0.51878 0.70777 0.0
C173 C 0.98597 0.48325 0.53548 0.0
C174 C 0.07121 0.49896 0.98359 0.0
C175 C 0.95823 0.44353 0.86204 0.0
C176 C 0.98035 0.56675 0.81118 0.0
C177 C 0.07393 0.41547 0.707 0.0
C178 C 0.0934 0.54365 0.65899 0.0
O179 O 0.98965 0.45876 0.58867 0.0
C180 C 0.14426 0.92146 0.53732 0.0
C181 C 0.15911 0.90003 0.6 0.0
H182 H 0.10538 0.95495 0.51178 0.0
C183 C 0.14517 0.8961 0.68788 0.0
H184 H 0.15434 0.92504 0.46903 0.0
C185 C 0.11703 0.9133 0.71255 0.0
C186 C 0.10215 0.93477 0.64983 0.0
H187 H 0.15601 0.87975 0.73778 0.0
H188 H 0.10697 0.90975 0.78089 0.0
C189 C 0.11611 0.9386 0.56187 0.0
C190 C 0.40979 0.14426 0.53219 0.0
C191 C 0.39919 0.1641 0.60498 0.0
H192 H 0.43681 0.10216 0.49129 0.0
C193 C 0.40884 0.15629 0.69515 0.0
H194 H 0.40282 0.14961 0.46196 0.0
C195 C 0.42871 0.12917 0.71206 0.0
C196 C 0.43895 0.1091 0.6392 0.0
H197 H 0.40118 0.17122 0.75268 0.0
H198 H 0.43565 0.12369 0.78223 0.0
C199 C 0.42927 0.117 0.54913 0.0
C200 C 0.36981 0.6095 0.73613 0.0
C201 C 0.35345 0.61055 0.65093 0.0
H202 H 0.40929 0.58938 0.81462 0.0
C203 C 0.36477 0.59088 0.57861 0.0
H204 H 0.36168 0.62435 0.79331 0.0
C205 C 0.39193 0.57079 0.59086 0.0
C206 C 0.40857 0.56993 0.6757 0.0
H207 H 0.35271 0.59102 0.51217 0.0
H208 H 0.40001 0.55612 0.53326 0.0
C209 C 0.39711 0.58944 0.74837 0.0
C210 C 0.09885 0.33778 0.58406 0.0
C211 C 0.12958 0.33164 0.62435 0.0
H212 H 0.05684 0.36874 0.58002 0.0
C213 C 0.14168 0.35295 0.69323 0.0
H214 H 0.0888 0.32162 0.53126 0.0
C215 C 0.12358 0.38021 0.72027 0.0
C216 C 0.09272 0.38621 0.68039 0.0
H217 H 0.1653 0.34878 0.7255 0.0
H218 H 0.13364 0.39646 0.77285 0.0
C219 C 0.08044 0.3646 0.61247 0.0
C220 C 0.87312 0.12908 0.80052 0.0
C221 C 0.84397 0.11512 0.8371 0.0
H222 H 0.92291 0.12094 0.75805 0.0
C223 C 0.8426 0.08127 0.85728 0.0
H224 H 0.87482 0.15516 0.78472 0.0
C225 C 0.86973 0.0616 0.83982 0.0
C226 C 0.89906 0.07561 0.80448 0.0
H227 H 0.82037 0.06989 0.88524 0.0
H228 H 0.86794 0.0355 0.85529 0.0
C229 C 0.90062 0.10958 0.78567 0.0
C230 C 0.58298 0.85 0.84483 0.0
C231 C 0.61336 0.84468 0.80182 0.0
H232 H 0.54079 0.88042 0.85512 0.0
C233 C 0.62453 0.86688 0.73394 0.0
H234 H 0.57366 0.8332 0.89707 0.0
C235 C 0.60588 0.89423 0.71066 0.0
C236 C 0.57543 0.89949 0.75358 0.0
H237 H 0.6479 0.86339 0.69971 0.0
H238 H 0.61523 0.91116 0.65879 0.0
C239 C 0.56407 0.87695 0.8204 0.0
C240 C 0.65112 0.38359 0.77696 0.0
C241 C 0.67809 0.40161 0.8133 0.0
H242 H 0.60181 0.38529 0.72388 0.0
C243 C 0.67682 0.43613 0.81705 0.0
H244 H 0.65147 0.35692 0.77368 0.0
C245 C 0.64887 0.45235 0.78636 0.0
C246 C 0.62129 0.43429 0.75385 0.0
H247 H 0.69735 0.45057 0.84448 0.0
H248 H 0.64835 0.47897 0.79161 0.0
C249 C 0.62273 0.39977 0.74877 0.0
C250 C 0.93427 0.63188 0.94259 0.0
C251 C 0.92172 0.65121 0.87111 0.0
H252 H 0.96246 0.59001 0.97981 0.0
C253 C 0.92894 0.64283 0.77971 0.0
H254 H 0.92911 0.63769 0.01375 0.0
C255 C 0.94834 0.61568 0.76021 0.0
C256 C 0.96061 0.5961 0.83168 0.0
H257 H 0.91972 0.65733 0.72311 0.0
H258 H 0.95338 0.60982 0.68902 0.0
C259 C 0.95334 0.60451 0.9231 0.0
C260 C 0.10858 0.14297 0.65336 0.0
C261 C 0.11531 0.1492 0.56031 0.0
H262 H 0.08093 0.11441 0.75104 0.0
C263 C 0.09715 0.13177 0.49294 0.0
H264 H 0.12178 0.15635 0.70689 0.0
C265 C 0.07424 0.10711 0.51812 0.0
C266 C 0.06806 0.10052 0.61126 0.0
H267 H 0.09987 0.13769 0.42097 0.0
H268 H 0.06101 0.0936 0.46491 0.0
C269 C 0.08509 0.11903 0.67857 0.0
C270 C 0.35314 0.9388 0.48898 0.0
C271 C 0.34405 0.90803 0.52635 0.0
H272 H 0.38966 0.97746 0.48085 0.0
C273 C 0.36564 0.89262 0.58738 0.0
H274 H 0.33636 0.95194 0.44508 0.0
C275 C 0.39604 0.90752 0.60948 0.0
C276 C 0.40537 0.93816 0.57103 0.0
H277 H 0.3591 0.86896 0.61757 0.0
H278 H 0.41211 0.89512 0.65716 0.0
C279 C 0.38361 0.95354 0.5102 0.0
C280 C 0.4316 0.34164 0.57871 0.0
C281 C 0.40319 0.34742 0.52659 0.0
H282 H 0.47469 0.36242 0.64302 0.0
C283 C 0.39681 0.37963 0.49746 0.0
H284 H 0.43702 0.31702 0.60234 0.0
C285 C 0.41859 0.40559 0.51945 0.0
C286 C 0.4468 0.39992 0.57289 0.0
H287 H 0.37435 0.38507 0.46083 0.0
H288 H 0.41262 0.43027 0.49756 0.0
C289 C 0.45322 0.36761 0.60161 0.0
C290 C 0.17686 0.57128 0.57225 0.0
C291 C 0.17625 0.60533 0.58834 0.0
H292 H 0.15079 0.52493 0.58279 0.0
C293 C 0.14748 0.61942 0.62249 0.0
H294 H 0.19892 0.55999 0.5461 0.0
C295 C 0.11958 0.59952 0.64058 0.0
C296 C 0.12065 0.56526 0.62747 0.0
H297 H 0.14662 0.6457 0.63512 0.0
H298 H 0.09773 0.61066 0.66845 0.0
C299 C 0.14943 0.55132 0.59288 0.0
C300 C 0.89327 0.87126 0.93563 0.0
C301 C 0.90972 0.84125 0.93832 0.0
H302 H 0.89647 0.92282 0.90501 0.0
C303 C 0.94344 0.84069 0.91706 0.0
H304 H 0.86714 0.87216 0.95049 0.0
C305 C 0.96043 0.86979 0.89272 0.0
C306 C 0.94364 0.89963 0.88662 0.0
H307 H 0.95654 0.81772 0.91848 0.0
H308 H 0.9863 0.86869 0.87485 0.0
C309 C 0.91 0.90014 0.90919 0.0
C310 C 0.63096 0.11958 0.89898 0.0
C311 C 0.66073 0.11702 0.85051 0.0
H312 H 0.58062 0.10289 0.91218 0.0
C313 C 0.66223 0.09561 0.77522 0.0
H314 H 0.62912 0.13641 0.95645 0.0
C315 C 0.63484 0.07597 0.75121 0.0
C316 C 0.60514 0.07784 0.80091 0.0
H317 H 0.68491 0.09329 0.73672 0.0
H318 H 0.63706 0.05921 0.69372 0.0
C319 C 0.60328 0.10041 0.87377 0.0
C320 C 0.57813 0.65402 0.91612 0.0
C321 C 0.6079 0.66281 0.87218 0.0
H322 H 0.5383 0.61857 0.9277 0.0
C323 C 0.62057 0.64186 0.80516 0.0
H324 H 0.56742 0.67029 0.96637 0.0
C325 C 0.60415 0.61229 0.78358 0.0
C326 C 0.57435 0.60323 0.82754 0.0
H327 H 0.64341 0.64817 0.77011 0.0
H328 H 0.6148 0.59668 0.73158 0.0
C329 C 0.56144 0.62451 0.89384 0.0
C330 C 0.8841 0.38503 0.87075 0.0
C331 C 0.86256 0.40229 0.92771 0.0
H332 H 0.93161 0.38412 0.80695 0.0
C333 C 0.87326 0.43251 0.96576 0.0
H334 H 0.87642 0.36175 0.84017 0.0
C335 C 0.90501 0.44499 0.94858 0.0
C336 C 0.92651 0.42796 0.89079 0.0
H337 H 0.8567 0.44718 0.00616 0.0
H338 H 0.91215 0.46872 0.97743 0.0
C339 C 0.91576 0.39773 0.85243 0.0
C340 C 0.0741 0.08156 0.1412 0.0
C341 C 0.09366 0.06032 0.19298 0.0
H342 H 0.0404 0.0868 0.03025 0.0
C343 C 0.09224 0.02634 0.17401 0.0
H344 H 0.07422 0.1078 0.15498 0.0
C345 C 0.0728 0.01413 0.10131 0.0
C346 C 0.05418 0.03569 0.04734 0.0
H347 H 0.10694 0.00938 0.21326 0.0
H348 H 0.07305 0.98802 0.08599 0.0
C349 C 0.0545 0.06941 0.06978 0.0
C350 C 0.42471 0.94741 0.10775 0.0
C351 C 0.40871 0.97278 0.15412 0.0
H352 H 0.4576 0.93425 0.00055 0.0
C353 C 0.41682 0.00574 0.13179 0.0
H354 H 0.41954 0.92178 0.12438 0.0
C355 C 0.43885 0.01302 0.05988 0.0
C356 C 0.4531 0.98741 0.00962 0.0
H357 H 0.40507 0.02585 0.16697 0.0
H358 H 0.44336 0.03853 0.04078 0.0
C359 C 0.44667 0.95462 0.03673 0.0
C360 C 0.42885 0.44419 0.12545 0.0
C361 C 0.44513 0.41713 0.16345 0.0
H362 H 0.43011 0.48283 0.0244 0.0
C363 C 0.47705 0.41013 0.13291 0.0
H364 H 0.40432 0.45029 0.14822 0.0
C365 C 0.49146 0.42833 0.0615 0.0
C366 C 0.47465 0.45445 0.02077 0.0
H367 H 0.49028 0.38951 0.16089 0.0
H368 H 0.51538 0.42128 0.03599 0.0
C369 C 0.44368 0.46297 0.05531 0.0
C370 C 0.10236 0.54149 0.19869 0.0
C371 C 0.13398 0.52829 0.20727 0.0
H372 H 0.05715 0.54182 0.12226 0.0
C373 C 0.14294 0.50246 0.14885 0.0
H374 H 0.09464 0.56121 0.24341 0.0
C375 C 0.12166 0.49165 0.07906 0.0
C376 C 0.09072 0.506 0.0674 0.0
H377 H 0.16706 0.49167 0.15399 0.0
H378 H 0.12991 0.47283 0.0321 0.0
C379 C 0.08078 0.53021 0.12987 0.0
C380 C 0.9002 0.93187 0.36292 0.0
C381 C 0.91936 0.92745 0.28366 0.0
H382 H 0.89785 0.95142 0.49903 0.0
C383 C 0.95085 0.94257 0.27915 0.0
H384 H 0.87573 0.9208 0.36836 0.0
C385 C 0.9636 0.96019 0.35427 0.0
C386 C 0.9451 0.9631 0.43548 0.0
H387 H 0.96617 0.93984 0.21881 0.0
H388 H 0.98841 0.97049 0.34977 0.0
C389 C 0.91291 0.9495 0.43791 0.0
C390 C 0.60945 0.03363 0.28579 0.0
C391 C 0.59231 0.05216 0.22059 0.0
H392 H 0.60701 0.00611 0.41063 0.0
C393 C 0.55778 0.05356 0.22651 0.0
H394 H 0.636 0.0316 0.2823 0.0
C395 C 0.54104 0.03885 0.30039 0.0
C396 C 0.55857 0.02247 0.36948 0.0
H397 H 0.54383 0.06732 0.17661 0.0
H398 H 0.51466 0.04189 0.30581 0.0
C399 C 0.59276 0.01889 0.3593 0.0
C400 C 0.58891 0.57777 0.30568 0.0
C401 C 0.56453 0.58779 0.24375 0.0
H402 H 0.60014 0.55 0.42579 0.0
C403 C 0.5326 0.57386 0.25071 0.0
H404 H 0.6139 0.58762 0.30124 0.0
C405 C 0.52464 0.55215 0.3224 0.0
C406 C 0.54852 0.54394 0.38821 0.0
H407 H 0.51336 0.58081 0.20331 0.0
H408 H 0.4994 0.54316 0.32875 0.0
C409 C 0.58102 0.55602 0.37694 0.0
C410 C 0.9317 0.49851 0.32757 0.0
C411 C 0.92126 0.46613 0.30585 0.0
H412 H 0.96063 0.52956 0.41762 0.0
C413 C 0.93495 0.43974 0.35385 0.0
H414 H 0.92171 0.51934 0.29123 0.0
C415 C 0.95725 0.44552 0.42502 0.0
C416 C 0.96636 0.47788 0.45068 0.0
H417 H 0.92789 0.41447 0.33787 0.0
H418 H 0.96654 0.42446 0.46188 0.0
C419 C 0.95405 0.50436 0.39967 0.0
loop_
_geom_bond_atom_site_label_1
_geom_bond_atom_site_label_2
_geom_bond_distance
_geom_bond_site_symmetry_2
_ccdc_geom_bond_type
O0 Cd1 2.300 . S
O0 C7 1.275 . S
Cd1 O0 2.300 . S
Cd1 O9 2.381 . S
Cd1 O10 2.378 1_556 S
O2 Cd3 2.384 1_556 S
O2 C7 1.256 . S
Cd3 O2 2.384 1_554 S
Cd3 O4 2.317 . S
O4 Cd3 2.317 . S
O4 C5 1.232 . S
C5 O4 1.232 . S
C5 O6 1.218 . S
O6 C5 1.218 . S
C7 O0 1.275 . S
C7 O2 1.256 . S
C8 O9 1.258 . S
C8 O10 1.256 1_556 S
O9 Cd1 2.381 . S
O9 C8 1.258 . S
O10 Cd1 2.378 1_554 S
O10 C8 1.256 1_554 S
O11 Cd12 2.300 1_656 S
O11 C18 1.275 1_656 S
Cd12 O11 2.300 1_454 S
Cd12 O20 2.381 1_455 S
Cd12 O21 2.378 . S
O13 Cd14 2.385 . S
O13 C18 1.255 . S
Cd14 O13 2.385 . S
Cd14 O15 2.317 . S
O15 Cd14 2.317 . S
O15 C16 1.232 . S
C16 O15 1.232 . S
C16 O17 1.218 . S
O17 C16 1.218 . S
C18 O11 1.275 1_454 S
C18 O13 1.255 . S
C19 O20 1.257 1_455 S
C19 O21 1.256 . S
O20 Cd12 2.381 1_655 S
O20 C19 1.257 1_655 S
O21 Cd12 2.378 . S
O21 C19 1.256 . S
O22 Cd23 2.300 1_566 S
O22 C29 1.275 1_565 S
Cd23 O22 2.300 1_544 S
Cd23 O31 2.381 1_544 S
Cd23 O32 2.378 . S
O24 Cd25 2.385 . S
O24 C29 1.255 1_554 S
Cd25 O24 2.385 . S
Cd25 O26 2.317 . S
O26 Cd25 2.317 . S
O26 C27 1.232 . S
C27 O26 1.232 . S
C27 O28 1.218 . S
O28 C27 1.218 . S
C29 O22 1.275 1_545 S
C29 O24 1.255 1_556 S
C30 O31 1.258 1_544 S
C30 O32 1.256 . S
O31 Cd23 2.381 1_566 S
O31 C30 1.258 1_566 S
O32 Cd23 2.378 . S
O32 C30 1.256 . S
O33 Cd34 2.300 1_556 S
O33 C40 1.275 . S
Cd34 O33 2.300 1_554 S
Cd34 O42 2.381 1_554 S
Cd34 O43 2.378 . S
O35 Cd36 2.385 . S
O35 C40 1.255 1_554 S
Cd36 O35 2.385 . S
Cd36 O37 2.317 . S
O37 Cd36 2.317 . S
O37 C38 1.232 . S
C38 O37 1.232 . S
C38 O39 1.218 . S
O39 C38 1.218 . S
C40 O33 1.275 . S
C40 O35 1.255 1_556 S
C41 O42 1.258 . S
C41 O43 1.256 1_556 S
O42 Cd34 2.381 1_556 S
O42 C41 1.258 . S
O43 Cd34 2.378 . S
O43 C41 1.256 1_554 S
O44 Cd45 2.300 . S
O44 C51 1.275 . S
Cd45 O44 2.300 . S
Cd45 O53 2.381 . S
Cd45 O54 2.378 . S
O46 Cd47 2.385 . S
O46 C51 1.255 . S
Cd47 O46 2.385 . S
Cd47 O48 2.317 . S
O48 Cd47 2.317 . S
O48 C49 1.232 . S
C49 O48 1.232 . S
C49 O50 1.218 . S
O50 C49 1.218 . S
C51 O44 1.275 . S
C51 O46 1.255 . S
C52 O53 1.258 . S
C52 O54 1.256 . S
O53 Cd45 2.381 . S
O53 C52 1.258 . S
O54 Cd45 2.378 . S
O54 C52 1.256 . S
O55 Cd56 2.300 . S
O55 C62 1.275 . S
Cd56 O55 2.300 . S
Cd56 O64 2.381 . S
Cd56 O65 2.378 . S
O57 Cd58 2.385 . S
O57 C62 1.255 . S
Cd58 O57 2.385 . S
Cd58 O59 2.317 . S
O59 Cd58 2.317 . S
O59 C60 1.232 . S
C60 O59 1.232 . S
C60 O61 1.218 . S
O61 C60 1.218 . S
C62 O55 1.275 . S
C62 O57 1.255 . S
C63 O64 1.258 . S
C63 O65 1.256 . S
O64 Cd56 2.381 . S
O64 C63 1.258 . S
O65 Cd56 2.378 . S
O65 C63 1.256 . S
O66 Cd67 2.300 . S
O66 C73 1.275 . S
Cd67 O66 2.300 . S
Cd67 O75 2.381 1_545 S
Cd67 O76 2.378 . S
O68 Cd69 2.385 . S
O68 C73 1.255 . S
Cd69 O68 2.385 . S
Cd69 O70 2.317 . S
O70 Cd69 2.317 . S
O70 C71 1.232 . S
C71 O70 1.232 . S
C71 O72 1.218 . S
O72 C71 1.218 . S
C73 O66 1.275 . S
C73 O68 1.255 . S
C74 O75 1.258 1_545 S
C74 O76 1.256 . S
O75 Cd67 2.381 1_565 S
O75 C74 1.258 1_565 S
O76 Cd67 2.378 . S
O76 C74 1.256 . S
O77 Cd78 2.300 . S
O77 C84 1.275 . S
Cd78 O77 2.300 . S
Cd78 O86 2.381 . S
Cd78 O87 2.378 . S
O79 Cd80 2.385 . S
O79 C84 1.255 . S
Cd80 O79 2.385 . S
Cd80 O81 2.317 . S
O81 Cd80 2.317 . S
O81 C82 1.232 . S
C82 O81 1.232 . S
C82 O83 1.218 . S
O83 C82 1.218 . S
C84 O77 1.275 . S
C84 O79 1.255 . S
C85 O86 1.258 . S
C85 O87 1.256 . S
O86 Cd78 2.381 . S
O86 C85 1.258 . S
O87 Cd78 2.378 . S
O87 C85 1.256 . S
O88 Zn89 1.953 1_545 S
O88 C104 1.225 1_545 S
Zn89 O88 1.953 1_565 S
Zn89 O90 1.949 . S
Zn89 O96 1.917 1_565 S
Zn89 O101 1.926 . S
O90 Zn89 1.949 . S
O90 Zn91 1.899 1_465 S
O90 Zn92 1.952 . S
O90 Zn93 1.967 1_455 S
Zn91 O90 1.899 1_645 S
Zn91 O94 1.933 . S
Zn91 O97 1.941 1_655 S
Zn91 O98 1.962 1_655 S
Zn92 O90 1.952 . S
Zn92 O99 1.938 1_565 S
Zn92 O100 1.906 . S
Zn92 O110 1.953 . S
Zn93 O90 1.967 1_655 S
Zn93 O95 1.932 . S
Zn93 O102 1.977 . S
Zn93 O103 1.910 1_655 S
O94 Zn91 1.933 . S
O94 C105 1.226 . S
O95 Zn93 1.932 . S
O95 C105 1.307 1_565 S
O96 Zn89 1.917 1_545 S
O96 C107 1.253 . S
O97 Zn91 1.941 1_455 S
O97 C107 1.283 . S
O98 Zn91 1.962 1_455 S
O98 C106 1.329 . S
O99 Zn92 1.938 1_545 S
O99 C106 1.247 . S
O100 Zn92 1.906 . S
O100 C108 1.304 1_455 S
O101 Zn89 1.926 . S
O101 C109 1.311 . S
O102 Zn93 1.977 . S
O102 C108 1.272 . S
O103 Zn93 1.910 1_455 S
O103 C109 1.231 . S
C104 O88 1.225 1_565 S
C104 O110 1.298 . S
C105 O94 1.226 . S
C105 O95 1.307 1_545 S
C106 O98 1.329 . S
C106 O99 1.247 . S
C107 O96 1.253 . S
C107 O97 1.283 . S
C108 O100 1.304 1_655 S
C108 O102 1.272 . S
C109 O101 1.311 . S
C109 O103 1.231 . S
O110 Zn92 1.953 . S
O110 C104 1.298 . S
O111 Zn112 1.953 . S
O111 C127 1.225 . S
Zn112 O111 1.953 . S
Zn112 O113 1.949 . S
Zn112 O119 1.919 . S
Zn112 O124 1.924 . S
O113 Zn112 1.949 . S
O113 Zn114 1.923 1_545 S
O113 Zn115 1.950 . S
O113 Zn116 1.945 1_545 S
Zn114 O113 1.923 1_565 S
Zn114 O117 1.933 . S
Zn114 O120 1.941 . S
Zn114 O121 1.965 . S
Zn115 O113 1.950 . S
Zn115 O122 1.938 . S
Zn115 O123 1.906 . S
Zn115 O133 1.953 . S
Zn116 O113 1.945 1_565 S
Zn116 O118 1.932 . S
Zn116 O125 1.977 . S
Zn116 O126 1.910 1_565 S
O117 Zn114 1.933 . S
O117 C128 1.226 . S
O118 Zn116 1.932 . S
O118 C128 1.307 . S
O119 Zn112 1.919 . S
O119 C130 1.253 . S
O120 Zn114 1.941 . S
O120 C130 1.283 1_565 S
O121 Zn114 1.965 . S
O121 C129 1.303 1_565 S
O122 Zn115 1.938 . S
O122 C129 1.247 . S
O123 Zn115 1.906 . S
O123 C131 1.304 1_545 S
O124 Zn112 1.924 . S
O124 C132 1.311 . S
O125 Zn116 1.977 . S
O125 C131 1.272 . S
O126 Zn116 1.910 1_545 S
O126 C132 1.231 . S
C127 O111 1.225 . S
C127 O133 1.298 . S
C128 O117 1.226 . S
C128 O118 1.307 . S
C129 O121 1.303 1_545 S
C129 O122 1.247 . S
C130 O119 1.253 . S
C130 O120 1.283 1_545 S
C131 O123 1.304 1_565 S
C131 O125 1.272 . S
C132 O124 1.311 . S
C132 O126 1.231 . S
O133 Zn115 1.953 . S
O133 C127 1.298 . S
O134 Zn135 1.953 . S
O134 C150 1.225 . S
Zn135 O134 1.953 . S
Zn135 O136 1.949 . S
Zn135 O142 1.919 . S
Zn135 O147 1.924 . S
O136 Zn135 1.949 . S
O136 Zn137 1.923 . S
O136 Zn138 1.950 . S
O136 Zn139 1.945 . S
Zn137 O136 1.923 . S
Zn137 O140 1.933 . S
Zn137 O143 1.941 . S
Zn137 O144 1.965 . S
Zn138 O136 1.950 . S
Zn138 O145 1.938 . S
Zn138 O146 1.906 . S
Zn138 O156 1.953 . S
Zn139 O136 1.945 . S
Zn139 O141 1.932 . S
Zn139 O148 1.977 . S
Zn139 O149 1.910 . S
O140 Zn137 1.933 . S
O140 C151 1.226 . S
O141 Zn139 1.932 . S
O141 C151 1.307 . S
O142 Zn135 1.919 . S
O142 C153 1.253 . S
O143 Zn137 1.941 . S
O143 C153 1.283 . S
O144 Zn137 1.965 . S
O144 C152 1.303 . S
O145 Zn138 1.938 . S
O145 C152 1.247 . S
O146 Zn138 1.906 . S
O146 C154 1.304 . S
O147 Zn135 1.924 . S
O147 C155 1.311 . S
O148 Zn139 1.977 . S
O148 C154 1.272 . S
O149 Zn139 1.910 . S
O149 C155 1.231 . S
C150 O134 1.225 . S
C150 O156 1.298 . S
C151 O140 1.226 . S
C151 O141 1.307 . S
C152 O144 1.303 . S
C152 O145 1.247 . S
C153 O142 1.253 . S
C153 O143 1.283 . S
C154 O146 1.304 . S
C154 O148 1.272 . S
C155 O147 1.311 . S
C155 O149 1.231 . S
O156 Zn138 1.953 . S
O156 C150 1.298 . S
O157 Zn158 1.953 1_655 S
O157 C173 1.225 . S
Zn158 O157 1.953 1_455 S
Zn158 O159 1.949 . S
Zn158 O165 1.919 . S
Zn158 O170 1.924 . S
O159 Zn158 1.949 . S
O159 Zn160 1.917 1_455 S
O159 Zn161 1.929 1_455 S
O159 Zn162 1.973 . S
Zn160 O159 1.917 1_655 S
Zn160 O163 1.933 1_655 S
Zn160 O166 1.941 . S
Zn160 O167 1.965 . S
Zn161 O159 1.929 1_655 S
Zn161 O168 1.938 . S
Zn161 O169 1.906 . S
Zn161 O179 1.953 . S
Zn162 O159 1.973 . S
Zn162 O164 1.932 . S
Zn162 O171 1.977 . S
Zn162 O172 1.910 . S
O163 Zn160 1.933 1_455 S
O163 C174 1.226 . S
O164 Zn162 1.932 . S
O164 C174 1.307 . S
O165 Zn158 1.919 . S
O165 C176 1.252 1_455 S
O166 Zn160 1.941 . S
O166 C176 1.287 . S
O167 Zn160 1.965 . S
O167 C175 1.303 . S
O168 Zn161 1.938 . S
O168 C175 1.247 . S
O169 Zn161 1.906 . S
O169 C177 1.304 1_655 S
O170 Zn158 1.924 . S
O170 C178 1.311 . S
O171 Zn162 1.977 . S
O171 C177 1.272 . S
O172 Zn162 1.910 . S
O172 C178 1.231 . S
C173 O157 1.225 . S
C173 O179 1.298 . S
C174 O163 1.226 . S
C174 O164 1.307 . S
C175 O167 1.303 . S
C175 O168 1.247 . S
C176 O165 1.252 1_655 S
C176 O166 1.287 . S
C177 O169 1.304 1_455 S
C177 O171 1.272 . S
C178 O170 1.311 . S
C178 O172 1.231 . S
O179 Zn161 1.953 . S
O179 C173 1.298 . S
C180 C181 1.387 . S
C180 H184 0.950 . S
C180 C189 1.390 . S
C181 C180 1.387 . S
C181 C183 1.387 1_545 S
H182 C189 0.950 . S
C183 C181 1.387 1_565 S
C183 C185 1.390 . S
C183 H187 0.950 . S
H184 C180 0.950 . S
C185 C183 1.390 . S
C185 C186 1.387 . S
C185 H188 0.950 . S
C186 C185 1.387 . S
C186 C189 1.387 1_565 S
H187 C183 0.950 . S
H188 C185 0.950 . S
C189 C180 1.390 . S
C189 H182 0.950 . S
C189 C186 1.387 1_545 S
C190 C191 1.387 . S
C190 H194 0.950 . S
C190 C199 1.390 . S
C191 C190 1.387 . S
C191 C193 1.387 . S
H192 C199 0.950 . S
C193 C191 1.387 . S
C193 C195 1.390 . S
C193 H197 0.950 . S
H194 C190 0.950 . S
C195 C193 1.390 . S
C195 C196 1.387 . S
C195 H198 0.950 . S
C196 C195 1.387 . S
C196 C199 1.387 . S
H197 C193 0.950 . S
H198 C195 0.950 . S
C199 C190 1.390 . S
C199 H192 0.950 . S
C199 C196 1.387 . S
C200 C201 1.387 . S
C200 H204 0.950 . S
C200 C209 1.390 . S
C201 C200 1.387 . S
C201 C203 1.387 . S
H202 C209 0.950 . S
C203 C201 1.387 . S
C203 C205 1.390 . S
C203 H207 0.950 . S
H204 C200 0.950 . S
C205 C203 1.390 . S
C205 C206 1.387 . S
C205 H208 0.950 . S
C206 C205 1.387 . S
C206 C209 1.387 . S
H207 C203 0.950 . S
H208 C205 0.950 . S
C209 C200 1.390 . S
C209 H202 0.950 . S
C209 C206 1.387 . S
C210 C211 1.387 . S
C210 H214 0.950 1_455 S
C210 C219 1.390 1_455 S
C211 C210 1.387 . S
C211 C213 1.387 . S
H212 C219 0.950 . S
C213 C211 1.387 . S
C213 C215 1.390 . S
C213 H217 0.950 . S
H214 C210 0.950 1_655 S
C215 C213 1.390 . S
C215 C216 1.387 . S
C215 H218 0.950 . S
C216 C215 1.387 . S
C216 C219 1.387 1_455 S
H217 C213 0.950 . S
H218 C215 0.950 . S
C219 C210 1.390 1_655 S
C219 H212 0.950 . S
C219 C216 1.387 1_655 S
C220 C221 1.375 1_545 S
C220 H224 0.950 . S
C220 C229 1.390 . S
C221 C220 1.375 1_565 S
C221 C223 1.400 . S
H222 C229 0.950 . S
C223 C221 1.400 . S
C223 C225 1.390 . S
C223 H227 0.950 . S
H224 C220 0.950 . S
C225 C223 1.390 . S
C225 C226 1.387 1_565 S
C225 H228 0.950 . S
C226 C225 1.387 1_545 S
C226 C229 1.387 . S
H227 C223 0.950 . S
H228 C225 0.950 . S
C229 C220 1.390 . S
C229 H222 0.950 . S
C229 C226 1.387 . S
C230 C231 1.387 . S
C230 H234 0.950 1_556 S
C230 C239 1.390 . S
C231 C230 1.387 . S
C231 C233 1.387 . S
H232 C239 0.950 . S
C233 C231 1.387 . S
C233 C235 1.390 . S
C233 H237 0.950 . S
H234 C230 0.950 1_554 S
C235 C233 1.390 . S
C235 C236 1.387 . S
C235 H238 0.950 . S
C236 C235 1.387 . S
C236 C239 1.387 . S
H237 C233 0.950 . S
H238 C235 0.950 . S
C239 C230 1.390 . S
C239 H232 0.950 . S
C239 C236 1.387 . S
C240 C241 1.387 . S
C240 H244 0.950 . S
C240 C249 1.390 . S
C241 C240 1.387 . S
C241 C243 1.387 . S
H242 C249 0.950 . S
C243 C241 1.387 . S
C243 C245 1.390 . S
C243 H247 0.950 . S
H244 C240 0.950 . S
C245 C243 1.390 . S
C245 C246 1.387 . S
C245 H248 0.950 . S
C246 C245 1.387 . S
C246 C249 1.387 . S
H247 C243 0.950 . S
H248 C245 0.950 . S
C249 C240 1.390 . S
C249 H242 0.950 . S
C249 C246 1.387 . S
C250 C251 1.387 1_455 S
C250 H254 0.950 . S
C250 C259 1.390 . S
C251 C250 1.387 1_655 S
C251 C253 1.387 . S
H252 C259 0.950 . S
C253 C251 1.387 . S
C253 C255 1.390 . S
C253 H257 0.950 . S
H254 C250 0.950 . S
C255 C253 1.390 . S
C255 C256 1.387 1_655 S
C255 H258 0.950 . S
C256 C255 1.387 1_455 S
C256 C259 1.387 . S
H257 C253 0.950 . S
H258 C255 0.950 . S
C259 C250 1.390 . S
C259 H252 0.950 . S
C259 C256 1.387 . S
C260 C261 1.387 . S
C260 H264 0.950 . S
C260 C269 1.390 . S
C261 C260 1.387 . S
C261 C263 1.387 . S
H262 C269 0.950 . S
C263 C261 1.387 . S
C263 C265 1.390 . S
C263 H267 0.950 . S
H264 C260 0.950 . S
C265 C263 1.390 . S
C265 C266 1.387 . S
C265 H268 0.950 . S
C266 C265 1.387 . S
C266 C269 1.387 . S
H267 C263 0.950 . S
H268 C265 0.950 . S
C269 C260 1.390 . S
C269 H262 0.950 . S
C269 C266 1.387 . S
C270 C271 1.387 . S
C270 H274 0.950 . S
C270 C279 1.390 . S
C271 C270 1.387 . S
C271 C273 1.387 1_545 S
H272 C279 0.950 . S
C273 C271 1.387 1_565 S
C273 C275 1.390 . S
C273 H277 0.950 . S
H274 C270 0.950 . S
C275 C273 1.390 . S
C275 C276 1.387 1_565 S
C275 H278 0.950 . S
C276 C275 1.387 1_545 S
C276 C279 1.387 . S
H277 C273 0.950 . S
H278 C275 0.950 . S
C279 C270 1.390 . S
C279 H272 0.950 . S
C279 C276 1.387 . S
C280 C281 1.387 . S
C280 H284 0.950 . S
C280 C289 1.390 . S
C281 C280 1.387 . S
C281 C283 1.387 . S
H282 C289 0.950 . S
C283 C281 1.387 . S
C283 C285 1.390 . S
C283 H287 0.950 . S
H284 C280 0.950 . S
C285 C283 1.390 . S
C285 C286 1.387 . S
C285 H288 0.950 . S
C286 C285 1.387 . S
C286 C289 1.387 . S
H287 C283 0.950 . S
H288 C285 0.950 . S
C289 C280 1.390 . S
C289 H282 0.950 . S
C289 C286 1.387 . S
C290 C291 1.387 . S
C290 H294 0.950 . S
C290 C299 1.390 . S
C291 C290 1.387 . S
C291 C293 1.387 . S
H292 C299 0.950 . S
C293 C291 1.387 . S
C293 C295 1.390 . S
C293 H297 0.950 . S
H294 C290 0.950 . S
C295 C293 1.390 . S
C295 C296 1.387 . S
C295 H298 0.950 . S
C296 C295 1.387 . S
C296 C299 1.387 . S
H297 C293 0.950 . S
H298 C295 0.950 . S
C299 C290 1.390 . S
C299 H292 0.950 . S
C299 C296 1.387 . S
C300 C301 1.387 . S
C300 H304 0.950 . S
C300 C309 1.390 . S
C301 C300 1.387 . S
C301 C303 1.387 1_554 S
H302 C309 0.950 . S
C303 C301 1.387 1_556 S
C303 C305 1.390 . S
C303 H307 0.950 1_455 S
H304 C300 0.950 . S
C305 C303 1.390 . S
C305 C306 1.387 . S
C305 H308 0.950 . S
C306 C305 1.387 . S
C306 C309 1.387 1_556 S
H307 C303 0.950 1_655 S
H308 C305 0.950 . S
C309 C300 1.390 . S
C309 H302 0.950 . S
C309 C306 1.387 1_554 S
C310 C311 1.387 1_554 S
C310 H314 0.950 . S
C310 C319 1.390 1_554 S
C311 C310 1.387 1_556 S
C311 C313 1.387 1_545 S
H312 C319 0.950 1_554 S
C313 C311 1.387 1_565 S
C313 C315 1.390 1_565 S
C313 H317 0.950 . S
H314 C310 0.950 . S
C315 C313 1.390 1_545 S
C315 C316 1.387 . S
C315 H318 0.950 . S
C316 C315 1.387 . S
C316 C319 1.387 . S
H317 C313 0.950 . S
H318 C315 0.950 . S
C319 C310 1.390 1_556 S
C319 H312 0.950 1_556 S
C319 C316 1.387 . S
C320 C321 1.387 . S
C320 H324 0.950 . S
C320 C329 1.390 . S
C321 C320 1.387 . S
C321 C323 1.387 . S
H322 C329 0.950 . S
C323 C321 1.387 . S
C323 C325 1.390 . S
C323 H327 0.950 1_556 S
H324 C320 0.950 . S
C325 C323 1.390 . S
C325 C326 1.387 . S
C325 H328 0.950 1_556 S
C326 C325 1.387 . S
C326 C329 1.387 . S
H327 C323 0.950 1_554 S
H328 C325 0.950 1_554 S
C329 C320 1.390 . S
C329 H322 0.950 . S
C329 C326 1.387 . S
C330 C331 1.387 . S
C330 H334 0.950 . S
C330 C339 1.390 . S
C331 C330 1.387 . S
C331 C333 1.387 . S
H332 C339 0.950 . S
C333 C331 1.387 . S
C333 C335 1.390 . S
C333 H337 0.950 1_556 S
H334 C330 0.950 . S
C335 C333 1.390 . S
C335 C336 1.387 . S
C335 H338 0.950 . S
C336 C335 1.387 . S
C336 C339 1.387 . S
H337 C333 0.950 1_554 S
H338 C335 0.950 . S
C339 C330 1.390 . S
C339 H332 0.950 . S
C339 C336 1.387 . S
C340 C341 1.387 . S
C340 H344 0.950 . S
C340 C349 1.390 . S
C341 C340 1.387 . S
C341 C343 1.387 . S
H342 C349 0.950 1_556 S
C343 C341 1.387 . S
C343 C345 1.390 . S
C343 H347 0.950 . S
H344 C340 0.950 . S
C345 C343 1.390 . S
C345 C346 1.387 . S
C345 H348 0.950 . S
C346 C345 1.387 . S
C346 C349 1.387 . S
H347 C343 0.950 . S
H348 C345 0.950 . S
C349 C340 1.390 . S
C349 H342 0.950 1_554 S
C349 C346 1.387 . S
C350 C351 1.387 . S
C350 H354 0.950 . S
C350 C359 1.390 . S
C351 C350 1.387 . S
C351 C353 1.387 1_545 S
H352 C359 0.950 1_556 S
C353 C351 1.387 1_565 S
C353 C355 1.390 . S
C353 H357 0.950 . S
H354 C350 0.950 . S
C355 C353 1.390 . S
C355 C356 1.387 1_564 S
C355 H358 0.950 . S
C356 C355 1.387 1_546 S
C356 C359 1.387 1_556 S
H357 C353 0.950 . S
H358 C355 0.950 . S
C359 C350 1.390 . S
C359 H352 0.950 1_554 S
C359 C356 1.387 1_554 S
C360 C361 1.387 . S
C360 H364 0.950 . S
C360 C369 1.390 1_554 S
C361 C360 1.387 . S
C361 C363 1.387 . S
H362 C369 0.950 . S
C363 C361 1.387 . S
C363 C365 1.390 . S
C363 H367 0.950 . S
H364 C360 0.950 . S
C365 C363 1.390 . S
C365 C366 1.387 1_554 S
C365 H368 0.950 . S
C366 C365 1.387 1_556 S
C366 C369 1.387 . S
H367 C363 0.950 . S
H368 C365 0.950 . S
C369 C360 1.390 1_556 S
C369 H362 0.950 . S
C369 C366 1.387 . S
C370 C371 1.387 . S
C370 H374 0.950 . S
C370 C379 1.390 . S
C371 C370 1.387 . S
C371 C373 1.387 . S
H372 C379 0.950 . S
C373 C371 1.387 . S
C373 C375 1.390 1_554 S
C373 H377 0.950 . S
H374 C370 0.950 . S
C375 C373 1.390 1_556 S
C375 C376 1.387 . S
C375 H378 0.950 . S
C376 C375 1.387 . S
C376 C379 1.387 1_556 S
H377 C373 0.950 . S
H378 C375 0.950 . S
C379 C370 1.390 . S
C379 H372 0.950 . S
C379 C376 1.387 1_554 S
C380 C381 1.387 1_455 S
C380 H384 0.950 . S
C380 C389 1.390 1_455 S
C381 C380 1.387 1_655 S
C381 C383 1.387 . S
H382 C389 0.950 . S
C383 C381 1.387 . S
C383 C385 1.390 . S
C383 H387 0.950 . S
H384 C380 0.950 . S
C385 C383 1.390 . S
C385 C386 1.387 . S
C385 H388 0.950 . S
C386 C385 1.387 . S
C386 C389 1.387 . S
H387 C383 0.950 . S
H388 C385 0.950 . S
C389 C380 1.390 1_655 S
C389 H382 0.950 . S
C389 C386 1.387 . S
C390 C391 1.387 . S
C390 H394 0.950 . S
C390 C399 1.390 . S
C391 C390 1.387 . S
C391 C393 1.387 1_565 S
H392 C399 0.950 . S
C393 C391 1.387 1_545 S
C393 C395 1.390 1_545 S
C393 H397 0.950 . S
H394 C390 0.950 . S
C395 C393 1.390 1_565 S
C395 C396 1.387 . S
C395 H398 0.950 . S
C396 C395 1.387 . S
C396 C399 1.387 . S
H397 C393 0.950 . S
H398 C395 0.950 . S
C399 C390 1.390 . S
C399 H392 0.950 . S
C399 C396 1.387 . S
C400 C401 1.387 . S
C400 H404 0.950 . S
C400 C409 1.390 . S
C401 C400 1.387 . S
C401 C403 1.387 . S
H402 C409 0.950 . S
C403 C401 1.387 . S
C403 C405 1.390 . S
C403 H407 0.950 . S
H404 C400 0.950 . S
C405 C403 1.390 . S
C405 C406 1.387 . S
C405 H408 0.950 . S
C406 C405 1.387 . S
C406 C409 1.387 . S
H407 C403 0.950 . S
H408 C405 0.950 . S
C409 C400 1.390 . S
C409 H402 0.950 . S
C409 C406 1.387 . S
C410 C411 1.387 . S
C410 H414 0.950 . S
C410 C419 1.390 . S
C411 C410 1.387 . S
C411 C413 1.387 . S
H412 C419 0.950 . S
C413 C411 1.387 . S
C413 C415 1.390 . S
C413 H417 0.950 . S
H414 C410 0.950 . S
C415 C413 1.390 . S
C415 C416 1.387 . S
C415 H418 0.950 . S
C416 C415 1.387 . S
C416 C419 1.387 . S
H417 C413 0.950 . S
H418 C415 0.950 . S
C419 C410 1.390 . S
C419 H412 0.950 . S
C419 C416 1.387 . S
C181 C74 1.571 . S
C186 C104 1.565 . S
C196 C127 1.616 . S
C191 C85 1.631 . S
C206 C150 1.603 . S
C201 C52 1.600 . S
C216 C177 1.514 . S
C211 C63 1.612 . S
C226 C105 1.533 . S
C221 C30 1.512 1_566 S
C231 C41 1.469 . S
C236 C128 1.500 . S
C241 C8 1.459 . S
C246 C151 1.479 . S
C251 C19 1.535 1_656 S
C256 C176 1.543 1_455 S
C266 C106 0.787 . S
C261 C62 0.784 . S
C276 C129 0.714 . S
C271 C73 0.715 . S
C286 C152 0.758 . S
C281 C84 0.758 . S
C291 C51 0.946 . S
C296 C178 0.876 . S
C301 C18 1.004 . S
C306 C109 0.977 . S
C316 C132 0.964 . S
C311 C29 1.010 . S
C326 C155 0.944 . S
C321 C40 0.978 . S
C331 C7 0.737 . S
C336 C175 0.741 . S
C341 C60 1.460 . S
C346 C107 1.543 1_554 S
C351 C71 1.318 . S
C356 C130 1.517 . S
C366 C153 1.538 . S
C361 C82 1.390 . S
C376 C174 1.432 . S
C371 C49 1.137 . S
C381 C16 1.474 1_655 S
C386 C108 1.539 . S
C396 C131 1.491 . S
C391 C27 1.450 1_565 S
C406 C154 1.483 . S
C401 C38 1.380 . S
C411 C5 1.422 . S
C416 C173 1.679 . S
