# Generated by pormake.
# Topology anh, (6,3)-cn, num edge types: 1
# Building blocks:
#     Node 0, Type 0, BuildingBlock: MIFKUJ_clean_sbu_0, # of connection points: 6
#     Node 1, Type 0, BuildingBlock: MIFKUJ_clean_sbu_0, # of connection points: 6
#     Node 2, Type 0, BuildingBlock: MIFKUJ_clean_sbu_0, # of connection points: 6
#     Node 3, Type 1, BuildingBlock: WUSLED_clean_sbu_0, # of connection points: 3
#     Node 4, Type 1, BuildingBlock: WUSLED_clean_sbu_0, # of connection points: 3
#     Node 5, Type 1, BuildingBlock: WUSLED_clean_sbu_0, # of connection points: 3
#     Node 6, Type 1, BuildingBlock: WUSLED_clean_sbu_0, # of connection points: 3
#     Node 7, Type 1, BuildingBlock: WUSLED_clean_sbu_0, # of connection points: 3
#     Node 8, Type 1, BuildingBlock: WUSLED_clean_sbu_0, # of connection points: 3
#     Edge 9, Type (0, 1), BuildingBlock: OJICUG_clean_linker_0, # of connection points: 2
#     Edge 10, Type (0, 1), BuildingBlock: OJICUG_clean_linker_0, # of connection points: 2
#     Edge 11, Type (0, 1), BuildingBlock: OJICUG_clean_linker_0, # of connection points: 2
#     Edge 12, Type (0, 1), BuildingBlock: OJICUG_clean_linker_0, # of connection points: 2
#     Edge 13, Type (0, 1), BuildingBlock: OJICUG_clean_linker_0, # of connection points: 2
#     Edge 14, Type (0, 1), BuildingBlock: OJICUG_clean_linker_0, # of connection points: 2
#     Edge 15, Type (0, 1), BuildingBlock: OJICUG_clean_linker_0, # of connection points: 2
#     Edge 16, Type (0, 1), BuildingBlock: OJICUG_clean_linker_0, # of connection points: 2
#     Edge 17, Type (0, 1), BuildingBlock: OJICUG_clean_linker_0, # of connection points: 2
#     Edge 18, Type (0, 1), BuildingBlock: OJICUG_clean_linker_0, # of connection points: 2
#     Edge 19, Type (0, 1), BuildingBlock: OJICUG_clean_linker_0, # of connection points: 2
#     Edge 20, Type (0, 1), BuildingBlock: OJICUG_clean_linker_0, # of connection points: 2
#     Edge 21, Type (0, 1), BuildingBlock: OJICUG_clean_linker_0, # of connection points: 2
#     Edge 22, Type (0, 1), BuildingBlock: OJICUG_clean_linker_0, # of connection points: 2
#     Edge 23, Type (0, 1), BuildingBlock: OJICUG_clean_linker_0, # of connection points: 2
#     Edge 24, Type (0, 1), BuildingBlock: OJICUG_clean_linker_0, # of connection points: 2
#     Edge 25, Type (0, 1), BuildingBlock: OJICUG_clean_linker_0, # of connection points: 2
#     Edge 26, Type (0, 1), BuildingBlock: OJICUG_clean_linker_0, # of connection points: 2
# Relax obj value: 0.128
# Max RMSD: 0.181
# Mean RMSD: 0.143
data_MOF--net-anh--node1-MIFKUJ_clean_sbu_0--node2-WUSLED_clean_sbu_0--edge1-OJICUG_clean_linker_0
_symmetry_space_group_name_H-M    P1
_symmetry_Int_Tables_number       1
_symmetry_cell_setting            triclinic
loop_
_symmetry_equiv_pos_as_xyz
'x, y, z'
_cell_length_a     32.150814
_cell_length_b     32.140222
_cell_length_c     53.347071
_cell_angle_alpha  93.366401
_cell_angle_beta   90.880329
_cell_angle_gamma 119.95057
loop_
_atom_site_label
_atom_site_type_symbol
_atom_site_fract_x
_atom_site_fract_y
_atom_site_fract_z
_atom_type_partial_charge
Zn0 Zn 0.07825 0.55719 0.17042 0.0
Zn1 Zn 0.9263 0.48207 0.16737 0.0
C2 C 0.16049 0.54603 0.18172 0.0
O3 O 0.17037 0.58039 0.19938 0.0
C4 C 0.8455 0.48616 0.1525 0.0
O5 O 0.84595 0.45476 0.13575 0.0
O6 O 0.12125 0.62919 0.17366 0.0
O7 O 0.03995 0.53883 0.13713 0.0
O8 O 0.96005 0.4989 0.13514 0.0
C9 C 0.15097 0.65288 0.15744 0.0
O10 O 0.15268 0.63011 0.13656 0.0
O11 O 0.12242 0.52976 0.16768 0.0
C12 C 0.86441 0.3893 0.18552 0.0
O13 O 0.88155 0.41387 0.20737 0.0
O14 O 0.88116 0.41007 0.16553 0.0
O15 O 0.96617 0.50174 0.19959 0.0
O16 O 0.04581 0.53947 0.20342 0.0
O17 O 0.88036 0.50779 0.16881 0.0
C18 C 0.99988 0.51886 0.12457 0.0
C19 C 0.005 0.52018 0.21306 0.0
Zn20 Zn 0.58842 0.08832 0.5019 0.0
Zn21 Zn 0.50515 0.93264 0.49623 0.0
C22 C 0.68213 0.16513 0.51417 0.0
O23 O 0.6599 0.16659 0.53439 0.0
C24 C 0.41593 0.85058 0.50979 0.0
O25 O 0.44504 0.83873 0.52069 0.0
O26 O 0.56101 0.1325 0.50276 0.0
O27 O 0.55611 0.03631 0.4742 0.0
O28 O 0.513 0.95943 0.46198 0.0
C29 C 0.57279 0.16518 0.48754 0.0
O30 O 0.59972 0.16704 0.46888 0.0
O31 O 0.65911 0.13145 0.49703 0.0
C32 C 0.5544 0.88262 0.5138 0.0
O33 O 0.56368 0.91044 0.53459 0.0
O34 O 0.5324 0.88768 0.49526 0.0
O35 O 0.53393 0.98272 0.52629 0.0
O36 O 0.57813 0.06136 0.5358 0.0
O37 O 0.43356 0.89018 0.4994 0.0
C38 C 0.53552 0.00312 0.4567 0.0
C39 C 0.55449 0.01862 0.5426 0.0
Zn40 Zn 0.56883 0.48956 0.83503 0.0
Zn41 Zn 0.49172 0.56527 0.83331 0.0
C42 C 0.55539 0.39719 0.84762 0.0
O43 O 0.58772 0.42339 0.86577 0.0
C44 C 0.52512 0.65858 0.81522 0.0
O45 O 0.5134 0.63333 0.7934 0.0
O46 O 0.64076 0.51752 0.83961 0.0
O47 O 0.55488 0.5059 0.80117 0.0
O48 O 0.51443 0.54555 0.80212 0.0
C49 C 0.66146 0.50685 0.82235 0.0
O50 O 0.63577 0.48067 0.80212 0.0
O51 O 0.54079 0.41761 0.83295 0.0
C52 C 0.4085 0.56737 0.84414 0.0
O53 O 0.44134 0.60122 0.85992 0.0
O54 O 0.42036 0.54245 0.82971 0.0
O55 O 0.50343 0.5468 0.86702 0.0
O56 O 0.54542 0.5087 0.8659 0.0
O57 O 0.52255 0.63776 0.83514 0.0
C58 C 0.53497 0.52597 0.79023 0.0
C59 C 0.52356 0.52678 0.87781 0.0
C60 C 0.59091 0.12994 0.18878 0.0
C61 C 0.61212 0.16398 0.20945 0.0
C62 C 0.68204 0.21264 0.18561 0.0
C63 C 0.65699 0.20501 0.20783 0.0
C64 C 0.6602 0.17884 0.16474 0.0
C65 C 0.61499 0.13776 0.16635 0.0
U66 U 0.50725 0.04256 0.23233 0.0
O67 O 0.47145 0.96363 0.23195 0.0
O68 O 0.42851 0.99976 0.23318 0.0
C69 C 0.42836 0.9587 0.2323 0.0
C70 C 0.54589 0.08466 0.19155 0.0
C71 C 0.38998 0.91766 0.21684 0.0
C72 C 0.33169 0.8821 0.18119 0.0
C73 C 0.37155 0.92227 0.19373 0.0
C74 C 0.32949 0.83307 0.21455 0.0
C75 C 0.30979 0.8375 0.1919 0.0
C76 C 0.36919 0.87268 0.22682 0.0
C77 C 0.54481 0.07248 0.30226 0.0
C78 C 0.51637 0.01314 0.33339 0.0
C79 C 0.56249 0.09816 0.34674 0.0
C80 C 0.56585 0.10925 0.32163 0.0
C81 C 0.53844 0.04989 0.35301 0.0
C82 C 0.51928 0.02435 0.3083 0.0
C83 C 0.55185 0.08476 0.27592 0.0
O84 O 0.55198 0.05049 0.20016 0.0
O85 O 0.51193 0.08924 0.20262 0.0
O86 O 0.51969 0.09291 0.26531 0.0
O87 O 0.56327 0.05805 0.2613 0.0
H88 H 0.59429 0.15841 0.22703 0.0
H89 H 0.67209 0.23069 0.22409 0.0
H90 H 0.67857 0.18338 0.1474 0.0
H91 H 0.59936 0.11159 0.1503 0.0
H92 H 0.31706 0.88617 0.16368 0.0
H93 H 0.38721 0.95683 0.18573 0.0
H94 H 0.31364 0.79888 0.22297 0.0
H95 H 0.38297 0.86843 0.24458 0.0
H96 H 0.49797 0.97556 0.33727 0.0
H97 H 0.57891 0.12757 0.3612 0.0
H98 H 0.58548 0.14663 0.31731 0.0
H99 H 0.50259 0.99539 0.29357 0.0
C100 C 0.56669 0.62185 0.51908 0.0
C101 C 0.55482 0.64252 0.53962 0.0
C102 C 0.56854 0.71012 0.51572 0.0
C103 C 0.55558 0.68605 0.53795 0.0
C104 C 0.58016 0.6891 0.49507 0.0
C105 C 0.57933 0.64532 0.49678 0.0
U106 U 0.56282 0.53285 0.56213 0.0
O107 O 0.6044 0.49568 0.56529 0.0
O108 O 0.52548 0.45383 0.56001 0.0
C109 C 0.56575 0.45278 0.56224 0.0
C110 C 0.56743 0.57688 0.52159 0.0
C111 C 0.56943 0.41576 0.54647 0.0
C112 C 0.54511 0.35803 0.50993 0.0
C113 C 0.54606 0.39817 0.5225 0.0
C114 C 0.592 0.35413 0.54478 0.0
C115 C 0.56692 0.33497 0.52141 0.0
C116 C 0.59336 0.39421 0.55713 0.0
C117 C 0.55323 0.5634 0.63176 0.0
C118 C 0.55151 0.51563 0.66584 0.0
C119 C 0.54873 0.58897 0.67478 0.0
C120 C 0.55085 0.59624 0.64921 0.0
C121 C 0.54938 0.5488 0.68353 0.0
C122 C 0.5534 0.52288 0.64012 0.0
C123 C 0.55596 0.57271 0.60506 0.0
O124 O 0.60574 0.58236 0.53396 0.0
O125 O 0.52716 0.5409 0.52874 0.0
O126 O 0.51848 0.5422 0.5904 0.0
O127 O 0.59716 0.58422 0.59517 0.0
H128 H 0.54508 0.62497 0.55705 0.0
H129 H 0.54552 0.70061 0.55404 0.0
H130 H 0.59064 0.70686 0.47775 0.0
H131 H 0.58892 0.63003 0.4808 0.0
H132 H 0.52564 0.34377 0.49187 0.0
H133 H 0.52734 0.41434 0.51394 0.0
H134 H 0.60955 0.33723 0.55383 0.0
H135 H 0.61158 0.40725 0.57557 0.0
H136 H 0.55248 0.48452 0.67186 0.0
H137 H 0.546 0.61473 0.68765 0.0
H138 H 0.55054 0.62762 0.64303 0.0
H139 H 0.55529 0.49716 0.6268 0.0
C140 C 0.94118 0.53979 0.84852 0.0
C141 C 0.90952 0.53196 0.86784 0.0
C142 C 0.85428 0.53942 0.83921 0.0
C143 C 0.86649 0.53163 0.86324 0.0
C144 C 0.88679 0.54844 0.82004 0.0
C145 C 0.92987 0.54854 0.82466 0.0
U146 U 0.02337 0.53276 0.89607 0.0
O147 O 0.05801 0.48848 0.89698 0.0
O148 O 0.10182 0.56753 0.90149 0.0
C149 C 0.10144 0.52635 0.89951 0.0
C150 C 0.98527 0.53777 0.85342 0.0
C151 C 0.1382 0.52455 0.88418 0.0
C152 C 0.19269 0.55157 0.84999 0.0
C153 C 0.15276 0.54836 0.86196 0.0
C154 C 0.20147 0.50446 0.88133 0.0
C155 C 0.2177 0.53027 0.8599 0.0
C156 C 0.16215 0.5018 0.89342 0.0
C157 C 0.98549 0.53151 0.96416 0.0
C158 C 0.0267 0.52341 1.00051 0.0
C159 C 0.95676 0.53241 0.00578 0.0
C160 C 0.95285 0.53498 0.97993 0.0
C161 C 0.99342 0.52617 0.01639 0.0
C162 C 0.02269 0.52598 0.97451 0.0
C163 C 0.97956 0.53356 0.93703 0.0
O164 O 0.02002 0.57583 0.86628 0.0
O165 O 0.97796 0.49696 0.8616 0.0
O166 O 0.96845 0.49403 0.92304 0.0
O167 O 0.01216 0.57291 0.92749 0.0
H168 H 0.91773 0.5252 0.88642 0.0
H169 H 0.84216 0.5238 0.87836 0.0
H170 H 0.87888 0.55524 0.80141 0.0
H171 H 0.95406 0.55496 0.80958 0.0
H172 H 0.20511 0.57208 0.83361 0.0
H173 H 0.13462 0.56607 0.8545 0.0
H174 H 0.22096 0.48873 0.88955 0.0
H175 H 0.15167 0.48365 0.91064 0.0
H176 H 0.05518 0.51838 0.0081 0.0
H177 H 0.93115 0.53562 0.0175 0.0
H178 H 0.92414 0.53957 0.97221 0.0
H179 H 0.04828 0.52333 0.9625 0.0
C180 C 0.94453 0.42256 0.48657 0.0
C181 C 0.90618 0.39893 0.46849 0.0
C182 C 0.86274 0.33428 0.49593 0.0
C183 C 0.86563 0.35532 0.47314 0.0
C184 C 0.90159 0.3579 0.51388 0.0
C185 C 0.94214 0.40168 0.50921 0.0
U186 U 0.01866 0.50978 0.43966 0.0
O187 O 0.09645 0.55208 0.43526 0.0
O188 O 0.05463 0.58887 0.44028 0.0
C189 C 0.09727 0.59343 0.43767 0.0
C190 C 0.98719 0.46846 0.48158 0.0
C191 C 0.13732 0.63247 0.45325 0.0
C192 C 0.19254 0.66282 0.4901 0.0
C193 C 0.15093 0.62584 0.47714 0.0
C194 C 0.20598 0.71341 0.4557 0.0
C195 C 0.22102 0.70681 0.4793 0.0
C196 C 0.16457 0.67668 0.44289 0.0
C197 C 0.97632 0.47652 0.37084 0.0
C198 C 0.02353 0.52677 0.3382 0.0
C199 C 0.94657 0.45506 0.32729 0.0
C200 C 0.94085 0.44558 0.3526 0.0
C201 C 0.98793 0.49578 0.31978 0.0
C202 C 0.01771 0.51724 0.36357 0.0
C203 C 0.96994 0.4656 0.39729 0.0
O204 O 0.01966 0.46432 0.46872 0.0
O205 O 0.97811 0.50123 0.47363 0.0
O206 O 0.96045 0.49395 0.41183 0.0
O207 O 1.00217 0.45714 0.40749 0.0
H208 H 0.90749 0.41441 0.4508 0.0
H209 H 0.83615 0.33858 0.45907 0.0
H210 H 0.90078 0.34242 0.53148 0.0
H211 H 0.97162 0.41921 0.52327 0.0
H212 H 0.20282 0.6567 0.50834 0.0
H213 H 0.13014 0.59184 0.48544 0.0
H214 H 0.22732 0.74624 0.44651 0.0
H215 H 0.15468 0.68228 0.42439 0.0
H216 H 0.05557 0.55862 0.33306 0.0
H217 H 0.91885 0.43005 0.31356 0.0
H218 H 0.90881 0.4139 0.35792 0.0
H219 H 0.04546 0.54154 0.37751 0.0
C220 C 0.52537 0.92604 0.81434 0.0
C221 C 0.51093 0.89253 0.79339 0.0
C222 C 0.53068 0.84121 0.81665 0.0
C223 C 0.51319 0.85049 0.79458 0.0
C224 C 0.54459 0.87466 0.83777 0.0
C225 C 0.54198 0.91679 0.8366 0.0
U226 U 0.52903 0.01392 0.77101 0.0
O227 O 0.56925 0.09303 0.77184 0.0
O228 O 0.49017 0.05375 0.76813 0.0
C229 C 0.52994 0.09584 0.7698 0.0
C230 C 0.52607 0.97181 0.812 0.0
C231 C 0.52916 0.13523 0.78478 0.0
C232 C 0.52598 0.17569 0.82412 0.0
C233 C 0.52665 0.13674 0.81106 0.0
C234 C 0.53009 0.21102 0.78467 0.0
C235 C 0.5273 0.21303 0.81093 0.0
C236 C 0.53098 0.17259 0.7718 0.0
C237 C 0.53409 0.97823 0.70144 0.0
C238 C 0.53278 0.02287 0.66651 0.0
C239 C 0.54276 0.95337 0.65891 0.0
C240 C 0.54036 0.94693 0.68462 0.0
C241 C 0.53894 0.99136 0.64948 0.0
C242 C 0.53035 0.01634 0.6923 0.0
C243 C 0.53179 0.97034 0.72836 0.0
O244 O 0.56628 0.0063 0.80392 0.0
O245 O 0.48747 0.96773 0.8006 0.0
O246 O 0.49158 0.96141 0.73868 0.0
O247 O 0.57035 1.00041 0.74243 0.0
H248 H 0.49833 0.89911 0.77592 0.0
H249 H 0.50108 0.8252 0.77812 0.0
H250 H 0.55854 0.86889 0.85502 0.0
H251 H 0.55373 0.94249 0.85288 0.0
H252 H 0.52398 0.17644 0.84438 0.0
H253 H 0.52526 0.10805 0.82137 0.0
H254 H 0.53237 0.2397 0.77401 0.0
H255 H 0.53326 0.17215 0.75154 0.0
H256 H 0.5293 0.05225 0.65987 0.0
H257 H 0.54836 0.92897 0.64645 0.0
H258 H 0.54359 0.91749 0.69141 0.0
H259 H 0.52551 0.04089 0.70508 0.0
C260 C 0.59105 0.51066 0.1503 0.0
C261 C 0.60999 0.50164 0.1285 0.0
C262 C 0.67678 0.50698 0.15322 0.0
C263 C 0.65228 0.49981 0.12993 0.0
C264 C 0.65861 0.51749 0.17507 0.0
C265 C 0.61582 0.51918 0.17361 0.0
U266 U 0.50129 0.50952 0.10605 0.0
O267 O 0.42235 0.46933 0.1022 0.0
O268 O 0.46146 0.5486 0.10493 0.0
C269 C 0.41943 0.50874 0.10308 0.0
C270 C 0.5457 0.51122 0.14792 0.0
C271 C 0.38149 0.50857 0.11804 0.0
C272 C 0.34715 0.51337 0.15765 0.0
C273 C 0.38426 0.51264 0.14444 0.0
C274 C 0.30465 0.50535 0.11812 0.0
C275 C 0.30691 0.50969 0.14455 0.0
C276 C 0.34149 0.50476 0.10506 0.0
C277 C 0.53612 0.50892 0.03728 0.0
C278 C 0.49229 0.51314 1.00092 0.0
C279 C 0.56678 0.51254 0.99582 0.0
C280 C 0.5709 0.5097 0.02161 0.0
C281 C 0.52789 0.51509 0.98515 0.0
C282 C 0.49642 0.51013 0.02687 0.0
C283 C 0.54344 0.50868 0.06444 0.0
O284 O 0.54991 0.55036 0.13901 0.0
O285 O 0.50974 0.47144 0.13692 0.0
O286 O 0.51306 0.4693 0.07481 0.0
O287 O 0.55303 0.54837 0.0778 0.0
H288 H 0.59174 0.4956 0.11028 0.0
H289 H 0.66578 0.49261 0.1127 0.0
H290 H 0.67675 0.52312 0.19328 0.0
H291 H 0.6019 0.52662 0.1906 0.0
H292 H 0.34985 0.51674 0.17801 0.0
H293 H 0.41504 0.51555 0.15472 0.0
H294 H 0.27484 0.50362 0.10742 0.0
H295 H 0.33897 0.50186 0.08468 0.0
H296 H 0.46196 0.51516 0.99334 0.0
H297 H 0.59423 0.51272 0.98424 0.0
H298 H 0.60165 0.50861 0.02939 0.0
H299 H 0.46921 0.50953 0.03882 0.0
C300 C 0.24363 0.5578 0.18624 0.0
C301 C 0.19627 0.53121 0.17576 0.0
H302 H 0.31608 0.57185 0.18455 0.0
C303 C 0.18453 0.49294 0.15767 0.0
H304 H 0.25376 0.58732 0.20036 0.0
C305 C 0.22004 0.4838 0.14887 0.0
C306 C 0.26819 0.51293 0.15778 0.0
H307 H 0.14823 0.47121 0.14953 0.0
H308 H 0.21014 0.45513 0.13425 0.0
C309 C 0.27933 0.54879 0.1773 0.0
C310 C 0.75076 0.21036 0.48654 0.0
C311 C 0.73075 0.20564 0.51016 0.0
H312 H 0.80834 0.25434 0.46358 0.0
C313 C 0.75602 0.24209 0.52948 0.0
H314 H 0.73221 0.18295 0.47125 0.0
C315 C 0.79947 0.28312 0.52505 0.0
C316 C 0.81866 0.28876 0.50117 0.0
H317 H 0.74165 0.23959 0.54792 0.0
H318 H 0.81707 0.31123 0.54012 0.0
C319 C 0.79419 0.2515 0.48209 0.0
C320 C 0.54564 0.73466 0.79553 0.0
C321 C 0.53268 0.70796 0.81678 0.0
H322 H 0.55696 0.7983 0.77911 0.0
C323 C 0.5224 0.72694 0.83869 0.0
H324 H 0.55407 0.72108 0.77844 0.0
C325 C 0.52284 0.77072 0.83892 0.0
C326 C 0.53412 0.79671 0.81733 0.0
H327 H 0.51179 0.70691 0.8553 0.0
H328 H 0.51246 0.78315 0.8557 0.0
C329 C 0.5468 0.77871 0.79587 0.0
C330 C 0.80305 0.52995 0.1683 0.0
C331 C 0.80285 0.49225 0.1534 0.0
H332 H 0.7632 0.56453 0.17986 0.0
C333 C 0.76057 0.45881 0.13946 0.0
H334 H 0.83508 0.55612 0.17934 0.0
C335 C 0.71968 0.46324 0.14002 0.0
C336 C 0.71997 0.50149 0.15433 0.0
H337 H 0.75878 0.42877 0.12817 0.0
H338 H 0.68764 0.43652 0.12916 0.0
C339 C 0.7619 0.53457 0.16874 0.0
C340 C 0.33202 0.82841 0.49622 0.0
C341 C 0.36402 0.81499 0.50602 0.0
H342 H 0.26119 0.80503 0.48102 0.0
C343 C 0.34679 0.76627 0.50992 0.0
H344 H 0.34403 0.86573 0.49328 0.0
C345 C 0.29947 0.73131 0.50251 0.0
C346 C 0.26824 0.74437 0.49124 0.0
H347 H 0.37053 0.7547 0.51744 0.0
H348 H 0.28835 0.69383 0.50431 0.0
C349 C 0.2846 0.79355 0.48907 0.0
C350 C 0.50729 0.31864 0.82219 0.0
C351 C 0.54174 0.34621 0.8417 0.0
H352 H 0.4748 0.25423 0.79768 0.0
C353 C 0.56622 0.3261 0.85363 0.0
H354 H 0.48725 0.33267 0.81285 0.0
C355 C 0.55918 0.28098 0.8448 0.0
C356 C 0.52754 0.25531 0.82393 0.0
H357 H 0.59275 0.34628 0.86886 0.0
H358 H 0.58069 0.26768 0.85327 0.0
C359 C 0.50021 0.2737 0.81346 0.0
C360 C 0.54779 0.80792 0.49203 0.0
C361 C 0.56292 0.84126 0.51319 0.0
H362 H 0.53726 0.74029 0.47626 0.0
C363 C 0.58299 0.83271 0.53449 0.0
H364 H 0.53214 0.81336 0.47529 0.0
C365 C 0.5861 0.79091 0.53499 0.0
C366 C 0.56917 0.75656 0.51422 0.0
H367 H 0.59524 0.85771 0.55107 0.0
H368 H 0.60129 0.78523 0.55182 0.0
C369 C 0.55089 0.76606 0.49253 0.0
C370 C 0.73946 0.54423 0.84818 0.0
C371 C 0.71241 0.51952 0.82583 0.0
H372 H 0.80576 0.5709 0.86974 0.0
C373 C 0.73368 0.5045 0.80726 0.0
H374 H 0.72428 0.55655 0.86283 0.0
C375 C 0.78016 0.5123 0.8113 0.0
C376 C 0.80669 0.53547 0.834 0.0
H377 H 0.71393 0.48543 0.7898 0.0
H378 H 0.79453 0.49845 0.79697 0.0
C379 C 0.78608 0.55217 0.85221 0.0
C380 C 0.22596 0.72916 0.1482 0.0
C381 C 0.18771 0.70398 0.16389 0.0
H382 H 0.29497 0.7922 0.14475 0.0
C383 C 0.18722 0.72661 0.18714 0.0
H384 H 0.22722 0.71284 0.1301 0.0
C385 C 0.22576 0.77163 0.1954 0.0
C386 C 0.2655 0.79523 0.18055 0.0
H387 H 0.15813 0.70861 0.19958 0.0
H388 H 0.22554 0.78714 0.21396 0.0
C389 C 0.2646 0.77461 0.15648 0.0
C390 C 0.58089 0.24488 0.47868 0.0
C391 C 0.56395 0.20556 0.49373 0.0
H392 H 0.59461 0.31708 0.47558 0.0
C393 C 0.54297 0.20748 0.51637 0.0
H394 H 0.59711 0.24445 0.46109 0.0
C395 C 0.54203 0.24894 0.52463 0.0
C396 C 0.56146 0.28917 0.51034 0.0
H397 H 0.5293 0.17785 0.52838 0.0
H398 H 0.52758 0.25023 0.5427 0.0
C399 C 0.57943 0.28637 0.48688 0.0
C400 C 0.31912 0.51382 0.83612 0.0
C401 C 0.3589 0.55889 0.84409 0.0
H402 H 0.24209 0.4691 0.83507 0.0
C403 C 0.35106 0.59574 0.85403 0.0
H404 H 0.32419 0.48487 0.82832 0.0
C405 C 0.30454 0.58708 0.85725 0.0
C406 C 0.26497 0.54125 0.85092 0.0
H407 H 0.38099 0.63101 0.86011 0.0
H408 H 0.29958 0.61542 0.86611 0.0
C409 C 0.27234 0.50484 0.83987 0.0
C410 C 0.80747 0.31476 0.20563 0.0
C411 C 0.82079 0.34116 0.18427 0.0
H412 H 0.75414 0.25291 0.22255 0.0
C413 C 0.78962 0.32335 0.16264 0.0
H414 H 0.83089 0.32742 0.22252 0.0
C415 C 0.745 0.28109 0.1628 0.0
C416 C 0.73086 0.25555 0.18454 0.0
H417 H 0.7987 0.3432 0.14595 0.0
H418 H 0.72091 0.26951 0.14623 0.0
C419 C 0.76323 0.27229 0.20571 0.0
C420 C 0.04183 0.54473 0.0841 0.0
C421 C 0.99917 0.51904 0.09676 0.0
H422 H 0.07354 0.56742 0.04876 0.0
C423 C 0.95523 0.4939 0.08258 0.0
H424 H 0.07632 0.56439 0.09442 0.0
C425 C 0.95375 0.49536 0.05653 0.0
C426 C 0.9961 0.52218 0.04392 0.0
H427 H 0.92169 0.47324 0.0916 0.0
H428 H 0.91922 0.47555 0.04625 0.0
C429 C 0.0403 0.54626 0.05792 0.0
C430 C 0.49726 0.98561 0.41329 0.0
C431 C 0.53623 0.01512 0.43032 0.0
H432 H 0.46624 0.97437 0.37606 0.0
C433 C 0.57575 0.05617 0.42195 0.0
H434 H 0.46607 0.95399 0.41935 0.0
C435 C 0.57663 0.06714 0.39691 0.0
C436 C 0.5374 0.03802 0.37977 0.0
H437 H 0.60648 0.07928 0.43465 0.0
H438 H 0.6085 0.09816 0.39097 0.0
C439 C 0.49756 0.99721 0.3884 0.0
C440 C 0.56654 0.57671 0.75433 0.0
C441 C 0.53978 0.53083 0.76308 0.0
H442 H 0.59265 0.61817 0.72253 0.0
C443 C 0.51796 0.49029 0.74581 0.0
H444 H 0.58434 0.60834 0.76746 0.0
C445 C 0.52144 0.49582 0.71993 0.0
C446 C 0.54763 0.542 0.71098 0.0
H447 H 0.49718 0.45455 0.75231 0.0
H448 H 0.50261 0.46407 0.70699 0.0
C449 C 0.57097 0.58222 0.7286 0.0
C450 C 0.52363 0.96486 0.57838 0.0
C451 C 0.55035 0.01123 0.5699 0.0
H452 H 0.49853 0.92228 0.61005 0.0
C453 C 0.57254 0.051 0.58783 0.0
H454 H 0.50558 0.93346 0.56515 0.0
C455 C 0.56841 0.0446 0.61355 0.0
C456 C 0.5421 0.99825 0.62206 0.0
H457 H 0.59331 0.0873 0.58204 0.0
H458 H 0.58662 0.07599 0.62679 0.0
C459 C 0.51965 0.95846 0.60415 0.0
C460 C 0.48058 0.49901 0.91732 0.0
C461 C 0.52345 0.5261 0.90525 0.0
H462 H 0.44832 0.47316 0.95215 0.0
C463 C 0.56699 0.55146 0.91948 0.0
H464 H 0.44663 0.47906 0.90651 0.0
C465 C 0.56797 0.54921 0.94548 0.0
C466 C 0.52551 0.52046 0.95773 0.0
H467 H 0.60033 0.57302 0.91045 0.0
H468 H 0.60221 0.56976 0.95597 0.0
C469 C 0.48161 0.4959 0.94339 0.0
C470 C 0.04221 0.52671 0.25599 0.0
C471 C 1.00204 0.51732 0.24065 0.0
H472 H 0.06919 0.52673 0.29299 0.0
C473 C 0.95813 0.5035 0.25183 0.0
H474 H 0.07658 0.53747 0.24798 0.0
C475 C 0.954 0.49765 0.27754 0.0
C476 C 0.99363 0.50537 0.29276 0.0
H477 H 0.92666 0.49683 0.24069 0.0
H478 H 0.91958 0.48686 0.28548 0.0
C479 C 0.03803 0.52074 0.28179 0.0
loop_
_geom_bond_atom_site_label_1
_geom_bond_atom_site_label_2
_geom_bond_distance
_geom_bond_site_symmetry_2
_ccdc_geom_bond_type
Zn0 O6 1.969 . S
Zn0 O7 1.965 . S
Zn0 O11 2.024 . S
Zn0 O16 1.969 . S
Zn1 O8 1.969 . S
Zn1 O14 1.969 . S
Zn1 O15 1.965 . S
Zn1 O17 2.024 . S
C2 O3 1.229 . S
C2 O11 1.058 . S
O3 C2 1.229 . S
C4 O5 1.229 . S
C4 O17 1.058 . S
O5 C4 1.229 . S
O6 Zn0 1.969 . S
O6 C9 1.267 . S
O7 Zn0 1.965 . S
O7 C18 1.260 1_455 S
O8 Zn1 1.969 . S
O8 C18 1.258 . S
C9 O6 1.267 . S
C9 O10 1.228 . S
O10 C9 1.228 . S
O11 Zn0 2.024 . S
O11 C2 1.058 . S
C12 O13 1.228 . S
C12 O14 1.267 . S
O13 C12 1.228 . S
O14 Zn1 1.969 . S
O14 C12 1.267 . S
O15 Zn1 1.965 . S
O15 C19 1.260 1_655 S
O16 Zn0 1.969 . S
O16 C19 1.258 . S
O17 Zn1 2.024 . S
O17 C4 1.058 . S
C18 O7 1.260 1_655 S
C18 O8 1.258 . S
C19 O15 1.260 1_455 S
C19 O16 1.258 . S
Zn20 O26 1.969 . S
Zn20 O27 1.965 . S
Zn20 O31 2.024 . S
Zn20 O36 1.969 . S
Zn21 O28 1.969 . S
Zn21 O34 1.969 . S
Zn21 O35 1.965 . S
Zn21 O37 2.024 . S
C22 O23 1.229 . S
C22 O31 1.058 . S
O23 C22 1.229 . S
C24 O25 1.229 . S
C24 O37 1.058 . S
O25 C24 1.229 . S
O26 Zn20 1.969 . S
O26 C29 1.267 . S
O27 Zn20 1.965 . S
O27 C38 1.260 . S
O28 Zn21 1.969 . S
O28 C38 1.258 1_565 S
C29 O26 1.267 . S
C29 O30 1.228 . S
O30 C29 1.228 . S
O31 Zn20 2.024 . S
O31 C22 1.058 . S
C32 O33 1.228 . S
C32 O34 1.267 . S
O33 C32 1.228 . S
O34 Zn21 1.969 . S
O34 C32 1.267 . S
O35 Zn21 1.965 . S
O35 C39 1.260 1_565 S
O36 Zn20 1.969 . S
O36 C39 1.258 . S
O37 Zn21 2.024 . S
O37 C24 1.058 . S
C38 O27 1.260 . S
C38 O28 1.258 1_545 S
C39 O35 1.260 1_545 S
C39 O36 1.258 . S
Zn40 O46 1.969 . S
Zn40 O47 1.965 . S
Zn40 O51 2.024 . S
Zn40 O56 1.969 . S
Zn41 O48 1.969 . S
Zn41 O54 1.969 . S
Zn41 O55 1.965 . S
Zn41 O57 2.024 . S
C42 O43 1.229 . S
C42 O51 1.058 . S
O43 C42 1.229 . S
C44 O45 1.229 . S
C44 O57 1.058 . S
O45 C44 1.229 . S
O46 Zn40 1.969 . S
O46 C49 1.267 . S
O47 Zn40 1.965 . S
O47 C58 1.260 . S
O48 Zn41 1.969 . S
O48 C58 1.258 . S
C49 O46 1.267 . S
C49 O50 1.228 . S
O50 C49 1.228 . S
O51 Zn40 2.024 . S
O51 C42 1.058 . S
C52 O53 1.228 . S
C52 O54 1.267 . S
O53 C52 1.228 . S
O54 Zn41 1.969 . S
O54 C52 1.267 . S
O55 Zn41 1.965 . S
O55 C59 1.260 . S
O56 Zn40 1.969 . S
O56 C59 1.258 . S
O57 Zn41 2.024 . S
O57 C44 1.058 . S
C58 O47 1.260 . S
C58 O48 1.258 . S
C59 O55 1.260 . S
C59 O56 1.258 . S
C60 C61 1.264 . S
C60 C65 1.479 . S
C60 C70 1.465 . S
C61 C60 1.264 . S
C61 C63 1.339 . S
C61 H88 0.931 . S
C62 C63 1.395 . S
C62 C64 1.320 . S
C63 C61 1.339 . S
C63 C62 1.395 . S
C63 H89 0.929 . S
C64 C62 1.320 . S
C64 C65 1.405 . S
C64 H90 0.930 . S
C65 C60 1.479 . S
C65 C64 1.405 . S
C65 H91 0.931 . S
U66 O67 2.454 1_545 S
U66 O68 2.458 1_545 S
U66 C69 2.984 1_545 S
U66 C70 2.847 . S
U66 C83 2.882 . S
U66 O84 2.441 . S
U66 O85 2.420 . S
U66 O86 2.455 . S
U66 O87 2.449 . S
O67 U66 2.454 1_565 S
O67 C69 1.353 . S
O68 U66 2.458 1_565 S
O68 C69 1.286 . S
C69 U66 2.984 1_565 S
C69 O67 1.353 . S
C69 O68 1.286 . S
C69 C71 1.363 . S
C70 C60 1.465 . S
C70 U66 2.847 . S
C70 O84 1.249 . S
C70 O85 1.202 . S
C71 C69 1.363 . S
C71 C73 1.408 . S
C71 C76 1.342 . S
C72 C73 1.310 . S
C72 C75 1.461 . S
C72 H92 0.932 . S
C73 C71 1.408 . S
C73 C72 1.310 . S
C73 H93 0.930 . S
C74 C75 1.474 . S
C74 C76 1.285 . S
C74 H94 0.929 . S
C75 C72 1.461 . S
C75 C74 1.474 . S
C76 C71 1.342 . S
C76 C74 1.285 . S
C76 H95 0.930 . S
C77 C80 1.424 . S
C77 C82 1.245 . S
C77 C83 1.428 . S
C78 C81 1.260 . S
C78 C82 1.477 . S
C78 H96 0.932 1_545 S
C79 C80 1.384 . S
C79 C81 1.479 . S
C79 H97 0.929 . S
C80 C77 1.424 . S
C80 C79 1.384 . S
C80 H98 0.928 . S
C81 C78 1.260 . S
C81 C79 1.479 . S
C82 C77 1.245 . S
C82 C78 1.477 . S
C82 H99 0.932 1_545 S
C83 U66 2.882 . S
C83 C77 1.428 . S
C83 O86 1.301 . S
C83 O87 1.282 . S
O84 U66 2.441 . S
O84 C70 1.249 . S
O85 U66 2.420 . S
O85 C70 1.202 . S
O86 U66 2.455 . S
O86 C83 1.301 . S
O87 U66 2.449 . S
O87 C83 1.282 . S
H88 C61 0.931 . S
H89 C63 0.929 . S
H90 C64 0.930 . S
H91 C65 0.931 . S
H92 C72 0.932 . S
H93 C73 0.930 . S
H94 C74 0.929 . S
H95 C76 0.930 . S
H96 C78 0.932 1_565 S
H97 C79 0.929 . S
H98 C80 0.928 . S
H99 C82 0.932 1_565 S
C100 C101 1.264 . S
C100 C105 1.479 . S
C100 C110 1.465 . S
C101 C100 1.264 . S
C101 C103 1.339 . S
C101 H128 0.931 . S
C102 C103 1.395 . S
C102 C104 1.320 . S
C103 C101 1.339 . S
C103 C102 1.395 . S
C103 H129 0.929 . S
C104 C102 1.320 . S
C104 C105 1.405 . S
C104 H130 0.930 . S
C105 C100 1.479 . S
C105 C104 1.405 . S
C105 H131 0.931 . S
U106 O107 2.454 . S
U106 O108 2.458 . S
U106 C109 2.984 . S
U106 C110 2.847 . S
U106 C123 2.882 . S
U106 O124 2.441 . S
U106 O125 2.420 . S
U106 O126 2.455 . S
U106 O127 2.449 . S
O107 U106 2.454 . S
O107 C109 1.353 . S
O108 U106 2.458 . S
O108 C109 1.286 . S
C109 U106 2.984 . S
C109 O107 1.353 . S
C109 O108 1.286 . S
C109 C111 1.363 . S
C110 C100 1.465 . S
C110 U106 2.847 . S
C110 O124 1.249 . S
C110 O125 1.202 . S
C111 C109 1.363 . S
C111 C113 1.408 . S
C111 C116 1.342 . S
C112 C113 1.310 . S
C112 C115 1.461 . S
C112 H132 0.932 . S
C113 C111 1.408 . S
C113 C112 1.310 . S
C113 H133 0.930 . S
C114 C115 1.474 . S
C114 C116 1.285 . S
C114 H134 0.929 . S
C115 C112 1.461 . S
C115 C114 1.474 . S
C116 C111 1.342 . S
C116 C114 1.285 . S
C116 H135 0.930 . S
C117 C120 1.424 . S
C117 C122 1.245 . S
C117 C123 1.428 . S
C118 C121 1.260 . S
C118 C122 1.477 . S
C118 H136 0.932 . S
C119 C120 1.384 . S
C119 C121 1.479 . S
C119 H137 0.929 . S
C120 C117 1.424 . S
C120 C119 1.384 . S
C120 H138 0.928 . S
C121 C118 1.260 . S
C121 C119 1.479 . S
C122 C117 1.245 . S
C122 C118 1.477 . S
C122 H139 0.932 . S
C123 U106 2.882 . S
C123 C117 1.428 . S
C123 O126 1.301 . S
C123 O127 1.282 . S
O124 U106 2.441 . S
O124 C110 1.249 . S
O125 U106 2.420 . S
O125 C110 1.202 . S
O126 U106 2.455 . S
O126 C123 1.301 . S
O127 U106 2.449 . S
O127 C123 1.282 . S
H128 C101 0.931 . S
H129 C103 0.929 . S
H130 C104 0.930 . S
H131 C105 0.931 . S
H132 C112 0.932 . S
H133 C113 0.930 . S
H134 C114 0.929 . S
H135 C116 0.930 . S
H136 C118 0.932 . S
H137 C119 0.929 . S
H138 C120 0.928 . S
H139 C122 0.932 . S
C140 C141 1.264 . S
C140 C145 1.479 . S
C140 C150 1.465 . S
C141 C140 1.264 . S
C141 C143 1.339 . S
C141 H168 0.931 . S
C142 C143 1.395 . S
C142 C144 1.320 . S
C143 C141 1.339 . S
C143 C142 1.395 . S
C143 H169 0.929 . S
C144 C142 1.320 . S
C144 C145 1.405 . S
C144 H170 0.930 . S
C145 C140 1.479 . S
C145 C144 1.405 . S
C145 H171 0.931 . S
U146 O147 2.454 . S
U146 O148 2.458 . S
U146 C149 2.984 . S
U146 C150 2.847 1_455 S
U146 C163 2.882 . S
U146 O164 2.441 1_455 S
U146 O165 2.420 1_455 S
U146 O166 2.455 . S
U146 O167 2.449 1_455 S
O147 U146 2.454 . S
O147 C149 1.353 . S
O148 U146 2.458 . S
O148 C149 1.286 . S
C149 U146 2.984 . S
C149 O147 1.353 . S
C149 O148 1.286 . S
C149 C151 1.363 . S
C150 C140 1.465 . S
C150 U146 2.847 1_655 S
C150 O164 1.249 . S
C150 O165 1.202 . S
C151 C149 1.363 . S
C151 C153 1.408 . S
C151 C156 1.342 . S
C152 C153 1.310 . S
C152 C155 1.461 . S
C152 H172 0.932 . S
C153 C151 1.408 . S
C153 C152 1.310 . S
C153 H173 0.930 . S
C154 C155 1.474 . S
C154 C156 1.285 . S
C154 H174 0.929 . S
C155 C152 1.461 . S
C155 C154 1.474 . S
C156 C151 1.342 . S
C156 C154 1.285 . S
C156 H175 0.930 . S
C157 C160 1.424 1_455 S
C157 C162 1.245 . S
C157 C163 1.428 . S
C158 C161 1.260 . S
C158 C162 1.477 1_554 S
C158 H176 0.932 . S
C159 C160 1.384 1_554 S
C159 C161 1.479 1_655 S
C159 H177 0.929 . S
C160 C157 1.424 1_655 S
C160 C159 1.384 1_556 S
C160 H178 0.928 . S
C161 C158 1.260 . S
C161 C159 1.479 1_455 S
C162 C157 1.245 . S
C162 C158 1.477 1_556 S
C162 H179 0.932 . S
C163 U146 2.882 . S
C163 C157 1.428 . S
C163 O166 1.301 . S
C163 O167 1.282 1_455 S
O164 U146 2.441 1_655 S
O164 C150 1.249 . S
O165 U146 2.420 1_655 S
O165 C150 1.202 . S
O166 U146 2.455 . S
O166 C163 1.301 . S
O167 U146 2.449 1_655 S
O167 C163 1.282 1_655 S
H168 C141 0.931 . S
H169 C143 0.929 . S
H170 C144 0.930 . S
H171 C145 0.931 . S
H172 C152 0.932 . S
H173 C153 0.930 . S
H174 C154 0.929 . S
H175 C156 0.930 . S
H176 C158 0.932 . S
H177 C159 0.929 . S
H178 C160 0.928 . S
H179 C162 0.932 . S
C180 C181 1.264 . S
C180 C185 1.479 . S
C180 C190 1.465 . S
C181 C180 1.264 . S
C181 C183 1.339 . S
C181 H208 0.931 . S
C182 C183 1.395 . S
C182 C184 1.320 . S
C183 C181 1.339 . S
C183 C182 1.395 . S
C183 H209 0.929 . S
C184 C182 1.320 . S
C184 C185 1.405 . S
C184 H210 0.930 . S
C185 C180 1.479 . S
C185 C184 1.405 . S
C185 H211 0.931 . S
U186 O187 2.454 . S
U186 O188 2.458 . S
U186 C189 2.984 . S
U186 C190 2.847 1_455 S
U186 C203 2.882 . S
U186 O204 2.441 1_455 S
U186 O205 2.420 1_455 S
U186 O206 2.455 . S
U186 O207 2.449 1_455 S
O187 U186 2.454 . S
O187 C189 1.353 . S
O188 U186 2.458 . S
O188 C189 1.286 . S
C189 U186 2.984 . S
C189 O187 1.353 . S
C189 O188 1.286 . S
C189 C191 1.363 . S
C190 C180 1.465 . S
C190 U186 2.847 1_655 S
C190 O204 1.249 . S
C190 O205 1.202 . S
C191 C189 1.363 . S
C191 C193 1.408 . S
C191 C196 1.342 . S
C192 C193 1.310 . S
C192 C195 1.461 . S
C192 H212 0.932 . S
C193 C191 1.408 . S
C193 C192 1.310 . S
C193 H213 0.930 . S
C194 C195 1.474 . S
C194 C196 1.285 . S
C194 H214 0.929 . S
C195 C192 1.461 . S
C195 C194 1.474 . S
C196 C191 1.342 . S
C196 C194 1.285 . S
C196 H215 0.930 . S
C197 C200 1.416 1_455 S
C197 C202 1.258 . S
C197 C203 1.427 . S
C198 C201 1.260 1_455 S
C198 C202 1.477 . S
C198 H216 0.932 . S
C199 C200 1.384 . S
C199 C201 1.479 . S
C199 H217 0.929 . S
C200 C197 1.416 1_655 S
C200 C199 1.384 . S
C200 H218 0.928 . S
C201 C198 1.260 1_655 S
C201 C199 1.479 . S
C202 C197 1.258 . S
C202 C198 1.477 . S
C202 H219 0.932 . S
C203 U186 2.882 . S
C203 C197 1.427 . S
C203 O206 1.301 . S
C203 O207 1.282 1_455 S
O204 U186 2.441 1_655 S
O204 C190 1.249 . S
O205 U186 2.420 1_655 S
O205 C190 1.202 . S
O206 U186 2.455 . S
O206 C203 1.301 . S
O207 U186 2.449 1_655 S
O207 C203 1.282 1_655 S
H208 C181 0.931 . S
H209 C183 0.929 . S
H210 C184 0.930 . S
H211 C185 0.931 . S
H212 C192 0.932 . S
H213 C193 0.930 . S
H214 C194 0.929 . S
H215 C196 0.930 . S
H216 C198 0.932 . S
H217 C199 0.929 . S
H218 C200 0.928 . S
H219 C202 0.932 . S
C220 C221 1.264 . S
C220 C225 1.479 . S
C220 C230 1.465 . S
C221 C220 1.264 . S
C221 C223 1.339 . S
C221 H248 0.931 . S
C222 C223 1.395 . S
C222 C224 1.320 . S
C223 C221 1.339 . S
C223 C222 1.395 . S
C223 H249 0.929 . S
C224 C222 1.320 . S
C224 C225 1.405 . S
C224 H250 0.930 . S
C225 C220 1.479 . S
C225 C224 1.405 . S
C225 H251 0.931 . S
U226 O227 2.454 . S
U226 O228 2.458 . S
U226 C229 2.984 . S
U226 C230 2.847 1_545 S
U226 C243 2.882 . S
U226 O244 2.441 1_545 S
U226 O245 2.420 1_545 S
U226 O246 2.455 . S
U226 O247 2.449 1_545 S
O227 U226 2.454 . S
O227 C229 1.353 . S
O228 U226 2.458 . S
O228 C229 1.286 . S
C229 U226 2.984 . S
C229 O227 1.353 . S
C229 O228 1.286 . S
C229 C231 1.363 . S
C230 C220 1.465 . S
C230 U226 2.847 1_565 S
C230 O244 1.249 . S
C230 O245 1.202 . S
C231 C229 1.363 . S
C231 C233 1.408 . S
C231 C236 1.342 . S
C232 C233 1.310 . S
C232 C235 1.461 . S
C232 H252 0.932 . S
C233 C231 1.408 . S
C233 C232 1.310 . S
C233 H253 0.930 . S
C234 C235 1.474 . S
C234 C236 1.285 . S
C234 H254 0.929 . S
C235 C232 1.461 . S
C235 C234 1.474 . S
C236 C231 1.342 . S
C236 C234 1.285 . S
C236 H255 0.930 . S
C237 C240 1.424 1_545 S
C237 C242 1.245 . S
C237 C243 1.428 . S
C238 C241 1.260 . S
C238 C242 1.477 . S
C238 H256 0.932 . S
C239 C240 1.384 . S
C239 C241 1.479 1_565 S
C239 H257 0.929 . S
C240 C237 1.424 1_565 S
C240 C239 1.384 . S
C240 H258 0.928 . S
C241 C238 1.260 . S
C241 C239 1.479 1_545 S
C242 C237 1.245 . S
C242 C238 1.477 . S
C242 H259 0.932 . S
C243 U226 2.882 . S
C243 C237 1.428 . S
C243 O246 1.301 . S
C243 O247 1.282 1_545 S
O244 U226 2.441 1_565 S
O244 C230 1.249 . S
O245 U226 2.420 1_565 S
O245 C230 1.202 . S
O246 U226 2.455 . S
O246 C243 1.301 . S
O247 U226 2.449 1_565 S
O247 C243 1.282 1_565 S
H248 C221 0.931 . S
H249 C223 0.929 . S
H250 C224 0.930 . S
H251 C225 0.931 . S
H252 C232 0.932 . S
H253 C233 0.930 . S
H254 C234 0.929 . S
H255 C236 0.930 . S
H256 C238 0.932 . S
H257 C239 0.929 . S
H258 C240 0.928 . S
H259 C242 0.932 . S
C260 C261 1.264 . S
C260 C265 1.479 . S
C260 C270 1.465 . S
C261 C260 1.264 . S
C261 C263 1.339 . S
C261 H288 0.931 . S
C262 C263 1.395 . S
C262 C264 1.320 . S
C263 C261 1.339 . S
C263 C262 1.395 . S
C263 H289 0.929 . S
C264 C262 1.320 . S
C264 C265 1.405 . S
C264 H290 0.930 . S
C265 C260 1.479 . S
C265 C264 1.405 . S
C265 H291 0.931 . S
U266 O267 2.454 . S
U266 O268 2.458 . S
U266 C269 2.984 . S
U266 C270 2.847 . S
U266 C283 2.882 . S
U266 O284 2.441 . S
U266 O285 2.420 . S
U266 O286 2.455 . S
U266 O287 2.449 . S
O267 U266 2.454 . S
O267 C269 1.353 . S
O268 U266 2.458 . S
O268 C269 1.286 . S
C269 U266 2.984 . S
C269 O267 1.353 . S
C269 O268 1.286 . S
C269 C271 1.363 . S
C270 C260 1.465 . S
C270 U266 2.847 . S
C270 O284 1.249 . S
C270 O285 1.202 . S
C271 C269 1.363 . S
C271 C273 1.408 . S
C271 C276 1.342 . S
C272 C273 1.310 . S
C272 C275 1.461 . S
C272 H292 0.932 . S
C273 C271 1.408 . S
C273 C272 1.310 . S
C273 H293 0.930 . S
C274 C275 1.474 . S
C274 C276 1.285 . S
C274 H294 0.929 . S
C275 C272 1.461 . S
C275 C274 1.474 . S
C276 C271 1.342 . S
C276 C274 1.285 . S
C276 H295 0.930 . S
C277 C280 1.424 . S
C277 C282 1.245 . S
C277 C283 1.428 . S
C278 C281 1.260 . S
C278 C282 1.477 1_556 S
C278 H296 0.932 . S
C279 C280 1.384 1_556 S
C279 C281 1.479 . S
C279 H297 0.929 . S
C280 C277 1.424 . S
C280 C279 1.384 1_554 S
C280 H298 0.928 . S
C281 C278 1.260 . S
C281 C279 1.479 . S
C282 C277 1.245 . S
C282 C278 1.477 1_554 S
C282 H299 0.932 . S
C283 U266 2.882 . S
C283 C277 1.428 . S
C283 O286 1.301 . S
C283 O287 1.282 . S
O284 U266 2.441 . S
O284 C270 1.249 . S
O285 U266 2.420 . S
O285 C270 1.202 . S
O286 U266 2.455 . S
O286 C283 1.301 . S
O287 U266 2.449 . S
O287 C283 1.282 . S
H288 C261 0.931 . S
H289 C263 0.929 . S
H290 C264 0.930 . S
H291 C265 0.931 . S
H292 C272 0.932 . S
H293 C273 0.930 . S
H294 C274 0.929 . S
H295 C276 0.930 . S
H296 C278 0.932 . S
H297 C279 0.929 . S
H298 C280 0.928 . S
H299 C282 0.932 . S
C300 C301 1.387 . S
C300 H304 0.950 . S
C300 C309 1.390 . S
C301 C300 1.387 . S
C301 C303 1.387 . S
H302 C309 0.950 . S
C303 C301 1.387 . S
C303 C305 1.390 . S
C303 H307 0.950 . S
H304 C300 0.950 . S
C305 C303 1.390 . S
C305 C306 1.387 . S
C305 H308 0.950 . S
C306 C305 1.387 . S
C306 C309 1.387 . S
H307 C303 0.950 . S
H308 C305 0.950 . S
C309 C300 1.390 . S
C309 H302 0.950 . S
C309 C306 1.387 . S
C310 C311 1.387 . S
C310 H314 0.950 . S
C310 C319 1.390 . S
C311 C310 1.387 . S
C311 C313 1.387 . S
H312 C319 0.950 . S
C313 C311 1.387 . S
C313 C315 1.390 . S
C313 H317 0.950 . S
H314 C310 0.950 . S
C315 C313 1.390 . S
C315 C316 1.387 . S
C315 H318 0.950 . S
C316 C315 1.387 . S
C316 C319 1.387 . S
H317 C313 0.950 . S
H318 C315 0.950 . S
C319 C310 1.390 . S
C319 H312 0.950 . S
C319 C316 1.387 . S
C320 C321 1.387 . S
C320 H324 0.950 . S
C320 C329 1.390 . S
C321 C320 1.387 . S
C321 C323 1.387 . S
H322 C329 0.950 . S
C323 C321 1.387 . S
C323 C325 1.390 . S
C323 H327 0.950 . S
H324 C320 0.950 . S
C325 C323 1.390 . S
C325 C326 1.387 . S
C325 H328 0.950 . S
C326 C325 1.387 . S
C326 C329 1.387 . S
H327 C323 0.950 . S
H328 C325 0.950 . S
C329 C320 1.390 . S
C329 H322 0.950 . S
C329 C326 1.387 . S
C330 C331 1.387 . S
C330 H334 0.950 . S
C330 C339 1.390 . S
C331 C330 1.387 . S
C331 C333 1.387 . S
H332 C339 0.950 . S
C333 C331 1.387 . S
C333 C335 1.390 . S
C333 H337 0.950 . S
H334 C330 0.950 . S
C335 C333 1.390 . S
C335 C336 1.387 . S
C335 H338 0.950 . S
C336 C335 1.387 . S
C336 C339 1.387 . S
H337 C333 0.950 . S
H338 C335 0.950 . S
C339 C330 1.390 . S
C339 H332 0.950 . S
C339 C336 1.387 . S
C340 C341 1.387 . S
C340 H344 0.950 . S
C340 C349 1.390 . S
C341 C340 1.387 . S
C341 C343 1.387 . S
H342 C349 0.950 . S
C343 C341 1.387 . S
C343 C345 1.390 . S
C343 H347 0.950 . S
H344 C340 0.950 . S
C345 C343 1.390 . S
C345 C346 1.387 . S
C345 H348 0.950 . S
C346 C345 1.387 . S
C346 C349 1.387 . S
H347 C343 0.950 . S
H348 C345 0.950 . S
C349 C340 1.390 . S
C349 H342 0.950 . S
C349 C346 1.387 . S
C350 C351 1.387 . S
C350 H354 0.950 . S
C350 C359 1.390 . S
C351 C350 1.387 . S
C351 C353 1.387 . S
H352 C359 0.950 . S
C353 C351 1.387 . S
C353 C355 1.390 . S
C353 H357 0.950 . S
H354 C350 0.950 . S
C355 C353 1.390 . S
C355 C356 1.387 . S
C355 H358 0.950 . S
C356 C355 1.387 . S
C356 C359 1.387 . S
H357 C353 0.950 . S
H358 C355 0.950 . S
C359 C350 1.390 . S
C359 H352 0.950 . S
C359 C356 1.387 . S
C360 C361 1.387 . S
C360 H364 0.950 . S
C360 C369 1.390 . S
C361 C360 1.387 . S
C361 C363 1.387 . S
H362 C369 0.950 . S
C363 C361 1.387 . S
C363 C365 1.390 . S
C363 H367 0.950 . S
H364 C360 0.950 . S
C365 C363 1.390 . S
C365 C366 1.387 . S
C365 H368 0.950 . S
C366 C365 1.387 . S
C366 C369 1.387 . S
H367 C363 0.950 . S
H368 C365 0.950 . S
C369 C360 1.390 . S
C369 H362 0.950 . S
C369 C366 1.387 . S
C370 C371 1.387 . S
C370 H374 0.950 . S
C370 C379 1.390 . S
C371 C370 1.387 . S
C371 C373 1.387 . S
H372 C379 0.950 . S
C373 C371 1.387 . S
C373 C375 1.390 . S
C373 H377 0.950 . S
H374 C370 0.950 . S
C375 C373 1.390 . S
C375 C376 1.387 . S
C375 H378 0.950 . S
C376 C375 1.387 . S
C376 C379 1.387 . S
H377 C373 0.950 . S
H378 C375 0.950 . S
C379 C370 1.390 . S
C379 H372 0.950 . S
C379 C376 1.387 . S
C380 C381 1.387 . S
C380 H384 0.950 . S
C380 C389 1.390 . S
C381 C380 1.387 . S
C381 C383 1.387 . S
H382 C389 0.950 . S
C383 C381 1.387 . S
C383 C385 1.390 . S
C383 H387 0.950 . S
H384 C380 0.950 . S
C385 C383 1.390 . S
C385 C386 1.387 . S
C385 H388 0.950 . S
C386 C385 1.387 . S
C386 C389 1.387 . S
H387 C383 0.950 . S
H388 C385 0.950 . S
C389 C380 1.390 . S
C389 H382 0.950 . S
C389 C386 1.387 . S
C390 C391 1.387 . S
C390 H394 0.950 . S
C390 C399 1.390 . S
C391 C390 1.387 . S
C391 C393 1.387 . S
H392 C399 0.950 . S
C393 C391 1.387 . S
C393 C395 1.390 . S
C393 H397 0.950 . S
H394 C390 0.950 . S
C395 C393 1.390 . S
C395 C396 1.387 . S
C395 H398 0.950 . S
C396 C395 1.387 . S
C396 C399 1.387 . S
H397 C393 0.950 . S
H398 C395 0.950 . S
C399 C390 1.390 . S
C399 H392 0.950 . S
C399 C396 1.387 . S
C400 C401 1.387 . S
C400 H404 0.950 . S
C400 C409 1.390 . S
C401 C400 1.387 . S
C401 C403 1.387 . S
H402 C409 0.950 . S
C403 C401 1.387 . S
C403 C405 1.390 . S
C403 H407 0.950 . S
H404 C400 0.950 . S
C405 C403 1.390 . S
C405 C406 1.387 . S
C405 H408 0.950 . S
C406 C405 1.387 . S
C406 C409 1.387 . S
H407 C403 0.950 . S
H408 C405 0.950 . S
C409 C400 1.390 . S
C409 H402 0.950 . S
C409 C406 1.387 . S
C410 C411 1.387 . S
C410 H414 0.950 . S
C410 C419 1.390 . S
C411 C410 1.387 . S
C411 C413 1.387 . S
H412 C419 0.950 . S
C413 C411 1.387 . S
C413 C415 1.390 . S
C413 H417 0.950 . S
H414 C410 0.950 . S
C415 C413 1.390 . S
C415 C416 1.387 . S
C415 H418 0.950 . S
C416 C415 1.387 . S
C416 C419 1.387 . S
H417 C413 0.950 . S
H418 C415 0.950 . S
C419 C410 1.390 . S
C419 H412 0.950 . S
C419 C416 1.387 . S
C420 C421 1.387 . S
C420 H424 0.950 . S
C420 C429 1.390 . S
C421 C420 1.387 . S
C421 C423 1.387 1_455 S
H422 C429 0.950 . S
C423 C421 1.387 1_655 S
C423 C425 1.390 . S
C423 H427 0.950 . S
H424 C420 0.950 . S
C425 C423 1.390 . S
C425 C426 1.387 1_655 S
C425 H428 0.950 . S
C426 C425 1.387 1_455 S
C426 C429 1.387 . S
H427 C423 0.950 . S
H428 C425 0.950 . S
C429 C420 1.390 . S
C429 H422 0.950 . S
C429 C426 1.387 . S
C430 C431 1.387 1_565 S
C430 H434 0.950 . S
C430 C439 1.390 . S
C431 C430 1.387 1_545 S
C431 C433 1.387 . S
H432 C439 0.950 . S
C433 C431 1.387 . S
C433 C435 1.390 . S
C433 H437 0.950 . S
H434 C430 0.950 . S
C435 C433 1.390 . S
C435 C436 1.387 . S
C435 H438 0.950 . S
C436 C435 1.387 . S
C436 C439 1.387 1_545 S
H437 C433 0.950 . S
H438 C435 0.950 . S
C439 C430 1.390 . S
C439 H432 0.950 . S
C439 C436 1.387 1_565 S
C440 C441 1.387 . S
C440 H444 0.950 . S
C440 C449 1.390 . S
C441 C440 1.387 . S
C441 C443 1.387 . S
H442 C449 0.950 . S
C443 C441 1.387 . S
C443 C445 1.390 . S
C443 H447 0.950 . S
H444 C440 0.950 . S
C445 C443 1.390 . S
C445 C446 1.387 . S
C445 H448 0.950 . S
C446 C445 1.387 . S
C446 C449 1.387 . S
H447 C443 0.950 . S
H448 C445 0.950 . S
C449 C440 1.390 . S
C449 H442 0.950 . S
C449 C446 1.387 . S
C450 C451 1.387 1_565 S
C450 H454 0.950 . S
C450 C459 1.390 . S
C451 C450 1.387 1_545 S
C451 C453 1.387 . S
H452 C459 0.950 . S
C453 C451 1.387 . S
C453 C455 1.390 . S
C453 H457 0.950 . S
H454 C450 0.950 . S
C455 C453 1.390 . S
C455 C456 1.387 . S
C455 H458 0.950 . S
C456 C455 1.387 . S
C456 C459 1.387 1_545 S
H457 C453 0.950 . S
H458 C455 0.950 . S
C459 C450 1.390 . S
C459 H452 0.950 . S
C459 C456 1.387 1_565 S
C460 C461 1.387 . S
C460 H464 0.950 . S
C460 C469 1.390 . S
C461 C460 1.387 . S
C461 C463 1.387 . S
H462 C469 0.950 . S
C463 C461 1.387 . S
C463 C465 1.390 . S
C463 H467 0.950 . S
H464 C460 0.950 . S
C465 C463 1.390 . S
C465 C466 1.387 . S
C465 H468 0.950 . S
C466 C465 1.387 . S
C466 C469 1.387 . S
H467 C463 0.950 . S
H468 C465 0.950 . S
C469 C460 1.390 . S
C469 H462 0.950 . S
C469 C466 1.387 . S
C470 C471 1.387 1_455 S
C470 H474 0.950 . S
C470 C479 1.390 . S
C471 C470 1.387 1_655 S
C471 C473 1.387 . S
H472 C479 0.950 . S
C473 C471 1.387 . S
C473 C475 1.390 . S
C473 H477 0.950 . S
H474 C470 0.950 . S
C475 C473 1.390 . S
C475 C476 1.387 . S
C475 H478 0.950 . S
C476 C475 1.387 . S
C476 C479 1.387 1_655 S
H477 C473 0.950 . S
H478 C475 0.950 . S
C479 C470 1.390 . S
C479 H472 0.950 . S
C479 C476 1.387 1_455 S
C301 C2 1.504 . S
C306 C275 1.559 . S
C311 C22 1.457 . S
C316 C182 1.549 . S
C321 C44 1.545 . S
C326 C222 1.600 . S
C331 C4 1.710 . S
C336 C262 1.764 . S
C346 C195 1.784 . S
C341 C24 1.782 . S
C356 C235 1.714 . S
C351 C42 1.668 . S
C361 C32 1.492 . S
C366 C102 1.448 . S
C371 C49 1.420 . S
C376 C142 1.394 . S
C381 C9 1.435 . S
C386 C75 1.406 . S
C396 C115 1.403 . S
C391 C29 1.375 . S
C406 C155 1.435 . S
C401 C52 1.425 . S
C411 C12 1.397 . S
C416 C62 1.436 . S
C426 C161 1.427 . S
C421 C18 1.445 1_455 S
C431 C38 1.443 . S
C436 C81 1.455 . S
C441 C58 1.427 . S
C446 C121 1.430 . S
C456 C241 1.508 . S
C451 C39 1.501 . S
C466 C281 1.489 . S
C461 C59 1.477 . S
C471 C19 1.485 1_655 S
C476 C201 1.499 . S
