# Generated by pormake.
# Topology pts, (4,4)-cn, num edge types: 1
# Building blocks:
#     Node 0, Type 0, BuildingBlock: ESEHIV_clean_sbu_0, # of connection points: 4
#     Node 1, Type 0, BuildingBlock: ESEHIV_clean_sbu_0, # of connection points: 4
#     Node 2, Type 1, BuildingBlock: UXUYUI_clean_sbu_0, # of connection points: 4
#     Node 3, Type 1, BuildingBlock: UXUYUI_clean_sbu_0, # of connection points: 4
#     Edge 4, Type (0, 1), BuildingBlock: XIVTED_clean_linker_0, # of connection points: 2
#     Edge 5, Type (0, 1), BuildingBlock: XIVTED_clean_linker_0, # of connection points: 2
#     Edge 6, Type (0, 1), BuildingBlock: XIVTED_clean_linker_0, # of connection points: 2
#     Edge 7, Type (0, 1), BuildingBlock: XIVTED_clean_linker_0, # of connection points: 2
#     Edge 8, Type (0, 1), BuildingBlock: XIVTED_clean_linker_0, # of connection points: 2
#     Edge 9, Type (0, 1), BuildingBlock: XIVTED_clean_linker_0, # of connection points: 2
#     Edge 10, Type (0, 1), BuildingBlock: XIVTED_clean_linker_0, # of connection points: 2
#     Edge 11, Type (0, 1), BuildingBlock: XIVTED_clean_linker_0, # of connection points: 2
# Relax obj value: 0.002
# Max RMSD: 0.096
# Mean RMSD: 0.062
data_MOF--net-pts--node1-ESEHIV_clean_sbu_0--node2-UXUYUI_clean_sbu_0--edge1-XIVTED_clean_linker_0
_symmetry_space_group_name_H-M    P1
_symmetry_Int_Tables_number       1
_symmetry_cell_setting            triclinic
loop_
_symmetry_equiv_pos_as_xyz
'x, y, z'
_cell_length_a     30.76771
_cell_length_b     30.798536
_cell_length_c     45.935518
_cell_angle_alpha  92.950361
_cell_angle_beta   92.920241
_cell_angle_gamma 89.946595
loop_
_atom_site_label
_atom_site_type_symbol
_atom_site_fract_x
_atom_site_fract_y
_atom_site_fract_z
_atom_type_partial_charge
Cu0 Cu 0.54166 0.03022 1.00894 0.0
N1 N 0.57195 0.99904 0.98034 0.0
N2 N 0.62475 0.98564 0.94928 0.0
C3 C 0.6112 1.0111 0.97186 0.0
C4 C 0.59257 0.95611 0.94345 0.0
C5 C 0.56002 0.96446 0.96268 0.0
O6 O 0.58598 0.05287 0.03775 0.0
C7 C 0.50392 0.08008 0.9633 0.0
O8 O 0.53811 0.06861 0.94877 0.0
H9 H 0.62843 0.03945 0.98131 0.0
H10 H 0.52943 0.94731 0.96323 0.0
N11 N 0.5036 0.99599 0.0284 0.0
N12 N 0.44786 0.98231 0.05606 0.0
C13 C 0.47112 0.01305 0.04382 0.0
C14 C 0.50106 0.95274 0.03084 0.0
C15 C 0.46671 0.94419 0.04803 0.0
C16 C 0.60973 0.02276 0.0481 0.0
O17 O 0.60042 0.98229 0.03961 0.0
H18 H 0.46524 0.04765 0.04631 0.0
H19 H 0.52259 0.92917 0.0209 0.0
O20 O 0.5032 0.07216 0.99022 0.0
H21 H 0.5922 0.93061 0.92634 0.0
H22 H 0.4562 0.91238 0.05382 0.0
Cu23 Cu 0.07073 0.56383 0.51606 0.0
N24 N 0.10475 0.53024 0.54114 0.0
N25 N 0.12052 0.47648 0.57094 0.0
C26 C 0.09175 0.49213 0.55091 0.0
C27 C 0.15319 0.50598 0.57365 0.0
C28 C 0.14337 0.53911 0.5552 0.0
O29 O 0.0374 0.52176 0.49064 0.0
C30 C 0.03336 0.60467 0.56639 0.0
O31 O 0.04597 0.5699 0.57986 0.0
H32 H 0.06058 0.47741 0.54446 0.0
H33 H 0.16236 0.56813 0.55283 0.0
N34 N 0.10466 0.59819 0.49368 0.0
N35 N 0.12022 0.65324 0.46595 0.0
C36 C 0.09153 0.63665 0.48371 0.0
C37 C 0.14327 0.59004 0.48209 0.0
C38 C 0.15295 0.62397 0.4649 0.0
C39 C 0.0349 0.52241 0.46288 0.0
O40 O 0.04847 0.55692 0.45035 0.0
H41 H 0.06037 0.65103 0.48835 0.0
H42 H 0.16237 0.56101 0.48526 0.0
O43 O 0.03673 0.60553 0.5389 0.0
H44 H 0.18187 0.50418 0.58818 0.0
H45 H 0.18158 0.62651 0.45235 0.0
Li46 Li 0.04457 0.11084 0.28475 0.0
Li47 Li 0.04329 0.03072 0.28536 0.0
Li48 Li 0.08159 0.06745 0.24579 0.0
Li49 Li 1.00143 0.06531 0.24621 0.0
C50 C 0.12995 0.08811 0.30447 0.0
N51 N 0.20124 0.12404 0.33592 0.0
C52 C 0.13928 0.07707 0.33326 0.0
C53 C 0.15735 0.1168 0.29152 0.0
C54 C 0.17532 0.09577 0.34885 0.0
C55 C 0.19311 0.13479 0.30781 0.0
C56 C 0.97134 0.05714 0.31148 0.0
C57 C 0.92085 1.00682 0.33003 0.0
N58 N 0.9275 0.02616 0.35718 0.0
C59 C 0.97739 0.07676 0.33951 0.0
C60 C 0.94258 0.02213 0.30662 0.0
C61 C 0.95502 0.06055 0.36235 0.0
C62 C 0.01964 0.19768 0.29642 0.0
N63 N 0.04318 0.16468 0.30789 0.0
C64 C 0.05909 0.20815 0.35188 0.0
C65 C 0.06264 0.16916 0.33514 0.0
C66 C 0.03507 0.24292 0.34057 0.0
C67 C 0.01531 0.23723 0.31235 0.0
H68 H 1.00375 0.19307 0.27493 0.0
H69 H 0.08021 0.14226 0.34419 0.0
C70 C 0.05302 0.94176 0.29692 0.0
N71 N 0.04825 0.98203 0.30993 0.0
C72 C 0.06049 0.90569 0.31376 0.0
C73 C 0.05779 0.95297 0.35721 0.0
C74 C 0.0504 0.98815 0.33951 0.0
C75 C 0.06344 0.91101 0.34438 0.0
H76 H 0.05198 0.93768 0.2734 0.0
H77 H 0.04755 0.02054 0.34941 0.0
C78 C 0.05511 0.14884 0.22572 0.0
N79 N 0.08619 0.2148 0.19383 0.0
C80 C 0.03955 0.15343 0.19692 0.0
C81 C 0.08588 0.17831 0.23846 0.0
C82 C 0.05585 0.18682 0.18111 0.0
C83 C 0.10134 0.2113 0.22195 0.0
C84 C 0.02314 0.9877 0.22205 0.0
C85 C 0.03878 0.98362 0.19401 0.0
C86 C 0.98708 0.96328 0.22878 0.0
C87 C 0.01757 0.95565 0.17298 0.0
C88 C 0.96674 0.9357 0.20715 0.0
N89 N 0.98225 0.93252 0.17992 0.0
C90 C 0.16725 0.04321 0.23237 0.0
C91 C 0.12669 0.07312 0.19307 0.0
C92 C 0.2025 0.03522 0.2148 0.0
N93 N 0.13034 0.06195 0.22135 0.0
C94 C 0.16112 0.06569 0.1747 0.0
C95 C 0.19968 0.04623 0.18543 0.0
H96 H 0.16908 0.03379 0.25476 0.0
H97 H 0.09654 0.08643 0.18443 0.0
C98 C 0.90984 0.06932 0.23242 0.0
N99 N 0.94962 0.06409 0.22108 0.0
C100 C 0.87211 0.0689 0.214 0.0
C101 C 0.91705 0.05806 0.17263 0.0
C102 C 0.95381 0.05915 0.19178 0.0
C103 C 0.87545 0.06279 0.18366 0.0
H104 H 0.90737 0.07383 0.25578 0.0
H105 H 0.9858 0.0561 0.18323 0.0
O106 O 0.09482 0.06999 0.28889 0.0
O107 O 0.9932 0.07236 0.28889 0.0
O108 O 0.03942 0.11633 0.24152 0.0
O109 O 0.04307 0.01542 0.24281 0.0
H110 H 0.11873 0.05457 0.34355 0.0
H111 H 0.15145 0.12473 0.26903 0.0
H112 H 0.18271 0.08777 0.37121 0.0
H113 H 0.2145 0.15714 0.29806 0.0
H114 H 0.89864 0.97963 0.3266 0.0
H115 H 0.99936 0.10399 0.34364 0.0
H116 H 0.93702 1.00698 0.28501 0.0
H117 H 0.9596 0.07525 0.38418 0.0
H118 H 0.07518 0.21103 0.37341 0.0
H119 H 0.99588 0.26274 0.30286 0.0
H120 H 0.0641 0.87399 0.30284 0.0
H121 H 0.06043 0.95887 0.38068 0.0
H122 H 0.01536 0.13127 0.18681 0.0
H123 H 0.09738 0.17609 0.26095 0.0
H124 H 0.04434 0.19051 0.15873 0.0
H125 H 0.12526 0.23424 0.23153 0.0
H126 H 0.0668 1.00205 0.18847 0.0
H127 H 0.97493 0.96565 0.25046 0.0
H128 H 0.02915 0.95238 0.15113 0.0
H129 H 0.93865 0.9168 0.21202 0.0
H130 H 0.23162 0.02053 0.22415 0.0
H131 H 0.15699 0.07392 0.1521 0.0
H132 H 0.84067 0.07242 0.22342 0.0
H133 H 0.92118 0.05391 0.14938 0.0
Li134 Li 0.0123 0.05941 0.78215 0.0
Li135 Li 0.09267 0.05882 0.78556 0.0
Li136 Li 0.05061 0.09675 0.74575 0.0
Li137 Li 0.0533 0.01655 0.74435 0.0
C138 C 0.0346 0.13261 0.81124 0.0
N139 N 0.9963 0.17704 0.85699 0.0
C140 C 0.05195 0.12959 0.83977 0.0
C141 C 0.99804 0.15854 0.80592 0.0
C142 C 0.03206 0.15224 0.86262 0.0
C143 C 0.97906 0.18064 0.82936 0.0
C144 C 0.069 0.97436 0.80153 0.0
C145 C 0.11624 0.91186 0.80312 0.0
N146 N 0.10314 0.90432 0.83024 0.0
C147 C 0.05561 0.96565 0.82927 0.0
C148 C 0.09921 0.94697 0.78821 0.0
C149 C 0.07341 0.93023 0.84349 0.0
C150 C 0.9215 0.05401 0.79003 0.0
N151 N 0.96119 0.05682 0.80444 0.0
C152 C 0.92873 0.04768 0.85002 0.0
C153 C 0.96534 0.05415 0.83391 0.0
C154 C 0.88728 0.04375 0.8357 0.0
C155 C 0.884 0.04763 0.80528 0.0
H156 H 0.919 0.0557 0.76657 0.0
H157 H 0.99725 0.05588 0.84487 0.0
C158 C 0.17622 0.09017 0.80181 0.0
N159 N 0.14453 0.06392 0.81073 0.0
C160 C 0.21488 0.09685 0.81877 0.0
C161 C 0.18755 0.04981 0.85414 0.0
C162 C 0.14935 0.04405 0.83646 0.0
C163 C 0.22111 0.07648 0.84537 0.0
H164 H 0.17133 0.10614 0.78147 0.0
H165 H 0.12349 0.02406 0.84348 0.0
C166 C 0.97852 0.07123 0.71595 0.0
N167 N 0.93358 0.10591 0.66902 0.0
C168 C 0.9809 0.05148 0.688 0.0
C169 C 0.95296 0.10835 0.7201 0.0
C170 C 0.958 0.06957 0.66454 0.0
C171 C 0.93059 0.12548 0.69607 0.0
C172 C 0.13779 0.04224 0.72905 0.0
C173 C 0.14567 0.05429 0.70086 0.0
C174 C 0.16697 0.0146 0.74327 0.0
C175 C 0.18205 0.03765 0.68712 0.0
C176 C 0.203 0.99867 0.72881 0.0
N177 N 0.2097 1.01038 0.70125 0.0
C178 C 0.0562 0.18673 0.73547 0.0
C179 C 0.05462 0.14049 0.69263 0.0
C180 C 0.06189 0.2232 0.7191 0.0
N181 N 0.05296 0.14636 0.7221 0.0
C182 C 0.06019 0.17602 0.67541 0.0
C183 C 0.06444 0.21813 0.68862 0.0
H184 H 0.05527 0.19058 0.75896 0.0
H185 H 0.05263 0.10806 0.6825 0.0
C186 C 0.02598 0.93119 0.72952 0.0
N187 N 0.05055 0.96381 0.72008 0.0
C188 C 0.02049 0.89216 0.71284 0.0
C189 C 0.06527 0.92101 0.6767 0.0
C190 C 0.06994 0.95952 0.69414 0.0
C191 C 0.04021 0.88659 0.68596 0.0
H192 H 1.01023 0.9357 0.74998 0.0
H193 H 0.08845 0.98615 0.68668 0.0
O194 O 0.05325 0.11023 0.78864 0.0
O195 O 0.05174 1.00886 0.78728 0.0
O196 O 1.00112 0.05432 0.73913 0.0
O197 O 0.10241 0.05848 0.74287 0.0
H198 H 0.08025 0.1097 0.84426 0.0
H199 H 0.9844 0.16142 0.78394 0.0
H200 H 0.045 0.15003 0.88483 0.0
H201 H 0.95062 0.20065 0.82558 0.0
H202 H 0.13972 0.89049 0.79306 0.0
H203 H 0.03192 0.98612 0.83981 0.0
H204 H 0.10908 0.95237 0.76647 0.0
H205 H 0.06355 0.92333 0.86504 0.0
H206 H 0.93314 0.04433 0.87333 0.0
H207 H 0.8528 0.04548 0.79327 0.0
H208 H 0.23935 0.11829 0.81128 0.0
H209 H 0.19089 0.03313 0.87431 0.0
H210 H 1.00043 0.02268 0.68442 0.0
H211 H 0.95059 0.12386 0.74161 0.0
H212 H 0.9597 0.05476 0.64276 0.0
H213 H 0.91087 0.15433 0.69894 0.0
H214 H 0.1238 0.07602 0.68961 0.0
H215 H 0.16221 1.00584 0.76535 0.0
H216 H 0.18832 0.04646 0.66522 0.0
H217 H 0.22574 0.97716 0.73956 0.0
H218 H 0.06443 0.25501 0.73025 0.0
H219 H 0.06254 0.17031 0.65209 0.0
H220 H 1.00028 0.86695 0.7207 0.0
H221 H 0.08135 0.91819 0.65627 0.0
H222 H 0.41893 0.93029 0.09732 0.0
H223 H 0.22977 0.09612 0.14277 0.0
H224 H 0.39208 0.05081 0.05601 0.0
H225 H 0.2531 0.97443 0.18346 0.0
H226 H 0.28892 0.07939 0.11059 0.0
H227 H 0.35791 0.94489 0.12862 0.0
C228 C 0.40013 0.95966 0.09467 0.0
C229 C 0.41103 0.98948 0.07406 0.0
C230 C 0.28115 0.0563 0.12655 0.0
C231 C 0.34125 1.00663 0.11005 0.0
C232 C 0.24715 0.06576 0.14488 0.0
C233 C 0.23626 0.03669 0.16595 0.0
C234 C 0.30465 0.01742 0.12917 0.0
C235 C 0.26061 0.99816 0.16787 0.0
C236 C 0.3654 0.96812 0.11268 0.0
C237 C 0.38559 0.02723 0.07188 0.0
N238 N 0.29357 0.98966 0.14974 0.0
N239 N 0.35207 0.0347 0.08963 0.0
H240 H 0.15748 0.46028 0.62453 0.0
H241 H 0.02932 0.23518 0.6341 0.0
H242 H 0.07097 0.40504 0.5555 0.0
H243 H 0.11866 0.28801 0.70234 0.0
H244 H 0.0447 0.29693 0.60491 0.0
H245 H 0.14479 0.39704 0.65301 0.0
C246 C 0.13612 0.43478 0.61519 0.0
C247 C 0.11514 0.43832 0.58752 0.0
C248 C 0.06095 0.29505 0.62628 0.0
C249 C 0.09998 0.3658 0.62032 0.0
C250 C 0.05231 0.25963 0.64295 0.0
C251 C 0.07266 0.25621 0.67082 0.0
C252 C 0.09024 0.32749 0.63744 0.0
C253 C 0.10166 0.28944 0.6812 0.0
C254 C 0.12864 0.39873 0.6316 0.0
C255 C 0.08735 0.40425 0.57686 0.0
N256 N 0.10958 0.32357 0.66453 0.0
N257 N 0.08054 0.36959 0.59325 0.0
H258 H 0.67626 0.96742 0.05893 0.0
H259 H 0.80219 0.11452 0.18374 0.0
H260 H 0.63292 0.09751 0.08175 0.0
H261 H 0.85859 1.00424 0.13789 0.0
H262 H 0.73725 0.10765 0.15023 0.0
H263 H 0.74026 0.97906 0.09137 0.0
C264 C 0.68014 0.99858 0.07083 0.0
C265 C 0.64896 0.03153 0.06762 0.0
C266 C 0.764 0.0852 0.14749 0.0
C267 C 0.72289 0.04506 0.10521 0.0
C268 C 0.80089 0.08888 0.16668 0.0
C269 C 0.83592 0.05992 0.16358 0.0
C270 C 0.76193 0.0519 0.12538 0.0
C271 C 0.83267 0.02757 0.14094 0.0
C272 C 0.71696 1.00525 0.08932 0.0
C273 C 0.65619 0.07128 0.08354 0.0
N274 N 0.79634 0.02431 0.1229 0.0
N275 N 0.69235 0.07689 0.10187 0.0
H276 H 0.02629 0.6155 0.62552 0.0
H277 H 0.02882 0.87572 0.62618 0.0
H278 H 0.02142 0.68713 0.54708 0.0
H279 H 0.03832 0.80295 0.70409 0.0
H280 H 0.02079 0.80739 0.59684 0.0
H281 H 0.02353 0.68404 0.65451 0.0
C282 C 0.024 0.64559 0.61433 0.0
C283 C 0.02435 0.64542 0.58376 0.0
C284 C 0.02445 0.80639 0.62036 0.0
C285 C 0.02179 0.72436 0.61698 0.0
C286 C 0.02939 0.84542 0.63715 0.0
C287 C 0.03449 0.84527 0.66773 0.0
C288 C 0.02466 0.76671 0.63416 0.0
C289 C 0.03406 0.80488 0.68066 0.0
C290 C 0.02264 0.68481 0.63094 0.0
C291 C 0.02128 0.68557 0.57056 0.0
N292 N 0.02943 0.76736 0.66384 0.0
N293 N 0.02053 0.72338 0.58725 0.0
H294 H 0.49228 0.0956 0.90524 0.0
H295 H 0.23208 0.08497 0.90534 0.0
H296 H 0.42158 0.08866 0.98367 0.0
H297 H 0.3046 0.0827 0.82726 0.0
H298 H 0.30042 0.09337 0.93469 0.0
H299 H 0.42329 0.1001 0.87691 0.0
C300 C 0.4623 0.09576 0.91662 0.0
C301 C 0.4629 0.0914 0.94692 0.0
C302 C 0.30134 0.09126 0.91113 0.0
C303 C 0.38341 0.09588 0.9144 0.0
C304 C 0.2623 0.08612 0.89431 0.0
C305 C 0.26237 0.08287 0.86367 0.0
C306 C 0.34094 0.09318 0.89729 0.0
C307 C 0.30267 0.0855 0.85073 0.0
C308 C 0.42281 0.09807 0.90036 0.0
C309 C 0.42283 0.09188 0.96037 0.0
N310 N 0.34019 0.0903 0.86757 0.0
N311 N 0.38476 0.09357 0.94399 0.0
H312 H 0.01863 0.44071 0.48138 0.0
H313 H 0.03569 0.3262 0.32172 0.0
H314 H 0.03068 0.511 0.40326 0.0
H315 H 0.02365 0.25514 0.3995 0.0
H316 H 0.0287 0.39417 0.35086 0.0
H317 H 0.01429 0.3727 0.45142 0.0
C318 C 0.01968 0.44198 0.4579 0.0
C319 C 0.02528 0.48176 0.44488 0.0
C320 C 0.02743 0.36372 0.36157 0.0
C321 C 0.02094 0.40376 0.41043 0.0
C322 C 0.03124 0.32479 0.34489 0.0
C323 C 0.03042 0.28468 0.35811 0.0
C324 C 0.02277 0.3628 0.39181 0.0
C325 C 0.0252 0.28518 0.38837 0.0
C326 C 0.01746 0.40304 0.4408 0.0
C327 C 0.02658 0.4812 0.41433 0.0
N328 N 0.02168 0.32354 0.40416 0.0
N329 N 0.02479 0.44287 0.39822 0.0
H330 H 0.69942 0.02686 0.96932 0.0
H331 H 0.81741 0.99099 0.81852 0.0
H332 H 0.64004 0.9579 0.89331 0.0
H333 H 0.8675 0.0746 0.89082 0.0
H334 H 0.75399 0.9754 0.84617 0.0
H335 H 0.76313 0.04069 0.94177 0.0
C336 C 0.69958 0.01469 0.94681 0.0
C337 C 0.66382 0.99149 0.93364 0.0
C338 C 0.77884 0.99718 0.85597 0.0
C339 C 0.73744 1.00692 0.90188 0.0
C340 C 0.81502 1.00641 0.84009 0.0
C341 C 0.84805 0.03435 0.85222 0.0
C342 C 0.77553 0.01584 0.88431 0.0
C343 C 0.84332 0.05247 0.88061 0.0
C344 C 0.73619 0.02251 0.93109 0.0
C345 C 0.66672 0.97571 0.90452 0.0
N346 N 0.80784 0.04291 0.89562 0.0
N347 N 0.70276 0.98383 0.88963 0.0
H348 H 0.07118 0.72414 0.4798 0.0
H349 H 0.12 0.84347 0.33393 0.0
H350 H 0.15636 0.67173 0.41501 0.0
H351 H 0.03014 0.89242 0.39686 0.0
H352 H 0.13563 0.7817 0.36403 0.0
H353 H 0.05825 0.7874 0.45072 0.0
C354 C 0.08715 0.7258 0.45944 0.0
C355 C 0.11468 0.69216 0.44981 0.0
C356 C 0.11251 0.80595 0.37128 0.0
C357 C 0.10019 0.76509 0.41635 0.0
C358 C 0.10329 0.84116 0.35398 0.0
C359 C 0.07345 0.87327 0.36271 0.0
C360 C 0.09181 0.80261 0.39763 0.0
C361 C 0.05364 0.86881 0.38931 0.0
C362 C 0.07986 0.76213 0.44287 0.0
C363 C 0.13513 0.69682 0.42347 0.0
N364 N 0.06308 0.83416 0.40573 0.0
N365 N 0.12731 0.73244 0.40763 0.0
loop_
_geom_bond_atom_site_label_1
_geom_bond_atom_site_label_2
_geom_bond_distance
_geom_bond_site_symmetry_2
_ccdc_geom_bond_type
Cu0 N1 1.999 1_554 S
Cu0 O6 1.974 . S
Cu0 N11 1.985 . S
Cu0 O20 1.959 1_554 S
N1 Cu0 1.999 1_556 S
N1 C3 1.263 . S
N1 C5 1.389 . S
N2 C3 1.358 . S
N2 C4 1.400 . S
C3 N1 1.263 . S
C3 N2 1.358 . S
C3 H9 0.930 . S
C4 N2 1.400 . S
C4 C5 1.351 . S
C4 H21 0.930 . S
C5 N1 1.389 . S
C5 C4 1.351 . S
C5 H10 0.930 . S
O6 Cu0 1.974 . S
O6 C16 1.282 . S
C7 O8 1.261 1_545 S
C7 O20 1.251 . S
O8 C7 1.261 1_565 S
H9 C3 0.930 . S
H10 C5 0.930 . S
N11 Cu0 1.985 . S
N11 C13 1.335 . S
N11 C14 1.390 . S
N12 C13 1.345 . S
N12 C15 1.336 . S
C13 N11 1.335 . S
C13 N12 1.345 . S
C13 H18 0.930 . S
C14 N11 1.390 . S
C14 C15 1.346 . S
C14 H19 0.930 . S
C15 N12 1.336 . S
C15 C14 1.346 . S
C15 H22 0.929 . S
C16 O6 1.282 . S
C16 O17 1.216 1_545 S
O17 C16 1.216 1_565 S
H18 C13 0.930 . S
H19 C14 0.930 . S
O20 Cu0 1.959 1_556 S
O20 C7 1.251 . S
H21 C4 0.930 . S
H22 C15 0.929 . S
Cu23 N24 1.999 . S
Cu23 O29 1.974 . S
Cu23 N34 1.985 . S
Cu23 O43 1.959 . S
N24 Cu23 1.999 . S
N24 C26 1.263 . S
N24 C28 1.389 1_455 S
N25 C26 1.358 . S
N25 C27 1.415 . S
C26 N24 1.263 . S
C26 N25 1.358 . S
C26 H32 0.930 . S
C27 N25 1.415 . S
C27 C28 1.350 1_455 S
C27 H44 0.920 1_455 S
C28 N24 1.389 1_655 S
C28 C27 1.350 1_655 S
C28 H33 0.930 . S
O29 Cu23 1.974 . S
O29 C39 1.282 . S
C30 O31 1.261 . S
C30 O43 1.251 . S
O31 C30 1.261 . S
H32 C26 0.930 . S
H33 C28 0.930 . S
N34 Cu23 1.985 . S
N34 C36 1.335 . S
N34 C37 1.390 . S
N35 C36 1.345 . S
N35 C38 1.336 . S
C36 N34 1.335 . S
C36 N35 1.345 . S
C36 H41 0.930 . S
C37 N34 1.390 . S
C37 C38 1.346 . S
C37 H42 0.930 . S
C38 N35 1.336 . S
C38 C37 1.346 . S
C38 H45 0.929 . S
C39 O29 1.282 . S
C39 O40 1.216 . S
O40 C39 1.216 . S
H41 C36 0.930 . S
H42 C37 0.930 . S
O43 Cu23 1.959 . S
O43 C30 1.251 . S
H44 C27 0.920 1_655 S
H45 C38 0.929 . S
Li46 N63 1.990 . S
Li46 O106 1.956 . S
Li46 O107 1.970 1_455 S
Li46 O108 1.961 . S
Li47 N71 1.990 1_545 S
Li47 O106 1.970 . S
Li47 O107 1.956 1_455 S
Li47 O109 1.961 . S
Li48 N93 1.990 . S
Li48 O106 1.961 . S
Li48 O108 1.956 . S
Li48 O109 1.970 . S
Li49 N99 1.990 . S
Li49 O107 1.961 . S
Li49 O108 1.970 1_655 S
Li49 O109 1.956 1_655 S
C50 C52 1.348 . S
C50 C53 1.356 . S
C50 O106 1.325 . S
N51 C54 1.314 . S
N51 C55 1.279 . S
C52 C50 1.348 . S
C52 C54 1.353 . S
C52 H110 0.929 . S
C53 C50 1.356 . S
C53 C55 1.358 . S
C53 H111 0.930 . S
C54 N51 1.314 . S
C54 C52 1.353 . S
C54 H112 0.930 . S
C55 N51 1.279 . S
C55 C53 1.358 . S
C55 H113 0.930 . S
C56 C59 1.348 . S
C56 C60 1.356 . S
C56 O107 1.325 . S
C57 N58 1.279 . S
C57 C60 1.358 . S
C57 H114 0.930 . S
N58 C57 1.279 . S
N58 C61 1.314 . S
C59 C56 1.348 . S
C59 C61 1.353 . S
C59 H115 0.929 . S
C60 C56 1.356 . S
C60 C57 1.358 . S
C60 H116 0.930 . S
C61 N58 1.314 . S
C61 C59 1.353 . S
C61 H117 0.930 . S
C62 N63 1.314 . S
C62 C67 1.353 . S
C62 H68 0.930 1_455 S
N63 Li46 1.990 . S
N63 C62 1.314 . S
N63 C65 1.279 . S
C64 C65 1.358 . S
C64 C66 1.356 . S
C64 H118 0.930 . S
C65 N63 1.279 . S
C65 C64 1.358 . S
C65 H69 0.930 . S
C66 C64 1.356 . S
C66 C67 1.348 . S
C67 C62 1.353 . S
C67 C66 1.348 . S
C67 H119 0.929 1_455 S
H68 C62 0.930 1_655 S
H69 C65 0.930 . S
C70 N71 1.314 . S
C70 C72 1.353 . S
C70 H76 0.930 . S
N71 Li47 1.990 1_565 S
N71 C70 1.314 . S
N71 C74 1.279 . S
C72 C70 1.353 . S
C72 C75 1.348 . S
C72 H120 0.929 . S
C73 C74 1.358 . S
C73 C75 1.356 . S
C73 H121 0.930 1_455 S
C74 N71 1.279 . S
C74 C73 1.358 . S
C74 H77 0.930 1_455 S
C75 C72 1.348 . S
C75 C73 1.356 . S
H76 C70 0.930 . S
H77 C74 0.930 1_655 S
C78 C80 1.348 . S
C78 C81 1.356 . S
C78 O108 1.325 . S
N79 C82 1.314 . S
N79 C83 1.279 . S
C80 C78 1.348 . S
C80 C82 1.353 . S
C80 H122 0.929 1_455 S
C81 C78 1.356 . S
C81 C83 1.358 . S
C81 H123 0.930 . S
C82 N79 1.314 . S
C82 C80 1.353 . S
C82 H124 0.930 1_455 S
C83 N79 1.279 . S
C83 C81 1.358 . S
C83 H125 0.930 . S
C84 C85 1.348 . S
C84 C86 1.356 . S
C84 O109 1.325 1_565 S
C85 C84 1.348 . S
C85 C87 1.353 . S
C85 H126 0.929 . S
C86 C84 1.356 . S
C86 C88 1.358 . S
C86 H127 0.930 1_455 S
C87 C85 1.353 . S
C87 N89 1.314 . S
C87 H128 0.930 . S
C88 C86 1.358 . S
C88 N89 1.279 . S
C88 H129 0.930 1_455 S
N89 C87 1.314 . S
N89 C88 1.279 . S
C90 C92 1.353 . S
C90 N93 1.314 . S
C90 H96 0.930 . S
C91 N93 1.279 . S
C91 C94 1.358 . S
C91 H97 0.930 . S
C92 C90 1.353 . S
C92 C95 1.348 . S
C92 H130 0.929 . S
N93 Li48 1.990 . S
N93 C90 1.314 . S
N93 C91 1.279 . S
C94 C91 1.358 . S
C94 C95 1.356 . S
C94 H131 0.930 . S
C95 C92 1.348 . S
C95 C94 1.356 . S
H96 C90 0.930 . S
H97 C91 0.930 . S
C98 N99 1.314 . S
C98 C100 1.353 . S
C98 H104 0.930 . S
N99 Li49 1.990 . S
N99 C98 1.314 . S
N99 C102 1.279 . S
C100 C98 1.353 . S
C100 C103 1.348 . S
C100 H132 0.929 . S
C101 C102 1.358 . S
C101 C103 1.356 . S
C101 H133 0.930 . S
C102 N99 1.279 . S
C102 C101 1.358 . S
C102 H105 0.930 . S
C103 C100 1.348 . S
C103 C101 1.356 . S
H104 C98 0.930 . S
H105 C102 0.930 . S
O106 Li46 1.956 . S
O106 Li47 1.970 . S
O106 Li48 1.961 . S
O106 C50 1.325 . S
O107 Li46 1.970 1_655 S
O107 Li47 1.956 1_655 S
O107 Li49 1.961 . S
O107 C56 1.325 . S
O108 Li46 1.961 . S
O108 Li48 1.956 . S
O108 Li49 1.970 1_455 S
O108 C78 1.325 . S
O109 Li47 1.961 . S
O109 Li48 1.970 . S
O109 Li49 1.956 1_455 S
O109 C84 1.325 1_545 S
H110 C52 0.929 . S
H111 C53 0.930 . S
H112 C54 0.930 . S
H113 C55 0.930 . S
H114 C57 0.930 . S
H115 C59 0.929 . S
H116 C60 0.930 . S
H117 C61 0.930 . S
H118 C64 0.930 . S
H119 C67 0.929 1_655 S
H120 C72 0.929 . S
H121 C73 0.930 1_655 S
H122 C80 0.929 1_655 S
H123 C81 0.930 . S
H124 C82 0.930 1_655 S
H125 C83 0.930 . S
H126 C85 0.929 . S
H127 C86 0.930 1_655 S
H128 C87 0.930 . S
H129 C88 0.930 1_655 S
H130 C92 0.929 . S
H131 C94 0.930 . S
H132 C100 0.929 . S
H133 C101 0.930 . S
Li134 N151 1.990 1_455 S
Li134 O194 1.956 . S
Li134 O195 1.970 1_545 S
Li134 O196 1.961 . S
Li135 N159 1.990 . S
Li135 O194 1.970 . S
Li135 O195 1.956 1_545 S
Li135 O197 1.961 . S
Li136 N181 1.990 . S
Li136 O194 1.961 . S
Li136 O196 1.956 . S
Li136 O197 1.970 . S
Li137 N187 1.990 . S
Li137 O195 1.961 . S
Li137 O196 1.970 1_565 S
Li137 O197 1.956 1_565 S
C138 C140 1.348 . S
C138 C141 1.356 . S
C138 O194 1.325 . S
N139 C142 1.314 . S
N139 C143 1.279 . S
C140 C138 1.348 . S
C140 C142 1.353 . S
C140 H198 0.929 . S
C141 C138 1.356 . S
C141 C143 1.358 . S
C141 H199 0.930 . S
C142 N139 1.314 . S
C142 C140 1.353 . S
C142 H200 0.930 . S
C143 N139 1.279 . S
C143 C141 1.358 . S
C143 H201 0.930 . S
C144 C147 1.348 . S
C144 C148 1.356 . S
C144 O195 1.325 . S
C145 N146 1.279 . S
C145 C148 1.358 . S
C145 H202 0.930 . S
N146 C145 1.279 . S
N146 C149 1.314 . S
C147 C144 1.348 . S
C147 C149 1.353 . S
C147 H203 0.929 . S
C148 C144 1.356 . S
C148 C145 1.358 . S
C148 H204 0.930 . S
C149 N146 1.314 . S
C149 C147 1.353 . S
C149 H205 0.930 . S
C150 N151 1.314 . S
C150 C155 1.353 . S
C150 H156 0.930 1_545 S
N151 Li134 1.990 1_655 S
N151 C150 1.314 . S
N151 C153 1.279 . S
C152 C153 1.358 . S
C152 C154 1.356 . S
C152 H206 0.930 . S
C153 N151 1.279 . S
C153 C152 1.358 . S
C153 H157 0.930 . S
C154 C152 1.356 . S
C154 C155 1.348 . S
C155 C150 1.353 . S
C155 C154 1.348 . S
C155 H207 0.929 1_545 S
H156 C150 0.930 1_565 S
H157 C153 0.930 . S
C158 N159 1.314 . S
C158 C160 1.353 . S
C158 H164 0.930 . S
N159 Li135 1.990 . S
N159 C158 1.314 . S
N159 C162 1.279 . S
C160 C158 1.353 . S
C160 C163 1.348 . S
C160 H208 0.929 . S
C161 C162 1.358 . S
C161 C163 1.356 . S
C161 H209 0.930 1_545 S
C162 N159 1.279 . S
C162 C161 1.358 . S
C162 H165 0.930 1_545 S
C163 C160 1.348 . S
C163 C161 1.356 . S
H164 C158 0.930 . S
H165 C162 0.930 1_565 S
C166 C168 1.348 . S
C166 C169 1.356 . S
C166 O196 1.325 1_655 S
N167 C170 1.314 . S
N167 C171 1.279 . S
C168 C166 1.348 . S
C168 C170 1.353 . S
C168 H210 0.929 1_545 S
C169 C166 1.356 . S
C169 C171 1.358 . S
C169 H211 0.930 . S
C170 N167 1.314 . S
C170 C168 1.353 . S
C170 H212 0.930 1_545 S
C171 N167 1.279 . S
C171 C169 1.358 . S
C171 H213 0.930 . S
C172 C173 1.348 . S
C172 C174 1.356 . S
C172 O197 1.325 . S
C173 C172 1.348 . S
C173 C175 1.353 . S
C173 H214 0.929 . S
C174 C172 1.356 . S
C174 C176 1.358 . S
C174 H215 0.930 1_545 S
C175 C173 1.353 . S
C175 N177 1.314 . S
C175 H216 0.930 . S
C176 C174 1.358 . S
C176 N177 1.279 . S
C176 H217 0.930 1_545 S
N177 C175 1.314 . S
N177 C176 1.279 . S
C178 C180 1.353 . S
C178 N181 1.314 . S
C178 H184 0.930 . S
C179 N181 1.279 . S
C179 C182 1.358 . S
C179 H185 0.930 . S
C180 C178 1.353 . S
C180 C183 1.348 . S
C180 H218 0.929 . S
N181 Li136 1.990 . S
N181 C178 1.314 . S
N181 C179 1.279 . S
C182 C179 1.358 . S
C182 C183 1.356 . S
C182 H219 0.930 . S
C183 C180 1.348 . S
C183 C182 1.356 . S
H184 C178 0.930 . S
H185 C179 0.930 . S
C186 N187 1.314 . S
C186 C188 1.353 . S
C186 H192 0.930 . S
N187 Li137 1.990 . S
N187 C186 1.314 . S
N187 C190 1.279 . S
C188 C186 1.353 . S
C188 C191 1.348 . S
C188 H220 0.929 . S
C189 C190 1.358 . S
C189 C191 1.356 . S
C189 H221 0.930 . S
C190 N187 1.279 . S
C190 C189 1.358 . S
C190 H193 0.930 . S
C191 C188 1.348 . S
C191 C189 1.356 . S
H192 C186 0.930 . S
H193 C190 0.930 . S
O194 Li134 1.956 . S
O194 Li135 1.970 . S
O194 Li136 1.961 . S
O194 C138 1.325 . S
O195 Li134 1.970 1_565 S
O195 Li135 1.956 1_565 S
O195 Li137 1.961 . S
O195 C144 1.325 . S
O196 Li134 1.961 . S
O196 Li136 1.956 . S
O196 Li137 1.970 1_545 S
O196 C166 1.325 1_455 S
O197 Li135 1.961 . S
O197 Li136 1.970 . S
O197 Li137 1.956 1_545 S
O197 C172 1.325 . S
H198 C140 0.929 . S
H199 C141 0.930 . S
H200 C142 0.930 . S
H201 C143 0.930 . S
H202 C145 0.930 . S
H203 C147 0.929 . S
H204 C148 0.930 . S
H205 C149 0.930 . S
H206 C152 0.930 . S
H207 C155 0.929 1_565 S
H208 C160 0.929 . S
H209 C161 0.930 1_565 S
H210 C168 0.929 1_565 S
H211 C169 0.930 . S
H212 C170 0.930 1_565 S
H213 C171 0.930 . S
H214 C173 0.929 . S
H215 C174 0.930 1_565 S
H216 C175 0.930 . S
H217 C176 0.930 1_565 S
H218 C180 0.929 . S
H219 C182 0.930 . S
H220 C188 0.929 . S
H221 C189 0.930 . S
H222 C228 0.930 1_565 S
H223 C232 0.930 . S
H224 C237 0.929 . S
H225 C235 0.929 1_565 S
H226 C230 0.929 . S
H227 C236 0.929 1_565 S
C228 H222 0.930 1_545 S
C228 C229 1.367 . S
C228 C236 1.378 . S
C229 C228 1.367 . S
C229 C237 1.433 . S
C230 H226 0.929 . S
C230 C232 1.378 . S
C230 C234 1.350 . S
C231 C234 1.463 . S
C231 C236 1.350 . S
C231 N239 1.427 . S
C232 H223 0.930 . S
C232 C230 1.378 . S
C232 C233 1.367 . S
C233 C232 1.367 . S
C233 C235 1.433 . S
C234 C230 1.350 . S
C234 C231 1.463 . S
C234 N238 1.427 . S
C235 H225 0.929 1_545 S
C235 C233 1.433 . S
C235 N238 1.384 . S
C236 H227 0.929 1_545 S
C236 C228 1.378 . S
C236 C231 1.350 . S
C237 H224 0.929 . S
C237 C229 1.433 . S
C237 N239 1.384 . S
N238 C234 1.427 . S
N238 C235 1.384 . S
N239 C231 1.427 . S
N239 C237 1.384 . S
H240 C246 0.930 . S
H241 C250 0.930 1_655 S
H242 C255 0.929 . S
H243 C253 0.929 . S
H244 C248 0.929 1_655 S
H245 C254 0.929 . S
C246 H240 0.930 . S
C246 C247 1.367 . S
C246 C254 1.378 . S
C247 C246 1.367 . S
C247 C255 1.433 1_455 S
C248 H244 0.929 1_455 S
C248 C250 1.378 . S
C248 C252 1.350 . S
C249 C252 1.463 . S
C249 C254 1.350 . S
C249 N257 1.437 . S
C250 H241 0.930 1_455 S
C250 C248 1.378 . S
C250 C251 1.367 . S
C251 C250 1.367 . S
C251 C253 1.433 . S
C252 C248 1.350 . S
C252 C249 1.463 . S
C252 N256 1.427 . S
C253 H243 0.929 . S
C253 C251 1.433 . S
C253 N256 1.384 . S
C254 H245 0.929 . S
C254 C246 1.378 . S
C254 C249 1.350 . S
C255 H242 0.929 . S
C255 C247 1.433 1_655 S
C255 N257 1.383 1_655 S
N256 C252 1.427 . S
N256 C253 1.384 . S
N257 C249 1.437 . S
N257 C255 1.383 1_455 S
H258 C264 0.930 . S
H259 C268 0.930 . S
H260 C273 0.929 . S
H261 C271 0.929 1_565 S
H262 C266 0.929 . S
H263 C272 0.929 1_565 S
C264 H258 0.930 . S
C264 C265 1.367 1_565 S
C264 C272 1.378 1_565 S
C265 C264 1.367 1_545 S
C265 C273 1.433 . S
C266 H262 0.929 . S
C266 C268 1.378 . S
C266 C270 1.350 . S
C267 C270 1.463 . S
C267 C272 1.350 . S
C267 N275 1.427 . S
C268 H259 0.930 . S
C268 C266 1.378 . S
C268 C269 1.367 . S
C269 C268 1.367 . S
C269 C271 1.433 . S
C270 C266 1.350 . S
C270 C267 1.463 . S
C270 N274 1.427 . S
C271 H261 0.929 1_545 S
C271 C269 1.433 . S
C271 N274 1.384 . S
C272 H263 0.929 1_545 S
C272 C264 1.378 1_545 S
C272 C267 1.350 . S
C273 H260 0.929 . S
C273 C265 1.433 . S
C273 N275 1.384 . S
N274 C270 1.427 . S
N274 C271 1.384 . S
N275 C267 1.427 . S
N275 C273 1.384 . S
H276 C282 0.930 . S
H277 C286 0.930 . S
H278 C291 0.929 . S
H279 C289 0.929 . S
H280 C284 0.929 . S
H281 C290 0.929 . S
C282 H276 0.930 . S
C282 C283 1.367 . S
C282 C290 1.378 . S
C283 C282 1.367 . S
C283 C291 1.433 . S
C284 H280 0.929 . S
C284 C286 1.378 . S
C284 C288 1.350 . S
C285 C288 1.463 . S
C285 C290 1.350 . S
C285 N293 1.427 . S
C286 H277 0.930 . S
C286 C284 1.378 . S
C286 C287 1.367 . S
C287 C286 1.367 . S
C287 C289 1.433 . S
C288 C284 1.350 . S
C288 C285 1.463 . S
C288 N292 1.427 . S
C289 H279 0.929 . S
C289 C287 1.433 . S
C289 N292 1.384 . S
C290 H281 0.929 . S
C290 C282 1.378 . S
C290 C285 1.350 . S
C291 H278 0.929 . S
C291 C283 1.433 . S
C291 N293 1.384 . S
N292 C288 1.427 . S
N292 C289 1.384 . S
N293 C285 1.427 . S
N293 C291 1.384 . S
H294 C300 0.930 . S
H295 C304 0.930 1_565 S
H296 C309 0.929 1_565 S
H297 C307 0.929 . S
H298 C302 0.929 1_565 S
H299 C308 0.929 . S
C300 H294 0.930 . S
C300 C301 1.367 . S
C300 C308 1.378 . S
C301 C300 1.367 . S
C301 C309 1.433 . S
C302 H298 0.929 1_545 S
C302 C304 1.378 . S
C302 C306 1.350 . S
C303 C306 1.463 . S
C303 C308 1.350 . S
C303 N311 1.427 . S
C304 H295 0.930 1_545 S
C304 C302 1.378 . S
C304 C305 1.367 . S
C305 C304 1.367 . S
C305 C307 1.433 . S
C306 C302 1.350 . S
C306 C303 1.463 . S
C306 N310 1.427 . S
C307 H297 0.929 . S
C307 C305 1.433 . S
C307 N310 1.384 . S
C308 H299 0.929 . S
C308 C300 1.378 . S
C308 C303 1.350 . S
C309 H296 0.929 1_545 S
C309 C301 1.433 . S
C309 N311 1.384 . S
N310 C306 1.427 . S
N310 C307 1.384 . S
N311 C303 1.427 . S
N311 C309 1.384 . S
H312 C318 0.930 . S
H313 C322 0.930 . S
H314 C327 0.929 . S
H315 C325 0.929 . S
H316 C320 0.929 . S
H317 C326 0.929 . S
C318 H312 0.930 . S
C318 C319 1.367 . S
C318 C326 1.378 . S
C319 C318 1.367 . S
C319 C327 1.433 . S
C320 H316 0.929 . S
C320 C322 1.378 . S
C320 C324 1.350 . S
C321 C324 1.463 . S
C321 C326 1.350 . S
C321 N329 1.427 . S
C322 H313 0.930 . S
C322 C320 1.378 . S
C322 C323 1.367 . S
C323 C322 1.367 . S
C323 C325 1.433 . S
C324 C320 1.350 . S
C324 C321 1.463 . S
C324 N328 1.427 . S
C325 H315 0.929 . S
C325 C323 1.433 . S
C325 N328 1.384 . S
C326 H317 0.929 . S
C326 C318 1.378 . S
C326 C321 1.350 . S
C327 H314 0.929 . S
C327 C319 1.433 . S
C327 N329 1.384 . S
N328 C324 1.427 . S
N328 C325 1.384 . S
N329 C321 1.427 . S
N329 C327 1.384 . S
H330 C336 0.930 . S
H331 C340 0.944 . S
H332 C345 0.929 1_565 S
H333 C343 0.929 . S
H334 C338 0.929 1_565 S
H335 C344 0.929 . S
C336 H330 0.930 . S
C336 C337 1.367 . S
C336 C344 1.378 . S
C337 C336 1.367 . S
C337 C345 1.433 . S
C338 H334 0.929 1_545 S
C338 C340 1.377 1_545 S
C338 C342 1.350 . S
C339 C342 1.463 . S
C339 C344 1.350 . S
C339 N347 1.427 . S
C340 H331 0.944 . S
C340 C338 1.377 1_565 S
C340 C341 1.353 1_565 S
C341 C340 1.353 1_545 S
C341 C343 1.433 . S
C342 C338 1.350 . S
C342 C339 1.463 . S
C342 N346 1.427 . S
C343 H333 0.929 . S
C343 C341 1.433 . S
C343 N346 1.384 . S
C344 H335 0.929 . S
C344 C336 1.378 . S
C344 C339 1.350 . S
C345 H332 0.929 1_545 S
C345 C337 1.433 . S
C345 N347 1.384 . S
N346 C342 1.427 . S
N346 C343 1.384 . S
N347 C339 1.427 . S
N347 C345 1.384 . S
H348 C354 0.930 . S
H349 C358 0.930 . S
H350 C363 0.929 . S
H351 C361 0.929 . S
H352 C356 0.929 . S
H353 C362 0.929 . S
C354 H348 0.930 . S
C354 C355 1.367 1_655 S
C354 C362 1.378 . S
C355 C354 1.367 1_455 S
C355 C363 1.433 . S
C356 H352 0.929 . S
C356 C358 1.378 . S
C356 C360 1.350 . S
C357 C360 1.463 . S
C357 C362 1.350 1_455 S
C357 N365 1.427 . S
C358 H349 0.930 . S
C358 C356 1.378 . S
C358 C359 1.367 . S
C359 C358 1.367 . S
C359 C361 1.433 1_455 S
C360 C356 1.350 . S
C360 C357 1.463 . S
C360 N364 1.427 1_455 S
C361 H351 0.929 . S
C361 C359 1.433 1_655 S
C361 N364 1.384 . S
C362 H353 0.929 . S
C362 C354 1.378 . S
C362 C357 1.350 1_655 S
C363 H350 0.929 . S
C363 C355 1.433 . S
C363 N365 1.384 . S
N364 C360 1.427 1_655 S
N364 C361 1.384 . S
N365 C357 1.427 . S
N365 C363 1.384 . S
C233 C95 1.461 . S
C229 N12 1.423 . S
C251 C183 1.501 . S
C247 N25 1.477 . S
C269 C103 1.449 . S
C265 C16 1.443 . S
C287 C191 1.494 . S
C283 C30 1.493 . S
C305 C163 1.493 . S
C301 C7 1.493 . S
C323 C66 1.448 . S
C319 C39 1.446 . S
C341 C154 1.504 . S
C337 N2 1.470 . S
C355 N35 1.431 . S
C359 C75 1.463 . S
