# Generated by pormake.
# Topology bcu-b, (8,8)-cn, num edge types: 1
# Building blocks:
#     Node 0, Type 0, BuildingBlock: VETTIZ_charged_sbu_0, # of connection points: 8
#     Node 1, Type 1, BuildingBlock: TAGTUT_clean_sbu_1, # of connection points: 8
#     Edge 2, Type (0, 1), BuildingBlock: FUNLAD_clean_linker_1, # of connection points: 2
#     Edge 3, Type (0, 1), BuildingBlock: FUNLAD_clean_linker_1, # of connection points: 2
#     Edge 4, Type (0, 1), BuildingBlock: FUNLAD_clean_linker_1, # of connection points: 2
#     Edge 5, Type (0, 1), BuildingBlock: FUNLAD_clean_linker_1, # of connection points: 2
#     Edge 6, Type (0, 1), BuildingBlock: FUNLAD_clean_linker_1, # of connection points: 2
#     Edge 7, Type (0, 1), BuildingBlock: FUNLAD_clean_linker_1, # of connection points: 2
#     Edge 8, Type (0, 1), BuildingBlock: FUNLAD_clean_linker_1, # of connection points: 2
#     Edge 9, Type (0, 1), BuildingBlock: FUNLAD_clean_linker_1, # of connection points: 2
# Relax obj value: 0.027
# Max RMSD: 0.119
# Mean RMSD: 0.086
data_MOF--net-bcu-b--node1-VETTIZ_charged_sbu_0--node2-TAGTUT_clean_sbu_1--edge1-FUNLAD_clean_linker_1
_symmetry_space_group_name_H-M    P1
_symmetry_Int_Tables_number       1
_symmetry_cell_setting            triclinic
loop_
_symmetry_equiv_pos_as_xyz
'x, y, z'
_cell_length_a     20.587304
_cell_length_b     19.724717
_cell_length_c     21.310914
_cell_angle_alpha  88.908226
_cell_angle_beta   91.500078
_cell_angle_gamma 99.830313
loop_
_atom_site_label
_atom_site_type_symbol
_atom_site_fract_x
_atom_site_fract_y
_atom_site_fract_z
_atom_type_partial_charge
Fe0 Fe 0.04644 0.86518 0.99654 0.0
O1 O 0.04691 0.96486 0.99624 0.0
Fe2 Fe 0.98946 1.00623 0.928 0.0
Fe3 Fe 0.021 0.0147 0.06979 0.0
O4 O 0.04589 0.9647 0.99045 0.0
O5 O 0.96352 0.05611 0.00156 0.0
O6 O 0.96447 0.05622 0.00737 0.0
Fe7 Fe 0.96335 0.1556 0.00106 0.0
C8 C 0.94434 0.87411 0.09755 0.0
O9 O 0.12522 0.89232 0.05828 0.0
O10 O 0.08535 0.96513 0.12572 0.0
O11 O 0.01924 0.17527 0.92136 0.0
O12 O 0.06794 0.08375 0.90949 0.0
O13 O 0.02416 0.94751 0.85861 0.0
O14 O 0.09404 0.88515 0.91224 0.0
O15 O 0.09942 0.0926 0.0552 0.0
O16 O 0.04727 0.18255 0.05609 0.0
C17 C 0.0694 0.90853 0.8609 0.0
O18 O 0.88417 0.12778 0.93967 0.0
O19 O 0.92486 0.05552 0.87216 0.0
O20 O 0.9893 0.84501 0.0755 0.0
O21 O 0.94264 0.93769 0.08838 0.0
C22 C 0.12689 0.92534 0.1107 0.0
C23 C 0.0984 0.15541 0.06658 0.0
C24 C 0.94105 0.11172 0.13729 0.0
O25 O 0.98599 0.07249 0.13924 0.0
O26 O 0.91681 0.13618 0.08619 0.0
C27 C 0.06531 0.14719 0.90023 0.0
O28 O 0.91094 0.92853 0.94285 0.0
O29 O 0.96302 0.83874 0.94073 0.0
C30 C 0.88292 0.09489 0.88715 0.0
C31 C 0.91186 0.86593 0.9307 0.0
C32 C 0.3359 0.66834 0.56982 0.0
C33 C 0.41851 0.66982 0.38867 0.0
C34 C 0.40335 0.39894 0.41465 0.0
Mg35 Mg 0.47715 0.66795 0.5224 0.0
O36 O 0.44757 0.57284 0.52938 0.0
Mg37 Mg 0.36327 0.53348 0.48395 0.0
Mg38 Mg 0.50566 0.50981 0.49906 0.0
O39 O 0.5635 0.44684 0.46855 0.0
Mg40 Mg 0.53349 0.35167 0.4732 0.0
Mg41 Mg 0.64755 0.48514 0.5147 0.0
C42 C 0.60767 0.62127 0.58192 0.0
C43 C 0.61717 0.59756 0.40817 0.0
O44 O 0.31451 0.61166 0.54108 0.0
O45 O 0.39653 0.6972 0.57042 0.0
O46 O 0.38079 0.61373 0.40345 0.0
O47 O 0.46416 0.69905 0.42574 0.0
O48 O 0.57356 0.66916 0.56962 0.0
O49 O 0.58861 0.55894 0.56429 0.0
C50 C 0.39515 0.4227 0.59129 0.0
O51 O 0.45585 0.43374 0.57523 0.0
O52 O 0.35216 0.45415 0.5643 0.0
O53 O 0.69661 0.40657 0.45759 0.0
O54 O 0.61383 0.32399 0.42397 0.0
O55 O 0.62844 0.40391 0.59434 0.0
C56 C 0.67483 0.35137 0.42673 0.0
O57 O 0.54621 0.31835 0.5693 0.0
O58 O 0.43733 0.35071 0.42567 0.0
C59 C 0.59082 0.34723 0.60761 0.0
O60 O 0.4225 0.46051 0.43407 0.0
O61 O 0.55611 0.5861 0.42318 0.0
O62 O 0.65976 0.56558 0.43527 0.0
H63 H 0.1948 0.16787 0.11657 0.0
C64 C 0.15327 0.19342 0.1044 0.0
H65 H 0.10572 0.2778 0.1221 0.0
H66 H 0.22006 0.31064 0.3994 0.0
H67 H 0.10245 0.2782 0.41558 0.0
H68 H 0.02546 0.24601 0.32621 0.0
H69 H 0.06538 0.24608 0.22032 0.0
C70 C 0.14847 0.25334 0.13168 0.0
C71 C 0.19408 0.28047 0.18406 0.0
C72 C 0.16951 0.28105 0.24569 0.0
C73 C 0.21385 0.29936 0.29734 0.0
C74 C 0.18843 0.29764 0.35854 0.0
C75 C 0.12106 0.279 0.36848 0.0
C76 C 0.07771 0.26092 0.31816 0.0
C77 C 0.10135 0.26144 0.25748 0.0
H78 H 0.31575 0.4256 0.36358 0.0
C79 C 0.34418 0.38474 0.37308 0.0
H80 H 0.36084 0.2863 0.34754 0.0
H81 H 0.25514 0.29718 0.07091 0.0
H82 H 0.37231 0.33282 0.05447 0.0
H83 H 0.44969 0.36141 0.14424 0.0
H84 H 0.41027 0.35519 0.25088 0.0
C85 C 0.33037 0.32586 0.34084 0.0
C86 C 0.2824 0.31694 0.28711 0.0
C87 C 0.30639 0.32017 0.22513 0.0
C88 C 0.26207 0.30261 0.17346 0.0
C89 C 0.28703 0.30808 0.11194 0.0
C90 C 0.35409 0.32894 0.10182 0.0
C91 C 0.39763 0.3451 0.15236 0.0
C92 C 0.37436 0.34103 0.21336 0.0
H93 H 0.94165 0.11574 0.24103 0.0
C94 C 0.92073 0.13481 0.19819 0.0
H95 H 0.86357 0.20478 0.15898 0.0
H96 H 0.75594 0.19945 0.44762 0.0
H97 H 0.72183 0.07558 0.43823 0.0
H98 H 0.75254 0.01476 0.34632 0.0
H99 H 0.81926 0.07645 0.26465 0.0
C100 C 0.88175 0.18263 0.20166 0.0
C101 C 0.86959 0.215 0.26171 0.0
C102 C 0.82942 0.17766 0.30809 0.0
C103 C 0.80868 0.21313 0.35936 0.0
C104 C 0.77062 0.17494 0.40651 0.0
C105 C 0.75116 0.104 0.40186 0.0
C106 C 0.76872 0.06971 0.35024 0.0
C107 C 0.80727 0.10583 0.30369 0.0
H108 H 0.69696 0.28051 0.35599 0.0
C109 C 0.71973 0.31694 0.39115 0.0
H110 H 0.80956 0.36103 0.43585 0.0
H111 H 0.95891 0.29843 0.18937 0.0
H112 H 0.99687 0.42094 0.20256 0.0
H113 H 0.95594 0.48313 0.28855 0.0
H114 H 0.8775 0.42293 0.36241 0.0
C115 C 0.78522 0.32492 0.40128 0.0
C116 C 0.82469 0.28595 0.36194 0.0
C117 C 0.87084 0.32186 0.31982 0.0
C118 C 0.89351 0.28622 0.26968 0.0
C119 C 0.93926 0.32328 0.2277 0.0
C120 C 0.9616 0.39351 0.23487 0.0
C121 C 0.93861 0.4285 0.28334 0.0
C122 C 0.89349 0.39341 0.32531 0.0
H123 H 0.89988 0.77871 0.14655 0.0
C124 C 0.8946 0.83195 0.13742 0.0
H125 H 0.83965 0.91006 0.15682 0.0
H126 H 0.65862 0.60552 0.24084 0.0
H127 H 0.64958 0.58202 0.12931 0.0
H128 H 0.70694 0.66494 0.0525 0.0
H129 H 0.77445 0.7715 0.08687 0.0
C130 C 0.84476 0.8565 0.16381 0.0
C131 C 0.79977 0.81281 0.20815 0.0
C132 C 0.7583 0.75204 0.1872 0.0
C133 C 0.72348 0.7052 0.23141 0.0
C134 C 0.6851 0.64344 0.20932 0.0
C135 C 0.67951 0.6293 0.1454 0.0
C136 C 0.71191 0.67592 0.10214 0.0
C137 C 0.75087 0.73665 0.12251 0.0
H138 H 0.60309 0.67511 0.33419 0.0
C139 C 0.63942 0.64961 0.3586 0.0
H140 H 0.7404 0.64283 0.36981 0.0
H141 H 0.86708 0.92929 0.26332 0.0
H142 H 0.87005 0.95635 0.37396 0.0
H143 H 0.80795 0.87629 0.45017 0.0
H144 H 0.74247 0.76841 0.41609 0.0
C145 C 0.70356 0.66634 0.34403 0.0
C146 C 0.72878 0.72014 0.29637 0.0
C147 C 0.76581 0.78359 0.31663 0.0
C148 C 0.80119 0.83005 0.27254 0.0
C149 C 0.83897 0.89224 0.29458 0.0
C150 C 0.84117 0.90842 0.35803 0.0
C151 C 0.80622 0.86334 0.40095 0.0
C152 C 0.76901 0.80153 0.3808 0.0
H153 H 0.18311 0.94475 0.20058 0.0
C154 C 0.17811 0.91444 0.15812 0.0
H155 H 0.21122 0.83523 0.109 0.0
H156 H 0.47989 0.81841 0.24171 0.0
H157 H 0.51519 0.86427 0.13909 0.0
H158 H 0.43633 0.90501 0.0642 0.0
H159 H 0.32173 0.89983 0.09108 0.0
C160 C 0.21526 0.86505 0.15171 0.0
C161 C 0.26393 0.84902 0.20049 0.0
C162 C 0.33116 0.85378 0.18451 0.0
C163 C 0.37694 0.83102 0.22785 0.0
C164 C 0.44333 0.8351 0.21034 0.0
C165 C 0.4642 0.86141 0.15174 0.0
C166 C 0.41977 0.8843 0.10956 0.0
C167 C 0.35404 0.88078 0.1255 0.0
H168 H 0.3716 0.67494 0.29537 0.0
C169 C 0.40017 0.7059 0.33151 0.0
H170 H 0.42452 0.80556 0.36919 0.0
H171 H 0.13745 0.82514 0.24523 0.0
H172 H 0.1043 0.78328 0.34873 0.0
H173 H 0.18567 0.75248 0.42627 0.0
H174 H 0.30097 0.76306 0.40039 0.0
C175 C 0.40132 0.77422 0.33071 0.0
C176 C 0.35575 0.80441 0.28731 0.0
C177 C 0.28932 0.80234 0.30453 0.0
C178 C 0.24289 0.82285 0.26058 0.0
C179 C 0.17575 0.81404 0.27741 0.0
C180 C 0.15575 0.78926 0.3367 0.0
C181 C 0.20155 0.77183 0.38035 0.0
C182 C 0.26754 0.77796 0.36471 0.0
H183 H 0.05339 0.88153 0.76088 0.0
C184 C 0.08691 0.88057 0.80101 0.0
H185 H 0.17094 0.84555 0.83838 0.0
H186 H 0.18925 0.58525 0.69477 0.0
H187 H 0.15898 0.53914 0.79841 0.0
H188 H 0.12009 0.61166 0.87761 0.0
H189 H 0.11236 0.73088 0.85411 0.0
C190 C 0.13856 0.84747 0.79748 0.0
C191 C 0.14722 0.80168 0.74463 0.0
C192 C 0.14849 0.73107 0.75825 0.0
C193 C 0.16927 0.6887 0.71223 0.0
C194 C 0.17326 0.61943 0.72799 0.0
C195 C 0.15584 0.59228 0.78721 0.0
C196 C 0.13407 0.63314 0.83182 0.0
C197 C 0.13026 0.70167 0.8178 0.0
H198 H 0.31218 0.75084 0.62771 0.0
C199 C 0.29069 0.70319 0.60464 0.0
H200 H 0.2033 0.63059 0.59068 0.0
H201 H 0.14563 0.9335 0.69986 0.0
H202 H 0.16333 0.97399 0.59262 0.0
H203 H 0.19178 0.89721 0.51149 0.0
H204 H 0.20252 0.77898 0.53754 0.0
C205 C 0.22615 0.67922 0.61101 0.0
C206 C 0.18762 0.71665 0.65245 0.0
C207 C 0.17861 0.78452 0.63636 0.0
C208 C 0.15985 0.82787 0.6828 0.0
C209 C 0.15653 0.89707 0.66619 0.0
C210 C 0.16736 0.92132 0.6048 0.0
C211 C 0.18348 0.87816 0.55909 0.0
C212 C 0.18965 0.81066 0.57458 0.0
H213 H 0.10164 0.23828 0.84205 0.0
C214 C 0.11431 0.19025 0.86036 0.0
H215 H 0.18682 0.12651 0.86524 0.0
H216 H 0.31674 0.24381 0.60951 0.0
H217 H 0.29283 0.12087 0.59222 0.0
H218 H 0.23631 0.04189 0.67228 0.0
H219 H 0.20116 0.08509 0.76897 0.0
C220 C 0.17349 0.1743 0.84725 0.0
C221 C 0.21994 0.21985 0.8051 0.0
C222 C 0.24065 0.19345 0.74886 0.0
C223 C 0.27449 0.23908 0.70308 0.0
C224 C 0.29201 0.21159 0.64627 0.0
C225 C 0.27838 0.14109 0.63562 0.0
C226 C 0.24624 0.09659 0.68055 0.0
C227 C 0.22669 0.12217 0.73616 0.0
H228 H 0.41005 0.34397 0.66379 0.0
C229 C 0.37402 0.37213 0.64231 0.0
H230 H 0.2757 0.38998 0.64239 0.0
H231 H 0.20727 0.28414 0.9158 0.0
H232 H 0.23742 0.40632 0.93598 0.0
H233 H 0.29004 0.48627 0.85444 0.0
H234 H 0.31447 0.44417 0.75284 0.0
C235 C 0.31143 0.3604 0.66221 0.0
C236 C 0.28821 0.31089 0.71397 0.0
C237 C 0.27288 0.33636 0.77254 0.0
C238 C 0.24019 0.29066 0.81869 0.0
C239 C 0.22891 0.31712 0.87799 0.0
C240 C 0.24665 0.38701 0.89042 0.0
C241 C 0.27644 0.43199 0.84457 0.0
C242 C 0.28984 0.40722 0.78636 0.0
H243 H 0.82413 0.07143 0.79924 0.0
C244 C 0.83148 0.10491 0.83966 0.0
H245 H 0.80369 0.19002 0.88398 0.0
H246 H 0.70259 0.23852 0.59036 0.0
H247 H 0.8151 0.23881 0.55952 0.0
H248 H 0.89875 0.21169 0.6366 0.0
H249 H 0.87028 0.18293 0.74422 0.0
C250 C 0.79688 0.1568 0.84339 0.0
C251 C 0.74684 0.17063 0.79495 0.0
C252 C 0.76532 0.18936 0.73229 0.0
C253 C 0.71782 0.20802 0.68842 0.0
C254 C 0.73694 0.22508 0.62586 0.0
C255 C 0.80138 0.22547 0.60747 0.0
C256 C 0.84839 0.21 0.65081 0.0
C257 C 0.83104 0.19268 0.71255 0.0
H258 H 0.63536 0.34068 0.70181 0.0
C259 C 0.60811 0.31022 0.66462 0.0
H260 H 0.58644 0.21161 0.62464 0.0
H261 H 0.6933 0.13328 0.9095 0.0
H262 H 0.58129 0.13691 0.9402 0.0
H263 H 0.50109 0.17484 0.86504 0.0
H264 H 0.53244 0.20897 0.75833 0.0
C265 C 0.60783 0.24205 0.66438 0.0
C266 C 0.65323 0.21185 0.70798 0.0
C267 C 0.63445 0.19231 0.76994 0.0
C268 C 0.68105 0.17113 0.81334 0.0
C269 C 0.66041 0.15095 0.87482 0.0
C270 C 0.59614 0.1525 0.893 0.0
C271 C 0.55096 0.17382 0.85068 0.0
C272 C 0.56959 0.19346 0.78973 0.0
H273 H 0.81503 0.85374 0.88142 0.0
C274 C 0.85709 0.82857 0.89234 0.0
H275 H 0.90599 0.74609 0.87129 0.0
H276 H 0.60195 0.66031 0.74523 0.0
H277 H 0.5641 0.64809 0.85241 0.0
H278 H 0.64179 0.67785 0.94174 0.0
H279 H 0.75777 0.72046 0.92436 0.0
C280 C 0.8626 0.76993 0.86318 0.0
C281 C 0.81692 0.74386 0.81058 0.0
C282 C 0.74968 0.7179 0.82172 0.0
C283 C 0.70518 0.69985 0.77028 0.0
C284 C 0.63795 0.67494 0.78258 0.0
C285 C 0.61559 0.66746 0.84389 0.0
C286 C 0.65932 0.68426 0.89418 0.0
C287 C 0.72567 0.70907 0.88353 0.0
H288 H 0.69602 0.5968 0.63322 0.0
C289 C 0.66688 0.63695 0.62323 0.0
H290 H 0.64884 0.73534 0.6476 0.0
H291 H 0.94417 0.78676 0.77312 0.0
H292 H 0.98255 0.79484 0.66628 0.0
H293 H 0.90507 0.7629 0.57714 0.0
H294 H 0.78867 0.72234 0.59456 0.0
C295 C 0.67986 0.69635 0.65474 0.0
C296 C 0.72828 0.70677 0.70796 0.0
C297 C 0.79613 0.72918 0.69697 0.0
C298 C 0.84066 0.74761 0.74841 0.0
C299 C 0.9081 0.77153 0.73601 0.0
C300 C 0.93082 0.77659 0.6748 0.0
C301 C 0.88721 0.75861 0.62463 0.0
C302 C 0.82056 0.73535 0.63527 0.0
loop_
_geom_bond_atom_site_label_1
_geom_bond_atom_site_label_2
_geom_bond_distance
_geom_bond_site_symmetry_2
_ccdc_geom_bond_type
Fe0 O1 1.894 . S
Fe0 O4 1.706 1_554 S
Fe0 O9 2.085 1_655 S
Fe0 O14 1.928 1_654 S
Fe0 O20 2.085 . S
Fe0 O29 1.929 1_554 S
O1 Fe0 1.894 . S
O1 Fe3 1.715 1_665 S
Fe2 O4 1.886 . S
Fe2 O5 1.715 1_665 S
Fe2 O12 1.935 1_665 S
Fe2 O13 2.077 1_655 S
Fe2 O19 1.935 1_565 S
Fe2 O28 2.077 . S
Fe3 O1 1.715 1_445 S
Fe3 O6 1.886 . S
Fe3 O10 1.935 1_545 S
Fe3 O15 2.077 . S
Fe3 O21 1.935 1_445 S
Fe3 O25 2.077 1_455 S
O4 Fe0 1.706 1_556 S
O4 Fe2 1.886 . S
O5 Fe2 1.715 1_445 S
O5 Fe7 1.891 . S
O6 Fe3 1.886 . S
O6 Fe7 1.709 1_554 S
Fe7 O5 1.891 . S
Fe7 O6 1.709 1_556 S
Fe7 O11 2.082 . S
Fe7 O16 1.931 1_556 S
Fe7 O18 2.082 1_455 S
Fe7 O26 1.931 1_456 S
C8 O20 1.381 . S
C8 O21 1.421 . S
O9 Fe0 2.085 1_455 S
O9 C22 1.381 . S
O10 Fe3 1.935 1_565 S
O10 C22 1.421 . S
O11 Fe7 2.082 . S
O11 C27 1.381 . S
O12 Fe2 1.935 1_445 S
O12 C27 1.421 . S
O13 Fe2 2.077 1_455 S
O13 C17 1.381 . S
O14 Fe0 1.928 1_456 S
O14 C17 1.421 . S
O15 Fe3 2.077 . S
O15 C23 1.381 . S
O16 Fe7 1.931 1_554 S
O16 C23 1.421 . S
C17 O13 1.381 . S
C17 O14 1.421 . S
O18 Fe7 2.082 1_655 S
O18 C30 1.381 . S
O19 Fe2 1.935 1_545 S
O19 C30 1.421 . S
O20 Fe0 2.085 . S
O20 C8 1.381 . S
O21 Fe3 1.935 1_665 S
O21 C8 1.421 . S
C22 O9 1.381 . S
C22 O10 1.421 . S
C23 O15 1.381 . S
C23 O16 1.421 . S
C24 O25 1.381 . S
C24 O26 1.421 . S
O25 Fe3 2.077 1_655 S
O25 C24 1.381 . S
O26 Fe7 1.931 1_654 S
O26 C24 1.421 . S
C27 O11 1.381 . S
C27 O12 1.421 . S
O28 Fe2 2.077 . S
O28 C31 1.381 . S
O29 Fe0 1.929 1_556 S
O29 C31 1.421 . S
C30 O18 1.381 . S
C30 O19 1.421 . S
C31 O28 1.381 . S
C31 O29 1.421 . S
C32 O44 1.241 . S
C32 O45 1.280 . S
C33 O46 1.277 . S
C33 O47 1.245 . S
C34 O58 1.247 . S
C34 O60 1.289 . S
Mg35 O36 1.926 . S
Mg35 O45 1.984 . S
Mg35 O47 1.988 . S
Mg35 O48 2.061 . S
O36 Mg35 1.926 . S
O36 Mg37 1.986 . S
O36 Mg38 1.917 . S
Mg37 O36 1.986 . S
Mg37 O44 2.042 . S
Mg37 O46 2.041 . S
Mg37 O52 2.038 . S
Mg37 O60 2.238 . S
Mg38 O36 1.917 . S
Mg38 O39 1.917 . S
Mg38 O49 2.106 . S
Mg38 O51 2.079 . S
Mg38 O60 2.106 . S
Mg38 O61 2.079 . S
O39 Mg38 1.917 . S
O39 Mg40 1.926 . S
O39 Mg41 1.986 . S
Mg40 O39 1.926 . S
Mg40 O54 1.984 . S
Mg40 O57 1.988 . S
Mg40 O58 2.061 . S
Mg41 O39 1.986 . S
Mg41 O49 2.238 . S
Mg41 O53 2.042 . S
Mg41 O55 2.041 . S
Mg41 O62 2.038 . S
C42 O48 1.247 . S
C42 O49 1.289 . S
C43 O61 1.245 . S
C43 O62 1.274 . S
O44 C32 1.241 . S
O44 Mg37 2.042 . S
O45 C32 1.280 . S
O45 Mg35 1.984 . S
O46 C33 1.277 . S
O46 Mg37 2.041 . S
O47 C33 1.245 . S
O47 Mg35 1.988 . S
O48 Mg35 2.061 . S
O48 C42 1.247 . S
O49 Mg38 2.106 . S
O49 Mg41 2.238 . S
O49 C42 1.289 . S
C50 O51 1.245 . S
C50 O52 1.274 . S
O51 Mg38 2.079 . S
O51 C50 1.245 . S
O52 Mg37 2.038 . S
O52 C50 1.274 . S
O53 Mg41 2.042 . S
O53 C56 1.241 . S
O54 Mg40 1.984 . S
O54 C56 1.280 . S
O55 Mg41 2.041 . S
O55 C59 1.277 . S
C56 O53 1.241 . S
C56 O54 1.280 . S
O57 Mg40 1.988 . S
O57 C59 1.245 . S
O58 C34 1.247 . S
O58 Mg40 2.061 . S
C59 O55 1.277 . S
C59 O57 1.245 . S
O60 C34 1.289 . S
O60 Mg37 2.238 . S
O60 Mg38 2.106 . S
O61 Mg38 2.079 . S
O61 C43 1.245 . S
O62 Mg41 2.038 . S
O62 C43 1.274 . S
H63 C64 0.951 . S
C64 H63 0.951 . S
C64 C70 1.265 . S
H65 C70 0.950 . S
H66 C74 0.949 . S
H67 C75 0.950 . S
H68 C76 0.951 . S
H69 C77 0.951 . S
C70 C64 1.265 . S
C70 H65 0.950 . S
C70 C71 1.478 . S
C71 C70 1.478 . S
C71 C72 1.397 . S
C71 C88 1.394 . S
C72 C71 1.397 . S
C72 C73 1.438 . S
C72 C77 1.429 . S
C73 C72 1.438 . S
C73 C74 1.428 . S
C73 C86 1.394 . S
C74 H66 0.949 . S
C74 C73 1.428 . S
C74 C75 1.345 . S
C75 H67 0.950 . S
C75 C74 1.345 . S
C75 C76 1.424 . S
C76 H68 0.951 . S
C76 C75 1.424 . S
C76 C77 1.347 . S
C77 H69 0.951 . S
C77 C72 1.429 . S
C77 C76 1.347 . S
H78 C79 0.951 . S
C79 H78 0.951 . S
C79 C85 1.265 . S
H80 C85 0.950 . S
H81 C89 0.949 . S
H82 C90 0.950 . S
H83 C91 0.951 . S
H84 C92 0.951 . S
C85 C79 1.265 . S
C85 H80 0.950 . S
C85 C86 1.478 . S
C86 C73 1.394 . S
C86 C85 1.478 . S
C86 C87 1.397 . S
C87 C86 1.397 . S
C87 C88 1.438 . S
C87 C92 1.429 . S
C88 C71 1.394 . S
C88 C87 1.438 . S
C88 C89 1.428 . S
C89 H81 0.949 . S
C89 C88 1.428 . S
C89 C90 1.345 . S
C90 H82 0.950 . S
C90 C89 1.345 . S
C90 C91 1.424 . S
C91 H83 0.951 . S
C91 C90 1.424 . S
C91 C92 1.347 . S
C92 H84 0.951 . S
C92 C87 1.429 . S
C92 C91 1.347 . S
H93 C94 0.951 . S
C94 H93 0.951 . S
C94 C100 1.265 . S
H95 C100 0.950 . S
H96 C104 0.949 . S
H97 C105 0.950 . S
H98 C106 0.951 . S
H99 C107 0.951 . S
C100 C94 1.265 . S
C100 H95 0.950 . S
C100 C101 1.478 . S
C101 C100 1.478 . S
C101 C102 1.397 . S
C101 C118 1.394 . S
C102 C101 1.397 . S
C102 C103 1.438 . S
C102 C107 1.429 . S
C103 C102 1.438 . S
C103 C104 1.428 . S
C103 C116 1.394 . S
C104 H96 0.949 . S
C104 C103 1.428 . S
C104 C105 1.345 . S
C105 H97 0.950 . S
C105 C104 1.345 . S
C105 C106 1.424 . S
C106 H98 0.951 . S
C106 C105 1.424 . S
C106 C107 1.347 . S
C107 H99 0.951 . S
C107 C102 1.429 . S
C107 C106 1.347 . S
H108 C109 0.951 . S
C109 H108 0.951 . S
C109 C115 1.265 . S
H110 C115 0.950 . S
H111 C119 0.949 . S
H112 C120 0.950 . S
H113 C121 0.951 . S
H114 C122 0.951 . S
C115 C109 1.265 . S
C115 H110 0.950 . S
C115 C116 1.478 . S
C116 C103 1.394 . S
C116 C115 1.478 . S
C116 C117 1.397 . S
C117 C116 1.397 . S
C117 C118 1.438 . S
C117 C122 1.429 . S
C118 C101 1.394 . S
C118 C117 1.438 . S
C118 C119 1.428 . S
C119 H111 0.949 . S
C119 C118 1.428 . S
C119 C120 1.345 . S
C120 H112 0.950 . S
C120 C119 1.345 . S
C120 C121 1.424 . S
C121 H113 0.951 . S
C121 C120 1.424 . S
C121 C122 1.347 . S
C122 H114 0.951 . S
C122 C117 1.429 . S
C122 C121 1.347 . S
H123 C124 0.951 . S
C124 H123 0.951 . S
C124 C130 1.265 . S
H125 C130 0.950 . S
H126 C134 0.949 . S
H127 C135 0.950 . S
H128 C136 0.951 . S
H129 C137 0.951 . S
C130 C124 1.265 . S
C130 H125 0.950 . S
C130 C131 1.478 . S
C131 C130 1.478 . S
C131 C132 1.397 . S
C131 C148 1.394 . S
C132 C131 1.397 . S
C132 C133 1.438 . S
C132 C137 1.429 . S
C133 C132 1.438 . S
C133 C134 1.428 . S
C133 C146 1.394 . S
C134 H126 0.949 . S
C134 C133 1.428 . S
C134 C135 1.345 . S
C135 H127 0.950 . S
C135 C134 1.345 . S
C135 C136 1.424 . S
C136 H128 0.951 . S
C136 C135 1.424 . S
C136 C137 1.347 . S
C137 H129 0.951 . S
C137 C132 1.429 . S
C137 C136 1.347 . S
H138 C139 0.951 . S
C139 H138 0.951 . S
C139 C145 1.265 . S
H140 C145 0.950 . S
H141 C149 0.949 . S
H142 C150 0.950 . S
H143 C151 0.951 . S
H144 C152 0.951 . S
C145 C139 1.265 . S
C145 H140 0.950 . S
C145 C146 1.478 . S
C146 C133 1.394 . S
C146 C145 1.478 . S
C146 C147 1.397 . S
C147 C146 1.397 . S
C147 C148 1.438 . S
C147 C152 1.429 . S
C148 C131 1.394 . S
C148 C147 1.438 . S
C148 C149 1.428 . S
C149 H141 0.949 . S
C149 C148 1.428 . S
C149 C150 1.345 . S
C150 H142 0.950 . S
C150 C149 1.345 . S
C150 C151 1.424 . S
C151 H143 0.951 . S
C151 C150 1.424 . S
C151 C152 1.347 . S
C152 H144 0.951 . S
C152 C147 1.429 . S
C152 C151 1.347 . S
H153 C154 0.951 . S
C154 H153 0.951 . S
C154 C160 1.265 . S
H155 C160 0.950 . S
H156 C164 0.949 . S
H157 C165 0.950 . S
H158 C166 0.951 . S
H159 C167 0.951 . S
C160 C154 1.265 . S
C160 H155 0.950 . S
C160 C161 1.478 . S
C161 C160 1.478 . S
C161 C162 1.397 . S
C161 C178 1.394 . S
C162 C161 1.397 . S
C162 C163 1.438 . S
C162 C167 1.429 . S
C163 C162 1.438 . S
C163 C164 1.428 . S
C163 C176 1.394 . S
C164 H156 0.949 . S
C164 C163 1.428 . S
C164 C165 1.345 . S
C165 H157 0.950 . S
C165 C164 1.345 . S
C165 C166 1.424 . S
C166 H158 0.951 . S
C166 C165 1.424 . S
C166 C167 1.347 . S
C167 H159 0.951 . S
C167 C162 1.429 . S
C167 C166 1.347 . S
H168 C169 0.951 . S
C169 H168 0.951 . S
C169 C175 1.265 . S
H170 C175 0.950 . S
H171 C179 0.949 . S
H172 C180 0.950 . S
H173 C181 0.951 . S
H174 C182 0.951 . S
C175 C169 1.265 . S
C175 H170 0.950 . S
C175 C176 1.478 . S
C176 C163 1.394 . S
C176 C175 1.478 . S
C176 C177 1.397 . S
C177 C176 1.397 . S
C177 C178 1.438 . S
C177 C182 1.429 . S
C178 C161 1.394 . S
C178 C177 1.438 . S
C178 C179 1.428 . S
C179 H171 0.949 . S
C179 C178 1.428 . S
C179 C180 1.345 . S
C180 H172 0.950 . S
C180 C179 1.345 . S
C180 C181 1.424 . S
C181 H173 0.951 . S
C181 C180 1.424 . S
C181 C182 1.347 . S
C182 H174 0.951 . S
C182 C177 1.429 . S
C182 C181 1.347 . S
H183 C184 0.951 . S
C184 H183 0.951 . S
C184 C190 1.265 . S
H185 C190 0.950 . S
H186 C194 0.949 . S
H187 C195 0.950 . S
H188 C196 0.951 . S
H189 C197 0.951 . S
C190 C184 1.265 . S
C190 H185 0.950 . S
C190 C191 1.478 . S
C191 C190 1.478 . S
C191 C192 1.397 . S
C191 C208 1.394 . S
C192 C191 1.397 . S
C192 C193 1.438 . S
C192 C197 1.429 . S
C193 C192 1.438 . S
C193 C194 1.428 . S
C193 C206 1.394 . S
C194 H186 0.949 . S
C194 C193 1.428 . S
C194 C195 1.345 . S
C195 H187 0.950 . S
C195 C194 1.345 . S
C195 C196 1.424 . S
C196 H188 0.951 . S
C196 C195 1.424 . S
C196 C197 1.347 . S
C197 H189 0.951 . S
C197 C192 1.429 . S
C197 C196 1.347 . S
H198 C199 0.951 . S
C199 H198 0.951 . S
C199 C205 1.265 . S
H200 C205 0.950 . S
H201 C209 0.949 . S
H202 C210 0.950 . S
H203 C211 0.951 . S
H204 C212 0.951 . S
C205 C199 1.265 . S
C205 H200 0.950 . S
C205 C206 1.478 . S
C206 C193 1.394 . S
C206 C205 1.478 . S
C206 C207 1.397 . S
C207 C206 1.397 . S
C207 C208 1.438 . S
C207 C212 1.429 . S
C208 C191 1.394 . S
C208 C207 1.438 . S
C208 C209 1.428 . S
C209 H201 0.949 . S
C209 C208 1.428 . S
C209 C210 1.345 . S
C210 H202 0.950 . S
C210 C209 1.345 . S
C210 C211 1.424 . S
C211 H203 0.951 . S
C211 C210 1.424 . S
C211 C212 1.347 . S
C212 H204 0.951 . S
C212 C207 1.429 . S
C212 C211 1.347 . S
H213 C214 0.951 . S
C214 H213 0.951 . S
C214 C220 1.265 . S
H215 C220 0.950 . S
H216 C224 0.949 . S
H217 C225 0.950 . S
H218 C226 0.951 . S
H219 C227 0.951 . S
C220 C214 1.265 . S
C220 H215 0.950 . S
C220 C221 1.478 . S
C221 C220 1.478 . S
C221 C222 1.397 . S
C221 C238 1.394 . S
C222 C221 1.397 . S
C222 C223 1.438 . S
C222 C227 1.429 . S
C223 C222 1.438 . S
C223 C224 1.428 . S
C223 C236 1.394 . S
C224 H216 0.949 . S
C224 C223 1.428 . S
C224 C225 1.345 . S
C225 H217 0.950 . S
C225 C224 1.345 . S
C225 C226 1.424 . S
C226 H218 0.951 . S
C226 C225 1.424 . S
C226 C227 1.347 . S
C227 H219 0.951 . S
C227 C222 1.429 . S
C227 C226 1.347 . S
H228 C229 0.951 . S
C229 H228 0.951 . S
C229 C235 1.265 . S
H230 C235 0.950 . S
H231 C239 0.949 . S
H232 C240 0.950 . S
H233 C241 0.951 . S
H234 C242 0.951 . S
C235 C229 1.265 . S
C235 H230 0.950 . S
C235 C236 1.478 . S
C236 C223 1.394 . S
C236 C235 1.478 . S
C236 C237 1.397 . S
C237 C236 1.397 . S
C237 C238 1.438 . S
C237 C242 1.429 . S
C238 C221 1.394 . S
C238 C237 1.438 . S
C238 C239 1.428 . S
C239 H231 0.949 . S
C239 C238 1.428 . S
C239 C240 1.345 . S
C240 H232 0.950 . S
C240 C239 1.345 . S
C240 C241 1.424 . S
C241 H233 0.951 . S
C241 C240 1.424 . S
C241 C242 1.347 . S
C242 H234 0.951 . S
C242 C237 1.429 . S
C242 C241 1.347 . S
H243 C244 0.951 . S
C244 H243 0.951 . S
C244 C250 1.265 . S
H245 C250 0.950 . S
H246 C254 0.949 . S
H247 C255 0.950 . S
H248 C256 0.951 . S
H249 C257 0.951 . S
C250 C244 1.265 . S
C250 H245 0.950 . S
C250 C251 1.478 . S
C251 C250 1.478 . S
C251 C252 1.397 . S
C251 C268 1.394 . S
C252 C251 1.397 . S
C252 C253 1.438 . S
C252 C257 1.429 . S
C253 C252 1.438 . S
C253 C254 1.428 . S
C253 C266 1.394 . S
C254 H246 0.949 . S
C254 C253 1.428 . S
C254 C255 1.345 . S
C255 H247 0.950 . S
C255 C254 1.345 . S
C255 C256 1.424 . S
C256 H248 0.951 . S
C256 C255 1.424 . S
C256 C257 1.347 . S
C257 H249 0.951 . S
C257 C252 1.429 . S
C257 C256 1.347 . S
H258 C259 0.951 . S
C259 H258 0.951 . S
C259 C265 1.265 . S
H260 C265 0.950 . S
H261 C269 0.949 . S
H262 C270 0.950 . S
H263 C271 0.951 . S
H264 C272 0.951 . S
C265 C259 1.265 . S
C265 H260 0.950 . S
C265 C266 1.478 . S
C266 C253 1.394 . S
C266 C265 1.478 . S
C266 C267 1.397 . S
C267 C266 1.397 . S
C267 C268 1.438 . S
C267 C272 1.429 . S
C268 C251 1.394 . S
C268 C267 1.438 . S
C268 C269 1.428 . S
C269 H261 0.949 . S
C269 C268 1.428 . S
C269 C270 1.345 . S
C270 H262 0.950 . S
C270 C269 1.345 . S
C270 C271 1.424 . S
C271 H263 0.951 . S
C271 C270 1.424 . S
C271 C272 1.347 . S
C272 H264 0.951 . S
C272 C267 1.429 . S
C272 C271 1.347 . S
H273 C274 0.951 . S
C274 H273 0.951 . S
C274 C280 1.265 . S
H275 C280 0.950 . S
H276 C284 0.949 . S
H277 C285 0.950 . S
H278 C286 0.951 . S
H279 C287 0.951 . S
C280 C274 1.265 . S
C280 H275 0.950 . S
C280 C281 1.478 . S
C281 C280 1.478 . S
C281 C282 1.397 . S
C281 C298 1.394 . S
C282 C281 1.397 . S
C282 C283 1.438 . S
C282 C287 1.429 . S
C283 C282 1.438 . S
C283 C284 1.428 . S
C283 C296 1.394 . S
C284 H276 0.949 . S
C284 C283 1.428 . S
C284 C285 1.345 . S
C285 H277 0.950 . S
C285 C284 1.345 . S
C285 C286 1.424 . S
C286 H278 0.951 . S
C286 C285 1.424 . S
C286 C287 1.347 . S
C287 H279 0.951 . S
C287 C282 1.429 . S
C287 C286 1.347 . S
H288 C289 0.951 . S
C289 H288 0.951 . S
C289 C295 1.265 . S
H290 C295 0.950 . S
H291 C299 0.949 . S
H292 C300 0.950 . S
H293 C301 0.951 . S
H294 C302 0.951 . S
C295 C289 1.265 . S
C295 H290 0.950 . S
C295 C296 1.478 . S
C296 C283 1.394 . S
C296 C295 1.478 . S
C296 C297 1.397 . S
C297 C296 1.397 . S
C297 C298 1.438 . S
C297 C302 1.429 . S
C298 C281 1.394 . S
C298 C297 1.438 . S
C298 C299 1.428 . S
C299 H291 0.949 . S
C299 C298 1.428 . S
C299 C300 1.345 . S
C300 H292 0.950 . S
C300 C299 1.345 . S
C300 C301 1.424 . S
C301 H293 0.951 . S
C301 C300 1.424 . S
C301 C302 1.347 . S
C302 H294 0.951 . S
C302 C297 1.429 . S
C302 C301 1.347 . S
C64 C23 1.212 . S
C79 C34 1.149 . S
C94 C24 1.466 . S
C109 C56 1.507 . S
C124 C8 1.456 . S
C139 C43 1.519 . S
C154 C22 1.619 . S
C169 C33 1.581 . S
C184 C17 1.469 . S
C199 C32 1.528 . S
C229 C50 1.515 . S
C214 C27 1.457 . S
C244 C30 1.625 . S
C259 C59 1.574 . S
C289 C42 1.171 . S
C274 C31 1.219 . S
