# Generated by pormake.
# Topology iac, (4,6)-cn, num edge types: 1
# Building blocks:
#     Node 0, Type 0, BuildingBlock: UXUYUI_clean_sbu_0, # of connection points: 4
#     Node 1, Type 0, BuildingBlock: UXUYUI_clean_sbu_0, # of connection points: 4
#     Node 2, Type 0, BuildingBlock: UXUYUI_clean_sbu_0, # of connection points: 4
#     Node 3, Type 0, BuildingBlock: UXUYUI_clean_sbu_0, # of connection points: 4
#     Node 4, Type 0, BuildingBlock: UXUYUI_clean_sbu_0, # of connection points: 4
#     Node 5, Type 0, BuildingBlock: UXUYUI_clean_sbu_0, # of connection points: 4
#     Node 6, Type 0, BuildingBlock: UXUYUI_clean_sbu_0, # of connection points: 4
#     Node 7, Type 0, BuildingBlock: UXUYUI_clean_sbu_0, # of connection points: 4
#     Node 8, Type 0, BuildingBlock: UXUYUI_clean_sbu_0, # of connection points: 4
#     Node 9, Type 0, BuildingBlock: UXUYUI_clean_sbu_0, # of connection points: 4
#     Node 10, Type 0, BuildingBlock: UXUYUI_clean_sbu_0, # of connection points: 4
#     Node 11, Type 0, BuildingBlock: UXUYUI_clean_sbu_0, # of connection points: 4
#     Node 12, Type 0, BuildingBlock: UXUYUI_clean_sbu_0, # of connection points: 4
#     Node 13, Type 0, BuildingBlock: UXUYUI_clean_sbu_0, # of connection points: 4
#     Node 14, Type 0, BuildingBlock: UXUYUI_clean_sbu_0, # of connection points: 4
#     Node 15, Type 0, BuildingBlock: UXUYUI_clean_sbu_0, # of connection points: 4
#     Node 16, Type 0, BuildingBlock: UXUYUI_clean_sbu_0, # of connection points: 4
#     Node 17, Type 0, BuildingBlock: UXUYUI_clean_sbu_0, # of connection points: 4
#     Node 18, Type 0, BuildingBlock: UXUYUI_clean_sbu_0, # of connection points: 4
#     Node 19, Type 0, BuildingBlock: UXUYUI_clean_sbu_0, # of connection points: 4
#     Node 20, Type 0, BuildingBlock: UXUYUI_clean_sbu_0, # of connection points: 4
#     Node 21, Type 0, BuildingBlock: UXUYUI_clean_sbu_0, # of connection points: 4
#     Node 22, Type 0, BuildingBlock: UXUYUI_clean_sbu_0, # of connection points: 4
#     Node 23, Type 0, BuildingBlock: UXUYUI_clean_sbu_0, # of connection points: 4
#     Node 24, Type 1, BuildingBlock: CIFDUS_clean_sbu_1, # of connection points: 6
#     Node 25, Type 1, BuildingBlock: CIFDUS_clean_sbu_1, # of connection points: 6
#     Node 26, Type 1, BuildingBlock: CIFDUS_clean_sbu_1, # of connection points: 6
#     Node 27, Type 1, BuildingBlock: CIFDUS_clean_sbu_1, # of connection points: 6
#     Node 28, Type 1, BuildingBlock: CIFDUS_clean_sbu_1, # of connection points: 6
#     Node 29, Type 1, BuildingBlock: CIFDUS_clean_sbu_1, # of connection points: 6
#     Node 30, Type 1, BuildingBlock: CIFDUS_clean_sbu_1, # of connection points: 6
#     Node 31, Type 1, BuildingBlock: CIFDUS_clean_sbu_1, # of connection points: 6
#     Node 32, Type 1, BuildingBlock: CIFDUS_clean_sbu_1, # of connection points: 6
#     Node 33, Type 1, BuildingBlock: CIFDUS_clean_sbu_1, # of connection points: 6
#     Node 34, Type 1, BuildingBlock: CIFDUS_clean_sbu_1, # of connection points: 6
#     Node 35, Type 1, BuildingBlock: CIFDUS_clean_sbu_1, # of connection points: 6
#     Node 36, Type 1, BuildingBlock: CIFDUS_clean_sbu_1, # of connection points: 6
#     Node 37, Type 1, BuildingBlock: CIFDUS_clean_sbu_1, # of connection points: 6
#     Node 38, Type 1, BuildingBlock: CIFDUS_clean_sbu_1, # of connection points: 6
#     Node 39, Type 1, BuildingBlock: CIFDUS_clean_sbu_1, # of connection points: 6
#     Edge 40, Type (0, 1), BuildingBlock: KIFKEQ_clean_linker_1, # of connection points: 2
#     Edge 41, Type (0, 1), BuildingBlock: KIFKEQ_clean_linker_1, # of connection points: 2
#     Edge 42, Type (0, 1), BuildingBlock: KIFKEQ_clean_linker_1, # of connection points: 2
#     Edge 43, Type (0, 1), BuildingBlock: KIFKEQ_clean_linker_1, # of connection points: 2
#     Edge 44, Type (0, 1), BuildingBlock: KIFKEQ_clean_linker_1, # of connection points: 2
#     Edge 45, Type (0, 1), BuildingBlock: KIFKEQ_clean_linker_1, # of connection points: 2
#     Edge 46, Type (0, 1), BuildingBlock: KIFKEQ_clean_linker_1, # of connection points: 2
#     Edge 47, Type (0, 1), BuildingBlock: KIFKEQ_clean_linker_1, # of connection points: 2
#     Edge 48, Type (0, 1), BuildingBlock: KIFKEQ_clean_linker_1, # of connection points: 2
#     Edge 49, Type (0, 1), BuildingBlock: KIFKEQ_clean_linker_1, # of connection points: 2
#     Edge 50, Type (0, 1), BuildingBlock: KIFKEQ_clean_linker_1, # of connection points: 2
#     Edge 51, Type (0, 1), BuildingBlock: KIFKEQ_clean_linker_1, # of connection points: 2
#     Edge 52, Type (0, 1), BuildingBlock: KIFKEQ_clean_linker_1, # of connection points: 2
#     Edge 53, Type (0, 1), BuildingBlock: KIFKEQ_clean_linker_1, # of connection points: 2
#     Edge 54, Type (0, 1), BuildingBlock: KIFKEQ_clean_linker_1, # of connection points: 2
#     Edge 55, Type (0, 1), BuildingBlock: KIFKEQ_clean_linker_1, # of connection points: 2
#     Edge 56, Type (0, 1), BuildingBlock: KIFKEQ_clean_linker_1, # of connection points: 2
#     Edge 57, Type (0, 1), BuildingBlock: KIFKEQ_clean_linker_1, # of connection points: 2
#     Edge 58, Type (0, 1), BuildingBlock: KIFKEQ_clean_linker_1, # of connection points: 2
#     Edge 59, Type (0, 1), BuildingBlock: KIFKEQ_clean_linker_1, # of connection points: 2
#     Edge 60, Type (0, 1), BuildingBlock: KIFKEQ_clean_linker_1, # of connection points: 2
#     Edge 61, Type (0, 1), BuildingBlock: KIFKEQ_clean_linker_1, # of connection points: 2
#     Edge 62, Type (0, 1), BuildingBlock: KIFKEQ_clean_linker_1, # of connection points: 2
#     Edge 63, Type (0, 1), BuildingBlock: KIFKEQ_clean_linker_1, # of connection points: 2
#     Edge 64, Type (0, 1), BuildingBlock: KIFKEQ_clean_linker_1, # of connection points: 2
#     Edge 65, Type (0, 1), BuildingBlock: KIFKEQ_clean_linker_1, # of connection points: 2
#     Edge 66, Type (0, 1), BuildingBlock: KIFKEQ_clean_linker_1, # of connection points: 2
#     Edge 67, Type (0, 1), BuildingBlock: KIFKEQ_clean_linker_1, # of connection points: 2
#     Edge 68, Type (0, 1), BuildingBlock: KIFKEQ_clean_linker_1, # of connection points: 2
#     Edge 69, Type (0, 1), BuildingBlock: KIFKEQ_clean_linker_1, # of connection points: 2
#     Edge 70, Type (0, 1), BuildingBlock: KIFKEQ_clean_linker_1, # of connection points: 2
#     Edge 71, Type (0, 1), BuildingBlock: KIFKEQ_clean_linker_1, # of connection points: 2
#     Edge 72, Type (0, 1), BuildingBlock: KIFKEQ_clean_linker_1, # of connection points: 2
#     Edge 73, Type (0, 1), BuildingBlock: KIFKEQ_clean_linker_1, # of connection points: 2
#     Edge 74, Type (0, 1), BuildingBlock: KIFKEQ_clean_linker_1, # of connection points: 2
#     Edge 75, Type (0, 1), BuildingBlock: KIFKEQ_clean_linker_1, # of connection points: 2
#     Edge 76, Type (0, 1), BuildingBlock: KIFKEQ_clean_linker_1, # of connection points: 2
#     Edge 77, Type (0, 1), BuildingBlock: KIFKEQ_clean_linker_1, # of connection points: 2
#     Edge 78, Type (0, 1), BuildingBlock: KIFKEQ_clean_linker_1, # of connection points: 2
#     Edge 79, Type (0, 1), BuildingBlock: KIFKEQ_clean_linker_1, # of connection points: 2
#     Edge 80, Type (0, 1), BuildingBlock: KIFKEQ_clean_linker_1, # of connection points: 2
#     Edge 81, Type (0, 1), BuildingBlock: KIFKEQ_clean_linker_1, # of connection points: 2
#     Edge 82, Type (0, 1), BuildingBlock: KIFKEQ_clean_linker_1, # of connection points: 2
#     Edge 83, Type (0, 1), BuildingBlock: KIFKEQ_clean_linker_1, # of connection points: 2
#     Edge 84, Type (0, 1), BuildingBlock: KIFKEQ_clean_linker_1, # of connection points: 2
#     Edge 85, Type (0, 1), BuildingBlock: KIFKEQ_clean_linker_1, # of connection points: 2
#     Edge 86, Type (0, 1), BuildingBlock: KIFKEQ_clean_linker_1, # of connection points: 2
#     Edge 87, Type (0, 1), BuildingBlock: KIFKEQ_clean_linker_1, # of connection points: 2
#     Edge 88, Type (0, 1), BuildingBlock: KIFKEQ_clean_linker_1, # of connection points: 2
#     Edge 89, Type (0, 1), BuildingBlock: KIFKEQ_clean_linker_1, # of connection points: 2
#     Edge 90, Type (0, 1), BuildingBlock: KIFKEQ_clean_linker_1, # of connection points: 2
#     Edge 91, Type (0, 1), BuildingBlock: KIFKEQ_clean_linker_1, # of connection points: 2
#     Edge 92, Type (0, 1), BuildingBlock: KIFKEQ_clean_linker_1, # of connection points: 2
#     Edge 93, Type (0, 1), BuildingBlock: KIFKEQ_clean_linker_1, # of connection points: 2
#     Edge 94, Type (0, 1), BuildingBlock: KIFKEQ_clean_linker_1, # of connection points: 2
#     Edge 95, Type (0, 1), BuildingBlock: KIFKEQ_clean_linker_1, # of connection points: 2
#     Edge 96, Type (0, 1), BuildingBlock: KIFKEQ_clean_linker_1, # of connection points: 2
#     Edge 97, Type (0, 1), BuildingBlock: KIFKEQ_clean_linker_1, # of connection points: 2
#     Edge 98, Type (0, 1), BuildingBlock: KIFKEQ_clean_linker_1, # of connection points: 2
#     Edge 99, Type (0, 1), BuildingBlock: KIFKEQ_clean_linker_1, # of connection points: 2
#     Edge 100, Type (0, 1), BuildingBlock: KIFKEQ_clean_linker_1, # of connection points: 2
#     Edge 101, Type (0, 1), BuildingBlock: KIFKEQ_clean_linker_1, # of connection points: 2
#     Edge 102, Type (0, 1), BuildingBlock: KIFKEQ_clean_linker_1, # of connection points: 2
#     Edge 103, Type (0, 1), BuildingBlock: KIFKEQ_clean_linker_1, # of connection points: 2
#     Edge 104, Type (0, 1), BuildingBlock: KIFKEQ_clean_linker_1, # of connection points: 2
#     Edge 105, Type (0, 1), BuildingBlock: KIFKEQ_clean_linker_1, # of connection points: 2
#     Edge 106, Type (0, 1), BuildingBlock: KIFKEQ_clean_linker_1, # of connection points: 2
#     Edge 107, Type (0, 1), BuildingBlock: KIFKEQ_clean_linker_1, # of connection points: 2
#     Edge 108, Type (0, 1), BuildingBlock: KIFKEQ_clean_linker_1, # of connection points: 2
#     Edge 109, Type (0, 1), BuildingBlock: KIFKEQ_clean_linker_1, # of connection points: 2
#     Edge 110, Type (0, 1), BuildingBlock: KIFKEQ_clean_linker_1, # of connection points: 2
#     Edge 111, Type (0, 1), BuildingBlock: KIFKEQ_clean_linker_1, # of connection points: 2
#     Edge 112, Type (0, 1), BuildingBlock: KIFKEQ_clean_linker_1, # of connection points: 2
#     Edge 113, Type (0, 1), BuildingBlock: KIFKEQ_clean_linker_1, # of connection points: 2
#     Edge 114, Type (0, 1), BuildingBlock: KIFKEQ_clean_linker_1, # of connection points: 2
#     Edge 115, Type (0, 1), BuildingBlock: KIFKEQ_clean_linker_1, # of connection points: 2
#     Edge 116, Type (0, 1), BuildingBlock: KIFKEQ_clean_linker_1, # of connection points: 2
#     Edge 117, Type (0, 1), BuildingBlock: KIFKEQ_clean_linker_1, # of connection points: 2
#     Edge 118, Type (0, 1), BuildingBlock: KIFKEQ_clean_linker_1, # of connection points: 2
#     Edge 119, Type (0, 1), BuildingBlock: KIFKEQ_clean_linker_1, # of connection points: 2
#     Edge 120, Type (0, 1), BuildingBlock: KIFKEQ_clean_linker_1, # of connection points: 2
#     Edge 121, Type (0, 1), BuildingBlock: KIFKEQ_clean_linker_1, # of connection points: 2
#     Edge 122, Type (0, 1), BuildingBlock: KIFKEQ_clean_linker_1, # of connection points: 2
#     Edge 123, Type (0, 1), BuildingBlock: KIFKEQ_clean_linker_1, # of connection points: 2
#     Edge 124, Type (0, 1), BuildingBlock: KIFKEQ_clean_linker_1, # of connection points: 2
#     Edge 125, Type (0, 1), BuildingBlock: KIFKEQ_clean_linker_1, # of connection points: 2
#     Edge 126, Type (0, 1), BuildingBlock: KIFKEQ_clean_linker_1, # of connection points: 2
#     Edge 127, Type (0, 1), BuildingBlock: KIFKEQ_clean_linker_1, # of connection points: 2
#     Edge 128, Type (0, 1), BuildingBlock: KIFKEQ_clean_linker_1, # of connection points: 2
#     Edge 129, Type (0, 1), BuildingBlock: KIFKEQ_clean_linker_1, # of connection points: 2
#     Edge 130, Type (0, 1), BuildingBlock: KIFKEQ_clean_linker_1, # of connection points: 2
#     Edge 131, Type (0, 1), BuildingBlock: KIFKEQ_clean_linker_1, # of connection points: 2
#     Edge 132, Type (0, 1), BuildingBlock: KIFKEQ_clean_linker_1, # of connection points: 2
#     Edge 133, Type (0, 1), BuildingBlock: KIFKEQ_clean_linker_1, # of connection points: 2
#     Edge 134, Type (0, 1), BuildingBlock: KIFKEQ_clean_linker_1, # of connection points: 2
#     Edge 135, Type (0, 1), BuildingBlock: KIFKEQ_clean_linker_1, # of connection points: 2
# Relax obj value: 0.128
# Max RMSD: 0.165
# Mean RMSD: 0.153
data_MOF--net-iac--node1-UXUYUI_clean_sbu_0--node2-CIFDUS_clean_sbu_1--edge1-KIFKEQ_clean_linker_1
_symmetry_space_group_name_H-M    P1
_symmetry_Int_Tables_number       1
_symmetry_cell_setting            triclinic
loop_
_symmetry_equiv_pos_as_xyz
'x, y, z'
_cell_length_a     67.615631
_cell_length_b     67.46295
_cell_length_c     67.606318
_cell_angle_alpha  89.948853
_cell_angle_beta   89.87839
_cell_angle_gamma 89.950519
loop_
_atom_site_label
_atom_site_type_symbol
_atom_site_fract_x
_atom_site_fract_y
_atom_site_fract_z
_atom_type_partial_charge
Li0 Li 0.00081 0.27206 0.10884 0.0
Li1 Li 0.01873 0.2547 0.13665 0.0
Li2 Li 0.00189 0.23501 0.10943 0.0
Li3 Li 0.98198 0.25357 0.13541 0.0
C4 C 0.03792 0.25558 0.09288 0.0
N5 N 0.06567 0.25819 0.06297 0.0
C6 C 0.05718 0.26173 0.0971 0.0
C7 C 0.03276 0.25066 0.0735 0.0
C8 C 0.071 0.26297 0.08176 0.0
C9 C 0.04701 0.25211 0.05857 0.0
C10 C 0.0003 0.29088 0.15228 0.0
C11 C 0.99661 0.30035 0.18645 0.0
N12 N 0.00219 0.31914 0.18171 0.0
C13 C 0.00594 0.31028 0.14772 0.0
C14 C 0.99551 0.28585 0.17176 0.0
C15 C 0.00682 0.32436 0.16282 0.0
C16 C 0.98122 0.3053 0.09443 0.0
N17 N -0.00113 0.29568 0.09332 0.0
C18 C 0.01217 0.32145 0.07293 0.0
C19 C 0.01424 0.3033 0.08279 0.0
C20 C 0.99418 0.33193 0.07409 0.0
C21 C 0.97854 0.32351 0.08492 0.0
H22 H 0.9693 0.29894 0.10305 0.0
H23 H 0.02823 0.29556 0.08236 0.0
C24 C 0.05235 0.23725 0.15267 0.0
N25 N 0.04141 0.25415 0.15343 0.0
C26 C 0.06972 0.23555 0.1637 0.0
C27 C 0.06392 0.26842 0.17667 0.0
C28 C 0.04681 0.26962 0.16513 0.0
C29 C 0.07569 0.2513 0.17582 0.0
H30 H 0.04772 0.22521 0.1432 0.0
H31 H 0.03813 0.28305 0.16528 0.0
C32 C 0.96489 0.25197 0.09164 0.0
N33 N 0.93674 0.2504 0.06215 0.0
C34 C 0.94542 0.2467 0.09618 0.0
C35 C 0.97006 0.25652 0.07214 0.0
C36 C 0.9314 0.24597 0.08105 0.0
C37 C 0.95561 0.25561 0.05743 0.0
C38 C -0.00031 0.21741 0.15311 0.0
C39 C 0.99471 0.1979 0.14832 0.0
C40 C 0.00367 0.22245 0.17274 0.0
C41 C 0.99373 0.1837 0.16333 0.0
C42 C 0.00254 0.20781 0.18733 0.0
N43 N -0.00236 0.1889 0.18236 0.0
C44 C 0.02142 0.20062 0.0966 0.0
C45 C 0.98904 0.20365 0.08362 0.0
C46 C 0.02388 0.18223 0.08733 0.0
N47 N 0.00419 0.21086 0.09467 0.0
C48 C 0.99091 0.18537 0.07399 0.0
C49 C 0.00847 0.1743 0.07589 0.0
H50 H 0.03318 0.20665 0.10559 0.0
H51 H 0.97537 0.21188 0.08252 0.0
C52 C 0.94825 0.2724 0.1496 0.0
N53 N 0.958 0.25478 0.15009 0.0
C54 C 0.92986 0.27445 0.15885 0.0
C55 C 0.93204 0.24022 0.16921 0.0
C56 C 0.95041 0.23884 0.15976 0.0
C57 C 0.92138 0.25815 0.16861 0.0
H58 H 0.9546 0.28478 0.14164 0.0
H59 H 0.9584 0.22496 0.15985 0.0
O60 O 0.02435 0.25403 0.10779 0.0
O61 O -0.00062 0.27696 0.13766 0.0
O62 O 0.97869 0.25294 0.10632 0.0
O63 O 0.00108 0.23136 0.13853 0.0
H64 H 0.0614 0.26547 0.11209 0.0
H65 H 0.01796 0.24567 0.07006 0.0
H66 H 0.08597 0.26771 0.0848 0.0
H67 H 0.04324 0.24836 0.04349 0.0
H68 H 0.99302 0.29668 0.20161 0.0
H69 H 0.00963 0.31438 0.13267 0.0
H70 H 0.99104 0.2709 0.17547 0.0
H71 H 0.01118 0.33943 0.15953 0.0
H72 H 0.02472 0.32751 0.065 0.0
H73 H 0.96439 0.33094 0.08608 0.0
H74 H 0.07851 0.22216 0.16264 0.0
H75 H 0.06831 0.281 0.18559 0.0
H76 H 0.94119 0.2432 0.11124 0.0
H77 H 0.98503 0.2608 0.06844 0.0
H78 H 0.91627 0.24191 0.08434 0.0
H79 H 0.95937 0.25909 0.04226 0.0
H80 H 0.99166 0.19378 0.13315 0.0
H81 H 0.00768 0.23747 0.17664 0.0
H82 H 0.98989 0.16853 0.15985 0.0
H83 H 0.0056 0.21146 0.20259 0.0
H84 H 0.03772 0.17435 0.08907 0.0
H85 H 0.97853 0.17973 0.06557 0.0
H86 H 0.92211 0.28846 0.15781 0.0
H87 H 0.92619 0.22734 0.17679 0.0
Li88 Li 0.98416 0.74939 0.36235 0.0
Li89 Li 0.00315 0.76865 0.38781 0.0
Li90 Li 0.02041 0.75008 0.36082 0.0
Li91 Li 0.00417 0.73238 0.38869 0.0
C92 C 0.00289 0.78689 0.3446 0.0
N93 N 0.00476 0.81595 0.31584 0.0
C94 C 0.00133 0.80686 0.34983 0.0
C95 C 0.0054 0.78168 0.32474 0.0
C96 C 0.0023 0.82134 0.33508 0.0
C97 C 0.00632 0.7966 0.31043 0.0
C98 C 0.96737 0.74974 0.40633 0.0
C99 C 0.95892 0.74553 0.44074 0.0
N100 N 0.93963 0.74923 0.43638 0.0
C101 C 0.94748 0.75353 0.40219 0.0
C102 C 0.97318 0.74575 0.42576 0.0
C103 C 0.93368 0.75321 0.41759 0.0
C104 C 0.94764 0.73338 0.35136 0.0
N105 N 0.96026 0.7488 0.34845 0.0
C106 C 0.93669 0.76564 0.32842 0.0
C107 C 0.95522 0.7647 0.33722 0.0
C108 C 0.92316 0.75026 0.33162 0.0
C109 C 0.92872 0.73389 0.34312 0.0
H110 H 0.95206 0.72108 0.36063 0.0
H111 H 0.96528 0.77697 0.33559 0.0
C112 C 0.01952 0.80321 0.40359 0.0
N113 N 0.0028 0.79215 0.40243 0.0
C114 C 0.01882 0.82217 0.4118 0.0
C115 C 0.98392 0.8174 0.41824 0.0
C116 C 0.98526 0.7987 0.40972 0.0
C117 C 0.0007 0.82964 0.41884 0.0
H118 H 0.03318 0.79764 0.39734 0.0
H119 H 0.97213 0.78976 0.40825 0.0
C120 C 0.00289 0.71303 0.3452 0.0
N121 N 0.00375 0.68529 0.31521 0.0
C122 C 0.00794 0.69336 0.34933 0.0
C123 C -0.00186 0.71858 0.32588 0.0
C124 C 0.00832 0.67956 0.33395 0.0
C125 C -0.00129 0.70434 0.3109 0.0
C126 C 0.04061 0.75143 0.40388 0.0
C127 C 0.06035 0.74746 0.3992 0.0
C128 C 0.03525 0.75541 0.42345 0.0
C129 C 0.07446 0.7474 0.41427 0.0
C130 C 0.0498 0.75518 0.4381 0.0
N131 N 0.06893 0.7512 0.43325 0.0
C132 C 0.05121 0.76709 0.33781 0.0
C133 C 0.05073 0.73197 0.33978 0.0
C134 C 0.06855 0.76657 0.32656 0.0
N135 N 0.04272 0.74991 0.34409 0.0
C136 C 0.06809 0.73078 0.32877 0.0
C137 C 0.07731 0.74823 0.32225 0.0
H138 H 0.04485 0.78118 0.342 0.0
H139 H 0.04397 0.71861 0.34542 0.0
C140 C 0.98721 0.70044 0.40838 0.0
N141 N 0.00455 0.71017 0.40541 0.0
C142 C 0.98652 0.68395 0.42081 0.0
C143 C 0.02159 0.68784 0.42671 0.0
C144 C 0.0216 0.70417 0.41411 0.0
C145 C 0.0039 0.67746 0.43013 0.0
H146 H 0.97394 0.70547 0.401 0.0
H147 H 0.03524 0.71195 0.41122 0.0
O148 O 0.00173 0.77256 0.35888 0.0
O149 O 0.981 0.74987 0.39136 0.0
O150 O 0.00238 0.72663 0.36015 0.0
O151 O 0.02667 0.75145 0.38928 0.0
H152 H -0.00076 0.81116 0.3651 0.0
H153 H 0.0067 0.7663 0.32045 0.0
H154 H 0.00107 0.83686 0.33891 0.0
H155 H 0.00828 0.79279 0.29501 0.0
H156 H 0.96318 0.74238 0.45584 0.0
H157 H 0.94276 0.7568 0.38726 0.0
H158 H 0.98849 0.74269 0.42921 0.0
H159 H 0.91824 0.75613 0.41459 0.0
H160 H 0.9327 0.77859 0.31981 0.0
H161 H 0.91853 0.7218 0.34582 0.0
H162 H 0.03208 0.83115 0.4118 0.0
H163 H 0.96976 0.82238 0.42387 0.0
H164 H 0.01155 0.68885 0.36426 0.0
H165 H 0.99395 0.73367 0.32252 0.0
H166 H 0.01223 0.66429 0.33691 0.0
H167 H 0.9951 0.70841 0.29585 0.0
H168 H 0.06471 0.74442 0.38408 0.0
H169 H 0.02006 0.75869 0.42727 0.0
H170 H 0.0898 0.74432 0.41087 0.0
H171 H 0.04588 0.75818 0.45333 0.0
H172 H 0.07549 0.78032 0.32204 0.0
H173 H 0.07449 0.71637 0.32573 0.0
H174 H 0.97266 0.67615 0.42275 0.0
H175 H 0.0353 0.68339 0.43369 0.0
Li176 Li 0.51883 0.75477 0.63598 0.0
Li177 Li 0.50007 0.77213 0.6086 0.0
Li178 Li 0.48198 0.75351 0.63551 0.0
Li179 Li 0.50144 0.73523 0.60912 0.0
C180 C 0.49992 0.79079 0.65215 0.0
N181 N 0.5009 0.81891 0.68176 0.0
C182 C 0.50462 0.81045 0.64767 0.0
C183 C 0.49568 0.78539 0.67166 0.0
C184 C 0.50505 0.82446 0.66286 0.0
C185 C 0.49626 0.79985 0.68643 0.0
C186 C 0.53757 0.755 0.59231 0.0
C187 C 0.5471 0.75033 0.55826 0.0
N188 N 0.56584 0.75606 0.5628 0.0
C189 C 0.55691 0.76077 0.59668 0.0
C190 C 0.5326 0.74964 0.57299 0.0
C191 C 0.57099 0.76123 0.58154 0.0
C192 C 0.55159 0.73751 0.65522 0.0
N193 N 0.54184 0.75491 0.65229 0.0
C194 C 0.56558 0.77224 0.67187 0.0
C195 C 0.54849 0.77211 0.66031 0.0
C196 C 0.57611 0.75452 0.67509 0.0
C197 C 0.56881 0.73695 0.66667 0.0
H198 H 0.54608 0.72407 0.64848 0.0
H199 H 0.54065 0.78579 0.6576 0.0
C200 C 0.48148 0.80694 0.59601 0.0
N201 N 0.49782 0.79556 0.5929 0.0
C202 C 0.47888 0.82468 0.5856 0.0
C203 C 0.50979 0.81845 0.5687 0.0
C204 C 0.51192 0.80097 0.57961 0.0
C205 C 0.49314 0.83058 0.57169 0.0
H206 H 0.47052 0.80227 0.60673 0.0
H207 H 0.5249 0.79187 0.57756 0.0
C208 C 0.49997 0.71706 0.65247 0.0
N209 N 0.49809 0.68778 0.68096 0.0
C210 C 0.49431 0.69784 0.6473 0.0
C211 C 0.50468 0.72143 0.6721 0.0
C212 C 0.49343 0.68324 0.66193 0.0
C213 C 0.50364 0.7064 0.68629 0.0
C214 C 0.46445 0.7527 0.59159 0.0
C215 C 0.44468 0.74829 0.59574 0.0
C216 C 0.47018 0.75716 0.57223 0.0
C217 C 0.43092 0.74836 0.58035 0.0
C218 C 0.45597 0.75709 0.55726 0.0
N219 N 0.4368 0.75272 0.56159 0.0
C220 C 0.44703 0.77117 0.64776 0.0
C221 C 0.45188 0.73959 0.66236 0.0
C222 C 0.42857 0.773 0.65689 0.0
N223 N 0.45814 0.75459 0.65047 0.0
C224 C 0.43351 0.74082 0.67182 0.0
C225 C 0.42144 0.75758 0.66891 0.0
H226 H 0.45236 0.78279 0.63809 0.0
H227 H 0.46093 0.72652 0.66424 0.0
C228 C 0.5209 0.70159 0.59423 0.0
N229 N 0.50325 0.71126 0.59426 0.0
C230 C 0.52266 0.68292 0.58541 0.0
C231 C 0.48814 0.68473 0.57642 0.0
C232 C 0.48705 0.70337 0.58539 0.0
C233 C 0.50603 0.67405 0.57668 0.0
H234 H 0.53348 0.70815 0.6016 0.0
H235 H 0.47314 0.71127 0.58576 0.0
O236 O 0.49935 0.77697 0.63742 0.0
O237 O 0.5237 0.75433 0.60701 0.0
O238 O 0.50134 0.73139 0.63824 0.0
O239 O 0.47802 0.75286 0.60653 0.0
H240 H 0.50794 0.81482 0.63261 0.0
H241 H 0.49195 0.77022 0.67532 0.0
H242 H 0.50869 0.83974 0.65962 0.0
H243 H 0.493 0.79592 0.70161 0.0
H244 H 0.54348 0.74627 0.54322 0.0
H245 H 0.56098 0.76485 0.61161 0.0
H246 H 0.51773 0.74496 0.56944 0.0
H247 H 0.58603 0.76569 0.58469 0.0
H248 H 0.57049 0.7861 0.67824 0.0
H249 H 0.57654 0.72301 0.66851 0.0
H250 H 0.46583 0.83361 0.58827 0.0
H251 H 0.52126 0.82265 0.5583 0.0
H252 H 0.49068 0.69424 0.63213 0.0
H253 H 0.50918 0.73623 0.67629 0.0
H254 H 0.48909 0.66828 0.65815 0.0
H255 H 0.50728 0.70952 0.70154 0.0
H256 H 0.44002 0.74483 0.61067 0.0
H257 H 0.4854 0.76076 0.56883 0.0
H258 H 0.41557 0.74496 0.58333 0.0
H259 H 0.46017 0.76054 0.5422 0.0
H260 H 0.41972 0.78607 0.65402 0.0
H261 H 0.42874 0.72869 0.68119 0.0
H262 H 0.53668 0.67519 0.58616 0.0
H263 H 0.47501 0.67861 0.56962 0.0
Li264 Li 0.48577 0.25003 0.86256 0.0
Li265 Li 0.50466 0.26824 0.88872 0.0
Li266 Li 0.52175 0.24954 0.86179 0.0
Li267 Li 0.50445 0.23177 0.88905 0.0
C268 C 0.50502 0.28694 0.84553 0.0
N269 N 0.50708 0.3159 0.81668 0.0
C270 C 0.50348 0.30695 0.85068 0.0
C271 C 0.50758 0.28166 0.8257 0.0
C272 C 0.50455 0.32137 0.83588 0.0
C273 C 0.5086 0.29653 0.81134 0.0
C274 C 0.46783 0.25036 0.90602 0.0
C275 C 0.45833 0.24677 0.94022 0.0
N276 N 0.43935 0.25128 0.93534 0.0
C277 C 0.44822 0.25493 0.90132 0.0
C278 C 0.47296 0.24624 0.9256 0.0
C279 C 0.43404 0.25534 0.91636 0.0
C280 C 0.4506 0.234 0.84899 0.0
N281 N 0.46229 0.25033 0.8482 0.0
C282 C 0.43758 0.26849 0.83089 0.0
C283 C 0.45634 0.26729 0.8392 0.0
C284 C 0.42474 0.25219 0.83227 0.0
C285 C 0.4316 0.23461 0.84108 0.0
H286 H 0.45575 0.22085 0.85657 0.0
H287 H 0.46582 0.28015 0.8391 0.0
C288 C 0.52168 0.30278 0.90374 0.0
N289 N 0.50497 0.29161 0.90364 0.0
C290 C 0.52151 0.32155 0.9124 0.0
C291 C 0.48722 0.31641 0.92137 0.0
C292 C 0.48795 0.29796 0.91226 0.0
C293 C 0.50403 0.32855 0.92116 0.0
H294 H 0.53488 0.29738 0.89644 0.0
H295 H 0.47473 0.2891 0.91145 0.0
C296 C 0.50286 0.21303 0.84545 0.0
N297 N 0.50212 0.18521 0.81552 0.0
C298 C 0.50638 0.19306 0.84969 0.0
C299 C 0.49884 0.21886 0.82604 0.0
C300 C 0.50597 0.17922 0.83434 0.0
C301 C 0.49858 0.20456 0.8111 0.0
C302 C 0.54114 0.24927 0.9053 0.0
C303 C 0.56078 0.24444 0.90098 0.0
C304 C 0.53556 0.25337 0.92477 0.0
C305 C 0.57456 0.24366 0.91633 0.0
C306 C 0.54978 0.25239 0.93971 0.0
N307 N 0.56881 0.2476 0.93522 0.0
C308 C 0.55291 0.26648 0.83992 0.0
C309 C 0.55107 0.23135 0.83956 0.0
C310 C 0.56989 0.26608 0.82818 0.0
N311 N 0.54393 0.24926 0.84525 0.0
C312 C 0.56802 0.23024 0.82797 0.0
C313 C 0.57772 0.24774 0.82234 0.0
H314 H 0.54712 0.28049 0.84511 0.0
H315 H 0.54384 0.21791 0.8444 0.0
C316 C 0.48551 0.20031 0.90757 0.0
N317 N 0.50342 0.20919 0.90544 0.0
C318 C 0.48341 0.18388 0.91993 0.0
C319 C 0.51834 0.18585 0.92735 0.0
C320 C 0.51976 0.20222 0.91481 0.0
C321 C 0.49994 0.17654 0.93012 0.0
H322 H 0.47283 0.20613 0.89975 0.0
H323 H 0.5339 0.2093 0.91253 0.0
O324 O 0.50399 0.27269 0.8599 0.0
O325 O 0.48188 0.25006 0.89145 0.0
O326 O 0.50318 0.22668 0.86037 0.0
O327 O 0.52755 0.25013 0.8904 0.0
H328 H 0.50138 0.3113 0.86594 0.0
H329 H 0.50894 0.26628 0.82148 0.0
H330 H 0.50337 0.3369 0.83966 0.0
H331 H 0.51064 0.29266 0.79594 0.0
H332 H 0.46208 0.24359 0.95544 0.0
H333 H 0.44403 0.25826 0.88624 0.0
H334 H 0.48804 0.24259 0.92946 0.0
H335 H 0.41882 0.2589 0.91296 0.0
H336 H 0.43305 0.28219 0.82388 0.0
H337 H 0.42213 0.22176 0.84263 0.0
H338 H 0.53474 0.3306 0.91203 0.0
H339 H 0.47341 0.3215 0.92776 0.0
H340 H 0.50943 0.18833 0.86469 0.0
H341 H 0.49582 0.2342 0.82257 0.0
H342 H 0.50869 0.16371 0.83739 0.0
H343 H 0.49551 0.20885 0.79599 0.0
H344 H 0.5653 0.24132 0.88593 0.0
H345 H 0.52046 0.25732 0.9283 0.0
H346 H 0.58981 0.23992 0.91322 0.0
H347 H 0.54569 0.25549 0.95488 0.0
H348 H 0.57722 0.27983 0.82435 0.0
H349 H 0.5737 0.21583 0.8237 0.0
H350 H 0.46897 0.17717 0.92168 0.0
H351 H 0.53154 0.18037 0.93458 0.0
Li352 Li 0.11939 -0.00034 0.27267 0.0
Li353 Li 0.14555 0.01823 0.25311 0.0
Li354 Li 0.11841 -0.00115 0.23578 0.0
Li355 Li 0.14612 0.98139 0.25375 0.0
C356 C 0.10179 0.03579 0.25606 0.0
N357 N 0.07238 0.06392 0.26009 0.0
C358 C 0.10658 0.05515 0.26157 0.0
C359 C 0.08208 0.03071 0.25255 0.0
C360 C 0.09149 0.06917 0.26354 0.0
C361 C 0.06742 0.04515 0.25469 0.0
C362 C 0.16325 0.00128 0.28992 0.0
C363 C 0.19759 -0.0018 0.2989 0.0
N364 N 0.1929 0.00297 0.31789 0.0
C365 C 0.15874 0.00609 0.30951 0.0
C366 C 0.1828 0.99725 0.28454 0.0
C367 C 0.17395 0.00689 0.32344 0.0
C368 C 0.10296 0.97999 0.3051 0.0
N369 N 0.10421 -0.00184 0.29648 0.0
C370 C 0.08516 0.0125 0.32267 0.0
C371 C 0.0956 0.01433 0.30486 0.0
C372 C 0.08371 0.99389 0.332 0.0
C373 C 0.09275 0.9775 0.32292 0.0
H374 H 0.11006 0.9674 0.29815 0.0
H375 H 0.09704 0.02868 0.29789 0.0
C376 C 0.16136 0.05139 0.23337 0.0
N377 N 0.16048 0.04223 0.25129 0.0
C378 C 0.17035 0.06998 0.23146 0.0
C379 C 0.17773 0.06918 0.26639 0.0
C380 C 0.16863 0.0506 0.26763 0.0
C381 C 0.17837 0.07931 0.24819 0.0
H382 H 0.15454 0.0445 0.22066 0.0
H383 H 0.1676 0.04312 0.28174 0.0
C384 C 0.10274 0.96252 0.25313 0.0
N385 N 0.07347 0.93425 0.24951 0.0
C386 C 0.10756 0.94325 0.24728 0.0
C387 C 0.08308 0.96742 0.25725 0.0
C388 C 0.09253 0.92916 0.24552 0.0
C389 C 0.06848 0.95291 0.25529 0.0
C390 C 0.16209 -0.00173 0.21667 0.0
C391 C 0.15765 0.99304 0.19719 0.0
C392 C 0.18158 0.00265 0.22189 0.0
C393 C 0.17287 0.99217 0.18321 0.0
C394 C 0.19639 0.00159 0.20749 0.0
N395 N 0.19177 0.99642 0.18861 0.0
C396 C 0.09844 0.01727 0.20435 0.0
C397 C 0.09292 0.98264 0.20591 0.0
C398 C 0.08624 0.01889 0.18775 0.0
N399 N 0.10146 -0.00063 0.21311 0.0
C400 C 0.08051 0.98359 0.1894 0.0
C401 C 0.077 0.00191 0.18008 0.0
H402 H 0.10553 0.03034 0.2103 0.0
H403 H 0.09582 0.96851 0.21283 0.0
C404 C 0.16318 0.94908 0.27323 0.0
N405 N 0.1617 0.95789 0.25519 0.0
C406 C 0.17246 0.93066 0.27521 0.0
C407 C 0.17885 0.93088 0.24002 0.0
C408 C 0.16949 0.94933 0.23874 0.0
C409 C 0.1801 0.92112 0.25839 0.0
H410 H 0.15657 0.95611 0.28602 0.0
H411 H 0.16791 0.9565 0.22453 0.0
O412 O 0.11643 0.02205 0.25365 0.0
O413 O 0.14846 0.00014 0.27622 0.0
O414 O 0.11728 0.97643 0.25499 0.0
O415 O 0.14728 -0.00046 0.23038 0.0
H416 H 0.1218 0.05931 0.26423 0.0
H417 H 0.07818 0.01583 0.24808 0.0
H418 H 0.09497 0.08422 0.26778 0.0
H419 H 0.05209 0.04146 0.252 0.0
H420 H 0.2128 0.9951 0.29497 0.0
H421 H 0.14363 0.00915 0.31391 0.0
H422 H 0.18648 0.99324 0.26949 0.0
H423 H 0.17068 0.01059 0.33867 0.0
H424 H 0.07868 0.02561 0.32928 0.0
H425 H 0.09186 0.96287 0.32946 0.0
H426 H 0.17031 0.07729 0.21719 0.0
H427 H 0.18395 0.07567 0.27964 0.0
H428 H 0.12274 0.93923 0.24411 0.0
H429 H 0.07916 0.98224 0.26195 0.0
H430 H 0.09603 0.91419 0.24098 0.0
H431 H 0.05318 0.95648 0.25839 0.0
H432 H 0.14258 0.98974 0.19292 0.0
H433 H 0.18519 0.00699 0.23685 0.0
H434 H 0.16966 0.98816 0.16807 0.0
H435 H 0.21155 0.00495 0.2113 0.0
H436 H 0.08391 0.03332 0.18112 0.0
H437 H 0.07404 0.97005 0.18378 0.0
H438 H 0.17287 0.92361 0.28959 0.0
H439 H 0.18474 0.92417 0.22671 0.0
Li440 Li 0.2359 0.89078 0.50229 0.0
Li441 Li 0.2514 0.86296 0.52056 0.0
Li442 Li 0.27204 0.88768 0.50168 0.0
Li443 Li 0.25126 0.86224 0.48412 0.0
C444 C 0.25335 0.90679 0.53845 0.0
N445 N 0.25061 0.93691 0.56596 0.0
C446 C 0.24572 0.90295 0.55729 0.0
C447 C 0.25976 0.92588 0.53363 0.0
C448 C 0.24443 0.91839 0.57099 0.0
C449 C 0.25817 0.94094 0.54773 0.0
C450 C 0.21485 0.84723 0.50238 0.0
C451 C 0.20726 0.81245 0.4996 0.0
N452 N 0.18778 0.81661 0.50254 0.0
C453 C 0.19477 0.85119 0.50529 0.0
C454 C 0.22118 0.82775 0.49941 0.0
C455 C 0.18131 0.8355 0.50535 0.0
C456 C 0.20574 0.91061 0.48281 0.0
N457 N 0.21453 0.90886 0.50078 0.0
C458 C 0.19119 0.93121 0.51514 0.0
C459 C 0.20771 0.91891 0.51682 0.0
C460 C 0.18155 0.93299 0.49683 0.0
C461 C 0.18921 0.92274 0.48045 0.0
H462 H 0.21135 0.90223 0.47037 0.0
H463 H 0.21464 0.91695 0.53104 0.0
C464 C 0.26923 0.84459 0.55256 0.0
N465 N 0.25153 0.84686 0.54336 0.0
C466 C 0.27094 0.83198 0.56882 0.0
C467 C 0.236 0.82479 0.56618 0.0
C468 C 0.23499 0.83752 0.54993 0.0
C469 C 0.25421 0.82177 0.57574 0.0
H470 H 0.28209 0.85235 0.54703 0.0
H471 H 0.22102 0.83988 0.54256 0.0
C472 C 0.25419 0.90591 0.4656 0.0
N473 N 0.25452 0.93609 0.43797 0.0
C474 C 0.25587 0.90152 0.44547 0.0
C475 C 0.25273 0.92564 0.4717 0.0
C476 C 0.25602 0.91698 0.43172 0.0
C477 C 0.25289 0.94069 0.45749 0.0
C478 C 0.28803 0.84418 0.50328 0.0
C479 C 0.30759 0.84876 0.49837 0.0
C480 C 0.28319 0.82492 0.50918 0.0
C481 C 0.32203 0.83399 0.4995 0.0
C482 C 0.29807 0.81057 0.51018 0.0
N483 N 0.31702 0.81536 0.50535 0.0
C484 C 0.30709 0.90439 0.51684 0.0
C485 C 0.30352 0.90511 0.48194 0.0
C486 C 0.32576 0.91311 0.51539 0.0
N487 N 0.29644 0.90073 0.50022 0.0
C488 C 0.322 0.91391 0.4798 0.0
C489 C 0.33335 0.91805 0.49665 0.0
H490 H 0.30111 0.90041 0.53116 0.0
H491 H 0.29496 0.90146 0.46898 0.0
C492 C 0.23528 0.85008 0.44797 0.0
N493 N 0.25049 0.84714 0.46074 0.0
C494 C 0.23614 0.84219 0.4289 0.0
C495 C 0.26775 0.82752 0.43701 0.0
C496 C 0.26635 0.8358 0.45581 0.0
C497 C 0.25284 0.83121 0.42305 0.0
H498 H 0.22301 0.85945 0.45227 0.0
H499 H 0.27834 0.83386 0.4661 0.0
O500 O 0.25494 0.89177 0.525 0.0
O501 O 0.22814 0.86247 0.50231 0.0
O502 O 0.25378 0.89089 0.47918 0.0
O503 O 0.27375 0.85852 0.50226 0.0
H504 H 0.24085 0.88819 0.56127 0.0
H505 H 0.26599 0.92902 0.51922 0.0
H506 H 0.23854 0.91565 0.58563 0.0
H507 H 0.26303 0.9558 0.5442 0.0
H508 H 0.21194 0.79727 0.49737 0.0
H509 H 0.18966 0.86625 0.50753 0.0
H510 H 0.23665 0.82449 0.49695 0.0
H511 H 0.16572 0.83833 0.50763 0.0
H512 H 0.1855 0.93849 0.52824 0.0
H513 H 0.18223 0.92373 0.46608 0.0
H514 H 0.28526 0.83003 0.57568 0.0
H515 H 0.22264 0.81759 0.57133 0.0
H516 H 0.25713 0.88632 0.44051 0.0
H517 H 0.25126 0.92927 0.4872 0.0
H518 H 0.25731 0.9138 0.41609 0.0
H519 H 0.25168 0.95603 0.46198 0.0
H520 H 0.3116 0.86353 0.49364 0.0
H521 H 0.26815 0.8211 0.51308 0.0
H522 H 0.33722 0.83734 0.49572 0.0
H523 H 0.29456 0.79562 0.51479 0.0
H524 H 0.33402 0.91621 0.52874 0.0
H525 H 0.32745 0.91721 0.46509 0.0
H526 H 0.22436 0.8455 0.41858 0.0
H527 H 0.28067 0.81877 0.43329 0.0
Li528 Li 0.36485 0.9862 0.74979 0.0
Li529 Li 0.39082 0.00393 0.76898 0.0
Li530 Li 0.36466 0.02259 0.75051 0.0
Li531 Li 0.3919 0.00541 0.73294 0.0
C532 C 0.3475 0.0042 0.787 0.0
N533 N 0.31836 0.00447 0.81569 0.0
C534 C 0.3524 0.00109 0.80683 0.0
C535 C 0.32779 0.0075 0.78175 0.0
C536 C 0.33745 0.00125 0.82112 0.0
C537 C 0.31327 0.00759 0.79649 0.0
C538 C 0.40857 0.9683 0.75087 0.0
C539 C 0.44316 0.95994 0.74857 0.0
N540 N 0.43866 0.94064 0.75226 0.0
C541 C 0.40426 0.94838 0.75459 0.0
C542 C 0.42814 0.97416 0.74779 0.0
C543 C 0.41969 0.93462 0.75525 0.0
C544 C 0.35187 0.95084 0.73301 0.0
N545 N 0.3502 0.96274 0.74914 0.0
C546 C 0.33048 0.93879 0.76591 0.0
C547 C 0.33981 0.95712 0.76542 0.0
C548 C 0.33231 0.92604 0.74968 0.0
C549 C 0.34305 0.93215 0.73301 0.0
H550 H 0.36055 0.95568 0.72044 0.0
H551 H 0.33924 0.96653 0.77826 0.0
C552 C 0.40999 0.0193 0.80207 0.0
N553 N 0.4052 0.00238 0.79238 0.0
C554 C 0.4192 0.01831 0.82044 0.0
C555 C 0.41837 0.98249 0.81833 0.0
C556 C 0.40912 0.98419 0.80005 0.0
C557 C 0.42336 -0.0003 0.82884 0.0
H558 H 0.4062 0.03353 0.79573 0.0
H559 H 0.40462 0.97102 0.79219 0.0
C560 C 0.3486 0.00533 0.71343 0.0
N561 N 0.319 0.00654 0.68538 0.0
C562 C 0.35311 0.01001 0.69379 0.0
C563 C 0.32909 0.00113 0.71881 0.0
C564 C 0.33792 0.01057 0.67983 0.0
C565 C 0.31432 0.00188 0.70441 0.0
C566 C 0.40839 0.04134 0.75091 0.0
C567 C 0.40432 0.06071 0.74481 0.0
C568 C 0.42773 0.03599 0.75589 0.0
C569 C 0.41974 0.07443 0.74364 0.0
C570 C 0.44275 0.05014 0.75451 0.0
N571 N 0.43848 0.0689 0.74846 0.0
C572 C 0.34333 0.0528 0.76906 0.0
C573 C 0.34058 0.05247 0.7341 0.0
C574 C 0.33028 0.06875 0.77032 0.0
N575 N 0.34794 0.04487 0.75117 0.0
C576 C 0.32757 0.0685 0.73465 0.0
C577 C 0.32216 0.07676 0.75296 0.0
H578 H 0.34968 0.04661 0.78237 0.0
H579 H 0.34487 0.04615 0.72005 0.0
C580 C 0.40804 0.98744 0.70012 0.0
N581 N 0.40834 0.00464 0.71054 0.0
C582 C 0.41953 0.98541 0.68311 0.0
C583 C 0.43152 0.01883 0.68804 0.0
C584 C 0.41966 0.02026 0.70484 0.0
C585 C 0.43148 0.00126 0.67693 0.0
H586 H 0.39875 0.97533 0.70503 0.0
H587 H 0.41935 0.03391 0.71312 0.0
O588 O 0.36197 0.00384 0.77284 0.0
O589 O 0.39358 0.98188 0.75002 0.0
O590 O 0.36334 0.00466 0.72719 0.0
O591 O 0.3934 0.02784 0.75226 0.0
H592 H 0.36758 -0.00153 0.81115 0.0
H593 H 0.32375 0.01004 0.7665 0.0
H594 H 0.34103 -0.00119 0.83652 0.0
H595 H 0.29795 0.01014 0.79265 0.0
H596 H 0.45839 0.96425 0.7462 0.0
H597 H 0.38916 0.94362 0.757 0.0
H598 H 0.43168 0.98948 0.74468 0.0
H599 H 0.41658 0.91916 0.75814 0.0
H600 H 0.32247 0.93432 0.77908 0.0
H601 H 0.34468 0.92256 0.72027 0.0
H602 H 0.4225 0.03193 0.82823 0.0
H603 H 0.42147 0.96788 0.82421 0.0
H604 H 0.36819 0.01321 0.68941 0.0
H605 H 0.32543 0.99725 0.73389 0.0
H606 H 0.34118 0.01419 0.66457 0.0
H607 H 0.29913 -0.0013 0.70835 0.0
H608 H 0.38939 0.06508 0.74101 0.0
H609 H 0.43108 0.02112 0.76085 0.0
H610 H 0.41682 0.08947 0.73892 0.0
H611 H 0.45779 0.04622 0.75828 0.0
H612 H 0.32649 0.07463 0.78474 0.0
H613 H 0.3221 0.07455 0.72087 0.0
H614 H 0.41914 0.97162 0.67492 0.0
H615 H 0.44024 0.03151 0.6835 0.0
Li616 Li 0.25495 0.14012 0.01876 0.0
Li617 Li 0.27234 0.1136 -0.00065 0.0
Li618 Li 0.25422 0.14121 0.9822 0.0
Li619 Li 0.23564 0.11441 -0.00012 0.0
C620 C 0.29078 0.15751 0.0018 0.0
N621 N 0.31784 0.18785 0.00588 0.0
C622 C 0.31017 0.15333 0.00759 0.0
C623 C 0.28514 0.17707 -0.00203 0.0
C624 C 0.32363 0.16889 0.0096 0.0
C625 C 0.29905 0.19222 0.00015 0.0
C626 C 0.25341 0.09656 0.03638 0.0
C627 C 0.24575 0.06315 0.04643 0.0
N628 N 0.25084 0.06778 0.06533 0.0
C629 C 0.25863 0.10098 0.05587 0.0
C630 C 0.24695 0.07751 0.03157 0.0
C631 C 0.2572 0.08623 0.07031 0.0
C632 C 0.23874 0.15075 0.05478 0.0
N633 N 0.25472 0.1541 0.04301 0.0
C634 C 0.27014 0.17332 0.06827 0.0
C635 C 0.27022 0.16526 0.04927 0.0
C636 C 0.25417 0.16946 0.08097 0.0
C637 C 0.23821 0.15821 0.07401 0.0
H638 H 0.22673 0.14164 0.04941 0.0
H639 H 0.28292 0.16743 0.03986 0.0
C640 C 0.30651 0.10092 0.98073 0.0
N641 N 0.29562 0.09827 0.99744 0.0
C642 C 0.32494 0.09183 0.97875 0.0
C643 C 0.32039 0.07711 0.01108 0.0
C644 C 0.30201 0.08649 0.01243 0.0
C645 C 0.33226 0.08001 0.9942 0.0
H646 H 0.30106 0.11059 0.96919 0.0
H647 H 0.2931 0.08478 0.02561 0.0
C648 C 0.21813 0.15821 -0.00042 0.0
N649 N 0.18988 0.18769 0.99726 0.0
C650 C 0.19919 0.15386 0.99257 0.0
C651 C 0.22272 0.17751 0.00544 0.0
C652 C 0.18511 0.16898 0.99152 0.0
C653 C 0.20823 0.19223 0.00411 0.0
C654 C 0.25367 0.0974 0.96331 0.0
C655 C 0.24886 0.10132 0.9436 0.0
C656 C 0.25838 0.07809 0.96914 0.0
C657 C 0.24868 0.08574 0.93001 0.0
C658 C 0.25805 0.06292 0.95508 0.0
N659 N 0.25323 0.06702 0.93598 0.0
C660 C 0.27336 0.15865 0.95033 0.0
C661 C 0.23868 0.16392 0.95032 0.0
C662 C 0.27519 0.16786 0.93194 0.0
N663 N 0.25531 0.15676 0.95901 0.0
C664 C 0.23982 0.17323 0.9319 0.0
C665 C 0.25824 0.175 0.92232 0.0
H666 H 0.28625 0.1524 0.95743 0.0
H667 H 0.22447 0.16187 0.95738 0.0
C668 C 0.19865 0.10433 0.01518 0.0
N669 N 0.2116 0.09999 0.00038 0.0
C670 C 0.17983 0.09579 0.01541 0.0
C671 C 0.18836 0.07794 0.98559 0.0
C672 C 0.20687 0.08702 0.98578 0.0
C673 C 0.1745 0.08251 0.00038 0.0
H674 H 0.2028 0.11484 0.02652 0.0
H675 H 0.21721 0.08402 0.97401 0.0
O676 O 0.27746 0.14245 -0.00018 0.0
O677 O 0.25421 0.111 0.02221 0.0
O678 O 0.23186 0.14345 0.00131 0.0
O679 O 0.25377 0.11248 0.97678 0.0
H680 H 0.31473 0.13823 0.01056 0.0
H681 H 0.2702 0.1805 0.9934 0.0
H682 H 0.33867 0.1659 0.01413 0.0
H683 H 0.29491 0.20744 0.99728 0.0
H684 H 0.24073 0.04834 0.04296 0.0
H685 H 0.26375 0.11564 0.05982 0.0
H686 H 0.24278 0.07389 0.01655 0.0
H687 H 0.26114 0.08945 0.08547 0.0
H688 H 0.28277 0.18182 0.07325 0.0
H689 H 0.22561 0.15507 0.08342 0.0
H690 H 0.33369 0.09464 0.96561 0.0
H691 H 0.32538 0.06792 0.02323 0.0
H692 H 0.19541 0.13896 0.98803 0.0
H693 H 0.23726 0.18104 0.01108 0.0
H694 H 0.17038 0.16582 0.98616 0.0
H695 H 0.21154 0.20724 0.0086 0.0
H696 H 0.24522 0.11622 0.93889 0.0
H697 H 0.26216 0.07485 0.98434 0.0
H698 H 0.24491 0.08852 0.91471 0.0
H699 H 0.2616 0.04788 0.95937 0.0
H700 H 0.28961 0.16866 0.92499 0.0
H701 H 0.2264 0.17871 0.92509 0.0
H702 H 0.16955 0.09955 0.02713 0.0
H703 H 0.1847 0.06791 0.97364 0.0
Li704 Li 0.73553 0.39072 0.00131 0.0
Li705 Li 0.75254 0.36329 0.01902 0.0
Li706 Li 0.77158 0.38968 0.0008 0.0
Li707 Li 0.75272 0.36351 0.98262 0.0
C708 C 0.75187 0.40675 0.0379 0.0
N709 N 0.74757 0.43611 0.06603 0.0
C710 C 0.74586 0.40191 0.0571 0.0
C711 C 0.75585 0.42647 0.03303 0.0
C712 C 0.74375 0.41698 0.0711 0.0
C713 C 0.75352 0.44112 0.04745 0.0
C714 C 0.71539 0.34776 -0.00017 0.0
C715 C 0.70555 0.31374 0.99522 0.0
N716 N 0.68638 0.319 -0.00159 0.0
C717 C 0.6956 0.35286 0.00299 0.0
C718 C 0.72044 0.32808 0.99584 0.0
C719 C 0.68115 0.3381 0.00223 0.0
C720 C 0.70558 0.41458 0.98445 0.0
N721 N 0.71322 0.40731 0.00158 0.0
C722 C 0.68721 0.42193 0.02036 0.0
C723 C 0.70447 0.41076 0.01933 0.0
C724 C 0.67881 0.42943 0.00292 0.0
C725 C 0.68831 0.42594 0.98479 0.0
H726 H 0.71258 0.41114 0.97048 0.0
H727 H 0.7106 0.40437 0.03262 0.0
C728 C 0.7693 0.3436 0.05171 0.0
N729 N 0.75222 0.3469 0.04165 0.0
C730 C 0.76922 0.33187 0.06875 0.0
C731 C 0.73399 0.32727 0.06467 0.0
C732 C 0.73475 0.3391 0.04779 0.0
C733 C 0.75135 0.32363 0.07548 0.0
H734 H 0.78293 0.35027 0.0466 0.0
H735 H 0.72134 0.34223 0.03973 0.0
C736 C 0.75466 0.40719 0.96442 0.0
N737 N 0.75694 0.43683 0.93629 0.0
C738 C 0.75748 0.40239 0.9445 0.0
C739 C 0.75301 0.42704 0.97004 0.0
C740 C 0.7586 0.41759 0.9305 0.0
C741 C 0.75419 0.44182 0.9556 0.0
C742 C 0.78917 0.34601 0.00252 0.0
C743 C 0.80926 0.35069 0.00126 0.0
C744 C 0.78336 0.32636 0.00542 0.0
C745 C 0.82327 0.33554 0.00285 0.0
C746 C 0.79783 0.31164 0.00699 0.0
N747 N 0.81731 0.31649 0.00566 0.0
C748 C 0.80445 0.40908 0.01701 0.0
C749 C 0.8034 0.40745 0.98197 0.0
C750 C 0.82325 0.41756 0.01634 0.0
N751 N 0.79514 0.40407 -3e-05 0.0
C752 C 0.82205 0.41602 0.98059 0.0
C753 C 0.83242 0.4208 -0.00208 0.0
H754 H 0.79758 0.40582 0.0311 0.0
H755 H 0.79578 0.40289 0.96871 0.0
C756 C 0.73655 0.34762 0.94792 0.0
N757 N 0.75306 0.34855 0.95927 0.0
C758 C 0.73742 0.33905 0.92916 0.0
C759 C 0.77206 0.33195 0.93459 0.0
C760 C 0.77056 0.34082 0.95312 0.0
C761 C 0.75547 0.33141 0.92212 0.0
H762 H 0.72294 0.35426 0.95315 0.0
H763 H 0.78355 0.34213 0.96229 0.0
O764 O 0.7543 0.3921 0.02415 0.0
O765 O 0.72967 0.36206 0.00062 0.0
O766 O 0.75319 0.39243 0.9782 0.0
O767 O 0.77532 0.36068 0.00078 0.0
H768 H 0.74287 0.38666 0.06112 0.0
H769 H 0.76085 0.43041 0.01836 0.0
H770 H 0.7391 0.41346 0.08602 0.0
H771 H 0.75651 0.45647 0.04389 0.0
H772 H 0.70924 0.29844 0.99217 0.0
H773 H 0.69146 0.36806 0.00604 0.0
H774 H 0.73566 0.32394 0.99317 0.0
H775 H 0.66577 0.34181 0.00469 0.0
H776 H 0.68027 0.42436 0.03461 0.0
H777 H 0.68204 0.43124 0.97104 0.0
H778 H 0.78287 0.32968 0.07681 0.0
H779 H 0.71993 0.32107 0.06922 0.0
H780 H 0.75876 0.38708 0.9399 0.0
H781 H 0.75058 0.43099 0.98534 0.0
H782 H 0.76075 0.4141 0.91503 0.0
H783 H 0.75286 0.45725 0.95973 0.0
H784 H 0.814 0.36584 -0.00102 0.0
H785 H 0.76789 0.32252 0.00657 0.0
H786 H 0.83887 0.33893 0.00184 0.0
H787 H 0.79356 0.29635 0.00927 0.0
H788 H 0.83079 0.42081 0.03007 0.0
H789 H 0.82841 0.41856 0.96609 0.0
H790 H 0.7243 0.33916 0.92 0.0
H791 H 0.78618 0.32593 0.92997 0.0
Li792 Li 0.89334 0.50516 0.26893 0.0
Li793 Li 0.86784 0.48526 0.25155 0.0
Li794 Li 0.89313 0.50454 0.23277 0.0
Li795 Li 0.86552 0.52111 0.24989 0.0
C796 C 0.91106 0.46791 0.24988 0.0
N797 N 0.93986 0.43893 0.24729 0.0
C798 C 0.90597 0.44791 0.25171 0.0
C799 C 0.9308 0.47316 0.24668 0.0
C800 C 0.92075 0.43349 0.25041 0.0
C801 C 0.94514 0.45829 0.24539 0.0
C802 C 0.84989 0.50093 0.28719 0.0
C803 C 0.81538 0.49998 0.29617 0.0
N804 N 0.8205 0.49587 0.31518 0.0
C805 C 0.85483 0.49668 0.3068 0.0
C806 C 0.83002 0.50261 0.2818 0.0
C807 C 0.83975 0.49417 0.32074 0.0
C808 C 0.90633 0.52145 0.30455 0.0
N809 N 0.90803 0.50563 0.29227 0.0
C810 C 0.92573 0.48731 0.31659 0.0
C811 C 0.91774 0.4889 0.29774 0.0
C812 C 0.92327 0.50294 0.33007 0.0
C813 C 0.91392 0.52043 0.3237 0.0
H814 H 0.89816 0.5344 0.2998 0.0
H815 H 0.9185 0.47638 0.28788 0.0
C816 C 0.84685 0.45355 0.23607 0.0
N817 N 0.85401 0.4616 0.25298 0.0
C818 C 0.83754 0.4352 0.2366 0.0
C819 C 0.84366 0.43365 0.27188 0.0
C820 C 0.85263 0.45218 0.2707 0.0
C821 C 0.83603 0.42506 0.25466 0.0
H822 H 0.84873 0.46121 0.22215 0.0
H823 H 0.85895 0.45884 0.28377 0.0
C824 C 0.90896 0.54156 0.24942 0.0
N825 N 0.93916 0.56901 0.24725 0.0
C826 C 0.9048 0.56128 0.24466 0.0
C827 C 0.92843 0.5358 0.25325 0.0
C828 C 0.92028 0.57494 0.24362 0.0
C829 C 0.94351 0.54989 0.252 0.0
C830 C 0.84975 0.50398 0.21414 0.0
C831 C 0.85431 0.50979 0.19482 0.0
C832 C 0.83012 0.50008 0.21934 0.0
C833 C 0.83908 0.51174 0.18101 0.0
C834 C 0.81531 0.50223 0.20512 0.0
N835 N 0.82006 0.50796 0.18641 0.0
C836 C 0.91456 0.48688 0.20212 0.0
C837 C 0.91496 0.52203 0.20208 0.0
C838 C 0.9267 0.48634 0.18546 0.0
N839 N 0.90924 0.50453 0.21018 0.0
C840 C 0.92692 0.52221 0.18529 0.0
C841 C 0.93302 0.50419 0.17681 0.0
H842 H 0.90932 0.4732 0.20859 0.0
H843 H 0.90998 0.53584 0.20845 0.0
C844 C 0.84119 0.54979 0.2671 0.0
N845 N 0.84781 0.54253 0.24955 0.0
C846 C 0.82835 0.56595 0.26747 0.0
C847 C 0.8295 0.56682 0.2317 0.0
C848 C 0.84234 0.55068 0.23203 0.0
C849 C 0.82253 0.57477 0.2496 0.0
H850 H 0.84621 0.54328 0.28082 0.0
H851 H 0.84824 0.54493 0.21834 0.0
O852 O 0.89675 0.4822 0.25141 0.0
O853 O 0.86451 0.50419 0.27357 0.0
O854 O 0.89391 0.52811 0.2506 0.0
O855 O 0.86457 0.50167 0.22769 0.0
H856 H 0.8908 0.44353 0.2542 0.0
H857 H 0.935 0.48852 0.24506 0.0
H858 H 0.91701 0.41796 0.25188 0.0
H859 H 0.96046 0.46214 0.24286 0.0
H860 H 0.79994 0.50133 0.29223 0.0
H861 H 0.87015 0.49543 0.31124 0.0
H862 H 0.82596 0.50622 0.26678 0.0
H863 H 0.84336 0.49093 0.33599 0.0
H864 H 0.9332 0.47373 0.32075 0.0
H865 H 0.91159 0.53278 0.33366 0.0
H866 H 0.83198 0.42878 0.22302 0.0
H867 H 0.84266 0.42614 0.28601 0.0
H868 H 0.88975 0.56596 0.24178 0.0
H869 H 0.93183 0.52068 0.25726 0.0
H870 H 0.91729 0.59026 0.23993 0.0
H871 H 0.95867 0.54565 0.25486 0.0
H872 H 0.86946 0.51273 0.19053 0.0
H873 H 0.82639 0.49525 0.23413 0.0
H874 H 0.84238 0.51623 0.166 0.0
H875 H 0.80006 0.49925 0.20893 0.0
H876 H 0.93104 0.47212 0.17945 0.0
H877 H 0.93092 0.53632 0.17878 0.0
H878 H 0.82369 0.57196 0.28158 0.0
H879 H 0.8254 0.57327 0.21762 0.0
Li880 Li 0.75514 0.63823 0.51846 0.0
Li881 Li 0.77258 0.61219 0.49852 0.0
Li882 Li 0.75473 0.64023 0.48165 0.0
Li883 Li 0.73592 0.61307 0.49862 0.0
C884 C 0.79113 0.65603 0.50117 0.0
N885 N 0.8183 0.68637 0.50444 0.0
C886 C 0.8108 0.65181 0.5059 0.0
C887 C 0.78528 0.67564 0.498 0.0
C888 C 0.82431 0.66737 0.50754 0.0
C889 C 0.79925 0.69078 0.49973 0.0
C890 C 0.75412 0.59467 0.53535 0.0
C891 C 0.74742 0.56119 0.54584 0.0
N892 N 0.75312 0.566 0.56451 0.0
C893 C 0.75994 0.59929 0.55463 0.0
C894 C 0.74779 0.57549 0.53088 0.0
C895 C 0.75931 0.58459 0.56917 0.0
C896 C 0.73906 0.6515 0.5546 0.0
N897 N 0.75561 0.65171 0.54312 0.0
C898 C 0.77378 0.66816 0.5685 0.0
C899 C 0.7728 0.65969 0.54974 0.0
C900 C 0.75699 0.66815 0.58075 0.0
C901 C 0.73943 0.65963 0.57363 0.0
H902 H 0.72568 0.64471 0.54908 0.0
H903 H 0.78592 0.65913 0.54067 0.0
C904 C 0.80605 0.59804 0.4794 0.0
N905 N 0.79593 0.59695 0.49675 0.0
C906 C 0.8246 0.58913 0.47756 0.0
C907 C 0.82179 0.5779 0.51144 0.0
C908 C 0.80327 0.58701 0.51261 0.0
C909 C 0.83283 0.57916 0.49382 0.0
H910 H 0.79993 0.60638 0.46718 0.0
H911 H 0.79501 0.58663 0.52631 0.0
C912 C 0.71825 0.65673 0.50014 0.0
N913 N 0.68956 0.68589 0.5001 0.0
C914 C 0.69886 0.65217 0.49464 0.0
C915 C 0.72305 0.67607 0.50568 0.0
C916 C 0.68456 0.66713 0.49473 0.0
C917 C 0.70834 0.69063 0.5055 0.0
C918 C 0.75374 0.59634 0.46238 0.0
C919 C 0.74992 0.60026 0.44245 0.0
C920 C 0.75701 0.57687 0.46862 0.0
C921 C 0.74931 0.58453 0.42905 0.0
C922 C 0.75631 0.56155 0.45474 0.0
N923 N 0.75249 0.56566 0.43542 0.0
C924 C 0.77416 0.65794 0.44996 0.0
C925 C 0.73956 0.66367 0.44991 0.0
C926 C 0.77619 0.66743 0.43172 0.0
N927 N 0.75607 0.65619 0.45859 0.0
C928 C 0.7409 0.67321 0.43158 0.0
C929 C 0.75939 0.67496 0.42213 0.0
H930 H 0.78696 0.6514 0.45701 0.0
H931 H 0.72531 0.66175 0.45694 0.0
C932 C 0.70107 0.59838 0.51529 0.0
N933 N 0.71186 0.59875 0.49832 0.0
C934 C 0.68203 0.59038 0.51538 0.0
C935 C 0.68588 0.58268 0.48067 0.0
C936 C 0.70476 0.59099 0.48122 0.0
C937 C 0.67404 0.58266 0.49781 0.0
H938 H 0.70702 0.60498 0.52859 0.0
H939 H 0.71346 0.59178 0.46783 0.0
O940 O 0.77774 0.64096 0.49966 0.0
O941 O 0.7541 0.60906 0.52111 0.0
O942 O 0.73225 0.64214 0.50067 0.0
O943 O 0.75432 0.61159 0.47564 0.0
H944 H 0.81553 0.63667 0.50838 0.0
H945 H 0.77014 0.67911 0.49416 0.0
H946 H 0.83957 0.66434 0.51128 0.0
H947 H 0.79495 0.70604 0.49731 0.0
H948 H 0.74252 0.54628 0.54261 0.0
H949 H 0.76486 0.61408 0.55835 0.0
H950 H 0.74305 0.57174 0.51607 0.0
H951 H 0.76371 0.58797 0.58417 0.0
H952 H 0.78766 0.67435 0.57352 0.0
H953 H 0.72613 0.65947 0.58258 0.0
H954 H 0.83271 0.59066 0.46381 0.0
H955 H 0.82752 0.57017 0.52425 0.0
H956 H 0.69488 0.63723 0.49043 0.0
H957 H 0.73793 0.67976 0.51023 0.0
H958 H 0.66948 0.66381 0.49057 0.0
H959 H 0.71183 0.70568 0.50975 0.0
H960 H 0.74739 0.61529 0.43743 0.0
H961 H 0.76013 0.57365 0.48397 0.0
H962 H 0.74631 0.58732 0.41358 0.0
H963 H 0.75882 0.54639 0.45933 0.0
H964 H 0.79066 0.6682 0.42486 0.0
H965 H 0.72759 0.67896 0.42478 0.0
H966 H 0.67344 0.59092 0.5289 0.0
H967 H 0.68053 0.57659 0.46687 0.0
Li968 Li 0.64443 0.51893 0.75347 0.0
Li969 Li 0.61847 0.50032 0.77332 0.0
Li970 Li 0.64532 0.48189 0.75474 0.0
Li971 Li 0.61751 0.49906 0.73649 0.0
C972 C 0.66246 0.50163 0.79041 0.0
N973 N 0.6924 0.50212 0.81812 0.0
C974 C 0.65825 0.50623 0.81012 0.0
C975 C 0.68186 0.4972 0.78477 0.0
C976 C 0.67361 0.50643 0.82391 0.0
C977 C 0.6968 0.49754 0.79901 0.0
C978 C 0.60081 0.5365 0.75621 0.0
C979 C 0.56661 0.54645 0.75453 0.0
N980 N 0.57187 0.56518 0.75974 0.0
C981 C 0.6059 0.55583 0.76156 0.0
C982 C 0.58103 0.53172 0.75265 0.0
C983 C 0.59104 0.57013 0.76327 0.0
C984 C 0.65694 0.55312 0.73367 0.0
N985 N 0.65919 0.54302 0.75093 0.0
C986 C 0.68029 0.5685 0.76354 0.0
C987 C 0.67065 0.55026 0.76576 0.0
C988 C 0.67798 0.57946 0.74596 0.0
C989 C 0.6662 0.57144 0.73087 0.0
H990 H 0.64769 0.54702 0.72215 0.0
H991 H 0.67205 0.54208 0.77944 0.0
C992 C 0.60534 0.48124 0.8072 0.0
N993 N 0.60353 0.49865 0.79722 0.0
C994 C 0.59551 0.47838 0.82517 0.0
C995 C 0.58189 0.51137 0.8222 0.0
C996 C 0.59209 0.51364 0.80431 0.0
C997 C 0.58361 0.49357 0.83295 0.0
H998 H 0.61456 0.46959 0.8012 0.0
H999 H 0.59104 0.52743 0.79624 0.0
C1000 C 0.66114 0.49902 0.71736 0.0
N1001 N 0.69082 0.49766 0.68929 0.0
C1002 C 0.65691 0.49297 0.69807 0.0
C1003 C 0.68041 0.5045 0.72238 0.0
C1004 C 0.67213 0.49237 0.68408 0.0
C1005 C 0.69523 0.50365 0.70797 0.0
C1006 C 0.60176 0.46318 0.75421 0.0
C1007 C 0.60622 0.44382 0.74836 0.0
C1008 C 0.5822 0.46845 0.75834 0.0
C1009 C 0.59094 0.43002 0.74661 0.0
C1010 C 0.56733 0.45421 0.75641 0.0
N1011 N 0.57198 0.43545 0.75063 0.0
C1012 C 0.65811 0.44683 0.77291 0.0
C1013 C 0.67432 0.45304 0.74243 0.0
C1014 C 0.66839 0.42896 0.77521 0.0
N1015 N 0.66116 0.4584 0.75669 0.0
C1016 C 0.6851 0.43543 0.74425 0.0
C1017 C 0.68212 0.42308 0.76076 0.0
H1018 H 0.64749 0.45142 0.78399 0.0
H1019 H 0.67633 0.46225 0.72952 0.0
C1020 C 0.59559 0.51616 0.70512 0.0
N1021 N 0.60084 0.49866 0.71365 0.0
C1022 C 0.58399 0.51642 0.68799 0.0
C1023 C 0.58342 0.48063 0.68875 0.0
C1024 C 0.59503 0.48107 0.7058 0.0
C1025 C 0.57786 0.49845 0.67946 0.0
H1026 H 0.60067 0.52996 0.71147 0.0
H1027 H 0.59963 0.46734 0.71262 0.0
O1028 O 0.64755 0.5012 0.77682 0.0
O1029 O 0.61523 0.52248 0.75399 0.0
O1030 O 0.64637 0.49979 0.73115 0.0
O1031 O 0.61655 0.47683 0.756 0.0
H1032 H 0.64328 0.50963 0.8147 0.0
H1033 H 0.68531 0.49342 0.7696 0.0
H1034 H 0.67058 0.50999 0.83922 0.0
H1035 H 0.71189 0.49414 0.79488 0.0
H1036 H 0.55124 0.54299 0.75178 0.0
H1037 H 0.62117 0.55976 0.76428 0.0
H1038 H 0.5769 0.51685 0.74834 0.0
H1039 H 0.59476 0.58518 0.76735 0.0
H1040 H 0.68903 0.5742 0.77568 0.0
H1041 H 0.66417 0.57923 0.71701 0.0
H1042 H 0.59713 0.46437 0.83285 0.0
H1043 H 0.57309 0.52357 0.82778 0.0
H1044 H 0.64201 0.4888 0.69397 0.0
H1045 H 0.68386 0.50938 0.73721 0.0
H1046 H 0.66909 0.4877 0.66909 0.0
H1047 H 0.71023 0.5078 0.71164 0.0
H1048 H 0.62132 0.43954 0.74514 0.0
H1049 H 0.57856 0.48334 0.76303 0.0
H1050 H 0.59416 0.41499 0.74206 0.0
H1051 H 0.55211 0.45805 0.75954 0.0
H1052 H 0.66572 0.41989 0.78817 0.0
H1053 H 0.69533 0.43127 0.73262 0.0
H1054 H 0.58035 0.5305 0.68122 0.0
H1055 H 0.57889 0.46642 0.68287 0.0
Li1056 Li 0.98653 0.75276 0.86263 0.0
Li1057 Li 0.00296 0.77148 0.88972 0.0
Li1058 Li 0.02345 0.75291 0.86353 0.0
Li1059 Li 0.00501 0.73449 0.88992 0.0
C1060 C 0.00285 0.7895 0.84621 0.0
N1061 N -0.00067 0.81799 0.81707 0.0
C1062 C 0.99536 0.80826 0.85082 0.0
C1063 C 0.00871 0.78527 0.82684 0.0
C1064 C 0.99367 0.82245 0.83587 0.0
C1065 C 0.00674 0.79985 0.81229 0.0
C1066 C 0.96738 0.75362 0.90625 0.0
C1067 C 0.95848 0.75246 0.94077 0.0
N1068 N 0.9396 0.7575 0.93599 0.0
C1069 C 0.94788 0.75871 0.90165 0.0
C1070 C 0.97275 0.7504 0.92593 0.0
C1071 C 0.93406 0.76063 0.91691 0.0
C1072 C 0.95638 0.73628 0.83808 0.0
N1073 N 0.96352 0.75325 0.8462 0.0
C1074 C 0.93656 0.77187 0.8327 0.0
C1075 C 0.95398 0.77084 0.84377 0.0
C1076 C 0.92885 0.75461 0.82404 0.0
C1077 C 0.93907 0.73665 0.82679 0.0
H1078 H 0.96389 0.72237 0.84066 0.0
H1079 H 0.95971 0.78404 0.85074 0.0
C1080 C 0.01846 0.80646 0.90602 0.0
N1081 N 0.0016 0.79564 0.90459 0.0
C1082 C 0.0182 0.82515 0.91494 0.0
C1083 C 0.98326 0.82112 0.92117 0.0
C1084 C 0.98416 0.8026 0.9119 0.0
C1085 C 0.00039 0.83284 0.92264 0.0
H1086 H 0.03205 0.80077 0.89973 0.0
H1087 H 0.97082 0.79402 0.91021 0.0
C1088 C 0.00602 0.71634 0.84602 0.0
N1089 N 0.00745 0.68867 0.81598 0.0
C1090 C 0.00826 0.69623 0.85047 0.0
C1091 C 0.00448 0.72239 0.82632 0.0
C1092 C 0.00897 0.68247 0.83506 0.0
C1093 C 0.00523 0.70817 0.81133 0.0
C1094 C 0.04026 0.75254 0.90746 0.0
C1095 C 0.05961 0.74671 0.90301 0.0
C1096 C 0.03511 0.75714 0.92694 0.0
C1097 C 0.07349 0.74543 0.91823 0.0
C1098 C 0.04942 0.75565 0.94175 0.0
N1099 N 0.06815 0.74988 0.93712 0.0
C1100 C 0.05873 0.76954 0.84884 0.0
C1101 C 0.05466 0.73553 0.84126 0.0
C1102 C 0.07761 0.76948 0.84039 0.0
N1103 N 0.04776 0.75269 0.84923 0.0
C1104 C 0.07334 0.73486 0.83242 0.0
C1105 C 0.08529 0.75191 0.83212 0.0
H1106 H 0.05301 0.78289 0.85564 0.0
H1107 H 0.04591 0.72219 0.84214 0.0
C1108 C 0.99019 0.70186 0.91236 0.0
N1109 N 0.00677 0.71074 0.90522 0.0
C1110 C 0.9915 0.68369 0.92228 0.0
C1111 C 0.02688 0.68409 0.91716 0.0
C1112 C 0.02488 0.70226 0.9074 0.0
C1113 C 0.01003 0.6745 0.92469 0.0
H1114 H 0.9759 0.70867 0.91001 0.0
H1115 H 0.03778 0.70941 0.90119 0.0
O1116 O 0.0051 0.77564 0.86077 0.0
O1117 O 0.98103 0.7516 0.89146 0.0
O1118 O 0.00527 0.72996 0.86097 0.0
O1119 O 0.02665 0.75437 0.89265 0.0
H1120 H 0.99095 0.81181 0.86581 0.0
H1121 H 0.01489 0.77096 0.82313 0.0
H1122 H 0.98791 0.83704 0.83922 0.0
H1123 H 0.01119 0.79679 0.79723 0.0
H1124 H 0.9624 0.75002 0.95608 0.0
H1125 H 0.9435 0.76117 0.88645 0.0
H1126 H 0.98774 0.74627 0.92969 0.0
H1127 H 0.91892 0.7646 0.91358 0.0
H1128 H 0.92922 0.78603 0.83096 0.0
H1129 H 0.93346 0.7229 0.82074 0.0
H1130 H 0.03175 0.83367 0.91527 0.0
H1131 H 0.96923 0.82617 0.92703 0.0
H1132 H 0.00944 0.69132 0.86567 0.0
H1133 H 0.00257 0.73788 0.82265 0.0
H1134 H 0.01071 0.66685 0.83828 0.0
H1135 H 0.00402 0.71262 0.796 0.0
H1136 H 0.06385 0.74324 0.88796 0.0
H1137 H 0.02027 0.76196 0.93055 0.0
H1138 H 0.08852 0.74095 0.91501 0.0
H1139 H 0.04565 0.75915 0.95691 0.0
H1140 H 0.08629 0.78294 0.8409 0.0
H1141 H 0.07836 0.72104 0.82601 0.0
H1142 H 0.97809 0.67667 0.92754 0.0
H1143 H 0.04145 0.67762 0.91878 0.0
Li1144 Li 0.00247 0.26802 0.61241 0.0
Li1145 Li 0.02117 0.25134 0.63893 0.0
Li1146 Li 0.00127 0.23194 0.61423 0.0
Li1147 Li 0.98535 0.25112 0.64092 0.0
C1148 C 0.03823 0.25181 0.5953 0.0
N1149 N 0.06603 0.25685 0.5657 0.0
C1150 C 0.05751 0.25761 0.59999 0.0
C1151 C 0.03315 0.24842 0.57557 0.0
C1152 C 0.07133 0.26011 0.58481 0.0
C1153 C 0.04739 0.2511 0.56081 0.0
C1154 C 0.00726 0.28809 0.65532 0.0
C1155 C 0.00931 0.29734 0.6897 0.0
N1156 N 0.01384 0.31621 0.68424 0.0
C1157 C 0.01196 0.30755 0.65003 0.0
C1158 C 0.0059 0.28292 0.67529 0.0
C1159 C 0.01523 0.32156 0.66488 0.0
C1160 C 0.98417 0.29763 0.59026 0.0
N1161 N 0.00206 0.28996 0.59522 0.0
C1162 C 0.01879 0.31488 0.57653 0.0
C1163 C 0.01922 0.29821 0.58871 0.0
C1164 C 0.00053 0.3233 0.57142 0.0
C1165 C 0.98304 0.3144 0.57827 0.0
H1166 H 0.97079 0.29093 0.59595 0.0
H1167 H 0.03325 0.29221 0.59339 0.0
C1168 C 0.051 0.23326 0.65993 0.0
N1169 N 0.04462 0.25116 0.65332 0.0
C1170 C 0.0692 0.23164 0.6693 0.0
C1171 C 0.07406 0.2669 0.66454 0.0
C1172 C 0.05553 0.26791 0.65558 0.0
C1173 C 0.081 0.24855 0.67136 0.0
H1174 H 0.04221 0.22015 0.65741 0.0
H1175 H 0.05014 0.28185 0.6498 0.0
C1176 C 0.96537 0.2471 0.59766 0.0
N1177 N 0.93785 0.24138 0.56808 0.0
C1178 C 0.94599 0.24173 0.60245 0.0
C1179 C 0.97076 0.2496 0.57786 0.0
C1180 C 0.93228 0.2389 0.58727 0.0
C1181 C 0.95664 0.24661 0.56311 0.0
C1182 C 0.00033 0.2149 0.65788 0.0
C1183 C 0.99417 0.19569 0.65323 0.0
C1184 C 0.00372 0.22 0.67761 0.0
C1185 C 0.99135 0.18194 0.66843 0.0
C1186 C 0.00069 0.20584 0.6924 0.0
N1187 N 0.99462 0.18726 0.68754 0.0
C1188 C 0.01892 0.20157 0.59365 0.0
C1189 C 0.98426 0.19736 0.59758 0.0
C1190 C 0.02055 0.18316 0.58461 0.0
N1191 N 0.00101 0.20824 0.59989 0.0
C1192 C 0.98529 0.17857 0.58898 0.0
C1193 C 0.00366 0.17137 0.58252 0.0
H1194 H 0.03204 0.21029 0.59626 0.0
H1195 H 0.97031 0.20294 0.6031 0.0
C1196 C 0.95771 0.26989 0.66528 0.0
N1197 N 0.96377 0.25198 0.65841 0.0
C1198 C 0.94123 0.27121 0.67758 0.0
C1199 C 0.93762 0.23558 0.67556 0.0
C1200 C 0.95422 0.23496 0.66331 0.0
C1201 C 0.93076 0.25393 0.68257 0.0
H1202 H 0.96537 0.28321 0.6608 0.0
H1203 H 0.95908 0.22099 0.65721 0.0
O1204 O 0.02464 0.24897 0.61005 0.0
O1205 O 0.00322 0.27444 0.64094 0.0
O1206 O 0.9787 0.25067 0.6124 0.0
O1207 O 0.00367 0.22836 0.64309 0.0
H1208 H 0.06178 0.26011 0.61517 0.0
H1209 H 0.01843 0.24357 0.57171 0.0
H1210 H 0.08629 0.26461 0.58824 0.0
H1211 H 0.04366 0.24854 0.54548 0.0
H1212 H 0.00822 0.29356 0.70521 0.0
H1213 H 0.01289 0.31182 0.63462 0.0
H1214 H 0.00194 0.26803 0.67962 0.0
H1215 H 0.01879 0.33671 0.66101 0.0
H1216 H 0.03258 0.32164 0.57191 0.0
H1217 H 0.96869 0.32057 0.5747 0.0
H1218 H 0.07432 0.21725 0.67425 0.0
H1219 H 0.08293 0.28019 0.66596 0.0
H1220 H 0.94155 0.23993 0.61774 0.0
H1221 H 0.98559 0.2541 0.57394 0.0
H1222 H 0.9172 0.23482 0.59075 0.0
H1223 H 0.96059 0.24856 0.54772 0.0
H1224 H 0.9917 0.19139 0.63805 0.0
H1225 H 0.00887 0.23465 0.68146 0.0
H1226 H 0.98662 0.16701 0.66502 0.0
H1227 H 0.00326 0.2096 0.70773 0.0
H1228 H 0.03496 0.17786 0.57998 0.0
H1229 H 0.97202 0.16971 0.58756 0.0
H1230 H 0.9364 0.28564 0.68269 0.0
H1231 H 0.92971 0.22198 0.67868 0.0
Li1232 Li 0.48798 0.25394 0.36131 0.0
Li1233 Li 0.50402 0.27331 0.38815 0.0
Li1234 Li 0.52473 0.25521 0.36207 0.0
Li1235 Li 0.5067 0.23642 0.3889 0.0
C1236 C 0.50521 0.29091 0.34409 0.0
N1237 N 0.50445 0.31838 0.3138 0.0
C1238 C 0.49963 0.31049 0.34791 0.0
C1239 C 0.51053 0.2853 0.32491 0.0
C1240 C 0.49932 0.32416 0.33239 0.0
C1241 C 0.50999 0.29941 0.30978 0.0
C1242 C 0.46906 0.25616 0.40487 0.0
C1243 C 0.4601 0.25566 0.43939 0.0
N1244 N 0.4416 0.26195 0.4346 0.0
C1245 C 0.44994 0.26252 0.40025 0.0
C1246 C 0.4742 0.25259 0.42456 0.0
C1247 C 0.43628 0.26541 0.41551 0.0
C1248 C 0.45422 0.23538 0.34641 0.0
N1249 N 0.46494 0.25235 0.34507 0.0
C1250 C 0.44107 0.2665 0.32306 0.0
C1251 C 0.45881 0.26776 0.3336 0.0
C1252 C 0.42943 0.24933 0.32459 0.0
C1253 C 0.43636 0.23353 0.33624 0.0
H1254 H 0.45938 0.22341 0.35574 0.0
H1255 H 0.46734 0.28125 0.33301 0.0
C1256 C 0.51783 0.30595 0.41091 0.0
N1257 N 0.50149 0.29735 0.403 0.0
C1258 C 0.51647 0.32441 0.42021 0.0
C1259 C 0.48148 0.32487 0.41313 0.0
C1260 C 0.48351 0.30637 0.40401 0.0
C1261 C 0.49815 0.3343 0.42118 0.0
H1262 H 0.53203 0.29869 0.4096 0.0
H1263 H 0.47084 0.29952 0.39712 0.0
C1264 C 0.50512 0.21755 0.34576 0.0
N1265 N 0.50082 0.18877 0.31705 0.0
C1266 C 0.50793 0.19758 0.3505 0.0
C1267 C 0.50013 0.2229 0.32643 0.0
C1268 C 0.5057 0.18325 0.33577 0.0
C1269 C 0.49799 0.20812 0.31213 0.0
C1270 C 0.5418 0.25471 0.40609 0.0
C1271 C 0.56104 0.24859 0.40156 0.0
C1272 C 0.53666 0.25882 0.4257 0.0
C1273 C 0.57488 0.24674 0.41676 0.0
C1274 C 0.55092 0.25676 0.44048 0.0
N1275 N 0.56958 0.25083 0.43575 0.0
C1276 C 0.56268 0.26888 0.35151 0.0
C1277 C 0.55265 0.23977 0.33469 0.0
C1278 C 0.58165 0.26737 0.3434 0.0
N1279 N 0.54879 0.25495 0.34737 0.0
C1280 C 0.57132 0.23785 0.32604 0.0
C1281 C 0.58623 0.25148 0.33075 0.0
H1282 H 0.55925 0.28069 0.36179 0.0
H1283 H 0.54152 0.22873 0.3318 0.0
C1284 C 0.4914 0.20065 0.4032 0.0
N1285 N 0.50762 0.21248 0.40414 0.0
C1286 C 0.4916 0.18183 0.41186 0.0
C1287 C 0.52495 0.18793 0.42296 0.0
C1288 C 0.52421 0.20651 0.41382 0.0
C1289 C 0.50861 0.17509 0.42183 0.0
H1290 H 0.47853 0.20559 0.39507 0.0
H1291 H 0.5371 0.21586 0.4141 0.0
O1292 O 0.50564 0.2774 0.35914 0.0
O1293 O 0.48248 0.25296 0.39009 0.0
O1294 O 0.50741 0.23174 0.35999 0.0
O1295 O 0.52815 0.2568 0.39135 0.0
H1296 H 0.49558 0.31507 0.36271 0.0
H1297 H 0.51504 0.27024 0.32177 0.0
H1298 H 0.49502 0.33936 0.33512 0.0
H1299 H 0.51401 0.29529 0.29484 0.0
H1300 H 0.46385 0.25298 0.45471 0.0
H1301 H 0.44574 0.2652 0.38504 0.0
H1302 H 0.48887 0.24742 0.42831 0.0
H1303 H 0.42143 0.27036 0.41217 0.0
H1304 H 0.43612 0.27912 0.31449 0.0
H1305 H 0.4279 0.21998 0.33773 0.0
H1306 H 0.5297 0.33094 0.42642 0.0
H1307 H 0.46713 0.33201 0.41322 0.0
H1308 H 0.51196 0.1932 0.36536 0.0
H1309 H 0.49793 0.23829 0.32251 0.0
H1310 H 0.5079 0.16774 0.33922 0.0
H1311 H 0.49412 0.21204 0.29711 0.0
H1312 H 0.56522 0.24518 0.3865 0.0
H1313 H 0.52184 0.26361 0.42943 0.0
H1314 H 0.58982 0.24203 0.41347 0.0
H1315 H 0.54717 0.2599 0.45572 0.0
H1316 H 0.59272 0.27831 0.3472 0.0
H1317 H 0.57431 0.22535 0.31643 0.0
H1318 H 0.47873 0.17247 0.41015 0.0
H1319 H 0.5383 0.18366 0.4307 0.0
Li1320 Li 0.50269 0.77064 0.11382 0.0
Li1321 Li 0.52153 0.75307 0.13989 0.0
Li1322 Li 0.50237 0.73434 0.11415 0.0
Li1323 Li 0.48529 0.75225 0.14139 0.0
C1324 C 0.53872 0.75394 0.09625 0.0
N1325 N 0.56664 0.75651 0.06649 0.0
C1326 C 0.55806 0.7597 0.10063 0.0
C1327 C 0.53357 0.74942 0.07677 0.0
C1328 C 0.57197 0.76092 0.08537 0.0
C1329 C 0.54789 0.75085 0.06192 0.0
C1330 C 0.50499 0.78901 0.1579 0.0
C1331 C 0.50309 0.79708 0.19258 0.0
N1332 N 0.50819 0.81611 0.18832 0.0
C1333 C 0.51018 0.80864 0.15384 0.0
C1334 C 0.50137 0.78315 0.1774 0.0
C1335 C 0.51175 0.82213 0.16943 0.0
C1336 C 0.48649 0.79997 0.08882 0.0
N1337 N 0.50334 0.79308 0.09731 0.0
C1338 C 0.52249 0.81831 0.0816 0.0
C1339 C 0.52109 0.80195 0.09414 0.0
C1340 C 0.50539 0.82562 0.07236 0.0
C1341 C 0.48719 0.81628 0.07616 0.0
H1342 H 0.47252 0.79282 0.09193 0.0
H1343 H 0.53418 0.79631 0.10137 0.0
C1344 C 0.5557 0.7348 0.15059 0.0
N1345 N 0.54535 0.75175 0.15383 0.0
C1346 C 0.57424 0.73219 0.15909 0.0
C1347 C 0.57097 0.76446 0.17439 0.0
C1348 C 0.55252 0.76654 0.1654 0.0
C1349 C 0.58207 0.74716 0.1711 0.0
H1350 H 0.54955 0.72341 0.14118 0.0
H1351 H 0.54412 0.78 0.16745 0.0
C1352 C 0.46592 0.74907 0.0979 0.0
N1353 N 0.43847 0.74249 0.06843 0.0
C1354 C 0.44674 0.74307 0.10276 0.0
C1355 C 0.47115 0.75176 0.07807 0.0
C1356 C 0.43307 0.73981 0.08764 0.0
C1357 C 0.45706 0.74833 0.06338 0.0
C1358 C 0.50445 0.71582 0.1572 0.0
C1359 C 0.50024 0.69611 0.15247 0.0
C1360 C 0.50894 0.72093 0.1767 0.0
C1361 C 0.50042 0.68181 0.16742 0.0
C1362 C 0.50895 0.70619 0.19124 0.0
N1363 N 0.50471 0.68711 0.18634 0.0
C1364 C 0.52157 0.70272 0.09705 0.0
C1365 C 0.48671 0.70117 0.09355 0.0
C1366 C 0.52369 0.68412 0.0884 0.0
N1367 N 0.50331 0.71076 0.0995 0.0
C1368 C 0.48813 0.68248 0.08486 0.0
C1369 C 0.50681 0.67359 0.08246 0.0
H1370 H 0.53446 0.71056 0.10234 0.0
H1371 H 0.47234 0.70767 0.0962 0.0
C1372 C 0.45427 0.7682 0.16431 0.0
N1373 N 0.46342 0.75118 0.15869 0.0
C1374 C 0.43779 0.76747 0.17675 0.0
C1375 C 0.44073 0.73174 0.17755 0.0
C1376 C 0.45701 0.73316 0.16498 0.0
C1377 C 0.43071 0.74902 0.18339 0.0
H1378 H 0.45959 0.7823 0.15885 0.0
H1379 H 0.46429 0.71984 0.15997 0.0
O1380 O 0.52512 0.75209 0.11112 0.0
O1381 O 0.50297 0.77581 0.14272 0.0
O1382 O 0.47927 0.75281 0.11258 0.0
O1383 O 0.50411 0.72999 0.14275 0.0
H1384 H 0.56231 0.76315 0.11566 0.0
H1385 H 0.51875 0.74462 0.07319 0.0
H1386 H 0.58701 0.76534 0.08854 0.0
H1387 H 0.54414 0.74736 0.04677 0.0
H1388 H 0.5003 0.79278 0.20775 0.0
H1389 H 0.5129 0.81342 0.13878 0.0
H1390 H 0.49712 0.76807 0.18077 0.0
H1391 H 0.51573 0.83738 0.16651 0.0
H1392 H 0.53679 0.82507 0.07907 0.0
H1393 H 0.47359 0.82174 0.06969 0.0
H1394 H 0.58229 0.71856 0.15643 0.0
H1395 H 0.57666 0.77636 0.18349 0.0
H1396 H 0.44245 0.74105 0.11807 0.0
H1397 H 0.48585 0.75665 0.07409 0.0
H1398 H 0.41816 0.7352 0.09118 0.0
H1399 H 0.46088 0.75041 0.04797 0.0
H1400 H 0.49675 0.69192 0.13743 0.0
H1401 H 0.51241 0.73608 0.18056 0.0
H1402 H 0.49712 0.66651 0.16399 0.0
H1403 H 0.51234 0.70992 0.20641 0.0
H1404 H 0.53838 0.67797 0.0866 0.0
H1405 H 0.47471 0.67477 0.08078 0.0
H1406 H 0.43026 0.78113 0.18051 0.0
H1407 H 0.43585 0.71723 0.18237 0.0
Li1408 Li 0.89273 0.00018 0.76712 0.0
Li1409 Li 0.86568 0.98143 0.75061 0.0
Li1410 Li 0.8913 0.00045 0.73029 0.0
Li1411 Li 0.86471 0.0185 0.74886 0.0
C1412 C 0.90942 0.96364 0.7499 0.0
N1413 N 0.93905 0.93563 0.75317 0.0
C1414 C 0.90489 0.94428 0.75571 0.0
C1415 C 0.92898 0.96874 0.74561 0.0
C1416 C 0.92008 0.93034 0.7573 0.0
C1417 C 0.94377 0.95437 0.74741 0.0
C1418 C 0.84913 -0.00112 0.78632 0.0
C1419 C 0.81477 0.001 0.79562 0.0
N1420 N 0.81954 0.99519 0.81429 0.0
C1421 C 0.85373 0.99301 0.8056 0.0
C1422 C 0.82954 0.00302 0.78128 0.0
C1423 C 0.83855 0.9912 0.81953 0.0
C1424 C 0.9102 0.01797 0.80039 0.0
N1425 N 0.90923 0.00068 0.79012 0.0
C1426 C 0.92937 0.98441 0.81432 0.0
C1427 C 0.91857 0.98406 0.7967 0.0
C1428 C 0.9302 0.00192 0.82548 0.0
C1429 C 0.92059 0.01891 0.81822 0.0
H1430 H 0.90248 0.03091 0.79493 0.0
H1431 H 0.91721 0.97033 0.78867 0.0
C1432 C 0.8423 0.9486 0.73725 0.0
N1433 N 0.85078 0.95738 0.75322 0.0
C1434 C 0.83251 0.93043 0.73929 0.0
C1435 C 0.84074 0.93044 0.77404 0.0
C1436 C 0.85014 0.94871 0.77139 0.0
C1437 C 0.83179 0.92105 0.75786 0.0
H1438 H 0.84344 0.95549 0.72285 0.0
H1439 H 0.85737 0.95576 0.78376 0.0
C1440 C 0.90861 0.03664 0.74668 0.0
N1441 N 0.93863 0.06414 0.7431 0.0
C1442 C 0.9043 0.05612 0.74111 0.0
C1443 C 0.92815 0.03115 0.75054 0.0
C1444 C 0.91969 0.0698 0.73936 0.0
C1445 C 0.94314 0.04527 0.7486 0.0
C1446 C 0.84726 -0.00115 0.7134 0.0
C1447 C 0.85152 0.00257 0.6935 0.0
C1448 C 0.82776 0.99519 0.71923 0.0
C1449 C 0.83614 0.00264 0.67973 0.0
C1450 C 0.81279 0.99539 0.70501 0.0
N1451 N 0.81726 -0.00091 0.68573 0.0
C1452 C 0.9133 0.98564 0.69736 0.0
C1453 C 0.90728 0.02025 0.69742 0.0
C1454 C 0.92248 0.98699 0.67885 0.0
N1455 N 0.90585 0.00214 0.70617 0.0
C1456 C 0.91638 0.02229 0.67896 0.0
C1457 C 0.9239 0.00548 0.66928 0.0
H1458 H 0.91174 0.97138 0.70451 0.0
H1459 H 0.9008 0.03305 0.70452 0.0
C1460 C 0.85161 0.05554 0.76315 0.0
N1461 N 0.84947 0.04249 0.74798 0.0
C1462 C 0.84297 0.07437 0.7621 0.0
C1463 C 0.82939 0.06572 0.73023 0.0
C1464 C 0.83859 0.04722 0.73171 0.0
C1465 C 0.83185 0.07963 0.74539 0.0
H1466 H 0.86059 0.05154 0.77577 0.0
H1467 H 0.8375 0.03696 0.71956 0.0
O1468 O 0.89469 0.97745 0.74831 0.0
O1469 O 0.86388 0.00116 0.77268 0.0
O1470 O 0.89366 0.02319 0.74884 0.0
O1471 O 0.86216 -0.00119 0.72703 0.0
H1472 H 0.88981 0.94005 0.75897 0.0
H1473 H 0.9327 0.9836 0.74089 0.0
H1474 H 0.91679 0.9153 0.76181 0.0
H1475 H 0.95899 0.9581 0.74419 0.0
H1476 H 0.79952 0.00414 0.79194 0.0
H1477 H 0.86889 0.98993 0.80975 0.0
H1478 H 0.82581 0.00791 0.7665 0.0
H1479 H 0.84187 0.98667 0.83451 0.0
H1480 H 0.93627 0.97091 0.81959 0.0
H1481 H 0.92089 0.0327 0.8264 0.0
H1482 H 0.82602 0.92355 0.72638 0.0
H1483 H 0.84045 0.92375 0.78861 0.0
H1484 H 0.88921 0.0606 0.73817 0.0
H1485 H 0.93168 0.0162 0.75513 0.0
H1486 H 0.91658 0.08493 0.73505 0.0
H1487 H 0.95834 0.04124 0.75154 0.0
H1488 H 0.86654 0.00539 0.68873 0.0
H1489 H 0.82424 0.99216 0.73455 0.0
H1490 H 0.83922 0.00552 0.66429 0.0
H1491 H 0.79763 0.99259 0.7093 0.0
H1492 H 0.92826 0.97367 0.67203 0.0
H1493 H 0.91686 0.03677 0.67205 0.0
H1494 H 0.84513 0.0848 0.77407 0.0
H1495 H 0.82106 0.06941 0.71706 0.0
Li1496 Li 0.75479 0.13953 0.51835 0.0
Li1497 Li 0.77191 0.11295 0.50002 0.0
Li1498 Li 0.75381 0.14049 0.48201 0.0
Li1499 Li 0.73587 0.11364 0.49936 0.0
C1500 C 0.79085 0.15643 0.50296 0.0
N1501 N 0.81888 0.18572 0.50814 0.0
C1502 C 0.80993 0.15148 0.50914 0.0
C1503 C 0.78602 0.17625 0.49935 0.0
C1504 C 0.8239 0.16651 0.51169 0.0
C1505 C 0.80039 0.19085 0.5021 0.0
C1506 C 0.75694 0.09583 0.53596 0.0
C1507 C 0.75783 0.06119 0.54474 0.0
N1508 N 0.76346 0.06616 0.56339 0.0
C1509 C 0.76265 0.1006 0.55524 0.0
C1510 C 0.75442 0.07598 0.53067 0.0
C1511 C 0.7659 0.08539 0.56888 0.0
C1512 C 0.73687 0.16036 0.54884 0.0
N1513 N 0.75474 0.15428 0.54191 0.0
C1514 C 0.77066 0.16491 0.57154 0.0
C1515 C 0.77156 0.1566 0.55264 0.0
C1516 C 0.75231 0.17104 0.57911 0.0
C1517 C 0.73535 0.16909 0.56741 0.0
H1518 H 0.72366 0.1577 0.54028 0.0
H1519 H 0.78549 0.15118 0.5469 0.0
C1520 C 0.80158 0.09139 0.48154 0.0
N1521 N 0.79443 0.09653 0.4996 0.0
C1522 C 0.81877 0.08012 0.48002 0.0
C1523 C 0.82075 0.07934 0.51574 0.0
C1524 C 0.80358 0.09081 0.51657 0.0
C1525 C 0.82866 0.07414 0.49726 0.0
H1526 H 0.79412 0.09641 0.46832 0.0
H1527 H 0.79787 0.09555 0.53073 0.0
C1528 C 0.71795 0.15743 0.49901 0.0
N1529 N 0.69025 0.18739 0.49587 0.0
C1530 C 0.69824 0.15292 0.49476 0.0
C1531 C 0.72356 0.17716 0.50176 0.0
C1532 C 0.68446 0.16827 0.49321 0.0
C1533 C 0.70934 0.1921 0.50008 0.0
C1534 C 0.74987 0.09696 0.46334 0.0
C1535 C 0.74278 0.10188 0.44456 0.0
C1536 C 0.75315 0.0771 0.46822 0.0
C1537 C 0.73898 0.08678 0.43097 0.0
C1538 C 0.74912 0.06243 0.45423 0.0
N1539 N 0.7422 0.06753 0.43604 0.0
C1540 C 0.77118 0.16292 0.45166 0.0
C1541 C 0.73613 0.16346 0.45188 0.0
C1542 C 0.77163 0.17547 0.43525 0.0
N1543 N 0.75361 0.15733 0.45966 0.0
C1544 C 0.73587 0.17614 0.43557 0.0
C1545 C 0.7538 0.18233 0.42702 0.0
H1546 H 0.78485 0.15752 0.45797 0.0
H1547 H 0.72236 0.15844 0.45825 0.0
C1548 C 0.70632 0.09153 0.51729 0.0
N1549 N 0.71246 0.09872 0.49955 0.0
C1550 C 0.68798 0.08236 0.51898 0.0
C1551 C 0.68251 0.08834 0.48411 0.0
C1552 C 0.70117 0.09713 0.48302 0.0
C1553 C 0.67572 0.08105 0.50235 0.0
H1554 H 0.71532 0.09359 0.5303 0.0
H1555 H 0.70629 0.10342 0.46922 0.0
O1556 O 0.7773 0.14181 0.4996 0.0
O1557 O 0.7533 0.1106 0.52256 0.0
O1558 O 0.73152 0.1425 0.50091 0.0
O1559 O 0.75436 0.11163 0.47651 0.0
H1560 H 0.81395 0.13617 0.51179 0.0
H1561 H 0.77145 0.18028 0.4942 0.0
H1562 H 0.83876 0.1629 0.5164 0.0
H1563 H 0.79688 0.20624 0.4993 0.0
H1564 H 0.75593 0.04576 0.54086 0.0
H1565 H 0.76446 0.11588 0.55966 0.0
H1566 H 0.74967 0.07204 0.51594 0.0
H1567 H 0.77032 0.08888 0.58385 0.0
H1568 H 0.784 0.16619 0.58028 0.0
H1569 H 0.72093 0.17341 0.57295 0.0
H1570 H 0.82444 0.07634 0.4655 0.0
H1571 H 0.82818 0.07527 0.52933 0.0
H1572 H 0.6936 0.13772 0.49276 0.0
H1573 H 0.73867 0.18087 0.50537 0.0
H1574 H 0.66915 0.16499 0.48994 0.0
H1575 H 0.71346 0.20744 0.5022 0.0
H1576 H 0.74037 0.11722 0.44051 0.0
H1577 H 0.75898 0.07308 0.48254 0.0
H1578 H 0.73355 0.09037 0.41636 0.0
H1579 H 0.75162 0.04699 0.45779 0.0
H1580 H 0.78579 0.17944 0.42888 0.0
H1581 H 0.72179 0.18109 0.42979 0.0
H1582 H 0.68304 0.07717 0.53334 0.0
H1583 H 0.67335 0.08758 0.47101 0.0
Li1584 Li 0.61281 0.00182 0.26847 0.0
Li1585 Li 0.63978 0.02084 0.25263 0.0
Li1586 Li 0.61569 0.00116 0.23249 0.0
Li1587 Li 0.64167 0.98485 0.25244 0.0
C1588 C 0.59647 0.03804 0.25192 0.0
N1589 N 0.56721 0.06632 0.25614 0.0
C1590 C 0.60106 0.05679 0.2594 0.0
C1591 C 0.57705 0.03373 0.2464 0.0
C1592 C 0.58605 0.07087 0.26145 0.0
C1593 C 0.56244 0.04821 0.24873 0.0
C1594 C 0.65613 0.00515 0.28908 0.0
C1595 C 0.69083 0.0049 0.29718 0.0
N1596 N 0.68622 0.00877 0.31639 0.0
C1597 C 0.65171 0.00911 0.30888 0.0
C1598 C 0.67582 0.003 0.28315 0.0
C1599 C 0.66714 0.0109 0.32247 0.0
C1600 C 0.58891 0.98344 0.29695 0.0
N1601 N 0.59502 0.0013 0.28997 0.0
C1602 C 0.57733 0.0182 0.31548 0.0
C1603 C 0.58948 0.01853 0.29879 0.0
C1604 C 0.57109 -6e-05 0.32327 0.0
C1605 C 0.57676 0.98241 0.31359 0.0
H1606 H 0.5939 0.96995 0.28989 0.0
H1607 H 0.59503 0.03249 0.2933 0.0
C1608 C 0.65786 0.05189 0.23404 0.0
N1609 N 0.65397 0.0444 0.25228 0.0
C1610 C 0.66718 0.07013 0.23212 0.0
C1611 C 0.66789 0.07277 0.26785 0.0
C1612 C 0.65882 0.05426 0.26909 0.0
C1613 C 0.67204 0.08083 0.24916 0.0
H1614 H 0.6533 0.04388 0.22099 0.0
H1615 H 0.65516 0.04801 0.28336 0.0
C1616 C 0.59832 0.9649 0.24793 0.0
N1617 N 0.56838 0.93756 0.24296 0.0
C1618 C 0.60287 0.945 0.24444 0.0
C1619 C 0.57856 0.97092 0.24891 0.0
C1620 C 0.58752 0.9314 0.24196 0.0
C1621 C 0.56363 0.95686 0.24635 0.0
C1622 C 0.65923 0.00186 0.21612 0.0
C1623 C 0.65469 0.99589 0.19686 0.0
C1624 C 0.6787 0.00682 0.22093 0.0
C1625 C 0.66976 0.99488 0.18273 0.0
C1626 C 0.69336 0.00559 0.20638 0.0
N1627 N 0.68862 -0.00029 0.18774 0.0
C1628 C 0.60141 0.01969 0.19958 0.0
C1629 C 0.59487 0.98511 0.19985 0.0
C1630 C 0.59236 0.02171 0.18124 0.0
N1631 N 0.60236 0.00165 0.20845 0.0
C1632 C 0.58553 0.98647 0.18156 0.0
C1633 C 0.58421 0.00496 0.1721 0.0
H1634 H 0.60778 0.03248 0.2068 0.0
H1635 H 0.59631 0.97089 0.20706 0.0
C1636 C 0.66308 0.95513 0.2714 0.0
N1637 N 0.65895 0.96319 0.25347 0.0
C1638 C 0.67514 0.93843 0.27267 0.0
C1639 C 0.67865 0.93893 0.23703 0.0
C1640 C 0.66641 0.95553 0.23645 0.0
C1641 C 0.68287 0.93004 0.2553 0.0
H1642 H 0.65667 0.96143 0.28464 0.0
H1643 H 0.66241 0.9619 0.22237 0.0
O1644 O 0.61106 0.0242 0.24957 0.0
O1645 O 0.64112 0.0028 0.27577 0.0
O1646 O 0.61322 0.97826 0.2508 0.0
O1647 O 0.64455 0.00328 0.23 0.0
H1648 H 0.61605 0.06041 0.2636 0.0
H1649 H 0.57332 0.01942 0.24026 0.0
H1650 H 0.58939 0.08543 0.26725 0.0
H1651 H 0.54733 0.04507 0.24456 0.0
H1652 H 0.70614 0.0032 0.29283 0.0
H1653 H 0.63651 0.01067 0.3137 0.0
H1654 H 0.67944 -0.00037 0.26795 0.0
H1655 H 0.66395 0.01392 0.33787 0.0
H1656 H 0.5737 0.03203 0.32276 0.0
H1657 H 0.57226 0.96802 0.31912 0.0
H1658 H 0.66999 0.07612 0.2175 0.0
H1659 H 0.67152 0.08075 0.28126 0.0
H1660 H 0.61812 0.94013 0.24375 0.0
H1661 H 0.57482 0.98622 0.25182 0.0
H1662 H 0.59081 0.91593 0.23929 0.0
H1663 H 0.54827 0.96128 0.24712 0.0
H1664 H 0.63969 0.99206 0.19286 0.0
H1665 H 0.68243 0.01178 0.23565 0.0
H1666 H 0.66645 0.99029 0.16777 0.0
H1667 H 0.70849 0.0094 0.20988 0.0
H1668 H 0.59144 0.03622 0.17444 0.0
H1669 H 0.57957 0.97321 0.17479 0.0
H1670 H 0.67804 0.9319 0.28701 0.0
H1671 H 0.68396 0.93258 0.2233 0.0
Li1672 Li 0.72881 0.89142 0.00768 0.0
Li1673 Li 0.74637 0.86434 0.02542 0.0
Li1674 Li 0.76536 0.89065 0.00621 0.0
Li1675 Li 0.74677 0.86461 0.98862 0.0
C1676 C 0.74502 0.90836 0.0429 0.0
N1677 N 0.74041 0.93866 0.06997 0.0
C1678 C 0.73957 0.9041 0.06239 0.0
C1679 C 0.74815 0.92801 0.03717 0.0
C1680 C 0.73731 0.91963 0.07586 0.0
C1681 C 0.74573 0.94313 0.05107 0.0
C1682 C 0.71051 0.84735 0.00835 0.0
C1683 C 0.70276 0.81251 0.00684 0.0
N1684 N 0.68347 0.81677 0.0107 0.0
C1685 C 0.6906 0.8514 0.01224 0.0
C1686 C 0.71666 0.82778 0.00557 0.0
C1687 C 0.67716 0.83573 0.0134 0.0
C1688 C 0.69759 0.91565 0.99325 0.0
N1689 N 0.70532 0.90656 0.00943 0.0
C1690 C 0.67714 0.91543 0.02888 0.0
C1691 C 0.69559 0.90634 0.02704 0.0
C1692 C 0.66872 0.92489 0.01244 0.0
C1693 C 0.67924 0.92514 0.99449 0.0
H1694 H 0.70541 0.91512 0.9793 0.0
H1695 H 0.70193 0.89858 0.03951 0.0
C1696 C 0.76294 0.84553 0.05867 0.0
N1697 N 0.74564 0.84958 0.04932 0.0
C1698 C 0.76284 0.83616 0.07711 0.0
C1699 C 0.72711 0.8355 0.076 0.0
C1700 C 0.72791 0.84489 0.0576 0.0
C1701 C 0.74473 0.83103 0.08604 0.0
H1702 H 0.7768 0.84988 0.05193 0.0
H1703 H 0.71435 0.84876 0.05009 0.0
C1704 C 0.7505 0.9082 0.97059 0.0
N1705 N 0.75775 0.93729 0.94272 0.0
C1706 C 0.75772 0.9031 0.95189 0.0
C1707 C 0.74691 0.92808 0.9751 0.0
C1708 C 0.7613 0.91802 0.938 0.0
C1709 C 0.75071 0.94258 0.96083 0.0
C1710 C 0.78248 0.84648 0.00376 0.0
C1711 C 0.8009 0.85061 0.99529 0.0
C1712 C 0.77789 0.82707 0.00933 0.0
C1713 C 0.81435 0.83517 0.99229 0.0
C1714 C 0.79172 0.81203 0.00605 0.0
N1715 N 0.80952 0.81635 -0.00232 0.0
C1716 C 0.79598 0.91207 0.02409 0.0
C1717 C 0.80038 0.90729 0.98961 0.0
C1718 C 0.81446 0.92112 0.02552 0.0
N1719 N 0.78933 0.90538 0.00635 0.0
C1720 C 0.81918 0.91589 0.99044 0.0
C1721 C 0.8264 0.9228 0.00862 0.0
H1722 H 0.7872 0.90984 0.03727 0.0
H1723 H 0.7949 0.90146 0.97577 0.0
C1724 C 0.72818 0.84393 0.95752 0.0
N1725 N 0.74604 0.84946 0.96486 0.0
C1726 C 0.72689 0.83475 0.93906 0.0
C1727 C 0.7624 0.83725 0.93595 0.0
C1728 C 0.76301 0.84618 0.95457 0.0
C1729 C 0.74413 0.83155 0.9278 0.0
H1730 H 0.71485 0.8471 0.96578 0.0
H1731 H 0.77696 0.85126 0.96045 0.0
O1732 O 0.74802 0.89326 0.02976 0.0
O1733 O 0.72376 0.86258 0.00688 0.0
O1734 O 0.7461 0.89369 0.98403 0.0
O1735 O 0.76939 0.86152 0.00734 0.0
H1736 H 0.73726 0.88893 0.0671 0.0
H1737 H 0.75272 0.93152 0.02224 0.0
H1738 H 0.73317 0.91655 0.09102 0.0
H1739 H 0.74818 0.95841 0.04687 0.0
H1740 H 0.7073 0.79729 0.00468 0.0
H1741 H 0.68556 0.86649 0.01426 0.0
H1742 H 0.73194 0.82444 0.00222 0.0
H1743 H 0.6617 0.83864 0.01639 0.0
H1744 H 0.6695 0.91502 0.04297 0.0
H1745 H 0.67309 0.93208 0.98142 0.0
H1746 H 0.77677 0.83328 0.08445 0.0
H1747 H 0.71286 0.83166 0.08225 0.0
H1748 H 0.76038 0.88777 0.94806 0.0
H1749 H 0.74096 0.93226 0.98936 0.0
H1750 H 0.76682 0.91427 0.92345 0.0
H1751 H 0.74794 0.95803 0.9641 0.0
H1752 H 0.80479 0.86557 0.99109 0.0
H1753 H 0.76389 0.8237 0.01633 0.0
H1754 H 0.82865 0.83815 0.98574 0.0
H1755 H 0.78836 0.79693 0.01028 0.0
H1756 H 0.81969 0.9261 0.03981 0.0
H1757 H 0.82804 0.91698 0.97712 0.0
H1758 H 0.71249 0.83038 0.93364 0.0
H1759 H 0.77607 0.8355 0.92777 0.0
Li1760 Li 0.25405 0.63939 0.01668 0.0
Li1761 Li 0.27183 0.61283 -0.0017 0.0
Li1762 Li 0.25387 0.64054 0.98034 0.0
Li1763 Li 0.23564 0.6135 0.99748 0.0
C1764 C 0.29068 0.65644 0.00165 0.0
N1765 N 0.31861 0.68571 0.00739 0.0
C1766 C 0.30968 0.65146 0.00809 0.0
C1767 C 0.2859 0.67626 -0.00194 0.0
C1768 C 0.32359 0.66649 0.01093 0.0
C1769 C 0.30022 0.69086 0.00107 0.0
C1770 C 0.25398 0.59623 0.03485 0.0
C1771 C 0.25195 0.56198 0.04488 0.0
N1772 N 0.25569 0.56744 0.06388 0.0
C1773 C 0.25777 0.6015 0.05447 0.0
C1774 C 0.251 0.57632 0.02999 0.0
C1775 C 0.25858 0.58673 0.06893 0.0
C1776 C 0.2347 0.65523 0.04907 0.0
N1777 N 0.25283 0.65387 0.04047 0.0
C1778 C 0.26796 0.66924 0.06836 0.0
C1779 C 0.26933 0.66076 0.04959 0.0
C1780 C 0.24946 0.67049 0.07784 0.0
C1781 C 0.23264 0.66364 0.06778 0.0
H1782 H 0.22191 0.64925 0.0416 0.0
H1783 H 0.28362 0.65902 0.04265 0.0
C1784 C 0.30326 0.59106 0.98156 0.0
N1785 N 0.29404 0.59588 -0.00123 0.0
C1786 C 0.31977 0.57862 0.98176 0.0
C1787 C 0.31658 0.57602 0.01729 0.0
C1788 C 0.30042 0.58878 0.01644 0.0
C1789 C 0.3267 0.57099 -0.00016 0.0
H1790 H 0.29794 0.59712 0.96774 0.0
H1791 H 0.29316 0.59319 0.02995 0.0
C1792 C 0.21748 0.65699 -0.0009 0.0
N1793 N 0.18933 0.68666 0.00014 0.0
C1794 C 0.1975 0.65241 0.99648 0.0
C1795 C 0.22315 0.67662 0.00233 0.0
C1796 C 0.18349 0.66763 0.99704 0.0
C1797 C 0.20869 0.69142 0.00278 0.0
C1798 C 0.25132 0.59632 0.96177 0.0
C1799 C 0.24509 0.6003 0.94247 0.0
C1800 C 0.25517 0.5768 0.96752 0.0
C1801 C 0.24272 0.5846 0.92923 0.0
C1802 C 0.25261 0.56151 0.95384 0.0
N1803 N 0.2465 0.56569 0.93514 0.0
C1804 C 0.27047 0.66426 0.95029 0.0
C1805 C 0.23542 0.66334 0.95098 0.0
C1806 C 0.27016 0.67736 0.93432 0.0
N1807 N 0.25325 0.6577 0.95832 0.0
C1808 C 0.23441 0.67645 0.93505 0.0
C1809 C 0.25194 0.68368 0.92653 0.0
H1810 H 0.28444 0.65929 0.95631 0.0
H1811 H 0.22197 0.65765 0.9575 0.0
C1812 C 0.20506 0.59383 0.01597 0.0
N1813 N 0.21216 0.5988 -0.00217 0.0
C1814 C 0.18661 0.58495 0.01782 0.0
C1815 C 0.18288 0.58685 0.98226 0.0
C1816 C 0.20165 0.59539 0.98106 0.0
C1817 C 0.1752 0.58172 0.00087 0.0
H1818 H 0.21337 0.59748 0.02909 0.0
H1819 H 0.2075 0.6 0.96689 0.0
O1820 O 0.27711 0.64183 -0.00168 0.0
O1821 O 0.25301 0.61056 0.02056 0.0
O1822 O 0.23131 0.64221 -0.00127 0.0
O1823 O 0.25434 0.61161 0.97466 0.0
H1824 H 0.31363 0.63614 0.0108 0.0
H1825 H 0.27136 0.68032 0.99279 0.0
H1826 H 0.33836 0.66287 0.0159 0.0
H1827 H 0.29675 0.70626 -0.00169 0.0
H1828 H 0.24967 0.54652 0.04135 0.0
H1829 H 0.26009 0.61684 0.05849 0.0
H1830 H 0.24785 0.57201 0.01493 0.0
H1831 H 0.26151 0.5906 0.08417 0.0
H1832 H 0.28136 0.67405 0.07567 0.0
H1833 H 0.21806 0.66453 0.07437 0.0
H1834 H 0.32735 0.57554 0.96797 0.0
H1835 H 0.32123 0.57039 0.03155 0.0
H1836 H 0.19286 0.63726 0.99405 0.0
H1837 H 0.23851 0.68036 0.00462 0.0
H1838 H 0.16798 0.6643 0.99503 0.0
H1839 H 0.21286 0.70669 0.00527 0.0
H1840 H 0.24223 0.61537 0.93777 0.0
H1841 H 0.26031 0.57352 0.98229 0.0
H1842 H 0.23795 0.58745 0.91423 0.0
H1843 H 0.25558 0.54633 0.95806 0.0
H1844 H 0.28404 0.68221 0.92792 0.0
H1845 H 0.22006 0.68097 0.92956 0.0
H1846 H 0.18094 0.58147 0.03242 0.0
H1847 H 0.17432 0.5846 0.96893 0.0
Li1848 Li 0.13928 0.5198 0.75222 0.0
Li1849 Li 0.11255 0.50051 0.76803 0.0
Li1850 Li 0.14098 0.48342 0.75117 0.0
Li1851 Li 0.11475 0.50054 0.73195 0.0
C1852 C 0.15605 0.5037 0.78812 0.0
N1853 N 0.18614 0.50861 0.81523 0.0
C1854 C 0.15168 0.50928 0.80755 0.0
C1855 C 0.1757 0.50057 0.78247 0.0
C1856 C 0.16711 0.5117 0.82104 0.0
C1857 C 0.19071 0.50314 0.7964 0.0
C1858 C 0.09613 0.53712 0.7523 0.0
C1859 C 0.06235 0.54797 0.74878 0.0
N1860 N 0.06727 0.56575 0.75685 0.0
C1861 C 0.10089 0.55552 0.76047 0.0
C1862 C 0.07675 0.53332 0.74628 0.0
C1863 C 0.08608 0.5698 0.76267 0.0
C1864 C 0.15135 0.5539 0.73428 0.0
N1865 N 0.1532 0.5438 0.75156 0.0
C1866 C 0.17291 0.5696 0.76531 0.0
C1867 C 0.1636 0.55124 0.76704 0.0
C1868 C 0.17117 0.58039 0.74762 0.0
C1869 C 0.16021 0.57238 0.73198 0.0
H1870 H 0.14283 0.54758 0.72232 0.0
H1871 H 0.16452 0.5431 0.78076 0.0
C1872 C 0.08787 0.48213 0.79581 0.0
N1873 N 0.09503 0.49993 0.78975 0.0
C1874 C 0.07578 0.48095 0.81246 0.0
C1875 C 0.07879 0.51643 0.81647 0.0
C1876 C 0.09067 0.51695 0.79957 0.0
C1877 C 0.07147 0.49818 0.82331 0.0
H1878 H 0.09197 0.46876 0.78805 0.0
H1879 H 0.09699 0.53083 0.79471 0.0
C1880 C 0.15846 0.50181 0.71557 0.0
N1881 N 0.18834 0.50066 0.68768 0.0
C1882 C 0.15437 0.49594 0.69619 0.0
C1883 C 0.1777 0.50723 0.72076 0.0
C1884 C 0.16969 0.49543 0.68231 0.0
C1885 C 0.19262 0.5065 0.70645 0.0
C1886 C 0.09725 0.46411 0.74709 0.0
C1887 C 0.1015 0.44414 0.74362 0.0
C1888 C 0.07759 0.4704 0.74826 0.0
C1889 C 0.08593 0.43074 0.74136 0.0
C1890 C 0.06244 0.45653 0.74593 0.0
N1891 N 0.06689 0.43715 0.74257 0.0
C1892 C 0.16351 0.45309 0.76852 0.0
C1893 C 0.16442 0.45388 0.73347 0.0
C1894 C 0.17609 0.43671 0.76879 0.0
N1895 N 0.15809 0.46136 0.75103 0.0
C1896 C 0.17709 0.43757 0.73304 0.0
C1897 C 0.18308 0.42875 0.75087 0.0
H1898 H 0.15791 0.45915 0.78224 0.0
H1899 H 0.15951 0.46048 0.71977 0.0
C1900 C 0.10319 0.5195 0.69847 0.0
N1901 N 0.10149 0.50179 0.70786 0.0
C1902 C 0.09492 0.52216 0.67984 0.0
C1903 C 0.08303 0.48833 0.68111 0.0
C1904 C 0.0918 0.48623 0.69963 0.0
C1905 C 0.08469 0.50645 0.67102 0.0
H1906 H 0.11119 0.53148 0.70544 0.0
H1907 H 0.09109 0.47218 0.70724 0.0
O1908 O 0.14106 0.50093 0.77489 0.0
O1909 O 0.11055 0.52317 0.7496 0.0
O1910 O 0.14358 0.50256 0.72926 0.0
O1911 O 0.11237 0.47726 0.74979 0.0
H1912 H 0.13651 0.51166 0.81214 0.0
H1913 H 0.1793 0.49608 0.76754 0.0
H1914 H 0.16395 0.516 0.83613 0.0
H1915 H 0.20599 0.50075 0.79226 0.0
H1916 H 0.04727 0.54523 0.74422 0.0
H1917 H 0.11587 0.55874 0.76507 0.0
H1918 H 0.07291 0.51928 0.7396 0.0
H1919 H 0.08955 0.58411 0.76898 0.0
H1920 H 0.18112 0.57544 0.77775 0.0
H1921 H 0.15873 0.5802 0.71806 0.0
H1922 H 0.07035 0.46658 0.81711 0.0
H1923 H 0.0762 0.53002 0.82459 0.0
H1924 H 0.13953 0.49174 0.69193 0.0
H1925 H 0.18105 0.51205 0.73564 0.0
H1926 H 0.16674 0.49089 0.66726 0.0
H1927 H 0.20759 0.51062 0.71025 0.0
H1928 H 0.11667 0.43906 0.74277 0.0
H1929 H 0.07408 0.48577 0.75113 0.0
H1930 H 0.08899 0.41522 0.73871 0.0
H1931 H 0.04714 0.46116 0.74686 0.0
H1932 H 0.17993 0.43009 0.78287 0.0
H1933 H 0.18213 0.43196 0.7189 0.0
H1934 H 0.09629 0.53638 0.67251 0.0
H1935 H 0.07531 0.47588 0.6746 0.0
Li1936 Li 0.22787 0.38932 0.5075 0.0
Li1937 Li 0.24564 0.36202 0.52503 0.0
Li1938 Li 0.26458 0.38916 0.50715 0.0
Li1939 Li 0.24688 0.3632 0.48831 0.0
C1940 C 0.24528 0.40603 0.54358 0.0
N1941 N 0.24401 0.43639 0.57093 0.0
C1942 C 0.24144 0.40189 0.56348 0.0
C1943 C 0.24851 0.42559 0.53758 0.0
C1944 C 0.24085 0.41745 0.57708 0.0
C1945 C 0.24779 0.44074 0.55164 0.0
C1946 C 0.20995 0.34537 0.50705 0.0
C1947 C 0.20153 0.31075 0.50459 0.0
N1948 N 0.1824 0.31524 0.50897 0.0
C1949 C 0.19021 0.34966 0.5115 0.0
C1950 C 0.21569 0.32579 0.50354 0.0
C1951 C 0.1765 0.33421 0.51242 0.0
C1952 C 0.1949 0.40838 0.49093 0.0
N1953 N 0.20417 0.40422 0.50826 0.0
C1954 C 0.17758 0.41848 0.52675 0.0
C1955 C 0.19592 0.40898 0.52598 0.0
C1956 C 0.16762 0.42298 0.5091 0.0
C1957 C 0.17655 0.41787 0.491 0.0
H1958 H 0.20164 0.40398 0.47708 0.0
H1959 H 0.2034 0.40508 0.53955 0.0
C1960 C 0.26174 0.34771 0.55987 0.0
N1961 N 0.2452 0.34675 0.54857 0.0
C1962 C 0.26201 0.3391 0.57863 0.0
C1963 C 0.2284 0.3281 0.57355 0.0
C1964 C 0.2287 0.33717 0.55497 0.0
C1965 C 0.24512 0.32922 0.58582 0.0
H1966 H 0.27449 0.35583 0.55455 0.0
H1967 H 0.21555 0.33699 0.54598 0.0
C1968 C 0.24896 0.40743 0.47141 0.0
N1969 N 0.25378 0.43763 0.44421 0.0
C1970 C 0.25673 0.40338 0.45266 0.0
C1971 C 0.24349 0.4268 0.47627 0.0
C1972 C 0.25908 0.41886 0.43913 0.0
C1973 C 0.24612 0.44188 0.46234 0.0
C1974 C 0.28263 0.34553 0.50413 0.0
C1975 C 0.30143 0.35034 0.49697 0.0
C1976 C 0.2781 0.32585 0.50869 0.0
C1977 C 0.3154 0.3353 0.49435 0.0
C1978 C 0.29246 0.31122 0.50581 0.0
N1979 N 0.31066 0.31621 0.49877 0.0
C1980 C 0.29602 0.40906 0.52585 0.0
C1981 C 0.29861 0.40759 0.49091 0.0
C1982 C 0.31462 0.41793 0.52717 0.0
N1983 N 0.28844 0.40408 0.50792 0.0
C1984 C 0.31741 0.41617 0.49156 0.0
C1985 C 0.32568 0.42128 0.5099 0.0
H1986 H 0.2879 0.40557 0.5392 0.0
H1987 H 0.29246 0.40304 0.47689 0.0
C1988 C 0.22944 0.34252 0.45679 0.0
N1989 N 0.24705 0.34874 0.46418 0.0
C1990 C 0.22852 0.33373 0.43815 0.0
C1991 C 0.26384 0.33828 0.43481 0.0
C1992 C 0.26414 0.34664 0.45373 0.0
C1993 C 0.24581 0.33183 0.42681 0.0
H1994 H 0.21599 0.34495 0.4651 0.0
H1995 H 0.27787 0.35213 0.45978 0.0
O1996 O 0.24637 0.39089 0.53019 0.0
O1997 O 0.22346 0.36038 0.50588 0.0
O1998 O 0.24592 0.39232 0.48456 0.0
O1999 O 0.26905 0.36017 0.50745 0.0
H2000 H 0.239 0.3868 0.56836 0.0
H2001 H 0.25181 0.42899 0.5223 0.0
H2002 H 0.23792 0.41447 0.59254 0.0
H2003 H 0.25032 0.45595 0.54723 0.0
H2004 H 0.20575 0.29552 0.50187 0.0
H2005 H 0.18553 0.36477 0.5142 0.0
H2006 H 0.23088 0.32227 0.49991 0.0
H2007 H 0.16117 0.3373 0.51585 0.0
H2008 H 0.1713 0.42232 0.54099 0.0
H2009 H 0.16924 0.42082 0.47707 0.0
H2010 H 0.27513 0.34078 0.58763 0.0
H2011 H 0.21513 0.32048 0.5783 0.0
H2012 H 0.26083 0.38844 0.44858 0.0
H2013 H 0.23706 0.43011 0.49055 0.0
H2014 H 0.26506 0.41594 0.42457 0.0
H2015 H 0.24194 0.45695 0.4659 0.0
H2016 H 0.30524 0.36553 0.49358 0.0
H2017 H 0.26373 0.32195 0.51457 0.0
H2018 H 0.33002 0.33881 0.48885 0.0
H2019 H 0.28918 0.29591 0.50927 0.0
H2020 H 0.32061 0.42144 0.5416 0.0
H2021 H 0.32548 0.41859 0.47792 0.0
H2022 H 0.21433 0.32915 0.43233 0.0
H2023 H 0.27746 0.33704 0.42644 0.0
Li2024 Li 0.3925 0.50088 0.26852 0.0
Li2025 Li 0.36508 0.4827 0.25238 0.0
Li2026 Li 0.39137 0.50088 0.2317 0.0
Li2027 Li 0.36519 0.5195 0.24999 0.0
C2028 C 0.4087 0.46414 0.25208 0.0
N2029 N 0.43821 0.43605 0.2557 0.0
C2030 C 0.4041 0.44491 0.25826 0.0
C2031 C 0.42826 0.46906 0.24759 0.0
C2032 C 0.41924 0.43092 0.26002 0.0
C2033 C 0.44299 0.45466 0.24958 0.0
C2034 C 0.34889 0.49952 0.28766 0.0
C2035 C 0.31438 0.49998 0.29665 0.0
N2036 N 0.31921 0.49385 0.3152 0.0
C2037 C 0.35354 0.4933 0.30682 0.0
C2038 C 0.32919 0.50298 0.28253 0.0
C2039 C 0.33831 0.49048 0.32052 0.0
C2040 C 0.41536 0.51824 0.29907 0.0
N2041 N 0.4093 0.50073 0.29123 0.0
C2042 C 0.426 0.48273 0.31675 0.0
C2043 C 0.41429 0.48316 0.29974 0.0
C2044 C 0.43248 0.50058 0.32528 0.0
C2045 C 0.42702 0.51851 0.31613 0.0
H2046 H 0.41086 0.53203 0.29226 0.0
H2047 H 0.40895 0.46945 0.29351 0.0
C2048 C 0.34036 0.45162 0.23844 0.0
N2049 N 0.34907 0.45932 0.25481 0.0
C2050 C 0.329 0.43436 0.23979 0.0
C2051 C 0.33606 0.43295 0.27477 0.0
C2052 C 0.34723 0.45031 0.27275 0.0
C2053 C 0.3267 0.42476 0.25815 0.0
H2054 H 0.34244 0.45873 0.22425 0.0
H2055 H 0.35467 0.45644 0.28548 0.0
C2056 C 0.40917 0.53716 0.2478 0.0
N2057 N 0.43923 0.56463 0.24414 0.0
C2058 C 0.40479 0.55688 0.2432 0.0
C2059 C 0.42882 0.53143 0.25066 0.0
C2060 C 0.4202 0.57054 0.24137 0.0
C2061 C 0.44381 0.54553 0.24871 0.0
C2062 C 0.34737 0.50209 0.21494 0.0
C2063 C 0.35196 0.50665 0.19529 0.0
C2064 C 0.32766 0.49922 0.22048 0.0
C2065 C 0.33671 0.50832 0.18149 0.0
C2066 C 0.31282 0.50103 0.20624 0.0
N2067 N 0.31761 0.50549 0.1872 0.0
C2068 C 0.41269 0.48526 0.19856 0.0
C2069 C 0.40814 0.52008 0.19888 0.0
C2070 C 0.42179 0.48633 0.17998 0.0
N2071 N 0.40598 0.502 0.20752 0.0
C2072 C 0.41718 0.52185 0.18036 0.0
C2073 C 0.42393 0.50481 0.1705 0.0
H2074 H 0.41059 0.47103 0.20566 0.0
H2075 H 0.40224 0.53311 0.20608 0.0
C2076 C 0.34148 0.55177 0.26402 0.0
N2077 N 0.35019 0.54337 0.24793 0.0
C2078 C 0.33186 0.57007 0.26232 0.0
C2079 C 0.34058 0.5708 0.22764 0.0
C2080 C 0.34979 0.5524 0.22994 0.0
C2081 C 0.33155 0.57991 0.24398 0.0
H2082 H 0.34236 0.54449 0.27825 0.0
H2083 H 0.35712 0.54553 0.21748 0.0
O2084 O 0.39398 0.47788 0.24998 0.0
O2085 O 0.36367 0.50276 0.27422 0.0
O2086 O 0.3942 0.5237 0.24997 0.0
O2087 O 0.36221 0.49965 0.22845 0.0
H2088 H 0.38899 0.44083 0.26162 0.0
H2089 H 0.43201 0.48376 0.24244 0.0
H2090 H 0.41589 0.41598 0.26478 0.0
H2091 H 0.45821 0.45826 0.24618 0.0
H2092 H 0.29906 0.50262 0.2929 0.0
H2093 H 0.36876 0.49071 0.31104 0.0
H2094 H 0.32539 0.50812 0.26787 0.0
H2095 H 0.34167 0.48567 0.33541 0.0
H2096 H 0.42989 0.46854 0.32316 0.0
H2097 H 0.43125 0.53267 0.32235 0.0
H2098 H 0.32247 0.42835 0.22648 0.0
H2099 H 0.33472 0.42606 0.28918 0.0
H2100 H 0.38966 0.56162 0.24112 0.0
H2101 H 0.43243 0.51632 0.25457 0.0
H2102 H 0.41702 0.58585 0.2378 0.0
H2103 H 0.45909 0.54132 0.25092 0.0
H2104 H 0.36715 0.50871 0.1907 0.0
H2105 H 0.32388 0.49534 0.23553 0.0
H2106 H 0.34006 0.51177 0.16621 0.0
H2107 H 0.2975 0.49877 0.2103 0.0
H2108 H 0.42696 0.47282 0.17305 0.0
H2109 H 0.41821 0.53634 0.17354 0.0
H2110 H 0.32526 0.57673 0.27533 0.0
H2111 H 0.34058 0.57788 0.21325 0.0
O2112 O 0.02738 0.0163 -0.00119 0.0
Mn2113 Mn 0.00088 0.00147 0.00471 0.0
O2114 O 0.05175 0.99409 0.00427 0.0
Mn2115 Mn 0.036 0.974 0.01431 0.0
O2116 O 0.97438 0.98628 0.0107 0.0
O2117 O 0.98805 0.02817 0.00838 0.0
Mn2118 Mn 0.96394 0.02774 -0.00133 0.0
O2119 O 0.99358 0.0016 0.97455 0.0
O2120 O 0.95042 0.00919 0.01351 0.0
O2121 O 0.00766 0.00159 0.03518 0.0
O2122 O 0.02879 0.97644 0.04054 0.0
O2123 O 0.96782 0.0532 0.00782 0.0
O2124 O 0.96655 0.02118 0.97212 0.0
C2125 C 0.01851 0.95731 0.99417 0.0
C2126 C 0.04571 0.01121 -0.001 0.0
C2127 C 0.95658 0.99144 0.01509 0.0
C2128 C 0.98506 0.04656 0.01282 0.0
C2129 C 0.97954 0.0097 0.96454 0.0
C2130 C 0.01767 0.9903 0.04683 0.0
O2131 O 0.01395 0.97485 0.00052 0.0
O2132 O 0.0347 0.95012 0.00141 0.0
O2133 O 0.28312 0.75316 0.24291 0.0
Mn2134 Mn 0.25383 0.74952 0.25149 0.0
O2135 O 0.28202 0.77176 0.21512 0.0
Mn2136 Mn 0.2548 0.77523 0.21366 0.0
O2137 O 0.22435 0.74599 0.2597 0.0
O2138 O 0.26137 0.72387 0.2647 0.0
Mn2139 Mn 0.25091 0.72259 0.28849 0.0
O2140 O 0.25901 0.76571 0.27732 0.0
O2141 O 0.22381 0.72358 0.28443 0.0
O2142 O 0.24874 0.7331 0.22573 0.0
O2143 O 0.24151 0.75469 0.20153 0.0
O2144 O 0.26467 0.69924 0.28514 0.0
O2145 O 0.26162 0.74367 0.30222 0.0
C2146 C 0.24004 0.79293 0.23538 0.0
C2147 C 0.29146 0.76181 0.22815 0.0
C2148 C 0.21509 0.73497 0.27212 0.0
C2149 C 0.26866 0.70646 0.26786 0.0
C2150 C 0.26264 0.76127 0.29544 0.0
C2151 C 0.24265 0.7371 0.2082 0.0
O2152 O 0.24654 0.77519 0.23832 0.0
O2153 O 0.24307 0.79961 0.21769 0.0
O2154 O 0.47511 0.99275 0.49599 0.0
Mn2155 Mn 0.50265 0.00569 0.50154 0.0
O2156 O 0.45301 0.01676 0.50355 0.0
Mn2157 Mn 0.47029 0.03622 0.51202 0.0
O2158 O 0.52878 0.02131 0.50731 0.0
O2159 O 0.51349 0.97698 0.50584 0.0
Mn2160 Mn 0.53841 0.98374 0.50017 0.0
O2161 O 0.51002 0.00474 0.47171 0.0
O2162 O 0.5495 -0.00043 0.51914 0.0
O2163 O 0.49591 0.00607 0.53161 0.0
O2164 O 0.47863 0.03372 0.5379 0.0
O2165 O 0.5408 0.95796 0.50441 0.0
O2166 O 0.54061 0.99234 0.47421 0.0
C2167 C 0.48852 0.05075 0.49074 0.0
C2168 C 0.45724 -0.00076 0.49772 0.0
C2169 C 0.54446 0.01734 0.51693 0.0
C2170 C 0.522 0.9595 0.50801 0.0
C2171 C 0.52676 0.0001 0.46407 0.0
C2172 C 0.48794 0.01839 0.54364 0.0
O2173 O 0.49138 0.03296 0.4972 0.0
O2174 O 0.47327 0.05959 0.49824 0.0
O2175 O 0.2779 0.25631 0.76952 0.0
Mn2176 Mn 0.25177 0.25201 0.75401 0.0
O2177 O 0.30282 0.25322 0.74746 0.0
Mn2178 Mn 0.28779 0.24377 0.72665 0.0
O2179 O 0.22571 0.24753 0.73838 0.0
O2180 O 0.23819 0.24728 0.77991 0.0
Mn2181 Mn 0.21493 0.25878 0.78079 0.0
O2182 O 0.2456 0.28222 0.75578 0.0
O2183 O 0.20088 0.24676 0.76066 0.0
O2184 O 0.2577 0.22167 0.75227 0.0
O2185 O 0.28033 0.21743 0.72813 0.0
O2186 O 0.21838 0.24675 0.80512 0.0
O2187 O 0.22036 0.28551 0.77745 0.0
C2188 C 0.26941 0.26424 0.711 0.0
C2189 C 0.29625 0.25701 0.76474 0.0
C2190 C 0.20762 0.24446 0.74319 0.0
C2191 C 0.23525 0.24146 0.7978 0.0
C2192 C 0.23341 0.29281 0.76587 0.0
C2193 C 0.26813 0.2106 0.74082 0.0
O2194 O 0.26547 0.25701 0.72819 0.0
O2195 O 0.28584 0.258 0.70341 0.0
O2196 O -0.00163 0.97504 0.48455 0.0
Mn2197 Mn 0.00446 0.00042 0.50098 0.0
O2198 O 0.99309 0.9502 0.5061 0.0
Mn2199 Mn 0.00563 0.96265 0.52692 0.0
O2200 O 0.01059 0.02579 0.51744 0.0
O2201 O 0.01206 0.01366 0.47535 0.0
Mn2202 Mn 0.00306 0.03811 0.47496 0.0
O2203 O 0.97525 0.00962 0.49781 0.0
O2204 O 0.01532 0.05072 0.49584 0.0
O2205 O 0.03364 0.99112 0.50416 0.0
O2206 O 0.0329 0.96463 0.52448 0.0
O2207 O 0.01556 0.03442 0.45101 0.0
O2208 O 0.97578 0.03556 0.47674 0.0
C2209 C 0.98979 0.98411 0.54397 0.0
C2210 C 0.99309 0.95724 0.48863 0.0
C2211 C 0.01566 0.04364 0.5133 0.0
C2212 C 0.01866 0.01671 0.45766 0.0
C2213 C 0.96657 0.02303 0.48751 0.0
C2214 C 0.04225 0.9771 0.51374 0.0
O2215 O 0.99687 0.98717 0.5265 0.0
O2216 O 0.99302 0.96651 0.55083 0.0
O2217 O 0.26734 0.77929 0.75434 0.0
Mn2218 Mn 0.25407 0.75181 0.75062 0.0
O2219 O 0.24398 0.80231 0.74816 0.0
Mn2220 Mn 0.2248 0.78491 0.73922 0.0
O2221 O 0.24096 0.7241 0.74663 0.0
O2222 O 0.28123 0.74031 0.74713 0.0
Mn2223 Mn 0.28391 0.7184 0.76085 0.0
O2224 O 0.25507 0.74721 0.78122 0.0
O2225 O 0.26521 0.70143 0.75034 0.0
O2226 O 0.25334 0.75623 0.71998 0.0
O2227 O 0.22751 0.77616 0.7135 0.0
O2228 O 0.30784 0.72238 0.74827 0.0
O2229 O 0.28013 0.72591 0.78688 0.0
C2230 C 0.20914 0.76773 0.76042 0.0
C2231 C 0.26138 0.7973 0.7534 0.0
C2232 C 0.24749 0.70621 0.74595 0.0
C2233 C 0.2992 0.73794 0.74119 0.0
C2234 C 0.26654 0.73754 0.79294 0.0
C2235 C 0.24157 0.76494 0.70787 0.0
O2236 O 0.22685 0.76371 0.75431 0.0
O2237 O 0.20109 0.78311 0.7523 0.0
O2238 O 0.48775 0.99708 0.97524 0.0
Mn2239 Mn 0.49999 0.00163 0.00293 0.0
O2240 O 0.51166 0.00262 0.95261 0.0
Mn2241 Mn 0.53006 0.01289 0.97008 0.0
O2242 O 0.51196 0.00647 0.03081 0.0
O2243 O 0.47248 0.00398 0.01365 0.0
Mn2244 Mn 0.4695 0.99015 0.03542 0.0
O2245 O 0.5002 0.97105 0.00796 0.0
O2246 O 0.48738 0.00133 0.05284 0.0
O2247 O 0.49985 0.03225 -0.00215 0.0
O2248 O 0.52565 0.03881 0.97771 0.0
O2249 O 0.44528 0.00184 0.0305 0.0
O2250 O 0.47448 0.96422 0.02809 0.0
C2251 C 0.54574 0.99391 0.98988 0.0
C2252 C 0.49416 0.99749 0.95741 0.0
C2253 C 0.50499 0.00663 0.04851 0.0
C2254 C 0.45424 0.00921 0.01527 0.0
C2255 C 0.48889 0.9588 0.01717 0.0
C2256 C 0.51131 0.04438 0.98865 0.0
O2257 O 0.52748 -0.00096 0.99196 0.0
O2258 O 0.55428 0.00107 0.97431 0.0
O2259 O 0.28087 0.24875 0.26124 0.0
Mn2260 Mn 0.25127 0.25173 0.25266 0.0
O2261 O 0.28045 0.23041 0.28921 0.0
Mn2262 Mn 0.25327 0.22682 0.29112 0.0
O2263 O 0.22142 0.25462 0.24437 0.0
O2264 O 0.25929 0.27818 0.2386 0.0
Mn2265 Mn 0.25066 0.27138 0.21463 0.0
O2266 O 0.256 0.23286 0.22833 0.0
O2267 O 0.2236 0.26833 0.21433 0.0
O2268 O 0.24591 0.26905 0.27813 0.0
O2269 O 0.24004 0.24754 0.30295 0.0
O2270 O 0.25958 0.29564 0.21035 0.0
O2271 O 0.26525 0.25155 0.20333 0.0
C2272 C 0.23791 0.20869 0.27025 0.0
C2273 C 0.28956 0.24039 0.27596 0.0
C2274 C 0.2134 0.26122 0.22845 0.0
C2275 C 0.26402 0.29457 0.22898 0.0
C2276 C 0.26302 0.23466 0.21088 0.0
C2277 C 0.24038 0.26506 0.29597 0.0
O2278 O 0.24428 0.22641 0.26678 0.0
O2279 O 0.24153 0.20234 0.28793 0.0
O2280 O 0.49802 0.47586 0.98422 0.0
Mn2281 Mn 0.50313 0.50155 0.00059 0.0
O2282 O 0.49499 0.45082 0.00604 0.0
Mn2283 Mn 0.50587 0.46433 0.02712 0.0
O2284 O 0.50817 0.52718 0.01712 0.0
O2285 O 0.51068 0.51492 0.97514 0.0
Mn2286 Mn 0.50234 0.53959 0.97503 0.0
O2287 O 0.47388 0.51011 0.99681 0.0
O2288 O 0.51532 0.55167 0.99578 0.0
O2289 O 0.53256 0.49338 0.00417 0.0
O2290 O 0.53298 0.46827 0.02614 0.0
O2291 O 0.51458 0.53562 0.95089 0.0
O2292 O 0.47507 0.53793 0.97818 0.0
C2293 C 0.48831 0.48474 0.04359 0.0
C2294 C 0.49411 0.45776 0.98854 0.0
C2295 C 0.51422 0.54479 0.01326 0.0
C2296 C 0.51757 0.51792 0.95759 0.0
C2297 C 0.4656 0.52481 0.98802 0.0
C2298 C 0.54175 0.48079 0.01501 0.0
O2299 O 0.49547 0.48821 0.02618 0.0
O2300 O 0.49233 0.46734 0.05055 0.0
O2301 O 0.76818 0.2798 0.25429 0.0
Mn2302 Mn 0.75438 0.25257 0.25112 0.0
O2303 O 0.7449 0.30259 0.24653 0.0
Mn2304 Mn 0.7243 0.28548 0.24087 0.0
O2305 O 0.74014 0.22562 0.24774 0.0
O2306 O 0.78098 0.24033 0.24603 0.0
Mn2307 Mn 0.78311 0.21745 0.2583 0.0
O2308 O 0.75701 0.24726 0.28148 0.0
O2309 O 0.76337 0.2017 0.2477 0.0
O2310 O 0.75215 0.25749 0.22058 0.0
O2311 O 0.72468 0.27547 0.21551 0.0
O2312 O 0.80686 0.22132 0.24537 0.0
O2313 O 0.78037 0.22358 0.28487 0.0
C2314 C 0.71054 0.2685 0.26366 0.0
C2315 C 0.76244 0.29772 0.25154 0.0
C2316 C 0.74561 0.2076 0.24548 0.0
C2317 C 0.79877 0.23771 0.23963 0.0
C2318 C 0.76808 0.236 0.29213 0.0
C2319 C 0.73916 0.26526 0.20909 0.0
O2320 O 0.72781 0.26487 0.25637 0.0
O2321 O 0.70188 0.28393 0.2563 0.0
O2322 O 0.98483 0.49584 0.47672 0.0
Mn2323 Mn -0.0003 0.50195 0.5029 0.0
O2324 O 0.00686 0.49817 0.45183 0.0
Mn2325 Mn 0.02605 0.51091 0.46655 0.0
O2326 O 0.01426 0.5084 0.52931 0.0
O2327 O 0.97333 0.50462 0.51576 0.0
Mn2328 Mn 0.97257 0.49407 0.53937 0.0
O2329 O 0.00052 0.47186 0.50978 0.0
O2330 O 0.99097 0.50871 0.5532 0.0
O2331 O -0.0011 0.53214 0.49653 0.0
O2332 O 0.02139 0.53729 0.47239 0.0
O2333 O 0.94738 0.50382 0.53436 0.0
O2334 O 0.97952 0.46778 0.53556 0.0
C2335 C 0.0445 0.49461 0.48625 0.0
C2336 C 0.9897 0.49409 0.45847 0.0
C2337 C 0.00854 0.51195 0.5471 0.0
C2338 C 0.95507 0.50943 0.51776 0.0
C2339 C 0.99191 0.46112 0.52292 0.0
C2340 C 0.0089 0.54354 0.48509 0.0
O2341 O 0.02622 0.49897 0.48969 0.0
O2342 O 0.05111 0.50069 0.46934 0.0
O2343 O 0.77763 0.75914 0.26852 0.0
Mn2344 Mn 0.75139 0.75163 0.25409 0.0
O2345 O 0.80152 0.76095 0.24553 0.0
Mn2346 Mn 0.78814 0.74506 0.22791 0.0
O2347 O 0.72494 0.74399 0.24005 0.0
O2348 O 0.73912 0.74894 0.28091 0.0
Mn2349 Mn 0.71509 0.75863 0.28141 0.0
O2350 O 0.7435 0.78137 0.25286 0.0
O2351 O 0.70141 0.74311 0.26364 0.0
O2352 O 0.75921 0.72189 0.25535 0.0
O2353 O 0.78595 0.71878 0.23553 0.0
O2354 O 0.72035 0.75002 0.30685 0.0
O2355 O 0.71771 0.78489 0.2739 0.0
C2356 C 0.76695 0.75815 0.20864 0.0
C2357 C 0.7953 0.7635 0.26311 0.0
C2358 C 0.7073 0.74001 0.24599 0.0
C2359 C 0.73718 0.74477 0.29939 0.0
C2360 C 0.73007 0.79178 0.26137 0.0
C2361 C 0.7731 0.71167 0.24743 0.0
O2362 O 0.76386 0.75443 0.22714 0.0
O2363 O 0.78421 0.75293 0.20219 0.0
O2364 O 0.7823 0.25134 0.74167 0.0
Mn2365 Mn 0.75309 0.24903 0.7504 0.0
O2366 O 0.77873 0.26232 0.71057 0.0
Mn2367 Mn 0.75214 0.26903 0.71243 0.0
O2368 O 0.72356 0.24669 0.75863 0.0
O2369 O 0.75998 0.22339 0.76408 0.0
Mn2370 Mn 0.74875 0.2224 0.7875 0.0
O2371 O 0.75887 0.26542 0.77591 0.0
O2372 O 0.72188 0.22329 0.78235 0.0
O2373 O 0.7473 0.23094 0.7258 0.0
O2374 O 0.7343 0.25071 0.70356 0.0
O2375 O 0.76272 0.19908 0.78502 0.0
O2376 O 0.75904 0.24368 0.8013 0.0
C2377 C 0.74263 0.29316 0.72876 0.0
C2378 C 0.78942 0.25572 0.72465 0.0
C2379 C 0.71377 0.23531 0.77026 0.0
C2380 C 0.76735 0.20611 0.76782 0.0
C2381 C 0.76138 0.26104 0.79424 0.0
C2382 C 0.73737 0.23347 0.70995 0.0
O2383 O 0.74668 0.27605 0.73718 0.0
O2384 O 0.74516 0.29443 0.70978 0.0
O2385 O 0.78108 0.75149 0.75933 0.0
Mn2386 Mn 0.75064 0.7526 0.75317 0.0
O2387 O 0.78506 0.72821 0.78295 0.0
Mn2388 Mn 0.75839 0.72377 0.78764 0.0
O2389 O 0.72004 0.75358 0.74723 0.0
O2390 O 0.75492 0.78011 0.74236 0.0
Mn2391 Mn 0.74093 0.7833 0.7208 0.0
O2392 O 0.75512 0.73972 0.72512 0.0
O2393 O 0.71483 0.78046 0.72826 0.0
O2394 O 0.74581 0.76599 0.78071 0.0
O2395 O 0.74605 0.74213 0.80387 0.0
O2396 O 0.75377 0.80699 0.72453 0.0
O2397 O 0.74982 0.76439 0.70323 0.0
C2398 C 0.74183 0.70665 0.76705 0.0
C2399 C 0.792 0.74111 0.77101 0.0
C2400 C 0.70847 0.76579 0.73825 0.0
C2401 C 0.76069 0.79826 0.7401 0.0
C2402 C 0.75392 0.74636 0.70726 0.0
C2403 C 0.74337 0.76003 0.79858 0.0
O2404 O 0.74665 0.72505 0.76436 0.0
O2405 O 0.74771 0.6991 0.78363 0.0
O2406 O 0.52652 0.51775 0.4993 0.0
Mn2407 Mn 0.50027 0.50198 0.50405 0.0
O2408 O 0.55146 0.49557 0.49987 0.0
Mn2409 Mn 0.5368 0.47501 0.5106 0.0
O2410 O 0.47397 0.48619 0.50882 0.0
O2411 O 0.48679 0.528 0.50928 0.0
Mn2412 Mn 0.46364 0.52886 0.49749 0.0
O2413 O 0.49354 0.50382 0.47379 0.0
O2414 O 0.44903 0.50838 0.50844 0.0
O2415 O 0.50705 0.50018 0.53439 0.0
O2416 O 0.53113 0.47721 0.53731 0.0
O2417 O 0.46655 0.55295 0.51009 0.0
O2418 O 0.46912 0.52639 0.47071 0.0
C2419 C 0.51736 0.45832 0.49213 0.0
C2420 C 0.54484 0.51307 0.49728 0.0
C2421 C 0.45565 0.49087 0.51096 0.0
C2422 C 0.48348 0.5458 0.5154 0.0
C2423 C 0.48163 0.51433 0.46326 0.0
C2424 C 0.51882 0.48941 0.54484 0.0
O2425 O 0.51376 0.47594 0.49865 0.0
O2426 O 0.5342 0.45111 0.49765 0.0
O2427 O 0.97819 0.48714 0.99541 0.0
Mn2428 Mn 0.00326 0.50401 0.0014 0.0
O2429 O 0.95268 0.50826 0.99158 0.0
Mn2430 Mn 0.96531 0.52962 0.0031 0.0
O2431 O 0.02824 0.52112 0.00757 0.0
O2432 O 0.01663 0.47856 0.00928 0.0
Mn2433 Mn 0.04168 0.47942 0.00254 0.0
O2434 O 0.01317 0.50063 0.97248 0.0
O2435 O 0.05218 0.50013 0.01685 0.0
O2436 O 0.99397 0.5072 0.03038 0.0
O2437 O 0.96816 0.52831 0.03042 0.0
O2438 O 0.03785 0.45481 0.01382 0.0
O2439 O 0.04154 0.48314 0.9753 0.0
C2440 C 0.98622 0.547 0.9869 0.0
C2441 C 0.96011 0.49091 0.99108 0.0
C2442 C 0.0453 0.51757 0.01504 0.0
C2443 C 0.0198 0.46085 0.01583 0.0
C2444 C 0.02872 0.49255 0.96503 0.0
C2445 C 0.98074 0.51741 0.03936 0.0
O2446 O 0.98959 0.52939 0.99361 0.0
O2447 O 0.96849 0.55345 0.99018 0.0
H2448 H 0.02474 0.14031 0.09134 0.0
H2449 H 0.99668 0.16329 0.03878 0.0
H2450 H 0.02631 0.1074 0.07622 0.0
H2451 H -0.00222 0.13047 0.02393 0.0
H2452 H 0.00803 0.07391 0.99499 0.0
H2453 H 0.01904 0.10471 0.01044 0.0
H2454 H 0.0022 0.08161 0.06766 0.0
H2455 H 0.99161 0.05074 0.05206 0.0
C2456 C 0.01913 0.13841 0.07647 0.0
C2457 C 0.01048 0.15446 0.06631 0.0
C2458 C 0.01992 0.11951 0.06786 0.0
C2459 C 0.01227 0.11624 0.04881 0.0
C2460 C 0.00414 0.13244 0.03848 0.0
C2461 C 0.00323 0.15126 0.04712 0.0
C2462 C 0.00773 0.07507 0.01097 0.0
C2463 C -0.00073 0.05991 0.02239 0.0
C2464 C 0.01368 0.09283 0.01982 0.0
C2465 C 0.01103 0.09587 0.04025 0.0
C2466 C 0.0045 0.07983 0.05191 0.0
C2467 C -0.00141 0.06203 0.04302 0.0
H2468 H 0.08931 0.76603 0.28773 0.0
H2469 H 0.1093 0.72827 0.33524 0.0
H2470 H 0.12165 0.7625 0.27138 0.0
H2471 H 0.14138 0.7251 0.31941 0.0
H2472 H 0.18963 0.70554 0.28166 0.0
H2473 H 0.15493 0.70895 0.29056 0.0
H2474 H 0.15712 0.77126 0.27577 0.0
H2475 H 0.19187 0.76759 0.26616 0.0
C2476 C 0.10067 0.75708 0.29466 0.0
C2477 C 0.09682 0.74711 0.31251 0.0
C2478 C 0.1191 0.75507 0.28535 0.0
C2479 C 0.13388 0.74315 0.29389 0.0
C2480 C 0.13009 0.73381 0.31209 0.0
C2481 C 0.11176 0.73569 0.32123 0.0
C2482 C 0.18257 0.71986 0.27991 0.0
C2483 C 0.19343 0.73637 0.27353 0.0
C2484 C 0.16275 0.72186 0.2851 0.0
C2485 C 0.15348 0.74049 0.2844 0.0
C2486 C 0.16389 0.75672 0.27651 0.0
C2487 C 0.18375 0.75464 0.27101 0.0
H2488 H 0.49671 0.83614 0.53198 0.0
H2489 H 0.48472 0.86753 0.58625 0.0
H2490 H 0.49726 0.8674 0.51398 0.0
H2491 H 0.48621 0.8991 0.56845 0.0
H2492 H 0.48759 0.95483 0.53024 0.0
H2493 H 0.47511 0.92331 0.54398 0.0
H2494 H 0.52148 0.89185 0.51295 0.0
H2495 H 0.53306 0.92243 0.49903 0.0
C2496 C 0.49411 0.84978 0.54003 0.0
C2497 C 0.49103 0.84945 0.56055 0.0
C2498 C 0.49445 0.86774 0.52975 0.0
C2499 C 0.49223 0.88591 0.5398 0.0
C2500 C 0.48788 0.88547 0.56017 0.0
C2501 C 0.48718 0.86739 0.57042 0.0
C2502 C 0.49464 0.94103 0.52603 0.0
C2503 C 0.51141 0.94114 0.51374 0.0
C2504 C 0.48766 0.92302 0.53402 0.0
C2505 C 0.49729 0.90493 0.52964 0.0
C2506 C 0.51335 0.90524 0.51646 0.0
C2507 C 0.52018 0.92296 0.50859 0.0
H2508 H 0.40012 0.28416 0.83583 0.0
H2509 H 0.4024 0.22412 0.81347 0.0
H2510 H 0.36636 0.28747 0.82356 0.0
H2511 H 0.36833 0.22731 0.80205 0.0
H2512 H 0.30186 0.2352 0.79777 0.0
H2513 H 0.33204 0.23482 0.81789 0.0
H2514 H 0.35406 0.28551 0.78564 0.0
H2515 H 0.32428 0.28541 0.76513 0.0
C2516 C 0.39346 0.27167 0.82832 0.0
C2517 C 0.40402 0.25392 0.82544 0.0
C2518 C 0.37409 0.27354 0.82156 0.0
C2519 C 0.36484 0.25757 0.81216 0.0
C2520 C 0.37512 0.23967 0.80967 0.0
C2521 C 0.3946 0.23788 0.81616 0.0
C2522 C 0.31289 0.24664 0.79554 0.0
C2523 C 0.31097 0.26038 0.78009 0.0
C2524 C 0.33012 0.24633 0.80687 0.0
C2525 C 0.34525 0.26007 0.80313 0.0
C2526 C 0.34248 0.27486 0.7888 0.0
C2527 C 0.32553 0.27484 0.77715 0.0
H2528 H 0.02734 0.8508 0.44087 0.0
H2529 H 0.97023 0.8555 0.41248 0.0
H2530 H 0.02393 0.8848 0.45281 0.0
H2531 H 0.9666 0.88912 0.42526 0.0
H2532 H 0.96395 0.93 0.48491 0.0
H2533 H 0.9651 0.90049 0.4639 0.0
H2534 H 0.01885 0.92188 0.43675 0.0
H2535 H 0.01728 0.95179 0.45726 0.0
C2536 C 0.01419 0.85911 0.43699 0.0
C2537 C -0.00101 0.85037 0.42586 0.0
C2538 C 0.01228 0.87854 0.44379 0.0
C2539 C 0.99506 0.88945 0.43977 0.0
C2540 C 0.97998 0.8809 0.42849 0.0
C2541 C 0.98201 0.8616 0.42142 0.0
C2542 C 0.9755 0.92873 0.47385 0.0
C2543 C 0.99046 0.94304 0.47253 0.0
C2544 C 0.97621 0.9119 0.46192 0.0
C2545 C 0.99217 0.90898 0.44896 0.0
C2546 C 0.00644 0.92391 0.44671 0.0
C2547 C 0.00543 0.94102 0.45826 0.0
H2548 H 0.39426 0.72781 0.67154 0.0
H2549 H 0.4027 0.78964 0.68575 0.0
H2550 H 0.36133 0.729 0.6859 0.0
H2551 H 0.36928 0.79097 0.69974 0.0
H2552 H 0.324 0.76807 0.74969 0.0
H2553 H 0.35256 0.77679 0.7293 0.0
H2554 H 0.32816 0.743 0.68092 0.0
H2555 H 0.29984 0.73409 0.70158 0.0
C2556 C 0.38908 0.74169 0.67771 0.0
C2557 C 0.40121 0.75858 0.67759 0.0
C2558 C 0.37002 0.74247 0.68563 0.0
C2559 C 0.36252 0.76018 0.6937 0.0
C2560 C 0.37459 0.77714 0.69355 0.0
C2561 C 0.39369 0.77638 0.68549 0.0
C2562 C 0.32426 0.76349 0.73434 0.0
C2563 C 0.30972 0.7506 0.72708 0.0
C2564 C 0.3407 0.76832 0.72268 0.0
C2565 C 0.34288 0.76013 0.70367 0.0
C2566 C 0.3271 0.74919 0.69567 0.0
C2567 C 0.3107 0.74438 0.70733 0.0
H2568 H 0.47939 0.1424 0.92326 0.0
H2569 H 0.51657 0.17107 0.96652 0.0
H2570 H 0.479 0.11242 0.94336 0.0
H2571 H 0.51618 0.14101 0.98667 0.0
H2572 H 0.5375 0.07449 0.9907 0.0
H2573 H 0.5317 0.10866 0.98077 0.0
H2574 H 0.46925 0.09636 0.97503 0.0
H2575 H 0.47524 0.06192 0.98486 0.0
C2576 C 0.48711 0.14244 0.93728 0.0
C2577 C 0.49819 0.15901 0.94322 0.0
C2578 C 0.4868 0.1253 0.94886 0.0
C2579 C 0.49755 0.12437 0.96661 0.0
C2580 C 0.5079 0.14125 0.97297 0.0
C2581 C 0.50821 0.15839 0.96139 0.0
C2582 C 0.52245 0.07931 0.98799 0.0
C2583 C 0.50681 0.06568 0.98852 0.0
C2584 C 0.5191 0.09888 0.98236 0.0
C2585 C 0.50004 0.10514 0.97691 0.0
C2586 C 0.48412 0.09187 0.97898 0.0
C2587 C 0.48747 0.07227 0.98485 0.0
H2588 H 0.08317 0.25631 0.21537 0.0
H2589 H 0.11161 0.24508 0.15929 0.0
H2590 H 0.1158 0.25767 0.23153 0.0
H2591 H 0.14397 0.24686 0.17525 0.0
H2592 H 0.19213 0.2846 0.20402 0.0
H2593 H 0.15809 0.28049 0.19364 0.0
H2594 H 0.15086 0.23228 0.23494 0.0
H2595 H 0.18563 0.23613 0.24538 0.0
C2596 C 0.09639 0.25395 0.2066 0.0
C2597 C 0.09498 0.25059 0.18612 0.0
C2598 C 0.11495 0.25459 0.21584 0.0
C2599 C 0.13229 0.25234 0.20459 0.0
C2600 C 0.13078 0.24856 0.18422 0.0
C2601 C 0.11232 0.24752 0.17511 0.0
C2602 C 0.18335 0.27319 0.21113 0.0
C2603 C 0.19171 0.26047 0.22534 0.0
C2604 C 0.16384 0.27088 0.20513 0.0
C2605 C 0.15203 0.25591 0.21328 0.0
C2606 C 0.15979 0.24392 0.22844 0.0
C2607 C 0.17959 0.24616 0.23444 0.0
H2608 H 0.04178 0.98303 0.17335 0.0
H2609 H 0.0832 0.02354 0.14627 0.0
H2610 H 0.02223 0.98286 0.14303 0.0
H2611 H 0.06369 0.02335 0.11598 0.0
H2612 H 0.0213 0.02626 0.06518 0.0
H2613 H 0.0321 0.03171 0.09939 0.0
H2614 H 0.02822 0.96874 0.11044 0.0
H2615 H 0.01752 0.96345 0.07654 0.0
C2616 C 0.04668 0.99195 0.16095 0.0
C2617 C 0.06419 0.00313 0.16219 0.0
C2618 C 0.03543 0.99192 0.1436 0.0
C2619 C 0.0414 0.00304 0.12702 0.0
C2620 C 0.05846 0.01486 0.12854 0.0
C2621 C 0.06971 0.0149 0.14591 0.0
C2622 C 0.02207 0.01374 0.0752 0.0
C2623 C 0.01858 0.99443 0.06827 0.0
C2624 C 0.0285 0.0168 0.09469 0.0
C2625 C 0.03126 0.00063 0.10761 0.0
C2626 C 0.02615 0.98155 0.10101 0.0
C2627 C 0.02003 0.97849 0.08155 0.0
H2628 H 0.28663 0.83147 0.40081 0.0
H2629 H 0.22463 0.81606 0.3982 0.0
H2630 H 0.29124 0.8189 0.3673 0.0
H2631 H 0.22924 0.80404 0.36442 0.0
H2632 H 0.24136 0.79522 0.2993 0.0
H2633 H 0.23981 0.81606 0.329 0.0
H2634 H 0.28825 0.78301 0.35438 0.0
H2635 H 0.28947 0.76202 0.32502 0.0
C2636 C 0.27397 0.82541 0.39311 0.0
C2637 C 0.2553 0.82449 0.40229 0.0
C2638 C 0.27661 0.81844 0.37387 0.0
C2639 C 0.26058 0.81065 0.3633 0.0
C2640 C 0.24177 0.81032 0.37216 0.0
C2641 C 0.23915 0.81712 0.39151 0.0
C2642 C 0.25211 0.79295 0.31095 0.0
C2643 C 0.26554 0.7771 0.31001 0.0
C2644 C 0.25108 0.80469 0.32797 0.0
C2645 C 0.26379 0.80096 0.34398 0.0
C2646 C 0.27836 0.78623 0.34221 0.0
C2647 C 0.27908 0.77425 0.32544 0.0
H2648 H 0.4697 0.0128 0.67114 0.0
H2649 H 0.41957 0.98694 0.64121 0.0
H2650 H 0.48779 0.01405 0.63979 0.0
H2651 H 0.43771 0.98805 0.60998 0.0
H2652 H 0.47954 0.98213 0.55855 0.0
H2653 H 0.46868 0.97472 0.5923 0.0
H2654 H 0.48066 0.03526 0.60923 0.0
H2655 H 0.4911 0.04272 0.5754 0.0
C2656 C 0.46265 0.00722 0.65789 0.0
C2657 C 0.44321 -9e-05 0.65853 0.0
C2658 C 0.473 0.00787 0.64004 0.0
C2659 C 0.46412 0.00114 0.62256 0.0
C2660 C 0.44501 0.99303 0.62333 0.0
C2661 C 0.43463 0.99243 0.64118 0.0
C2662 C 0.48046 0.99363 0.56969 0.0
C2663 C 0.48618 0.01297 0.56455 0.0
C2664 C 0.47409 0.98945 0.58889 0.0
C2665 C 0.4738 0.00445 0.60327 0.0
C2666 C 0.4809 0.02341 0.59843 0.0
C2667 C 0.48684 0.0277 0.57914 0.0
H2668 H 0.28642 0.20012 0.90719 0.0
H2669 H 0.23328 0.1684 0.89142 0.0
H2670 H 0.28826 0.21379 0.87372 0.0
H2671 H 0.23461 0.18259 0.85848 0.0
H2672 H 0.24026 0.20187 0.79857 0.0
H2673 H 0.25165 0.18324 0.82737 0.0
H2674 H 0.26978 0.23804 0.85502 0.0
H2675 H 0.25926 0.25628 0.82575 0.0
C2676 C 0.27522 0.19597 0.89655 0.0
C2677 C 0.2596 0.18331 0.90201 0.0
C2678 C 0.27623 0.20385 0.87741 0.0
C2679 C 0.2617 0.19917 0.86332 0.0
C2680 C 0.24632 0.18621 0.86875 0.0
C2681 C 0.24532 0.17836 0.88781 0.0
C2682 C 0.24793 0.20967 0.81026 0.0
C2683 C 0.2493 0.23036 0.8099 0.0
C2684 C 0.25403 0.19911 0.82696 0.0
C2685 C 0.26111 0.20921 0.84373 0.0
C2686 C 0.26446 0.22975 0.8424 0.0
C2687 C 0.25854 0.24023 0.82559 0.0
H2688 H 0.04852 0.01058 0.34313 0.0
H2689 H 0.09502 0.97227 0.36449 0.0
H2690 H 0.03223 0.00872 0.37525 0.0
H2691 H 0.07847 0.97014 0.39665 0.0
H2692 H 0.05704 0.00534 0.45495 0.0
H2693 H 0.07255 0.99452 0.42406 0.0
H2694 H 0.0148 0.98596 0.39831 0.0
H2695 H -0.00053 0.99687 0.42918 0.0
C2696 C 0.0552 0.00165 0.35464 0.0
C2697 C 0.07314 0.9917 0.35125 0.0
C2698 C 0.04571 0.00034 0.37299 0.0
C2699 C 0.05398 0.98914 0.3885 0.0
C2700 C 0.07173 0.97887 0.38502 0.0
C2701 C 0.08115 0.98003 0.36656 0.0
C2702 C 0.04774 1e-05 0.44306 0.0
C2703 C 0.02711 0.00171 0.44443 0.0
C2704 C 0.05659 0.994 0.42527 0.0
C2705 C 0.04489 0.98986 0.40857 0.0
C2706 C 0.02421 0.9894 0.41079 0.0
C2707 C 0.01542 0.9953 0.42856 0.0
H2708 H 0.27509 0.82771 0.60979 0.0
H2709 H 0.2364 0.78571 0.58109 0.0
H2710 H 0.27497 0.80739 0.63952 0.0
H2711 H 0.23609 0.76546 0.61108 0.0
H2712 H 0.21479 0.76403 0.67819 0.0
H2713 H 0.22078 0.77284 0.64379 0.0
H2714 H 0.28363 0.77469 0.65506 0.0
H2715 H 0.27751 0.76588 0.68968 0.0
C2716 C 0.26692 0.81391 0.60966 0.0
C2717 C 0.25558 0.80844 0.59315 0.0
C2718 C 0.26693 0.80221 0.62668 0.0
C2719 C 0.25554 0.78482 0.62759 0.0
C2720 C 0.24489 0.77887 0.6108 0.0
C2721 C 0.24495 0.79054 0.59373 0.0
C2722 C 0.22992 0.76564 0.67313 0.0
C2723 C 0.24569 0.7644 0.68652 0.0
C2724 C 0.23338 0.77061 0.65341 0.0
C2725 C 0.25266 0.77469 0.64682 0.0
C2726 C 0.26861 0.77178 0.65984 0.0
C2727 C 0.26514 0.76654 0.67956 0.0
H2728 H 0.45322 0.02229 0.84371 0.0
H2729 H 0.41401 0.97389 0.85867 0.0
H2730 H 0.46752 0.02071 0.87671 0.0
H2731 H 0.42885 0.97203 0.89161 0.0
H2732 H 0.48429 0.96461 0.93623 0.0
H2733 H 0.46474 0.96424 0.90555 0.0
H2734 H 0.45364 0.02698 0.912 0.0
H2735 H 0.47288 0.0272 0.94257 0.0
C2736 C 0.44758 0.0114 0.85407 0.0
C2737 C 0.43244 -0.00172 0.84864 0.0
C2738 C 0.45578 0.01049 0.87291 0.0
C2739 C 0.4491 0.99635 0.88662 0.0
C2740 C 0.43423 0.98299 0.88119 0.0
C2741 C 0.42586 0.98402 0.86236 0.0
C2742 C 0.47717 0.9781 0.93123 0.0
C2743 C 0.47987 0.99592 0.94145 0.0
C2744 C 0.46606 0.97792 0.91381 0.0
C2745 C 0.45797 0.99564 0.90645 0.0
C2746 C 0.45993 0.01321 0.91735 0.0
C2747 C 0.47077 0.01332 0.93479 0.0
H2748 H 0.24909 0.14759 0.11449 0.0
H2749 H 0.2604 0.20711 0.09384 0.0
H2750 H 0.25093 0.15921 0.14893 0.0
H2751 H 0.26193 0.21866 0.1282 0.0
H2752 H 0.22985 0.2262 0.19168 0.0
H2753 H 0.22715 0.20757 0.1608 0.0
H2754 H 0.28801 0.18925 0.16626 0.0
H2755 H 0.29094 0.20858 0.19708 0.0
C2756 C 0.25183 0.16314 0.11736 0.0
C2757 C 0.2546 0.17651 0.10163 0.0
C2758 C 0.25301 0.16969 0.13695 0.0
C2759 C 0.25673 0.1897 0.14096 0.0
C2760 C 0.25924 0.20311 0.12529 0.0
C2761 C 0.25834 0.19654 0.10575 0.0
C2762 C 0.24239 0.21748 0.18671 0.0
C2763 C 0.26052 0.21847 0.19675 0.0
C2764 C 0.24086 0.20698 0.16906 0.0
C2765 C 0.25736 0.19706 0.16139 0.0
C2766 C 0.27511 0.19676 0.17214 0.0
C2767 C 0.27676 0.20763 0.18972 0.0
H2768 H 0.16506 0.04372 0.99553 0.0
H2769 H 0.13892 0.10151 0.00366 0.0
H2770 H 0.13233 0.02915 0.99283 0.0
H2771 H 0.1059 0.08709 0.00022 0.0
H2772 H 0.05122 0.04719 0.01623 0.0
H2773 H 0.08198 0.06628 0.01581 0.0
H2774 H 0.10549 0.02697 0.97103 0.0
H2775 H 0.07529 0.0074 0.97249 0.0
C2776 C 0.15224 0.05331 0.99657 0.0
C2777 C 0.15448 0.07371 -0.00029 0.0
C2778 C 0.13344 0.04503 0.99483 0.0
C2779 C 0.11639 0.05699 0.99588 0.0
C2780 C 0.11866 0.07742 -0.00062 0.0
C2781 C 0.13754 0.08568 0.00137 0.0
C2782 C 0.06281 0.04308 0.00592 0.0
C2783 C 0.06107 0.02587 0.99444 0.0
C2784 C 0.08046 0.05395 0.0057 0.0
C2785 C 0.09647 0.04784 0.99378 0.0
C2786 C 0.09378 0.03169 0.98091 0.0
C2787 C 0.07639 0.02064 0.98147 0.0
H2788 H 0.66784 0.46457 0.98558 0.0
H2789 H 0.64606 0.41646 0.02169 0.0
H2790 H 0.6357 0.48141 0.98871 0.0
H2791 H 0.61426 0.43287 0.02458 0.0
H2792 H 0.56694 0.47133 0.04454 0.0
H2793 H 0.60161 0.46228 0.04131 0.0
H2794 H 0.59994 0.47718 0.97915 0.0
H2795 H 0.56518 0.48694 0.98261 0.0
C2796 C 0.65615 0.45762 0.99408 0.0
C2797 C 0.65944 0.43945 0.00373 0.0
C2798 C 0.63785 0.46721 0.99588 0.0
C2799 C 0.62268 0.45867 0.00729 0.0
C2800 C 0.62588 0.44016 0.01627 0.0
C2801 C 0.64405 0.43071 0.01456 0.0
C2802 C 0.57411 0.4731 0.0303 0.0
C2803 C 0.5634 0.47949 0.01375 0.0
C2804 C 0.5939 0.46784 0.02841 0.0
C2805 C 0.60327 0.46849 0.00986 0.0
C2806 C 0.59305 0.47648 0.99361 0.0
C2807 C 0.5732 0.48205 0.99558 0.0
H2808 H 0.79981 0.41558 0.24096 0.0
H2809 H 0.85105 0.39086 0.26992 0.0
H2810 H 0.78437 0.38304 0.24053 0.0
H2811 H 0.83583 0.35787 0.269 0.0
H2812 H 0.78778 0.30805 0.28134 0.0
H2813 H 0.80767 0.33855 0.28266 0.0
H2814 H 0.78992 0.35254 0.22282 0.0
H2815 H 0.76963 0.32286 0.22199 0.0
C2816 C 0.80776 0.40307 0.24713 0.0
C2817 C 0.82656 0.40552 0.25535 0.0
C2818 C 0.79903 0.38445 0.2468 0.0
C2819 C 0.80909 0.36787 0.25442 0.0
C2820 C 0.82777 0.37041 0.26309 0.0
C2821 C 0.83644 0.38918 0.2636 0.0
C2822 C 0.78849 0.31762 0.26849 0.0
C2823 C 0.77702 0.3136 0.25174 0.0
C2824 C 0.79983 0.33495 0.26918 0.0
C2825 C 0.79987 0.34812 0.25301 0.0
C2826 C 0.78964 0.34301 0.23572 0.0
C2827 C 0.77814 0.32602 0.23518 0.0
H2828 H 0.84971 0.55803 0.4635 0.0
H2829 H 0.86193 0.58175 0.52153 0.0
H2830 H 0.88303 0.54374 0.46229 0.0
H2831 H 0.89488 0.56728 0.52045 0.0
H2832 H 0.95585 0.54914 0.51374 0.0
H2833 H 0.92758 0.56902 0.50292 0.0
H2834 H 0.89891 0.516 0.48162 0.0
H2835 H 0.92715 0.49629 0.49256 0.0
C2836 C 0.85957 0.56036 0.47589 0.0
C2837 C 0.85315 0.57086 0.49269 0.0
C2838 C 0.87859 0.55217 0.47519 0.0
C2839 C 0.89163 0.55457 0.49116 0.0
C2840 C 0.88534 0.5655 0.50772 0.0
C2841 C 0.86633 0.57351 0.5085 0.0
C2842 C 0.94395 0.54197 0.50575 0.0
C2843 C 0.94358 0.5213 0.5038 0.0
C2844 C 0.92767 0.55327 0.49981 0.0
C2845 C 0.91087 0.54399 0.49183 0.0
C2846 C 0.91163 0.52358 0.48771 0.0
C2847 C 0.92783 0.51229 0.49385 0.0
H2848 H 0.17253 0.10951 0.27434 0.0
H2849 H 0.20187 0.09592 0.21919 0.0
H2850 H 0.18541 0.14308 0.27299 0.0
H2851 H 0.21457 0.12995 0.21764 0.0
H2852 H 0.25499 0.18127 0.24656 0.0
H2853 H 0.23899 0.15033 0.23672 0.0
H2854 H 0.18245 0.17433 0.25445 0.0
H2855 H 0.19864 0.20505 0.26453 0.0
C2856 C 0.18175 0.11369 0.2619 0.0
C2857 C 0.18628 0.09993 0.24697 0.0
C2858 C 0.18888 0.13309 0.26094 0.0
C2859 C 0.20081 0.13935 0.24505 0.0
C2860 C 0.20535 0.12563 0.23003 0.0
C2861 C 0.19804 0.10617 0.23091 0.0
C2862 C 0.23901 0.18029 0.24727 0.0
C2863 C 0.22798 0.19559 0.25605 0.0
C2864 C 0.22983 0.16248 0.24181 0.0
C2865 C 0.2095 0.15967 0.24528 0.0
C2866 C 0.1982 0.17589 0.25195 0.0
C2867 C 0.20739 0.19365 0.25737 0.0
H2868 H 0.36814 0.90939 0.51559 0.0
H2869 H 0.34211 0.94941 0.47302 0.0
H2870 H 0.39948 0.92747 0.51316 0.0
H2871 H 0.37337 0.9669 0.4701 0.0
H2872 H 0.41863 0.00978 0.49512 0.0
H2873 H 0.39008 0.98854 0.49344 0.0
H2874 H 0.42796 0.93703 0.4904 0.0
H2875 H 0.45716 0.95857 0.4927 0.0
C2876 C 0.36918 0.92193 0.50563 0.0
C2877 C 0.35268 0.92809 0.49459 0.0
C2878 C 0.38716 0.93208 0.50404 0.0
C2879 C 0.38883 0.9486 0.49148 0.0
C2880 C 0.37247 0.95431 0.48002 0.0
C2881 C 0.3546 0.94421 0.4816 0.0
C2882 C 0.42108 0.99396 0.49389 0.0
C2883 C 0.44028 0.9859 0.49406 0.0
C2884 C 0.40461 0.98177 0.4928 0.0
C2885 C 0.40677 0.96114 0.49166 0.0
C2886 C 0.42591 0.95292 0.49137 0.0
C2887 C 0.44258 0.96524 0.49249 0.0
H2888 H 0.82974 0.60767 0.22778 0.0
H2889 H 0.78992 0.58412 0.27206 0.0
H2890 H 0.8137 0.63982 0.2304 0.0
H2891 H 0.77392 0.6168 0.27477 0.0
H2892 H 0.74713 0.68089 0.24316 0.0
H2893 H 0.75578 0.64541 0.24548 0.0
H2894 H 0.81389 0.6612 0.26653 0.0
H2895 H 0.80541 0.69625 0.26401 0.0
C2896 C 0.81726 0.60923 0.23773 0.0
C2897 C 0.81108 0.59341 0.24973 0.0
C2898 C 0.8082 0.62764 0.23931 0.0
C2899 C 0.79276 0.6306 0.25285 0.0
C2900 C 0.78582 0.61469 0.26423 0.0
C2901 C 0.79503 0.59616 0.26275 0.0
C2902 C 0.76145 0.6766 0.24891 0.0
C2903 C 0.77576 0.691 0.25323 0.0
C2904 C 0.76636 0.65646 0.25023 0.0
C2905 C 0.78551 0.65086 0.25597 0.0
C2906 C 0.79909 0.66532 0.26195 0.0
C2907 C 0.79427 0.68526 0.26051 0.0
H2908 H 0.72164 0.41672 0.75604 0.0
H2909 H 0.66712 0.3863 0.76935 0.0
H2910 H 0.73895 0.38508 0.75451 0.0
H2911 H 0.68424 0.3544 0.76701 0.0
H2912 H 0.72175 0.29795 0.76403 0.0
H2913 H 0.70895 0.3296 0.77724 0.0
H2914 H 0.73815 0.3609 0.72962 0.0
H2915 H 0.75104 0.33016 0.71718 0.0
C2916 C 0.71339 0.40322 0.75875 0.0
C2917 C 0.69298 0.40396 0.76244 0.0
C2918 C 0.72328 0.38505 0.75787 0.0
C2919 C 0.71293 0.36707 0.7602 0.0
C2920 C 0.69273 0.36789 0.76522 0.0
C2921 C 0.68288 0.38617 0.76642 0.0
C2922 C 0.72575 0.31173 0.75683 0.0
C2923 C 0.73725 0.31154 0.73949 0.0
C2924 C 0.71831 0.32981 0.76423 0.0
C2925 C 0.72249 0.3479 0.75451 0.0
C2926 C 0.73484 0.3475 0.73781 0.0
C2927 C 0.7421 0.3297 0.7305 0.0
H2928 H 0.97011 0.86045 0.92165 0.0
H2929 H 0.02908 0.85125 0.94464 0.0
H2930 H 0.96974 0.89376 0.93612 0.0
H2931 H 0.02889 0.88471 0.95798 0.0
H2932 H 0.03264 0.95031 0.95795 0.0
H2933 H 0.02519 0.9209 0.9384 0.0
H2934 H 0.97543 0.9082 0.97633 0.0
H2935 H 0.98317 0.93772 0.99624 0.0
C2936 C 0.98294 0.86537 0.92984 0.0
C2937 C -0.00028 0.85304 0.93179 0.0
C2938 C 0.98271 0.88451 0.93797 0.0
C2939 C -0.00064 0.89182 0.94789 0.0
C2940 C 0.01597 0.87951 0.95008 0.0
C2941 C 0.0161 0.86034 0.9423 0.0
C2942 C 0.01946 0.94186 0.96147 0.0
C2943 C 0.00834 0.94635 0.97843 0.0
C2944 C 0.01535 0.92491 0.95042 0.0
C2945 C -6e-05 0.91219 0.95607 0.0
C2946 C 0.98737 0.91785 0.97169 0.0
C2947 C 0.99163 0.93483 0.98292 0.0
H2948 H 0.91615 0.22981 0.71195 0.0
H2949 H 0.90166 0.28079 0.67596 0.0
H2950 H 0.88212 0.22932 0.72473 0.0
H2951 H 0.86821 0.28051 0.68901 0.0
H2952 H 0.80733 0.25402 0.68888 0.0
H2953 H 0.84244 0.25352 0.68178 0.0
H2954 H 0.85532 0.25137 0.74427 0.0
H2955 H 0.81968 0.25178 0.75161 0.0
C2956 C 0.90582 0.24107 0.70705 0.0
C2957 C 0.91149 0.25526 0.69286 0.0
C2958 C 0.88649 0.24086 0.71446 0.0
C2959 C 0.87262 0.25472 0.7076 0.0
C2960 C 0.87864 0.26954 0.69433 0.0
C2961 C 0.89785 0.2698 0.68702 0.0
C2962 C 0.81755 0.25343 0.70119 0.0
C2963 C 0.81076 0.2534 0.72082 0.0
C2964 C 0.83766 0.25315 0.69709 0.0
C2965 C 0.85147 0.25288 0.71251 0.0
C2966 C 0.84484 0.25172 0.73217 0.0
C2967 C 0.82454 0.25198 0.73633 0.0
H2968 H 0.47834 0.15398 0.4389 0.0
H2969 H 0.54067 0.14975 0.42481 0.0
H2970 H 0.47902 0.12021 0.45145 0.0
H2971 H 0.54135 0.11617 0.43861 0.0
H2972 H 0.52204 0.07188 0.49683 0.0
H2973 H 0.53082 0.10131 0.47736 0.0
H2974 H 0.48838 0.08438 0.43297 0.0
H2975 H 0.4799 0.05492 0.45225 0.0
C2976 C 0.49217 0.14591 0.4383 0.0
C2977 C 0.50938 0.15471 0.43054 0.0
C2978 C 0.49254 0.12655 0.44559 0.0
C2979 C 0.51018 0.11556 0.44569 0.0
C2980 C 0.52756 0.12436 0.43857 0.0
C2981 C 0.52714 0.14367 0.43086 0.0
C2982 C 0.51561 0.07379 0.48229 0.0
C2983 C 0.50051 0.06106 0.47586 0.0
C2984 C 0.52045 0.09073 0.47126 0.0
C2985 C 0.51001 0.09519 0.45387 0.0
C2986 C 0.49655 0.08126 0.44639 0.0
C2987 C 0.4919 0.06428 0.45728 0.0
H2988 H 0.59179 0.75351 0.20954 0.0
H2989 H 0.6163 0.7348 0.15353 0.0
H2990 H 0.62374 0.74797 0.22529 0.0
H2991 H 0.6484 0.72911 0.16939 0.0
H2992 H 0.70514 0.75061 0.20701 0.0
H2993 H 0.67511 0.75029 0.18683 0.0
H2994 H 0.6447 0.71761 0.23264 0.0
H2995 H 0.67449 0.71803 0.25279 0.0
C2996 C 0.60406 0.7483 0.20061 0.0
C2997 C 0.60163 0.7445 0.18038 0.0
C2998 C 0.62225 0.74492 0.20963 0.0
C2999 C 0.6384 0.73783 0.19856 0.0
C3000 C 0.63613 0.73447 0.17822 0.0
C3001 C 0.61781 0.73764 0.16922 0.0
C3002 C 0.69226 0.74272 0.21241 0.0
C3003 C 0.69198 0.7346 0.23155 0.0
C3004 C 0.67507 0.74263 0.20092 0.0
C3005 C 0.65753 0.73436 0.20846 0.0
C3006 C 0.65793 0.72449 0.22672 0.0
C3007 C 0.675 0.72462 0.23817 0.0
H3008 H 0.99441 0.13651 0.60043 0.0
H3009 H 0.01791 0.1614 0.54653 0.0
H3010 H 0.001 0.10306 0.58803 0.0
H3011 H 0.02355 0.12827 0.53356 0.0
H3012 H 0.04496 0.07073 0.51642 0.0
H3013 H 0.04399 0.10055 0.53669 0.0
H3014 H 0.99036 0.0795 0.56472 0.0
H3015 H 0.99233 0.0491 0.54539 0.0
C3016 C 0.00069 0.1347 0.58579 0.0
C3017 C 0.00567 0.15131 0.57434 0.0
C3018 C 0.00451 0.11562 0.57869 0.0
C3019 C 0.01313 0.11291 0.55993 0.0
C3020 C 0.01755 0.12972 0.54835 0.0
C3021 C 0.01406 0.14871 0.55559 0.0
C3022 C 0.03349 0.07221 0.52754 0.0
C3023 C 0.01866 0.05785 0.52935 0.0
C3024 C 0.03269 0.08939 0.53891 0.0
C3025 C 0.01666 0.09279 0.55178 0.0
C3026 C 0.0029 0.07745 0.55495 0.0
C3027 C 0.00403 0.05999 0.54392 0.0
H3028 H 0.62061 0.25234 0.35167 0.0
H3029 H 0.59777 0.24408 0.29272 0.0
H3030 H 0.65432 0.24896 0.33912 0.0
H3031 H 0.6314 0.24143 0.27994 0.0
H3032 H 0.69132 0.23372 0.25832 0.0
H3033 H 0.66208 0.22403 0.27739 0.0
H3034 H 0.6757 0.26927 0.32054 0.0
H3035 H 0.70487 0.27838 0.30168 0.0
C3036 C 0.62285 0.24986 0.336 0.0
C3037 C 0.60663 0.24873 0.32312 0.0
C3038 C 0.64215 0.24785 0.3288 0.0
C3039 C 0.6457 0.24496 0.30849 0.0
C3040 C 0.62934 0.24323 0.29572 0.0
C3041 C 0.61003 0.24497 0.30298 0.0
C3042 C 0.68861 0.2407 0.27251 0.0
C3043 C 0.70032 0.25667 0.27869 0.0
C3044 C 0.67164 0.23548 0.28324 0.0
C3045 C 0.66615 0.24625 0.30024 0.0
C3046 C 0.67935 0.26057 0.30759 0.0
C3047 C 0.69624 0.26575 0.29686 0.0
H3048 H 0.48666 0.83155 0.03705 0.0
H3049 H 0.52621 0.85971 0.07852 0.0
H3050 H 0.48549 0.86206 0.0176 0.0
H3051 H 0.52505 0.89009 0.05913 0.0
H3052 H 0.52534 0.94167 0.01879 0.0
H3053 H 0.53243 0.90712 0.02738 0.0
H3054 H 0.4699 0.89401 0.02547 0.0
H3055 H 0.46299 0.92829 0.01672 0.0
C3056 C 0.49522 0.8442 0.04191 0.0
C3057 C 0.50635 0.84332 0.05942 0.0
C3058 C 0.49463 0.8616 0.03073 0.0
C3059 C 0.50515 0.87846 0.03685 0.0
C3060 C 0.51706 0.87725 0.05382 0.0
C3061 C 0.51765 0.85986 0.065 0.0
C3062 C 0.51327 0.93116 0.01941 0.0
C3063 C 0.49365 0.93754 0.01714 0.0
C3064 C 0.51727 0.91148 0.02455 0.0
C3065 C 0.5017 0.89792 0.02729 0.0
C3066 C 0.48224 0.90402 0.02332 0.0
C3067 C 0.47825 0.92367 0.01841 0.0
H3068 H 0.91988 0.73563 0.78939 0.0
H3069 H 0.89483 0.77464 0.83344 0.0
H3070 H 0.88803 0.73444 0.77244 0.0
H3071 H 0.86303 0.77349 0.81647 0.0
H3072 H 0.81028 0.77682 0.77551 0.0
H3073 H 0.84471 0.78229 0.78558 0.0
H3074 H 0.85585 0.71939 0.78099 0.0
H3075 H 0.82159 0.71407 0.77114 0.0
C3076 C 0.9076 0.744 0.79542 0.0
C3077 C 0.90988 0.75511 0.81285 0.0
C3078 C 0.88937 0.74337 0.78567 0.0
C3079 C 0.87297 0.75385 0.7931 0.0
C3080 C 0.87543 0.7655 0.81016 0.0
C3081 C 0.89366 0.76612 0.81992 0.0
C3082 C 0.82034 0.76432 0.776 0.0
C3083 C 0.81341 0.74506 0.77236 0.0
C3084 C 0.83994 0.76739 0.78203 0.0
C3085 C 0.85301 0.75126 0.78419 0.0
C3086 C 0.84628 0.73216 0.77931 0.0
C3087 C 0.82666 0.72909 0.77367 0.0
H3088 H 0.91461 0.01597 0.85973 0.0
H3089 H 0.96689 0.98785 0.83602 0.0
H3090 H 0.92901 0.01513 0.89271 0.0
H3091 H 0.98148 0.98706 0.86935 0.0
H3092 H 0.00323 0.01606 0.93191 0.0
H3093 H 0.99298 0.01251 0.89708 0.0
H3094 H 0.93758 0.98713 0.91633 0.0
H3095 H 0.94768 0.99088 0.95072 0.0
C3096 C 0.92929 0.00979 0.86156 0.0
C3097 C 0.93965 0.00204 0.8453 0.0
C3098 C 0.93747 0.00914 0.88047 0.0
C3099 C 0.95631 0.00088 0.88363 0.0
C3100 C 0.96694 0.99351 0.86733 0.0
C3101 C 0.95858 0.99388 0.84834 0.0
C3102 C 0.98914 0.00923 0.92854 0.0
C3103 C 0.97614 0.00385 0.94385 0.0
C3104 C 0.98325 0.00724 0.9087 0.0
C3105 C 0.96432 -0.0001 0.90406 0.0
C3106 C 0.95207 0.9932 0.91947 0.0
C3107 C 0.95788 0.99524 0.93911 0.0
H3108 H 0.73544 0.20541 0.59126 0.0
H3109 H 0.76442 0.15269 0.61282 0.0
H3110 H 0.72969 0.21628 0.62511 0.0
H3111 H 0.75797 0.16304 0.64692 0.0
H3112 H 0.76411 0.20443 0.70237 0.0
H3113 H 0.76725 0.18682 0.67113 0.0
H3114 H 0.71002 0.20903 0.65316 0.0
H3115 H 0.70745 0.22742 0.68407 0.0
C3116 C 0.7405 0.19615 0.60335 0.0
C3117 C 0.75038 0.17829 0.59957 0.0
C3118 C 0.73699 0.20219 0.62274 0.0
C3119 C 0.74297 0.1903 0.63879 0.0
C3120 C 0.7532 0.17256 0.63493 0.0
C3121 C 0.75696 0.16666 0.61547 0.0
C3122 C 0.75186 0.20485 0.69208 0.0
C3123 C 0.73561 0.21737 0.69547 0.0
C3124 C 0.7537 0.19486 0.67407 0.0
C3125 C 0.73917 0.19705 0.65936 0.0
C3126 C 0.72181 0.20763 0.66389 0.0
C3127 C 0.72014 0.21788 0.6817 0.0
H3128 H 0.54072 0.02357 0.33661 0.0
H3129 H 0.57847 0.97477 0.35373 0.0
H3130 H 0.52735 0.02495 0.37039 0.0
H3131 H 0.56489 0.97592 0.38698 0.0
H3132 H 0.56254 0.0042 0.44685 0.0
H3133 H 0.57033 0.00419 0.41187 0.0
H3134 H 0.50811 0.00307 0.39777 0.0
H3135 H 0.50008 0.00306 0.43334 0.0
C3136 C 0.54591 0.01298 0.34747 0.0
C3137 C 0.56073 -0.00086 0.34257 0.0
C3138 C 0.53816 0.01369 0.36668 0.0
C3139 C 0.5453 0.0007 0.38123 0.0
C3140 C 0.5593 0.98623 0.37603 0.0
C3141 C 0.56694 0.98546 0.35693 0.0
C3142 C 0.55043 0.00406 0.43637 0.0
C3143 C 0.53069 0.00319 0.44282 0.0
C3144 C 0.55493 0.00402 0.41635 0.0
C3145 C 0.53982 0.00313 0.40223 0.0
C3146 C 0.51998 0.00361 0.40848 0.0
C3147 C 0.51542 0.00364 0.42874 0.0
H3148 H 0.76863 0.80099 0.09853 0.0
H3149 H 0.71985 0.83778 0.11758 0.0
H3150 H 0.76772 0.78349 0.13 0.0
H3151 H 0.71886 0.81992 0.14925 0.0
H3152 H 0.75322 0.79614 0.20957 0.0
H3153 H 0.74387 0.81482 0.17979 0.0
H3154 H 0.74207 0.76026 0.14657 0.0
H3155 H 0.7515 0.74183 0.17611 0.0
C3156 C 0.75775 0.8054 0.10946 0.0
C3157 C 0.74427 0.82073 0.10549 0.0
C3158 C 0.75708 0.79522 0.12741 0.0
C3159 C 0.74299 0.80015 0.14192 0.0
C3160 C 0.72975 0.81576 0.13824 0.0
C3161 C 0.73028 0.82586 0.12011 0.0
C3162 C 0.74969 0.78812 0.19615 0.0
C3163 C 0.75294 0.76759 0.19504 0.0
C3164 C 0.74455 0.7988 0.17908 0.0
C3165 C 0.74273 0.78898 0.16082 0.0
C3166 C 0.7437 0.7682 0.16039 0.0
C3167 C 0.74881 0.75762 0.17734 0.0
H3168 H 0.91815 0.98042 0.63816 0.0
H3169 H 0.94856 0.03428 0.65433 0.0
H3170 H 0.93237 0.98229 0.6052 0.0
H3171 H 0.96242 0.0365 0.62092 0.0
H3172 H 0.00505 0.00804 0.57197 0.0
H3173 H 0.98711 0.01802 0.60169 0.0
H3174 H 0.93218 0.00058 0.57422 0.0
H3175 H 0.95039 0.99021 0.54474 0.0
C3176 C 0.92785 0.99271 0.63466 0.0
C3177 C 0.93235 0.00709 0.64897 0.0
C3178 C 0.93573 0.994 0.6156 0.0
C3179 C 0.94837 0.0097 0.61027 0.0
C3180 C 0.95272 0.02424 0.62451 0.0
C3181 C 0.94472 0.023 0.64363 0.0
C3182 C 0.98904 0.00743 0.57193 0.0
C3183 C 0.97904 -0.00144 0.55608 0.0
C3184 C 0.97873 0.01298 0.58902 0.0
C3185 C 0.95825 0.00957 0.59055 0.0
C3186 C 0.94801 0.00296 0.57368 0.0
C3187 C 0.95836 0.99739 0.55663 0.0
H3188 H 0.77919 0.2128 0.41838 0.0
H3189 H 0.7288 0.18105 0.39522 0.0
H3190 H 0.78156 0.23153 0.38757 0.0
H3191 H 0.731 0.20001 0.36467 0.0
H3192 H 0.73417 0.24191 0.31349 0.0
H3193 H 0.7291 0.23353 0.34845 0.0
H3194 H 0.79136 0.22027 0.35407 0.0
H3195 H 0.79636 0.22861 0.31945 0.0
C3196 C 0.76854 0.20991 0.4068 0.0
C3197 C 0.75396 0.19524 0.4092 0.0
C3198 C 0.76981 0.22075 0.38923 0.0
C3199 C 0.75647 0.21724 0.37373 0.0
C3200 C 0.7413 0.20329 0.37648 0.0
C3201 C 0.74008 0.19237 0.394 0.0
C3202 C 0.74682 0.23782 0.32242 0.0
C3203 C 0.76562 0.23574 0.31379 0.0
C3204 C 0.7439 0.23287 0.34234 0.0
C3205 C 0.75981 0.22609 0.35392 0.0
C3206 C 0.77884 0.22559 0.3456 0.0
C3207 C 0.7817 0.23027 0.32574 0.0
H3208 H 0.59651 0.02473 0.13899 0.0
H3209 H 0.54843 0.98972 0.16255 0.0
H3210 H 0.57833 0.02883 0.10787 0.0
H3211 H 0.53051 0.99359 0.13159 0.0
H3212 H 0.4941 0.02038 0.08458 0.0
H3213 H 0.5146 0.02253 0.114 0.0
H3214 H 0.56595 0.00616 0.07957 0.0
H3215 H 0.54538 0.00416 0.04987 0.0
C3216 C 0.58207 0.01795 0.13747 0.0
C3217 C 0.5738 0.00693 0.15308 0.0
C3218 C 0.57178 0.02022 0.11972 0.0
C3219 C 0.55299 0.01172 0.11751 0.0
C3220 C 0.54486 0.00056 0.13307 0.0
C3221 C 0.55518 -0.00185 0.15068 0.0
C3222 C 0.50982 0.01755 0.08319 0.0
C3223 C 0.51811 0.01171 0.06506 0.0
C3224 C 0.52151 0.01876 0.10002 0.0
C3225 C 0.5417 0.01408 0.09905 0.0
C3226 C 0.55038 0.0098 0.08064 0.0
C3227 C 0.53863 0.00866 0.0637 0.0
H3228 H 0.77063 0.80653 0.90963 0.0
H3229 H 0.7151 0.83686 0.89977 0.0
H3230 H 0.769 0.79282 0.8763 0.0
H3231 H 0.71313 0.82209 0.86683 0.0
H3232 H 0.71377 0.76092 0.82585 0.0
H3233 H 0.71283 0.781 0.85615 0.0
H3234 H 0.76653 0.81049 0.83814 0.0
H3235 H 0.76694 0.79109 0.80742 0.0
C3236 C 0.75816 0.81043 0.9004 0.0
C3237 C 0.74301 0.82286 0.90753 0.0
C3238 C 0.75723 0.80251 0.88133 0.0
C3239 C 0.74099 0.80654 0.86908 0.0
C3240 C 0.72577 0.81878 0.87609 0.0
C3241 C 0.72686 0.82704 0.89504 0.0
C3242 C 0.72495 0.77219 0.82812 0.0
C3243 C 0.74031 0.77468 0.81437 0.0
C3244 C 0.72445 0.78359 0.84539 0.0
C3245 C 0.73968 0.79711 0.84941 0.0
C3246 C 0.75463 0.80014 0.83528 0.0
C3247 C 0.75478 0.78919 0.81772 0.0
H3248 H 0.86124 0.90553 -0.00218 0.0
H3249 H 0.8368 0.9587 0.02341 0.0
H3250 H 0.89465 0.91847 0.00254 0.0
H3251 H 0.86987 0.97231 0.02708 0.0
H3252 H 0.92934 0.99032 0.04454 0.0
H3253 H 0.89887 0.97107 0.04475 0.0
H3254 H 0.91778 0.94119 0.99132 0.0
H3255 H 0.9488 0.95949 0.99218 0.0
C3256 C 0.86309 0.92013 0.00421 0.0
C3257 C 0.84655 0.93115 0.01027 0.0
C3258 C 0.88222 0.9276 0.00691 0.0
C3259 C 0.88516 0.94642 0.01541 0.0
C3260 C 0.8684 0.95752 0.02108 0.0
C3261 C 0.84937 0.94987 0.01876 0.0
C3262 C 0.92721 0.97904 0.03334 0.0
C3263 C 0.94138 0.97624 0.01844 0.0
C3264 C 0.90959 0.96826 0.03318 0.0
C3265 C 0.90543 0.95495 0.01769 0.0
C3266 C 0.92034 0.95118 0.00356 0.0
C3267 C 0.93822 0.96161 0.00406 0.0
H3268 H 0.35539 0.57274 0.02815 0.0
H3269 H 0.34046 0.54307 0.97347 0.0
H3270 H 0.38778 0.55731 0.02758 0.0
H3271 H 0.37353 0.52827 0.9726 0.0
H3272 H 0.43504 0.49793 0.98715 0.0
H3273 H 0.3996 0.50529 0.9921 0.0
H3274 H 0.41395 0.56691 0.00174 0.0
H3275 H 0.44875 0.55972 0.99645 0.0
C3276 C 0.35877 0.56256 0.01624 0.0
C3277 C 0.34534 0.55935 0.00072 0.0
C3278 C 0.37741 0.55383 0.01588 0.0
C3279 C 0.38314 0.54183 -5e-05 0.0
C3280 C 0.36938 0.53745 0.98508 0.0
C3281 C 0.3506 0.54616 0.98545 0.0
C3282 C 0.43045 0.51297 0.99037 0.0
C3283 C 0.44443 0.52834 0.99122 0.0
C3284 C 0.41032 0.51716 0.99316 0.0
C3285 C 0.40418 0.53661 0.99745 0.0
C3286 C 0.41832 0.55176 -0.00133 0.0
C3287 C 0.43819 0.54769 0.99545 0.0
H3288 H 0.15554 0.61484 0.73312 0.0
H3289 H 0.2091 0.58943 0.75693 0.0
H3290 H 0.1724 0.64679 0.72906 0.0
H3291 H 0.2258 0.62118 0.75306 0.0
H3292 H 0.25675 0.67226 0.72685 0.0
H3293 H 0.23666 0.64244 0.72449 0.0
H3294 H 0.18778 0.67318 0.75201 0.0
H3295 H 0.20797 0.70327 0.75419 0.0
C3296 C 0.17091 0.61611 0.7374 0.0
C3297 C 0.18108 0.59975 0.74533 0.0
C3298 C 0.18048 0.63434 0.73517 0.0
C3299 C 0.20041 0.63634 0.74056 0.0
C3300 C 0.2105 0.61995 0.7485 0.0
C3301 C 0.20091 0.60186 0.75091 0.0
C3302 C 0.24159 0.67276 0.73205 0.0
C3303 C 0.23395 0.68992 0.74097 0.0
C3304 C 0.23014 0.65571 0.73074 0.0
C3305 C 0.21086 0.65544 0.73846 0.0
C3306 C 0.20262 0.67304 0.74595 0.0
C3307 C 0.21412 0.69024 0.74717 0.0
H3308 H 0.13592 0.41546 0.53344 0.0
H3309 H 0.15527 0.45341 0.48567 0.0
H3310 H 0.10394 0.43276 0.53412 0.0
H3311 H 0.12349 0.47044 0.48633 0.0
H3312 H 0.0762 0.51087 0.50314 0.0
H3313 H 0.10587 0.49274 0.51272 0.0
H3314 H 0.07403 0.43756 0.5077 0.0
H3315 H 0.04413 0.45592 0.49806 0.0
C3316 C 0.13338 0.42754 0.52318 0.0
C3317 C 0.14813 0.43314 0.50953 0.0
C3318 C 0.11509 0.43731 0.52354 0.0
C3319 C 0.11141 0.45306 0.51048 0.0
C3320 C 0.1261 0.45855 0.4968 0.0
C3321 C 0.14421 0.44867 0.49628 0.0
C3322 C 0.07527 0.49495 0.50512 0.0
C3323 C 0.05797 0.48474 0.50003 0.0
C3324 C 0.09229 0.48457 0.51034 0.0
C3325 C 0.09229 0.46378 0.51051 0.0
C3326 C 0.07437 0.45361 0.50765 0.0
C3327 C 0.05724 0.46408 0.50235 0.0
H3328 H 0.79556 0.90994 0.74417 0.0
H3329 H 0.84578 0.88796 0.77686 0.0
H3330 H 0.7796 0.87762 0.74715 0.0
H3331 H 0.8298 0.85538 0.77967 0.0
H3332 H 0.80077 0.79892 0.74292 0.0
H3333 H 0.81939 0.82859 0.75237 0.0
H3334 H 0.76585 0.85483 0.77531 0.0
H3335 H 0.74746 0.8251 0.76615 0.0
C3336 C 0.80315 0.89821 0.75205 0.0
C3337 C 0.82191 0.90149 0.76026 0.0
C3338 C 0.79395 0.87976 0.75394 0.0
C3339 C 0.80338 0.86405 0.76385 0.0
C3340 C 0.82216 0.86726 0.77208 0.0
C3341 C 0.83125 0.88589 0.7705 0.0
C3342 C 0.79331 0.81051 0.75115 0.0
C3343 C 0.77276 0.80969 0.75403 0.0
C3344 C 0.8039 0.8276 0.75635 0.0
C3345 C 0.79394 0.84417 0.76416 0.0
C3346 C 0.77383 0.84236 0.7691 0.0
C3347 C 0.76337 0.82523 0.76414 0.0
H3348 H 0.66464 0.04607 0.51881 0.0
H3349 H 0.6414 0.09883 0.49121 0.0
H3350 H 0.63118 0.0341 0.52449 0.0
H3351 H 0.60774 0.08744 0.49769 0.0
H3352 H 0.5528 0.04675 0.49095 0.0
H3353 H 0.58413 0.06405 0.488 0.0
H3354 H 0.60288 0.03902 0.54387 0.0
H3355 H 0.57186 0.02071 0.54604 0.0
C3356 C 0.65228 0.05511 0.51407 0.0
C3357 C 0.65548 0.07328 0.50454 0.0
C3358 C 0.63309 0.04843 0.51754 0.0
C3359 C 0.61667 0.05997 0.51189 0.0
C3360 C 0.61998 0.0781 0.50214 0.0
C3361 C 0.63922 0.08463 0.49838 0.0
C3362 C 0.56336 0.0455 0.50292 0.0
C3363 C 0.56005 0.03234 0.51867 0.0
C3364 C 0.58141 0.05537 0.50121 0.0
C3365 C 0.59629 0.05253 0.51544 0.0
C3366 C 0.59203 0.04098 0.53227 0.0
C3367 C 0.57417 0.03075 0.53373 0.0
H3368 H 0.18131 0.39705 0.72573 0.0
H3369 H 0.21349 0.41979 0.77602 0.0
H3370 H 0.19957 0.36603 0.72802 0.0
H3371 H 0.23151 0.38851 0.77847 0.0
H3372 H 0.22524 0.32036 0.79374 0.0
H3373 H 0.2181 0.35529 0.7884 0.0
H3374 H 0.23319 0.34903 0.72659 0.0
H3375 H 0.2405 0.31381 0.73202 0.0
C3376 C 0.19262 0.39563 0.73697 0.0
C3377 C 0.19579 0.41082 0.75085 0.0
C3378 C 0.20312 0.37786 0.73824 0.0
C3379 C 0.21691 0.37488 0.75345 0.0
C3380 C 0.22082 0.3904 0.7667 0.0
C3381 C 0.21041 0.40822 0.76537 0.0
C3382 C 0.22752 0.32657 0.77912 0.0
C3383 C 0.23326 0.31444 0.76326 0.0
C3384 C 0.22356 0.34659 0.77608 0.0
C3385 C 0.225 0.35482 0.75706 0.0
C3386 C 0.23189 0.34298 0.74138 0.0
C3387 C 0.23618 0.32292 0.7445 0.0
H3388 H 0.29509 0.5916 0.25682 0.0
H3389 H 0.34735 0.61314 0.22702 0.0
H3390 H 0.28059 0.62475 0.25528 0.0
H3391 H 0.33287 0.64647 0.22562 0.0
H3392 H 0.3082 0.70211 0.2643 0.0
H3393 H 0.32416 0.67152 0.25323 0.0
H3394 H 0.26831 0.65078 0.23042 0.0
H3395 H 0.25251 0.68153 0.24137 0.0
C3396 C 0.3034 0.60342 0.24981 0.0
C3397 C 0.32234 0.59981 0.24207 0.0
C3398 C 0.29503 0.62234 0.24872 0.0
C3399 C 0.30553 0.63817 0.24013 0.0
C3400 C 0.32441 0.63454 0.2322 0.0
C3401 C 0.33265 0.61549 0.23298 0.0
C3402 C 0.29966 0.69153 0.25582 0.0
C3403 C 0.27924 0.69422 0.2534 0.0
C3404 C 0.30873 0.67391 0.24966 0.0
C3405 C 0.29738 0.65861 0.24131 0.0
C3406 C 0.27736 0.66224 0.23702 0.0
C3407 C 0.26838 0.67995 0.24298 0.0
H3408 H 0.5357 0.65641 0.55489 0.0
H3409 H 0.47862 0.64475 0.58122 0.0
H3410 H 0.53692 0.62228 0.54255 0.0
H3411 H 0.4796 0.61111 0.56855 0.0
H3412 H 0.48618 0.54898 0.55511 0.0
H3413 H 0.49626 0.57922 0.57224 0.0
H3414 H 0.5193 0.60258 0.51733 0.0
H3415 H 0.50951 0.57214 0.50048 0.0
C3416 C 0.52348 0.64656 0.55814 0.0
C3417 C 0.507 0.65338 0.56895 0.0
C3418 C 0.52416 0.62704 0.55103 0.0
C3419 C 0.50849 0.61384 0.55477 0.0
C3420 C 0.49215 0.62067 0.56575 0.0
C3421 C 0.49142 0.64013 0.57273 0.0
C3422 C 0.49443 0.56013 0.54702 0.0
C3423 C 0.49728 0.55823 0.52658 0.0
C3424 C 0.49987 0.57761 0.5567 0.0
C3425 C 0.50807 0.59356 0.54603 0.0
C3426 C 0.51301 0.59064 0.52602 0.0
C3427 C 0.50757 0.57313 0.51636 0.0
H3428 H 0.58931 0.26816 0.78919 0.0
H3429 H 0.60905 0.22506 0.83211 0.0
H3430 H 0.62098 0.265 0.77154 0.0
H3431 H 0.64042 0.22214 0.81495 0.0
H3432 H 0.6876 0.20554 0.77545 0.0
H3433 H 0.65279 0.20877 0.78406 0.0
H3434 H 0.65673 0.2723 0.7766 0.0
H3435 H 0.69154 0.26888 0.7671 0.0
C3436 C 0.60045 0.25808 0.79481 0.0
C3437 C 0.59674 0.24658 0.81175 0.0
C3438 C 0.61847 0.25626 0.78475 0.0
C3439 C 0.63295 0.24298 0.79161 0.0
C3440 C 0.62929 0.23197 0.80888 0.0
C3441 C 0.61138 0.23369 0.81878 0.0
C3442 C 0.68086 0.22012 0.77516 0.0
C3443 C 0.69218 0.237 0.77101 0.0
C3444 C 0.66101 0.222 0.78017 0.0
C3445 C 0.65226 0.24084 0.78157 0.0
C3446 C 0.66313 0.2576 0.77568 0.0
C3447 C 0.68301 0.25566 0.77029 0.0
H3448 H 0.9764 0.36514 0.08938 0.0
H3449 H 0.00713 0.34379 0.03754 0.0
H3450 H 0.97488 0.3983 0.07488 0.0
H3451 H 0.00602 0.37696 0.02327 0.0
H3452 H 0.99685 0.43489 0.99598 0.0
H3453 H 0.98497 0.40351 0.00976 0.0
H3454 H 0.0001 0.42381 0.06839 0.0
H3455 H 0.01184 0.45502 0.05447 0.0
C3456 C 0.98257 0.36744 0.07476 0.0
C3457 C 0.992 0.3518 0.06467 0.0
C3458 C 0.98178 0.38648 0.06651 0.0
C3459 C 0.99026 0.39032 0.04788 0.0
C3460 C -0.00094 0.37451 0.03751 0.0
C3461 C -4e-05 0.35553 0.04581 0.0
C3462 C 0.99655 0.433 0.0119 0.0
C3463 C 0.00491 0.44744 0.02423 0.0
C3464 C 0.9901 0.41491 0.01978 0.0
C3465 C 0.99197 0.41097 0.04014 0.0
C3466 C -0.00166 0.42633 0.05266 0.0
C3467 C 0.0049 0.44434 0.04474 0.0
H3468 H 0.91319 0.75527 0.29328 0.0
H3469 H 0.88832 0.74965 0.35182 0.0
H3470 H 0.88043 0.76164 0.27987 0.0
H3471 H 0.85534 0.75686 0.33861 0.0
H3472 H 0.79889 0.74616 0.29916 0.0
H3473 H 0.82949 0.74375 0.31804 0.0
H3474 H 0.85642 0.78738 0.27961 0.0
H3475 H 0.82616 0.78891 0.2602 0.0
C3476 C 0.9006 0.75543 0.30322 0.0
C3477 C 0.9031 0.75201 0.32348 0.0
C3478 C 0.88188 0.75935 0.29566 0.0
C3479 C 0.86532 0.76029 0.30827 0.0
C3480 C 0.86779 0.75628 0.32853 0.0
C3481 C 0.88658 0.75208 0.33607 0.0
C3482 C 0.81114 0.75575 0.29524 0.0
C3483 C 0.81036 0.76755 0.27814 0.0
C3484 C 0.82872 0.7543 0.30599 0.0
C3485 C 0.84558 0.76488 0.2999 0.0
C3486 C 0.8439 0.77848 0.28422 0.0
C3487 C 0.82651 0.77962 0.27328 0.0
H3488 H 0.49083 0.33939 0.95742 0.0
H3489 H 0.514 0.36307 0.90279 0.0
H3490 H 0.48615 0.37281 0.97 0.0
H3491 H 0.5086 0.39679 0.91498 0.0
H3492 H 0.51814 0.45131 0.95715 0.0
H3493 H 0.52005 0.42044 0.93843 0.0
H3494 H 0.46563 0.40072 0.96585 0.0
H3495 H 0.46461 0.43102 0.9854 0.0
C3496 C 0.49483 0.35185 0.94811 0.0
C3497 C 0.50275 0.34878 0.9292 0.0
C3498 C 0.49193 0.37101 0.95515 0.0
C3499 C 0.49656 0.38754 0.9433 0.0
C3500 C 0.50489 0.38441 0.92448 0.0
C3501 C 0.50804 0.36516 0.91753 0.0
C3502 C 0.50627 0.44061 0.95857 0.0
C3503 C 0.4913 0.44329 0.97271 0.0
C3504 C 0.50737 0.42289 0.94793 0.0
C3505 C 0.49331 0.40784 0.95111 0.0
C3506 C 0.4771 0.4117 0.9636 0.0
C3507 C 0.47628 0.42915 0.97455 0.0
H3508 H 0.8918 0.23073 0.16688 0.0
H3509 H 0.90518 0.28886 0.18996 0.0
H3510 H 0.85904 0.23241 0.18161 0.0
H3511 H 0.87197 0.29079 0.20434 0.0
H3512 H 0.82581 0.26445 0.25142 0.0
H3513 H 0.85456 0.27393 0.23171 0.0
H3514 H 0.82695 0.24913 0.17976 0.0
H3515 H 0.79839 0.23939 0.19975 0.0
C3516 C 0.88773 0.24391 0.17506 0.0
C3517 C 0.9012 0.25957 0.17736 0.0
C3518 C 0.86878 0.24505 0.18322 0.0
C3519 C 0.86274 0.26187 0.19393 0.0
C3520 C 0.87613 0.27766 0.19611 0.0
C3521 C 0.89512 0.27657 0.18783 0.0
C3522 C 0.82546 0.26209 0.23557 0.0
C3523 C 0.8099 0.25139 0.22701 0.0
C3524 C 0.842 0.26736 0.22427 0.0
C3525 C 0.84326 0.26181 0.20426 0.0
C3526 C 0.82659 0.25323 0.19524 0.0
C3527 C 0.81006 0.24799 0.20657 0.0
H3528 H 0.97605 0.66577 0.45739 0.0
H3529 H 0.03145 0.64815 0.43064 0.0
H3530 H 0.97586 0.63515 0.47693 0.0
H3531 H 0.03133 0.61799 0.45005 0.0
H3532 H 0.03662 0.57108 0.49214 0.0
H3533 H 0.03438 0.60621 0.484 0.0
H3534 H 0.97248 0.59891 0.46989 0.0
H3535 H 0.97469 0.56378 0.47891 0.0
C3536 C 0.98819 0.65542 0.45575 0.0
C3537 C 0.00385 0.65942 0.44259 0.0
C3538 C 0.98811 0.63799 0.46698 0.0
C3539 C 0.00373 0.62436 0.46527 0.0
C3540 C 0.01937 0.62848 0.45217 0.0
C3541 C 0.01943 0.64576 0.44098 0.0
C3542 C 0.02239 0.57724 0.48804 0.0
C3543 C 0.00586 0.56495 0.48594 0.0
C3544 C 0.02112 0.59724 0.48325 0.0
C3545 C 0.00341 0.60513 0.47578 0.0
C3546 C 0.98633 0.59322 0.4756 0.0
C3547 C 0.98755 0.57317 0.48075 0.0
H3548 H 0.58939 0.72696 0.70216 0.0
H3549 H 0.60552 0.78214 0.67397 0.0
H3550 H 0.61995 0.72803 0.72159 0.0
H3551 H 0.6357 0.78322 0.69327 0.0
H3552 H 0.67881 0.79256 0.74021 0.0
H3553 H 0.64544 0.78846 0.72744 0.0
H3554 H 0.65677 0.72617 0.71786 0.0
H3555 H 0.69021 0.73028 0.73127 0.0
C3556 C 0.59946 0.73926 0.70004 0.0
C3557 C 0.59484 0.75463 0.68669 0.0
C3558 C 0.61693 0.73988 0.71121 0.0
C3559 C 0.63008 0.75591 0.7093 0.0
C3560 C 0.62562 0.77097 0.6956 0.0
C3561 C 0.60828 0.77034 0.68449 0.0
C3562 C 0.67393 0.77786 0.73603 0.0
C3563 C 0.68708 0.76177 0.73667 0.0
C3564 C 0.6549 0.77554 0.72847 0.0
C3565 C 0.64864 0.75712 0.72108 0.0
C3566 C 0.66116 0.74057 0.72338 0.0
C3567 C 0.68026 0.74288 0.73119 0.0
H3568 H 0.54754 0.52317 0.6676 0.0
H3569 H 0.58268 0.47327 0.64829 0.0
H3570 H 0.52886 0.52192 0.63656 0.0
H3571 H 0.56416 0.47199 0.61767 0.0
H3572 H 0.52023 0.46033 0.57222 0.0
H3573 H 0.53141 0.46333 0.60628 0.0
H3574 H 0.53292 0.52706 0.60014 0.0
H3575 H 0.52098 0.52395 0.566 0.0
C3576 C 0.55132 0.51198 0.65675 0.0
C3577 C 0.56645 0.49813 0.6606 0.0
C3578 C 0.54059 0.51125 0.639 0.0
C3579 C 0.54473 0.49662 0.62477 0.0
C3580 C 0.56011 0.48308 0.62853 0.0
C3581 C 0.57079 0.48382 0.64614 0.0
C3582 C 0.52233 0.47501 0.57837 0.0
C3583 C 0.51985 0.49189 0.5665 0.0
C3584 C 0.52896 0.47674 0.59781 0.0
C3585 C 0.53365 0.4954 0.60576 0.0
C3586 C 0.5295 0.51246 0.59446 0.0
C3587 C 0.52258 0.51071 0.57495 0.0
H3588 H 0.72843 0.30961 0.90122 0.0
H3589 H 0.78659 0.33592 0.89651 0.0
H3590 H 0.73162 0.29705 0.8675 0.0
H3591 H 0.78997 0.3225 0.86316 0.0
H3592 H 0.79069 0.26363 0.82127 0.0
H3593 H 0.79022 0.28416 0.85113 0.0
H3594 H 0.73689 0.3128 0.83076 0.0
H3595 H 0.73779 0.29271 0.80054 0.0
C3596 C 0.74179 0.31289 0.89298 0.0
C3597 C 0.75728 0.32371 0.90164 0.0
C3598 C 0.74359 0.30571 0.8737 0.0
C3599 C 0.76098 0.30901 0.86282 0.0
C3600 C 0.77644 0.31982 0.87134 0.0
C3601 C 0.77454 0.32727 0.8905 0.0
C3602 C 0.7794 0.27494 0.82285 0.0
C3603 C 0.76442 0.27688 0.80866 0.0
C3604 C 0.77907 0.28657 0.83989 0.0
C3605 C 0.76342 0.29985 0.84319 0.0
C3606 C 0.74906 0.3026 0.82846 0.0
C3607 C 0.7497 0.29133 0.81115 0.0
H3608 H 0.92964 0.47911 0.14523 0.0
H3609 H 0.96325 0.52923 0.16661 0.0
H3610 H 0.94652 0.48144 0.1135 0.0
H3611 H 0.9795 0.53195 0.13441 0.0
H3612 H 0.96835 0.54545 0.06542 0.0
H3613 H 0.96169 0.54095 0.10067 0.0
H3614 H 0.98215 0.48042 0.09697 0.0
H3615 H 0.98919 0.48501 0.06172 0.0
C3616 C 0.94094 0.49033 0.14336 0.0
C3617 C 0.94494 0.50413 0.1584 0.0
C3618 C 0.95058 0.49164 0.12518 0.0
C3619 C 0.9642 0.5069 0.12163 0.0
C3620 C 0.96893 0.52014 0.13686 0.0
C3621 C 0.9595 0.51866 0.15517 0.0
C3622 C 0.97177 0.53132 0.07224 0.0
C3623 C 0.97915 0.51554 0.06093 0.0
C3624 C 0.96812 0.5288 0.09238 0.0
C3625 C 0.97144 0.51035 0.10138 0.0
C3626 C 0.97953 0.49477 0.09026 0.0
C3627 C 0.98358 0.49742 0.07019 0.0
H3628 H 0.73512 0.6691 0.39046 0.0
H3629 H 0.78755 0.70082 0.4084 0.0
H3630 H 0.73709 0.6844 0.35787 0.0
H3631 H 0.78975 0.7159 0.37552 0.0
H3632 H 0.75818 0.75988 0.32955 0.0
H3633 H 0.76883 0.74086 0.35828 0.0
H3634 H 0.75695 0.68649 0.32677 0.0
H3635 H 0.74639 0.70576 0.29794 0.0
C3636 C 0.74712 0.67928 0.38741 0.0
C3637 C 0.76105 0.68389 0.40208 0.0
C3638 C 0.74846 0.68779 0.36861 0.0
C3639 C 0.76372 0.7012 0.36403 0.0
C3640 C 0.77787 0.70557 0.37859 0.0
C3641 C 0.77661 0.69692 0.39738 0.0
C3642 C 0.75895 0.74387 0.32842 0.0
C3643 C 0.75163 0.73423 0.31161 0.0
C3644 C 0.76492 0.73294 0.34492 0.0
C3645 C 0.76329 0.71217 0.34495 0.0
C3646 C 0.75806 0.7025 0.32727 0.0
C3647 C 0.75233 0.71349 0.31066 0.0
H3648 H 0.54582 0.50423 0.84283 0.0
H3649 H 0.59844 0.47727 0.867 0.0
H3650 H 0.53004 0.50255 0.87522 0.0
H3651 H 0.58247 0.47521 0.89942 0.0
H3652 H 0.55687 0.51239 0.95398 0.0
H3653 H 0.5731 0.50067 0.92394 0.0
H3654 H 0.51675 0.48081 0.90145 0.0
H3655 H 0.50062 0.49274 0.93163 0.0
C3656 C 0.55395 0.49777 0.85503 0.0
C3657 C 0.57345 0.49106 0.85235 0.0
C3658 C 0.5448 0.49652 0.87356 0.0
C3659 C 0.55496 0.48864 0.88993 0.0
C3660 C 0.57425 0.48138 0.88713 0.0
C3661 C 0.58336 0.48249 0.86853 0.0
C3662 C 0.54818 0.50447 0.9431 0.0
C3663 C 0.52759 0.5032 0.94515 0.0
C3664 C 0.55743 0.49789 0.92578 0.0
C3665 C 0.54615 0.4902 0.9101 0.0
C3666 C 0.5258 0.487 0.91312 0.0
C3667 C 0.51659 0.4935 0.93051 0.0
H3668 H 0.72346 0.32575 0.10443 0.0
H3669 H 0.77755 0.29543 0.08871 0.0
H3670 H 0.72151 0.30671 0.13478 0.0
H3671 H 0.7756 0.27618 0.11941 0.0
H3672 H 0.77417 0.27001 0.18971 0.0
H3673 H 0.77804 0.28126 0.15554 0.0
H3674 H 0.71537 0.27321 0.14608 0.0
H3675 H 0.7115 0.26264 0.18033 0.0
C3676 C 0.73479 0.31477 0.10732 0.0
C3677 C 0.75053 0.31194 0.09405 0.0
C3678 C 0.73365 0.30378 0.12472 0.0
C3679 C 0.74821 0.28963 0.12933 0.0
C3680 C 0.76415 0.28694 0.11623 0.0
C3681 C 0.76529 0.29799 0.09871 0.0
C3682 C 0.7614 0.26992 0.18006 0.0
C3683 C 0.74251 0.26563 0.1876 0.0
C3684 C 0.76359 0.27645 0.16052 0.0
C3685 C 0.74691 0.2786 0.14829 0.0
C3686 C 0.7284 0.27224 0.15533 0.0
C3687 C 0.72619 0.26599 0.17485 0.0
H3688 H 0.91984 0.46978 0.35303 0.0
H3689 H 0.94044 0.53046 0.35433 0.0
H3690 H 0.93159 0.465 0.3868 0.0
H3691 H 0.95138 0.52576 0.38843 0.0
H3692 H 0.95569 0.51451 0.45417 0.0
H3693 H 0.9355 0.51568 0.42411 0.0
H3694 H 0.96945 0.46736 0.39953 0.0
H3695 H 0.99008 0.46671 0.42923 0.0
C3696 C 0.92684 0.4821 0.3605 0.0
C3697 C 0.92947 0.50045 0.35091 0.0
C3698 C 0.93331 0.47939 0.37987 0.0
C3699 C 0.94215 0.49506 0.39011 0.0
C3700 C 0.94423 0.51358 0.38085 0.0
C3701 C 0.93803 0.51623 0.36136 0.0
C3702 C 0.95828 0.50367 0.44262 0.0
C3703 C 0.97429 0.49048 0.44383 0.0
C3704 C 0.94689 0.50446 0.42545 0.0
C3705 C 0.95112 0.4917 0.40961 0.0
C3706 C 0.96593 0.47726 0.41164 0.0
C3707 C 0.97766 0.47685 0.42856 0.0
H3708 H 0.77296 0.70382 0.58993 0.0
H3709 H 0.74286 0.65383 0.6162 0.0
H3710 H 0.77377 0.72023 0.62194 0.0
H3711 H 0.74349 0.67059 0.64853 0.0
H3712 H 0.76806 0.70757 0.70549 0.0
H3713 H 0.76966 0.68627 0.6758 0.0
H3714 H 0.7434 0.73311 0.64117 0.0
H3715 H 0.74192 0.75406 0.66992 0.0
C3716 C 0.76675 0.69622 0.60262 0.0
C3717 C 0.7578 0.67758 0.60055 0.0
C3718 C 0.76718 0.70563 0.62093 0.0
C3719 C 0.75871 0.69664 0.63768 0.0
C3720 C 0.75026 0.67772 0.63586 0.0
C3721 C 0.74969 0.6683 0.61737 0.0
C3722 C 0.76274 0.71326 0.69148 0.0
C3723 C 0.75538 0.73274 0.69006 0.0
C3724 C 0.76354 0.70107 0.67459 0.0
C3725 C 0.75695 0.70826 0.65618 0.0
C3726 C 0.74902 0.72738 0.65505 0.0
C3727 C 0.74828 0.73941 0.67164 0.0
H3728 H 0.65376 0.56197 0.5264 0.0
H3729 H 0.64714 0.58674 0.46775 0.0
H3730 H 0.61987 0.54964 0.52498 0.0
H3731 H 0.61356 0.57359 0.46616 0.0
H3732 H 0.57112 0.51583 0.46718 0.0
H3733 H 0.60109 0.53618 0.46663 0.0
H3734 H 0.58307 0.56401 0.52125 0.0
H3735 H 0.55268 0.5441 0.52136 0.0
C3736 C 0.64507 0.56499 0.51331 0.0
C3737 C 0.6533 0.57526 0.49715 0.0
C3738 C 0.62566 0.55794 0.51252 0.0
C3739 C 0.61414 0.56079 0.49549 0.0
C3740 C 0.6222 0.57118 0.47942 0.0
C3741 C 0.6415 0.57849 0.4803 0.0
C3742 C 0.57325 0.52687 0.4786 0.0
C3743 C 0.55964 0.52865 0.49417 0.0
C3744 C 0.59037 0.53843 0.47835 0.0
C3745 C 0.5944 0.55149 0.494 0.0
C3746 C 0.58027 0.55399 0.50907 0.0
C3747 C 0.56286 0.54279 0.50902 0.0
H3748 H 0.1713 0.96888 0.51311 0.0
H3749 H 0.14833 0.92069 0.47788 0.0
H3750 H 0.13786 0.98294 0.51558 0.0
H3751 H 0.11527 0.93484 0.48029 0.0
H3752 H 0.06362 0.94496 0.52514 0.0
H3753 H 0.09804 0.93774 0.51815 0.0
H3754 H 0.1046 0.99445 0.48941 0.0
H3755 H 0.06956 0.00186 0.49606 0.0
C3756 C 0.15923 0.96155 0.50557 0.0
C3757 C 0.16239 0.94359 0.49546 0.0
C3758 C 0.14022 0.96969 0.50684 0.0
C3759 C 0.12418 0.95985 0.49816 0.0
C3760 C 0.12752 0.94264 0.48704 0.0
C3761 C 0.14645 0.93462 0.48562 0.0
C3762 C 0.07229 0.95609 0.51749 0.0
C3763 C 0.06376 0.97399 0.5111 0.0
C3764 C 0.09199 0.95185 0.51342 0.0
C3765 C 0.10373 0.96547 0.50311 0.0
C3766 C 0.09566 0.98375 0.49734 0.0
C3767 C 0.07569 0.98792 0.50115 0.0
H3768 H 0.35089 0.89052 0.74568 0.0
H3769 H 0.29388 0.91727 0.75617 0.0
H3770 H 0.33642 0.85757 0.75002 0.0
H3771 H 0.27906 0.88461 0.75942 0.0
H3772 H 0.2572 0.82734 0.77934 0.0
H3773 H 0.27685 0.85757 0.78064 0.0
H3774 H 0.31547 0.83413 0.73514 0.0
H3775 H 0.2965 0.80335 0.7351 0.0
C3776 C 0.33519 0.88923 0.74862 0.0
C3777 C 0.3234 0.90622 0.75062 0.0
C3778 C 0.32689 0.87043 0.75111 0.0
C3779 C 0.30661 0.86839 0.75535 0.0
C3780 C 0.29484 0.88556 0.75682 0.0
C3781 C 0.3032 0.90427 0.7547 0.0
C3782 C 0.27027 0.82855 0.77011 0.0
C3783 C 0.27543 0.81328 0.75709 0.0
C3784 C 0.28137 0.8459 0.77061 0.0
C3785 C 0.29738 0.84856 0.75754 0.0
C3786 C 0.30329 0.83262 0.74545 0.0
C3787 C 0.29246 0.815 0.74537 0.0
H3788 H 0.35061 0.06234 0.9625 0.0
H3789 H 0.35987 0.07897 0.02347 0.0
H3790 H 0.38416 0.04867 0.9611 0.0
H3791 H 0.39299 0.065 0.02221 0.0
H3792 H 0.45428 0.04908 0.01681 0.0
H3793 H 0.42607 0.06958 0.00714 0.0
H3794 H 0.40058 0.01948 0.97671 0.0
H3795 H 0.42894 -0.00076 0.98624 0.0
C3796 C 0.35985 0.0632 0.97554 0.0
C3797 C 0.35255 0.07162 0.99314 0.0
C3798 C 0.37901 0.05536 0.97473 0.0
C3799 C 0.39132 0.056 0.99145 0.0
C3800 C 0.38407 0.06467 0.00893 0.0
C3801 C 0.36494 0.07236 0.00977 0.0
C3802 C 0.4432 0.04287 0.00705 0.0
C3803 C 0.44375 0.02274 0.00206 0.0
C3804 C 0.4269 0.05446 0.0018 0.0
C3805 C 0.41088 0.04598 0.99161 0.0
C3806 C 0.41267 0.02646 0.98455 0.0
C3807 C 0.42897 0.01489 0.98985 0.0
H3808 H 0.71542 0.59069 0.75651 0.0
H3809 H 0.66179 0.61327 0.7302 0.0
H3810 H 0.73007 0.62363 0.75467 0.0
H3811 H 0.67663 0.64628 0.72803 0.0
H3812 H 0.70222 0.70278 0.76267 0.0
H3813 H 0.68614 0.67194 0.75265 0.0
H3814 H 0.74227 0.64946 0.73186 0.0
H3815 H 0.7582 0.68027 0.74209 0.0
C3816 C 0.7068 0.60266 0.75019 0.0
C3817 C 0.68739 0.59933 0.74361 0.0
C3818 C 0.71529 0.62153 0.74888 0.0
C3819 C 0.70457 0.63762 0.74106 0.0
C3820 C 0.68528 0.63423 0.73413 0.0
C3821 C 0.67683 0.61528 0.73528 0.0
C3822 C 0.71084 0.69169 0.75489 0.0
C3823 C 0.73137 0.69396 0.75289 0.0
C3824 C 0.7017 0.6739 0.74934 0.0
C3825 C 0.71302 0.65803 0.74189 0.0
C3826 C 0.7332 0.66124 0.7379 0.0
C3827 C 0.74227 0.67903 0.7434 0.0
H3828 H 0.86166 0.40913 0.97245 0.0
H3829 H 0.84973 0.44942 0.02079 0.0
H3830 H 0.89519 0.42232 0.96973 0.0
H3831 H 0.88358 0.46186 0.01851 0.0
H3832 H 0.95093 0.46521 0.01992 0.0
H3833 H 0.92072 0.44526 0.0218 0.0
H3834 H 0.90698 0.46072 0.9614 0.0
H3835 H 0.93678 0.48142 0.95985 0.0
C3836 C 0.86615 0.4208 0.98246 0.0
C3837 C 0.85296 0.42836 0.99674 0.0
C3838 C 0.88537 0.42815 0.981 0.0
C3839 C 0.89185 0.44289 0.99401 0.0
C3840 C 0.8789 0.45021 0.00853 0.0
C3841 C 0.85958 0.44309 0.00982 0.0
C3842 C 0.94181 0.46369 0.00684 0.0
C3843 C 0.94609 0.47454 0.98965 0.0
C3844 C 0.92451 0.45249 0.00799 0.0
C3845 C 0.91164 0.45165 0.99177 0.0
C3846 C 0.91681 0.46115 0.97402 0.0
C3847 C 0.93382 0.47284 0.97308 0.0
H3848 H 0.28895 0.08372 0.73088 0.0
H3849 H 0.32522 0.10923 0.77686 0.0
H3850 H 0.26941 0.11417 0.72958 0.0
H3851 H 0.30555 0.13937 0.77575 0.0
H3852 H 0.26487 0.19025 0.7754 0.0
H3853 H 0.27238 0.15515 0.78056 0.0
H3854 H 0.27953 0.14761 0.71749 0.0
H3855 H 0.27181 0.1825 0.71243 0.0
C3856 C 0.29263 0.09573 0.74083 0.0
C3857 C 0.30879 0.09416 0.7538 0.0
C3858 C 0.28136 0.11307 0.74018 0.0
C3859 C 0.28596 0.1291 0.75256 0.0
C3860 C 0.30143 0.12712 0.76627 0.0
C3861 C 0.31275 0.10985 0.76685 0.0
C3862 C 0.26723 0.18086 0.76265 0.0
C3863 C 0.26782 0.18899 0.74356 0.0
C3864 C 0.27173 0.16086 0.7656 0.0
C3865 C 0.27672 0.14873 0.74944 0.0
C3866 C 0.27561 0.15654 0.73021 0.0
C3867 C 0.27132 0.17654 0.72731 0.0
H3868 H 0.17348 0.8904 0.23316 0.0
H3869 H 0.20464 0.90529 0.28682 0.0
H3870 H 0.18655 0.85691 0.23475 0.0
H3871 H 0.2175 0.87133 0.28867 0.0
H3872 H 0.25753 0.82032 0.25856 0.0
H3873 H 0.24138 0.85095 0.26912 0.0
H3874 H 0.18463 0.82602 0.25381 0.0
H3875 H 0.20099 0.79566 0.24285 0.0
C3876 C 0.18313 0.88651 0.24533 0.0
C3877 C 0.18814 0.9006 0.25975 0.0
C3878 C 0.19036 0.86717 0.24645 0.0
C3879 C 0.20284 0.86131 0.26202 0.0
C3880 C 0.20784 0.87534 0.27655 0.0
C3881 C 0.20045 0.89476 0.2755 0.0
C3882 C 0.24151 0.82103 0.25855 0.0
C3883 C 0.23044 0.80563 0.25013 0.0
C3884 C 0.23224 0.83864 0.26444 0.0
C3885 C 0.21176 0.84111 0.26179 0.0
C3886 C 0.20049 0.82471 0.25564 0.0
C3887 C 0.20978 0.80716 0.24974 0.0
H3888 H 0.52448 0.36485 0.41751 0.0
H3889 H 0.46834 0.34994 0.44423 0.0
H3890 H 0.52297 0.3975 0.43245 0.0
H3891 H 0.46639 0.38314 0.45858 0.0
H3892 H 0.49157 0.43033 0.50409 0.0
H3893 H 0.48279 0.40123 0.48463 0.0
H3894 H 0.50696 0.42923 0.43239 0.0
H3895 H 0.51623 0.45801 0.45222 0.0
C3896 C 0.51175 0.36855 0.42653 0.0
C3897 C 0.49665 0.35461 0.42981 0.0
C3898 C 0.51068 0.38749 0.43481 0.0
C3899 C 0.49444 0.39312 0.44659 0.0
C3900 C 0.47913 0.37932 0.44962 0.0
C3901 C 0.4802 0.36031 0.44129 0.0
C3902 C 0.49401 0.43063 0.48824 0.0
C3903 C 0.5043 0.44645 0.47955 0.0
C3904 C 0.48913 0.41388 0.47707 0.0
C3905 C 0.49462 0.41264 0.45701 0.0
C3906 C 0.50293 0.42948 0.44791 0.0
C3907 C 0.50788 0.44617 0.45914 0.0
H3908 H 0.40118 0.72195 0.17881 0.0
H3909 H 0.4176 0.7733 0.21332 0.0
H3910 H 0.36836 0.72264 0.19351 0.0
H3911 H 0.38429 0.77418 0.22765 0.0
H3912 H 0.32139 0.75813 0.25545 0.0
H3913 H 0.35676 0.75253 0.24829 0.0
H3914 H 0.34385 0.75174 0.18577 0.0
H3915 H 0.30912 0.75767 0.19275 0.0
C3916 C 0.398 0.73307 0.18992 0.0
C3917 C 0.41195 0.74773 0.19472 0.0
C3918 C 0.37916 0.73349 0.19824 0.0
C3919 C 0.37386 0.74855 0.21153 0.0
C3920 C 0.38813 0.76238 0.21748 0.0
C3921 C 0.40705 0.762 0.20909 0.0
C3922 C 0.32625 0.75677 0.24023 0.0
C3923 C 0.31267 0.75855 0.22462 0.0
C3924 C 0.34635 0.75359 0.23617 0.0
C3925 C 0.35284 0.75155 0.21651 0.0
C3926 C 0.33915 0.75305 0.20105 0.0
C3927 C 0.31933 0.75666 0.20505 0.0
H3928 H 0.99125 0.66206 0.95831 0.0
H3929 H 0.03248 0.64245 0.91352 0.0
H3930 H 0.99259 0.62944 0.97376 0.0
H3931 H 0.03394 0.60971 0.92919 0.0
H3932 H -0.0024 0.55047 0.94851 0.0
H3933 H 0.00843 0.58173 0.93355 0.0
H3934 H 0.01634 0.60671 0.99176 0.0
H3935 H 0.0056 0.57547 0.00654 0.0
C3936 C 0.00069 0.65082 0.95182 0.0
C3937 C 0.0117 0.65486 0.93464 0.0
C3938 C 0.00166 0.63218 0.96082 0.0
C3939 C 0.01354 0.61704 0.95279 0.0
C3940 C 0.02472 0.6211 0.93573 0.0
C3941 C 0.02393 0.63986 0.92684 0.0
C3942 C 0.0028 0.56227 0.95803 0.0
C3943 C 0.00103 0.56057 0.97863 0.0
C3944 C 0.00881 0.58025 0.9495 0.0
C3945 C 0.0128 0.5968 0.96151 0.0
C3946 C 0.01308 0.5943 0.98214 0.0
C3947 C 0.00726 0.57633 0.99061 0.0
H3948 H 0.09038 0.23438 0.70755 0.0
H3949 H 0.11592 0.25817 0.65407 0.0
H3950 H 0.12321 0.23051 0.72166 0.0
H3951 H 0.14908 0.25328 0.66757 0.0
H3952 H 0.20048 0.26703 0.71109 0.0
H3953 H 0.17053 0.2664 0.6912 0.0
H3954 H 0.15243 0.21231 0.7206 0.0
H3955 H 0.18181 0.21398 0.7414 0.0
C3956 C 0.10316 0.23858 0.6988 0.0
C3957 C 0.10083 0.24669 0.6799 0.0
C3958 C 0.12199 0.23612 0.7067 0.0
C3959 C 0.13888 0.24132 0.69564 0.0
C3960 C 0.13643 0.2493 0.67657 0.0
C3961 C 0.11752 0.25212 0.66884 0.0
C3962 C 0.19033 0.25472 0.71277 0.0
C3963 C 0.19317 0.24061 0.7277 0.0
C3964 C 0.17314 0.25432 0.70141 0.0
C3965 C 0.15878 0.23956 0.70464 0.0
C3966 C 0.16283 0.22428 0.71823 0.0
C3967 C 0.17973 0.22501 0.72994 0.0
H3968 H 0.53189 0.64416 0.09475 0.0
H3969 H 0.48582 0.65679 0.05225 0.0
H3970 H 0.53492 0.61057 0.08151 0.0
H3971 H 0.48839 0.62295 0.03974 0.0
H3972 H 0.48478 0.55548 0.0377 0.0
H3973 H 0.48322 0.58614 0.05703 0.0
H3974 H 0.54448 0.59784 0.04335 0.0
H3975 H 0.54578 0.56755 0.02326 0.0
C3976 C 0.52247 0.63984 0.08257 0.0
C3977 C 0.50863 0.65319 0.07451 0.0
C3978 C 0.52412 0.62059 0.07517 0.0
C3979 C 0.51173 0.61427 0.05985 0.0
C3980 C 0.49784 0.62748 0.05184 0.0
C3981 C 0.49638 0.6468 0.05902 0.0
C3982 C 0.49809 0.56425 0.03948 0.0
C3983 C 0.51547 0.55924 0.02929 0.0
C3984 C 0.49713 0.5818 0.05032 0.0
C3985 C 0.5137 0.59424 0.05148 0.0
C3986 C 0.53158 0.58837 0.04266 0.0
C3987 C 0.53236 0.57109 0.03131 0.0
H3988 H 0.10501 0.78134 0.81209 0.0
H3989 H 0.11211 0.72103 0.83277 0.0
H3990 H 0.13867 0.78076 0.79929 0.0
H3991 H 0.14552 0.72031 0.8188 0.0
H3992 H 0.18829 0.73344 0.75857 0.0
H3993 H 0.15924 0.72651 0.77926 0.0
H3994 H 0.17502 0.77513 0.81746 0.0
H3995 H 0.20425 0.78157 0.79717 0.0
C3996 C 0.1137 0.76801 0.81409 0.0
C3997 C 0.10572 0.75129 0.82366 0.0
C3998 C 0.13298 0.76768 0.80666 0.0
C3999 C 0.14468 0.75055 0.8083 0.0
C4000 C 0.13675 0.73368 0.81743 0.0
C4001 C 0.11754 0.73411 0.82524 0.0
C4002 C 0.18629 0.74166 0.77218 0.0
C4003 C 0.19867 0.75773 0.77658 0.0
C4004 C 0.16952 0.73792 0.78384 0.0
C4005 C 0.16484 0.7505 0.79973 0.0
C4006 C 0.17832 0.76528 0.80523 0.0
C4007 C 0.19517 0.76879 0.7938 0.0
H4008 H 0.97917 0.35563 0.58157 0.0
H4009 H 0.02062 0.33418 0.53781 0.0
H4010 H 0.98004 0.38836 0.56644 0.0
H4011 H 0.02146 0.36733 0.52255 0.0
H4012 H 0.98901 0.42974 0.49722 0.0
H4013 H 0.99288 0.39448 0.50631 0.0
H4014 H 0.01252 0.4119 0.56447 0.0
H4015 H 0.00855 0.44667 0.55552 0.0
C4016 C 0.98816 0.35784 0.56847 0.0
C4017 C -0.0002 0.34242 0.56082 0.0
C4018 C 0.98877 0.37656 0.55992 0.0
C4019 C 0.00092 0.38024 0.54348 0.0
C4020 C 0.01199 0.36472 0.53523 0.0
C4021 C 0.01157 0.3459 0.54398 0.0
C4022 C 0.99473 0.42587 0.51167 0.0
C4023 C -0.0017 0.44063 0.52582 0.0
C4024 C 0.99692 0.40585 0.51685 0.0
C4025 C 0.00268 0.4007 0.53615 0.0
C4026 C 0.00782 0.41561 0.5496 0.0
C4027 C 0.00558 0.4354 0.54449 0.0
H4028 H 0.39539 0.23647 0.34164 0.0
H4029 H 0.41834 0.26043 0.28698 0.0
H4030 H 0.36235 0.23578 0.3276 0.0
H4031 H 0.38485 0.26 0.27287 0.0
H4032 H 0.32221 0.23222 0.25278 0.0
H4033 H 0.35711 0.23537 0.26292 0.0
H4034 H 0.3383 0.26171 0.31806 0.0
H4035 H 0.3039 0.25809 0.30819 0.0
C4036 C 0.3934 0.24143 0.32653 0.0
C4037 C 0.40949 0.24843 0.31541 0.0
C4038 C 0.37441 0.24124 0.31854 0.0
C4039 C 0.37096 0.24801 0.29918 0.0
C4040 C 0.38708 0.25466 0.28781 0.0
C4041 C 0.40618 0.25503 0.29592 0.0
C4042 C 0.32571 0.23896 0.26688 0.0
C4043 C 0.31053 0.24468 0.27987 0.0
C4044 C 0.3456 0.24078 0.27268 0.0
C4045 C 0.35039 0.24843 0.29146 0.0
C4046 C 0.33508 0.2553 0.30374 0.0
C4047 C 0.31541 0.25331 0.29807 0.0
H4048 H 0.4631 0.52514 0.33576 0.0
H4049 H 0.42813 0.47611 0.35748 0.0
H4050 H 0.4797 0.52728 0.36772 0.0
H4051 H 0.44502 0.47805 0.38919 0.0
H4052 H 0.48556 0.47989 0.44225 0.0
H4053 H 0.47756 0.47489 0.40721 0.0
H4054 H 0.46719 0.53775 0.40078 0.0
H4055 H 0.47511 0.54263 0.43556 0.0
C4056 C 0.459 0.51475 0.34727 0.0
C4057 C 0.44407 0.5006 0.34404 0.0
C4058 C 0.46862 0.51591 0.36554 0.0
C4059 C 0.46365 0.50286 0.381 0.0
C4060 C 0.4494 0.48813 0.3775 0.0
C4061 C 0.43969 0.48705 0.35928 0.0
C4062 C 0.48217 0.49265 0.43314 0.0
C4063 C 0.48096 0.51164 0.44157 0.0
C4064 C 0.47738 0.48978 0.41317 0.0
C4065 C 0.47163 0.50591 0.40126 0.0
C4066 C 0.47172 0.52504 0.40947 0.0
C4067 C 0.47618 0.52784 0.42942 0.0
H4068 H 0.26936 0.70167 0.09439 0.0
H4069 H 0.22587 0.65662 0.10783 0.0
H4070 H 0.26722 0.71364 0.1284 0.0
H4071 H 0.22323 0.66928 0.14162 0.0
H4072 H 0.2108 0.72532 0.18669 0.0
H4073 H 0.21212 0.7061 0.15586 0.0
H4074 H 0.27466 0.69662 0.16438 0.0
H4075 H 0.27313 0.71505 0.19554 0.0
C4076 C 0.25945 0.69424 0.10459 0.0
C4077 C 0.24781 0.67817 0.09836 0.0
C4078 C 0.25823 0.70111 0.12401 0.0
C4079 C 0.24518 0.69222 0.13753 0.0
C4080 C 0.23336 0.67634 0.13137 0.0
C4081 C 0.23478 0.66926 0.11201 0.0
C4082 C 0.22457 0.71833 0.18234 0.0
C4083 C 0.24178 0.72126 0.19347 0.0
C4084 C 0.22537 0.7075 0.16473 0.0
C4085 C 0.24353 0.70012 0.15779 0.0
C4086 C 0.26052 0.7022 0.16949 0.0
C4087 C 0.25959 0.71251 0.18735 0.0
H4088 H 0.04401 0.52359 0.8397 0.0
H4089 H 0.07673 0.46971 0.85126 0.0
H4090 H 0.03136 0.52301 0.87376 0.0
H4091 H 0.06353 0.46876 0.88452 0.0
H4092 H 0.06435 0.48956 0.94715 0.0
H4093 H 0.07191 0.49143 0.91224 0.0
H4094 H 0.0104 0.50264 0.89922 0.0
H4095 H 0.00267 0.50109 0.93479 0.0
C4096 C 0.04825 0.51151 0.84936 0.0
C4097 C 0.06146 0.49676 0.8428 0.0
C4098 C 0.04086 0.51109 0.86873 0.0
C4099 C 0.0467 0.49598 0.88177 0.0
C4100 C 0.05902 0.48074 0.87484 0.0
C4101 C 0.06639 0.48117 0.85565 0.0
C4102 C 0.05233 0.49232 0.93694 0.0
C4103 C 0.03282 0.4947 0.94369 0.0
C4104 C 0.05669 0.49339 0.91691 0.0
C4105 C 0.04166 0.49669 0.90304 0.0
C4106 C 0.02222 0.49995 0.90968 0.0
C4107 C 0.01781 0.49899 0.92995 0.0
H4108 H 0.21409 0.32779 0.61237 0.0
H4109 H 0.27557 0.31123 0.60553 0.0
H4110 H 0.21452 0.31499 0.64632 0.0
H4111 H 0.27605 0.29955 0.63955 0.0
H4112 H 0.27922 0.30195 0.70397 0.0
H4113 H 0.26939 0.32022 0.67442 0.0
H4114 H 0.22439 0.27656 0.66256 0.0
H4115 H 0.23444 0.25812 0.69225 0.0
C4116 C 0.22764 0.32135 0.61798 0.0
C4117 C 0.24488 0.32074 0.60618 0.0
C4118 C 0.22786 0.31421 0.63745 0.0
C4119 C 0.24539 0.3067 0.64553 0.0
C4120 C 0.26245 0.30571 0.63371 0.0
C4121 C 0.26217 0.31249 0.61425 0.0
C4122 C 0.26647 0.29691 0.69569 0.0
C4123 C 0.25746 0.27879 0.70033 0.0
C4124 C 0.261 0.30722 0.6787 0.0
C4125 C 0.2464 0.29955 0.66615 0.0
C4126 C 0.23566 0.28274 0.6721 0.0
C4127 C 0.24125 0.27232 0.68915 0.0
H4128 H 0.4493 0.53295 0.15552 0.0
H4129 H 0.41738 0.48001 0.13924 0.0
H4130 H 0.4627 0.53522 0.12197 0.0
H4131 H 0.43126 0.48184 0.10612 0.0
H4132 H 0.44877 0.4904 0.04519 0.0
H4133 H 0.43112 0.49989 0.07532 0.0
H4134 H 0.48647 0.51742 0.10189 0.0
H4135 H 0.5038 0.50838 0.07157 0.0
C4136 C 0.44505 0.52186 0.14477 0.0
C4137 C 0.43232 0.50624 0.15013 0.0
C4138 C 0.4528 0.52312 0.12556 0.0
C4139 C 0.44793 0.50885 0.11121 0.0
C4140 C 0.43503 0.49337 0.11658 0.0
C4141 C 0.42734 0.49209 0.13574 0.0
C4142 C 0.45692 0.49741 0.05707 0.0
C4143 C 0.47756 0.49891 0.05604 0.0
C4144 C 0.44691 0.50245 0.0745 0.0
C4145 C 0.45744 0.50886 0.09127 0.0
C4146 C 0.47784 0.51254 0.08933 0.0
C4147 C 0.4878 0.50756 0.07186 0.0
H4148 H 0.22742 0.68161 0.8945 0.0
H4149 H 0.27507 0.71617 0.91928 0.0
H4150 H 0.22889 0.70129 0.86436 0.0
H4151 H 0.27658 0.73587 0.88902 0.0
H4152 H 0.29407 0.73411 0.82169 0.0
H4153 H 0.28827 0.72631 0.85624 0.0
H4154 H 0.22539 0.73381 0.84757 0.0
H4155 H 0.23129 0.74153 0.8126 0.0
C4156 C 0.23788 0.69373 0.89371 0.0
C4157 C 0.25132 0.69715 0.90918 0.0
C4158 C 0.23866 0.70509 0.87646 0.0
C4159 C 0.25291 0.7201 0.87428 0.0
C4160 C 0.2656 0.72425 0.89018 0.0
C4161 C 0.26481 0.71289 0.90745 0.0
C4162 C 0.27904 0.73464 0.82728 0.0
C4163 C 0.26311 0.73814 0.81446 0.0
C4164 C 0.27571 0.73029 0.84714 0.0
C4165 C 0.25634 0.72921 0.85459 0.0
C4166 C 0.24046 0.73431 0.84214 0.0
C4167 C 0.24384 0.73889 0.82221 0.0
H4168 H 0.10162 0.52099 0.63736 0.0
H4169 H 0.04685 0.49808 0.66107 0.0
H4170 H 0.08551 0.52647 0.60527 0.0
H4171 H 0.03084 0.50358 0.62923 0.0
H4172 H 0.00184 0.53401 0.5798 0.0
H4173 H 0.02258 0.5353 0.60916 0.0
H4174 H 0.06853 0.50331 0.57827 0.0
H4175 H 0.04773 0.50206 0.54864 0.0
C4176 C 0.08615 0.51719 0.63565 0.0
C4177 C 0.07538 0.50916 0.65155 0.0
C4178 C 0.07703 0.52026 0.61738 0.0
C4179 C 0.05695 0.51569 0.61499 0.0
C4180 C 0.04628 0.50752 0.63087 0.0
C4181 C 0.05544 0.50419 0.64897 0.0
C4182 C 0.01659 0.52775 0.57909 0.0
C4183 C 0.02309 0.51762 0.56215 0.0
C4184 C 0.02839 0.52843 0.59588 0.0
C4185 C 0.04686 0.519 0.596 0.0
C4186 C 0.05427 0.51064 0.57846 0.0
C4187 C 0.04242 0.50998 0.56154 0.0
H4188 H 0.22986 0.29682 0.41511 0.0
H4189 H 0.25915 0.34902 0.39278 0.0
H4190 H 0.22687 0.28404 0.3816 0.0
H4191 H 0.25534 0.33682 0.35894 0.0
H4192 H 0.26565 0.29499 0.3048 0.0
H4193 H 0.26656 0.31299 0.33607 0.0
H4194 H 0.20978 0.28804 0.35195 0.0
H4195 H 0.20959 0.26935 0.32115 0.0
C4196 C 0.2355 0.30561 0.40292 0.0
C4197 C 0.24475 0.32385 0.40646 0.0
C4198 C 0.2336 0.29844 0.38365 0.0
C4199 C 0.24054 0.30953 0.36738 0.0
C4200 C 0.24994 0.32778 0.37103 0.0
C4201 C 0.25213 0.33479 0.39039 0.0
C4202 C 0.25302 0.29406 0.31465 0.0
C4203 C 0.23746 0.28096 0.31055 0.0
C4204 C 0.25358 0.30424 0.3327 0.0
C4205 C 0.23847 0.30162 0.34686 0.0
C4206 C 0.22201 0.28995 0.34175 0.0
C4207 C 0.22165 0.27954 0.32393 0.0
H4208 H 0.33801 0.45375 0.53036 0.0
H4209 H 0.35916 0.40696 0.49236 0.0
H4210 H 0.37126 0.46731 0.53231 0.0
H4211 H 0.39276 0.4198 0.49502 0.0
H4212 H 0.44403 0.46391 0.48403 0.0
H4213 H 0.41325 0.44518 0.48457 0.0
H4214 H 0.40285 0.4643 0.54482 0.0
H4215 H 0.433 0.48416 0.54344 0.0
C4216 C 0.3499 0.44623 0.52263 0.0
C4217 C 0.34601 0.4294 0.51113 0.0
C4218 C 0.36906 0.45386 0.52389 0.0
C4219 C 0.38493 0.44462 0.51396 0.0
C4220 C 0.38098 0.42755 0.50265 0.0
C4221 C 0.36172 0.42014 0.50112 0.0
C4222 C 0.43538 0.46355 0.49754 0.0
C4223 C 0.44081 0.47527 0.51375 0.0
C4224 C 0.41767 0.45285 0.4979 0.0
C4225 C 0.4052 0.45344 0.51463 0.0
C4226 C 0.41166 0.46395 0.53144 0.0
C4227 C 0.42911 0.47504 0.53086 0.0
H4228 H 0.84113 0.04105 0.51731 0.0
H4229 H 0.85972 0.0846 0.47431 0.0
H4230 H 0.87338 0.02457 0.51454 0.0
H4231 H 0.89179 0.0687 0.47189 0.0
H4232 H 0.94179 0.03081 0.45723 0.0
H4233 H 0.90696 0.03963 0.4593 0.0
H4234 H 0.9081 0.0296 0.52249 0.0
H4235 H 0.94291 0.01981 0.5201 0.0
C4236 C 0.85214 0.04706 0.50731 0.0
C4237 C 0.84792 0.0639 0.49581 0.0
C4238 C 0.87056 0.03768 0.50574 0.0
C4239 C 0.88505 0.04512 0.49275 0.0
C4240 C 0.88078 0.06216 0.48155 0.0
C4241 C 0.86243 0.07136 0.48299 0.0
C4242 C 0.93444 0.03011 0.47147 0.0
C4243 C 0.94496 0.02488 0.48854 0.0
C4244 C 0.91456 0.03528 0.47272 0.0
C4245 C 0.9049 0.03585 0.49114 0.0
C4246 C 0.91509 0.0293 0.50807 0.0
C4247 C 0.935 0.02372 0.50673 0.0
H4248 H 0.705 0.09092 0.2287 0.0
H4249 H 0.6584 0.1151 0.26508 0.0
H4250 H 0.71977 0.12364 0.22568 0.0
H4251 H 0.67234 0.14821 0.26119 0.0
H4252 H 0.71885 0.19673 0.27264 0.0
H4253 H 0.69877 0.16685 0.27223 0.0
H4254 H 0.71789 0.15516 0.21215 0.0
H4255 H 0.73924 0.18436 0.21347 0.0
C4256 C 0.69784 0.10339 0.23583 0.0
C4257 C 0.68079 0.10064 0.24728 0.0
C4258 C 0.7061 0.1222 0.23392 0.0
C4259 C 0.6972 0.13868 0.2431 0.0
C4260 C 0.67979 0.13585 0.2542 0.0
C4261 C 0.67178 0.11695 0.25643 0.0
C4262 C 0.71835 0.18788 0.25927 0.0
C4263 C 0.73048 0.1925 0.24313 0.0
C4264 C 0.7068 0.17082 0.25894 0.0
C4265 C 0.70691 0.15836 0.24224 0.0
C4266 C 0.71792 0.16406 0.22547 0.0
C4267 C 0.72993 0.18084 0.22606 0.0
H4268 H 0.65797 0.96174 0.0001 0.0
H4269 H 0.63489 0.90897 0.02795 0.0
H4270 H 0.62522 0.97692 0.00163 0.0
H4271 H 0.6019 0.92418 0.02933 0.0
H4272 H 0.54805 0.95391 0.99019 0.0
H4273 H 0.57741 0.93555 0.00086 0.0
H4274 H 0.60007 0.98851 0.02846 0.0
H4275 H 0.57063 0.00669 0.01794 0.0
C4276 C 0.64588 0.95345 0.00663 0.0
C4277 C 0.64894 0.93422 0.01393 0.0
C4278 C 0.62721 0.96219 0.00771 0.0
C4279 C 0.61111 0.9518 0.01587 0.0
C4280 C 0.61411 0.93254 0.02314 0.0
C4281 C 0.63293 0.9239 0.02238 0.0
C4282 C 0.55873 0.96122 -0.00036 0.0
C4283 C 0.55704 0.98155 0.00357 0.0
C4284 C 0.57562 0.95079 0.00556 0.0
C4285 C 0.59112 0.96076 0.01515 0.0
C4286 C 0.58839 0.98056 0.02092 0.0
C4287 C 0.57145 0.99088 0.01516 0.0
H4288 H 0.33585 0.39073 0.27875 0.0
H4289 H 0.2913 0.4163 0.24078 0.0
H4290 H 0.31931 0.35843 0.27649 0.0
H4291 H 0.27503 0.38416 0.23849 0.0
H4292 H 0.28186 0.32371 0.20871 0.0
H4293 H 0.29446 0.35483 0.22041 0.0
H4294 H 0.28235 0.33755 0.28067 0.0
H4295 H 0.26884 0.30554 0.26871 0.0
C4296 C 0.32226 0.38961 0.27038 0.0
C4297 C 0.31512 0.40601 0.25958 0.0
C4298 C 0.31277 0.37113 0.2692 0.0
C4299 C 0.29598 0.3688 0.25724 0.0
C4300 C 0.28802 0.38554 0.24774 0.0
C4301 C 0.29746 0.4039 0.24889 0.0
C4302 C 0.28173 0.32627 0.22453 0.0
C4303 C 0.27397 0.31212 0.23776 0.0
C4304 C 0.28897 0.34427 0.23119 0.0
C4305 C 0.28898 0.3488 0.25136 0.0
C4306 C 0.28229 0.33441 0.26497 0.0
C4307 C 0.27467 0.31613 0.25817 0.0
H4308 H 0.16357 0.54801 0.01931 0.0
H4309 H 0.14135 0.59892 0.98773 0.0
H4310 H 0.12992 0.53664 0.02504 0.0
H4311 H 0.10743 0.58827 0.99431 0.0
H4312 H 0.05268 0.54671 0.98865 0.0
H4313 H 0.08374 0.56463 0.98578 0.0
H4314 H 0.10132 0.54272 0.04332 0.0
H4315 H 0.07079 0.52364 0.04532 0.0
C4316 C 0.15136 0.55678 0.01369 0.0
C4317 C 0.15489 0.57422 0.00302 0.0
C4318 C 0.13206 0.55049 0.01721 0.0
C4319 C 0.11585 0.56175 0.01049 0.0
C4320 C 0.1195 0.57916 -0.00039 0.0
C4321 C 0.13888 0.58526 0.99579 0.0
C4322 C 0.06291 0.54636 0.00097 0.0
C4323 C 0.05957 0.53374 0.01712 0.0
C4324 C 0.08079 0.55657 -0.00068 0.0
C4325 C 0.09536 0.55462 0.01404 0.0
C4326 C 0.09078 0.54392 0.03134 0.0
C4327 C 0.07317 0.53329 0.03271 0.0
H4328 H 0.71701 0.91937 0.23605 0.0
H4329 H 0.67176 0.89736 0.2756 0.0
H4330 H 0.73163 0.88599 0.23443 0.0
H4331 H 0.68634 0.86445 0.27407 0.0
H4332 H 0.69695 0.80657 0.24599 0.0
H4333 H 0.6882 0.84143 0.24262 0.0
H4334 H 0.74717 0.85815 0.26046 0.0
H4335 H 0.75608 0.82281 0.26356 0.0
C4336 C 0.71039 0.90747 0.24454 0.0
C4337 C 0.69329 0.91085 0.25595 0.0
C4338 C 0.71877 0.88852 0.24366 0.0
C4339 C 0.7099 0.8728 0.25393 0.0
C4340 C 0.69328 0.87639 0.26586 0.0
C4341 C 0.68507 0.89523 0.26689 0.0
C4342 C 0.70817 0.81771 0.24868 0.0
C4343 C 0.72704 0.81228 0.25525 0.0
C4344 C 0.70318 0.83756 0.24681 0.0
C4345 C 0.71693 0.8523 0.25169 0.0
C4346 C 0.73638 0.84693 0.25666 0.0
C4347 C 0.74146 0.82686 0.25842 0.0
H4348 H 0.79302 0.09021 0.74398 0.0
H4349 H 0.852 0.11426 0.74213 0.0
H4350 H 0.77925 0.12367 0.74283 0.0
H4351 H 0.83846 0.14779 0.73979 0.0
H4352 H 0.80644 0.20035 0.77111 0.0
H4353 H 0.82344 0.17032 0.76105 0.0
H4354 H 0.77279 0.15353 0.72588 0.0
H4355 H 0.7556 0.18354 0.73679 0.0
C4356 C 0.80299 0.10274 0.74297 0.0
C4357 C 0.82351 0.09981 0.74343 0.0
C4358 C 0.79515 0.12194 0.74205 0.0
C4359 C 0.8077 0.13862 0.7412 0.0
C4360 C 0.8283 0.13544 0.74079 0.0
C4361 C 0.8361 0.11626 0.7421 0.0
C4362 C 0.79939 0.19072 0.7604 0.0
C4363 C 0.77986 0.19432 0.75453 0.0
C4364 C 0.80907 0.17334 0.75469 0.0
C4365 C 0.79936 0.1591 0.74299 0.0
C4366 C 0.78056 0.16386 0.73532 0.0
C4367 C 0.77084 0.18128 0.74116 0.0
loop_
_geom_bond_atom_site_label_1
_geom_bond_atom_site_label_2
_geom_bond_distance
_geom_bond_site_symmetry_2
_ccdc_geom_bond_type
Li0 N17 1.990 . S
Li0 O60 1.956 . S
Li0 O61 1.970 . S
Li0 O62 1.961 1_455 S
Li1 N25 1.990 . S
Li1 O60 1.970 . S
Li1 O61 1.956 . S
Li1 O63 1.961 . S
Li2 N47 1.990 . S
Li2 O60 1.961 . S
Li2 O62 1.956 1_455 S
Li2 O63 1.970 . S
Li3 N53 1.990 . S
Li3 O61 1.961 1_655 S
Li3 O62 1.970 . S
Li3 O63 1.956 1_655 S
C4 C6 1.348 . S
C4 C7 1.356 . S
C4 O60 1.325 . S
N5 C8 1.314 . S
N5 C9 1.279 . S
C6 C4 1.348 . S
C6 C8 1.353 . S
C6 H64 0.929 . S
C7 C4 1.356 . S
C7 C9 1.358 . S
C7 H65 0.930 . S
C8 N5 1.314 . S
C8 C6 1.353 . S
C8 H66 0.930 . S
C9 N5 1.279 . S
C9 C7 1.358 . S
C9 H67 0.930 . S
C10 C13 1.348 . S
C10 C14 1.356 . S
C10 O61 1.325 . S
C11 N12 1.288 . S
C11 C14 1.358 . S
C11 H68 0.922 1_455 S
N12 C11 1.288 . S
N12 C15 1.314 . S
C13 C10 1.348 . S
C13 C15 1.353 . S
C13 H69 0.929 . S
C14 C10 1.356 . S
C14 C11 1.358 . S
C14 H70 0.930 1_455 S
C15 N12 1.314 . S
C15 C13 1.353 . S
C15 H71 0.930 . S
C16 N17 1.314 1_655 S
C16 C21 1.353 . S
C16 H22 0.930 . S
N17 Li0 1.990 . S
N17 C16 1.314 1_455 S
N17 C19 1.279 . S
C18 C19 1.358 . S
C18 C20 1.356 . S
C18 H72 0.930 . S
C19 N17 1.279 . S
C19 C18 1.358 . S
C19 H23 0.930 . S
C20 C18 1.356 . S
C20 C21 1.348 1_455 S
C21 C16 1.353 . S
C21 C20 1.348 1_655 S
C21 H73 0.929 . S
H22 C16 0.930 . S
H23 C19 0.930 . S
C24 N25 1.314 . S
C24 C26 1.353 . S
C24 H30 0.930 . S
N25 Li1 1.990 . S
N25 C24 1.314 . S
N25 C28 1.279 . S
C26 C24 1.353 . S
C26 C29 1.348 . S
C26 H74 0.929 . S
C27 C28 1.358 . S
C27 C29 1.356 . S
C27 H75 0.930 . S
C28 N25 1.279 . S
C28 C27 1.358 . S
C28 H31 0.930 . S
C29 C26 1.348 . S
C29 C27 1.356 . S
H30 C24 0.930 . S
H31 C28 0.930 . S
C32 C34 1.348 . S
C32 C35 1.356 . S
C32 O62 1.325 . S
N33 C36 1.314 . S
N33 C37 1.279 . S
C34 C32 1.348 . S
C34 C36 1.353 . S
C34 H76 0.929 . S
C35 C32 1.356 . S
C35 C37 1.358 . S
C35 H77 0.930 . S
C36 N33 1.314 . S
C36 C34 1.353 . S
C36 H78 0.930 . S
C37 N33 1.279 . S
C37 C35 1.358 . S
C37 H79 0.930 . S
C38 C39 1.348 1_455 S
C38 C40 1.356 . S
C38 O63 1.325 . S
C39 C38 1.348 1_655 S
C39 C41 1.353 . S
C39 H80 0.929 . S
C40 C38 1.356 . S
C40 C42 1.358 . S
C40 H81 0.930 . S
C41 C39 1.353 . S
C41 N43 1.314 1_655 S
C41 H82 0.930 . S
C42 C40 1.358 . S
C42 N43 1.279 . S
C42 H83 0.930 . S
N43 C41 1.314 1_455 S
N43 C42 1.279 . S
C44 C46 1.353 . S
C44 N47 1.314 . S
C44 H50 0.930 . S
C45 N47 1.279 1_655 S
C45 C48 1.358 . S
C45 H51 0.930 . S
C46 C44 1.353 . S
C46 C49 1.348 . S
C46 H84 0.929 . S
N47 Li2 1.990 . S
N47 C44 1.314 . S
N47 C45 1.279 1_455 S
C48 C45 1.358 . S
C48 C49 1.356 1_655 S
C48 H85 0.930 . S
C49 C46 1.348 . S
C49 C48 1.356 1_455 S
H50 C44 0.930 . S
H51 C45 0.930 . S
C52 N53 1.314 . S
C52 C54 1.353 . S
C52 H58 0.930 . S
N53 Li3 1.990 . S
N53 C52 1.314 . S
N53 C56 1.279 . S
C54 C52 1.353 . S
C54 C57 1.348 . S
C54 H86 0.929 . S
C55 C56 1.358 . S
C55 C57 1.356 . S
C55 H87 0.930 . S
C56 N53 1.279 . S
C56 C55 1.358 . S
C56 H59 0.930 . S
C57 C54 1.348 . S
C57 C55 1.356 . S
H58 C52 0.930 . S
H59 C56 0.930 . S
O60 Li0 1.956 . S
O60 Li1 1.970 . S
O60 Li2 1.961 . S
O60 C4 1.325 . S
O61 Li0 1.970 . S
O61 Li1 1.956 . S
O61 Li3 1.961 1_455 S
O61 C10 1.325 . S
O62 Li0 1.961 1_655 S
O62 Li2 1.956 1_655 S
O62 Li3 1.970 . S
O62 C32 1.325 . S
O63 Li1 1.961 . S
O63 Li2 1.970 . S
O63 Li3 1.956 1_455 S
O63 C38 1.325 . S
H64 C6 0.929 . S
H65 C7 0.930 . S
H66 C8 0.930 . S
H67 C9 0.930 . S
H68 C11 0.922 1_655 S
H69 C13 0.929 . S
H70 C14 0.930 1_655 S
H71 C15 0.930 . S
H72 C18 0.930 . S
H73 C21 0.929 . S
H74 C26 0.929 . S
H75 C27 0.930 . S
H76 C34 0.929 . S
H77 C35 0.930 . S
H78 C36 0.930 . S
H79 C37 0.930 . S
H80 C39 0.929 . S
H81 C40 0.930 . S
H82 C41 0.930 . S
H83 C42 0.930 . S
H84 C46 0.929 . S
H85 C48 0.930 . S
H86 C54 0.929 . S
H87 C55 0.930 . S
Li88 N105 1.990 . S
Li88 O148 1.956 1_655 S
Li88 O149 1.970 . S
Li88 O150 1.961 1_655 S
Li89 N113 1.990 . S
Li89 O148 1.970 . S
Li89 O149 1.956 1_455 S
Li89 O151 1.961 . S
Li90 N135 1.990 . S
Li90 O148 1.961 . S
Li90 O150 1.956 . S
Li90 O151 1.970 . S
Li91 N141 1.990 . S
Li91 O149 1.961 1_455 S
Li91 O150 1.970 . S
Li91 O151 1.956 . S
C92 C94 1.366 . S
C92 C95 1.356 . S
C92 O148 1.325 . S
N93 C96 1.314 . S
N93 C97 1.279 . S
C94 C92 1.366 . S
C94 C96 1.354 . S
C94 H152 0.914 1_455 S
C95 C92 1.356 . S
C95 C97 1.358 . S
C95 H153 0.930 . S
C96 N93 1.314 . S
C96 C94 1.354 . S
C96 H154 0.930 1_455 S
C97 N93 1.279 . S
C97 C95 1.358 . S
C97 H155 0.930 . S
C98 C101 1.348 . S
C98 C102 1.356 . S
C98 O149 1.325 . S
C99 N100 1.279 . S
C99 C102 1.358 . S
C99 H156 0.930 . S
N100 C99 1.279 . S
N100 C103 1.314 . S
C101 C98 1.348 . S
C101 C103 1.353 . S
C101 H157 0.929 . S
C102 C98 1.356 . S
C102 C99 1.358 . S
C102 H158 0.930 . S
C103 N100 1.314 . S
C103 C101 1.353 . S
C103 H159 0.930 . S
C104 N105 1.314 . S
C104 C109 1.353 . S
C104 H110 0.930 . S
N105 Li88 1.990 . S
N105 C104 1.314 . S
N105 C107 1.279 . S
C106 C107 1.358 . S
C106 C108 1.356 . S
C106 H160 0.930 . S
C107 N105 1.279 . S
C107 C106 1.358 . S
C107 H111 0.930 . S
C108 C106 1.356 . S
C108 C109 1.348 . S
C109 C104 1.353 . S
C109 C108 1.348 . S
C109 H161 0.929 . S
H110 C104 0.930 . S
H111 C107 0.930 . S
C112 N113 1.314 . S
C112 C114 1.353 . S
C112 H118 0.930 . S
N113 Li89 1.990 . S
N113 C112 1.314 . S
N113 C116 1.279 1_455 S
C114 C112 1.353 . S
C114 C117 1.348 . S
C114 H162 0.929 . S
C115 C116 1.358 . S
C115 C117 1.356 1_655 S
C115 H163 0.930 . S
C116 N113 1.279 1_655 S
C116 C115 1.358 . S
C116 H119 0.930 . S
C117 C114 1.348 . S
C117 C115 1.356 1_455 S
H118 C112 0.930 . S
H119 C116 0.930 . S
C120 C122 1.348 . S
C120 C123 1.356 . S
C120 O150 1.325 . S
N121 C124 1.314 . S
N121 C125 1.279 . S
C122 C120 1.348 . S
C122 C124 1.353 . S
C122 H164 0.929 . S
C123 C120 1.356 . S
C123 C125 1.358 . S
C123 H165 0.928 1_455 S
C124 N121 1.314 . S
C124 C122 1.353 . S
C124 H166 0.930 . S
C125 N121 1.279 . S
C125 C123 1.358 . S
C125 H167 0.927 1_455 S
C126 C127 1.348 . S
C126 C128 1.356 . S
C126 O151 1.325 . S
C127 C126 1.348 . S
C127 C129 1.353 . S
C127 H168 0.929 . S
C128 C126 1.356 . S
C128 C130 1.358 . S
C128 H169 0.930 . S
C129 C127 1.353 . S
C129 N131 1.314 . S
C129 H170 0.930 . S
C130 C128 1.358 . S
C130 N131 1.279 . S
C130 H171 0.930 . S
N131 C129 1.314 . S
N131 C130 1.279 . S
C132 C134 1.353 . S
C132 N135 1.314 . S
C132 H138 0.930 . S
C133 N135 1.279 . S
C133 C136 1.358 . S
C133 H139 0.930 . S
C134 C132 1.353 . S
C134 C137 1.348 . S
C134 H172 0.929 . S
N135 Li90 1.990 . S
N135 C132 1.314 . S
N135 C133 1.279 . S
C136 C133 1.358 . S
C136 C137 1.356 . S
C136 H173 0.930 . S
C137 C134 1.348 . S
C137 C136 1.356 . S
H138 C132 0.930 . S
H139 C133 0.930 . S
C140 N141 1.314 1_655 S
C140 C142 1.353 . S
C140 H146 0.930 . S
N141 Li91 1.990 . S
N141 C140 1.314 1_455 S
N141 C144 1.279 . S
C142 C140 1.353 . S
C142 C145 1.348 1_655 S
C142 H174 0.929 . S
C143 C144 1.358 . S
C143 C145 1.356 . S
C143 H175 0.930 . S
C144 N141 1.279 . S
C144 C143 1.358 . S
C144 H147 0.930 . S
C145 C142 1.348 1_455 S
C145 C143 1.356 . S
H146 C140 0.930 . S
H147 C144 0.930 . S
O148 Li88 1.956 1_455 S
O148 Li89 1.970 . S
O148 Li90 1.961 . S
O148 C92 1.325 . S
O149 Li88 1.970 . S
O149 Li89 1.956 1_655 S
O149 Li91 1.961 1_655 S
O149 C98 1.325 . S
O150 Li88 1.961 1_455 S
O150 Li90 1.956 . S
O150 Li91 1.970 . S
O150 C120 1.325 . S
O151 Li89 1.961 . S
O151 Li90 1.970 . S
O151 Li91 1.956 . S
O151 C126 1.325 . S
H152 C94 0.914 1_655 S
H153 C95 0.930 . S
H154 C96 0.930 1_655 S
H155 C97 0.930 . S
H156 C99 0.930 . S
H157 C101 0.929 . S
H158 C102 0.930 . S
H159 C103 0.930 . S
H160 C106 0.930 . S
H161 C109 0.929 . S
H162 C114 0.929 . S
H163 C115 0.930 . S
H164 C122 0.929 . S
H165 C123 0.928 1_655 S
H166 C124 0.930 . S
H167 C125 0.927 1_655 S
H168 C127 0.929 . S
H169 C128 0.930 . S
H170 C129 0.930 . S
H171 C130 0.930 . S
H172 C134 0.929 . S
H173 C136 0.930 . S
H174 C142 0.929 . S
H175 C143 0.930 . S
Li176 N193 1.990 . S
Li176 O236 1.956 . S
Li176 O237 1.970 . S
Li176 O238 1.961 . S
Li177 N201 1.990 . S
Li177 O236 1.970 . S
Li177 O237 1.956 . S
Li177 O239 1.961 . S
Li178 N223 1.990 . S
Li178 O236 1.961 . S
Li178 O238 1.956 . S
Li178 O239 1.970 . S
Li179 N229 1.990 . S
Li179 O237 1.961 . S
Li179 O238 1.970 . S
Li179 O239 1.956 . S
C180 C182 1.348 . S
C180 C183 1.356 . S
C180 O236 1.325 . S
N181 C184 1.314 . S
N181 C185 1.279 . S
C182 C180 1.348 . S
C182 C184 1.353 . S
C182 H240 0.929 . S
C183 C180 1.356 . S
C183 C185 1.358 . S
C183 H241 0.930 . S
C184 N181 1.314 . S
C184 C182 1.353 . S
C184 H242 0.930 . S
C185 N181 1.279 . S
C185 C183 1.358 . S
C185 H243 0.930 . S
C186 C189 1.348 . S
C186 C190 1.356 . S
C186 O237 1.325 . S
C187 N188 1.279 . S
C187 C190 1.358 . S
C187 H244 0.930 . S
N188 C187 1.279 . S
N188 C191 1.314 . S
C189 C186 1.348 . S
C189 C191 1.353 . S
C189 H245 0.929 . S
C190 C186 1.356 . S
C190 C187 1.358 . S
C190 H246 0.930 . S
C191 N188 1.314 . S
C191 C189 1.353 . S
C191 H247 0.930 . S
C192 N193 1.314 . S
C192 C197 1.353 . S
C192 H198 0.930 . S
N193 Li176 1.990 . S
N193 C192 1.314 . S
N193 C195 1.279 . S
C194 C195 1.358 . S
C194 C196 1.356 . S
C194 H248 0.930 . S
C195 N193 1.279 . S
C195 C194 1.358 . S
C195 H199 0.930 . S
C196 C194 1.356 . S
C196 C197 1.348 . S
C197 C192 1.353 . S
C197 C196 1.348 . S
C197 H249 0.929 . S
H198 C192 0.930 . S
H199 C195 0.930 . S
C200 N201 1.314 . S
C200 C202 1.353 . S
C200 H206 0.930 . S
N201 Li177 1.990 . S
N201 C200 1.314 . S
N201 C204 1.279 . S
C202 C200 1.353 . S
C202 C205 1.348 . S
C202 H250 0.929 . S
C203 C204 1.358 . S
C203 C205 1.356 . S
C203 H251 0.930 . S
C204 N201 1.279 . S
C204 C203 1.358 . S
C204 H207 0.930 . S
C205 C202 1.348 . S
C205 C203 1.356 . S
H206 C200 0.930 . S
H207 C204 0.930 . S
C208 C210 1.348 . S
C208 C211 1.356 . S
C208 O238 1.325 . S
N209 C212 1.314 . S
N209 C213 1.279 . S
C210 C208 1.348 . S
C210 C212 1.353 . S
C210 H252 0.929 . S
C211 C208 1.356 . S
C211 C213 1.358 . S
C211 H253 0.930 . S
C212 N209 1.314 . S
C212 C210 1.353 . S
C212 H254 0.930 . S
C213 N209 1.279 . S
C213 C211 1.358 . S
C213 H255 0.930 . S
C214 C215 1.348 . S
C214 C216 1.356 . S
C214 O239 1.325 . S
C215 C214 1.348 . S
C215 C217 1.353 . S
C215 H256 0.929 . S
C216 C214 1.356 . S
C216 C218 1.358 . S
C216 H257 0.930 . S
C217 C215 1.353 . S
C217 N219 1.314 . S
C217 H258 0.930 . S
C218 C216 1.358 . S
C218 N219 1.279 . S
C218 H259 0.930 . S
N219 C217 1.314 . S
N219 C218 1.279 . S
C220 C222 1.353 . S
C220 N223 1.314 . S
C220 H226 0.930 . S
C221 N223 1.279 . S
C221 C224 1.358 . S
C221 H227 0.930 . S
C222 C220 1.353 . S
C222 C225 1.348 . S
C222 H260 0.929 . S
N223 Li178 1.990 . S
N223 C220 1.314 . S
N223 C221 1.279 . S
C224 C221 1.358 . S
C224 C225 1.356 . S
C224 H261 0.930 . S
C225 C222 1.348 . S
C225 C224 1.356 . S
H226 C220 0.930 . S
H227 C221 0.930 . S
C228 N229 1.314 . S
C228 C230 1.353 . S
C228 H234 0.930 . S
N229 Li179 1.990 . S
N229 C228 1.314 . S
N229 C232 1.279 . S
C230 C228 1.353 . S
C230 C233 1.348 . S
C230 H262 0.929 . S
C231 C232 1.358 . S
C231 C233 1.356 . S
C231 H263 0.930 . S
C232 N229 1.279 . S
C232 C231 1.358 . S
C232 H235 0.930 . S
C233 C230 1.348 . S
C233 C231 1.356 . S
H234 C228 0.930 . S
H235 C232 0.930 . S
O236 Li176 1.956 . S
O236 Li177 1.970 . S
O236 Li178 1.961 . S
O236 C180 1.325 . S
O237 Li176 1.970 . S
O237 Li177 1.956 . S
O237 Li179 1.961 . S
O237 C186 1.325 . S
O238 Li176 1.961 . S
O238 Li178 1.956 . S
O238 Li179 1.970 . S
O238 C208 1.325 . S
O239 Li177 1.961 . S
O239 Li178 1.970 . S
O239 Li179 1.956 . S
O239 C214 1.325 . S
H240 C182 0.929 . S
H241 C183 0.930 . S
H242 C184 0.930 . S
H243 C185 0.930 . S
H244 C187 0.930 . S
H245 C189 0.929 . S
H246 C190 0.930 . S
H247 C191 0.930 . S
H248 C194 0.930 . S
H249 C197 0.929 . S
H250 C202 0.929 . S
H251 C203 0.930 . S
H252 C210 0.929 . S
H253 C211 0.930 . S
H254 C212 0.930 . S
H255 C213 0.930 . S
H256 C215 0.929 . S
H257 C216 0.930 . S
H258 C217 0.930 . S
H259 C218 0.930 . S
H260 C222 0.929 . S
H261 C224 0.930 . S
H262 C230 0.929 . S
H263 C231 0.930 . S
Li264 N281 1.990 . S
Li264 O324 1.956 . S
Li264 O325 1.970 . S
Li264 O326 1.961 . S
Li265 N289 1.990 . S
Li265 O324 1.970 . S
Li265 O325 1.956 . S
Li265 O327 1.961 . S
Li266 N311 1.990 . S
Li266 O324 1.961 . S
Li266 O326 1.956 . S
Li266 O327 1.970 . S
Li267 N317 1.990 . S
Li267 O325 1.961 . S
Li267 O326 1.970 . S
Li267 O327 1.956 . S
C268 C270 1.348 . S
C268 C271 1.356 . S
C268 O324 1.325 . S
N269 C272 1.314 . S
N269 C273 1.279 . S
C270 C268 1.348 . S
C270 C272 1.353 . S
C270 H328 0.929 . S
C271 C268 1.356 . S
C271 C273 1.358 . S
C271 H329 0.930 . S
C272 N269 1.314 . S
C272 C270 1.353 . S
C272 H330 0.930 . S
C273 N269 1.279 . S
C273 C271 1.358 . S
C273 H331 0.930 . S
C274 C277 1.348 . S
C274 C278 1.356 . S
C274 O325 1.325 . S
C275 N276 1.279 . S
C275 C278 1.358 . S
C275 H332 0.930 . S
N276 C275 1.279 . S
N276 C279 1.314 . S
C277 C274 1.348 . S
C277 C279 1.353 . S
C277 H333 0.929 . S
C278 C274 1.356 . S
C278 C275 1.358 . S
C278 H334 0.930 . S
C279 N276 1.314 . S
C279 C277 1.353 . S
C279 H335 0.930 . S
C280 N281 1.314 . S
C280 C285 1.353 . S
C280 H286 0.930 . S
N281 Li264 1.990 . S
N281 C280 1.314 . S
N281 C283 1.279 . S
C282 C283 1.358 . S
C282 C284 1.356 . S
C282 H336 0.930 . S
C283 N281 1.279 . S
C283 C282 1.358 . S
C283 H287 0.930 . S
C284 C282 1.356 . S
C284 C285 1.348 . S
C285 C280 1.353 . S
C285 C284 1.348 . S
C285 H337 0.929 . S
H286 C280 0.930 . S
H287 C283 0.930 . S
C288 N289 1.314 . S
C288 C290 1.353 . S
C288 H294 0.930 . S
N289 Li265 1.990 . S
N289 C288 1.314 . S
N289 C292 1.279 . S
C290 C288 1.353 . S
C290 C293 1.348 . S
C290 H338 0.929 . S
C291 C292 1.358 . S
C291 C293 1.356 . S
C291 H339 0.930 . S
C292 N289 1.279 . S
C292 C291 1.358 . S
C292 H295 0.930 . S
C293 C290 1.348 . S
C293 C291 1.356 . S
H294 C288 0.930 . S
H295 C292 0.930 . S
C296 C298 1.348 . S
C296 C299 1.356 . S
C296 O326 1.325 . S
N297 C300 1.314 . S
N297 C301 1.279 . S
C298 C296 1.348 . S
C298 C300 1.353 . S
C298 H340 0.929 . S
C299 C296 1.356 . S
C299 C301 1.358 . S
C299 H341 0.930 . S
C300 N297 1.314 . S
C300 C298 1.353 . S
C300 H342 0.930 . S
C301 N297 1.279 . S
C301 C299 1.358 . S
C301 H343 0.930 . S
C302 C303 1.348 . S
C302 C304 1.356 . S
C302 O327 1.325 . S
C303 C302 1.348 . S
C303 C305 1.353 . S
C303 H344 0.929 . S
C304 C302 1.356 . S
C304 C306 1.358 . S
C304 H345 0.930 . S
C305 C303 1.353 . S
C305 N307 1.314 . S
C305 H346 0.930 . S
C306 C304 1.358 . S
C306 N307 1.279 . S
C306 H347 0.930 . S
N307 C305 1.314 . S
N307 C306 1.279 . S
C308 C310 1.353 . S
C308 N311 1.314 . S
C308 H314 0.930 . S
C309 N311 1.279 . S
C309 C312 1.358 . S
C309 H315 0.930 . S
C310 C308 1.353 . S
C310 C313 1.348 . S
C310 H348 0.929 . S
N311 Li266 1.990 . S
N311 C308 1.314 . S
N311 C309 1.279 . S
C312 C309 1.358 . S
C312 C313 1.356 . S
C312 H349 0.930 . S
C313 C310 1.348 . S
C313 C312 1.356 . S
H314 C308 0.930 . S
H315 C309 0.930 . S
C316 N317 1.314 . S
C316 C318 1.353 . S
C316 H322 0.930 . S
N317 Li267 1.990 . S
N317 C316 1.314 . S
N317 C320 1.279 . S
C318 C316 1.353 . S
C318 C321 1.348 . S
C318 H350 0.929 . S
C319 C320 1.358 . S
C319 C321 1.356 . S
C319 H351 0.930 . S
C320 N317 1.279 . S
C320 C319 1.358 . S
C320 H323 0.930 . S
C321 C318 1.348 . S
C321 C319 1.356 . S
H322 C316 0.930 . S
H323 C320 0.930 . S
O324 Li264 1.956 . S
O324 Li265 1.970 . S
O324 Li266 1.961 . S
O324 C268 1.325 . S
O325 Li264 1.970 . S
O325 Li265 1.956 . S
O325 Li267 1.961 . S
O325 C274 1.325 . S
O326 Li264 1.961 . S
O326 Li266 1.956 . S
O326 Li267 1.970 . S
O326 C296 1.325 . S
O327 Li265 1.961 . S
O327 Li266 1.970 . S
O327 Li267 1.956 . S
O327 C302 1.325 . S
H328 C270 0.929 . S
H329 C271 0.930 . S
H330 C272 0.930 . S
H331 C273 0.930 . S
H332 C275 0.930 . S
H333 C277 0.929 . S
H334 C278 0.930 . S
H335 C279 0.930 . S
H336 C282 0.930 . S
H337 C285 0.929 . S
H338 C290 0.929 . S
H339 C291 0.930 . S
H340 C298 0.929 . S
H341 C299 0.930 . S
H342 C300 0.930 . S
H343 C301 0.930 . S
H344 C303 0.929 . S
H345 C304 0.930 . S
H346 C305 0.930 . S
H347 C306 0.930 . S
H348 C310 0.929 . S
H349 C312 0.930 . S
H350 C318 0.929 . S
H351 C319 0.930 . S
Li352 N369 1.990 . S
Li352 O412 1.956 . S
Li352 O413 1.970 . S
Li352 O414 1.961 1_545 S
Li353 N377 1.990 . S
Li353 O412 1.970 . S
Li353 O413 1.956 . S
Li353 O415 1.961 . S
Li354 N399 1.990 . S
Li354 O412 1.961 . S
Li354 O414 1.956 1_545 S
Li354 O415 1.970 . S
Li355 N405 1.990 . S
Li355 O413 1.961 1_565 S
Li355 O414 1.970 . S
Li355 O415 1.956 1_565 S
C356 C358 1.348 . S
C356 C359 1.356 . S
C356 O412 1.325 . S
N357 C360 1.314 . S
N357 C361 1.279 . S
C358 C356 1.348 . S
C358 C360 1.353 . S
C358 H416 0.929 . S
C359 C356 1.356 . S
C359 C361 1.358 . S
C359 H417 0.930 . S
C360 N357 1.314 . S
C360 C358 1.353 . S
C360 H418 0.930 . S
C361 N357 1.279 . S
C361 C359 1.358 . S
C361 H419 0.930 . S
C362 C365 1.348 . S
C362 C366 1.356 1_545 S
C362 O413 1.325 . S
C363 N364 1.269 1_565 S
C363 C366 1.361 . S
C363 H420 0.943 . S
N364 C363 1.269 1_545 S
N364 C367 1.314 . S
C365 C362 1.348 . S
C365 C367 1.353 . S
C365 H421 0.929 . S
C366 C362 1.356 1_565 S
C366 C363 1.361 . S
C366 H422 0.930 . S
C367 N364 1.314 . S
C367 C365 1.353 . S
C367 H423 0.930 . S
C368 N369 1.314 1_565 S
C368 C373 1.353 . S
C368 H374 0.930 . S
N369 Li352 1.990 . S
N369 C368 1.314 1_545 S
N369 C371 1.279 . S
C370 C371 1.358 . S
C370 C372 1.356 . S
C370 H424 0.930 . S
C371 N369 1.279 . S
C371 C370 1.358 . S
C371 H375 0.930 . S
C372 C370 1.356 . S
C372 C373 1.348 1_545 S
C373 C368 1.353 . S
C373 C372 1.348 1_565 S
C373 H425 0.929 . S
H374 C368 0.930 . S
H375 C371 0.930 . S
C376 N377 1.314 . S
C376 C378 1.353 . S
C376 H382 0.930 . S
N377 Li353 1.990 . S
N377 C376 1.314 . S
N377 C380 1.279 . S
C378 C376 1.353 . S
C378 C381 1.348 . S
C378 H426 0.929 . S
C379 C380 1.358 . S
C379 C381 1.356 . S
C379 H427 0.930 . S
C380 N377 1.279 . S
C380 C379 1.358 . S
C380 H383 0.930 . S
C381 C378 1.348 . S
C381 C379 1.356 . S
H382 C376 0.930 . S
H383 C380 0.930 . S
C384 C386 1.348 . S
C384 C387 1.356 . S
C384 O414 1.325 . S
N385 C388 1.314 . S
N385 C389 1.279 . S
C386 C384 1.348 . S
C386 C388 1.353 . S
C386 H428 0.929 . S
C387 C384 1.356 . S
C387 C389 1.358 . S
C387 H429 0.930 . S
C388 N385 1.314 . S
C388 C386 1.353 . S
C388 H430 0.930 . S
C389 N385 1.279 . S
C389 C387 1.358 . S
C389 H431 0.930 . S
C390 C391 1.348 1_545 S
C390 C392 1.356 . S
C390 O415 1.325 . S
C391 C390 1.348 1_565 S
C391 C393 1.353 . S
C391 H432 0.929 . S
C392 C390 1.356 . S
C392 C394 1.358 . S
C392 H433 0.930 . S
C393 C391 1.353 . S
C393 N395 1.304 1_565 S
C393 H434 0.930 . S
C394 C392 1.358 . S
C394 N395 1.293 . S
C394 H435 0.930 . S
N395 C393 1.304 1_545 S
N395 C394 1.293 . S
C396 C398 1.353 . S
C396 N399 1.314 . S
C396 H402 0.930 . S
C397 N399 1.279 1_565 S
C397 C400 1.358 . S
C397 H403 0.930 . S
C398 C396 1.353 . S
C398 C401 1.348 . S
C398 H436 0.929 . S
N399 Li354 1.990 . S
N399 C396 1.314 . S
N399 C397 1.279 1_545 S
C400 C397 1.358 . S
C400 C401 1.356 1_565 S
C400 H437 0.930 . S
C401 C398 1.348 . S
C401 C400 1.356 1_545 S
H402 C396 0.930 . S
H403 C397 0.930 . S
C404 N405 1.314 . S
C404 C406 1.353 . S
C404 H410 0.930 . S
N405 Li355 1.990 . S
N405 C404 1.314 . S
N405 C408 1.279 . S
C406 C404 1.353 . S
C406 C409 1.348 . S
C406 H438 0.929 . S
C407 C408 1.358 . S
C407 C409 1.356 . S
C407 H439 0.930 . S
C408 N405 1.279 . S
C408 C407 1.358 . S
C408 H411 0.930 . S
C409 C406 1.348 . S
C409 C407 1.356 . S
H410 C404 0.930 . S
H411 C408 0.930 . S
O412 Li352 1.956 . S
O412 Li353 1.970 . S
O412 Li354 1.961 . S
O412 C356 1.325 . S
O413 Li352 1.970 . S
O413 Li353 1.956 . S
O413 Li355 1.961 1_545 S
O413 C362 1.325 . S
O414 Li352 1.961 1_565 S
O414 Li354 1.956 1_565 S
O414 Li355 1.970 . S
O414 C384 1.325 . S
O415 Li353 1.961 . S
O415 Li354 1.970 . S
O415 Li355 1.956 1_545 S
O415 C390 1.325 . S
H416 C358 0.929 . S
H417 C359 0.930 . S
H418 C360 0.930 . S
H419 C361 0.930 . S
H420 C363 0.943 . S
H421 C365 0.929 . S
H422 C366 0.930 . S
H423 C367 0.930 . S
H424 C370 0.930 . S
H425 C373 0.929 . S
H426 C378 0.929 . S
H427 C379 0.930 . S
H428 C386 0.929 . S
H429 C387 0.930 . S
H430 C388 0.930 . S
H431 C389 0.930 . S
H432 C391 0.929 . S
H433 C392 0.930 . S
H434 C393 0.930 . S
H435 C394 0.930 . S
H436 C398 0.929 . S
H437 C400 0.930 . S
H438 C406 0.929 . S
H439 C407 0.930 . S
Li440 N457 1.990 . S
Li440 O500 1.956 . S
Li440 O501 1.970 . S
Li440 O502 1.961 . S
Li441 N465 1.990 . S
Li441 O500 1.970 . S
Li441 O501 1.956 . S
Li441 O503 1.961 . S
Li442 N487 1.990 . S
Li442 O500 1.961 . S
Li442 O502 1.956 . S
Li442 O503 1.970 . S
Li443 N493 1.990 . S
Li443 O501 1.961 . S
Li443 O502 1.970 . S
Li443 O503 1.956 . S
C444 C446 1.348 . S
C444 C447 1.356 . S
C444 O500 1.325 . S
N445 C448 1.314 . S
N445 C449 1.279 . S
C446 C444 1.348 . S
C446 C448 1.353 . S
C446 H504 0.929 . S
C447 C444 1.356 . S
C447 C449 1.358 . S
C447 H505 0.930 . S
C448 N445 1.314 . S
C448 C446 1.353 . S
C448 H506 0.930 . S
C449 N445 1.279 . S
C449 C447 1.358 . S
C449 H507 0.930 . S
C450 C453 1.348 . S
C450 C454 1.356 . S
C450 O501 1.325 . S
C451 N452 1.279 . S
C451 C454 1.358 . S
C451 H508 0.930 . S
N452 C451 1.279 . S
N452 C455 1.314 . S
C453 C450 1.348 . S
C453 C455 1.353 . S
C453 H509 0.929 . S
C454 C450 1.356 . S
C454 C451 1.358 . S
C454 H510 0.930 . S
C455 N452 1.314 . S
C455 C453 1.353 . S
C455 H511 0.930 . S
C456 N457 1.314 . S
C456 C461 1.353 . S
C456 H462 0.930 . S
N457 Li440 1.990 . S
N457 C456 1.314 . S
N457 C459 1.279 . S
C458 C459 1.358 . S
C458 C460 1.356 . S
C458 H512 0.930 . S
C459 N457 1.279 . S
C459 C458 1.358 . S
C459 H463 0.930 . S
C460 C458 1.356 . S
C460 C461 1.348 . S
C461 C456 1.353 . S
C461 C460 1.348 . S
C461 H513 0.929 . S
H462 C456 0.930 . S
H463 C459 0.930 . S
C464 N465 1.314 . S
C464 C466 1.353 . S
C464 H470 0.930 . S
N465 Li441 1.990 . S
N465 C464 1.314 . S
N465 C468 1.279 . S
C466 C464 1.353 . S
C466 C469 1.348 . S
C466 H514 0.929 . S
C467 C468 1.358 . S
C467 C469 1.356 . S
C467 H515 0.930 . S
C468 N465 1.279 . S
C468 C467 1.358 . S
C468 H471 0.930 . S
C469 C466 1.348 . S
C469 C467 1.356 . S
H470 C464 0.930 . S
H471 C468 0.930 . S
C472 C474 1.348 . S
C472 C475 1.356 . S
C472 O502 1.325 . S
N473 C476 1.314 . S
N473 C477 1.279 . S
C474 C472 1.348 . S
C474 C476 1.353 . S
C474 H516 0.929 . S
C475 C472 1.356 . S
C475 C477 1.358 . S
C475 H517 0.930 . S
C476 N473 1.314 . S
C476 C474 1.353 . S
C476 H518 0.930 . S
C477 N473 1.279 . S
C477 C475 1.358 . S
C477 H519 0.930 . S
C478 C479 1.348 . S
C478 C480 1.356 . S
C478 O503 1.325 . S
C479 C478 1.348 . S
C479 C481 1.353 . S
C479 H520 0.929 . S
C480 C478 1.356 . S
C480 C482 1.358 . S
C480 H521 0.930 . S
C481 C479 1.353 . S
C481 N483 1.314 . S
C481 H522 0.930 . S
C482 C480 1.358 . S
C482 N483 1.279 . S
C482 H523 0.930 . S
N483 C481 1.314 . S
N483 C482 1.279 . S
C484 C486 1.353 . S
C484 N487 1.314 . S
C484 H490 0.930 . S
C485 N487 1.279 . S
C485 C488 1.358 . S
C485 H491 0.930 . S
C486 C484 1.353 . S
C486 C489 1.348 . S
C486 H524 0.929 . S
N487 Li442 1.990 . S
N487 C484 1.314 . S
N487 C485 1.279 . S
C488 C485 1.358 . S
C488 C489 1.356 . S
C488 H525 0.930 . S
C489 C486 1.348 . S
C489 C488 1.356 . S
H490 C484 0.930 . S
H491 C485 0.930 . S
C492 N493 1.314 . S
C492 C494 1.353 . S
C492 H498 0.930 . S
N493 Li443 1.990 . S
N493 C492 1.314 . S
N493 C496 1.279 . S
C494 C492 1.353 . S
C494 C497 1.348 . S
C494 H526 0.929 . S
C495 C496 1.358 . S
C495 C497 1.356 . S
C495 H527 0.930 . S
C496 N493 1.279 . S
C496 C495 1.358 . S
C496 H499 0.930 . S
C497 C494 1.348 . S
C497 C495 1.356 . S
H498 C492 0.930 . S
H499 C496 0.930 . S
O500 Li440 1.956 . S
O500 Li441 1.970 . S
O500 Li442 1.961 . S
O500 C444 1.325 . S
O501 Li440 1.970 . S
O501 Li441 1.956 . S
O501 Li443 1.961 . S
O501 C450 1.325 . S
O502 Li440 1.961 . S
O502 Li442 1.956 . S
O502 Li443 1.970 . S
O502 C472 1.325 . S
O503 Li441 1.961 . S
O503 Li442 1.970 . S
O503 Li443 1.956 . S
O503 C478 1.325 . S
H504 C446 0.929 . S
H505 C447 0.930 . S
H506 C448 0.930 . S
H507 C449 0.930 . S
H508 C451 0.930 . S
H509 C453 0.929 . S
H510 C454 0.930 . S
H511 C455 0.930 . S
H512 C458 0.930 . S
H513 C461 0.929 . S
H514 C466 0.929 . S
H515 C467 0.930 . S
H516 C474 0.929 . S
H517 C475 0.930 . S
H518 C476 0.930 . S
H519 C477 0.930 . S
H520 C479 0.929 . S
H521 C480 0.930 . S
H522 C481 0.930 . S
H523 C482 0.930 . S
H524 C486 0.929 . S
H525 C488 0.930 . S
H526 C494 0.929 . S
H527 C495 0.930 . S
Li528 N545 1.990 . S
Li528 O588 1.956 1_565 S
Li528 O589 1.970 . S
Li528 O590 1.961 1_565 S
Li529 N553 1.990 . S
Li529 O588 1.970 . S
Li529 O589 1.956 1_545 S
Li529 O591 1.961 . S
Li530 N575 1.990 . S
Li530 O588 1.961 . S
Li530 O590 1.956 . S
Li530 O591 1.970 . S
Li531 N581 1.990 . S
Li531 O589 1.961 1_545 S
Li531 O590 1.970 . S
Li531 O591 1.956 . S
C532 C534 1.355 . S
C532 C535 1.356 . S
C532 O588 1.325 . S
N533 C536 1.318 . S
N533 C537 1.279 . S
C534 C532 1.355 . S
C534 C536 1.353 . S
C534 H592 0.923 1_545 S
C535 C532 1.356 . S
C535 C537 1.358 . S
C535 H593 0.930 . S
C536 N533 1.318 . S
C536 C534 1.353 . S
C536 H594 0.925 1_545 S
C537 N533 1.279 . S
C537 C535 1.358 . S
C537 H595 0.930 . S
C538 C541 1.348 . S
C538 C542 1.356 . S
C538 O589 1.325 . S
C539 N540 1.279 . S
C539 C542 1.358 . S
C539 H596 0.930 . S
N540 C539 1.279 . S
N540 C543 1.314 . S
C541 C538 1.348 . S
C541 C543 1.353 . S
C541 H597 0.929 . S
C542 C538 1.356 . S
C542 C539 1.358 . S
C542 H598 0.930 . S
C543 N540 1.314 . S
C543 C541 1.353 . S
C543 H599 0.930 . S
C544 N545 1.314 . S
C544 C549 1.353 . S
C544 H550 0.930 . S
N545 Li528 1.990 . S
N545 C544 1.314 . S
N545 C547 1.279 . S
C546 C547 1.358 . S
C546 C548 1.356 . S
C546 H600 0.930 . S
C547 N545 1.279 . S
C547 C546 1.358 . S
C547 H551 0.930 . S
C548 C546 1.356 . S
C548 C549 1.348 . S
C549 C544 1.353 . S
C549 C548 1.348 . S
C549 H601 0.929 . S
H550 C544 0.930 . S
H551 C547 0.930 . S
C552 N553 1.314 . S
C552 C554 1.353 . S
C552 H558 0.930 . S
N553 Li529 1.990 . S
N553 C552 1.314 . S
N553 C556 1.279 1_545 S
C554 C552 1.353 . S
C554 C557 1.348 . S
C554 H602 0.929 . S
C555 C556 1.358 . S
C555 C557 1.356 1_565 S
C555 H603 0.930 . S
C556 N553 1.279 1_565 S
C556 C555 1.358 . S
C556 H559 0.930 . S
C557 C554 1.348 . S
C557 C555 1.356 1_545 S
H558 C552 0.930 . S
H559 C556 0.930 . S
C560 C562 1.348 . S
C560 C563 1.356 . S
C560 O590 1.325 . S
N561 C564 1.314 . S
N561 C565 1.279 . S
C562 C560 1.348 . S
C562 C564 1.353 . S
C562 H604 0.929 . S
C563 C560 1.356 . S
C563 C565 1.358 . S
C563 H605 0.929 1_545 S
C564 N561 1.314 . S
C564 C562 1.353 . S
C564 H606 0.930 . S
C565 N561 1.279 . S
C565 C563 1.358 . S
C565 H607 0.929 . S
C566 C567 1.348 . S
C566 C568 1.356 . S
C566 O591 1.325 . S
C567 C566 1.348 . S
C567 C569 1.353 . S
C567 H608 0.929 . S
C568 C566 1.356 . S
C568 C570 1.358 . S
C568 H609 0.930 . S
C569 C567 1.353 . S
C569 N571 1.314 . S
C569 H610 0.930 . S
C570 C568 1.358 . S
C570 N571 1.279 . S
C570 H611 0.930 . S
N571 C569 1.314 . S
N571 C570 1.279 . S
C572 C574 1.353 . S
C572 N575 1.314 . S
C572 H578 0.930 . S
C573 N575 1.279 . S
C573 C576 1.358 . S
C573 H579 0.930 . S
C574 C572 1.353 . S
C574 C577 1.348 . S
C574 H612 0.929 . S
N575 Li530 1.990 . S
N575 C572 1.314 . S
N575 C573 1.279 . S
C576 C573 1.358 . S
C576 C577 1.356 . S
C576 H613 0.930 . S
C577 C574 1.348 . S
C577 C576 1.356 . S
H578 C572 0.930 . S
H579 C573 0.930 . S
C580 N581 1.314 1_565 S
C580 C582 1.353 . S
C580 H586 0.930 . S
N581 Li531 1.990 . S
N581 C580 1.314 1_545 S
N581 C584 1.279 . S
C582 C580 1.353 . S
C582 C585 1.348 1_565 S
C582 H614 0.929 . S
C583 C584 1.358 . S
C583 C585 1.356 . S
C583 H615 0.930 . S
C584 N581 1.279 . S
C584 C583 1.358 . S
C584 H587 0.930 . S
C585 C582 1.348 1_545 S
C585 C583 1.356 . S
H586 C580 0.930 . S
H587 C584 0.930 . S
O588 Li528 1.956 1_545 S
O588 Li529 1.970 . S
O588 Li530 1.961 . S
O588 C532 1.325 . S
O589 Li528 1.970 . S
O589 Li529 1.956 1_565 S
O589 Li531 1.961 1_565 S
O589 C538 1.325 . S
O590 Li528 1.961 1_545 S
O590 Li530 1.956 . S
O590 Li531 1.970 . S
O590 C560 1.325 . S
O591 Li529 1.961 . S
O591 Li530 1.970 . S
O591 Li531 1.956 . S
O591 C566 1.325 . S
H592 C534 0.923 1_565 S
H593 C535 0.930 . S
H594 C536 0.925 1_565 S
H595 C537 0.930 . S
H596 C539 0.930 . S
H597 C541 0.929 . S
H598 C542 0.930 . S
H599 C543 0.930 . S
H600 C546 0.930 . S
H601 C549 0.929 . S
H602 C554 0.929 . S
H603 C555 0.930 . S
H604 C562 0.929 . S
H605 C563 0.929 1_565 S
H606 C564 0.930 . S
H607 C565 0.929 . S
H608 C567 0.929 . S
H609 C568 0.930 . S
H610 C569 0.930 . S
H611 C570 0.930 . S
H612 C574 0.929 . S
H613 C576 0.930 . S
H614 C582 0.929 . S
H615 C583 0.930 . S
Li616 N633 1.990 . S
Li616 O676 1.956 . S
Li616 O677 1.970 . S
Li616 O678 1.961 . S
Li617 N641 1.990 . S
Li617 O676 1.970 . S
Li617 O677 1.956 . S
Li617 O679 1.961 1_554 S
Li618 N663 1.990 . S
Li618 O676 1.961 1_556 S
Li618 O678 1.956 1_556 S
Li618 O679 1.970 . S
Li619 N669 1.990 . S
Li619 O677 1.961 . S
Li619 O678 1.970 . S
Li619 O679 1.956 1_554 S
C620 C622 1.348 . S
C620 C623 1.356 . S
C620 O676 1.325 . S
N621 C624 1.314 . S
N621 C625 1.279 . S
C622 C620 1.348 . S
C622 C624 1.353 . S
C622 H680 0.929 . S
C623 C620 1.356 . S
C623 C625 1.358 . S
C623 H681 0.920 1_554 S
C624 N621 1.314 . S
C624 C622 1.353 . S
C624 H682 0.930 . S
C625 N621 1.279 . S
C625 C623 1.358 . S
C625 H683 0.922 1_554 S
C626 C629 1.348 . S
C626 C630 1.356 . S
C626 O677 1.325 . S
C627 N628 1.279 . S
C627 C630 1.358 . S
C627 H684 0.930 . S
N628 C627 1.279 . S
N628 C631 1.314 . S
C629 C626 1.348 . S
C629 C631 1.353 . S
C629 H685 0.929 . S
C630 C626 1.356 . S
C630 C627 1.358 . S
C630 H686 0.930 . S
C631 N628 1.314 . S
C631 C629 1.353 . S
C631 H687 0.930 . S
C632 N633 1.314 . S
C632 C637 1.353 . S
C632 H638 0.930 . S
N633 Li616 1.990 . S
N633 C632 1.314 . S
N633 C635 1.279 . S
C634 C635 1.358 . S
C634 C636 1.356 . S
C634 H688 0.930 . S
C635 N633 1.279 . S
C635 C634 1.358 . S
C635 H639 0.930 . S
C636 C634 1.356 . S
C636 C637 1.348 . S
C637 C632 1.353 . S
C637 C636 1.348 . S
C637 H689 0.929 . S
H638 C632 0.930 . S
H639 C635 0.930 . S
C640 N641 1.314 1_556 S
C640 C642 1.353 . S
C640 H646 0.930 . S
N641 Li617 1.990 . S
N641 C640 1.314 1_554 S
N641 C644 1.279 . S
C642 C640 1.353 . S
C642 C645 1.348 1_556 S
C642 H690 0.929 . S
C643 C644 1.358 . S
C643 C645 1.356 . S
C643 H691 0.930 . S
C644 N641 1.279 . S
C644 C643 1.358 . S
C644 H647 0.930 . S
C645 C642 1.348 1_554 S
C645 C643 1.356 . S
H646 C640 0.930 . S
H647 C644 0.930 . S
C648 C650 1.345 1_554 S
C648 C651 1.356 . S
C648 O678 1.325 . S
N649 C652 1.313 1_554 S
N649 C653 1.279 . S
C650 C648 1.345 1_556 S
C650 C652 1.353 . S
C650 H692 0.932 . S
C651 C648 1.356 . S
C651 C653 1.358 . S
C651 H693 0.930 . S
C652 N649 1.313 1_556 S
C652 C650 1.353 . S
C652 H694 0.931 . S
C653 N649 1.279 . S
C653 C651 1.358 . S
C653 H695 0.930 . S
C654 C655 1.348 . S
C654 C656 1.356 . S
C654 O679 1.325 . S
C655 C654 1.348 . S
C655 C657 1.353 . S
C655 H696 0.929 . S
C656 C654 1.356 . S
C656 C658 1.358 . S
C656 H697 0.930 . S
C657 C655 1.353 . S
C657 N659 1.314 . S
C657 H698 0.930 . S
C658 C656 1.358 . S
C658 N659 1.279 . S
C658 H699 0.930 . S
N659 C657 1.314 . S
N659 C658 1.279 . S
C660 C662 1.353 . S
C660 N663 1.314 . S
C660 H666 0.930 . S
C661 N663 1.279 . S
C661 C664 1.358 . S
C661 H667 0.930 . S
C662 C660 1.353 . S
C662 C665 1.348 . S
C662 H700 0.929 . S
N663 Li618 1.990 . S
N663 C660 1.314 . S
N663 C661 1.279 . S
C664 C661 1.358 . S
C664 C665 1.356 . S
C664 H701 0.930 . S
C665 C662 1.348 . S
C665 C664 1.356 . S
H666 C660 0.930 . S
H667 C661 0.930 . S
C668 N669 1.314 . S
C668 C670 1.353 . S
C668 H674 0.930 . S
N669 Li619 1.990 . S
N669 C668 1.314 . S
N669 C672 1.279 1_554 S
C670 C668 1.353 . S
C670 C673 1.348 . S
C670 H702 0.929 . S
C671 C672 1.358 . S
C671 C673 1.356 1_556 S
C671 H703 0.930 . S
C672 N669 1.279 1_556 S
C672 C671 1.358 . S
C672 H675 0.930 . S
C673 C670 1.348 . S
C673 C671 1.356 1_554 S
H674 C668 0.930 . S
H675 C672 0.930 . S
O676 Li616 1.956 . S
O676 Li617 1.970 . S
O676 Li618 1.961 1_554 S
O676 C620 1.325 . S
O677 Li616 1.970 . S
O677 Li617 1.956 . S
O677 Li619 1.961 . S
O677 C626 1.325 . S
O678 Li616 1.961 . S
O678 Li618 1.956 1_554 S
O678 Li619 1.970 . S
O678 C648 1.325 . S
O679 Li617 1.961 1_556 S
O679 Li618 1.970 . S
O679 Li619 1.956 1_556 S
O679 C654 1.325 . S
H680 C622 0.929 . S
H681 C623 0.920 1_556 S
H682 C624 0.930 . S
H683 C625 0.922 1_556 S
H684 C627 0.930 . S
H685 C629 0.929 . S
H686 C630 0.930 . S
H687 C631 0.930 . S
H688 C634 0.930 . S
H689 C637 0.929 . S
H690 C642 0.929 . S
H691 C643 0.930 . S
H692 C650 0.932 . S
H693 C651 0.930 . S
H694 C652 0.931 . S
H695 C653 0.930 . S
H696 C655 0.929 . S
H697 C656 0.930 . S
H698 C657 0.930 . S
H699 C658 0.930 . S
H700 C662 0.929 . S
H701 C664 0.930 . S
H702 C670 0.929 . S
H703 C671 0.930 . S
Li704 N721 1.990 . S
Li704 O764 1.956 . S
Li704 O765 1.970 . S
Li704 O766 1.961 1_554 S
Li705 N729 1.990 . S
Li705 O764 1.970 . S
Li705 O765 1.956 . S
Li705 O767 1.961 . S
Li706 N751 1.990 . S
Li706 O764 1.961 . S
Li706 O766 1.956 1_554 S
Li706 O767 1.970 . S
Li707 N757 1.990 . S
Li707 O765 1.961 1_556 S
Li707 O766 1.970 . S
Li707 O767 1.956 1_556 S
C708 C710 1.348 . S
C708 C711 1.356 . S
C708 O764 1.325 . S
N709 C712 1.314 . S
N709 C713 1.279 . S
C710 C708 1.348 . S
C710 C712 1.353 . S
C710 H768 0.929 . S
C711 C708 1.356 . S
C711 C713 1.358 . S
C711 H769 0.930 . S
C712 N709 1.314 . S
C712 C710 1.353 . S
C712 H770 0.930 . S
C713 N709 1.279 . S
C713 C711 1.358 . S
C713 H771 0.930 . S
C714 C717 1.348 . S
C714 C718 1.356 . S
C714 O765 1.325 . S
C715 N716 1.279 . S
C715 C718 1.358 . S
C715 H772 0.930 1_554 S
N716 C715 1.279 . S
N716 C719 1.314 . S
C717 C714 1.348 . S
C717 C719 1.353 . S
C717 H773 0.929 . S
C718 C714 1.356 . S
C718 C715 1.358 . S
C718 H774 0.930 1_554 S
C719 N716 1.314 . S
C719 C717 1.353 . S
C719 H775 0.930 . S
C720 N721 1.314 1_556 S
C720 C725 1.353 . S
C720 H726 0.930 . S
N721 Li704 1.990 . S
N721 C720 1.314 1_554 S
N721 C723 1.279 . S
C722 C723 1.358 . S
C722 C724 1.356 . S
C722 H776 0.930 . S
C723 N721 1.279 . S
C723 C722 1.358 . S
C723 H727 0.930 . S
C724 C722 1.356 . S
C724 C725 1.348 1_554 S
C725 C720 1.353 . S
C725 C724 1.348 1_556 S
C725 H777 0.929 . S
H726 C720 0.930 . S
H727 C723 0.930 . S
C728 N729 1.314 . S
C728 C730 1.353 . S
C728 H734 0.930 . S
N729 Li705 1.990 . S
N729 C728 1.314 . S
N729 C732 1.279 . S
C730 C728 1.353 . S
C730 C733 1.348 . S
C730 H778 0.929 . S
C731 C732 1.358 . S
C731 C733 1.356 . S
C731 H779 0.930 . S
C732 N729 1.279 . S
C732 C731 1.358 . S
C732 H735 0.930 . S
C733 C730 1.348 . S
C733 C731 1.356 . S
H734 C728 0.930 . S
H735 C732 0.930 . S
C736 C738 1.348 . S
C736 C739 1.356 . S
C736 O766 1.325 . S
N737 C740 1.314 . S
N737 C741 1.279 . S
C738 C736 1.348 . S
C738 C740 1.353 . S
C738 H780 0.929 . S
C739 C736 1.356 . S
C739 C741 1.358 . S
C739 H781 0.930 . S
C740 N737 1.314 . S
C740 C738 1.353 . S
C740 H782 0.930 . S
C741 N737 1.279 . S
C741 C739 1.358 . S
C741 H783 0.930 . S
C742 C743 1.348 1_554 S
C742 C744 1.356 . S
C742 O767 1.325 . S
C743 C742 1.348 1_556 S
C743 C745 1.353 . S
C743 H784 0.929 . S
C744 C742 1.356 . S
C744 C746 1.358 . S
C744 H785 0.930 . S
C745 C743 1.353 . S
C745 N747 1.314 1_556 S
C745 H786 0.930 . S
C746 C744 1.358 . S
C746 N747 1.279 . S
C746 H787 0.930 . S
N747 C745 1.314 1_554 S
N747 C746 1.279 . S
C748 C750 1.353 . S
C748 N751 1.314 . S
C748 H754 0.930 . S
C749 N751 1.279 1_556 S
C749 C752 1.358 . S
C749 H755 0.930 . S
C750 C748 1.353 . S
C750 C753 1.348 . S
C750 H788 0.929 . S
N751 Li706 1.990 . S
N751 C748 1.314 . S
N751 C749 1.279 1_554 S
C752 C749 1.358 . S
C752 C753 1.356 1_556 S
C752 H789 0.930 . S
C753 C750 1.348 . S
C753 C752 1.356 1_554 S
H754 C748 0.930 . S
H755 C749 0.930 . S
C756 N757 1.314 . S
C756 C758 1.353 . S
C756 H762 0.930 . S
N757 Li707 1.990 . S
N757 C756 1.314 . S
N757 C760 1.279 . S
C758 C756 1.353 . S
C758 C761 1.348 . S
C758 H790 0.929 . S
C759 C760 1.358 . S
C759 C761 1.356 . S
C759 H791 0.930 . S
C760 N757 1.279 . S
C760 C759 1.358 . S
C760 H763 0.930 . S
C761 C758 1.348 . S
C761 C759 1.356 . S
H762 C756 0.930 . S
H763 C760 0.930 . S
O764 Li704 1.956 . S
O764 Li705 1.970 . S
O764 Li706 1.961 . S
O764 C708 1.325 . S
O765 Li704 1.970 . S
O765 Li705 1.956 . S
O765 Li707 1.961 1_554 S
O765 C714 1.325 . S
O766 Li704 1.961 1_556 S
O766 Li706 1.956 1_556 S
O766 Li707 1.970 . S
O766 C736 1.325 . S
O767 Li705 1.961 . S
O767 Li706 1.970 . S
O767 Li707 1.956 1_554 S
O767 C742 1.325 . S
H768 C710 0.929 . S
H769 C711 0.930 . S
H770 C712 0.930 . S
H771 C713 0.930 . S
H772 C715 0.930 1_556 S
H773 C717 0.929 . S
H774 C718 0.930 1_556 S
H775 C719 0.930 . S
H776 C722 0.930 . S
H777 C725 0.929 . S
H778 C730 0.929 . S
H779 C731 0.930 . S
H780 C738 0.929 . S
H781 C739 0.930 . S
H782 C740 0.930 . S
H783 C741 0.930 . S
H784 C743 0.929 . S
H785 C744 0.930 . S
H786 C745 0.930 . S
H787 C746 0.930 . S
H788 C750 0.929 . S
H789 C752 0.930 . S
H790 C758 0.929 . S
H791 C759 0.930 . S
Li792 N809 1.990 . S
Li792 O852 1.956 . S
Li792 O853 1.970 . S
Li792 O854 1.961 . S
Li793 N817 1.990 . S
Li793 O852 1.970 . S
Li793 O853 1.956 . S
Li793 O855 1.961 . S
Li794 N839 1.990 . S
Li794 O852 1.961 . S
Li794 O854 1.956 . S
Li794 O855 1.970 . S
Li795 N845 1.990 . S
Li795 O853 1.961 . S
Li795 O854 1.970 . S
Li795 O855 1.956 . S
C796 C798 1.348 . S
C796 C799 1.356 . S
C796 O852 1.325 . S
N797 C800 1.314 . S
N797 C801 1.279 . S
C798 C796 1.348 . S
C798 C800 1.353 . S
C798 H856 0.929 . S
C799 C796 1.356 . S
C799 C801 1.358 . S
C799 H857 0.930 . S
C800 N797 1.314 . S
C800 C798 1.353 . S
C800 H858 0.930 . S
C801 N797 1.279 . S
C801 C799 1.358 . S
C801 H859 0.930 . S
C802 C805 1.348 . S
C802 C806 1.356 . S
C802 O853 1.325 . S
C803 N804 1.279 . S
C803 C806 1.358 . S
C803 H860 0.930 . S
N804 C803 1.279 . S
N804 C807 1.314 . S
C805 C802 1.348 . S
C805 C807 1.353 . S
C805 H861 0.929 . S
C806 C802 1.356 . S
C806 C803 1.358 . S
C806 H862 0.930 . S
C807 N804 1.314 . S
C807 C805 1.353 . S
C807 H863 0.930 . S
C808 N809 1.314 . S
C808 C813 1.353 . S
C808 H814 0.930 . S
N809 Li792 1.990 . S
N809 C808 1.314 . S
N809 C811 1.279 . S
C810 C811 1.358 . S
C810 C812 1.356 . S
C810 H864 0.930 . S
C811 N809 1.279 . S
C811 C810 1.358 . S
C811 H815 0.930 . S
C812 C810 1.356 . S
C812 C813 1.348 . S
C813 C808 1.353 . S
C813 C812 1.348 . S
C813 H865 0.929 . S
H814 C808 0.930 . S
H815 C811 0.930 . S
C816 N817 1.314 . S
C816 C818 1.353 . S
C816 H822 0.930 . S
N817 Li793 1.990 . S
N817 C816 1.314 . S
N817 C820 1.279 . S
C818 C816 1.353 . S
C818 C821 1.348 . S
C818 H866 0.929 . S
C819 C820 1.358 . S
C819 C821 1.356 . S
C819 H867 0.930 . S
C820 N817 1.279 . S
C820 C819 1.358 . S
C820 H823 0.930 . S
C821 C818 1.348 . S
C821 C819 1.356 . S
H822 C816 0.930 . S
H823 C820 0.930 . S
C824 C826 1.348 . S
C824 C827 1.356 . S
C824 O854 1.325 . S
N825 C828 1.314 . S
N825 C829 1.279 . S
C826 C824 1.348 . S
C826 C828 1.353 . S
C826 H868 0.929 . S
C827 C824 1.356 . S
C827 C829 1.358 . S
C827 H869 0.930 . S
C828 N825 1.314 . S
C828 C826 1.353 . S
C828 H870 0.930 . S
C829 N825 1.279 . S
C829 C827 1.358 . S
C829 H871 0.930 . S
C830 C831 1.348 . S
C830 C832 1.356 . S
C830 O855 1.325 . S
C831 C830 1.348 . S
C831 C833 1.353 . S
C831 H872 0.929 . S
C832 C830 1.356 . S
C832 C834 1.358 . S
C832 H873 0.930 . S
C833 C831 1.353 . S
C833 N835 1.314 . S
C833 H874 0.930 . S
C834 C832 1.358 . S
C834 N835 1.279 . S
C834 H875 0.930 . S
N835 C833 1.314 . S
N835 C834 1.279 . S
C836 C838 1.353 . S
C836 N839 1.314 . S
C836 H842 0.930 . S
C837 N839 1.279 . S
C837 C840 1.358 . S
C837 H843 0.930 . S
C838 C836 1.353 . S
C838 C841 1.348 . S
C838 H876 0.929 . S
N839 Li794 1.990 . S
N839 C836 1.314 . S
N839 C837 1.279 . S
C840 C837 1.358 . S
C840 C841 1.356 . S
C840 H877 0.930 . S
C841 C838 1.348 . S
C841 C840 1.356 . S
H842 C836 0.930 . S
H843 C837 0.930 . S
C844 N845 1.314 . S
C844 C846 1.353 . S
C844 H850 0.930 . S
N845 Li795 1.990 . S
N845 C844 1.314 . S
N845 C848 1.279 . S
C846 C844 1.353 . S
C846 C849 1.348 . S
C846 H878 0.929 . S
C847 C848 1.358 . S
C847 C849 1.356 . S
C847 H879 0.930 . S
C848 N845 1.279 . S
C848 C847 1.358 . S
C848 H851 0.930 . S
C849 C846 1.348 . S
C849 C847 1.356 . S
H850 C844 0.930 . S
H851 C848 0.930 . S
O852 Li792 1.956 . S
O852 Li793 1.970 . S
O852 Li794 1.961 . S
O852 C796 1.325 . S
O853 Li792 1.970 . S
O853 Li793 1.956 . S
O853 Li795 1.961 . S
O853 C802 1.325 . S
O854 Li792 1.961 . S
O854 Li794 1.956 . S
O854 Li795 1.970 . S
O854 C824 1.325 . S
O855 Li793 1.961 . S
O855 Li794 1.970 . S
O855 Li795 1.956 . S
O855 C830 1.325 . S
H856 C798 0.929 . S
H857 C799 0.930 . S
H858 C800 0.930 . S
H859 C801 0.930 . S
H860 C803 0.930 . S
H861 C805 0.929 . S
H862 C806 0.930 . S
H863 C807 0.930 . S
H864 C810 0.930 . S
H865 C813 0.929 . S
H866 C818 0.929 . S
H867 C819 0.930 . S
H868 C826 0.929 . S
H869 C827 0.930 . S
H870 C828 0.930 . S
H871 C829 0.930 . S
H872 C831 0.929 . S
H873 C832 0.930 . S
H874 C833 0.930 . S
H875 C834 0.930 . S
H876 C838 0.929 . S
H877 C840 0.930 . S
H878 C846 0.929 . S
H879 C847 0.930 . S
Li880 N897 1.990 . S
Li880 O940 1.956 . S
Li880 O941 1.970 . S
Li880 O942 1.961 . S
Li881 N905 1.990 . S
Li881 O940 1.970 . S
Li881 O941 1.956 . S
Li881 O943 1.961 . S
Li882 N927 1.990 . S
Li882 O940 1.961 . S
Li882 O942 1.956 . S
Li882 O943 1.970 . S
Li883 N933 1.990 . S
Li883 O941 1.961 . S
Li883 O942 1.970 . S
Li883 O943 1.956 . S
C884 C886 1.348 . S
C884 C887 1.356 . S
C884 O940 1.325 . S
N885 C888 1.314 . S
N885 C889 1.279 . S
C886 C884 1.348 . S
C886 C888 1.353 . S
C886 H944 0.929 . S
C887 C884 1.356 . S
C887 C889 1.358 . S
C887 H945 0.930 . S
C888 N885 1.314 . S
C888 C886 1.353 . S
C888 H946 0.930 . S
C889 N885 1.279 . S
C889 C887 1.358 . S
C889 H947 0.930 . S
C890 C893 1.348 . S
C890 C894 1.356 . S
C890 O941 1.325 . S
C891 N892 1.279 . S
C891 C894 1.358 . S
C891 H948 0.930 . S
N892 C891 1.279 . S
N892 C895 1.314 . S
C893 C890 1.348 . S
C893 C895 1.353 . S
C893 H949 0.929 . S
C894 C890 1.356 . S
C894 C891 1.358 . S
C894 H950 0.930 . S
C895 N892 1.314 . S
C895 C893 1.353 . S
C895 H951 0.930 . S
C896 N897 1.314 . S
C896 C901 1.353 . S
C896 H902 0.930 . S
N897 Li880 1.990 . S
N897 C896 1.314 . S
N897 C899 1.279 . S
C898 C899 1.358 . S
C898 C900 1.356 . S
C898 H952 0.930 . S
C899 N897 1.279 . S
C899 C898 1.358 . S
C899 H903 0.930 . S
C900 C898 1.356 . S
C900 C901 1.348 . S
C901 C896 1.353 . S
C901 C900 1.348 . S
C901 H953 0.929 . S
H902 C896 0.930 . S
H903 C899 0.930 . S
C904 N905 1.314 . S
C904 C906 1.353 . S
C904 H910 0.930 . S
N905 Li881 1.990 . S
N905 C904 1.314 . S
N905 C908 1.279 . S
C906 C904 1.353 . S
C906 C909 1.348 . S
C906 H954 0.929 . S
C907 C908 1.358 . S
C907 C909 1.356 . S
C907 H955 0.930 . S
C908 N905 1.279 . S
C908 C907 1.358 . S
C908 H911 0.930 . S
C909 C906 1.348 . S
C909 C907 1.356 . S
H910 C904 0.930 . S
H911 C908 0.930 . S
C912 C914 1.348 . S
C912 C915 1.356 . S
C912 O942 1.325 . S
N913 C916 1.314 . S
N913 C917 1.279 . S
C914 C912 1.348 . S
C914 C916 1.353 . S
C914 H956 0.929 . S
C915 C912 1.356 . S
C915 C917 1.358 . S
C915 H957 0.930 . S
C916 N913 1.314 . S
C916 C914 1.353 . S
C916 H958 0.930 . S
C917 N913 1.279 . S
C917 C915 1.358 . S
C917 H959 0.930 . S
C918 C919 1.348 . S
C918 C920 1.356 . S
C918 O943 1.325 . S
C919 C918 1.348 . S
C919 C921 1.353 . S
C919 H960 0.929 . S
C920 C918 1.356 . S
C920 C922 1.358 . S
C920 H961 0.930 . S
C921 C919 1.353 . S
C921 N923 1.314 . S
C921 H962 0.930 . S
C922 C920 1.358 . S
C922 N923 1.279 . S
C922 H963 0.930 . S
N923 C921 1.314 . S
N923 C922 1.279 . S
C924 C926 1.353 . S
C924 N927 1.314 . S
C924 H930 0.930 . S
C925 N927 1.279 . S
C925 C928 1.358 . S
C925 H931 0.930 . S
C926 C924 1.353 . S
C926 C929 1.348 . S
C926 H964 0.929 . S
N927 Li882 1.990 . S
N927 C924 1.314 . S
N927 C925 1.279 . S
C928 C925 1.358 . S
C928 C929 1.356 . S
C928 H965 0.930 . S
C929 C926 1.348 . S
C929 C928 1.356 . S
H930 C924 0.930 . S
H931 C925 0.930 . S
C932 N933 1.314 . S
C932 C934 1.353 . S
C932 H938 0.930 . S
N933 Li883 1.990 . S
N933 C932 1.314 . S
N933 C936 1.279 . S
C934 C932 1.353 . S
C934 C937 1.348 . S
C934 H966 0.929 . S
C935 C936 1.358 . S
C935 C937 1.356 . S
C935 H967 0.930 . S
C936 N933 1.279 . S
C936 C935 1.358 . S
C936 H939 0.930 . S
C937 C934 1.348 . S
C937 C935 1.356 . S
H938 C932 0.930 . S
H939 C936 0.930 . S
O940 Li880 1.956 . S
O940 Li881 1.970 . S
O940 Li882 1.961 . S
O940 C884 1.325 . S
O941 Li880 1.970 . S
O941 Li881 1.956 . S
O941 Li883 1.961 . S
O941 C890 1.325 . S
O942 Li880 1.961 . S
O942 Li882 1.956 . S
O942 Li883 1.970 . S
O942 C912 1.325 . S
O943 Li881 1.961 . S
O943 Li882 1.970 . S
O943 Li883 1.956 . S
O943 C918 1.325 . S
H944 C886 0.929 . S
H945 C887 0.930 . S
H946 C888 0.930 . S
H947 C889 0.930 . S
H948 C891 0.930 . S
H949 C893 0.929 . S
H950 C894 0.930 . S
H951 C895 0.930 . S
H952 C898 0.930 . S
H953 C901 0.929 . S
H954 C906 0.929 . S
H955 C907 0.930 . S
H956 C914 0.929 . S
H957 C915 0.930 . S
H958 C916 0.930 . S
H959 C917 0.930 . S
H960 C919 0.929 . S
H961 C920 0.930 . S
H962 C921 0.930 . S
H963 C922 0.930 . S
H964 C926 0.929 . S
H965 C928 0.930 . S
H966 C934 0.929 . S
H967 C935 0.930 . S
Li968 N985 1.990 . S
Li968 O1028 1.956 . S
Li968 O1029 1.970 . S
Li968 O1030 1.961 . S
Li969 N993 1.990 . S
Li969 O1028 1.970 . S
Li969 O1029 1.956 . S
Li969 O1031 1.961 . S
Li970 N1015 1.990 . S
Li970 O1028 1.961 . S
Li970 O1030 1.956 . S
Li970 O1031 1.970 . S
Li971 N1021 1.990 . S
Li971 O1029 1.961 . S
Li971 O1030 1.970 . S
Li971 O1031 1.956 . S
C972 C974 1.348 . S
C972 C975 1.356 . S
C972 O1028 1.325 . S
N973 C976 1.314 . S
N973 C977 1.279 . S
C974 C972 1.348 . S
C974 C976 1.353 . S
C974 H1032 0.929 . S
C975 C972 1.356 . S
C975 C977 1.358 . S
C975 H1033 0.930 . S
C976 N973 1.314 . S
C976 C974 1.353 . S
C976 H1034 0.930 . S
C977 N973 1.279 . S
C977 C975 1.358 . S
C977 H1035 0.930 . S
C978 C981 1.348 . S
C978 C982 1.356 . S
C978 O1029 1.325 . S
C979 N980 1.279 . S
C979 C982 1.358 . S
C979 H1036 0.930 . S
N980 C979 1.279 . S
N980 C983 1.314 . S
C981 C978 1.348 . S
C981 C983 1.353 . S
C981 H1037 0.929 . S
C982 C978 1.356 . S
C982 C979 1.358 . S
C982 H1038 0.930 . S
C983 N980 1.314 . S
C983 C981 1.353 . S
C983 H1039 0.930 . S
C984 N985 1.314 . S
C984 C989 1.353 . S
C984 H990 0.930 . S
N985 Li968 1.990 . S
N985 C984 1.314 . S
N985 C987 1.279 . S
C986 C987 1.358 . S
C986 C988 1.356 . S
C986 H1040 0.930 . S
C987 N985 1.279 . S
C987 C986 1.358 . S
C987 H991 0.930 . S
C988 C986 1.356 . S
C988 C989 1.348 . S
C989 C984 1.353 . S
C989 C988 1.348 . S
C989 H1041 0.929 . S
H990 C984 0.930 . S
H991 C987 0.930 . S
C992 N993 1.314 . S
C992 C994 1.353 . S
C992 H998 0.930 . S
N993 Li969 1.990 . S
N993 C992 1.314 . S
N993 C996 1.279 . S
C994 C992 1.353 . S
C994 C997 1.348 . S
C994 H1042 0.929 . S
C995 C996 1.358 . S
C995 C997 1.356 . S
C995 H1043 0.930 . S
C996 N993 1.279 . S
C996 C995 1.358 . S
C996 H999 0.930 . S
C997 C994 1.348 . S
C997 C995 1.356 . S
H998 C992 0.930 . S
H999 C996 0.930 . S
C1000 C1002 1.348 . S
C1000 C1003 1.356 . S
C1000 O1030 1.325 . S
N1001 C1004 1.314 . S
N1001 C1005 1.279 . S
C1002 C1000 1.348 . S
C1002 C1004 1.353 . S
C1002 H1044 0.929 . S
C1003 C1000 1.356 . S
C1003 C1005 1.358 . S
C1003 H1045 0.930 . S
C1004 N1001 1.314 . S
C1004 C1002 1.353 . S
C1004 H1046 0.930 . S
C1005 N1001 1.279 . S
C1005 C1003 1.358 . S
C1005 H1047 0.930 . S
C1006 C1007 1.348 . S
C1006 C1008 1.356 . S
C1006 O1031 1.325 . S
C1007 C1006 1.348 . S
C1007 C1009 1.353 . S
C1007 H1048 0.929 . S
C1008 C1006 1.356 . S
C1008 C1010 1.358 . S
C1008 H1049 0.930 . S
C1009 C1007 1.353 . S
C1009 N1011 1.314 . S
C1009 H1050 0.930 . S
C1010 C1008 1.358 . S
C1010 N1011 1.279 . S
C1010 H1051 0.930 . S
N1011 C1009 1.314 . S
N1011 C1010 1.279 . S
C1012 C1014 1.353 . S
C1012 N1015 1.314 . S
C1012 H1018 0.930 . S
C1013 N1015 1.279 . S
C1013 C1016 1.358 . S
C1013 H1019 0.930 . S
C1014 C1012 1.353 . S
C1014 C1017 1.348 . S
C1014 H1052 0.929 . S
N1015 Li970 1.990 . S
N1015 C1012 1.314 . S
N1015 C1013 1.279 . S
C1016 C1013 1.358 . S
C1016 C1017 1.356 . S
C1016 H1053 0.930 . S
C1017 C1014 1.348 . S
C1017 C1016 1.356 . S
H1018 C1012 0.930 . S
H1019 C1013 0.930 . S
C1020 N1021 1.314 . S
C1020 C1022 1.353 . S
C1020 H1026 0.930 . S
N1021 Li971 1.990 . S
N1021 C1020 1.314 . S
N1021 C1024 1.279 . S
C1022 C1020 1.353 . S
C1022 C1025 1.348 . S
C1022 H1054 0.929 . S
C1023 C1024 1.358 . S
C1023 C1025 1.356 . S
C1023 H1055 0.930 . S
C1024 N1021 1.279 . S
C1024 C1023 1.358 . S
C1024 H1027 0.930 . S
C1025 C1022 1.348 . S
C1025 C1023 1.356 . S
H1026 C1020 0.930 . S
H1027 C1024 0.930 . S
O1028 Li968 1.956 . S
O1028 Li969 1.970 . S
O1028 Li970 1.961 . S
O1028 C972 1.325 . S
O1029 Li968 1.970 . S
O1029 Li969 1.956 . S
O1029 Li971 1.961 . S
O1029 C978 1.325 . S
O1030 Li968 1.961 . S
O1030 Li970 1.956 . S
O1030 Li971 1.970 . S
O1030 C1000 1.325 . S
O1031 Li969 1.961 . S
O1031 Li970 1.970 . S
O1031 Li971 1.956 . S
O1031 C1006 1.325 . S
H1032 C974 0.929 . S
H1033 C975 0.930 . S
H1034 C976 0.930 . S
H1035 C977 0.930 . S
H1036 C979 0.930 . S
H1037 C981 0.929 . S
H1038 C982 0.930 . S
H1039 C983 0.930 . S
H1040 C986 0.930 . S
H1041 C989 0.929 . S
H1042 C994 0.929 . S
H1043 C995 0.930 . S
H1044 C1002 0.929 . S
H1045 C1003 0.930 . S
H1046 C1004 0.930 . S
H1047 C1005 0.930 . S
H1048 C1007 0.929 . S
H1049 C1008 0.930 . S
H1050 C1009 0.930 . S
H1051 C1010 0.930 . S
H1052 C1014 0.929 . S
H1053 C1016 0.930 . S
H1054 C1022 0.929 . S
H1055 C1023 0.930 . S
Li1056 N1073 1.990 . S
Li1056 O1116 1.956 1_655 S
Li1056 O1117 1.970 . S
Li1056 O1118 1.961 1_655 S
Li1057 N1081 1.990 . S
Li1057 O1116 1.970 . S
Li1057 O1117 1.956 1_455 S
Li1057 O1119 1.961 . S
Li1058 N1103 1.990 . S
Li1058 O1116 1.961 . S
Li1058 O1118 1.956 . S
Li1058 O1119 1.970 . S
Li1059 N1109 1.990 . S
Li1059 O1117 1.961 1_455 S
Li1059 O1118 1.970 . S
Li1059 O1119 1.956 . S
C1060 C1062 1.361 . S
C1060 C1063 1.356 . S
C1060 O1116 1.325 . S
N1061 C1064 1.324 . S
N1061 C1065 1.279 . S
C1062 C1060 1.361 . S
C1062 C1064 1.353 . S
C1062 H1120 0.918 1_455 S
C1063 C1060 1.356 . S
C1063 C1065 1.358 . S
C1063 H1121 0.930 . S
C1064 N1061 1.324 . S
C1064 C1062 1.353 . S
C1064 H1122 0.920 1_455 S
C1065 N1061 1.279 . S
C1065 C1063 1.358 . S
C1065 H1123 0.930 . S
C1066 C1069 1.348 . S
C1066 C1070 1.356 . S
C1066 O1117 1.325 . S
C1067 N1068 1.279 . S
C1067 C1070 1.358 . S
C1067 H1124 0.930 . S
N1068 C1067 1.279 . S
N1068 C1071 1.314 . S
C1069 C1066 1.348 . S
C1069 C1071 1.353 . S
C1069 H1125 0.929 . S
C1070 C1066 1.356 . S
C1070 C1067 1.358 . S
C1070 H1126 0.930 . S
C1071 N1068 1.314 . S
C1071 C1069 1.353 . S
C1071 H1127 0.930 . S
C1072 N1073 1.314 . S
C1072 C1077 1.353 . S
C1072 H1078 0.930 . S
N1073 Li1056 1.990 . S
N1073 C1072 1.314 . S
N1073 C1075 1.279 . S
C1074 C1075 1.358 . S
C1074 C1076 1.356 . S
C1074 H1128 0.930 . S
C1075 N1073 1.279 . S
C1075 C1074 1.358 . S
C1075 H1079 0.930 . S
C1076 C1074 1.356 . S
C1076 C1077 1.348 . S
C1077 C1072 1.353 . S
C1077 C1076 1.348 . S
C1077 H1129 0.929 . S
H1078 C1072 0.930 . S
H1079 C1075 0.930 . S
C1080 N1081 1.314 . S
C1080 C1082 1.353 . S
C1080 H1086 0.930 . S
N1081 Li1057 1.990 . S
N1081 C1080 1.314 . S
N1081 C1084 1.279 1_455 S
C1082 C1080 1.353 . S
C1082 C1085 1.348 . S
C1082 H1130 0.929 . S
C1083 C1084 1.358 . S
C1083 C1085 1.356 1_655 S
C1083 H1131 0.930 . S
C1084 N1081 1.279 1_655 S
C1084 C1083 1.358 . S
C1084 H1087 0.930 . S
C1085 C1082 1.348 . S
C1085 C1083 1.356 1_455 S
H1086 C1080 0.930 . S
H1087 C1084 0.930 . S
C1088 C1090 1.348 . S
C1088 C1091 1.356 . S
C1088 O1118 1.325 . S
N1089 C1092 1.314 . S
N1089 C1093 1.279 . S
C1090 C1088 1.348 . S
C1090 C1092 1.353 . S
C1090 H1132 0.929 . S
C1091 C1088 1.356 . S
C1091 C1093 1.358 . S
C1091 H1133 0.929 . S
C1092 N1089 1.314 . S
C1092 C1090 1.353 . S
C1092 H1134 0.930 . S
C1093 N1089 1.279 . S
C1093 C1091 1.358 . S
C1093 H1135 0.932 . S
C1094 C1095 1.348 . S
C1094 C1096 1.356 . S
C1094 O1119 1.325 . S
C1095 C1094 1.348 . S
C1095 C1097 1.353 . S
C1095 H1136 0.929 . S
C1096 C1094 1.356 . S
C1096 C1098 1.358 . S
C1096 H1137 0.930 . S
C1097 C1095 1.353 . S
C1097 N1099 1.314 . S
C1097 H1138 0.930 . S
C1098 C1096 1.358 . S
C1098 N1099 1.279 . S
C1098 H1139 0.930 . S
N1099 C1097 1.314 . S
N1099 C1098 1.279 . S
C1100 C1102 1.353 . S
C1100 N1103 1.314 . S
C1100 H1106 0.930 . S
C1101 N1103 1.279 . S
C1101 C1104 1.358 . S
C1101 H1107 0.930 . S
C1102 C1100 1.353 . S
C1102 C1105 1.348 . S
C1102 H1140 0.929 . S
N1103 Li1058 1.990 . S
N1103 C1100 1.314 . S
N1103 C1101 1.279 . S
C1104 C1101 1.358 . S
C1104 C1105 1.356 . S
C1104 H1141 0.930 . S
C1105 C1102 1.348 . S
C1105 C1104 1.356 . S
H1106 C1100 0.930 . S
H1107 C1101 0.930 . S
C1108 N1109 1.314 1_655 S
C1108 C1110 1.353 . S
C1108 H1114 0.930 . S
N1109 Li1059 1.990 . S
N1109 C1108 1.314 1_455 S
N1109 C1112 1.279 . S
C1110 C1108 1.353 . S
C1110 C1113 1.348 1_655 S
C1110 H1142 0.929 . S
C1111 C1112 1.358 . S
C1111 C1113 1.356 . S
C1111 H1143 0.930 . S
C1112 N1109 1.279 . S
C1112 C1111 1.358 . S
C1112 H1115 0.930 . S
C1113 C1110 1.348 1_455 S
C1113 C1111 1.356 . S
H1114 C1108 0.930 . S
H1115 C1112 0.930 . S
O1116 Li1056 1.956 1_455 S
O1116 Li1057 1.970 . S
O1116 Li1058 1.961 . S
O1116 C1060 1.325 . S
O1117 Li1056 1.970 . S
O1117 Li1057 1.956 1_655 S
O1117 Li1059 1.961 1_655 S
O1117 C1066 1.325 . S
O1118 Li1056 1.961 1_455 S
O1118 Li1058 1.956 . S
O1118 Li1059 1.970 . S
O1118 C1088 1.325 . S
O1119 Li1057 1.961 . S
O1119 Li1058 1.970 . S
O1119 Li1059 1.956 . S
O1119 C1094 1.325 . S
H1120 C1062 0.918 1_655 S
H1121 C1063 0.930 . S
H1122 C1064 0.920 1_655 S
H1123 C1065 0.930 . S
H1124 C1067 0.930 . S
H1125 C1069 0.929 . S
H1126 C1070 0.930 . S
H1127 C1071 0.930 . S
H1128 C1074 0.930 . S
H1129 C1077 0.929 . S
H1130 C1082 0.929 . S
H1131 C1083 0.930 . S
H1132 C1090 0.929 . S
H1133 C1091 0.929 . S
H1134 C1092 0.930 . S
H1135 C1093 0.932 . S
H1136 C1095 0.929 . S
H1137 C1096 0.930 . S
H1138 C1097 0.930 . S
H1139 C1098 0.930 . S
H1140 C1102 0.929 . S
H1141 C1104 0.930 . S
H1142 C1110 0.929 . S
H1143 C1111 0.930 . S
Li1144 N1161 1.990 . S
Li1144 O1204 1.956 . S
Li1144 O1205 1.970 . S
Li1144 O1206 1.961 1_455 S
Li1145 N1169 1.990 . S
Li1145 O1204 1.970 . S
Li1145 O1205 1.956 . S
Li1145 O1207 1.961 . S
Li1146 N1191 1.990 . S
Li1146 O1204 1.961 . S
Li1146 O1206 1.956 1_455 S
Li1146 O1207 1.970 . S
Li1147 N1197 1.990 . S
Li1147 O1205 1.961 1_655 S
Li1147 O1206 1.970 . S
Li1147 O1207 1.956 1_655 S
C1148 C1150 1.348 . S
C1148 C1151 1.356 . S
C1148 O1204 1.325 . S
N1149 C1152 1.314 . S
N1149 C1153 1.279 . S
C1150 C1148 1.348 . S
C1150 C1152 1.353 . S
C1150 H1208 0.929 . S
C1151 C1148 1.356 . S
C1151 C1153 1.358 . S
C1151 H1209 0.930 . S
C1152 N1149 1.314 . S
C1152 C1150 1.353 . S
C1152 H1210 0.930 . S
C1153 N1149 1.279 . S
C1153 C1151 1.358 . S
C1153 H1211 0.930 . S
C1154 C1157 1.348 . S
C1154 C1158 1.356 . S
C1154 O1205 1.325 . S
C1155 N1156 1.279 . S
C1155 C1158 1.358 . S
C1155 H1212 0.930 1_455 S
N1156 C1155 1.279 . S
N1156 C1159 1.314 . S
C1157 C1154 1.348 . S
C1157 C1159 1.353 . S
C1157 H1213 0.929 . S
C1158 C1154 1.356 . S
C1158 C1155 1.358 . S
C1158 H1214 0.930 1_455 S
C1159 N1156 1.314 . S
C1159 C1157 1.353 . S
C1159 H1215 0.930 . S
C1160 N1161 1.314 1_655 S
C1160 C1165 1.353 . S
C1160 H1166 0.930 . S
N1161 Li1144 1.990 . S
N1161 C1160 1.314 1_455 S
N1161 C1163 1.279 . S
C1162 C1163 1.358 . S
C1162 C1164 1.356 . S
C1162 H1216 0.930 . S
C1163 N1161 1.279 . S
C1163 C1162 1.358 . S
C1163 H1167 0.930 . S
C1164 C1162 1.356 . S
C1164 C1165 1.348 1_455 S
C1165 C1160 1.353 . S
C1165 C1164 1.348 1_655 S
C1165 H1217 0.929 . S
H1166 C1160 0.930 . S
H1167 C1163 0.930 . S
C1168 N1169 1.314 . S
C1168 C1170 1.353 . S
C1168 H1174 0.930 . S
N1169 Li1145 1.990 . S
N1169 C1168 1.314 . S
N1169 C1172 1.279 . S
C1170 C1168 1.353 . S
C1170 C1173 1.348 . S
C1170 H1218 0.929 . S
C1171 C1172 1.358 . S
C1171 C1173 1.356 . S
C1171 H1219 0.930 . S
C1172 N1169 1.279 . S
C1172 C1171 1.358 . S
C1172 H1175 0.930 . S
C1173 C1170 1.348 . S
C1173 C1171 1.356 . S
H1174 C1168 0.930 . S
H1175 C1172 0.930 . S
C1176 C1178 1.348 . S
C1176 C1179 1.356 . S
C1176 O1206 1.325 . S
N1177 C1180 1.314 . S
N1177 C1181 1.279 . S
C1178 C1176 1.348 . S
C1178 C1180 1.353 . S
C1178 H1220 0.929 . S
C1179 C1176 1.356 . S
C1179 C1181 1.358 . S
C1179 H1221 0.930 . S
C1180 N1177 1.314 . S
C1180 C1178 1.353 . S
C1180 H1222 0.930 . S
C1181 N1177 1.279 . S
C1181 C1179 1.358 . S
C1181 H1223 0.930 . S
C1182 C1183 1.341 1_455 S
C1182 C1184 1.356 . S
C1182 O1207 1.325 . S
C1183 C1182 1.341 1_655 S
C1183 C1185 1.353 . S
C1183 H1224 0.936 . S
C1184 C1182 1.356 . S
C1184 C1186 1.358 . S
C1184 H1225 0.930 . S
C1185 C1183 1.353 . S
C1185 N1187 1.310 1_655 S
C1185 H1226 0.935 . S
C1186 C1184 1.358 . S
C1186 N1187 1.279 . S
C1186 H1227 0.930 . S
N1187 C1185 1.310 1_455 S
N1187 C1186 1.279 . S
C1188 C1190 1.353 . S
C1188 N1191 1.314 . S
C1188 H1194 0.930 . S
C1189 N1191 1.279 1_655 S
C1189 C1192 1.358 . S
C1189 H1195 0.930 . S
C1190 C1188 1.353 . S
C1190 C1193 1.348 . S
C1190 H1228 0.929 . S
N1191 Li1146 1.990 . S
N1191 C1188 1.314 . S
N1191 C1189 1.279 1_455 S
C1192 C1189 1.358 . S
C1192 C1193 1.356 1_655 S
C1192 H1229 0.930 . S
C1193 C1190 1.348 . S
C1193 C1192 1.356 1_455 S
H1194 C1188 0.930 . S
H1195 C1189 0.930 . S
C1196 N1197 1.314 . S
C1196 C1198 1.353 . S
C1196 H1202 0.930 . S
N1197 Li1147 1.990 . S
N1197 C1196 1.314 . S
N1197 C1200 1.279 . S
C1198 C1196 1.353 . S
C1198 C1201 1.348 . S
C1198 H1230 0.929 . S
C1199 C1200 1.358 . S
C1199 C1201 1.356 . S
C1199 H1231 0.930 . S
C1200 N1197 1.279 . S
C1200 C1199 1.358 . S
C1200 H1203 0.930 . S
C1201 C1198 1.348 . S
C1201 C1199 1.356 . S
H1202 C1196 0.930 . S
H1203 C1200 0.930 . S
O1204 Li1144 1.956 . S
O1204 Li1145 1.970 . S
O1204 Li1146 1.961 . S
O1204 C1148 1.325 . S
O1205 Li1144 1.970 . S
O1205 Li1145 1.956 . S
O1205 Li1147 1.961 1_455 S
O1205 C1154 1.325 . S
O1206 Li1144 1.961 1_655 S
O1206 Li1146 1.956 1_655 S
O1206 Li1147 1.970 . S
O1206 C1176 1.325 . S
O1207 Li1145 1.961 . S
O1207 Li1146 1.970 . S
O1207 Li1147 1.956 1_455 S
O1207 C1182 1.325 . S
H1208 C1150 0.929 . S
H1209 C1151 0.930 . S
H1210 C1152 0.930 . S
H1211 C1153 0.930 . S
H1212 C1155 0.930 1_655 S
H1213 C1157 0.929 . S
H1214 C1158 0.930 1_655 S
H1215 C1159 0.930 . S
H1216 C1162 0.930 . S
H1217 C1165 0.929 . S
H1218 C1170 0.929 . S
H1219 C1171 0.930 . S
H1220 C1178 0.929 . S
H1221 C1179 0.930 . S
H1222 C1180 0.930 . S
H1223 C1181 0.930 . S
H1224 C1183 0.936 . S
H1225 C1184 0.930 . S
H1226 C1185 0.935 . S
H1227 C1186 0.930 . S
H1228 C1190 0.929 . S
H1229 C1192 0.930 . S
H1230 C1198 0.929 . S
H1231 C1199 0.930 . S
Li1232 N1249 1.990 . S
Li1232 O1292 1.956 . S
Li1232 O1293 1.970 . S
Li1232 O1294 1.961 . S
Li1233 N1257 1.990 . S
Li1233 O1292 1.970 . S
Li1233 O1293 1.956 . S
Li1233 O1295 1.961 . S
Li1234 N1279 1.990 . S
Li1234 O1292 1.961 . S
Li1234 O1294 1.956 . S
Li1234 O1295 1.970 . S
Li1235 N1285 1.990 . S
Li1235 O1293 1.961 . S
Li1235 O1294 1.970 . S
Li1235 O1295 1.956 . S
C1236 C1238 1.348 . S
C1236 C1239 1.356 . S
C1236 O1292 1.325 . S
N1237 C1240 1.314 . S
N1237 C1241 1.279 . S
C1238 C1236 1.348 . S
C1238 C1240 1.353 . S
C1238 H1296 0.929 . S
C1239 C1236 1.356 . S
C1239 C1241 1.358 . S
C1239 H1297 0.930 . S
C1240 N1237 1.314 . S
C1240 C1238 1.353 . S
C1240 H1298 0.930 . S
C1241 N1237 1.279 . S
C1241 C1239 1.358 . S
C1241 H1299 0.930 . S
C1242 C1245 1.348 . S
C1242 C1246 1.356 . S
C1242 O1293 1.325 . S
C1243 N1244 1.279 . S
C1243 C1246 1.358 . S
C1243 H1300 0.930 . S
N1244 C1243 1.279 . S
N1244 C1247 1.314 . S
C1245 C1242 1.348 . S
C1245 C1247 1.353 . S
C1245 H1301 0.929 . S
C1246 C1242 1.356 . S
C1246 C1243 1.358 . S
C1246 H1302 0.930 . S
C1247 N1244 1.314 . S
C1247 C1245 1.353 . S
C1247 H1303 0.930 . S
C1248 N1249 1.314 . S
C1248 C1253 1.353 . S
C1248 H1254 0.930 . S
N1249 Li1232 1.990 . S
N1249 C1248 1.314 . S
N1249 C1251 1.279 . S
C1250 C1251 1.358 . S
C1250 C1252 1.356 . S
C1250 H1304 0.930 . S
C1251 N1249 1.279 . S
C1251 C1250 1.358 . S
C1251 H1255 0.930 . S
C1252 C1250 1.356 . S
C1252 C1253 1.348 . S
C1253 C1248 1.353 . S
C1253 C1252 1.348 . S
C1253 H1305 0.929 . S
H1254 C1248 0.930 . S
H1255 C1251 0.930 . S
C1256 N1257 1.314 . S
C1256 C1258 1.353 . S
C1256 H1262 0.930 . S
N1257 Li1233 1.990 . S
N1257 C1256 1.314 . S
N1257 C1260 1.279 . S
C1258 C1256 1.353 . S
C1258 C1261 1.348 . S
C1258 H1306 0.929 . S
C1259 C1260 1.358 . S
C1259 C1261 1.356 . S
C1259 H1307 0.930 . S
C1260 N1257 1.279 . S
C1260 C1259 1.358 . S
C1260 H1263 0.930 . S
C1261 C1258 1.348 . S
C1261 C1259 1.356 . S
H1262 C1256 0.930 . S
H1263 C1260 0.930 . S
C1264 C1266 1.348 . S
C1264 C1267 1.356 . S
C1264 O1294 1.325 . S
N1265 C1268 1.314 . S
N1265 C1269 1.279 . S
C1266 C1264 1.348 . S
C1266 C1268 1.353 . S
C1266 H1308 0.929 . S
C1267 C1264 1.356 . S
C1267 C1269 1.358 . S
C1267 H1309 0.930 . S
C1268 N1265 1.314 . S
C1268 C1266 1.353 . S
C1268 H1310 0.930 . S
C1269 N1265 1.279 . S
C1269 C1267 1.358 . S
C1269 H1311 0.930 . S
C1270 C1271 1.348 . S
C1270 C1272 1.356 . S
C1270 O1295 1.325 . S
C1271 C1270 1.348 . S
C1271 C1273 1.353 . S
C1271 H1312 0.929 . S
C1272 C1270 1.356 . S
C1272 C1274 1.358 . S
C1272 H1313 0.930 . S
C1273 C1271 1.353 . S
C1273 N1275 1.314 . S
C1273 H1314 0.930 . S
C1274 C1272 1.358 . S
C1274 N1275 1.279 . S
C1274 H1315 0.930 . S
N1275 C1273 1.314 . S
N1275 C1274 1.279 . S
C1276 C1278 1.353 . S
C1276 N1279 1.314 . S
C1276 H1282 0.930 . S
C1277 N1279 1.279 . S
C1277 C1280 1.358 . S
C1277 H1283 0.930 . S
C1278 C1276 1.353 . S
C1278 C1281 1.348 . S
C1278 H1316 0.929 . S
N1279 Li1234 1.990 . S
N1279 C1276 1.314 . S
N1279 C1277 1.279 . S
C1280 C1277 1.358 . S
C1280 C1281 1.356 . S
C1280 H1317 0.930 . S
C1281 C1278 1.348 . S
C1281 C1280 1.356 . S
H1282 C1276 0.930 . S
H1283 C1277 0.930 . S
C1284 N1285 1.314 . S
C1284 C1286 1.353 . S
C1284 H1290 0.930 . S
N1285 Li1235 1.990 . S
N1285 C1284 1.314 . S
N1285 C1288 1.279 . S
C1286 C1284 1.353 . S
C1286 C1289 1.348 . S
C1286 H1318 0.929 . S
C1287 C1288 1.358 . S
C1287 C1289 1.356 . S
C1287 H1319 0.930 . S
C1288 N1285 1.279 . S
C1288 C1287 1.358 . S
C1288 H1291 0.930 . S
C1289 C1286 1.348 . S
C1289 C1287 1.356 . S
H1290 C1284 0.930 . S
H1291 C1288 0.930 . S
O1292 Li1232 1.956 . S
O1292 Li1233 1.970 . S
O1292 Li1234 1.961 . S
O1292 C1236 1.325 . S
O1293 Li1232 1.970 . S
O1293 Li1233 1.956 . S
O1293 Li1235 1.961 . S
O1293 C1242 1.325 . S
O1294 Li1232 1.961 . S
O1294 Li1234 1.956 . S
O1294 Li1235 1.970 . S
O1294 C1264 1.325 . S
O1295 Li1233 1.961 . S
O1295 Li1234 1.970 . S
O1295 Li1235 1.956 . S
O1295 C1270 1.325 . S
H1296 C1238 0.929 . S
H1297 C1239 0.930 . S
H1298 C1240 0.930 . S
H1299 C1241 0.930 . S
H1300 C1243 0.930 . S
H1301 C1245 0.929 . S
H1302 C1246 0.930 . S
H1303 C1247 0.930 . S
H1304 C1250 0.930 . S
H1305 C1253 0.929 . S
H1306 C1258 0.929 . S
H1307 C1259 0.930 . S
H1308 C1266 0.929 . S
H1309 C1267 0.930 . S
H1310 C1268 0.930 . S
H1311 C1269 0.930 . S
H1312 C1271 0.929 . S
H1313 C1272 0.930 . S
H1314 C1273 0.930 . S
H1315 C1274 0.930 . S
H1316 C1278 0.929 . S
H1317 C1280 0.930 . S
H1318 C1286 0.929 . S
H1319 C1287 0.930 . S
Li1320 N1337 1.990 . S
Li1320 O1380 1.956 . S
Li1320 O1381 1.970 . S
Li1320 O1382 1.961 . S
Li1321 N1345 1.990 . S
Li1321 O1380 1.970 . S
Li1321 O1381 1.956 . S
Li1321 O1383 1.961 . S
Li1322 N1367 1.990 . S
Li1322 O1380 1.961 . S
Li1322 O1382 1.956 . S
Li1322 O1383 1.970 . S
Li1323 N1373 1.990 . S
Li1323 O1381 1.961 . S
Li1323 O1382 1.970 . S
Li1323 O1383 1.956 . S
C1324 C1326 1.348 . S
C1324 C1327 1.356 . S
C1324 O1380 1.325 . S
N1325 C1328 1.314 . S
N1325 C1329 1.279 . S
C1326 C1324 1.348 . S
C1326 C1328 1.353 . S
C1326 H1384 0.929 . S
C1327 C1324 1.356 . S
C1327 C1329 1.358 . S
C1327 H1385 0.930 . S
C1328 N1325 1.314 . S
C1328 C1326 1.353 . S
C1328 H1386 0.930 . S
C1329 N1325 1.279 . S
C1329 C1327 1.358 . S
C1329 H1387 0.930 . S
C1330 C1333 1.348 . S
C1330 C1334 1.356 . S
C1330 O1381 1.325 . S
C1331 N1332 1.279 . S
C1331 C1334 1.358 . S
C1331 H1388 0.930 . S
N1332 C1331 1.279 . S
N1332 C1335 1.314 . S
C1333 C1330 1.348 . S
C1333 C1335 1.353 . S
C1333 H1389 0.929 . S
C1334 C1330 1.356 . S
C1334 C1331 1.358 . S
C1334 H1390 0.930 . S
C1335 N1332 1.314 . S
C1335 C1333 1.353 . S
C1335 H1391 0.930 . S
C1336 N1337 1.314 . S
C1336 C1341 1.353 . S
C1336 H1342 0.930 . S
N1337 Li1320 1.990 . S
N1337 C1336 1.314 . S
N1337 C1339 1.279 . S
C1338 C1339 1.358 . S
C1338 C1340 1.356 . S
C1338 H1392 0.930 . S
C1339 N1337 1.279 . S
C1339 C1338 1.358 . S
C1339 H1343 0.930 . S
C1340 C1338 1.356 . S
C1340 C1341 1.348 . S
C1341 C1336 1.353 . S
C1341 C1340 1.348 . S
C1341 H1393 0.929 . S
H1342 C1336 0.930 . S
H1343 C1339 0.930 . S
C1344 N1345 1.314 . S
C1344 C1346 1.353 . S
C1344 H1350 0.930 . S
N1345 Li1321 1.990 . S
N1345 C1344 1.314 . S
N1345 C1348 1.279 . S
C1346 C1344 1.353 . S
C1346 C1349 1.348 . S
C1346 H1394 0.929 . S
C1347 C1348 1.358 . S
C1347 C1349 1.356 . S
C1347 H1395 0.930 . S
C1348 N1345 1.279 . S
C1348 C1347 1.358 . S
C1348 H1351 0.930 . S
C1349 C1346 1.348 . S
C1349 C1347 1.356 . S
H1350 C1344 0.930 . S
H1351 C1348 0.930 . S
C1352 C1354 1.348 . S
C1352 C1355 1.356 . S
C1352 O1382 1.325 . S
N1353 C1356 1.314 . S
N1353 C1357 1.279 . S
C1354 C1352 1.348 . S
C1354 C1356 1.353 . S
C1354 H1396 0.929 . S
C1355 C1352 1.356 . S
C1355 C1357 1.358 . S
C1355 H1397 0.930 . S
C1356 N1353 1.314 . S
C1356 C1354 1.353 . S
C1356 H1398 0.930 . S
C1357 N1353 1.279 . S
C1357 C1355 1.358 . S
C1357 H1399 0.930 . S
C1358 C1359 1.348 . S
C1358 C1360 1.356 . S
C1358 O1383 1.325 . S
C1359 C1358 1.348 . S
C1359 C1361 1.353 . S
C1359 H1400 0.929 . S
C1360 C1358 1.356 . S
C1360 C1362 1.358 . S
C1360 H1401 0.930 . S
C1361 C1359 1.353 . S
C1361 N1363 1.314 . S
C1361 H1402 0.930 . S
C1362 C1360 1.358 . S
C1362 N1363 1.279 . S
C1362 H1403 0.930 . S
N1363 C1361 1.314 . S
N1363 C1362 1.279 . S
C1364 C1366 1.353 . S
C1364 N1367 1.314 . S
C1364 H1370 0.930 . S
C1365 N1367 1.279 . S
C1365 C1368 1.358 . S
C1365 H1371 0.930 . S
C1366 C1364 1.353 . S
C1366 C1369 1.348 . S
C1366 H1404 0.929 . S
N1367 Li1322 1.990 . S
N1367 C1364 1.314 . S
N1367 C1365 1.279 . S
C1368 C1365 1.358 . S
C1368 C1369 1.356 . S
C1368 H1405 0.930 . S
C1369 C1366 1.348 . S
C1369 C1368 1.356 . S
H1370 C1364 0.930 . S
H1371 C1365 0.930 . S
C1372 N1373 1.314 . S
C1372 C1374 1.353 . S
C1372 H1378 0.930 . S
N1373 Li1323 1.990 . S
N1373 C1372 1.314 . S
N1373 C1376 1.279 . S
C1374 C1372 1.353 . S
C1374 C1377 1.348 . S
C1374 H1406 0.929 . S
C1375 C1376 1.358 . S
C1375 C1377 1.356 . S
C1375 H1407 0.930 . S
C1376 N1373 1.279 . S
C1376 C1375 1.358 . S
C1376 H1379 0.930 . S
C1377 C1374 1.348 . S
C1377 C1375 1.356 . S
H1378 C1372 0.930 . S
H1379 C1376 0.930 . S
O1380 Li1320 1.956 . S
O1380 Li1321 1.970 . S
O1380 Li1322 1.961 . S
O1380 C1324 1.325 . S
O1381 Li1320 1.970 . S
O1381 Li1321 1.956 . S
O1381 Li1323 1.961 . S
O1381 C1330 1.325 . S
O1382 Li1320 1.961 . S
O1382 Li1322 1.956 . S
O1382 Li1323 1.970 . S
O1382 C1352 1.325 . S
O1383 Li1321 1.961 . S
O1383 Li1322 1.970 . S
O1383 Li1323 1.956 . S
O1383 C1358 1.325 . S
H1384 C1326 0.929 . S
H1385 C1327 0.930 . S
H1386 C1328 0.930 . S
H1387 C1329 0.930 . S
H1388 C1331 0.930 . S
H1389 C1333 0.929 . S
H1390 C1334 0.930 . S
H1391 C1335 0.930 . S
H1392 C1338 0.930 . S
H1393 C1341 0.929 . S
H1394 C1346 0.929 . S
H1395 C1347 0.930 . S
H1396 C1354 0.929 . S
H1397 C1355 0.930 . S
H1398 C1356 0.930 . S
H1399 C1357 0.930 . S
H1400 C1359 0.929 . S
H1401 C1360 0.930 . S
H1402 C1361 0.930 . S
H1403 C1362 0.930 . S
H1404 C1366 0.929 . S
H1405 C1368 0.930 . S
H1406 C1374 0.929 . S
H1407 C1375 0.930 . S
Li1408 N1425 1.991 . S
Li1408 O1468 1.956 1_545 S
Li1408 O1469 1.970 . S
Li1408 O1470 1.961 . S
Li1409 N1433 1.990 . S
Li1409 O1468 1.970 . S
Li1409 O1469 1.956 1_565 S
Li1409 O1471 1.926 1_565 S
Li1410 N1455 1.990 . S
Li1410 O1468 1.961 1_545 S
Li1410 O1470 1.956 . S
Li1410 O1471 1.973 . S
Li1411 N1461 1.990 . S
Li1411 O1469 1.961 . S
Li1411 O1470 1.970 . S
Li1411 O1471 1.995 . S
C1412 C1414 1.348 . S
C1412 C1415 1.356 . S
C1412 O1468 1.325 . S
N1413 C1416 1.314 . S
N1413 C1417 1.279 . S
C1414 C1412 1.348 . S
C1414 C1416 1.353 . S
C1414 H1472 0.929 . S
C1415 C1412 1.356 . S
C1415 C1417 1.358 . S
C1415 H1473 0.930 . S
C1416 N1413 1.314 . S
C1416 C1414 1.353 . S
C1416 H1474 0.930 . S
C1417 N1413 1.279 . S
C1417 C1415 1.358 . S
C1417 H1475 0.930 . S
C1418 C1421 1.348 1_545 S
C1418 C1422 1.356 . S
C1418 O1469 1.325 . S
C1419 N1420 1.284 . S
C1419 C1422 1.358 . S
C1419 H1476 0.930 . S
N1420 C1419 1.284 . S
N1420 C1423 1.311 1_545 S
C1421 C1418 1.348 1_565 S
C1421 C1423 1.353 . S
C1421 H1477 0.929 . S
C1422 C1418 1.356 . S
C1422 C1419 1.358 . S
C1422 H1478 0.930 . S
C1423 N1420 1.311 1_565 S
C1423 C1421 1.353 . S
C1423 H1479 0.930 . S
C1424 N1425 1.354 . S
C1424 C1429 1.353 . S
C1424 H1430 0.930 . S
N1425 Li1408 1.991 . S
N1425 C1424 1.354 . S
N1425 C1427 1.241 1_545 S
C1426 C1427 1.358 . S
C1426 C1428 1.356 1_565 S
C1426 H1480 0.930 . S
C1427 N1425 1.241 1_565 S
C1427 C1426 1.358 . S
C1427 H1431 0.930 . S
C1428 C1426 1.356 1_545 S
C1428 C1429 1.348 . S
C1429 C1424 1.353 . S
C1429 C1428 1.348 . S
C1429 H1481 0.929 . S
H1430 C1424 0.930 . S
H1431 C1427 0.930 . S
C1432 N1433 1.314 . S
C1432 C1434 1.353 . S
C1432 H1438 0.930 . S
N1433 Li1409 1.990 . S
N1433 C1432 1.314 . S
N1433 C1436 1.279 . S
C1434 C1432 1.353 . S
C1434 C1437 1.348 . S
C1434 H1482 0.929 . S
C1435 C1436 1.358 . S
C1435 C1437 1.356 . S
C1435 H1483 0.930 . S
C1436 N1433 1.279 . S
C1436 C1435 1.358 . S
C1436 H1439 0.930 . S
C1437 C1434 1.348 . S
C1437 C1435 1.356 . S
H1438 C1432 0.930 . S
H1439 C1436 0.930 . S
C1440 C1442 1.348 . S
C1440 C1443 1.356 . S
C1440 O1470 1.325 . S
N1441 C1444 1.314 . S
N1441 C1445 1.279 . S
C1442 C1440 1.348 . S
C1442 C1444 1.353 . S
C1442 H1484 0.929 . S
C1443 C1440 1.356 . S
C1443 C1445 1.358 . S
C1443 H1485 0.930 . S
C1444 N1441 1.314 . S
C1444 C1442 1.353 . S
C1444 H1486 0.930 . S
C1445 N1441 1.279 . S
C1445 C1443 1.358 . S
C1445 H1487 0.930 . S
C1446 C1447 1.348 . S
C1446 C1448 1.356 1_545 S
C1446 O1471 1.327 . S
C1447 C1446 1.348 . S
C1447 C1449 1.353 . S
C1447 H1488 0.929 . S
C1448 C1446 1.356 1_565 S
C1448 C1450 1.358 . S
C1448 H1489 0.930 . S
C1449 C1447 1.353 . S
C1449 N1451 1.314 . S
C1449 H1490 0.930 . S
C1450 C1448 1.358 . S
C1450 N1451 1.279 1_565 S
C1450 H1491 0.930 . S
N1451 C1449 1.314 . S
N1451 C1450 1.279 1_545 S
C1452 C1454 1.353 . S
C1452 N1455 1.314 1_565 S
C1452 H1458 0.930 . S
C1453 N1455 1.279 . S
C1453 C1456 1.358 . S
C1453 H1459 0.930 . S
C1454 C1452 1.353 . S
C1454 C1457 1.348 1_565 S
C1454 H1492 0.929 . S
N1455 Li1410 1.990 . S
N1455 C1452 1.314 1_545 S
N1455 C1453 1.279 . S
C1456 C1453 1.358 . S
C1456 C1457 1.356 . S
C1456 H1493 0.930 . S
C1457 C1454 1.348 1_545 S
C1457 C1456 1.356 . S
H1458 C1452 0.930 . S
H1459 C1453 0.930 . S
C1460 N1461 1.314 . S
C1460 C1462 1.353 . S
C1460 H1466 0.930 . S
N1461 Li1411 1.990 . S
N1461 C1460 1.314 . S
N1461 C1464 1.279 . S
C1462 C1460 1.353 . S
C1462 C1465 1.348 . S
C1462 H1494 0.929 . S
C1463 C1464 1.358 . S
C1463 C1465 1.356 . S
C1463 H1495 0.930 . S
C1464 N1461 1.279 . S
C1464 C1463 1.358 . S
C1464 H1467 0.930 . S
C1465 C1462 1.348 . S
C1465 C1463 1.356 . S
H1466 C1460 0.930 . S
H1467 C1464 0.930 . S
O1468 Li1408 1.956 1_565 S
O1468 Li1409 1.970 . S
O1468 Li1410 1.961 1_565 S
O1468 C1412 1.325 . S
O1469 Li1408 1.970 . S
O1469 Li1409 1.956 1_545 S
O1469 Li1411 1.961 . S
O1469 C1418 1.325 . S
O1470 Li1408 1.961 . S
O1470 Li1410 1.956 . S
O1470 Li1411 1.970 . S
O1470 C1440 1.325 . S
O1471 Li1409 1.926 1_545 S
O1471 Li1410 1.973 . S
O1471 Li1411 1.995 . S
O1471 C1446 1.327 . S
H1472 C1414 0.929 . S
H1473 C1415 0.930 . S
H1474 C1416 0.930 . S
H1475 C1417 0.930 . S
H1476 C1419 0.930 . S
H1477 C1421 0.929 . S
H1478 C1422 0.930 . S
H1479 C1423 0.930 . S
H1480 C1426 0.930 . S
H1481 C1429 0.929 . S
H1482 C1434 0.929 . S
H1483 C1435 0.930 . S
H1484 C1442 0.929 . S
H1485 C1443 0.930 . S
H1486 C1444 0.930 . S
H1487 C1445 0.930 . S
H1488 C1447 0.929 . S
H1489 C1448 0.930 . S
H1490 C1449 0.930 . S
H1491 C1450 0.930 . S
H1492 C1454 0.929 . S
H1493 C1456 0.930 . S
H1494 C1462 0.929 . S
H1495 C1463 0.930 . S
Li1496 N1513 1.990 . S
Li1496 O1556 1.956 . S
Li1496 O1557 1.970 . S
Li1496 O1558 1.961 . S
Li1497 N1521 1.990 . S
Li1497 O1556 1.970 . S
Li1497 O1557 1.956 . S
Li1497 O1559 1.961 . S
Li1498 N1543 1.990 . S
Li1498 O1556 1.961 . S
Li1498 O1558 1.956 . S
Li1498 O1559 1.970 . S
Li1499 N1549 1.990 . S
Li1499 O1557 1.961 . S
Li1499 O1558 1.970 . S
Li1499 O1559 1.956 . S
C1500 C1502 1.348 . S
C1500 C1503 1.356 . S
C1500 O1556 1.325 . S
N1501 C1504 1.314 . S
N1501 C1505 1.279 . S
C1502 C1500 1.348 . S
C1502 C1504 1.353 . S
C1502 H1560 0.929 . S
C1503 C1500 1.356 . S
C1503 C1505 1.358 . S
C1503 H1561 0.930 . S
C1504 N1501 1.314 . S
C1504 C1502 1.353 . S
C1504 H1562 0.930 . S
C1505 N1501 1.279 . S
C1505 C1503 1.358 . S
C1505 H1563 0.930 . S
C1506 C1509 1.348 . S
C1506 C1510 1.356 . S
C1506 O1557 1.325 . S
C1507 N1508 1.279 . S
C1507 C1510 1.358 . S
C1507 H1564 0.930 . S
N1508 C1507 1.279 . S
N1508 C1511 1.314 . S
C1509 C1506 1.348 . S
C1509 C1511 1.353 . S
C1509 H1565 0.929 . S
C1510 C1506 1.356 . S
C1510 C1507 1.358 . S
C1510 H1566 0.930 . S
C1511 N1508 1.314 . S
C1511 C1509 1.353 . S
C1511 H1567 0.930 . S
C1512 N1513 1.314 . S
C1512 C1517 1.353 . S
C1512 H1518 0.930 . S
N1513 Li1496 1.990 . S
N1513 C1512 1.314 . S
N1513 C1515 1.279 . S
C1514 C1515 1.358 . S
C1514 C1516 1.356 . S
C1514 H1568 0.930 . S
C1515 N1513 1.279 . S
C1515 C1514 1.358 . S
C1515 H1519 0.930 . S
C1516 C1514 1.356 . S
C1516 C1517 1.348 . S
C1517 C1512 1.353 . S
C1517 C1516 1.348 . S
C1517 H1569 0.929 . S
H1518 C1512 0.930 . S
H1519 C1515 0.930 . S
C1520 N1521 1.314 . S
C1520 C1522 1.353 . S
C1520 H1526 0.930 . S
N1521 Li1497 1.990 . S
N1521 C1520 1.314 . S
N1521 C1524 1.279 . S
C1522 C1520 1.353 . S
C1522 C1525 1.348 . S
C1522 H1570 0.929 . S
C1523 C1524 1.358 . S
C1523 C1525 1.356 . S
C1523 H1571 0.930 . S
C1524 N1521 1.279 . S
C1524 C1523 1.358 . S
C1524 H1527 0.930 . S
C1525 C1522 1.348 . S
C1525 C1523 1.356 . S
H1526 C1520 0.930 . S
H1527 C1524 0.930 . S
C1528 C1530 1.348 . S
C1528 C1531 1.356 . S
C1528 O1558 1.325 . S
N1529 C1532 1.314 . S
N1529 C1533 1.279 . S
C1530 C1528 1.348 . S
C1530 C1532 1.353 . S
C1530 H1572 0.929 . S
C1531 C1528 1.356 . S
C1531 C1533 1.358 . S
C1531 H1573 0.930 . S
C1532 N1529 1.314 . S
C1532 C1530 1.353 . S
C1532 H1574 0.930 . S
C1533 N1529 1.279 . S
C1533 C1531 1.358 . S
C1533 H1575 0.930 . S
C1534 C1535 1.348 . S
C1534 C1536 1.356 . S
C1534 O1559 1.325 . S
C1535 C1534 1.348 . S
C1535 C1537 1.353 . S
C1535 H1576 0.929 . S
C1536 C1534 1.356 . S
C1536 C1538 1.358 . S
C1536 H1577 0.930 . S
C1537 C1535 1.353 . S
C1537 N1539 1.314 . S
C1537 H1578 0.930 . S
C1538 C1536 1.358 . S
C1538 N1539 1.279 . S
C1538 H1579 0.930 . S
N1539 C1537 1.314 . S
N1539 C1538 1.279 . S
C1540 C1542 1.353 . S
C1540 N1543 1.314 . S
C1540 H1546 0.930 . S
C1541 N1543 1.279 . S
C1541 C1544 1.358 . S
C1541 H1547 0.930 . S
C1542 C1540 1.353 . S
C1542 C1545 1.348 . S
C1542 H1580 0.929 . S
N1543 Li1498 1.990 . S
N1543 C1540 1.314 . S
N1543 C1541 1.279 . S
C1544 C1541 1.358 . S
C1544 C1545 1.356 . S
C1544 H1581 0.930 . S
C1545 C1542 1.348 . S
C1545 C1544 1.356 . S
H1546 C1540 0.930 . S
H1547 C1541 0.930 . S
C1548 N1549 1.314 . S
C1548 C1550 1.353 . S
C1548 H1554 0.930 . S
N1549 Li1499 1.990 . S
N1549 C1548 1.314 . S
N1549 C1552 1.279 . S
C1550 C1548 1.353 . S
C1550 C1553 1.348 . S
C1550 H1582 0.929 . S
C1551 C1552 1.358 . S
C1551 C1553 1.356 . S
C1551 H1583 0.930 . S
C1552 N1549 1.279 . S
C1552 C1551 1.358 . S
C1552 H1555 0.930 . S
C1553 C1550 1.348 . S
C1553 C1551 1.356 . S
H1554 C1548 0.930 . S
H1555 C1552 0.930 . S
O1556 Li1496 1.956 . S
O1556 Li1497 1.970 . S
O1556 Li1498 1.961 . S
O1556 C1500 1.325 . S
O1557 Li1496 1.970 . S
O1557 Li1497 1.956 . S
O1557 Li1499 1.961 . S
O1557 C1506 1.325 . S
O1558 Li1496 1.961 . S
O1558 Li1498 1.956 . S
O1558 Li1499 1.970 . S
O1558 C1528 1.325 . S
O1559 Li1497 1.961 . S
O1559 Li1498 1.970 . S
O1559 Li1499 1.956 . S
O1559 C1534 1.325 . S
H1560 C1502 0.929 . S
H1561 C1503 0.930 . S
H1562 C1504 0.930 . S
H1563 C1505 0.930 . S
H1564 C1507 0.930 . S
H1565 C1509 0.929 . S
H1566 C1510 0.930 . S
H1567 C1511 0.930 . S
H1568 C1514 0.930 . S
H1569 C1517 0.929 . S
H1570 C1522 0.929 . S
H1571 C1523 0.930 . S
H1572 C1530 0.929 . S
H1573 C1531 0.930 . S
H1574 C1532 0.930 . S
H1575 C1533 0.930 . S
H1576 C1535 0.929 . S
H1577 C1536 0.930 . S
H1578 C1537 0.930 . S
H1579 C1538 0.930 . S
H1580 C1542 0.929 . S
H1581 C1544 0.930 . S
H1582 C1550 0.929 . S
H1583 C1551 0.930 . S
Li1584 N1601 1.990 . S
Li1584 O1644 1.956 . S
Li1584 O1645 1.970 . S
Li1584 O1646 1.961 1_545 S
Li1585 N1609 1.990 . S
Li1585 O1644 1.970 . S
Li1585 O1645 1.956 . S
Li1585 O1647 1.961 . S
Li1586 N1631 1.990 . S
Li1586 O1644 1.961 . S
Li1586 O1646 1.956 1_545 S
Li1586 O1647 1.970 . S
Li1587 N1637 1.990 . S
Li1587 O1645 1.961 1_565 S
Li1587 O1646 1.970 . S
Li1587 O1647 1.956 1_565 S
C1588 C1590 1.348 . S
C1588 C1591 1.356 . S
C1588 O1644 1.325 . S
N1589 C1592 1.314 . S
N1589 C1593 1.279 . S
C1590 C1588 1.348 . S
C1590 C1592 1.353 . S
C1590 H1648 0.929 . S
C1591 C1588 1.356 . S
C1591 C1593 1.358 . S
C1591 H1649 0.930 . S
C1592 N1589 1.314 . S
C1592 C1590 1.353 . S
C1592 H1650 0.930 . S
C1593 N1589 1.279 . S
C1593 C1591 1.358 . S
C1593 H1651 0.930 . S
C1594 C1597 1.348 . S
C1594 C1598 1.356 . S
C1594 O1645 1.325 . S
C1595 N1596 1.279 . S
C1595 C1598 1.358 . S
C1595 H1652 0.930 1_545 S
N1596 C1595 1.279 . S
N1596 C1599 1.314 . S
C1597 C1594 1.348 . S
C1597 C1599 1.353 . S
C1597 H1653 0.929 . S
C1598 C1594 1.356 . S
C1598 C1595 1.358 . S
C1598 H1654 0.930 1_545 S
C1599 N1596 1.314 . S
C1599 C1597 1.353 . S
C1599 H1655 0.930 . S
C1600 N1601 1.314 1_565 S
C1600 C1605 1.353 . S
C1600 H1606 0.930 . S
N1601 Li1584 1.990 . S
N1601 C1600 1.314 1_545 S
N1601 C1603 1.279 . S
C1602 C1603 1.358 . S
C1602 C1604 1.356 . S
C1602 H1656 0.930 . S
C1603 N1601 1.279 . S
C1603 C1602 1.358 . S
C1603 H1607 0.930 . S
C1604 C1602 1.356 . S
C1604 C1605 1.348 1_545 S
C1605 C1600 1.353 . S
C1605 C1604 1.348 1_565 S
C1605 H1657 0.929 . S
H1606 C1600 0.930 . S
H1607 C1603 0.930 . S
C1608 N1609 1.314 . S
C1608 C1610 1.353 . S
C1608 H1614 0.930 . S
N1609 Li1585 1.990 . S
N1609 C1608 1.314 . S
N1609 C1612 1.279 . S
C1610 C1608 1.353 . S
C1610 C1613 1.348 . S
C1610 H1658 0.929 . S
C1611 C1612 1.358 . S
C1611 C1613 1.356 . S
C1611 H1659 0.930 . S
C1612 N1609 1.279 . S
C1612 C1611 1.358 . S
C1612 H1615 0.930 . S
C1613 C1610 1.348 . S
C1613 C1611 1.356 . S
H1614 C1608 0.930 . S
H1615 C1612 0.930 . S
C1616 C1618 1.348 . S
C1616 C1619 1.356 . S
C1616 O1646 1.325 . S
N1617 C1620 1.314 . S
N1617 C1621 1.279 . S
C1618 C1616 1.348 . S
C1618 C1620 1.353 . S
C1618 H1660 0.929 . S
C1619 C1616 1.356 . S
C1619 C1621 1.358 . S
C1619 H1661 0.930 . S
C1620 N1617 1.314 . S
C1620 C1618 1.353 . S
C1620 H1662 0.930 . S
C1621 N1617 1.279 . S
C1621 C1619 1.358 . S
C1621 H1663 0.930 . S
C1622 C1623 1.348 1_545 S
C1622 C1624 1.356 . S
C1622 O1647 1.325 . S
C1623 C1622 1.348 1_565 S
C1623 C1625 1.353 . S
C1623 H1664 0.929 . S
C1624 C1622 1.356 . S
C1624 C1626 1.358 . S
C1624 H1665 0.930 . S
C1625 C1623 1.353 . S
C1625 N1627 1.314 1_565 S
C1625 H1666 0.930 . S
C1626 C1624 1.358 . S
C1626 N1627 1.279 . S
C1626 H1667 0.930 . S
N1627 C1625 1.314 1_545 S
N1627 C1626 1.279 . S
C1628 C1630 1.353 . S
C1628 N1631 1.314 . S
C1628 H1634 0.930 . S
C1629 N1631 1.279 1_565 S
C1629 C1632 1.358 . S
C1629 H1635 0.930 . S
C1630 C1628 1.353 . S
C1630 C1633 1.348 . S
C1630 H1668 0.929 . S
N1631 Li1586 1.990 . S
N1631 C1628 1.314 . S
N1631 C1629 1.279 1_545 S
C1632 C1629 1.358 . S
C1632 C1633 1.356 1_565 S
C1632 H1669 0.930 . S
C1633 C1630 1.348 . S
C1633 C1632 1.356 1_545 S
H1634 C1628 0.930 . S
H1635 C1629 0.930 . S
C1636 N1637 1.314 . S
C1636 C1638 1.353 . S
C1636 H1642 0.930 . S
N1637 Li1587 1.990 . S
N1637 C1636 1.314 . S
N1637 C1640 1.279 . S
C1638 C1636 1.353 . S
C1638 C1641 1.348 . S
C1638 H1670 0.929 . S
C1639 C1640 1.358 . S
C1639 C1641 1.356 . S
C1639 H1671 0.930 . S
C1640 N1637 1.279 . S
C1640 C1639 1.358 . S
C1640 H1643 0.930 . S
C1641 C1638 1.348 . S
C1641 C1639 1.356 . S
H1642 C1636 0.930 . S
H1643 C1640 0.930 . S
O1644 Li1584 1.956 . S
O1644 Li1585 1.970 . S
O1644 Li1586 1.961 . S
O1644 C1588 1.325 . S
O1645 Li1584 1.970 . S
O1645 Li1585 1.956 . S
O1645 Li1587 1.961 1_545 S
O1645 C1594 1.325 . S
O1646 Li1584 1.961 1_565 S
O1646 Li1586 1.956 1_565 S
O1646 Li1587 1.970 . S
O1646 C1616 1.325 . S
O1647 Li1585 1.961 . S
O1647 Li1586 1.970 . S
O1647 Li1587 1.956 1_545 S
O1647 C1622 1.325 . S
H1648 C1590 0.929 . S
H1649 C1591 0.930 . S
H1650 C1592 0.930 . S
H1651 C1593 0.930 . S
H1652 C1595 0.930 1_565 S
H1653 C1597 0.929 . S
H1654 C1598 0.930 1_565 S
H1655 C1599 0.930 . S
H1656 C1602 0.930 . S
H1657 C1605 0.929 . S
H1658 C1610 0.929 . S
H1659 C1611 0.930 . S
H1660 C1618 0.929 . S
H1661 C1619 0.930 . S
H1662 C1620 0.930 . S
H1663 C1621 0.930 . S
H1664 C1623 0.929 . S
H1665 C1624 0.930 . S
H1666 C1625 0.930 . S
H1667 C1626 0.930 . S
H1668 C1630 0.929 . S
H1669 C1632 0.930 . S
H1670 C1638 0.929 . S
H1671 C1639 0.930 . S
Li1672 N1689 1.990 . S
Li1672 O1732 1.956 . S
Li1672 O1733 1.970 . S
Li1672 O1734 1.961 1_554 S
Li1673 N1697 1.990 . S
Li1673 O1732 1.970 . S
Li1673 O1733 1.956 . S
Li1673 O1735 1.961 . S
Li1674 N1719 1.990 . S
Li1674 O1732 1.961 . S
Li1674 O1734 1.956 1_554 S
Li1674 O1735 1.970 . S
Li1675 N1725 1.990 . S
Li1675 O1733 1.961 1_556 S
Li1675 O1734 1.970 . S
Li1675 O1735 1.956 1_556 S
C1676 C1678 1.348 . S
C1676 C1679 1.356 . S
C1676 O1732 1.325 . S
N1677 C1680 1.314 . S
N1677 C1681 1.279 . S
C1678 C1676 1.348 . S
C1678 C1680 1.353 . S
C1678 H1736 0.929 . S
C1679 C1676 1.356 . S
C1679 C1681 1.358 . S
C1679 H1737 0.930 . S
C1680 N1677 1.314 . S
C1680 C1678 1.353 . S
C1680 H1738 0.930 . S
C1681 N1677 1.279 . S
C1681 C1679 1.358 . S
C1681 H1739 0.930 . S
C1682 C1685 1.348 . S
C1682 C1686 1.356 . S
C1682 O1733 1.325 . S
C1683 N1684 1.279 . S
C1683 C1686 1.358 . S
C1683 H1740 0.930 . S
N1684 C1683 1.279 . S
N1684 C1687 1.314 . S
C1685 C1682 1.348 . S
C1685 C1687 1.353 . S
C1685 H1741 0.929 . S
C1686 C1682 1.356 . S
C1686 C1683 1.358 . S
C1686 H1742 0.930 . S
C1687 N1684 1.314 . S
C1687 C1685 1.353 . S
C1687 H1743 0.930 . S
C1688 N1689 1.314 1_556 S
C1688 C1693 1.353 . S
C1688 H1694 0.930 . S
N1689 Li1672 1.990 . S
N1689 C1688 1.314 1_554 S
N1689 C1691 1.279 . S
C1690 C1691 1.358 . S
C1690 C1692 1.356 . S
C1690 H1744 0.930 . S
C1691 N1689 1.279 . S
C1691 C1690 1.358 . S
C1691 H1695 0.930 . S
C1692 C1690 1.356 . S
C1692 C1693 1.348 1_554 S
C1693 C1688 1.353 . S
C1693 C1692 1.348 1_556 S
C1693 H1745 0.929 . S
H1694 C1688 0.930 . S
H1695 C1691 0.930 . S
C1696 N1697 1.314 . S
C1696 C1698 1.353 . S
C1696 H1702 0.930 . S
N1697 Li1673 1.990 . S
N1697 C1696 1.314 . S
N1697 C1700 1.279 . S
C1698 C1696 1.353 . S
C1698 C1701 1.348 . S
C1698 H1746 0.929 . S
C1699 C1700 1.358 . S
C1699 C1701 1.356 . S
C1699 H1747 0.930 . S
C1700 N1697 1.279 . S
C1700 C1699 1.358 . S
C1700 H1703 0.930 . S
C1701 C1698 1.348 . S
C1701 C1699 1.356 . S
H1702 C1696 0.930 . S
H1703 C1700 0.930 . S
C1704 C1706 1.348 . S
C1704 C1707 1.356 . S
C1704 O1734 1.325 . S
N1705 C1708 1.314 . S
N1705 C1709 1.279 . S
C1706 C1704 1.348 . S
C1706 C1708 1.353 . S
C1706 H1748 0.929 . S
C1707 C1704 1.356 . S
C1707 C1709 1.358 . S
C1707 H1749 0.930 . S
C1708 N1705 1.314 . S
C1708 C1706 1.353 . S
C1708 H1750 0.930 . S
C1709 N1705 1.279 . S
C1709 C1707 1.358 . S
C1709 H1751 0.930 . S
C1710 C1711 1.348 . S
C1710 C1712 1.356 . S
C1710 O1735 1.325 . S
C1711 C1710 1.348 . S
C1711 C1713 1.353 . S
C1711 H1752 0.929 1_554 S
C1712 C1710 1.356 . S
C1712 C1714 1.358 . S
C1712 H1753 0.930 . S
C1713 C1711 1.353 . S
C1713 N1715 1.314 . S
C1713 H1754 0.930 1_554 S
C1714 C1712 1.358 . S
C1714 N1715 1.279 . S
C1714 H1755 0.930 . S
N1715 C1713 1.314 . S
N1715 C1714 1.279 . S
C1716 C1718 1.353 . S
C1716 N1719 1.314 . S
C1716 H1722 0.930 . S
C1717 N1719 1.279 1_556 S
C1717 C1720 1.358 . S
C1717 H1723 0.930 . S
C1718 C1716 1.353 . S
C1718 C1721 1.348 . S
C1718 H1756 0.929 . S
N1719 Li1674 1.990 . S
N1719 C1716 1.314 . S
N1719 C1717 1.279 1_554 S
C1720 C1717 1.358 . S
C1720 C1721 1.356 1_556 S
C1720 H1757 0.930 . S
C1721 C1718 1.348 . S
C1721 C1720 1.356 1_554 S
H1722 C1716 0.930 . S
H1723 C1717 0.930 . S
C1724 N1725 1.314 . S
C1724 C1726 1.353 . S
C1724 H1730 0.930 . S
N1725 Li1675 1.990 . S
N1725 C1724 1.314 . S
N1725 C1728 1.279 . S
C1726 C1724 1.353 . S
C1726 C1729 1.348 . S
C1726 H1758 0.929 . S
C1727 C1728 1.358 . S
C1727 C1729 1.356 . S
C1727 H1759 0.930 . S
C1728 N1725 1.279 . S
C1728 C1727 1.358 . S
C1728 H1731 0.930 . S
C1729 C1726 1.348 . S
C1729 C1727 1.356 . S
H1730 C1724 0.930 . S
H1731 C1728 0.930 . S
O1732 Li1672 1.956 . S
O1732 Li1673 1.970 . S
O1732 Li1674 1.961 . S
O1732 C1676 1.325 . S
O1733 Li1672 1.970 . S
O1733 Li1673 1.956 . S
O1733 Li1675 1.961 1_554 S
O1733 C1682 1.325 . S
O1734 Li1672 1.961 1_556 S
O1734 Li1674 1.956 1_556 S
O1734 Li1675 1.970 . S
O1734 C1704 1.325 . S
O1735 Li1673 1.961 . S
O1735 Li1674 1.970 . S
O1735 Li1675 1.956 1_554 S
O1735 C1710 1.325 . S
H1736 C1678 0.929 . S
H1737 C1679 0.930 . S
H1738 C1680 0.930 . S
H1739 C1681 0.930 . S
H1740 C1683 0.930 . S
H1741 C1685 0.929 . S
H1742 C1686 0.930 . S
H1743 C1687 0.930 . S
H1744 C1690 0.930 . S
H1745 C1693 0.929 . S
H1746 C1698 0.929 . S
H1747 C1699 0.930 . S
H1748 C1706 0.929 . S
H1749 C1707 0.930 . S
H1750 C1708 0.930 . S
H1751 C1709 0.930 . S
H1752 C1711 0.929 1_556 S
H1753 C1712 0.930 . S
H1754 C1713 0.930 1_556 S
H1755 C1714 0.930 . S
H1756 C1718 0.929 . S
H1757 C1720 0.930 . S
H1758 C1726 0.929 . S
H1759 C1727 0.930 . S
Li1760 N1777 1.990 . S
Li1760 O1820 1.956 . S
Li1760 O1821 1.970 . S
Li1760 O1822 1.961 . S
Li1761 N1785 1.990 . S
Li1761 O1820 1.970 . S
Li1761 O1821 1.956 . S
Li1761 O1823 1.961 1_554 S
Li1762 N1807 1.990 . S
Li1762 O1820 1.961 1_556 S
Li1762 O1822 1.956 1_556 S
Li1762 O1823 1.970 . S
Li1763 N1813 1.990 . S
Li1763 O1821 1.961 . S
Li1763 O1822 1.970 . S
Li1763 O1823 1.956 1_554 S
C1764 C1766 1.348 . S
C1764 C1767 1.347 1_554 S
C1764 O1820 1.325 . S
N1765 C1768 1.314 . S
N1765 C1769 1.275 1_554 S
C1766 C1764 1.348 . S
C1766 C1768 1.353 . S
C1766 H1824 0.929 . S
C1767 C1764 1.347 1_556 S
C1767 C1769 1.358 . S
C1767 H1825 0.943 . S
C1768 N1765 1.314 . S
C1768 C1766 1.353 . S
C1768 H1826 0.930 . S
C1769 N1765 1.275 1_556 S
C1769 C1767 1.358 . S
C1769 H1827 0.935 . S
C1770 C1773 1.348 . S
C1770 C1774 1.356 . S
C1770 O1821 1.325 . S
C1771 N1772 1.279 . S
C1771 C1774 1.358 . S
C1771 H1828 0.930 . S
N1772 C1771 1.279 . S
N1772 C1775 1.314 . S
C1773 C1770 1.348 . S
C1773 C1775 1.353 . S
C1773 H1829 0.929 . S
C1774 C1770 1.356 . S
C1774 C1771 1.358 . S
C1774 H1830 0.930 . S
C1775 N1772 1.314 . S
C1775 C1773 1.353 . S
C1775 H1831 0.930 . S
C1776 N1777 1.314 . S
C1776 C1781 1.353 . S
C1776 H1782 0.930 . S
N1777 Li1760 1.990 . S
N1777 C1776 1.314 . S
N1777 C1779 1.279 . S
C1778 C1779 1.358 . S
C1778 C1780 1.356 . S
C1778 H1832 0.930 . S
C1779 N1777 1.279 . S
C1779 C1778 1.358 . S
C1779 H1783 0.930 . S
C1780 C1778 1.356 . S
C1780 C1781 1.348 . S
C1781 C1776 1.353 . S
C1781 C1780 1.348 . S
C1781 H1833 0.929 . S
H1782 C1776 0.930 . S
H1783 C1779 0.930 . S
C1784 N1785 1.314 1_556 S
C1784 C1786 1.353 . S
C1784 H1790 0.930 . S
N1785 Li1761 1.990 . S
N1785 C1784 1.314 1_554 S
N1785 C1788 1.279 . S
C1786 C1784 1.353 . S
C1786 C1789 1.348 1_556 S
C1786 H1834 0.929 . S
C1787 C1788 1.358 . S
C1787 C1789 1.356 . S
C1787 H1835 0.930 . S
C1788 N1785 1.279 . S
C1788 C1787 1.358 . S
C1788 H1791 0.930 . S
C1789 C1786 1.348 1_554 S
C1789 C1787 1.356 . S
H1790 C1784 0.930 . S
H1791 C1788 0.930 . S
C1792 C1794 1.348 1_554 S
C1792 C1795 1.356 . S
C1792 O1822 1.325 . S
N1793 C1796 1.314 1_554 S
N1793 C1797 1.279 . S
C1794 C1792 1.348 1_556 S
C1794 C1796 1.353 . S
C1794 H1836 0.929 . S
C1795 C1792 1.356 . S
C1795 C1797 1.358 . S
C1795 H1837 0.930 . S
C1796 N1793 1.314 1_556 S
C1796 C1794 1.353 . S
C1796 H1838 0.930 . S
C1797 N1793 1.279 . S
C1797 C1795 1.358 . S
C1797 H1839 0.930 . S
C1798 C1799 1.348 . S
C1798 C1800 1.356 . S
C1798 O1823 1.325 . S
C1799 C1798 1.348 . S
C1799 C1801 1.353 . S
C1799 H1840 0.929 . S
C1800 C1798 1.356 . S
C1800 C1802 1.358 . S
C1800 H1841 0.930 . S
C1801 C1799 1.353 . S
C1801 N1803 1.314 . S
C1801 H1842 0.930 . S
C1802 C1800 1.358 . S
C1802 N1803 1.279 . S
C1802 H1843 0.930 . S
N1803 C1801 1.314 . S
N1803 C1802 1.279 . S
C1804 C1806 1.353 . S
C1804 N1807 1.314 . S
C1804 H1810 0.930 . S
C1805 N1807 1.279 . S
C1805 C1808 1.358 . S
C1805 H1811 0.930 . S
C1806 C1804 1.353 . S
C1806 C1809 1.348 . S
C1806 H1844 0.929 . S
N1807 Li1762 1.990 . S
N1807 C1804 1.314 . S
N1807 C1805 1.279 . S
C1808 C1805 1.358 . S
C1808 C1809 1.356 . S
C1808 H1845 0.930 . S
C1809 C1806 1.348 . S
C1809 C1808 1.356 . S
H1810 C1804 0.930 . S
H1811 C1805 0.930 . S
C1812 N1813 1.314 . S
C1812 C1814 1.353 . S
C1812 H1818 0.930 . S
N1813 Li1763 1.990 . S
N1813 C1812 1.314 . S
N1813 C1816 1.279 1_554 S
C1814 C1812 1.353 . S
C1814 C1817 1.348 . S
C1814 H1846 0.929 . S
C1815 C1816 1.358 . S
C1815 C1817 1.356 1_556 S
C1815 H1847 0.930 . S
C1816 N1813 1.279 1_556 S
C1816 C1815 1.358 . S
C1816 H1819 0.930 . S
C1817 C1814 1.348 . S
C1817 C1815 1.356 1_554 S
H1818 C1812 0.930 . S
H1819 C1816 0.930 . S
O1820 Li1760 1.956 . S
O1820 Li1761 1.970 . S
O1820 Li1762 1.961 1_554 S
O1820 C1764 1.325 . S
O1821 Li1760 1.970 . S
O1821 Li1761 1.956 . S
O1821 Li1763 1.961 . S
O1821 C1770 1.325 . S
O1822 Li1760 1.961 . S
O1822 Li1762 1.956 1_554 S
O1822 Li1763 1.970 . S
O1822 C1792 1.325 . S
O1823 Li1761 1.961 1_556 S
O1823 Li1762 1.970 . S
O1823 Li1763 1.956 1_556 S
O1823 C1798 1.325 . S
H1824 C1766 0.929 . S
H1825 C1767 0.943 . S
H1826 C1768 0.930 . S
H1827 C1769 0.935 . S
H1828 C1771 0.930 . S
H1829 C1773 0.929 . S
H1830 C1774 0.930 . S
H1831 C1775 0.930 . S
H1832 C1778 0.930 . S
H1833 C1781 0.929 . S
H1834 C1786 0.929 . S
H1835 C1787 0.930 . S
H1836 C1794 0.929 . S
H1837 C1795 0.930 . S
H1838 C1796 0.930 . S
H1839 C1797 0.930 . S
H1840 C1799 0.929 . S
H1841 C1800 0.930 . S
H1842 C1801 0.930 . S
H1843 C1802 0.930 . S
H1844 C1806 0.929 . S
H1845 C1808 0.930 . S
H1846 C1814 0.929 . S
H1847 C1815 0.930 . S
Li1848 N1865 1.990 . S
Li1848 O1908 1.956 . S
Li1848 O1909 1.970 . S
Li1848 O1910 1.961 . S
Li1849 N1873 1.990 . S
Li1849 O1908 1.970 . S
Li1849 O1909 1.956 . S
Li1849 O1911 1.961 . S
Li1850 N1895 1.990 . S
Li1850 O1908 1.961 . S
Li1850 O1910 1.956 . S
Li1850 O1911 1.970 . S
Li1851 N1901 1.990 . S
Li1851 O1909 1.961 . S
Li1851 O1910 1.970 . S
Li1851 O1911 1.956 . S
C1852 C1854 1.348 . S
C1852 C1855 1.356 . S
C1852 O1908 1.325 . S
N1853 C1856 1.314 . S
N1853 C1857 1.279 . S
C1854 C1852 1.348 . S
C1854 C1856 1.353 . S
C1854 H1912 0.929 . S
C1855 C1852 1.356 . S
C1855 C1857 1.358 . S
C1855 H1913 0.930 . S
C1856 N1853 1.314 . S
C1856 C1854 1.353 . S
C1856 H1914 0.930 . S
C1857 N1853 1.279 . S
C1857 C1855 1.358 . S
C1857 H1915 0.930 . S
C1858 C1861 1.348 . S
C1858 C1862 1.356 . S
C1858 O1909 1.325 . S
C1859 N1860 1.279 . S
C1859 C1862 1.358 . S
C1859 H1916 0.930 . S
N1860 C1859 1.279 . S
N1860 C1863 1.314 . S
C1861 C1858 1.348 . S
C1861 C1863 1.353 . S
C1861 H1917 0.929 . S
C1862 C1858 1.356 . S
C1862 C1859 1.358 . S
C1862 H1918 0.930 . S
C1863 N1860 1.314 . S
C1863 C1861 1.353 . S
C1863 H1919 0.930 . S
C1864 N1865 1.314 . S
C1864 C1869 1.353 . S
C1864 H1870 0.930 . S
N1865 Li1848 1.990 . S
N1865 C1864 1.314 . S
N1865 C1867 1.279 . S
C1866 C1867 1.358 . S
C1866 C1868 1.356 . S
C1866 H1920 0.930 . S
C1867 N1865 1.279 . S
C1867 C1866 1.358 . S
C1867 H1871 0.930 . S
C1868 C1866 1.356 . S
C1868 C1869 1.348 . S
C1869 C1864 1.353 . S
C1869 C1868 1.348 . S
C1869 H1921 0.929 . S
H1870 C1864 0.930 . S
H1871 C1867 0.930 . S
C1872 N1873 1.314 . S
C1872 C1874 1.353 . S
C1872 H1878 0.930 . S
N1873 Li1849 1.990 . S
N1873 C1872 1.314 . S
N1873 C1876 1.279 . S
C1874 C1872 1.353 . S
C1874 C1877 1.348 . S
C1874 H1922 0.929 . S
C1875 C1876 1.358 . S
C1875 C1877 1.356 . S
C1875 H1923 0.930 . S
C1876 N1873 1.279 . S
C1876 C1875 1.358 . S
C1876 H1879 0.930 . S
C1877 C1874 1.348 . S
C1877 C1875 1.356 . S
H1878 C1872 0.930 . S
H1879 C1876 0.930 . S
C1880 C1882 1.348 . S
C1880 C1883 1.356 . S
C1880 O1910 1.325 . S
N1881 C1884 1.314 . S
N1881 C1885 1.279 . S
C1882 C1880 1.348 . S
C1882 C1884 1.353 . S
C1882 H1924 0.929 . S
C1883 C1880 1.356 . S
C1883 C1885 1.358 . S
C1883 H1925 0.930 . S
C1884 N1881 1.314 . S
C1884 C1882 1.353 . S
C1884 H1926 0.930 . S
C1885 N1881 1.279 . S
C1885 C1883 1.358 . S
C1885 H1927 0.930 . S
C1886 C1887 1.348 . S
C1886 C1888 1.356 . S
C1886 O1911 1.325 . S
C1887 C1886 1.348 . S
C1887 C1889 1.353 . S
C1887 H1928 0.929 . S
C1888 C1886 1.356 . S
C1888 C1890 1.358 . S
C1888 H1929 0.930 . S
C1889 C1887 1.353 . S
C1889 N1891 1.314 . S
C1889 H1930 0.930 . S
C1890 C1888 1.358 . S
C1890 N1891 1.279 . S
C1890 H1931 0.930 . S
N1891 C1889 1.314 . S
N1891 C1890 1.279 . S
C1892 C1894 1.353 . S
C1892 N1895 1.314 . S
C1892 H1898 0.930 . S
C1893 N1895 1.279 . S
C1893 C1896 1.358 . S
C1893 H1899 0.930 . S
C1894 C1892 1.353 . S
C1894 C1897 1.348 . S
C1894 H1932 0.929 . S
N1895 Li1850 1.990 . S
N1895 C1892 1.314 . S
N1895 C1893 1.279 . S
C1896 C1893 1.358 . S
C1896 C1897 1.356 . S
C1896 H1933 0.930 . S
C1897 C1894 1.348 . S
C1897 C1896 1.356 . S
H1898 C1892 0.930 . S
H1899 C1893 0.930 . S
C1900 N1901 1.314 . S
C1900 C1902 1.353 . S
C1900 H1906 0.930 . S
N1901 Li1851 1.990 . S
N1901 C1900 1.314 . S
N1901 C1904 1.279 . S
C1902 C1900 1.353 . S
C1902 C1905 1.348 . S
C1902 H1934 0.929 . S
C1903 C1904 1.358 . S
C1903 C1905 1.356 . S
C1903 H1935 0.930 . S
C1904 N1901 1.279 . S
C1904 C1903 1.358 . S
C1904 H1907 0.930 . S
C1905 C1902 1.348 . S
C1905 C1903 1.356 . S
H1906 C1900 0.930 . S
H1907 C1904 0.930 . S
O1908 Li1848 1.956 . S
O1908 Li1849 1.970 . S
O1908 Li1850 1.961 . S
O1908 C1852 1.325 . S
O1909 Li1848 1.970 . S
O1909 Li1849 1.956 . S
O1909 Li1851 1.961 . S
O1909 C1858 1.325 . S
O1910 Li1848 1.961 . S
O1910 Li1850 1.956 . S
O1910 Li1851 1.970 . S
O1910 C1880 1.325 . S
O1911 Li1849 1.961 . S
O1911 Li1850 1.970 . S
O1911 Li1851 1.956 . S
O1911 C1886 1.325 . S
H1912 C1854 0.929 . S
H1913 C1855 0.930 . S
H1914 C1856 0.930 . S
H1915 C1857 0.930 . S
H1916 C1859 0.930 . S
H1917 C1861 0.929 . S
H1918 C1862 0.930 . S
H1919 C1863 0.930 . S
H1920 C1866 0.930 . S
H1921 C1869 0.929 . S
H1922 C1874 0.929 . S
H1923 C1875 0.930 . S
H1924 C1882 0.929 . S
H1925 C1883 0.930 . S
H1926 C1884 0.930 . S
H1927 C1885 0.930 . S
H1928 C1887 0.929 . S
H1929 C1888 0.930 . S
H1930 C1889 0.930 . S
H1931 C1890 0.930 . S
H1932 C1894 0.929 . S
H1933 C1896 0.930 . S
H1934 C1902 0.929 . S
H1935 C1903 0.930 . S
Li1936 N1953 1.990 . S
Li1936 O1996 1.956 . S
Li1936 O1997 1.970 . S
Li1936 O1998 1.961 . S
Li1937 N1961 1.990 . S
Li1937 O1996 1.970 . S
Li1937 O1997 1.956 . S
Li1937 O1999 1.961 . S
Li1938 N1983 1.990 . S
Li1938 O1996 1.961 . S
Li1938 O1998 1.956 . S
Li1938 O1999 1.970 . S
Li1939 N1989 1.990 . S
Li1939 O1997 1.961 . S
Li1939 O1998 1.970 . S
Li1939 O1999 1.956 . S
C1940 C1942 1.348 . S
C1940 C1943 1.356 . S
C1940 O1996 1.325 . S
N1941 C1944 1.314 . S
N1941 C1945 1.279 . S
C1942 C1940 1.348 . S
C1942 C1944 1.353 . S
C1942 H2000 0.929 . S
C1943 C1940 1.356 . S
C1943 C1945 1.358 . S
C1943 H2001 0.930 . S
C1944 N1941 1.314 . S
C1944 C1942 1.353 . S
C1944 H2002 0.930 . S
C1945 N1941 1.279 . S
C1945 C1943 1.358 . S
C1945 H2003 0.930 . S
C1946 C1949 1.348 . S
C1946 C1950 1.356 . S
C1946 O1997 1.325 . S
C1947 N1948 1.279 . S
C1947 C1950 1.358 . S
C1947 H2004 0.930 . S
N1948 C1947 1.279 . S
N1948 C1951 1.314 . S
C1949 C1946 1.348 . S
C1949 C1951 1.353 . S
C1949 H2005 0.929 . S
C1950 C1946 1.356 . S
C1950 C1947 1.358 . S
C1950 H2006 0.930 . S
C1951 N1948 1.314 . S
C1951 C1949 1.353 . S
C1951 H2007 0.930 . S
C1952 N1953 1.314 . S
C1952 C1957 1.353 . S
C1952 H1958 0.930 . S
N1953 Li1936 1.990 . S
N1953 C1952 1.314 . S
N1953 C1955 1.279 . S
C1954 C1955 1.358 . S
C1954 C1956 1.356 . S
C1954 H2008 0.930 . S
C1955 N1953 1.279 . S
C1955 C1954 1.358 . S
C1955 H1959 0.930 . S
C1956 C1954 1.356 . S
C1956 C1957 1.348 . S
C1957 C1952 1.353 . S
C1957 C1956 1.348 . S
C1957 H2009 0.929 . S
H1958 C1952 0.930 . S
H1959 C1955 0.930 . S
C1960 N1961 1.314 . S
C1960 C1962 1.353 . S
C1960 H1966 0.930 . S
N1961 Li1937 1.990 . S
N1961 C1960 1.314 . S
N1961 C1964 1.279 . S
C1962 C1960 1.353 . S
C1962 C1965 1.348 . S
C1962 H2010 0.929 . S
C1963 C1964 1.358 . S
C1963 C1965 1.356 . S
C1963 H2011 0.930 . S
C1964 N1961 1.279 . S
C1964 C1963 1.358 . S
C1964 H1967 0.930 . S
C1965 C1962 1.348 . S
C1965 C1963 1.356 . S
H1966 C1960 0.930 . S
H1967 C1964 0.930 . S
C1968 C1970 1.348 . S
C1968 C1971 1.356 . S
C1968 O1998 1.325 . S
N1969 C1972 1.314 . S
N1969 C1973 1.279 . S
C1970 C1968 1.348 . S
C1970 C1972 1.353 . S
C1970 H2012 0.929 . S
C1971 C1968 1.356 . S
C1971 C1973 1.358 . S
C1971 H2013 0.930 . S
C1972 N1969 1.314 . S
C1972 C1970 1.353 . S
C1972 H2014 0.930 . S
C1973 N1969 1.279 . S
C1973 C1971 1.358 . S
C1973 H2015 0.930 . S
C1974 C1975 1.348 . S
C1974 C1976 1.356 . S
C1974 O1999 1.325 . S
C1975 C1974 1.348 . S
C1975 C1977 1.353 . S
C1975 H2016 0.929 . S
C1976 C1974 1.356 . S
C1976 C1978 1.358 . S
C1976 H2017 0.930 . S
C1977 C1975 1.353 . S
C1977 N1979 1.314 . S
C1977 H2018 0.930 . S
C1978 C1976 1.358 . S
C1978 N1979 1.279 . S
C1978 H2019 0.930 . S
N1979 C1977 1.314 . S
N1979 C1978 1.279 . S
C1980 C1982 1.353 . S
C1980 N1983 1.314 . S
C1980 H1986 0.930 . S
C1981 N1983 1.279 . S
C1981 C1984 1.358 . S
C1981 H1987 0.930 . S
C1982 C1980 1.353 . S
C1982 C1985 1.348 . S
C1982 H2020 0.929 . S
N1983 Li1938 1.990 . S
N1983 C1980 1.314 . S
N1983 C1981 1.279 . S
C1984 C1981 1.358 . S
C1984 C1985 1.356 . S
C1984 H2021 0.930 . S
C1985 C1982 1.348 . S
C1985 C1984 1.356 . S
H1986 C1980 0.930 . S
H1987 C1981 0.930 . S
C1988 N1989 1.314 . S
C1988 C1990 1.353 . S
C1988 H1994 0.930 . S
N1989 Li1939 1.990 . S
N1989 C1988 1.314 . S
N1989 C1992 1.279 . S
C1990 C1988 1.353 . S
C1990 C1993 1.348 . S
C1990 H2022 0.929 . S
C1991 C1992 1.358 . S
C1991 C1993 1.356 . S
C1991 H2023 0.930 . S
C1992 N1989 1.279 . S
C1992 C1991 1.358 . S
C1992 H1995 0.930 . S
C1993 C1990 1.348 . S
C1993 C1991 1.356 . S
H1994 C1988 0.930 . S
H1995 C1992 0.930 . S
O1996 Li1936 1.956 . S
O1996 Li1937 1.970 . S
O1996 Li1938 1.961 . S
O1996 C1940 1.325 . S
O1997 Li1936 1.970 . S
O1997 Li1937 1.956 . S
O1997 Li1939 1.961 . S
O1997 C1946 1.325 . S
O1998 Li1936 1.961 . S
O1998 Li1938 1.956 . S
O1998 Li1939 1.970 . S
O1998 C1968 1.325 . S
O1999 Li1937 1.961 . S
O1999 Li1938 1.970 . S
O1999 Li1939 1.956 . S
O1999 C1974 1.325 . S
H2000 C1942 0.929 . S
H2001 C1943 0.930 . S
H2002 C1944 0.930 . S
H2003 C1945 0.930 . S
H2004 C1947 0.930 . S
H2005 C1949 0.929 . S
H2006 C1950 0.930 . S
H2007 C1951 0.930 . S
H2008 C1954 0.930 . S
H2009 C1957 0.929 . S
H2010 C1962 0.929 . S
H2011 C1963 0.930 . S
H2012 C1970 0.929 . S
H2013 C1971 0.930 . S
H2014 C1972 0.930 . S
H2015 C1973 0.930 . S
H2016 C1975 0.929 . S
H2017 C1976 0.930 . S
H2018 C1977 0.930 . S
H2019 C1978 0.930 . S
H2020 C1982 0.929 . S
H2021 C1984 0.930 . S
H2022 C1990 0.929 . S
H2023 C1991 0.930 . S
Li2024 N2041 1.990 . S
Li2024 O2084 1.956 . S
Li2024 O2085 1.970 . S
Li2024 O2086 1.961 . S
Li2025 N2049 1.990 . S
Li2025 O2084 1.970 . S
Li2025 O2085 1.956 . S
Li2025 O2087 1.961 . S
Li2026 N2071 1.990 . S
Li2026 O2084 1.961 . S
Li2026 O2086 1.956 . S
Li2026 O2087 1.970 . S
Li2027 N2077 1.990 . S
Li2027 O2085 1.961 . S
Li2027 O2086 1.970 . S
Li2027 O2087 1.956 . S
C2028 C2030 1.348 . S
C2028 C2031 1.356 . S
C2028 O2084 1.325 . S
N2029 C2032 1.314 . S
N2029 C2033 1.279 . S
C2030 C2028 1.348 . S
C2030 C2032 1.353 . S
C2030 H2088 0.929 . S
C2031 C2028 1.356 . S
C2031 C2033 1.358 . S
C2031 H2089 0.930 . S
C2032 N2029 1.314 . S
C2032 C2030 1.353 . S
C2032 H2090 0.930 . S
C2033 N2029 1.279 . S
C2033 C2031 1.358 . S
C2033 H2091 0.930 . S
C2034 C2037 1.348 . S
C2034 C2038 1.356 . S
C2034 O2085 1.325 . S
C2035 N2036 1.279 . S
C2035 C2038 1.358 . S
C2035 H2092 0.930 . S
N2036 C2035 1.279 . S
N2036 C2039 1.314 . S
C2037 C2034 1.348 . S
C2037 C2039 1.353 . S
C2037 H2093 0.929 . S
C2038 C2034 1.356 . S
C2038 C2035 1.358 . S
C2038 H2094 0.930 . S
C2039 N2036 1.314 . S
C2039 C2037 1.353 . S
C2039 H2095 0.930 . S
C2040 N2041 1.314 . S
C2040 C2045 1.353 . S
C2040 H2046 0.930 . S
N2041 Li2024 1.990 . S
N2041 C2040 1.314 . S
N2041 C2043 1.279 . S
C2042 C2043 1.358 . S
C2042 C2044 1.356 . S
C2042 H2096 0.930 . S
C2043 N2041 1.279 . S
C2043 C2042 1.358 . S
C2043 H2047 0.930 . S
C2044 C2042 1.356 . S
C2044 C2045 1.348 . S
C2045 C2040 1.353 . S
C2045 C2044 1.348 . S
C2045 H2097 0.929 . S
H2046 C2040 0.930 . S
H2047 C2043 0.930 . S
C2048 N2049 1.314 . S
C2048 C2050 1.353 . S
C2048 H2054 0.930 . S
N2049 Li2025 1.990 . S
N2049 C2048 1.314 . S
N2049 C2052 1.279 . S
C2050 C2048 1.353 . S
C2050 C2053 1.348 . S
C2050 H2098 0.929 . S
C2051 C2052 1.358 . S
C2051 C2053 1.356 . S
C2051 H2099 0.930 . S
C2052 N2049 1.279 . S
C2052 C2051 1.358 . S
C2052 H2055 0.930 . S
C2053 C2050 1.348 . S
C2053 C2051 1.356 . S
H2054 C2048 0.930 . S
H2055 C2052 0.930 . S
C2056 C2058 1.348 . S
C2056 C2059 1.356 . S
C2056 O2086 1.325 . S
N2057 C2060 1.314 . S
N2057 C2061 1.279 . S
C2058 C2056 1.348 . S
C2058 C2060 1.353 . S
C2058 H2100 0.929 . S
C2059 C2056 1.356 . S
C2059 C2061 1.358 . S
C2059 H2101 0.930 . S
C2060 N2057 1.314 . S
C2060 C2058 1.353 . S
C2060 H2102 0.930 . S
C2061 N2057 1.279 . S
C2061 C2059 1.358 . S
C2061 H2103 0.930 . S
C2062 C2063 1.348 . S
C2062 C2064 1.356 . S
C2062 O2087 1.325 . S
C2063 C2062 1.348 . S
C2063 C2065 1.353 . S
C2063 H2104 0.929 . S
C2064 C2062 1.356 . S
C2064 C2066 1.358 . S
C2064 H2105 0.930 . S
C2065 C2063 1.353 . S
C2065 N2067 1.314 . S
C2065 H2106 0.930 . S
C2066 C2064 1.358 . S
C2066 N2067 1.279 . S
C2066 H2107 0.930 . S
N2067 C2065 1.314 . S
N2067 C2066 1.279 . S
C2068 C2070 1.353 . S
C2068 N2071 1.314 . S
C2068 H2074 0.930 . S
C2069 N2071 1.279 . S
C2069 C2072 1.358 . S
C2069 H2075 0.930 . S
C2070 C2068 1.353 . S
C2070 C2073 1.348 . S
C2070 H2108 0.929 . S
N2071 Li2026 1.990 . S
N2071 C2068 1.314 . S
N2071 C2069 1.279 . S
C2072 C2069 1.358 . S
C2072 C2073 1.356 . S
C2072 H2109 0.930 . S
C2073 C2070 1.348 . S
C2073 C2072 1.356 . S
H2074 C2068 0.930 . S
H2075 C2069 0.930 . S
C2076 N2077 1.314 . S
C2076 C2078 1.353 . S
C2076 H2082 0.930 . S
N2077 Li2027 1.990 . S
N2077 C2076 1.314 . S
N2077 C2080 1.279 . S
C2078 C2076 1.353 . S
C2078 C2081 1.348 . S
C2078 H2110 0.929 . S
C2079 C2080 1.358 . S
C2079 C2081 1.356 . S
C2079 H2111 0.930 . S
C2080 N2077 1.279 . S
C2080 C2079 1.358 . S
C2080 H2083 0.930 . S
C2081 C2078 1.348 . S
C2081 C2079 1.356 . S
H2082 C2076 0.930 . S
H2083 C2080 0.930 . S
O2084 Li2024 1.956 . S
O2084 Li2025 1.970 . S
O2084 Li2026 1.961 . S
O2084 C2028 1.325 . S
O2085 Li2024 1.970 . S
O2085 Li2025 1.956 . S
O2085 Li2027 1.961 . S
O2085 C2034 1.325 . S
O2086 Li2024 1.961 . S
O2086 Li2026 1.956 . S
O2086 Li2027 1.970 . S
O2086 C2056 1.325 . S
O2087 Li2025 1.961 . S
O2087 Li2026 1.970 . S
O2087 Li2027 1.956 . S
O2087 C2062 1.325 . S
H2088 C2030 0.929 . S
H2089 C2031 0.930 . S
H2090 C2032 0.930 . S
H2091 C2033 0.930 . S
H2092 C2035 0.930 . S
H2093 C2037 0.929 . S
H2094 C2038 0.930 . S
H2095 C2039 0.930 . S
H2096 C2042 0.930 . S
H2097 C2045 0.929 . S
H2098 C2050 0.929 . S
H2099 C2051 0.930 . S
H2100 C2058 0.929 . S
H2101 C2059 0.930 . S
H2102 C2060 0.930 . S
H2103 C2061 0.930 . S
H2104 C2063 0.929 . S
H2105 C2064 0.930 . S
H2106 C2065 0.930 . S
H2107 C2066 0.930 . S
H2108 C2070 0.929 . S
H2109 C2072 0.930 . S
H2110 C2078 0.929 . S
H2111 C2079 0.930 . S
O2112 Mn2113 2.163 . S
O2112 C2126 1.245 . S
Mn2113 O2112 2.163 . S
Mn2113 O2116 2.160 1_445 S
Mn2113 O2117 2.221 1_455 S
Mn2113 O2119 2.163 1_454 S
Mn2113 O2121 2.160 1_545 S
Mn2113 O2131 2.221 1_545 S
O2114 Mn2115 2.060 1_556 S
O2114 C2126 1.259 1_566 S
Mn2115 O2114 2.060 1_554 S
Mn2115 O2122 2.089 . S
Mn2115 O2131 2.290 . S
Mn2115 O2132 2.251 1_554 S
O2116 Mn2113 2.160 1_665 S
O2116 C2127 1.239 . S
O2117 Mn2113 2.221 1_655 S
O2117 Mn2118 2.277 1_554 S
O2117 C2128 1.278 . S
Mn2118 O2117 2.277 1_556 S
Mn2118 O2120 2.085 1_556 S
Mn2118 O2123 2.247 1_556 S
Mn2118 O2124 2.111 . S
O2119 Mn2113 2.163 1_656 S
O2119 C2129 1.244 . S
O2120 Mn2118 2.085 1_554 S
O2120 C2127 1.256 1_545 S
O2121 Mn2113 2.160 1_565 S
O2121 C2130 1.239 . S
O2122 Mn2115 2.089 . S
O2122 C2130 1.256 . S
O2123 Mn2118 2.247 1_554 S
O2123 C2128 1.241 . S
O2124 Mn2118 2.111 . S
O2124 C2129 1.256 . S
C2125 O2131 1.278 1_556 S
C2125 O2132 1.241 . S
C2126 O2112 1.245 . S
C2126 O2114 1.259 1_544 S
C2127 O2116 1.239 . S
C2127 O2120 1.256 1_565 S
C2128 O2117 1.278 . S
C2128 O2123 1.241 . S
C2129 O2119 1.244 . S
C2129 O2124 1.256 . S
C2130 O2121 1.239 . S
C2130 O2122 1.256 . S
O2131 Mn2113 2.221 1_565 S
O2131 Mn2115 2.290 . S
O2131 C2125 1.278 1_554 S
O2132 Mn2115 2.251 1_556 S
O2132 C2125 1.241 . S
O2133 Mn2134 2.163 . S
O2133 C2147 1.244 . S
Mn2134 O2133 2.163 . S
Mn2134 O2137 2.160 . S
Mn2134 O2138 2.221 . S
Mn2134 O2140 2.163 . S
Mn2134 O2142 2.160 . S
Mn2134 O2152 2.221 . S
O2135 Mn2136 2.087 . S
O2135 C2147 1.256 . S
Mn2136 O2135 2.087 . S
Mn2136 O2143 2.089 . S
Mn2136 O2152 2.290 . S
Mn2136 O2153 2.251 . S
O2137 Mn2134 2.160 . S
O2137 C2148 1.239 . S
O2138 Mn2134 2.221 . S
O2138 Mn2139 2.290 . S
O2138 C2149 1.278 . S
Mn2139 O2138 2.290 . S
Mn2139 O2141 2.089 . S
Mn2139 O2144 2.251 . S
Mn2139 O2145 2.087 . S
O2140 Mn2134 2.163 . S
O2140 C2150 1.244 . S
O2141 Mn2139 2.089 . S
O2141 C2148 1.256 . S
O2142 Mn2134 2.160 . S
O2142 C2151 1.239 . S
O2143 Mn2136 2.089 . S
O2143 C2151 1.256 . S
O2144 Mn2139 2.251 . S
O2144 C2149 1.241 . S
O2145 Mn2139 2.087 . S
O2145 C2150 1.256 . S
C2146 O2152 1.278 . S
C2146 O2153 1.241 . S
C2147 O2133 1.244 . S
C2147 O2135 1.256 . S
C2148 O2137 1.239 . S
C2148 O2141 1.256 . S
C2149 O2138 1.278 . S
C2149 O2144 1.241 . S
C2150 O2140 1.244 . S
C2150 O2145 1.256 . S
C2151 O2142 1.239 . S
C2151 O2143 1.256 . S
O2152 Mn2134 2.221 . S
O2152 Mn2136 2.290 . S
O2152 C2146 1.278 . S
O2153 Mn2136 2.251 . S
O2153 C2146 1.241 . S
O2154 Mn2155 2.163 1_565 S
O2154 C2168 1.244 . S
Mn2155 O2154 2.163 1_545 S
Mn2155 O2158 2.160 . S
Mn2155 O2159 2.221 1_545 S
Mn2155 O2161 2.163 . S
Mn2155 O2163 2.160 . S
Mn2155 O2173 2.221 . S
O2156 Mn2157 2.087 . S
O2156 C2168 1.256 1_545 S
Mn2157 O2156 2.087 . S
Mn2157 O2164 2.089 . S
Mn2157 O2173 2.290 . S
Mn2157 O2174 2.251 . S
O2158 Mn2155 2.160 . S
O2158 C2169 1.239 . S
O2159 Mn2155 2.221 1_565 S
O2159 Mn2160 2.290 . S
O2159 C2170 1.278 . S
Mn2160 O2159 2.290 . S
Mn2160 O2162 2.089 1_565 S
Mn2160 O2165 2.251 . S
Mn2160 O2166 2.087 . S
O2161 Mn2155 2.163 . S
O2161 C2171 1.244 1_545 S
O2162 Mn2160 2.089 1_545 S
O2162 C2169 1.256 . S
O2163 Mn2155 2.160 . S
O2163 C2172 1.239 . S
O2164 Mn2157 2.089 . S
O2164 C2172 1.256 . S
O2165 Mn2160 2.251 . S
O2165 C2170 1.241 . S
O2166 Mn2160 2.087 . S
O2166 C2171 1.256 . S
C2167 O2173 1.278 . S
C2167 O2174 1.241 . S
C2168 O2154 1.244 . S
C2168 O2156 1.256 1_565 S
C2169 O2158 1.239 . S
C2169 O2162 1.256 . S
C2170 O2159 1.278 . S
C2170 O2165 1.241 . S
C2171 O2161 1.244 1_565 S
C2171 O2166 1.256 . S
C2172 O2163 1.239 . S
C2172 O2164 1.256 . S
O2173 Mn2155 2.221 . S
O2173 Mn2157 2.290 . S
O2173 C2167 1.278 . S
O2174 Mn2157 2.251 . S
O2174 C2167 1.241 . S
O2175 Mn2176 2.163 . S
O2175 C2189 1.244 . S
Mn2176 O2175 2.163 . S
Mn2176 O2179 2.160 . S
Mn2176 O2180 2.221 . S
Mn2176 O2182 2.163 . S
Mn2176 O2184 2.160 . S
Mn2176 O2194 2.221 . S
O2177 Mn2178 2.087 . S
O2177 C2189 1.256 . S
Mn2178 O2177 2.087 . S
Mn2178 O2185 2.089 . S
Mn2178 O2194 2.290 . S
Mn2178 O2195 2.251 . S
O2179 Mn2176 2.160 . S
O2179 C2190 1.239 . S
O2180 Mn2176 2.221 . S
O2180 Mn2181 2.290 . S
O2180 C2191 1.278 . S
Mn2181 O2180 2.290 . S
Mn2181 O2183 2.089 . S
Mn2181 O2186 2.251 . S
Mn2181 O2187 2.087 . S
O2182 Mn2176 2.163 . S
O2182 C2192 1.244 . S
O2183 Mn2181 2.089 . S
O2183 C2190 1.256 . S
O2184 Mn2176 2.160 . S
O2184 C2193 1.239 . S
O2185 Mn2178 2.089 . S
O2185 C2193 1.256 . S
O2186 Mn2181 2.251 . S
O2186 C2191 1.241 . S
O2187 Mn2181 2.087 . S
O2187 C2192 1.256 . S
C2188 O2194 1.278 . S
C2188 O2195 1.241 . S
C2189 O2175 1.244 . S
C2189 O2177 1.256 . S
C2190 O2179 1.239 . S
C2190 O2183 1.256 . S
C2191 O2180 1.278 . S
C2191 O2186 1.241 . S
C2192 O2182 1.244 . S
C2192 O2187 1.256 . S
C2193 O2184 1.239 . S
C2193 O2185 1.256 . S
O2194 Mn2176 2.221 . S
O2194 Mn2178 2.290 . S
O2194 C2188 1.278 . S
O2195 Mn2178 2.251 . S
O2195 C2188 1.241 . S
O2196 Mn2197 2.163 1_565 S
O2196 C2210 1.244 . S
Mn2197 O2196 2.163 1_545 S
Mn2197 O2200 2.160 . S
Mn2197 O2201 2.221 . S
Mn2197 O2203 2.163 1_455 S
Mn2197 O2205 2.160 1_545 S
Mn2197 O2215 2.221 1_545 S
O2198 Mn2199 2.092 . S
O2198 C2210 1.256 . S
Mn2199 O2198 2.092 . S
Mn2199 O2206 2.089 . S
Mn2199 O2215 2.290 . S
Mn2199 O2216 2.251 1_455 S
O2200 Mn2197 2.160 . S
O2200 C2211 1.239 . S
O2201 Mn2197 2.221 . S
O2201 Mn2202 2.317 . S
O2201 C2212 1.278 . S
Mn2202 O2201 2.317 . S
Mn2202 O2204 2.096 . S
Mn2202 O2207 2.261 . S
Mn2202 O2208 2.042 1_455 S
O2203 Mn2197 2.163 1_655 S
O2203 C2213 1.244 . S
O2204 Mn2202 2.096 . S
O2204 C2211 1.256 . S
O2205 Mn2197 2.160 1_565 S
O2205 C2214 1.239 . S
O2206 Mn2199 2.089 . S
O2206 C2214 1.256 . S
O2207 Mn2202 2.261 . S
O2207 C2212 1.241 . S
O2208 Mn2202 2.042 1_655 S
O2208 C2213 1.256 . S
C2209 O2215 1.278 1_655 S
C2209 O2216 1.241 . S
C2210 O2196 1.244 . S
C2210 O2198 1.256 . S
C2211 O2200 1.239 . S
C2211 O2204 1.256 . S
C2212 O2201 1.278 . S
C2212 O2207 1.241 . S
C2213 O2203 1.244 . S
C2213 O2208 1.256 . S
C2214 O2205 1.239 . S
C2214 O2206 1.256 . S
O2215 Mn2197 2.221 1_565 S
O2215 Mn2199 2.290 . S
O2215 C2209 1.278 1_455 S
O2216 Mn2199 2.251 1_655 S
O2216 C2209 1.241 . S
O2217 Mn2218 2.163 . S
O2217 C2231 1.244 . S
Mn2218 O2217 2.163 . S
Mn2218 O2221 2.160 . S
Mn2218 O2222 2.221 . S
Mn2218 O2224 2.163 . S
Mn2218 O2226 2.160 . S
Mn2218 O2236 2.221 . S
O2219 Mn2220 2.087 . S
O2219 C2231 1.256 . S
Mn2220 O2219 2.087 . S
Mn2220 O2227 2.089 . S
Mn2220 O2236 2.290 . S
Mn2220 O2237 2.251 . S
O2221 Mn2218 2.160 . S
O2221 C2232 1.239 . S
O2222 Mn2218 2.221 . S
O2222 Mn2223 2.290 . S
O2222 C2233 1.278 . S
Mn2223 O2222 2.290 . S
Mn2223 O2225 2.089 . S
Mn2223 O2228 2.251 . S
Mn2223 O2229 2.087 . S
O2224 Mn2218 2.163 . S
O2224 C2234 1.244 . S
O2225 Mn2223 2.089 . S
O2225 C2232 1.256 . S
O2226 Mn2218 2.160 . S
O2226 C2235 1.239 . S
O2227 Mn2220 2.089 . S
O2227 C2235 1.256 . S
O2228 Mn2223 2.251 . S
O2228 C2233 1.241 . S
O2229 Mn2223 2.087 . S
O2229 C2234 1.256 . S
C2230 O2236 1.278 . S
C2230 O2237 1.241 . S
C2231 O2217 1.244 . S
C2231 O2219 1.256 . S
C2232 O2221 1.239 . S
C2232 O2225 1.256 . S
C2233 O2222 1.278 . S
C2233 O2228 1.241 . S
C2234 O2224 1.244 . S
C2234 O2229 1.256 . S
C2235 O2226 1.239 . S
C2235 O2227 1.256 . S
O2236 Mn2218 2.221 . S
O2236 Mn2220 2.290 . S
O2236 C2230 1.278 . S
O2237 Mn2220 2.251 . S
O2237 C2230 1.241 . S
O2238 Mn2239 2.163 1_556 S
O2238 C2252 1.239 1_545 S
Mn2239 O2238 2.163 1_554 S
Mn2239 O2242 2.160 . S
Mn2239 O2243 2.221 . S
Mn2239 O2245 2.163 1_545 S
Mn2239 O2247 2.160 1_554 S
Mn2239 O2257 2.226 1_554 S
O2240 Mn2241 2.087 1_565 S
O2240 C2252 1.259 . S
Mn2241 O2240 2.087 1_545 S
Mn2241 O2248 2.089 . S
Mn2241 O2257 2.298 . S
Mn2241 O2258 2.251 1_545 S
O2242 Mn2239 2.160 . S
O2242 C2253 1.239 . S
O2243 Mn2239 2.221 . S
O2243 Mn2244 2.290 1_545 S
O2243 C2254 1.278 . S
Mn2244 O2243 2.290 1_565 S
Mn2244 O2246 2.089 1_565 S
Mn2244 O2249 2.251 1_565 S
Mn2244 O2250 2.087 . S
O2245 Mn2239 2.163 1_565 S
O2245 C2255 1.244 . S
O2246 Mn2244 2.089 1_545 S
O2246 C2253 1.256 . S
O2247 Mn2239 2.160 1_556 S
O2247 C2256 1.239 . S
O2248 Mn2241 2.089 . S
O2248 C2256 1.256 . S
O2249 Mn2244 2.251 1_545 S
O2249 C2254 1.241 . S
O2250 Mn2244 2.087 . S
O2250 C2255 1.256 . S
C2251 O2257 1.260 1_565 S
C2251 O2258 1.241 . S
C2252 O2238 1.239 1_565 S
C2252 O2240 1.259 . S
C2253 O2242 1.239 . S
C2253 O2246 1.256 . S
C2254 O2243 1.278 . S
C2254 O2249 1.241 . S
C2255 O2245 1.244 . S
C2255 O2250 1.256 . S
C2256 O2247 1.239 . S
C2256 O2248 1.256 . S
O2257 Mn2239 2.226 1_556 S
O2257 Mn2241 2.298 . S
O2257 C2251 1.260 1_545 S
O2258 Mn2241 2.251 1_565 S
O2258 C2251 1.241 . S
O2259 Mn2260 2.163 . S
O2259 C2273 1.244 . S
Mn2260 O2259 2.163 . S
Mn2260 O2263 2.160 . S
Mn2260 O2264 2.221 . S
Mn2260 O2266 2.163 . S
Mn2260 O2268 2.160 . S
Mn2260 O2278 2.221 . S
O2261 Mn2262 2.087 . S
O2261 C2273 1.256 . S
Mn2262 O2261 2.087 . S
Mn2262 O2269 2.089 . S
Mn2262 O2278 2.290 . S
Mn2262 O2279 2.251 . S
O2263 Mn2260 2.160 . S
O2263 C2274 1.239 . S
O2264 Mn2260 2.221 . S
O2264 Mn2265 2.290 . S
O2264 C2275 1.278 . S
Mn2265 O2264 2.290 . S
Mn2265 O2267 2.089 . S
Mn2265 O2270 2.251 . S
Mn2265 O2271 2.087 . S
O2266 Mn2260 2.163 . S
O2266 C2276 1.244 . S
O2267 Mn2265 2.089 . S
O2267 C2274 1.256 . S
O2268 Mn2260 2.160 . S
O2268 C2277 1.239 . S
O2269 Mn2262 2.089 . S
O2269 C2277 1.256 . S
O2270 Mn2265 2.251 . S
O2270 C2275 1.241 . S
O2271 Mn2265 2.087 . S
O2271 C2276 1.256 . S
C2272 O2278 1.278 . S
C2272 O2279 1.241 . S
C2273 O2259 1.244 . S
C2273 O2261 1.256 . S
C2274 O2263 1.239 . S
C2274 O2267 1.256 . S
C2275 O2264 1.278 . S
C2275 O2270 1.241 . S
C2276 O2266 1.244 . S
C2276 O2271 1.256 . S
C2277 O2268 1.239 . S
C2277 O2269 1.256 . S
O2278 Mn2260 2.221 . S
O2278 Mn2262 2.290 . S
O2278 C2272 1.278 . S
O2279 Mn2262 2.251 . S
O2279 C2272 1.241 . S
O2280 Mn2281 2.163 1_556 S
O2280 C2294 1.244 . S
Mn2281 O2280 2.163 1_554 S
Mn2281 O2284 2.160 . S
Mn2281 O2285 2.221 1_554 S
Mn2281 O2287 2.163 . S
Mn2281 O2289 2.160 . S
Mn2281 O2299 2.221 . S
O2282 Mn2283 2.087 . S
O2282 C2294 1.256 1_554 S
Mn2283 O2282 2.087 . S
Mn2283 O2290 2.089 . S
Mn2283 O2299 2.290 . S
Mn2283 O2300 2.251 . S
O2284 Mn2281 2.160 . S
O2284 C2295 1.239 . S
O2285 Mn2281 2.221 1_556 S
O2285 Mn2286 2.290 . S
O2285 C2296 1.278 . S
Mn2286 O2285 2.290 . S
Mn2286 O2288 2.089 1_556 S
Mn2286 O2291 2.251 . S
Mn2286 O2292 2.087 . S
O2287 Mn2281 2.163 . S
O2287 C2297 1.244 1_554 S
O2288 Mn2286 2.089 1_554 S
O2288 C2295 1.256 . S
O2289 Mn2281 2.160 . S
O2289 C2298 1.239 . S
O2290 Mn2283 2.089 . S
O2290 C2298 1.256 . S
O2291 Mn2286 2.251 . S
O2291 C2296 1.241 . S
O2292 Mn2286 2.087 . S
O2292 C2297 1.256 . S
C2293 O2299 1.278 . S
C2293 O2300 1.241 . S
C2294 O2280 1.244 . S
C2294 O2282 1.256 1_556 S
C2295 O2284 1.239 . S
C2295 O2288 1.256 . S
C2296 O2285 1.278 . S
C2296 O2291 1.241 . S
C2297 O2287 1.244 1_556 S
C2297 O2292 1.256 . S
C2298 O2289 1.239 . S
C2298 O2290 1.256 . S
O2299 Mn2281 2.221 . S
O2299 Mn2283 2.290 . S
O2299 C2293 1.278 . S
O2300 Mn2283 2.251 . S
O2300 C2293 1.241 . S
O2301 Mn2302 2.163 . S
O2301 C2315 1.244 . S
Mn2302 O2301 2.163 . S
Mn2302 O2305 2.160 . S
Mn2302 O2306 2.221 . S
Mn2302 O2308 2.163 . S
Mn2302 O2310 2.160 . S
Mn2302 O2320 2.221 . S
O2303 Mn2304 2.087 . S
O2303 C2315 1.256 . S
Mn2304 O2303 2.087 . S
Mn2304 O2311 2.089 . S
Mn2304 O2320 2.290 . S
Mn2304 O2321 2.251 . S
O2305 Mn2302 2.160 . S
O2305 C2316 1.239 . S
O2306 Mn2302 2.221 . S
O2306 Mn2307 2.290 . S
O2306 C2317 1.278 . S
Mn2307 O2306 2.290 . S
Mn2307 O2309 2.089 . S
Mn2307 O2312 2.251 . S
Mn2307 O2313 2.087 . S
O2308 Mn2302 2.163 . S
O2308 C2318 1.244 . S
O2309 Mn2307 2.089 . S
O2309 C2316 1.256 . S
O2310 Mn2302 2.160 . S
O2310 C2319 1.239 . S
O2311 Mn2304 2.089 . S
O2311 C2319 1.256 . S
O2312 Mn2307 2.251 . S
O2312 C2317 1.241 . S
O2313 Mn2307 2.087 . S
O2313 C2318 1.256 . S
C2314 O2320 1.278 . S
C2314 O2321 1.241 . S
C2315 O2301 1.244 . S
C2315 O2303 1.256 . S
C2316 O2305 1.239 . S
C2316 O2309 1.256 . S
C2317 O2306 1.278 . S
C2317 O2312 1.241 . S
C2318 O2308 1.244 . S
C2318 O2313 1.256 . S
C2319 O2310 1.239 . S
C2319 O2311 1.256 . S
O2320 Mn2302 2.221 . S
O2320 Mn2304 2.290 . S
O2320 C2314 1.278 . S
O2321 Mn2304 2.251 . S
O2321 C2314 1.241 . S
O2322 Mn2323 2.163 1_655 S
O2322 C2336 1.244 . S
Mn2323 O2322 2.163 1_455 S
Mn2323 O2326 2.160 . S
Mn2323 O2327 2.221 1_455 S
Mn2323 O2329 2.163 . S
Mn2323 O2331 2.160 . S
Mn2323 O2341 2.221 . S
O2324 Mn2325 2.087 . S
O2324 C2336 1.256 1_455 S
Mn2325 O2324 2.087 . S
Mn2325 O2332 2.089 . S
Mn2325 O2341 2.290 . S
Mn2325 O2342 2.251 . S
O2326 Mn2323 2.160 . S
O2326 C2337 1.239 . S
O2327 Mn2323 2.221 1_655 S
O2327 Mn2328 2.290 . S
O2327 C2338 1.278 . S
Mn2328 O2327 2.290 . S
Mn2328 O2330 2.089 1_655 S
Mn2328 O2333 2.251 . S
Mn2328 O2334 2.087 . S
O2329 Mn2323 2.163 . S
O2329 C2339 1.244 1_455 S
O2330 Mn2328 2.089 1_455 S
O2330 C2337 1.256 . S
O2331 Mn2323 2.160 . S
O2331 C2340 1.239 . S
O2332 Mn2325 2.089 . S
O2332 C2340 1.256 . S
O2333 Mn2328 2.251 . S
O2333 C2338 1.241 . S
O2334 Mn2328 2.087 . S
O2334 C2339 1.256 . S
C2335 O2341 1.278 . S
C2335 O2342 1.241 . S
C2336 O2322 1.244 . S
C2336 O2324 1.256 1_655 S
C2337 O2326 1.239 . S
C2337 O2330 1.256 . S
C2338 O2327 1.278 . S
C2338 O2333 1.241 . S
C2339 O2329 1.244 1_655 S
C2339 O2334 1.256 . S
C2340 O2331 1.239 . S
C2340 O2332 1.256 . S
O2341 Mn2323 2.221 . S
O2341 Mn2325 2.290 . S
O2341 C2335 1.278 . S
O2342 Mn2325 2.251 . S
O2342 C2335 1.241 . S
O2343 Mn2344 2.163 . S
O2343 C2357 1.244 . S
Mn2344 O2343 2.163 . S
Mn2344 O2347 2.160 . S
Mn2344 O2348 2.221 . S
Mn2344 O2350 2.163 . S
Mn2344 O2352 2.160 . S
Mn2344 O2362 2.221 . S
O2345 Mn2346 2.087 . S
O2345 C2357 1.256 . S
Mn2346 O2345 2.087 . S
Mn2346 O2353 2.089 . S
Mn2346 O2362 2.290 . S
Mn2346 O2363 2.251 . S
O2347 Mn2344 2.160 . S
O2347 C2358 1.239 . S
O2348 Mn2344 2.221 . S
O2348 Mn2349 2.290 . S
O2348 C2359 1.278 . S
Mn2349 O2348 2.290 . S
Mn2349 O2351 2.089 . S
Mn2349 O2354 2.251 . S
Mn2349 O2355 2.087 . S
O2350 Mn2344 2.163 . S
O2350 C2360 1.244 . S
O2351 Mn2349 2.089 . S
O2351 C2358 1.256 . S
O2352 Mn2344 2.160 . S
O2352 C2361 1.239 . S
O2353 Mn2346 2.089 . S
O2353 C2361 1.256 . S
O2354 Mn2349 2.251 . S
O2354 C2359 1.241 . S
O2355 Mn2349 2.087 . S
O2355 C2360 1.256 . S
C2356 O2362 1.278 . S
C2356 O2363 1.241 . S
C2357 O2343 1.244 . S
C2357 O2345 1.256 . S
C2358 O2347 1.239 . S
C2358 O2351 1.256 . S
C2359 O2348 1.278 . S
C2359 O2354 1.241 . S
C2360 O2350 1.244 . S
C2360 O2355 1.256 . S
C2361 O2352 1.239 . S
C2361 O2353 1.256 . S
O2362 Mn2344 2.221 . S
O2362 Mn2346 2.290 . S
O2362 C2356 1.278 . S
O2363 Mn2346 2.251 . S
O2363 C2356 1.241 . S
O2364 Mn2365 2.163 . S
O2364 C2378 1.244 . S
Mn2365 O2364 2.163 . S
Mn2365 O2368 2.160 . S
Mn2365 O2369 2.221 . S
Mn2365 O2371 2.163 . S
Mn2365 O2373 2.160 . S
Mn2365 O2383 2.221 . S
O2366 Mn2367 2.087 . S
O2366 C2378 1.256 . S
Mn2367 O2366 2.087 . S
Mn2367 O2374 2.089 . S
Mn2367 O2383 2.290 . S
Mn2367 O2384 2.251 . S
O2368 Mn2365 2.160 . S
O2368 C2379 1.239 . S
O2369 Mn2365 2.221 . S
O2369 Mn2370 2.290 . S
O2369 C2380 1.278 . S
Mn2370 O2369 2.290 . S
Mn2370 O2372 2.089 . S
Mn2370 O2375 2.251 . S
Mn2370 O2376 2.087 . S
O2371 Mn2365 2.163 . S
O2371 C2381 1.244 . S
O2372 Mn2370 2.089 . S
O2372 C2379 1.256 . S
O2373 Mn2365 2.160 . S
O2373 C2382 1.239 . S
O2374 Mn2367 2.089 . S
O2374 C2382 1.256 . S
O2375 Mn2370 2.251 . S
O2375 C2380 1.241 . S
O2376 Mn2370 2.087 . S
O2376 C2381 1.256 . S
C2377 O2383 1.278 . S
C2377 O2384 1.241 . S
C2378 O2364 1.244 . S
C2378 O2366 1.256 . S
C2379 O2368 1.239 . S
C2379 O2372 1.256 . S
C2380 O2369 1.278 . S
C2380 O2375 1.241 . S
C2381 O2371 1.244 . S
C2381 O2376 1.256 . S
C2382 O2373 1.239 . S
C2382 O2374 1.256 . S
O2383 Mn2365 2.221 . S
O2383 Mn2367 2.290 . S
O2383 C2377 1.278 . S
O2384 Mn2367 2.251 . S
O2384 C2377 1.241 . S
O2385 Mn2386 2.163 . S
O2385 C2399 1.244 . S
Mn2386 O2385 2.163 . S
Mn2386 O2389 2.160 . S
Mn2386 O2390 2.221 . S
Mn2386 O2392 2.163 . S
Mn2386 O2394 2.160 . S
Mn2386 O2404 2.221 . S
O2387 Mn2388 2.087 . S
O2387 C2399 1.256 . S
Mn2388 O2387 2.087 . S
Mn2388 O2395 2.089 . S
Mn2388 O2404 2.290 . S
Mn2388 O2405 2.251 . S
O2389 Mn2386 2.160 . S
O2389 C2400 1.239 . S
O2390 Mn2386 2.221 . S
O2390 Mn2391 2.290 . S
O2390 C2401 1.278 . S
Mn2391 O2390 2.290 . S
Mn2391 O2393 2.089 . S
Mn2391 O2396 2.251 . S
Mn2391 O2397 2.087 . S
O2392 Mn2386 2.163 . S
O2392 C2402 1.244 . S
O2393 Mn2391 2.089 . S
O2393 C2400 1.256 . S
O2394 Mn2386 2.160 . S
O2394 C2403 1.239 . S
O2395 Mn2388 2.089 . S
O2395 C2403 1.256 . S
O2396 Mn2391 2.251 . S
O2396 C2401 1.241 . S
O2397 Mn2391 2.087 . S
O2397 C2402 1.256 . S
C2398 O2404 1.278 . S
C2398 O2405 1.241 . S
C2399 O2385 1.244 . S
C2399 O2387 1.256 . S
C2400 O2389 1.239 . S
C2400 O2393 1.256 . S
C2401 O2390 1.278 . S
C2401 O2396 1.241 . S
C2402 O2392 1.244 . S
C2402 O2397 1.256 . S
C2403 O2394 1.239 . S
C2403 O2395 1.256 . S
O2404 Mn2386 2.221 . S
O2404 Mn2388 2.290 . S
O2404 C2398 1.278 . S
O2405 Mn2388 2.251 . S
O2405 C2398 1.241 . S
O2406 Mn2407 2.163 . S
O2406 C2420 1.244 . S
Mn2407 O2406 2.163 . S
Mn2407 O2410 2.160 . S
Mn2407 O2411 2.221 . S
Mn2407 O2413 2.163 . S
Mn2407 O2415 2.160 . S
Mn2407 O2425 2.221 . S
O2408 Mn2409 2.087 . S
O2408 C2420 1.256 . S
Mn2409 O2408 2.087 . S
Mn2409 O2416 2.089 . S
Mn2409 O2425 2.290 . S
Mn2409 O2426 2.251 . S
O2410 Mn2407 2.160 . S
O2410 C2421 1.239 . S
O2411 Mn2407 2.221 . S
O2411 Mn2412 2.290 . S
O2411 C2422 1.278 . S
Mn2412 O2411 2.290 . S
Mn2412 O2414 2.089 . S
Mn2412 O2417 2.251 . S
Mn2412 O2418 2.087 . S
O2413 Mn2407 2.163 . S
O2413 C2423 1.244 . S
O2414 Mn2412 2.089 . S
O2414 C2421 1.256 . S
O2415 Mn2407 2.160 . S
O2415 C2424 1.239 . S
O2416 Mn2409 2.089 . S
O2416 C2424 1.256 . S
O2417 Mn2412 2.251 . S
O2417 C2422 1.241 . S
O2418 Mn2412 2.087 . S
O2418 C2423 1.256 . S
C2419 O2425 1.278 . S
C2419 O2426 1.241 . S
C2420 O2406 1.244 . S
C2420 O2408 1.256 . S
C2421 O2410 1.239 . S
C2421 O2414 1.256 . S
C2422 O2411 1.278 . S
C2422 O2417 1.241 . S
C2423 O2413 1.244 . S
C2423 O2418 1.256 . S
C2424 O2415 1.239 . S
C2424 O2416 1.256 . S
O2425 Mn2407 2.221 . S
O2425 Mn2409 2.290 . S
O2425 C2419 1.278 . S
O2426 Mn2409 2.251 . S
O2426 C2419 1.241 . S
O2427 Mn2428 2.170 1_655 S
O2427 C2441 1.240 1_554 S
Mn2428 O2427 2.170 1_455 S
Mn2428 O2431 2.160 . S
Mn2428 O2432 2.221 . S
Mn2428 O2434 2.163 1_554 S
Mn2428 O2436 2.160 1_455 S
Mn2428 O2446 2.219 1_454 S
O2429 Mn2430 2.087 1_556 S
O2429 C2441 1.256 . S
Mn2430 O2429 2.087 1_554 S
Mn2430 O2437 2.089 . S
Mn2430 O2446 2.287 1_554 S
Mn2430 O2447 2.251 1_554 S
O2431 Mn2428 2.160 . S
O2431 C2442 1.239 . S
O2432 Mn2428 2.221 . S
O2432 Mn2433 2.290 1_554 S
O2432 C2443 1.278 . S
Mn2433 O2432 2.290 1_556 S
Mn2433 O2435 2.089 1_556 S
Mn2433 O2438 2.251 1_556 S
Mn2433 O2439 2.087 . S
O2434 Mn2428 2.163 1_556 S
O2434 C2444 1.244 . S
O2435 Mn2433 2.089 1_554 S
O2435 C2442 1.256 . S
O2436 Mn2428 2.160 1_655 S
O2436 C2445 1.239 . S
O2437 Mn2430 2.089 . S
O2437 C2445 1.256 . S
O2438 Mn2433 2.251 1_554 S
O2438 C2443 1.241 . S
O2439 Mn2433 2.087 . S
O2439 C2444 1.256 . S
C2440 O2446 1.286 . S
C2440 O2447 1.241 . S
C2441 O2427 1.240 1_556 S
C2441 O2429 1.256 . S
C2442 O2431 1.239 . S
C2442 O2435 1.256 . S
C2443 O2432 1.278 . S
C2443 O2438 1.241 . S
C2444 O2434 1.244 . S
C2444 O2439 1.256 . S
C2445 O2436 1.239 . S
C2445 O2437 1.256 . S
O2446 Mn2428 2.219 1_656 S
O2446 Mn2430 2.287 1_556 S
O2446 C2440 1.286 . S
O2447 Mn2430 2.251 1_556 S
O2447 C2440 1.241 . S
H2448 C2456 0.948 . S
H2449 C2461 0.950 . S
H2450 C2458 0.947 1_655 S
H2451 C2460 0.950 . S
H2452 C2462 0.950 1_556 S
H2453 C2464 0.950 . S
H2454 C2466 0.950 . S
H2455 C2467 0.950 . S
C2456 H2448 0.948 . S
C2456 C2457 1.391 . S
C2456 C2458 1.391 . S
C2457 C2456 1.391 . S
C2457 C2461 1.393 . S
C2458 H2450 0.947 1_455 S
C2458 C2456 1.391 . S
C2458 C2459 1.400 . S
C2459 C2458 1.400 . S
C2459 C2460 1.398 . S
C2459 C2465 1.492 . S
C2460 H2451 0.950 . S
C2460 C2459 1.398 . S
C2460 C2461 1.391 . S
C2461 H2449 0.950 . S
C2461 C2457 1.393 . S
C2461 C2460 1.391 . S
C2462 H2452 0.950 1_554 S
C2462 C2463 1.383 1_455 S
C2462 C2464 1.391 . S
C2463 C2462 1.383 1_655 S
C2463 C2467 1.394 . S
C2464 H2453 0.950 . S
C2464 C2462 1.391 . S
C2464 C2465 1.403 . S
C2465 C2459 1.492 . S
C2465 C2464 1.403 . S
C2465 C2466 1.397 1_455 S
C2466 H2454 0.950 . S
C2466 C2465 1.397 1_655 S
C2466 C2467 1.391 . S
C2467 H2455 0.950 . S
C2467 C2463 1.394 . S
C2467 C2466 1.391 . S
H2468 C2476 0.950 . S
H2469 C2481 0.950 . S
H2470 C2478 0.950 . S
H2471 C2480 0.950 . S
H2472 C2482 0.950 . S
H2473 C2484 0.950 . S
H2474 C2486 0.950 . S
H2475 C2487 0.950 . S
C2476 H2468 0.950 . S
C2476 C2477 1.386 . S
C2476 C2478 1.391 . S
C2477 C2476 1.386 . S
C2477 C2481 1.393 . S
C2478 H2470 0.950 . S
C2478 C2476 1.391 . S
C2478 C2479 1.400 . S
C2479 C2478 1.400 . S
C2479 C2480 1.398 . S
C2479 C2485 1.491 . S
C2480 H2471 0.950 . S
C2480 C2479 1.398 . S
C2480 C2481 1.391 . S
C2481 H2469 0.950 . S
C2481 C2477 1.393 . S
C2481 C2480 1.391 . S
C2482 H2472 0.950 . S
C2482 C2483 1.386 . S
C2482 C2484 1.391 . S
C2483 C2482 1.386 . S
C2483 C2487 1.393 . S
C2484 H2473 0.950 . S
C2484 C2482 1.391 . S
C2484 C2485 1.400 . S
C2485 C2479 1.491 . S
C2485 C2484 1.400 . S
C2485 C2486 1.398 . S
C2486 H2474 0.950 . S
C2486 C2485 1.398 . S
C2486 C2487 1.391 . S
C2487 H2475 0.950 . S
C2487 C2483 1.393 . S
C2487 C2486 1.391 . S
H2488 C2496 0.950 . S
H2489 C2501 0.950 . S
H2490 C2498 0.950 . S
H2491 C2500 0.950 . S
H2492 C2502 0.950 . S
H2493 C2504 0.950 . S
H2494 C2506 0.950 . S
H2495 C2507 0.950 . S
C2496 H2488 0.950 . S
C2496 C2497 1.386 . S
C2496 C2498 1.391 . S
C2497 C2496 1.386 . S
C2497 C2501 1.393 . S
C2498 H2490 0.950 . S
C2498 C2496 1.391 . S
C2498 C2499 1.400 . S
C2499 C2498 1.400 . S
C2499 C2500 1.398 . S
C2499 C2505 1.491 . S
C2500 H2491 0.950 . S
C2500 C2499 1.398 . S
C2500 C2501 1.391 . S
C2501 H2489 0.950 . S
C2501 C2497 1.393 . S
C2501 C2500 1.391 . S
C2502 H2492 0.950 . S
C2502 C2503 1.386 . S
C2502 C2504 1.391 . S
C2503 C2502 1.386 . S
C2503 C2507 1.393 . S
C2504 H2493 0.950 . S
C2504 C2502 1.391 . S
C2504 C2505 1.400 . S
C2505 C2499 1.491 . S
C2505 C2504 1.400 . S
C2505 C2506 1.398 . S
C2506 H2494 0.950 . S
C2506 C2505 1.398 . S
C2506 C2507 1.391 . S
C2507 H2495 0.950 . S
C2507 C2503 1.393 . S
C2507 C2506 1.391 . S
H2508 C2516 0.950 . S
H2509 C2521 0.950 . S
H2510 C2518 0.950 . S
H2511 C2520 0.950 . S
H2512 C2522 0.950 . S
H2513 C2524 0.950 . S
H2514 C2526 0.950 . S
H2515 C2527 0.950 . S
C2516 H2508 0.950 . S
C2516 C2517 1.386 . S
C2516 C2518 1.391 . S
C2517 C2516 1.386 . S
C2517 C2521 1.393 . S
C2518 H2510 0.950 . S
C2518 C2516 1.391 . S
C2518 C2519 1.400 . S
C2519 C2518 1.400 . S
C2519 C2520 1.398 . S
C2519 C2525 1.491 . S
C2520 H2511 0.950 . S
C2520 C2519 1.398 . S
C2520 C2521 1.391 . S
C2521 H2509 0.950 . S
C2521 C2517 1.393 . S
C2521 C2520 1.391 . S
C2522 H2512 0.950 . S
C2522 C2523 1.386 . S
C2522 C2524 1.391 . S
C2523 C2522 1.386 . S
C2523 C2527 1.393 . S
C2524 H2513 0.950 . S
C2524 C2522 1.391 . S
C2524 C2525 1.400 . S
C2525 C2519 1.491 . S
C2525 C2524 1.400 . S
C2525 C2526 1.398 . S
C2526 H2514 0.950 . S
C2526 C2525 1.398 . S
C2526 C2527 1.391 . S
C2527 H2515 0.950 . S
C2527 C2523 1.393 . S
C2527 C2526 1.391 . S
H2528 C2536 0.950 . S
H2529 C2541 0.950 . S
H2530 C2538 0.950 . S
H2531 C2540 0.950 . S
H2532 C2542 0.950 . S
H2533 C2544 0.950 . S
H2534 C2546 0.950 . S
H2535 C2547 0.950 . S
C2536 H2528 0.950 . S
C2536 C2537 1.386 . S
C2536 C2538 1.391 . S
C2537 C2536 1.386 . S
C2537 C2541 1.393 1_455 S
C2538 H2530 0.950 . S
C2538 C2536 1.391 . S
C2538 C2539 1.400 . S
C2539 C2538 1.400 . S
C2539 C2540 1.398 1_455 S
C2539 C2545 1.491 . S
C2540 H2531 0.950 . S
C2540 C2539 1.398 1_655 S
C2540 C2541 1.391 . S
C2541 H2529 0.950 . S
C2541 C2537 1.393 1_655 S
C2541 C2540 1.391 . S
C2542 H2532 0.950 . S
C2542 C2543 1.342 1_655 S
C2542 C2544 1.391 . S
C2543 C2542 1.342 1_455 S
C2543 C2547 1.440 . S
C2544 H2533 0.950 . S
C2544 C2542 1.391 . S
C2544 C2545 1.400 1_655 S
C2545 C2539 1.491 . S
C2545 C2544 1.400 1_455 S
C2545 C2546 1.398 . S
C2546 H2534 0.950 . S
C2546 C2545 1.398 . S
C2546 C2547 1.391 . S
C2547 H2535 0.950 . S
C2547 C2543 1.440 . S
C2547 C2546 1.391 . S
H2548 C2556 0.950 . S
H2549 C2561 0.950 . S
H2550 C2558 0.950 . S
H2551 C2560 0.950 . S
H2552 C2562 0.950 . S
H2553 C2564 0.950 . S
H2554 C2566 0.950 . S
H2555 C2567 0.950 . S
C2556 H2548 0.950 . S
C2556 C2557 1.386 . S
C2556 C2558 1.391 . S
C2557 C2556 1.386 . S
C2557 C2561 1.393 . S
C2558 H2550 0.950 . S
C2558 C2556 1.391 . S
C2558 C2559 1.400 . S
C2559 C2558 1.400 . S
C2559 C2560 1.398 . S
C2559 C2565 1.491 . S
C2560 H2551 0.950 . S
C2560 C2559 1.398 . S
C2560 C2561 1.391 . S
C2561 H2549 0.950 . S
C2561 C2557 1.393 . S
C2561 C2560 1.391 . S
C2562 H2552 0.950 . S
C2562 C2563 1.386 . S
C2562 C2564 1.391 . S
C2563 C2562 1.386 . S
C2563 C2567 1.393 . S
C2564 H2553 0.950 . S
C2564 C2562 1.391 . S
C2564 C2565 1.400 . S
C2565 C2559 1.491 . S
C2565 C2564 1.400 . S
C2565 C2566 1.398 . S
C2566 H2554 0.950 . S
C2566 C2565 1.398 . S
C2566 C2567 1.391 . S
C2567 H2555 0.950 . S
C2567 C2563 1.393 . S
C2567 C2566 1.391 . S
H2568 C2576 0.950 . S
H2569 C2581 0.950 . S
H2570 C2578 0.950 . S
H2571 C2580 0.950 . S
H2572 C2582 0.950 1_554 S
H2573 C2584 0.950 . S
H2574 C2586 0.950 . S
H2575 C2587 0.950 . S
C2576 H2568 0.950 . S
C2576 C2577 1.386 . S
C2576 C2578 1.391 . S
C2577 C2576 1.386 . S
C2577 C2581 1.393 . S
C2578 H2570 0.950 . S
C2578 C2576 1.391 . S
C2578 C2579 1.400 . S
C2579 C2578 1.400 . S
C2579 C2580 1.398 . S
C2579 C2585 1.491 . S
C2580 H2571 0.950 . S
C2580 C2579 1.398 . S
C2580 C2581 1.391 . S
C2581 H2569 0.950 . S
C2581 C2577 1.393 . S
C2581 C2580 1.391 . S
C2582 H2572 0.950 1_556 S
C2582 C2583 1.386 . S
C2582 C2584 1.391 . S
C2583 C2582 1.386 . S
C2583 C2587 1.393 . S
C2584 H2573 0.950 . S
C2584 C2582 1.391 . S
C2584 C2585 1.400 . S
C2585 C2579 1.491 . S
C2585 C2584 1.400 . S
C2585 C2586 1.398 . S
C2586 H2574 0.950 . S
C2586 C2585 1.398 . S
C2586 C2587 1.391 . S
C2587 H2575 0.950 . S
C2587 C2583 1.393 . S
C2587 C2586 1.391 . S
H2588 C2596 0.950 . S
H2589 C2601 0.950 . S
H2590 C2598 0.950 . S
H2591 C2600 0.950 . S
H2592 C2602 0.950 . S
H2593 C2604 0.950 . S
H2594 C2606 0.950 . S
H2595 C2607 0.950 . S
C2596 H2588 0.950 . S
C2596 C2597 1.386 . S
C2596 C2598 1.391 . S
C2597 C2596 1.386 . S
C2597 C2601 1.393 . S
C2598 H2590 0.950 . S
C2598 C2596 1.391 . S
C2598 C2599 1.400 . S
C2599 C2598 1.400 . S
C2599 C2600 1.398 . S
C2599 C2605 1.491 . S
C2600 H2591 0.950 . S
C2600 C2599 1.398 . S
C2600 C2601 1.391 . S
C2601 H2589 0.950 . S
C2601 C2597 1.393 . S
C2601 C2600 1.391 . S
C2602 H2592 0.950 . S
C2602 C2603 1.386 . S
C2602 C2604 1.391 . S
C2603 C2602 1.386 . S
C2603 C2607 1.393 . S
C2604 H2593 0.950 . S
C2604 C2602 1.391 . S
C2604 C2605 1.400 . S
C2605 C2599 1.491 . S
C2605 C2604 1.400 . S
C2605 C2606 1.398 . S
C2606 H2594 0.950 . S
C2606 C2605 1.398 . S
C2606 C2607 1.391 . S
C2607 H2595 0.950 . S
C2607 C2603 1.393 . S
C2607 C2606 1.391 . S
H2608 C2616 0.950 . S
H2609 C2621 0.950 . S
H2610 C2618 0.950 . S
H2611 C2620 0.950 . S
H2612 C2622 0.950 . S
H2613 C2624 0.950 . S
H2614 C2626 0.950 . S
H2615 C2627 0.950 . S
C2616 H2608 0.950 . S
C2616 C2617 1.386 1_565 S
C2616 C2618 1.391 . S
C2617 C2616 1.386 1_545 S
C2617 C2621 1.393 . S
C2618 H2610 0.950 . S
C2618 C2616 1.391 . S
C2618 C2619 1.409 . S
C2619 C2618 1.409 . S
C2619 C2620 1.389 1_565 S
C2619 C2625 1.492 . S
C2620 H2611 0.950 . S
C2620 C2619 1.389 1_545 S
C2620 C2621 1.391 . S
C2621 H2609 0.950 . S
C2621 C2617 1.393 . S
C2621 C2620 1.391 . S
C2622 H2612 0.950 . S
C2622 C2623 1.386 1_545 S
C2622 C2624 1.391 . S
C2623 C2622 1.386 1_565 S
C2623 C2627 1.393 . S
C2624 H2613 0.950 . S
C2624 C2622 1.391 . S
C2624 C2625 1.400 1_545 S
C2625 C2619 1.492 . S
C2625 C2624 1.400 1_565 S
C2625 C2626 1.398 . S
C2626 H2614 0.950 . S
C2626 C2625 1.398 . S
C2626 C2627 1.391 . S
C2627 H2615 0.950 . S
C2627 C2623 1.393 . S
C2627 C2626 1.391 . S
H2628 C2636 0.950 . S
H2629 C2641 0.950 . S
H2630 C2638 0.950 . S
H2631 C2640 0.950 . S
H2632 C2642 0.950 . S
H2633 C2644 0.950 . S
H2634 C2646 0.950 . S
H2635 C2647 0.950 . S
C2636 H2628 0.950 . S
C2636 C2637 1.386 . S
C2636 C2638 1.391 . S
C2637 C2636 1.386 . S
C2637 C2641 1.393 . S
C2638 H2630 0.950 . S
C2638 C2636 1.391 . S
C2638 C2639 1.400 . S
C2639 C2638 1.400 . S
C2639 C2640 1.398 . S
C2639 C2645 1.491 . S
C2640 H2631 0.950 . S
C2640 C2639 1.398 . S
C2640 C2641 1.391 . S
C2641 H2629 0.950 . S
C2641 C2637 1.393 . S
C2641 C2640 1.391 . S
C2642 H2632 0.950 . S
C2642 C2643 1.386 . S
C2642 C2644 1.391 . S
C2643 C2642 1.386 . S
C2643 C2647 1.393 . S
C2644 H2633 0.950 . S
C2644 C2642 1.391 . S
C2644 C2645 1.400 . S
C2645 C2639 1.491 . S
C2645 C2644 1.400 . S
C2645 C2646 1.398 . S
C2646 H2634 0.950 . S
C2646 C2645 1.398 . S
C2646 C2647 1.391 . S
C2647 H2635 0.950 . S
C2647 C2643 1.393 . S
C2647 C2646 1.391 . S
H2648 C2656 0.950 . S
H2649 C2661 0.950 1_565 S
H2650 C2658 0.950 . S
H2651 C2660 0.943 1_565 S
H2652 C2662 0.950 . S
H2653 C2664 0.950 . S
H2654 C2666 0.950 . S
H2655 C2667 0.950 . S
C2656 H2648 0.950 . S
C2656 C2657 1.386 . S
C2656 C2658 1.391 . S
C2657 C2656 1.386 . S
C2657 C2661 1.393 . S
C2658 H2650 0.950 . S
C2658 C2656 1.391 . S
C2658 C2659 1.400 . S
C2659 C2658 1.400 . S
C2659 C2660 1.398 . S
C2659 C2665 1.491 . S
C2660 H2651 0.943 1_545 S
C2660 C2659 1.398 . S
C2660 C2661 1.391 . S
C2661 H2649 0.950 1_545 S
C2661 C2657 1.393 . S
C2661 C2660 1.391 . S
C2662 H2652 0.950 . S
C2662 C2663 1.386 . S
C2662 C2664 1.391 . S
C2663 C2662 1.386 . S
C2663 C2667 1.393 . S
C2664 H2653 0.950 . S
C2664 C2662 1.391 . S
C2664 C2665 1.400 . S
C2665 C2659 1.491 . S
C2665 C2664 1.400 . S
C2665 C2666 1.398 . S
C2666 H2654 0.950 . S
C2666 C2665 1.398 . S
C2666 C2667 1.391 . S
C2667 H2655 0.950 . S
C2667 C2663 1.393 . S
C2667 C2666 1.391 . S
H2668 C2676 0.950 . S
H2669 C2681 0.950 . S
H2670 C2678 0.950 . S
H2671 C2680 0.950 . S
H2672 C2682 0.950 . S
H2673 C2684 0.950 . S
H2674 C2686 0.950 . S
H2675 C2687 0.950 . S
C2676 H2668 0.950 . S
C2676 C2677 1.386 . S
C2676 C2678 1.391 . S
C2677 C2676 1.386 . S
C2677 C2681 1.393 . S
C2678 H2670 0.950 . S
C2678 C2676 1.391 . S
C2678 C2679 1.400 . S
C2679 C2678 1.400 . S
C2679 C2680 1.398 . S
C2679 C2685 1.491 . S
C2680 H2671 0.950 . S
C2680 C2679 1.398 . S
C2680 C2681 1.391 . S
C2681 H2669 0.950 . S
C2681 C2677 1.393 . S
C2681 C2680 1.391 . S
C2682 H2672 0.950 . S
C2682 C2683 1.386 . S
C2682 C2684 1.391 . S
C2683 C2682 1.386 . S
C2683 C2687 1.393 . S
C2684 H2673 0.950 . S
C2684 C2682 1.391 . S
C2684 C2685 1.400 . S
C2685 C2679 1.491 . S
C2685 C2684 1.400 . S
C2685 C2686 1.398 . S
C2686 H2674 0.950 . S
C2686 C2685 1.398 . S
C2686 C2687 1.391 . S
C2687 H2675 0.950 . S
C2687 C2683 1.393 . S
C2687 C2686 1.391 . S
H2688 C2696 0.950 . S
H2689 C2701 0.950 . S
H2690 C2698 0.950 . S
H2691 C2700 0.950 . S
H2692 C2702 0.950 . S
H2693 C2704 0.950 . S
H2694 C2706 0.950 . S
H2695 C2707 0.950 . S
C2696 H2688 0.950 . S
C2696 C2697 1.386 . S
C2696 C2698 1.391 . S
C2697 C2696 1.386 . S
C2697 C2701 1.393 1_545 S
C2698 H2690 0.950 . S
C2698 C2696 1.391 . S
C2698 C2699 1.400 . S
C2699 C2698 1.400 . S
C2699 C2700 1.398 1_545 S
C2699 C2705 1.491 . S
C2700 H2691 0.950 . S
C2700 C2699 1.398 1_565 S
C2700 C2701 1.391 . S
C2701 H2689 0.950 . S
C2701 C2697 1.393 1_565 S
C2701 C2700 1.391 . S
C2702 H2692 0.950 . S
C2702 C2703 1.386 1_565 S
C2702 C2704 1.391 . S
C2703 C2702 1.386 1_545 S
C2703 C2707 1.393 . S
C2704 H2693 0.950 . S
C2704 C2702 1.391 . S
C2704 C2705 1.400 1_565 S
C2705 C2699 1.491 . S
C2705 C2704 1.400 1_545 S
C2705 C2706 1.398 . S
C2706 H2694 0.950 . S
C2706 C2705 1.398 . S
C2706 C2707 1.391 . S
C2707 H2695 0.950 . S
C2707 C2703 1.393 . S
C2707 C2706 1.391 . S
H2708 C2716 0.950 . S
H2709 C2721 0.950 . S
H2710 C2718 0.950 . S
H2711 C2720 0.950 . S
H2712 C2722 0.950 . S
H2713 C2724 0.950 . S
H2714 C2726 0.950 . S
H2715 C2727 0.950 . S
C2716 H2708 0.950 . S
C2716 C2717 1.386 . S
C2716 C2718 1.391 . S
C2717 C2716 1.386 . S
C2717 C2721 1.393 . S
C2718 H2710 0.950 . S
C2718 C2716 1.391 . S
C2718 C2719 1.400 . S
C2719 C2718 1.400 . S
C2719 C2720 1.398 . S
C2719 C2725 1.491 . S
C2720 H2711 0.950 . S
C2720 C2719 1.398 . S
C2720 C2721 1.391 . S
C2721 H2709 0.950 . S
C2721 C2717 1.393 . S
C2721 C2720 1.391 . S
C2722 H2712 0.950 . S
C2722 C2723 1.386 . S
C2722 C2724 1.391 . S
C2723 C2722 1.386 . S
C2723 C2727 1.393 . S
C2724 H2713 0.950 . S
C2724 C2722 1.391 . S
C2724 C2725 1.400 . S
C2725 C2719 1.491 . S
C2725 C2724 1.400 . S
C2725 C2726 1.398 . S
C2726 H2714 0.950 . S
C2726 C2725 1.398 . S
C2726 C2727 1.391 . S
C2727 H2715 0.950 . S
C2727 C2723 1.393 . S
C2727 C2726 1.391 . S
H2728 C2736 0.950 . S
H2729 C2741 0.950 . S
H2730 C2738 0.950 . S
H2731 C2740 0.950 . S
H2732 C2742 0.950 . S
H2733 C2744 0.950 . S
H2734 C2746 0.950 . S
H2735 C2747 0.950 . S
C2736 H2728 0.950 . S
C2736 C2737 1.386 . S
C2736 C2738 1.391 . S
C2737 C2736 1.386 . S
C2737 C2741 1.393 1_545 S
C2738 H2730 0.950 . S
C2738 C2736 1.391 . S
C2738 C2739 1.400 . S
C2739 C2738 1.400 . S
C2739 C2740 1.398 1_545 S
C2739 C2745 1.491 . S
C2740 H2731 0.950 . S
C2740 C2739 1.398 1_565 S
C2740 C2741 1.391 . S
C2741 H2729 0.950 . S
C2741 C2737 1.393 1_565 S
C2741 C2740 1.391 . S
C2742 H2732 0.950 . S
C2742 C2743 1.386 . S
C2742 C2744 1.391 . S
C2743 C2742 1.386 . S
C2743 C2747 1.393 1_565 S
C2744 H2733 0.950 . S
C2744 C2742 1.391 . S
C2744 C2745 1.400 1_565 S
C2745 C2739 1.491 . S
C2745 C2744 1.400 1_545 S
C2745 C2746 1.398 . S
C2746 H2734 0.950 . S
C2746 C2745 1.398 . S
C2746 C2747 1.391 . S
C2747 H2735 0.950 . S
C2747 C2743 1.393 1_545 S
C2747 C2746 1.391 . S
H2748 C2756 0.950 . S
H2749 C2761 0.950 . S
H2750 C2758 0.950 . S
H2751 C2760 0.950 . S
H2752 C2762 0.950 . S
H2753 C2764 0.950 . S
H2754 C2766 0.950 . S
H2755 C2767 0.950 . S
C2756 H2748 0.950 . S
C2756 C2757 1.386 . S
C2756 C2758 1.391 . S
C2757 C2756 1.386 . S
C2757 C2761 1.393 . S
C2758 H2750 0.950 . S
C2758 C2756 1.391 . S
C2758 C2759 1.400 . S
C2759 C2758 1.400 . S
C2759 C2760 1.398 . S
C2759 C2765 1.491 . S
C2760 H2751 0.950 . S
C2760 C2759 1.398 . S
C2760 C2761 1.391 . S
C2761 H2749 0.950 . S
C2761 C2757 1.393 . S
C2761 C2760 1.391 . S
C2762 H2752 0.950 . S
C2762 C2763 1.386 . S
C2762 C2764 1.391 . S
C2763 C2762 1.386 . S
C2763 C2767 1.393 . S
C2764 H2753 0.950 . S
C2764 C2762 1.391 . S
C2764 C2765 1.400 . S
C2765 C2759 1.491 . S
C2765 C2764 1.400 . S
C2765 C2766 1.398 . S
C2766 H2754 0.950 . S
C2766 C2765 1.398 . S
C2766 C2767 1.391 . S
C2767 H2755 0.950 . S
C2767 C2763 1.393 . S
C2767 C2766 1.391 . S
H2768 C2776 0.948 1_556 S
H2769 C2781 0.950 . S
H2770 C2778 0.946 1_556 S
H2771 C2780 0.950 . S
H2772 C2782 0.950 . S
H2773 C2784 0.950 . S
H2774 C2786 0.950 . S
H2775 C2787 0.950 . S
C2776 H2768 0.948 1_554 S
C2776 C2777 1.386 . S
C2776 C2778 1.393 . S
C2777 C2776 1.386 . S
C2777 C2781 1.393 . S
C2778 H2770 0.946 1_554 S
C2778 C2776 1.393 . S
C2778 C2779 1.403 . S
C2779 C2778 1.403 . S
C2779 C2780 1.398 . S
C2779 C2785 1.491 . S
C2780 H2771 0.950 . S
C2780 C2779 1.398 . S
C2780 C2781 1.391 . S
C2781 H2769 0.950 . S
C2781 C2777 1.393 . S
C2781 C2780 1.391 . S
C2782 H2772 0.950 . S
C2782 C2783 1.386 1_554 S
C2782 C2784 1.391 . S
C2783 C2782 1.386 1_556 S
C2783 C2787 1.393 . S
C2784 H2773 0.950 . S
C2784 C2782 1.391 . S
C2784 C2785 1.400 . S
C2785 C2779 1.491 . S
C2785 C2784 1.400 . S
C2785 C2786 1.398 1_554 S
C2786 H2774 0.950 . S
C2786 C2785 1.398 1_556 S
C2786 C2787 1.391 . S
C2787 H2775 0.950 . S
C2787 C2783 1.393 . S
C2787 C2786 1.391 . S
H2788 C2796 0.950 . S
H2789 C2801 0.950 . S
H2790 C2798 0.950 . S
H2791 C2800 0.950 . S
H2792 C2802 0.950 . S
H2793 C2804 0.950 . S
H2794 C2806 0.953 1_556 S
H2795 C2807 0.950 1_556 S
C2796 H2788 0.950 . S
C2796 C2797 1.386 1_556 S
C2796 C2798 1.391 . S
C2797 C2796 1.386 1_554 S
C2797 C2801 1.393 . S
C2798 H2790 0.950 . S
C2798 C2796 1.391 . S
C2798 C2799 1.400 1_556 S
C2799 C2798 1.400 1_554 S
C2799 C2800 1.398 . S
C2799 C2805 1.491 . S
C2800 H2791 0.950 . S
C2800 C2799 1.398 . S
C2800 C2801 1.391 . S
C2801 H2789 0.950 . S
C2801 C2797 1.393 . S
C2801 C2800 1.391 . S
C2802 H2792 0.950 . S
C2802 C2803 1.386 . S
C2802 C2804 1.391 . S
C2803 C2802 1.386 . S
C2803 C2807 1.393 . S
C2804 H2793 0.950 . S
C2804 C2802 1.391 . S
C2804 C2805 1.400 . S
C2805 C2799 1.491 . S
C2805 C2804 1.400 . S
C2805 C2806 1.396 . S
C2806 H2794 0.953 1_554 S
C2806 C2805 1.396 . S
C2806 C2807 1.390 . S
C2807 H2795 0.950 1_554 S
C2807 C2803 1.393 . S
C2807 C2806 1.390 . S
H2808 C2816 0.950 . S
H2809 C2821 0.950 . S
H2810 C2818 0.950 . S
H2811 C2820 0.950 . S
H2812 C2822 0.950 . S
H2813 C2824 0.950 . S
H2814 C2826 0.950 . S
H2815 C2827 0.950 . S
C2816 H2808 0.950 . S
C2816 C2817 1.386 . S
C2816 C2818 1.391 . S
C2817 C2816 1.386 . S
C2817 C2821 1.393 . S
C2818 H2810 0.950 . S
C2818 C2816 1.391 . S
C2818 C2819 1.400 . S
C2819 C2818 1.400 . S
C2819 C2820 1.398 . S
C2819 C2825 1.491 . S
C2820 H2811 0.950 . S
C2820 C2819 1.398 . S
C2820 C2821 1.391 . S
C2821 H2809 0.950 . S
C2821 C2817 1.393 . S
C2821 C2820 1.391 . S
C2822 H2812 0.950 . S
C2822 C2823 1.386 . S
C2822 C2824 1.391 . S
C2823 C2822 1.386 . S
C2823 C2827 1.393 . S
C2824 H2813 0.950 . S
C2824 C2822 1.391 . S
C2824 C2825 1.400 . S
C2825 C2819 1.491 . S
C2825 C2824 1.400 . S
C2825 C2826 1.398 . S
C2826 H2814 0.950 . S
C2826 C2825 1.398 . S
C2826 C2827 1.391 . S
C2827 H2815 0.950 . S
C2827 C2823 1.393 . S
C2827 C2826 1.391 . S
H2828 C2836 0.950 . S
H2829 C2841 0.950 . S
H2830 C2838 0.950 . S
H2831 C2840 0.950 . S
H2832 C2842 0.950 . S
H2833 C2844 0.950 . S
H2834 C2846 0.950 . S
H2835 C2847 0.950 . S
C2836 H2828 0.950 . S
C2836 C2837 1.386 . S
C2836 C2838 1.391 . S
C2837 C2836 1.386 . S
C2837 C2841 1.393 . S
C2838 H2830 0.950 . S
C2838 C2836 1.391 . S
C2838 C2839 1.400 . S
C2839 C2838 1.400 . S
C2839 C2840 1.398 . S
C2839 C2845 1.491 . S
C2840 H2831 0.950 . S
C2840 C2839 1.398 . S
C2840 C2841 1.391 . S
C2841 H2829 0.950 . S
C2841 C2837 1.393 . S
C2841 C2840 1.391 . S
C2842 H2832 0.950 . S
C2842 C2843 1.386 . S
C2842 C2844 1.391 . S
C2843 C2842 1.386 . S
C2843 C2847 1.393 . S
C2844 H2833 0.950 . S
C2844 C2842 1.391 . S
C2844 C2845 1.400 . S
C2845 C2839 1.491 . S
C2845 C2844 1.400 . S
C2845 C2846 1.398 . S
C2846 H2834 0.950 . S
C2846 C2845 1.398 . S
C2846 C2847 1.391 . S
C2847 H2835 0.950 . S
C2847 C2843 1.393 . S
C2847 C2846 1.391 . S
H2848 C2856 0.950 . S
H2849 C2861 0.950 . S
H2850 C2858 0.950 . S
H2851 C2860 0.950 . S
H2852 C2862 0.950 . S
H2853 C2864 0.950 . S
H2854 C2866 0.950 . S
H2855 C2867 0.950 . S
C2856 H2848 0.950 . S
C2856 C2857 1.386 . S
C2856 C2858 1.391 . S
C2857 C2856 1.386 . S
C2857 C2861 1.393 . S
C2858 H2850 0.950 . S
C2858 C2856 1.391 . S
C2858 C2859 1.400 . S
C2859 C2858 1.400 . S
C2859 C2860 1.398 . S
C2859 C2865 1.491 . S
C2860 H2851 0.950 . S
C2860 C2859 1.398 . S
C2860 C2861 1.391 . S
C2861 H2849 0.950 . S
C2861 C2857 1.393 . S
C2861 C2860 1.391 . S
C2862 H2852 0.950 . S
C2862 C2863 1.386 . S
C2862 C2864 1.391 . S
C2863 C2862 1.386 . S
C2863 C2867 1.393 . S
C2864 H2853 0.950 . S
C2864 C2862 1.391 . S
C2864 C2865 1.400 . S
C2865 C2859 1.491 . S
C2865 C2864 1.400 . S
C2865 C2866 1.398 . S
C2866 H2854 0.950 . S
C2866 C2865 1.398 . S
C2866 C2867 1.391 . S
C2867 H2855 0.950 . S
C2867 C2863 1.393 . S
C2867 C2866 1.391 . S
H2868 C2876 0.950 . S
H2869 C2881 0.950 . S
H2870 C2878 0.950 . S
H2871 C2880 0.950 . S
H2872 C2882 0.950 1_545 S
H2873 C2884 0.950 . S
H2874 C2886 0.950 . S
H2875 C2887 0.950 . S
C2876 H2868 0.950 . S
C2876 C2877 1.386 . S
C2876 C2878 1.391 . S
C2877 C2876 1.386 . S
C2877 C2881 1.393 . S
C2878 H2870 0.950 . S
C2878 C2876 1.391 . S
C2878 C2879 1.400 . S
C2879 C2878 1.400 . S
C2879 C2880 1.398 . S
C2879 C2885 1.491 . S
C2880 H2871 0.950 . S
C2880 C2879 1.398 . S
C2880 C2881 1.391 . S
C2881 H2869 0.950 . S
C2881 C2877 1.393 . S
C2881 C2880 1.391 . S
C2882 H2872 0.950 1_565 S
C2882 C2883 1.386 . S
C2882 C2884 1.391 . S
C2883 C2882 1.386 . S
C2883 C2887 1.393 . S
C2884 H2873 0.950 . S
C2884 C2882 1.391 . S
C2884 C2885 1.400 . S
C2885 C2879 1.491 . S
C2885 C2884 1.400 . S
C2885 C2886 1.398 . S
C2886 H2874 0.950 . S
C2886 C2885 1.398 . S
C2886 C2887 1.391 . S
C2887 H2875 0.950 . S
C2887 C2883 1.393 . S
C2887 C2886 1.391 . S
H2888 C2896 0.950 . S
H2889 C2901 0.950 . S
H2890 C2898 0.950 . S
H2891 C2900 0.950 . S
H2892 C2902 0.950 . S
H2893 C2904 0.950 . S
H2894 C2906 0.950 . S
H2895 C2907 0.950 . S
C2896 H2888 0.950 . S
C2896 C2897 1.386 . S
C2896 C2898 1.391 . S
C2897 C2896 1.386 . S
C2897 C2901 1.393 . S
C2898 H2890 0.950 . S
C2898 C2896 1.391 . S
C2898 C2899 1.400 . S
C2899 C2898 1.400 . S
C2899 C2900 1.398 . S
C2899 C2905 1.491 . S
C2900 H2891 0.950 . S
C2900 C2899 1.398 . S
C2900 C2901 1.391 . S
C2901 H2889 0.950 . S
C2901 C2897 1.393 . S
C2901 C2900 1.391 . S
C2902 H2892 0.950 . S
C2902 C2903 1.386 . S
C2902 C2904 1.391 . S
C2903 C2902 1.386 . S
C2903 C2907 1.393 . S
C2904 H2893 0.950 . S
C2904 C2902 1.391 . S
C2904 C2905 1.400 . S
C2905 C2899 1.491 . S
C2905 C2904 1.400 . S
C2905 C2906 1.398 . S
C2906 H2894 0.950 . S
C2906 C2905 1.398 . S
C2906 C2907 1.391 . S
C2907 H2895 0.950 . S
C2907 C2903 1.393 . S
C2907 C2906 1.391 . S
H2908 C2916 0.950 . S
H2909 C2921 0.950 . S
H2910 C2918 0.950 . S
H2911 C2920 0.950 . S
H2912 C2922 0.950 . S
H2913 C2924 0.950 . S
H2914 C2926 0.950 . S
H2915 C2927 0.950 . S
C2916 H2908 0.950 . S
C2916 C2917 1.386 . S
C2916 C2918 1.391 . S
C2917 C2916 1.386 . S
C2917 C2921 1.393 . S
C2918 H2910 0.950 . S
C2918 C2916 1.391 . S
C2918 C2919 1.400 . S
C2919 C2918 1.400 . S
C2919 C2920 1.398 . S
C2919 C2925 1.491 . S
C2920 H2911 0.950 . S
C2920 C2919 1.398 . S
C2920 C2921 1.391 . S
C2921 H2909 0.950 . S
C2921 C2917 1.393 . S
C2921 C2920 1.391 . S
C2922 H2912 0.950 . S
C2922 C2923 1.386 . S
C2922 C2924 1.391 . S
C2923 C2922 1.386 . S
C2923 C2927 1.393 . S
C2924 H2913 0.950 . S
C2924 C2922 1.391 . S
C2924 C2925 1.400 . S
C2925 C2919 1.491 . S
C2925 C2924 1.400 . S
C2925 C2926 1.398 . S
C2926 H2914 0.950 . S
C2926 C2925 1.398 . S
C2926 C2927 1.391 . S
C2927 H2915 0.950 . S
C2927 C2923 1.393 . S
C2927 C2926 1.391 . S
H2928 C2936 0.950 . S
H2929 C2941 0.950 . S
H2930 C2938 0.950 . S
H2931 C2940 0.950 . S
H2932 C2942 0.950 . S
H2933 C2944 0.950 . S
H2934 C2946 0.950 . S
H2935 C2947 0.950 . S
C2936 H2928 0.950 . S
C2936 C2937 1.386 1_655 S
C2936 C2938 1.391 . S
C2937 C2936 1.386 1_455 S
C2937 C2941 1.393 . S
C2938 H2930 0.950 . S
C2938 C2936 1.391 . S
C2938 C2939 1.400 1_655 S
C2939 C2938 1.400 1_455 S
C2939 C2940 1.398 . S
C2939 C2945 1.491 . S
C2940 H2931 0.950 . S
C2940 C2939 1.398 . S
C2940 C2941 1.391 . S
C2941 H2929 0.950 . S
C2941 C2937 1.393 . S
C2941 C2940 1.391 . S
C2942 H2932 0.950 . S
C2942 C2943 1.386 . S
C2942 C2944 1.391 . S
C2943 C2942 1.386 . S
C2943 C2947 1.393 1_455 S
C2944 H2933 0.950 . S
C2944 C2942 1.391 . S
C2944 C2945 1.400 . S
C2945 C2939 1.491 . S
C2945 C2944 1.400 . S
C2945 C2946 1.398 1_455 S
C2946 H2934 0.950 . S
C2946 C2945 1.398 1_655 S
C2946 C2947 1.391 . S
C2947 H2935 0.950 . S
C2947 C2943 1.393 1_655 S
C2947 C2946 1.391 . S
H2948 C2956 0.950 . S
H2949 C2961 0.950 . S
H2950 C2958 0.950 . S
H2951 C2960 0.950 . S
H2952 C2962 0.950 . S
H2953 C2964 0.950 . S
H2954 C2966 0.950 . S
H2955 C2967 0.950 . S
C2956 H2948 0.950 . S
C2956 C2957 1.386 . S
C2956 C2958 1.391 . S
C2957 C2956 1.386 . S
C2957 C2961 1.393 . S
C2958 H2950 0.950 . S
C2958 C2956 1.391 . S
C2958 C2959 1.400 . S
C2959 C2958 1.400 . S
C2959 C2960 1.398 . S
C2959 C2965 1.491 . S
C2960 H2951 0.950 . S
C2960 C2959 1.398 . S
C2960 C2961 1.391 . S
C2961 H2949 0.950 . S
C2961 C2957 1.393 . S
C2961 C2960 1.391 . S
C2962 H2952 0.950 . S
C2962 C2963 1.386 . S
C2962 C2964 1.391 . S
C2963 C2962 1.386 . S
C2963 C2967 1.393 . S
C2964 H2953 0.950 . S
C2964 C2962 1.391 . S
C2964 C2965 1.400 . S
C2965 C2959 1.491 . S
C2965 C2964 1.400 . S
C2965 C2966 1.398 . S
C2966 H2954 0.950 . S
C2966 C2965 1.398 . S
C2966 C2967 1.391 . S
C2967 H2955 0.950 . S
C2967 C2963 1.393 . S
C2967 C2966 1.391 . S
H2968 C2976 0.950 . S
H2969 C2981 0.950 . S
H2970 C2978 0.950 . S
H2971 C2980 0.950 . S
H2972 C2982 0.950 . S
H2973 C2984 0.950 . S
H2974 C2986 0.950 . S
H2975 C2987 0.950 . S
C2976 H2968 0.950 . S
C2976 C2977 1.386 . S
C2976 C2978 1.391 . S
C2977 C2976 1.386 . S
C2977 C2981 1.393 . S
C2978 H2970 0.950 . S
C2978 C2976 1.391 . S
C2978 C2979 1.400 . S
C2979 C2978 1.400 . S
C2979 C2980 1.398 . S
C2979 C2985 1.491 . S
C2980 H2971 0.950 . S
C2980 C2979 1.398 . S
C2980 C2981 1.391 . S
C2981 H2969 0.950 . S
C2981 C2977 1.393 . S
C2981 C2980 1.391 . S
C2982 H2972 0.950 . S
C2982 C2983 1.386 . S
C2982 C2984 1.391 . S
C2983 C2982 1.386 . S
C2983 C2987 1.393 . S
C2984 H2973 0.950 . S
C2984 C2982 1.391 . S
C2984 C2985 1.400 . S
C2985 C2979 1.491 . S
C2985 C2984 1.400 . S
C2985 C2986 1.398 . S
C2986 H2974 0.950 . S
C2986 C2985 1.398 . S
C2986 C2987 1.391 . S
C2987 H2975 0.950 . S
C2987 C2983 1.393 . S
C2987 C2986 1.391 . S
H2988 C2996 0.950 . S
H2989 C3001 0.950 . S
H2990 C2998 0.950 . S
H2991 C3000 0.950 . S
H2992 C3002 0.950 . S
H2993 C3004 0.950 . S
H2994 C3006 0.950 . S
H2995 C3007 0.950 . S
C2996 H2988 0.950 . S
C2996 C2997 1.386 . S
C2996 C2998 1.391 . S
C2997 C2996 1.386 . S
C2997 C3001 1.393 . S
C2998 H2990 0.950 . S
C2998 C2996 1.391 . S
C2998 C2999 1.400 . S
C2999 C2998 1.400 . S
C2999 C3000 1.398 . S
C2999 C3005 1.491 . S
C3000 H2991 0.950 . S
C3000 C2999 1.398 . S
C3000 C3001 1.391 . S
C3001 H2989 0.950 . S
C3001 C2997 1.393 . S
C3001 C3000 1.391 . S
C3002 H2992 0.950 . S
C3002 C3003 1.386 . S
C3002 C3004 1.391 . S
C3003 C3002 1.386 . S
C3003 C3007 1.393 . S
C3004 H2993 0.950 . S
C3004 C3002 1.391 . S
C3004 C3005 1.400 . S
C3005 C2999 1.491 . S
C3005 C3004 1.400 . S
C3005 C3006 1.398 . S
C3006 H2994 0.950 . S
C3006 C3005 1.398 . S
C3006 C3007 1.391 . S
C3007 H2995 0.950 . S
C3007 C3003 1.393 . S
C3007 C3006 1.391 . S
H3008 C3016 0.950 . S
H3009 C3021 0.950 . S
H3010 C3018 0.938 1_655 S
H3011 C3020 0.950 . S
H3012 C3022 0.950 . S
H3013 C3024 0.950 . S
H3014 C3026 0.960 . S
H3015 C3027 0.950 . S
C3016 H3008 0.950 . S
C3016 C3017 1.386 1_655 S
C3016 C3018 1.388 1_655 S
C3017 C3016 1.386 1_455 S
C3017 C3021 1.393 . S
C3018 H3010 0.938 1_455 S
C3018 C3016 1.388 1_455 S
C3018 C3019 1.416 . S
C3019 C3018 1.416 . S
C3019 C3020 1.398 . S
C3019 C3025 1.491 . S
C3020 H3011 0.950 . S
C3020 C3019 1.398 . S
C3020 C3021 1.391 . S
C3021 H3009 0.950 . S
C3021 C3017 1.393 . S
C3021 C3020 1.391 . S
C3022 H3012 0.950 . S
C3022 C3023 1.386 . S
C3022 C3024 1.391 . S
C3023 C3022 1.386 . S
C3023 C3027 1.393 . S
C3024 H3013 0.950 . S
C3024 C3022 1.391 . S
C3024 C3025 1.400 . S
C3025 C3019 1.491 . S
C3025 C3024 1.400 . S
C3025 C3026 1.398 . S
C3026 H3014 0.960 . S
C3026 C3025 1.398 . S
C3026 C3027 1.391 . S
C3027 H3015 0.950 . S
C3027 C3023 1.393 . S
C3027 C3026 1.391 . S
H3028 C3036 0.950 . S
H3029 C3041 0.950 . S
H3030 C3038 0.950 . S
H3031 C3040 0.950 . S
H3032 C3042 0.950 . S
H3033 C3044 0.950 . S
H3034 C3046 0.950 . S
H3035 C3047 0.950 . S
C3036 H3028 0.950 . S
C3036 C3037 1.386 . S
C3036 C3038 1.391 . S
C3037 C3036 1.386 . S
C3037 C3041 1.393 . S
C3038 H3030 0.950 . S
C3038 C3036 1.391 . S
C3038 C3039 1.400 . S
C3039 C3038 1.400 . S
C3039 C3040 1.398 . S
C3039 C3045 1.491 . S
C3040 H3031 0.950 . S
C3040 C3039 1.398 . S
C3040 C3041 1.391 . S
C3041 H3029 0.950 . S
C3041 C3037 1.393 . S
C3041 C3040 1.391 . S
C3042 H3032 0.950 . S
C3042 C3043 1.386 . S
C3042 C3044 1.391 . S
C3043 C3042 1.386 . S
C3043 C3047 1.393 . S
C3044 H3033 0.950 . S
C3044 C3042 1.391 . S
C3044 C3045 1.400 . S
C3045 C3039 1.491 . S
C3045 C3044 1.400 . S
C3045 C3046 1.398 . S
C3046 H3034 0.950 . S
C3046 C3045 1.398 . S
C3046 C3047 1.391 . S
C3047 H3035 0.950 . S
C3047 C3043 1.393 . S
C3047 C3046 1.391 . S
H3048 C3056 0.950 . S
H3049 C3061 0.950 . S
H3050 C3058 0.950 . S
H3051 C3060 0.950 . S
H3052 C3062 0.950 . S
H3053 C3064 0.950 . S
H3054 C3066 0.950 . S
H3055 C3067 0.950 . S
C3056 H3048 0.950 . S
C3056 C3057 1.386 . S
C3056 C3058 1.391 . S
C3057 C3056 1.386 . S
C3057 C3061 1.393 . S
C3058 H3050 0.950 . S
C3058 C3056 1.391 . S
C3058 C3059 1.400 . S
C3059 C3058 1.400 . S
C3059 C3060 1.398 . S
C3059 C3065 1.491 . S
C3060 H3051 0.950 . S
C3060 C3059 1.398 . S
C3060 C3061 1.391 . S
C3061 H3049 0.950 . S
C3061 C3057 1.393 . S
C3061 C3060 1.391 . S
C3062 H3052 0.950 . S
C3062 C3063 1.386 . S
C3062 C3064 1.391 . S
C3063 C3062 1.386 . S
C3063 C3067 1.393 . S
C3064 H3053 0.950 . S
C3064 C3062 1.391 . S
C3064 C3065 1.400 . S
C3065 C3059 1.491 . S
C3065 C3064 1.400 . S
C3065 C3066 1.398 . S
C3066 H3054 0.950 . S
C3066 C3065 1.398 . S
C3066 C3067 1.391 . S
C3067 H3055 0.950 . S
C3067 C3063 1.393 . S
C3067 C3066 1.391 . S
H3068 C3076 0.950 . S
H3069 C3081 0.950 . S
H3070 C3078 0.950 . S
H3071 C3080 0.950 . S
H3072 C3082 0.950 . S
H3073 C3084 0.950 . S
H3074 C3086 0.950 . S
H3075 C3087 0.950 . S
C3076 H3068 0.950 . S
C3076 C3077 1.386 . S
C3076 C3078 1.391 . S
C3077 C3076 1.386 . S
C3077 C3081 1.393 . S
C3078 H3070 0.950 . S
C3078 C3076 1.391 . S
C3078 C3079 1.400 . S
C3079 C3078 1.400 . S
C3079 C3080 1.398 . S
C3079 C3085 1.491 . S
C3080 H3071 0.950 . S
C3080 C3079 1.398 . S
C3080 C3081 1.391 . S
C3081 H3069 0.950 . S
C3081 C3077 1.393 . S
C3081 C3080 1.391 . S
C3082 H3072 0.950 . S
C3082 C3083 1.386 . S
C3082 C3084 1.391 . S
C3083 C3082 1.386 . S
C3083 C3087 1.393 . S
C3084 H3073 0.950 . S
C3084 C3082 1.391 . S
C3084 C3085 1.400 . S
C3085 C3079 1.491 . S
C3085 C3084 1.400 . S
C3085 C3086 1.398 . S
C3086 H3074 0.950 . S
C3086 C3085 1.398 . S
C3086 C3087 1.391 . S
C3087 H3075 0.950 . S
C3087 C3083 1.393 . S
C3087 C3086 1.391 . S
H3088 C3096 0.948 1_565 S
H3089 C3101 0.950 . S
H3090 C3098 0.955 . S
H3091 C3100 0.950 . S
H3092 C3102 0.950 1_455 S
H3093 C3104 0.950 . S
H3094 C3106 0.950 . S
H3095 C3107 0.950 . S
C3096 H3088 0.948 1_545 S
C3096 C3097 1.387 . S
C3096 C3098 1.392 . S
C3097 C3096 1.387 . S
C3097 C3101 1.393 . S
C3098 H3090 0.955 . S
C3098 C3096 1.392 . S
C3098 C3099 1.400 . S
C3099 C3098 1.400 . S
C3099 C3100 1.398 . S
C3099 C3105 1.491 . S
C3100 H3091 0.950 . S
C3100 C3099 1.398 . S
C3100 C3101 1.391 . S
C3101 H3089 0.950 . S
C3101 C3097 1.393 . S
C3101 C3100 1.391 . S
C3102 H3092 0.950 1_655 S
C3102 C3103 1.386 . S
C3102 C3104 1.391 . S
C3103 C3102 1.386 . S
C3103 C3107 1.393 . S
C3104 H3093 0.950 . S
C3104 C3102 1.391 . S
C3104 C3105 1.400 . S
C3105 C3099 1.491 . S
C3105 C3104 1.400 . S
C3105 C3106 1.398 . S
C3106 H3094 0.950 . S
C3106 C3105 1.398 . S
C3106 C3107 1.391 . S
C3107 H3095 0.950 . S
C3107 C3103 1.393 . S
C3107 C3106 1.391 . S
H3108 C3116 0.950 . S
H3109 C3121 0.950 . S
H3110 C3118 0.950 . S
H3111 C3120 0.950 . S
H3112 C3122 0.950 . S
H3113 C3124 0.950 . S
H3114 C3126 0.950 . S
H3115 C3127 0.950 . S
C3116 H3108 0.950 . S
C3116 C3117 1.386 . S
C3116 C3118 1.391 . S
C3117 C3116 1.386 . S
C3117 C3121 1.393 . S
C3118 H3110 0.950 . S
C3118 C3116 1.391 . S
C3118 C3119 1.400 . S
C3119 C3118 1.400 . S
C3119 C3120 1.398 . S
C3119 C3125 1.491 . S
C3120 H3111 0.950 . S
C3120 C3119 1.398 . S
C3120 C3121 1.391 . S
C3121 H3109 0.950 . S
C3121 C3117 1.393 . S
C3121 C3120 1.391 . S
C3122 H3112 0.950 . S
C3122 C3123 1.386 . S
C3122 C3124 1.391 . S
C3123 C3122 1.386 . S
C3123 C3127 1.393 . S
C3124 H3113 0.950 . S
C3124 C3122 1.391 . S
C3124 C3125 1.400 . S
C3125 C3119 1.491 . S
C3125 C3124 1.400 . S
C3125 C3126 1.398 . S
C3126 H3114 0.950 . S
C3126 C3125 1.398 . S
C3126 C3127 1.391 . S
C3127 H3115 0.950 . S
C3127 C3123 1.393 . S
C3127 C3126 1.391 . S
H3128 C3136 0.950 . S
H3129 C3141 0.950 . S
H3130 C3138 0.950 . S
H3131 C3140 0.950 . S
H3132 C3142 0.950 . S
H3133 C3144 0.950 . S
H3134 C3146 0.950 . S
H3135 C3147 0.950 . S
C3136 H3128 0.950 . S
C3136 C3137 1.386 . S
C3136 C3138 1.391 . S
C3137 C3136 1.386 . S
C3137 C3141 1.393 1_545 S
C3138 H3130 0.950 . S
C3138 C3136 1.391 . S
C3138 C3139 1.400 . S
C3139 C3138 1.400 . S
C3139 C3140 1.398 1_545 S
C3139 C3145 1.491 . S
C3140 H3131 0.950 . S
C3140 C3139 1.398 1_565 S
C3140 C3141 1.391 . S
C3141 H3129 0.950 . S
C3141 C3137 1.393 1_565 S
C3141 C3140 1.391 . S
C3142 H3132 0.950 . S
C3142 C3143 1.373 1_565 S
C3142 C3144 1.391 . S
C3143 C3142 1.373 1_545 S
C3143 C3147 1.409 . S
C3144 H3133 0.950 . S
C3144 C3142 1.391 . S
C3144 C3145 1.400 1_565 S
C3145 C3139 1.491 . S
C3145 C3144 1.400 1_545 S
C3145 C3146 1.398 . S
C3146 H3134 0.950 . S
C3146 C3145 1.398 . S
C3146 C3147 1.391 . S
C3147 H3135 0.950 . S
C3147 C3143 1.409 . S
C3147 C3146 1.391 . S
H3148 C3156 0.950 . S
H3149 C3161 0.950 . S
H3150 C3158 0.950 . S
H3151 C3160 0.950 . S
H3152 C3162 0.950 . S
H3153 C3164 0.950 . S
H3154 C3166 0.950 . S
H3155 C3167 0.950 . S
C3156 H3148 0.950 . S
C3156 C3157 1.386 . S
C3156 C3158 1.391 . S
C3157 C3156 1.386 . S
C3157 C3161 1.393 . S
C3158 H3150 0.950 . S
C3158 C3156 1.391 . S
C3158 C3159 1.400 . S
C3159 C3158 1.400 . S
C3159 C3160 1.398 . S
C3159 C3165 1.491 . S
C3160 H3151 0.950 . S
C3160 C3159 1.398 . S
C3160 C3161 1.391 . S
C3161 H3149 0.950 . S
C3161 C3157 1.393 . S
C3161 C3160 1.391 . S
C3162 H3152 0.950 . S
C3162 C3163 1.386 . S
C3162 C3164 1.391 . S
C3163 C3162 1.386 . S
C3163 C3167 1.393 . S
C3164 H3153 0.950 . S
C3164 C3162 1.391 . S
C3164 C3165 1.400 . S
C3165 C3159 1.491 . S
C3165 C3164 1.400 . S
C3165 C3166 1.398 . S
C3166 H3154 0.950 . S
C3166 C3165 1.398 . S
C3166 C3167 1.391 . S
C3167 H3155 0.950 . S
C3167 C3163 1.393 . S
C3167 C3166 1.391 . S
H3168 C3176 0.950 . S
H3169 C3181 0.950 . S
H3170 C3178 0.950 . S
H3171 C3180 0.950 . S
H3172 C3182 0.950 . S
H3173 C3184 0.950 . S
H3174 C3186 0.950 . S
H3175 C3187 0.950 . S
C3176 H3168 0.950 . S
C3176 C3177 1.386 1_565 S
C3176 C3178 1.391 . S
C3177 C3176 1.386 1_545 S
C3177 C3181 1.393 . S
C3178 H3170 0.950 . S
C3178 C3176 1.391 . S
C3178 C3179 1.400 . S
C3179 C3178 1.400 . S
C3179 C3180 1.398 1_565 S
C3179 C3185 1.491 . S
C3180 H3171 0.950 . S
C3180 C3179 1.398 1_545 S
C3180 C3181 1.391 . S
C3181 H3169 0.950 . S
C3181 C3177 1.393 . S
C3181 C3180 1.391 . S
C3182 H3172 0.950 . S
C3182 C3183 1.386 1_545 S
C3182 C3184 1.391 . S
C3183 C3182 1.386 1_565 S
C3183 C3187 1.393 . S
C3184 H3173 0.950 . S
C3184 C3182 1.391 . S
C3184 C3185 1.400 1_545 S
C3185 C3179 1.491 . S
C3185 C3184 1.400 1_565 S
C3185 C3186 1.398 . S
C3186 H3174 0.950 . S
C3186 C3185 1.398 . S
C3186 C3187 1.391 . S
C3187 H3175 0.950 . S
C3187 C3183 1.393 . S
C3187 C3186 1.391 . S
H3188 C3196 0.950 . S
H3189 C3201 0.950 . S
H3190 C3198 0.950 . S
H3191 C3200 0.950 . S
H3192 C3202 0.950 . S
H3193 C3204 0.950 . S
H3194 C3206 0.950 . S
H3195 C3207 0.950 . S
C3196 H3188 0.950 . S
C3196 C3197 1.386 . S
C3196 C3198 1.391 . S
C3197 C3196 1.386 . S
C3197 C3201 1.393 . S
C3198 H3190 0.950 . S
C3198 C3196 1.391 . S
C3198 C3199 1.400 . S
C3199 C3198 1.400 . S
C3199 C3200 1.398 . S
C3199 C3205 1.491 . S
C3200 H3191 0.950 . S
C3200 C3199 1.398 . S
C3200 C3201 1.391 . S
C3201 H3189 0.950 . S
C3201 C3197 1.393 . S
C3201 C3200 1.391 . S
C3202 H3192 0.950 . S
C3202 C3203 1.386 . S
C3202 C3204 1.391 . S
C3203 C3202 1.386 . S
C3203 C3207 1.393 . S
C3204 H3193 0.950 . S
C3204 C3202 1.391 . S
C3204 C3205 1.400 . S
C3205 C3199 1.491 . S
C3205 C3204 1.400 . S
C3205 C3206 1.398 . S
C3206 H3194 0.950 . S
C3206 C3205 1.398 . S
C3206 C3207 1.391 . S
C3207 H3195 0.950 . S
C3207 C3203 1.393 . S
C3207 C3206 1.391 . S
H3208 C3216 0.950 . S
H3209 C3221 0.959 . S
H3210 C3218 0.950 . S
H3211 C3220 0.936 1_565 S
H3212 C3222 0.950 . S
H3213 C3224 0.950 . S
H3214 C3226 0.950 . S
H3215 C3227 0.950 . S
C3216 H3208 0.950 . S
C3216 C3217 1.386 . S
C3216 C3218 1.391 . S
C3217 C3216 1.386 . S
C3217 C3221 1.387 1_545 S
C3218 H3210 0.950 . S
C3218 C3216 1.391 . S
C3218 C3219 1.400 . S
C3219 C3218 1.400 . S
C3219 C3220 1.419 . S
C3219 C3225 1.491 . S
C3220 H3211 0.936 1_545 S
C3220 C3219 1.419 . S
C3220 C3221 1.387 1_545 S
C3221 H3209 0.959 . S
C3221 C3217 1.387 1_565 S
C3221 C3220 1.387 1_565 S
C3222 H3212 0.950 . S
C3222 C3223 1.386 . S
C3222 C3224 1.391 . S
C3223 C3222 1.386 . S
C3223 C3227 1.393 . S
C3224 H3213 0.950 . S
C3224 C3222 1.391 . S
C3224 C3225 1.400 . S
C3225 C3219 1.491 . S
C3225 C3224 1.400 . S
C3225 C3226 1.398 . S
C3226 H3214 0.950 . S
C3226 C3225 1.398 . S
C3226 C3227 1.391 . S
C3227 H3215 0.950 . S
C3227 C3223 1.393 . S
C3227 C3226 1.391 . S
H3228 C3236 0.950 . S
H3229 C3241 0.950 . S
H3230 C3238 0.950 . S
H3231 C3240 0.950 . S
H3232 C3242 0.950 . S
H3233 C3244 0.950 . S
H3234 C3246 0.950 . S
H3235 C3247 0.950 . S
C3236 H3228 0.950 . S
C3236 C3237 1.386 . S
C3236 C3238 1.391 . S
C3237 C3236 1.386 . S
C3237 C3241 1.393 . S
C3238 H3230 0.950 . S
C3238 C3236 1.391 . S
C3238 C3239 1.400 . S
C3239 C3238 1.400 . S
C3239 C3240 1.398 . S
C3239 C3245 1.491 . S
C3240 H3231 0.950 . S
C3240 C3239 1.398 . S
C3240 C3241 1.391 . S
C3241 H3229 0.950 . S
C3241 C3237 1.393 . S
C3241 C3240 1.391 . S
C3242 H3232 0.950 . S
C3242 C3243 1.386 . S
C3242 C3244 1.391 . S
C3243 C3242 1.386 . S
C3243 C3247 1.393 . S
C3244 H3233 0.950 . S
C3244 C3242 1.391 . S
C3244 C3245 1.400 . S
C3245 C3239 1.491 . S
C3245 C3244 1.400 . S
C3245 C3246 1.398 . S
C3246 H3234 0.950 . S
C3246 C3245 1.398 . S
C3246 C3247 1.391 . S
C3247 H3235 0.950 . S
C3247 C3243 1.393 . S
C3247 C3246 1.391 . S
H3248 C3256 0.950 . S
H3249 C3261 0.950 . S
H3250 C3258 0.966 . S
H3251 C3260 0.950 . S
H3252 C3262 0.915 1_545 S
H3253 C3264 0.950 . S
H3254 C3266 0.950 1_556 S
H3255 C3267 0.950 1_556 S
C3256 H3248 0.950 . S
C3256 C3257 1.386 1_556 S
C3256 C3258 1.394 . S
C3257 C3256 1.386 1_554 S
C3257 C3261 1.393 . S
C3258 H3250 0.966 . S
C3258 C3256 1.394 . S
C3258 C3259 1.383 1_556 S
C3259 C3258 1.383 1_554 S
C3259 C3260 1.398 . S
C3259 C3265 1.491 . S
C3260 H3251 0.950 . S
C3260 C3259 1.398 . S
C3260 C3261 1.391 . S
C3261 H3249 0.950 . S
C3261 C3257 1.393 . S
C3261 C3260 1.391 . S
C3262 H3252 0.915 1_565 S
C3262 C3263 1.386 . S
C3262 C3264 1.391 . S
C3263 C3262 1.386 . S
C3263 C3267 1.393 . S
C3264 H3253 0.950 . S
C3264 C3262 1.391 . S
C3264 C3265 1.400 . S
C3265 C3259 1.491 . S
C3265 C3264 1.400 . S
C3265 C3266 1.398 . S
C3266 H3254 0.950 1_554 S
C3266 C3265 1.398 . S
C3266 C3267 1.391 . S
C3267 H3255 0.950 1_554 S
C3267 C3263 1.393 . S
C3267 C3266 1.391 . S
H3268 C3276 0.950 . S
H3269 C3281 0.950 . S
H3270 C3278 0.950 . S
H3271 C3280 0.950 . S
H3272 C3282 0.950 . S
H3273 C3284 0.950 . S
H3274 C3286 0.950 . S
H3275 C3287 0.950 . S
C3276 H3268 0.950 . S
C3276 C3277 1.386 . S
C3276 C3278 1.391 . S
C3277 C3276 1.386 . S
C3277 C3281 1.393 1_554 S
C3278 H3270 0.950 . S
C3278 C3276 1.391 . S
C3278 C3279 1.399 . S
C3279 C3278 1.399 . S
C3279 C3280 1.399 1_554 S
C3279 C3285 1.491 1_554 S
C3280 H3271 0.950 . S
C3280 C3279 1.399 1_556 S
C3280 C3281 1.391 . S
C3281 H3269 0.950 . S
C3281 C3277 1.393 1_556 S
C3281 C3280 1.391 . S
C3282 H3272 0.950 . S
C3282 C3283 1.386 . S
C3282 C3284 1.391 . S
C3283 C3282 1.386 . S
C3283 C3287 1.393 1_556 S
C3284 H3273 0.950 . S
C3284 C3282 1.391 . S
C3284 C3285 1.400 . S
C3285 C3279 1.491 1_556 S
C3285 C3284 1.400 . S
C3285 C3286 1.398 1_556 S
C3286 H3274 0.950 . S
C3286 C3285 1.398 1_554 S
C3286 C3287 1.391 . S
C3287 H3275 0.950 . S
C3287 C3283 1.393 1_554 S
C3287 C3286 1.391 . S
H3288 C3296 0.950 . S
H3289 C3301 0.950 . S
H3290 C3298 0.950 . S
H3291 C3300 0.950 . S
H3292 C3302 0.950 . S
H3293 C3304 0.950 . S
H3294 C3306 0.950 . S
H3295 C3307 0.950 . S
C3296 H3288 0.950 . S
C3296 C3297 1.386 . S
C3296 C3298 1.391 . S
C3297 C3296 1.386 . S
C3297 C3301 1.393 . S
C3298 H3290 0.950 . S
C3298 C3296 1.391 . S
C3298 C3299 1.400 . S
C3299 C3298 1.400 . S
C3299 C3300 1.398 . S
C3299 C3305 1.491 . S
C3300 H3291 0.950 . S
C3300 C3299 1.398 . S
C3300 C3301 1.391 . S
C3301 H3289 0.950 . S
C3301 C3297 1.393 . S
C3301 C3300 1.391 . S
C3302 H3292 0.950 . S
C3302 C3303 1.386 . S
C3302 C3304 1.391 . S
C3303 C3302 1.386 . S
C3303 C3307 1.393 . S
C3304 H3293 0.950 . S
C3304 C3302 1.391 . S
C3304 C3305 1.400 . S
C3305 C3299 1.491 . S
C3305 C3304 1.400 . S
C3305 C3306 1.398 . S
C3306 H3294 0.950 . S
C3306 C3305 1.398 . S
C3306 C3307 1.391 . S
C3307 H3295 0.950 . S
C3307 C3303 1.393 . S
C3307 C3306 1.391 . S
H3308 C3316 0.950 . S
H3309 C3321 0.950 . S
H3310 C3318 0.950 . S
H3311 C3320 0.950 . S
H3312 C3322 0.950 . S
H3313 C3324 0.950 . S
H3314 C3326 0.950 . S
H3315 C3327 0.950 . S
C3316 H3308 0.950 . S
C3316 C3317 1.386 . S
C3316 C3318 1.391 . S
C3317 C3316 1.386 . S
C3317 C3321 1.393 . S
C3318 H3310 0.950 . S
C3318 C3316 1.391 . S
C3318 C3319 1.400 . S
C3319 C3318 1.400 . S
C3319 C3320 1.398 . S
C3319 C3325 1.491 . S
C3320 H3311 0.950 . S
C3320 C3319 1.398 . S
C3320 C3321 1.391 . S
C3321 H3309 0.950 . S
C3321 C3317 1.393 . S
C3321 C3320 1.391 . S
C3322 H3312 0.950 . S
C3322 C3323 1.386 . S
C3322 C3324 1.391 . S
C3323 C3322 1.386 . S
C3323 C3327 1.393 . S
C3324 H3313 0.950 . S
C3324 C3322 1.391 . S
C3324 C3325 1.400 . S
C3325 C3319 1.491 . S
C3325 C3324 1.400 . S
C3325 C3326 1.398 . S
C3326 H3314 0.950 . S
C3326 C3325 1.398 . S
C3326 C3327 1.391 . S
C3327 H3315 0.950 . S
C3327 C3323 1.393 . S
C3327 C3326 1.391 . S
H3328 C3336 0.950 . S
H3329 C3341 0.950 . S
H3330 C3338 0.950 . S
H3331 C3340 0.950 . S
H3332 C3342 0.950 . S
H3333 C3344 0.950 . S
H3334 C3346 0.950 . S
H3335 C3347 0.950 . S
C3336 H3328 0.950 . S
C3336 C3337 1.386 . S
C3336 C3338 1.391 . S
C3337 C3336 1.386 . S
C3337 C3341 1.393 . S
C3338 H3330 0.950 . S
C3338 C3336 1.391 . S
C3338 C3339 1.400 . S
C3339 C3338 1.400 . S
C3339 C3340 1.398 . S
C3339 C3345 1.491 . S
C3340 H3331 0.950 . S
C3340 C3339 1.398 . S
C3340 C3341 1.391 . S
C3341 H3329 0.950 . S
C3341 C3337 1.393 . S
C3341 C3340 1.391 . S
C3342 H3332 0.950 . S
C3342 C3343 1.386 . S
C3342 C3344 1.391 . S
C3343 C3342 1.386 . S
C3343 C3347 1.393 . S
C3344 H3333 0.950 . S
C3344 C3342 1.391 . S
C3344 C3345 1.400 . S
C3345 C3339 1.491 . S
C3345 C3344 1.400 . S
C3345 C3346 1.398 . S
C3346 H3334 0.950 . S
C3346 C3345 1.398 . S
C3346 C3347 1.391 . S
C3347 H3335 0.950 . S
C3347 C3343 1.393 . S
C3347 C3346 1.391 . S
H3348 C3356 0.950 . S
H3349 C3361 0.950 . S
H3350 C3358 0.950 . S
H3351 C3360 0.950 . S
H3352 C3362 0.950 . S
H3353 C3364 0.950 . S
H3354 C3366 0.950 . S
H3355 C3367 0.950 . S
C3356 H3348 0.950 . S
C3356 C3357 1.386 . S
C3356 C3358 1.391 . S
C3357 C3356 1.386 . S
C3357 C3361 1.393 . S
C3358 H3350 0.950 . S
C3358 C3356 1.391 . S
C3358 C3359 1.400 . S
C3359 C3358 1.400 . S
C3359 C3360 1.398 . S
C3359 C3365 1.491 . S
C3360 H3351 0.950 . S
C3360 C3359 1.398 . S
C3360 C3361 1.391 . S
C3361 H3349 0.950 . S
C3361 C3357 1.393 . S
C3361 C3360 1.391 . S
C3362 H3352 0.950 . S
C3362 C3363 1.386 . S
C3362 C3364 1.391 . S
C3363 C3362 1.386 . S
C3363 C3367 1.393 . S
C3364 H3353 0.950 . S
C3364 C3362 1.391 . S
C3364 C3365 1.400 . S
C3365 C3359 1.491 . S
C3365 C3364 1.400 . S
C3365 C3366 1.398 . S
C3366 H3354 0.950 . S
C3366 C3365 1.398 . S
C3366 C3367 1.391 . S
C3367 H3355 0.950 . S
C3367 C3363 1.393 . S
C3367 C3366 1.391 . S
H3368 C3376 0.950 . S
H3369 C3381 0.950 . S
H3370 C3378 0.950 . S
H3371 C3380 0.950 . S
H3372 C3382 0.950 . S
H3373 C3384 0.950 . S
H3374 C3386 0.950 . S
H3375 C3387 0.950 . S
C3376 H3368 0.950 . S
C3376 C3377 1.386 . S
C3376 C3378 1.391 . S
C3377 C3376 1.386 . S
C3377 C3381 1.393 . S
C3378 H3370 0.950 . S
C3378 C3376 1.391 . S
C3378 C3379 1.400 . S
C3379 C3378 1.400 . S
C3379 C3380 1.398 . S
C3379 C3385 1.491 . S
C3380 H3371 0.950 . S
C3380 C3379 1.398 . S
C3380 C3381 1.391 . S
C3381 H3369 0.950 . S
C3381 C3377 1.393 . S
C3381 C3380 1.391 . S
C3382 H3372 0.950 . S
C3382 C3383 1.386 . S
C3382 C3384 1.391 . S
C3383 C3382 1.386 . S
C3383 C3387 1.393 . S
C3384 H3373 0.950 . S
C3384 C3382 1.391 . S
C3384 C3385 1.400 . S
C3385 C3379 1.491 . S
C3385 C3384 1.400 . S
C3385 C3386 1.398 . S
C3386 H3374 0.950 . S
C3386 C3385 1.398 . S
C3386 C3387 1.391 . S
C3387 H3375 0.950 . S
C3387 C3383 1.393 . S
C3387 C3386 1.391 . S
H3388 C3396 0.950 . S
H3389 C3401 0.950 . S
H3390 C3398 0.950 . S
H3391 C3400 0.950 . S
H3392 C3402 0.950 . S
H3393 C3404 0.950 . S
H3394 C3406 0.950 . S
H3395 C3407 0.950 . S
C3396 H3388 0.950 . S
C3396 C3397 1.386 . S
C3396 C3398 1.391 . S
C3397 C3396 1.386 . S
C3397 C3401 1.393 . S
C3398 H3390 0.950 . S
C3398 C3396 1.391 . S
C3398 C3399 1.400 . S
C3399 C3398 1.400 . S
C3399 C3400 1.398 . S
C3399 C3405 1.491 . S
C3400 H3391 0.950 . S
C3400 C3399 1.398 . S
C3400 C3401 1.391 . S
C3401 H3389 0.950 . S
C3401 C3397 1.393 . S
C3401 C3400 1.391 . S
C3402 H3392 0.950 . S
C3402 C3403 1.386 . S
C3402 C3404 1.391 . S
C3403 C3402 1.386 . S
C3403 C3407 1.393 . S
C3404 H3393 0.950 . S
C3404 C3402 1.391 . S
C3404 C3405 1.400 . S
C3405 C3399 1.491 . S
C3405 C3404 1.400 . S
C3405 C3406 1.398 . S
C3406 H3394 0.950 . S
C3406 C3405 1.398 . S
C3406 C3407 1.391 . S
C3407 H3395 0.950 . S
C3407 C3403 1.393 . S
C3407 C3406 1.391 . S
H3408 C3416 0.950 . S
H3409 C3421 0.950 . S
H3410 C3418 0.950 . S
H3411 C3420 0.950 . S
H3412 C3422 0.950 . S
H3413 C3424 0.950 . S
H3414 C3426 0.950 . S
H3415 C3427 0.950 . S
C3416 H3408 0.950 . S
C3416 C3417 1.386 . S
C3416 C3418 1.391 . S
C3417 C3416 1.386 . S
C3417 C3421 1.393 . S
C3418 H3410 0.950 . S
C3418 C3416 1.391 . S
C3418 C3419 1.400 . S
C3419 C3418 1.400 . S
C3419 C3420 1.398 . S
C3419 C3425 1.491 . S
C3420 H3411 0.950 . S
C3420 C3419 1.398 . S
C3420 C3421 1.391 . S
C3421 H3409 0.950 . S
C3421 C3417 1.393 . S
C3421 C3420 1.391 . S
C3422 H3412 0.950 . S
C3422 C3423 1.386 . S
C3422 C3424 1.391 . S
C3423 C3422 1.386 . S
C3423 C3427 1.393 . S
C3424 H3413 0.950 . S
C3424 C3422 1.391 . S
C3424 C3425 1.400 . S
C3425 C3419 1.491 . S
C3425 C3424 1.400 . S
C3425 C3426 1.398 . S
C3426 H3414 0.950 . S
C3426 C3425 1.398 . S
C3426 C3427 1.391 . S
C3427 H3415 0.950 . S
C3427 C3423 1.393 . S
C3427 C3426 1.391 . S
H3428 C3436 0.950 . S
H3429 C3441 0.950 . S
H3430 C3438 0.950 . S
H3431 C3440 0.950 . S
H3432 C3442 0.950 . S
H3433 C3444 0.950 . S
H3434 C3446 0.950 . S
H3435 C3447 0.950 . S
C3436 H3428 0.950 . S
C3436 C3437 1.386 . S
C3436 C3438 1.391 . S
C3437 C3436 1.386 . S
C3437 C3441 1.393 . S
C3438 H3430 0.950 . S
C3438 C3436 1.391 . S
C3438 C3439 1.400 . S
C3439 C3438 1.400 . S
C3439 C3440 1.398 . S
C3439 C3445 1.491 . S
C3440 H3431 0.950 . S
C3440 C3439 1.398 . S
C3440 C3441 1.391 . S
C3441 H3429 0.950 . S
C3441 C3437 1.393 . S
C3441 C3440 1.391 . S
C3442 H3432 0.950 . S
C3442 C3443 1.386 . S
C3442 C3444 1.391 . S
C3443 C3442 1.386 . S
C3443 C3447 1.393 . S
C3444 H3433 0.950 . S
C3444 C3442 1.391 . S
C3444 C3445 1.400 . S
C3445 C3439 1.491 . S
C3445 C3444 1.400 . S
C3445 C3446 1.398 . S
C3446 H3434 0.950 . S
C3446 C3445 1.398 . S
C3446 C3447 1.391 . S
C3447 H3435 0.950 . S
C3447 C3443 1.393 . S
C3447 C3446 1.391 . S
H3448 C3456 0.950 . S
H3449 C3461 0.950 . S
H3450 C3458 0.950 . S
H3451 C3460 0.950 . S
H3452 C3462 0.950 1_556 S
H3453 C3464 0.950 . S
H3454 C3466 0.950 . S
H3455 C3467 0.950 . S
C3456 H3448 0.950 . S
C3456 C3457 1.386 . S
C3456 C3458 1.391 . S
C3457 C3456 1.386 . S
C3457 C3461 1.393 . S
C3458 H3450 0.950 . S
C3458 C3456 1.391 . S
C3458 C3459 1.400 . S
C3459 C3458 1.400 . S
C3459 C3460 1.398 . S
C3459 C3465 1.491 . S
C3460 H3451 0.950 . S
C3460 C3459 1.398 . S
C3460 C3461 1.391 . S
C3461 H3449 0.950 . S
C3461 C3457 1.393 . S
C3461 C3460 1.391 . S
C3462 H3452 0.950 1_554 S
C3462 C3463 1.386 . S
C3462 C3464 1.391 . S
C3463 C3462 1.386 . S
C3463 C3467 1.393 . S
C3464 H3453 0.950 . S
C3464 C3462 1.391 . S
C3464 C3465 1.400 . S
C3465 C3459 1.491 . S
C3465 C3464 1.400 . S
C3465 C3466 1.398 . S
C3466 H3454 0.950 . S
C3466 C3465 1.398 . S
C3466 C3467 1.391 . S
C3467 H3455 0.950 . S
C3467 C3463 1.393 . S
C3467 C3466 1.391 . S
H3468 C3476 0.950 . S
H3469 C3481 0.950 . S
H3470 C3478 0.950 . S
H3471 C3480 0.950 . S
H3472 C3482 0.950 . S
H3473 C3484 0.950 . S
H3474 C3486 0.950 . S
H3475 C3487 0.950 . S
C3476 H3468 0.950 . S
C3476 C3477 1.386 . S
C3476 C3478 1.391 . S
C3477 C3476 1.386 . S
C3477 C3481 1.393 . S
C3478 H3470 0.950 . S
C3478 C3476 1.391 . S
C3478 C3479 1.400 . S
C3479 C3478 1.400 . S
C3479 C3480 1.398 . S
C3479 C3485 1.491 . S
C3480 H3471 0.950 . S
C3480 C3479 1.398 . S
C3480 C3481 1.391 . S
C3481 H3469 0.950 . S
C3481 C3477 1.393 . S
C3481 C3480 1.391 . S
C3482 H3472 0.950 . S
C3482 C3483 1.386 . S
C3482 C3484 1.391 . S
C3483 C3482 1.386 . S
C3483 C3487 1.393 . S
C3484 H3473 0.950 . S
C3484 C3482 1.391 . S
C3484 C3485 1.400 . S
C3485 C3479 1.491 . S
C3485 C3484 1.400 . S
C3485 C3486 1.398 . S
C3486 H3474 0.950 . S
C3486 C3485 1.398 . S
C3486 C3487 1.391 . S
C3487 H3475 0.950 . S
C3487 C3483 1.393 . S
C3487 C3486 1.391 . S
H3488 C3496 0.950 . S
H3489 C3501 0.950 . S
H3490 C3498 0.950 . S
H3491 C3500 0.950 . S
H3492 C3502 0.950 . S
H3493 C3504 0.950 . S
H3494 C3506 0.950 . S
H3495 C3507 0.950 . S
C3496 H3488 0.950 . S
C3496 C3497 1.386 . S
C3496 C3498 1.391 . S
C3497 C3496 1.386 . S
C3497 C3501 1.393 . S
C3498 H3490 0.950 . S
C3498 C3496 1.391 . S
C3498 C3499 1.400 . S
C3499 C3498 1.400 . S
C3499 C3500 1.398 . S
C3499 C3505 1.491 . S
C3500 H3491 0.950 . S
C3500 C3499 1.398 . S
C3500 C3501 1.391 . S
C3501 H3489 0.950 . S
C3501 C3497 1.393 . S
C3501 C3500 1.391 . S
C3502 H3492 0.950 . S
C3502 C3503 1.386 . S
C3502 C3504 1.391 . S
C3503 C3502 1.386 . S
C3503 C3507 1.393 . S
C3504 H3493 0.950 . S
C3504 C3502 1.391 . S
C3504 C3505 1.400 . S
C3505 C3499 1.491 . S
C3505 C3504 1.400 . S
C3505 C3506 1.398 . S
C3506 H3494 0.950 . S
C3506 C3505 1.398 . S
C3506 C3507 1.391 . S
C3507 H3495 0.950 . S
C3507 C3503 1.393 . S
C3507 C3506 1.391 . S
H3508 C3516 0.950 . S
H3509 C3521 0.950 . S
H3510 C3518 0.950 . S
H3511 C3520 0.950 . S
H3512 C3522 0.950 . S
H3513 C3524 0.950 . S
H3514 C3526 0.950 . S
H3515 C3527 0.950 . S
C3516 H3508 0.950 . S
C3516 C3517 1.386 . S
C3516 C3518 1.391 . S
C3517 C3516 1.386 . S
C3517 C3521 1.393 . S
C3518 H3510 0.950 . S
C3518 C3516 1.391 . S
C3518 C3519 1.400 . S
C3519 C3518 1.400 . S
C3519 C3520 1.398 . S
C3519 C3525 1.491 . S
C3520 H3511 0.950 . S
C3520 C3519 1.398 . S
C3520 C3521 1.391 . S
C3521 H3509 0.950 . S
C3521 C3517 1.393 . S
C3521 C3520 1.391 . S
C3522 H3512 0.950 . S
C3522 C3523 1.386 . S
C3522 C3524 1.391 . S
C3523 C3522 1.386 . S
C3523 C3527 1.393 . S
C3524 H3513 0.950 . S
C3524 C3522 1.391 . S
C3524 C3525 1.400 . S
C3525 C3519 1.491 . S
C3525 C3524 1.400 . S
C3525 C3526 1.398 . S
C3526 H3514 0.950 . S
C3526 C3525 1.398 . S
C3526 C3527 1.391 . S
C3527 H3515 0.950 . S
C3527 C3523 1.393 . S
C3527 C3526 1.391 . S
H3528 C3536 0.950 . S
H3529 C3541 0.950 . S
H3530 C3538 0.950 . S
H3531 C3540 0.950 . S
H3532 C3542 0.950 . S
H3533 C3544 0.950 . S
H3534 C3546 0.950 . S
H3535 C3547 0.950 . S
C3536 H3528 0.950 . S
C3536 C3537 1.386 1_655 S
C3536 C3538 1.391 . S
C3537 C3536 1.386 1_455 S
C3537 C3541 1.393 . S
C3538 H3530 0.950 . S
C3538 C3536 1.391 . S
C3538 C3539 1.400 1_655 S
C3539 C3538 1.400 1_455 S
C3539 C3540 1.398 . S
C3539 C3545 1.491 . S
C3540 H3531 0.950 . S
C3540 C3539 1.398 . S
C3540 C3541 1.391 . S
C3541 H3529 0.950 . S
C3541 C3537 1.393 . S
C3541 C3540 1.391 . S
C3542 H3532 0.950 . S
C3542 C3543 1.386 . S
C3542 C3544 1.391 . S
C3543 C3542 1.386 . S
C3543 C3547 1.393 1_455 S
C3544 H3533 0.950 . S
C3544 C3542 1.391 . S
C3544 C3545 1.400 . S
C3545 C3539 1.491 . S
C3545 C3544 1.400 . S
C3545 C3546 1.398 1_455 S
C3546 H3534 0.950 . S
C3546 C3545 1.398 1_655 S
C3546 C3547 1.391 . S
C3547 H3535 0.950 . S
C3547 C3543 1.393 1_655 S
C3547 C3546 1.391 . S
H3548 C3556 0.950 . S
H3549 C3561 0.950 . S
H3550 C3558 0.950 . S
H3551 C3560 0.950 . S
H3552 C3562 0.950 . S
H3553 C3564 0.950 . S
H3554 C3566 0.950 . S
H3555 C3567 0.950 . S
C3556 H3548 0.950 . S
C3556 C3557 1.386 . S
C3556 C3558 1.391 . S
C3557 C3556 1.386 . S
C3557 C3561 1.393 . S
C3558 H3550 0.950 . S
C3558 C3556 1.391 . S
C3558 C3559 1.400 . S
C3559 C3558 1.400 . S
C3559 C3560 1.398 . S
C3559 C3565 1.491 . S
C3560 H3551 0.950 . S
C3560 C3559 1.398 . S
C3560 C3561 1.391 . S
C3561 H3549 0.950 . S
C3561 C3557 1.393 . S
C3561 C3560 1.391 . S
C3562 H3552 0.950 . S
C3562 C3563 1.386 . S
C3562 C3564 1.391 . S
C3563 C3562 1.386 . S
C3563 C3567 1.393 . S
C3564 H3553 0.950 . S
C3564 C3562 1.391 . S
C3564 C3565 1.400 . S
C3565 C3559 1.491 . S
C3565 C3564 1.400 . S
C3565 C3566 1.398 . S
C3566 H3554 0.950 . S
C3566 C3565 1.398 . S
C3566 C3567 1.391 . S
C3567 H3555 0.950 . S
C3567 C3563 1.393 . S
C3567 C3566 1.391 . S
H3568 C3576 0.950 . S
H3569 C3581 0.950 . S
H3570 C3578 0.950 . S
H3571 C3580 0.950 . S
H3572 C3582 0.950 . S
H3573 C3584 0.950 . S
H3574 C3586 0.950 . S
H3575 C3587 0.950 . S
C3576 H3568 0.950 . S
C3576 C3577 1.386 . S
C3576 C3578 1.391 . S
C3577 C3576 1.386 . S
C3577 C3581 1.393 . S
C3578 H3570 0.950 . S
C3578 C3576 1.391 . S
C3578 C3579 1.400 . S
C3579 C3578 1.400 . S
C3579 C3580 1.398 . S
C3579 C3585 1.491 . S
C3580 H3571 0.950 . S
C3580 C3579 1.398 . S
C3580 C3581 1.391 . S
C3581 H3569 0.950 . S
C3581 C3577 1.393 . S
C3581 C3580 1.391 . S
C3582 H3572 0.950 . S
C3582 C3583 1.386 . S
C3582 C3584 1.391 . S
C3583 C3582 1.386 . S
C3583 C3587 1.393 . S
C3584 H3573 0.950 . S
C3584 C3582 1.391 . S
C3584 C3585 1.400 . S
C3585 C3579 1.491 . S
C3585 C3584 1.400 . S
C3585 C3586 1.398 . S
C3586 H3574 0.950 . S
C3586 C3585 1.398 . S
C3586 C3587 1.391 . S
C3587 H3575 0.950 . S
C3587 C3583 1.393 . S
C3587 C3586 1.391 . S
H3588 C3596 0.950 . S
H3589 C3601 0.950 . S
H3590 C3598 0.950 . S
H3591 C3600 0.950 . S
H3592 C3602 0.950 . S
H3593 C3604 0.950 . S
H3594 C3606 0.950 . S
H3595 C3607 0.950 . S
C3596 H3588 0.950 . S
C3596 C3597 1.386 . S
C3596 C3598 1.391 . S
C3597 C3596 1.386 . S
C3597 C3601 1.393 . S
C3598 H3590 0.950 . S
C3598 C3596 1.391 . S
C3598 C3599 1.400 . S
C3599 C3598 1.400 . S
C3599 C3600 1.398 . S
C3599 C3605 1.491 . S
C3600 H3591 0.950 . S
C3600 C3599 1.398 . S
C3600 C3601 1.391 . S
C3601 H3589 0.950 . S
C3601 C3597 1.393 . S
C3601 C3600 1.391 . S
C3602 H3592 0.950 . S
C3602 C3603 1.386 . S
C3602 C3604 1.391 . S
C3603 C3602 1.386 . S
C3603 C3607 1.393 . S
C3604 H3593 0.950 . S
C3604 C3602 1.391 . S
C3604 C3605 1.400 . S
C3605 C3599 1.491 . S
C3605 C3604 1.400 . S
C3605 C3606 1.398 . S
C3606 H3594 0.950 . S
C3606 C3605 1.398 . S
C3606 C3607 1.391 . S
C3607 H3595 0.950 . S
C3607 C3603 1.393 . S
C3607 C3606 1.391 . S
H3608 C3616 0.950 . S
H3609 C3621 0.950 . S
H3610 C3618 0.950 . S
H3611 C3620 0.950 . S
H3612 C3622 0.950 . S
H3613 C3624 0.950 . S
H3614 C3626 0.950 . S
H3615 C3627 0.950 . S
C3616 H3608 0.950 . S
C3616 C3617 1.386 . S
C3616 C3618 1.391 . S
C3617 C3616 1.386 . S
C3617 C3621 1.393 . S
C3618 H3610 0.950 . S
C3618 C3616 1.391 . S
C3618 C3619 1.400 . S
C3619 C3618 1.400 . S
C3619 C3620 1.398 . S
C3619 C3625 1.491 . S
C3620 H3611 0.950 . S
C3620 C3619 1.398 . S
C3620 C3621 1.391 . S
C3621 H3609 0.950 . S
C3621 C3617 1.393 . S
C3621 C3620 1.391 . S
C3622 H3612 0.950 . S
C3622 C3623 1.386 . S
C3622 C3624 1.391 . S
C3623 C3622 1.386 . S
C3623 C3627 1.393 . S
C3624 H3613 0.950 . S
C3624 C3622 1.391 . S
C3624 C3625 1.400 . S
C3625 C3619 1.491 . S
C3625 C3624 1.400 . S
C3625 C3626 1.398 . S
C3626 H3614 0.950 . S
C3626 C3625 1.398 . S
C3626 C3627 1.391 . S
C3627 H3615 0.950 . S
C3627 C3623 1.393 . S
C3627 C3626 1.391 . S
H3628 C3636 0.950 . S
H3629 C3641 0.950 . S
H3630 C3638 0.950 . S
H3631 C3640 0.950 . S
H3632 C3642 0.950 . S
H3633 C3644 0.950 . S
H3634 C3646 0.950 . S
H3635 C3647 0.950 . S
C3636 H3628 0.950 . S
C3636 C3637 1.386 . S
C3636 C3638 1.391 . S
C3637 C3636 1.386 . S
C3637 C3641 1.393 . S
C3638 H3630 0.950 . S
C3638 C3636 1.391 . S
C3638 C3639 1.400 . S
C3639 C3638 1.400 . S
C3639 C3640 1.398 . S
C3639 C3645 1.491 . S
C3640 H3631 0.950 . S
C3640 C3639 1.398 . S
C3640 C3641 1.391 . S
C3641 H3629 0.950 . S
C3641 C3637 1.393 . S
C3641 C3640 1.391 . S
C3642 H3632 0.950 . S
C3642 C3643 1.386 . S
C3642 C3644 1.391 . S
C3643 C3642 1.386 . S
C3643 C3647 1.393 . S
C3644 H3633 0.950 . S
C3644 C3642 1.391 . S
C3644 C3645 1.400 . S
C3645 C3639 1.491 . S
C3645 C3644 1.400 . S
C3645 C3646 1.398 . S
C3646 H3634 0.950 . S
C3646 C3645 1.398 . S
C3646 C3647 1.391 . S
C3647 H3635 0.950 . S
C3647 C3643 1.393 . S
C3647 C3646 1.391 . S
H3648 C3656 0.950 . S
H3649 C3661 0.950 . S
H3650 C3658 0.950 . S
H3651 C3660 0.950 . S
H3652 C3662 0.950 . S
H3653 C3664 0.950 . S
H3654 C3666 0.950 . S
H3655 C3667 0.950 . S
C3656 H3648 0.950 . S
C3656 C3657 1.386 . S
C3656 C3658 1.391 . S
C3657 C3656 1.386 . S
C3657 C3661 1.393 . S
C3658 H3650 0.950 . S
C3658 C3656 1.391 . S
C3658 C3659 1.400 . S
C3659 C3658 1.400 . S
C3659 C3660 1.398 . S
C3659 C3665 1.491 . S
C3660 H3651 0.950 . S
C3660 C3659 1.398 . S
C3660 C3661 1.391 . S
C3661 H3649 0.950 . S
C3661 C3657 1.393 . S
C3661 C3660 1.391 . S
C3662 H3652 0.950 . S
C3662 C3663 1.386 . S
C3662 C3664 1.391 . S
C3663 C3662 1.386 . S
C3663 C3667 1.393 . S
C3664 H3653 0.950 . S
C3664 C3662 1.391 . S
C3664 C3665 1.400 . S
C3665 C3659 1.491 . S
C3665 C3664 1.400 . S
C3665 C3666 1.398 . S
C3666 H3654 0.950 . S
C3666 C3665 1.398 . S
C3666 C3667 1.391 . S
C3667 H3655 0.950 . S
C3667 C3663 1.393 . S
C3667 C3666 1.391 . S
H3668 C3676 0.950 . S
H3669 C3681 0.950 . S
H3670 C3678 0.950 . S
H3671 C3680 0.950 . S
H3672 C3682 0.950 . S
H3673 C3684 0.950 . S
H3674 C3686 0.950 . S
H3675 C3687 0.950 . S
C3676 H3668 0.950 . S
C3676 C3677 1.386 . S
C3676 C3678 1.391 . S
C3677 C3676 1.386 . S
C3677 C3681 1.393 . S
C3678 H3670 0.950 . S
C3678 C3676 1.391 . S
C3678 C3679 1.400 . S
C3679 C3678 1.400 . S
C3679 C3680 1.398 . S
C3679 C3685 1.491 . S
C3680 H3671 0.950 . S
C3680 C3679 1.398 . S
C3680 C3681 1.391 . S
C3681 H3669 0.950 . S
C3681 C3677 1.393 . S
C3681 C3680 1.391 . S
C3682 H3672 0.950 . S
C3682 C3683 1.386 . S
C3682 C3684 1.391 . S
C3683 C3682 1.386 . S
C3683 C3687 1.393 . S
C3684 H3673 0.950 . S
C3684 C3682 1.391 . S
C3684 C3685 1.400 . S
C3685 C3679 1.491 . S
C3685 C3684 1.400 . S
C3685 C3686 1.398 . S
C3686 H3674 0.950 . S
C3686 C3685 1.398 . S
C3686 C3687 1.391 . S
C3687 H3675 0.950 . S
C3687 C3683 1.393 . S
C3687 C3686 1.391 . S
H3688 C3696 0.950 . S
H3689 C3701 0.950 . S
H3690 C3698 0.950 . S
H3691 C3700 0.950 . S
H3692 C3702 0.950 . S
H3693 C3704 0.950 . S
H3694 C3706 0.950 . S
H3695 C3707 0.950 . S
C3696 H3688 0.950 . S
C3696 C3697 1.386 . S
C3696 C3698 1.391 . S
C3697 C3696 1.386 . S
C3697 C3701 1.393 . S
C3698 H3690 0.950 . S
C3698 C3696 1.391 . S
C3698 C3699 1.400 . S
C3699 C3698 1.400 . S
C3699 C3700 1.398 . S
C3699 C3705 1.491 . S
C3700 H3691 0.950 . S
C3700 C3699 1.398 . S
C3700 C3701 1.391 . S
C3701 H3689 0.950 . S
C3701 C3697 1.393 . S
C3701 C3700 1.391 . S
C3702 H3692 0.950 . S
C3702 C3703 1.386 . S
C3702 C3704 1.391 . S
C3703 C3702 1.386 . S
C3703 C3707 1.393 . S
C3704 H3693 0.950 . S
C3704 C3702 1.391 . S
C3704 C3705 1.400 . S
C3705 C3699 1.491 . S
C3705 C3704 1.400 . S
C3705 C3706 1.398 . S
C3706 H3694 0.950 . S
C3706 C3705 1.398 . S
C3706 C3707 1.391 . S
C3707 H3695 0.950 . S
C3707 C3703 1.393 . S
C3707 C3706 1.391 . S
H3708 C3716 0.950 . S
H3709 C3721 0.950 . S
H3710 C3718 0.950 . S
H3711 C3720 0.950 . S
H3712 C3722 0.950 . S
H3713 C3724 0.950 . S
H3714 C3726 0.950 . S
H3715 C3727 0.950 . S
C3716 H3708 0.950 . S
C3716 C3717 1.386 . S
C3716 C3718 1.391 . S
C3717 C3716 1.386 . S
C3717 C3721 1.393 . S
C3718 H3710 0.950 . S
C3718 C3716 1.391 . S
C3718 C3719 1.400 . S
C3719 C3718 1.400 . S
C3719 C3720 1.398 . S
C3719 C3725 1.491 . S
C3720 H3711 0.950 . S
C3720 C3719 1.398 . S
C3720 C3721 1.391 . S
C3721 H3709 0.950 . S
C3721 C3717 1.393 . S
C3721 C3720 1.391 . S
C3722 H3712 0.950 . S
C3722 C3723 1.386 . S
C3722 C3724 1.391 . S
C3723 C3722 1.386 . S
C3723 C3727 1.393 . S
C3724 H3713 0.950 . S
C3724 C3722 1.391 . S
C3724 C3725 1.400 . S
C3725 C3719 1.491 . S
C3725 C3724 1.400 . S
C3725 C3726 1.398 . S
C3726 H3714 0.950 . S
C3726 C3725 1.398 . S
C3726 C3727 1.391 . S
C3727 H3715 0.950 . S
C3727 C3723 1.393 . S
C3727 C3726 1.391 . S
H3728 C3736 0.950 . S
H3729 C3741 0.950 . S
H3730 C3738 0.950 . S
H3731 C3740 0.950 . S
H3732 C3742 0.950 . S
H3733 C3744 0.950 . S
H3734 C3746 0.950 . S
H3735 C3747 0.950 . S
C3736 H3728 0.950 . S
C3736 C3737 1.386 . S
C3736 C3738 1.391 . S
C3737 C3736 1.386 . S
C3737 C3741 1.393 . S
C3738 H3730 0.950 . S
C3738 C3736 1.391 . S
C3738 C3739 1.400 . S
C3739 C3738 1.400 . S
C3739 C3740 1.398 . S
C3739 C3745 1.491 . S
C3740 H3731 0.950 . S
C3740 C3739 1.398 . S
C3740 C3741 1.391 . S
C3741 H3729 0.950 . S
C3741 C3737 1.393 . S
C3741 C3740 1.391 . S
C3742 H3732 0.950 . S
C3742 C3743 1.386 . S
C3742 C3744 1.391 . S
C3743 C3742 1.386 . S
C3743 C3747 1.393 . S
C3744 H3733 0.950 . S
C3744 C3742 1.391 . S
C3744 C3745 1.400 . S
C3745 C3739 1.491 . S
C3745 C3744 1.400 . S
C3745 C3746 1.398 . S
C3746 H3734 0.950 . S
C3746 C3745 1.398 . S
C3746 C3747 1.391 . S
C3747 H3735 0.950 . S
C3747 C3743 1.393 . S
C3747 C3746 1.391 . S
H3748 C3756 0.950 . S
H3749 C3761 0.950 . S
H3750 C3758 0.950 . S
H3751 C3760 0.950 . S
H3752 C3762 0.950 . S
H3753 C3764 0.950 . S
H3754 C3766 0.950 . S
H3755 C3767 0.950 1_545 S
C3756 H3748 0.950 . S
C3756 C3757 1.386 . S
C3756 C3758 1.391 . S
C3757 C3756 1.386 . S
C3757 C3761 1.393 . S
C3758 H3750 0.950 . S
C3758 C3756 1.391 . S
C3758 C3759 1.400 . S
C3759 C3758 1.400 . S
C3759 C3760 1.398 . S
C3759 C3765 1.491 . S
C3760 H3751 0.950 . S
C3760 C3759 1.398 . S
C3760 C3761 1.391 . S
C3761 H3749 0.950 . S
C3761 C3757 1.393 . S
C3761 C3760 1.391 . S
C3762 H3752 0.950 . S
C3762 C3763 1.386 . S
C3762 C3764 1.391 . S
C3763 C3762 1.386 . S
C3763 C3767 1.393 . S
C3764 H3753 0.950 . S
C3764 C3762 1.391 . S
C3764 C3765 1.400 . S
C3765 C3759 1.491 . S
C3765 C3764 1.400 . S
C3765 C3766 1.398 . S
C3766 H3754 0.950 . S
C3766 C3765 1.398 . S
C3766 C3767 1.391 . S
C3767 H3755 0.950 1_565 S
C3767 C3763 1.393 . S
C3767 C3766 1.391 . S
H3768 C3776 0.950 . S
H3769 C3781 0.950 . S
H3770 C3778 0.950 . S
H3771 C3780 0.950 . S
H3772 C3782 0.950 . S
H3773 C3784 0.950 . S
H3774 C3786 0.950 . S
H3775 C3787 0.950 . S
C3776 H3768 0.950 . S
C3776 C3777 1.386 . S
C3776 C3778 1.391 . S
C3777 C3776 1.386 . S
C3777 C3781 1.393 . S
C3778 H3770 0.950 . S
C3778 C3776 1.391 . S
C3778 C3779 1.400 . S
C3779 C3778 1.400 . S
C3779 C3780 1.398 . S
C3779 C3785 1.491 . S
C3780 H3771 0.950 . S
C3780 C3779 1.398 . S
C3780 C3781 1.391 . S
C3781 H3769 0.950 . S
C3781 C3777 1.393 . S
C3781 C3780 1.391 . S
C3782 H3772 0.950 . S
C3782 C3783 1.386 . S
C3782 C3784 1.391 . S
C3783 C3782 1.386 . S
C3783 C3787 1.393 . S
C3784 H3773 0.950 . S
C3784 C3782 1.391 . S
C3784 C3785 1.400 . S
C3785 C3779 1.491 . S
C3785 C3784 1.400 . S
C3785 C3786 1.398 . S
C3786 H3774 0.950 . S
C3786 C3785 1.398 . S
C3786 C3787 1.391 . S
C3787 H3775 0.950 . S
C3787 C3783 1.393 . S
C3787 C3786 1.391 . S
H3788 C3796 0.950 . S
H3789 C3801 0.950 . S
H3790 C3798 0.950 . S
H3791 C3800 0.950 . S
H3792 C3802 0.950 . S
H3793 C3804 0.950 . S
H3794 C3806 0.950 . S
H3795 C3807 0.950 . S
C3796 H3788 0.950 . S
C3796 C3797 1.386 1_556 S
C3796 C3798 1.391 . S
C3797 C3796 1.386 1_554 S
C3797 C3801 1.393 . S
C3798 H3790 0.950 . S
C3798 C3796 1.391 . S
C3798 C3799 1.400 1_556 S
C3799 C3798 1.400 1_554 S
C3799 C3800 1.398 . S
C3799 C3805 1.491 . S
C3800 H3791 0.950 . S
C3800 C3799 1.398 . S
C3800 C3801 1.391 . S
C3801 H3789 0.950 . S
C3801 C3797 1.393 . S
C3801 C3800 1.391 . S
C3802 H3792 0.950 . S
C3802 C3803 1.386 . S
C3802 C3804 1.391 . S
C3803 C3802 1.386 . S
C3803 C3807 1.393 1_554 S
C3804 H3793 0.950 . S
C3804 C3802 1.391 . S
C3804 C3805 1.400 . S
C3805 C3799 1.491 . S
C3805 C3804 1.400 . S
C3805 C3806 1.398 1_554 S
C3806 H3794 0.950 . S
C3806 C3805 1.398 1_556 S
C3806 C3807 1.391 . S
C3807 H3795 0.950 . S
C3807 C3803 1.393 1_556 S
C3807 C3806 1.391 . S
H3808 C3816 0.950 . S
H3809 C3821 0.950 . S
H3810 C3818 0.950 . S
H3811 C3820 0.950 . S
H3812 C3822 0.950 . S
H3813 C3824 0.950 . S
H3814 C3826 0.950 . S
H3815 C3827 0.950 . S
C3816 H3808 0.950 . S
C3816 C3817 1.386 . S
C3816 C3818 1.391 . S
C3817 C3816 1.386 . S
C3817 C3821 1.393 . S
C3818 H3810 0.950 . S
C3818 C3816 1.391 . S
C3818 C3819 1.400 . S
C3819 C3818 1.400 . S
C3819 C3820 1.398 . S
C3819 C3825 1.491 . S
C3820 H3811 0.950 . S
C3820 C3819 1.398 . S
C3820 C3821 1.391 . S
C3821 H3809 0.950 . S
C3821 C3817 1.393 . S
C3821 C3820 1.391 . S
C3822 H3812 0.950 . S
C3822 C3823 1.386 . S
C3822 C3824 1.391 . S
C3823 C3822 1.386 . S
C3823 C3827 1.393 . S
C3824 H3813 0.950 . S
C3824 C3822 1.391 . S
C3824 C3825 1.400 . S
C3825 C3819 1.491 . S
C3825 C3824 1.400 . S
C3825 C3826 1.398 . S
C3826 H3814 0.950 . S
C3826 C3825 1.398 . S
C3826 C3827 1.391 . S
C3827 H3815 0.950 . S
C3827 C3823 1.393 . S
C3827 C3826 1.391 . S
H3828 C3836 0.950 . S
H3829 C3841 0.950 . S
H3830 C3838 0.950 . S
H3831 C3840 0.950 . S
H3832 C3842 0.950 . S
H3833 C3844 0.950 . S
H3834 C3846 0.950 . S
H3835 C3847 0.950 . S
C3836 H3828 0.950 . S
C3836 C3837 1.386 1_556 S
C3836 C3838 1.391 . S
C3837 C3836 1.386 1_554 S
C3837 C3841 1.393 . S
C3838 H3830 0.950 . S
C3838 C3836 1.391 . S
C3838 C3839 1.400 1_556 S
C3839 C3838 1.400 1_554 S
C3839 C3840 1.398 . S
C3839 C3845 1.493 . S
C3840 H3831 0.950 . S
C3840 C3839 1.398 . S
C3840 C3841 1.391 . S
C3841 H3829 0.950 . S
C3841 C3837 1.393 . S
C3841 C3840 1.391 . S
C3842 H3832 0.950 . S
C3842 C3843 1.386 1_554 S
C3842 C3844 1.391 . S
C3843 C3842 1.386 1_556 S
C3843 C3847 1.393 . S
C3844 H3833 0.950 . S
C3844 C3842 1.391 . S
C3844 C3845 1.424 . S
C3845 C3839 1.493 . S
C3845 C3844 1.424 . S
C3845 C3846 1.375 1_554 S
C3846 H3834 0.950 . S
C3846 C3845 1.375 1_556 S
C3846 C3847 1.391 . S
C3847 H3835 0.950 . S
C3847 C3843 1.393 . S
C3847 C3846 1.391 . S
H3848 C3856 0.950 . S
H3849 C3861 0.950 . S
H3850 C3858 0.950 . S
H3851 C3860 0.950 . S
H3852 C3862 0.950 . S
H3853 C3864 0.950 . S
H3854 C3866 0.950 . S
H3855 C3867 0.950 . S
C3856 H3848 0.950 . S
C3856 C3857 1.386 . S
C3856 C3858 1.391 . S
C3857 C3856 1.386 . S
C3857 C3861 1.393 . S
C3858 H3850 0.950 . S
C3858 C3856 1.391 . S
C3858 C3859 1.400 . S
C3859 C3858 1.400 . S
C3859 C3860 1.398 . S
C3859 C3865 1.491 . S
C3860 H3851 0.950 . S
C3860 C3859 1.398 . S
C3860 C3861 1.391 . S
C3861 H3849 0.950 . S
C3861 C3857 1.393 . S
C3861 C3860 1.391 . S
C3862 H3852 0.950 . S
C3862 C3863 1.386 . S
C3862 C3864 1.391 . S
C3863 C3862 1.386 . S
C3863 C3867 1.393 . S
C3864 H3853 0.950 . S
C3864 C3862 1.391 . S
C3864 C3865 1.400 . S
C3865 C3859 1.491 . S
C3865 C3864 1.400 . S
C3865 C3866 1.398 . S
C3866 H3854 0.950 . S
C3866 C3865 1.398 . S
C3866 C3867 1.391 . S
C3867 H3855 0.950 . S
C3867 C3863 1.393 . S
C3867 C3866 1.391 . S
H3868 C3876 0.950 . S
H3869 C3881 0.950 . S
H3870 C3878 0.950 . S
H3871 C3880 0.950 . S
H3872 C3882 0.950 . S
H3873 C3884 0.950 . S
H3874 C3886 0.950 . S
H3875 C3887 0.950 . S
C3876 H3868 0.950 . S
C3876 C3877 1.386 . S
C3876 C3878 1.391 . S
C3877 C3876 1.386 . S
C3877 C3881 1.393 . S
C3878 H3870 0.950 . S
C3878 C3876 1.391 . S
C3878 C3879 1.400 . S
C3879 C3878 1.400 . S
C3879 C3880 1.398 . S
C3879 C3885 1.491 . S
C3880 H3871 0.950 . S
C3880 C3879 1.398 . S
C3880 C3881 1.391 . S
C3881 H3869 0.950 . S
C3881 C3877 1.393 . S
C3881 C3880 1.391 . S
C3882 H3872 0.950 . S
C3882 C3883 1.386 . S
C3882 C3884 1.391 . S
C3883 C3882 1.386 . S
C3883 C3887 1.393 . S
C3884 H3873 0.950 . S
C3884 C3882 1.391 . S
C3884 C3885 1.400 . S
C3885 C3879 1.491 . S
C3885 C3884 1.400 . S
C3885 C3886 1.398 . S
C3886 H3874 0.950 . S
C3886 C3885 1.398 . S
C3886 C3887 1.391 . S
C3887 H3875 0.950 . S
C3887 C3883 1.393 . S
C3887 C3886 1.391 . S
H3888 C3896 0.950 . S
H3889 C3901 0.950 . S
H3890 C3898 0.950 . S
H3891 C3900 0.950 . S
H3892 C3902 0.950 . S
H3893 C3904 0.950 . S
H3894 C3906 0.950 . S
H3895 C3907 0.950 . S
C3896 H3888 0.950 . S
C3896 C3897 1.386 . S
C3896 C3898 1.391 . S
C3897 C3896 1.386 . S
C3897 C3901 1.393 . S
C3898 H3890 0.950 . S
C3898 C3896 1.391 . S
C3898 C3899 1.400 . S
C3899 C3898 1.400 . S
C3899 C3900 1.398 . S
C3899 C3905 1.491 . S
C3900 H3891 0.950 . S
C3900 C3899 1.398 . S
C3900 C3901 1.391 . S
C3901 H3889 0.950 . S
C3901 C3897 1.393 . S
C3901 C3900 1.391 . S
C3902 H3892 0.950 . S
C3902 C3903 1.386 . S
C3902 C3904 1.391 . S
C3903 C3902 1.386 . S
C3903 C3907 1.393 . S
C3904 H3893 0.950 . S
C3904 C3902 1.391 . S
C3904 C3905 1.400 . S
C3905 C3899 1.491 . S
C3905 C3904 1.400 . S
C3905 C3906 1.398 . S
C3906 H3894 0.950 . S
C3906 C3905 1.398 . S
C3906 C3907 1.391 . S
C3907 H3895 0.950 . S
C3907 C3903 1.393 . S
C3907 C3906 1.391 . S
H3908 C3916 0.950 . S
H3909 C3921 0.950 . S
H3910 C3918 0.950 . S
H3911 C3920 0.950 . S
H3912 C3922 0.950 . S
H3913 C3924 0.950 . S
H3914 C3926 0.950 . S
H3915 C3927 0.950 . S
C3916 H3908 0.950 . S
C3916 C3917 1.386 . S
C3916 C3918 1.391 . S
C3917 C3916 1.386 . S
C3917 C3921 1.393 . S
C3918 H3910 0.950 . S
C3918 C3916 1.391 . S
C3918 C3919 1.400 . S
C3919 C3918 1.400 . S
C3919 C3920 1.398 . S
C3919 C3925 1.491 . S
C3920 H3911 0.950 . S
C3920 C3919 1.398 . S
C3920 C3921 1.391 . S
C3921 H3909 0.950 . S
C3921 C3917 1.393 . S
C3921 C3920 1.391 . S
C3922 H3912 0.950 . S
C3922 C3923 1.386 . S
C3922 C3924 1.391 . S
C3923 C3922 1.386 . S
C3923 C3927 1.393 . S
C3924 H3913 0.950 . S
C3924 C3922 1.391 . S
C3924 C3925 1.400 . S
C3925 C3919 1.491 . S
C3925 C3924 1.400 . S
C3925 C3926 1.398 . S
C3926 H3914 0.950 . S
C3926 C3925 1.398 . S
C3926 C3927 1.391 . S
C3927 H3915 0.950 . S
C3927 C3923 1.393 . S
C3927 C3926 1.391 . S
H3928 C3936 0.950 . S
H3929 C3941 0.950 . S
H3930 C3938 0.950 . S
H3931 C3940 0.950 . S
H3932 C3942 0.950 . S
H3933 C3944 0.950 . S
H3934 C3946 0.950 . S
H3935 C3947 0.950 . S
C3936 H3928 0.950 . S
C3936 C3937 1.386 1_655 S
C3936 C3938 1.391 . S
C3937 C3936 1.386 1_455 S
C3937 C3941 1.393 . S
C3938 H3930 0.950 . S
C3938 C3936 1.391 . S
C3938 C3939 1.400 1_655 S
C3939 C3938 1.400 1_455 S
C3939 C3940 1.398 . S
C3939 C3945 1.493 . S
C3940 H3931 0.950 . S
C3940 C3939 1.398 . S
C3940 C3941 1.391 . S
C3941 H3929 0.950 . S
C3941 C3937 1.393 . S
C3941 C3940 1.391 . S
C3942 H3932 0.950 . S
C3942 C3943 1.386 1_455 S
C3942 C3944 1.391 . S
C3943 C3942 1.386 1_655 S
C3943 C3947 1.393 . S
C3944 H3933 0.950 . S
C3944 C3942 1.391 . S
C3944 C3945 1.417 . S
C3945 C3939 1.493 . S
C3945 C3944 1.417 . S
C3945 C3946 1.380 1_455 S
C3946 H3934 0.950 . S
C3946 C3945 1.380 1_655 S
C3946 C3947 1.391 . S
C3947 H3935 0.950 . S
C3947 C3943 1.393 . S
C3947 C3946 1.391 . S
H3948 C3956 0.950 . S
H3949 C3961 0.950 . S
H3950 C3958 0.950 . S
H3951 C3960 0.950 . S
H3952 C3962 0.950 . S
H3953 C3964 0.950 . S
H3954 C3966 0.950 . S
H3955 C3967 0.950 . S
C3956 H3948 0.950 . S
C3956 C3957 1.386 . S
C3956 C3958 1.391 . S
C3957 C3956 1.386 . S
C3957 C3961 1.393 . S
C3958 H3950 0.950 . S
C3958 C3956 1.391 . S
C3958 C3959 1.400 . S
C3959 C3958 1.400 . S
C3959 C3960 1.398 . S
C3959 C3965 1.491 . S
C3960 H3951 0.950 . S
C3960 C3959 1.398 . S
C3960 C3961 1.391 . S
C3961 H3949 0.950 . S
C3961 C3957 1.393 . S
C3961 C3960 1.391 . S
C3962 H3952 0.950 . S
C3962 C3963 1.386 . S
C3962 C3964 1.391 . S
C3963 C3962 1.386 . S
C3963 C3967 1.393 . S
C3964 H3953 0.950 . S
C3964 C3962 1.391 . S
C3964 C3965 1.400 . S
C3965 C3959 1.491 . S
C3965 C3964 1.400 . S
C3965 C3966 1.398 . S
C3966 H3954 0.950 . S
C3966 C3965 1.398 . S
C3966 C3967 1.391 . S
C3967 H3955 0.950 . S
C3967 C3963 1.393 . S
C3967 C3966 1.391 . S
H3968 C3976 0.950 . S
H3969 C3981 0.950 . S
H3970 C3978 0.950 . S
H3971 C3980 0.950 . S
H3972 C3982 0.950 . S
H3973 C3984 0.950 . S
H3974 C3986 0.950 . S
H3975 C3987 0.950 . S
C3976 H3968 0.950 . S
C3976 C3977 1.386 . S
C3976 C3978 1.391 . S
C3977 C3976 1.386 . S
C3977 C3981 1.393 . S
C3978 H3970 0.950 . S
C3978 C3976 1.391 . S
C3978 C3979 1.400 . S
C3979 C3978 1.400 . S
C3979 C3980 1.398 . S
C3979 C3985 1.491 . S
C3980 H3971 0.950 . S
C3980 C3979 1.398 . S
C3980 C3981 1.391 . S
C3981 H3969 0.950 . S
C3981 C3977 1.393 . S
C3981 C3980 1.391 . S
C3982 H3972 0.950 . S
C3982 C3983 1.386 . S
C3982 C3984 1.391 . S
C3983 C3982 1.386 . S
C3983 C3987 1.393 . S
C3984 H3973 0.950 . S
C3984 C3982 1.391 . S
C3984 C3985 1.400 . S
C3985 C3979 1.491 . S
C3985 C3984 1.400 . S
C3985 C3986 1.398 . S
C3986 H3974 0.950 . S
C3986 C3985 1.398 . S
C3986 C3987 1.391 . S
C3987 H3975 0.950 . S
C3987 C3983 1.393 . S
C3987 C3986 1.391 . S
H3988 C3996 0.950 . S
H3989 C4001 0.950 . S
H3990 C3998 0.950 . S
H3991 C4000 0.950 . S
H3992 C4002 0.950 . S
H3993 C4004 0.950 . S
H3994 C4006 0.950 . S
H3995 C4007 0.950 . S
C3996 H3988 0.950 . S
C3996 C3997 1.386 . S
C3996 C3998 1.391 . S
C3997 C3996 1.386 . S
C3997 C4001 1.393 . S
C3998 H3990 0.950 . S
C3998 C3996 1.391 . S
C3998 C3999 1.400 . S
C3999 C3998 1.400 . S
C3999 C4000 1.398 . S
C3999 C4005 1.491 . S
C4000 H3991 0.950 . S
C4000 C3999 1.398 . S
C4000 C4001 1.391 . S
C4001 H3989 0.950 . S
C4001 C3997 1.393 . S
C4001 C4000 1.391 . S
C4002 H3992 0.950 . S
C4002 C4003 1.386 . S
C4002 C4004 1.391 . S
C4003 C4002 1.386 . S
C4003 C4007 1.393 . S
C4004 H3993 0.950 . S
C4004 C4002 1.391 . S
C4004 C4005 1.400 . S
C4005 C3999 1.491 . S
C4005 C4004 1.400 . S
C4005 C4006 1.398 . S
C4006 H3994 0.950 . S
C4006 C4005 1.398 . S
C4006 C4007 1.391 . S
C4007 H3995 0.950 . S
C4007 C4003 1.393 . S
C4007 C4006 1.391 . S
H4008 C4016 0.947 1_655 S
H4009 C4021 0.950 . S
H4010 C4018 0.950 . S
H4011 C4020 0.950 . S
H4012 C4022 0.950 . S
H4013 C4024 0.950 . S
H4014 C4026 0.950 . S
H4015 C4027 0.950 . S
C4016 H4008 0.947 1_455 S
C4016 C4017 1.389 . S
C4016 C4018 1.390 1_455 S
C4017 C4016 1.389 . S
C4017 C4021 1.393 . S
C4018 H4010 0.950 . S
C4018 C4016 1.390 1_655 S
C4018 C4019 1.400 1_655 S
C4019 C4018 1.400 1_455 S
C4019 C4020 1.398 . S
C4019 C4025 1.490 1_455 S
C4020 H4011 0.950 . S
C4020 C4019 1.398 . S
C4020 C4021 1.391 . S
C4021 H4009 0.950 . S
C4021 C4017 1.393 . S
C4021 C4020 1.391 . S
C4022 H4012 0.950 . S
C4022 C4023 1.386 1_455 S
C4022 C4024 1.391 . S
C4023 C4022 1.386 1_655 S
C4023 C4027 1.393 . S
C4024 H4013 0.950 . S
C4024 C4022 1.391 . S
C4024 C4025 1.400 1_455 S
C4025 C4019 1.490 1_655 S
C4025 C4024 1.400 1_655 S
C4025 C4026 1.399 . S
C4026 H4014 0.950 . S
C4026 C4025 1.399 . S
C4026 C4027 1.391 . S
C4027 H4015 0.950 . S
C4027 C4023 1.393 . S
C4027 C4026 1.391 . S
H4028 C4036 0.950 . S
H4029 C4041 0.950 . S
H4030 C4038 0.950 . S
H4031 C4040 0.950 . S
H4032 C4042 0.950 . S
H4033 C4044 0.950 . S
H4034 C4046 0.950 . S
H4035 C4047 0.950 . S
C4036 H4028 0.950 . S
C4036 C4037 1.386 . S
C4036 C4038 1.391 . S
C4037 C4036 1.386 . S
C4037 C4041 1.393 . S
C4038 H4030 0.950 . S
C4038 C4036 1.391 . S
C4038 C4039 1.400 . S
C4039 C4038 1.400 . S
C4039 C4040 1.398 . S
C4039 C4045 1.491 . S
C4040 H4031 0.950 . S
C4040 C4039 1.398 . S
C4040 C4041 1.391 . S
C4041 H4029 0.950 . S
C4041 C4037 1.393 . S
C4041 C4040 1.391 . S
C4042 H4032 0.950 . S
C4042 C4043 1.386 . S
C4042 C4044 1.391 . S
C4043 C4042 1.386 . S
C4043 C4047 1.393 . S
C4044 H4033 0.950 . S
C4044 C4042 1.391 . S
C4044 C4045 1.400 . S
C4045 C4039 1.491 . S
C4045 C4044 1.400 . S
C4045 C4046 1.398 . S
C4046 H4034 0.950 . S
C4046 C4045 1.398 . S
C4046 C4047 1.391 . S
C4047 H4035 0.950 . S
C4047 C4043 1.393 . S
C4047 C4046 1.391 . S
H4048 C4056 0.950 . S
H4049 C4061 0.950 . S
H4050 C4058 0.950 . S
H4051 C4060 0.950 . S
H4052 C4062 0.950 . S
H4053 C4064 0.950 . S
H4054 C4066 0.950 . S
H4055 C4067 0.950 . S
C4056 H4048 0.950 . S
C4056 C4057 1.386 . S
C4056 C4058 1.391 . S
C4057 C4056 1.386 . S
C4057 C4061 1.393 . S
C4058 H4050 0.950 . S
C4058 C4056 1.391 . S
C4058 C4059 1.400 . S
C4059 C4058 1.400 . S
C4059 C4060 1.398 . S
C4059 C4065 1.491 . S
C4060 H4051 0.950 . S
C4060 C4059 1.398 . S
C4060 C4061 1.391 . S
C4061 H4049 0.950 . S
C4061 C4057 1.393 . S
C4061 C4060 1.391 . S
C4062 H4052 0.950 . S
C4062 C4063 1.386 . S
C4062 C4064 1.391 . S
C4063 C4062 1.386 . S
C4063 C4067 1.393 . S
C4064 H4053 0.950 . S
C4064 C4062 1.391 . S
C4064 C4065 1.400 . S
C4065 C4059 1.491 . S
C4065 C4064 1.400 . S
C4065 C4066 1.398 . S
C4066 H4054 0.950 . S
C4066 C4065 1.398 . S
C4066 C4067 1.391 . S
C4067 H4055 0.950 . S
C4067 C4063 1.393 . S
C4067 C4066 1.391 . S
H4068 C4076 0.950 . S
H4069 C4081 0.950 . S
H4070 C4078 0.950 . S
H4071 C4080 0.950 . S
H4072 C4082 0.950 . S
H4073 C4084 0.950 . S
H4074 C4086 0.950 . S
H4075 C4087 0.950 . S
C4076 H4068 0.950 . S
C4076 C4077 1.386 . S
C4076 C4078 1.391 . S
C4077 C4076 1.386 . S
C4077 C4081 1.393 . S
C4078 H4070 0.950 . S
C4078 C4076 1.391 . S
C4078 C4079 1.400 . S
C4079 C4078 1.400 . S
C4079 C4080 1.398 . S
C4079 C4085 1.491 . S
C4080 H4071 0.950 . S
C4080 C4079 1.398 . S
C4080 C4081 1.391 . S
C4081 H4069 0.950 . S
C4081 C4077 1.393 . S
C4081 C4080 1.391 . S
C4082 H4072 0.950 . S
C4082 C4083 1.386 . S
C4082 C4084 1.391 . S
C4083 C4082 1.386 . S
C4083 C4087 1.393 . S
C4084 H4073 0.950 . S
C4084 C4082 1.391 . S
C4084 C4085 1.400 . S
C4085 C4079 1.491 . S
C4085 C4084 1.400 . S
C4085 C4086 1.398 . S
C4086 H4074 0.950 . S
C4086 C4085 1.398 . S
C4086 C4087 1.391 . S
C4087 H4075 0.950 . S
C4087 C4083 1.393 . S
C4087 C4086 1.391 . S
H4088 C4096 0.950 . S
H4089 C4101 0.950 . S
H4090 C4098 0.950 . S
H4091 C4100 0.950 . S
H4092 C4102 0.950 . S
H4093 C4104 0.950 . S
H4094 C4106 0.950 . S
H4095 C4107 0.950 . S
C4096 H4088 0.950 . S
C4096 C4097 1.386 . S
C4096 C4098 1.391 . S
C4097 C4096 1.386 . S
C4097 C4101 1.393 . S
C4098 H4090 0.950 . S
C4098 C4096 1.391 . S
C4098 C4099 1.400 . S
C4099 C4098 1.400 . S
C4099 C4100 1.398 . S
C4099 C4105 1.491 . S
C4100 H4091 0.950 . S
C4100 C4099 1.398 . S
C4100 C4101 1.391 . S
C4101 H4089 0.950 . S
C4101 C4097 1.393 . S
C4101 C4100 1.391 . S
C4102 H4092 0.950 . S
C4102 C4103 1.386 . S
C4102 C4104 1.391 . S
C4103 C4102 1.386 . S
C4103 C4107 1.393 . S
C4104 H4093 0.950 . S
C4104 C4102 1.391 . S
C4104 C4105 1.400 . S
C4105 C4099 1.491 . S
C4105 C4104 1.400 . S
C4105 C4106 1.398 . S
C4106 H4094 0.950 . S
C4106 C4105 1.398 . S
C4106 C4107 1.391 . S
C4107 H4095 0.950 . S
C4107 C4103 1.393 . S
C4107 C4106 1.391 . S
H4108 C4116 0.950 . S
H4109 C4121 0.950 . S
H4110 C4118 0.950 . S
H4111 C4120 0.950 . S
H4112 C4122 0.950 . S
H4113 C4124 0.950 . S
H4114 C4126 0.950 . S
H4115 C4127 0.950 . S
C4116 H4108 0.950 . S
C4116 C4117 1.386 . S
C4116 C4118 1.391 . S
C4117 C4116 1.386 . S
C4117 C4121 1.393 . S
C4118 H4110 0.950 . S
C4118 C4116 1.391 . S
C4118 C4119 1.400 . S
C4119 C4118 1.400 . S
C4119 C4120 1.398 . S
C4119 C4125 1.491 . S
C4120 H4111 0.950 . S
C4120 C4119 1.398 . S
C4120 C4121 1.391 . S
C4121 H4109 0.950 . S
C4121 C4117 1.393 . S
C4121 C4120 1.391 . S
C4122 H4112 0.950 . S
C4122 C4123 1.386 . S
C4122 C4124 1.391 . S
C4123 C4122 1.386 . S
C4123 C4127 1.393 . S
C4124 H4113 0.950 . S
C4124 C4122 1.391 . S
C4124 C4125 1.400 . S
C4125 C4119 1.491 . S
C4125 C4124 1.400 . S
C4125 C4126 1.398 . S
C4126 H4114 0.950 . S
C4126 C4125 1.398 . S
C4126 C4127 1.391 . S
C4127 H4115 0.950 . S
C4127 C4123 1.393 . S
C4127 C4126 1.391 . S
H4128 C4136 0.950 . S
H4129 C4141 0.950 . S
H4130 C4138 0.950 . S
H4131 C4140 0.950 . S
H4132 C4142 0.950 . S
H4133 C4144 0.950 . S
H4134 C4146 0.950 . S
H4135 C4147 0.950 . S
C4136 H4128 0.950 . S
C4136 C4137 1.386 . S
C4136 C4138 1.391 . S
C4137 C4136 1.386 . S
C4137 C4141 1.393 . S
C4138 H4130 0.950 . S
C4138 C4136 1.391 . S
C4138 C4139 1.400 . S
C4139 C4138 1.400 . S
C4139 C4140 1.398 . S
C4139 C4145 1.491 . S
C4140 H4131 0.950 . S
C4140 C4139 1.398 . S
C4140 C4141 1.391 . S
C4141 H4129 0.950 . S
C4141 C4137 1.393 . S
C4141 C4140 1.391 . S
C4142 H4132 0.950 . S
C4142 C4143 1.386 . S
C4142 C4144 1.391 . S
C4143 C4142 1.386 . S
C4143 C4147 1.393 . S
C4144 H4133 0.950 . S
C4144 C4142 1.391 . S
C4144 C4145 1.400 . S
C4145 C4139 1.491 . S
C4145 C4144 1.400 . S
C4145 C4146 1.398 . S
C4146 H4134 0.950 . S
C4146 C4145 1.398 . S
C4146 C4147 1.391 . S
C4147 H4135 0.950 . S
C4147 C4143 1.393 . S
C4147 C4146 1.391 . S
H4148 C4156 0.950 . S
H4149 C4161 0.950 . S
H4150 C4158 0.950 . S
H4151 C4160 0.950 . S
H4152 C4162 0.950 . S
H4153 C4164 0.950 . S
H4154 C4166 0.950 . S
H4155 C4167 0.950 . S
C4156 H4148 0.950 . S
C4156 C4157 1.386 . S
C4156 C4158 1.391 . S
C4157 C4156 1.386 . S
C4157 C4161 1.393 . S
C4158 H4150 0.950 . S
C4158 C4156 1.391 . S
C4158 C4159 1.400 . S
C4159 C4158 1.400 . S
C4159 C4160 1.398 . S
C4159 C4165 1.491 . S
C4160 H4151 0.950 . S
C4160 C4159 1.398 . S
C4160 C4161 1.391 . S
C4161 H4149 0.950 . S
C4161 C4157 1.393 . S
C4161 C4160 1.391 . S
C4162 H4152 0.950 . S
C4162 C4163 1.386 . S
C4162 C4164 1.391 . S
C4163 C4162 1.386 . S
C4163 C4167 1.393 . S
C4164 H4153 0.950 . S
C4164 C4162 1.391 . S
C4164 C4165 1.400 . S
C4165 C4159 1.491 . S
C4165 C4164 1.400 . S
C4165 C4166 1.398 . S
C4166 H4154 0.950 . S
C4166 C4165 1.398 . S
C4166 C4167 1.391 . S
C4167 H4155 0.950 . S
C4167 C4163 1.393 . S
C4167 C4166 1.391 . S
H4168 C4176 0.950 . S
H4169 C4181 0.950 . S
H4170 C4178 0.950 . S
H4171 C4180 0.950 . S
H4172 C4182 0.950 . S
H4173 C4184 0.950 . S
H4174 C4186 0.950 . S
H4175 C4187 0.950 . S
C4176 H4168 0.950 . S
C4176 C4177 1.386 . S
C4176 C4178 1.391 . S
C4177 C4176 1.386 . S
C4177 C4181 1.393 . S
C4178 H4170 0.950 . S
C4178 C4176 1.391 . S
C4178 C4179 1.400 . S
C4179 C4178 1.400 . S
C4179 C4180 1.398 . S
C4179 C4185 1.491 . S
C4180 H4171 0.950 . S
C4180 C4179 1.398 . S
C4180 C4181 1.391 . S
C4181 H4169 0.950 . S
C4181 C4177 1.393 . S
C4181 C4180 1.391 . S
C4182 H4172 0.950 . S
C4182 C4183 1.386 . S
C4182 C4184 1.391 . S
C4183 C4182 1.386 . S
C4183 C4187 1.393 . S
C4184 H4173 0.950 . S
C4184 C4182 1.391 . S
C4184 C4185 1.400 . S
C4185 C4179 1.491 . S
C4185 C4184 1.400 . S
C4185 C4186 1.398 . S
C4186 H4174 0.950 . S
C4186 C4185 1.398 . S
C4186 C4187 1.391 . S
C4187 H4175 0.950 . S
C4187 C4183 1.393 . S
C4187 C4186 1.391 . S
H4188 C4196 0.950 . S
H4189 C4201 0.950 . S
H4190 C4198 0.950 . S
H4191 C4200 0.950 . S
H4192 C4202 0.950 . S
H4193 C4204 0.950 . S
H4194 C4206 0.950 . S
H4195 C4207 0.950 . S
C4196 H4188 0.950 . S
C4196 C4197 1.386 . S
C4196 C4198 1.391 . S
C4197 C4196 1.386 . S
C4197 C4201 1.393 . S
C4198 H4190 0.950 . S
C4198 C4196 1.391 . S
C4198 C4199 1.400 . S
C4199 C4198 1.400 . S
C4199 C4200 1.398 . S
C4199 C4205 1.491 . S
C4200 H4191 0.950 . S
C4200 C4199 1.398 . S
C4200 C4201 1.391 . S
C4201 H4189 0.950 . S
C4201 C4197 1.393 . S
C4201 C4200 1.391 . S
C4202 H4192 0.950 . S
C4202 C4203 1.386 . S
C4202 C4204 1.391 . S
C4203 C4202 1.386 . S
C4203 C4207 1.393 . S
C4204 H4193 0.950 . S
C4204 C4202 1.391 . S
C4204 C4205 1.400 . S
C4205 C4199 1.491 . S
C4205 C4204 1.400 . S
C4205 C4206 1.398 . S
C4206 H4194 0.950 . S
C4206 C4205 1.398 . S
C4206 C4207 1.391 . S
C4207 H4195 0.950 . S
C4207 C4203 1.393 . S
C4207 C4206 1.391 . S
H4208 C4216 0.950 . S
H4209 C4221 0.950 . S
H4210 C4218 0.950 . S
H4211 C4220 0.950 . S
H4212 C4222 0.950 . S
H4213 C4224 0.950 . S
H4214 C4226 0.950 . S
H4215 C4227 0.950 . S
C4216 H4208 0.950 . S
C4216 C4217 1.386 . S
C4216 C4218 1.391 . S
C4217 C4216 1.386 . S
C4217 C4221 1.393 . S
C4218 H4210 0.950 . S
C4218 C4216 1.391 . S
C4218 C4219 1.400 . S
C4219 C4218 1.400 . S
C4219 C4220 1.398 . S
C4219 C4225 1.491 . S
C4220 H4211 0.950 . S
C4220 C4219 1.398 . S
C4220 C4221 1.391 . S
C4221 H4209 0.950 . S
C4221 C4217 1.393 . S
C4221 C4220 1.391 . S
C4222 H4212 0.950 . S
C4222 C4223 1.386 . S
C4222 C4224 1.391 . S
C4223 C4222 1.386 . S
C4223 C4227 1.393 . S
C4224 H4213 0.950 . S
C4224 C4222 1.391 . S
C4224 C4225 1.400 . S
C4225 C4219 1.491 . S
C4225 C4224 1.400 . S
C4225 C4226 1.398 . S
C4226 H4214 0.950 . S
C4226 C4225 1.398 . S
C4226 C4227 1.391 . S
C4227 H4215 0.950 . S
C4227 C4223 1.393 . S
C4227 C4226 1.391 . S
H4228 C4236 0.950 . S
H4229 C4241 0.950 . S
H4230 C4238 0.950 . S
H4231 C4240 0.950 . S
H4232 C4242 0.950 . S
H4233 C4244 0.950 . S
H4234 C4246 0.950 . S
H4235 C4247 0.950 . S
C4236 H4228 0.950 . S
C4236 C4237 1.386 . S
C4236 C4238 1.391 . S
C4237 C4236 1.386 . S
C4237 C4241 1.393 . S
C4238 H4230 0.950 . S
C4238 C4236 1.391 . S
C4238 C4239 1.400 . S
C4239 C4238 1.400 . S
C4239 C4240 1.398 . S
C4239 C4245 1.491 . S
C4240 H4231 0.950 . S
C4240 C4239 1.398 . S
C4240 C4241 1.391 . S
C4241 H4229 0.950 . S
C4241 C4237 1.393 . S
C4241 C4240 1.391 . S
C4242 H4232 0.950 . S
C4242 C4243 1.386 . S
C4242 C4244 1.391 . S
C4243 C4242 1.386 . S
C4243 C4247 1.393 . S
C4244 H4233 0.950 . S
C4244 C4242 1.391 . S
C4244 C4245 1.400 . S
C4245 C4239 1.491 . S
C4245 C4244 1.400 . S
C4245 C4246 1.398 . S
C4246 H4234 0.950 . S
C4246 C4245 1.398 . S
C4246 C4247 1.391 . S
C4247 H4235 0.950 . S
C4247 C4243 1.393 . S
C4247 C4246 1.391 . S
H4248 C4256 0.950 . S
H4249 C4261 0.950 . S
H4250 C4258 0.950 . S
H4251 C4260 0.950 . S
H4252 C4262 0.950 . S
H4253 C4264 0.950 . S
H4254 C4266 0.950 . S
H4255 C4267 0.950 . S
C4256 H4248 0.950 . S
C4256 C4257 1.386 . S
C4256 C4258 1.391 . S
C4257 C4256 1.386 . S
C4257 C4261 1.393 . S
C4258 H4250 0.950 . S
C4258 C4256 1.391 . S
C4258 C4259 1.400 . S
C4259 C4258 1.400 . S
C4259 C4260 1.398 . S
C4259 C4265 1.491 . S
C4260 H4251 0.950 . S
C4260 C4259 1.398 . S
C4260 C4261 1.391 . S
C4261 H4249 0.950 . S
C4261 C4257 1.393 . S
C4261 C4260 1.391 . S
C4262 H4252 0.950 . S
C4262 C4263 1.386 . S
C4262 C4264 1.391 . S
C4263 C4262 1.386 . S
C4263 C4267 1.393 . S
C4264 H4253 0.950 . S
C4264 C4262 1.391 . S
C4264 C4265 1.400 . S
C4265 C4259 1.491 . S
C4265 C4264 1.400 . S
C4265 C4266 1.398 . S
C4266 H4254 0.950 . S
C4266 C4265 1.398 . S
C4266 C4267 1.391 . S
C4267 H4255 0.950 . S
C4267 C4263 1.393 . S
C4267 C4266 1.391 . S
H4268 C4276 0.950 . S
H4269 C4281 0.950 . S
H4270 C4278 0.947 1_556 S
H4271 C4280 0.950 . S
H4272 C4282 0.948 1_554 S
H4273 C4284 0.950 . S
H4274 C4286 0.950 . S
H4275 C4287 0.950 1_545 S
C4276 H4268 0.950 . S
C4276 C4277 1.386 . S
C4276 C4278 1.391 . S
C4277 C4276 1.386 . S
C4277 C4281 1.393 . S
C4278 H4270 0.947 1_554 S
C4278 C4276 1.391 . S
C4278 C4279 1.400 . S
C4279 C4278 1.400 . S
C4279 C4280 1.398 . S
C4279 C4285 1.494 . S
C4280 H4271 0.950 . S
C4280 C4279 1.398 . S
C4280 C4281 1.391 . S
C4281 H4269 0.950 . S
C4281 C4277 1.393 . S
C4281 C4280 1.391 . S
C4282 H4272 0.948 1_556 S
C4282 C4283 1.388 . S
C4282 C4284 1.390 1_556 S
C4283 C4282 1.388 . S
C4283 C4287 1.393 . S
C4284 H4273 0.950 . S
C4284 C4282 1.390 1_554 S
C4284 C4285 1.403 . S
C4285 C4279 1.494 . S
C4285 C4284 1.403 . S
C4285 C4286 1.394 1_554 S
C4286 H4274 0.950 . S
C4286 C4285 1.394 1_556 S
C4286 C4287 1.391 . S
C4287 H4275 0.950 1_565 S
C4287 C4283 1.393 . S
C4287 C4286 1.391 . S
H4288 C4296 0.950 . S
H4289 C4301 0.950 . S
H4290 C4298 0.950 . S
H4291 C4300 0.950 . S
H4292 C4302 0.950 . S
H4293 C4304 0.950 . S
H4294 C4306 0.950 . S
H4295 C4307 0.950 . S
C4296 H4288 0.950 . S
C4296 C4297 1.386 . S
C4296 C4298 1.391 . S
C4297 C4296 1.386 . S
C4297 C4301 1.393 . S
C4298 H4290 0.950 . S
C4298 C4296 1.391 . S
C4298 C4299 1.400 . S
C4299 C4298 1.400 . S
C4299 C4300 1.398 . S
C4299 C4305 1.491 . S
C4300 H4291 0.950 . S
C4300 C4299 1.398 . S
C4300 C4301 1.391 . S
C4301 H4289 0.950 . S
C4301 C4297 1.393 . S
C4301 C4300 1.391 . S
C4302 H4292 0.950 . S
C4302 C4303 1.386 . S
C4302 C4304 1.391 . S
C4303 C4302 1.386 . S
C4303 C4307 1.393 . S
C4304 H4293 0.950 . S
C4304 C4302 1.391 . S
C4304 C4305 1.400 . S
C4305 C4299 1.491 . S
C4305 C4304 1.400 . S
C4305 C4306 1.398 . S
C4306 H4294 0.950 . S
C4306 C4305 1.398 . S
C4306 C4307 1.391 . S
C4307 H4295 0.950 . S
C4307 C4303 1.393 . S
C4307 C4306 1.391 . S
H4308 C4316 0.950 . S
H4309 C4321 0.950 . S
H4310 C4318 0.950 . S
H4311 C4320 0.950 . S
H4312 C4322 0.950 . S
H4313 C4324 0.950 . S
H4314 C4326 0.950 . S
H4315 C4327 0.950 . S
C4316 H4308 0.950 . S
C4316 C4317 1.386 . S
C4316 C4318 1.391 . S
C4317 C4316 1.386 . S
C4317 C4321 1.393 1_554 S
C4318 H4310 0.950 . S
C4318 C4316 1.391 . S
C4318 C4319 1.400 . S
C4319 C4318 1.400 . S
C4319 C4320 1.398 1_554 S
C4319 C4325 1.491 . S
C4320 H4311 0.950 . S
C4320 C4319 1.398 1_556 S
C4320 C4321 1.391 . S
C4321 H4309 0.950 . S
C4321 C4317 1.393 1_556 S
C4321 C4320 1.391 . S
C4322 H4312 0.950 . S
C4322 C4323 1.386 1_556 S
C4322 C4324 1.391 . S
C4323 C4322 1.386 1_554 S
C4323 C4327 1.393 . S
C4324 H4313 0.950 . S
C4324 C4322 1.391 . S
C4324 C4325 1.400 1_556 S
C4325 C4319 1.491 . S
C4325 C4324 1.400 1_554 S
C4325 C4326 1.398 . S
C4326 H4314 0.950 . S
C4326 C4325 1.398 . S
C4326 C4327 1.391 . S
C4327 H4315 0.950 . S
C4327 C4323 1.393 . S
C4327 C4326 1.391 . S
H4328 C4336 0.950 . S
H4329 C4341 0.950 . S
H4330 C4338 0.950 . S
H4331 C4340 0.950 . S
H4332 C4342 0.950 . S
H4333 C4344 0.950 . S
H4334 C4346 0.950 . S
H4335 C4347 0.950 . S
C4336 H4328 0.950 . S
C4336 C4337 1.386 . S
C4336 C4338 1.391 . S
C4337 C4336 1.386 . S
C4337 C4341 1.393 . S
C4338 H4330 0.950 . S
C4338 C4336 1.391 . S
C4338 C4339 1.400 . S
C4339 C4338 1.400 . S
C4339 C4340 1.398 . S
C4339 C4345 1.491 . S
C4340 H4331 0.950 . S
C4340 C4339 1.398 . S
C4340 C4341 1.391 . S
C4341 H4329 0.950 . S
C4341 C4337 1.393 . S
C4341 C4340 1.391 . S
C4342 H4332 0.950 . S
C4342 C4343 1.386 . S
C4342 C4344 1.391 . S
C4343 C4342 1.386 . S
C4343 C4347 1.393 . S
C4344 H4333 0.950 . S
C4344 C4342 1.391 . S
C4344 C4345 1.400 . S
C4345 C4339 1.491 . S
C4345 C4344 1.400 . S
C4345 C4346 1.398 . S
C4346 H4334 0.950 . S
C4346 C4345 1.398 . S
C4346 C4347 1.391 . S
C4347 H4335 0.950 . S
C4347 C4343 1.393 . S
C4347 C4346 1.391 . S
H4348 C4356 0.950 . S
H4349 C4361 0.950 . S
H4350 C4358 0.950 . S
H4351 C4360 0.950 . S
H4352 C4362 0.950 . S
H4353 C4364 0.950 . S
H4354 C4366 0.950 . S
H4355 C4367 0.950 . S
C4356 H4348 0.950 . S
C4356 C4357 1.386 . S
C4356 C4358 1.391 . S
C4357 C4356 1.386 . S
C4357 C4361 1.393 . S
C4358 H4350 0.950 . S
C4358 C4356 1.391 . S
C4358 C4359 1.400 . S
C4359 C4358 1.400 . S
C4359 C4360 1.398 . S
C4359 C4365 1.491 . S
C4360 H4351 0.950 . S
C4360 C4359 1.398 . S
C4360 C4361 1.391 . S
C4361 H4349 0.950 . S
C4361 C4357 1.393 . S
C4361 C4360 1.391 . S
C4362 H4352 0.950 . S
C4362 C4363 1.386 . S
C4362 C4364 1.391 . S
C4363 C4362 1.386 . S
C4363 C4367 1.393 . S
C4364 H4353 0.950 . S
C4364 C4362 1.391 . S
C4364 C4365 1.400 . S
C4365 C4359 1.491 . S
C4365 C4364 1.400 . S
C4365 C4366 1.398 . S
C4366 H4354 0.950 . S
C4366 C4365 1.398 . S
C4366 C4367 1.391 . S
C4367 H4355 0.950 . S
C4367 C4363 1.393 . S
C4367 C4366 1.391 . S
C2463 C2128 1.167 . S
C2457 C49 1.228 . S
C2477 C137 1.083 . S
C2483 C2148 1.084 . S
C2497 C205 1.199 . S
C2503 C2170 1.090 . S
C2523 C2189 1.241 . S
C2517 C284 1.272 . S
C2537 C117 1.229 . S
C2543 C2210 1.185 . S
C2563 C2233 1.161 . S
C2557 C225 1.255 . S
C2583 C2256 1.054 . S
C2577 C321 1.051 . S
C2597 C29 1.190 . S
C2603 C2274 1.176 . S
C2617 C401 1.196 . S
C2623 C2130 1.162 . S
C2637 C497 1.269 . S
C2643 C2150 1.241 . S
C2663 C2172 1.072 . S
C2657 C585 1.091 . S
C2683 C2191 1.136 . S
C2677 C665 1.263 . S
C2697 C372 1.255 . S
C2703 C2212 1.141 . S
C2723 C2235 1.048 . S
C2717 C469 1.040 . S
C2743 C2252 1.215 . S
C2737 C557 1.261 . S
C2763 C2276 1.170 . S
C2757 C636 1.204 . S
C2783 C2126 1.171 1_556 S
C2777 C673 1.205 . S
C2803 C2298 1.047 . S
C2797 C724 1.045 . S
C2817 C821 1.233 . S
C2823 C2315 1.192 . S
C2843 C2338 1.145 . S
C2837 C909 1.260 . S
C2857 C381 1.233 . S
C2863 C2272 1.146 . S
C2883 C2168 1.224 . S
C2877 C489 1.261 . S
C2897 C849 1.057 . S
C2903 C2361 1.043 . S
C2923 C2377 1.089 . S
C2917 C1017 1.199 . S
C2937 C1085 1.207 . S
C2943 C2125 1.116 . S
C2963 C2378 1.192 . S
C2957 C1201 1.198 . S
C2977 C1289 1.305 . S
C2983 C2167 1.188 . S
C2997 C1349 1.096 . S
C3003 C2358 1.047 . S
C3023 C2211 1.089 . S
C3017 C1193 1.117 . S
C3043 C2314 1.144 . S
C3037 C1281 1.274 . S
C3063 C2255 1.235 . S
C3057 C1340 1.225 . S
C3083 C2399 1.299 . S
C3077 C1076 1.290 . S
C3103 C2129 1.284 . S
C3097 C1428 1.298 . S
C3117 C1516 1.114 . S
C3123 C2382 1.060 . S
C3143 C2171 1.184 1_545 S
C3137 C1604 1.197 . S
C3157 C1701 1.227 . S
C3163 C2356 1.132 . S
C3177 C1457 1.270 . S
C3183 C2209 1.144 . S
C3197 C1545 1.226 . S
C3203 C2318 1.232 . S
C3223 C2253 1.071 . S
C3217 C1633 1.102 . S
C3237 C1729 1.184 . S
C3243 C2403 1.144 . S
C3257 C1721 1.184 . S
C3263 C2127 1.152 . S
C3277 C1789 1.239 . S
C3283 C2297 1.216 . S
C3297 C1868 1.114 . S
C3303 C2232 1.084 . S
C3317 C1956 1.242 . S
C3323 C2335 1.149 . S
C3343 C2401 1.121 . S
C3337 C1437 1.196 . S
C3363 C2169 1.058 . S
C3357 C1553 1.112 . S
C3383 C2192 1.218 . S
C3377 C1897 1.238 . S
C3403 C2149 1.222 . S
C3397 C2081 1.308 . S
C3417 C233 1.223 . S
C3423 C2422 1.107 . S
C3443 C2379 1.085 . S
C3437 C313 1.081 . S
C3463 C2443 1.122 . S
C3457 C20 1.192 . S
C3477 C108 1.267 . S
C3483 C2357 1.227 . S
C3497 C293 1.240 . S
C3503 C2294 1.210 . S
C3523 C2317 1.168 . S
C3517 C57 1.254 . S
C3543 C2340 1.059 . S
C3537 C145 1.050 . S
C3563 C2400 1.185 . S
C3557 C196 1.186 . S
C3583 C2424 1.183 . S
C3577 C1025 1.187 . S
C3597 C761 1.257 . S
C3603 C2381 1.212 . S
C3617 C841 1.078 . S
C3623 C2445 1.088 . S
C3643 C2359 1.182 . S
C3637 C929 1.267 . S
C3663 C2296 1.131 . S
C3657 C997 1.252 . S
C3677 C733 1.056 . S
C3683 C2319 1.026 . S
C3703 C2336 1.241 . S
C3697 C812 1.273 . S
C3717 C900 1.204 . S
C3723 C2402 1.167 . S
C3743 C2420 1.152 . S
C3737 C937 1.197 . S
C3763 C2214 1.037 . S
C3757 C460 1.050 . S
C3783 C2231 1.190 . S
C3777 C548 1.231 . S
C3797 C645 1.259 . S
C3803 C2254 1.152 . S
C3823 C2398 1.102 . S
C3817 C988 1.229 . S
C3837 C753 1.265 . S
C3843 C2441 1.233 . S
C3863 C2193 1.032 . S
C3857 C577 1.065 . S
C3883 C2146 1.121 . S
C3877 C409 1.198 . S
C3897 C1261 1.194 . S
C3903 C2419 1.082 . S
C3923 C2147 1.178 . S
C3917 C1377 1.202 . S
C3943 C2440 1.207 . S
C3937 C1113 1.304 . S
C3957 C1173 1.095 . S
C3963 C2190 1.044 . S
C3977 C1369 1.109 . S
C3983 C2295 1.069 . S
C3997 C1105 1.267 . S
C4003 C2230 1.153 . S
C4017 C1164 1.231 . S
C4023 C2339 1.220 . S
C4037 C1252 1.298 . S
C4043 C2273 1.283 . S
C4063 C2423 1.298 . S
C4057 C2044 1.288 . S
C4077 C1780 1.121 . S
C4083 C2151 1.078 . S
C4103 C2444 1.192 . S
C4097 C1877 1.199 . S
C4117 C1965 1.241 . S
C4123 C2188 1.158 . S
C4137 C2073 1.277 . S
C4143 C2293 1.191 . S
C4163 C2234 1.219 . S
C4157 C1809 1.240 . S
C4177 C1905 1.104 . S
C4183 C2337 1.077 . S
C4203 C2277 1.117 . S
C4197 C1993 1.173 . S
C4223 C2421 1.116 . S
C4217 C1985 1.171 . S
C4243 C2213 1.223 . S
C4237 C1525 1.239 . S
C4257 C1613 1.104 . S
C4263 C2316 1.054 . S
C4283 C2251 1.158 . S
C4277 C1692 1.230 . S
C4303 C2275 1.114 . S
C4297 C2053 1.207 . S
C4317 C1817 1.112 . S
C4323 C2442 1.058 . S
C4343 C2360 1.231 . S
C4337 C1641 1.230 . S
C4363 C2380 1.224 . S
C4357 C1465 1.309 . S
