# Generated by pormake.
# Topology dag, (6,3)-cn, num edge types: 1
# Building blocks:
#     Node 0, Type 0, BuildingBlock: IZENUY_clean_sbu_0, # of connection points: 6
#     Node 1, Type 0, BuildingBlock: IZENUY_clean_sbu_0, # of connection points: 6
#     Node 2, Type 0, BuildingBlock: IZENUY_clean_sbu_0, # of connection points: 6
#     Node 3, Type 0, BuildingBlock: IZENUY_clean_sbu_0, # of connection points: 6
#     Node 4, Type 1, BuildingBlock: WUSLED_clean_sbu_0, # of connection points: 3
#     Node 5, Type 1, BuildingBlock: WUSLED_clean_sbu_0, # of connection points: 3
#     Node 6, Type 1, BuildingBlock: WUSLED_clean_sbu_0, # of connection points: 3
#     Node 7, Type 1, BuildingBlock: WUSLED_clean_sbu_0, # of connection points: 3
#     Node 8, Type 1, BuildingBlock: WUSLED_clean_sbu_0, # of connection points: 3
#     Node 9, Type 1, BuildingBlock: WUSLED_clean_sbu_0, # of connection points: 3
#     Node 10, Type 1, BuildingBlock: WUSLED_clean_sbu_0, # of connection points: 3
#     Node 11, Type 1, BuildingBlock: WUSLED_clean_sbu_0, # of connection points: 3
#     Edge 12, Type (0, 1), None
#     Edge 13, Type (0, 1), None
#     Edge 14, Type (0, 1), None
#     Edge 15, Type (0, 1), None
#     Edge 16, Type (0, 1), None
#     Edge 17, Type (0, 1), None
#     Edge 18, Type (0, 1), None
#     Edge 19, Type (0, 1), None
#     Edge 20, Type (0, 1), None
#     Edge 21, Type (0, 1), None
#     Edge 22, Type (0, 1), None
#     Edge 23, Type (0, 1), None
#     Edge 24, Type (0, 1), None
#     Edge 25, Type (0, 1), None
#     Edge 26, Type (0, 1), None
#     Edge 27, Type (0, 1), None
#     Edge 28, Type (0, 1), None
#     Edge 29, Type (0, 1), None
#     Edge 30, Type (0, 1), None
#     Edge 31, Type (0, 1), None
#     Edge 32, Type (0, 1), None
#     Edge 33, Type (0, 1), None
#     Edge 34, Type (0, 1), None
#     Edge 35, Type (0, 1), None
# Relax obj value: 0.245
# Max RMSD: 0.194
# Mean RMSD: 0.160
data_MOF--net-dag--node1-IZENUY_clean_sbu_0--node2-WUSLED_clean_sbu_0--edge1-none
_symmetry_space_group_name_H-M    P1
_symmetry_Int_Tables_number       1
_symmetry_cell_setting            triclinic
loop_
_symmetry_equiv_pos_as_xyz
'x, y, z'
_cell_length_a     28.617191
_cell_length_b     29.662864
_cell_length_c     26.290275
_cell_angle_alpha  95.006373
_cell_angle_beta   90.297486
_cell_angle_gamma 90.021116
loop_
_atom_site_label
_atom_site_type_symbol
_atom_site_fract_x
_atom_site_fract_y
_atom_site_fract_z
_atom_type_partial_charge
Fe0 Fe 0.19541 0.89925 0.08634 0.0
Fe1 Fe 0.09581 0.93134 0.06254 0.0
O2 O 0.13712 0.88684 0.06635 0.0
Fe3 Fe 0.12064 0.82974 0.05023 0.0
O4 O 0.15947 0.80666 0.09688 0.0
O5 O 0.19003 0.86582 0.14107 0.0
O6 O 0.18046 0.94901 0.12874 0.0
C7 C 0.14274 0.96198 0.14994 0.0
C8 C 0.20771 0.82897 0.00768 0.0
O9 O 0.10386 0.95104 0.12961 0.0
C10 C 0.0729 0.87647 0.97638 0.0
O11 O 0.20431 0.93342 0.03306 0.0
O12 O 0.13869 0.97211 0.04224 0.0
O13 O 0.16454 0.82258 3e-05 0.0
O14 O 0.22192 0.85184 0.04758 0.0
C15 C 0.04331 0.86189 0.10364 0.0
O16 O 0.0839 0.91566 -0.00485 0.0
O17 O 0.07883 0.84225 0.00099 0.0
C18 C 0.17913 0.96668 0.02328 0.0
O19 O 0.04589 0.89834 0.08208 0.0
O20 O 0.07558 0.83275 0.09894 0.0
C21 C 0.17812 0.82463 0.13744 0.0
Fe22 Fe 0.69489 0.62572 0.46934 0.0
Fe23 Fe 0.61998 0.69603 0.50145 0.0
O24 O 0.63657 0.63865 0.48814 0.0
Fe25 Fe 0.5953 0.59437 0.49359 0.0
O26 O 0.63823 0.55459 0.51619 0.0
O27 O 0.7038 0.59362 0.52444 0.0
O28 O 0.72134 0.67438 0.50632 0.0
C29 C 0.70707 0.69867 0.545 0.0
C30 C 0.6422 0.56099 0.40776 0.0
O31 O 0.6639 0.70517 0.5519 0.0
C32 C 0.54265 0.66185 0.44866 0.0
O33 O 0.68962 0.65703 0.41286 0.0
O34 O 0.65868 0.7174 0.45394 0.0
O35 O 0.60332 0.57243 0.42728 0.0
O36 O 0.67993 0.57463 0.42891 0.0
C37 C 0.57232 0.65206 0.57721 0.0
O38 O 0.57489 0.69109 0.45229 0.0
O39 O 0.54531 0.62637 0.47201 0.0
C40 C 0.67748 0.69807 0.41439 0.0
O41 O 0.57825 0.68524 0.551 0.0
O42 O 0.58343 0.61239 0.56034 0.0
C43 C 0.6787 0.56072 0.53536 0.0
Fe44 Fe 0.89851 0.19563 0.00733 0.0
Fe45 Fe 0.92322 0.09401 -0.00526 0.0
O46 O 0.88195 0.13857 -0.00895 0.0
Fe47 Fe 0.82365 0.12627 0.97101 0.0
O48 O 0.82905 0.1599 0.91643 0.0
O49 O 0.85966 0.2189 0.96085 0.0
O50 O 0.94352 0.19266 0.95855 0.0
C51 C 0.97574 0.16349 0.95376 0.0
C52 C 0.81148 0.19634 0.04996 0.0
O53 O 0.97316 0.12704 0.97533 0.0
C54 C 0.83986 0.05861 0.03381 0.0
O55 O 0.94036 0.18294 0.05645 0.0
O56 O 0.9351 0.10953 0.06217 0.0
O57 O 0.79722 0.17359 0.01 0.0
O58 O 0.85467 0.20269 0.05759 0.0
C59 C 0.87631 0.06364 0.90724 0.0
O60 O 0.88031 0.05321 0.01487 0.0
O61 O 0.81471 0.09192 0.02414 0.0
C62 C 0.94617 0.14867 0.08101 0.0
O63 O 0.91518 0.07449 0.92763 0.0
O64 O 0.83858 0.07662 0.92841 0.0
C65 C 0.84094 0.20109 0.92025 0.0
Fe66 Fe 0.42396 0.43165 0.56387 0.0
Fe67 Fe 0.32447 0.39991 0.58791 0.0
O68 O 0.38278 0.38723 0.56893 0.0
Fe69 Fe 0.39946 0.32994 0.55505 0.0
O70 O 0.44451 0.33458 0.60426 0.0
O71 O 0.474 0.39954 0.58511 0.0
O72 O 0.41597 0.45313 0.63031 0.0
C73 C 0.3771 0.46441 0.64996 0.0
C74 C 0.44699 0.37458 0.47979 0.0
O75 O 0.33936 0.45074 0.62883 0.0
C76 C 0.31239 0.32751 0.5115 0.0
O77 O 0.38095 0.47156 0.54168 0.0
O78 O 0.31543 0.43247 0.53321 0.0
O79 O 0.44122 0.34119 0.5057 0.0
O80 O 0.43581 0.41413 0.49699 0.0
C81 C 0.34183 0.32698 0.64192 0.0
O82 O 0.2981 0.35147 0.55042 0.0
O83 O 0.35558 0.32115 0.50452 0.0
C84 C 0.34047 0.4655 0.52255 0.0
O85 O 0.32985 0.3681 0.644 0.0
O86 O 0.36073 0.30808 0.60221 0.0
C87 C 0.4767 0.36389 0.60818 0.0
C88 C 0.02741 0.18616 0.21401 0.0
C89 C 0.04148 0.14912 0.18056 0.0
C90 C 0.97052 0.15574 0.13043 0.0
C91 C 0.01286 0.13364 0.13915 0.0
C92 C 0.9557 0.19121 0.1654 0.0
C93 C 0.98373 0.206 0.20706 0.0
U94 U 0.13207 0.19295 0.30942 0.0
O95 O 0.18046 0.25044 0.3219 0.0
O96 O 0.1353 0.23237 0.38442 0.0
C97 C 0.16907 0.25857 0.3702 0.0
C98 C 0.05896 0.20835 0.25282 0.0
C99 C 0.20724 0.26967 0.40735 0.0
C100 C 0.22967 0.30638 0.49003 0.0
C101 C 0.19528 0.28897 0.45606 0.0
C102 C 0.28947 0.28413 0.42805 0.0
C103 C 0.27712 0.30507 0.47618 0.0
C104 C 0.25478 0.26671 0.39378 0.0
C105 C 0.1579 0.06934 0.26898 0.0
C106 C 0.18856 1.00281 0.22052 0.0
C107 C 0.10791 0.02471 0.2086 0.0
C108 C 0.11407 0.06127 0.24557 0.0
C109 C 0.14564 0.99596 0.19457 0.0
C110 C 0.19461 0.0392 0.25724 0.0
C111 C 0.1677 0.11128 0.30119 0.0
O112 O 0.0556 0.19582 0.29938 0.0
O113 O 0.10223 0.21473 0.23853 0.0
O114 O 0.13591 0.1244 0.3353 0.0
O115 O 0.18379 0.14445 0.27621 0.0
H116 H 0.07543 0.1338 0.18486 0.0
H117 H 0.02531 0.10678 0.11203 0.0
H118 H 0.92335 0.20894 0.15909 0.0
H119 H 0.97237 0.23469 0.23234 0.0
H120 H 0.21874 0.3219 0.52688 0.0
H121 H 0.15896 0.29209 0.46731 0.0
H122 H 0.32568 0.28254 0.41623 0.0
H123 H 0.26508 0.25226 0.35627 0.0
H124 H 0.21821 0.98102 0.21106 0.0
H125 H 0.07445 0.02036 0.18936 0.0
H126 H 0.08522 0.08419 0.25444 0.0
H127 H 0.22863 0.04489 0.27495 0.0
C128 C 0.36253 0.5739 0.76651 0.0
C129 C 0.40645 0.56488 0.74421 0.0
C130 C 0.37424 0.49935 0.69366 0.0
C131 C 0.41233 0.52775 0.708 0.0
C132 C 0.33117 0.50723 0.71849 0.0
C133 C 0.3254 0.54418 0.75442 0.0
U134 U 0.38781 0.69832 0.80494 0.0
O135 O 0.33874 0.75517 0.81708 0.0
O136 O 0.38513 0.73836 0.87956 0.0
C137 C 0.35066 0.76382 0.86529 0.0
C138 C 0.35311 0.61622 0.79808 0.0
C139 C 0.31277 0.7743 0.90257 0.0
C140 C 0.23052 0.78694 0.92363 0.0
C141 C 0.26511 0.77045 0.88914 0.0
C142 C 0.29068 0.81013 0.98554 0.0
C143 C 0.24304 0.8078 0.97191 0.0
C144 C 0.32498 0.79367 0.95133 0.0
C145 C 0.49136 0.69241 0.70905 0.0
C146 C 0.56133 0.69895 0.65866 0.0
C147 C 0.50729 0.63719 0.63714 0.0
C148 C 0.47875 0.65317 0.67812 0.0
C149 C 0.54801 0.66097 0.62625 0.0
C150 C 0.53345 0.71427 0.69991 0.0
C151 C 0.45985 0.7143 0.74771 0.0
O152 O 0.38539 0.63004 0.8317 0.0
O153 O 0.33625 0.64886 0.77267 0.0
O154 O 0.46407 0.70226 0.79444 0.0
O155 O 0.41627 0.71969 0.73346 0.0
H156 H 0.43564 0.58743 0.7534 0.0
H157 H 0.44593 0.52259 0.68966 0.0
H158 H 0.30123 0.48574 0.7088 0.0
H159 H 0.29131 0.55058 0.7713 0.0
H160 H 0.19418 0.78458 0.91194 0.0
H161 H 0.25458 0.75593 0.85161 0.0
H162 H 0.30179 0.82567 0.02244 0.0
H163 H 0.36138 0.79749 0.96248 0.0
H164 H 0.59243 0.71796 0.65074 0.0
H165 H 0.49595 0.6083 0.61206 0.0
H166 H 0.44597 0.63628 0.6841 0.0
H167 H 0.54367 0.74466 0.72322 0.0
C168 C 0.78455 0.95664 0.12375 0.0
C169 C 0.82658 0.94897 0.0973 0.0
C170 C 0.82078 0.02343 0.06472 0.0
C171 C 0.84469 0.9822 0.0682 0.0
C172 C 0.77852 0.03063 0.09113 0.0
C173 C 0.76072 0.99758 0.12045 0.0
U174 U 0.78534 0.8533 0.20629 0.0
O175 O 0.74515 0.85286 0.27711 0.0
O176 O 0.72913 0.80314 0.21238 0.0
C177 C 0.71953 0.8181 0.25974 0.0
C178 C 0.76448 0.92321 0.1555 0.0
C179 C 0.70941 0.78485 0.29653 0.0
C180 C 0.66334 0.7668 0.36907 0.0
C181 C 0.67393 0.79569 0.33186 0.0
C182 C 0.72289 0.71441 0.33555 0.0
C183 C 0.68794 0.72608 0.37188 0.0
C184 C 0.73378 0.74384 0.29812 0.0
C185 C 0.91584 0.83351 0.18134 0.0
C186 C 0.99251 0.80965 0.14987 0.0
C187 C 0.96491 0.88547 0.13908 0.0
C188 C 0.92334 0.87622 0.16389 0.0
C189 C 0.99993 0.85219 0.13146 0.0
C190 C 0.95074 0.80039 0.17443 0.0
C191 C 0.87148 0.82258 0.20555 0.0
O192 O 0.76169 0.88106 0.13549 0.0
O193 O 0.77761 0.92678 0.20361 0.0
O194 O 0.83877 0.80581 0.17408 0.0
O195 O 0.85564 0.85309 0.24055 0.0
H196 H 0.84524 0.9174 0.09905 0.0
H197 H 0.87728 0.97544 0.04819 0.0
H198 H 0.7593 0.06192 0.08947 0.0
H199 H 0.72818 1.00404 0.14071 0.0
H200 H 0.63588 0.77667 0.39599 0.0
H201 H 0.65457 0.82704 0.33105 0.0
H202 H 0.74246 0.68329 0.33686 0.0
H203 H 0.76136 0.73492 0.27104 0.0
H204 H 0.01868 0.78328 0.14475 0.0
H205 H 0.96945 0.9187 0.12571 0.0
H206 H 0.89696 0.90234 0.16924 0.0
H207 H 0.94552 0.7672 0.1877 0.0
C208 C 0.73497 0.46154 0.62896 0.0
C209 C 0.69291 0.45298 0.60234 0.0
C210 C 0.69799 0.52662 0.56777 0.0
C211 C 0.67441 0.48537 0.57219 0.0
C212 C 0.74024 0.53477 0.59445 0.0
C213 C 0.75841 0.50257 0.62485 0.0
U214 U 0.73519 0.35943 0.71315 0.0
O215 O 0.77555 0.35972 0.7844 0.0
O216 O 0.79158 0.30966 0.72022 0.0
C217 C 0.80086 0.32462 0.76778 0.0
C218 C 0.75555 0.42883 0.6615 0.0
C219 C 0.8097 0.29126 0.80495 0.0
C220 C 0.85076 0.27412 0.88172 0.0
C221 C 0.84065 0.30378 0.84504 0.0
C222 C 0.7995 0.21788 0.83857 0.0
C223 C 0.83022 0.2309 0.87928 0.0
C224 C 0.78914 0.24801 0.80163 0.0
C225 C 0.60465 0.33825 0.68757 0.0
C226 C 0.52808 0.31313 0.6561 0.0
C227 C 0.55487 0.38894 0.64394 0.0
C228 C 0.59664 0.38056 0.66925 0.0
C229 C 0.52018 0.35521 0.63671 0.0
C230 C 0.57005 0.30472 0.68114 0.0
C231 C 0.64925 0.32812 0.71218 0.0
O232 O 0.74256 0.43286 0.7095 0.0
O233 O 0.75863 0.38652 0.64215 0.0
O234 O 0.665 0.35917 0.74684 0.0
O235 O 0.68193 0.31134 0.68109 0.0
H236 H 0.67456 0.42132 0.60469 0.0
H237 H 0.64186 0.47788 0.552 0.0
H238 H 0.7592 0.56613 0.5921 0.0
H239 H 0.79097 0.50971 0.64523 0.0
H240 H 0.8749 0.28528 0.91213 0.0
H241 H 0.8571 0.33685 0.8481 0.0
H242 H 0.78311 0.18484 0.83567 0.0
H243 H 0.76512 0.23767 0.77083 0.0
H244 H 0.50217 0.28644 0.6513 0.0
H245 H 0.54993 0.42185 0.62984 0.0
H246 H 0.62278 0.40699 0.67427 0.0
H247 H 0.57569 0.27185 0.69512 0.0
C248 C 0.52794 0.33418 0.34815 0.0
C249 C 0.5415 0.37253 0.38006 0.0
C250 C 0.47129 0.36605 0.43073 0.0
C251 C 0.51298 0.38872 0.42094 0.0
C252 C 0.45702 0.32908 0.39733 0.0
C253 C 0.48492 0.31355 0.35616 0.0
U254 U 0.63164 0.32729 0.25265 0.0
O255 O 0.63429 0.2872 0.17808 0.0
O256 O 0.68052 0.27026 0.24065 0.0
C257 C 0.66864 0.26162 0.19242 0.0
C258 C 0.55932 0.31181 0.30966 0.0
C259 C 0.70653 0.25102 0.15518 0.0
C260 C 0.72855 0.21522 0.07218 0.0
C261 C 0.69429 0.23171 0.10641 0.0
C262 C 0.78876 0.23824 0.13411 0.0
C263 C 0.77619 0.21747 0.0858 0.0
C264 C 0.75419 0.25476 0.16862 0.0
C265 C 0.65701 0.45155 0.29122 0.0
C266 C 0.68805 0.51851 0.33894 0.0
C267 C 0.60719 0.49728 0.3501 0.0
C268 C 0.61317 0.46018 0.31388 0.0
C269 C 0.64508 0.52603 0.3641 0.0
C270 C 0.69393 0.4816 0.30298 0.0
C271 C 0.66659 0.40928 0.25963 0.0
O272 O 0.55533 0.3237 0.26285 0.0
O273 O 0.60282 0.30609 0.32403 0.0
O274 O 0.63444 0.39553 0.22583 0.0
O275 O 0.68328 0.3766 0.28508 0.0
H276 H 0.57496 0.38847 0.37493 0.0
H277 H 0.52504 0.41677 0.44685 0.0
H278 H 0.42518 0.3109 0.40445 0.0
H279 H 0.47395 0.28387 0.33208 0.0
H280 H 0.71741 0.19975 0.03526 0.0
H281 H 0.65788 0.22797 0.09526 0.0
H282 H 0.82509 0.24053 0.14579 0.0
H283 H 0.76474 0.26923 0.20617 0.0
H284 H 0.71783 0.54027 0.34837 0.0
H285 H 0.57368 0.50215 0.36874 0.0
H286 H 0.58416 0.43735 0.30498 0.0
H287 H 0.72795 0.47549 0.28583 0.0
C288 C 0.10299 0.1915 0.87548 0.0
C289 C 0.09543 0.1488 0.89295 0.0
C290 C 0.01906 0.17308 0.92579 0.0
C291 C 0.05394 0.13969 0.91797 0.0
C292 C 0.02654 0.21562 0.90738 0.0
C293 C 0.06824 0.22474 0.8826 0.0
U294 U 0.23337 0.17142 0.84997 0.0
O295 O 0.27326 0.17147 0.77891 0.0
O296 O 0.2896 0.22146 0.8433 0.0
C297 C 0.29892 0.20632 0.79592 0.0
C298 C 0.14728 0.20227 0.851 0.0
C299 C 0.30885 0.23936 0.7588 0.0
C300 C 0.29801 0.31132 0.7221 0.0
C301 C 0.28689 0.28181 0.75938 0.0
C302 C 0.35291 0.25609 0.68432 0.0
C303 C 0.33084 0.29838 0.68381 0.0
C304 C 0.34206 0.22708 0.72132 0.0
C305 C 0.23436 0.06837 0.93292 0.0
C306 C 0.24046 0.99452 0.96586 0.0
C307 C 0.17424 0.04295 0.98858 0.0
C308 C 0.19232 0.07609 0.95934 0.0
C309 C 0.19818 1.00177 -0.00777 0.0
C310 C 0.25823 0.02748 0.9364 0.0
C311 C 0.25435 0.10166 0.90095 0.0
O312 O 0.18013 0.21909 0.88225 0.0
O313 O 0.16294 0.17162 0.81604 0.0
O314 O 0.25728 0.14385 0.9208 0.0
O315 O 0.24102 0.09797 0.85291 0.0
H316 H 0.1217 0.12259 0.88743 0.0
H317 H 0.04935 0.10646 0.93133 0.0
H318 H 1.00048 0.24206 0.91265 0.0
H319 H 0.07351 0.25792 0.86931 0.0
H320 H 0.28039 0.34366 0.72265 0.0
H321 H 0.26112 0.29191 0.78816 0.0
H322 H 0.3787 0.2451 0.65586 0.0
H323 H 0.35959 0.19462 0.72043 0.0
H324 H 0.25971 0.96326 0.96765 0.0
H325 H 0.14164 0.04975 0.00856 0.0
H326 H 0.17363 0.10762 0.95745 0.0
H327 H 0.29077 0.02098 0.91616 0.0
C328 C 0.28402 0.56503 0.42954 0.0
C329 C 0.32607 0.57356 0.45619 0.0
C330 C 0.3211 0.49975 0.4904 0.0
C331 C 0.34461 0.54107 0.48619 0.0
C332 C 0.27885 0.49165 0.4637 0.0
C333 C 0.26063 0.52395 0.43347 0.0
U334 U 0.28379 0.66687 0.34496 0.0
O335 O 0.2276 0.71687 0.33805 0.0
O336 O 0.24302 0.66649 0.27399 0.0
C337 C 0.21797 0.70177 0.29063 0.0
C338 C 0.26342 0.59779 0.39708 0.0
C339 C 0.2091 0.73501 0.25332 0.0
C340 C 0.16771 0.75205 0.17672 0.0
C341 C 0.17776 0.72255 0.21359 0.0
C342 C 0.2198 0.80802 0.21902 0.0
C343 C 0.18872 0.79504 0.17864 0.0
C344 C 0.2301 0.77804 0.25613 0.0
C345 C 0.41456 0.6875 0.36951 0.0
C346 C 0.49149 0.71234 0.40013 0.0
C347 C 0.46414 0.63699 0.41365 0.0
C348 C 0.42232 0.6454 0.38845 0.0
C349 C 0.49913 0.67048 0.42015 0.0
C350 C 0.44947 0.72077 0.3752 0.0
C351 C 0.36989 0.69773 0.34513 0.0
O352 O 0.2607 0.64016 0.41631 0.0
O353 O 0.27604 0.59353 0.34897 0.0
O354 O 0.33746 0.71482 0.37636 0.0
O355 O 0.3538 0.66661 0.31075 0.0
H356 H 0.34439 0.60525 0.45398 0.0
H357 H 0.37717 0.54852 0.5064 0.0
H358 H 0.25993 0.46024 0.4659 0.0
H359 H 0.22808 0.51683 0.41306 0.0
H360 H 0.14328 0.74096 0.14658 0.0
H361 H 0.16097 0.68965 0.21093 0.0
H362 H 0.23655 0.84089 0.2215 0.0
H363 H 0.25444 0.78832 0.28665 0.0
H364 H 0.51763 0.73883 0.40435 0.0
H365 H 0.46888 0.60426 0.42826 0.0
H366 H 0.39593 0.61917 0.38401 0.0
H367 H 0.44404 0.75349 0.36074 0.0
C368 C 0.86139 0.95642 0.78799 0.0
C369 C 0.90523 0.96464 0.81131 0.0
C370 C 0.87345 0.02971 0.86255 0.0
C371 C 0.91128 1.00115 0.84836 0.0
C372 C 0.8305 0.02272 0.83669 0.0
C373 C 0.82455 0.98638 0.7999 0.0
U374 U 0.88737 0.83286 0.74734 0.0
O375 O 0.83901 0.77539 0.73459 0.0
O376 O 0.88425 0.79361 0.67222 0.0
C377 C 0.85046 0.76739 0.6863 0.0
C378 C 0.85172 0.91451 0.75567 0.0
C379 C 0.81231 0.75642 0.64908 0.0
C380 C 0.73004 0.74233 0.62827 0.0
C381 C 0.76476 0.75968 0.66254 0.0
C382 C 0.78985 0.71961 0.56646 0.0
C383 C 0.74237 0.72117 0.58023 0.0
C384 C 0.82426 0.73696 0.60044 0.0
C385 C 0.99185 0.83916 0.84309 0.0
C386 C 0.06315 0.83347 0.89226 0.0
C387 C 1.00661 0.89183 0.91779 0.0
C388 C 0.97805 0.87649 0.87626 0.0
C389 C 0.0486 0.86929 0.92692 0.0
C390 C 0.03521 0.81882 0.85048 0.0
C391 C 0.96032 0.81722 0.8041 0.0
O392 O 0.88362 0.90148 0.72166 0.0
O393 O 0.83559 0.88129 0.78053 0.0
O394 O 0.96382 0.82992 0.75763 0.0
O395 O 0.917 0.81089 0.81825 0.0
H396 H 0.93417 0.94187 0.80231 0.0
H397 H 0.94478 1.00562 0.86752 0.0
H398 H 0.80077 0.04436 0.84627 0.0
H399 H 0.79052 0.98057 0.78225 0.0
H400 H 0.69381 0.74411 0.64003 0.0
H401 H 0.75445 0.77429 0.69999 0.0
H402 H 0.80076 0.70393 0.52969 0.0
H403 H 0.86059 0.73363 0.58927 0.0
H404 H 0.09524 0.81541 0.89887 0.0
H405 H 0.99435 0.91898 0.94465 0.0
H406 H 0.94433 0.89218 0.87162 0.0
H407 H 0.04636 0.7899 0.82543 0.0
loop_
_geom_bond_atom_site_label_1
_geom_bond_atom_site_label_2
_geom_bond_distance
_geom_bond_site_symmetry_2
_ccdc_geom_bond_type
Fe0 O2 1.918 . S
Fe0 O5 1.997 . S
Fe0 O6 2.002 . S
Fe0 O11 1.976 . S
Fe0 O14 1.996 . S
Fe1 O2 1.918 . S
Fe1 O9 1.997 . S
Fe1 O12 1.996 . S
Fe1 O16 1.976 1_554 S
Fe1 O19 2.002 . S
O2 Fe0 1.918 . S
O2 Fe1 1.918 . S
O2 Fe3 1.918 . S
Fe3 O2 1.918 . S
Fe3 O4 2.002 . S
Fe3 O13 1.976 . S
Fe3 O17 1.996 1_554 S
Fe3 O20 1.997 . S
O4 Fe3 2.002 . S
O4 C21 1.295 . S
O5 Fe0 1.997 . S
O5 C21 1.235 . S
O6 Fe0 2.002 . S
O6 C7 1.295 . S
C7 O6 1.295 . S
C7 O9 1.235 . S
C8 O13 1.287 . S
C8 O14 1.255 . S
O9 Fe1 1.997 . S
O9 C7 1.235 . S
C10 O16 1.287 . S
C10 O17 1.255 . S
O11 Fe0 1.976 . S
O11 C18 1.287 . S
O12 Fe1 1.996 . S
O12 C18 1.255 . S
O13 Fe3 1.976 . S
O13 C8 1.287 . S
O14 Fe0 1.996 . S
O14 C8 1.255 . S
C15 O19 1.295 . S
C15 O20 1.235 . S
O16 Fe1 1.976 1_556 S
O16 C10 1.287 . S
O17 Fe3 1.996 1_556 S
O17 C10 1.255 . S
C18 O11 1.287 . S
C18 O12 1.255 . S
O19 Fe1 2.002 . S
O19 C15 1.295 . S
O20 Fe3 1.997 . S
O20 C15 1.235 . S
C21 O4 1.295 . S
C21 O5 1.235 . S
Fe22 O24 1.918 . S
Fe22 O27 1.997 . S
Fe22 O28 2.002 . S
Fe22 O33 1.976 . S
Fe22 O36 1.996 . S
Fe23 O24 1.918 . S
Fe23 O31 1.997 . S
Fe23 O34 1.996 . S
Fe23 O38 1.976 . S
Fe23 O41 2.002 . S
O24 Fe22 1.918 . S
O24 Fe23 1.918 . S
O24 Fe25 1.918 . S
Fe25 O24 1.918 . S
Fe25 O26 2.002 . S
Fe25 O35 1.976 . S
Fe25 O39 1.996 . S
Fe25 O42 1.997 . S
O26 Fe25 2.002 . S
O26 C43 1.295 . S
O27 Fe22 1.997 . S
O27 C43 1.235 . S
O28 Fe22 2.002 . S
O28 C29 1.295 . S
C29 O28 1.295 . S
C29 O31 1.235 . S
C30 O35 1.287 . S
C30 O36 1.255 . S
O31 Fe23 1.997 . S
O31 C29 1.235 . S
C32 O38 1.287 . S
C32 O39 1.255 . S
O33 Fe22 1.976 . S
O33 C40 1.287 . S
O34 Fe23 1.996 . S
O34 C40 1.255 . S
O35 Fe25 1.976 . S
O35 C30 1.287 . S
O36 Fe22 1.996 . S
O36 C30 1.255 . S
C37 O41 1.295 . S
C37 O42 1.235 . S
O38 Fe23 1.976 . S
O38 C32 1.287 . S
O39 Fe25 1.996 . S
O39 C32 1.255 . S
C40 O33 1.287 . S
C40 O34 1.255 . S
O41 Fe23 2.002 . S
O41 C37 1.295 . S
O42 Fe25 1.997 . S
O42 C37 1.235 . S
C43 O26 1.295 . S
C43 O27 1.235 . S
Fe44 O46 1.918 . S
Fe44 O49 1.997 1_554 S
Fe44 O50 1.998 1_554 S
Fe44 O55 1.976 . S
Fe44 O58 1.996 . S
Fe45 O46 1.918 . S
Fe45 O53 1.997 1_554 S
Fe45 O56 1.996 . S
Fe45 O60 1.976 . S
Fe45 O63 2.002 1_554 S
O46 Fe44 1.918 . S
O46 Fe45 1.918 . S
O46 Fe47 1.918 1_554 S
Fe47 O46 1.918 1_556 S
Fe47 O48 2.002 . S
Fe47 O57 1.976 1_556 S
Fe47 O61 1.996 1_556 S
Fe47 O64 1.997 . S
O48 Fe47 2.002 . S
O48 C65 1.295 . S
O49 Fe44 1.997 1_556 S
O49 C65 1.235 . S
O50 Fe44 1.998 1_556 S
O50 C51 1.297 . S
C51 O50 1.297 . S
C51 O53 1.235 . S
C52 O57 1.287 . S
C52 O58 1.255 . S
O53 Fe45 1.997 1_556 S
O53 C51 1.235 . S
C54 O60 1.287 . S
C54 O61 1.255 . S
O55 Fe44 1.976 . S
O55 C62 1.287 . S
O56 Fe45 1.996 . S
O56 C62 1.255 . S
O57 Fe47 1.976 1_554 S
O57 C52 1.287 . S
O58 Fe44 1.996 . S
O58 C52 1.255 . S
C59 O63 1.295 . S
C59 O64 1.235 . S
O60 Fe45 1.976 . S
O60 C54 1.287 . S
O61 Fe47 1.996 1_554 S
O61 C54 1.255 . S
C62 O55 1.287 . S
C62 O56 1.255 . S
O63 Fe45 2.002 1_556 S
O63 C59 1.295 . S
O64 Fe47 1.997 . S
O64 C59 1.235 . S
C65 O48 1.295 . S
C65 O49 1.235 . S
Fe66 O68 1.918 . S
Fe66 O71 1.997 . S
Fe66 O72 2.002 . S
Fe66 O77 1.976 . S
Fe66 O80 1.996 . S
Fe67 O68 1.918 . S
Fe67 O75 1.997 . S
Fe67 O78 1.996 . S
Fe67 O82 1.976 . S
Fe67 O85 2.002 . S
O68 Fe66 1.918 . S
O68 Fe67 1.918 . S
O68 Fe69 1.918 . S
Fe69 O68 1.918 . S
Fe69 O70 2.002 . S
Fe69 O79 1.976 . S
Fe69 O83 1.996 . S
Fe69 O86 1.997 . S
O70 Fe69 2.002 . S
O70 C87 1.295 . S
O71 Fe66 1.997 . S
O71 C87 1.235 . S
O72 Fe66 2.002 . S
O72 C73 1.295 . S
C73 O72 1.295 . S
C73 O75 1.235 . S
C74 O79 1.287 . S
C74 O80 1.255 . S
O75 Fe67 1.997 . S
O75 C73 1.235 . S
C76 O82 1.287 . S
C76 O83 1.255 . S
O77 Fe66 1.976 . S
O77 C84 1.287 . S
O78 Fe67 1.996 . S
O78 C84 1.255 . S
O79 Fe69 1.976 . S
O79 C74 1.287 . S
O80 Fe66 1.996 . S
O80 C74 1.255 . S
C81 O85 1.295 . S
C81 O86 1.235 . S
O82 Fe67 1.976 . S
O82 C76 1.287 . S
O83 Fe69 1.996 . S
O83 C76 1.255 . S
C84 O77 1.287 . S
C84 O78 1.255 . S
O85 Fe67 2.002 . S
O85 C81 1.295 . S
O86 Fe69 1.997 . S
O86 C81 1.235 . S
C87 O70 1.295 . S
C87 O71 1.235 . S
C88 C89 1.264 . S
C88 C93 1.479 . S
C88 C98 1.465 1_655 S
C89 C88 1.264 . S
C89 C91 1.339 . S
C89 H116 0.931 . S
C90 C91 1.395 . S
C90 C92 1.320 . S
C91 C89 1.339 . S
C91 C90 1.395 . S
C91 H117 0.929 . S
C92 C90 1.320 . S
C92 C93 1.405 . S
C92 H118 0.930 . S
C93 C88 1.479 . S
C93 C92 1.405 . S
C93 H119 0.931 . S
U94 O95 2.454 . S
U94 O96 2.458 . S
U94 C97 2.984 . S
U94 C98 2.847 . S
U94 C111 2.882 . S
U94 O112 2.441 . S
U94 O113 2.420 . S
U94 O114 2.455 . S
U94 O115 2.449 . S
O95 U94 2.454 . S
O95 C97 1.353 . S
O96 U94 2.458 . S
O96 C97 1.286 . S
C97 U94 2.984 . S
C97 O95 1.353 . S
C97 O96 1.286 . S
C97 C99 1.363 . S
C98 C88 1.465 1_455 S
C98 U94 2.847 . S
C98 O112 1.249 . S
C98 O113 1.202 . S
C99 C97 1.363 . S
C99 C101 1.408 . S
C99 C104 1.342 . S
C100 C101 1.310 . S
C100 C103 1.461 . S
C100 H120 0.932 . S
C101 C99 1.408 . S
C101 C100 1.310 . S
C101 H121 0.930 . S
C102 C103 1.474 . S
C102 C104 1.285 . S
C102 H122 0.929 . S
C103 C100 1.461 . S
C103 C102 1.474 . S
C104 C99 1.342 . S
C104 C102 1.285 . S
C104 H123 0.930 . S
C105 C108 1.424 1_545 S
C105 C110 1.245 1_545 S
C105 C111 1.428 . S
C106 C109 1.260 . S
C106 C110 1.477 . S
C106 H124 0.932 . S
C107 C108 1.384 . S
C107 C109 1.479 . S
C107 H125 0.929 . S
C108 C105 1.424 1_565 S
C108 C107 1.384 . S
C108 H126 0.927 . S
C109 C106 1.260 . S
C109 C107 1.479 . S
C110 C105 1.245 1_565 S
C110 C106 1.477 . S
C110 H127 0.932 1_565 S
C111 U94 2.882 . S
C111 C105 1.428 . S
C111 O114 1.301 . S
C111 O115 1.282 . S
O112 U94 2.441 . S
O112 C98 1.249 . S
O113 U94 2.420 . S
O113 C98 1.202 . S
O114 U94 2.455 . S
O114 C111 1.301 . S
O115 U94 2.449 . S
O115 C111 1.282 . S
H116 C89 0.931 . S
H117 C91 0.929 . S
H118 C92 0.930 . S
H119 C93 0.931 . S
H120 C100 0.932 . S
H121 C101 0.930 . S
H122 C102 0.929 . S
H123 C104 0.930 . S
H124 C106 0.932 . S
H125 C107 0.929 . S
H126 C108 0.927 . S
H127 C110 0.932 1_545 S
C128 C129 1.264 . S
C128 C133 1.479 . S
C128 C138 1.465 . S
C129 C128 1.264 . S
C129 C131 1.339 . S
C129 H156 0.931 . S
C130 C131 1.395 . S
C130 C132 1.320 . S
C131 C129 1.339 . S
C131 C130 1.395 . S
C131 H157 0.929 . S
C132 C130 1.320 . S
C132 C133 1.405 . S
C132 H158 0.930 . S
C133 C128 1.479 . S
C133 C132 1.405 . S
C133 H159 0.931 . S
U134 O135 2.454 . S
U134 O136 2.458 . S
U134 C137 2.984 . S
U134 C138 2.847 . S
U134 C151 2.882 . S
U134 O152 2.441 . S
U134 O153 2.420 . S
U134 O154 2.455 . S
U134 O155 2.449 . S
O135 U134 2.454 . S
O135 C137 1.353 . S
O136 U134 2.458 . S
O136 C137 1.286 . S
C137 U134 2.984 . S
C137 O135 1.353 . S
C137 O136 1.286 . S
C137 C139 1.363 . S
C138 C128 1.465 . S
C138 U134 2.847 . S
C138 O152 1.249 . S
C138 O153 1.202 . S
C139 C137 1.363 . S
C139 C141 1.408 . S
C139 C144 1.342 . S
C140 C141 1.310 1_554 S
C140 C143 1.461 . S
C140 H160 0.932 . S
C141 C139 1.408 . S
C141 C140 1.310 1_556 S
C141 H161 0.930 . S
C142 C143 1.474 . S
C142 C144 1.285 1_554 S
C142 H162 0.929 . S
C143 C140 1.461 . S
C143 C142 1.474 . S
C144 C139 1.342 . S
C144 C142 1.285 1_556 S
C144 H163 0.930 . S
C145 C148 1.424 . S
C145 C150 1.245 . S
C145 C151 1.428 . S
C146 C149 1.260 . S
C146 C150 1.477 . S
C146 H164 0.932 . S
C147 C148 1.384 . S
C147 C149 1.479 . S
C147 H165 0.929 . S
C148 C145 1.424 . S
C148 C147 1.384 . S
C148 H166 0.928 . S
C149 C146 1.260 . S
C149 C147 1.479 . S
C150 C145 1.245 . S
C150 C146 1.477 . S
C150 H167 0.932 . S
C151 U134 2.882 . S
C151 C145 1.428 . S
C151 O154 1.301 . S
C151 O155 1.282 . S
O152 U134 2.441 . S
O152 C138 1.249 . S
O153 U134 2.420 . S
O153 C138 1.202 . S
O154 U134 2.455 . S
O154 C151 1.301 . S
O155 U134 2.449 . S
O155 C151 1.282 . S
H156 C129 0.931 . S
H157 C131 0.929 . S
H158 C132 0.930 . S
H159 C133 0.931 . S
H160 C140 0.932 . S
H161 C141 0.930 . S
H162 C142 0.929 . S
H163 C144 0.930 . S
H164 C146 0.932 . S
H165 C147 0.929 . S
H166 C148 0.928 . S
H167 C150 0.932 . S
C168 C169 1.264 . S
C168 C173 1.479 . S
C168 C178 1.465 . S
C169 C168 1.264 . S
C169 C171 1.339 1_565 S
C169 H196 0.931 . S
C170 C171 1.395 . S
C170 C172 1.320 . S
C171 C169 1.339 1_545 S
C171 C170 1.395 . S
C171 H197 0.929 . S
C172 C170 1.320 . S
C172 C173 1.405 1_545 S
C172 H198 0.930 . S
C173 C168 1.479 . S
C173 C172 1.405 1_565 S
C173 H199 0.931 . S
U174 O175 2.454 . S
U174 O176 2.458 . S
U174 C177 2.984 . S
U174 C178 2.847 . S
U174 C191 2.882 . S
U174 O192 2.441 . S
U174 O193 2.420 . S
U174 O194 2.455 . S
U174 O195 2.449 . S
O175 U174 2.454 . S
O175 C177 1.353 . S
O176 U174 2.458 . S
O176 C177 1.286 . S
C177 U174 2.984 . S
C177 O175 1.353 . S
C177 O176 1.286 . S
C177 C179 1.363 . S
C178 C168 1.465 . S
C178 U174 2.847 . S
C178 O192 1.249 . S
C178 O193 1.202 . S
C179 C177 1.363 . S
C179 C181 1.408 . S
C179 C184 1.342 . S
C180 C181 1.310 . S
C180 C183 1.461 . S
C180 H200 0.932 . S
C181 C179 1.408 . S
C181 C180 1.310 . S
C181 H201 0.930 . S
C182 C183 1.474 . S
C182 C184 1.285 . S
C182 H202 0.929 . S
C183 C180 1.461 . S
C183 C182 1.474 . S
C184 C179 1.342 . S
C184 C182 1.285 . S
C184 H203 0.930 . S
C185 C188 1.424 . S
C185 C190 1.245 . S
C185 C191 1.428 . S
C186 C189 1.260 . S
C186 C190 1.477 . S
C186 H204 0.932 . S
C187 C188 1.384 . S
C187 C189 1.479 . S
C187 H205 0.929 . S
C188 C185 1.424 . S
C188 C187 1.384 . S
C188 H206 0.928 . S
C189 C186 1.260 . S
C189 C187 1.479 . S
C190 C185 1.245 . S
C190 C186 1.477 . S
C190 H207 0.932 . S
C191 U174 2.882 . S
C191 C185 1.428 . S
C191 O194 1.301 . S
C191 O195 1.282 . S
O192 U174 2.441 . S
O192 C178 1.249 . S
O193 U174 2.420 . S
O193 C178 1.202 . S
O194 U174 2.455 . S
O194 C191 1.301 . S
O195 U174 2.449 . S
O195 C191 1.282 . S
H196 C169 0.931 . S
H197 C171 0.929 . S
H198 C172 0.930 . S
H199 C173 0.931 . S
H200 C180 0.932 . S
H201 C181 0.930 . S
H202 C182 0.929 . S
H203 C184 0.930 . S
H204 C186 0.932 . S
H205 C187 0.929 . S
H206 C188 0.928 . S
H207 C190 0.932 . S
C208 C209 1.264 . S
C208 C213 1.479 . S
C208 C218 1.465 . S
C209 C208 1.264 . S
C209 C211 1.339 . S
C209 H236 0.931 . S
C210 C211 1.395 . S
C210 C212 1.320 . S
C211 C209 1.339 . S
C211 C210 1.395 . S
C211 H237 0.929 . S
C212 C210 1.320 . S
C212 C213 1.405 . S
C212 H238 0.930 . S
C213 C208 1.479 . S
C213 C212 1.405 . S
C213 H239 0.931 . S
U214 O215 2.454 . S
U214 O216 2.458 . S
U214 C217 2.984 . S
U214 C218 2.847 . S
U214 C231 2.882 . S
U214 O232 2.441 . S
U214 O233 2.420 . S
U214 O234 2.455 . S
U214 O235 2.449 . S
O215 U214 2.454 . S
O215 C217 1.353 . S
O216 U214 2.458 . S
O216 C217 1.286 . S
C217 U214 2.984 . S
C217 O215 1.353 . S
C217 O216 1.286 . S
C217 C219 1.363 . S
C218 C208 1.465 . S
C218 U214 2.847 . S
C218 O232 1.249 . S
C218 O233 1.202 . S
C219 C217 1.363 . S
C219 C221 1.408 . S
C219 C224 1.342 . S
C220 C221 1.310 . S
C220 C223 1.461 . S
C220 H240 0.932 . S
C221 C219 1.408 . S
C221 C220 1.310 . S
C221 H241 0.930 . S
C222 C223 1.474 . S
C222 C224 1.285 . S
C222 H242 0.929 . S
C223 C220 1.461 . S
C223 C222 1.474 . S
C224 C219 1.342 . S
C224 C222 1.285 . S
C224 H243 0.930 . S
C225 C228 1.424 . S
C225 C230 1.245 . S
C225 C231 1.428 . S
C226 C229 1.260 . S
C226 C230 1.477 . S
C226 H244 0.932 . S
C227 C228 1.384 . S
C227 C229 1.479 . S
C227 H245 0.929 . S
C228 C225 1.424 . S
C228 C227 1.384 . S
C228 H246 0.928 . S
C229 C226 1.260 . S
C229 C227 1.479 . S
C230 C225 1.245 . S
C230 C226 1.477 . S
C230 H247 0.932 . S
C231 U214 2.882 . S
C231 C225 1.428 . S
C231 O234 1.301 . S
C231 O235 1.282 . S
O232 U214 2.441 . S
O232 C218 1.249 . S
O233 U214 2.420 . S
O233 C218 1.202 . S
O234 U214 2.455 . S
O234 C231 1.301 . S
O235 U214 2.449 . S
O235 C231 1.282 . S
H236 C209 0.931 . S
H237 C211 0.929 . S
H238 C212 0.930 . S
H239 C213 0.931 . S
H240 C220 0.932 . S
H241 C221 0.930 . S
H242 C222 0.929 . S
H243 C224 0.930 . S
H244 C226 0.932 . S
H245 C227 0.929 . S
H246 C228 0.928 . S
H247 C230 0.932 . S
C248 C249 1.264 . S
C248 C253 1.479 . S
C248 C258 1.465 . S
C249 C248 1.264 . S
C249 C251 1.339 . S
C249 H276 0.931 . S
C250 C251 1.395 . S
C250 C252 1.320 . S
C251 C249 1.339 . S
C251 C250 1.395 . S
C251 H277 0.929 . S
C252 C250 1.320 . S
C252 C253 1.405 . S
C252 H278 0.930 . S
C253 C248 1.479 . S
C253 C252 1.405 . S
C253 H279 0.931 . S
U254 O255 2.454 . S
U254 O256 2.458 . S
U254 C257 2.984 . S
U254 C258 2.847 . S
U254 C271 2.882 . S
U254 O272 2.441 . S
U254 O273 2.420 . S
U254 O274 2.455 . S
U254 O275 2.449 . S
O255 U254 2.454 . S
O255 C257 1.353 . S
O256 U254 2.458 . S
O256 C257 1.286 . S
C257 U254 2.984 . S
C257 O255 1.353 . S
C257 O256 1.286 . S
C257 C259 1.363 . S
C258 C248 1.465 . S
C258 U254 2.847 . S
C258 O272 1.249 . S
C258 O273 1.202 . S
C259 C257 1.363 . S
C259 C261 1.408 . S
C259 C264 1.342 . S
C260 C261 1.310 . S
C260 C263 1.461 . S
C260 H280 0.932 . S
C261 C259 1.408 . S
C261 C260 1.310 . S
C261 H281 0.930 . S
C262 C263 1.474 . S
C262 C264 1.285 . S
C262 H282 0.929 . S
C263 C260 1.461 . S
C263 C262 1.474 . S
C264 C259 1.342 . S
C264 C262 1.285 . S
C264 H283 0.930 . S
C265 C268 1.424 . S
C265 C270 1.245 . S
C265 C271 1.428 . S
C266 C269 1.260 . S
C266 C270 1.477 . S
C266 H284 0.932 . S
C267 C268 1.384 . S
C267 C269 1.479 . S
C267 H285 0.929 . S
C268 C265 1.424 . S
C268 C267 1.384 . S
C268 H286 0.928 . S
C269 C266 1.260 . S
C269 C267 1.479 . S
C270 C265 1.245 . S
C270 C266 1.477 . S
C270 H287 0.932 . S
C271 U254 2.882 . S
C271 C265 1.428 . S
C271 O274 1.301 . S
C271 O275 1.282 . S
O272 U254 2.441 . S
O272 C258 1.249 . S
O273 U254 2.420 . S
O273 C258 1.202 . S
O274 U254 2.455 . S
O274 C271 1.301 . S
O275 U254 2.449 . S
O275 C271 1.282 . S
H276 C249 0.931 . S
H277 C251 0.929 . S
H278 C252 0.930 . S
H279 C253 0.931 . S
H280 C260 0.932 . S
H281 C261 0.930 . S
H282 C262 0.929 . S
H283 C264 0.930 . S
H284 C266 0.932 . S
H285 C267 0.929 . S
H286 C268 0.928 . S
H287 C270 0.932 . S
C288 C289 1.264 . S
C288 C293 1.479 . S
C288 C298 1.465 . S
C289 C288 1.264 . S
C289 C291 1.339 1_556 S
C289 H316 0.931 . S
C290 C291 1.395 1_556 S
C290 C292 1.320 . S
C291 C289 1.339 1_554 S
C291 C290 1.395 1_554 S
C291 H317 0.929 . S
C292 C290 1.320 . S
C292 C293 1.405 . S
C292 H318 0.930 . S
C293 C288 1.479 . S
C293 C292 1.405 . S
C293 H319 0.931 . S
U294 O295 2.454 . S
U294 O296 2.458 . S
U294 C297 2.984 . S
U294 C298 2.847 . S
U294 C311 2.882 . S
U294 O312 2.441 . S
U294 O313 2.420 . S
U294 O314 2.455 . S
U294 O315 2.449 . S
O295 U294 2.454 . S
O295 C297 1.353 . S
O296 U294 2.458 . S
O296 C297 1.286 . S
C297 U294 2.984 . S
C297 O295 1.353 . S
C297 O296 1.286 . S
C297 C299 1.363 . S
C298 C288 1.465 . S
C298 U294 2.847 . S
C298 O312 1.249 . S
C298 O313 1.202 . S
C299 C297 1.363 . S
C299 C301 1.408 . S
C299 C304 1.342 . S
C300 C301 1.310 . S
C300 C303 1.461 . S
C300 H320 0.932 . S
C301 C299 1.408 . S
C301 C300 1.310 . S
C301 H321 0.930 . S
C302 C303 1.474 . S
C302 C304 1.285 . S
C302 H322 0.929 . S
C303 C300 1.461 . S
C303 C302 1.474 . S
C304 C299 1.342 . S
C304 C302 1.285 . S
C304 H323 0.930 . S
C305 C308 1.422 . S
C305 C310 1.245 . S
C305 C311 1.428 . S
C306 C309 1.260 1_556 S
C306 C310 1.477 1_565 S
C306 H324 0.932 . S
C307 C308 1.385 1_564 S
C307 C309 1.479 . S
C307 H325 0.929 . S
C308 C305 1.422 . S
C308 C307 1.385 1_546 S
C308 H326 0.929 1_556 S
C309 C306 1.260 1_554 S
C309 C307 1.479 . S
C310 C305 1.245 . S
C310 C306 1.477 1_545 S
C310 H327 0.932 . S
C311 U294 2.882 . S
C311 C305 1.428 . S
C311 O314 1.301 . S
C311 O315 1.282 . S
O312 U294 2.441 . S
O312 C298 1.249 . S
O313 U294 2.420 . S
O313 C298 1.202 . S
O314 U294 2.455 . S
O314 C311 1.301 . S
O315 U294 2.449 . S
O315 C311 1.282 . S
H316 C289 0.931 . S
H317 C291 0.929 . S
H318 C292 0.930 . S
H319 C293 0.931 . S
H320 C300 0.932 . S
H321 C301 0.930 . S
H322 C302 0.929 . S
H323 C304 0.930 . S
H324 C306 0.932 . S
H325 C307 0.929 . S
H326 C308 0.929 1_554 S
H327 C310 0.932 . S
C328 C329 1.264 . S
C328 C333 1.479 . S
C328 C338 1.465 . S
C329 C328 1.264 . S
C329 C331 1.339 . S
C329 H356 0.931 . S
C330 C331 1.395 . S
C330 C332 1.320 . S
C331 C329 1.339 . S
C331 C330 1.395 . S
C331 H357 0.929 . S
C332 C330 1.320 . S
C332 C333 1.405 . S
C332 H358 0.930 . S
C333 C328 1.479 . S
C333 C332 1.405 . S
C333 H359 0.931 . S
U334 O335 2.454 . S
U334 O336 2.458 . S
U334 C337 2.984 . S
U334 C338 2.847 . S
U334 C351 2.882 . S
U334 O352 2.441 . S
U334 O353 2.420 . S
U334 O354 2.455 . S
U334 O355 2.449 . S
O335 U334 2.454 . S
O335 C337 1.353 . S
O336 U334 2.458 . S
O336 C337 1.286 . S
C337 U334 2.984 . S
C337 O335 1.353 . S
C337 O336 1.286 . S
C337 C339 1.363 . S
C338 C328 1.465 . S
C338 U334 2.847 . S
C338 O352 1.249 . S
C338 O353 1.202 . S
C339 C337 1.363 . S
C339 C341 1.408 . S
C339 C344 1.342 . S
C340 C341 1.310 . S
C340 C343 1.461 . S
C340 H360 0.932 . S
C341 C339 1.408 . S
C341 C340 1.310 . S
C341 H361 0.930 . S
C342 C343 1.474 . S
C342 C344 1.285 . S
C342 H362 0.929 . S
C343 C340 1.461 . S
C343 C342 1.474 . S
C344 C339 1.342 . S
C344 C342 1.285 . S
C344 H363 0.930 . S
C345 C348 1.424 . S
C345 C350 1.245 . S
C345 C351 1.428 . S
C346 C349 1.260 . S
C346 C350 1.477 . S
C346 H364 0.932 . S
C347 C348 1.384 . S
C347 C349 1.479 . S
C347 H365 0.929 . S
C348 C345 1.424 . S
C348 C347 1.384 . S
C348 H366 0.928 . S
C349 C346 1.260 . S
C349 C347 1.479 . S
C350 C345 1.245 . S
C350 C346 1.477 . S
C350 H367 0.932 . S
C351 U334 2.882 . S
C351 C345 1.428 . S
C351 O354 1.301 . S
C351 O355 1.282 . S
O352 U334 2.441 . S
O352 C338 1.249 . S
O353 U334 2.420 . S
O353 C338 1.202 . S
O354 U334 2.455 . S
O354 C351 1.301 . S
O355 U334 2.449 . S
O355 C351 1.282 . S
H356 C329 0.931 . S
H357 C331 0.929 . S
H358 C332 0.930 . S
H359 C333 0.931 . S
H360 C340 0.932 . S
H361 C341 0.930 . S
H362 C342 0.929 . S
H363 C344 0.930 . S
H364 C346 0.932 . S
H365 C347 0.929 . S
H366 C348 0.928 . S
H367 C350 0.932 . S
C368 C369 1.264 1_565 S
C368 C373 1.479 1_565 S
C368 C378 1.465 . S
C369 C368 1.264 1_545 S
C369 C371 1.339 . S
C369 H396 0.925 1_545 S
C370 C371 1.395 . S
C370 C372 1.320 . S
C371 C369 1.339 . S
C371 C370 1.395 . S
C371 H397 0.929 . S
C372 C370 1.320 . S
C372 C373 1.405 . S
C372 H398 0.930 . S
C373 C368 1.479 1_545 S
C373 C372 1.405 . S
C373 H399 0.931 1_545 S
U374 O375 2.454 . S
U374 O376 2.458 . S
U374 C377 2.984 . S
U374 C378 2.847 . S
U374 C391 2.882 . S
U374 O392 2.441 . S
U374 O393 2.420 . S
U374 O394 2.455 . S
U374 O395 2.449 . S
O375 U374 2.454 . S
O375 C377 1.353 . S
O376 U374 2.458 . S
O376 C377 1.286 . S
C377 U374 2.984 . S
C377 O375 1.353 . S
C377 O376 1.286 . S
C377 C379 1.363 . S
C378 C368 1.465 . S
C378 U374 2.847 . S
C378 O392 1.249 . S
C378 O393 1.202 . S
C379 C377 1.363 . S
C379 C381 1.408 . S
C379 C384 1.342 . S
C380 C381 1.310 . S
C380 C383 1.461 . S
C380 H400 0.932 . S
C381 C379 1.408 . S
C381 C380 1.310 . S
C381 H401 0.930 . S
C382 C383 1.474 . S
C382 C384 1.285 . S
C382 H402 0.929 . S
C383 C380 1.461 . S
C383 C382 1.474 . S
C384 C379 1.342 . S
C384 C382 1.285 . S
C384 H403 0.930 . S
C385 C388 1.424 . S
C385 C390 1.245 . S
C385 C391 1.428 1_455 S
C386 C389 1.260 . S
C386 C390 1.477 . S
C386 H404 0.932 . S
C387 C388 1.384 . S
C387 C389 1.479 . S
C387 H405 0.929 . S
C388 C385 1.424 . S
C388 C387 1.384 . S
C388 H406 0.928 . S
C389 C386 1.260 . S
C389 C387 1.479 . S
C390 C385 1.245 . S
C390 C386 1.477 . S
C390 H407 0.932 . S
C391 U374 2.882 . S
C391 C385 1.428 1_655 S
C391 O394 1.301 . S
C391 O395 1.282 . S
O392 U374 2.441 . S
O392 C378 1.249 . S
O393 U374 2.420 . S
O393 C378 1.202 . S
O394 U374 2.455 . S
O394 C391 1.301 . S
O395 U374 2.449 . S
O395 C391 1.282 . S
H396 C369 0.925 1_565 S
H397 C371 0.929 . S
H398 C372 0.930 . S
H399 C373 0.931 1_565 S
H400 C380 0.932 . S
H401 C381 0.930 . S
H402 C382 0.929 . S
H403 C384 0.930 . S
H404 C386 0.932 . S
H405 C387 0.929 . S
H406 C388 0.928 . S
H407 C390 0.932 . S
C7 C109 2.774 . S
C37 C149 3.137 . S
C54 C170 3.389 . S
C229 C87 2.455 . S
C269 C30 2.615 . S
C51 C290 2.392 1_655 S
C84 C330 3.589 . S
C10 C389 3.020 . S
C59 C370 2.750 . S
C250 C74 3.081 . S
C309 C18 3.457 . S
C32 C349 2.273 . S
C130 C73 2.740 . S
C15 C189 2.399 1_455 S
C210 C43 3.751 . S
C90 C62 3.069 . S
C343 C21 2.989 . S
C383 C29 2.189 . S
C52 C263 2.090 . S
C303 C81 2.997 . S
C183 C40 2.850 . S
C65 C223 2.904 . S
C103 C76 2.145 . S
C143 C8 2.238 . S
