# Generated by pormake.
# Topology zzz, (3,6)-cn, num edge types: 1
# Building blocks:
#     Node 0, Type 0, BuildingBlock: WUSLED_clean_sbu_0, # of connection points: 3
#     Node 1, Type 0, BuildingBlock: WUSLED_clean_sbu_0, # of connection points: 3
#     Node 2, Type 0, BuildingBlock: WUSLED_clean_sbu_0, # of connection points: 3
#     Node 3, Type 0, BuildingBlock: WUSLED_clean_sbu_0, # of connection points: 3
#     Node 4, Type 0, BuildingBlock: WUSLED_clean_sbu_0, # of connection points: 3
#     Node 5, Type 0, BuildingBlock: WUSLED_clean_sbu_0, # of connection points: 3
#     Node 6, Type 0, BuildingBlock: WUSLED_clean_sbu_0, # of connection points: 3
#     Node 7, Type 0, BuildingBlock: WUSLED_clean_sbu_0, # of connection points: 3
#     Node 8, Type 1, BuildingBlock: PAMTOO_clean_sbu_0, # of connection points: 6
#     Node 9, Type 1, BuildingBlock: PAMTOO_clean_sbu_0, # of connection points: 6
#     Node 10, Type 1, BuildingBlock: PAMTOO_clean_sbu_0, # of connection points: 6
#     Node 11, Type 1, BuildingBlock: PAMTOO_clean_sbu_0, # of connection points: 6
#     Edge 12, Type (0, 1), BuildingBlock: TEMPAE_clean_linker_10, # of connection points: 2
#     Edge 13, Type (0, 1), BuildingBlock: TEMPAE_clean_linker_10, # of connection points: 2
#     Edge 14, Type (0, 1), BuildingBlock: TEMPAE_clean_linker_10, # of connection points: 2
#     Edge 15, Type (0, 1), BuildingBlock: TEMPAE_clean_linker_10, # of connection points: 2
#     Edge 16, Type (0, 1), BuildingBlock: TEMPAE_clean_linker_10, # of connection points: 2
#     Edge 17, Type (0, 1), BuildingBlock: TEMPAE_clean_linker_10, # of connection points: 2
#     Edge 18, Type (0, 1), BuildingBlock: TEMPAE_clean_linker_10, # of connection points: 2
#     Edge 19, Type (0, 1), BuildingBlock: TEMPAE_clean_linker_10, # of connection points: 2
#     Edge 20, Type (0, 1), BuildingBlock: TEMPAE_clean_linker_10, # of connection points: 2
#     Edge 21, Type (0, 1), BuildingBlock: TEMPAE_clean_linker_10, # of connection points: 2
#     Edge 22, Type (0, 1), BuildingBlock: TEMPAE_clean_linker_10, # of connection points: 2
#     Edge 23, Type (0, 1), BuildingBlock: TEMPAE_clean_linker_10, # of connection points: 2
#     Edge 24, Type (0, 1), BuildingBlock: TEMPAE_clean_linker_10, # of connection points: 2
#     Edge 25, Type (0, 1), BuildingBlock: TEMPAE_clean_linker_10, # of connection points: 2
#     Edge 26, Type (0, 1), BuildingBlock: TEMPAE_clean_linker_10, # of connection points: 2
#     Edge 27, Type (0, 1), BuildingBlock: TEMPAE_clean_linker_10, # of connection points: 2
#     Edge 28, Type (0, 1), BuildingBlock: TEMPAE_clean_linker_10, # of connection points: 2
#     Edge 29, Type (0, 1), BuildingBlock: TEMPAE_clean_linker_10, # of connection points: 2
#     Edge 30, Type (0, 1), BuildingBlock: TEMPAE_clean_linker_10, # of connection points: 2
#     Edge 31, Type (0, 1), BuildingBlock: TEMPAE_clean_linker_10, # of connection points: 2
#     Edge 32, Type (0, 1), BuildingBlock: TEMPAE_clean_linker_10, # of connection points: 2
#     Edge 33, Type (0, 1), BuildingBlock: TEMPAE_clean_linker_10, # of connection points: 2
#     Edge 34, Type (0, 1), BuildingBlock: TEMPAE_clean_linker_10, # of connection points: 2
#     Edge 35, Type (0, 1), BuildingBlock: TEMPAE_clean_linker_10, # of connection points: 2
# Relax obj value: 0.325
# Max RMSD: 0.266
# Mean RMSD: 0.212
data_MOF--net-zzz--node1-WUSLED_clean_sbu_0--node2-PAMTOO_clean_sbu_0--edge1-TEMPAE_clean_linker_10
_symmetry_space_group_name_H-M    P1
_symmetry_Int_Tables_number       1
_symmetry_cell_setting            triclinic
loop_
_symmetry_equiv_pos_as_xyz
'x, y, z'
_cell_length_a     69.700572
_cell_length_b     60.727917
_cell_length_c     22.647146
_cell_angle_alpha  91.061242
_cell_angle_beta   82.304118
_cell_angle_gamma 84.965678
loop_
_atom_site_label
_atom_site_type_symbol
_atom_site_fract_x
_atom_site_fract_y
_atom_site_fract_z
_atom_type_partial_charge
C0 C 0.80157 0.5268 0.50841 0.0
C1 C 0.81865 0.51893 0.47084 0.0
C2 C 0.83884 0.52654 0.54878 0.0
C3 C 0.83698 0.51888 0.49063 0.0
C4 C 0.82168 0.53488 0.58554 0.0
C5 C 0.80342 0.53504 0.5656 0.0
U6 U 0.75931 0.53326 0.40843 0.0
O7 O 0.73885 0.50859 0.39576 0.0
O8 O 0.72764 0.54157 0.4323 0.0
C9 C 0.72347 0.52279 0.40929 0.0
C10 C 0.78167 0.52454 0.49224 0.0
C11 C 0.70981 0.52439 0.36402 0.0
C12 C 0.67686 0.52364 0.33916 0.0
C13 C 0.68982 0.52367 0.38165 0.0
C14 C 0.70363 0.52565 0.26031 0.0
C15 C 0.68354 0.52439 0.27764 0.0
C16 C 0.71658 0.52564 0.30288 0.0
C17 C 0.79269 0.55743 0.28404 0.0
C18 C 0.81395 0.55763 0.19108 0.0
C19 C 0.82744 0.55326 0.28408 0.0
C20 C 0.80872 0.55512 0.31535 0.0
C21 C 0.83012 0.55305 0.22136 0.0
C22 C 0.79534 0.55994 0.22243 0.0
C23 C 0.77385 0.55172 0.31126 0.0
O24 O 0.7698 0.54265 0.49271 0.0
O25 O 0.78009 0.51056 0.44842 0.0
O26 O 0.77299 0.53031 0.31595 0.0
O27 O 0.76569 0.5633 0.35908 0.0
H28 H 0.81785 0.51243 0.42647 0.0
H29 H 0.8497 0.51274 0.46013 0.0
H30 H 0.82216 0.54065 0.63076 0.0
H31 H 0.79056 0.54101 0.59589 0.0
H32 H 0.66163 0.52243 0.3547 0.0
H33 H 0.68423 0.5227 0.42842 0.0
H34 H 0.70942 0.5267 0.21373 0.0
H35 H 0.73194 0.52636 0.28793 0.0
H36 H 0.81539 0.55729 0.14287 0.0
H37 H 0.83967 0.55021 0.30861 0.0
H38 H 0.80677 0.55293 0.3631 0.0
H39 H 0.78298 0.56144 0.1979 0.0
C40 C 1.00137 0.75796 0.48716 0.0
C41 C 0.00777 0.77446 0.44851 0.0
C42 C 1.00078 0.80246 0.5297 0.0
C43 C 0.0076 0.79638 0.46957 0.0
C44 C 0.99414 0.7858 0.56788 0.0
C45 C 0.9945 0.76387 0.54687 0.0
U46 U 1.00127 0.71551 0.36119 0.0
O47 O 0.01848 0.6835 0.33902 0.0
O48 O 0.98669 0.68492 0.35641 0.0
C49 C 1.00297 0.67278 0.33725 0.0
C50 C 1.00182 0.73463 0.46598 0.0
C51 C 1.00288 0.6589 0.28277 0.0
C52 C 0.00894 0.62275 0.23198 0.0
C53 C 0.00908 0.6363 0.28266 0.0
C54 C 0.9965 0.65426 0.18015 0.0
C55 C 1.00259 0.63148 0.17998 0.0
C56 C 0.99668 0.66783 0.23095 0.0
C57 C 0.99768 0.75597 0.22326 0.0
C58 C 0.99305 0.76156 0.12049 0.0
C59 C 1.00022 0.79207 0.18244 0.0
C60 C 1.00095 0.77815 0.23018 0.0
C61 C 0.99634 0.78387 0.12726 0.0
C62 C 0.99357 0.74765 0.1687 0.0
C63 C 0.99897 0.74146 0.27281 0.0
O64 O 0.98579 0.7289 0.44759 0.0
O65 O 0.01762 0.7268 0.4309 0.0
O66 O 0.01582 0.73412 0.28839 0.0
O67 O 0.98336 0.73504 0.30442 0.0
H68 H 0.01307 0.77037 0.40207 0.0
H69 H 0.01313 0.80846 0.43871 0.0
H70 H 0.98841 0.78969 0.61405 0.0
H71 H 0.98937 0.75147 0.57742 0.0
H72 H 0.01351 0.6053 0.23397 0.0
H73 H 0.01393 0.62907 0.32207 0.0
H74 H 0.99179 0.66168 0.14079 0.0
H75 H 0.99197 0.68529 0.22978 0.0
H76 H 0.9902 0.75494 0.07809 0.0
H77 H 1.00324 0.80913 0.18817 0.0
H78 H 1.00422 0.78463 0.27226 0.0
H79 H 0.99111 0.7304 0.16324 0.0
C80 C 0.72656 1.00169 0.3794 0.0
C81 C 0.71146 0.01605 0.36207 0.0
C82 C 0.68757 1.0016 0.43814 0.0
C83 C 0.69224 0.01599 0.39101 0.0
C84 C 0.70272 0.98694 0.45409 0.0
C85 C 0.72184 0.98706 0.42536 0.0
U86 U 0.77276 0.0027 0.25712 0.0
O87 O 0.79813 0.02189 0.25949 0.0
O88 O 0.80188 0.98567 0.25897 0.0
C89 C 0.81049 0.00409 0.25348 0.0
C90 C 0.74751 0.00282 0.35536 0.0
C91 C 0.82709 0.0042 0.20473 0.0
C92 C 0.85998 0.01372 0.17118 0.0
C93 C 0.84388 0.01382 0.21561 0.0
C94 C 0.84277 0.99449 0.10329 0.0
C95 C 0.85986 0.00385 0.11433 0.0
C96 C 0.82657 0.99474 0.1478 0.0
C97 C 0.74275 1.00055 0.12799 0.0
C98 C 0.72676 1.00048 0.04016 0.0
C99 C 0.70773 0.00368 0.13862 0.0
C100 C 0.72479 0.00247 0.16453 0.0
C101 C 0.70869 0.00297 0.07625 0.0
C102 C 0.74373 0.99932 0.06603 0.0
C103 C 0.76072 1.00097 0.15304 0.0
O104 O 0.75708 0.98473 0.32985 0.0
O105 O 0.75266 0.02093 0.3289 0.0
O106 O 0.7628 0.01962 0.18081 0.0
O107 O 0.76596 0.98321 0.18131 0.0
H108 H 0.71455 0.02766 0.32708 0.0
H109 H 0.68116 0.0277 0.37744 0.0
H110 H 0.69987 0.97526 0.48901 0.0
H111 H 0.73313 0.9759 0.44005 0.0
H112 H 0.8725 0.02161 0.18155 0.0
H113 H 0.84458 0.02139 0.25886 0.0
H114 H 0.84199 0.98652 0.06063 0.0
H115 H 0.81374 0.98733 0.13792 0.0
H116 H 0.72774 0.99966 0.99199 0.0
H117 H 0.69387 0.00582 0.1671 0.0
H118 H 0.72399 0.00352 0.21263 0.0
H119 H 0.75763 0.99787 0.03766 0.0
C120 C 0.55396 0.70245 0.30941 0.0
C121 C 0.56154 0.68175 0.28361 0.0
C122 C 0.55241 0.66389 0.37799 0.0
C123 C 0.56087 0.66266 0.31767 0.0
C124 C 0.54478 0.68476 0.40309 0.0
C125 C 0.54562 0.70375 0.36927 0.0
U126 U 0.55481 0.73162 0.16094 0.0
O127 O 0.53525 0.76028 0.14147 0.0
O128 O 0.56693 0.76233 0.1289 0.0
C129 C 0.54963 0.77255 0.12609 0.0
C130 C 0.55349 0.72273 0.27442 0.0
C131 C 0.5472 0.78904 0.07961 0.0
C132 C 0.53112 0.8243 0.05552 0.0
C133 C 0.53289 0.80671 0.0938 0.0
C134 C 0.55772 0.80671 0.9863 0.0
C135 C 0.54349 0.82471 1.00115 0.0
C136 C 0.55962 0.78907 0.02531 0.0
C137 C 0.56019 0.68651 0.02983 0.0
C138 C 0.54733 0.68349 0.93622 0.0
C139 C 0.56416 0.65145 0.97521 0.0
C140 C 0.56773 0.66436 0.02318 0.0
C141 C 0.55314 0.66061 0.93258 0.0
C142 C 0.55064 0.69634 0.98508 0.0
C143 C 0.55931 0.69696 0.08875 0.0
O144 O 0.56962 0.72649 0.24039 0.0
O145 O 0.53794 0.72655 0.24801 0.0
O146 O 0.54223 0.70589 0.11381 0.0
O147 O 0.57406 0.70752 0.10095 0.0
H148 H 0.56785 0.68032 0.23715 0.0
H149 H 0.56704 0.64699 0.29673 0.0
H150 H 0.5377 0.68644 0.4487 0.0
H151 H 0.53942 0.71951 0.38973 0.0
H152 H 0.52033 0.83795 0.06974 0.0
H153 H 0.52336 0.80729 0.13587 0.0
H154 H 0.56743 0.80625 0.94468 0.0
H155 H 0.57092 0.77571 0.01345 0.0
H156 H 0.53915 0.69113 0.9034 0.0
H157 H 0.56863 0.63391 0.97467 0.0
H158 H 0.575 0.65651 0.05781 0.0
H159 H 0.5447 0.71348 0.98978 0.0
C160 C 0.22107 0.47394 0.91034 0.0
C161 C 0.20429 0.47035 0.94932 0.0
C162 C 0.18405 0.47452 0.8685 0.0
C163 C 0.18604 0.47073 0.92891 0.0
C164 C 0.20112 0.47751 0.82943 0.0
C165 C 0.21925 0.47735 0.85014 0.0
U166 U 0.26118 0.46699 0.01893 0.0
O167 O 0.29271 0.45708 0.99858 0.0
O168 O 0.28245 0.49089 0.03029 0.0
C169 C 0.29741 0.47599 0.0192 0.0
C170 C 0.2405 0.47526 0.93056 0.0
C171 C 0.3108 0.47475 0.06523 0.0
C172 C 0.34303 0.47867 0.09275 0.0
C173 C 0.33041 0.47825 0.04941 0.0
C174 C 0.31672 0.47156 0.1689 0.0
C175 C 0.33641 0.4755 0.1534 0.0
C176 C 0.30408 0.47123 0.12542 0.0
C177 C 0.22624 0.44623 0.14715 0.0
C178 C 0.20792 0.43815 0.2411 0.0
C179 C 0.19216 0.45895 0.16762 0.0
C180 C 0.20948 0.45683 0.12892 0.0
C181 C 0.1917 0.45081 0.22526 0.0
C182 C 0.22518 0.43578 0.20186 0.0
C183 C 0.24524 0.45089 0.11802 0.0
O184 O 0.24165 0.48961 0.97388 0.0
O185 O 0.25132 0.45662 0.93455 0.0
O186 O 0.25306 0.43821 0.07185 0.0
O187 O 0.24696 0.47204 0.11035 0.0
H188 H 0.20519 0.46757 0.99564 0.0
H189 H 0.17345 0.46858 0.9611 0.0
H190 H 0.20062 0.47992 0.78243 0.0
H191 H 0.23193 0.48011 0.81886 0.0
H192 H 0.3579 0.48208 0.07865 0.0
H193 H 0.33592 0.4811 1.00342 0.0
H194 H 0.31103 0.46865 0.21467 0.0
H195 H 0.289 0.46846 0.13892 0.0
H196 H 0.20774 0.43186 0.28562 0.0
H197 H 0.17987 0.46911 0.15505 0.0
H198 H 0.21037 0.4657 0.08803 0.0
H199 H 0.23813 0.42777 0.21668 0.0
C200 C 0.02415 0.24709 0.93721 0.0
C201 C 0.03359 0.22895 0.96267 0.0
C202 C 0.02409 0.20376 0.88878 0.0
C203 C 0.03365 0.20753 0.93851 0.0
C204 C 0.01462 0.22201 0.86362 0.0
C205 C 0.01467 0.24343 0.88761 0.0
U206 U 0.0267 0.28367 0.07165 0.0
O207 O 0.03995 0.31493 0.0825 0.0
O208 O 0.00854 0.31355 0.10809 0.0
C209 C 0.02347 0.32542 0.10755 0.0
C210 C 0.02335 0.26964 0.96366 0.0
C211 C 0.02437 0.33917 0.16162 0.0
C212 C 0.03405 0.37283 0.20465 0.0
C213 C 0.03403 0.35849 0.15564 0.0
C214 C 0.01494 0.34862 0.26721 0.0
C215 C 0.02438 0.36821 0.26103 0.0
C216 C 0.01496 0.33421 0.21803 0.0
C217 C 0.03529 0.24715 0.20793 0.0
C218 C 0.02183 0.24822 0.31242 0.0
C219 C 0.04486 0.21778 0.27128 0.0
C220 C 0.04673 0.22771 0.21631 0.0
C221 C 0.03161 0.22731 0.31926 0.0
C222 C 0.02352 0.25803 0.2568 0.0
C223 C 0.03305 0.25256 0.14653 0.0
O224 O 0.00831 0.27509 0.00433 0.0
O225 O 0.03976 0.27554 0.97901 0.0
O226 O 0.04724 0.26172 0.11475 0.0
O227 O 0.01557 0.26018 0.13664 0.0
H228 H 0.04076 0.23132 1.00162 0.0
H229 H 0.04082 0.19385 0.95959 0.0
H230 H 0.00724 0.21974 0.8251 0.0
H231 H 0.00716 0.25716 0.86765 0.0
H232 H 0.04127 0.38785 0.19796 0.0
H233 H 0.04129 0.36272 0.11255 0.0
H234 H 0.00757 0.34439 0.31012 0.0
H235 H 0.00745 0.31937 0.22402 0.0
H236 H 0.01186 0.25627 0.34879 0.0
H237 H 0.05249 0.2016 0.27399 0.0
H238 H 0.05581 0.21908 0.17888 0.0
H239 H 0.01464 0.27319 0.25104 0.0
C240 C 0.29509 0.01015 0.04674 0.0
C241 C 0.30992 0.01631 0.07843 0.0
C242 C 0.33407 0.00992 0.98893 0.0
C243 C 0.32924 0.01597 0.04998 0.0
C244 C 0.31911 0.00382 0.95768 0.0
C245 C 0.29998 0.00385 0.98624 0.0
U246 U 0.24978 0.00995 0.17299 0.0
O247 O 0.22138 0.02932 0.17641 0.0
O248 O 0.22325 0.99319 0.16771 0.0
C249 C 0.21178 0.01161 0.17767 0.0
C250 C 0.27428 0.01092 0.0734 0.0
C251 C 0.19528 0.01116 0.22633 0.0
C252 C 0.16046 0.01037 0.25658 0.0
C253 C 0.17639 0.01083 0.21185 0.0
C254 C 0.18204 0.01054 0.33177 0.0
C255 C 0.16298 0.01018 0.31731 0.0
C256 C 0.19802 0.01099 0.28678 0.0
C257 C 0.28092 0.00542 0.29946 0.0
C258 C 0.298 0.00376 0.38511 0.0
C259 C 0.31595 0.00257 0.28519 0.0
C260 C 0.29854 0.00392 0.26135 0.0
C261 C 0.31577 1.00235 0.3473 0.0
C262 C 0.28065 0.00542 0.36119 0.0
C263 C 0.2626 0.00686 0.27592 0.0
O264 O 0.268 0.99261 0.09566 0.0
O265 O 0.26662 0.02874 0.10481 0.0
O266 O 0.25781 0.02588 0.25263 0.0
O267 O 0.25961 0.98955 0.24386 0.0
H268 H 0.30656 0.02169 0.12471 0.0
H269 H 0.34031 0.02096 0.07542 0.0
H270 H 0.32223 0.99883 0.91097 0.0
H271 H 0.28885 0.99914 0.96061 0.0
H272 H 0.14609 0.01046 0.24341 0.0
H273 H 0.17393 0.01099 0.16563 0.0
H274 H 0.18465 0.01015 0.37783 0.0
H275 H 0.2125 0.01114 0.29915 0.0
H276 H 0.2975 0.00322 0.43307 0.0
H277 H 0.3295 1.00172 0.25518 0.0
H278 H 0.29876 0.0037 0.21351 0.0
H279 H 0.26701 0.00649 0.39083 0.0
C280 C 0.46458 0.30182 0.12044 0.0
C281 C 0.45683 0.3226 0.14557 0.0
C282 C 0.46859 0.34055 0.05364 0.0
C283 C 0.45874 0.34178 0.11235 0.0
C284 C 0.47611 0.31963 0.02883 0.0
C285 C 0.47416 0.30055 0.06189 0.0
U286 U 0.46159 0.27283 0.26884 0.0
O287 O 0.44747 0.24316 0.3003 0.0
O288 O 0.47926 0.24333 0.29233 0.0
C289 C 0.46409 0.23219 0.30752 0.0
C290 C 0.46387 0.28145 0.15506 0.0
C291 C 0.46449 0.21736 0.35889 0.0
C292 C 0.45472 0.18304 0.40307 0.0
C293 C 0.45235 0.20003 0.36299 0.0
C294 C 0.48093 0.20087 0.43821 0.0
C295 C 0.46935 0.1829 0.44038 0.0
C296 C 0.47858 0.21787 0.39781 0.0
C297 C 0.45805 0.31749 0.39954 0.0
C298 C 0.4741 0.32099 0.48714 0.0
C299 C 0.45431 0.35227 0.45545 0.0
C300 C 0.44958 0.33923 0.40933 0.0
C301 C 0.46748 0.34361 0.49278 0.0
C302 C 0.46954 0.30801 0.44033 0.0
C303 C 0.45839 0.30766 0.34009 0.0
O304 O 0.47915 0.27642 0.18196 0.0
O305 O 0.44737 0.2787 0.18856 0.0
O306 O 0.44316 0.29806 0.32765 0.0
O307 O 0.47515 0.29793 0.31484 0.0
H308 H 0.44958 0.32403 0.19107 0.0
H309 H 0.45294 0.35761 0.13314 0.0
H310 H 0.48353 0.31795 0.98358 0.0
H311 H 0.48035 0.28473 0.04182 0.0
H312 H 0.44567 0.16945 0.40257 0.0
H313 H 0.44158 0.19901 0.33292 0.0
H314 H 0.49212 0.20159 0.46689 0.0
H315 H 0.48825 0.23094 0.39564 0.0
H316 H 0.48397 0.31379 0.51609 0.0
H317 H 0.44908 0.36964 0.45804 0.0
H318 H 0.4408 0.34682 0.37782 0.0
H319 H 0.47621 0.2912 0.43329 0.0
Dy320 Dy 0.99733 0.01332 0.66644 0.0
Dy321 Dy 0.02429 0.99362 0.76037 0.0
C322 C 0.04415 0.00699 0.63192 0.0
O323 O 0.99245 0.97717 0.6684 0.0
O324 O 0.02153 0.96533 0.69837 0.0
O325 O 0.98934 0.01537 0.57762 0.0
O326 O 0.97282 0.03544 0.65017 0.0
O327 O 0.99367 0.98653 0.79483 0.0
O328 O 0.97935 0.017 0.75669 0.0
O329 O 0.01878 0.02981 0.78407 0.0
O330 O 0.01318 0.04163 0.69253 0.0
O331 O 0.02972 0.99124 0.8517 0.0
O332 O 0.04908 0.97293 0.78127 0.0
C333 C 1.00607 0.96128 0.6743 0.0
O334 O 0.02704 0.00749 0.61331 0.0
O335 O 0.04609 0.00525 0.68863 0.0
C336 C 0.98163 0.05289 0.56202 0.0
C337 C 0.98934 0.09481 0.52129 0.0
C338 C 1.00371 0.08149 0.54477 0.0
C339 C 0.99994 0.06058 0.56444 0.0
C340 C 0.96735 0.06599 0.53746 0.0
C341 C 0.97129 0.08685 0.5164 0.0
C342 C 0.97705 0.03265 0.59259 0.0
C343 C 0.97887 1.00154 0.79629 0.0
C344 C 0.01715 0.04576 0.74629 0.0
C345 C 0.03957 0.95408 0.86687 0.0
C346 C 0.03229 0.91112 0.90009 0.0
C347 C 0.01677 0.92718 0.89681 0.0
C348 C 0.02038 0.94846 0.88014 0.0
C349 C 0.05511 0.93827 0.8718 0.0
C350 C 0.05149 0.91687 0.88864 0.0
C351 C 0.04322 0.97497 0.83834 0.0
H352 H 0.01779 0.08734 0.54814 0.0
H353 H 0.01118 0.05064 0.58308 0.0
H354 H 0.95309 0.06036 0.53605 0.0
H355 H 0.96011 0.09702 0.49806 0.0
H356 H 1.00184 0.92323 0.90669 0.0
H357 H 0.00811 0.96027 0.87582 0.0
H358 H 0.06998 0.94223 0.86045 0.0
H359 H 0.06365 0.90468 0.89097 0.0
Dy360 Dy 0.5061 0.98929 0.66141 0.0
Dy361 Dy 0.51673 0.01892 0.76998 0.0
C362 C 0.499 0.04289 0.66363 0.0
O363 O 0.53863 0.98613 0.64724 0.0
O364 O 0.54259 0.01781 0.69816 0.0
O365 O 0.50811 0.98336 0.56663 0.0
O366 O 0.49193 0.9625 0.62816 0.0
O367 O 0.52602 0.98403 0.79347 0.0
O368 O 0.51505 0.96314 0.72163 0.0
O369 O 0.48527 0.01619 0.79936 0.0
O370 O 0.47722 0.99677 0.71947 0.0
O371 O 0.51636 0.02566 0.86367 0.0
O372 O 0.53094 0.04656 0.79844 0.0
C373 C 0.5495 1.0017 0.65951 0.0
O374 O 0.50361 0.02443 0.63174 0.0
O375 O 0.49979 0.04349 0.72104 0.0
C376 C 0.47823 0.97323 0.54478 0.0
C377 C 0.44217 0.98147 0.50554 0.0
C378 C 0.45156 0.99908 0.52555 0.0
C379 C 0.46946 0.99497 0.54547 0.0
C380 C 0.46899 0.95567 0.52426 0.0
C381 C 0.451 0.95977 0.50457 0.0
C382 C 0.49553 0.96861 0.57328 0.0
C383 C 0.52307 0.96477 0.77035 0.0
C384 C 0.4725 0.00692 0.77199 0.0
C385 C 0.54635 0.03701 0.87995 0.0
C386 C 0.58283 0.02985 0.9173 0.0
C387 C 0.57302 0.0118 0.90227 0.0
C388 C 0.55497 0.01536 0.88313 0.0
C389 C 0.55595 0.05504 0.8956 0.0
C390 C 0.57417 0.05149 0.91411 0.0
C391 C 0.52847 0.04081 0.85389 0.0
H392 H 0.44479 0.0159 0.52741 0.0
H393 H 0.47616 0.00868 0.56299 0.0
H394 H 0.47543 0.93879 0.52502 0.0
H395 H 0.44393 0.946 0.48899 0.0
H396 H 0.5793 0.99495 0.90519 0.0
H397 H 0.54791 1.00121 0.87004 0.0
H398 H 0.54959 0.07181 0.89199 0.0
H399 H 0.58163 0.06566 0.92472 0.0
Dy400 Dy 0.53011 0.50404 0.75505 0.0
Dy401 Dy 0.49041 0.49998 0.67454 0.0
C402 C 0.49713 0.47098 0.79558 0.0
O403 O 0.53453 0.4711 0.70768 0.0
O404 O 0.5199 0.48637 0.63431 0.0
O405 O 0.55892 0.4953 0.77969 0.0
O406 O 0.54132 0.52473 0.81913 0.0
O407 O 0.50436 0.52891 0.63654 0.0
O408 O 0.53421 0.52525 0.67331 0.0
O409 O 0.48515 0.5326 0.72388 0.0
O410 O 0.50091 0.51835 0.79682 0.0
O411 O 0.45989 0.50144 0.65977 0.0
O412 O 0.48306 0.48627 0.59279 0.0
C413 C 0.5283 0.46897 0.65614 0.0
O414 O 0.51267 0.48032 0.80732 0.0
O415 O 0.48781 0.47573 0.74938 0.0
C416 C 0.56948 0.51257 0.86589 0.0
C417 C 0.59248 0.51528 0.96055 0.0
C418 C 0.57407 0.50682 0.9699 0.0
C419 C 0.56265 0.50553 0.92309 0.0
C420 C 0.58781 0.52072 0.85646 0.0
C421 C 0.59914 0.52202 0.90278 0.0
C422 C 0.55797 0.51273 0.8151 0.0
C423 C 0.52215 0.53449 0.63824 0.0
C424 C 0.49203 0.53535 0.77435 0.0
C425 C 0.45121 0.49202 0.56151 0.0
C426 C 0.42687 0.48877 0.47054 0.0
C427 C 0.44466 0.49845 0.45947 0.0
C428 C 0.45674 0.49994 0.50431 0.0
C429 C 0.43336 0.48278 0.57287 0.0
C430 C 0.42138 0.48115 0.52819 0.0
C431 C 0.46438 0.49082 0.60823 0.0
H432 H 0.56827 0.50161 0.01365 0.0
H433 H 0.5485 0.49926 0.9317 0.0
H434 H 0.59339 0.52631 0.81285 0.0
H435 H 0.61329 0.52818 0.89286 0.0
H436 H 0.44953 0.50431 0.41562 0.0
H437 H 0.47054 0.50688 0.49393 0.0
H438 H 0.42884 0.47628 0.61627 0.0
H439 H 0.40776 0.47388 0.53902 0.0
Dy440 Dy 0.01753 0.52402 0.67383 0.0
Dy441 Dy 1.00493 0.48247 0.75514 0.0
C442 C 0.01958 0.4734 0.61652 0.0
O443 O 0.9857 0.52666 0.66916 0.0
O444 O 0.97707 0.4968 0.72415 0.0
O445 O 0.01555 0.54464 0.59787 0.0
O446 O 0.03714 0.54943 0.65586 0.0
O447 O 1.00558 0.5112 0.81882 0.0
O448 O 1.00474 0.5413 0.7592 0.0
O449 O 0.03739 0.47653 0.74201 0.0
O450 O 0.04337 0.51209 0.71898 0.0
O451 O 1.00581 0.46462 0.83642 0.0
O452 O 0.98711 0.45539 0.77291 0.0
C453 C 0.9727 0.51354 0.69076 0.0
O454 O 0.02152 0.49461 0.60999 0.0
O455 O 0.01452 0.46495 0.66841 0.0
C456 C 0.04742 0.54852 0.55413 0.0
C457 C 0.08182 0.53237 0.48354 0.0
C458 C 0.06527 0.52084 0.48488 0.0
C459 C 0.04815 0.52888 0.51974 0.0
C460 C 0.06361 0.56086 0.54951 0.0
C461 C 0.0808 0.55285 0.51385 0.0
C462 C 0.03178 0.55303 0.60373 0.0
C463 C 1.00379 0.53268 0.81201 0.0
C464 C 0.04917 0.49228 0.73582 0.0
C465 C 0.97352 0.46138 0.87109 0.0
C466 C 0.94218 0.4772 0.95471 0.0
C467 C 0.95057 0.49148 0.91323 0.0
C468 C 0.96606 0.48361 0.87165 0.0
C469 C 0.96485 0.44677 0.91126 0.0
C470 C 0.94901 0.4547 0.95309 0.0
C471 C 0.99051 0.45467 0.82805 0.0
H472 H 0.06587 0.50508 0.46107 0.0
H473 H 0.03594 0.51893 0.52262 0.0
H474 H 0.06336 0.57583 0.57648 0.0
H475 H 0.09358 0.56187 0.51291 0.0
H476 H 0.94525 0.50882 0.91346 0.0
H477 H 0.97242 0.49505 0.84041 0.0
H478 H 0.97042 0.42955 0.91074 0.0
H479 H 0.94245 0.44355 0.98499 0.0
C480 C 0.14438 0.02194 0.41858 0.0
C481 C 0.14575 0.00958 0.36482 0.0
C482 C 0.12804 0.02183 0.46273 0.0
C483 C 0.11261 0.00897 0.45348 0.0
C484 C 0.11396 0.99634 0.39957 0.0
C485 C 0.1304 0.99682 0.35612 0.0
C486 C 0.12717 0.03573 0.51913 0.0
C487 C 0.09805 0.98219 0.3878 0.0
C488 C 0.07845 0.99357 0.5904 0.0
C489 C 0.06176 0.00794 0.58729 0.0
C490 C 0.09493 0.99348 0.54679 0.0
C491 C 0.09507 0.00874 0.50005 0.0
C492 C 0.07835 0.02366 0.49766 0.0
C493 C 0.06179 0.02277 0.54052 0.0
C494 C 0.11207 0.97679 0.55025 0.0
C495 C 0.07799 0.04065 0.44994 0.0
H496 H 0.15593 0.03209 0.42577 0.0
H497 H 0.13133 0.98691 0.31539 0.0
H498 H 0.11402 0.04768 0.52427 0.0
H499 H 0.12597 0.02506 0.55842 0.0
H500 H 0.14018 0.04504 0.51945 0.0
H501 H 0.10142 0.973 0.34423 0.0
H502 H 0.09575 0.97011 0.42365 0.0
H503 H 0.08417 0.99267 0.38822 0.0
H504 H 0.07839 0.9819 0.62607 0.0
H505 H 0.04894 0.03398 0.5381 0.0
H506 H 0.12522 0.9854 0.55465 0.0
H507 H 0.11519 0.9665 0.50847 0.0
H508 H 0.10952 0.96571 0.58845 0.0
H509 H 0.09039 0.05091 0.45052 0.0
H510 H 0.06427 0.05173 0.45579 0.0
H511 H 0.07968 0.03228 0.40537 0.0
C512 C 0.49232 0.15534 0.48434 0.0
C513 C 0.47318 0.16343 0.47835 0.0
C514 C 0.49624 0.1362 0.51645 0.0
C515 C 0.48069 0.12463 0.54314 0.0
C516 C 0.46134 0.13286 0.53821 0.0
C517 C 0.45782 0.15212 0.50615 0.0
C518 C 0.5171 0.12809 0.52072 0.0
C519 C 0.44432 0.1211 0.56605 0.0
C520 C 0.49189 0.06342 0.57239 0.0
C521 C 0.49356 0.06374 0.63349 0.0
C522 C 0.4875 0.08302 0.54276 0.0
C523 C 0.48474 0.10359 0.57474 0.0
C524 C 0.48618 0.10403 0.63657 0.0
C525 C 0.49054 0.08416 0.66516 0.0
C526 C 0.48597 0.08171 0.47694 0.0
C527 C 0.48334 0.12556 0.67241 0.0
H528 H 0.50436 0.16359 0.46241 0.0
H529 H 0.44296 0.1583 0.50274 0.0
H530 H 0.51924 0.12633 0.56812 0.0
H531 H 0.5206 0.1115 0.49858 0.0
H532 H 0.52751 0.13941 0.49966 0.0
H533 H 0.43013 0.12981 0.55927 0.0
H534 H 0.44527 0.10407 0.54657 0.0
H535 H 0.44475 0.1196 0.61461 0.0
H536 H 0.49412 0.04781 0.54738 0.0
H537 H 0.4918 0.0847 0.71233 0.0
H538 H 0.49696 0.09148 0.45213 0.0
H539 H 0.47146 0.08901 0.46867 0.0
H540 H 0.48821 0.06443 0.45866 0.0
H541 H 0.49431 0.13671 0.65416 0.0
H542 H 0.48461 0.12311 0.72027 0.0
H543 H 0.46881 0.13408 0.66891 0.0
C544 C 0.36972 0.46907 0.1871 0.0
C545 C 0.3499 0.4767 0.2 0.0
C546 C 0.38261 0.47062 0.22972 0.0
C547 C 0.37568 0.47994 0.2873 0.0
C548 C 0.3557 0.48748 0.30093 0.0
C549 C 0.34314 0.48585 0.25735 0.0
C550 C 0.40372 0.46225 0.21298 0.0
C551 C 0.3476 0.49753 0.36158 0.0
C552 C 0.40436 0.4672 0.41762 0.0
C553 C 0.41414 0.48633 0.42245 0.0
C554 C 0.39205 0.4648 0.37371 0.0
C555 C 0.38926 0.48195 0.33321 0.0
C556 C 0.3992 0.50121 0.33743 0.0
C557 C 0.41151 0.50314 0.38164 0.0
C558 C 0.38198 0.44387 0.3708 0.0
C559 C 0.39669 0.51994 0.29546 0.0
H560 H 0.3752 0.46161 0.14362 0.0
H561 H 0.32803 0.49219 0.26808 0.0
H562 H 0.41304 0.47594 0.21712 0.0
H563 H 0.4079 0.44933 0.24404 0.0
H564 H 0.40683 0.45522 0.1667 0.0
H565 H 0.33171 0.50232 0.36569 0.0
H566 H 0.35036 0.48561 0.39668 0.0
H567 H 0.35506 0.51242 0.3703 0.0
H568 H 0.40647 0.45389 0.44795 0.0
H569 H 0.41877 0.51808 0.38499 0.0
H570 H 0.38598 0.43568 0.32611 0.0
H571 H 0.36599 0.4479 0.37733 0.0
H572 H 0.38578 0.43198 0.40502 0.0
H573 H 0.40154 0.51395 0.24883 0.0
H574 H 0.40507 0.53401 0.30517 0.0
H575 H 0.3811 0.52603 0.29854 0.0
C576 C 0.04068 0.39431 0.32159 0.0
C577 C 0.02401 0.38395 0.31277 0.0
C578 C 0.04054 0.40933 0.36969 0.0
C579 C 0.02328 0.41422 0.41011 0.0
C580 C 1.00634 0.40399 0.40123 0.0
C581 C 1.00692 0.38895 0.35288 0.0
C582 C 0.05895 0.41973 0.37772 0.0
C583 C 0.98755 0.40904 0.44269 0.0
C584 C 0.02622 0.43565 0.56748 0.0
C585 C 0.02193 0.45851 0.5628 0.0
C586 C 0.02709 0.42115 0.51789 0.0
C587 C 0.02308 0.42961 0.46251 0.0
C588 C 0.01869 0.45268 0.45756 0.0
C589 C 0.01844 0.46687 0.50751 0.0
C590 C 0.03216 0.39674 0.52489 0.0
C591 C 0.01391 0.46236 0.39979 0.0
H592 H 0.05401 0.39041 0.2913 0.0
H593 H 0.99387 0.38136 0.34594 0.0
H594 H 0.05636 0.43801 0.37742 0.0
H595 H 0.06339 0.4154 0.42163 0.0
H596 H 0.07114 0.41428 0.34226 0.0
H597 H 0.97552 0.40021 0.42876 0.0
H598 H 0.98962 0.40425 0.4886 0.0
H599 H 0.98319 0.42708 0.44433 0.0
H600 H 0.02892 0.42906 0.61006 0.0
H601 H 0.01483 0.48447 0.50375 0.0
H602 H 0.04488 0.39075 0.49192 0.0
H603 H 0.01985 0.38736 0.51585 0.0
H604 H 0.03559 0.3929 0.57029 0.0
H605 H 0.0269 0.45999 0.36543 0.0
H606 H 0.00912 0.48032 0.40474 0.0
H607 H 1.00225 0.45369 0.38308 0.0
C608 C 0.87565 0.00467 0.00647 0.0
C609 C 0.8775 0.00323 0.06745 0.0
C610 C 0.8921 0.00405 0.96244 0.0
C611 C 0.91105 1.00227 0.97924 0.0
C612 C 0.91305 1.00096 0.04057 0.0
C613 C 0.89639 1.00123 0.08356 0.0
C614 C 0.88918 0.00528 0.89769 0.0
C615 C 0.93286 0.99943 0.061 0.0
C616 C 0.95505 0.98168 0.86502 0.0
C617 C 0.96175 1.00154 0.84359 0.0
C618 C 0.93845 0.98166 0.90831 0.0
C619 C 0.92871 1.00198 0.93276 0.0
C620 C 0.93582 0.02207 0.91234 0.0
C621 C 0.95195 0.0216 0.86732 0.0
C622 C 0.93111 0.95986 0.92711 0.0
C623 C 0.92647 0.04412 0.93836 0.0
H624 H 0.86129 0.00658 0.99291 0.0
H625 H 0.89826 0.99964 0.13004 0.0
H626 H 0.89523 0.02024 0.87818 0.0
H627 H 0.89716 0.99073 0.87222 0.0
H628 H 0.8736 0.00584 0.89155 0.0
H629 H 0.93199 0.99908 0.11031 0.0
H630 H 0.94163 0.98427 0.04154 0.0
H631 H 0.94073 0.01377 0.04502 0.0
H632 H 0.96248 0.96612 0.84668 0.0
H633 H 0.95716 0.03703 0.85146 0.0
H634 H 0.91577 0.95954 0.91907 0.0
H635 H 0.93139 0.95788 0.97557 0.0
H636 H 0.93989 0.94555 0.90268 0.0
H637 H 0.91126 0.0466 0.92878 0.0
H638 H 0.93438 0.05815 0.92022 0.0
H639 H 0.92599 0.04444 0.98756 0.0
C640 C 0.55807 0.85248 0.92997 0.0
C641 C 0.54162 0.84419 0.96171 0.0
C642 C 0.55638 0.87171 0.89628 0.0
C643 C 0.53786 0.88319 0.89478 0.0
C644 C 0.5212 0.87472 0.92575 0.0
C645 C 0.52326 0.85531 0.95808 0.0
C646 C 0.57448 0.87995 0.86305 0.0
C647 C 0.50115 0.88634 0.92545 0.0
C648 C 0.53281 0.94457 0.85948 0.0
C649 C 0.5284 0.94398 0.80085 0.0
C650 C 0.53638 0.92494 0.89004 0.0
C651 C 0.53573 0.90413 0.86124 0.0
C652 C 0.53191 0.90342 0.8014 0.0
C653 C 0.52821 0.92327 0.77212 0.0
C654 C 0.54027 0.9265 0.95388 0.0
C655 C 0.53132 0.88165 0.76863 0.0
H656 H 0.57236 0.8443 0.9326 0.0
H657 H 0.51034 0.84889 0.98086 0.0
H658 H 0.5728 0.88192 0.81535 0.0
H659 H 0.57667 0.89646 0.88138 0.0
H660 H 0.58767 0.86859 0.86608 0.0
H661 H 0.48967 0.87771 0.95204 0.0
H662 H 0.50063 0.90348 0.94384 0.0
H663 H 0.49778 0.8875 0.87905 0.0
H664 H 0.53296 0.9604 0.88222 0.0
H665 H 0.52497 0.92252 0.72668 0.0
H666 H 0.55412 0.91674 0.95905 0.0
H667 H 0.52853 0.91935 0.9834 0.0
H668 H 0.54109 0.94384 0.96917 0.0
H669 H 0.54504 0.87105 0.77004 0.0
H670 H 0.52917 0.88386 0.7213 0.0
H671 H 0.51931 0.87266 0.79085 0.0
C672 C 0.67546 0.51215 0.17682 0.0
C673 C 0.66971 0.52348 0.23198 0.0
C674 C 0.66265 0.511 0.13384 0.0
C675 C 0.64341 0.52127 0.14587 0.0
C676 C 0.63745 0.53268 0.20141 0.0
C677 C 0.6506 0.53368 0.24348 0.0
C678 C 0.66974 0.4987 0.07537 0.0
C679 C 0.61714 0.54391 0.21644 0.0
C680 C 0.61642 0.53498 0.01261 0.0
C681 C 0.60482 0.51722 0.01004 0.0
C682 C 0.62881 0.5366 0.05658 0.0
C683 C 0.62966 0.5202 0.10009 0.0
C684 C 0.61771 0.50249 0.09877 0.0
C685 C 0.60552 0.50119 0.05394 0.0
C686 C 0.64116 0.55583 0.05606 0.0
C687 C 0.61802 0.48468 0.14432 0.0
H688 H 0.68997 0.50381 0.16736 0.0
H689 H 0.64592 0.54278 0.28526 0.0
H690 H 0.66046 0.48512 0.06924 0.0
H691 H 0.66856 0.51002 0.03787 0.0
H692 H 0.68507 0.49156 0.07267 0.0
H693 H 0.61468 0.55203 0.26151 0.0
H694 H 0.6144 0.55657 0.18314 0.0
H695 H 0.60633 0.53164 0.21441 0.0
H696 H 0.6158 0.54783 0.98018 0.0
H697 H 0.59687 0.48726 0.05255 0.0
H698 H 0.65677 0.54965 0.05093 0.0
H699 H 0.63783 0.5653 0.09911 0.0
H700 H 0.63882 0.56726 0.01943 0.0
H701 H 0.63284 0.47605 0.14118 0.0
H702 H 0.60759 0.47227 0.13828 0.0
H703 H 0.6144 0.4922 0.18993 0.0
C704 C 0.98682 0.61943 0.09208 0.0
C705 C 1.00226 0.61684 0.12613 0.0
C706 C 0.98628 0.60573 0.04158 0.0
C707 C 1.00158 0.58899 0.02418 0.0
C708 C 0.01716 0.58618 0.05844 0.0
C709 C 0.01731 0.60008 0.10884 0.0
C710 C 0.96928 0.60913 0.00685 0.0
C711 C 0.03385 0.56869 0.04134 0.0
C712 C 0.99402 0.5407 0.92164 0.0
C713 C 1.00217 0.54756 0.8657 0.0
C714 C 0.99335 0.55417 0.97333 0.0
C715 C 1.00152 0.57477 0.96939 0.0
C716 C 0.00984 0.58171 0.91297 0.0
C717 C 0.00983 0.56818 0.86182 0.0
C718 C 0.98401 0.54627 0.03221 0.0
C719 C 0.01913 0.60324 0.9068 0.0
H720 H 0.97495 0.63203 0.1054 0.0
H721 H 0.02944 0.59804 0.13418 0.0
H722 H 0.97446 0.61343 0.96039 0.0
H723 H 0.96214 0.59357 0.00462 0.0
H724 H 0.95829 0.62247 0.02695 0.0
H725 H 0.04463 0.56823 0.07338 0.0
H726 H 0.02834 0.55215 0.03905 0.0
H727 H 0.04137 0.57186 0.99636 0.0
H728 H 0.98807 0.5248 0.92498 0.0
H729 H 0.01642 0.57345 0.81892 0.0
H730 H 0.97252 0.55891 0.05307 0.0
H731 H 0.99501 0.54392 0.06324 0.0
H732 H 0.97745 0.53042 0.02729 0.0
H733 H 0.00834 0.61724 0.92345 0.0
H734 H 0.02505 0.60624 0.85991 0.0
H735 H 0.03114 0.60316 0.93442 0.0
C736 C 0.03888 0.1972 0.38919 0.0
C737 C 0.02558 0.21348 0.37071 0.0
C738 C 0.03243 0.17948 0.42264 0.0
C739 C 0.01228 0.17871 0.44047 0.0
C740 C 0.99903 0.19655 0.42894 0.0
C741 C 1.00579 0.2136 0.39332 0.0
C742 C 0.04698 0.16054 0.43333 0.0
C743 C 0.9775 0.19662 0.4494 0.0
C744 C 0.99426 0.12185 0.44161 0.0
C745 C 0.99345 0.11697 0.50181 0.0
C746 C 1.0002 0.14209 0.42123 0.0
C747 C 1.00491 0.15788 0.46262 0.0
C748 C 1.00332 0.15331 0.52399 0.0
C749 C 0.99789 0.13265 0.54281 0.0
C750 C 1.00212 0.14622 0.35519 0.0
C751 C 0.0078 0.16994 0.56941 0.0
H752 H 0.05426 0.19736 0.37361 0.0
H753 H 0.99527 0.22597 0.3795 0.0
H754 H 0.04463 0.15554 0.48038 0.0
H755 H 0.04498 0.14601 0.40506 0.0
H756 H 0.06222 0.16475 0.42246 0.0
H757 H 0.96975 0.21329 0.44673 0.0
H758 H 0.9712 0.18492 0.42082 0.0
H759 H 0.9748 0.19108 0.49596 0.0
H760 H 0.99097 0.10946 0.41026 0.0
H761 H 0.99722 0.12863 0.58947 0.0
H762 H 0.01735 0.14922 0.33842 0.0
H763 H 0.99274 0.16123 0.3468 0.0
H764 H 0.99804 0.13209 0.32911 0.0
H765 H 0.0237 0.1713 0.56442 0.0
H766 H 1.00298 0.16517 0.61579 0.0
H767 H 1.00068 0.18656 0.56217 0.0
C768 C 0.34936 0.98512 0.3468 0.0
C769 C 0.33405 1.00014 0.3728 0.0
C770 C 0.36674 0.98262 0.37094 0.0
C771 C 0.36854 0.9952 0.42268 0.0
C772 C 0.3531 0.01019 0.44964 0.0
C773 C 0.33601 0.01267 0.42386 0.0
C774 C 0.38315 0.96659 0.34113 0.0
C775 C 0.3547 0.02364 0.50529 0.0
C776 C 0.40806 0.97281 0.50811 0.0
C777 C 0.423 0.98572 0.48666 0.0
C778 C 0.38987 0.97624 0.48909 0.0
C779 C 0.38684 0.99287 0.44771 0.0
C780 C 0.40169 0.00637 0.42717 0.0
C781 C 0.41972 0.00261 0.44706 0.0
C782 C 0.3741 0.96178 0.51206 0.0
C783 C 0.39874 0.02421 0.38274 0.0
H784 H 0.34767 0.97514 0.30796 0.0
H785 H 0.32421 0.02449 0.44344 0.0
H786 H 0.39628 0.97543 0.32814 0.0
H787 H 0.38704 0.95374 0.37276 0.0
H788 H 0.37936 0.95828 0.30071 0.0
H789 H 0.34091 0.03372 0.52222 0.0
H790 H 0.35873 0.01258 0.54096 0.0
H791 H 0.36638 0.03488 0.49596 0.0
H792 H 0.41066 0.96003 0.53965 0.0
H793 H 0.43142 0.01247 0.43051 0.0
H794 H 0.37046 0.95151 0.47481 0.0
H795 H 0.36066 0.97215 0.53056 0.0
H796 H 0.3785 0.95062 0.54717 0.0
H797 H 0.3961 0.01659 0.33998 0.0
H798 H 0.41149 0.03401 0.37393 0.0
H799 H 0.38574 0.03562 0.39918 0.0
C800 C 0.49715 0.35638 0.52738 0.0
C801 C 0.47688 0.35893 0.52899 0.0
C802 C 0.50695 0.37263 0.55195 0.0
C803 C 0.49623 0.39195 0.57831 0.0
C804 C 0.47571 0.39434 0.58232 0.0
C805 C 0.46624 0.37768 0.55779 0.0
C806 C 0.52888 0.36978 0.54614 0.0
C807 C 0.46388 0.41491 0.60997 0.0
C808 C 0.51962 0.4305 0.6744 0.0
C809 C 0.52376 0.44738 0.63459 0.0
C810 C 0.51093 0.412 0.65631 0.0
C811 C 0.50659 0.41045 0.59722 0.0
C812 C 0.51166 0.42693 0.55619 0.0
C813 C 0.52017 0.44523 0.57551 0.0
C814 C 0.50568 0.39456 0.70077 0.0
C815 C 0.50722 0.42586 0.49272 0.0
H816 H 0.50556 0.34226 0.5038 0.0
H817 H 0.45057 0.37969 0.55933 0.0
H818 H 0.53503 0.38211 0.51516 0.0
H819 H 0.53383 0.37281 0.58989 0.0
H820 H 0.5349 0.35299 0.52896 0.0
H821 H 0.44799 0.41352 0.61324 0.0
H822 H 0.46758 0.41828 0.65523 0.0
H823 H 0.46741 0.42941 0.58278 0.0
H824 H 0.52209 0.43232 0.72041 0.0
H825 H 0.52327 0.45841 0.54496 0.0
H826 H 0.50942 0.39857 0.74565 0.0
H827 H 0.51337 0.37833 0.68492 0.0
H828 H 0.48988 0.39268 0.70454 0.0
H829 H 0.51234 0.40939 0.47162 0.0
H830 H 0.51407 0.43872 0.46501 0.0
H831 H 0.49126 0.42832 0.49256 0.0
C832 C 0.18142 0.47239 0.319 0.0
C833 C 0.17632 0.46003 0.27157 0.0
C834 C 0.1672 0.48487 0.35796 0.0
C835 C 0.14755 0.48463 0.34918 0.0
C836 C 0.14227 0.47157 0.30257 0.0
C837 C 0.15684 0.45949 0.26375 0.0
C838 C 0.17319 0.49886 0.40704 0.0
C839 C 0.12132 0.47085 0.29278 0.0
C840 C 0.10697 0.50094 0.47229 0.0
C841 C 0.10033 0.52183 0.4542 0.0
C842 C 0.12306 0.48899 0.4399 0.0
C843 C 0.13242 0.49825 0.38829 0.0
C844 C 0.12642 0.51988 0.37178 0.0
C845 C 0.11032 0.53155 0.40541 0.0
C846 C 0.12936 0.46606 0.45898 0.0
C847 C 0.13629 0.53019 0.317 0.0
H848 H 0.19662 0.47318 0.32377 0.0
H849 H 0.15311 0.45009 0.22639 0.0
H850 H 0.16846 0.51654 0.40143 0.0
H851 H 0.16594 0.49415 0.45101 0.0
H852 H 0.18917 0.49715 0.4076 0.0
H853 H 0.11972 0.45937 0.25533 0.0
H854 H 0.11261 0.46553 0.33383 0.0
H855 H 0.1151 0.48763 0.28305 0.0
H856 H 0.09914 0.49371 0.51073 0.0
H857 H 0.10497 0.54775 0.392 0.0
H858 H 0.14524 0.46425 0.46088 0.0
H859 H 0.12636 0.45362 0.4257 0.0
H860 H 0.12168 0.46223 0.50328 0.0
H861 H 0.15226 0.52898 0.31721 0.0
H862 H 0.13097 0.54786 0.31372 0.0
H863 H 0.13355 0.52106 0.27652 0.0
C864 C 0.00998 0.79262 0.0244 0.0
C865 C 0.99723 0.79856 0.0765 0.0
C866 C 0.01495 0.80856 0.98258 0.0
C867 C 1.007 0.83068 0.99402 0.0
C868 C 0.99258 0.83616 0.04348 0.0
C869 C 0.9878 0.81991 0.08417 0.0
C870 C 0.03015 0.80215 0.92971 0.0
C871 C 0.98374 0.85962 0.05706 0.0
C872 C 0.03721 0.87837 0.96197 0.0
C873 C 0.02818 0.88858 0.91682 0.0
C874 C 0.03129 0.85848 0.98476 0.0
C875 C 0.01603 0.84874 0.96152 0.0
C876 C 0.00787 0.85813 0.91295 0.0
C877 C 0.01405 0.87807 0.8911 0.0
C878 C 0.04036 0.84882 0.03666 0.0
C879 C 0.99178 0.84794 0.88676 0.0
H880 H 0.01726 0.77604 0.01869 0.0
H881 H 0.97772 0.82426 0.12429 0.0
H882 H 0.02676 0.81104 0.88948 0.0
H883 H 0.04447 0.80676 0.93959 0.0
H884 H 0.03143 0.78406 0.91969 0.0
H885 H 0.97105 0.86051 0.09267 0.0
H886 H 0.99483 0.86971 0.07203 0.0
H887 H 0.97904 0.86719 0.01657 0.0
H888 H 0.04809 0.88658 0.98182 0.0
H889 H 0.00737 0.88585 0.85525 0.0
H890 H 0.04496 0.83098 0.02793 0.0
H891 H 0.02947 0.8503 0.07737 0.0
H892 H 0.05318 0.85732 0.04576 0.0
H893 H 0.99527 0.82983 0.87959 0.0
H894 H 0.98913 0.85533 0.84374 0.0
H895 H 0.97813 0.85055 0.91843 0.0
C896 C 0.68966 0.02063 1.00243 0.0
C897 C 0.6909 0.00577 0.04861 0.0
C898 C 0.67257 0.02416 0.97703 0.0
C899 C 0.65652 0.01261 0.99895 0.0
C900 C 0.65781 0.99722 0.04462 0.0
C901 C 0.67511 0.99398 0.06911 0.0
C902 C 0.67148 0.04071 0.92828 0.0
C903 C 0.64085 0.98456 0.06832 0.0
C904 C 0.60647 0.0382 0.98515 0.0
C905 C 0.60205 0.02601 0.93653 0.0
C906 C 0.62444 0.03426 0.00525 0.0
C907 C 0.63799 0.01752 0.9764 0.0
C908 C 0.63375 0.00528 0.92693 0.0
C909 C 0.61577 0.00983 0.90714 0.0
C910 C 0.6288 0.04774 0.05783 0.0
C911 C 0.6481 0.98735 0.89542 0.0
H912 H 0.7019 0.0299 0.98724 0.0
H913 H 0.6763 0.9823 0.10436 0.0
H914 H 0.66627 0.03312 0.88913 0.0
H915 H 0.66085 0.05492 0.94449 0.0
H916 H 0.68576 0.04706 0.91351 0.0
H917 H 0.64462 0.97251 0.10219 0.0
H918 H 0.62853 0.99625 0.08889 0.0
H919 H 0.63574 0.9755 0.03126 0.0
H920 H 0.59573 0.05052 0.00822 0.0
H921 H 0.61243 1.00071 0.86876 0.0
H922 H 0.64233 0.05592 0.04554 0.0
H923 H 0.63123 0.03673 0.09518 0.0
H924 H 0.61683 0.06064 0.0738 0.0
H925 H 0.66173 0.99445 0.87732 0.0
H926 H 0.6423 0.97911 0.85823 0.0
H927 H 0.65196 0.97464 0.92748 0.0
C928 C 0.52538 0.6495 0.88352 0.0
C929 C 0.54497 0.64566 0.89185 0.0
C930 C 0.51601 0.63334 0.85678 0.0
C931 C 0.5264 0.61279 0.83872 0.0
C932 C 0.54652 0.60938 0.84248 0.0
C933 C 0.55562 0.62594 0.8689 0.0
C934 C 0.49466 0.6377 0.85144 0.0
C935 C 0.55815 0.58784 0.82145 0.0
C936 C 0.50018 0.56097 0.85119 0.0
C937 C 0.49697 0.55728 0.79235 0.0
C938 C 0.50912 0.5795 0.86711 0.0
C939 C 0.51571 0.59414 0.82242 0.0
C940 C 0.51203 0.59084 0.76313 0.0
C941 C 0.50217 0.57271 0.74926 0.0
C942 C 0.51218 0.58285 0.93135 0.0
C943 C 0.51954 0.60526 0.71309 0.0
H944 H 0.51691 0.66451 0.90153 0.0
H945 H 0.57088 0.62303 0.87394 0.0
H946 H 0.49218 0.63444 0.80479 0.0
H947 H 0.48625 0.62628 0.88013 0.0
H948 H 0.48892 0.65498 0.8647 0.0
H949 H 0.57403 0.58887 0.82023 0.0
H950 H 0.55376 0.57449 0.85184 0.0
H951 H 0.55516 0.583 0.77628 0.0
H952 H 0.49623 0.54894 0.88443 0.0
H953 H 0.49965 0.56991 0.70386 0.0
H954 H 0.5075 0.60017 0.94686 0.0
H955 H 0.52787 0.57969 0.93536 0.0
H956 H 0.50405 0.57158 0.96141 0.0
H957 H 0.50901 0.60739 0.68045 0.0
H958 H 0.53326 0.5969 0.68903 0.0
H959 H 0.5226 0.62182 0.7288 0.0
C960 C 0.85475 0.55172 0.13037 0.0
C961 C 0.84877 0.54408 0.18732 0.0
C962 C 0.87013 0.54038 0.09293 0.0
C963 C 0.88011 0.52151 0.11409 0.0
C964 C 0.87489 0.51438 0.1725 0.0
C965 C 0.85907 0.52559 0.20825 0.0
C966 C 0.87524 0.54808 0.03017 0.0
C967 C 0.88563 0.49452 0.1965 0.0
C968 C 0.90803 0.47968 1.00256 0.0
C969 C 0.9267 0.48652 1.00022 0.0
C970 C 0.89253 0.49101 0.03973 0.0
C971 C 0.89616 0.50922 0.07526 0.0
C972 C 0.91515 0.51573 0.07406 0.0
C973 C 0.93027 0.50427 0.03618 0.0
C974 C 0.87228 0.484 0.03959 0.0
C975 C 0.91942 0.53502 0.11183 0.0
H976 H 0.84696 0.56613 0.11429 0.0
H977 H 0.85429 0.51918 0.25155 0.0
H978 H 0.89078 0.55125 0.02196 0.0
H979 H 0.87305 0.53492 0.99773 0.0
H980 H 0.86626 0.56338 0.02125 0.0
H981 H 0.88035 0.4919 0.24412 0.0
H982 H 0.88384 0.47942 0.17021 0.0
H983 H 0.90142 0.49655 0.19196 0.0
H984 H 0.90546 0.46615 0.97356 0.0
H985 H 0.94486 0.50946 0.03349 0.0
H986 H 0.86265 0.49789 0.02553 0.0
H987 H 0.8661 0.47978 0.08524 0.0
H988 H 0.87203 0.46948 0.0092 0.0
H989 H 0.91117 0.55039 0.10001 0.0
H990 H 0.93513 0.53765 0.10607 0.0
H991 H 0.9146 0.53222 0.15959 0.0
C992 C 0.04029 0.16581 0.8578 0.0
C993 C 0.0236 0.18086 0.86415 0.0
C994 C 0.03983 0.14402 0.8361 0.0
C995 C 0.02223 0.13696 0.82093 0.0
C996 C 1.00541 0.15215 0.82649 0.0
C997 C 1.00632 0.17388 0.84782 0.0
C998 C 0.05818 0.12849 0.82973 0.0
C999 C 0.98628 0.14529 0.81152 0.0
C1000 C 0.02297 0.08506 0.72265 0.0
C1001 C 0.01907 0.06893 0.76516 0.0
C1002 C 0.02431 0.10719 0.74005 0.0
C1003 C 0.02123 0.11347 0.80143 0.0
C1004 C 0.01712 0.09727 0.84444 0.0
C1005 C 0.01633 0.07519 0.82584 0.0
C1006 C 0.02905 0.12382 0.69275 0.0
C1007 C 0.01327 0.10331 0.9102 0.0
H1008 H 0.05378 0.17112 0.86946 0.0
H1009 H 0.9933 0.18528 0.8532 0.0
H1010 H 0.05611 0.11441 0.85973 0.0
H1011 H 0.06145 0.12152 0.78346 0.0
H1012 H 0.07091 0.1368 0.84056 0.0
H1013 H 0.97487 0.15939 0.81483 0.0
H1014 H 0.98812 0.13792 0.7657 0.0
H1015 H 0.98117 0.13242 0.84246 0.0
H1016 H 0.02513 0.08036 0.67565 0.0
H1017 H 0.01309 0.06289 0.85892 0.0
H1018 H 0.04233 0.13162 0.70069 0.0
H1019 H 0.01706 0.1372 0.69513 0.0
H1020 H 0.03143 0.1162 0.64705 0.0
H1021 H 0.02617 0.11019 0.92464 0.0
H1022 H 0.00979 0.08889 0.93785 0.0
H1023 H 1.00095 0.11632 0.91901 0.0
C1024 C 0.35801 0.01846 0.89995 0.0
C1025 C 0.35448 0.01002 0.95744 0.0
C1026 C 0.37702 0.01831 0.8692 0.0
C1027 C 0.39307 0.00914 0.89585 0.0
C1028 C 0.38963 1.00054 0.95378 0.0
C1029 C 0.37048 1.00126 0.98396 0.0
C1030 C 0.37991 0.02804 0.80813 0.0
C1031 C 0.40618 0.99028 0.98369 0.0
C1032 C 0.4403 0.99077 0.79289 0.0
C1033 C 0.45203 0.00778 0.80228 0.0
C1034 C 0.42128 0.99083 0.82351 0.0
C1035 C 0.41344 0.00869 0.86332 0.0
C1036 C 0.42511 0.02617 0.8719 0.0
C1037 C 0.44431 0.02532 0.84218 0.0
C1038 C 0.40963 0.97162 0.81356 0.0
C1039 C 0.41724 0.04593 0.91209 0.0
H1040 H 0.34584 0.02551 0.87913 0.0
H1041 H 0.36798 0.99446 0.02795 0.0
H1042 H 0.39056 0.04063 0.8068 0.0
H1043 H 0.38596 0.0149 0.77439 0.0
H1044 H 0.36613 0.03586 0.79518 0.0
H1045 H 0.4011 0.98382 0.0281 0.0
H1046 H 0.41421 0.9765 0.95517 0.0
H1047 H 0.41661 0.00269 0.98938 0.0
H1048 H 0.44619 0.97706 0.76263 0.0
H1049 H 0.4532 0.03863 0.84953 0.0
H1050 H 0.39675 0.97741 0.79227 0.0
H1051 H 0.40424 0.96459 0.85689 0.0
H1052 H 0.41827 0.95828 0.78472 0.0
H1053 H 0.40389 0.0539 0.89686 0.0
H1054 H 0.42792 0.05843 0.91293 0.0
H1055 H 0.41311 0.04055 0.95823 0.0
C1056 C 0.48927 0.36297 0.98269 0.0
C1057 C 0.47147 0.36089 0.01846 0.0
C1058 C 0.4922 0.38156 0.94778 0.0
C1059 C 0.47703 0.39873 0.94871 0.0
C1060 C 0.45912 0.39697 0.98532 0.0
C1061 C 0.45654 0.37808 0.01969 0.0
C1062 C 0.51158 0.38281 0.90969 0.0
C1063 C 0.44262 0.41495 0.9877 0.0
C1064 C 0.49378 0.45384 0.89558 0.0
C1065 C 0.49016 0.45359 0.83612 0.0
C1066 C 0.48867 0.43664 0.93356 0.0
C1067 C 0.48012 0.41846 0.91127 0.0
C1068 C 0.47585 0.41846 0.85179 0.0
C1069 C 0.48081 0.4361 0.81501 0.0
C1070 C 0.49293 0.43767 0.99712 0.0
C1071 C 0.46685 0.39937 0.82609 0.0
H1072 H 0.50106 0.35006 0.98227 0.0
H1073 H 0.44268 0.37659 0.04671 0.0
H1074 H 0.50944 0.38437 0.86221 0.0
H1075 H 0.51832 0.39772 0.92279 0.0
H1076 H 0.52185 0.36803 0.91367 0.0
H1077 H 0.42984 0.41149 0.0199 0.0
H1078 H 0.44753 0.43105 1.00046 0.0
H1079 H 0.438 0.41674 0.94289 0.0
H1080 H 0.50077 0.46746 0.91241 0.0
H1081 H 0.47808 0.43572 0.76899 0.0
H1082 H 0.50437 0.42439 1.00363 0.0
H1083 H 0.47977 0.43482 0.02835 0.0
H1084 H 0.49794 0.45383 0.00912 0.0
H1085 H 0.47778 0.38482 0.81899 0.0
H1086 H 0.46171 0.40336 0.78284 0.0
H1087 H 0.4544 0.39455 0.85744 0.0
C1088 C 0.1604 0.48936 0.79909 0.0
C1089 C 0.1644 0.47575 0.84653 0.0
C1090 C 0.1421 0.49091 0.7785 0.0
C1091 C 0.12695 0.47908 0.80672 0.0
C1092 C 0.13083 0.46519 0.85419 0.0
C1093 C 0.14942 0.46353 0.87301 0.0
C1094 C 0.13892 0.5055 0.72678 0.0
C1095 C 0.11522 0.45223 0.8858 0.0
C1096 C 0.07488 0.50299 0.79529 0.0
C1097 C 0.06898 0.48847 0.75378 0.0
C1098 C 0.09343 0.49979 0.81378 0.0
C1099 C 0.10685 0.48209 0.78853 0.0
C1100 C 0.10101 0.46756 0.74574 0.0
C1101 C 0.08204 0.47067 0.72979 0.0
C1102 C 0.09861 0.51532 0.86078 0.0
C1103 C 0.115 0.44912 0.71539 0.0
H1104 H 0.17145 0.49928 0.7784 0.0
H1105 H 0.15216 0.45251 0.90857 0.0
H1106 H 0.13284 0.49616 0.69215 0.0
H1107 H 0.1282 0.51971 0.74218 0.0
H1108 H 0.15257 0.51201 0.70608 0.0
H1109 H 0.12047 0.44212 0.92177 0.0
H1110 H 0.10265 0.46374 0.90554 0.0
H1111 H 0.10988 0.44109 0.8535 0.0
H1112 H 0.06476 0.51668 0.81429 0.0
H1113 H 0.0776 0.45953 0.69725 0.0
H1114 H 0.11104 0.5244 0.84202 0.0
H1115 H 0.10322 0.50575 0.89856 0.0
H1116 H 0.08626 0.52755 0.8782 0.0
H1117 H 0.12689 0.45633 0.68664 0.0
H1118 H 0.10781 0.43809 0.68725 0.0
H1119 H 0.12178 0.43905 0.74872 0.0
C1120 C 1.0041 0.8306 0.61106 0.0
C1121 C 1.00064 0.82594 0.55247 0.0
C1122 C 1.00412 0.8525 0.63277 0.0
C1123 C 1.00095 0.87039 0.59486 0.0
C1124 C 0.99743 0.86588 0.53585 0.0
C1125 C 0.99714 0.84385 0.51564 0.0
C1126 C 0.00773 0.85648 0.69623 0.0
C1127 C 0.99421 0.88438 0.49363 0.0
C1128 C 0.98645 0.92929 0.65856 0.0
C1129 C 1.00443 0.93828 0.65311 0.0
C1130 C 0.98513 0.90709 0.64121 0.0
C1131 C 1.0021 0.89377 0.61591 0.0
C1132 C 0.02024 0.90297 0.60953 0.0
C1133 C 0.02121 0.92492 0.62908 0.0
C1134 C 0.96562 0.89779 0.65066 0.0
C1135 C 0.03863 0.88967 0.58149 0.0
H1136 H 0.00715 0.8171 0.63997 0.0
H1137 H 0.99405 0.84072 0.4708 0.0
H1138 H 0.02125 0.86482 0.69662 0.0
H1139 H 0.99565 0.86762 0.72047 0.0
H1140 H 0.00913 0.84089 0.72085 0.0
H1141 H 0.99159 0.8782 0.4492 0.0
H1142 H 0.98158 0.8959 0.51267 0.0
H1143 H 0.0071 0.89403 0.48759 0.0
H1144 H 0.97348 0.93945 0.67791 0.0
H1145 H 0.03516 0.9318 0.62462 0.0
H1146 H 0.96635 0.8832 0.67935 0.0
H1147 H 0.96173 0.89205 0.60739 0.0
H1148 H 0.95387 0.91011 0.67185 0.0
H1149 H 0.04155 0.87491 0.60812 0.0
H1150 H 0.05147 0.89943 0.57809 0.0
H1151 H 0.03686 0.88367 0.53613 0.0
C1152 C 0.66395 0.99791 0.5325 0.0
C1153 C 0.66717 1.00191 0.47102 0.0
C1154 C 0.64501 0.99773 0.56368 0.0
C1155 C 0.62862 1.00184 0.53323 0.0
C1156 C 0.6317 0.00613 0.47147 0.0
C1157 C 0.65081 0.00604 0.44126 0.0
C1158 C 0.64254 0.993 0.62936 0.0
C1159 C 0.61476 0.01075 0.43708 0.0
C1160 C 0.57956 0.98224 0.59905 0.0
C1161 C 0.5698 1.00158 0.6277 0.0
C1162 C 0.5987 0.98202 0.56897 0.0
C1163 C 0.6083 1.00172 0.56597 0.0
C1164 C 0.59844 0.02131 0.59442 0.0
C1165 C 0.57949 0.02095 0.62528 0.0
C1166 C 0.60872 0.9606 0.54078 0.0
C1167 C 0.60789 0.04276 0.5922 0.0
H1168 H 0.67627 0.99512 0.55678 0.0
H1169 H 0.65289 0.00887 0.39385 0.0
H1170 H 0.63342 0.00676 0.65503 0.0
H1171 H 0.63489 0.97784 0.63727 0.0
H1172 H 0.65667 0.99066 0.64707 0.0
H1173 H 0.61949 0.01422 0.38962 0.0
H1174 H 0.60596 0.99636 0.43884 0.0
H1175 H 0.60515 0.02515 0.45778 0.0
H1176 H 0.57233 0.96713 0.60078 0.0
H1177 H 0.57211 0.03603 0.64683 0.0
H1178 H 0.6223 0.95625 0.56024 0.0
H1179 H 0.6129 0.96255 0.49228 0.0
H1180 H 0.5994 0.94667 0.54728 0.0
H1181 H 0.62114 0.04097 0.61452 0.0
H1182 H 0.59802 0.05676 0.6142 0.0
H1183 H 0.61249 0.0469 0.5452 0.0
C1184 C 0.5525 0.64468 0.4758 0.0
C1185 C 0.55098 0.64362 0.41452 0.0
C1186 C 0.54946 0.6264 0.51194 0.0
C1187 C 0.54514 0.60631 0.48627 0.0
C1188 C 0.54446 0.60474 0.42411 0.0
C1189 C 0.54722 0.62341 0.38912 0.0
C1190 C 0.54993 0.62899 0.57818 0.0
C1191 C 0.5401 0.58354 0.39485 0.0
C1192 C 0.54813 0.55445 0.57888 0.0
C1193 C 0.52846 0.55267 0.59941 0.0
C1194 C 0.55382 0.57153 0.54092 0.0
C1195 C 0.53956 0.58767 0.52519 0.0
C1196 C 0.51975 0.58615 0.54694 0.0
C1197 C 0.51443 0.56843 0.5824 0.0
C1198 C 0.57503 0.57222 0.51718 0.0
C1199 C 0.5041 0.60337 0.53327 0.0
H1200 H 0.55581 0.65996 0.49596 0.0
H1201 H 0.54577 0.62231 0.34215 0.0
H1202 H 0.53494 0.62899 0.60198 0.0
H1203 H 0.55881 0.61492 0.5945 0.0
H1204 H 0.55583 0.64463 0.59014 0.0
H1205 H 0.54221 0.5842 0.34544 0.0
H1206 H 0.54955 0.56936 0.40825 0.0
H1207 H 0.52482 0.58031 0.40988 0.0
H1208 H 0.55903 0.5422 0.59133 0.0
H1209 H 0.49918 0.56723 0.598 0.0
H1210 H 0.58027 0.58782 0.53231 0.0
H1211 H 0.57695 0.57201 0.46772 0.0
H1212 H 0.58424 0.55805 0.53191 0.0
H1213 H 0.50738 0.62001 0.54788 0.0
H1214 H 0.48945 0.60024 0.55565 0.0
H1215 H 0.50371 0.6037 0.4845 0.0
C1216 C 0.86256 0.54118 0.61315 0.0
C1217 C 0.85837 0.52535 0.57151 0.0
C1218 C 0.88058 0.53994 0.63562 0.0
C1219 C 0.89517 0.52268 0.61552 0.0
C1220 C 0.89113 0.50671 0.57348 0.0
C1221 C 0.87288 0.50813 0.55249 0.0
C1222 C 0.88404 0.55731 0.68058 0.0
C1223 C 0.90617 0.48804 0.55046 0.0
C1224 C 0.94871 0.53024 0.62601 0.0
C1225 C 0.95252 0.51708 0.67432 0.0
C1226 C 0.93016 0.53242 0.60705 0.0
C1227 C 0.91477 0.52145 0.63739 0.0
C1228 C 0.91838 0.50866 0.68726 0.0
C1229 C 0.93716 0.50649 0.70472 0.0
C1230 C 0.92716 0.54611 0.55353 0.0
C1231 C 0.9024 0.49716 0.7222 0.0
H1232 H 0.85182 0.55483 0.62789 0.0
H1233 H 0.86995 0.49543 0.52157 0.0
H1234 H 0.88952 0.54941 0.7196 0.0
H1235 H 0.89532 0.5677 0.66022 0.0
H1236 H 0.87064 0.56824 0.69649 0.0
H1237 H 0.90094 0.47703 0.51751 0.0
H1238 H 0.91957 0.49485 0.52912 0.0
H1239 H 0.91019 0.47798 0.58807 0.0
H1240 H 0.9604 0.53844 0.60177 0.0
H1241 H 0.9398 0.4964 0.74229 0.0
H1242 H 0.91543 0.55959 0.56604 0.0
H1243 H 0.92247 0.53568 0.51833 0.0
H1244 H 0.94055 0.55357 0.53458 0.0
H1245 H 0.8903 0.50953 0.74053 0.0
H1246 H 0.90751 0.48777 0.75965 0.0
H1247 H 0.89644 0.48556 0.69245 0.0
loop_
_geom_bond_atom_site_label_1
_geom_bond_atom_site_label_2
_geom_bond_distance
_geom_bond_site_symmetry_2
_ccdc_geom_bond_type
C0 C1 1.264 . S
C0 C5 1.479 . S
C0 C10 1.465 . S
C1 C0 1.264 . S
C1 C3 1.339 . S
C1 H28 0.931 . S
C2 C3 1.395 . S
C2 C4 1.320 . S
C3 C1 1.339 . S
C3 C2 1.395 . S
C3 H29 0.929 . S
C4 C2 1.320 . S
C4 C5 1.405 . S
C4 H30 0.930 . S
C5 C0 1.479 . S
C5 C4 1.405 . S
C5 H31 0.931 . S
U6 O7 2.454 . S
U6 O8 2.458 . S
U6 C9 2.984 . S
U6 C10 2.847 . S
U6 C23 2.882 . S
U6 O24 2.441 . S
U6 O25 2.420 . S
U6 O26 2.455 . S
U6 O27 2.449 . S
O7 U6 2.454 . S
O7 C9 1.353 . S
O8 U6 2.458 . S
O8 C9 1.286 . S
C9 U6 2.984 . S
C9 O7 1.353 . S
C9 O8 1.286 . S
C9 C11 1.363 . S
C10 C0 1.465 . S
C10 U6 2.847 . S
C10 O24 1.249 . S
C10 O25 1.202 . S
C11 C9 1.363 . S
C11 C13 1.408 . S
C11 C16 1.342 . S
C12 C13 1.310 . S
C12 C15 1.461 . S
C12 H32 0.932 . S
C13 C11 1.408 . S
C13 C12 1.310 . S
C13 H33 0.930 . S
C14 C15 1.474 . S
C14 C16 1.285 . S
C14 H34 0.929 . S
C15 C12 1.461 . S
C15 C14 1.474 . S
C16 C11 1.342 . S
C16 C14 1.285 . S
C16 H35 0.930 . S
C17 C20 1.424 . S
C17 C22 1.245 . S
C17 C23 1.428 . S
C18 C21 1.260 . S
C18 C22 1.477 . S
C18 H36 0.932 . S
C19 C20 1.384 . S
C19 C21 1.479 . S
C19 H37 0.929 . S
C20 C17 1.424 . S
C20 C19 1.384 . S
C20 H38 0.928 . S
C21 C18 1.260 . S
C21 C19 1.479 . S
C22 C17 1.245 . S
C22 C18 1.477 . S
C22 H39 0.932 . S
C23 U6 2.882 . S
C23 C17 1.428 . S
C23 O26 1.301 . S
C23 O27 1.282 . S
O24 U6 2.441 . S
O24 C10 1.249 . S
O25 U6 2.420 . S
O25 C10 1.202 . S
O26 U6 2.455 . S
O26 C23 1.301 . S
O27 U6 2.449 . S
O27 C23 1.282 . S
H28 C1 0.931 . S
H29 C3 0.929 . S
H30 C4 0.930 . S
H31 C5 0.931 . S
H32 C12 0.932 . S
H33 C13 0.930 . S
H34 C14 0.929 . S
H35 C16 0.930 . S
H36 C18 0.932 . S
H37 C19 0.929 . S
H38 C20 0.928 . S
H39 C22 0.932 . S
C40 C41 1.257 . S
C40 C45 1.483 . S
C40 C50 1.466 1_655 S
C41 C40 1.257 . S
C41 C43 1.339 . S
C41 H68 0.932 1_655 S
C42 C43 1.395 . S
C42 C44 1.320 . S
C43 C41 1.339 . S
C43 C42 1.395 . S
C43 H69 0.929 . S
C44 C42 1.320 . S
C44 C45 1.405 . S
C44 H70 0.930 . S
C45 C40 1.483 . S
C45 C44 1.405 . S
C45 H71 0.931 . S
U46 O47 2.454 1_455 S
U46 O48 2.458 1_455 S
U46 C49 2.984 1_455 S
U46 C50 2.847 . S
U46 C63 2.882 . S
U46 O64 2.439 . S
U46 O65 2.420 . S
U46 O66 2.455 . S
U46 O67 2.449 . S
O47 U46 2.454 1_655 S
O47 C49 1.353 . S
O48 U46 2.458 1_655 S
O48 C49 1.286 . S
C49 U46 2.984 1_655 S
C49 O47 1.353 . S
C49 O48 1.286 . S
C49 C51 1.363 . S
C50 C40 1.466 1_455 S
C50 U46 2.847 . S
C50 O64 1.254 . S
C50 O65 1.202 . S
C51 C49 1.363 . S
C51 C53 1.408 . S
C51 C56 1.342 . S
C52 C53 1.310 . S
C52 C55 1.461 . S
C52 H72 0.932 . S
C53 C51 1.408 . S
C53 C52 1.310 . S
C53 H73 0.930 . S
C54 C55 1.474 . S
C54 C56 1.285 . S
C54 H74 0.929 . S
C55 C52 1.461 . S
C55 C54 1.474 . S
C56 C51 1.342 . S
C56 C54 1.285 . S
C56 H75 0.930 . S
C57 C60 1.422 1_455 S
C57 C62 1.231 1_455 S
C57 C63 1.437 . S
C58 C61 1.260 . S
C58 C62 1.477 . S
C58 H76 0.932 . S
C59 C60 1.384 . S
C59 C61 1.479 . S
C59 H77 0.929 . S
C60 C57 1.422 1_655 S
C60 C59 1.384 . S
C60 H78 0.928 . S
C61 C58 1.260 . S
C61 C59 1.479 . S
C62 C57 1.231 1_655 S
C62 C58 1.477 . S
C62 H79 0.932 . S
C63 U46 2.882 . S
C63 C57 1.437 . S
C63 O66 1.301 . S
C63 O67 1.282 . S
O64 U46 2.439 . S
O64 C50 1.254 . S
O65 U46 2.420 . S
O65 C50 1.202 . S
O66 U46 2.455 . S
O66 C63 1.301 . S
O67 U46 2.449 . S
O67 C63 1.282 . S
H68 C41 0.932 1_455 S
H69 C43 0.929 . S
H70 C44 0.930 . S
H71 C45 0.931 . S
H72 C52 0.932 . S
H73 C53 0.930 . S
H74 C54 0.929 . S
H75 C56 0.930 . S
H76 C58 0.932 . S
H77 C59 0.929 . S
H78 C60 0.928 . S
H79 C62 0.932 . S
C80 C81 1.264 . S
C80 C85 1.479 . S
C80 C90 1.465 . S
C81 C80 1.264 . S
C81 C83 1.339 . S
C81 H108 0.931 . S
C82 C83 1.395 . S
C82 C84 1.320 . S
C83 C81 1.339 . S
C83 C82 1.395 . S
C83 H109 0.929 . S
C84 C82 1.320 . S
C84 C85 1.405 . S
C84 H110 0.923 1_545 S
C85 C80 1.479 . S
C85 C84 1.405 . S
C85 H111 0.931 . S
U86 O87 2.454 . S
U86 O88 2.458 . S
U86 C89 2.984 . S
U86 C90 2.847 . S
U86 C103 2.882 . S
U86 O104 2.441 . S
U86 O105 2.420 . S
U86 O106 2.455 . S
U86 O107 2.449 . S
O87 U86 2.454 . S
O87 C89 1.353 . S
O88 U86 2.458 . S
O88 C89 1.286 . S
C89 U86 2.984 . S
C89 O87 1.353 . S
C89 O88 1.286 . S
C89 C91 1.363 . S
C90 C80 1.465 . S
C90 U86 2.847 . S
C90 O104 1.249 . S
C90 O105 1.202 . S
C91 C89 1.363 . S
C91 C93 1.408 . S
C91 C96 1.342 . S
C92 C93 1.310 . S
C92 C95 1.461 . S
C92 H112 0.932 . S
C93 C91 1.408 . S
C93 C92 1.310 . S
C93 H113 0.930 . S
C94 C95 1.473 1_565 S
C94 C96 1.286 1_565 S
C94 H114 0.930 . S
C95 C92 1.461 . S
C95 C94 1.473 1_545 S
C96 C91 1.342 . S
C96 C94 1.286 1_545 S
C96 H115 0.934 . S
C97 C100 1.424 . S
C97 C102 1.245 . S
C97 C103 1.428 . S
C98 C101 1.260 . S
C98 C102 1.477 . S
C98 H116 0.932 1_554 S
C99 C100 1.384 . S
C99 C101 1.479 . S
C99 H117 0.929 . S
C100 C97 1.424 . S
C100 C99 1.384 . S
C100 H118 0.928 . S
C101 C98 1.260 . S
C101 C99 1.479 . S
C102 C97 1.245 . S
C102 C98 1.477 . S
C102 H119 0.932 . S
C103 U86 2.882 . S
C103 C97 1.428 . S
C103 O106 1.301 . S
C103 O107 1.282 . S
O104 U86 2.441 . S
O104 C90 1.249 . S
O105 U86 2.420 . S
O105 C90 1.202 . S
O106 U86 2.455 . S
O106 C103 1.301 . S
O107 U86 2.449 . S
O107 C103 1.282 . S
H108 C81 0.931 . S
H109 C83 0.929 . S
H110 C84 0.923 1_565 S
H111 C85 0.931 . S
H112 C92 0.932 . S
H113 C93 0.930 . S
H114 C94 0.930 . S
H115 C96 0.934 . S
H116 C98 0.932 1_556 S
H117 C99 0.929 . S
H118 C100 0.928 . S
H119 C102 0.932 . S
C120 C121 1.264 . S
C120 C125 1.479 . S
C120 C130 1.465 . S
C121 C120 1.264 . S
C121 C123 1.339 . S
C121 H148 0.931 . S
C122 C123 1.395 . S
C122 C124 1.320 . S
C123 C121 1.339 . S
C123 C122 1.395 . S
C123 H149 0.929 . S
C124 C122 1.320 . S
C124 C125 1.405 . S
C124 H150 0.930 . S
C125 C120 1.479 . S
C125 C124 1.405 . S
C125 H151 0.931 . S
U126 O127 2.454 . S
U126 O128 2.458 . S
U126 C129 2.984 . S
U126 C130 2.847 . S
U126 C143 2.882 . S
U126 O144 2.441 . S
U126 O145 2.420 . S
U126 O146 2.455 1_554 S
U126 O147 2.449 . S
O127 U126 2.454 . S
O127 C129 1.353 . S
O128 U126 2.458 . S
O128 C129 1.286 . S
C129 U126 2.984 . S
C129 O127 1.353 . S
C129 O128 1.286 . S
C129 C131 1.363 . S
C130 C120 1.465 . S
C130 U126 2.847 . S
C130 O144 1.249 . S
C130 O145 1.202 . S
C131 C129 1.363 . S
C131 C133 1.408 . S
C131 C136 1.342 1_554 S
C132 C133 1.310 . S
C132 C135 1.461 . S
C132 H152 0.932 . S
C133 C131 1.408 . S
C133 C132 1.310 . S
C133 H153 0.930 . S
C134 C135 1.474 1_556 S
C134 C136 1.285 . S
C134 H154 0.929 . S
C135 C132 1.461 . S
C135 C134 1.474 1_554 S
C136 C131 1.342 1_556 S
C136 C134 1.285 . S
C136 H155 0.930 . S
C137 C140 1.424 . S
C137 C142 1.245 . S
C137 C143 1.428 1_556 S
C138 C141 1.260 . S
C138 C142 1.477 . S
C138 H156 0.932 . S
C139 C140 1.384 . S
C139 C141 1.479 . S
C139 H157 0.929 . S
C140 C137 1.424 . S
C140 C139 1.384 . S
C140 H158 0.928 1_556 S
C141 C138 1.260 . S
C141 C139 1.479 . S
C142 C137 1.245 . S
C142 C138 1.477 . S
C142 H159 0.932 . S
C143 U126 2.882 . S
C143 C137 1.428 1_554 S
C143 O146 1.301 1_554 S
C143 O147 1.282 . S
O144 U126 2.441 . S
O144 C130 1.249 . S
O145 U126 2.420 . S
O145 C130 1.202 . S
O146 U126 2.455 1_556 S
O146 C143 1.301 1_556 S
O147 U126 2.449 . S
O147 C143 1.282 . S
H148 C121 0.931 . S
H149 C123 0.929 . S
H150 C124 0.930 . S
H151 C125 0.931 . S
H152 C132 0.932 . S
H153 C133 0.930 . S
H154 C134 0.929 . S
H155 C136 0.930 . S
H156 C138 0.932 . S
H157 C139 0.929 . S
H158 C140 0.928 1_554 S
H159 C142 0.932 . S
C160 C161 1.264 . S
C160 C165 1.479 . S
C160 C170 1.465 . S
C161 C160 1.264 . S
C161 C163 1.339 . S
C161 H188 0.931 . S
C162 C163 1.395 . S
C162 C164 1.320 . S
C163 C161 1.339 . S
C163 C162 1.395 . S
C163 H189 0.929 . S
C164 C162 1.320 . S
C164 C165 1.405 . S
C164 H190 0.930 . S
C165 C160 1.479 . S
C165 C164 1.405 . S
C165 H191 0.931 . S
U166 O167 2.454 . S
U166 O168 2.458 1_556 S
U166 C169 2.984 1_556 S
U166 C170 2.847 . S
U166 C183 2.882 1_556 S
U166 O184 2.441 . S
U166 O185 2.420 . S
U166 O186 2.455 1_556 S
U166 O187 2.449 1_556 S
O167 U166 2.454 . S
O167 C169 1.353 1_556 S
O168 U166 2.458 1_554 S
O168 C169 1.286 . S
C169 U166 2.984 1_554 S
C169 O167 1.353 1_554 S
C169 O168 1.286 . S
C169 C171 1.363 . S
C170 C160 1.465 . S
C170 U166 2.847 . S
C170 O184 1.249 . S
C170 O185 1.202 . S
C171 C169 1.363 . S
C171 C173 1.408 1_554 S
C171 C176 1.342 . S
C172 C173 1.310 . S
C172 C175 1.461 1_556 S
C172 H192 0.932 . S
C173 C171 1.408 1_556 S
C173 C172 1.310 . S
C173 H193 0.930 . S
C174 C175 1.474 . S
C174 C176 1.285 . S
C174 H194 0.929 . S
C175 C172 1.461 1_554 S
C175 C174 1.474 . S
C176 C171 1.342 . S
C176 C174 1.285 . S
C176 H195 0.930 . S
C177 C180 1.424 . S
C177 C182 1.245 . S
C177 C183 1.428 . S
C178 C181 1.260 . S
C178 C182 1.477 . S
C178 H196 0.932 . S
C179 C180 1.384 . S
C179 C181 1.479 . S
C179 H197 0.929 . S
C180 C177 1.424 . S
C180 C179 1.384 . S
C180 H198 0.928 . S
C181 C178 1.260 . S
C181 C179 1.479 . S
C182 C177 1.245 . S
C182 C178 1.477 . S
C182 H199 0.932 . S
C183 U166 2.882 1_554 S
C183 C177 1.428 . S
C183 O186 1.301 . S
C183 O187 1.282 . S
O184 U166 2.441 . S
O184 C170 1.249 . S
O185 U166 2.420 . S
O185 C170 1.202 . S
O186 U166 2.455 1_554 S
O186 C183 1.301 . S
O187 U166 2.449 1_554 S
O187 C183 1.282 . S
H188 C161 0.931 . S
H189 C163 0.929 . S
H190 C164 0.930 . S
H191 C165 0.931 . S
H192 C172 0.932 . S
H193 C173 0.930 . S
H194 C174 0.929 . S
H195 C176 0.930 . S
H196 C178 0.932 . S
H197 C179 0.929 . S
H198 C180 0.928 . S
H199 C182 0.932 . S
C200 C201 1.264 . S
C200 C205 1.479 . S
C200 C210 1.465 . S
C201 C200 1.264 . S
C201 C203 1.339 . S
C201 H228 0.931 . S
C202 C203 1.395 . S
C202 C204 1.320 . S
C203 C201 1.339 . S
C203 C202 1.395 . S
C203 H229 0.929 . S
C204 C202 1.320 . S
C204 C205 1.405 . S
C204 H230 0.930 . S
C205 C200 1.479 . S
C205 C204 1.405 . S
C205 H231 0.931 . S
U206 O207 2.454 . S
U206 O208 2.458 . S
U206 C209 2.984 . S
U206 C210 2.847 1_554 S
U206 C223 2.882 . S
U206 O224 2.441 1_554 S
U206 O225 2.420 . S
U206 O226 2.455 . S
U206 O227 2.449 . S
O207 U206 2.454 . S
O207 C209 1.353 . S
O208 U206 2.458 . S
O208 C209 1.286 . S
C209 U206 2.984 . S
C209 O207 1.353 . S
C209 O208 1.286 . S
C209 C211 1.363 . S
C210 C200 1.465 . S
C210 U206 2.847 1_556 S
C210 O224 1.249 . S
C210 O225 1.202 1_556 S
C211 C209 1.363 . S
C211 C213 1.408 . S
C211 C216 1.342 . S
C212 C213 1.310 . S
C212 C215 1.461 . S
C212 H232 0.932 . S
C213 C211 1.408 . S
C213 C212 1.310 . S
C213 H233 0.930 . S
C214 C215 1.474 . S
C214 C216 1.285 . S
C214 H234 0.929 . S
C215 C212 1.461 . S
C215 C214 1.474 . S
C216 C211 1.342 . S
C216 C214 1.285 . S
C216 H235 0.930 . S
C217 C220 1.424 . S
C217 C222 1.245 . S
C217 C223 1.428 . S
C218 C221 1.260 . S
C218 C222 1.477 . S
C218 H236 0.932 . S
C219 C220 1.384 . S
C219 C221 1.479 . S
C219 H237 0.929 . S
C220 C217 1.424 . S
C220 C219 1.384 . S
C220 H238 0.928 . S
C221 C218 1.260 . S
C221 C219 1.479 . S
C222 C217 1.245 . S
C222 C218 1.477 . S
C222 H239 0.932 . S
C223 U206 2.882 . S
C223 C217 1.428 . S
C223 O226 1.301 . S
C223 O227 1.282 . S
O224 U206 2.441 1_556 S
O224 C210 1.249 . S
O225 U206 2.420 . S
O225 C210 1.202 1_554 S
O226 U206 2.455 . S
O226 C223 1.301 . S
O227 U206 2.449 . S
O227 C223 1.282 . S
H228 C201 0.931 . S
H229 C203 0.929 . S
H230 C204 0.930 . S
H231 C205 0.931 . S
H232 C212 0.932 . S
H233 C213 0.930 . S
H234 C214 0.929 . S
H235 C216 0.930 . S
H236 C218 0.932 . S
H237 C219 0.929 . S
H238 C220 0.928 . S
H239 C222 0.932 . S
C240 C241 1.264 . S
C240 C245 1.479 . S
C240 C250 1.465 1_556 S
C241 C240 1.264 . S
C241 C243 1.339 . S
C241 H268 0.931 1_556 S
C242 C243 1.395 . S
C242 C244 1.320 . S
C243 C241 1.339 . S
C243 C242 1.395 . S
C243 H269 0.929 . S
C244 C242 1.320 . S
C244 C245 1.405 . S
C244 H270 0.922 1_545 S
C245 C240 1.479 . S
C245 C244 1.405 . S
C245 H271 0.931 . S
U246 O247 2.454 . S
U246 O248 2.458 . S
U246 C249 2.984 . S
U246 C250 2.847 . S
U246 C263 2.882 . S
U246 O264 2.441 . S
U246 O265 2.420 . S
U246 O266 2.455 . S
U246 O267 2.449 . S
O247 U246 2.454 . S
O247 C249 1.353 . S
O248 U246 2.458 . S
O248 C249 1.286 . S
C249 U246 2.984 . S
C249 O247 1.353 . S
C249 O248 1.286 . S
C249 C251 1.363 . S
C250 C240 1.465 1_554 S
C250 U246 2.847 . S
C250 O264 1.249 . S
C250 O265 1.202 . S
C251 C249 1.363 . S
C251 C253 1.408 . S
C251 C256 1.342 . S
C252 C253 1.310 . S
C252 C255 1.463 . S
C252 H272 0.932 . S
C253 C251 1.408 . S
C253 C252 1.310 . S
C253 H273 0.930 . S
C254 C255 1.475 1_565 S
C254 C256 1.286 1_565 S
C254 H274 0.929 . S
C255 C252 1.463 . S
C255 C254 1.475 1_545 S
C256 C251 1.342 . S
C256 C254 1.286 1_545 S
C256 H275 0.931 . S
C257 C260 1.424 . S
C257 C262 1.245 . S
C257 C263 1.428 . S
C258 C261 1.260 . S
C258 C262 1.477 . S
C258 H276 0.932 . S
C259 C260 1.384 . S
C259 C261 1.479 . S
C259 H277 0.929 . S
C260 C257 1.424 . S
C260 C259 1.384 . S
C260 H278 0.928 . S
C261 C258 1.260 . S
C261 C259 1.479 . S
C262 C257 1.245 . S
C262 C258 1.477 . S
C262 H279 0.932 . S
C263 U246 2.882 . S
C263 C257 1.428 . S
C263 O266 1.301 . S
C263 O267 1.282 . S
O264 U246 2.441 . S
O264 C250 1.249 . S
O265 U246 2.420 . S
O265 C250 1.202 . S
O266 U246 2.455 . S
O266 C263 1.301 . S
O267 U246 2.449 . S
O267 C263 1.282 . S
H268 C241 0.931 1_554 S
H269 C243 0.929 . S
H270 C244 0.922 1_565 S
H271 C245 0.931 . S
H272 C252 0.932 . S
H273 C253 0.930 . S
H274 C254 0.929 . S
H275 C256 0.931 . S
H276 C258 0.932 . S
H277 C259 0.929 . S
H278 C260 0.928 . S
H279 C262 0.932 . S
C280 C281 1.264 . S
C280 C285 1.479 . S
C280 C290 1.465 . S
C281 C280 1.264 . S
C281 C283 1.339 . S
C281 H308 0.931 . S
C282 C283 1.395 . S
C282 C284 1.320 . S
C283 C281 1.339 . S
C283 C282 1.395 . S
C283 H309 0.929 . S
C284 C282 1.320 . S
C284 C285 1.405 . S
C284 H310 0.930 . S
C285 C280 1.479 . S
C285 C284 1.405 . S
C285 H311 0.931 . S
U286 O287 2.454 . S
U286 O288 2.458 . S
U286 C289 2.984 . S
U286 C290 2.847 . S
U286 C303 2.882 . S
U286 O304 2.441 . S
U286 O305 2.420 . S
U286 O306 2.455 . S
U286 O307 2.449 . S
O287 U286 2.454 . S
O287 C289 1.353 . S
O288 U286 2.458 . S
O288 C289 1.286 . S
C289 U286 2.984 . S
C289 O287 1.353 . S
C289 O288 1.286 . S
C289 C291 1.363 . S
C290 C280 1.465 . S
C290 U286 2.847 . S
C290 O304 1.249 . S
C290 O305 1.202 . S
C291 C289 1.363 . S
C291 C293 1.408 . S
C291 C296 1.342 . S
C292 C293 1.310 . S
C292 C295 1.461 . S
C292 H312 0.932 . S
C293 C291 1.408 . S
C293 C292 1.310 . S
C293 H313 0.930 . S
C294 C295 1.474 . S
C294 C296 1.285 . S
C294 H314 0.929 . S
C295 C292 1.461 . S
C295 C294 1.474 . S
C296 C291 1.342 . S
C296 C294 1.285 . S
C296 H315 0.930 . S
C297 C300 1.424 . S
C297 C302 1.245 . S
C297 C303 1.428 . S
C298 C301 1.260 . S
C298 C302 1.477 . S
C298 H316 0.932 . S
C299 C300 1.384 . S
C299 C301 1.479 . S
C299 H317 0.929 . S
C300 C297 1.424 . S
C300 C299 1.384 . S
C300 H318 0.928 . S
C301 C298 1.260 . S
C301 C299 1.479 . S
C302 C297 1.245 . S
C302 C298 1.477 . S
C302 H319 0.932 . S
C303 U286 2.882 . S
C303 C297 1.428 . S
C303 O306 1.301 . S
C303 O307 1.282 . S
O304 U286 2.441 . S
O304 C290 1.249 . S
O305 U286 2.420 . S
O305 C290 1.202 . S
O306 U286 2.455 . S
O306 C303 1.301 . S
O307 U286 2.449 . S
O307 C303 1.282 . S
H308 C281 0.931 . S
H309 C283 0.929 . S
H310 C284 0.930 . S
H311 C285 0.931 . S
H312 C292 0.932 . S
H313 C293 0.930 . S
H314 C294 0.929 . S
H315 C296 0.930 . S
H316 C298 0.932 . S
H317 C299 0.929 . S
H318 C300 0.928 . S
H319 C302 0.932 . S
Dy320 O323 2.307 1_545 S
Dy320 O325 2.395 1_655 S
Dy320 O326 2.379 . S
Dy320 O328 2.339 . S
Dy320 O330 2.319 . S
Dy320 O334 2.275 1_655 S
Dy320 C342 2.738 . S
Dy321 O324 2.298 . S
Dy321 O327 2.275 1_455 S
Dy321 O329 2.307 1_565 S
Dy321 O331 2.419 . S
Dy321 O332 2.379 . S
Dy321 O335 2.339 . S
Dy321 C351 2.738 . S
C322 O334 1.254 1_565 S
C322 O335 1.257 . S
O323 Dy320 2.307 1_565 S
O323 C333 1.266 . S
O324 Dy321 2.298 . S
O324 C333 1.236 1_455 S
O325 Dy320 2.395 1_455 S
O325 C342 1.255 1_455 S
O326 Dy320 2.379 . S
O326 C342 1.249 . S
O327 Dy321 2.275 1_655 S
O327 C343 1.254 1_565 S
O328 Dy320 2.339 . S
O328 C343 1.257 . S
O329 Dy321 2.307 1_545 S
O329 C344 1.266 . S
O330 Dy320 2.319 . S
O330 C344 1.194 1_655 S
O331 Dy321 2.419 . S
O331 C351 1.301 . S
O332 Dy321 2.379 . S
O332 C351 1.249 . S
C333 O323 1.266 . S
C333 O324 1.236 1_655 S
O334 Dy320 2.275 1_455 S
O334 C322 1.254 1_545 S
O335 Dy321 2.339 . S
O335 C322 1.257 . S
C336 C339 1.344 1_655 S
C336 C340 1.328 . S
C336 C342 1.516 . S
C337 C338 1.304 1_655 S
C337 C341 1.323 . S
C338 C337 1.304 1_455 S
C338 C339 1.371 . S
C338 H352 0.930 . S
C339 C336 1.344 1_455 S
C339 C338 1.371 . S
C339 H353 0.931 . S
C340 C336 1.328 . S
C340 C341 1.433 . S
C340 H354 0.931 . S
C341 C337 1.323 . S
C341 C340 1.433 . S
C341 H355 0.933 . S
C342 Dy320 2.738 . S
C342 O325 1.255 1_655 S
C342 O326 1.249 . S
C342 C336 1.516 . S
C343 O327 1.254 1_545 S
C343 O328 1.257 . S
C344 O329 1.266 . S
C344 O330 1.194 1_455 S
C345 C348 1.344 . S
C345 C349 1.328 . S
C345 C351 1.516 . S
C346 C347 1.304 . S
C346 C350 1.323 . S
C347 C346 1.304 . S
C347 C348 1.371 . S
C347 H356 0.930 1_455 S
C348 C345 1.344 . S
C348 C347 1.371 . S
C348 H357 0.931 1_455 S
C349 C345 1.328 . S
C349 C350 1.433 . S
C349 H358 0.931 . S
C350 C346 1.323 . S
C350 C349 1.433 . S
C350 H359 0.933 . S
C351 Dy321 2.738 . S
C351 O331 1.301 . S
C351 O332 1.249 . S
C351 C345 1.516 . S
H352 C338 0.930 . S
H353 C339 0.931 . S
H354 C340 0.931 . S
H355 C341 0.933 . S
H356 C347 0.930 1_655 S
H357 C348 0.931 1_655 S
H358 C349 0.931 . S
H359 C350 0.933 . S
Dy360 O363 2.307 . S
Dy360 O365 2.395 1_565 S
Dy360 O366 2.379 . S
Dy360 O368 2.339 . S
Dy360 O370 2.298 . S
Dy360 O374 2.275 1_565 S
Dy360 C382 2.738 . S
Dy361 O364 2.298 . S
Dy361 O367 2.275 1_545 S
Dy361 O369 2.307 . S
Dy361 O371 2.395 1_545 S
Dy361 O372 2.379 . S
Dy361 O375 2.339 . S
Dy361 C391 2.738 . S
C362 O374 1.254 . S
C362 O375 1.257 . S
O363 Dy360 2.307 . S
O363 C373 1.266 . S
O364 Dy361 2.298 . S
O364 C373 1.236 1_545 S
O365 Dy360 2.395 1_545 S
O365 C382 1.255 1_545 S
O366 Dy360 2.379 . S
O366 C382 1.249 . S
O367 Dy361 2.275 1_565 S
O367 C383 1.254 . S
O368 Dy360 2.339 . S
O368 C383 1.257 . S
O369 Dy361 2.307 . S
O369 C384 1.266 . S
O370 Dy360 2.298 . S
O370 C384 1.236 1_565 S
O371 Dy361 2.395 1_565 S
O371 C391 1.255 1_565 S
O372 Dy361 2.379 . S
O372 C391 1.249 . S
C373 O363 1.266 . S
C373 O364 1.236 1_565 S
O374 Dy360 2.275 1_545 S
O374 C362 1.254 . S
O375 Dy361 2.339 . S
O375 C362 1.257 . S
C376 C379 1.344 1_565 S
C376 C380 1.328 . S
C376 C382 1.516 . S
C377 C378 1.314 . S
C377 C381 1.323 . S
C378 C377 1.314 . S
C378 C379 1.369 1_565 S
C378 H392 0.921 1_565 S
C379 C376 1.344 1_545 S
C379 C378 1.369 1_545 S
C379 H393 0.931 . S
C380 C376 1.328 . S
C380 C381 1.433 . S
C380 H394 0.931 . S
C381 C377 1.323 . S
C381 C380 1.433 . S
C381 H395 0.933 . S
C382 Dy360 2.738 . S
C382 O365 1.255 1_565 S
C382 O366 1.249 . S
C382 C376 1.516 . S
C383 O367 1.254 . S
C383 O368 1.257 . S
C384 O369 1.266 . S
C384 O370 1.236 1_545 S
C385 C388 1.310 1_545 S
C385 C389 1.328 . S
C385 C391 1.516 . S
C386 C387 1.325 . S
C386 C390 1.323 . S
C387 C386 1.325 . S
C387 C388 1.364 1_545 S
C387 H396 0.912 1_545 S
C388 C385 1.310 1_565 S
C388 C387 1.364 1_565 S
C388 H397 0.972 . S
C389 C385 1.328 . S
C389 C390 1.433 . S
C389 H398 0.931 . S
C390 C386 1.323 . S
C390 C389 1.433 . S
C390 H399 0.933 . S
C391 Dy361 2.738 . S
C391 O371 1.255 1_545 S
C391 O372 1.249 . S
C391 C385 1.516 . S
H392 C378 0.921 1_545 S
H393 C379 0.931 . S
H394 C380 0.931 . S
H395 C381 0.933 . S
H396 C387 0.912 1_565 S
H397 C388 0.972 . S
H398 C389 0.931 . S
H399 C390 0.933 . S
Dy400 O403 2.307 . S
Dy400 O405 2.395 . S
Dy400 O406 2.379 . S
Dy400 O408 2.339 . S
Dy400 O410 2.298 . S
Dy400 O414 2.275 . S
Dy400 C422 2.738 . S
Dy401 O404 2.298 . S
Dy401 O407 2.275 . S
Dy401 O409 2.307 . S
Dy401 O411 2.395 . S
Dy401 O412 2.379 . S
Dy401 O415 2.339 . S
Dy401 C431 2.738 . S
C402 O414 1.254 . S
C402 O415 1.257 . S
O403 Dy400 2.307 . S
O403 C413 1.266 . S
O404 Dy401 2.298 . S
O404 C413 1.236 . S
O405 Dy400 2.395 . S
O405 C422 1.255 . S
O406 Dy400 2.379 . S
O406 C422 1.249 . S
O407 Dy401 2.275 . S
O407 C423 1.254 . S
O408 Dy400 2.339 . S
O408 C423 1.257 . S
O409 Dy401 2.307 . S
O409 C424 1.266 . S
O410 Dy400 2.298 . S
O410 C424 1.236 . S
O411 Dy401 2.395 . S
O411 C431 1.255 . S
O412 Dy401 2.379 . S
O412 C431 1.249 . S
C413 O403 1.266 . S
C413 O404 1.236 . S
O414 Dy400 2.275 . S
O414 C402 1.254 . S
O415 Dy401 2.339 . S
O415 C402 1.257 . S
C416 C419 1.344 . S
C416 C420 1.328 . S
C416 C422 1.516 . S
C417 C418 1.304 . S
C417 C421 1.323 . S
C418 C417 1.304 . S
C418 C419 1.371 . S
C418 H432 0.930 . S
C419 C416 1.344 . S
C419 C418 1.371 . S
C419 H433 0.931 . S
C420 C416 1.328 . S
C420 C421 1.433 . S
C420 H434 0.931 . S
C421 C417 1.323 . S
C421 C420 1.433 . S
C421 H435 0.933 . S
C422 Dy400 2.738 . S
C422 O405 1.255 . S
C422 O406 1.249 . S
C422 C416 1.516 . S
C423 O407 1.254 . S
C423 O408 1.257 . S
C424 O409 1.266 . S
C424 O410 1.236 . S
C425 C428 1.344 . S
C425 C429 1.328 . S
C425 C431 1.516 . S
C426 C427 1.304 . S
C426 C430 1.323 . S
C427 C426 1.304 . S
C427 C428 1.371 . S
C427 H436 0.930 . S
C428 C425 1.344 . S
C428 C427 1.371 . S
C428 H437 0.931 . S
C429 C425 1.328 . S
C429 C430 1.433 . S
C429 H438 0.931 . S
C430 C426 1.323 . S
C430 C429 1.433 . S
C430 H439 0.933 . S
C431 Dy401 2.738 . S
C431 O411 1.255 . S
C431 O412 1.249 . S
C431 C425 1.516 . S
H432 C418 0.930 . S
H433 C419 0.931 . S
H434 C420 0.931 . S
H435 C421 0.933 . S
H436 C427 0.930 . S
H437 C428 0.931 . S
H438 C429 0.931 . S
H439 C430 0.933 . S
Dy440 O443 2.307 1_455 S
Dy440 O445 2.395 . S
Dy440 O446 2.379 . S
Dy440 O448 2.339 . S
Dy440 O450 2.298 . S
Dy440 O454 2.275 . S
Dy440 C462 2.738 . S
Dy441 O444 2.298 . S
Dy441 O447 2.268 1_655 S
Dy441 O449 2.307 1_655 S
Dy441 O451 2.395 . S
Dy441 O452 2.379 . S
Dy441 O455 2.339 . S
Dy441 C471 2.738 . S
C442 O454 1.254 . S
C442 O455 1.257 1_455 S
O443 Dy440 2.307 1_655 S
O443 C453 1.266 . S
O444 Dy441 2.298 . S
O444 C453 1.236 . S
O445 Dy440 2.395 . S
O445 C462 1.255 . S
O446 Dy440 2.379 . S
O446 C462 1.249 . S
O447 Dy441 2.268 1_455 S
O447 C463 1.260 . S
O448 Dy440 2.339 . S
O448 C463 1.257 . S
O449 Dy441 2.307 1_455 S
O449 C464 1.266 . S
O450 Dy440 2.298 . S
O450 C464 1.236 . S
O451 Dy441 2.395 . S
O451 C471 1.255 . S
O452 Dy441 2.379 . S
O452 C471 1.249 . S
C453 O443 1.266 . S
C453 O444 1.236 . S
O454 Dy440 2.275 . S
O454 C442 1.254 . S
O455 Dy441 2.339 . S
O455 C442 1.257 1_655 S
C456 C459 1.344 . S
C456 C460 1.328 . S
C456 C462 1.516 . S
C457 C458 1.304 . S
C457 C461 1.323 . S
C458 C457 1.304 . S
C458 C459 1.371 . S
C458 H472 0.930 . S
C459 C456 1.344 . S
C459 C458 1.371 . S
C459 H473 0.931 . S
C460 C456 1.328 . S
C460 C461 1.433 . S
C460 H474 0.931 . S
C461 C457 1.323 . S
C461 C460 1.433 . S
C461 H475 0.933 . S
C462 Dy440 2.738 . S
C462 O445 1.255 . S
C462 O446 1.249 . S
C462 C456 1.516 . S
C463 O447 1.260 . S
C463 O448 1.257 . S
C464 O449 1.266 . S
C464 O450 1.236 . S
C465 C468 1.344 . S
C465 C469 1.328 . S
C465 C471 1.516 . S
C466 C467 1.304 . S
C466 C470 1.323 . S
C467 C466 1.304 . S
C467 C468 1.371 . S
C467 H476 0.930 . S
C468 C465 1.344 . S
C468 C467 1.371 . S
C468 H477 0.931 . S
C469 C465 1.328 . S
C469 C470 1.433 . S
C469 H478 0.931 . S
C470 C466 1.323 . S
C470 C469 1.433 . S
C470 H479 0.933 . S
C471 Dy441 2.738 . S
C471 O451 1.255 . S
C471 O452 1.249 . S
C471 C465 1.516 . S
H472 C458 0.930 . S
H473 C459 0.931 . S
H474 C460 0.931 . S
H475 C461 0.933 . S
H476 C467 0.930 . S
H477 C468 0.931 . S
H478 C469 0.931 . S
H479 C470 0.933 . S
C480 C481 1.391 . S
C480 C482 1.394 . S
C480 H496 0.931 . S
C481 C480 1.391 . S
C481 C485 1.376 1_545 S
C482 C480 1.394 . S
C482 C483 1.369 . S
C482 C486 1.531 . S
C483 C482 1.369 . S
C483 C484 1.410 1_545 S
C483 C491 1.503 . S
C484 C483 1.410 1_565 S
C484 C485 1.392 . S
C484 C487 1.511 . S
C485 C481 1.376 1_565 S
C485 C484 1.392 . S
C485 H497 0.929 . S
C486 C482 1.531 . S
C486 H498 0.960 . S
C486 H499 0.962 . S
C486 H500 0.960 . S
C487 C484 1.511 . S
C487 H501 0.961 . S
C487 H502 0.961 . S
C487 H503 0.966 . S
C488 C489 1.339 1_565 S
C488 C490 1.363 . S
C488 H504 0.931 . S
C489 C488 1.339 1_545 S
C489 C493 1.448 . S
C490 C488 1.363 . S
C490 C491 1.370 1_565 S
C490 C494 1.524 . S
C491 C483 1.503 . S
C491 C490 1.370 1_545 S
C491 C492 1.403 . S
C492 C491 1.403 . S
C492 C493 1.404 . S
C492 C495 1.539 . S
C493 C489 1.448 . S
C493 C492 1.404 . S
C493 H505 0.930 . S
C494 C490 1.524 . S
C494 H506 0.956 . S
C494 H507 0.961 . S
C494 H508 0.961 . S
C495 C492 1.539 . S
C495 H509 0.958 . S
C495 H510 0.961 . S
C495 H511 0.960 . S
H496 C480 0.931 . S
H497 C485 0.929 . S
H498 C486 0.960 . S
H499 C486 0.962 . S
H500 C486 0.960 . S
H501 C487 0.961 . S
H502 C487 0.961 . S
H503 C487 0.966 . S
H504 C488 0.931 . S
H505 C493 0.930 . S
H506 C494 0.956 . S
H507 C494 0.961 . S
H508 C494 0.961 . S
H509 C495 0.958 . S
H510 C495 0.961 . S
H511 C495 0.960 . S
C512 C513 1.391 . S
C512 C514 1.394 . S
C512 H528 0.931 . S
C513 C512 1.391 . S
C513 C517 1.376 . S
C514 C512 1.394 . S
C514 C515 1.369 . S
C514 C518 1.531 . S
C515 C514 1.369 . S
C515 C516 1.410 . S
C515 C523 1.503 . S
C516 C515 1.410 . S
C516 C517 1.392 . S
C516 C519 1.511 . S
C517 C513 1.376 . S
C517 C516 1.392 . S
C517 H529 0.929 . S
C518 C514 1.531 . S
C518 H530 0.960 . S
C518 H531 0.962 . S
C518 H532 0.960 . S
C519 C516 1.511 . S
C519 H533 0.961 . S
C519 H534 0.961 . S
C519 H535 0.961 . S
C520 C521 1.370 . S
C520 C522 1.363 . S
C520 H536 0.931 . S
C521 C520 1.370 . S
C521 C525 1.408 . S
C522 C520 1.363 . S
C522 C523 1.370 . S
C522 C526 1.524 . S
C523 C515 1.503 . S
C523 C522 1.370 . S
C523 C524 1.403 . S
C524 C523 1.403 . S
C524 C525 1.404 . S
C524 C527 1.539 . S
C525 C521 1.408 . S
C525 C524 1.404 . S
C525 H537 0.930 . S
C526 C522 1.524 . S
C526 H538 0.956 . S
C526 H539 0.961 . S
C526 H540 0.961 . S
C527 C524 1.539 . S
C527 H541 0.958 . S
C527 H542 0.961 . S
C527 H543 0.960 . S
H528 C512 0.931 . S
H529 C517 0.929 . S
H530 C518 0.960 . S
H531 C518 0.962 . S
H532 C518 0.960 . S
H533 C519 0.961 . S
H534 C519 0.961 . S
H535 C519 0.961 . S
H536 C520 0.931 . S
H537 C525 0.930 . S
H538 C526 0.956 . S
H539 C526 0.961 . S
H540 C526 0.961 . S
H541 C527 0.958 . S
H542 C527 0.961 . S
H543 C527 0.960 . S
C544 C545 1.391 . S
C544 C546 1.394 . S
C544 H560 0.931 . S
C545 C544 1.391 . S
C545 C549 1.376 . S
C546 C544 1.394 . S
C546 C547 1.369 . S
C546 C550 1.531 . S
C547 C546 1.369 . S
C547 C548 1.410 . S
C547 C555 1.503 . S
C548 C547 1.410 . S
C548 C549 1.392 . S
C548 C551 1.511 . S
C549 C545 1.376 . S
C549 C548 1.392 . S
C549 H561 0.929 . S
C550 C546 1.531 . S
C550 H562 0.960 . S
C550 H563 0.962 . S
C550 H564 0.960 . S
C551 C548 1.511 . S
C551 H565 0.961 . S
C551 H566 0.961 . S
C551 H567 0.961 . S
C552 C553 1.370 . S
C552 C554 1.363 . S
C552 H568 0.931 . S
C553 C552 1.370 . S
C553 C557 1.408 . S
C554 C552 1.363 . S
C554 C555 1.370 . S
C554 C558 1.524 . S
C555 C547 1.503 . S
C555 C554 1.370 . S
C555 C556 1.403 . S
C556 C555 1.403 . S
C556 C557 1.404 . S
C556 C559 1.539 . S
C557 C553 1.408 . S
C557 C556 1.404 . S
C557 H569 0.930 . S
C558 C554 1.524 . S
C558 H570 0.956 . S
C558 H571 0.961 . S
C558 H572 0.961 . S
C559 C556 1.539 . S
C559 H573 0.958 . S
C559 H574 0.961 . S
C559 H575 0.960 . S
H560 C544 0.931 . S
H561 C549 0.929 . S
H562 C550 0.960 . S
H563 C550 0.962 . S
H564 C550 0.960 . S
H565 C551 0.961 . S
H566 C551 0.961 . S
H567 C551 0.961 . S
H568 C552 0.931 . S
H569 C557 0.930 . S
H570 C558 0.956 . S
H571 C558 0.961 . S
H572 C558 0.961 . S
H573 C559 0.958 . S
H574 C559 0.961 . S
H575 C559 0.960 . S
C576 C577 1.391 . S
C576 C578 1.394 . S
C576 H592 0.931 . S
C577 C576 1.391 . S
C577 C581 1.376 1_455 S
C578 C576 1.394 . S
C578 C579 1.369 . S
C578 C582 1.531 . S
C579 C578 1.369 . S
C579 C580 1.410 1_455 S
C579 C587 1.503 . S
C580 C579 1.410 1_655 S
C580 C581 1.392 . S
C580 C583 1.511 . S
C581 C577 1.376 1_655 S
C581 C580 1.392 . S
C581 H593 0.929 . S
C582 C578 1.531 . S
C582 H594 0.960 . S
C582 H595 0.962 . S
C582 H596 0.960 . S
C583 C580 1.511 . S
C583 H597 0.961 . S
C583 H598 0.961 . S
C583 H599 0.961 . S
C584 C585 1.370 . S
C584 C586 1.363 . S
C584 H600 0.931 . S
C585 C584 1.370 . S
C585 C589 1.408 . S
C586 C584 1.363 . S
C586 C587 1.370 . S
C586 C590 1.524 . S
C587 C579 1.503 . S
C587 C586 1.370 . S
C587 C588 1.403 . S
C588 C587 1.403 . S
C588 C589 1.404 . S
C588 C591 1.539 1_455 S
C589 C585 1.408 . S
C589 C588 1.404 . S
C589 H601 0.927 1_455 S
C590 C586 1.524 . S
C590 H602 0.956 . S
C590 H603 0.961 . S
C590 H604 0.961 . S
C591 C588 1.539 1_655 S
C591 H605 0.958 1_655 S
C591 H606 0.961 . S
C591 H607 0.960 . S
H592 C576 0.931 . S
H593 C581 0.929 . S
H594 C582 0.960 . S
H595 C582 0.962 . S
H596 C582 0.960 . S
H597 C583 0.961 . S
H598 C583 0.961 . S
H599 C583 0.961 . S
H600 C584 0.931 . S
H601 C589 0.927 1_655 S
H602 C590 0.956 . S
H603 C590 0.961 . S
H604 C590 0.961 . S
H605 C591 0.958 1_455 S
H606 C591 0.961 . S
H607 C591 0.960 . S
C608 C609 1.391 . S
C608 C610 1.394 1_554 S
C608 H624 0.931 . S
C609 C608 1.391 . S
C609 C613 1.376 1_545 S
C610 C608 1.394 1_556 S
C610 C611 1.369 . S
C610 C614 1.531 . S
C611 C610 1.369 . S
C611 C612 1.410 1_546 S
C611 C619 1.503 . S
C612 C611 1.410 1_564 S
C612 C613 1.392 . S
C612 C615 1.511 . S
C613 C609 1.376 1_565 S
C613 C612 1.392 . S
C613 H625 0.929 . S
C614 C610 1.531 . S
C614 H626 0.960 . S
C614 H627 0.962 . S
C614 H628 0.960 . S
C615 C612 1.511 . S
C615 H629 0.961 . S
C615 H630 0.961 . S
C615 H631 0.961 1_565 S
C616 C617 1.338 1_565 S
C616 C618 1.363 . S
C616 H632 0.931 . S
C617 C616 1.338 1_545 S
C617 C621 1.441 . S
C618 C616 1.363 . S
C618 C619 1.370 1_565 S
C618 C622 1.524 . S
C619 C611 1.503 . S
C619 C618 1.370 1_545 S
C619 C620 1.403 . S
C620 C619 1.403 . S
C620 C621 1.404 . S
C620 C623 1.539 . S
C621 C617 1.441 . S
C621 C620 1.404 . S
C621 H633 0.930 . S
C622 C618 1.524 . S
C622 H634 0.956 . S
C622 H635 0.961 . S
C622 H636 0.961 . S
C623 C620 1.539 . S
C623 H637 0.958 . S
C623 H638 0.961 . S
C623 H639 0.960 . S
H624 C608 0.931 . S
H625 C613 0.929 . S
H626 C614 0.960 . S
H627 C614 0.962 . S
H628 C614 0.960 . S
H629 C615 0.961 . S
H630 C615 0.961 . S
H631 C615 0.961 1_545 S
H632 C616 0.931 . S
H633 C621 0.930 . S
H634 C622 0.956 . S
H635 C622 0.961 . S
H636 C622 0.961 . S
H637 C623 0.958 . S
H638 C623 0.961 . S
H639 C623 0.960 . S
C640 C641 1.391 . S
C640 C642 1.394 . S
C640 H656 0.931 . S
C641 C640 1.391 . S
C641 C645 1.376 . S
C642 C640 1.394 . S
C642 C643 1.369 . S
C642 C646 1.531 . S
C643 C642 1.369 . S
C643 C644 1.410 . S
C643 C651 1.503 . S
C644 C643 1.410 . S
C644 C645 1.392 . S
C644 C647 1.511 . S
C645 C641 1.376 . S
C645 C644 1.392 . S
C645 H657 0.929 . S
C646 C642 1.531 . S
C646 H658 0.960 . S
C646 H659 0.962 . S
C646 H660 0.960 . S
C647 C644 1.511 . S
C647 H661 0.961 . S
C647 H662 0.961 . S
C647 H663 0.961 . S
C648 C649 1.370 . S
C648 C650 1.363 . S
C648 H664 0.931 . S
C649 C648 1.370 . S
C649 C653 1.408 . S
C650 C648 1.363 . S
C650 C651 1.370 . S
C650 C654 1.524 . S
C651 C643 1.503 . S
C651 C650 1.370 . S
C651 C652 1.403 . S
C652 C651 1.403 . S
C652 C653 1.404 . S
C652 C655 1.539 . S
C653 C649 1.408 . S
C653 C652 1.404 . S
C653 H665 0.930 . S
C654 C650 1.524 . S
C654 H666 0.956 . S
C654 H667 0.961 . S
C654 H668 0.961 . S
C655 C652 1.539 . S
C655 H669 0.958 . S
C655 H670 0.961 . S
C655 H671 0.960 . S
H656 C640 0.931 . S
H657 C645 0.929 . S
H658 C646 0.960 . S
H659 C646 0.962 . S
H660 C646 0.960 . S
H661 C647 0.961 . S
H662 C647 0.961 . S
H663 C647 0.961 . S
H664 C648 0.931 . S
H665 C653 0.930 . S
H666 C654 0.956 . S
H667 C654 0.961 . S
H668 C654 0.961 . S
H669 C655 0.958 . S
H670 C655 0.961 . S
H671 C655 0.960 . S
C672 C673 1.391 . S
C672 C674 1.394 . S
C672 H688 0.931 . S
C673 C672 1.391 . S
C673 C677 1.376 . S
C674 C672 1.394 . S
C674 C675 1.369 . S
C674 C678 1.531 . S
C675 C674 1.369 . S
C675 C676 1.410 . S
C675 C683 1.503 . S
C676 C675 1.410 . S
C676 C677 1.392 . S
C676 C679 1.511 . S
C677 C673 1.376 . S
C677 C676 1.392 . S
C677 H689 0.929 . S
C678 C674 1.531 . S
C678 H690 0.960 . S
C678 H691 0.962 . S
C678 H692 0.960 . S
C679 C676 1.511 . S
C679 H693 0.961 . S
C679 H694 0.961 . S
C679 H695 0.961 . S
C680 C681 1.370 1_554 S
C680 C682 1.363 . S
C680 H696 0.931 1_554 S
C681 C680 1.370 1_556 S
C681 C685 1.408 1_556 S
C682 C680 1.363 . S
C682 C683 1.370 . S
C682 C686 1.524 . S
C683 C675 1.503 . S
C683 C682 1.370 . S
C683 C684 1.403 . S
C684 C683 1.403 . S
C684 C685 1.404 . S
C684 C687 1.539 . S
C685 C681 1.408 1_554 S
C685 C684 1.404 . S
C685 H697 0.930 . S
C686 C682 1.524 . S
C686 H698 0.956 . S
C686 H699 0.961 . S
C686 H700 0.961 . S
C687 C684 1.539 . S
C687 H701 0.958 . S
C687 H702 0.961 . S
C687 H703 0.960 . S
H688 C672 0.931 . S
H689 C677 0.929 . S
H690 C678 0.960 . S
H691 C678 0.962 . S
H692 C678 0.960 . S
H693 C679 0.961 . S
H694 C679 0.961 . S
H695 C679 0.961 . S
H696 C680 0.931 1_556 S
H697 C685 0.930 . S
H698 C686 0.956 . S
H699 C686 0.961 . S
H700 C686 0.961 . S
H701 C687 0.958 . S
H702 C687 0.961 . S
H703 C687 0.960 . S
C704 C705 1.391 . S
C704 C706 1.394 . S
C704 H720 0.931 . S
C705 C704 1.391 . S
C705 C709 1.376 1_655 S
C706 C704 1.394 . S
C706 C707 1.369 . S
C706 C710 1.531 . S
C707 C706 1.369 . S
C707 C708 1.410 1_655 S
C707 C715 1.503 1_554 S
C708 C707 1.410 1_455 S
C708 C709 1.392 . S
C708 C711 1.511 . S
C709 C705 1.376 1_455 S
C709 C708 1.392 . S
C709 H721 0.929 . S
C710 C706 1.531 . S
C710 H722 0.960 1_554 S
C710 H723 0.962 . S
C710 H724 0.960 . S
C711 C708 1.511 . S
C711 H725 0.961 . S
C711 H726 0.961 . S
C711 H727 0.961 . S
C712 C713 1.369 . S
C712 C714 1.363 . S
C712 H728 0.931 . S
C713 C712 1.369 . S
C713 C717 1.410 1_655 S
C714 C712 1.363 . S
C714 C715 1.370 . S
C714 C718 1.524 1_556 S
C715 C707 1.503 1_556 S
C715 C714 1.370 . S
C715 C716 1.403 1_655 S
C716 C715 1.403 1_455 S
C716 C717 1.404 . S
C716 C719 1.539 . S
C717 C713 1.410 1_455 S
C717 C716 1.404 . S
C717 H729 0.930 . S
C718 C714 1.524 1_554 S
C718 H730 0.956 . S
C718 H731 0.961 . S
C718 H732 0.961 1_554 S
C719 C716 1.539 . S
C719 H733 0.958 . S
C719 H734 0.961 . S
C719 H735 0.960 . S
H720 C704 0.931 . S
H721 C709 0.929 . S
H722 C710 0.960 1_556 S
H723 C710 0.962 . S
H724 C710 0.960 . S
H725 C711 0.961 . S
H726 C711 0.961 . S
H727 C711 0.961 . S
H728 C712 0.931 . S
H729 C717 0.930 . S
H730 C718 0.956 . S
H731 C718 0.961 . S
H732 C718 0.961 1_556 S
H733 C719 0.958 . S
H734 C719 0.961 . S
H735 C719 0.960 . S
C736 C737 1.391 . S
C736 C738 1.394 . S
C736 H752 0.931 . S
C737 C736 1.391 . S
C737 C741 1.376 . S
C738 C736 1.394 . S
C738 C739 1.369 . S
C738 C742 1.531 . S
C739 C738 1.369 . S
C739 C740 1.410 1_455 S
C739 C747 1.501 1_455 S
C740 C739 1.410 1_655 S
C740 C741 1.392 1_655 S
C740 C743 1.511 . S
C741 C737 1.376 . S
C741 C740 1.392 1_455 S
C741 H753 0.929 1_455 S
C742 C738 1.531 . S
C742 H754 0.960 . S
C742 H755 0.962 . S
C742 H756 0.960 . S
C743 C740 1.511 . S
C743 H757 0.961 . S
C743 H758 0.961 . S
C743 H759 0.961 . S
C744 C745 1.370 . S
C744 C746 1.363 . S
C744 H760 0.931 . S
C745 C744 1.370 . S
C745 C749 1.408 . S
C746 C744 1.363 . S
C746 C747 1.373 . S
C746 C750 1.524 . S
C747 C739 1.501 1_655 S
C747 C746 1.373 . S
C747 C748 1.403 . S
C748 C747 1.403 . S
C748 C749 1.404 . S
C748 C751 1.527 1_655 S
C749 C745 1.408 . S
C749 C748 1.404 . S
C749 H761 0.930 . S
C750 C746 1.524 . S
C750 H762 0.956 1_655 S
C750 H763 0.961 . S
C750 H764 0.961 . S
C751 C748 1.527 1_455 S
C751 H765 0.999 . S
C751 H766 0.939 1_455 S
C751 H767 0.952 1_455 S
H752 C736 0.931 . S
H753 C741 0.929 1_655 S
H754 C742 0.960 . S
H755 C742 0.962 . S
H756 C742 0.960 . S
H757 C743 0.961 . S
H758 C743 0.961 . S
H759 C743 0.961 . S
H760 C744 0.931 . S
H761 C749 0.930 . S
H762 C750 0.956 1_455 S
H763 C750 0.961 . S
H764 C750 0.961 . S
H765 C751 0.999 . S
H766 C751 0.939 1_655 S
H767 C751 0.952 1_655 S
C768 C769 1.391 1_565 S
C768 C770 1.394 . S
C768 H784 0.931 . S
C769 C768 1.391 1_545 S
C769 C773 1.376 . S
C770 C768 1.394 . S
C770 C771 1.369 . S
C770 C774 1.531 . S
C771 C770 1.369 . S
C771 C772 1.410 1_565 S
C771 C779 1.503 . S
C772 C771 1.410 1_545 S
C772 C773 1.392 . S
C772 C775 1.511 . S
C773 C769 1.376 . S
C773 C772 1.392 . S
C773 H785 0.929 . S
C774 C770 1.531 . S
C774 H786 0.960 . S
C774 H787 0.962 . S
C774 H788 0.960 . S
C775 C772 1.511 . S
C775 H789 0.961 . S
C775 H790 0.961 . S
C775 H791 0.961 . S
C776 C777 1.370 . S
C776 C778 1.363 . S
C776 H792 0.931 . S
C777 C776 1.370 . S
C777 C781 1.408 . S
C778 C776 1.363 . S
C778 C779 1.370 . S
C778 C782 1.524 . S
C779 C771 1.503 . S
C779 C778 1.370 . S
C779 C780 1.386 1_565 S
C780 C779 1.386 1_545 S
C780 C781 1.399 1_545 S
C780 C783 1.563 . S
C781 C777 1.408 . S
C781 C780 1.399 1_565 S
C781 H793 0.930 1_565 S
C782 C778 1.524 . S
C782 H794 0.956 . S
C782 H795 0.961 . S
C782 H796 0.961 . S
C783 C780 1.563 . S
C783 H797 0.958 . S
C783 H798 0.961 . S
C783 H799 0.960 . S
H784 C768 0.931 . S
H785 C773 0.929 . S
H786 C774 0.960 . S
H787 C774 0.962 . S
H788 C774 0.960 . S
H789 C775 0.961 . S
H790 C775 0.961 . S
H791 C775 0.961 . S
H792 C776 0.931 . S
H793 C781 0.930 1_545 S
H794 C782 0.956 . S
H795 C782 0.961 . S
H796 C782 0.961 . S
H797 C783 0.958 . S
H798 C783 0.961 . S
H799 C783 0.960 . S
C800 C801 1.391 . S
C800 C802 1.394 . S
C800 H816 0.931 . S
C801 C800 1.391 . S
C801 C805 1.376 . S
C802 C800 1.394 . S
C802 C803 1.369 . S
C802 C806 1.531 . S
C803 C802 1.369 . S
C803 C804 1.410 . S
C803 C811 1.503 . S
C804 C803 1.410 . S
C804 C805 1.392 . S
C804 C807 1.511 . S
C805 C801 1.376 . S
C805 C804 1.392 . S
C805 H817 0.929 . S
C806 C802 1.531 . S
C806 H818 0.960 . S
C806 H819 0.962 . S
C806 H820 0.960 . S
C807 C804 1.511 . S
C807 H821 0.961 . S
C807 H822 0.961 . S
C807 H823 0.961 . S
C808 C809 1.370 . S
C808 C810 1.363 . S
C808 H824 0.931 . S
C809 C808 1.370 . S
C809 C813 1.408 . S
C810 C808 1.363 . S
C810 C811 1.370 . S
C810 C814 1.524 . S
C811 C803 1.503 . S
C811 C810 1.370 . S
C811 C812 1.403 . S
C812 C811 1.403 . S
C812 C813 1.404 . S
C812 C815 1.539 . S
C813 C809 1.408 . S
C813 C812 1.404 . S
C813 H825 0.930 . S
C814 C810 1.524 . S
C814 H826 0.956 . S
C814 H827 0.961 . S
C814 H828 0.961 . S
C815 C812 1.539 . S
C815 H829 0.958 . S
C815 H830 0.961 . S
C815 H831 0.960 . S
H816 C800 0.931 . S
H817 C805 0.929 . S
H818 C806 0.960 . S
H819 C806 0.962 . S
H820 C806 0.960 . S
H821 C807 0.961 . S
H822 C807 0.961 . S
H823 C807 0.961 . S
H824 C808 0.931 . S
H825 C813 0.930 . S
H826 C814 0.956 . S
H827 C814 0.961 . S
H828 C814 0.961 . S
H829 C815 0.958 . S
H830 C815 0.961 . S
H831 C815 0.960 . S
C832 C833 1.391 . S
C832 C834 1.394 . S
C832 H848 0.931 . S
C833 C832 1.391 . S
C833 C837 1.376 . S
C834 C832 1.394 . S
C834 C835 1.369 . S
C834 C838 1.531 . S
C835 C834 1.369 . S
C835 C836 1.410 . S
C835 C843 1.503 . S
C836 C835 1.410 . S
C836 C837 1.392 . S
C836 C839 1.511 . S
C837 C833 1.376 . S
C837 C836 1.392 . S
C837 H849 0.929 . S
C838 C834 1.531 . S
C838 H850 0.960 . S
C838 H851 0.962 . S
C838 H852 0.960 . S
C839 C836 1.511 . S
C839 H853 0.961 . S
C839 H854 0.961 . S
C839 H855 0.961 . S
C840 C841 1.370 . S
C840 C842 1.363 . S
C840 H856 0.931 . S
C841 C840 1.370 . S
C841 C845 1.408 . S
C842 C840 1.363 . S
C842 C843 1.370 . S
C842 C846 1.524 . S
C843 C835 1.503 . S
C843 C842 1.370 . S
C843 C844 1.403 . S
C844 C843 1.403 . S
C844 C845 1.404 . S
C844 C847 1.539 . S
C845 C841 1.408 . S
C845 C844 1.404 . S
C845 H857 0.930 . S
C846 C842 1.524 . S
C846 H858 0.956 . S
C846 H859 0.961 . S
C846 H860 0.961 . S
C847 C844 1.539 . S
C847 H861 0.958 . S
C847 H862 0.961 . S
C847 H863 0.960 . S
H848 C832 0.931 . S
H849 C837 0.929 . S
H850 C838 0.960 . S
H851 C838 0.962 . S
H852 C838 0.960 . S
H853 C839 0.961 . S
H854 C839 0.961 . S
H855 C839 0.961 . S
H856 C840 0.931 . S
H857 C845 0.930 . S
H858 C846 0.956 . S
H859 C846 0.961 . S
H860 C846 0.961 . S
H861 C847 0.958 . S
H862 C847 0.961 . S
H863 C847 0.960 . S
C864 C865 1.391 . S
C864 C866 1.391 1_654 S
C864 H880 0.931 1_655 S
C865 C864 1.391 . S
C865 C869 1.376 . S
C866 C864 1.391 1_456 S
C866 C867 1.368 1_456 S
C866 C870 1.534 . S
C867 C866 1.368 1_654 S
C867 C868 1.410 . S
C867 C875 1.503 1_654 S
C868 C867 1.410 . S
C868 C869 1.392 . S
C868 C871 1.511 . S
C869 C865 1.376 . S
C869 C868 1.392 . S
C869 H881 0.929 . S
C870 C866 1.534 . S
C870 H882 0.960 . S
C870 H883 0.962 . S
C870 H884 0.960 . S
C871 C868 1.511 . S
C871 H885 0.961 . S
C871 H886 0.961 . S
C871 H887 0.961 . S
C872 C873 1.370 . S
C872 C874 1.363 . S
C872 H888 0.931 . S
C873 C872 1.370 . S
C873 C877 1.408 . S
C874 C872 1.363 . S
C874 C875 1.370 . S
C874 C878 1.524 1_556 S
C875 C867 1.503 1_456 S
C875 C874 1.370 . S
C875 C876 1.403 1_455 S
C876 C875 1.403 1_655 S
C876 C877 1.404 1_655 S
C876 C879 1.539 . S
C877 C873 1.408 . S
C877 C876 1.404 1_455 S
C877 H889 0.902 1_455 S
C878 C874 1.524 1_554 S
C878 H890 0.956 . S
C878 H891 0.961 . S
C878 H892 0.961 . S
C879 C876 1.539 . S
C879 H893 0.958 . S
C879 H894 0.961 . S
C879 H895 0.960 . S
H880 C864 0.931 1_455 S
H881 C869 0.929 . S
H882 C870 0.960 . S
H883 C870 0.962 . S
H884 C870 0.960 . S
H885 C871 0.961 . S
H886 C871 0.961 . S
H887 C871 0.961 . S
H888 C872 0.931 . S
H889 C877 0.902 1_655 S
H890 C878 0.956 . S
H891 C878 0.961 . S
H892 C878 0.961 . S
H893 C879 0.958 . S
H894 C879 0.961 . S
H895 C879 0.960 . S
C896 C897 1.391 1_546 S
C896 C898 1.394 . S
C896 H912 0.931 . S
C897 C896 1.391 1_564 S
C897 C901 1.376 . S
C898 C896 1.394 . S
C898 C899 1.369 . S
C898 C902 1.531 . S
C899 C898 1.369 . S
C899 C900 1.410 1_546 S
C899 C907 1.503 . S
C900 C899 1.410 1_564 S
C900 C901 1.392 . S
C900 C903 1.511 . S
C901 C897 1.376 . S
C901 C900 1.392 . S
C901 H913 0.929 . S
C902 C898 1.531 . S
C902 H914 0.960 . S
C902 H915 0.962 . S
C902 H916 0.960 . S
C903 C900 1.511 . S
C903 H917 0.961 . S
C903 H918 0.961 . S
C903 H919 0.961 . S
C904 C905 1.370 . S
C904 C906 1.363 . S
C904 H920 0.931 . S
C905 C904 1.370 . S
C905 C909 1.408 . S
C906 C904 1.363 . S
C906 C907 1.370 . S
C906 C910 1.524 1_556 S
C907 C899 1.503 . S
C907 C906 1.370 . S
C907 C908 1.403 1_545 S
C908 C907 1.403 1_565 S
C908 C909 1.404 1_565 S
C908 C911 1.539 . S
C909 C905 1.408 . S
C909 C908 1.404 1_545 S
C909 H921 0.930 1_545 S
C910 C906 1.524 1_554 S
C910 H922 0.956 . S
C910 H923 0.961 . S
C910 H924 0.961 . S
C911 C908 1.539 . S
C911 H925 0.958 . S
C911 H926 0.961 . S
C911 H927 0.960 . S
H912 C896 0.931 . S
H913 C901 0.929 . S
H914 C902 0.960 . S
H915 C902 0.962 . S
H916 C902 0.960 . S
H917 C903 0.961 . S
H918 C903 0.961 . S
H919 C903 0.961 . S
H920 C904 0.931 . S
H921 C909 0.930 1_565 S
H922 C910 0.956 . S
H923 C910 0.961 . S
H924 C910 0.961 . S
H925 C911 0.958 . S
H926 C911 0.961 . S
H927 C911 0.960 . S
C928 C929 1.391 . S
C928 C930 1.394 . S
C928 H944 0.931 . S
C929 C928 1.391 . S
C929 C933 1.376 . S
C930 C928 1.394 . S
C930 C931 1.369 . S
C930 C934 1.531 . S
C931 C930 1.369 . S
C931 C932 1.410 . S
C931 C939 1.503 . S
C932 C931 1.410 . S
C932 C933 1.392 . S
C932 C935 1.511 . S
C933 C929 1.376 . S
C933 C932 1.392 . S
C933 H945 0.929 . S
C934 C930 1.531 . S
C934 H946 0.960 . S
C934 H947 0.962 . S
C934 H948 0.960 . S
C935 C932 1.511 . S
C935 H949 0.961 . S
C935 H950 0.961 . S
C935 H951 0.961 . S
C936 C937 1.370 . S
C936 C938 1.363 . S
C936 H952 0.931 . S
C937 C936 1.370 . S
C937 C941 1.408 . S
C938 C936 1.363 . S
C938 C939 1.370 . S
C938 C942 1.524 . S
C939 C931 1.503 . S
C939 C938 1.370 . S
C939 C940 1.403 . S
C940 C939 1.403 . S
C940 C941 1.404 . S
C940 C943 1.539 . S
C941 C937 1.408 . S
C941 C940 1.404 . S
C941 H953 0.930 . S
C942 C938 1.524 . S
C942 H954 0.956 . S
C942 H955 0.961 . S
C942 H956 0.961 . S
C943 C940 1.539 . S
C943 H957 0.958 . S
C943 H958 0.961 . S
C943 H959 0.960 . S
H944 C928 0.931 . S
H945 C933 0.929 . S
H946 C934 0.960 . S
H947 C934 0.962 . S
H948 C934 0.960 . S
H949 C935 0.961 . S
H950 C935 0.961 . S
H951 C935 0.961 . S
H952 C936 0.931 . S
H953 C941 0.930 . S
H954 C942 0.956 . S
H955 C942 0.961 . S
H956 C942 0.961 . S
H957 C943 0.958 . S
H958 C943 0.961 . S
H959 C943 0.960 . S
C960 C961 1.391 . S
C960 C962 1.394 . S
C960 H976 0.931 . S
C961 C960 1.391 . S
C961 C965 1.376 . S
C962 C960 1.394 . S
C962 C963 1.369 . S
C962 C966 1.531 . S
C963 C962 1.369 . S
C963 C964 1.410 . S
C963 C971 1.503 . S
C964 C963 1.410 . S
C964 C965 1.392 . S
C964 C967 1.511 . S
C965 C961 1.376 . S
C965 C964 1.392 . S
C965 H977 0.929 . S
C966 C962 1.531 . S
C966 H978 0.960 1_554 S
C966 H979 0.962 1_554 S
C966 H980 0.960 . S
C967 C964 1.511 . S
C967 H981 0.961 . S
C967 H982 0.961 . S
C967 H983 0.961 . S
C968 C969 1.370 . S
C968 C970 1.363 1_556 S
C968 H984 0.931 . S
C969 C968 1.370 . S
C969 C973 1.401 1_556 S
C970 C968 1.363 1_554 S
C970 C971 1.370 . S
C970 C974 1.524 . S
C971 C963 1.503 . S
C971 C970 1.370 . S
C971 C972 1.403 . S
C972 C971 1.403 . S
C972 C973 1.414 . S
C972 C975 1.539 . S
C973 C969 1.401 1_554 S
C973 C972 1.414 . S
C973 H985 0.928 1_554 S
C974 C970 1.524 . S
C974 H986 0.956 . S
C974 H987 0.961 . S
C974 H988 0.961 . S
C975 C972 1.539 . S
C975 H989 0.958 . S
C975 H990 0.961 . S
C975 H991 0.960 . S
H976 C960 0.931 . S
H977 C965 0.929 . S
H978 C966 0.960 1_556 S
H979 C966 0.962 1_556 S
H980 C966 0.960 . S
H981 C967 0.961 . S
H982 C967 0.961 . S
H983 C967 0.961 . S
H984 C968 0.931 . S
H985 C973 0.928 1_556 S
H986 C974 0.956 . S
H987 C974 0.961 . S
H988 C974 0.961 . S
H989 C975 0.958 . S
H990 C975 0.961 . S
H991 C975 0.960 . S
C992 C993 1.391 . S
C992 C994 1.394 . S
C992 H1008 0.931 . S
C993 C992 1.391 . S
C993 C997 1.382 1_455 S
C994 C992 1.394 . S
C994 C995 1.369 . S
C994 C998 1.531 . S
C995 C994 1.369 . S
C995 C996 1.410 1_455 S
C995 C1003 1.503 . S
C996 C995 1.410 1_655 S
C996 C997 1.391 . S
C996 C999 1.511 . S
C997 C993 1.382 1_655 S
C997 C996 1.391 . S
C997 H1009 0.924 . S
C998 C994 1.531 . S
C998 H1010 0.960 . S
C998 H1011 0.962 . S
C998 H1012 0.960 . S
C999 C996 1.511 . S
C999 H1013 0.961 . S
C999 H1014 0.961 . S
C999 H1015 0.961 . S
C1000 C1001 1.370 . S
C1000 C1002 1.363 . S
C1000 H1016 0.931 . S
C1001 C1000 1.370 . S
C1001 C1005 1.408 . S
C1002 C1000 1.363 . S
C1002 C1003 1.370 . S
C1002 C1006 1.524 . S
C1003 C995 1.503 . S
C1003 C1002 1.370 . S
C1003 C1004 1.403 . S
C1004 C1003 1.403 . S
C1004 C1005 1.404 . S
C1004 C1007 1.536 1_455 S
C1005 C1001 1.408 . S
C1005 C1004 1.404 . S
C1005 H1017 0.930 . S
C1006 C1002 1.524 . S
C1006 H1018 0.956 . S
C1006 H1019 0.961 . S
C1006 H1020 0.961 . S
C1007 C1004 1.536 1_655 S
C1007 H1021 0.947 1_655 S
C1007 H1022 0.971 . S
C1007 H1023 0.964 . S
H1008 C992 0.931 . S
H1009 C997 0.924 . S
H1010 C998 0.960 . S
H1011 C998 0.962 . S
H1012 C998 0.960 . S
H1013 C999 0.961 . S
H1014 C999 0.961 . S
H1015 C999 0.961 . S
H1016 C1000 0.931 . S
H1017 C1005 0.930 . S
H1018 C1006 0.956 . S
H1019 C1006 0.961 . S
H1020 C1006 0.961 . S
H1021 C1007 0.947 1_455 S
H1022 C1007 0.971 . S
H1023 C1007 0.964 . S
C1024 C1025 1.391 . S
C1024 C1026 1.394 . S
C1024 H1040 0.931 . S
C1025 C1024 1.391 . S
C1025 C1029 1.373 1_545 S
C1026 C1024 1.394 . S
C1026 C1027 1.369 . S
C1026 C1030 1.531 . S
C1027 C1026 1.369 . S
C1027 C1028 1.410 . S
C1027 C1035 1.503 . S
C1028 C1027 1.410 . S
C1028 C1029 1.389 1_545 S
C1028 C1031 1.511 1_545 S
C1029 C1025 1.373 1_565 S
C1029 C1028 1.389 1_565 S
C1029 H1041 0.935 . S
C1030 C1026 1.531 . S
C1030 H1042 0.960 . S
C1030 H1043 0.962 . S
C1030 H1044 0.960 . S
C1031 C1028 1.511 1_565 S
C1031 H1045 0.961 . S
C1031 H1046 0.961 . S
C1031 H1047 0.961 1_565 S
C1032 C1033 1.370 1_565 S
C1032 C1034 1.363 . S
C1032 H1048 0.931 . S
C1033 C1032 1.370 1_545 S
C1033 C1037 1.408 . S
C1034 C1032 1.363 . S
C1034 C1035 1.370 1_565 S
C1034 C1038 1.524 . S
C1035 C1027 1.503 . S
C1035 C1034 1.370 1_545 S
C1035 C1036 1.403 . S
C1036 C1035 1.403 . S
C1036 C1037 1.404 . S
C1036 C1039 1.539 . S
C1037 C1033 1.408 . S
C1037 C1036 1.404 . S
C1037 H1049 0.930 . S
C1038 C1034 1.524 . S
C1038 H1050 0.956 . S
C1038 H1051 0.961 . S
C1038 H1052 0.961 . S
C1039 C1036 1.539 . S
C1039 H1053 0.958 . S
C1039 H1054 0.961 . S
C1039 H1055 0.960 . S
H1040 C1024 0.931 . S
H1041 C1029 0.935 . S
H1042 C1030 0.960 . S
H1043 C1030 0.962 . S
H1044 C1030 0.960 . S
H1045 C1031 0.961 . S
H1046 C1031 0.961 . S
H1047 C1031 0.961 1_545 S
H1048 C1032 0.931 . S
H1049 C1037 0.930 . S
H1050 C1038 0.956 . S
H1051 C1038 0.961 . S
H1052 C1038 0.961 . S
H1053 C1039 0.958 . S
H1054 C1039 0.961 . S
H1055 C1039 0.960 . S
C1056 C1057 1.391 . S
C1056 C1058 1.394 . S
C1056 H1072 0.931 . S
C1057 C1056 1.391 . S
C1057 C1061 1.376 . S
C1058 C1056 1.394 . S
C1058 C1059 1.369 . S
C1058 C1062 1.531 . S
C1059 C1058 1.369 . S
C1059 C1060 1.410 . S
C1059 C1067 1.503 . S
C1060 C1059 1.410 . S
C1060 C1061 1.392 . S
C1060 C1063 1.511 . S
C1061 C1057 1.376 . S
C1061 C1060 1.392 . S
C1061 H1073 0.929 . S
C1062 C1058 1.531 . S
C1062 H1074 0.960 . S
C1062 H1075 0.962 . S
C1062 H1076 0.960 . S
C1063 C1060 1.511 . S
C1063 H1077 0.961 . S
C1063 H1078 0.961 . S
C1063 H1079 0.961 . S
C1064 C1065 1.370 . S
C1064 C1066 1.363 . S
C1064 H1080 0.931 . S
C1065 C1064 1.370 . S
C1065 C1069 1.408 . S
C1066 C1064 1.363 . S
C1066 C1067 1.370 . S
C1066 C1070 1.524 1_556 S
C1067 C1059 1.503 . S
C1067 C1066 1.370 . S
C1067 C1068 1.403 . S
C1068 C1067 1.403 . S
C1068 C1069 1.404 . S
C1068 C1071 1.539 . S
C1069 C1065 1.408 . S
C1069 C1068 1.404 . S
C1069 H1081 0.930 . S
C1070 C1066 1.524 1_554 S
C1070 H1082 0.956 . S
C1070 H1083 0.961 . S
C1070 H1084 0.961 . S
C1071 C1068 1.539 . S
C1071 H1085 0.958 . S
C1071 H1086 0.961 . S
C1071 H1087 0.960 . S
H1072 C1056 0.931 . S
H1073 C1061 0.929 . S
H1074 C1062 0.960 . S
H1075 C1062 0.962 . S
H1076 C1062 0.960 . S
H1077 C1063 0.961 . S
H1078 C1063 0.961 . S
H1079 C1063 0.961 . S
H1080 C1064 0.931 . S
H1081 C1069 0.930 . S
H1082 C1070 0.956 . S
H1083 C1070 0.961 . S
H1084 C1070 0.961 . S
H1085 C1071 0.958 . S
H1086 C1071 0.961 . S
H1087 C1071 0.960 . S
C1088 C1089 1.391 . S
C1088 C1090 1.394 . S
C1088 H1104 0.931 . S
C1089 C1088 1.391 . S
C1089 C1093 1.376 . S
C1090 C1088 1.394 . S
C1090 C1091 1.369 . S
C1090 C1094 1.531 . S
C1091 C1090 1.369 . S
C1091 C1092 1.410 . S
C1091 C1099 1.503 . S
C1092 C1091 1.410 . S
C1092 C1093 1.392 . S
C1092 C1095 1.511 . S
C1093 C1089 1.376 . S
C1093 C1092 1.392 . S
C1093 H1105 0.929 . S
C1094 C1090 1.531 . S
C1094 H1106 0.960 . S
C1094 H1107 0.962 . S
C1094 H1108 0.960 . S
C1095 C1092 1.511 . S
C1095 H1109 0.961 . S
C1095 H1110 0.961 . S
C1095 H1111 0.961 . S
C1096 C1097 1.370 . S
C1096 C1098 1.363 . S
C1096 H1112 0.931 . S
C1097 C1096 1.370 . S
C1097 C1101 1.408 . S
C1098 C1096 1.363 . S
C1098 C1099 1.370 . S
C1098 C1102 1.524 . S
C1099 C1091 1.503 . S
C1099 C1098 1.370 . S
C1099 C1100 1.403 . S
C1100 C1099 1.403 . S
C1100 C1101 1.404 . S
C1100 C1103 1.539 . S
C1101 C1097 1.408 . S
C1101 C1100 1.404 . S
C1101 H1113 0.930 . S
C1102 C1098 1.524 . S
C1102 H1114 0.956 . S
C1102 H1115 0.961 . S
C1102 H1116 0.961 . S
C1103 C1100 1.539 . S
C1103 H1117 0.958 . S
C1103 H1118 0.961 . S
C1103 H1119 0.960 . S
H1104 C1088 0.931 . S
H1105 C1093 0.929 . S
H1106 C1094 0.960 . S
H1107 C1094 0.962 . S
H1108 C1094 0.960 . S
H1109 C1095 0.961 . S
H1110 C1095 0.961 . S
H1111 C1095 0.961 . S
H1112 C1096 0.931 . S
H1113 C1101 0.930 . S
H1114 C1102 0.956 . S
H1115 C1102 0.961 . S
H1116 C1102 0.961 . S
H1117 C1103 0.958 . S
H1118 C1103 0.961 . S
H1119 C1103 0.960 . S
C1120 C1121 1.393 . S
C1120 C1122 1.393 1_655 S
C1120 H1136 0.929 1_655 S
C1121 C1120 1.393 . S
C1121 C1125 1.376 . S
C1122 C1120 1.393 1_455 S
C1122 C1123 1.369 1_455 S
C1122 C1126 1.531 . S
C1123 C1122 1.369 1_655 S
C1123 C1124 1.410 . S
C1123 C1131 1.503 . S
C1124 C1123 1.410 . S
C1124 C1125 1.392 . S
C1124 C1127 1.511 . S
C1125 C1121 1.376 . S
C1125 C1124 1.392 . S
C1125 H1137 0.929 . S
C1126 C1122 1.531 . S
C1126 H1138 0.960 . S
C1126 H1139 0.962 1_455 S
C1126 H1140 0.960 . S
C1127 C1124 1.511 . S
C1127 H1141 0.961 . S
C1127 H1142 0.961 . S
C1127 H1143 0.961 . S
C1128 C1129 1.370 . S
C1128 C1130 1.363 . S
C1128 H1144 0.931 . S
C1129 C1128 1.370 . S
C1129 C1133 1.408 1_655 S
C1130 C1128 1.363 . S
C1130 C1131 1.370 . S
C1130 C1134 1.524 . S
C1131 C1123 1.503 . S
C1131 C1130 1.370 . S
C1131 C1132 1.403 1_655 S
C1132 C1131 1.403 1_455 S
C1132 C1133 1.404 . S
C1132 C1135 1.539 . S
C1133 C1129 1.408 1_455 S
C1133 C1132 1.404 . S
C1133 H1145 0.930 . S
C1134 C1130 1.524 . S
C1134 H1146 0.956 . S
C1134 H1147 0.961 . S
C1134 H1148 0.961 . S
C1135 C1132 1.539 . S
C1135 H1149 0.958 . S
C1135 H1150 0.961 . S
C1135 H1151 0.960 . S
H1136 C1120 0.929 1_455 S
H1137 C1125 0.929 . S
H1138 C1126 0.960 . S
H1139 C1126 0.962 1_655 S
H1140 C1126 0.960 . S
H1141 C1127 0.961 . S
H1142 C1127 0.961 . S
H1143 C1127 0.961 . S
H1144 C1128 0.931 . S
H1145 C1133 0.930 . S
H1146 C1134 0.956 . S
H1147 C1134 0.961 . S
H1148 C1134 0.961 . S
H1149 C1135 0.958 . S
H1150 C1135 0.961 . S
H1151 C1135 0.960 . S
C1152 C1153 1.385 1_565 S
C1152 C1154 1.396 . S
C1152 H1168 0.933 . S
C1153 C1152 1.385 1_545 S
C1153 C1157 1.378 . S
C1154 C1152 1.396 . S
C1154 C1155 1.368 1_565 S
C1154 C1158 1.532 . S
C1155 C1154 1.368 1_545 S
C1155 C1156 1.410 . S
C1155 C1163 1.497 1_545 S
C1156 C1155 1.410 . S
C1156 C1157 1.392 . S
C1156 C1159 1.511 . S
C1157 C1153 1.378 . S
C1157 C1156 1.392 . S
C1157 H1169 0.929 . S
C1158 C1154 1.532 . S
C1158 H1170 0.960 1_565 S
C1158 H1171 0.962 . S
C1158 H1172 0.960 1_565 S
C1159 C1156 1.511 . S
C1159 H1173 0.978 . S
C1159 H1174 0.931 1_545 S
C1159 H1175 0.961 . S
C1160 C1161 1.370 . S
C1160 C1162 1.363 . S
C1160 H1176 0.931 . S
C1161 C1160 1.370 . S
C1161 C1165 1.408 1_565 S
C1162 C1160 1.363 . S
C1162 C1163 1.405 . S
C1162 C1166 1.524 . S
C1163 C1155 1.497 1_565 S
C1163 C1162 1.405 . S
C1163 C1164 1.376 1_565 S
C1164 C1163 1.376 1_545 S
C1164 C1165 1.404 . S
C1164 C1167 1.539 . S
C1165 C1161 1.408 1_545 S
C1165 C1164 1.404 . S
C1165 H1177 0.930 . S
C1166 C1162 1.524 . S
C1166 H1178 0.956 . S
C1166 H1179 0.961 . S
C1166 H1180 0.961 . S
C1167 C1164 1.539 . S
C1167 H1181 0.958 . S
C1167 H1182 0.961 . S
C1167 H1183 0.960 . S
H1168 C1152 0.933 . S
H1169 C1157 0.929 . S
H1170 C1158 0.960 1_545 S
H1171 C1158 0.962 . S
H1172 C1158 0.960 1_545 S
H1173 C1159 0.978 . S
H1174 C1159 0.931 1_565 S
H1175 C1159 0.961 . S
H1176 C1160 0.931 . S
H1177 C1165 0.930 . S
H1178 C1166 0.956 . S
H1179 C1166 0.961 . S
H1180 C1166 0.961 . S
H1181 C1167 0.958 . S
H1182 C1167 0.961 . S
H1183 C1167 0.960 . S
C1184 C1185 1.391 . S
C1184 C1186 1.394 . S
C1184 H1200 0.931 . S
C1185 C1184 1.391 . S
C1185 C1189 1.376 . S
C1186 C1184 1.394 . S
C1186 C1187 1.369 . S
C1186 C1190 1.531 . S
C1187 C1186 1.369 . S
C1187 C1188 1.410 . S
C1187 C1195 1.503 . S
C1188 C1187 1.410 . S
C1188 C1189 1.392 . S
C1188 C1191 1.511 . S
C1189 C1185 1.376 . S
C1189 C1188 1.392 . S
C1189 H1201 0.929 . S
C1190 C1186 1.531 . S
C1190 H1202 0.960 . S
C1190 H1203 0.962 . S
C1190 H1204 0.960 . S
C1191 C1188 1.511 . S
C1191 H1205 0.961 . S
C1191 H1206 0.961 . S
C1191 H1207 0.961 . S
C1192 C1193 1.370 . S
C1192 C1194 1.363 . S
C1192 H1208 0.931 . S
C1193 C1192 1.370 . S
C1193 C1197 1.408 . S
C1194 C1192 1.363 . S
C1194 C1195 1.370 . S
C1194 C1198 1.524 . S
C1195 C1187 1.503 . S
C1195 C1194 1.370 . S
C1195 C1196 1.403 . S
C1196 C1195 1.403 . S
C1196 C1197 1.404 . S
C1196 C1199 1.539 . S
C1197 C1193 1.408 . S
C1197 C1196 1.404 . S
C1197 H1209 0.930 . S
C1198 C1194 1.524 . S
C1198 H1210 0.956 . S
C1198 H1211 0.961 . S
C1198 H1212 0.961 . S
C1199 C1196 1.539 . S
C1199 H1213 0.958 . S
C1199 H1214 0.961 . S
C1199 H1215 0.960 . S
H1200 C1184 0.931 . S
H1201 C1189 0.929 . S
H1202 C1190 0.960 . S
H1203 C1190 0.962 . S
H1204 C1190 0.960 . S
H1205 C1191 0.961 . S
H1206 C1191 0.961 . S
H1207 C1191 0.961 . S
H1208 C1192 0.931 . S
H1209 C1197 0.930 . S
H1210 C1198 0.956 . S
H1211 C1198 0.961 . S
H1212 C1198 0.961 . S
H1213 C1199 0.958 . S
H1214 C1199 0.961 . S
H1215 C1199 0.960 . S
C1216 C1217 1.391 . S
C1216 C1218 1.394 . S
C1216 H1232 0.931 . S
C1217 C1216 1.391 . S
C1217 C1221 1.376 . S
C1218 C1216 1.394 . S
C1218 C1219 1.369 . S
C1218 C1222 1.531 . S
C1219 C1218 1.369 . S
C1219 C1220 1.410 . S
C1219 C1227 1.503 . S
C1220 C1219 1.410 . S
C1220 C1221 1.392 . S
C1220 C1223 1.511 . S
C1221 C1217 1.376 . S
C1221 C1220 1.392 . S
C1221 H1233 0.929 . S
C1222 C1218 1.531 . S
C1222 H1234 0.960 . S
C1222 H1235 0.962 . S
C1222 H1236 0.960 . S
C1223 C1220 1.511 . S
C1223 H1237 0.961 . S
C1223 H1238 0.961 . S
C1223 H1239 0.961 . S
C1224 C1225 1.370 . S
C1224 C1226 1.363 . S
C1224 H1240 0.931 . S
C1225 C1224 1.370 . S
C1225 C1229 1.408 . S
C1226 C1224 1.363 . S
C1226 C1227 1.370 . S
C1226 C1230 1.524 . S
C1227 C1219 1.503 . S
C1227 C1226 1.370 . S
C1227 C1228 1.403 . S
C1228 C1227 1.403 . S
C1228 C1229 1.404 . S
C1228 C1231 1.539 . S
C1229 C1225 1.408 . S
C1229 C1228 1.404 . S
C1229 H1241 0.930 . S
C1230 C1226 1.524 . S
C1230 H1242 0.956 . S
C1230 H1243 0.961 . S
C1230 H1244 0.961 . S
C1231 C1228 1.539 . S
C1231 H1245 0.958 . S
C1231 H1246 0.961 . S
C1231 H1247 0.960 . S
H1232 C1216 0.931 . S
H1233 C1221 0.929 . S
H1234 C1222 0.960 . S
H1235 C1222 0.962 . S
H1236 C1222 0.960 . S
H1237 C1223 0.961 . S
H1238 C1223 0.961 . S
H1239 C1223 0.961 . S
H1240 C1224 0.931 . S
H1241 C1229 0.930 . S
H1242 C1230 0.956 . S
H1243 C1230 0.961 . S
H1244 C1230 0.961 . S
H1245 C1231 0.958 . S
H1246 C1231 0.961 . S
H1247 C1231 0.960 . S
C481 C255 2.065 . S
C489 C322 2.151 1_545 S
C521 C362 2.214 . S
C513 C295 2.119 . S
C553 C426 2.665 . S
C545 C175 2.568 . S
C585 C442 2.299 . S
C577 C215 2.117 . S
C617 C343 2.158 . S
C609 C95 2.062 . S
C641 C135 2.116 1_556 S
C649 C383 2.216 . S
C673 C15 2.571 . S
C681 C417 2.661 . S
C705 C55 2.048 . S
C713 C463 2.311 1_655 S
C745 C337 0.414 . S
C737 C221 0.366 . S
C777 C377 0.550 . S
C769 C261 0.510 . S
C809 C413 0.603 . S
C801 C301 0.383 . S
C833 C181 0.584 . S
C841 C457 0.709 . S
C865 C61 0.581 . S
C873 C346 0.368 . S
C905 C386 0.535 . S
C897 C101 0.673 1_565 S
C937 C424 0.517 . S
C929 C141 0.756 . S
C961 C21 0.753 . S
C969 C466 0.646 . S
C993 C202 2.891 . S
C1001 C344 3.195 . S
C1025 C242 2.653 . S
C1033 C384 2.926 . S
C1065 C402 2.037 . S
C1057 C282 2.091 1_556 S
C1097 C464 3.647 . S
C1089 C162 3.336 . S
C1121 C42 2.889 . S
C1129 C333 3.204 . S
C1161 C373 2.917 . S
C1153 C82 2.677 . S
C1193 C423 2.053 . S
C1185 C122 1.989 . S
C1217 C2 3.299 . S
C1225 C453 3.643 . S
