# Generated by pormake.
# Topology scu, (8,4)-cn, num edge types: 1
# Building blocks:
#     Node 0, Type 0, BuildingBlock: GIZVER_clean_sbu_0, # of connection points: 8
#     Node 1, Type 1, BuildingBlock: KOZSID_clean_sbu_0, # of connection points: 4
#     Node 2, Type 1, BuildingBlock: KOZSID_clean_sbu_0, # of connection points: 4
#     Edge 3, Type (0, 1), BuildingBlock: EZIPEK_clean_linker_0, # of connection points: 2
#     Edge 4, Type (0, 1), BuildingBlock: EZIPEK_clean_linker_0, # of connection points: 2
#     Edge 5, Type (0, 1), BuildingBlock: EZIPEK_clean_linker_0, # of connection points: 2
#     Edge 6, Type (0, 1), BuildingBlock: EZIPEK_clean_linker_0, # of connection points: 2
#     Edge 7, Type (0, 1), BuildingBlock: EZIPEK_clean_linker_0, # of connection points: 2
#     Edge 8, Type (0, 1), BuildingBlock: EZIPEK_clean_linker_0, # of connection points: 2
#     Edge 9, Type (0, 1), BuildingBlock: EZIPEK_clean_linker_0, # of connection points: 2
#     Edge 10, Type (0, 1), BuildingBlock: EZIPEK_clean_linker_0, # of connection points: 2
# Relax obj value: 0.045
# Max RMSD: 0.111
# Mean RMSD: 0.103
data_MOF--net-scu--node1-GIZVER_clean_sbu_0--node2-KOZSID_clean_sbu_0--edge1-EZIPEK_clean_linker_0
_symmetry_space_group_name_H-M    P1
_symmetry_Int_Tables_number       1
_symmetry_cell_setting            triclinic
loop_
_symmetry_equiv_pos_as_xyz
'x, y, z'
_cell_length_a     20.576272
_cell_length_b     21.284812
_cell_length_c     18.576741
_cell_angle_alpha  96.910106
_cell_angle_beta   75.352033
_cell_angle_gamma 112.12311
loop_
_atom_site_label
_atom_site_type_symbol
_atom_site_fract_x
_atom_site_fract_y
_atom_site_fract_z
_atom_type_partial_charge
Co0 Co 0.01008 0.9169 0.16512 0.0
Co1 Co 0.12477 0.01574 0.10411 0.0
Co2 Co 1.00708 0.01051 0.02343 0.0
O3 O 0.04792 0.95627 0.06775 0.0
H4 H 0.06438 0.92597 0.03123 0.0
O5 O 0.96635 0.06414 0.97696 0.0
Co6 Co 0.00983 0.10656 0.88 0.0
Co7 Co 0.89282 1.00617 0.93322 0.0
H8 H 0.94824 0.09356 1.01331 0.0
O9 O 0.19968 0.99076 0.10335 0.0
O10 O 0.10043 0.98033 0.19713 0.0
O11 O 0.13767 0.11076 0.11818 0.0
O12 O 0.03161 0.09276 0.09436 0.0
O13 O 0.10296 0.04842 0.95251 0.0
O14 O 0.04644 0.15129 0.79418 0.0
O15 O 0.96883 0.17136 0.89477 0.0
O16 O 0.06398 0.04674 0.85047 0.0
O17 O 0.98212 0.92778 0.95279 0.0
O18 O 0.88044 0.91172 0.91939 0.0
O19 O 0.92431 0.04339 0.83973 0.0
O20 O 0.8198 0.03154 0.92491 0.0
C21 C 0.01472 0.83787 0.21865 0.0
C22 C 0.9069 0.9765 0.16815 0.0
C23 C 0.08533 0.12951 0.1221 0.0
C24 C 0.16565 0.97879 0.17234 0.0
C25 C 1.00614 0.18587 0.82645 0.0
C26 C 0.1132 0.04751 0.88169 0.0
C27 C 0.93063 0.89176 0.92134 0.0
C28 C 0.85884 0.04497 0.85777 0.0
O29 O 0.97805 0.87517 0.25284 0.0
O30 O 0.04859 0.85013 0.14895 0.0
O31 O 0.91263 0.97366 0.09738 0.0
O32 O 0.95894 0.97829 0.19555 0.0
C33 C 0.08021 0.63166 0.41861 0.0
C34 C 0.14703 0.68021 0.39106 0.0
C35 C 0.19529 0.669 0.42158 0.0
C36 C 0.15541 0.61423 0.46585 0.0
N37 N 0.08452 0.58953 0.46539 0.0
Co38 Co 1.00777 0.51021 0.52275 0.0
N39 N 0.07883 0.49392 0.56813 0.0
C40 C 0.15046 0.52956 0.55568 0.0
C41 C 0.18595 0.50651 0.59345 0.0
C42 C 0.13401 0.45273 0.63236 0.0
C43 C 0.06945 0.44608 0.61619 0.0
N44 N 0.93091 0.43112 0.58051 0.0
C45 C 0.93519 0.38926 0.62763 0.0
C46 C 0.86832 0.34072 0.65547 0.0
C47 C 0.8201 0.35197 0.62484 0.0
C48 C 0.86 0.40664 0.58034 0.0
N49 N 0.93683 0.52639 0.47701 0.0
C50 C 0.86539 0.49008 0.4886 0.0
C51 C 0.82988 0.51315 0.45085 0.0
C52 C 0.88162 0.56759 0.41281 0.0
C53 C 0.94612 0.57461 0.42937 0.0
N54 N 0.02556 0.44728 0.43752 0.0
C55 C 0.05091 0.35313 0.32327 0.0
C56 C 0.98096 0.34727 0.3603 0.0
C57 C 0.96955 0.39493 0.41616 0.0
C58 C 0.10796 0.40807 0.34228 0.0
C59 C 0.09423 0.45387 0.39945 0.0
N60 N 0.99003 0.57302 0.60799 0.0
C61 C 0.90789 0.61406 0.70134 0.0
C62 C 0.96527 0.66672 0.72295 0.0
C63 C 0.0351 0.67055 0.68807 0.0
C64 C 0.04619 0.6232 0.63169 0.0
C65 C 0.92136 0.56831 0.64396 0.0
H66 H 0.10074 0.629 0.60724 0.0
H67 H 0.87533 0.53042 0.62875 0.0
H68 H 0.91491 0.38766 0.442 0.0
H69 H 0.1402 0.49343 0.41268 0.0
C70 C 0.18285 0.5845 0.50825 0.0
C71 C 0.01441 0.62853 0.39899 0.0
C72 C 1.00107 0.39277 0.64724 0.0
C73 C 0.83286 0.43562 0.53677 0.0
H74 H 0.15935 0.71979 0.35303 0.0
H75 H 0.25259 0.69745 0.41263 0.0
H76 H 0.24291 0.52634 0.59262 0.0
H77 H 0.14269 0.42171 0.66839 0.0
H78 H 0.8558 0.30106 0.69373 0.0
H79 H 0.76282 0.32346 0.63367 0.0
H80 H 0.77297 0.49314 0.45148 0.0
H81 H 0.87279 0.59885 0.37719 0.0
H82 H 0.93525 0.30533 0.34703 0.0
H83 H 0.16306 0.41417 0.31496 0.0
H84 H 0.85291 0.6098 0.72672 0.0
H85 H 0.08104 0.71093 0.70313 0.0
C86 C 0.38703 0.9606 0.6647 0.0
C87 C 0.34395 0.90246 0.70464 0.0
C88 C 0.35494 0.84898 0.66173 0.0
C89 C 0.40495 0.87735 0.59891 0.0
N90 N 0.42778 0.94567 0.59996 0.0
Co91 Co 0.50481 1.00642 0.5224 0.0
N92 N 0.53469 0.93003 0.47185 0.0
C93 C 0.49783 0.86345 0.48392 0.0
C94 C 0.53292 0.82266 0.44344 0.0
C95 C 0.59579 0.86603 0.40284 0.0
C96 C 0.59514 0.93109 0.42034 0.0
N97 N 0.58108 0.06656 0.44447 0.0
C98 C 0.63583 0.05531 0.39307 0.0
C99 C 0.67505 0.11063 0.34771 0.0
C100 C 0.64383 0.1582 0.3716 0.0
C101 C 0.58737 0.12924 0.42973 0.0
N102 N 0.47489 0.08296 0.57358 0.0
C103 C 0.49515 0.14456 0.54499 0.0
C104 C 0.46212 0.18564 0.58826 0.0
C105 C 0.41677 0.14743 0.64743 0.0
C106 C 0.42495 0.08482 0.63736 0.0
N107 N 0.57467 0.0257 0.58466 0.0
C108 C 0.68035 0.05044 0.66555 0.0
C109 C 0.67755 0.10321 0.62961 0.0
C110 C 0.6236 0.08994 0.59042 0.0
C111 C 0.62916 0.9854 0.66054 0.0
C112 C 0.57739 0.97404 0.61957 0.0
N113 N 0.43613 0.98756 0.45882 0.0
C114 C 0.32259 0.98495 0.44295 0.0
C115 C 0.34228 0.97209 0.36682 0.0
C116 C 0.40881 0.96486 0.33743 0.0
C117 C 0.45473 0.97228 0.38454 0.0
C118 C 0.37071 0.99364 0.48735 0.0
H119 H 0.50622 0.96801 0.36019 0.0
H120 H 0.35598 1.00835 0.54394 0.0
H121 H 0.62233 0.13159 0.56391 0.0
H122 H 0.5404 0.92301 0.61542 0.0
C123 C 0.43754 0.84217 0.54249 0.0
C124 C 0.37643 0.02572 0.68312 0.0
C125 C 0.65004 0.99189 0.38286 0.0
C126 C 0.5455 0.16219 0.47757 0.0
H127 H 0.30543 0.89879 0.75733 0.0
H128 H 0.32984 0.7958 0.67504 0.0
H129 H 0.51629 0.76811 0.44559 0.0
H130 H 0.63711 0.85125 0.36453 0.0
H131 H 0.72118 0.11592 0.30192 0.0
H132 H 0.66144 0.20855 0.35041 0.0
H133 H 0.46879 0.23674 0.57716 0.0
H134 H 0.37948 0.16317 0.69089 0.0
H135 H 0.71653 0.15418 0.63208 0.0
H136 H 0.62987 0.94327 0.68739 0.0
H137 H 0.27185 0.99174 0.46727 0.0
H138 H 0.42588 0.95544 0.27834 0.0
C139 C 0.08251 0.18991 0.24795 0.0
C140 C 0.08049 0.18934 0.17169 0.0
C141 C 0.05692 0.29613 0.195 0.0
C142 C 0.06424 0.29869 0.26952 0.0
N143 N 0.09504 0.25359 0.36393 0.0
N144 N 0.07569 0.24644 0.06993 0.0
C145 C 0.0812 0.24764 0.29466 0.0
C146 C 0.07026 0.24374 0.14448 0.0
N147 N 0.0786 0.13264 0.27793 0.0
N148 N 0.03633 0.34338 0.17288 0.0
H149 H 0.08604 0.2094 0.03161 0.0
H150 H 0.0758 0.28775 0.04503 0.0
H151 H 0.02955 0.38407 0.20715 0.0
H152 H 0.02187 0.34023 0.1224 0.0
H153 H 0.07194 0.1273 0.33459 0.0
H154 H 0.07254 0.08705 0.24792 0.0
H155 H 0.11699 0.22286 0.38142 0.0
H156 H 0.08974 0.29229 0.40235 0.0
C157 C 0.77025 0.94072 0.21021 0.0
C158 C 0.84018 0.98228 0.22029 0.0
C159 C 0.78465 0.02361 0.34052 0.0
C160 C 0.71537 0.98775 0.32659 0.0
N161 N 0.64426 0.92715 0.23754 0.0
N162 N 0.90997 0.08002 0.2842 0.0
C163 C 0.70875 0.95104 0.258 0.0
C164 C 0.84631 0.02832 0.28268 0.0
N165 N 0.76166 0.889 0.15803 0.0
N166 N 0.79192 0.05322 0.40893 0.0
H167 H 0.9533 0.08943 0.2386 0.0
H168 H 0.9161 0.11843 0.32525 0.0
H169 H 0.74796 0.05105 0.4528 0.0
H170 H 0.84151 0.0745 0.42381 0.0
H171 H 0.71132 0.85367 0.15364 0.0
H172 H 0.8044 0.87662 0.12476 0.0
H173 H 0.63839 0.90581 0.18497 0.0
H174 H 0.59842 0.93468 0.27038 0.0
C175 C 0.03476 0.80129 0.3338 0.0
C176 C 0.01992 0.78459 0.26147 0.0
C177 C 0.01144 0.66754 0.27548 0.0
C178 C 0.01664 0.68246 0.35096 0.0
N179 N 0.02198 0.76159 0.4555 0.0
N180 N 0.98267 0.69751 0.1685 0.0
C181 C 0.02507 0.74883 0.38105 0.0
C182 C 1.00572 0.71659 0.23334 0.0
N183 N 0.06136 0.86773 0.35655 0.0
N184 N 0.01296 0.60668 0.2436 0.0
H185 H 0.97554 0.73079 0.13706 0.0
H186 H 0.96409 0.64727 0.14943 0.0
H187 H 0.01615 0.56946 0.27289 0.0
H188 H 0.0172 0.59546 0.18685 0.0
H189 H 0.08079 0.8831 0.40488 0.0
H190 H 0.0716 0.90802 0.32342 0.0
H191 H 0.01965 0.80687 0.48224 0.0
H192 H 0.01525 0.72479 0.49192 0.0
C193 C 0.23858 0.03426 0.26704 0.0
C194 C 0.20767 0.97531 0.22463 0.0
C195 C 0.26139 0.91272 0.2789 0.0
C196 C 0.29602 0.97282 0.3175 0.0
N197 N 0.33044 0.09424 0.33607 0.0
N198 N 0.20362 0.86374 0.17632 0.0
C199 C 0.28779 0.03455 0.30867 0.0
C200 C 0.22317 0.91598 0.2264 0.0
N201 N 0.2225 0.09079 0.26595 0.0
N202 N 0.26374 0.85232 0.29358 0.0
H203 H 0.17727 0.86503 0.1358 0.0
H204 H 0.2195 0.82202 0.17003 0.0
H205 H 0.29019 0.84779 0.33265 0.0
H206 H 0.23484 0.80596 0.27138 0.0
H207 H 0.23487 0.13172 0.30341 0.0
H208 H 0.19365 0.09555 0.22964 0.0
H209 H 0.3326 0.14177 0.32462 0.0
H210 H 0.36916 0.09721 0.3646 0.0
C211 C 0.94426 0.83475 0.79435 0.0
C212 C 0.93736 0.83221 0.87231 0.0
C213 C 0.95253 0.72147 0.85237 0.0
C214 C 0.95283 0.72197 0.77577 0.0
N215 N 0.93794 0.77437 0.67587 0.0
N216 N 0.92769 0.77034 0.97717 0.0
C217 C 0.94468 0.77693 0.74768 0.0
C218 C 0.93972 0.77475 0.90182 0.0
N219 N 0.95748 0.8947 0.76348 0.0
N220 N 0.96555 0.67053 0.87744 0.0
H221 H 0.91833 0.80842 1.01446 0.0
H222 H 0.92178 0.72726 1.00322 0.0
H223 H 0.97229 0.62968 0.84342 0.0
H224 H 0.97395 0.6706 0.9304 0.0
H225 H 0.97142 0.90186 0.70633 0.0
H226 H 0.96366 0.93985 0.79446 0.0
H227 H 0.92274 0.80896 0.65538 0.0
H228 H 0.94199 0.73489 0.63809 0.0
C229 C 0.17663 0.98711 0.78 0.0
C230 C 0.18112 0.03986 0.8348 0.0
C231 C 0.31318 0.07271 0.80127 0.0
C232 C 0.30841 0.02841 0.73737 0.0
N233 N 0.23045 0.94871 0.66182 0.0
N234 N 0.25644 0.13938 0.89188 0.0
C235 C 0.23877 0.98747 0.72531 0.0
C236 C 0.25026 0.08435 0.8443 0.0
N237 N 0.11381 0.93313 0.78353 0.0
N238 N 0.37756 0.10285 0.82165 0.0
H239 H 0.21217 0.15078 0.92281 0.0
H240 H 0.30577 0.17709 0.89535 0.0
H241 H 0.42431 0.09492 0.79201 0.0
H242 H 0.38288 0.1304 0.8715 0.0
H243 H 0.10906 0.88955 0.74968 0.0
H244 H 0.0698 0.92835 0.82748 0.0
H245 H 0.18085 0.92619 0.64707 0.0
H246 H 0.27243 0.94134 0.62198 0.0
C247 C 0.99062 0.2224 0.70852 0.0
C248 C 1.00044 0.2383 0.78289 0.0
C249 C 1.00051 0.35276 0.7713 0.0
C250 C 0.99941 0.33903 0.69478 0.0
N251 N 1.00437 0.26394 0.58742 0.0
N252 N 0.02704 0.32372 0.88024 0.0
C253 C 0.99756 0.27471 0.66259 0.0
C254 C 1.00811 0.30477 0.81328 0.0
N255 N 0.97153 0.15669 0.68224 0.0
N256 N 0.99359 0.41158 0.80416 0.0
H257 H 0.03587 0.29147 0.91152 0.0
H258 H 0.04088 0.37339 0.90149 0.0
H259 H 0.98933 0.4482 0.77487 0.0
H260 H 0.98606 0.42145 0.86136 0.0
H261 H 0.95515 0.14113 0.63227 0.0
H262 H 0.96474 0.11626 0.71332 0.0
H263 H 0.01216 0.22106 0.55927 0.0
H264 H 1.00838 0.3004 0.55201 0.0
C265 C 0.78778 0.1029 0.81764 0.0
C266 C 0.82434 0.05616 0.80111 0.0
C267 C 0.7847 0.02538 0.68354 0.0
C268 C 0.73699 0.06127 0.70739 0.0
N269 N 0.6878 0.12966 0.80216 0.0
N270 N 0.84509 0.96293 0.72327 0.0
C271 C 0.7377 0.09968 0.77536 0.0
C272 C 0.82043 0.0153 0.73477 0.0
N273 N 0.80104 0.15065 0.87351 0.0
N274 N 0.79523 1.00027 0.61208 0.0
H275 H 0.86496 0.94949 0.76276 0.0
H276 H 0.83756 0.92792 0.67898 0.0
H277 H 0.77026 1.00751 0.57302 0.0
H278 H 0.8343 0.97887 0.58989 0.0
H279 H 0.78179 0.1904 0.88272 0.0
H280 H 0.83692 0.15442 0.90601 0.0
H281 H 0.68065 0.15152 0.85545 0.0
H282 H 0.64939 0.12784 0.77383 0.0
loop_
_geom_bond_atom_site_label_1
_geom_bond_atom_site_label_2
_geom_bond_distance
_geom_bond_site_symmetry_2
_ccdc_geom_bond_type
Co0 O3 2.042 1_655 S
Co0 O10 2.264 1_655 S
Co0 O29 2.286 . S
Co0 O30 2.069 1_655 S
Co0 O32 2.015 . S
Co1 O3 2.122 1_545 S
Co1 O9 2.073 . S
Co1 O10 2.327 1_545 S
Co1 O11 1.976 . S
Co2 O3 2.097 1_545 S
Co2 O5 2.077 1_454 S
Co2 O12 2.120 . S
Co2 O13 2.146 1_554 S
Co2 O17 2.102 1_444 S
Co2 O31 2.141 1_445 S
O3 Co0 2.042 1_455 S
O3 Co1 2.122 1_565 S
O3 Co2 2.097 1_565 S
O3 H4 0.980 . S
H4 O3 0.980 . S
O5 Co2 2.077 1_656 S
O5 Co6 2.042 1_655 S
O5 Co7 2.122 1_545 S
O5 H8 0.980 . S
Co6 O5 2.042 1_455 S
Co6 O14 2.286 . S
Co6 O15 2.069 1_455 S
Co6 O16 2.015 . S
Co6 O19 2.264 1_455 S
Co7 O5 2.122 1_565 S
Co7 O18 1.976 . S
Co7 O19 2.327 1_565 S
Co7 O20 2.073 . S
H8 O5 0.980 . S
O9 Co1 2.073 . S
O9 C24 1.245 1_545 S
O10 Co0 2.264 1_455 S
O10 Co1 2.327 1_565 S
O10 C24 1.257 . S
O11 Co1 1.976 . S
O11 C23 1.251 . S
O12 Co2 2.120 . S
O12 C23 1.274 . S
O13 Co2 2.146 1_556 S
O13 C26 1.246 . S
O14 Co6 2.286 . S
O14 C25 1.259 . S
O15 Co6 2.069 1_655 S
O15 C25 1.289 1_655 S
O16 Co6 2.015 . S
O16 C26 1.257 . S
O17 Co2 2.102 1_666 S
O17 C27 1.274 . S
O18 Co7 1.976 . S
O18 C27 1.251 . S
O19 Co6 2.264 1_655 S
O19 Co7 2.327 1_545 S
O19 C28 1.257 . S
O20 Co7 2.073 . S
O20 C28 1.245 1_565 S
C21 O29 1.259 . S
C21 O30 1.289 1_655 S
C22 O31 1.246 . S
C22 O32 1.257 . S
C23 O11 1.251 . S
C23 O12 1.274 . S
C24 O9 1.245 1_565 S
C24 O10 1.257 . S
C25 O14 1.259 . S
C25 O15 1.289 1_455 S
C26 O13 1.246 . S
C26 O16 1.257 . S
C27 O17 1.274 . S
C27 O18 1.251 . S
C28 O19 1.257 . S
C28 O20 1.245 1_545 S
O29 Co0 2.286 . S
O29 C21 1.259 . S
O30 Co0 2.069 1_455 S
O30 C21 1.289 1_455 S
O31 Co2 2.141 1_665 S
O31 C22 1.246 . S
O32 Co0 2.015 . S
O32 C22 1.257 . S
C33 C34 1.443 . S
C33 N37 1.376 . S
C33 C71 1.389 . S
C34 C33 1.443 . S
C34 C35 1.340 . S
C34 H74 0.951 . S
C35 C34 1.340 . S
C35 C36 1.439 . S
C35 H75 0.950 . S
C36 C35 1.439 . S
C36 N37 1.374 . S
C36 C70 1.395 . S
N37 C33 1.376 . S
N37 C36 1.374 . S
N37 Co38 2.011 . S
Co38 N37 2.011 . S
Co38 N39 2.004 . S
Co38 N44 2.005 1_455 S
Co38 N49 1.986 1_455 S
Co38 N54 2.284 . S
Co38 N60 2.281 1_455 S
N39 Co38 2.004 . S
N39 C40 1.376 . S
N39 C43 1.383 . S
C40 N39 1.376 . S
C40 C41 1.446 . S
C40 C70 1.391 . S
C41 C40 1.446 . S
C41 C42 1.339 . S
C41 H76 0.949 . S
C42 C41 1.339 . S
C42 C43 1.439 . S
C42 H77 0.950 . S
C43 N39 1.383 . S
C43 C42 1.439 . S
C43 C72 1.389 1_455 S
N44 Co38 2.005 1_655 S
N44 C45 1.376 . S
N44 C48 1.374 . S
C45 N44 1.376 . S
C45 C46 1.443 . S
C45 C72 1.393 . S
C46 C45 1.443 . S
C46 C47 1.340 . S
C46 H78 0.951 . S
C47 C46 1.340 . S
C47 C48 1.439 . S
C47 H79 0.950 . S
C48 N44 1.374 . S
C48 C47 1.439 . S
C48 C73 1.395 . S
N49 Co38 1.986 1_655 S
N49 C50 1.376 . S
N49 C53 1.383 . S
C50 N49 1.376 . S
C50 C51 1.446 . S
C50 C73 1.391 . S
C51 C50 1.446 . S
C51 C52 1.339 . S
C51 H80 0.949 . S
C52 C51 1.339 . S
C52 C53 1.439 . S
C52 H81 0.950 . S
C53 N49 1.383 . S
C53 C52 1.439 . S
C53 C71 1.392 1_655 S
N54 Co38 2.284 . S
N54 C57 1.332 1_455 S
N54 C59 1.332 . S
C55 C56 1.386 1_455 S
C55 C58 1.388 . S
C56 C55 1.386 1_655 S
C56 C57 1.382 . S
C56 H82 0.950 . S
C57 N54 1.332 1_655 S
C57 C56 1.382 . S
C57 H68 0.952 . S
C58 C55 1.388 . S
C58 C59 1.382 . S
C58 H83 0.950 . S
C59 N54 1.332 . S
C59 C58 1.382 . S
C59 H69 0.948 . S
N60 Co38 2.281 1_655 S
N60 C64 1.332 1_655 S
N60 C65 1.332 . S
C61 C62 1.389 . S
C61 C65 1.382 . S
C61 H84 0.950 . S
C62 C61 1.389 . S
C62 C63 1.384 1_655 S
C63 C62 1.384 1_455 S
C63 C64 1.382 . S
C63 H85 0.950 . S
C64 N60 1.332 1_455 S
C64 C63 1.382 . S
C64 H66 0.952 . S
C65 N60 1.332 . S
C65 C61 1.382 . S
C65 H67 0.948 . S
H66 C64 0.952 . S
H67 C65 0.948 . S
H68 C57 0.952 . S
H69 C59 0.948 . S
C70 C36 1.395 . S
C70 C40 1.391 . S
C71 C33 1.389 . S
C71 C53 1.392 1_455 S
C72 C43 1.389 1_655 S
C72 C45 1.393 . S
C73 C48 1.395 . S
C73 C50 1.391 . S
H74 C34 0.951 . S
H75 C35 0.950 . S
H76 C41 0.949 . S
H77 C42 0.950 . S
H78 C46 0.951 . S
H79 C47 0.950 . S
H80 C51 0.949 . S
H81 C52 0.950 . S
H82 C56 0.950 . S
H83 C58 0.950 . S
H84 C61 0.950 . S
H85 C63 0.950 . S
C86 C87 1.443 . S
C86 N90 1.376 . S
C86 C124 1.393 . S
C87 C86 1.443 . S
C87 C88 1.340 . S
C87 H127 0.951 . S
C88 C87 1.340 . S
C88 C89 1.439 . S
C88 H128 0.950 . S
C89 C88 1.439 . S
C89 N90 1.374 . S
C89 C123 1.395 . S
N90 C86 1.376 . S
N90 C89 1.374 . S
N90 Co91 2.004 1_565 S
Co91 N90 2.004 1_545 S
Co91 N92 1.988 1_545 S
Co91 N97 2.012 . S
Co91 N102 2.001 . S
Co91 N107 2.279 1_545 S
Co91 N113 2.286 . S
N92 Co91 1.988 1_565 S
N92 C93 1.376 . S
N92 C96 1.383 . S
C93 N92 1.376 . S
C93 C94 1.446 . S
C93 C123 1.391 . S
C94 C93 1.446 . S
C94 C95 1.339 . S
C94 H129 0.949 . S
C95 C94 1.339 . S
C95 C96 1.439 . S
C95 H130 0.950 . S
C96 N92 1.383 . S
C96 C95 1.439 . S
C96 C125 1.392 1_565 S
N97 Co91 2.012 . S
N97 C98 1.376 . S
N97 C101 1.374 . S
C98 N97 1.376 . S
C98 C99 1.443 . S
C98 C125 1.389 . S
C99 C98 1.443 . S
C99 C100 1.340 . S
C99 H131 0.951 . S
C100 C99 1.340 . S
C100 C101 1.439 . S
C100 H132 0.950 . S
C101 N97 1.374 . S
C101 C100 1.439 . S
C101 C126 1.395 . S
N102 Co91 2.001 . S
N102 C103 1.376 . S
N102 C106 1.383 . S
C103 N102 1.376 . S
C103 C104 1.446 . S
C103 C126 1.391 . S
C104 C103 1.446 . S
C104 C105 1.339 . S
C104 H133 0.949 . S
C105 C104 1.339 . S
C105 C106 1.439 . S
C105 H134 0.950 . S
C106 N102 1.383 . S
C106 C105 1.439 . S
C106 C124 1.389 1_545 S
N107 Co91 2.279 1_565 S
N107 C110 1.332 1_565 S
N107 C112 1.332 . S
C108 C109 1.384 1_565 S
C108 C111 1.389 . S
C109 C108 1.384 1_545 S
C109 C110 1.382 . S
C109 H135 0.950 . S
C110 N107 1.332 1_545 S
C110 C109 1.382 . S
C110 H121 0.952 . S
C111 C108 1.389 . S
C111 C112 1.382 . S
C111 H136 0.950 . S
C112 N107 1.332 . S
C112 C111 1.382 . S
C112 H122 0.948 . S
N113 Co91 2.286 . S
N113 C117 1.332 1_545 S
N113 C118 1.332 . S
C114 C115 1.388 . S
C114 C118 1.382 . S
C114 H137 0.950 . S
C115 C114 1.388 . S
C115 C116 1.386 1_545 S
C116 C115 1.386 1_565 S
C116 C117 1.382 . S
C116 H138 0.950 . S
C117 N113 1.332 1_565 S
C117 C116 1.382 . S
C117 H119 0.952 . S
C118 N113 1.332 . S
C118 C114 1.382 . S
C118 H120 0.948 . S
H119 C117 0.952 . S
H120 C118 0.948 . S
H121 C110 0.952 . S
H122 C112 0.948 . S
C123 C89 1.395 . S
C123 C93 1.391 . S
C124 C86 1.393 . S
C124 C106 1.389 1_565 S
C125 C96 1.392 1_545 S
C125 C98 1.389 . S
C126 C101 1.395 . S
C126 C103 1.391 . S
H127 C87 0.951 . S
H128 C88 0.950 . S
H129 C94 0.949 . S
H130 C95 0.950 . S
H131 C99 0.951 . S
H132 C100 0.950 . S
H133 C104 0.949 . S
H134 C105 0.950 . S
H135 C109 0.950 . S
H136 C111 0.950 . S
H137 C114 0.950 . S
H138 C116 0.950 . S
C139 C140 1.357 1_455 S
C139 C145 1.379 . S
C139 N147 1.356 . S
C140 C139 1.357 1_655 S
C140 C146 1.370 . S
C141 C142 1.360 1_655 S
C141 C146 1.379 . S
C141 N148 1.356 . S
C142 C141 1.360 1_455 S
C142 C145 1.366 . S
N143 C145 1.356 . S
N143 H155 0.984 . S
N143 H156 0.985 . S
N144 C146 1.356 . S
N144 H149 0.984 . S
N144 H150 0.985 . S
C145 C139 1.379 . S
C145 C142 1.366 . S
C145 N143 1.356 . S
C146 C140 1.370 . S
C146 C141 1.379 . S
C146 N144 1.356 . S
N147 C139 1.356 . S
N147 H153 0.984 . S
N147 H154 0.984 . S
N148 C141 1.356 . S
N148 H151 0.984 . S
N148 H152 0.985 . S
H149 N144 0.984 . S
H150 N144 0.985 . S
H151 N148 0.984 . S
H152 N148 0.985 . S
H153 N147 0.984 . S
H154 N147 0.984 . S
H155 N143 0.984 . S
H156 N143 0.985 . S
C157 C158 1.363 . S
C157 C163 1.379 . S
C157 N165 1.356 . S
C158 C157 1.363 . S
C158 C164 1.363 1_565 S
C159 C160 1.363 1_545 S
C159 C164 1.379 . S
C159 N166 1.356 . S
C160 C159 1.363 1_565 S
C160 C163 1.363 . S
N161 C163 1.356 . S
N161 H173 0.984 . S
N161 H174 0.985 . S
N162 C164 1.356 . S
N162 H167 0.984 . S
N162 H168 0.985 . S
C163 C157 1.379 . S
C163 C160 1.363 . S
C163 N161 1.356 . S
C164 C158 1.363 1_545 S
C164 C159 1.379 . S
C164 N162 1.356 . S
N165 C157 1.356 . S
N165 H171 0.984 . S
N165 H172 0.984 . S
N166 C159 1.356 . S
N166 H169 0.984 . S
N166 H170 0.985 . S
H167 N162 0.984 . S
H168 N162 0.985 . S
H169 N166 0.984 . S
H170 N166 0.985 . S
H171 N165 0.984 . S
H172 N165 0.984 . S
H173 N161 0.984 . S
H174 N161 0.985 . S
C175 C176 1.363 . S
C175 C181 1.379 . S
C175 N183 1.356 . S
C176 C175 1.363 . S
C176 C182 1.363 1_455 S
C177 C178 1.363 1_655 S
C177 C182 1.379 . S
C177 N184 1.356 . S
C178 C177 1.363 1_455 S
C178 C181 1.363 . S
N179 C181 1.356 . S
N179 H191 0.984 . S
N179 H192 0.985 . S
N180 C182 1.356 . S
N180 H185 0.984 . S
N180 H186 0.985 . S
C181 C175 1.379 . S
C181 C178 1.363 . S
C181 N179 1.356 . S
C182 C176 1.363 1_655 S
C182 C177 1.379 . S
C182 N180 1.356 . S
N183 C175 1.356 . S
N183 H189 0.984 . S
N183 H190 0.984 . S
N184 C177 1.356 . S
N184 H187 0.984 . S
N184 H188 0.985 . S
H185 N180 0.984 . S
H186 N180 0.985 . S
H187 N184 0.984 . S
H188 N184 0.985 . S
H189 N183 0.984 . S
H190 N183 0.984 . S
H191 N179 0.984 . S
H192 N179 0.985 . S
C193 C194 1.363 1_545 S
C193 C199 1.379 . S
C193 N201 1.356 . S
C194 C193 1.363 1_565 S
C194 C200 1.363 . S
C195 C196 1.363 . S
C195 C200 1.379 . S
C195 N202 1.356 . S
C196 C195 1.363 . S
C196 C199 1.363 1_565 S
N197 C199 1.356 . S
N197 H209 0.984 . S
N197 H210 0.985 . S
N198 C200 1.356 . S
N198 H203 0.984 . S
N198 H204 0.985 . S
C199 C193 1.379 . S
C199 C196 1.363 1_545 S
C199 N197 1.356 . S
C200 C194 1.363 . S
C200 C195 1.379 . S
C200 N198 1.356 . S
N201 C193 1.356 . S
N201 H207 0.984 . S
N201 H208 0.984 . S
N202 C195 1.356 . S
N202 H205 0.984 . S
N202 H206 0.985 . S
H203 N198 0.984 . S
H204 N198 0.985 . S
H205 N202 0.984 . S
H206 N202 0.985 . S
H207 N201 0.984 . S
H208 N201 0.984 . S
H209 N197 0.984 . S
H210 N197 0.985 . S
C211 C212 1.363 1_655 S
C211 C217 1.379 . S
C211 N219 1.356 . S
C212 C211 1.363 1_455 S
C212 C218 1.363 . S
C213 C214 1.371 . S
C213 C218 1.379 . S
C213 N220 1.356 . S
C214 C213 1.371 . S
C214 C217 1.354 1_455 S
N215 C217 1.356 . S
N215 H227 0.984 . S
N215 H228 0.985 . S
N216 C218 1.356 . S
N216 H221 0.984 . S
N216 H222 0.985 . S
C217 C211 1.379 . S
C217 C214 1.354 1_655 S
C217 N215 1.356 . S
C218 C212 1.363 . S
C218 C213 1.379 . S
C218 N216 1.356 . S
N219 C211 1.356 . S
N219 H225 0.984 . S
N219 H226 0.984 . S
N220 C213 1.356 . S
N220 H223 0.984 . S
N220 H224 0.985 . S
H221 N216 0.984 . S
H222 N216 0.985 . S
H223 N220 0.984 . S
H224 N220 0.985 . S
H225 N219 0.984 . S
H226 N219 0.984 . S
H227 N215 0.984 . S
H228 N215 0.985 . S
C229 C230 1.363 1_565 S
C229 C235 1.379 . S
C229 N237 1.356 . S
C230 C229 1.363 1_545 S
C230 C236 1.363 . S
C231 C232 1.363 . S
C231 C236 1.379 . S
C231 N238 1.356 . S
C232 C231 1.363 . S
C232 C235 1.363 1_545 S
N233 C235 1.356 . S
N233 H245 0.984 . S
N233 H246 0.985 . S
N234 C236 1.356 . S
N234 H239 0.984 . S
N234 H240 0.985 . S
C235 C229 1.379 . S
C235 C232 1.363 1_565 S
C235 N233 1.356 . S
C236 C230 1.363 . S
C236 C231 1.379 . S
C236 N234 1.356 . S
N237 C229 1.356 . S
N237 H243 0.984 . S
N237 H244 0.984 . S
N238 C231 1.356 . S
N238 H241 0.984 . S
N238 H242 0.985 . S
H239 N234 0.984 . S
H240 N234 0.985 . S
H241 N238 0.984 . S
H242 N238 0.985 . S
H243 N237 0.984 . S
H244 N237 0.984 . S
H245 N233 0.984 . S
H246 N233 0.985 . S
C247 C248 1.363 1_455 S
C247 C253 1.379 . S
C247 N255 1.356 . S
C248 C247 1.363 1_655 S
C248 C254 1.363 . S
C249 C250 1.365 . S
C249 C254 1.379 . S
C249 N256 1.356 . S
C250 C249 1.365 . S
C250 C253 1.359 1_655 S
N251 C253 1.356 . S
N251 H263 0.984 . S
N251 H264 0.985 . S
N252 C254 1.356 . S
N252 H257 0.984 . S
N252 H258 0.985 . S
C253 C247 1.379 . S
C253 C250 1.359 1_455 S
C253 N251 1.356 . S
C254 C248 1.363 . S
C254 C249 1.379 . S
C254 N252 1.356 . S
N255 C247 1.356 . S
N255 H261 0.984 . S
N255 H262 0.984 . S
N256 C249 1.356 . S
N256 H259 0.984 . S
N256 H260 0.985 . S
H257 N252 0.984 . S
H258 N252 0.985 . S
H259 N256 0.984 . S
H260 N256 0.985 . S
H261 N255 0.984 . S
H262 N255 0.984 . S
H263 N251 0.984 . S
H264 N251 0.985 . S
C265 C266 1.363 . S
C265 C271 1.379 . S
C265 N273 1.356 . S
C266 C265 1.363 . S
C266 C272 1.363 1_545 S
C267 C268 1.363 1_565 S
C267 C272 1.379 . S
C267 N274 1.356 . S
C268 C267 1.363 1_545 S
C268 C271 1.363 . S
N269 C271 1.356 . S
N269 H281 0.984 . S
N269 H282 0.985 . S
N270 C272 1.356 . S
N270 H275 0.984 . S
N270 H276 0.985 . S
C271 C265 1.379 . S
C271 C268 1.363 . S
C271 N269 1.356 . S
C272 C266 1.363 1_565 S
C272 C267 1.379 . S
C272 N270 1.356 . S
N273 C265 1.356 . S
N273 H279 0.984 . S
N273 H280 0.984 . S
N274 C267 1.356 . S
N274 H277 0.984 . S
N274 H278 0.985 . S
H275 N270 0.984 . S
H276 N270 0.985 . S
H277 N274 0.984 . S
H278 N274 0.985 . S
H279 N273 0.984 . S
H280 N273 0.984 . S
H281 N269 0.984 . S
H282 N269 0.985 . S
C140 C23 1.307 1_655 S
C142 C55 1.408 . S
C158 C22 1.568 . S
C160 C125 1.604 1_565 S
C176 C21 1.816 1_455 S
C178 C71 1.823 . S
C194 C24 1.436 . S
C196 C115 1.521 1_565 S
C212 C27 1.312 1_455 S
C214 C62 1.411 1_455 S
C230 C26 1.569 . S
C232 C124 1.603 1_545 S
C250 C72 1.823 . S
C248 C25 1.816 1_655 S
C266 C28 1.436 . S
C268 C108 1.522 1_545 S
