# Generated by pormake.
# Topology csq, (4,8)-cn, num edge types: 1
# Building blocks:
#     Node 0, Type 0, BuildingBlock: KOZSID_clean_sbu_0, # of connection points: 4
#     Node 1, Type 0, BuildingBlock: KOZSID_clean_sbu_0, # of connection points: 4
#     Node 2, Type 0, BuildingBlock: KOZSID_clean_sbu_0, # of connection points: 4
#     Node 3, Type 0, BuildingBlock: KOZSID_clean_sbu_0, # of connection points: 4
#     Node 4, Type 0, BuildingBlock: KOZSID_clean_sbu_0, # of connection points: 4
#     Node 5, Type 0, BuildingBlock: KOZSID_clean_sbu_0, # of connection points: 4
#     Node 6, Type 1, BuildingBlock: TAGTUT_clean_sbu_3, # of connection points: 8
#     Node 7, Type 1, BuildingBlock: TAGTUT_clean_sbu_3, # of connection points: 8
#     Node 8, Type 1, BuildingBlock: TAGTUT_clean_sbu_3, # of connection points: 8
#     Edge 9, Type (0, 1), BuildingBlock: MIFKUJ_clean_linker_0, # of connection points: 2
#     Edge 10, Type (0, 1), BuildingBlock: MIFKUJ_clean_linker_0, # of connection points: 2
#     Edge 11, Type (0, 1), BuildingBlock: MIFKUJ_clean_linker_0, # of connection points: 2
#     Edge 12, Type (0, 1), BuildingBlock: MIFKUJ_clean_linker_0, # of connection points: 2
#     Edge 13, Type (0, 1), BuildingBlock: MIFKUJ_clean_linker_0, # of connection points: 2
#     Edge 14, Type (0, 1), BuildingBlock: MIFKUJ_clean_linker_0, # of connection points: 2
#     Edge 15, Type (0, 1), BuildingBlock: MIFKUJ_clean_linker_0, # of connection points: 2
#     Edge 16, Type (0, 1), BuildingBlock: MIFKUJ_clean_linker_0, # of connection points: 2
#     Edge 17, Type (0, 1), BuildingBlock: MIFKUJ_clean_linker_0, # of connection points: 2
#     Edge 18, Type (0, 1), BuildingBlock: MIFKUJ_clean_linker_0, # of connection points: 2
#     Edge 19, Type (0, 1), BuildingBlock: MIFKUJ_clean_linker_0, # of connection points: 2
#     Edge 20, Type (0, 1), BuildingBlock: MIFKUJ_clean_linker_0, # of connection points: 2
#     Edge 21, Type (0, 1), BuildingBlock: MIFKUJ_clean_linker_0, # of connection points: 2
#     Edge 22, Type (0, 1), BuildingBlock: MIFKUJ_clean_linker_0, # of connection points: 2
#     Edge 23, Type (0, 1), BuildingBlock: MIFKUJ_clean_linker_0, # of connection points: 2
#     Edge 24, Type (0, 1), BuildingBlock: MIFKUJ_clean_linker_0, # of connection points: 2
#     Edge 25, Type (0, 1), BuildingBlock: MIFKUJ_clean_linker_0, # of connection points: 2
#     Edge 26, Type (0, 1), BuildingBlock: MIFKUJ_clean_linker_0, # of connection points: 2
#     Edge 27, Type (0, 1), BuildingBlock: MIFKUJ_clean_linker_0, # of connection points: 2
#     Edge 28, Type (0, 1), BuildingBlock: MIFKUJ_clean_linker_0, # of connection points: 2
#     Edge 29, Type (0, 1), BuildingBlock: MIFKUJ_clean_linker_0, # of connection points: 2
#     Edge 30, Type (0, 1), BuildingBlock: MIFKUJ_clean_linker_0, # of connection points: 2
#     Edge 31, Type (0, 1), BuildingBlock: MIFKUJ_clean_linker_0, # of connection points: 2
#     Edge 32, Type (0, 1), BuildingBlock: MIFKUJ_clean_linker_0, # of connection points: 2
# Relax obj value: 0.030
# Max RMSD: 0.125
# Mean RMSD: 0.045
data_MOF--net-csq--node1-KOZSID_clean_sbu_0--node2-TAGTUT_clean_sbu_3--edge1-MIFKUJ_clean_linker_0
_symmetry_space_group_name_H-M    P1
_symmetry_Int_Tables_number       1
_symmetry_cell_setting            triclinic
loop_
_symmetry_equiv_pos_as_xyz
'x, y, z'
_cell_length_a     71.608427
_cell_length_b     70.763269
_cell_length_c     25.466223
_cell_angle_alpha  88.489842
_cell_angle_beta   96.174966
_cell_angle_gamma 119.92245
loop_
_atom_site_label
_atom_site_type_symbol
_atom_site_fract_x
_atom_site_fract_y
_atom_site_fract_z
_atom_type_partial_charge
C0 C 0.28698 0.52073 0.24321 0.0
C1 C 0.30006 0.54326 0.24784 0.0
C2 C 0.29686 0.55137 0.20051 0.0
C3 C 0.28193 0.53344 0.1699 0.0
N4 N 0.27511 0.51454 0.19535 0.0
Co5 Co 0.25325 0.48497 0.16571 0.0
N6 N 0.24363 0.49733 0.10482 0.0
C7 C 0.25424 0.51796 0.08849 0.0
C8 C 0.24261 0.52201 0.04791 0.0
C9 C 0.2235 0.50274 0.03814 0.0
C10 C 0.22468 0.48784 0.07298 0.0
N11 N 0.23165 0.45555 0.13563 0.0
C12 C 0.21422 0.44958 0.09976 0.0
C13 C 0.20334 0.4273 0.08857 0.0
C14 C 0.21437 0.41904 0.11929 0.0
C15 C 0.23131 0.43674 0.14707 0.0
N16 N 0.26262 0.4724 0.22687 0.0
C17 C 0.25788 0.45145 0.23047 0.0
C18 C 0.26663 0.44734 0.27677 0.0
C19 C 0.27804 0.467 0.30363 0.0
C20 C 0.27574 0.48221 0.27197 0.0
N21 N 0.23142 0.48515 0.20592 0.0
C22 C 0.19948 0.48532 0.26123 0.0
C23 C 0.20166 0.4667 0.25892 0.0
C24 C 0.21773 0.467 0.23143 0.0
C25 C 0.21379 0.50383 0.23515 0.0
C26 C 0.22944 0.50337 0.20767 0.0
N27 N 0.27498 0.48477 0.12501 0.0
C28 C 0.31114 0.49114 0.12118 0.0
C29 C 0.30665 0.48549 0.06718 0.0
C30 C 0.28572 0.47909 0.04288 0.0
C31 C 0.27016 0.47882 0.07244 0.0
C32 C 0.29518 0.49063 0.14907 0.0
H33 H 0.25423 0.47383 0.05265 0.0
H34 H 0.29923 0.49488 0.19027 0.0
H35 H 0.21893 0.45243 0.23047 0.0
H36 H 0.23991 0.51783 0.18771 0.0
C37 C 0.27226 0.53397 0.11966 0.0
C38 C 0.28983 0.50599 0.28055 0.0
C39 C 0.20805 0.46473 0.0747 0.0
C40 C 0.24408 0.4358 0.19129 0.0
H41 H 0.31157 0.55268 0.28109 0.0
H42 H 0.30445 0.56831 0.18981 0.0
H43 H 0.24681 0.5375 0.0301 0.0
H44 H 0.21018 0.50037 0.00952 0.0
H45 H 0.18886 0.418 0.06155 0.0
H46 H 0.20986 0.40206 0.12302 0.0
H47 H 0.26504 0.43193 0.28939 0.0
H48 H 0.28774 0.46975 0.34115 0.0
H49 H 0.19087 0.45184 0.2776 0.0
H50 H 0.21316 0.51878 0.2363 0.0
H51 H 0.32684 0.49567 0.1422 0.0
H52 H 0.28144 0.47463 0.00118 0.0
C53 C 0.81654 0.26604 0.0409 0.0
C54 C 0.83172 0.26205 0.02169 0.0
C55 C 0.82814 0.2424 0.04033 0.0
C56 C 0.81107 0.23551 0.06975 0.0
N57 N 0.8036 0.24966 0.07146 0.0
Co58 Co 0.77844 0.24555 0.10829 0.0
N59 N 0.77299 0.21647 0.13472 0.0
C60 C 0.78562 0.20748 0.13081 0.0
C61 C 0.77823 0.18773 0.1543 0.0
C62 C 0.75964 0.18374 0.17389 0.0
C63 C 0.75658 0.20124 0.16055 0.0
N64 N 0.75244 0.24079 0.14238 0.0
C65 C 0.73698 0.22258 0.16358 0.0
C66 C 0.72008 0.2254 0.17613 0.0
C67 C 0.72514 0.24609 0.16308 0.0
C68 C 0.74456 0.25463 0.14257 0.0
N69 N 0.78449 0.27509 0.08385 0.0
C70 C 0.77398 0.28565 0.09527 0.0
C71 C 0.78177 0.30576 0.07353 0.0
C72 C 0.79834 0.3083 0.0468 0.0
C73 C 0.79978 0.28951 0.05398 0.0
N74 N 0.75909 0.23149 0.04304 0.0
C75 C 0.72761 0.20777 0.95877 0.0
C76 C 0.72975 0.22704 0.97872 0.0
C77 C 0.7455 0.23858 0.02062 0.0
C78 C 0.74233 0.20131 0.97986 0.0
C79 C 0.75798 0.21346 0.02118 0.0
N80 N 0.79783 0.25962 0.17429 0.0
C81 C 0.8078 0.28265 0.25266 0.0
C82 C 0.82639 0.28104 0.26527 0.0
C83 C 0.83015 0.26807 0.23264 0.0
C84 C 0.81575 0.25753 0.18793 0.0
C85 C 0.79388 0.27194 0.20727 0.0
H86 H 0.81975 0.24804 0.16491 0.0
H87 H 0.78027 0.27423 0.19943 0.0
H88 H 0.74606 0.25288 0.03505 0.0
H89 H 0.76858 0.20758 0.03594 0.0
C90 C 0.8026 0.21658 0.09906 0.0
C91 C 0.81556 0.28595 0.03047 0.0
C92 C 0.7374 0.2022 0.17126 0.0
C93 C 0.75543 0.27531 0.12153 0.0
H94 H 0.84429 0.27241 0.99732 0.0
H95 H 0.83715 0.23427 0.03392 0.0
H96 H 0.78509 0.17711 0.15527 0.0
H97 H 0.74923 0.1693 0.19447 0.0
H98 H 0.70532 0.21365 0.19196 0.0
H99 H 0.71549 0.25377 0.16668 0.0
H100 H 0.77568 0.31696 0.07547 0.0
H101 H 0.80797 0.32226 0.02382 0.0
H102 H 0.71911 0.23304 0.96278 0.0
H103 H 0.74135 0.18645 0.96617 0.0
H104 H 0.80439 0.29277 0.27663 0.0
H105 H 0.84429 0.26621 0.24128 0.0
C106 C 0.53815 0.73194 0.10296 0.0
C107 C 0.55686 0.73407 0.13119 0.0
C108 C 0.57262 0.75544 0.12873 0.0
C109 C 0.5628 0.76513 0.09886 0.0
N110 N 0.5419 0.75114 0.08161 0.0
Co111 Co 0.52204 0.75867 0.03711 0.0
N112 N 0.54656 0.78697 0.01754 0.0
C113 C 0.56689 0.79703 0.04217 0.0
C114 C 0.58047 0.81618 0.01944 0.0
C115 C 0.56789 0.81844 0.97813 0.0
C116 C 0.54719 0.80053 0.97819 0.0
N117 N 0.50222 0.76633 0.99308 0.0
C118 C 0.50653 0.78173 0.95616 0.0
C119 C 0.48776 0.78181 0.9359 0.0
C120 C 0.47122 0.76598 0.96118 0.0
C121 C 0.48074 0.75716 0.99542 0.0
N122 N 0.49745 0.73034 0.05646 0.0
C123 C 0.47644 0.72497 0.05113 0.0
C124 C 0.46304 0.70468 0.06922 0.0
C125 C 0.47644 0.69685 0.08786 0.0
C126 C 0.49739 0.71287 0.08003 0.0
N127 N 0.51965 0.77293 0.09867 0.0
C128 C 0.51693 0.79362 0.18688 0.0
C129 C 0.51444 0.77278 0.19051 0.0
C130 C 0.5161 0.76282 0.1461 0.0
C131 C 0.52064 0.80389 0.1384 0.0
C132 C 0.52169 0.79317 0.09464 0.0
N133 N 0.52446 0.74448 0.97574 0.0
C134 C 0.50775 0.72027 0.89941 0.0
C135 C 0.52796 0.72362 0.88869 0.0
C136 C 0.5464 0.73795 0.922 0.0
C137 C 0.54431 0.7482 0.96516 0.0
C138 C 0.50636 0.73082 0.94311 0.0
H139 H 0.55877 0.75896 0.9903 0.0
H140 H 0.4906 0.72778 0.95067 0.0
H141 H 0.51463 0.74699 0.15045 0.0
H142 H 0.52425 0.80134 0.05761 0.0
C143 C 0.57334 0.78636 0.08051 0.0
C144 C 0.5168 0.71205 0.102 0.0
C145 C 0.52828 0.79786 0.94305 0.0
C146 C 0.46972 0.73834 0.024 0.0
H147 H 0.55885 0.72158 0.15217 0.0
H148 H 0.58937 0.76288 0.14561 0.0
H149 H 0.59766 0.82682 0.03031 0.0
H150 H 0.57332 0.83181 0.95125 0.0
H151 H 0.48621 0.79239 0.90645 0.0
H152 H 0.4542 0.76108 0.95426 0.0
H153 H 0.44558 0.69646 0.06847 0.0
H154 H 0.47141 0.68138 0.10656 0.0
H155 H 0.51167 0.76446 0.22763 0.0
H156 H 0.5225 0.82 0.13429 0.0
H157 H 0.49308 0.70951 0.8744 0.0
H158 H 0.56232 0.74078 0.9158 0.0
C159 C 0.82741 0.56533 0.13737 0.0
C160 C 0.84482 0.58621 0.14853 0.0
C161 C 0.8395 0.60017 0.12205 0.0
C162 C 0.81931 0.58709 0.09602 0.0
N163 N 0.81112 0.56563 0.10556 0.0
Co164 Co 0.78375 0.5405 0.07039 0.0
N165 N 0.77823 0.56047 0.02227 0.0
C166 C 0.79053 0.58245 0.02107 0.0
C167 C 0.78227 0.59172 0.98466 0.0
C168 C 0.76336 0.57471 0.96186 0.0
C169 C 0.76114 0.55598 0.98601 0.0
N170 N 0.75657 0.51528 0.03492 0.0
C171 C 0.74154 0.51511 0.9974 0.0
C172 C 0.72448 0.49406 0.98555 0.0
C173 C 0.72881 0.48049 0.01684 0.0
C174 C 0.74812 0.49391 0.04609 0.0
N175 N 0.78924 0.52059 0.1186 0.0
C176 C 0.77637 0.49883 0.12259 0.0
C177 C 0.78521 0.4896 0.1576 0.0
C178 C 0.80519 0.50639 0.1758 0.0
C179 C 0.80734 0.52486 0.15048 0.0
N180 N 0.76652 0.54375 0.12235 0.0
C181 C 0.73993 0.54813 0.1896 0.0
C182 C 0.73686 0.52765 0.17675 0.0
C183 C 0.75028 0.52586 0.14367 0.0
C184 C 0.75694 0.56644 0.16957 0.0
C185 C 0.76988 0.5639 0.13629 0.0
N186 N 0.80101 0.53734 0.01899 0.0
C187 C 0.81282 0.51528 0.97768 0.0
C188 C 0.82996 0.53387 0.95891 0.0
C189 C 0.83172 0.55405 0.96828 0.0
C190 C 0.81699 0.55536 0.99751 0.0
C191 C 0.79864 0.51737 0.00763 0.0
H192 H 0.8192 0.57122 0.0034 0.0
H193 H 0.78628 0.50272 0.02247 0.0
H194 H 0.74695 0.50978 0.13548 0.0
H195 H 0.78223 0.57849 0.12168 0.0
C196 C 0.80925 0.59401 0.05621 0.0
C197 C 0.82764 0.54549 0.15324 0.0
C198 C 0.74202 0.53451 0.97489 0.0
C199 C 0.75773 0.48715 0.08739 0.0
H200 H 0.86024 0.59092 0.17112 0.0
H201 H 0.84977 0.61761 0.1191 0.0
H202 H 0.78893 0.60886 0.97655 0.0
H203 H 0.7522 0.57597 0.93172 0.0
H204 H 0.70999 0.489 0.95846 0.0
H205 H 0.71867 0.46301 0.01944 0.0
H206 H 0.77853 0.47251 0.16621 0.0
H207 H 0.81729 0.50503 0.20238 0.0
H208 H 0.7241 0.51298 0.19207 0.0
H209 H 0.75989 0.58267 0.17817 0.0
H210 H 0.81081 0.49928 0.97093 0.0
H211 H 0.8445 0.56881 0.95331 0.0
C212 C 0.26823 0.8145 0.15965 0.0
C213 C 0.26626 0.83044 0.185 0.0
C214 C 0.24645 0.82777 0.16657 0.0
C215 C 0.23745 0.81036 0.13135 0.0
N216 N 0.25029 0.8017 0.12625 0.0
Co217 Co 0.24349 0.77609 0.07989 0.0
N218 N 0.21519 0.77342 0.04908 0.0
C219 C 0.20699 0.78619 0.06084 0.0
C220 C 0.18768 0.78096 0.03192 0.0
C221 C 0.18326 0.76386 0.99951 0.0
C222 C 0.20015 0.75954 0.01089 0.0
N223 N 0.23654 0.75025 0.03429 0.0
C224 C 0.21915 0.73812 0.99878 0.0
C225 C 0.2203 0.72091 0.97734 0.0
C226 C 0.23921 0.72243 0.99939 0.0
C227 C 0.24842 0.74025 0.03321 0.0
N228 N 0.27206 0.77913 0.10941 0.0
C229 C 0.28041 0.76657 0.09705 0.0
C230 C 0.30079 0.77323 0.12151 0.0
C231 C 0.30591 0.79125 0.15113 0.0
C232 C 0.28816 0.79441 0.14326 0.0
N233 N 0.22897 0.75619 0.13752 0.0
C234 C 0.20904 0.72882 0.22129 0.0
C235 C 0.22566 0.72812 0.19865 0.0
C236 C 0.23513 0.74164 0.15697 0.0
C237 C 0.20258 0.74345 0.20089 0.0
C238 C 0.21274 0.75692 0.15983 0.0
N239 N 0.25803 0.79606 0.02299 0.0
C240 C 0.28431 0.80875 0.95966 0.0
C241 C 0.28166 0.8268 0.94935 0.0
C242 C 0.26636 0.82874 0.97471 0.0
C243 C 0.25489 0.81337 0.01133 0.0
C244 C 0.27219 0.79351 0.99587 0.0
H245 H 0.24396 0.81612 0.03062 0.0
H246 H 0.27482 0.78002 0.00205 0.0
H247 H 0.24745 0.73999 0.14135 0.0
H248 H 0.20705 0.76772 0.14688 0.0
C249 C 0.21773 0.8028 0.09981 0.0
C250 C 0.28751 0.81231 0.16832 0.0
C251 C 0.20113 0.74209 0.98439 0.0
C252 C 0.26867 0.74858 0.06233 0.0
H253 H 0.27804 0.84286 0.21346 0.0
H254 H 0.23961 0.83761 0.17682 0.0
H255 H 0.17799 0.78868 0.03406 0.0
H256 H 0.16921 0.75551 0.97069 0.0
H257 H 0.20873 0.70849 0.94865 0.0
H258 H 0.24559 0.71191 0.99133 0.0
H259 H 0.31081 0.76596 0.11787 0.0
H260 H 0.32109 0.80103 0.17545 0.0
H261 H 0.23155 0.71732 0.21311 0.0
H262 H 0.18947 0.7444 0.21585 0.0
H263 H 0.29582 0.8065 0.9402 0.0
H264 H 0.26388 0.84255 0.96797 0.0
C265 C 0.51357 0.22866 0.21594 0.0
C266 C 0.53355 0.23357 0.2423 0.0
C267 C 0.54853 0.25289 0.22357 0.0
C268 C 0.53694 0.25863 0.18686 0.0
N269 N 0.51538 0.24424 0.18131 0.0
Co270 Co 0.49266 0.24577 0.13058 0.0
N271 N 0.51495 0.27341 0.1003 0.0
C272 C 0.53655 0.28446 0.11544 0.0
C273 C 0.54771 0.30293 0.08768 0.0
C274 C 0.53237 0.30381 0.05267 0.0
C275 C 0.51264 0.2857 0.06106 0.0
N276 N 0.46997 0.24721 0.07965 0.0
C277 C 0.47192 0.26197 0.04238 0.0
C278 C 0.45198 0.25673 0.01515 0.0
C279 C 0.43687 0.23809 0.03612 0.0
C280 C 0.44838 0.23298 0.07466 0.0
N281 N 0.47038 0.21816 0.16081 0.0
C282 C 0.44868 0.20764 0.14735 0.0
C283 C 0.43755 0.18901 0.1746 0.0
C284 C 0.45306 0.18737 0.20714 0.0
C285 C 0.47284 0.20515 0.1976 0.0
N286 N 0.48878 0.26321 0.18398 0.0
C287 C 0.48372 0.28805 0.26042 0.0
C288 C 0.4657 0.27103 0.23143 0.0
C289 C 0.46857 0.25892 0.19372 0.0
C290 C 0.50426 0.29225 0.25075 0.0
C291 C 0.50638 0.27985 0.21268 0.0
N292 N 0.4966 0.2283 0.07775 0.0
C293 C 0.48173 0.19735 0.01661 0.0
C294 C 0.50252 0.20167 0.00893 0.0
C295 C 0.52025 0.21989 0.03497 0.0
C296 C 0.51696 0.23295 0.06858 0.0
C297 C 0.47916 0.21075 0.05105 0.0
H298 H 0.53116 0.24659 0.08711 0.0
H299 H 0.46293 0.20643 0.05609 0.0
H300 H 0.4542 0.24629 0.17282 0.0
H301 H 0.52249 0.28414 0.20729 0.0
C302 C 0.54591 0.27694 0.1555 0.0
C303 C 0.49351 0.20859 0.22359 0.0
C304 C 0.49216 0.28113 0.03127 0.0
C305 C 0.43936 0.21505 0.10704 0.0
H306 H 0.537 0.224 0.27141 0.0
H307 H 0.56588 0.2615 0.23458 0.0
H308 H 0.56496 0.31439 0.09233 0.0
H309 H 0.53536 0.3164 0.02426 0.0
H310 H 0.44871 0.26549 0.9834 0.0
H311 H 0.41956 0.22932 0.02468 0.0
H312 H 0.42026 0.17774 0.17054 0.0
H313 H 0.45019 0.1744 0.23431 0.0
H314 H 0.44943 0.26728 0.23696 0.0
H315 H 0.51876 0.30503 0.27267 0.0
H316 H 0.46749 0.18336 0.99724 0.0
H317 H 0.53666 0.22412 0.02937 0.0
C318 C 0.04557 0.48935 0.5783 0.0
C319 C 0.03466 0.46544 0.77542 0.0
C320 C 0.97179 0.45832 0.73971 0.0
Mg321 Mg 0.02477 0.51408 0.5055 0.0
Mg322 Mg 0.01367 0.54843 0.56029 0.0
O323 O 0.0084 0.51971 0.55672 0.0
Mg324 Mg 0.01592 0.50752 0.62197 0.0
O325 O 0.02321 0.49339 0.68359 0.0
Mg326 Mg 0.00766 0.46215 0.65658 0.0
Mg327 Mg 0.01763 0.49786 0.7509 0.0
C328 C 0.98669 0.52827 0.65877 0.0
O329 O 0.04023 0.54086 0.66291 0.0
O330 O 0.00671 0.52485 0.43983 0.0
O331 O 0.03342 0.53335 0.748 0.0
O332 O 0.0535 0.54934 0.51339 0.0
O333 O 0.99977 0.54804 0.48134 0.0
O334 O 0.04793 0.5711 0.56304 0.0
O335 O 0.99211 0.47362 0.58791 0.0
O336 O 0.99665 0.47859 0.50216 0.0
C337 C 0.98753 0.46626 0.54017 0.0
C338 C 0.99878 0.53769 0.43964 0.0
O339 O 0.99079 0.51244 0.66174 0.0
O340 O 0.02572 0.45555 0.73026 0.0
O341 O 0.99508 0.54386 0.6264 0.0
O342 O 0.97835 0.45137 0.70408 0.0
O343 O 0.034 0.48226 0.79027 0.0
O344 O 0.98378 0.47726 0.76139 0.0
O345 O 0.04049 0.50436 0.57741 0.0
O346 O 0.03647 0.47284 0.60759 0.0
C347 C 0.06016 0.5678 0.53627 0.0
C348 C 0.04233 0.54688 0.71151 0.0
C349 C 0.5056 0.032 0.47786 0.0
C350 C 0.56729 0.02161 0.41154 0.0
C351 C 0.53347 0.95889 0.49136 0.0
Mg352 Mg 0.47897 0.01195 0.57972 0.0
Mg353 Mg 0.50026 0.99841 0.6848 0.0
O354 O 0.49238 0.99459 0.61176 0.0
Mg355 Mg 0.51524 0.00224 0.56402 0.0
O356 O 0.53675 0.01031 0.5119 0.0
Mg357 Mg 0.51626 0.99397 0.44818 0.0
Mg358 Mg 0.56086 0.00644 0.52755 0.0
C359 C 0.52293 0.97171 0.65634 0.0
O360 O 0.5434 0.0272 0.62133 0.0
O361 O 0.45202 0.99333 0.63631 0.0
O362 O 0.5724 0.02505 0.60218 0.0
O363 O 0.4975 0.04008 0.6423 0.0
O364 O 0.46783 0.98396 0.70538 0.0
O365 O 0.51606 0.03233 0.7066 0.0
O366 O 0.48888 0.97815 0.5029 0.0
O367 O 0.46214 0.98445 0.5171 0.0
C368 C 0.46948 0.97458 0.49174 0.0
C369 C 0.45126 0.98402 0.68081 0.0
O370 O 0.52198 0.97601 0.60685 0.0
O371 O 0.54659 0.01277 0.40057 0.0
O372 O 0.51734 0.98015 0.6913 0.0
O373 O 0.52194 0.96479 0.46127 0.0
O374 O 0.57611 0.0209 0.45752 0.0
O375 O 0.54924 0.97211 0.52395 0.0
O376 O 0.50717 0.02764 0.52687 0.0
O377 O 0.50943 0.0223 0.44217 0.0
C378 C 0.51057 0.0455 0.6847 0.0
C379 C 0.5635 0.0326 0.63015 0.0
C380 C 0.5264 0.55049 0.66769 0.0
C381 C 0.46293 0.48383 0.75783 0.0
C382 C 0.49195 0.44809 0.70169 0.0
Mg383 Mg 0.55043 0.55 0.56677 0.0
Mg384 Mg 0.52383 0.5118 0.47405 0.0
O385 O 0.53389 0.51808 0.546 0.0
Mg386 Mg 0.51222 0.50677 0.59866 0.0
O387 O 0.49192 0.49714 0.6543 0.0
Mg388 Mg 0.51292 0.5029 0.71875 0.0
Mg389 Mg 0.4672 0.46918 0.64674 0.0
C390 C 0.49777 0.46432 0.52063 0.0
O391 O 0.48418 0.50375 0.5412 0.0
O392 O 0.57516 0.5527 0.50873 0.0
O393 O 0.45492 0.47405 0.56783 0.0
O394 O 0.53267 0.55997 0.49919 0.0
O395 O 0.55549 0.5251 0.44882 0.0
O396 O 0.51079 0.53203 0.44364 0.0
O397 O 0.53867 0.50937 0.66159 0.0
O398 O 0.56662 0.5399 0.63544 0.0
C399 C 0.55868 0.52429 0.66773 0.0
C400 C 0.57357 0.54137 0.46787 0.0
O401 O 0.50139 0.47179 0.56848 0.0
O402 O 0.48375 0.49543 0.76705 0.0
O403 O 0.50332 0.47677 0.48076 0.0
O404 O 0.50441 0.46687 0.72412 0.0
O405 O 0.45351 0.4727 0.71456 0.0
O406 O 0.477 0.44509 0.665 0.0
O407 O 0.52375 0.54194 0.6219 0.0
O408 O 0.52216 0.53889 0.70903 0.0
C409 C 0.51858 0.55184 0.45875 0.0
C410 C 0.46385 0.48962 0.53557 0.0
H411 H 0.17632 0.50652 0.23671 0.0
H412 H 0.14984 0.50799 0.28689 0.0
H413 H 0.1571 0.46574 0.40204 0.0
H414 H 0.18414 0.4647 0.35322 0.0
H415 H 0.11371 0.45376 0.37146 0.0
H416 H 0.18135 0.51882 0.42945 0.0
H417 H 0.21437 0.55363 0.41656 0.0
H418 H 0.17548 0.57998 0.34529 0.0
H419 H 0.14221 0.54519 0.35704 0.0
H420 H 0.06537 0.46485 0.58438 0.0
H421 H 0.0906 0.4651 0.5272 0.0
H422 H 0.08695 0.51559 0.43579 0.0
H423 H 0.0621 0.51594 0.49438 0.0
H424 H 0.12702 0.52383 0.44738 0.0
H425 H 0.05959 0.46086 0.39132 0.0
H426 H 0.02575 0.42642 0.40121 0.0
H427 H 0.06247 0.39628 0.46247 0.0
H428 H 0.09656 0.43064 0.45374 0.0
C429 C 0.17255 0.49771 0.27302 0.0
C430 C 0.18261 0.48557 0.29082 0.0
C431 C 0.15726 0.49849 0.30153 0.0
C432 C 0.15157 0.4871 0.34846 0.0
C433 C 0.16118 0.47462 0.36585 0.0
C434 C 0.1766 0.47396 0.33761 0.0
C435 C 0.13579 0.48834 0.37983 0.0
C436 C 0.11671 0.46904 0.38853 0.0
C437 C 0.13931 0.50839 0.40051 0.0
C438 C 0.1593 0.52932 0.39357 0.0
C439 C 0.17984 0.53197 0.41059 0.0
C440 C 0.1986 0.55171 0.40357 0.0
C441 C 0.19703 0.56898 0.37997 0.0
C442 C 0.17668 0.56657 0.36347 0.0
C443 C 0.15787 0.54685 0.37032 0.0
C444 C 0.06987 0.47604 0.55213 0.0
C445 C 0.06146 0.49023 0.54375 0.0
C446 C 0.08427 0.47608 0.51917 0.0
C447 C 0.09034 0.48996 0.47618 0.0
C448 C 0.08241 0.50457 0.46839 0.0
C449 C 0.06815 0.50474 0.5019 0.0
C450 C 0.105 0.48916 0.43986 0.0
C451 C 0.12387 0.50854 0.43008 0.0
C452 C 0.10112 0.4692 0.41747 0.0
C453 C 0.08065 0.4484 0.42223 0.0
C454 C 0.06046 0.44693 0.40721 0.0
C455 C 0.04123 0.42742 0.41258 0.0
C456 C 0.04196 0.40919 0.43253 0.0
C457 C 0.06193 0.41042 0.44704 0.0
C458 C 0.08121 0.42991 0.44184 0.0
H459 H 0.02707 0.39411 0.43662 0.0
H460 H 0.21157 0.58425 0.37459 0.0
H461 H 0.71258 0.16197 0.12274 0.0
H462 H 0.68271 0.12937 0.15643 0.0
H463 H 0.6895 0.16628 0.29669 0.0
H464 H 0.72063 0.1981 0.2651 0.0
H465 H 0.68251 0.13079 0.32704 0.0
H466 H 0.64661 0.14993 0.18503 0.0
H467 H 0.63904 0.15887 0.09381 0.0
H468 H 0.62439 0.09567 0.03821 0.0
H469 H 0.63219 0.08647 0.12903 0.0
H470 H 0.56074 0.04691 0.33696 0.0
H471 H 0.58828 0.0756 0.28737 0.0
H472 H 0.6343 0.05576 0.34771 0.0
H473 H 0.60717 0.02775 0.39883 0.0
H474 H 0.61359 0.083 0.21632 0.0
H475 H 0.68324 0.09796 0.38 0.0
H476 H 0.68816 0.09317 0.47588 0.0
H477 H 0.6307 0.09581 0.49567 0.0
H478 H 0.6256 0.10092 0.40008 0.0
C479 C 0.70766 0.16298 0.16085 0.0
C480 C 0.71867 0.18259 0.19105 0.0
C481 C 0.6904 0.14443 0.17987 0.0
C482 C 0.68332 0.14531 0.22875 0.0
C483 C 0.69446 0.165 0.25886 0.0
C484 C 0.71213 0.1833 0.24061 0.0
C485 C 0.66491 0.12565 0.24965 0.0
C486 C 0.66748 0.12044 0.30258 0.0
C487 C 0.64496 0.11215 0.21847 0.0
C488 C 0.6402 0.1176 0.1638 0.0
C489 C 0.64192 0.138 0.1533 0.0
C490 C 0.63758 0.1431 0.10167 0.0
C491 C 0.6313 0.12787 0.06022 0.0
C492 C 0.62929 0.10747 0.07035 0.0
C493 C 0.63366 0.1023 0.1219 0.0
C494 C 0.57659 0.04838 0.33867 0.0
C495 C 0.58191 0.03528 0.3723 0.0
C496 C 0.59236 0.06486 0.31048 0.0
C497 C 0.61364 0.06841 0.31521 0.0
C498 C 0.61825 0.05389 0.34476 0.0
C499 C 0.60268 0.03776 0.37369 0.0
C500 C 0.63138 0.08828 0.29335 0.0
C501 C 0.62869 0.09344 0.24044 0.0
C502 C 0.65086 0.10243 0.32515 0.0
C503 C 0.65393 0.09958 0.3828 0.0
C504 C 0.67171 0.09759 0.40486 0.0
C505 C 0.67452 0.09481 0.45914 0.0
C506 C 0.65972 0.09411 0.49181 0.0
C507 C 0.64211 0.09628 0.4703 0.0
C508 C 0.63925 0.0991 0.41608 0.0
H509 H 0.66191 0.09193 0.53381 0.0
H510 H 0.62794 0.13185 0.02027 0.0
H511 H 0.5229 0.71423 0.20938 0.0
H512 H 0.51983 0.68553 0.26992 0.0
H513 H 0.50084 0.64068 0.13727 0.0
H514 H 0.50421 0.66966 0.0764 0.0
H515 H 0.47579 0.62237 0.22584 0.0
H516 H 0.5503 0.66266 0.1894 0.0
H517 H 0.58521 0.69627 0.1825 0.0
H518 H 0.59068 0.7106 0.3481 0.0
H519 H 0.55557 0.67726 0.35578 0.0
H520 H 0.49595 0.54317 0.35997 0.0
H521 H 0.49221 0.56903 0.30063 0.0
H522 H 0.52469 0.61943 0.42317 0.0
H523 H 0.52908 0.59383 0.48218 0.0
H524 H 0.54226 0.63471 0.33779 0.0
H525 H 0.46873 0.59613 0.37704 0.0
H526 H 0.43264 0.56453 0.38633 0.0
H527 H 0.42439 0.54808 0.22117 0.0
H528 H 0.46053 0.57957 0.21089 0.0
C529 C 0.51814 0.69825 0.19326 0.0
C530 C 0.51421 0.69419 0.13834 0.0
C531 C 0.51631 0.68186 0.22778 0.0
C532 C 0.51029 0.661 0.20813 0.0
C533 C 0.50554 0.65666 0.15328 0.0
C534 C 0.50757 0.67318 0.11859 0.0
C535 C 0.50999 0.64417 0.24497 0.0
C536 C 0.49035 0.62487 0.24986 0.0
C537 C 0.52887 0.64774 0.27737 0.0
C538 C 0.55021 0.66755 0.27306 0.0
C539 C 0.55887 0.67305 0.22427 0.0
C540 C 0.5787 0.69205 0.22022 0.0
C541 C 0.59013 0.70559 0.26481 0.0
C542 C 0.58179 0.70011 0.31358 0.0
C543 C 0.56193 0.68115 0.31781 0.0
C544 C 0.50199 0.55966 0.37468 0.0
C545 C 0.51302 0.56642 0.42582 0.0
C546 C 0.49976 0.57446 0.34063 0.0
C547 C 0.50815 0.5963 0.35718 0.0
C548 C 0.51821 0.60277 0.40913 0.0
C549 C 0.52063 0.58804 0.44301 0.0
C550 C 0.50795 0.61276 0.31938 0.0
C551 C 0.5276 0.63206 0.31404 0.0
C552 C 0.489 0.60926 0.28713 0.0
C553 C 0.46742 0.59011 0.29329 0.0
C554 C 0.45931 0.58567 0.34279 0.0
C555 C 0.43882 0.5678 0.34821 0.0
C556 C 0.42626 0.55429 0.30438 0.0
C557 C 0.43416 0.55858 0.25506 0.0
C558 C 0.45462 0.57646 0.24939 0.0
H559 H 0.41037 0.54058 0.30846 0.0
H560 H 0.60548 0.7203 0.26159 0.0
H561 H 0.85729 0.56474 0.23933 0.0
H562 H 0.89067 0.5633 0.26312 0.0
H563 H 0.87663 0.52302 0.12395 0.0
H564 H 0.84365 0.5253 0.09872 0.0
H565 H 0.88632 0.5078 0.23211 0.0
H566 H 0.91504 0.56599 0.11245 0.0
H567 H 0.92082 0.60041 0.07292 0.0
H568 H 0.95267 0.63478 0.22102 0.0
H569 H 0.94675 0.60047 0.26173 0.0
H570 H 0.98329 0.51196 0.34829 0.0
H571 H 0.95878 0.51305 0.27457 0.0
H572 H 0.96242 0.56912 0.3487 0.0
H573 H 0.98711 0.56854 0.42081 0.0
H574 H 0.95989 0.57307 0.24609 0.0
H575 H 0.92222 0.51527 0.36939 0.0
H576 H 0.91439 0.48136 0.41531 0.0
H577 H 0.89799 0.44697 0.26596 0.0
H578 H 0.90597 0.48078 0.21921 0.0
C579 C 0.86166 0.55607 0.21325 0.0
C580 C 0.84831 0.54553 0.16676 0.0
C581 C 0.88057 0.55513 0.22692 0.0
C582 C 0.8861 0.54321 0.19496 0.0
C583 C 0.87264 0.53241 0.1488 0.0
C584 C 0.85393 0.53372 0.13453 0.0
C585 C 0.90549 0.54139 0.21194 0.0
C586 C 0.90253 0.52184 0.23384 0.0
C587 C 0.92647 0.55984 0.21462 0.0
C588 C 0.93034 0.58061 0.19022 0.0
C589 C 0.92313 0.58085 0.13672 0.0
C590 C 0.92646 0.60035 0.11407 0.0
C591 C 0.93708 0.61977 0.14446 0.0
C592 C 0.94444 0.61972 0.19753 0.0
C593 C 0.94114 0.60025 0.22039 0.0
C594 C 0.97923 0.52479 0.34815 0.0
C595 C 0.98684 0.53991 0.3909 0.0
C596 C 0.96516 0.52535 0.30614 0.0
C597 C 0.95846 0.54095 0.30657 0.0
C598 C 0.96729 0.5569 0.34741 0.0
C599 C 0.98131 0.55642 0.389 0.0
C600 C 0.94067 0.5397 0.2684 0.0
C601 C 0.94385 0.55873 0.24261 0.0
C602 C 0.9198 0.52085 0.26282 0.0
C603 C 0.91497 0.50057 0.29087 0.0
C604 C 0.91708 0.5005 0.3464 0.0
C605 C 0.9126 0.48131 0.37256 0.0
C606 C 0.90577 0.46204 0.34357 0.0
C607 C 0.90334 0.46192 0.28836 0.0
C608 C 0.90785 0.48108 0.26201 0.0
H609 H 0.9023 0.44719 0.36388 0.0
H610 H 0.93964 0.63486 0.12687 0.0
H611 H 0.31675 0.85376 0.14572 0.0
H612 H 0.35029 0.87927 0.20006 0.0
H613 H 0.33515 0.83158 0.32149 0.0
H614 H 0.30142 0.80633 0.26743 0.0
H615 H 0.34915 0.87034 0.36396 0.0
H616 H 0.37336 0.84074 0.23992 0.0
H617 H 0.37684 0.82993 0.15187 0.0
H618 H 0.40848 0.89695 0.10765 0.0
H619 H 0.40485 0.90814 0.19515 0.0
H620 H 0.4717 0.94017 0.45127 0.0
H621 H 0.44306 0.90997 0.39389 0.0
H622 H 0.40541 0.94244 0.38149 0.0
H623 H 0.43348 0.97222 0.43874 0.0
H624 H 0.4202 0.90602 0.29113 0.0
H625 H 0.35515 0.90614 0.40882 0.0
H626 H 0.35229 0.91571 0.49892 0.0
H627 H 0.40336 0.90352 0.56066 0.0
H628 H 0.40628 0.89351 0.47112 0.0
C629 C 0.32061 0.84896 0.18428 0.0
C630 C 0.30675 0.8283 0.20285 0.0
C631 C 0.33978 0.86335 0.21498 0.0
C632 C 0.3454 0.85715 0.26439 0.0
C633 C 0.33119 0.83664 0.28339 0.0
C634 C 0.31198 0.82229 0.25277 0.0
C635 C 0.36586 0.87229 0.29676 0.0
C636 C 0.36468 0.878 0.3481 0.0
C637 C 0.38624 0.88188 0.27656 0.0
C638 C 0.38869 0.87526 0.22404 0.0
C639 C 0.38093 0.85317 0.21132 0.0
C640 C 0.38294 0.84697 0.16151 0.0
C641 C 0.39285 0.86274 0.12417 0.0
C642 C 0.40081 0.88475 0.13662 0.0
C643 C 0.39879 0.89103 0.18635 0.0
C644 C 0.45748 0.94099 0.43541 0.0
C645 C 0.45459 0.95829 0.45029 0.0
C646 C 0.4412 0.92379 0.40266 0.0
C647 C 0.42201 0.92386 0.3845 0.0
C648 C 0.41995 0.94194 0.39601 0.0
C649 C 0.43601 0.95892 0.42878 0.0
C650 C 0.40318 0.90452 0.35718 0.0
C651 C 0.40468 0.89805 0.30702 0.0
C652 C 0.38312 0.89385 0.37881 0.0
C653 C 0.38102 0.89922 0.43312 0.0
C654 C 0.36566 0.90534 0.44166 0.0
C655 C 0.36405 0.91088 0.49264 0.0
C656 C 0.37767 0.91028 0.53547 0.0
C657 C 0.39286 0.90404 0.52744 0.0
C658 C 0.39451 0.89845 0.47657 0.0
H659 H 0.37644 0.91463 0.57488 0.0
H660 H 0.39438 0.85791 0.08561 0.0
H661 H 0.45351 0.27525 0.33158 0.0
H662 H 0.44996 0.2985 0.39501 0.0
H663 H 0.50509 0.35497 0.34076 0.0
H664 H 0.50852 0.33212 0.27716 0.0
H665 H 0.5073 0.35533 0.44797 0.0
H666 H 0.45385 0.34261 0.29662 0.0
H667 H 0.42158 0.3193 0.23485 0.0
H668 H 0.38316 0.29436 0.3648 0.0
H669 H 0.41531 0.31735 0.42739 0.0
H670 H 0.47812 0.44223 0.42725 0.0
H671 H 0.46853 0.4052 0.40417 0.0
H672 H 0.48517 0.3951 0.56639 0.0
H673 H 0.49556 0.43278 0.58965 0.0
H674 H 0.44242 0.36418 0.42762 0.0
H675 H 0.51112 0.36621 0.56364 0.0
H676 H 0.54477 0.39228 0.61792 0.0
H677 H 0.55474 0.44234 0.50681 0.0
H678 H 0.52125 0.4165 0.45179 0.0
C679 C 0.4648 0.29264 0.33305 0.0
C680 C 0.48136 0.30181 0.29938 0.0
C681 C 0.46283 0.30586 0.36952 0.0
C682 C 0.47734 0.32844 0.37277 0.0
C683 C 0.4939 0.33754 0.33946 0.0
C684 C 0.49585 0.32442 0.3031 0.0
C685 C 0.47502 0.34311 0.40877 0.0
C686 C 0.49294 0.35698 0.4443 0.0
C687 C 0.45628 0.34521 0.40425 0.0
C688 C 0.43701 0.33144 0.36667 0.0
C689 C 0.43856 0.33201 0.31202 0.0
C690 C 0.42029 0.31889 0.27687 0.0
C691 C 0.40035 0.30529 0.2959 0.0
C692 C 0.39863 0.30485 0.35013 0.0
C693 C 0.41686 0.31791 0.38545 0.0
C694 C 0.47947 0.43209 0.45834 0.0
C695 C 0.48804 0.44061 0.51008 0.0
C696 C 0.47374 0.41078 0.44514 0.0
C697 C 0.47643 0.39744 0.48331 0.0
C698 C 0.48322 0.40521 0.53612 0.0
C699 C 0.48907 0.42671 0.54942 0.0
C700 C 0.47503 0.37695 0.46522 0.0
C701 C 0.45642 0.36192 0.43309 0.0
C702 C 0.49329 0.37401 0.47202 0.0
C703 C 0.51365 0.38952 0.50404 0.0
C704 C 0.52056 0.38277 0.55081 0.0
C705 C 0.53958 0.3975 0.58169 0.0
C706 C 0.55185 0.41897 0.5659 0.0
C707 C 0.5452 0.42573 0.51906 0.0
C708 C 0.52621 0.41105 0.48803 0.0
H709 H 0.56654 0.43035 0.58991 0.0
H710 H 0.38623 0.29515 0.26863 0.0
H711 H 0.52144 0.79599 0.83493 0.0
H712 H 0.52236 0.82461 0.77624 0.0
H713 H 0.54044 0.8679 0.91185 0.0
H714 H 0.53908 0.83924 0.97008 0.0
H715 H 0.50836 0.8678 0.84995 0.0
H716 H 0.57678 0.8734 0.82312 0.0
H717 H 0.6003 0.85972 0.79797 0.0
H718 H 0.56659 0.84363 0.64144 0.0
H719 H 0.54264 0.85693 0.66591 0.0
H720 H 0.5416 0.97006 0.75347 0.0
H721 H 0.54464 0.93961 0.79125 0.0
H722 H 0.52028 0.90486 0.64055 0.0
H723 H 0.5174 0.93572 0.60194 0.0
H724 H 0.55251 0.89755 0.69958 0.0
H725 H 0.48537 0.8933 0.72427 0.0
H726 H 0.46195 0.90731 0.74818 0.0
H727 H 0.49267 0.92008 0.90765 0.0
H728 H 0.51654 0.90647 0.88448 0.0
C729 C 0.52588 0.81176 0.85181 0.0
C730 C 0.53054 0.81562 0.90676 0.0
C731 C 0.52645 0.82811 0.81838 0.0
C732 C 0.53168 0.84857 0.83947 0.0
C733 C 0.53643 0.85234 0.89449 0.0
C734 C 0.5358 0.83604 0.92775 0.0
C735 C 0.53121 0.8658 0.80515 0.0
C736 C 0.5182 0.87439 0.81743 0.0
C737 C 0.54335 0.87392 0.76123 0.0
C738 C 0.55774 0.86592 0.74655 0.0
C739 C 0.57425 0.86676 0.78349 0.0
C740 C 0.58769 0.85911 0.76932 0.0
C741 C 0.5849 0.85074 0.71819 0.0
C742 C 0.5687 0.85007 0.68107 0.0
C743 C 0.55519 0.85767 0.69506 0.0
C744 C 0.53728 0.95615 0.72793 0.0
C745 C 0.52898 0.9552 0.67484 0.0
C746 C 0.53901 0.93871 0.74966 0.0
C747 C 0.53221 0.91972 0.71913 0.0
C748 C 0.5255 0.91931 0.66497 0.0
C749 C 0.52391 0.93696 0.64291 0.0
C750 C 0.53025 0.89989 0.74576 0.0
C751 C 0.5426 0.89077 0.73189 0.0
C752 C 0.5174 0.8911 0.78818 0.0
C753 C 0.50285 0.899 0.80252 0.0
C754 C 0.48723 0.89922 0.76436 0.0
C755 C 0.47386 0.90709 0.77778 0.0
C756 C 0.47584 0.91462 0.82938 0.0
C757 C 0.49116 0.91425 0.86769 0.0
C758 C 0.5046 0.90644 0.85445 0.0
H759 H 0.46549 0.92071 0.83969 0.0
H760 H 0.59533 0.84483 0.7073 0.0
H761 H 0.71641 0.54924 0.00635 0.0
H762 H 0.68313 0.54569 0.95865 0.0
H763 H 0.68963 0.51158 0.82993 0.0
H764 H 0.72343 0.51601 0.87692 0.0
H765 H 0.67819 0.53935 0.79235 0.0
H766 H 0.65281 0.48433 0.92308 0.0
H767 H 0.65147 0.47075 0.01357 0.0
H768 H 0.62947 0.51331 0.06222 0.0
H769 H 0.63094 0.52736 0.97214 0.0
H770 H 0.55626 0.4886 0.7188 0.0
H771 H 0.58513 0.48803 0.77938 0.0
H772 H 0.62282 0.55824 0.7774 0.0
H773 H 0.59453 0.55889 0.71633 0.0
H774 H 0.61015 0.50811 0.87804 0.0
H775 H 0.67284 0.57158 0.74998 0.0
H776 H 0.67309 0.58558 0.66013 0.0
H777 H 0.61943 0.52343 0.60419 0.0
H778 H 0.61928 0.50886 0.69326 0.0
C779 C 0.71069 0.54109 0.96774 0.0
C780 C 0.72217 0.53269 0.94523 0.0
C781 C 0.69164 0.5389 0.94074 0.0
C782 C 0.68362 0.52794 0.89117 0.0
C783 C 0.69542 0.51996 0.86824 0.0
C784 C 0.71462 0.52241 0.895 0.0
C785 C 0.66309 0.52507 0.86289 0.0
C786 C 0.66333 0.53239 0.81108 0.0
C787 C 0.64357 0.51582 0.88707 0.0
C788 C 0.64209 0.50697 0.94091 0.0
C789 C 0.64774 0.49084 0.95311 0.0
C790 C 0.64697 0.48307 0.00434 0.0
C791 C 0.64042 0.49119 0.04364 0.0
C792 C 0.63454 0.50704 0.03173 0.0
C793 C 0.6353 0.51488 0.98057 0.0
C794 C 0.57051 0.5039 0.73233 0.0
C795 C 0.57345 0.52375 0.71202 0.0
C796 C 0.58692 0.50356 0.76699 0.0
C797 C 0.60625 0.52307 0.78184 0.0
C798 C 0.60818 0.54299 0.7656 0.0
C799 C 0.59203 0.54332 0.73059 0.0
C800 C 0.62552 0.52273 0.80823 0.0
C801 C 0.62502 0.51484 0.85941 0.0
C802 C 0.64477 0.5312 0.78329 0.0
C803 C 0.64592 0.53921 0.72852 0.0
C804 C 0.66127 0.56082 0.71838 0.0
C805 C 0.66136 0.56887 0.6676 0.0
C806 C 0.64614 0.55547 0.62662 0.0
C807 C 0.63109 0.53385 0.63607 0.0
C808 C 0.63106 0.52566 0.68664 0.0
H809 H 0.64613 0.56177 0.58741 0.0
H810 H 0.63987 0.48519 0.0833 0.0
H811 H 0.19987 0.73649 0.87826 0.0
H812 H 0.17113 0.70649 0.82086 0.0
H813 H 0.13209 0.68266 0.95103 0.0
H814 H 0.16106 0.71223 0.00849 0.0
H815 H 0.13693 0.65179 0.90953 0.0
H816 H 0.11911 0.70564 0.84102 0.0
H817 H 0.12629 0.74022 0.79986 0.0
H818 H 0.14313 0.72135 0.66142 0.0
H819 H 0.13634 0.68676 0.70207 0.0
H820 H 0.04023 0.56726 0.79758 0.0
H821 H 0.06601 0.60401 0.83208 0.0
H822 H 0.10168 0.61615 0.6972 0.0
H823 H 0.0756 0.57916 0.66174 0.0
H824 H 0.10038 0.65341 0.73387 0.0
H825 H 0.11888 0.60041 0.80146 0.0
H826 H 0.1119 0.56565 0.8413 0.0
H827 H 0.09474 0.58345 0.9808 0.0
H828 H 0.10127 0.61818 0.94141 0.0
C829 C 0.1849 0.72504 0.89396 0.0
C830 C 0.18251 0.72645 0.94748 0.0
C831 C 0.1685 0.708 0.86126 0.0
C832 C 0.14944 0.69235 0.88164 0.0
C833 C 0.14668 0.69453 0.93452 0.0
C834 C 0.16311 0.71142 0.96722 0.0
C835 C 0.13342 0.6724 0.85012 0.0
C836 C 0.12873 0.65222 0.87149 0.0
C837 C 0.12345 0.67293 0.79936 0.0
C838 C 0.1275 0.69372 0.77491 0.0
C839 C 0.12456 0.70895 0.80203 0.0
C840 C 0.12851 0.72853 0.77873 0.0
C841 C 0.13525 0.73301 0.72814 0.0
C842 C 0.13798 0.71788 0.70066 0.0
C843 C 0.13407 0.69828 0.7238 0.0
C844 C 0.05337 0.5778 0.77478 0.0
C845 C 0.05614 0.57018 0.72746 0.0
C846 C 0.06804 0.59883 0.79448 0.0
C847 C 0.08595 0.61259 0.7677 0.0
C848 C 0.08798 0.60569 0.7185 0.0
C849 C 0.07311 0.58457 0.69841 0.0
C850 C 0.1035 0.63304 0.79438 0.0
C851 C 0.10863 0.65316 0.77195 0.0
C852 C 0.1141 0.63259 0.84418 0.0
C853 C 0.11039 0.61182 0.86828 0.0
C854 C 0.11346 0.59684 0.84047 0.0
C855 C 0.10961 0.57715 0.86299 0.0
C856 C 0.10283 0.57232 0.9135 0.0
C857 C 0.09996 0.5872 0.94165 0.0
C858 C 0.10376 0.6069 0.91927 0.0
H859 H 0.09985 0.55707 0.93086 0.0
H860 H 0.13829 0.74818 0.71017 0.0
H861 H 0.53027 0.18587 0.03011 0.0
H862 H 0.53548 0.16169 0.97413 0.0
H863 H 0.48753 0.16074 0.85434 0.0
H864 H 0.48199 0.18461 0.91071 0.0
H865 H 0.48089 0.12117 0.8681 0.0
H866 H 0.54361 0.19104 0.84488 0.0
H867 H 0.57695 0.22542 0.87372 0.0
H868 H 0.60627 0.18937 0.94438 0.0
H869 H 0.57298 0.15476 0.91663 0.0
H870 H 0.49879 0.07573 0.65454 0.0
H871 H 0.50206 0.10513 0.7094 0.0
H872 H 0.53975 0.09202 0.83296 0.0
H873 H 0.53657 0.06233 0.77846 0.0
H874 H 0.55292 0.13814 0.81999 0.0
H875 H 0.49048 0.06877 0.84599 0.0
H876 H 0.45758 0.03408 0.8166 0.0
H877 H 0.4282 0.06928 0.74107 0.0
H878 H 0.46107 0.10421 0.76945 0.0
C879 C 0.52098 0.18064 0.99163 0.0
C880 C 0.50577 0.18717 0.97465 0.0
C881 C 0.52401 0.16686 0.95962 0.0
C882 C 0.51214 0.15965 0.90964 0.0
C883 C 0.49689 0.16612 0.89272 0.0
C884 C 0.4937 0.17971 0.92495 0.0
C885 C 0.51504 0.14478 0.87559 0.0
C886 C 0.49662 0.1251 0.85707 0.0
C887 C 0.53567 0.1495 0.8625 0.0
C888 C 0.55571 0.17031 0.87917 0.0
C889 C 0.5571 0.19044 0.86696 0.0
C890 C 0.576 0.20997 0.88305 0.0
C891 C 0.5937 0.20958 0.911 0.0
C892 C 0.59254 0.18965 0.92281 0.0
C893 C 0.57366 0.17007 0.90689 0.0
C894 C 0.50823 0.07934 0.69287 0.0
C895 C 0.51699 0.06632 0.71255 0.0
C896 C 0.51006 0.09617 0.72415 0.0
C897 C 0.52079 0.10039 0.77548 0.0
C898 C 0.53132 0.08886 0.79349 0.0
C899 C 0.52939 0.07186 0.76231 0.0
C900 C 0.51875 0.115 0.81197 0.0
C901 C 0.53726 0.13441 0.83113 0.0
C902 C 0.49823 0.11007 0.82591 0.0
C903 C 0.47832 0.0891 0.80939 0.0
C904 C 0.47707 0.06911 0.82277 0.0
C905 C 0.45842 0.04941 0.80637 0.0
C906 C 0.44085 0.04948 0.77683 0.0
C907 C 0.44185 0.06926 0.76388 0.0
C908 C 0.46047 0.08901 0.78017 0.0
H909 H 0.42644 0.03421 0.76404 0.0
H910 H 0.60832 0.22472 0.9234 0.0
H911 H 0.30207 0.45661 0.98997 0.0
H912 H 0.33038 0.45724 0.94291 0.0
H913 H 0.37829 0.51597 0.03019 0.0
H914 H 0.34998 0.51591 0.07596 0.0
H915 H 0.3855 0.51906 0.92945 0.0
H916 H 0.37329 0.46632 0.0619 0.0
H917 H 0.35186 0.43389 0.11307 0.0
H918 H 0.33065 0.39328 0.97226 0.0
H919 H 0.35176 0.42553 0.9201 0.0
H920 H 0.47401 0.51205 0.84311 0.0
H921 H 0.44955 0.51308 0.90214 0.0
H922 H 0.39571 0.45659 0.81948 0.0
H923 H 0.41984 0.45532 0.76103 0.0
H924 H 0.39405 0.45374 0.92522 0.0
H925 H 0.40482 0.50758 0.79265 0.0
H926 H 0.42673 0.54031 0.74281 0.0
H927 H 0.45153 0.5792 0.88686 0.0
H928 H 0.42996 0.54662 0.93765 0.0
C929 C 0.31857 0.46982 0.99873 0.0
C930 C 0.32371 0.48613 0.03706 0.0
C931 C 0.33481 0.47002 0.9722 0.0
C932 C 0.35657 0.48646 0.9836 0.0
C933 C 0.36167 0.50304 0.02091 0.0
C934 C 0.34546 0.50286 0.0474 0.0
C935 C 0.37397 0.48636 0.95655 0.0
C936 C 0.38758 0.50489 0.92928 0.0
C937 C 0.37663 0.46783 0.95578 0.0
C938 C 0.36396 0.44838 0.98702 0.0
C939 C 0.36393 0.4505 0.04177 0.0
C940 C 0.35186 0.43214 0.07097 0.0
C941 C 0.33986 0.41154 0.04591 0.0
C942 C 0.33994 0.40925 0.99161 0.0
C943 C 0.35198 0.42756 0.96222 0.0
C944 C 0.45701 0.49971 0.83793 0.0
C945 C 0.4489 0.48371 0.79703 0.0
C946 C 0.44303 0.50039 0.8715 0.0
C947 C 0.42073 0.48504 0.86485 0.0
C948 C 0.41281 0.46862 0.82537 0.0
C949 C 0.42668 0.468 0.79177 0.0
C950 C 0.40532 0.48628 0.89752 0.0
C951 C 0.39208 0.46796 0.92587 0.0
C952 C 0.40309 0.50504 0.89951 0.0
C953 C 0.41598 0.52463 0.86899 0.0
C954 C 0.41508 0.52308 0.81373 0.0
C955 C 0.42741 0.54161 0.78531 0.0
C956 C 0.44057 0.56181 0.81167 0.0
C957 C 0.44136 0.56353 0.86651 0.0
C958 C 0.42908 0.54505 0.89512 0.0
H959 H 0.4501 0.57613 0.7896 0.0
H960 H 0.33052 0.39735 0.06857 0.0
H961 H 0.84883 0.32624 0.06292 0.0
H962 H 0.87337 0.3553 0.00818 0.0
H963 H 0.84203 0.31303 0.86948 0.0
H964 H 0.81734 0.284 0.92438 0.0
H965 H 0.88756 0.33655 0.87325 0.0
H966 H 0.82929 0.35011 0.89164 0.0
H967 H 0.80448 0.3555 0.94115 0.0
H968 H 0.85848 0.41225 0.02071 0.0
H969 H 0.88368 0.40694 0.97247 0.0
H970 H 0.93845 0.42002 0.6943 0.0
H971 H 0.90928 0.39069 0.73818 0.0
H972 H 0.9309 0.4308 0.88087 0.0
H973 H 0.95955 0.4605 0.83661 0.0
H974 H 0.8882 0.40695 0.87039 0.0
H975 H 0.94664 0.39235 0.85996 0.0
H976 H 0.97247 0.38727 0.81381 0.0
H977 H 0.91956 0.33339 0.72268 0.0
H978 H 0.89341 0.33835 0.76785 0.0
C979 C 0.8473 0.32322 0.02076 0.0
C980 C 0.8312 0.30307 0.99758 0.0
C981 C 0.86125 0.33976 0.98956 0.0
C982 C 0.85938 0.3364 0.93466 0.0
C983 C 0.84373 0.31598 0.91171 0.0
C984 C 0.82965 0.29947 0.94293 0.0
C985 C 0.87336 0.35445 0.90122 0.0
C986 C 0.8875 0.35186 0.87195 0.0
C987 C 0.87357 0.37456 0.90033 0.0
C988 C 0.8584 0.37799 0.92879 0.0
C989 C 0.8359 0.36364 0.92 0.0
C990 C 0.82176 0.36669 0.94781 0.0
C991 C 0.8299 0.38418 0.98414 0.0
C992 C 0.8522 0.39869 0.99261 0.0
C993 C 0.86642 0.39567 0.96504 0.0
C994 C 0.9367 0.42279 0.73466 0.0
C995 C 0.9515 0.44256 0.76209 0.0
C996 C 0.92012 0.40591 0.75989 0.0
C997 C 0.91824 0.40825 0.8134 0.0
C998 C 0.9321 0.42848 0.83975 0.0
C999 C 0.94846 0.44552 0.81426 0.0
C1000 C 0.90274 0.38934 0.84277 0.0
C1001 C 0.88828 0.39171 0.87132 0.0
C1002 C 0.90239 0.36911 0.84341 0.0
C1003 C 0.91808 0.36585 0.81691 0.0
C1004 C 0.94052 0.37949 0.82989 0.0
C1005 C 0.95522 0.37663 0.80393 0.0
C1006 C 0.94766 0.36005 0.76524 0.0
C1007 C 0.92539 0.34624 0.7526 0.0
C1008 C 0.91062 0.34906 0.7784 0.0
H1009 H 0.95906 0.35788 0.74514 0.0
H1010 H 0.81892 0.38651 0.00563 0.0
H1011 H 0.87386 0.55724 0.97999 0.0
H1012 H 0.90094 0.55559 0.93234 0.0
H1013 H 0.8498 0.50599 0.8257 0.0
H1014 H 0.82269 0.50707 0.8747 0.0
H1015 H 0.87961 0.49593 0.84713 0.0
H1016 H 0.87979 0.56132 0.7925 0.0
H1017 H 0.88231 0.597 0.80483 0.0
H1018 H 0.94708 0.62309 0.88162 0.0
H1019 H 0.94484 0.58746 0.87034 0.0
H1020 H 0.96227 0.54768 0.63828 0.0
H1021 H 0.93606 0.54784 0.69146 0.0
H1022 H 0.95009 0.51032 0.80915 0.0
H1023 H 0.97602 0.50961 0.75492 0.0
H1024 H 0.93882 0.56396 0.78231 0.0
H1025 H 0.90563 0.47907 0.87289 0.0
H1026 H 0.89991 0.44274 0.85229 0.0
H1027 H 0.89631 0.4546 0.68625 0.0
H1028 H 0.90172 0.49107 0.706 0.0
C1029 C 0.86845 0.54601 0.94632 0.0
C1030 C 0.84623 0.53242 0.9306 0.0
C1031 C 0.88391 0.54511 0.91903 0.0
C1032 C 0.87746 0.53097 0.8747 0.0
C1033 C 0.85521 0.51706 0.85968 0.0
C1034 C 0.83973 0.5177 0.88756 0.0
C1035 C 0.89384 0.53082 0.84366 0.0
C1036 C 0.89256 0.51083 0.83298 0.0
C1037 C 0.91061 0.55018 0.8245 0.0
C1038 C 0.91207 0.57167 0.83101 0.0
C1039 C 0.89452 0.57463 0.81231 0.0
C1040 C 0.8959 0.59485 0.81908 0.0
C1041 C 0.91482 0.61229 0.84411 0.0
C1042 C 0.93242 0.60956 0.8623 0.0
C1043 C 0.93111 0.58936 0.85569 0.0
C1044 C 0.9598 0.53944 0.6755 0.0
C1045 C 0.97109 0.52844 0.69221 0.0
C1046 C 0.94481 0.53959 0.70597 0.0
C1047 C 0.94088 0.52893 0.75417 0.0
C1048 C 0.95247 0.51828 0.77158 0.0
C1049 C 0.96729 0.51786 0.7406 0.0
C1050 C 0.92458 0.52905 0.78564 0.0
C1051 C 0.92592 0.54907 0.79657 0.0
C1052 C 0.90748 0.50964 0.80361 0.0
C1053 C 0.90426 0.48783 0.791 0.0
C1054 C 0.90355 0.4739 0.83198 0.0
C1055 C 0.90034 0.45325 0.8204 0.0
C1056 C 0.89773 0.44628 0.76793 0.0
C1057 C 0.89837 0.46002 0.72688 0.0
C1058 C 0.90152 0.4807 0.73825 0.0
H1059 H 0.89513 0.43023 0.75905 0.0
H1060 H 0.91586 0.62793 0.84932 0.0
H1061 H 0.26958 0.84565 0.86733 0.0
H1062 H 0.29358 0.8758 0.81373 0.0
H1063 H 0.34932 0.87779 0.90272 0.0
H1064 H 0.32553 0.84757 0.95551 0.0
H1065 H 0.34977 0.91983 0.88999 0.0
H1066 H 0.33553 0.85455 0.79087 0.0
H1067 H 0.31127 0.81984 0.74127 0.0
H1068 H 0.28805 0.85256 0.63153 0.0
H1069 H 0.31196 0.88744 0.68103 0.0
H1070 H 0.44542 0.96761 0.77914 0.0
H1071 H 0.41165 0.945 0.81624 0.0
H1072 H 0.37591 0.95026 0.67445 0.0
H1073 H 0.41009 0.97279 0.63585 0.0
H1074 H 0.35822 0.9089 0.70417 0.0
H1075 H 0.37776 0.9753 0.7895 0.0
H1076 H 0.40176 0.01064 0.83661 0.0
H1077 H 0.41333 0.97788 0.96959 0.0
H1078 H 0.38964 0.94233 0.92307 0.0
C1079 C 0.28696 0.85251 0.87512 0.0
C1080 C 0.29576 0.84426 0.91522 0.0
C1081 C 0.30059 0.86967 0.84461 0.0
C1082 C 0.32315 0.87899 0.85454 0.0
C1083 C 0.33192 0.8708 0.89466 0.0
C1084 C 0.31835 0.85346 0.92443 0.0
C1085 C 0.33795 0.89726 0.8234 0.0
C1086 C 0.35165 0.91755 0.84932 0.0
C1087 C 0.33959 0.89447 0.76968 0.0
C1088 C 0.32527 0.87351 0.74008 0.0
C1089 C 0.32507 0.85429 0.75652 0.0
C1090 C 0.31143 0.8346 0.72835 0.0
C1091 C 0.29806 0.83397 0.6834 0.0
C1092 C 0.29836 0.85306 0.66644 0.0
C1093 C 0.31195 0.87279 0.69453 0.0
C1094 C 0.43047 0.96422 0.75573 0.0
C1095 C 0.43052 0.97204 0.70438 0.0
C1096 C 0.4111 0.95138 0.77731 0.0
C1097 C 0.39123 0.94623 0.74856 0.0
C1098 C 0.39109 0.95421 0.69749 0.0
C1099 C 0.41062 0.96713 0.67561 0.0
C1100 C 0.37086 0.93129 0.77155 0.0
C1101 C 0.35602 0.91158 0.74426 0.0
C1102 C 0.36792 0.93476 0.82382 0.0
C1103 C 0.38191 0.95609 0.85264 0.0
C1104 C 0.38548 0.97561 0.8287 0.0
C1105 C 0.39905 0.99569 0.8553 0.0
C1106 C 0.40909 0.99651 0.906 0.0
C1107 C 0.40552 0.97722 0.93031 0.0
C1108 C 0.39197 0.95708 0.90388 0.0
H1109 H 0.41962 0.01208 0.92648 0.0
H1110 H 0.28752 0.81872 0.66162 0.0
H1111 H 0.50307 0.28529 0.9306 0.0
H1112 H 0.50261 0.31118 0.86483 0.0
H1113 H 0.48011 0.33775 0.97734 0.0
H1114 H 0.48019 0.31156 0.04243 0.0
H1115 H 0.45895 0.3339 0.88311 0.0
H1116 H 0.53347 0.363 0.95292 0.0
H1117 H 0.56738 0.36211 0.97534 0.0
H1118 H 0.57004 0.35219 0.81129 0.0
H1119 H 0.53591 0.35265 0.78798 0.0
H1120 H 0.52217 0.44904 0.77835 0.0
H1121 H 0.52214 0.41835 0.8236 0.0
H1122 H 0.46663 0.37359 0.71838 0.0
H1123 H 0.4662 0.40444 0.67331 0.0
H1124 H 0.52599 0.38453 0.80289 0.0
H1125 H 0.43323 0.33029 0.78969 0.0
H1126 H 0.40041 0.33375 0.77636 0.0
H1127 H 0.43666 0.39905 0.84265 0.0
H1128 H 0.46958 0.39586 0.85695 0.0
C1129 C 0.498 0.29668 0.9409 0.0
C1130 C 0.49176 0.29665 0.99128 0.0
C1131 C 0.49777 0.31146 0.90353 0.0
C1132 C 0.49151 0.32658 0.91622 0.0
C1133 C 0.48496 0.32624 0.9665 0.0
C1134 C 0.4851 0.31141 0.00372 0.0
C1135 C 0.49226 0.34315 0.87784 0.0
C1136 C 0.47358 0.34484 0.86527 0.0
C1137 C 0.51138 0.35766 0.85491 0.0
C1138 C 0.53201 0.35762 0.86877 0.0
C1139 C 0.5412 0.36047 0.92166 0.0
C1140 C 0.56047 0.36006 0.93453 0.0
C1141 C 0.57083 0.35704 0.89478 0.0
C1142 C 0.56197 0.35449 0.84205 0.0
C1143 C 0.54267 0.35482 0.82898 0.0
C1144 C 0.51005 0.4327 0.76423 0.0
C1145 C 0.49391 0.42927 0.72272 0.0
C1146 C 0.51014 0.41511 0.79013 0.0
C1147 C 0.49415 0.39362 0.77519 0.0
C1148 C 0.47889 0.39004 0.73136 0.0
C1149 C 0.47872 0.40771 0.70546 0.0
C1150 C 0.4927 0.37532 0.80827 0.0
C1151 C 0.51125 0.37331 0.81993 0.0
C1152 C 0.47363 0.36089 0.83151 0.0
C1153 C 0.45389 0.3629 0.82375 0.0
C1154 C 0.43415 0.34535 0.80152 0.0
C1155 C 0.41555 0.34727 0.7938 0.0
C1156 C 0.41647 0.36664 0.80847 0.0
C1157 C 0.43598 0.38409 0.83112 0.0
C1158 C 0.45462 0.38224 0.839 0.0
H1159 H 0.40206 0.3681 0.80239 0.0
H1160 H 0.58575 0.35673 0.90481 0.0
H1161 H 0.19694 0.46523 0.96893 0.0
H1162 H 0.1611 0.455 0.92475 0.0
H1163 H 0.13332 0.43031 0.0711 0.0
H1164 H 0.16975 0.44297 0.11647 0.0
H1165 H 0.12468 0.4231 0.9003 0.0
H1166 H 0.09046 0.43719 0.07915 0.0
H1167 H 0.10272 0.45652 0.1662 0.0
H1168 H 0.16236 0.50443 0.1095 0.0
H1169 H 0.15031 0.48554 0.02195 0.0
H1170 H 0.02961 0.42436 0.78352 0.0
H1171 H 0.0519 0.41346 0.84234 0.0
H1172 H 0.09122 0.47991 0.90306 0.0
H1173 H 0.06856 0.49043 0.84713 0.0
H1174 H 0.08615 0.45526 0.97971 0.0
H1175 H 0.10485 0.456 0.80048 0.0
H1176 H 0.09689 0.44365 0.70687 0.0
H1177 H 0.07622 0.37797 0.75377 0.0
H1178 H 0.08386 0.38994 0.84769 0.0
C1179 C 0.18319 0.45808 0.99174 0.0
C1180 C 0.18607 0.45609 0.04647 0.0
C1181 C 0.16263 0.45175 0.96634 0.0
C1182 C 0.14448 0.44247 0.99489 0.0
C1183 C 0.14713 0.43821 0.0486 0.0
C1184 C 0.16786 0.44534 0.07443 0.0
C1185 C 0.1235 0.43943 0.96917 0.0
C1186 C 0.11613 0.42995 0.91793 0.0
C1187 C 0.11218 0.44824 0.99202 0.0
C1188 C 0.1196 0.45978 0.04436 0.0
C1189 C 0.10617 0.45186 0.08532 0.0
C1190 C 0.11308 0.46274 0.13468 0.0
C1191 C 0.13332 0.48165 0.14338 0.0
C1192 C 0.1467 0.48975 0.10272 0.0
C1193 C 0.13984 0.47897 0.05323 0.0
C1194 C 0.04294 0.4365 0.80983 0.0
C1195 C 0.0474 0.45822 0.81081 0.0
C1196 C 0.05566 0.4303 0.84331 0.0
C1197 C 0.07336 0.44589 0.87695 0.0
C1198 C 0.07754 0.46748 0.87804 0.0
C1199 C 0.06462 0.47353 0.84576 0.0
C1200 C 0.08848 0.44056 0.90947 0.0
C1201 C 0.09441 0.44798 0.96249 0.0
C1202 C 0.09921 0.43097 0.88726 0.0
C1203 C 0.09464 0.42379 0.83095 0.0
C1204 C 0.09847 0.4389 0.79076 0.0
C1205 C 0.09404 0.43198 0.73769 0.0
C1206 C 0.08598 0.41003 0.72438 0.0
C1207 C 0.0824 0.39496 0.76414 0.0
C1208 C 0.08678 0.40179 0.81727 0.0
H1209 H 0.08255 0.4047 0.68328 0.0
H1210 H 0.13857 0.49008 0.18154 0.0
H1211 H 0.72821 0.18365 0.87734 0.0
H1212 H 0.69737 0.1564 0.82075 0.0
H1213 H 0.65512 0.17357 0.88983 0.0
H1214 H 0.68573 0.19965 0.95002 0.0
H1215 H 0.63712 0.1325 0.88606 0.0
H1216 H 0.66795 0.18532 0.75773 0.0
H1217 H 0.69612 0.21292 0.70665 0.0
H1218 H 0.70835 0.16415 0.64849 0.0
H1219 H 0.68048 0.1363 0.69984 0.0
H1220 H 0.55455 0.06079 0.67828 0.0
H1221 H 0.57943 0.0922 0.73639 0.0
H1222 H 0.62977 0.07619 0.72765 0.0
H1223 H 0.60478 0.04425 0.67117 0.0
H1224 H 0.63945 0.11977 0.6969 0.0
H1225 H 0.60827 0.06792 0.83589 0.0
H1226 H 0.57806 0.04197 0.88449 0.0
H1227 H 0.56372 0.09224 0.91805 0.0
H1228 H 0.59349 0.11836 0.86841 0.0
C1229 C 0.71238 0.18165 0.88066 0.0
C1230 C 0.70946 0.19372 0.91866 0.0
C1231 C 0.69476 0.16628 0.84754 0.0
C1232 C 0.67392 0.16311 0.85042 0.0
C1233 C 0.67106 0.17577 0.88678 0.0
C1234 C 0.68865 0.19088 0.92074 0.0
C1235 C 0.65503 0.14533 0.81845 0.0
C1236 C 0.63743 0.13002 0.84438 0.0
C1237 C 0.65535 0.14203 0.76404 0.0
C1238 C 0.67217 0.15872 0.73294 0.0
C1239 C 0.67674 0.1805 0.73435 0.0
C1240 C 0.69265 0.19619 0.70529 0.0
C1241 C 0.70404 0.1903 0.67441 0.0
C1242 C 0.69951 0.16869 0.67244 0.0
C1243 C 0.68363 0.15293 0.70145 0.0
C1244 C 0.57062 0.06343 0.6903 0.0
C1245 C 0.57757 0.04985 0.67057 0.0
C1246 C 0.58487 0.08153 0.72304 0.0
C1247 C 0.60635 0.08642 0.73598 0.0
C1248 C 0.6132 0.07259 0.71781 0.0
C1249 C 0.59889 0.05436 0.68563 0.0
C1250 C 0.62226 0.1068 0.76515 0.0
C1251 C 0.63913 0.12259 0.73839 0.0
C1252 C 0.62092 0.11081 0.81823 0.0
C1253 C 0.60294 0.09502 0.8478 0.0
C1254 C 0.5985 0.07337 0.853 0.0
C1255 C 0.58147 0.05864 0.88081 0.0
C1256 C 0.5689 0.06542 0.90411 0.0
C1257 C 0.5734 0.08698 0.89979 0.0
C1258 C 0.59033 0.10175 0.87175 0.0
H1259 H 0.55575 0.054 0.92568 0.0
H1260 H 0.71635 0.20247 0.65194 0.0
H1261 H 0.55917 0.7382 0.82019 0.0
H1262 H 0.56392 0.71636 0.75542 0.0
H1263 H 0.50566 0.65928 0.79505 0.0
H1264 H 0.50093 0.68079 0.85971 0.0
H1265 H 0.57122 0.68383 0.77583 0.0
H1266 H 0.48059 0.62408 0.69542 0.0
H1267 H 0.44772 0.62613 0.66633 0.0
H1268 H 0.48684 0.69397 0.63418 0.0
H1269 H 0.51999 0.69228 0.66226 0.0
H1270 H 0.54044 0.57524 0.7586 0.0
H1271 H 0.54747 0.61228 0.76994 0.0
H1272 H 0.53534 0.61605 0.60135 0.0
H1273 H 0.52792 0.57857 0.58962 0.0
H1274 H 0.51206 0.62761 0.65256 0.0
H1275 H 0.58588 0.6496 0.66263 0.0
H1276 H 0.61946 0.64837 0.6879 0.0
H1277 H 0.61586 0.65858 0.85108 0.0
H1278 H 0.58208 0.65953 0.82699 0.0
C1279 C 0.54728 0.72102 0.81467 0.0
C1280 C 0.52969 0.71121 0.84519 0.0
C1281 C 0.54996 0.70862 0.77747 0.0
C1282 C 0.53501 0.68626 0.7699 0.0
C1283 C 0.51711 0.67662 0.79918 0.0
C1284 C 0.51443 0.68896 0.83628 0.0
C1285 C 0.53911 0.67224 0.73621 0.0
C1286 C 0.55845 0.67175 0.74817 0.0
C1287 C 0.52276 0.65702 0.69864 0.0
C1288 C 0.50282 0.65805 0.68109 0.0
C1289 C 0.48222 0.63941 0.68174 0.0
C1290 C 0.46352 0.64052 0.66553 0.0
C1291 C 0.46518 0.66017 0.64847 0.0
C1292 C 0.48557 0.67877 0.64751 0.0
C1293 C 0.50432 0.67775 0.66365 0.0
C1294 C 0.53958 0.58401 0.72375 0.0
C1295 C 0.53346 0.5739 0.67325 0.0
C1296 C 0.54383 0.60531 0.73025 0.0
C1297 C 0.54217 0.61703 0.68643 0.0
C1298 C 0.53685 0.60732 0.63564 0.0
C1299 C 0.53266 0.58594 0.62903 0.0
C1300 C 0.54347 0.63827 0.69535 0.0
C1301 C 0.52515 0.64013 0.67876 0.0
C1302 C 0.56091 0.65496 0.72796 0.0
C1303 C 0.58139 0.65464 0.74291 0.0
C1304 C 0.59218 0.65149 0.70395 0.0
C1305 C 0.61127 0.65084 0.71807 0.0
C1306 C 0.61979 0.6534 0.77105 0.0
C1307 C 0.60926 0.65664 0.81003 0.0
C1308 C 0.59016 0.65728 0.79614 0.0
H1309 H 0.63456 0.65288 0.78191 0.0
H1310 H 0.45068 0.661 0.63597 0.0
H1311 H 0.48887 0.17076 0.1867 0.0
H1312 H 0.48946 0.14118 0.23808 0.0
H1313 H 0.50026 0.17742 0.38266 0.0
H1314 H 0.49941 0.20691 0.33094 0.0
H1315 H 0.52131 0.14143 0.3044 0.0
H1316 H 0.47554 0.13983 0.47954 0.0
H1317 H 0.44766 0.14869 0.4988 0.0
H1318 H 0.42155 0.13694 0.33551 0.0
H1319 H 0.44902 0.12769 0.31545 0.0
H1320 H 0.50914 0.06599 0.53697 0.0
H1321 H 0.50553 0.09704 0.50287 0.0
H1322 H 0.48594 0.06705 0.34657 0.0
H1323 H 0.48962 0.03639 0.37974 0.0
H1324 H 0.47143 0.10225 0.4401 0.0
H1325 H 0.51663 0.10442 0.26389 0.0
H1326 H 0.54335 0.09418 0.24301 0.0
H1327 H 0.56943 0.10381 0.4062 0.0
H1328 H 0.54309 0.1144 0.42793 0.0
C1329 C 0.49135 0.17229 0.22945 0.0
C1330 C 0.49417 0.19095 0.25515 0.0
C1331 C 0.49173 0.15549 0.25874 0.0
C1332 C 0.49478 0.15701 0.31425 0.0
C1333 C 0.49763 0.17576 0.33994 0.0
C1334 C 0.49727 0.1926 0.31055 0.0
C1335 C 0.49533 0.13908 0.3448 0.0
C1336 C 0.51029 0.13282 0.3338 0.0
C1337 C 0.48135 0.12816 0.38422 0.0
C1338 C 0.46452 0.13335 0.39594 0.0
C1339 C 0.4638 0.13907 0.4478 0.0
C1340 C 0.44807 0.14416 0.45885 0.0
C1341 C 0.4329 0.14346 0.41837 0.0
C1342 C 0.43336 0.13757 0.36679 0.0
C1343 C 0.44902 0.13243 0.35556 0.0
C1344 C 0.50365 0.06587 0.49558 0.0
C1345 C 0.50006 0.04895 0.46085 0.0
C1346 C 0.50157 0.08358 0.47621 0.0
C1347 C 0.49585 0.08449 0.42203 0.0
C1348 C 0.49071 0.06682 0.38833 0.0
C1349 C 0.49288 0.04932 0.40742 0.0
C1350 C 0.49714 0.10451 0.39888 0.0
C1351 C 0.4826 0.11114 0.41122 0.0
C1352 C 0.51146 0.1158 0.36048 0.0
C1353 C 0.5278 0.11008 0.34754 0.0
C1354 C 0.52817 0.1045 0.29524 0.0
C1355 C 0.54322 0.0986 0.28328 0.0
C1356 C 0.55805 0.09832 0.32328 0.0
C1357 C 0.5579 0.10399 0.3753 0.0
C1358 C 0.5429 0.10992 0.38746 0.0
H1359 H 0.56968 0.09377 0.31397 0.0
H1360 H 0.42076 0.14743 0.427 0.0
H1361 H 0.30253 0.50579 0.38634 0.0
H1362 H 0.33737 0.50977 0.42454 0.0
H1363 H 0.36206 0.52834 0.27306 0.0
H1364 H 0.32758 0.52422 0.23503 0.0
H1365 H 0.36411 0.49342 0.30817 0.0
H1366 H 0.38528 0.56436 0.37351 0.0
H1367 H 0.38188 0.59251 0.41975 0.0
H1368 H 0.37808 0.55964 0.56575 0.0
H1369 H 0.38115 0.53112 0.52021 0.0
H1370 H 0.47347 0.52727 0.48468 0.0
H1371 H 0.44825 0.53555 0.43116 0.0
H1372 H 0.3969 0.46918 0.44311 0.0
H1373 H 0.42207 0.46067 0.49662 0.0
H1374 H 0.41221 0.53251 0.47028 0.0
H1375 H 0.36253 0.45616 0.32816 0.0
H1376 H 0.36903 0.43182 0.27482 0.0
H1377 H 0.43528 0.48213 0.27036 0.0
H1378 H 0.4291 0.50688 0.32293 0.0
C1379 C 0.31561 0.51117 0.36171 0.0
C1380 C 0.31209 0.5138 0.30741 0.0
C1381 C 0.33548 0.51352 0.38347 0.0
C1382 C 0.35209 0.51894 0.35122 0.0
C1383 C 0.34929 0.52377 0.29831 0.0
C1384 C 0.32951 0.52133 0.27666 0.0
C1385 C 0.37119 0.51688 0.37044 0.0
C1386 C 0.37467 0.50203 0.34355 0.0
C1387 C 0.38521 0.52848 0.41577 0.0
C1388 C 0.38322 0.54549 0.44333 0.0
C1389 C 0.3835 0.56302 0.41537 0.0
C1390 C 0.38169 0.57907 0.44148 0.0
C1391 C 0.37971 0.57783 0.49563 0.0
C1392 C 0.37959 0.56056 0.5238 0.0
C1393 C 0.38138 0.54446 0.49787 0.0
C1394 C 0.45699 0.51423 0.47464 0.0
C1395 C 0.44974 0.49329 0.495 0.0
C1396 C 0.44257 0.51908 0.44448 0.0
C1397 C 0.42076 0.50302 0.43364 0.0
C1398 C 0.41374 0.48176 0.45102 0.0
C1399 C 0.42811 0.47694 0.48162 0.0
C1400 C 0.40483 0.50881 0.40848 0.0
C1401 C 0.40174 0.52409 0.43466 0.0
C1402 C 0.39156 0.4981 0.36156 0.0
C1403 C 0.39539 0.48327 0.33004 0.0
C1404 C 0.37847 0.46204 0.31571 0.0
C1405 C 0.3821 0.44817 0.28559 0.0
C1406 C 0.40257 0.45539 0.26939 0.0
C1407 C 0.41945 0.47652 0.28315 0.0
C1408 C 0.41591 0.49045 0.31321 0.0
H1409 H 0.40534 0.44464 0.24605 0.0
H1410 H 0.37832 0.59028 0.51578 0.0
H1411 H 0.81931 0.28609 0.36621 0.0
H1412 H 0.84608 0.31095 0.43628 0.0
H1413 H 0.89641 0.33076 0.33321 0.0
H1414 H 0.86995 0.30572 0.26403 0.0
H1415 H 0.91211 0.3296 0.43061 0.0
H1416 H 0.8684 0.35883 0.34369 0.0
H1417 H 0.83417 0.35853 0.3158 0.0
H1418 H 0.82166 0.35587 0.4778 0.0
H1419 H 0.85573 0.35589 0.50656 0.0
H1420 H 0.98324 0.44204 0.4538 0.0
H1421 H 0.95556 0.40426 0.43142 0.0
H1422 H 0.92837 0.40016 0.5773 0.0
H1423 H 0.95623 0.43808 0.60033 0.0
H1424 H 0.89867 0.38827 0.48451 0.0
H1425 H 0.95008 0.37012 0.56757 0.0
H1426 H 0.9863 0.37402 0.58791 0.0
H1427 H 0.98636 0.35901 0.42569 0.0
H1428 H 0.95028 0.35535 0.40414 0.0
C1429 C 0.83616 0.29559 0.35897 0.0
C1430 C 0.84258 0.29413 0.3097 0.0
C1431 C 0.85141 0.30971 0.39894 0.0
C1432 C 0.87319 0.32291 0.3897 0.0
C1433 C 0.87973 0.32066 0.34136 0.0
C1434 C 0.86458 0.30638 0.30178 0.0
C1435 C 0.8889 0.34064 0.42758 0.0
C1436 C 0.90916 0.34238 0.4427 0.0
C1437 C 0.88485 0.35706 0.44441 0.0
C1438 C 0.86441 0.35705 0.42719 0.0
C1439 C 0.85825 0.35802 0.3733 0.0
C1440 C 0.83891 0.35792 0.35735 0.0
C1441 C 0.82571 0.3571 0.395 0.0
C1442 C 0.83187 0.35644 0.44869 0.0
C1443 C 0.85119 0.35649 0.46483 0.0
C1444 C 0.97152 0.43305 0.4814 0.0
C1445 C 0.97179 0.44301 0.52863 0.0
C1446 C 0.95585 0.41143 0.46879 0.0
C1447 C 0.94011 0.39945 0.50299 0.0
C1448 C 0.94053 0.40916 0.5507 0.0
C1449 C 0.95643 0.43076 0.56373 0.0
C1450 C 0.92208 0.3776 0.4856 0.0
C1451 C 0.90138 0.37511 0.47422 0.0
C1452 C 0.9259 0.36076 0.47132 0.0
C1453 C 0.94745 0.3625 0.48423 0.0
C1454 C 0.95785 0.36775 0.53616 0.0
C1455 C 0.97837 0.36991 0.54791 0.0
C1456 C 0.98863 0.36678 0.50811 0.0
C1457 C 0.97837 0.36141 0.4565 0.0
C1458 C 0.95786 0.35924 0.44451 0.0
H1459 H 0.00453 0.3685 0.51727 0.0
H1460 H 0.81074 0.35703 0.38258 0.0
H1461 H 0.54841 0.83226 0.23173 0.0
H1462 H 0.54626 0.85219 0.30601 0.0
H1463 H 0.48091 0.80049 0.31977 0.0
H1464 H 0.48327 0.78016 0.24615 0.0
H1465 H 0.48868 0.84574 0.30637 0.0
H1466 H 0.51204 0.80424 0.41582 0.0
H1467 H 0.53464 0.78783 0.44448 0.0
H1468 H 0.59093 0.85157 0.46762 0.0
H1469 H 0.56876 0.86838 0.43825 0.0
H1470 H 0.49428 0.92184 0.48522 0.0
H1471 H 0.48623 0.88536 0.45805 0.0
H1472 H 0.55456 0.90973 0.45203 0.0
H1473 H 0.56262 0.94568 0.48299 0.0
H1474 H 0.53719 0.86959 0.47473 0.0
H1475 H 0.51776 0.90973 0.34193 0.0
H1476 H 0.49787 0.92836 0.30717 0.0
H1477 H 0.4373 0.86973 0.32074 0.0
H1478 H 0.45689 0.85081 0.35616 0.0
C1479 C 0.53373 0.82508 0.25117 0.0
C1480 C 0.51598 0.80482 0.23354 0.0
C1481 C 0.53255 0.83634 0.29361 0.0
C1482 C 0.51349 0.82766 0.3184 0.0
C1483 C 0.49579 0.80728 0.30127 0.0
C1484 C 0.49714 0.79576 0.25944 0.0
C1485 C 0.51167 0.84111 0.35859 0.0
C1486 C 0.49879 0.85054 0.34395 0.0
C1487 C 0.52526 0.84759 0.40683 0.0
C1488 C 0.53872 0.83757 0.42451 0.0
C1489 C 0.52927 0.81476 0.42656 0.0
C1490 C 0.542 0.80539 0.44304 0.0
C1491 C 0.56421 0.81865 0.4578 0.0
C1492 C 0.57373 0.84132 0.45618 0.0
C1493 C 0.56107 0.85078 0.43969 0.0
C1494 C 0.50754 0.91912 0.47944 0.0
C1495 C 0.52901 0.93644 0.48524 0.0
C1496 C 0.50295 0.89836 0.46374 0.0
C1497 C 0.51971 0.89497 0.45113 0.0
C1498 C 0.54131 0.91193 0.46113 0.0
C1499 C 0.54594 0.93249 0.47864 0.0
C1500 C 0.5149 0.87498 0.42152 0.0
C1501 C 0.52654 0.86434 0.438 0.0
C1502 C 0.50055 0.86771 0.37414 0.0
C1503 C 0.48877 0.87896 0.35223 0.0
C1504 C 0.5002 0.90085 0.33767 0.0
C1505 C 0.48899 0.91145 0.31788 0.0
C1506 C 0.46634 0.90024 0.31186 0.0
C1507 C 0.45485 0.87838 0.32551 0.0
C1508 C 0.46599 0.86772 0.34544 0.0
H1509 H 0.4577 0.90848 0.29655 0.0
H1510 H 0.57404 0.81136 0.47056 0.0
H1511 H 0.69582 0.52359 0.1814 0.0
H1512 H 0.67104 0.52751 0.23301 0.0
H1513 H 0.72524 0.58168 0.32186 0.0
H1514 H 0.75027 0.57764 0.27068 0.0
H1515 H 0.69393 0.55141 0.38493 0.0
H1516 H 0.69642 0.59245 0.22984 0.0
H1517 H 0.69472 0.59787 0.13376 0.0
H1518 H 0.62901 0.54493 0.11359 0.0
H1519 H 0.63043 0.53894 0.20944 0.0
H1520 H 0.61668 0.57008 0.50157 0.0
H1521 H 0.64843 0.57633 0.459 0.0
H1522 H 0.60619 0.52963 0.33464 0.0
H1523 H 0.57479 0.52372 0.37561 0.0
H1524 H 0.63613 0.56327 0.29295 0.0
H1525 H 0.63408 0.51744 0.43844 0.0
H1526 H 0.63541 0.50625 0.53069 0.0
H1527 H 0.69808 0.563 0.56651 0.0
H1528 H 0.69705 0.57464 0.47451 0.0
C1529 C 0.70251 0.5362 0.21228 0.0
C1530 C 0.72501 0.5503 0.222 0.0
C1531 C 0.68832 0.53854 0.24143 0.0
C1532 C 0.69631 0.55504 0.28084 0.0
C1533 C 0.71877 0.56891 0.29144 0.0
C1534 C 0.73301 0.56666 0.26199 0.0
C1535 C 0.68102 0.5577 0.31058 0.0
C1536 C 0.68155 0.5545 0.36519 0.0
C1537 C 0.66465 0.56126 0.2844 0.0
C1538 C 0.66358 0.56519 0.22686 0.0
C1539 C 0.68164 0.5819 0.2049 0.0
C1540 C 0.68073 0.58506 0.15046 0.0
C1541 C 0.66179 0.57171 0.11757 0.0
C1542 C 0.64368 0.55523 0.13909 0.0
C1543 C 0.64452 0.55197 0.19349 0.0
C1544 C 0.6142 0.56132 0.46489 0.0
C1545 C 0.59313 0.54641 0.44208 0.0
C1546 C 0.63236 0.56479 0.44081 0.0
C1547 C 0.62972 0.55336 0.39368 0.0
C1548 C 0.60871 0.53873 0.37078 0.0
C1549 C 0.59069 0.53531 0.39454 0.0
C1550 C 0.64852 0.55626 0.36737 0.0
C1551 C 0.64874 0.56064 0.31319 0.0
C1552 C 0.6653 0.55333 0.39381 0.0
C1553 C 0.66537 0.54705 0.44979 0.0
C1554 C 0.64802 0.52769 0.46616 0.0
C1555 C 0.64878 0.5212 0.5183 0.0
C1556 C 0.66688 0.53385 0.55432 0.0
C1557 C 0.68412 0.55317 0.53848 0.0
C1558 C 0.68345 0.55973 0.48637 0.0
H1559 H 0.66749 0.52873 0.59459 0.0
H1560 H 0.66113 0.57415 0.07542 0.0
H1561 H 0.20073 0.6868 0.23641 0.0
H1562 H 0.1809 0.66196 0.30361 0.0
H1563 H 0.17108 0.71144 0.3696 0.0
H1564 H 0.19243 0.73709 0.30495 0.0
H1565 H 0.17622 0.68845 0.44683 0.0
H1566 H 0.13192 0.67131 0.28139 0.0
H1567 H 0.12233 0.66273 0.18569 0.0
H1568 H 0.12694 0.60472 0.20639 0.0
H1569 H 0.13686 0.61311 0.30218 0.0
H1570 H 0.07568 0.6117 0.55095 0.0
H1571 H 0.10625 0.64133 0.51125 0.0
H1572 H 0.12293 0.59526 0.45504 0.0
H1573 H 0.09245 0.56564 0.49401 0.0
H1574 H 0.11481 0.6174 0.37577 0.0
H1575 H 0.15659 0.63478 0.54667 0.0
H1576 H 0.16346 0.64393 0.64213 0.0
H1577 H 0.1602 0.70221 0.6112 0.0
H1578 H 0.15295 0.69323 0.51556 0.0
C1579 C 0.1949 0.69271 0.26588 0.0
C1580 C 0.19804 0.714 0.26449 0.0
C1581 C 0.18328 0.67832 0.30406 0.0
C1582 C 0.174 0.68462 0.34093 0.0
C1583 C 0.1779 0.70611 0.34131 0.0
C1584 C 0.18986 0.72067 0.30367 0.0
C1585 C 0.1591 0.66835 0.37656 0.0
C1586 C 0.16268 0.67298 0.4313 0.0
C1587 C 0.14142 0.64813 0.35643 0.0
C1588 C 0.13534 0.64296 0.29887 0.0
C1589 C 0.13104 0.6568 0.26548 0.0
C1590 C 0.12552 0.65196 0.21123 0.0
C1591 C 0.12408 0.63322 0.18996 0.0
C1592 C 0.1281 0.61924 0.22292 0.0
C1593 C 0.13365 0.62402 0.27719 0.0
C1594 C 0.08624 0.60797 0.53151 0.0
C1595 C 0.08138 0.58625 0.52479 0.0
C1596 C 0.10373 0.62495 0.50886 0.0
C1597 C 0.11673 0.62046 0.47973 0.0
C1598 C 0.11299 0.59906 0.47696 0.0
C1599 C 0.09554 0.58213 0.49934 0.0
C1600 C 0.13218 0.63721 0.44615 0.0
C1601 C 0.1285 0.63276 0.39149 0.0
C1602 C 0.14939 0.65765 0.46643 0.0
C1603 C 0.15404 0.66322 0.52391 0.0
C1604 C 0.15717 0.64946 0.56022 0.0
C1605 C 0.16115 0.65463 0.61438 0.0
C1606 C 0.16221 0.67361 0.63273 0.0
C1607 C 0.15935 0.6875 0.59694 0.0
C1608 C 0.15533 0.68239 0.54273 0.0
H1609 H 0.16531 0.67758 0.67467 0.0
H1610 H 0.11982 0.6295 0.14795 0.0
loop_
_geom_bond_atom_site_label_1
_geom_bond_atom_site_label_2
_geom_bond_distance
_geom_bond_site_symmetry_2
_ccdc_geom_bond_type
C0 C1 1.443 . S
C0 N4 1.376 . S
C0 C38 1.389 . S
C1 C0 1.443 . S
C1 C2 1.340 . S
C1 H41 0.951 . S
C2 C1 1.340 . S
C2 C3 1.439 . S
C2 H42 0.950 . S
C3 C2 1.439 . S
C3 N4 1.374 . S
C3 C37 1.395 . S
N4 C0 1.376 . S
N4 C3 1.374 . S
N4 Co5 2.008 . S
Co5 N4 2.008 . S
Co5 N6 1.995 . S
Co5 N11 2.008 . S
Co5 N16 1.995 . S
Co5 N21 2.282 . S
Co5 N27 2.282 . S
N6 Co5 1.995 . S
N6 C7 1.376 . S
N6 C10 1.383 . S
C7 N6 1.376 . S
C7 C8 1.446 . S
C7 C37 1.391 . S
C8 C7 1.446 . S
C8 C9 1.339 . S
C8 H43 0.949 . S
C9 C8 1.339 . S
C9 C10 1.439 . S
C9 H44 0.950 . S
C10 N6 1.383 . S
C10 C9 1.439 . S
C10 C39 1.392 . S
N11 Co5 2.008 . S
N11 C12 1.376 . S
N11 C15 1.374 . S
C12 N11 1.376 . S
C12 C13 1.443 . S
C12 C39 1.389 . S
C13 C12 1.443 . S
C13 C14 1.340 . S
C13 H45 0.951 . S
C14 C13 1.340 . S
C14 C15 1.439 . S
C14 H46 0.950 . S
C15 N11 1.374 . S
C15 C14 1.439 . S
C15 C40 1.395 . S
N16 Co5 1.995 . S
N16 C17 1.376 . S
N16 C20 1.383 . S
C17 N16 1.376 . S
C17 C18 1.446 . S
C17 C40 1.391 . S
C18 C17 1.446 . S
C18 C19 1.339 . S
C18 H47 0.949 . S
C19 C18 1.339 . S
C19 C20 1.439 . S
C19 H48 0.950 . S
C20 N16 1.383 . S
C20 C19 1.439 . S
C20 C38 1.392 . S
N21 Co5 2.282 . S
N21 C24 1.332 . S
N21 C26 1.332 . S
C22 C23 1.386 . S
C22 C25 1.388 . S
C23 C22 1.386 . S
C23 C24 1.382 . S
C23 H49 0.950 . S
C24 N21 1.332 . S
C24 C23 1.382 . S
C24 H35 0.952 . S
C25 C22 1.388 . S
C25 C26 1.382 . S
C25 H50 0.950 . S
C26 N21 1.332 . S
C26 C25 1.382 . S
C26 H36 0.948 . S
N27 Co5 2.282 . S
N27 C31 1.332 . S
N27 C32 1.332 . S
C28 C29 1.388 . S
C28 C32 1.382 . S
C28 H51 0.950 . S
C29 C28 1.388 . S
C29 C30 1.386 . S
C30 C29 1.386 . S
C30 C31 1.382 . S
C30 H52 0.950 . S
C31 N27 1.332 . S
C31 C30 1.382 . S
C31 H33 0.952 . S
C32 N27 1.332 . S
C32 C28 1.382 . S
C32 H34 0.948 . S
H33 C31 0.952 . S
H34 C32 0.948 . S
H35 C24 0.952 . S
H36 C26 0.948 . S
C37 C3 1.395 . S
C37 C7 1.391 . S
C38 C0 1.389 . S
C38 C20 1.392 . S
C39 C10 1.392 . S
C39 C12 1.389 . S
C40 C15 1.395 . S
C40 C17 1.391 . S
H41 C1 0.951 . S
H42 C2 0.950 . S
H43 C8 0.949 . S
H44 C9 0.950 . S
H45 C13 0.951 . S
H46 C14 0.950 . S
H47 C18 0.949 . S
H48 C19 0.950 . S
H49 C23 0.950 . S
H50 C25 0.950 . S
H51 C28 0.950 . S
H52 C30 0.950 . S
C53 C54 1.443 . S
C53 N57 1.376 . S
C53 C91 1.389 . S
C54 C53 1.443 . S
C54 C55 1.340 . S
C54 H94 0.951 . S
C55 C54 1.340 . S
C55 C56 1.439 . S
C55 H95 0.950 . S
C56 C55 1.439 . S
C56 N57 1.374 . S
C56 C90 1.395 . S
N57 C53 1.376 . S
N57 C56 1.374 . S
N57 Co58 2.008 . S
Co58 N57 2.008 . S
Co58 N59 1.995 . S
Co58 N64 2.008 . S
Co58 N69 1.995 . S
Co58 N74 2.282 . S
Co58 N80 2.282 . S
N59 Co58 1.995 . S
N59 C60 1.376 . S
N59 C63 1.383 . S
C60 N59 1.376 . S
C60 C61 1.446 . S
C60 C90 1.391 . S
C61 C60 1.446 . S
C61 C62 1.339 . S
C61 H96 0.949 . S
C62 C61 1.339 . S
C62 C63 1.439 . S
C62 H97 0.950 . S
C63 N59 1.383 . S
C63 C62 1.439 . S
C63 C92 1.392 . S
N64 Co58 2.008 . S
N64 C65 1.376 . S
N64 C68 1.374 . S
C65 N64 1.376 . S
C65 C66 1.443 . S
C65 C92 1.389 . S
C66 C65 1.443 . S
C66 C67 1.340 . S
C66 H98 0.951 . S
C67 C66 1.340 . S
C67 C68 1.439 . S
C67 H99 0.950 . S
C68 N64 1.374 . S
C68 C67 1.439 . S
C68 C93 1.395 . S
N69 Co58 1.995 . S
N69 C70 1.376 . S
N69 C73 1.383 . S
C70 N69 1.376 . S
C70 C71 1.446 . S
C70 C93 1.391 . S
C71 C70 1.446 . S
C71 C72 1.339 . S
C71 H100 0.949 . S
C72 C71 1.339 . S
C72 C73 1.439 . S
C72 H101 0.950 1_554 S
C73 N69 1.383 . S
C73 C72 1.439 . S
C73 C91 1.392 . S
N74 Co58 2.282 . S
N74 C77 1.332 . S
N74 C79 1.332 . S
C75 C76 1.386 . S
C75 C78 1.388 1_556 S
C76 C75 1.386 . S
C76 C77 1.382 1_556 S
C76 H102 0.950 . S
C77 N74 1.332 . S
C77 C76 1.382 1_554 S
C77 H88 0.952 . S
C78 C75 1.388 1_554 S
C78 C79 1.382 . S
C78 H103 0.950 . S
C79 N74 1.332 . S
C79 C78 1.382 . S
C79 H89 0.948 . S
N80 Co58 2.282 . S
N80 C84 1.332 . S
N80 C85 1.332 . S
C81 C82 1.388 . S
C81 C85 1.382 . S
C81 H104 0.950 . S
C82 C81 1.388 . S
C82 C83 1.386 . S
C83 C82 1.386 . S
C83 C84 1.382 . S
C83 H105 0.950 . S
C84 N80 1.332 . S
C84 C83 1.382 . S
C84 H86 0.952 . S
C85 N80 1.332 . S
C85 C81 1.382 . S
C85 H87 0.948 . S
H86 C84 0.952 . S
H87 C85 0.948 . S
H88 C77 0.952 . S
H89 C79 0.948 . S
C90 C56 1.395 . S
C90 C60 1.391 . S
C91 C53 1.389 . S
C91 C73 1.392 . S
C92 C63 1.392 . S
C92 C65 1.389 . S
C93 C68 1.395 . S
C93 C70 1.391 . S
H94 C54 0.951 . S
H95 C55 0.950 . S
H96 C61 0.949 . S
H97 C62 0.950 . S
H98 C66 0.951 . S
H99 C67 0.950 . S
H100 C71 0.949 . S
H101 C72 0.950 1_556 S
H102 C76 0.950 . S
H103 C78 0.950 . S
H104 C81 0.950 . S
H105 C83 0.950 . S
C106 C107 1.443 . S
C106 N110 1.376 . S
C106 C144 1.389 . S
C107 C106 1.443 . S
C107 C108 1.340 . S
C107 H147 0.951 . S
C108 C107 1.340 . S
C108 C109 1.439 . S
C108 H148 0.950 . S
C109 C108 1.439 . S
C109 N110 1.374 . S
C109 C143 1.395 . S
N110 C106 1.376 . S
N110 C109 1.374 . S
N110 Co111 2.008 . S
Co111 N110 2.008 . S
Co111 N112 1.995 1_554 S
Co111 N117 2.008 1_554 S
Co111 N122 1.995 . S
Co111 N127 2.282 . S
Co111 N133 2.282 1_554 S
N112 Co111 1.995 1_556 S
N112 C113 1.376 . S
N112 C116 1.383 . S
C113 N112 1.376 . S
C113 C114 1.446 . S
C113 C143 1.391 1_556 S
C114 C113 1.446 . S
C114 C115 1.339 . S
C114 H149 0.949 . S
C115 C114 1.339 . S
C115 C116 1.439 . S
C115 H150 0.950 . S
C116 N112 1.383 . S
C116 C115 1.439 . S
C116 C145 1.392 . S
N117 Co111 2.008 1_556 S
N117 C118 1.376 . S
N117 C121 1.374 . S
C118 N117 1.376 . S
C118 C119 1.443 . S
C118 C145 1.389 . S
C119 C118 1.443 . S
C119 C120 1.340 . S
C119 H151 0.951 . S
C120 C119 1.340 . S
C120 C121 1.439 . S
C120 H152 0.950 . S
C121 N117 1.374 . S
C121 C120 1.439 . S
C121 C146 1.395 1_556 S
N122 Co111 1.995 . S
N122 C123 1.376 . S
N122 C126 1.383 . S
C123 N122 1.376 . S
C123 C124 1.446 . S
C123 C146 1.391 . S
C124 C123 1.446 . S
C124 C125 1.339 . S
C124 H153 0.949 . S
C125 C124 1.339 . S
C125 C126 1.439 . S
C125 H154 0.950 . S
C126 N122 1.383 . S
C126 C125 1.439 . S
C126 C144 1.392 . S
N127 Co111 2.282 . S
N127 C130 1.332 . S
N127 C132 1.332 . S
C128 C129 1.386 . S
C128 C131 1.388 . S
C129 C128 1.386 . S
C129 C130 1.382 . S
C129 H155 0.950 . S
C130 N127 1.332 . S
C130 C129 1.382 . S
C130 H141 0.952 . S
C131 C128 1.388 . S
C131 C132 1.382 . S
C131 H156 0.950 . S
C132 N127 1.332 . S
C132 C131 1.382 . S
C132 H142 0.948 . S
N133 Co111 2.282 1_556 S
N133 C137 1.332 . S
N133 C138 1.332 . S
C134 C135 1.388 . S
C134 C138 1.382 . S
C134 H157 0.950 . S
C135 C134 1.388 . S
C135 C136 1.386 . S
C136 C135 1.386 . S
C136 C137 1.382 . S
C136 H158 0.950 . S
C137 N133 1.332 . S
C137 C136 1.382 . S
C137 H139 0.952 . S
C138 N133 1.332 . S
C138 C134 1.382 . S
C138 H140 0.948 . S
H139 C137 0.952 . S
H140 C138 0.948 . S
H141 C130 0.952 . S
H142 C132 0.948 . S
C143 C109 1.395 . S
C143 C113 1.391 1_554 S
C144 C106 1.389 . S
C144 C126 1.392 . S
C145 C116 1.392 . S
C145 C118 1.389 . S
C146 C121 1.395 1_554 S
C146 C123 1.391 . S
H147 C107 0.951 . S
H148 C108 0.950 . S
H149 C114 0.949 . S
H150 C115 0.950 . S
H151 C119 0.951 . S
H152 C120 0.950 . S
H153 C124 0.949 . S
H154 C125 0.950 . S
H155 C129 0.950 . S
H156 C131 0.950 . S
H157 C134 0.950 . S
H158 C136 0.950 . S
C159 C160 1.443 . S
C159 N163 1.376 . S
C159 C197 1.389 . S
C160 C159 1.443 . S
C160 C161 1.340 . S
C160 H200 0.951 . S
C161 C160 1.340 . S
C161 C162 1.439 . S
C161 H201 0.950 . S
C162 C161 1.439 . S
C162 N163 1.374 . S
C162 C196 1.395 . S
N163 C159 1.376 . S
N163 C162 1.374 . S
N163 Co164 2.008 . S
Co164 N163 2.008 . S
Co164 N165 1.995 1_554 S
Co164 N170 2.008 1_554 S
Co164 N175 1.995 . S
Co164 N180 2.282 . S
Co164 N186 2.282 1_554 S
N165 Co164 1.995 1_556 S
N165 C166 1.376 . S
N165 C169 1.383 . S
C166 N165 1.376 . S
C166 C167 1.446 . S
C166 C196 1.391 1_556 S
C167 C166 1.446 . S
C167 C168 1.339 . S
C167 H202 0.949 . S
C168 C167 1.339 . S
C168 C169 1.439 . S
C168 H203 0.950 . S
C169 N165 1.383 . S
C169 C168 1.439 . S
C169 C198 1.392 . S
N170 Co164 2.008 1_556 S
N170 C171 1.376 . S
N170 C174 1.374 . S
C171 N170 1.376 . S
C171 C172 1.443 . S
C171 C198 1.389 . S
C172 C171 1.443 . S
C172 C173 1.340 . S
C172 H204 0.951 . S
C173 C172 1.340 . S
C173 C174 1.439 . S
C173 H205 0.950 . S
C174 N170 1.374 . S
C174 C173 1.439 . S
C174 C199 1.395 1_556 S
N175 Co164 1.995 . S
N175 C176 1.376 . S
N175 C179 1.383 . S
C176 N175 1.376 . S
C176 C177 1.446 . S
C176 C199 1.391 . S
C177 C176 1.446 . S
C177 C178 1.339 . S
C177 H206 0.949 . S
C178 C177 1.339 . S
C178 C179 1.439 . S
C178 H207 0.950 . S
C179 N175 1.383 . S
C179 C178 1.439 . S
C179 C197 1.392 . S
N180 Co164 2.282 . S
N180 C183 1.332 . S
N180 C185 1.332 . S
C181 C182 1.386 . S
C181 C184 1.388 . S
C182 C181 1.386 . S
C182 C183 1.382 . S
C182 H208 0.950 . S
C183 N180 1.332 . S
C183 C182 1.382 . S
C183 H194 0.952 . S
C184 C181 1.388 . S
C184 C185 1.382 . S
C184 H209 0.950 . S
C185 N180 1.332 . S
C185 C184 1.382 . S
C185 H195 0.948 . S
N186 Co164 2.282 1_556 S
N186 C190 1.332 . S
N186 C191 1.332 . S
C187 C188 1.388 . S
C187 C191 1.382 . S
C187 H210 0.950 . S
C188 C187 1.388 . S
C188 C189 1.386 . S
C189 C188 1.386 . S
C189 C190 1.382 . S
C189 H211 0.950 . S
C190 N186 1.332 . S
C190 C189 1.382 . S
C190 H192 0.952 . S
C191 N186 1.332 . S
C191 C187 1.382 . S
C191 H193 0.948 . S
H192 C190 0.952 . S
H193 C191 0.948 . S
H194 C183 0.952 . S
H195 C185 0.948 . S
C196 C162 1.395 . S
C196 C166 1.391 1_554 S
C197 C159 1.389 . S
C197 C179 1.392 . S
C198 C169 1.392 . S
C198 C171 1.389 . S
C199 C174 1.395 1_554 S
C199 C176 1.391 . S
H200 C160 0.951 . S
H201 C161 0.950 . S
H202 C167 0.949 . S
H203 C168 0.950 . S
H204 C172 0.951 . S
H205 C173 0.950 . S
H206 C177 0.949 . S
H207 C178 0.950 . S
H208 C182 0.950 . S
H209 C184 0.950 . S
H210 C187 0.950 . S
H211 C189 0.950 . S
C212 C213 1.443 . S
C212 N216 1.376 . S
C212 C250 1.389 . S
C213 C212 1.443 . S
C213 C214 1.340 . S
C213 H253 0.951 . S
C214 C213 1.340 . S
C214 C215 1.439 . S
C214 H254 0.950 . S
C215 C214 1.439 . S
C215 N216 1.374 . S
C215 C249 1.395 . S
N216 C212 1.376 . S
N216 C215 1.374 . S
N216 Co217 2.008 . S
Co217 N216 2.008 . S
Co217 N218 1.995 . S
Co217 N223 2.008 . S
Co217 N228 1.995 . S
Co217 N233 2.282 . S
Co217 N239 2.282 . S
N218 Co217 1.995 . S
N218 C219 1.376 . S
N218 C222 1.383 . S
C219 N218 1.376 . S
C219 C220 1.446 . S
C219 C249 1.391 . S
C220 C219 1.446 . S
C220 C221 1.339 1_554 S
C220 H255 0.949 1_554 S
C221 C220 1.339 1_556 S
C221 C222 1.439 1_556 S
C221 H256 0.950 . S
C222 N218 1.383 . S
C222 C221 1.439 1_554 S
C222 C251 1.392 . S
N223 Co217 2.008 . S
N223 C224 1.376 . S
N223 C227 1.374 . S
C224 N223 1.376 . S
C224 C225 1.443 . S
C224 C251 1.389 . S
C225 C224 1.443 . S
C225 C226 1.340 . S
C225 H257 0.951 . S
C226 C225 1.340 . S
C226 C227 1.439 . S
C226 H258 0.950 . S
C227 N223 1.374 . S
C227 C226 1.439 . S
C227 C252 1.395 . S
N228 Co217 1.995 . S
N228 C229 1.376 . S
N228 C232 1.383 . S
C229 N228 1.376 . S
C229 C230 1.446 . S
C229 C252 1.391 . S
C230 C229 1.446 . S
C230 C231 1.339 . S
C230 H259 0.949 . S
C231 C230 1.339 . S
C231 C232 1.439 . S
C231 H260 0.950 . S
C232 N228 1.383 . S
C232 C231 1.439 . S
C232 C250 1.392 . S
N233 Co217 2.282 . S
N233 C236 1.332 . S
N233 C238 1.332 . S
C234 C235 1.386 . S
C234 C237 1.388 . S
C235 C234 1.386 . S
C235 C236 1.382 . S
C235 H261 0.950 . S
C236 N233 1.332 . S
C236 C235 1.382 . S
C236 H247 0.952 . S
C237 C234 1.388 . S
C237 C238 1.382 . S
C237 H262 0.950 . S
C238 N233 1.332 . S
C238 C237 1.382 . S
C238 H248 0.948 . S
N239 Co217 2.282 . S
N239 C243 1.342 . S
N239 C244 1.332 . S
C240 C241 1.388 . S
C240 C244 1.382 1_556 S
C240 H263 0.950 . S
C241 C240 1.388 . S
C241 C242 1.386 . S
C242 C241 1.386 . S
C242 C243 1.370 1_556 S
C242 H264 0.950 . S
C243 N239 1.342 . S
C243 C242 1.370 1_554 S
C243 H245 0.954 . S
C244 N239 1.332 . S
C244 C240 1.382 1_554 S
C244 H246 0.948 . S
H245 C243 0.954 . S
H246 C244 0.948 . S
H247 C236 0.952 . S
H248 C238 0.948 . S
C249 C215 1.395 . S
C249 C219 1.391 . S
C250 C212 1.389 . S
C250 C232 1.392 . S
C251 C222 1.392 . S
C251 C224 1.389 . S
C252 C227 1.395 . S
C252 C229 1.391 . S
H253 C213 0.951 . S
H254 C214 0.950 . S
H255 C220 0.949 1_556 S
H256 C221 0.950 . S
H257 C225 0.951 . S
H258 C226 0.950 . S
H259 C230 0.949 . S
H260 C231 0.950 . S
H261 C235 0.950 . S
H262 C237 0.950 . S
H263 C240 0.950 . S
H264 C242 0.950 . S
C265 C266 1.443 . S
C265 N269 1.376 . S
C265 C303 1.389 . S
C266 C265 1.443 . S
C266 C267 1.340 . S
C266 H306 0.951 . S
C267 C266 1.340 . S
C267 C268 1.439 . S
C267 H307 0.950 . S
C268 C267 1.439 . S
C268 N269 1.374 . S
C268 C302 1.395 . S
N269 C265 1.376 . S
N269 C268 1.374 . S
N269 Co270 2.008 . S
Co270 N269 2.008 . S
Co270 N271 1.995 . S
Co270 N276 2.008 . S
Co270 N281 1.995 . S
Co270 N286 2.282 . S
Co270 N292 2.282 . S
N271 Co270 1.995 . S
N271 C272 1.376 . S
N271 C275 1.383 . S
C272 N271 1.376 . S
C272 C273 1.446 . S
C272 C302 1.391 . S
C273 C272 1.446 . S
C273 C274 1.339 . S
C273 H308 0.949 . S
C274 C273 1.339 . S
C274 C275 1.439 . S
C274 H309 0.950 . S
C275 N271 1.383 . S
C275 C274 1.439 . S
C275 C304 1.392 . S
N276 Co270 2.008 . S
N276 C277 1.376 . S
N276 C280 1.374 . S
C277 N276 1.376 . S
C277 C278 1.443 . S
C277 C304 1.389 . S
C278 C277 1.443 . S
C278 C279 1.340 . S
C278 H310 0.951 . S
C279 C278 1.340 . S
C279 C280 1.439 . S
C279 H311 0.950 . S
C280 N276 1.374 . S
C280 C279 1.439 . S
C280 C305 1.395 . S
N281 Co270 1.995 . S
N281 C282 1.376 . S
N281 C285 1.383 . S
C282 N281 1.376 . S
C282 C283 1.446 . S
C282 C305 1.391 . S
C283 C282 1.446 . S
C283 C284 1.339 . S
C283 H312 0.949 . S
C284 C283 1.339 . S
C284 C285 1.439 . S
C284 H313 0.950 . S
C285 N281 1.383 . S
C285 C284 1.439 . S
C285 C303 1.392 . S
N286 Co270 2.282 . S
N286 C289 1.332 . S
N286 C291 1.332 . S
C287 C288 1.386 . S
C287 C290 1.388 . S
C288 C287 1.386 . S
C288 C289 1.382 . S
C288 H314 0.950 . S
C289 N286 1.332 . S
C289 C288 1.382 . S
C289 H300 0.952 . S
C290 C287 1.388 . S
C290 C291 1.382 . S
C290 H315 0.950 . S
C291 N286 1.332 . S
C291 C290 1.382 . S
C291 H301 0.948 . S
N292 Co270 2.282 . S
N292 C296 1.332 . S
N292 C297 1.332 . S
C293 C294 1.388 . S
C293 C297 1.382 . S
C293 H316 0.950 . S
C294 C293 1.388 . S
C294 C295 1.386 . S
C295 C294 1.386 . S
C295 C296 1.382 . S
C295 H317 0.950 . S
C296 N292 1.332 . S
C296 C295 1.382 . S
C296 H298 0.952 . S
C297 N292 1.332 . S
C297 C293 1.382 . S
C297 H299 0.948 . S
H298 C296 0.952 . S
H299 C297 0.948 . S
H300 C289 0.952 . S
H301 C291 0.948 . S
C302 C268 1.395 . S
C302 C272 1.391 . S
C303 C265 1.389 . S
C303 C285 1.392 . S
C304 C275 1.392 . S
C304 C277 1.389 . S
C305 C280 1.395 . S
C305 C282 1.391 . S
H306 C266 0.951 . S
H307 C267 0.950 . S
H308 C273 0.949 . S
H309 C274 0.950 . S
H310 C278 0.951 . S
H311 C279 0.950 . S
H312 C283 0.949 . S
H313 C284 0.950 . S
H314 C288 0.950 . S
H315 C290 0.950 . S
H316 C293 0.950 . S
H317 C295 0.950 . S
C318 O345 1.312 . S
C318 O346 1.208 . S
C319 O340 1.331 . S
C319 O343 1.244 . S
C320 O342 1.264 . S
C320 O344 1.273 . S
Mg321 O323 1.936 . S
Mg321 O330 2.081 1_455 S
Mg321 O332 2.023 . S
Mg321 O336 2.031 1_455 S
Mg321 O345 2.291 . S
Mg322 O323 1.963 . S
Mg322 O333 1.942 1_455 S
Mg322 O334 1.955 . S
Mg322 O341 1.986 1_455 S
O323 Mg321 1.936 . S
O323 Mg322 1.963 . S
O323 Mg324 1.915 . S
Mg324 O323 1.915 . S
Mg324 O325 1.915 . S
Mg324 O329 2.013 . S
Mg324 O335 2.114 1_455 S
Mg324 O339 2.013 1_455 S
Mg324 O345 2.114 . S
O325 Mg324 1.915 . S
O325 Mg326 1.936 . S
O325 Mg327 1.963 . S
Mg326 O325 1.936 . S
Mg326 O335 2.291 1_455 S
Mg326 O340 2.081 . S
Mg326 O342 2.023 1_455 S
Mg326 O346 2.031 . S
Mg327 O325 1.963 . S
Mg327 O331 1.986 . S
Mg327 O343 1.942 . S
Mg327 O344 1.955 1_455 S
C328 O339 1.191 . S
C328 O341 1.307 . S
O329 Mg324 2.013 . S
O329 C348 1.191 . S
O330 Mg321 2.081 1_655 S
O330 C338 1.331 . S
O331 Mg327 1.986 . S
O331 C348 1.307 . S
O332 Mg321 2.023 . S
O332 C347 1.264 . S
O333 Mg322 1.942 1_655 S
O333 C338 1.244 . S
O334 Mg322 1.955 . S
O334 C347 1.273 . S
O335 Mg324 2.114 1_655 S
O335 Mg326 2.291 1_655 S
O335 C337 1.312 . S
O336 Mg321 2.031 1_655 S
O336 C337 1.208 . S
C337 O335 1.312 . S
C337 O336 1.208 . S
C338 O330 1.331 . S
C338 O333 1.244 . S
O339 Mg324 2.013 1_655 S
O339 C328 1.191 . S
O340 C319 1.331 . S
O340 Mg326 2.081 . S
O341 Mg322 1.986 1_655 S
O341 C328 1.307 . S
O342 C320 1.264 . S
O342 Mg326 2.023 1_655 S
O343 C319 1.244 . S
O343 Mg327 1.942 . S
O344 C320 1.273 . S
O344 Mg327 1.955 1_655 S
O345 C318 1.312 . S
O345 Mg321 2.291 . S
O345 Mg324 2.114 . S
O346 C318 1.208 . S
O346 Mg326 2.031 . S
C347 O332 1.264 . S
C347 O334 1.273 . S
C348 O329 1.191 . S
C348 O331 1.307 . S
C349 O376 1.312 . S
C349 O377 1.208 . S
C350 O371 1.331 . S
C350 O374 1.244 . S
C351 O373 1.264 . S
C351 O375 1.273 . S
Mg352 O354 1.936 1_545 S
Mg352 O361 2.081 1_545 S
Mg352 O363 2.023 . S
Mg352 O367 2.031 1_545 S
Mg352 O376 2.291 . S
Mg353 O354 1.963 . S
Mg353 O364 1.942 . S
Mg353 O365 1.955 1_565 S
Mg353 O372 1.986 . S
O354 Mg352 1.936 1_565 S
O354 Mg353 1.963 . S
O354 Mg355 1.915 1_565 S
Mg355 O354 1.915 1_545 S
Mg355 O356 1.915 . S
Mg355 O360 2.013 . S
Mg355 O366 2.114 1_545 S
Mg355 O370 2.013 1_545 S
Mg355 O376 2.114 . S
O356 Mg355 1.915 . S
O356 Mg357 1.936 . S
O356 Mg358 1.963 . S
Mg357 O356 1.936 . S
Mg357 O366 2.291 1_545 S
Mg357 O371 2.081 . S
Mg357 O373 2.023 1_545 S
Mg357 O377 2.031 . S
Mg358 O356 1.963 . S
Mg358 O362 1.986 . S
Mg358 O374 1.942 . S
Mg358 O375 1.955 1_545 S
C359 O370 1.191 . S
C359 O372 1.307 . S
O360 Mg355 2.013 . S
O360 C379 1.191 . S
O361 Mg352 2.081 1_565 S
O361 C369 1.331 . S
O362 Mg358 1.986 . S
O362 C379 1.307 . S
O363 Mg352 2.023 . S
O363 C378 1.264 . S
O364 Mg353 1.942 . S
O364 C369 1.244 . S
O365 Mg353 1.955 1_545 S
O365 C378 1.273 . S
O366 Mg355 2.114 1_565 S
O366 Mg357 2.291 1_565 S
O366 C368 1.312 . S
O367 Mg352 2.031 1_565 S
O367 C368 1.208 . S
C368 O366 1.312 . S
C368 O367 1.208 . S
C369 O361 1.331 . S
C369 O364 1.244 . S
O370 Mg355 2.013 1_565 S
O370 C359 1.191 . S
O371 C350 1.331 . S
O371 Mg357 2.081 . S
O372 Mg353 1.986 . S
O372 C359 1.307 . S
O373 C351 1.264 . S
O373 Mg357 2.023 1_565 S
O374 C350 1.244 . S
O374 Mg358 1.942 . S
O375 C351 1.273 . S
O375 Mg358 1.955 1_565 S
O376 C349 1.312 . S
O376 Mg352 2.291 . S
O376 Mg355 2.114 . S
O377 C349 1.208 . S
O377 Mg357 2.031 . S
C378 O363 1.264 . S
C378 O365 1.273 . S
C379 O360 1.191 . S
C379 O362 1.307 . S
C380 O407 1.312 . S
C380 O408 1.208 . S
C381 O402 1.331 . S
C381 O405 1.244 . S
C382 O404 1.264 . S
C382 O406 1.273 . S
Mg383 O385 1.936 . S
Mg383 O392 2.081 . S
Mg383 O394 2.023 . S
Mg383 O398 2.031 . S
Mg383 O407 2.291 . S
Mg384 O385 1.963 . S
Mg384 O395 1.942 . S
Mg384 O396 1.955 . S
Mg384 O403 1.986 . S
O385 Mg383 1.936 . S
O385 Mg384 1.963 . S
O385 Mg386 1.915 . S
Mg386 O385 1.915 . S
Mg386 O387 1.915 . S
Mg386 O391 2.013 . S
Mg386 O397 2.114 . S
Mg386 O401 2.013 . S
Mg386 O407 2.114 . S
O387 Mg386 1.915 . S
O387 Mg388 1.936 . S
O387 Mg389 1.963 . S
Mg388 O387 1.936 . S
Mg388 O397 2.291 . S
Mg388 O402 2.081 . S
Mg388 O404 2.023 . S
Mg388 O408 2.031 . S
Mg389 O387 1.963 . S
Mg389 O393 1.986 . S
Mg389 O405 1.942 . S
Mg389 O406 1.955 . S
C390 O401 1.191 . S
C390 O403 1.307 . S
O391 Mg386 2.013 . S
O391 C410 1.191 . S
O392 Mg383 2.081 . S
O392 C400 1.331 . S
O393 Mg389 1.986 . S
O393 C410 1.307 . S
O394 Mg383 2.023 . S
O394 C409 1.264 . S
O395 Mg384 1.942 . S
O395 C400 1.244 . S
O396 Mg384 1.955 . S
O396 C409 1.273 . S
O397 Mg386 2.114 . S
O397 Mg388 2.291 . S
O397 C399 1.312 . S
O398 Mg383 2.031 . S
O398 C399 1.208 . S
C399 O397 1.312 . S
C399 O398 1.208 . S
C400 O392 1.331 . S
C400 O395 1.244 . S
O401 Mg386 2.013 . S
O401 C390 1.191 . S
O402 C381 1.331 . S
O402 Mg388 2.081 . S
O403 Mg384 1.986 . S
O403 C390 1.307 . S
O404 C382 1.264 . S
O404 Mg388 2.023 . S
O405 C381 1.244 . S
O405 Mg389 1.942 . S
O406 C382 1.273 . S
O406 Mg389 1.955 . S
O407 C380 1.312 . S
O407 Mg383 2.291 . S
O407 Mg386 2.114 . S
O408 C380 1.208 . S
O408 Mg388 2.031 . S
C409 O394 1.264 . S
C409 O396 1.273 . S
C410 O391 1.191 . S
C410 O393 1.307 . S
H411 C429 0.951 . S
H412 C431 0.951 . S
H413 C433 0.950 . S
H414 C434 0.950 . S
H415 C436 0.950 . S
H416 C439 0.950 . S
H417 C440 0.950 . S
H418 C442 0.950 . S
H419 C443 0.950 . S
H420 C444 0.951 . S
H421 C446 0.951 . S
H422 C448 0.950 . S
H423 C449 0.950 . S
H424 C451 0.950 . S
H425 C454 0.950 . S
H426 C455 0.950 . S
H427 C457 0.950 . S
H428 C458 0.950 . S
C429 H411 0.951 . S
C429 C430 1.366 . S
C429 C431 1.388 . S
C430 C429 1.366 . S
C430 C434 1.385 . S
C431 H412 0.951 . S
C431 C429 1.388 . S
C431 C432 1.366 . S
C432 C431 1.366 . S
C432 C433 1.414 . S
C432 C435 1.499 . S
C433 H413 0.950 . S
C433 C432 1.414 . S
C433 C434 1.374 . S
C434 H414 0.950 . S
C434 C430 1.385 . S
C434 C433 1.374 . S
C435 C432 1.499 . S
C435 C436 1.373 . S
C435 C437 1.389 . S
C436 H415 0.950 . S
C436 C435 1.373 . S
C436 C452 1.377 . S
C437 C435 1.389 . S
C437 C438 1.524 . S
C437 C451 1.377 . S
C438 C437 1.524 . S
C438 C439 1.397 . S
C438 C443 1.363 . S
C439 H416 0.950 . S
C439 C438 1.397 . S
C439 C440 1.334 . S
C440 H417 0.950 . S
C440 C439 1.334 . S
C440 C441 1.287 . S
C441 C440 1.287 . S
C441 C442 1.524 . S
C441 H460 0.913 . S
C442 H418 0.950 . S
C442 C441 1.524 . S
C442 C443 1.415 . S
C443 H419 0.950 . S
C443 C438 1.363 . S
C443 C442 1.415 . S
C444 H420 0.951 . S
C444 C445 1.366 . S
C444 C446 1.388 . S
C445 C444 1.366 . S
C445 C449 1.385 . S
C446 H421 0.951 . S
C446 C444 1.388 . S
C446 C447 1.366 . S
C447 C446 1.366 . S
C447 C448 1.414 . S
C447 C450 1.499 . S
C448 H422 0.950 . S
C448 C447 1.414 . S
C448 C449 1.374 . S
C449 H423 0.950 . S
C449 C445 1.385 . S
C449 C448 1.374 . S
C450 C447 1.499 . S
C450 C451 1.373 . S
C450 C452 1.389 . S
C451 H424 0.950 . S
C451 C437 1.377 . S
C451 C450 1.373 . S
C452 C436 1.377 . S
C452 C450 1.389 . S
C452 C453 1.524 . S
C453 C452 1.524 . S
C453 C454 1.397 . S
C453 C458 1.363 . S
C454 H425 0.950 . S
C454 C453 1.397 . S
C454 C455 1.334 . S
C455 H426 0.950 . S
C455 C454 1.334 . S
C455 C456 1.287 . S
C456 C455 1.287 . S
C456 C457 1.524 . S
C456 H459 0.999 . S
C457 H427 0.950 . S
C457 C456 1.524 . S
C457 C458 1.415 . S
C458 H428 0.950 . S
C458 C453 1.363 . S
C458 C457 1.415 . S
H459 C456 0.999 . S
H460 C441 0.913 . S
H461 C479 0.951 . S
H462 C481 0.951 . S
H463 C483 0.950 . S
H464 C484 0.950 . S
H465 C486 0.950 . S
H466 C489 0.950 . S
H467 C490 0.950 . S
H468 C492 0.950 . S
H469 C493 0.950 . S
H470 C494 0.951 . S
H471 C496 0.951 . S
H472 C498 0.950 . S
H473 C499 0.950 . S
H474 C501 0.950 . S
H475 C504 0.950 . S
H476 C505 0.950 . S
H477 C507 0.950 . S
H478 C508 0.950 . S
C479 H461 0.951 . S
C479 C480 1.366 . S
C479 C481 1.388 . S
C480 C479 1.366 . S
C480 C484 1.385 . S
C481 H462 0.951 . S
C481 C479 1.388 . S
C481 C482 1.366 . S
C482 C481 1.366 . S
C482 C483 1.414 . S
C482 C485 1.499 . S
C483 H463 0.950 . S
C483 C482 1.414 . S
C483 C484 1.374 . S
C484 H464 0.950 . S
C484 C480 1.385 . S
C484 C483 1.374 . S
C485 C482 1.499 . S
C485 C486 1.373 . S
C485 C487 1.389 . S
C486 H465 0.950 . S
C486 C485 1.373 . S
C486 C502 1.377 . S
C487 C485 1.389 . S
C487 C488 1.524 . S
C487 C501 1.377 . S
C488 C487 1.524 . S
C488 C489 1.397 . S
C488 C493 1.363 . S
C489 H466 0.950 . S
C489 C488 1.397 . S
C489 C490 1.334 . S
C490 H467 0.950 . S
C490 C489 1.334 . S
C490 C491 1.287 . S
C491 C490 1.287 . S
C491 C492 1.524 . S
C491 H510 0.913 . S
C492 H468 0.950 . S
C492 C491 1.524 . S
C492 C493 1.415 . S
C493 H469 0.950 . S
C493 C488 1.363 . S
C493 C492 1.415 . S
C494 H470 0.951 . S
C494 C495 1.366 . S
C494 C496 1.388 . S
C495 C494 1.366 . S
C495 C499 1.385 . S
C496 H471 0.951 . S
C496 C494 1.388 . S
C496 C497 1.366 . S
C497 C496 1.366 . S
C497 C498 1.414 . S
C497 C500 1.499 . S
C498 H472 0.950 . S
C498 C497 1.414 . S
C498 C499 1.374 . S
C499 H473 0.950 . S
C499 C495 1.385 . S
C499 C498 1.374 . S
C500 C497 1.499 . S
C500 C501 1.373 . S
C500 C502 1.389 . S
C501 H474 0.950 . S
C501 C487 1.377 . S
C501 C500 1.373 . S
C502 C486 1.377 . S
C502 C500 1.389 . S
C502 C503 1.524 . S
C503 C502 1.524 . S
C503 C504 1.397 . S
C503 C508 1.363 . S
C504 H475 0.950 . S
C504 C503 1.397 . S
C504 C505 1.334 . S
C505 H476 0.950 . S
C505 C504 1.334 . S
C505 C506 1.287 . S
C506 C505 1.287 . S
C506 C507 1.524 . S
C506 H509 0.999 . S
C507 H477 0.950 . S
C507 C506 1.524 . S
C507 C508 1.415 . S
C508 H478 0.950 . S
C508 C503 1.363 . S
C508 C507 1.415 . S
H509 C506 0.999 . S
H510 C491 0.913 . S
H511 C529 0.951 . S
H512 C531 0.951 . S
H513 C533 0.950 . S
H514 C534 0.950 . S
H515 C536 0.950 . S
H516 C539 0.950 . S
H517 C540 0.950 . S
H518 C542 0.950 . S
H519 C543 0.950 . S
H520 C544 0.951 . S
H521 C546 0.951 . S
H522 C548 0.950 . S
H523 C549 0.950 . S
H524 C551 0.950 . S
H525 C554 0.950 . S
H526 C555 0.950 . S
H527 C557 0.950 . S
H528 C558 0.950 . S
C529 H511 0.951 . S
C529 C530 1.366 . S
C529 C531 1.388 . S
C530 C529 1.366 . S
C530 C534 1.385 . S
C531 H512 0.951 . S
C531 C529 1.388 . S
C531 C532 1.366 . S
C532 C531 1.366 . S
C532 C533 1.414 . S
C532 C535 1.499 . S
C533 H513 0.950 . S
C533 C532 1.414 . S
C533 C534 1.374 . S
C534 H514 0.950 . S
C534 C530 1.385 . S
C534 C533 1.374 . S
C535 C532 1.499 . S
C535 C536 1.373 . S
C535 C537 1.389 . S
C536 H515 0.950 . S
C536 C535 1.373 . S
C536 C552 1.377 . S
C537 C535 1.389 . S
C537 C538 1.524 . S
C537 C551 1.377 . S
C538 C537 1.524 . S
C538 C539 1.397 . S
C538 C543 1.363 . S
C539 H516 0.950 . S
C539 C538 1.397 . S
C539 C540 1.334 . S
C540 H517 0.950 . S
C540 C539 1.334 . S
C540 C541 1.287 . S
C541 C540 1.287 . S
C541 C542 1.524 . S
C541 H560 0.913 . S
C542 H518 0.950 . S
C542 C541 1.524 . S
C542 C543 1.415 . S
C543 H519 0.950 . S
C543 C538 1.363 . S
C543 C542 1.415 . S
C544 H520 0.951 . S
C544 C545 1.366 . S
C544 C546 1.388 . S
C545 C544 1.366 . S
C545 C549 1.385 . S
C546 H521 0.951 . S
C546 C544 1.388 . S
C546 C547 1.366 . S
C547 C546 1.366 . S
C547 C548 1.414 . S
C547 C550 1.499 . S
C548 H522 0.950 . S
C548 C547 1.414 . S
C548 C549 1.374 . S
C549 H523 0.950 . S
C549 C545 1.385 . S
C549 C548 1.374 . S
C550 C547 1.499 . S
C550 C551 1.373 . S
C550 C552 1.389 . S
C551 H524 0.950 . S
C551 C537 1.377 . S
C551 C550 1.373 . S
C552 C536 1.377 . S
C552 C550 1.389 . S
C552 C553 1.524 . S
C553 C552 1.524 . S
C553 C554 1.397 . S
C553 C558 1.363 . S
C554 H525 0.950 . S
C554 C553 1.397 . S
C554 C555 1.334 . S
C555 H526 0.950 . S
C555 C554 1.334 . S
C555 C556 1.287 . S
C556 C555 1.287 . S
C556 C557 1.524 . S
C556 H559 0.999 . S
C557 H527 0.950 . S
C557 C556 1.524 . S
C557 C558 1.415 . S
C558 H528 0.950 . S
C558 C553 1.363 . S
C558 C557 1.415 . S
H559 C556 0.999 . S
H560 C541 0.913 . S
H561 C579 0.951 . S
H562 C581 0.951 . S
H563 C583 0.950 . S
H564 C584 0.950 . S
H565 C586 0.950 . S
H566 C589 0.950 . S
H567 C590 0.950 . S
H568 C592 0.950 . S
H569 C593 0.950 . S
H570 C594 0.951 . S
H571 C596 0.951 . S
H572 C598 0.950 . S
H573 C599 0.950 . S
H574 C601 0.950 . S
H575 C604 0.950 . S
H576 C605 0.950 . S
H577 C607 0.950 . S
H578 C608 0.950 . S
C579 H561 0.951 . S
C579 C580 1.366 . S
C579 C581 1.388 . S
C580 C579 1.366 . S
C580 C584 1.385 . S
C581 H562 0.951 . S
C581 C579 1.388 . S
C581 C582 1.366 . S
C582 C581 1.366 . S
C582 C583 1.414 . S
C582 C585 1.499 . S
C583 H563 0.950 . S
C583 C582 1.414 . S
C583 C584 1.374 . S
C584 H564 0.950 . S
C584 C580 1.385 . S
C584 C583 1.374 . S
C585 C582 1.499 . S
C585 C586 1.373 . S
C585 C587 1.389 . S
C586 H565 0.950 . S
C586 C585 1.373 . S
C586 C602 1.377 . S
C587 C585 1.389 . S
C587 C588 1.524 . S
C587 C601 1.377 . S
C588 C587 1.524 . S
C588 C589 1.397 . S
C588 C593 1.363 . S
C589 H566 0.950 . S
C589 C588 1.397 . S
C589 C590 1.334 . S
C590 H567 0.950 . S
C590 C589 1.334 . S
C590 C591 1.287 . S
C591 C590 1.287 . S
C591 C592 1.524 . S
C591 H610 0.913 . S
C592 H568 0.950 . S
C592 C591 1.524 . S
C592 C593 1.415 . S
C593 H569 0.950 . S
C593 C588 1.363 . S
C593 C592 1.415 . S
C594 H570 0.951 . S
C594 C595 1.366 . S
C594 C596 1.388 . S
C595 C594 1.366 . S
C595 C599 1.385 . S
C596 H571 0.951 . S
C596 C594 1.388 . S
C596 C597 1.366 . S
C597 C596 1.366 . S
C597 C598 1.414 . S
C597 C600 1.499 . S
C598 H572 0.950 . S
C598 C597 1.414 . S
C598 C599 1.374 . S
C599 H573 0.950 . S
C599 C595 1.385 . S
C599 C598 1.374 . S
C600 C597 1.499 . S
C600 C601 1.373 . S
C600 C602 1.389 . S
C601 H574 0.950 . S
C601 C587 1.377 . S
C601 C600 1.373 . S
C602 C586 1.377 . S
C602 C600 1.389 . S
C602 C603 1.524 . S
C603 C602 1.524 . S
C603 C604 1.397 . S
C603 C608 1.363 . S
C604 H575 0.950 . S
C604 C603 1.397 . S
C604 C605 1.334 . S
C605 H576 0.950 . S
C605 C604 1.334 . S
C605 C606 1.287 . S
C606 C605 1.287 . S
C606 C607 1.524 . S
C606 H609 0.999 . S
C607 H577 0.950 . S
C607 C606 1.524 . S
C607 C608 1.415 . S
C608 H578 0.950 . S
C608 C603 1.363 . S
C608 C607 1.415 . S
H609 C606 0.999 . S
H610 C591 0.913 . S
H611 C629 0.951 . S
H612 C631 0.951 . S
H613 C633 0.950 . S
H614 C634 0.950 . S
H615 C636 0.950 . S
H616 C639 0.950 . S
H617 C640 0.950 . S
H618 C642 0.950 . S
H619 C643 0.950 . S
H620 C644 0.951 . S
H621 C646 0.951 . S
H622 C648 0.950 . S
H623 C649 0.950 . S
H624 C651 0.950 . S
H625 C654 0.950 . S
H626 C655 0.950 . S
H627 C657 0.950 . S
H628 C658 0.950 . S
C629 H611 0.951 . S
C629 C630 1.366 . S
C629 C631 1.388 . S
C630 C629 1.366 . S
C630 C634 1.385 . S
C631 H612 0.951 . S
C631 C629 1.388 . S
C631 C632 1.366 . S
C632 C631 1.366 . S
C632 C633 1.414 . S
C632 C635 1.499 . S
C633 H613 0.950 . S
C633 C632 1.414 . S
C633 C634 1.374 . S
C634 H614 0.950 . S
C634 C630 1.385 . S
C634 C633 1.374 . S
C635 C632 1.499 . S
C635 C636 1.373 . S
C635 C637 1.389 . S
C636 H615 0.950 . S
C636 C635 1.373 . S
C636 C652 1.377 . S
C637 C635 1.389 . S
C637 C638 1.524 . S
C637 C651 1.377 . S
C638 C637 1.524 . S
C638 C639 1.397 . S
C638 C643 1.363 . S
C639 H616 0.950 . S
C639 C638 1.397 . S
C639 C640 1.334 . S
C640 H617 0.950 . S
C640 C639 1.334 . S
C640 C641 1.287 . S
C641 C640 1.287 . S
C641 C642 1.524 . S
C641 H660 0.913 . S
C642 H618 0.950 . S
C642 C641 1.524 . S
C642 C643 1.415 . S
C643 H619 0.950 . S
C643 C638 1.363 . S
C643 C642 1.415 . S
C644 H620 0.951 . S
C644 C645 1.366 . S
C644 C646 1.388 . S
C645 C644 1.366 . S
C645 C649 1.385 . S
C646 H621 0.951 . S
C646 C644 1.388 . S
C646 C647 1.366 . S
C647 C646 1.366 . S
C647 C648 1.414 . S
C647 C650 1.499 . S
C648 H622 0.950 . S
C648 C647 1.414 . S
C648 C649 1.374 . S
C649 H623 0.950 . S
C649 C645 1.385 . S
C649 C648 1.374 . S
C650 C647 1.499 . S
C650 C651 1.373 . S
C650 C652 1.389 . S
C651 H624 0.950 . S
C651 C637 1.377 . S
C651 C650 1.373 . S
C652 C636 1.377 . S
C652 C650 1.389 . S
C652 C653 1.524 . S
C653 C652 1.524 . S
C653 C654 1.397 . S
C653 C658 1.363 . S
C654 H625 0.950 . S
C654 C653 1.397 . S
C654 C655 1.334 . S
C655 H626 0.950 . S
C655 C654 1.334 . S
C655 C656 1.287 . S
C656 C655 1.287 . S
C656 C657 1.524 . S
C656 H659 0.999 . S
C657 H627 0.950 . S
C657 C656 1.524 . S
C657 C658 1.415 . S
C658 H628 0.950 . S
C658 C653 1.363 . S
C658 C657 1.415 . S
H659 C656 0.999 . S
H660 C641 0.913 . S
H661 C679 0.951 . S
H662 C681 0.951 . S
H663 C683 0.950 . S
H664 C684 0.950 . S
H665 C686 0.950 . S
H666 C689 0.950 . S
H667 C690 0.950 . S
H668 C692 0.950 . S
H669 C693 0.950 . S
H670 C694 0.951 . S
H671 C696 0.951 . S
H672 C698 0.950 . S
H673 C699 0.950 . S
H674 C701 0.950 . S
H675 C704 0.950 . S
H676 C705 0.950 . S
H677 C707 0.950 . S
H678 C708 0.950 . S
C679 H661 0.951 . S
C679 C680 1.366 . S
C679 C681 1.388 . S
C680 C679 1.366 . S
C680 C684 1.385 . S
C681 H662 0.951 . S
C681 C679 1.388 . S
C681 C682 1.366 . S
C682 C681 1.366 . S
C682 C683 1.414 . S
C682 C685 1.499 . S
C683 H663 0.950 . S
C683 C682 1.414 . S
C683 C684 1.374 . S
C684 H664 0.950 . S
C684 C680 1.385 . S
C684 C683 1.374 . S
C685 C682 1.499 . S
C685 C686 1.373 . S
C685 C687 1.389 . S
C686 H665 0.950 . S
C686 C685 1.373 . S
C686 C702 1.377 . S
C687 C685 1.389 . S
C687 C688 1.524 . S
C687 C701 1.377 . S
C688 C687 1.524 . S
C688 C689 1.397 . S
C688 C693 1.363 . S
C689 H666 0.950 . S
C689 C688 1.397 . S
C689 C690 1.334 . S
C690 H667 0.950 . S
C690 C689 1.334 . S
C690 C691 1.287 . S
C691 C690 1.287 . S
C691 C692 1.524 . S
C691 H710 0.913 . S
C692 H668 0.950 . S
C692 C691 1.524 . S
C692 C693 1.415 . S
C693 H669 0.950 . S
C693 C688 1.363 . S
C693 C692 1.415 . S
C694 H670 0.951 . S
C694 C695 1.366 . S
C694 C696 1.388 . S
C695 C694 1.366 . S
C695 C699 1.385 . S
C696 H671 0.951 . S
C696 C694 1.388 . S
C696 C697 1.366 . S
C697 C696 1.366 . S
C697 C698 1.414 . S
C697 C700 1.499 . S
C698 H672 0.950 . S
C698 C697 1.414 . S
C698 C699 1.374 . S
C699 H673 0.950 . S
C699 C695 1.385 . S
C699 C698 1.374 . S
C700 C697 1.499 . S
C700 C701 1.373 . S
C700 C702 1.389 . S
C701 H674 0.950 . S
C701 C687 1.377 . S
C701 C700 1.373 . S
C702 C686 1.377 . S
C702 C700 1.389 . S
C702 C703 1.524 . S
C703 C702 1.524 . S
C703 C704 1.397 . S
C703 C708 1.363 . S
C704 H675 0.950 . S
C704 C703 1.397 . S
C704 C705 1.334 . S
C705 H676 0.950 . S
C705 C704 1.334 . S
C705 C706 1.287 . S
C706 C705 1.287 . S
C706 C707 1.524 . S
C706 H709 0.999 . S
C707 H677 0.950 . S
C707 C706 1.524 . S
C707 C708 1.415 . S
C708 H678 0.950 . S
C708 C703 1.363 . S
C708 C707 1.415 . S
H709 C706 0.999 . S
H710 C691 0.913 . S
H711 C729 0.951 . S
H712 C731 0.951 . S
H713 C733 0.950 . S
H714 C734 0.950 . S
H715 C736 0.950 . S
H716 C739 0.950 . S
H717 C740 0.950 . S
H718 C742 0.950 . S
H719 C743 0.950 . S
H720 C744 0.951 . S
H721 C746 0.951 . S
H722 C748 0.950 . S
H723 C749 0.950 . S
H724 C751 0.950 . S
H725 C754 0.950 . S
H726 C755 0.950 . S
H727 C757 0.950 . S
H728 C758 0.950 . S
C729 H711 0.951 . S
C729 C730 1.366 . S
C729 C731 1.388 . S
C730 C729 1.366 . S
C730 C734 1.385 . S
C731 H712 0.951 . S
C731 C729 1.388 . S
C731 C732 1.366 . S
C732 C731 1.366 . S
C732 C733 1.414 . S
C732 C735 1.499 . S
C733 H713 0.950 . S
C733 C732 1.414 . S
C733 C734 1.374 . S
C734 H714 0.950 . S
C734 C730 1.385 . S
C734 C733 1.374 . S
C735 C732 1.499 . S
C735 C736 1.373 . S
C735 C737 1.389 . S
C736 H715 0.950 . S
C736 C735 1.373 . S
C736 C752 1.377 . S
C737 C735 1.389 . S
C737 C738 1.524 . S
C737 C751 1.377 . S
C738 C737 1.524 . S
C738 C739 1.397 . S
C738 C743 1.363 . S
C739 H716 0.950 . S
C739 C738 1.397 . S
C739 C740 1.334 . S
C740 H717 0.950 . S
C740 C739 1.334 . S
C740 C741 1.287 . S
C741 C740 1.287 . S
C741 C742 1.524 . S
C741 H760 0.913 . S
C742 H718 0.950 . S
C742 C741 1.524 . S
C742 C743 1.415 . S
C743 H719 0.950 . S
C743 C738 1.363 . S
C743 C742 1.415 . S
C744 H720 0.951 . S
C744 C745 1.366 . S
C744 C746 1.388 . S
C745 C744 1.366 . S
C745 C749 1.385 . S
C746 H721 0.951 . S
C746 C744 1.388 . S
C746 C747 1.366 . S
C747 C746 1.366 . S
C747 C748 1.414 . S
C747 C750 1.499 . S
C748 H722 0.950 . S
C748 C747 1.414 . S
C748 C749 1.374 . S
C749 H723 0.950 . S
C749 C745 1.385 . S
C749 C748 1.374 . S
C750 C747 1.499 . S
C750 C751 1.373 . S
C750 C752 1.389 . S
C751 H724 0.950 . S
C751 C737 1.377 . S
C751 C750 1.373 . S
C752 C736 1.377 . S
C752 C750 1.389 . S
C752 C753 1.524 . S
C753 C752 1.524 . S
C753 C754 1.397 . S
C753 C758 1.363 . S
C754 H725 0.950 . S
C754 C753 1.397 . S
C754 C755 1.334 . S
C755 H726 0.950 . S
C755 C754 1.334 . S
C755 C756 1.287 . S
C756 C755 1.287 . S
C756 C757 1.524 . S
C756 H759 0.999 . S
C757 H727 0.950 . S
C757 C756 1.524 . S
C757 C758 1.415 . S
C758 H728 0.950 . S
C758 C753 1.363 . S
C758 C757 1.415 . S
H759 C756 0.999 . S
H760 C741 0.913 . S
H761 C779 0.951 . S
H762 C781 0.951 . S
H763 C783 0.950 . S
H764 C784 0.950 . S
H765 C786 0.950 . S
H766 C789 0.950 . S
H767 C790 0.950 1_554 S
H768 C792 0.950 . S
H769 C793 0.950 . S
H770 C794 0.951 . S
H771 C796 0.951 . S
H772 C798 0.950 . S
H773 C799 0.950 . S
H774 C801 0.950 . S
H775 C804 0.950 . S
H776 C805 0.950 . S
H777 C807 0.950 . S
H778 C808 0.950 . S
C779 H761 0.951 . S
C779 C780 1.366 . S
C779 C781 1.388 . S
C780 C779 1.366 . S
C780 C784 1.385 . S
C781 H762 0.951 . S
C781 C779 1.388 . S
C781 C782 1.366 . S
C782 C781 1.366 . S
C782 C783 1.414 . S
C782 C785 1.499 . S
C783 H763 0.950 . S
C783 C782 1.414 . S
C783 C784 1.374 . S
C784 H764 0.950 . S
C784 C780 1.385 . S
C784 C783 1.374 . S
C785 C782 1.499 . S
C785 C786 1.373 . S
C785 C787 1.389 . S
C786 H765 0.950 . S
C786 C785 1.373 . S
C786 C802 1.377 . S
C787 C785 1.389 . S
C787 C788 1.524 . S
C787 C801 1.377 . S
C788 C787 1.524 . S
C788 C789 1.397 . S
C788 C793 1.363 . S
C789 H766 0.950 . S
C789 C788 1.397 . S
C789 C790 1.334 . S
C790 H767 0.950 1_556 S
C790 C789 1.334 . S
C790 C791 1.287 . S
C791 C790 1.287 . S
C791 C792 1.524 . S
C791 H810 0.913 1_556 S
C792 H768 0.950 . S
C792 C791 1.524 . S
C792 C793 1.415 . S
C793 H769 0.950 . S
C793 C788 1.363 . S
C793 C792 1.415 . S
C794 H770 0.951 . S
C794 C795 1.366 . S
C794 C796 1.388 . S
C795 C794 1.366 . S
C795 C799 1.385 . S
C796 H771 0.951 . S
C796 C794 1.388 . S
C796 C797 1.366 . S
C797 C796 1.366 . S
C797 C798 1.414 . S
C797 C800 1.499 . S
C798 H772 0.950 . S
C798 C797 1.414 . S
C798 C799 1.374 . S
C799 H773 0.950 . S
C799 C795 1.385 . S
C799 C798 1.374 . S
C800 C797 1.499 . S
C800 C801 1.373 . S
C800 C802 1.389 . S
C801 H774 0.950 . S
C801 C787 1.377 . S
C801 C800 1.373 . S
C802 C786 1.377 . S
C802 C800 1.389 . S
C802 C803 1.524 . S
C803 C802 1.524 . S
C803 C804 1.397 . S
C803 C808 1.363 . S
C804 H775 0.950 . S
C804 C803 1.397 . S
C804 C805 1.334 . S
C805 H776 0.950 . S
C805 C804 1.334 . S
C805 C806 1.287 . S
C806 C805 1.287 . S
C806 C807 1.524 . S
C806 H809 0.999 . S
C807 H777 0.950 . S
C807 C806 1.524 . S
C807 C808 1.415 . S
C808 H778 0.950 . S
C808 C803 1.363 . S
C808 C807 1.415 . S
H809 C806 0.999 . S
H810 C791 0.913 1_554 S
H811 C829 0.951 . S
H812 C831 0.951 . S
H813 C833 0.950 . S
H814 C834 0.950 . S
H815 C836 0.950 . S
H816 C839 0.950 . S
H817 C840 0.950 . S
H818 C842 0.950 . S
H819 C843 0.950 . S
H820 C844 0.951 . S
H821 C846 0.951 . S
H822 C848 0.950 . S
H823 C849 0.950 . S
H824 C851 0.950 . S
H825 C854 0.950 . S
H826 C855 0.950 . S
H827 C857 0.950 . S
H828 C858 0.950 . S
C829 H811 0.951 . S
C829 C830 1.366 . S
C829 C831 1.388 . S
C830 C829 1.366 . S
C830 C834 1.385 . S
C831 H812 0.951 . S
C831 C829 1.388 . S
C831 C832 1.366 . S
C832 C831 1.366 . S
C832 C833 1.414 . S
C832 C835 1.499 . S
C833 H813 0.950 . S
C833 C832 1.414 . S
C833 C834 1.374 . S
C834 H814 0.950 . S
C834 C830 1.385 . S
C834 C833 1.374 . S
C835 C832 1.499 . S
C835 C836 1.373 . S
C835 C837 1.389 . S
C836 H815 0.950 . S
C836 C835 1.373 . S
C836 C852 1.377 . S
C837 C835 1.389 . S
C837 C838 1.524 . S
C837 C851 1.377 . S
C838 C837 1.524 . S
C838 C839 1.397 . S
C838 C843 1.363 . S
C839 H816 0.950 . S
C839 C838 1.397 . S
C839 C840 1.334 . S
C840 H817 0.950 . S
C840 C839 1.334 . S
C840 C841 1.287 . S
C841 C840 1.287 . S
C841 C842 1.524 . S
C841 H860 0.913 . S
C842 H818 0.950 . S
C842 C841 1.524 . S
C842 C843 1.415 . S
C843 H819 0.950 . S
C843 C838 1.363 . S
C843 C842 1.415 . S
C844 H820 0.951 . S
C844 C845 1.366 . S
C844 C846 1.388 . S
C845 C844 1.366 . S
C845 C849 1.385 . S
C846 H821 0.951 . S
C846 C844 1.388 . S
C846 C847 1.366 . S
C847 C846 1.366 . S
C847 C848 1.414 . S
C847 C850 1.499 . S
C848 H822 0.950 . S
C848 C847 1.414 . S
C848 C849 1.374 . S
C849 H823 0.950 . S
C849 C845 1.385 . S
C849 C848 1.374 . S
C850 C847 1.499 . S
C850 C851 1.373 . S
C850 C852 1.389 . S
C851 H824 0.950 . S
C851 C837 1.377 . S
C851 C850 1.373 . S
C852 C836 1.377 . S
C852 C850 1.389 . S
C852 C853 1.524 . S
C853 C852 1.524 . S
C853 C854 1.397 . S
C853 C858 1.363 . S
C854 H825 0.950 . S
C854 C853 1.397 . S
C854 C855 1.334 . S
C855 H826 0.950 . S
C855 C854 1.334 . S
C855 C856 1.287 . S
C856 C855 1.287 . S
C856 C857 1.524 . S
C856 H859 0.999 . S
C857 H827 0.950 . S
C857 C856 1.524 . S
C857 C858 1.415 . S
C858 H828 0.950 . S
C858 C853 1.363 . S
C858 C857 1.415 . S
H859 C856 0.999 . S
H860 C841 0.913 . S
H861 C879 0.951 . S
H862 C881 0.951 . S
H863 C883 0.950 . S
H864 C884 0.950 . S
H865 C886 0.950 . S
H866 C889 0.950 . S
H867 C890 0.950 . S
H868 C892 0.950 . S
H869 C893 0.950 . S
H870 C894 0.951 . S
H871 C896 0.951 . S
H872 C898 0.950 . S
H873 C899 0.950 . S
H874 C901 0.950 . S
H875 C904 0.950 . S
H876 C905 0.950 . S
H877 C907 0.950 . S
H878 C908 0.950 . S
C879 H861 0.951 . S
C879 C880 1.366 1_554 S
C879 C881 1.388 1_554 S
C880 C879 1.366 1_556 S
C880 C884 1.385 . S
C881 H862 0.951 . S
C881 C879 1.388 1_556 S
C881 C882 1.366 . S
C882 C881 1.366 . S
C882 C883 1.414 . S
C882 C885 1.499 . S
C883 H863 0.950 . S
C883 C882 1.414 . S
C883 C884 1.374 . S
C884 H864 0.950 . S
C884 C880 1.385 . S
C884 C883 1.374 . S
C885 C882 1.499 . S
C885 C886 1.373 . S
C885 C887 1.389 . S
C886 H865 0.950 . S
C886 C885 1.373 . S
C886 C902 1.377 . S
C887 C885 1.389 . S
C887 C888 1.524 . S
C887 C901 1.377 . S
C888 C887 1.524 . S
C888 C889 1.397 . S
C888 C893 1.363 . S
C889 H866 0.950 . S
C889 C888 1.397 . S
C889 C890 1.334 . S
C890 H867 0.950 . S
C890 C889 1.334 . S
C890 C891 1.287 . S
C891 C890 1.287 . S
C891 C892 1.524 . S
C891 H910 0.913 . S
C892 H868 0.950 . S
C892 C891 1.524 . S
C892 C893 1.415 . S
C893 H869 0.950 . S
C893 C888 1.363 . S
C893 C892 1.415 . S
C894 H870 0.951 . S
C894 C895 1.366 . S
C894 C896 1.388 . S
C895 C894 1.366 . S
C895 C899 1.385 . S
C896 H871 0.951 . S
C896 C894 1.388 . S
C896 C897 1.366 . S
C897 C896 1.366 . S
C897 C898 1.414 . S
C897 C900 1.499 . S
C898 H872 0.950 . S
C898 C897 1.414 . S
C898 C899 1.374 . S
C899 H873 0.950 . S
C899 C895 1.385 . S
C899 C898 1.374 . S
C900 C897 1.499 . S
C900 C901 1.373 . S
C900 C902 1.389 . S
C901 H874 0.950 . S
C901 C887 1.377 . S
C901 C900 1.373 . S
C902 C886 1.377 . S
C902 C900 1.389 . S
C902 C903 1.524 . S
C903 C902 1.524 . S
C903 C904 1.397 . S
C903 C908 1.363 . S
C904 H875 0.950 . S
C904 C903 1.397 . S
C904 C905 1.334 . S
C905 H876 0.950 . S
C905 C904 1.334 . S
C905 C906 1.287 . S
C906 C905 1.287 . S
C906 C907 1.524 . S
C906 H909 0.999 . S
C907 H877 0.950 . S
C907 C906 1.524 . S
C907 C908 1.415 . S
C908 H878 0.950 . S
C908 C903 1.363 . S
C908 C907 1.415 . S
H909 C906 0.999 . S
H910 C891 0.913 . S
H911 C929 0.951 . S
H912 C931 0.951 . S
H913 C933 0.950 . S
H914 C934 0.950 . S
H915 C936 0.950 . S
H916 C939 0.950 . S
H917 C940 0.950 . S
H918 C942 0.950 . S
H919 C943 0.950 . S
H920 C944 0.951 . S
H921 C946 0.951 . S
H922 C948 0.950 . S
H923 C949 0.950 . S
H924 C951 0.950 . S
H925 C954 0.950 . S
H926 C955 0.950 . S
H927 C957 0.950 . S
H928 C958 0.950 1_554 S
C929 H911 0.951 . S
C929 C930 1.366 1_556 S
C929 C931 1.388 . S
C930 C929 1.366 1_554 S
C930 C934 1.385 . S
C931 H912 0.951 . S
C931 C929 1.388 . S
C931 C932 1.366 . S
C932 C931 1.366 . S
C932 C933 1.414 1_556 S
C932 C935 1.499 . S
C933 H913 0.950 . S
C933 C932 1.414 1_554 S
C933 C934 1.374 . S
C934 H914 0.950 . S
C934 C930 1.385 . S
C934 C933 1.374 . S
C935 C932 1.499 . S
C935 C936 1.373 . S
C935 C937 1.389 . S
C936 H915 0.950 . S
C936 C935 1.373 . S
C936 C952 1.377 . S
C937 C935 1.389 . S
C937 C938 1.524 . S
C937 C951 1.377 . S
C938 C937 1.524 . S
C938 C939 1.397 . S
C938 C943 1.363 . S
C939 H916 0.950 . S
C939 C938 1.397 . S
C939 C940 1.334 . S
C940 H917 0.950 . S
C940 C939 1.334 . S
C940 C941 1.287 . S
C941 C940 1.287 . S
C941 C942 1.524 . S
C941 H960 0.913 . S
C942 H918 0.950 . S
C942 C941 1.524 . S
C942 C943 1.415 . S
C943 H919 0.950 . S
C943 C938 1.363 . S
C943 C942 1.415 . S
C944 H920 0.951 . S
C944 C945 1.366 . S
C944 C946 1.388 . S
C945 C944 1.366 . S
C945 C949 1.385 . S
C946 H921 0.951 . S
C946 C944 1.388 . S
C946 C947 1.366 . S
C947 C946 1.366 . S
C947 C948 1.414 . S
C947 C950 1.499 . S
C948 H922 0.950 . S
C948 C947 1.414 . S
C948 C949 1.374 . S
C949 H923 0.950 . S
C949 C945 1.385 . S
C949 C948 1.374 . S
C950 C947 1.499 . S
C950 C951 1.373 . S
C950 C952 1.389 . S
C951 H924 0.950 . S
C951 C937 1.377 . S
C951 C950 1.373 . S
C952 C936 1.377 . S
C952 C950 1.389 . S
C952 C953 1.524 . S
C953 C952 1.524 . S
C953 C954 1.397 . S
C953 C958 1.363 . S
C954 H925 0.950 . S
C954 C953 1.397 . S
C954 C955 1.334 . S
C955 H926 0.950 . S
C955 C954 1.334 . S
C955 C956 1.287 . S
C956 C955 1.287 . S
C956 C957 1.524 1_556 S
C956 H959 0.999 1_556 S
C957 H927 0.950 . S
C957 C956 1.524 1_554 S
C957 C958 1.415 1_554 S
C958 H928 0.950 1_556 S
C958 C953 1.363 . S
C958 C957 1.415 1_556 S
H959 C956 0.999 1_554 S
H960 C941 0.913 . S
H961 C979 0.951 . S
H962 C981 0.951 . S
H963 C983 0.950 . S
H964 C984 0.950 . S
H965 C986 0.950 . S
H966 C989 0.950 1_556 S
H967 C990 0.950 . S
H968 C992 0.950 . S
H969 C993 0.950 . S
H970 C994 0.951 . S
H971 C996 0.951 . S
H972 C998 0.950 . S
H973 C999 0.950 . S
H974 C1001 0.950 . S
H975 C1004 0.950 . S
H976 C1005 0.950 . S
H977 C1007 0.950 . S
H978 C1008 0.950 . S
C979 H961 0.951 . S
C979 C980 1.366 1_554 S
C979 C981 1.388 1_554 S
C980 C979 1.366 1_556 S
C980 C984 1.385 . S
C981 H962 0.951 . S
C981 C979 1.388 1_556 S
C981 C982 1.366 . S
C982 C981 1.366 . S
C982 C983 1.414 . S
C982 C985 1.499 . S
C983 H963 0.950 . S
C983 C982 1.414 . S
C983 C984 1.374 . S
C984 H964 0.950 . S
C984 C980 1.385 . S
C984 C983 1.374 . S
C985 C982 1.499 . S
C985 C986 1.373 . S
C985 C987 1.389 . S
C986 H965 0.950 . S
C986 C985 1.373 . S
C986 C1002 1.377 . S
C987 C985 1.389 . S
C987 C988 1.524 . S
C987 C1001 1.377 . S
C988 C987 1.524 . S
C988 C989 1.397 1_556 S
C988 C993 1.363 1_556 S
C989 H966 0.950 1_554 S
C989 C988 1.397 1_554 S
C989 C990 1.334 . S
C990 H967 0.950 . S
C990 C989 1.334 . S
C990 C991 1.287 . S
C991 C990 1.287 . S
C991 C992 1.524 . S
C991 H1010 0.913 . S
C992 H968 0.950 . S
C992 C991 1.524 . S
C992 C993 1.415 . S
C993 H969 0.950 . S
C993 C988 1.363 1_554 S
C993 C992 1.415 . S
C994 H970 0.951 . S
C994 C995 1.366 . S
C994 C996 1.388 . S
C995 C994 1.366 . S
C995 C999 1.385 . S
C996 H971 0.951 . S
C996 C994 1.388 . S
C996 C997 1.366 . S
C997 C996 1.366 . S
C997 C998 1.414 . S
C997 C1000 1.499 . S
C998 H972 0.950 . S
C998 C997 1.414 . S
C998 C999 1.374 . S
C999 H973 0.950 . S
C999 C995 1.385 . S
C999 C998 1.374 . S
C1000 C997 1.499 . S
C1000 C1001 1.373 . S
C1000 C1002 1.389 . S
C1001 H974 0.950 . S
C1001 C987 1.377 . S
C1001 C1000 1.373 . S
C1002 C986 1.377 . S
C1002 C1000 1.389 . S
C1002 C1003 1.524 . S
C1003 C1002 1.524 . S
C1003 C1004 1.397 . S
C1003 C1008 1.363 . S
C1004 H975 0.950 . S
C1004 C1003 1.397 . S
C1004 C1005 1.334 . S
C1005 H976 0.950 . S
C1005 C1004 1.334 . S
C1005 C1006 1.287 . S
C1006 C1005 1.287 . S
C1006 C1007 1.524 . S
C1006 H1009 0.999 . S
C1007 H977 0.950 . S
C1007 C1006 1.524 . S
C1007 C1008 1.415 . S
C1008 H978 0.950 . S
C1008 C1003 1.363 . S
C1008 C1007 1.415 . S
H1009 C1006 0.999 . S
H1010 C991 0.913 . S
H1011 C1029 0.951 . S
H1012 C1031 0.951 . S
H1013 C1033 0.950 . S
H1014 C1034 0.950 . S
H1015 C1036 0.950 . S
H1016 C1039 0.950 . S
H1017 C1040 0.950 . S
H1018 C1042 0.950 . S
H1019 C1043 0.950 . S
H1020 C1044 0.951 . S
H1021 C1046 0.951 . S
H1022 C1048 0.950 . S
H1023 C1049 0.950 . S
H1024 C1051 0.950 . S
H1025 C1054 0.950 . S
H1026 C1055 0.950 . S
H1027 C1057 0.950 . S
H1028 C1058 0.950 . S
C1029 H1011 0.951 . S
C1029 C1030 1.366 . S
C1029 C1031 1.388 . S
C1030 C1029 1.366 . S
C1030 C1034 1.385 . S
C1031 H1012 0.951 . S
C1031 C1029 1.388 . S
C1031 C1032 1.366 . S
C1032 C1031 1.366 . S
C1032 C1033 1.414 . S
C1032 C1035 1.499 . S
C1033 H1013 0.950 . S
C1033 C1032 1.414 . S
C1033 C1034 1.374 . S
C1034 H1014 0.950 . S
C1034 C1030 1.385 . S
C1034 C1033 1.374 . S
C1035 C1032 1.499 . S
C1035 C1036 1.373 . S
C1035 C1037 1.389 . S
C1036 H1015 0.950 . S
C1036 C1035 1.373 . S
C1036 C1052 1.377 . S
C1037 C1035 1.389 . S
C1037 C1038 1.524 . S
C1037 C1051 1.377 . S
C1038 C1037 1.524 . S
C1038 C1039 1.397 . S
C1038 C1043 1.363 . S
C1039 H1016 0.950 . S
C1039 C1038 1.397 . S
C1039 C1040 1.334 . S
C1040 H1017 0.950 . S
C1040 C1039 1.334 . S
C1040 C1041 1.287 . S
C1041 C1040 1.287 . S
C1041 C1042 1.524 . S
C1041 H1060 0.913 . S
C1042 H1018 0.950 . S
C1042 C1041 1.524 . S
C1042 C1043 1.415 . S
C1043 H1019 0.950 . S
C1043 C1038 1.363 . S
C1043 C1042 1.415 . S
C1044 H1020 0.951 . S
C1044 C1045 1.366 . S
C1044 C1046 1.388 . S
C1045 C1044 1.366 . S
C1045 C1049 1.385 . S
C1046 H1021 0.951 . S
C1046 C1044 1.388 . S
C1046 C1047 1.366 . S
C1047 C1046 1.366 . S
C1047 C1048 1.414 . S
C1047 C1050 1.499 . S
C1048 H1022 0.950 . S
C1048 C1047 1.414 . S
C1048 C1049 1.374 . S
C1049 H1023 0.950 . S
C1049 C1045 1.385 . S
C1049 C1048 1.374 . S
C1050 C1047 1.499 . S
C1050 C1051 1.373 . S
C1050 C1052 1.389 . S
C1051 H1024 0.950 . S
C1051 C1037 1.377 . S
C1051 C1050 1.373 . S
C1052 C1036 1.377 . S
C1052 C1050 1.389 . S
C1052 C1053 1.524 . S
C1053 C1052 1.524 . S
C1053 C1054 1.397 . S
C1053 C1058 1.363 . S
C1054 H1025 0.950 . S
C1054 C1053 1.397 . S
C1054 C1055 1.334 . S
C1055 H1026 0.950 . S
C1055 C1054 1.334 . S
C1055 C1056 1.287 . S
C1056 C1055 1.287 . S
C1056 C1057 1.524 . S
C1056 H1059 0.999 . S
C1057 H1027 0.950 . S
C1057 C1056 1.524 . S
C1057 C1058 1.415 . S
C1058 H1028 0.950 . S
C1058 C1053 1.363 . S
C1058 C1057 1.415 . S
H1059 C1056 0.999 . S
H1060 C1041 0.913 . S
H1061 C1079 0.951 . S
H1062 C1081 0.951 . S
H1063 C1083 0.950 . S
H1064 C1084 0.950 . S
H1065 C1086 0.950 . S
H1066 C1089 0.950 . S
H1067 C1090 0.950 . S
H1068 C1092 0.950 . S
H1069 C1093 0.950 . S
H1070 C1094 0.951 . S
H1071 C1096 0.951 . S
H1072 C1098 0.950 . S
H1073 C1099 0.950 . S
H1074 C1101 0.950 . S
H1075 C1104 0.950 . S
H1076 C1105 0.950 . S
H1077 C1107 0.950 . S
H1078 C1108 0.950 . S
C1079 H1061 0.951 . S
C1079 C1080 1.366 . S
C1079 C1081 1.388 . S
C1080 C1079 1.366 . S
C1080 C1084 1.385 . S
C1081 H1062 0.951 . S
C1081 C1079 1.388 . S
C1081 C1082 1.366 . S
C1082 C1081 1.366 . S
C1082 C1083 1.414 . S
C1082 C1085 1.499 . S
C1083 H1063 0.950 . S
C1083 C1082 1.414 . S
C1083 C1084 1.374 . S
C1084 H1064 0.950 . S
C1084 C1080 1.385 . S
C1084 C1083 1.374 . S
C1085 C1082 1.499 . S
C1085 C1086 1.373 . S
C1085 C1087 1.389 . S
C1086 H1065 0.950 . S
C1086 C1085 1.373 . S
C1086 C1102 1.377 . S
C1087 C1085 1.389 . S
C1087 C1088 1.524 . S
C1087 C1101 1.377 . S
C1088 C1087 1.524 . S
C1088 C1089 1.397 . S
C1088 C1093 1.363 . S
C1089 H1066 0.950 . S
C1089 C1088 1.397 . S
C1089 C1090 1.334 . S
C1090 H1067 0.950 . S
C1090 C1089 1.334 . S
C1090 C1091 1.287 . S
C1091 C1090 1.287 . S
C1091 C1092 1.524 . S
C1091 H1110 0.913 . S
C1092 H1068 0.950 . S
C1092 C1091 1.524 . S
C1092 C1093 1.415 . S
C1093 H1069 0.950 . S
C1093 C1088 1.363 . S
C1093 C1092 1.415 . S
C1094 H1070 0.951 . S
C1094 C1095 1.366 . S
C1094 C1096 1.388 . S
C1095 C1094 1.366 . S
C1095 C1099 1.385 . S
C1096 H1071 0.951 . S
C1096 C1094 1.388 . S
C1096 C1097 1.366 . S
C1097 C1096 1.366 . S
C1097 C1098 1.414 . S
C1097 C1100 1.499 . S
C1098 H1072 0.950 . S
C1098 C1097 1.414 . S
C1098 C1099 1.374 . S
C1099 H1073 0.950 . S
C1099 C1095 1.385 . S
C1099 C1098 1.374 . S
C1100 C1097 1.499 . S
C1100 C1101 1.373 . S
C1100 C1102 1.389 . S
C1101 H1074 0.950 . S
C1101 C1087 1.377 . S
C1101 C1100 1.373 . S
C1102 C1086 1.377 . S
C1102 C1100 1.389 . S
C1102 C1103 1.524 . S
C1103 C1102 1.524 . S
C1103 C1104 1.397 . S
C1103 C1108 1.363 . S
C1104 H1075 0.950 . S
C1104 C1103 1.397 . S
C1104 C1105 1.334 . S
C1105 H1076 0.950 . S
C1105 C1104 1.334 . S
C1105 C1106 1.287 . S
C1106 C1105 1.287 . S
C1106 C1107 1.524 . S
C1106 H1109 0.999 . S
C1107 H1077 0.950 . S
C1107 C1106 1.524 . S
C1107 C1108 1.415 . S
C1108 H1078 0.950 . S
C1108 C1103 1.363 . S
C1108 C1107 1.415 . S
H1109 C1106 0.999 . S
H1110 C1091 0.913 . S
H1111 C1129 0.951 . S
H1112 C1131 0.951 . S
H1113 C1133 0.950 1_554 S
H1114 C1134 0.950 . S
H1115 C1136 0.950 . S
H1116 C1139 0.953 . S
H1117 C1140 0.950 . S
H1118 C1142 0.950 . S
H1119 C1143 0.950 . S
H1120 C1144 0.951 . S
H1121 C1146 0.951 . S
H1122 C1148 0.950 . S
H1123 C1149 0.950 . S
H1124 C1151 0.950 . S
H1125 C1154 0.950 . S
H1126 C1155 0.950 . S
H1127 C1157 0.950 . S
H1128 C1158 0.950 . S
C1129 H1111 0.951 . S
C1129 C1130 1.366 1_556 S
C1129 C1131 1.388 . S
C1130 C1129 1.366 1_554 S
C1130 C1134 1.385 . S
C1131 H1112 0.951 . S
C1131 C1129 1.388 . S
C1131 C1132 1.366 . S
C1132 C1131 1.366 . S
C1132 C1133 1.414 . S
C1132 C1135 1.499 . S
C1133 H1113 0.950 1_556 S
C1133 C1132 1.414 . S
C1133 C1134 1.374 1_556 S
C1134 H1114 0.950 . S
C1134 C1130 1.385 . S
C1134 C1133 1.374 1_554 S
C1135 C1132 1.499 . S
C1135 C1136 1.373 . S
C1135 C1137 1.389 . S
C1136 H1115 0.950 . S
C1136 C1135 1.373 . S
C1136 C1152 1.377 . S
C1137 C1135 1.389 . S
C1137 C1138 1.524 . S
C1137 C1151 1.377 . S
C1138 C1137 1.524 . S
C1138 C1139 1.397 . S
C1138 C1143 1.363 . S
C1139 H1116 0.953 . S
C1139 C1138 1.397 . S
C1139 C1140 1.334 1_556 S
C1140 H1117 0.950 . S
C1140 C1139 1.334 1_554 S
C1140 C1141 1.287 1_554 S
C1141 C1140 1.287 1_556 S
C1141 C1142 1.524 . S
C1141 H1160 0.913 . S
C1142 H1118 0.950 . S
C1142 C1141 1.524 . S
C1142 C1143 1.415 . S
C1143 H1119 0.950 . S
C1143 C1138 1.363 . S
C1143 C1142 1.415 . S
C1144 H1120 0.951 . S
C1144 C1145 1.366 . S
C1144 C1146 1.388 . S
C1145 C1144 1.366 . S
C1145 C1149 1.385 . S
C1146 H1121 0.951 . S
C1146 C1144 1.388 . S
C1146 C1147 1.366 . S
C1147 C1146 1.366 . S
C1147 C1148 1.414 . S
C1147 C1150 1.499 . S
C1148 H1122 0.950 . S
C1148 C1147 1.414 . S
C1148 C1149 1.374 . S
C1149 H1123 0.950 . S
C1149 C1145 1.385 . S
C1149 C1148 1.374 . S
C1150 C1147 1.499 . S
C1150 C1151 1.373 . S
C1150 C1152 1.389 . S
C1151 H1124 0.950 . S
C1151 C1137 1.377 . S
C1151 C1150 1.373 . S
C1152 C1136 1.377 . S
C1152 C1150 1.389 . S
C1152 C1153 1.524 . S
C1153 C1152 1.524 . S
C1153 C1154 1.397 . S
C1153 C1158 1.363 . S
C1154 H1125 0.950 . S
C1154 C1153 1.397 . S
C1154 C1155 1.334 . S
C1155 H1126 0.950 . S
C1155 C1154 1.334 . S
C1155 C1156 1.287 . S
C1156 C1155 1.287 . S
C1156 C1157 1.524 . S
C1156 H1159 0.999 . S
C1157 H1127 0.950 . S
C1157 C1156 1.524 . S
C1157 C1158 1.415 . S
C1158 H1128 0.950 . S
C1158 C1153 1.363 . S
C1158 C1157 1.415 . S
H1159 C1156 0.999 . S
H1160 C1141 0.913 . S
H1161 C1179 0.951 . S
H1162 C1181 0.951 . S
H1163 C1183 0.950 . S
H1164 C1184 0.950 . S
H1165 C1186 0.950 . S
H1166 C1189 0.950 . S
H1167 C1190 0.950 . S
H1168 C1192 0.950 . S
H1169 C1193 0.950 1_556 S
H1170 C1194 0.951 . S
H1171 C1196 0.951 . S
H1172 C1198 0.950 . S
H1173 C1199 0.950 . S
H1174 C1201 0.950 . S
H1175 C1204 0.950 . S
H1176 C1205 0.950 . S
H1177 C1207 0.950 . S
H1178 C1208 0.950 . S
C1179 H1161 0.951 . S
C1179 C1180 1.366 . S
C1179 C1181 1.388 . S
C1180 C1179 1.366 . S
C1180 C1184 1.385 . S
C1181 H1162 0.951 . S
C1181 C1179 1.388 . S
C1181 C1182 1.366 . S
C1182 C1181 1.366 . S
C1182 C1183 1.414 . S
C1182 C1185 1.499 1_554 S
C1183 H1163 0.950 . S
C1183 C1182 1.414 . S
C1183 C1184 1.374 . S
C1184 H1164 0.950 . S
C1184 C1180 1.385 . S
C1184 C1183 1.374 . S
C1185 C1182 1.499 1_556 S
C1185 C1186 1.373 . S
C1185 C1187 1.389 . S
C1186 H1165 0.950 . S
C1186 C1185 1.373 . S
C1186 C1202 1.377 . S
C1187 C1185 1.389 . S
C1187 C1188 1.524 1_556 S
C1187 C1201 1.377 . S
C1188 C1187 1.524 1_554 S
C1188 C1189 1.397 . S
C1188 C1193 1.363 . S
C1189 H1166 0.950 . S
C1189 C1188 1.397 . S
C1189 C1190 1.334 . S
C1190 H1167 0.950 . S
C1190 C1189 1.334 . S
C1190 C1191 1.287 . S
C1191 C1190 1.287 . S
C1191 C1192 1.524 . S
C1191 H1210 0.913 . S
C1192 H1168 0.950 . S
C1192 C1191 1.524 . S
C1192 C1193 1.415 . S
C1193 H1169 0.950 1_554 S
C1193 C1188 1.363 . S
C1193 C1192 1.415 . S
C1194 H1170 0.951 . S
C1194 C1195 1.366 . S
C1194 C1196 1.388 . S
C1195 C1194 1.366 . S
C1195 C1199 1.385 . S
C1196 H1171 0.951 . S
C1196 C1194 1.388 . S
C1196 C1197 1.366 . S
C1197 C1196 1.366 . S
C1197 C1198 1.414 . S
C1197 C1200 1.499 . S
C1198 H1172 0.950 . S
C1198 C1197 1.414 . S
C1198 C1199 1.374 . S
C1199 H1173 0.950 . S
C1199 C1195 1.385 . S
C1199 C1198 1.374 . S
C1200 C1197 1.499 . S
C1200 C1201 1.373 . S
C1200 C1202 1.389 . S
C1201 H1174 0.950 . S
C1201 C1187 1.377 . S
C1201 C1200 1.373 . S
C1202 C1186 1.377 . S
C1202 C1200 1.389 . S
C1202 C1203 1.524 . S
C1203 C1202 1.524 . S
C1203 C1204 1.397 . S
C1203 C1208 1.363 . S
C1204 H1175 0.950 . S
C1204 C1203 1.397 . S
C1204 C1205 1.334 . S
C1205 H1176 0.950 . S
C1205 C1204 1.334 . S
C1205 C1206 1.287 . S
C1206 C1205 1.287 . S
C1206 C1207 1.524 . S
C1206 H1209 0.999 . S
C1207 H1177 0.950 . S
C1207 C1206 1.524 . S
C1207 C1208 1.415 . S
C1208 H1178 0.950 . S
C1208 C1203 1.363 . S
C1208 C1207 1.415 . S
H1209 C1206 0.999 . S
H1210 C1191 0.913 . S
H1211 C1229 0.951 . S
H1212 C1231 0.951 . S
H1213 C1233 0.950 . S
H1214 C1234 0.950 . S
H1215 C1236 0.950 . S
H1216 C1239 0.950 . S
H1217 C1240 0.950 . S
H1218 C1242 0.950 . S
H1219 C1243 0.950 . S
H1220 C1244 0.951 . S
H1221 C1246 0.951 . S
H1222 C1248 0.950 . S
H1223 C1249 0.950 . S
H1224 C1251 0.950 . S
H1225 C1254 0.950 . S
H1226 C1255 0.950 . S
H1227 C1257 0.950 . S
H1228 C1258 0.950 . S
C1229 H1211 0.951 . S
C1229 C1230 1.366 . S
C1229 C1231 1.388 . S
C1230 C1229 1.366 . S
C1230 C1234 1.385 . S
C1231 H1212 0.951 . S
C1231 C1229 1.388 . S
C1231 C1232 1.366 . S
C1232 C1231 1.366 . S
C1232 C1233 1.414 . S
C1232 C1235 1.499 . S
C1233 H1213 0.950 . S
C1233 C1232 1.414 . S
C1233 C1234 1.374 . S
C1234 H1214 0.950 . S
C1234 C1230 1.385 . S
C1234 C1233 1.374 . S
C1235 C1232 1.499 . S
C1235 C1236 1.373 . S
C1235 C1237 1.389 . S
C1236 H1215 0.950 . S
C1236 C1235 1.373 . S
C1236 C1252 1.377 . S
C1237 C1235 1.389 . S
C1237 C1238 1.524 . S
C1237 C1251 1.377 . S
C1238 C1237 1.524 . S
C1238 C1239 1.397 . S
C1238 C1243 1.363 . S
C1239 H1216 0.950 . S
C1239 C1238 1.397 . S
C1239 C1240 1.334 . S
C1240 H1217 0.950 . S
C1240 C1239 1.334 . S
C1240 C1241 1.287 . S
C1241 C1240 1.287 . S
C1241 C1242 1.524 . S
C1241 H1260 0.913 . S
C1242 H1218 0.950 . S
C1242 C1241 1.524 . S
C1242 C1243 1.415 . S
C1243 H1219 0.950 . S
C1243 C1238 1.363 . S
C1243 C1242 1.415 . S
C1244 H1220 0.951 . S
C1244 C1245 1.366 . S
C1244 C1246 1.388 . S
C1245 C1244 1.366 . S
C1245 C1249 1.385 . S
C1246 H1221 0.951 . S
C1246 C1244 1.388 . S
C1246 C1247 1.366 . S
C1247 C1246 1.366 . S
C1247 C1248 1.414 . S
C1247 C1250 1.499 . S
C1248 H1222 0.950 . S
C1248 C1247 1.414 . S
C1248 C1249 1.374 . S
C1249 H1223 0.950 . S
C1249 C1245 1.385 . S
C1249 C1248 1.374 . S
C1250 C1247 1.499 . S
C1250 C1251 1.373 . S
C1250 C1252 1.389 . S
C1251 H1224 0.950 . S
C1251 C1237 1.377 . S
C1251 C1250 1.373 . S
C1252 C1236 1.377 . S
C1252 C1250 1.389 . S
C1252 C1253 1.524 . S
C1253 C1252 1.524 . S
C1253 C1254 1.397 . S
C1253 C1258 1.363 . S
C1254 H1225 0.950 . S
C1254 C1253 1.397 . S
C1254 C1255 1.334 . S
C1255 H1226 0.950 . S
C1255 C1254 1.334 . S
C1255 C1256 1.287 . S
C1256 C1255 1.287 . S
C1256 C1257 1.524 . S
C1256 H1259 0.999 . S
C1257 H1227 0.950 . S
C1257 C1256 1.524 . S
C1257 C1258 1.415 . S
C1258 H1228 0.950 . S
C1258 C1253 1.363 . S
C1258 C1257 1.415 . S
H1259 C1256 0.999 . S
H1260 C1241 0.913 . S
H1261 C1279 0.951 . S
H1262 C1281 0.951 . S
H1263 C1283 0.950 . S
H1264 C1284 0.950 . S
H1265 C1286 0.950 . S
H1266 C1289 0.950 . S
H1267 C1290 0.950 . S
H1268 C1292 0.950 . S
H1269 C1293 0.950 . S
H1270 C1294 0.951 . S
H1271 C1296 0.951 . S
H1272 C1298 0.950 . S
H1273 C1299 0.950 . S
H1274 C1301 0.950 . S
H1275 C1304 0.950 . S
H1276 C1305 0.950 . S
H1277 C1307 0.950 . S
H1278 C1308 0.950 . S
C1279 H1261 0.951 . S
C1279 C1280 1.366 . S
C1279 C1281 1.388 . S
C1280 C1279 1.366 . S
C1280 C1284 1.385 . S
C1281 H1262 0.951 . S
C1281 C1279 1.388 . S
C1281 C1282 1.366 . S
C1282 C1281 1.366 . S
C1282 C1283 1.414 . S
C1282 C1285 1.499 . S
C1283 H1263 0.950 . S
C1283 C1282 1.414 . S
C1283 C1284 1.374 . S
C1284 H1264 0.950 . S
C1284 C1280 1.385 . S
C1284 C1283 1.374 . S
C1285 C1282 1.499 . S
C1285 C1286 1.373 . S
C1285 C1287 1.389 . S
C1286 H1265 0.950 . S
C1286 C1285 1.373 . S
C1286 C1302 1.377 . S
C1287 C1285 1.389 . S
C1287 C1288 1.524 . S
C1287 C1301 1.377 . S
C1288 C1287 1.524 . S
C1288 C1289 1.397 . S
C1288 C1293 1.363 . S
C1289 H1266 0.950 . S
C1289 C1288 1.397 . S
C1289 C1290 1.334 . S
C1290 H1267 0.950 . S
C1290 C1289 1.334 . S
C1290 C1291 1.287 . S
C1291 C1290 1.287 . S
C1291 C1292 1.524 . S
C1291 H1310 0.913 . S
C1292 H1268 0.950 . S
C1292 C1291 1.524 . S
C1292 C1293 1.415 . S
C1293 H1269 0.950 . S
C1293 C1288 1.363 . S
C1293 C1292 1.415 . S
C1294 H1270 0.951 . S
C1294 C1295 1.366 . S
C1294 C1296 1.388 . S
C1295 C1294 1.366 . S
C1295 C1299 1.385 . S
C1296 H1271 0.951 . S
C1296 C1294 1.388 . S
C1296 C1297 1.366 . S
C1297 C1296 1.366 . S
C1297 C1298 1.414 . S
C1297 C1300 1.499 . S
C1298 H1272 0.950 . S
C1298 C1297 1.414 . S
C1298 C1299 1.374 . S
C1299 H1273 0.950 . S
C1299 C1295 1.385 . S
C1299 C1298 1.374 . S
C1300 C1297 1.499 . S
C1300 C1301 1.373 . S
C1300 C1302 1.389 . S
C1301 H1274 0.950 . S
C1301 C1287 1.377 . S
C1301 C1300 1.373 . S
C1302 C1286 1.377 . S
C1302 C1300 1.389 . S
C1302 C1303 1.524 . S
C1303 C1302 1.524 . S
C1303 C1304 1.397 . S
C1303 C1308 1.363 . S
C1304 H1275 0.950 . S
C1304 C1303 1.397 . S
C1304 C1305 1.334 . S
C1305 H1276 0.950 . S
C1305 C1304 1.334 . S
C1305 C1306 1.287 . S
C1306 C1305 1.287 . S
C1306 C1307 1.524 . S
C1306 H1309 0.999 . S
C1307 H1277 0.950 . S
C1307 C1306 1.524 . S
C1307 C1308 1.415 . S
C1308 H1278 0.950 . S
C1308 C1303 1.363 . S
C1308 C1307 1.415 . S
H1309 C1306 0.999 . S
H1310 C1291 0.913 . S
H1311 C1329 0.951 . S
H1312 C1331 0.951 . S
H1313 C1333 0.950 . S
H1314 C1334 0.950 . S
H1315 C1336 0.950 . S
H1316 C1339 0.950 . S
H1317 C1340 0.950 . S
H1318 C1342 0.950 . S
H1319 C1343 0.950 . S
H1320 C1344 0.951 . S
H1321 C1346 0.951 . S
H1322 C1348 0.950 . S
H1323 C1349 0.950 . S
H1324 C1351 0.950 . S
H1325 C1354 0.950 . S
H1326 C1355 0.950 . S
H1327 C1357 0.950 . S
H1328 C1358 0.950 . S
C1329 H1311 0.951 . S
C1329 C1330 1.366 . S
C1329 C1331 1.388 . S
C1330 C1329 1.366 . S
C1330 C1334 1.385 . S
C1331 H1312 0.951 . S
C1331 C1329 1.388 . S
C1331 C1332 1.366 . S
C1332 C1331 1.366 . S
C1332 C1333 1.414 . S
C1332 C1335 1.499 . S
C1333 H1313 0.950 . S
C1333 C1332 1.414 . S
C1333 C1334 1.374 . S
C1334 H1314 0.950 . S
C1334 C1330 1.385 . S
C1334 C1333 1.374 . S
C1335 C1332 1.499 . S
C1335 C1336 1.373 . S
C1335 C1337 1.389 . S
C1336 H1315 0.950 . S
C1336 C1335 1.373 . S
C1336 C1352 1.377 . S
C1337 C1335 1.389 . S
C1337 C1338 1.524 . S
C1337 C1351 1.377 . S
C1338 C1337 1.524 . S
C1338 C1339 1.397 . S
C1338 C1343 1.363 . S
C1339 H1316 0.950 . S
C1339 C1338 1.397 . S
C1339 C1340 1.334 . S
C1340 H1317 0.950 . S
C1340 C1339 1.334 . S
C1340 C1341 1.287 . S
C1341 C1340 1.287 . S
C1341 C1342 1.524 . S
C1341 H1360 0.913 . S
C1342 H1318 0.950 . S
C1342 C1341 1.524 . S
C1342 C1343 1.415 . S
C1343 H1319 0.950 . S
C1343 C1338 1.363 . S
C1343 C1342 1.415 . S
C1344 H1320 0.951 . S
C1344 C1345 1.366 . S
C1344 C1346 1.388 . S
C1345 C1344 1.366 . S
C1345 C1349 1.385 . S
C1346 H1321 0.951 . S
C1346 C1344 1.388 . S
C1346 C1347 1.366 . S
C1347 C1346 1.366 . S
C1347 C1348 1.414 . S
C1347 C1350 1.499 . S
C1348 H1322 0.950 . S
C1348 C1347 1.414 . S
C1348 C1349 1.374 . S
C1349 H1323 0.950 . S
C1349 C1345 1.385 . S
C1349 C1348 1.374 . S
C1350 C1347 1.499 . S
C1350 C1351 1.373 . S
C1350 C1352 1.389 . S
C1351 H1324 0.950 . S
C1351 C1337 1.377 . S
C1351 C1350 1.373 . S
C1352 C1336 1.377 . S
C1352 C1350 1.389 . S
C1352 C1353 1.524 . S
C1353 C1352 1.524 . S
C1353 C1354 1.397 . S
C1353 C1358 1.363 . S
C1354 H1325 0.950 . S
C1354 C1353 1.397 . S
C1354 C1355 1.334 . S
C1355 H1326 0.950 . S
C1355 C1354 1.334 . S
C1355 C1356 1.287 . S
C1356 C1355 1.287 . S
C1356 C1357 1.524 . S
C1356 H1359 0.999 . S
C1357 H1327 0.950 . S
C1357 C1356 1.524 . S
C1357 C1358 1.415 . S
C1358 H1328 0.950 . S
C1358 C1353 1.363 . S
C1358 C1357 1.415 . S
H1359 C1356 0.999 . S
H1360 C1341 0.913 . S
H1361 C1379 0.951 . S
H1362 C1381 0.951 . S
H1363 C1383 0.950 . S
H1364 C1384 0.950 . S
H1365 C1386 0.950 . S
H1366 C1389 0.950 . S
H1367 C1390 0.950 . S
H1368 C1392 0.950 . S
H1369 C1393 0.950 . S
H1370 C1394 0.951 . S
H1371 C1396 0.951 . S
H1372 C1398 0.950 . S
H1373 C1399 0.950 . S
H1374 C1401 0.950 . S
H1375 C1404 0.950 . S
H1376 C1405 0.950 . S
H1377 C1407 0.950 . S
H1378 C1408 0.950 . S
C1379 H1361 0.951 . S
C1379 C1380 1.366 . S
C1379 C1381 1.388 . S
C1380 C1379 1.366 . S
C1380 C1384 1.385 . S
C1381 H1362 0.951 . S
C1381 C1379 1.388 . S
C1381 C1382 1.366 . S
C1382 C1381 1.366 . S
C1382 C1383 1.414 . S
C1382 C1385 1.499 . S
C1383 H1363 0.950 . S
C1383 C1382 1.414 . S
C1383 C1384 1.374 . S
C1384 H1364 0.950 . S
C1384 C1380 1.385 . S
C1384 C1383 1.374 . S
C1385 C1382 1.499 . S
C1385 C1386 1.373 . S
C1385 C1387 1.389 . S
C1386 H1365 0.950 . S
C1386 C1385 1.373 . S
C1386 C1402 1.377 . S
C1387 C1385 1.389 . S
C1387 C1388 1.524 . S
C1387 C1401 1.377 . S
C1388 C1387 1.524 . S
C1388 C1389 1.397 . S
C1388 C1393 1.363 . S
C1389 H1366 0.950 . S
C1389 C1388 1.397 . S
C1389 C1390 1.334 . S
C1390 H1367 0.950 . S
C1390 C1389 1.334 . S
C1390 C1391 1.287 . S
C1391 C1390 1.287 . S
C1391 C1392 1.524 . S
C1391 H1410 0.913 . S
C1392 H1368 0.950 . S
C1392 C1391 1.524 . S
C1392 C1393 1.415 . S
C1393 H1369 0.950 . S
C1393 C1388 1.363 . S
C1393 C1392 1.415 . S
C1394 H1370 0.951 . S
C1394 C1395 1.366 . S
C1394 C1396 1.388 . S
C1395 C1394 1.366 . S
C1395 C1399 1.385 . S
C1396 H1371 0.951 . S
C1396 C1394 1.388 . S
C1396 C1397 1.366 . S
C1397 C1396 1.366 . S
C1397 C1398 1.414 . S
C1397 C1400 1.499 . S
C1398 H1372 0.950 . S
C1398 C1397 1.414 . S
C1398 C1399 1.374 . S
C1399 H1373 0.950 . S
C1399 C1395 1.385 . S
C1399 C1398 1.374 . S
C1400 C1397 1.499 . S
C1400 C1401 1.373 . S
C1400 C1402 1.389 . S
C1401 H1374 0.950 . S
C1401 C1387 1.377 . S
C1401 C1400 1.373 . S
C1402 C1386 1.377 . S
C1402 C1400 1.389 . S
C1402 C1403 1.524 . S
C1403 C1402 1.524 . S
C1403 C1404 1.397 . S
C1403 C1408 1.363 . S
C1404 H1375 0.950 . S
C1404 C1403 1.397 . S
C1404 C1405 1.334 . S
C1405 H1376 0.950 . S
C1405 C1404 1.334 . S
C1405 C1406 1.287 . S
C1406 C1405 1.287 . S
C1406 C1407 1.524 . S
C1406 H1409 0.999 . S
C1407 H1377 0.950 . S
C1407 C1406 1.524 . S
C1407 C1408 1.415 . S
C1408 H1378 0.950 . S
C1408 C1403 1.363 . S
C1408 C1407 1.415 . S
H1409 C1406 0.999 . S
H1410 C1391 0.913 . S
H1411 C1429 0.951 . S
H1412 C1431 0.951 . S
H1413 C1433 0.950 . S
H1414 C1434 0.950 . S
H1415 C1436 0.950 . S
H1416 C1439 0.950 . S
H1417 C1440 0.950 . S
H1418 C1442 0.950 . S
H1419 C1443 0.950 . S
H1420 C1444 0.951 . S
H1421 C1446 0.951 . S
H1422 C1448 0.950 . S
H1423 C1449 0.950 . S
H1424 C1451 0.950 . S
H1425 C1454 0.950 . S
H1426 C1455 0.950 . S
H1427 C1457 0.950 . S
H1428 C1458 0.950 . S
C1429 H1411 0.951 . S
C1429 C1430 1.366 . S
C1429 C1431 1.388 . S
C1430 C1429 1.366 . S
C1430 C1434 1.385 . S
C1431 H1412 0.951 . S
C1431 C1429 1.388 . S
C1431 C1432 1.366 . S
C1432 C1431 1.366 . S
C1432 C1433 1.414 . S
C1432 C1435 1.499 . S
C1433 H1413 0.950 . S
C1433 C1432 1.414 . S
C1433 C1434 1.374 . S
C1434 H1414 0.950 . S
C1434 C1430 1.385 . S
C1434 C1433 1.374 . S
C1435 C1432 1.499 . S
C1435 C1436 1.373 . S
C1435 C1437 1.389 . S
C1436 H1415 0.950 . S
C1436 C1435 1.373 . S
C1436 C1452 1.377 . S
C1437 C1435 1.389 . S
C1437 C1438 1.524 . S
C1437 C1451 1.377 . S
C1438 C1437 1.524 . S
C1438 C1439 1.397 . S
C1438 C1443 1.363 . S
C1439 H1416 0.950 . S
C1439 C1438 1.397 . S
C1439 C1440 1.334 . S
C1440 H1417 0.950 . S
C1440 C1439 1.334 . S
C1440 C1441 1.287 . S
C1441 C1440 1.287 . S
C1441 C1442 1.524 . S
C1441 H1460 0.913 . S
C1442 H1418 0.950 . S
C1442 C1441 1.524 . S
C1442 C1443 1.415 . S
C1443 H1419 0.950 . S
C1443 C1438 1.363 . S
C1443 C1442 1.415 . S
C1444 H1420 0.951 . S
C1444 C1445 1.366 . S
C1444 C1446 1.388 . S
C1445 C1444 1.366 . S
C1445 C1449 1.385 . S
C1446 H1421 0.951 . S
C1446 C1444 1.388 . S
C1446 C1447 1.366 . S
C1447 C1446 1.366 . S
C1447 C1448 1.414 . S
C1447 C1450 1.499 . S
C1448 H1422 0.950 . S
C1448 C1447 1.414 . S
C1448 C1449 1.374 . S
C1449 H1423 0.950 . S
C1449 C1445 1.385 . S
C1449 C1448 1.374 . S
C1450 C1447 1.499 . S
C1450 C1451 1.373 . S
C1450 C1452 1.389 . S
C1451 H1424 0.950 . S
C1451 C1437 1.377 . S
C1451 C1450 1.373 . S
C1452 C1436 1.377 . S
C1452 C1450 1.389 . S
C1452 C1453 1.524 . S
C1453 C1452 1.524 . S
C1453 C1454 1.397 . S
C1453 C1458 1.363 . S
C1454 H1425 0.950 . S
C1454 C1453 1.397 . S
C1454 C1455 1.334 . S
C1455 H1426 0.950 . S
C1455 C1454 1.334 . S
C1455 C1456 1.287 . S
C1456 C1455 1.287 . S
C1456 C1457 1.524 . S
C1456 H1459 0.999 . S
C1457 H1427 0.950 . S
C1457 C1456 1.524 . S
C1457 C1458 1.415 . S
C1458 H1428 0.950 . S
C1458 C1453 1.363 . S
C1458 C1457 1.415 . S
H1459 C1456 0.999 . S
H1460 C1441 0.913 . S
H1461 C1479 0.951 . S
H1462 C1481 0.951 . S
H1463 C1483 0.950 . S
H1464 C1484 0.950 . S
H1465 C1486 0.950 . S
H1466 C1489 0.950 . S
H1467 C1490 0.950 . S
H1468 C1492 0.950 . S
H1469 C1493 0.950 . S
H1470 C1494 0.951 . S
H1471 C1496 0.951 . S
H1472 C1498 0.950 . S
H1473 C1499 0.950 . S
H1474 C1501 0.950 . S
H1475 C1504 0.950 . S
H1476 C1505 0.950 . S
H1477 C1507 0.950 . S
H1478 C1508 0.950 . S
C1479 H1461 0.951 . S
C1479 C1480 1.366 . S
C1479 C1481 1.388 . S
C1480 C1479 1.366 . S
C1480 C1484 1.385 . S
C1481 H1462 0.951 . S
C1481 C1479 1.388 . S
C1481 C1482 1.366 . S
C1482 C1481 1.366 . S
C1482 C1483 1.414 . S
C1482 C1485 1.499 . S
C1483 H1463 0.950 . S
C1483 C1482 1.414 . S
C1483 C1484 1.374 . S
C1484 H1464 0.950 . S
C1484 C1480 1.385 . S
C1484 C1483 1.374 . S
C1485 C1482 1.499 . S
C1485 C1486 1.373 . S
C1485 C1487 1.389 . S
C1486 H1465 0.950 . S
C1486 C1485 1.373 . S
C1486 C1502 1.377 . S
C1487 C1485 1.389 . S
C1487 C1488 1.524 . S
C1487 C1501 1.377 . S
C1488 C1487 1.524 . S
C1488 C1489 1.397 . S
C1488 C1493 1.363 . S
C1489 H1466 0.950 . S
C1489 C1488 1.397 . S
C1489 C1490 1.334 . S
C1490 H1467 0.950 . S
C1490 C1489 1.334 . S
C1490 C1491 1.287 . S
C1491 C1490 1.287 . S
C1491 C1492 1.524 . S
C1491 H1510 0.913 . S
C1492 H1468 0.950 . S
C1492 C1491 1.524 . S
C1492 C1493 1.415 . S
C1493 H1469 0.950 . S
C1493 C1488 1.363 . S
C1493 C1492 1.415 . S
C1494 H1470 0.951 . S
C1494 C1495 1.366 . S
C1494 C1496 1.388 . S
C1495 C1494 1.366 . S
C1495 C1499 1.385 . S
C1496 H1471 0.951 . S
C1496 C1494 1.388 . S
C1496 C1497 1.366 . S
C1497 C1496 1.366 . S
C1497 C1498 1.414 . S
C1497 C1500 1.499 . S
C1498 H1472 0.950 . S
C1498 C1497 1.414 . S
C1498 C1499 1.374 . S
C1499 H1473 0.950 . S
C1499 C1495 1.385 . S
C1499 C1498 1.374 . S
C1500 C1497 1.499 . S
C1500 C1501 1.373 . S
C1500 C1502 1.389 . S
C1501 H1474 0.950 . S
C1501 C1487 1.377 . S
C1501 C1500 1.373 . S
C1502 C1486 1.377 . S
C1502 C1500 1.389 . S
C1502 C1503 1.524 . S
C1503 C1502 1.524 . S
C1503 C1504 1.397 . S
C1503 C1508 1.363 . S
C1504 H1475 0.950 . S
C1504 C1503 1.397 . S
C1504 C1505 1.334 . S
C1505 H1476 0.950 . S
C1505 C1504 1.334 . S
C1505 C1506 1.287 . S
C1506 C1505 1.287 . S
C1506 C1507 1.524 . S
C1506 H1509 0.999 . S
C1507 H1477 0.950 . S
C1507 C1506 1.524 . S
C1507 C1508 1.415 . S
C1508 H1478 0.950 . S
C1508 C1503 1.363 . S
C1508 C1507 1.415 . S
H1509 C1506 0.999 . S
H1510 C1491 0.913 . S
H1511 C1529 0.951 . S
H1512 C1531 0.951 . S
H1513 C1533 0.950 . S
H1514 C1534 0.950 . S
H1515 C1536 0.950 . S
H1516 C1539 0.950 . S
H1517 C1540 0.950 . S
H1518 C1542 0.950 . S
H1519 C1543 0.950 . S
H1520 C1544 0.951 . S
H1521 C1546 0.951 . S
H1522 C1548 0.950 . S
H1523 C1549 0.950 . S
H1524 C1551 0.950 . S
H1525 C1554 0.950 . S
H1526 C1555 0.950 . S
H1527 C1557 0.950 . S
H1528 C1558 0.950 . S
C1529 H1511 0.951 . S
C1529 C1530 1.366 . S
C1529 C1531 1.388 . S
C1530 C1529 1.366 . S
C1530 C1534 1.385 . S
C1531 H1512 0.951 . S
C1531 C1529 1.388 . S
C1531 C1532 1.366 . S
C1532 C1531 1.366 . S
C1532 C1533 1.414 . S
C1532 C1535 1.499 . S
C1533 H1513 0.950 . S
C1533 C1532 1.414 . S
C1533 C1534 1.374 . S
C1534 H1514 0.950 . S
C1534 C1530 1.385 . S
C1534 C1533 1.374 . S
C1535 C1532 1.499 . S
C1535 C1536 1.373 . S
C1535 C1537 1.389 . S
C1536 H1515 0.950 . S
C1536 C1535 1.373 . S
C1536 C1552 1.377 . S
C1537 C1535 1.389 . S
C1537 C1538 1.524 . S
C1537 C1551 1.377 . S
C1538 C1537 1.524 . S
C1538 C1539 1.397 . S
C1538 C1543 1.363 . S
C1539 H1516 0.950 . S
C1539 C1538 1.397 . S
C1539 C1540 1.334 . S
C1540 H1517 0.950 . S
C1540 C1539 1.334 . S
C1540 C1541 1.287 . S
C1541 C1540 1.287 . S
C1541 C1542 1.524 . S
C1541 H1560 0.913 . S
C1542 H1518 0.950 . S
C1542 C1541 1.524 . S
C1542 C1543 1.415 . S
C1543 H1519 0.950 . S
C1543 C1538 1.363 . S
C1543 C1542 1.415 . S
C1544 H1520 0.951 . S
C1544 C1545 1.366 . S
C1544 C1546 1.388 . S
C1545 C1544 1.366 . S
C1545 C1549 1.385 . S
C1546 H1521 0.951 . S
C1546 C1544 1.388 . S
C1546 C1547 1.366 . S
C1547 C1546 1.366 . S
C1547 C1548 1.414 . S
C1547 C1550 1.499 . S
C1548 H1522 0.950 . S
C1548 C1547 1.414 . S
C1548 C1549 1.374 . S
C1549 H1523 0.950 . S
C1549 C1545 1.385 . S
C1549 C1548 1.374 . S
C1550 C1547 1.499 . S
C1550 C1551 1.373 . S
C1550 C1552 1.389 . S
C1551 H1524 0.950 . S
C1551 C1537 1.377 . S
C1551 C1550 1.373 . S
C1552 C1536 1.377 . S
C1552 C1550 1.389 . S
C1552 C1553 1.524 . S
C1553 C1552 1.524 . S
C1553 C1554 1.397 . S
C1553 C1558 1.363 . S
C1554 H1525 0.950 . S
C1554 C1553 1.397 . S
C1554 C1555 1.334 . S
C1555 H1526 0.950 . S
C1555 C1554 1.334 . S
C1555 C1556 1.287 . S
C1556 C1555 1.287 . S
C1556 C1557 1.524 . S
C1556 H1559 0.999 . S
C1557 H1527 0.950 . S
C1557 C1556 1.524 . S
C1557 C1558 1.415 . S
C1558 H1528 0.950 . S
C1558 C1553 1.363 . S
C1558 C1557 1.415 . S
H1559 C1556 0.999 . S
H1560 C1541 0.913 . S
H1561 C1579 0.951 . S
H1562 C1581 0.951 . S
H1563 C1583 0.950 . S
H1564 C1584 0.950 . S
H1565 C1586 0.950 . S
H1566 C1589 0.950 . S
H1567 C1590 0.950 . S
H1568 C1592 0.950 . S
H1569 C1593 0.950 . S
H1570 C1594 0.951 . S
H1571 C1596 0.951 . S
H1572 C1598 0.950 . S
H1573 C1599 0.950 . S
H1574 C1601 0.950 . S
H1575 C1604 0.950 . S
H1576 C1605 0.950 . S
H1577 C1607 0.950 . S
H1578 C1608 0.950 . S
C1579 H1561 0.951 . S
C1579 C1580 1.366 . S
C1579 C1581 1.388 . S
C1580 C1579 1.366 . S
C1580 C1584 1.385 . S
C1581 H1562 0.951 . S
C1581 C1579 1.388 . S
C1581 C1582 1.366 . S
C1582 C1581 1.366 . S
C1582 C1583 1.414 . S
C1582 C1585 1.499 . S
C1583 H1563 0.950 . S
C1583 C1582 1.414 . S
C1583 C1584 1.374 . S
C1584 H1564 0.950 . S
C1584 C1580 1.385 . S
C1584 C1583 1.374 . S
C1585 C1582 1.499 . S
C1585 C1586 1.373 . S
C1585 C1587 1.389 . S
C1586 H1565 0.950 . S
C1586 C1585 1.373 . S
C1586 C1602 1.377 . S
C1587 C1585 1.389 . S
C1587 C1588 1.524 . S
C1587 C1601 1.377 . S
C1588 C1587 1.524 . S
C1588 C1589 1.397 . S
C1588 C1593 1.363 . S
C1589 H1566 0.950 . S
C1589 C1588 1.397 . S
C1589 C1590 1.334 . S
C1590 H1567 0.950 . S
C1590 C1589 1.334 . S
C1590 C1591 1.287 . S
C1591 C1590 1.287 . S
C1591 C1592 1.524 . S
C1591 H1610 0.913 . S
C1592 H1568 0.950 . S
C1592 C1591 1.524 . S
C1592 C1593 1.415 . S
C1593 H1569 0.950 . S
C1593 C1588 1.363 . S
C1593 C1592 1.415 . S
C1594 H1570 0.951 . S
C1594 C1595 1.366 . S
C1594 C1596 1.388 . S
C1595 C1594 1.366 . S
C1595 C1599 1.385 . S
C1596 H1571 0.951 . S
C1596 C1594 1.388 . S
C1596 C1597 1.366 . S
C1597 C1596 1.366 . S
C1597 C1598 1.414 . S
C1597 C1600 1.499 . S
C1598 H1572 0.950 . S
C1598 C1597 1.414 . S
C1598 C1599 1.374 . S
C1599 H1573 0.950 . S
C1599 C1595 1.385 . S
C1599 C1598 1.374 . S
C1600 C1597 1.499 . S
C1600 C1601 1.373 . S
C1600 C1602 1.389 . S
C1601 H1574 0.950 . S
C1601 C1587 1.377 . S
C1601 C1600 1.373 . S
C1602 C1586 1.377 . S
C1602 C1600 1.389 . S
C1602 C1603 1.524 . S
C1603 C1602 1.524 . S
C1603 C1604 1.397 . S
C1603 C1608 1.363 . S
C1604 H1575 0.950 . S
C1604 C1603 1.397 . S
C1604 C1605 1.334 . S
C1605 H1576 0.950 . S
C1605 C1604 1.334 . S
C1605 C1606 1.287 . S
C1606 C1605 1.287 . S
C1606 C1607 1.524 . S
C1606 H1609 0.999 . S
C1607 H1577 0.950 . S
C1607 C1606 1.524 . S
C1607 C1608 1.415 . S
C1608 H1578 0.950 . S
C1608 C1603 1.363 . S
C1608 C1607 1.415 . S
H1609 C1606 0.999 . S
H1610 C1591 0.913 . S
C430 C22 1.733 . S
C445 C318 1.654 . S
C480 C92 1.817 . S
C495 C350 1.787 . S
C545 C409 2.111 . S
C530 C144 2.160 . S
C595 C338 1.606 . S
C580 C197 1.637 . S
C630 C250 1.826 . S
C645 C368 1.743 . S
C695 C390 1.168 . S
C680 C287 1.187 . S
C745 C359 1.762 . S
C730 C145 1.795 . S
C780 C198 1.350 . S
C795 C399 1.292 . S
C845 C348 1.736 . S
C830 C251 1.764 1_556 S
C880 C294 1.564 1_556 S
C895 C378 1.529 . S
C930 C29 1.914 . S
C945 C381 1.876 . S
C995 C320 1.877 . S
C980 C91 1.902 1_556 S
C1045 C328 1.417 . S
C1030 C188 1.458 . S
C1095 C369 1.329 . S
C1080 C241 1.357 . S
C1145 C382 1.961 . S
C1130 C304 2.003 . S
C1195 C319 1.476 . S
C1180 C39 1.501 . S
C1245 C379 1.277 . S
C1230 C75 1.310 . S
C1280 C135 1.035 . S
C1295 C380 1.010 . S
C1345 C349 1.524 . S
C1330 C303 1.577 . S
C1395 C410 1.070 . S
C1380 C38 1.094 . S
C1445 C337 1.277 . S
C1430 C82 1.338 . S
C1495 C351 1.418 . S
C1480 C128 1.447 . S
C1530 C181 1.763 . S
C1545 C400 1.727 . S
C1580 C234 1.463 . S
C1595 C347 1.434 . S
