# Generated by pormake.
# Topology gar, (4,6)-cn, num edge types: 1
# Building blocks:
#     Node 0, Type 0, BuildingBlock: QUQFOY_clean_sbu_1, # of connection points: 4
#     Node 1, Type 0, BuildingBlock: QUQFOY_clean_sbu_1, # of connection points: 4
#     Node 2, Type 0, BuildingBlock: QUQFOY_clean_sbu_1, # of connection points: 4
#     Node 3, Type 0, BuildingBlock: QUQFOY_clean_sbu_1, # of connection points: 4
#     Node 4, Type 0, BuildingBlock: QUQFOY_clean_sbu_1, # of connection points: 4
#     Node 5, Type 0, BuildingBlock: QUQFOY_clean_sbu_1, # of connection points: 4
#     Node 6, Type 0, BuildingBlock: QUQFOY_clean_sbu_1, # of connection points: 4
#     Node 7, Type 0, BuildingBlock: QUQFOY_clean_sbu_1, # of connection points: 4
#     Node 8, Type 0, BuildingBlock: QUQFOY_clean_sbu_1, # of connection points: 4
#     Node 9, Type 0, BuildingBlock: QUQFOY_clean_sbu_1, # of connection points: 4
#     Node 10, Type 0, BuildingBlock: QUQFOY_clean_sbu_1, # of connection points: 4
#     Node 11, Type 0, BuildingBlock: QUQFOY_clean_sbu_1, # of connection points: 4
#     Node 12, Type 0, BuildingBlock: QUQFOY_clean_sbu_1, # of connection points: 4
#     Node 13, Type 0, BuildingBlock: QUQFOY_clean_sbu_1, # of connection points: 4
#     Node 14, Type 0, BuildingBlock: QUQFOY_clean_sbu_1, # of connection points: 4
#     Node 15, Type 0, BuildingBlock: QUQFOY_clean_sbu_1, # of connection points: 4
#     Node 16, Type 0, BuildingBlock: QUQFOY_clean_sbu_1, # of connection points: 4
#     Node 17, Type 0, BuildingBlock: QUQFOY_clean_sbu_1, # of connection points: 4
#     Node 18, Type 0, BuildingBlock: QUQFOY_clean_sbu_1, # of connection points: 4
#     Node 19, Type 0, BuildingBlock: QUQFOY_clean_sbu_1, # of connection points: 4
#     Node 20, Type 0, BuildingBlock: QUQFOY_clean_sbu_1, # of connection points: 4
#     Node 21, Type 0, BuildingBlock: QUQFOY_clean_sbu_1, # of connection points: 4
#     Node 22, Type 0, BuildingBlock: QUQFOY_clean_sbu_1, # of connection points: 4
#     Node 23, Type 0, BuildingBlock: QUQFOY_clean_sbu_1, # of connection points: 4
#     Node 24, Type 1, BuildingBlock: INOVEN_clean_sbu_0, # of connection points: 6
#     Node 25, Type 1, BuildingBlock: INOVEN_clean_sbu_0, # of connection points: 6
#     Node 26, Type 1, BuildingBlock: INOVEN_clean_sbu_0, # of connection points: 6
#     Node 27, Type 1, BuildingBlock: INOVEN_clean_sbu_0, # of connection points: 6
#     Node 28, Type 1, BuildingBlock: INOVEN_clean_sbu_0, # of connection points: 6
#     Node 29, Type 1, BuildingBlock: INOVEN_clean_sbu_0, # of connection points: 6
#     Node 30, Type 1, BuildingBlock: INOVEN_clean_sbu_0, # of connection points: 6
#     Node 31, Type 1, BuildingBlock: INOVEN_clean_sbu_0, # of connection points: 6
#     Node 32, Type 1, BuildingBlock: INOVEN_clean_sbu_0, # of connection points: 6
#     Node 33, Type 1, BuildingBlock: INOVEN_clean_sbu_0, # of connection points: 6
#     Node 34, Type 1, BuildingBlock: INOVEN_clean_sbu_0, # of connection points: 6
#     Node 35, Type 1, BuildingBlock: INOVEN_clean_sbu_0, # of connection points: 6
#     Node 36, Type 1, BuildingBlock: INOVEN_clean_sbu_0, # of connection points: 6
#     Node 37, Type 1, BuildingBlock: INOVEN_clean_sbu_0, # of connection points: 6
#     Node 38, Type 1, BuildingBlock: INOVEN_clean_sbu_0, # of connection points: 6
#     Node 39, Type 1, BuildingBlock: INOVEN_clean_sbu_0, # of connection points: 6
#     Edge 40, Type (0, 1), BuildingBlock: CIFDUS_clean_linker_0, # of connection points: 2
#     Edge 41, Type (0, 1), BuildingBlock: CIFDUS_clean_linker_0, # of connection points: 2
#     Edge 42, Type (0, 1), BuildingBlock: CIFDUS_clean_linker_0, # of connection points: 2
#     Edge 43, Type (0, 1), BuildingBlock: CIFDUS_clean_linker_0, # of connection points: 2
#     Edge 44, Type (0, 1), BuildingBlock: CIFDUS_clean_linker_0, # of connection points: 2
#     Edge 45, Type (0, 1), BuildingBlock: CIFDUS_clean_linker_0, # of connection points: 2
#     Edge 46, Type (0, 1), BuildingBlock: CIFDUS_clean_linker_0, # of connection points: 2
#     Edge 47, Type (0, 1), BuildingBlock: CIFDUS_clean_linker_0, # of connection points: 2
#     Edge 48, Type (0, 1), BuildingBlock: CIFDUS_clean_linker_0, # of connection points: 2
#     Edge 49, Type (0, 1), BuildingBlock: CIFDUS_clean_linker_0, # of connection points: 2
#     Edge 50, Type (0, 1), BuildingBlock: CIFDUS_clean_linker_0, # of connection points: 2
#     Edge 51, Type (0, 1), BuildingBlock: CIFDUS_clean_linker_0, # of connection points: 2
#     Edge 52, Type (0, 1), BuildingBlock: CIFDUS_clean_linker_0, # of connection points: 2
#     Edge 53, Type (0, 1), BuildingBlock: CIFDUS_clean_linker_0, # of connection points: 2
#     Edge 54, Type (0, 1), BuildingBlock: CIFDUS_clean_linker_0, # of connection points: 2
#     Edge 55, Type (0, 1), BuildingBlock: CIFDUS_clean_linker_0, # of connection points: 2
#     Edge 56, Type (0, 1), BuildingBlock: CIFDUS_clean_linker_0, # of connection points: 2
#     Edge 57, Type (0, 1), BuildingBlock: CIFDUS_clean_linker_0, # of connection points: 2
#     Edge 58, Type (0, 1), BuildingBlock: CIFDUS_clean_linker_0, # of connection points: 2
#     Edge 59, Type (0, 1), BuildingBlock: CIFDUS_clean_linker_0, # of connection points: 2
#     Edge 60, Type (0, 1), BuildingBlock: CIFDUS_clean_linker_0, # of connection points: 2
#     Edge 61, Type (0, 1), BuildingBlock: CIFDUS_clean_linker_0, # of connection points: 2
#     Edge 62, Type (0, 1), BuildingBlock: CIFDUS_clean_linker_0, # of connection points: 2
#     Edge 63, Type (0, 1), BuildingBlock: CIFDUS_clean_linker_0, # of connection points: 2
#     Edge 64, Type (0, 1), BuildingBlock: CIFDUS_clean_linker_0, # of connection points: 2
#     Edge 65, Type (0, 1), BuildingBlock: CIFDUS_clean_linker_0, # of connection points: 2
#     Edge 66, Type (0, 1), BuildingBlock: CIFDUS_clean_linker_0, # of connection points: 2
#     Edge 67, Type (0, 1), BuildingBlock: CIFDUS_clean_linker_0, # of connection points: 2
#     Edge 68, Type (0, 1), BuildingBlock: CIFDUS_clean_linker_0, # of connection points: 2
#     Edge 69, Type (0, 1), BuildingBlock: CIFDUS_clean_linker_0, # of connection points: 2
#     Edge 70, Type (0, 1), BuildingBlock: CIFDUS_clean_linker_0, # of connection points: 2
#     Edge 71, Type (0, 1), BuildingBlock: CIFDUS_clean_linker_0, # of connection points: 2
#     Edge 72, Type (0, 1), BuildingBlock: CIFDUS_clean_linker_0, # of connection points: 2
#     Edge 73, Type (0, 1), BuildingBlock: CIFDUS_clean_linker_0, # of connection points: 2
#     Edge 74, Type (0, 1), BuildingBlock: CIFDUS_clean_linker_0, # of connection points: 2
#     Edge 75, Type (0, 1), BuildingBlock: CIFDUS_clean_linker_0, # of connection points: 2
#     Edge 76, Type (0, 1), BuildingBlock: CIFDUS_clean_linker_0, # of connection points: 2
#     Edge 77, Type (0, 1), BuildingBlock: CIFDUS_clean_linker_0, # of connection points: 2
#     Edge 78, Type (0, 1), BuildingBlock: CIFDUS_clean_linker_0, # of connection points: 2
#     Edge 79, Type (0, 1), BuildingBlock: CIFDUS_clean_linker_0, # of connection points: 2
#     Edge 80, Type (0, 1), BuildingBlock: CIFDUS_clean_linker_0, # of connection points: 2
#     Edge 81, Type (0, 1), BuildingBlock: CIFDUS_clean_linker_0, # of connection points: 2
#     Edge 82, Type (0, 1), BuildingBlock: CIFDUS_clean_linker_0, # of connection points: 2
#     Edge 83, Type (0, 1), BuildingBlock: CIFDUS_clean_linker_0, # of connection points: 2
#     Edge 84, Type (0, 1), BuildingBlock: CIFDUS_clean_linker_0, # of connection points: 2
#     Edge 85, Type (0, 1), BuildingBlock: CIFDUS_clean_linker_0, # of connection points: 2
#     Edge 86, Type (0, 1), BuildingBlock: CIFDUS_clean_linker_0, # of connection points: 2
#     Edge 87, Type (0, 1), BuildingBlock: CIFDUS_clean_linker_0, # of connection points: 2
#     Edge 88, Type (0, 1), BuildingBlock: CIFDUS_clean_linker_0, # of connection points: 2
#     Edge 89, Type (0, 1), BuildingBlock: CIFDUS_clean_linker_0, # of connection points: 2
#     Edge 90, Type (0, 1), BuildingBlock: CIFDUS_clean_linker_0, # of connection points: 2
#     Edge 91, Type (0, 1), BuildingBlock: CIFDUS_clean_linker_0, # of connection points: 2
#     Edge 92, Type (0, 1), BuildingBlock: CIFDUS_clean_linker_0, # of connection points: 2
#     Edge 93, Type (0, 1), BuildingBlock: CIFDUS_clean_linker_0, # of connection points: 2
#     Edge 94, Type (0, 1), BuildingBlock: CIFDUS_clean_linker_0, # of connection points: 2
#     Edge 95, Type (0, 1), BuildingBlock: CIFDUS_clean_linker_0, # of connection points: 2
#     Edge 96, Type (0, 1), BuildingBlock: CIFDUS_clean_linker_0, # of connection points: 2
#     Edge 97, Type (0, 1), BuildingBlock: CIFDUS_clean_linker_0, # of connection points: 2
#     Edge 98, Type (0, 1), BuildingBlock: CIFDUS_clean_linker_0, # of connection points: 2
#     Edge 99, Type (0, 1), BuildingBlock: CIFDUS_clean_linker_0, # of connection points: 2
#     Edge 100, Type (0, 1), BuildingBlock: CIFDUS_clean_linker_0, # of connection points: 2
#     Edge 101, Type (0, 1), BuildingBlock: CIFDUS_clean_linker_0, # of connection points: 2
#     Edge 102, Type (0, 1), BuildingBlock: CIFDUS_clean_linker_0, # of connection points: 2
#     Edge 103, Type (0, 1), BuildingBlock: CIFDUS_clean_linker_0, # of connection points: 2
#     Edge 104, Type (0, 1), BuildingBlock: CIFDUS_clean_linker_0, # of connection points: 2
#     Edge 105, Type (0, 1), BuildingBlock: CIFDUS_clean_linker_0, # of connection points: 2
#     Edge 106, Type (0, 1), BuildingBlock: CIFDUS_clean_linker_0, # of connection points: 2
#     Edge 107, Type (0, 1), BuildingBlock: CIFDUS_clean_linker_0, # of connection points: 2
#     Edge 108, Type (0, 1), BuildingBlock: CIFDUS_clean_linker_0, # of connection points: 2
#     Edge 109, Type (0, 1), BuildingBlock: CIFDUS_clean_linker_0, # of connection points: 2
#     Edge 110, Type (0, 1), BuildingBlock: CIFDUS_clean_linker_0, # of connection points: 2
#     Edge 111, Type (0, 1), BuildingBlock: CIFDUS_clean_linker_0, # of connection points: 2
#     Edge 112, Type (0, 1), BuildingBlock: CIFDUS_clean_linker_0, # of connection points: 2
#     Edge 113, Type (0, 1), BuildingBlock: CIFDUS_clean_linker_0, # of connection points: 2
#     Edge 114, Type (0, 1), BuildingBlock: CIFDUS_clean_linker_0, # of connection points: 2
#     Edge 115, Type (0, 1), BuildingBlock: CIFDUS_clean_linker_0, # of connection points: 2
#     Edge 116, Type (0, 1), BuildingBlock: CIFDUS_clean_linker_0, # of connection points: 2
#     Edge 117, Type (0, 1), BuildingBlock: CIFDUS_clean_linker_0, # of connection points: 2
#     Edge 118, Type (0, 1), BuildingBlock: CIFDUS_clean_linker_0, # of connection points: 2
#     Edge 119, Type (0, 1), BuildingBlock: CIFDUS_clean_linker_0, # of connection points: 2
#     Edge 120, Type (0, 1), BuildingBlock: CIFDUS_clean_linker_0, # of connection points: 2
#     Edge 121, Type (0, 1), BuildingBlock: CIFDUS_clean_linker_0, # of connection points: 2
#     Edge 122, Type (0, 1), BuildingBlock: CIFDUS_clean_linker_0, # of connection points: 2
#     Edge 123, Type (0, 1), BuildingBlock: CIFDUS_clean_linker_0, # of connection points: 2
#     Edge 124, Type (0, 1), BuildingBlock: CIFDUS_clean_linker_0, # of connection points: 2
#     Edge 125, Type (0, 1), BuildingBlock: CIFDUS_clean_linker_0, # of connection points: 2
#     Edge 126, Type (0, 1), BuildingBlock: CIFDUS_clean_linker_0, # of connection points: 2
#     Edge 127, Type (0, 1), BuildingBlock: CIFDUS_clean_linker_0, # of connection points: 2
#     Edge 128, Type (0, 1), BuildingBlock: CIFDUS_clean_linker_0, # of connection points: 2
#     Edge 129, Type (0, 1), BuildingBlock: CIFDUS_clean_linker_0, # of connection points: 2
#     Edge 130, Type (0, 1), BuildingBlock: CIFDUS_clean_linker_0, # of connection points: 2
#     Edge 131, Type (0, 1), BuildingBlock: CIFDUS_clean_linker_0, # of connection points: 2
#     Edge 132, Type (0, 1), BuildingBlock: CIFDUS_clean_linker_0, # of connection points: 2
#     Edge 133, Type (0, 1), BuildingBlock: CIFDUS_clean_linker_0, # of connection points: 2
#     Edge 134, Type (0, 1), BuildingBlock: CIFDUS_clean_linker_0, # of connection points: 2
#     Edge 135, Type (0, 1), BuildingBlock: CIFDUS_clean_linker_0, # of connection points: 2
# Relax obj value: 0.214
# Max RMSD: 0.332
# Mean RMSD: 0.185
data_MOF--net-gar--node1-QUQFOY_clean_sbu_1--node2-INOVEN_clean_sbu_0--edge1-CIFDUS_clean_linker_0
_symmetry_space_group_name_H-M    P1
_symmetry_Int_Tables_number       1
_symmetry_cell_setting            triclinic
loop_
_symmetry_equiv_pos_as_xyz
'x, y, z'
_cell_length_a     56.971482
_cell_length_b     50.82323
_cell_length_c     50.911848
_cell_angle_alpha  99.524283
_cell_angle_beta   95.613838
_cell_angle_gamma 105.55705
loop_
_atom_site_label
_atom_site_type_symbol
_atom_site_fract_x
_atom_site_fract_y
_atom_site_fract_z
_atom_type_partial_charge
O0 O 0.13315 0.30447 0.40946 0.0
Cd1 Cd 0.1398 0.33399 0.38641 0.0
Cd2 Cd 0.12959 0.36312 0.43176 0.0
O3 O 0.13691 0.33235 0.44864 0.0
O4 O 0.15549 0.31774 0.35805 0.0
O5 O 0.17404 0.35761 0.38677 0.0
C6 C 0.1747 0.33882 0.3666 0.0
C7 C 0.12736 0.40262 0.45945 0.0
C8 C 0.13439 0.30836 0.43484 0.0
C9 C 0.09404 0.346 0.37906 0.0
O10 O 0.09872 0.35304 0.40441 0.0
O11 O 0.10995 0.33971 0.36565 0.0
O12 O 0.11288 0.37859 0.45979 0.0
O13 O 0.14538 0.40409 0.44574 0.0
O14 O 0.99695 0.70111 0.67942 0.0
Cd15 Cd 1.00487 0.7386 0.7046 0.0
Cd16 Cd 0.02281 0.75882 0.66419 0.0
O17 O 1.00346 0.71977 0.64386 0.0
O18 O 0.98298 0.73562 0.73159 0.0
O19 O 0.98465 0.76431 0.70235 0.0
C20 C 0.97593 0.75498 0.72262 0.0
C21 C 0.03048 0.79042 0.63648 0.0
C22 C 0.99661 0.69855 0.65424 0.0
C23 C 0.05727 0.7624 0.71458 0.0
O24 O 0.05436 0.76501 0.69028 0.0
O25 O 0.03892 0.75279 0.72578 0.0
O26 O 0.03956 0.7698 0.63414 0.0
O27 O 1.01616 0.7928 0.65431 0.0
O28 O 0.6888 0.85486 0.91227 0.0
Cd29 Cd 0.66171 0.8535 0.93512 0.0
Cd30 Cd 0.63652 0.86506 0.89132 0.0
O31 O 0.66652 0.85875 0.87584 0.0
O32 O 0.66939 0.83513 0.96415 0.0
O33 O 0.6353 0.81832 0.93391 0.0
C34 C 0.64848 0.81662 0.95538 0.0
C35 C 0.60175 0.85732 0.8606 0.0
C36 C 0.68618 0.85622 0.88764 0.0
C37 C 0.64844 0.90496 0.94527 0.0
O38 O 0.63899 0.89848 0.92071 0.0
O39 O 0.65916 0.88962 0.95567 0.0
O40 O 0.62095 0.8779 0.86165 0.0
O41 O 0.60272 0.83993 0.87623 0.0
O42 O 0.50282 0.18801 0.1701 0.0
Cd43 Cd 0.50583 0.22265 0.1983 0.0
Cd44 Cd 0.52727 0.25329 0.16668 0.0
O45 O 0.5211 0.21461 0.14372 0.0
O46 O 0.47786 0.2182 0.21806 0.0
O47 O 0.48758 0.24983 0.19232 0.0
C48 C 0.47384 0.23909 0.20887 0.0
C49 C 0.53192 0.28787 0.14186 0.0
C50 C 0.51149 0.19063 0.14841 0.0
C51 C 0.55557 0.25604 0.2206 0.0
O52 O 0.55414 0.26564 0.19929 0.0
O53 O 0.53766 0.23702 0.22478 0.0
O54 O 0.54741 0.27377 0.14347 0.0
O55 O 0.51283 0.28172 0.15383 0.0
O56 O 0.10729 0.78671 0.12558 0.0
Cd57 Cd 0.11088 0.82256 0.15253 0.0
Cd58 Cd 0.13827 0.84468 0.11504 0.0
O59 O 0.12756 0.80284 0.09401 0.0
O60 O 0.09155 0.80758 0.1803 0.0
O61 O 0.08105 0.83682 0.15733 0.0
C62 C 0.0767 0.82178 0.17534 0.0
C63 C 0.12378 0.88087 0.10026 0.0
C64 C 0.11557 0.78233 0.1035 0.0
C65 C 0.16635 0.84701 0.16932 0.0
O66 O 0.16836 0.85211 0.14579 0.0
O67 O 0.14513 0.83772 0.17584 0.0
O68 O 0.14269 0.87458 0.0919 0.0
O69 O 0.11311 0.86675 0.11696 0.0
O70 O 0.57329 0.7808 0.42834 0.0
Cd71 Cd 0.5554 0.77923 0.46167 0.0
Cd72 Cd 0.52335 0.80037 0.40962 0.0
O73 O 0.55459 0.79314 0.39367 0.0
O74 O 0.57842 0.76743 0.48747 0.0
O75 O 0.54096 0.74082 0.47099 0.0
C76 C 0.56184 0.74396 0.48541 0.0
C77 C 0.48672 0.80253 0.38277 0.0
C78 C 0.57252 0.78589 0.40463 0.0
C79 C 0.54114 0.83374 0.47076 0.0
O80 O 0.5311 0.82789 0.44623 0.0
O81 O 0.55148 0.8175 0.48092 0.0
O82 O 0.50725 0.82205 0.38661 0.0
O83 O 0.48704 0.78074 0.39258 0.0
O84 O 0.61977 0.28178 0.63528 0.0
Cd85 Cd 0.6266 0.31584 0.66576 0.0
Cd86 Cd 0.64869 0.34153 0.62564 0.0
O87 O 0.63648 0.30031 0.60269 0.0
O88 O 0.60563 0.29932 0.69191 0.0
O89 O 0.59835 0.33255 0.67261 0.0
C90 C 0.59171 0.31491 0.68798 0.0
C91 C 0.63387 0.37853 0.61178 0.0
C92 C 0.6254 0.27897 0.61166 0.0
C93 C 0.6825 0.33861 0.67622 0.0
O94 O 0.68088 0.34656 0.65364 0.0
O95 O 0.66299 0.32763 0.68555 0.0
O96 O 0.65228 0.37187 0.60249 0.0
O97 O 0.6242 0.36478 0.62923 0.0
O98 O 0.03563 0.23056 0.93955 0.0
Cd99 Cd 0.03565 0.25916 0.91411 0.0
Cd100 Cd 0.0252 0.28947 0.96053 0.0
O101 O 0.03397 0.25773 0.9775 0.0
O102 O 0.05578 0.24986 0.88546 0.0
O103 O 0.06819 0.28849 0.91662 0.0
C104 C 0.0727 0.27273 0.89624 0.0
C105 C 0.04337 0.33657 0.98106 0.0
C106 C 0.03666 0.23501 0.9651 0.0
C107 C 0.98758 0.27481 0.90927 0.0
O108 O 0.99234 0.28268 0.93479 0.0
O109 O 1.00294 0.2657 0.89649 0.0
O110 O 0.02524 0.32114 0.99 0.0
O111 O 0.05198 0.32492 0.96119 0.0
O112 O 0.45256 0.04018 0.28813 0.0
Cd113 Cd 0.4472 0.06435 0.3218 0.0
Cd114 Cd 0.4886 0.05997 0.33508 0.0
O115 O 0.49273 0.05776 0.29618 0.0
O116 O 0.4157 0.06717 0.30687 0.0
O117 O 0.44864 0.10381 0.32091 0.0
C118 C 0.42594 0.09347 0.30972 0.0
C119 C 0.52062 0.08004 0.36846 0.0
C120 C 0.47333 0.04348 0.28036 0.0
C121 C 0.44454 0.02387 0.35083 0.0
O122 O 0.4648 0.02481 0.34222 0.0
O123 O 0.43707 0.04522 0.35258 0.0
O124 O 0.51984 0.0577 0.35181 0.0
O125 O 0.50376 0.09229 0.36493 0.0
O126 O 0.32061 0.22031 0.56397 0.0
Cd127 Cd 0.31693 0.18861 0.53218 0.0
Cd128 Cd 0.29283 0.22244 0.50685 0.0
O129 O 0.30187 0.2476 0.54627 0.0
O130 O 0.33659 0.16606 0.54832 0.0
O131 O 0.34591 0.18477 0.51329 0.0
C132 C 0.3511 0.17059 0.53069 0.0
C133 C 0.30497 0.23813 0.46703 0.0
C134 C 0.31261 0.24151 0.56675 0.0
C135 C 0.26178 0.16587 0.51381 0.0
O136 O 0.26235 0.18761 0.50416 0.0
O137 O 0.28156 0.16204 0.52419 0.0
O138 O 0.28612 0.24293 0.47684 0.0
O139 O 0.31728 0.22502 0.47995 0.0
O140 O 0.19135 1.01794 0.74174 0.0
Cd141 Cd 0.22318 1.01875 0.77041 0.0
Cd142 Cd 0.18229 0.05466 0.80612 0.0
O143 O 0.16632 0.04002 0.76242 0.0
O144 O 0.24772 0.99722 0.75234 0.0
O145 O 0.22901 0.98161 0.78365 0.0
C146 C 0.24413 0.97825 0.76688 0.0
C147 C 0.16155 0.0508 0.84941 0.0
C148 C 0.17246 0.02777 0.74059 0.0
C149 C 0.23722 0.08698 0.79612 0.0
O150 O 0.21686 0.08596 0.8058 0.0
O151 O 0.24196 0.06424 0.78502 0.0
O152 O 0.16024 0.06936 0.83511 0.0
O153 O 0.17371 0.03431 0.83939 0.0
O154 O 0.34296 0.95517 0.05006 0.0
Cd155 Cd 0.33858 0.98073 0.02499 0.0
Cd156 Cd 0.33355 0.93332 0.99021 0.0
O157 O 0.32306 0.9161 0.02205 0.0
O158 O 0.33165 1.01141 0.04864 0.0
O159 O 0.30512 0.98333 1.0138 0.0
C160 C 0.31012 1.0037 0.03436 0.0
C161 C 0.32306 0.90263 0.94913 0.0
C162 C 0.33353 0.92904 0.04545 0.0
C163 C 0.38077 0.9815 1.00005 0.0
O164 O 0.36978 0.95566 0.993 0.0
O165 O 0.36988 0.99815 1.01092 0.0
O166 O 0.33727 0.89925 0.96861 0.0
O167 O 0.31331 0.92281 0.95343 0.0
O168 O 0.35076 0.39994 0.10583 0.0
Cd169 Cd 0.35372 0.4271 0.07951 0.0
Cd170 Cd 0.36745 0.38395 0.04755 0.0
O171 O 0.35561 0.36356 0.07891 0.0
O172 O 0.33747 0.45431 0.09699 0.0
O173 O 0.32294 0.42815 0.05645 0.0
C174 C 0.32061 0.44636 0.07618 0.0
C175 C 0.35259 0.36515 1.00135 0.0
C176 C 0.35097 0.37468 0.1015 0.0
C177 C 0.40567 0.44067 0.06509 0.0
O178 O 0.40129 0.41493 0.05475 0.0
O179 O 0.38881 0.44968 0.07474 0.0
O180 O 0.36882 0.35671 1.01439 0.0
O181 O 0.34373 0.38313 1.0149 0.0
O182 O 0.8283 0.15868 0.09913 0.0
Cd183 Cd 0.81806 0.12772 0.06511 0.0
Cd184 Cd 0.81009 0.16569 0.04745 0.0
O185 O 0.83946 0.1897 0.07447 0.0
O186 O 0.83584 0.1001 0.06538 0.0
O187 O 0.84035 0.13059 0.03776 0.0
C188 C 0.84589 0.10996 0.04601 0.0
C189 C 0.80432 0.18175 1.00919 0.0
C190 C 0.83895 0.18359 0.09744 0.0
C191 C 0.76774 0.12374 0.05629 0.0
O192 O 0.77704 0.14987 0.06001 0.0
O193 O 0.7815 0.10806 0.05295 0.0
O194 O 0.8017 0.19468 0.03212 0.0
O195 O 0.81098 0.15928 1.00789 0.0
O196 O 0.19428 0.54594 0.21813 0.0
Cd197 Cd 0.2199 0.55289 0.25157 0.0
Cd198 Cd 0.18781 0.56706 0.27063 0.0
O199 O 0.16666 0.53361 0.24384 0.0
O200 O 0.24313 0.53208 0.24718 0.0
O201 O 0.21504 0.52618 0.27548 0.0
C202 C 0.23395 0.52072 0.26627 0.0
C203 C 0.17785 0.57706 0.31191 0.0
C204 C 0.172 0.53541 0.22065 0.0
C205 C 0.22834 0.61018 0.26639 0.0
O206 O 0.20538 0.60265 0.25865 0.0
O207 O 0.2392 0.59223 0.2699 0.0
O208 O 0.1648 0.57968 0.29088 0.0
O209 O 0.19602 0.56664 0.30909 0.0
O210 O 0.84912 0.90422 0.60861 0.0
Cd211 Cd 0.85575 0.93042 0.58178 0.0
Cd212 Cd 0.86964 0.88554 0.55383 0.0
O213 O 0.85594 0.86673 0.58574 0.0
O214 O 0.8409 0.95962 0.5974 0.0
O215 O 0.82607 0.93218 0.55753 0.0
C216 C 0.82419 0.9515 0.57647 0.0
C217 C 0.85394 0.86866 0.50757 0.0
C218 C 0.84934 0.87909 0.60647 0.0
C219 C 0.90861 0.94183 0.57028 0.0
O220 O 0.90392 0.91584 0.56069 0.0
O221 O 0.89182 0.95165 0.57893 0.0
O222 O 0.86855 0.85764 0.51999 0.0
O223 O 0.84694 0.88789 0.52185 0.0
O224 O 0.96479 0.0763 0.22563 0.0
Cd225 Cd 0.93626 0.07902 0.25267 0.0
Cd226 Cd 0.98281 0.04997 0.28281 0.0
O227 O 0.99473 0.06033 0.24371 0.0
O228 O 0.90992 0.10053 0.24007 0.0
O229 O 0.93728 0.11942 0.27519 0.0
C230 C 0.91898 0.12192 0.25958 0.0
C231 C 1.00782 0.0514 0.32732 0.0
C232 C 0.98507 0.06916 0.22379 0.0
C233 C 0.92464 1.01704 0.27068 0.0
O234 O 0.94757 1.01966 0.27758 0.0
O235 O 0.91786 0.03744 0.26278 0.0
O236 O 1.00592 0.03309 0.30571 0.0
O237 O 0.99741 0.0705 0.32375 0.0
O238 O 0.32739 0.65817 0.59098 0.0
Cd239 Cd 0.31816 0.62704 0.55695 0.0
Cd240 Cd 0.31316 0.66794 0.54065 0.0
O241 O 0.34389 0.68821 0.56741 0.0
O242 O 0.33376 0.59804 0.56135 0.0
O243 O 0.34308 0.62686 0.53264 0.0
C244 C 0.34656 0.60642 0.54312 0.0
C245 C 0.30648 0.69125 0.50759 0.0
C246 C 0.34025 0.68257 0.59012 0.0
C247 C 0.2695 0.62636 0.54876 0.0
O248 O 0.28058 0.65218 0.55425 0.0
O249 O 0.28149 0.60915 0.54282 0.0
O250 O 0.30567 0.70091 0.53229 0.0
O251 O 0.31179 0.66806 0.50144 0.0
O252 O 0.46858 0.57807 0.73112 0.0
Cd253 Cd 0.4377 0.57829 0.75558 0.0
Cd254 Cd 0.48747 0.55459 0.78997 0.0
O255 O 0.49933 0.56453 0.75132 0.0
O256 O 0.41 0.59608 0.7394 0.0
O257 O 0.43415 0.61823 0.77606 0.0
C258 C 0.41625 0.61819 0.75831 0.0
C259 C 0.51196 0.55462 0.83427 0.0
C260 C 0.48959 0.57228 0.73074 0.0
C261 C 0.43001 0.51718 0.77376 0.0
O262 O 0.45311 0.52392 0.78257 0.0
O263 O 0.42062 0.53519 0.76437 0.0
O264 O 0.5108 0.53736 0.81213 0.0
O265 O 0.50094 0.57338 0.83144 0.0
O266 O 0.69068 0.03623 0.71567 0.0
Cd267 Cd 0.71141 0.0527 0.75261 0.0
Cd268 Cd 0.67553 0.06922 0.75729 0.0
O269 O 0.65638 0.03318 0.73231 0.0
O270 O 0.74162 0.04213 0.7514 0.0
O271 O 0.71469 0.02974 0.77945 0.0
C272 C 0.7356 0.03039 0.77131 0.0
C273 C 0.67295 0.08316 0.80095 0.0
C274 C 0.66735 0.02775 0.71255 0.0
C275 C 0.7162 0.11024 0.75271 0.0
O276 O 0.6941 0.10136 0.74119 0.0
O277 O 0.72558 0.09431 0.76391 0.0
O278 O 0.65667 0.08472 0.78213 0.0
O279 O 0.68926 0.07069 0.79471 0.0
O280 O 0.81429 0.72125 0.07249 0.0
Cd281 Cd 0.81312 0.69042 0.04037 0.0
Cd282 Cd 0.79165 0.72543 1.01206 0.0
O283 O 0.79741 0.74854 0.05198 0.0
O284 O 0.83205 0.66712 0.05613 0.0
O285 O 0.8441 0.68977 0.02415 0.0
C286 C 0.84811 0.674 0.04048 0.0
C287 C 0.80494 0.74291 0.97342 0.0
C288 C 0.80645 0.74249 0.07345 0.0
C289 C 0.75977 0.66728 1.01327 0.0
O290 O 0.76154 0.69004 1.00519 0.0
O291 O 0.77811 0.66317 0.02658 0.0
O292 O 0.78607 0.74765 0.98323 0.0
O293 O 0.81692 0.72935 0.98615 0.0
O294 O 0.96095 0.56437 0.7897 0.0
Cd295 Cd 0.94488 0.57526 0.82214 0.0
Cd296 Cd 0.98404 0.57115 0.84275 0.0
O297 O 0.99705 0.58769 0.81193 0.0
O298 O 0.91536 0.57749 0.8017 0.0
O299 O 0.94051 0.61262 0.83265 0.0
C300 C 0.92085 0.60263 0.81501 0.0
C301 C 1.00982 0.58722 0.88175 0.0
C302 C 0.98352 0.5759 0.7898 0.0
C303 C 0.93898 0.52611 0.83985 0.0
O304 O 0.96129 0.53059 0.83612 0.0
O305 O 0.92962 0.54599 0.84211 0.0
O306 O 1.01429 0.56994 0.86277 0.0
O307 O 0.99012 0.59505 0.87875 0.0
O308 O 0.85006 0.45857 0.56501 0.0
Cd309 Cd 0.84423 0.47664 0.5336 0.0
Cd310 Cd 0.84895 0.42928 0.50763 0.0
O311 O 0.83733 0.41615 0.54073 0.0
O312 O 0.83112 0.5059 0.55059 0.0
O313 O 0.80958 0.47136 0.51719 0.0
C314 C 0.81056 0.49301 0.53511 0.0
C315 C 0.84095 0.39475 0.46964 0.0
C316 C 0.84379 0.43253 0.56342 0.0
C317 C 0.89079 0.48274 0.51621 0.0
O318 O 0.8836 0.45633 0.51224 0.0
O319 O 0.87584 0.49672 0.52136 0.0
O320 O 0.85582 0.39485 0.49031 0.0
O321 O 0.83 0.41401 0.47075 0.0
O322 O 0.69133 0.5199 0.24756 0.0
Cd323 Cd 0.72343 0.52015 0.27596 0.0
Cd324 Cd 0.68456 0.55408 0.31543 0.0
O325 O 0.66812 0.54132 0.27222 0.0
O326 O 0.74802 0.49888 0.25777 0.0
O327 O 0.72982 0.48343 0.28949 0.0
C328 C 0.74487 0.48018 0.27261 0.0
C329 C 0.66317 0.55447 0.35837 0.0
C330 C 0.67288 0.53037 0.24901 0.0
C331 C 0.73759 0.58784 0.30326 0.0
O332 O 0.71795 0.58625 0.31441 0.0
O333 O 0.74217 0.56548 0.291 0.0
O334 O 0.66298 0.57157 0.34216 0.0
O335 O 0.67462 0.53647 0.35048 0.0
Gd336 Gd 0.05901 0.04233 0.02393 0.0
Gd337 Gd 0.09615 0.07702 0.05494 0.0
C338 C 0.06544 0.10802 0.02583 0.0
C339 C 1.01409 1.019 1.00107 0.0
C340 C 0.99424 0.03205 1.00324 0.0
C341 C 0.97428 0.02515 0.98254 0.0
C342 C 0.9966 0.05372 0.02531 0.0
C343 C 0.95942 0.06175 1.00589 0.0
C344 C 0.97947 0.06865 0.02649 0.0
C345 C 0.95674 0.03977 0.984 0.0
C346 C 0.09677 0.05 0.99184 0.0
C347 C 0.09266 1.01171 0.04817 0.0
C348 C 0.14051 0.09936 0.07951 0.0
C349 C 0.16138 0.08928 0.07277 0.0
C350 C 0.17956 0.08887 0.09314 0.0
C351 C 0.16083 0.07566 0.04623 0.0
C352 C 0.19601 0.06064 0.0606 0.0
C353 C 0.17802 0.06154 0.04019 0.0
C354 C 0.19685 0.0747 0.08708 0.0
C355 C 0.05723 0.07037 0.08612 0.0
O356 O 0.04984 0.08294 0.02168 0.0
O357 O 0.08763 0.11213 0.03832 0.0
O358 O 0.03128 0.03102 0.98832 0.0
O359 O 0.02304 1.01367 0.02344 0.0
O360 O 0.0821 0.02614 0.99382 0.0
O361 O 0.09189 0.06875 1.00893 0.0
O362 O 0.10772 0.03688 0.05031 0.0
O363 O 0.06942 1.00771 0.03955 0.0
O364 O 0.12403 0.08187 0.08904 0.0
O365 O 0.13071 0.10994 0.06116 0.0
O366 O 0.07264 0.09369 0.08417 0.0
O367 O 0.06291 0.05145 0.07002 0.0
H368 H 0.97238 1.00869 0.96528 0.0
H369 H 1.01183 0.05929 0.04164 0.0
H370 H 0.98154 0.08509 0.04385 0.0
H371 H 0.94116 0.03404 0.96806 0.0
H372 H 0.17983 0.09863 0.1138 0.0
H373 H 0.14656 0.07511 0.03025 0.0
H374 H 0.17713 0.05122 0.01955 0.0
H375 H 0.21042 0.07408 0.10324 0.0
Gd376 Gd 0.33593 0.81443 0.24738 0.0
Gd377 Gd 0.31473 0.82588 0.30179 0.0
C378 C 0.35325 0.87611 0.28554 0.0
C379 C 0.34478 0.8117 0.19916 0.0
C380 C 0.36296 0.83153 0.18868 0.0
C381 C 0.37512 0.82213 0.16823 0.0
C382 C 0.36727 0.8602 0.19814 0.0
C383 C 0.38868 0.86921 0.16066 0.0
C384 C 0.3803 0.87908 0.18427 0.0
C385 C 0.38853 0.84114 0.15454 0.0
C386 C 0.3667 0.8063 0.28804 0.0
C387 C 0.29887 0.76487 0.26513 0.0
C388 C 0.30448 0.82755 0.34943 0.0
C389 C 0.29674 0.80427 0.36254 0.0
C390 C 0.27832 0.8038 0.37876 0.0
C391 C 0.30478 0.78062 0.35551 0.0
C392 C 0.27887 0.75772 0.38458 0.0
C393 C 0.2959 0.75739 0.36655 0.0
C394 C 0.26919 0.78044 0.38954 0.0
C395 C 0.28416 0.83315 0.26042 0.0
O396 O 0.35335 0.86038 0.26208 0.0
O397 O 0.3405 0.86714 0.30409 0.0
O398 O 0.35378 0.79831 0.21545 0.0
O399 O 0.32684 0.82082 0.20749 0.0
O400 O 0.36942 0.80275 0.26295 0.0
O401 O 0.34716 0.81357 0.29015 0.0
O402 O 0.30334 0.77967 0.28985 0.0
O403 O 0.30672 0.77494 0.24442 0.0
O404 O 0.28835 0.82657 0.32899 0.0
O405 O 0.32732 0.83371 0.34455 0.0
O406 O 0.28117 0.83707 0.28539 0.0
O407 O 0.3039 0.8264 0.25924 0.0
H408 H 0.37257 0.80005 0.16143 0.0
H409 H 0.35854 0.86791 0.21446 0.0
H410 H 0.38031 0.90063 0.18966 0.0
H411 H 0.39535 0.8333 0.13663 0.0
H412 H 0.27125 0.82156 0.38328 0.0
H413 H 0.31831 0.78033 0.342 0.0
H414 H 0.30376 0.74019 0.36265 0.0
H415 H 0.25596 0.78092 0.40339 0.0
Gd416 Gd 0.61324 0.05939 0.54789 0.0
Gd417 Gd 0.55678 0.05002 0.54745 0.0
C418 C 0.57531 0.99616 0.5349 0.0
C419 C 0.65837 0.05826 0.54748 0.0
C420 C 0.67414 0.0395 0.5473 0.0
C421 C 0.68869 0.03798 0.52672 0.0
C422 C 0.67584 0.02413 0.56754 0.0
C423 C 0.70795 1.00788 0.54776 0.0
C424 C 0.69285 1.00873 0.56799 0.0
C425 C 0.70531 0.02221 0.52684 0.0
C426 C 0.58699 0.06312 0.50322 0.0
C427 C 0.59584 0.1136 0.56478 0.0
C428 C 0.51185 0.05159 0.53707 0.0
C429 C 0.49589 0.07016 0.54091 0.0
C430 C 0.49016 0.07958 0.56638 0.0
C431 C 0.48434 0.07644 0.51813 0.0
C432 C 0.46013 0.09938 0.54574 0.0
C433 C 0.46668 0.09082 0.52047 0.0
C434 C 0.47252 0.09412 0.56876 0.0
C435 C 0.57975 0.043 0.59225 0.0
O436 O 0.59768 1.01274 0.54566 0.0
O437 O 0.55663 1.00636 0.52954 0.0
O438 O 0.64256 0.05386 0.5257 0.0
O439 O 0.64975 0.06551 0.56963 0.0
O440 O 0.60862 0.0801 0.51271 0.0
O441 O 0.58064 0.04542 0.51742 0.0
O442 O 0.57287 0.09707 0.55801 0.0
O443 O 0.61525 0.10393 0.56463 0.0
O444 O 0.52001 0.043 0.55806 0.0
O445 O 0.52809 0.05707 0.52075 0.0
O446 O 0.55673 0.03024 0.58312 0.0
O447 O 0.58899 0.06129 0.57908 0.0
H448 H 0.68757 0.04952 0.51078 0.0
H449 H 0.6642 0.02418 0.58303 0.0
H450 H 0.69425 0.99754 0.58416 0.0
H451 H 0.71676 1.0221 0.51107 0.0
H452 H 0.49881 0.07515 0.58439 0.0
H453 H 0.48832 0.06929 0.49825 0.0
H454 H 0.45742 0.09411 0.50223 0.0
H455 H 0.46831 0.10084 0.58862 0.0
Gd456 Gd 0.30478 0.31061 0.78345 0.0
Gd457 Gd 0.3529 0.29608 0.78321 0.0
C458 C 0.33891 0.31649 0.84067 0.0
C459 C 0.25949 0.30989 0.78712 0.0
C460 C 0.23853 0.3023 0.8022 0.0
C461 C 0.22699 0.32267 0.81088 0.0
C462 C 0.2289 0.27526 0.80678 0.0
C463 C 0.19567 0.28888 0.82727 0.0
C464 C 0.2078 0.26867 0.81932 0.0
C465 C 0.20584 0.31609 0.82317 0.0
C466 C 0.33846 0.35916 0.77694 0.0
C467 C 0.32027 0.29014 0.72617 0.0
C468 C 0.39773 0.29462 0.77996 0.0
C469 C 0.41859 0.29981 0.76441 0.0
C470 C 0.42779 0.27746 0.75536 0.0
C471 C 0.43038 0.32632 0.75972 0.0
C472 C 0.46102 0.30803 0.73833 0.0
C473 C 0.45138 0.33036 0.74674 0.0
C474 C 0.44864 0.28146 0.74246 0.0
C475 C 0.31709 0.24791 0.78897 0.0
O476 O 0.31691 0.31465 0.82809 0.0
O477 O 0.35669 0.3123 0.82739 0.0
O478 O 0.27858 0.3303 0.79962 0.0
O479 O 0.26546 0.29019 0.77155 0.0
O480 O 0.31507 0.3544 0.77687 0.0
O481 O 0.34372 0.33629 0.77921 0.0
O482 O 0.34229 0.29367 0.73932 0.0
O483 O 0.30167 0.29327 0.73876 0.0
O484 O 0.37819 0.27427 0.76853 0.0
O485 O 0.39249 0.31566 0.79428 0.0
O486 O 0.34018 0.25058 0.78832 0.0
O487 O 0.31427 0.27169 0.7869 0.0
H488 H 0.23398 0.34366 0.80745 0.0
H489 H 0.23734 0.25911 0.80027 0.0
H490 H 0.20086 0.24761 0.82254 0.0
H491 H 0.19699 0.33218 0.82856 0.0
H492 H 0.41905 0.25681 0.75873 0.0
H493 H 0.4237 0.34395 0.76647 0.0
H494 H 0.46048 0.35115 0.74405 0.0
H495 H 0.45512 0.26365 0.73583 0.0
Gd496 Gd 0.08234 0.0759 0.55096 0.0
Gd497 Gd 0.09052 0.02684 0.52747 0.0
C498 C 0.0666 0.05505 0.48443 0.0
C499 C 0.08129 0.12659 0.56393 0.0
C500 C 0.08741 0.1497 0.55013 0.0
C501 C 0.08037 0.17355 0.55883 0.0
C502 C 0.10076 0.14815 0.52848 0.0
C503 C 0.10089 0.19507 0.52497 0.0
C504 C 0.1076 0.17081 0.51606 0.0
C505 C 0.08697 0.19614 0.54622 0.0
C506 C 0.04498 0.03153 0.55614 0.0
C507 C 0.10625 0.04776 0.59438 0.0
C508 C 0.09206 0.97659 0.51655 0.0
C509 C 0.08538 0.95663 0.53384 0.0
C510 C 0.09923 0.93826 0.53715 0.0
C511 C 0.06671 0.95822 0.54959 0.0
C512 C 0.07439 0.9215 0.57037 0.0
C513 C 0.06098 0.94049 0.56742 0.0
C514 C 0.09389 0.92087 0.55552 0.0
C515 C 0.12577 0.07115 0.51952 0.0
O516 O 0.07276 0.0763 0.50549 0.0
O517 O 0.07002 0.03117 0.48823 0.0
O518 O 0.06186 0.1062 0.55235 0.0
O519 O 0.10002 0.11817 0.57184 0.0
O520 O 0.05463 0.05359 0.57474 0.0
O521 O 0.05524 0.03415 0.53547 0.0
O522 O 0.10094 0.02653 0.57334 0.0
O523 O 0.1019 0.07108 0.59024 0.0
O524 O 0.11175 0.9973 0.52657 0.0
O525 O 0.07374 0.98443 0.50631 0.0
O526 O 0.11553 0.04883 0.50149 0.0
O527 O 0.11754 0.06883 0.54147 0.0
H528 H 0.06993 0.17474 0.57545 0.0
H529 H 0.10628 0.12967 0.52158 0.0
H530 H 0.11855 0.16952 0.49991 0.0
H531 H 0.08115 0.2144 0.55307 0.0
H532 H 0.11427 0.93762 0.52582 0.0
H533 H 0.05657 0.97326 0.54822 0.0
H534 H 0.04573 0.94127 0.57838 0.0
H535 H 0.10485 0.90677 0.55794 0.0
Gd536 Gd 0.35172 0.81868 0.76373 0.0
Gd537 Gd 0.30614 0.77573 0.76773 0.0
C538 C 0.35457 0.75277 0.76783 0.0
C539 C 0.39621 0.85018 0.77542 0.0
C540 C 0.4196 0.84382 0.78057 0.0
C541 C 0.43935 0.85563 0.76784 0.0
C542 C 0.4223 0.82567 0.79793 0.0
C543 C 0.46512 0.83351 0.79191 0.0
C544 C 0.44491 0.82073 0.8037 0.0
C545 C 0.46191 0.85035 0.77329 0.0
C546 C 0.32749 0.78704 0.71646 0.0
C547 C 0.30371 0.84207 0.76338 0.0
C548 C 0.26162 0.74406 0.7563 0.0
C549 C 0.23784 0.75005 0.75323 0.0
C550 C 0.22752 0.75911 0.77575 0.0
C551 C 0.22631 0.74897 0.72725 0.0
C552 C 0.1953 0.76724 0.74625 0.0
C553 C 0.20533 0.75767 0.7238 0.0
C554 C 0.20631 0.76758 0.77225 0.0
C555 C 0.33121 0.80467 0.81521 0.0
O556 O 0.36628 0.77998 0.76935 0.0
O557 O 0.33005 0.74518 0.76572 0.0
O558 O 0.38478 0.84183 0.7506 0.0
O559 O 0.38156 0.84564 0.79351 0.0
O560 O 0.33895 0.81343 0.71913 0.0
O561 O 0.3308 0.77945 0.73831 0.0
O562 O 0.29206 0.81535 0.7642 0.0
O563 O 0.32793 0.84903 0.76309 0.0
O564 O 0.2741 0.75017 0.78066 0.0
O565 O 0.27534 0.75144 0.73808 0.0
O566 O 0.32064 0.77793 0.81068 0.0
O567 O 0.32745 0.81435 0.79448 0.0
H568 H 0.43741 0.86922 0.75398 0.0
H569 H 0.40713 0.8158 0.80761 0.0
H570 H 0.44675 0.80788 0.8183 0.0
H571 H 0.47699 0.85997 0.76339 0.0
H572 H 0.23602 0.76014 0.79602 0.0
H573 H 0.23379 0.7419 0.70954 0.0
H574 H 0.19674 0.75654 0.70353 0.0
H575 H 0.19866 0.77469 0.78981 0.0
Gd576 Gd 0.58022 0.04389 0.06812 0.0
Gd577 Gd 0.57242 0.05475 1.01148 0.0
C578 C 0.52562 0.02636 0.03441 0.0
C579 C 0.57853 0.0251 0.11148 0.0
C580 C 0.55906 1.01363 0.12608 0.0
C581 C 0.55787 0.98807 0.13353 0.0
C582 C 0.54087 0.02676 0.13112 0.0
C583 C 0.52295 0.9913 0.15566 0.0
C584 C 0.52298 1.01577 0.14607 0.0
C585 C 0.53968 0.97675 0.14804 0.0
C586 C 0.5958 1.01359 0.02963 0.0
C587 C 0.62376 0.08609 0.05226 0.0
C588 C 0.57641 0.05294 0.96202 0.0
C589 C 0.59309 0.07285 0.94985 0.0
C590 C 0.59329 0.10096 0.95328 0.0
C591 C 0.6113 0.06416 0.93754 0.0
C592 C 0.62878 0.1108 0.93001 0.0
C593 C 0.62906 0.08291 0.92793 0.0
C594 C 0.61098 0.11982 0.94315 0.0
C595 C 0.56285 0.09612 0.04457 0.0
O596 O 0.53912 0.03516 0.05853 0.0
O597 O 0.53547 0.02659 1.01211 0.0
O598 O 0.57709 1.00948 0.08794 0.0
O599 O 0.584 0.05195 0.1115 0.0
O600 O 0.60922 0.02629 0.05244 0.0
O601 O 0.5754 1.01866 0.0276 0.0
O602 O 0.61272 0.07563 0.02713 0.0
O603 O 0.61304 0.08038 0.07321 0.0
O604 O 0.55863 0.06079 0.97249 0.0
O605 O 0.58784 0.04044 0.97721 0.0
O606 O 0.56235 0.0947 0.01891 0.0
O607 O 0.56952 0.07631 0.05151 0.0
H608 H 0.57142 0.97728 0.12875 0.0
H609 H 0.54103 0.046 0.12448 0.0
H610 H 0.5105 0.02771 0.15186 0.0
H611 H 0.53978 0.95773 0.15496 0.0
H612 H 0.57978 0.10833 0.96352 0.0
H613 H 0.61178 0.04272 0.93532 0.0
H614 H 0.64206 0.0749 0.91732 0.0
H615 H 0.61025 0.1411 0.94471 0.0
Gd616 Gd 0.34178 0.32936 0.29648 0.0
Gd617 Gd 0.30763 0.26965 0.26336 0.0
C618 C 0.28154 0.31364 0.28835 0.0
C619 C 0.36421 0.38145 0.30921 0.0
C620 C 0.35289 0.40353 0.30751 0.0
C621 C 0.36207 0.42919 0.32544 0.0
C622 C 0.33029 0.39711 0.29072 0.0
C623 C 0.32613 0.44205 0.30937 0.0
C624 C 0.31704 0.41626 0.29153 0.0
C625 C 0.34874 0.44855 0.32626 0.0
C626 C 0.33223 0.29284 0.33048 0.0
C627 C 0.36689 0.28347 0.27425 0.0
C628 C 0.28505 0.21791 0.24941 0.0
C629 C 0.29479 0.19601 0.25627 0.0
C630 C 0.29231 0.17235 0.23656 0.0
C631 C 0.31196 0.20229 0.27977 0.0
C632 C 0.32522 0.16227 0.26309 0.0
C633 C 0.327 0.18544 0.28321 0.0
C634 C 0.30747 0.15543 0.23999 0.0
C635 C 0.31856 0.30655 0.22974 0.0
O636 O 0.30306 0.33319 0.29555 0.0
O637 O 0.27897 0.28771 0.2768 0.0
O638 O 0.35605 0.3668 0.32697 0.0
O639 O 0.365 0.36618 0.28605 0.0
O640 O 0.34704 0.31791 0.33725 0.0
O641 O 0.32503 0.28802 0.30532 0.0
O642 O 0.34535 0.26425 0.27085 0.0
O643 O 0.36991 0.31045 0.28122 0.0
O644 O 0.29802 0.23175 0.23359 0.0
O645 O 0.27976 0.2339 0.26965 0.0
O646 O 0.30502 0.281 0.22212 0.0
O647 O 0.32448 0.31079 0.25495 0.0
H648 H 0.37912 0.43391 0.33911 0.0
H649 H 0.32258 0.37702 0.27735 0.0
H650 H 0.29982 0.41098 0.27798 0.0
H651 H 0.3559 0.46841 0.34019 0.0
H652 H 0.2798 0.16798 0.21789 0.0
H653 H 0.3148 0.22111 0.29476 0.0
H654 H 0.34038 0.1909 0.30135 0.0
H655 H 0.30606 0.13774 0.22415 0.0
Gd656 Gd 0.58512 0.57296 0.05751 0.0
Gd657 Gd 0.59309 0.52065 0.02965 0.0
C658 C 0.56805 0.55187 0.99033 0.0
C659 C 0.59143 0.62563 0.07075 0.0
C660 C 0.59548 0.64636 0.0538 0.0
C661 C 0.58947 0.67112 0.06145 0.0
C662 C 0.60343 0.64046 0.02879 0.0
C663 C 0.6001 0.6846 0.01961 0.0
C664 C 0.60567 0.65947 1.01173 0.0
C665 C 0.5918 0.69019 0.04447 0.0
C666 C 0.54341 0.53215 0.05832 0.0
C667 C 0.60862 0.53974 0.09737 0.0
C668 C 0.5938 0.47021 1.01609 0.0
C669 C 0.58935 0.44863 0.03184 0.0
C670 C 0.59699 0.42492 0.02459 0.0
C671 C 0.57801 0.45226 0.0549 0.0
C672 C 0.58139 0.40792 0.06308 0.0
C673 C 0.57407 0.432 0.07048 0.0
C674 C 0.59297 0.40454 0.04013 0.0
C675 C 0.62844 0.56705 0.02608 0.0
O676 O 0.57398 0.57254 1.012 0.0
O677 O 0.57175 0.52773 0.99262 0.0
O678 O 0.56967 0.60746 0.06495 0.0
O679 O 0.60925 0.61433 0.07455 0.0
O680 O 0.54794 0.55788 0.07027 0.0
O681 O 0.56204 0.52879 0.04807 0.0
O682 O 0.60586 0.52096 0.07463 0.0
O683 O 0.60175 0.56266 0.09633 0.0
O684 O 0.61386 0.49077 0.02534 0.0
O685 O 0.57448 0.47836 1.00954 0.0
O686 O 0.61996 0.54547 1.00664 0.0
O687 O 0.61832 0.56229 0.04645 0.0
H688 H 0.58291 0.67563 0.08048 0.0
H689 H 0.608 0.62125 0.02253 0.0
H690 H 0.61242 0.65493 0.99282 0.0
H691 H 0.58729 0.70943 0.05083 0.0
H692 H 0.60592 0.42217 1.00692 0.0
H693 H 0.57218 0.47072 0.06079 0.0
H694 H 0.56538 0.43516 0.08828 0.0
H695 H 0.5985 0.38593 0.03396 0.0
Gd696 Gd 0.8531 0.31954 0.27058 0.0
Gd697 Gd 0.80568 0.27905 0.27584 0.0
C698 C 0.8521 0.25222 0.27369 0.0
C699 C 0.89805 0.35006 0.28113 0.0
C700 C 0.92178 0.34399 0.28292 0.0
C701 C 0.94173 0.36115 0.27393 0.0
C702 C 0.92495 0.3218 0.29465 0.0
C703 C 0.96844 0.33633 0.29163 0.0
C704 C 0.94818 0.31807 0.29905 0.0
C705 C 0.96505 0.3573 0.27824 0.0
C706 C 0.82756 0.28802 0.22401 0.0
C707 C 0.8054 0.345 0.27023 0.0
C708 C 0.76102 0.24785 0.26531 0.0
C709 C 0.73694 0.2531 0.26377 0.0
C710 C 0.72837 0.26425 0.28683 0.0
C711 C 0.72311 0.24885 0.23829 0.0
C712 C 0.6934 0.26845 0.25859 0.0
C713 C 0.70162 0.25668 0.2357 0.0
C714 C 0.70653 0.27167 0.28423 0.0
C715 C 0.8315 0.31013 0.32252 0.0
O716 O 0.86571 0.27878 0.27487 0.0
O717 O 0.82783 0.24725 0.27285 0.0
O718 O 0.88527 0.34402 0.25699 0.0
O719 O 0.88474 0.34298 0.29986 0.0
O720 O 0.84038 0.31389 0.22612 0.0
O721 O 0.83024 0.2808 0.24615 0.0
O722 O 0.79281 0.31865 0.27093 0.0
O723 O 0.82979 0.35101 0.27044 0.0
O724 O 0.7742 0.2532 0.28924 0.0
O725 O 0.7739 0.25632 0.24675 0.0
O726 O 0.81955 0.28388 0.3198 0.0
O727 O 0.82847 0.31801 0.3007 0.0
H728 H 0.93947 0.3782 0.26466 0.0
H729 H 0.90978 0.30815 0.30158 0.0
H730 H 0.95061 0.30191 0.30961 0.0
H731 H 0.98064 0.37177 0.27277 0.0
H732 H 0.7387 0.26773 0.30674 0.0
H733 H 0.72929 0.24011 0.22027 0.0
H734 H 0.69134 0.25346 0.21579 0.0
H735 H 0.70016 0.28043 0.30209 0.0
Gd736 Gd 0.08836 0.55937 0.57754 0.0
Gd737 Gd 0.07547 0.57989 0.5313 0.0
C738 C 0.03624 0.52902 0.53893 0.0
C739 C 0.08936 0.53825 0.61984 0.0
C740 C 0.06969 0.52583 0.63379 0.0
C741 C 0.0748 0.51359 0.65541 0.0
C742 C 0.04593 0.52778 0.62655 0.0
C743 C 0.03368 0.51016 0.66558 0.0
C744 C 0.02778 0.51946 0.64215 0.0
C745 C 0.05674 0.50572 0.67138 0.0
C746 C 0.1094 0.54099 0.53619 0.0
C747 C 0.12981 0.60601 0.56416 0.0
C748 C 0.07327 0.60402 0.49142 0.0
C749 C 0.09186 0.61344 0.47516 0.0
C750 C 0.09144 0.63574 0.46266 0.0
C751 C 0.11043 0.60033 0.4725 0.0
C752 C 0.12489 0.62781 0.43979 0.0
C753 C 0.12677 0.60729 0.45468 0.0
C754 C 0.10819 0.64322 0.44523 0.0
C755 C 0.05384 0.59598 0.57283 0.0
O756 O 0.04753 0.53748 0.564 0.0
O757 O 0.04629 0.53967 0.51962 0.0
O758 O 0.08865 0.52413 0.59579 0.0
O759 O 0.0933 0.56501 0.62084 0.0
O760 O 0.12023 0.54928 0.56082 0.0
O761 O 0.08753 0.54248 0.53434 0.0
O762 O 0.11644 0.59819 0.54013 0.0
O763 O 0.12061 0.59746 0.58497 0.0
O764 O 0.07847 0.61764 0.51632 0.0
O765 O 0.06518 0.57692 0.4889 0.0
O766 O 0.04305 0.58767 0.54829 0.0
O767 O 0.07605 0.5961 0.57467 0.0
H768 H 0.09314 0.51203 0.66105 0.0
H769 H 0.0419 0.53784 0.61032 0.0
H770 H 1.01032 0.5238 0.63793 0.0
H771 H 0.0616 0.49923 0.68989 0.0
H772 H 0.07759 0.64655 0.46552 0.0
H773 H 0.11139 0.58362 0.48296 0.0
H774 H 0.13926 0.59482 0.45095 0.0
H775 H 0.10685 0.65958 0.43449 0.0
Gd776 Gd 0.80226 0.81328 0.28864 0.0
Gd777 Gd 0.85025 0.79617 0.2902 0.0
C778 C 0.83493 0.81769 0.34678 0.0
C779 C 0.75698 0.81407 0.29043 0.0
C780 C 0.7359 0.81063 0.30592 0.0
C781 C 0.7275 0.83391 0.3137 0.0
C782 C 0.72266 0.78475 0.31097 0.0
C783 C 0.69209 0.80549 0.32951 0.0
C784 C 0.70101 0.78225 0.32281 0.0
C785 C 0.70601 0.83143 0.32535 0.0
C786 C 0.83983 0.85987 0.28336 0.0
C787 C 0.82046 0.79524 0.23226 0.0
C788 C 0.89472 0.7939 0.28788 0.0
C789 C 0.91491 0.80039 0.27206 0.0
C790 C 0.93355 0.78757 0.27527 0.0
C791 C 0.91494 0.81688 0.25249 0.0
C792 C 0.95282 0.80805 0.23994 0.0
C793 C 0.93386 0.82075 0.23654 0.0
C794 C 0.95223 0.79123 0.25935 0.0
C795 C 0.81318 0.74912 0.29439 0.0
O796 O 0.81382 0.8182 0.33366 0.0
O797 O 0.85251 0.81148 0.3343 0.0
O798 O 0.77622 0.83551 0.30003 0.0
O799 O 0.76275 0.79218 0.27864 0.0
O800 O 0.81673 0.85825 0.28284 0.0
O801 O 0.84162 0.83572 0.28596 0.0
O802 O 0.84144 0.79668 0.24667 0.0
O803 O 0.80107 0.79798 0.24369 0.0
O804 O 0.87517 0.77408 0.27543 0.0
O805 O 0.88964 0.81465 0.30292 0.0
O806 O 0.8362 0.7511 0.29432 0.0
O807 O 0.81069 0.77317 0.29228 0.0
H808 H 0.73724 0.85411 0.31003 0.0
H809 H 0.72861 0.76637 0.30519 0.0
H810 H 0.69078 0.76195 0.32575 0.0
H811 H 0.7001 0.8499 0.33077 0.0
H812 H 0.93345 0.77427 0.28987 0.0
H813 H 0.90034 0.82651 0.24945 0.0
H814 H 0.93379 0.83387 0.22181 0.0
H815 H 0.96608 0.7805 0.26205 0.0
Gd816 Gd 0.851 0.30623 0.76977 0.0
Gd817 Gd 0.82797 0.31823 0.80785 0.0
C818 C 0.87038 0.36611 0.80427 0.0
C819 C 0.8755 0.30459 0.73012 0.0
C820 C 0.87867 0.32243 0.71088 0.0
C821 C 0.89715 0.32305 0.69475 0.0
C822 C 0.86351 0.33987 0.7095 0.0
C823 C 0.88364 0.35666 0.67354 0.0
C824 C 0.86585 0.35679 0.69077 0.0
C825 C 0.89969 0.34026 0.67605 0.0
C826 C 0.87248 0.29035 0.81271 0.0
C827 C 0.81315 0.25695 0.77892 0.0
C828 C 0.79983 0.31938 0.84439 0.0
C829 C 0.79284 0.30134 0.86308 0.0
C830 C 0.77717 0.30687 0.88128 0.0
C831 C 0.80203 0.27841 0.86275 0.0
C832 C 0.78158 0.2677 0.90045 0.0
C833 C 0.79625 0.26148 0.88115 0.0
C834 C 0.77154 0.29004 0.90005 0.0
C835 C 0.80844 0.33538 0.76455 0.0
O836 O 0.86413 0.35306 0.77909 0.0
O837 O 0.86039 0.35441 0.82286 0.0
O838 O 0.88549 0.31753 0.75448 0.0
O839 O 0.85303 0.28888 0.72871 0.0
O840 O 0.86525 0.27558 0.78871 0.0
O841 O 0.86581 0.3124 0.81392 0.0
O842 O 0.81987 0.27233 0.80294 0.0
O843 O 0.81967 0.26788 0.7585 0.0
O844 O 0.79179 0.30726 0.81935 0.0
O845 O 0.82299 0.33382 0.84846 0.0
O846 O 0.81763 0.35078 0.78801 0.0
O847 O 0.81328 0.31227 0.76369 0.0
H848 H 0.90921 0.30995 0.69633 0.0
H849 H 0.84942 0.33977 0.72238 0.0
H850 H 0.85289 0.36879 0.6889 0.0
H851 H 0.91359 0.34011 0.66301 0.0
H852 H 0.76996 0.32457 0.88148 0.0
H853 H 0.81458 0.27426 0.8492 0.0
H854 H 0.80476 0.24483 0.88144 0.0
H855 H 0.76024 0.29513 0.91491 0.0
Gd856 Gd 0.83719 0.83253 0.80249 0.0
Gd857 Gd 0.80489 0.78185 0.77003 0.0
C858 C 0.77788 0.82305 0.79173 0.0
C859 C 0.85677 0.88446 0.82233 0.0
C860 C 0.84344 0.90511 0.82087 0.0
C861 C 0.84508 0.92588 0.84339 0.0
C862 C 0.82541 0.90064 0.79839 0.0
C863 C 0.80978 0.93598 0.82157 0.0
C864 C 0.80846 0.91568 0.79892 0.0
C865 C 0.82846 0.94167 0.84354 0.0
C866 C 0.825 0.79296 0.83261 0.0
C867 C 0.86281 0.78933 0.78135 0.0
C868 C 0.78434 0.73044 0.74848 0.0
C869 C 0.79409 0.7083 0.75487 0.0
C870 C 0.79204 0.68462 0.7354 0.0
C871 C 0.80986 0.71389 0.77926 0.0
C872 C 0.82321 0.6735 0.76404 0.0
C873 C 0.82486 0.69729 0.78343 0.0
C874 C 0.80621 0.6669 0.74021 0.0
C875 C 0.81871 0.82191 0.74052 0.0
O876 O 0.80011 0.84094 0.79692 0.0
O877 O 0.77441 0.79666 0.78242 0.0
O878 O 0.84809 0.86658 0.8372 0.0
O879 O 0.86094 0.8726 0.79917 0.0
O880 O 0.84707 0.80948 0.83402 0.0
O881 O 0.81052 0.79761 0.81452 0.0
O882 O 0.84064 0.77204 0.77938 0.0
O883 O 0.86684 0.81626 0.78846 0.0
O884 O 0.79883 0.74745 0.73635 0.0
O885 O 0.77641 0.74341 0.76851 0.0
O886 O 0.79642 0.80585 0.73845 0.0
O887 O 0.83223 0.81632 0.75862 0.0
H888 H 0.85865 0.92927 0.86099 0.0
H889 H 0.82372 0.88471 0.78072 0.0
H890 H 0.79443 0.91166 0.78155 0.0
H891 H 0.82983 0.95789 0.86085 0.0
H892 H 0.7802 0.6804 0.71628 0.0
H893 H 0.81179 0.73221 0.79456 0.0
H894 H 0.83834 0.70394 0.80152 0.0
H895 H 0.80426 0.64853 0.72501 0.0
Gd896 Gd 0.56505 0.53931 0.53487 0.0
Gd897 Gd 0.60255 0.57217 0.56435 0.0
C898 C 0.57398 0.60557 0.53721 0.0
C899 C 0.51979 0.51691 0.5121 0.0
C900 C 0.49952 0.52943 0.51338 0.0
C901 C 0.47881 0.51985 0.49341 0.0
C902 C 0.50168 0.55251 0.53392 0.0
C903 C 0.46291 0.55674 0.51416 0.0
C904 C 0.48367 0.56632 0.53409 0.0
C905 C 0.46038 0.53326 0.49399 0.0
C906 C 0.60152 0.54308 0.50152 0.0
C907 C 0.5986 0.50747 0.55833 0.0
C908 C 0.64625 0.59404 0.59103 0.0
C909 C 0.66822 0.58518 0.5868 0.0
C910 C 0.68408 0.58384 0.60897 0.0
C911 C 0.67166 0.57458 0.56063 0.0
C912 C 0.70728 0.56229 0.5789 0.0
C913 C 0.69115 0.56345 0.5567 0.0
C914 C 0.70344 0.5724 0.60508 0.0
C915 C 0.56383 0.5673 0.59575 0.0
O916 O 0.55735 0.58133 0.53486 0.0
O917 O 0.59651 0.6078 0.5472 0.0
O918 O 0.53715 0.52891 0.49954 0.0
O919 O 0.52853 0.51201 0.53478 0.0
O920 O 0.58628 0.5203 0.50503 0.0
O921 O 0.59834 0.56344 0.51811 0.0
O922 O 0.61393 0.53206 0.55882 0.0
O923 O 0.57516 0.50447 0.55143 0.0
O924 O 0.62918 0.57597 0.59921 0.0
O925 O 0.63749 0.60455 0.57195 0.0
O926 O 0.57875 0.59037 0.59255 0.0
O927 O 0.56936 0.54789 0.58046 0.0
H928 H 0.47695 0.50214 0.47742 0.0
H929 H 0.51728 0.55987 0.54989 0.0
H930 H 0.48564 0.58403 0.55013 0.0
H931 H 0.44424 0.52547 0.47865 0.0
H932 H 0.68116 0.59109 0.62929 0.0
H933 H 0.6591 0.57456 0.54319 0.0
H934 H 0.6937 0.55606 0.53628 0.0
H935 H 0.71522 0.57117 0.62259 0.0
Gd936 Gd 0.11168 0.56164 0.05089 0.0
Gd937 Gd 0.05578 0.55598 0.05767 0.0
C938 C 0.06934 0.4998 0.03827 0.0
C939 C 0.15655 0.55908 0.05496 0.0
C940 C 0.1719 0.53982 0.05548 0.0
C941 C 0.17105 0.51929 0.0329 0.0
C942 C 0.18969 0.54414 0.07804 0.0
C943 C 0.20693 0.50937 0.05479 0.0
C944 C 0.20704 0.52925 0.0777 0.0
C945 C 0.18829 0.50414 0.03262 0.0
C946 C 0.08295 0.56664 1.00919 0.0
C947 C 0.09609 0.61779 0.06734 0.0
C948 C 1.01092 0.55837 0.05612 0.0
C949 C 0.99502 0.57711 0.05835 0.0
C950 C 0.98317 0.57998 0.08111 0.0
C951 C 0.98885 0.58909 0.03663 0.0
C952 C 0.95747 0.60394 0.05939 0.0
C953 C 0.97026 0.60236 0.03715 0.0
C954 C 0.96476 0.5934 0.08171 0.0
C955 C 0.08447 0.54851 0.09823 0.0
O956 O 0.09314 0.51438 0.04329 0.0
O957 O 0.05141 0.51175 0.0394 0.0
O958 O 0.14329 0.55791 0.03203 0.0
O959 O 0.14556 0.56392 0.07593 0.0
O960 O 0.10624 0.58035 1.01468 0.0
O961 O 0.07676 0.55012 0.02466 0.0
O962 O 0.07277 0.60233 0.06277 0.0
O963 O 0.11489 0.60706 0.06627 0.0
O964 O 0.02444 0.55752 0.07815 0.0
O965 O 0.02186 0.55615 0.03475 0.0
O966 O 0.06112 0.53549 0.09273 0.0
O967 O 0.09082 0.56631 0.08401 0.0
H968 H 0.1575 0.5154 1.01516 0.0
H969 H 0.19083 0.55995 0.09564 0.0
H970 H 0.22118 0.53434 0.09506 0.0
H971 H 0.18715 0.48861 1.01484 0.0
H972 H 0.98743 0.57085 0.09809 0.0
H973 H 0.99754 0.58713 0.0187 0.0
H974 H 0.9651 0.61008 0.01953 0.0
H975 H 0.95575 0.59479 0.09945 0.0
H976 H 0.03602 0.18102 0.94584 0.0
H977 H 0.05049 0.24217 0.01961 0.0
H978 H 0.06161 0.20931 0.04497 0.0
H979 H 0.06751 0.16263 0.0464 0.0
H980 H 0.04991 0.10084 0.9729 0.0
H981 H 0.0402 0.1343 0.94744 0.0
C982 C 0.04151 0.18719 0.96748 0.0
C983 C 0.04232 0.21422 0.98064 0.0
C984 C 0.04751 0.16794 0.98211 0.0
C985 C 0.04949 0.22158 1.00879 0.0
C986 C 0.05598 0.20277 0.02338 0.0
C987 C 0.06145 0.15657 0.02485 0.0
C988 C 0.05928 0.12919 1.01158 0.0
C989 C 0.0551 0.17583 1.01031 0.0
C990 C 0.05141 0.12164 0.98363 0.0
C991 C 0.04591 0.14082 0.96902 0.0
H992 H 0.21282 0.84354 0.15988 0.0
H993 H 0.16869 0.85275 0.22325 0.0
H994 H 0.20086 0.8486 0.25583 0.0
H995 H 0.24051 0.84117 0.26672 0.0
H996 H 0.28609 0.83131 0.20529 0.0
H997 H 0.25453 0.83683 0.17169 0.0
C998 C 0.21053 0.84526 0.18092 0.0
C999 C 0.18827 0.84881 0.18902 0.0
C1000 C 0.22926 0.84242 0.1999 0.0
C1001 C 0.18551 0.85027 0.21633 0.0
C1002 C 0.2039 0.84775 0.23505 0.0
C1003 C 0.24378 0.84031 0.246 0.0
C1004 C 0.26584 0.83588 0.23867 0.0
C1005 C 0.22568 0.84357 0.22706 0.0
C1006 C 0.26939 0.83462 0.21161 0.0
C1007 C 0.25129 0.83789 0.1924 0.0
H1008 H 0.57938 0.87116 0.50655 0.0
H1009 H 0.50542 0.85943 0.46819 0.0
H1010 H 0.50881 0.90822 0.48549 0.0
H1011 H 0.5339 0.9553 0.50834 0.0
H1012 H 0.60847 0.96774 0.5456 0.0
H1013 H 0.60372 0.91806 0.53204 0.0
C1014 C 0.56381 0.87914 0.50267 0.0
C1015 C 0.54208 0.86156 0.48631 0.0
C1016 C 0.56613 0.90763 0.51211 0.0
C1017 C 0.52229 0.87246 0.48087 0.0
C1018 C 0.52427 0.90045 0.49061 0.0
C1019 C 0.54907 0.94717 0.51374 0.0
C1020 C 0.57158 0.96548 0.52788 0.0
C1021 C 0.54629 0.91843 0.50571 0.0
C1022 C 0.59096 0.95433 0.5346 0.0
C1023 C 0.58826 0.9258 0.52688 0.0
H1024 H 0.55479 0.33923 0.67869 0.0
H1025 H 0.5758 0.28201 0.72355 0.0
H1026 H 0.53747 0.27461 0.74248 0.0
H1027 H 0.49836 0.28489 0.74724 0.0
H1028 H 0.47618 0.341 0.70185 0.0
H1029 H 0.51457 0.34853 0.68257 0.0
C1030 C 0.55106 0.32531 0.69276 0.0
C1031 C 0.56844 0.31151 0.6999 0.0
C1032 C 0.52873 0.32096 0.70359 0.0
C1033 C 0.563 0.29317 0.71783 0.0
C1034 C 0.541 0.28884 0.72868 0.0
C1035 C 0.50171 0.29854 0.73289 0.0
C1036 C 0.48428 0.31238 0.72612 0.0
C1037 C 0.52376 0.30266 0.72177 0.0
C1038 C 0.48933 0.33036 0.7078 0.0
C1039 C 0.51127 0.33457 0.69663 0.0
H1040 H 0.03149 0.84429 0.64892 0.0
H1041 H 0.04715 0.78348 0.58863 0.0
H1042 H 0.06291 0.81935 0.56319 0.0
H1043 H 0.07152 0.86731 0.55795 0.0
H1044 H 0.05912 0.92931 0.61967 0.0
H1045 H 0.04232 0.8933 0.64475 0.0
C1046 C 0.03804 0.83893 0.63002 0.0
C1047 C 0.03787 0.81146 0.62031 0.0
C1048 C 0.04767 0.85969 0.61595 0.0
C1049 C 0.04694 0.80462 0.59623 0.0
C1050 C 0.05603 0.82504 0.58178 0.0
C1051 C 0.06571 0.8731 0.5772 0.0
C1052 C 0.06659 0.90078 0.58704 0.0
C1053 C 0.05654 0.85259 0.59155 0.0
C1054 C 0.05836 0.90794 0.61164 0.0
C1055 C 0.04882 0.88745 0.62596 0.0
H1056 H 0.56112 0.81264 0.84532 0.0
H1057 H 0.59091 0.89853 0.83885 0.0
H1058 H 0.55139 0.89812 0.81565 0.0
H1059 H 0.50792 0.87482 0.80076 0.0
H1060 H 0.47789 0.78819 0.80456 0.0
H1061 H 0.51808 0.78757 0.82566 0.0
C1062 C 0.55897 0.8311 0.83849 0.0
C1063 C 0.57875 0.85555 0.84383 0.0
C1064 C 0.53622 0.83071 0.82499 0.0
C1065 C 0.57591 0.87937 0.83484 0.0
C1066 C 0.55331 0.87924 0.82169 0.0
C1067 C 0.51022 0.85551 0.80539 0.0
C1068 C 0.48991 0.83163 0.80116 0.0
C1069 C 0.53329 0.85517 0.81706 0.0
C1070 C 0.49318 0.80701 0.808 0.0
C1071 C 0.51615 0.80659 0.81996 0.0
H1072 H 0.51722 0.18706 0.09659 0.0
H1073 H 0.51457 0.1413 0.16094 0.0
H1074 H 0.53088 0.10732 0.13442 0.0
H1075 H 0.54931 0.09327 0.09417 0.0
H1076 H 0.55285 0.14117 0.03131 0.0
H1077 H 0.53324 0.17211 0.05631 0.0
C1078 C 0.51977 0.16934 0.1046 0.0
C1079 C 0.51481 0.1666 0.13055 0.0
C1080 C 0.52991 0.15074 0.08981 0.0
C1081 C 0.51802 0.14356 0.14077 0.0
C1082 C 0.52771 0.12443 0.12582 0.0
C1083 C 0.54595 0.11066 0.08621 0.0
C1084 C 0.55278 0.11536 0.06126 0.0
C1085 C 0.53442 0.12833 0.10063 0.0
C1086 C 0.54795 0.13748 0.0507 0.0
C1087 C 0.53659 0.15503 0.06483 0.0
H1088 H 0.17777 0.30731 0.31999 0.0
H1089 H 0.221 0.37454 0.38417 0.0
H1090 H 0.25805 0.37501 0.3634 0.0
H1091 H 0.27836 0.35371 0.3289 0.0
H1092 H 0.2345 0.28561 0.26574 0.0
H1093 H 0.19726 0.28831 0.28421 0.0
C1094 C 0.19525 0.32223 0.32939 0.0
C1095 C 0.19678 0.34076 0.3536 0.0
C1096 C 0.21627 0.32227 0.3175 0.0
C1097 C 0.21947 0.36008 0.36546 0.0
C1098 C 0.2406 0.36033 0.35364 0.0
C1099 C 0.26056 0.34004 0.3188 0.0
C1100 C 0.25912 0.31957 0.29607 0.0
C1101 C 0.23924 0.34127 0.32984 0.0
C1102 C 0.23603 0.30158 0.28334 0.0
C1103 C 0.21475 0.30297 0.29393 0.0
H1104 H 0.02988 0.05859 0.20725 0.0
H1105 H 0.96651 0.08165 0.17669 0.0
H1106 H 0.98147 0.08318 0.1336 0.0
H1107 H 1.013 0.0791 0.10277 0.0
H1108 H 0.07623 0.05551 0.13208 0.0
H1109 H 0.06141 0.05362 0.1757 0.0
C1110 C 0.01918 0.06407 0.19136 0.0
C1111 C 0.99656 0.07021 0.1967 0.0
C1112 C 0.02813 0.06492 0.16543 0.0
C1113 C 0.98378 0.077 0.17462 0.0
C1114 C 0.99245 0.07785 0.14937 0.0
C1115 C 0.02356 0.07316 0.11845 0.0
C1116 C 0.04596 0.06693 0.11284 0.0
C1117 C 1.01464 0.07196 0.14422 0.0
C1118 C 0.0589 0.05987 0.13457 0.0
C1119 C 0.05034 0.05895 0.16002 0.0
H1120 H 0.29091 0.67087 0.45431 0.0
H1121 H 0.309 0.74561 0.51605 0.0
H1122 H 0.29828 0.77162 0.48321 0.0
H1123 H 0.28658 0.77387 0.43741 0.0
H1124 H 0.26962 0.70081 0.37412 0.0
H1125 H 0.27668 0.67284 0.40747 0.0
C1126 C 0.29256 0.69285 0.46039 0.0
C1127 C 0.30086 0.70649 0.48728 0.0
C1128 C 0.28624 0.70768 0.44143 0.0
C1129 C 0.30266 0.73481 0.49531 0.0
C1130 C 0.29647 0.74965 0.47666 0.0
C1131 C 0.2835 0.75159 0.43096 0.0
C1132 C 0.27713 0.7391 0.40367 0.0
C1133 C 0.28838 0.73629 0.44978 0.0
C1134 C 0.27421 0.71054 0.39529 0.0
C1135 C 0.27848 0.69476 0.41422 0.0
H1136 H 0.61802 1.0122 0.69863 0.0
H1137 H 0.68648 0.03377 0.6663 0.0
H1138 H 0.6653 0.0426 0.62659 0.0
H1139 H 0.6275 0.04615 0.60193 0.0
H1140 H 0.55953 0.02576 0.63431 0.0
H1141 H 0.58021 1.01402 0.67318 0.0
C1142 C 0.62812 1.01773 0.68238 0.0
C1143 C 0.65372 0.02245 0.68544 0.0
C1144 C 0.61593 0.02312 0.65972 0.0
C1145 C 0.66665 0.02969 0.66431 0.0
C1146 C 0.65459 0.03494 0.64159 0.0
C1147 C 0.61749 0.03948 0.61763 0.0
C1148 C 0.59246 0.03727 0.61578 0.0
C1149 C 0.62939 0.03236 0.63942 0.0
C1150 C 0.57904 0.02771 0.63568 0.0
C1151 C 0.59076 1.02085 0.6577 0.0
H1152 H 0.37543 0.33765 0.96611 0.0
H1153 H 0.31442 0.37267 0.96926 0.0
H1154 H 0.30442 0.36026 0.92014 0.0
H1155 H 0.31349 0.34033 0.87596 0.0
H1156 H 0.37583 0.30746 0.87305 0.0
H1157 H 0.38473 0.31816 0.92211 0.0
C1158 C 0.35978 0.34235 0.95611 0.0
C1159 C 0.3456 0.35593 0.97153 0.0
C1160 C 0.35441 0.33564 0.92774 0.0
C1161 C 0.32561 0.36215 0.95803 0.0
C1162 C 0.3199 0.35509 0.92988 0.0
C1163 C 0.32894 0.33537 0.88606 0.0
C1164 C 0.34388 0.32299 0.87068 0.0
C1165 C 0.33424 0.34197 0.91447 0.0
C1166 C 0.36401 0.31705 0.88422 0.0
C1167 C 0.36912 0.32311 0.91237 0.0
H1168 H 0.02021 0.0892 0.37784 0.0
H1169 H 0.02295 1.00765 0.34082 0.0
H1170 H 0.04036 1.00109 0.38424 0.0
H1171 H 0.05501 1.01791 0.43391 0.0
H1172 H 0.05379 0.10016 0.4707 0.0
H1173 H 0.03621 0.10666 0.42731 0.0
C1174 C 0.02469 0.06999 0.37907 0.0
C1175 C 0.01997 0.04903 0.35512 0.0
C1176 C 0.03522 0.06629 0.40468 0.0
C1177 C 0.02621 0.02444 0.35812 0.0
C1178 C 0.03624 1.02056 0.38331 0.0
C1179 C 0.05098 0.03735 0.4326 0.0
C1180 C 0.05597 0.05844 0.45647 0.0
C1181 C 0.04087 0.04124 0.40692 0.0
C1182 C 0.0504 0.08334 0.4534 0.0
C1183 C 0.0402 0.08714 0.42825 0.0
H1184 H 0.31823 0.67936 0.63408 0.0
H1185 H 0.36566 0.73778 0.59551 0.0
H1186 H 0.36287 0.77663 0.62943 0.0
H1187 H 0.34733 0.79354 0.67068 0.0
H1188 H 0.3005 0.73352 0.70815 0.0
H1189 H 0.30158 0.69583 0.67304 0.0
C1190 C 0.32833 0.70052 0.63323 0.0
C1191 C 0.34252 0.70565 0.61269 0.0
C1192 C 0.32595 0.72254 0.65198 0.0
C1193 C 0.35499 0.73329 0.61156 0.0
C1194 C 0.35312 0.7555 0.63065 0.0
C1195 C 0.33677 0.7723 0.67056 0.0
C1196 C 0.3233 0.76641 0.69155 0.0
C1197 C 0.33848 0.75035 0.65087 0.0
C1198 C 0.31023 0.73875 0.69171 0.0
C1199 C 0.31131 0.71702 0.67196 0.0
H1200 H 0.64417 0.11435 0.81844 0.0
H1201 H 0.70375 0.08311 0.84561 0.0
H1202 H 0.70172 0.10223 0.89233 0.0
H1203 H 0.67675 0.11777 0.92448 0.0
H1204 H 0.61235 0.13985 0.89572 0.0
H1205 H 0.624 0.13737 0.85101 0.0
C1206 C 0.65691 0.11196 0.83454 0.0
C1207 C 0.67344 0.09652 0.82882 0.0
C1208 C 0.65519 0.12227 0.86114 0.0
C1209 C 0.69034 0.09426 0.84972 0.0
C1210 C 0.68937 0.10543 0.87636 0.0
C1211 C 0.666 0.12331 0.9086 0.0
C1212 C 0.64311 0.12736 0.91277 0.0
C1213 C 0.67106 0.11824 0.88228 0.0
C1214 C 0.62976 0.13588 0.89279 0.0
C1215 C 0.63603 0.13366 0.86696 0.0
H1216 H 0.3523 0.39433 0.15535 0.0
H1217 H 0.33701 0.31802 0.09632 0.0
H1218 H 0.3263 0.29091 0.13106 0.0
H1219 H 0.3202 0.28865 0.1776 0.0
H1220 H 0.33737 0.36408 0.23773 0.0
H1221 H 0.34856 0.39188 0.20322 0.0
C1222 C 0.34669 0.37175 0.15007 0.0
C1223 C 0.34539 0.35827 0.12306 0.0
C1224 C 0.34089 0.3562 0.17035 0.0
C1225 C 0.33826 0.329 0.11678 0.0
C1226 C 0.33207 0.31346 0.13667 0.0
C1227 C 0.32649 0.31122 0.18327 0.0
C1228 C 0.32767 0.32432 0.21026 0.0
C1229 C 0.33319 0.32682 0.16342 0.0
C1230 C 0.3362 0.3535 0.21722 0.0
C1231 C 0.34253 0.36934 0.1974 0.0
H1232 H 0.26094 0.98523 0.01738 0.0
H1233 H 0.31797 0.05286 0.06912 0.0
H1234 H 0.28742 0.07596 0.08246 0.0
H1235 H 0.24492 0.07773 0.0783 0.0
H1236 H 0.18741 1.00944 0.02815 0.0
H1237 H 0.21787 0.98584 1.01508 0.0
C1238 C 0.26664 1.0051 0.03144 0.0
C1239 C 0.29161 1.01756 0.04197 0.0
C1240 C 0.24899 1.01812 0.03926 0.0
C1241 C 0.29881 0.043 0.06059 0.0
C1242 C 0.28139 0.0562 0.06826 0.0
C1243 C 0.23901 0.05749 0.06483 0.0
C1244 C 0.21407 0.04544 0.05405 0.0
C1245 C 0.25648 0.04401 0.05762 0.0
C1246 C 0.20664 1.01935 0.03634 0.0
C1247 C 0.22399 1.00581 0.02895 0.0
H1248 H 0.7298 0.66299 0.0509 0.0
H1249 H 0.73504 0.62671 0.96987 0.0
H1250 H 0.69432 0.59287 0.96629 0.0
H1251 H 0.65752 0.57325 0.98671 0.0
H1252 H 0.65297 0.60938 0.06822 0.0
H1253 H 0.69275 0.64395 0.07101 0.0
C1254 C 0.7219 0.64762 0.03248 0.0
C1255 C 0.73524 0.64707 1.01068 0.0
C1256 C 0.69853 0.62844 0.03063 0.0
C1257 C 0.72499 0.62734 0.98684 0.0
C1258 C 0.70176 0.60808 0.98484 0.0
C1259 C 0.66517 0.58881 1.00502 0.0
C1260 C 0.65209 0.58886 0.02715 0.0
C1261 C 0.68837 0.60837 1.00664 0.0
C1262 C 0.66239 0.60905 0.05078 0.0
C1263 C 0.68527 0.62873 0.05246 0.0
H1264 H 0.73526 0.42789 0.29082 0.0
H1265 H 0.78646 0.4782 0.24915 0.0
H1266 H 0.80946 0.44371 0.24531 0.0
H1267 H 0.81617 0.39808 0.25348 0.0
H1268 H 0.76292 0.34604 0.29176 0.0
H1269 H 0.74077 0.38123 0.29696 0.0
C1270 C 0.75144 0.43159 0.28086 0.0
C1271 C 0.75863 0.45686 0.27052 0.0
C1272 C 0.76476 0.41067 0.27797 0.0
C1273 C 0.77985 0.45981 0.25753 0.0
C1274 C 0.79329 0.43971 0.25529 0.0
C1275 C 0.79969 0.39417 0.26294 0.0
C1276 C 0.79178 0.36833 0.27214 0.0
C1277 C 0.78612 0.41485 0.26537 0.0
C1278 C 0.77 0.36484 0.28415 0.0
C1279 C 0.7571 0.38538 0.28726 0.0
H1280 H 0.926 0.45896 0.50241 0.0
H1281 H 0.91515 0.53749 0.53738 0.0
H1282 H 0.95971 0.55821 0.54894 0.0
H1283 H 1.0014 0.55312 0.55094 0.0
H1284 H 1.01246 0.47552 0.51433 0.0
H1285 H 0.96767 0.45464 0.50235 0.0
C1286 C 0.93336 0.48071 0.51228 0.0
C1287 C 0.91734 0.49668 0.51906 0.0
C1288 C 0.95883 0.49229 0.51914 0.0
C1289 C 0.92713 0.52484 0.53176 0.0
C1290 C 0.95255 0.5366 0.53863 0.0
C1291 C 0.99393 0.53162 0.54042 0.0
C1292 C 1.00979 0.51552 0.53379 0.0
C1293 C 0.96849 0.52034 0.53283 0.0
C1294 C 1.00025 0.4879 0.51988 0.0
C1295 C 0.97481 0.47617 0.51288 0.0
H1296 H 0.37956 0.07524 0.28427 0.0
H1297 H 0.44035 0.14997 0.31299 0.0
H1298 H 0.4147 0.17804 0.29816 0.0
H1299 H 0.37424 0.181 0.27979 0.0
H1300 H 0.31337 0.10597 0.25399 0.0
H1301 H 0.3403 0.07789 0.2644 0.0
C1302 C 0.38731 0.09768 0.2873 0.0
C1303 C 0.41159 0.11071 0.30006 0.0
C1304 C 0.37257 0.11341 0.27911 0.0
C1305 C 0.42152 0.13966 0.30347 0.0
C1306 C 0.40694 0.15562 0.29497 0.0
C1307 C 0.36698 0.15849 0.27646 0.0
C1308 C 0.34196 0.14539 0.26648 0.0
C1309 C 0.38232 0.14268 0.28324 0.0
C1310 C 0.33267 0.1163 0.26156 0.0
C1311 C 0.34795 0.10034 0.2677 0.0
H1312 H 0.36466 0.13756 0.56281 0.0
H1313 H 0.38724 0.18046 0.49897 0.0
H1314 H 0.42349 0.16348 0.49901 0.0
H1315 H 0.44853 0.1361 0.51671 0.0
H1316 H 0.42484 0.0912 0.57895 0.0
H1317 H 0.38972 0.10994 0.58045 0.0
C1318 C 0.37749 0.14321 0.54888 0.0
C1319 C 0.3731 0.16016 0.53077 0.0
C1320 C 0.39827 0.13323 0.54889 0.0
C1321 C 0.39002 0.16731 0.51298 0.0
C1322 C 0.41082 0.15766 0.51304 0.0
C1323 C 0.43563 0.13021 0.5305 0.0
C1324 C 0.4395 0.11222 0.5477 0.0
C1325 C 0.41506 0.1405 0.5308 0.0
C1326 C 0.42272 0.10535 0.56578 0.0
C1327 C 0.40242 0.11585 0.56647 0.0
H1328 H 0.72788 0.64016 0.30895 0.0
H1329 H 0.78586 0.60229 0.29393 0.0
H1330 H 0.81279 0.6473 0.28981 0.0
H1331 H 0.82076 0.69769 0.29024 0.0
H1332 H 0.7633 0.73672 0.30304 0.0
H1333 H 0.73577 0.69167 0.30797 0.0
C1334 C 0.7465 0.64166 0.30506 0.0
C1335 C 0.75455 0.61698 0.30227 0.0
C1336 C 0.76216 0.66818 0.30206 0.0
C1337 C 0.77876 0.62015 0.29654 0.0
C1338 C 0.79433 0.64619 0.29407 0.0
C1339 C 0.80218 0.69663 0.29407 0.0
C1340 C 0.79454 0.7214 0.29627 0.0
C1341 C 0.78634 0.67038 0.29672 0.0
C1342 C 0.77012 0.71866 0.30111 0.0
C1343 C 0.7543 0.69262 0.30405 0.0
H1344 H 0.95135 0.47957 0.84571 0.0
H1345 H 0.88998 0.50959 0.82196 0.0
H1346 H 0.86339 0.46204 0.80752 0.0
H1347 H 0.85792 0.41194 0.80027 0.0
H1348 H 0.91803 0.38135 0.82609 0.0
H1349 H 0.94509 0.42924 0.84115 0.0
C1350 C 0.93209 0.47557 0.83771 0.0
C1351 C 0.92257 0.49778 0.83499 0.0
C1352 C 0.91688 0.44826 0.82953 0.0
C1353 C 0.8976 0.49266 0.8246 0.0
C1354 C 0.88243 0.46555 0.81608 0.0
C1355 C 0.87705 0.41605 0.80896 0.0
C1356 C 0.88661 0.394 0.81159 0.0
C1357 C 0.89198 0.44327 0.81813 0.0
C1358 C 0.91092 0.39867 0.82352 0.0
C1359 C 0.92618 0.42582 0.83222 0.0
H1360 H 0.14892 0.92619 0.08063 0.0
H1361 H 0.07713 0.88602 0.09851 0.0
H1362 H 0.06087 0.92146 0.08263 0.0
H1363 H 0.06696 0.96457 0.06414 0.0
H1364 H 0.13952 1.00709 0.05 0.0
H1365 H 0.15539 0.97043 0.06375 0.0
C1366 C 0.1297 0.92513 0.081 0.0
C1367 C 0.1143 0.90315 0.09071 0.0
C1368 C 0.12053 0.94618 0.07242 0.0
C1369 C 0.0895 0.90254 0.09127 0.0
C1370 C 0.08013 0.92286 0.08209 0.0
C1371 C 0.08621 0.9657 0.06385 0.0
C1372 C 0.10192 0.98855 0.05566 0.0
C1373 C 0.09544 0.94483 0.07264 0.0
C1374 C 0.12693 0.98981 0.05601 0.0
C1375 C 0.13604 0.96877 0.06393 0.0
H1376 H 0.97615 0.27589 0.85552 0.0
H1377 H 0.94656 0.28075 0.93039 0.0
H1378 H 0.90928 0.28749 0.90815 0.0
H1379 H 0.88421 0.29162 0.867 0.0
H1380 H 0.9139 0.28663 0.7923 0.0
H1381 H 0.95165 0.28103 0.81476 0.0
C1382 C 0.96149 0.27822 0.86696 0.0
C1383 C 0.96434 0.27756 0.8947 0.0
C1384 C 0.93996 0.28244 0.85403 0.0
C1385 C 0.94509 0.28107 0.90908 0.0
C1386 C 0.92365 0.28502 0.89635 0.0
C1387 C 0.89903 0.28951 0.85576 0.0
C1388 C 0.89603 0.2894 0.82793 0.0
C1389 C 0.92079 0.2858 0.86882 0.0
C1390 C 0.91551 0.28654 0.81367 0.0
C1391 C 0.93718 0.28328 0.82652 0.0
H1392 H 0.59098 0.23289 0.61727 0.0
H1393 H 0.65096 0.2595 0.57318 0.0
H1394 H 0.64824 0.21058 0.55542 0.0
H1395 H 0.6296 0.15962 0.55427 0.0
H1396 H 0.56879 0.13487 0.59792 0.0
H1397 H 0.57142 0.18348 0.61442 0.0
C1398 C 0.6033 0.22807 0.60347 0.0
C1399 C 0.62112 0.24993 0.59655 0.0
C1400 C 0.60175 0.20007 0.59364 0.0
C1401 C 0.63684 0.24316 0.57858 0.0
C1402 C 0.63548 0.21514 0.56869 0.0
C1403 C 0.61706 0.16502 0.56748 0.0
C1404 C 0.59907 0.14363 0.575 0.0
C1405 C 0.61824 0.19334 0.57645 0.0
C1406 C 0.58273 0.15088 0.59181 0.0
C1407 C 0.58418 0.1787 0.60122 0.0
H1408 H 0.58878 0.81128 0.36333 0.0
H1409 H 0.60583 0.75808 0.41563 0.0
H1410 H 0.6437 0.75886 0.39702 0.0
H1411 H 0.67313 0.77589 0.36696 0.0
H1412 H 0.65651 0.82945 0.31491 0.0
H1413 H 0.61785 0.82739 0.33237 0.0
C1414 C 0.60058 0.79951 0.37033 0.0
C1415 C 0.5942 0.78451 0.39076 0.0
C1416 C 0.62274 0.80031 0.35976 0.0
C1417 C 0.61009 0.7698 0.39989 0.0
C1418 C 0.63188 0.77025 0.38929 0.0
C1419 C 0.66093 0.78685 0.35921 0.0
C1420 C 0.66796 0.80294 0.33972 0.0
C1421 C 0.63855 0.7856 0.36937 0.0
C1422 C 0.6519 0.81725 0.33022 0.0
C1423 C 0.62963 0.81596 0.34008 0.0
H1424 H 0.13608 0.30918 0.48817 0.0
H1425 H 0.12158 0.25363 0.41054 0.0
H1426 H 0.10938 0.21353 0.43177 0.0
H1427 H 0.10133 0.19454 0.47193 0.0
H1428 H 0.11766 0.2498 0.54979 0.0
H1429 H 0.12997 0.29002 0.52862 0.0
C1430 C 0.13054 0.28829 0.47592 0.0
C1431 C 0.12982 0.28431 0.44792 0.0
C1432 C 0.12349 0.26541 0.48816 0.0
C1433 C 0.12247 0.25719 0.43224 0.0
C1434 C 0.11534 0.23426 0.44428 0.0
C1435 C 0.10797 0.21535 0.48431 0.0
C1436 C 0.10856 0.21929 0.51229 0.0
C1437 C 0.11561 0.23819 0.47217 0.0
C1438 C 0.11668 0.24636 0.52809 0.0
C1439 C 0.12393 0.2693 0.51608 0.0
H1440 H 0.59773 0.29228 0.2138 0.0
H1441 H 0.56753 0.23586 0.26495 0.0
H1442 H 0.60905 0.23856 0.28482 0.0
H1443 H 0.65322 0.25025 0.28161 0.0
H1444 H 0.68266 0.30312 0.22744 0.0
H1445 H 0.642 0.30854 0.21461 0.0
C1446 C 0.60017 0.28108 0.22976 0.0
C1447 C 0.57965 0.26347 0.23758 0.0
C1448 C 0.62393 0.28177 0.24019 0.0
C1449 C 0.5831 0.24937 0.25846 0.0
C1450 C 0.60681 0.25073 0.26968 0.0
C1451 C 0.65074 0.26361 0.26764 0.0
C1452 C 0.67051 0.27619 0.25529 0.0
C1453 C 0.62727 0.26585 0.25981 0.0
C1454 C 0.66738 0.29318 0.23695 0.0
C1455 C 0.64424 0.29623 0.22964 0.0
H1456 H 0.61218 0.92798 0.93546 0.0
H1457 H 0.67459 0.93372 0.99387 0.0
H1458 H 0.66449 0.97009 0.02448 0.0
H1459 H 0.63673 0.99789 0.03529 0.0
H1460 H 0.57131 0.98748 0.9794 0.0
H1461 H 0.58414 0.95542 0.94648 0.0
C1462 C 0.62384 0.93758 0.95468 0.0
C1463 C 0.64423 0.92865 0.96243 0.0
C1464 C 0.6174 0.95747 0.97241 0.0
C1465 C 0.65889 0.9406 0.98757 0.0
C1466 C 0.65311 0.96123 1.00502 0.0
C1467 C 0.62538 0.98871 1.01582 0.0
C1468 C 0.6034 0.99514 1.00941 0.0
C1469 C 0.63222 0.96946 0.99775 0.0
C1470 C 0.58856 0.983 0.98441 0.0
C1471 C 0.59579 0.96464 0.96573 0.0
H1472 H 0.92763 0.74032 0.70643 0.0
H1473 H 0.9856 0.7931 0.76862 0.0
H1474 H 0.95536 0.80889 0.79333 0.0
H1475 H 0.91209 0.80669 0.79709 0.0
H1476 H 0.85428 0.75051 0.7363 0.0
H1477 H 0.88467 0.73697 0.71089 0.0
C1478 C 0.93344 0.75554 0.72522 0.0
C1479 C 0.95837 0.76619 0.73574 0.0
C1480 C 0.91604 0.76355 0.73955 0.0
C1481 C 0.96622 0.78529 0.76027 0.0
C1482 C 0.94903 0.79408 0.77436 0.0
C1483 C 0.90633 0.79115 0.77853 0.0
C1484 C 0.88126 0.77902 0.76876 0.0
C1485 C 0.92386 0.78313 0.76428 0.0
C1486 C 0.87365 0.75934 0.7445 0.0
C1487 C 0.89094 0.75186 0.72982 0.0
H1488 H 0.13991 0.08664 0.88372 0.0
H1489 H 0.15618 1.00794 0.87726 0.0
H1490 H 0.13858 1.00061 0.91823 0.0
H1491 H 0.11769 1.01546 0.95719 0.0
H1492 H 0.1036 0.09529 0.96605 0.0
H1493 H 0.12044 0.10261 0.92433 0.0
C1494 C 0.13967 0.06776 0.89105 0.0
C1495 C 0.14976 0.04781 0.87601 0.0
C1496 C 0.12956 0.06364 0.91586 0.0
C1497 C 0.1489 0.02389 0.88723 0.0
C1498 C 0.13864 1.01958 0.91113 0.0
C1499 C 0.11833 0.03465 0.95026 0.0
C1500 C 0.10897 0.05475 0.96591 0.0
C1501 C 0.1288 0.03915 0.92586 0.0
C1502 C 0.11051 0.07928 0.95553 0.0
C1503 C 0.12023 0.08348 0.93118 0.0
H1504 H 0.8566 0.38574 0.56353 0.0
H1505 H 0.8463 0.45662 0.6157 0.0
H1506 H 0.86243 0.44163 0.65516 0.0
H1507 H 0.87821 0.40772 0.67426 0.0
H1508 H 0.88576 0.33541 0.62174 0.0
H1509 H 0.87353 0.35283 0.58245 0.0
C1510 C 0.85743 0.39761 0.58357 0.0
C1511 C 0.84981 0.42177 0.58704 0.0
C1512 C 0.8671 0.38928 0.60579 0.0
C1513 C 0.85173 0.4376 0.61289 0.0
C1514 C 0.86119 0.42928 0.63528 0.0
C1515 C 0.87739 0.39601 0.65415 0.0
C1516 C 0.88262 0.37038 0.65069 0.0
C1517 C 0.8689 0.40517 0.63187 0.0
C1518 C 0.88208 0.35545 0.62475 0.0
C1519 C 0.87462 0.36506 0.60234 0.0
H1520 H 0.50916 0.04897 0.4036 0.0
H1521 H 0.56369 0.12066 0.39033 0.0
H1522 H 0.58919 0.1227 0.43304 0.0
H1523 H 0.5964 0.10172 0.47227 0.0
H1524 H 0.54289 0.02678 0.48151 0.0
H1525 H 0.51599 0.02841 0.44214 0.0
C1526 C 0.52649 0.0653 0.41044 0.0
C1527 C 0.53478 0.08488 0.3947 0.0
C1528 C 0.54099 0.06558 0.43399 0.0
C1529 C 0.55717 0.10578 0.40287 0.0
C1530 C 0.57165 0.10674 0.42696 0.0
C1531 C 0.57881 0.0859 0.46557 0.0
C1532 C 0.57129 0.06446 0.47967 0.0
C1533 C 0.56387 0.08641 0.4424 0.0
C1534 C 0.54872 0.04374 0.47098 0.0
C1535 C 0.53341 0.04458 0.44852 0.0
H1536 H 0.84336 0.77406 0.11298 0.0
H1537 H 0.76455 0.74021 0.09501 0.0
H1538 H 0.7609 0.75409 0.14262 0.0
H1539 H 0.78087 0.77315 0.1905 0.0
H1540 H 0.86002 0.80818 0.20671 0.0
H1541 H 0.86266 0.79719 0.1592 0.0
C1542 C 0.82536 0.77061 0.11941 0.0
C1543 C 0.80422 0.75688 0.10046 0.0
C1544 C 0.82345 0.77869 0.14678 0.0
C1545 C 0.78103 0.75165 0.10915 0.0
C1546 C 0.77898 0.75928 0.13645 0.0
C1547 C 0.79859 0.77879 0.18354 0.0
C1548 C 0.82021 0.79116 0.20247 0.0
C1549 C 0.80013 0.77249 0.15565 0.0
C1550 C 0.84303 0.79821 0.19289 0.0
C1551 C 0.84465 0.79201 0.16556 0.0
H1552 H 0.14647 0.06342 0.72198 0.0
H1553 H 0.16824 0.99018 0.69326 0.0
H1554 H 0.15005 0.98889 0.64734 0.0
H1555 H 0.1282 1.00878 0.61357 0.0
H1556 H 0.10878 0.08371 0.64208 0.0
H1557 H 0.12533 0.08383 0.68817 0.0
C1558 C 0.14699 0.04683 0.70587 0.0
C1559 C 0.15872 0.02653 0.7122 0.0
C1560 C 0.13679 0.04652 0.6786 0.0
C1561 C 0.15938 1.00599 0.69001 0.0
C1562 C 0.14891 1.00526 0.66331 0.0
C1563 C 0.12738 0.02512 0.62976 0.0
C1564 C 0.11667 0.04614 0.62332 0.0
C1565 C 0.13757 0.02544 0.65705 0.0
C1566 C 0.11653 0.06707 0.64544 0.0
C1567 C 0.12613 0.06719 0.67226 0.0
H1568 H 0.83281 0.40347 0.4197 0.0
H1569 H 0.84531 0.34214 0.46428 0.0
H1570 H 0.8446 0.31033 0.42221 0.0
H1571 H 0.84 0.30018 0.3726 0.0
H1572 H 0.83125 0.36397 0.32925 0.0
H1573 H 0.83127 0.39484 0.37108 0.0
C1574 C 0.83504 0.38298 0.42012 0.0
C1575 C 0.83857 0.37475 0.4447 0.0
C1576 C 0.83563 0.36549 0.39618 0.0
C1577 C 0.84223 0.34859 0.44531 0.0
C1578 C 0.84197 0.33054 0.42138 0.0
C1579 C 0.83842 0.32097 0.37251 0.0
C1580 C 0.83546 0.32975 0.34809 0.0
C1581 C 0.83876 0.33884 0.3967 0.0
C1582 C 0.83361 0.35677 0.34793 0.0
C1583 C 0.83342 0.37439 0.37178 0.0
H1584 H 0.50629 1.01602 0.27155 0.0
H1585 H 0.44326 0.03407 0.23301 0.0
H1586 H 0.44895 1.01026 0.18915 0.0
H1587 H 0.47661 0.99254 0.16192 0.0
H1588 H 0.5417 0.97893 0.20147 0.0
H1589 H 0.52942 0.99071 0.245 0.0
C1590 C 0.49378 1.01452 0.25348 0.0
C1591 C 0.47511 0.02749 0.25476 0.0
C1592 C 0.49717 1.00097 0.22877 0.0
C1593 C 0.45818 0.02465 0.23186 0.0
C1594 C 0.46133 1.01097 0.20701 0.0
C1595 C 0.48756 0.99125 0.18008 0.0
C1596 C 0.51023 0.98568 0.17865 0.0
C1597 C 0.4814 1.0001 0.20516 0.0
C1598 C 0.52412 0.98323 0.20204 0.0
C1599 C 0.51742 0.99056 0.22705 0.0
H1600 H 0.77794 0.76011 0.93523 0.0
H1601 H 0.8483 0.74545 0.95375 0.0
H1602 H 0.86043 0.75895 0.91205 0.0
H1603 H 0.85141 0.77538 0.87015 0.0
H1604 H 0.78034 0.78762 0.85017 0.0
H1605 H 0.76823 0.77471 0.89221 0.0
C1606 C 0.79597 0.75996 0.93023 0.0
C1607 C 0.81223 0.75192 0.94798 0.0
C1608 C 0.8027 0.76722 0.9057 0.0
C1609 C 0.83539 0.75159 0.94075 0.0
C1610 C 0.84236 0.7593 0.91679 0.0
C1611 C 0.83317 0.7749 0.87487 0.0
C1612 C 0.81677 0.78224 0.85682 0.0
C1613 C 0.8262 0.76712 0.89906 0.0
C1614 C 0.79323 0.78166 0.86339 0.0
C1615 C 0.78635 0.77446 0.8876 0.0
H1616 H 0.89091 0.13666 0.03659 0.0
H1617 H 0.83925 0.0554 0.02863 0.0
H1618 H 0.86943 0.03322 1.01185 0.0
H1619 H 0.91146 0.03692 1.00376 0.0
H1620 H 0.9649 0.11765 1.01607 0.0
H1621 H 0.93319 0.1404 0.027 0.0
C1622 C 0.88633 0.11415 0.0307 0.0
C1623 C 0.8632 0.09744 0.03357 0.0
C1624 C 0.90408 0.10162 0.02216 0.0
C1625 C 0.85718 0.06837 0.02649 0.0
C1626 C 0.87435 0.05578 0.01696 0.0
C1627 C 0.91593 0.05949 1.00818 0.0
C1628 C 0.94014 0.07571 1.00886 0.0
C1629 C 0.89798 0.07217 1.01528 0.0
C1630 C 0.94615 0.10492 1.01535 0.0
C1631 C 0.92812 0.11784 0.02163 0.0
H1632 H 0.44682 0.43003 0.04635 0.0
H1633 H 0.42064 0.49658 0.08537 0.0
H1634 H 0.46052 0.52992 0.08662 0.0
H1635 H 0.50278 0.54074 0.07681 0.0
H1636 H 0.53 0.4755 0.03751 0.0
H1637 H 0.48994 0.44122 0.03628 0.0
C1638 C 0.44984 0.45182 0.05516 0.0
C1639 C 0.43051 0.4606 0.06578 0.0
C1640 C 0.47309 0.47119 0.05582 0.0
C1641 C 0.43495 0.48901 0.07706 0.0
C1642 C 0.45785 0.50821 0.0778 0.0
C1643 C 0.50005 0.51899 0.06803 0.0
C1644 C 0.51948 0.51069 0.0574 0.0
C1645 C 0.47702 0.49958 0.06728 0.0
C1646 C 0.51545 0.48245 0.04592 0.0
C1647 C 0.4925 0.46287 0.04521 0.0
H1648 H 0.43238 0.67761 0.7611 0.0
H1649 H 0.36674 0.61129 0.76055 0.0
H1650 H 0.34269 0.64483 0.76423 0.0
H1651 H 0.33902 0.69382 0.76685 0.0
H1652 H 0.40437 0.75988 0.76546 0.0
H1653 H 0.42852 0.72656 0.76276 0.0
C1654 C 0.41281 0.67025 0.76182 0.0
C1655 C 0.40193 0.6409 0.76059 0.0
C1656 C 0.39846 0.69017 0.76335 0.0
C1657 C 0.37623 0.63299 0.76129 0.0
C1658 C 0.36223 0.65252 0.76344 0.0
C1659 C 0.35858 0.70123 0.76609 0.0
C1660 C 0.36931 0.73048 0.76671 0.0
C1661 C 0.3729 0.68132 0.76437 0.0
C1662 C 0.39494 0.73832 0.7654 0.0
C1663 C 0.40903 0.71889 0.76378 0.0
H1664 H 0.24545 0.6471 0.58566 0.0
H1665 H 0.2349 0.58567 0.51278 0.0
H1666 H 0.19009 0.57561 0.51038 0.0
H1667 H 0.15464 0.58632 0.52787 0.0
H1668 H 0.16454 0.64304 0.60383 0.0
H1669 H 0.20951 0.65383 0.606 0.0
C1670 C 0.23323 0.63132 0.56945 0.0
C1671 C 0.24307 0.61724 0.54928 0.0
C1672 C 0.20775 0.62543 0.56854 0.0
C1673 C 0.22744 0.59657 0.5285 0.0
C1674 C 0.20197 0.59106 0.52703 0.0
C1675 C 0.16665 0.60114 0.54487 0.0
C1676 C 0.15659 0.61453 0.56536 0.0
C1677 C 0.19204 0.60579 0.54667 0.0
C1678 C 0.17213 0.63307 0.58763 0.0
C1679 C 0.19768 0.63898 0.58893 0.0
H1680 H 0.7239 0.98467 0.79266 0.0
H1681 H 0.78514 0.04983 0.77935 0.0
H1682 H 0.81419 0.02817 0.79893 0.0
H1683 H 0.82174 0.98821 0.81511 0.0
H1684 H 0.76067 0.92001 0.82295 0.0
H1685 H 0.7316 0.94541 0.81057 0.0
C1686 C 0.74362 0.99417 0.79448 0.0
C1687 C 0.75263 1.01843 0.78464 0.0
C1688 C 0.76004 0.98114 0.8048 0.0
C1689 C 0.77806 0.0308 0.78664 0.0
C1690 C 0.79459 1.01857 0.79788 0.0
C1691 C 0.8021 0.97951 0.81493 0.0
C1692 C 0.79305 0.95296 0.82041 0.0
C1693 C 0.78573 0.99345 0.80644 0.0
C1694 C 0.76769 0.94091 0.81929 0.0
C1695 C 0.75121 0.95522 0.81199 0.0
H1696 H 0.78935 0.94522 0.53311 0.0
H1697 H 0.81139 0.98402 0.61725 0.0
H1698 H 0.77667 1.00338 0.61617 0.0
H1699 H 0.74074 1.01067 0.59118 0.0
H1700 H 0.7189 0.97314 0.50685 0.0
H1701 H 0.7528 0.95208 0.50811 0.0
C1702 C 0.78654 0.95794 0.55117 0.0
C1703 C 0.8031 0.96333 0.57514 0.0
C1704 C 0.76656 0.96928 0.5504 0.0
C1705 C 0.79914 0.97978 0.59842 0.0
C1706 C 0.7792 0.9908 0.59788 0.0
C1707 C 0.74318 0.99753 0.57319 0.0
C1708 C 0.7273 0.99337 0.54901 0.0
C1709 C 0.76287 0.98582 0.57398 0.0
C1710 C 0.73098 0.97674 0.5257 0.0
C1711 C 0.75034 0.96468 0.52642 0.0
H1712 H 0.378 0.48841 0.7653 0.0
H1713 H 0.44892 0.47469 0.78272 0.0
H1714 H 0.42925 0.42661 0.78469 0.0
H1715 H 0.39132 0.38633 0.78262 0.0
H1716 H 0.3206 0.40062 0.76524 0.0
H1717 H 0.34038 0.44827 0.76246 0.0
C1718 C 0.38931 0.47508 0.76949 0.0
C1719 C 0.41543 0.48656 0.77398 0.0
C1720 C 0.37767 0.44636 0.77079 0.0
C1721 C 0.42897 0.46773 0.77934 0.0
C1722 C 0.41762 0.4396 0.78046 0.0
C1723 C 0.38012 0.39963 0.77799 0.0
C1724 C 0.35393 0.38855 0.77412 0.0
C1725 C 0.39187 0.42832 0.77638 0.0
C1726 C 0.34055 0.40738 0.7684 0.0
C1727 C 0.35195 0.43525 0.76677 0.0
H1728 H 0.22844 0.64348 0.23136 0.0
H1729 H 0.25951 0.64011 0.31095 0.0
H1730 H 0.28433 0.68888 0.31784 0.0
H1731 H 0.29731 0.73153 0.30061 0.0
H1732 H 0.26877 0.73392 0.21957 0.0
H1733 H 0.24295 0.68575 0.21332 0.0
C1734 C 0.2406 0.65369 0.25016 0.0
C1735 C 0.24233 0.63905 0.27076 0.0
C1736 C 0.25529 0.68103 0.25346 0.0
C1737 C 0.25821 0.65161 0.29501 0.0
C1738 C 0.2723 0.67923 0.29888 0.0
C1739 C 0.28535 0.72146 0.28164 0.0
C1740 C 0.28452 0.7359 0.26066 0.0
C1741 C 0.27103 0.69399 0.27815 0.0
C1742 C 0.26952 0.72283 0.23592 0.0
C1743 C 0.25474 0.6955 0.2324 0.0
H1744 H 0.5313 0.69141 0.48431 0.0
H1745 H 0.60496 0.7448 0.51492 0.0
H1746 H 0.61507 0.70748 0.53399 0.0
H1747 H 0.60348 0.65906 0.54129 0.0
H1748 H 0.52972 0.60572 0.5111 0.0
H1749 H 0.51932 0.64338 0.49286 0.0
C1750 C 0.54952 0.695 0.49531 0.0
C1751 C 0.56725 0.72115 0.49813 0.0
C1752 C 0.55529 0.67328 0.50637 0.0
C1753 C 0.59081 0.72511 0.5124 0.0
C1754 C 0.59668 0.70366 0.52333 0.0
C1755 C 0.58506 0.65569 0.53089 0.0
C1756 C 0.56743 0.62941 0.5277 0.0
C1757 C 0.57913 0.67759 0.52037 0.0
C1758 C 0.54369 0.62562 0.51406 0.0
C1759 C 0.53772 0.64721 0.50349 0.0
H1760 H 0.71668 0.37334 0.71886 0.0
H1761 H 0.70196 0.29632 0.66163 0.0
H1762 H 0.73903 0.28769 0.68277 0.0
H1763 H 0.7758 0.30153 0.71891 0.0
H1764 H 0.79083 0.37999 0.77459 0.0
H1765 H 0.75425 0.38827 0.75305 0.0
C1766 C 0.72178 0.35487 0.71084 0.0
C1767 C 0.70655 0.33566 0.68845 0.0
C1768 C 0.74345 0.35012 0.72305 0.0
C1769 C 0.71342 0.31165 0.67862 0.0
C1770 C 0.73465 0.30663 0.69082 0.0
C1771 C 0.77126 0.32059 0.72613 0.0
C1772 C 0.78654 0.34007 0.74856 0.0
C1773 C 0.7499 0.32564 0.71322 0.0
C1774 C 0.77984 0.3645 0.75747 0.0
C1775 C 0.7587 0.36935 0.74513 0.0
H1776 H 0.01991 0.36953 1.00881 0.0
H1777 H 0.08795 0.3721 0.97748 0.0
H1778 H 0.10265 0.42269 0.99353 0.0
H1779 H 0.0956 0.46659 1.01527 0.0
H1780 H 0.02619 0.46368 0.04368 0.0
H1781 H 1.01266 0.41309 0.02995 0.0
C1782 C 0.03807 0.38111 1.00574 0.0
C1783 C 0.05289 0.367 0.99214 0.0
C1784 C 0.04612 0.41026 1.01437 0.0
C1785 C 0.07619 0.38243 0.98793 0.0
C1786 C 0.0846 0.41137 0.99709 0.0
C1787 C 0.07762 0.45483 0.01864 0.0
C1788 C 0.06202 0.46895 0.03058 0.0
C1789 C 0.06966 0.42558 1.01017 0.0
C1790 C 0.03859 0.45341 0.03446 0.0
C1791 C 0.03081 0.42441 0.02666 0.0
H1792 H 0.02946 0.82002 0.1569 0.0
H1793 H 0.07775 0.82154 0.22823 0.0
H1794 H 0.044 0.81898 0.25463 0.0
H1795 H 1.00103 0.8157 0.25749 0.0
H1796 H 0.95099 0.80975 0.18599 0.0
H1797 H 0.98514 0.81499 0.15964 0.0
C1798 C 0.03251 0.82003 0.17826 0.0
C1799 C 0.05604 0.82125 0.19075 0.0
C1800 C 1.01276 0.81772 0.19323 0.0
C1801 C 0.05977 0.82067 0.21827 0.0
C1802 C 0.04051 0.81921 0.23337 0.0
C1803 C 0.99746 0.81527 0.23608 0.0
C1804 C 0.97344 0.81228 0.22378 0.0
C1805 C 1.01694 0.81754 0.22103 0.0
C1806 C 0.96935 0.81239 0.19609 0.0
C1807 C 0.98885 0.81519 0.18097 0.0
H1808 H 0.57422 0.30988 0.12421 0.0
H1809 H 0.50096 0.31783 0.12805 0.0
H1810 H 0.51021 0.35663 0.10422 0.0
H1811 H 0.53888 0.3871 0.08152 0.0
H1812 H 0.61245 0.37966 0.07941 0.0
H1813 H 0.60315 0.34119 0.10337 0.0
C1814 C 0.56018 0.31998 0.11977 0.0
C1815 C 0.53687 0.31099 0.12756 0.0
C1816 C 0.56568 0.34215 0.10645 0.0
C1817 C 0.519 0.32446 0.12205 0.0
C1818 C 0.52428 0.34656 0.1085 0.0
C1819 C 0.55295 0.37727 0.08669 0.0
C1820 C 0.57624 0.3859 0.07875 0.0
C1821 C 0.54754 0.35546 0.10058 0.0
C1822 C 0.59428 0.37293 0.0851 0.0
C1823 C 0.58902 0.35111 0.09883 0.0
H1824 H 0.07752 0.33598 0.32524 0.0
H1825 H 0.05603 0.35429 0.40386 0.0
H1826 H 1.01543 0.35271 0.38328 0.0
H1827 H 0.98586 0.34586 0.34344 0.0
H1828 H 1.00615 0.32904 0.26445 0.0
H1829 H 0.04761 0.33033 0.28467 0.0
C1830 C 0.0639 0.33957 0.33777 0.0
C1831 C 0.06972 0.34509 0.36594 0.0
C1832 C 0.04047 0.33883 0.32583 0.0
C1833 C 0.05202 0.34993 0.38207 0.0
C1834 C 0.02876 0.34903 0.37038 0.0
C1835 C 0.99938 0.34227 0.33072 0.0
C1836 C 0.99325 0.3369 0.30272 0.0
C1837 C 0.02281 0.34339 0.34238 0.0
C1838 C 1.01077 0.33297 0.28616 0.0
C1839 C 0.0343 0.33371 0.29769 0.0
H1840 H 0.02742 0.67114 0.6681 0.0
H1841 H 0.9708 0.67057 0.60516 0.0
H1842 H 0.98215 0.6346 0.575 0.0
H1843 H 1.0116 0.60882 0.5653 0.0
H1844 H 0.07272 0.61577 0.62588 0.0
H1845 H 0.05629 0.64426 0.65875 0.0
C1846 C 1.01695 0.6622 0.64813 0.0
C1847 C 0.99779 0.67237 0.63889 0.0
C1848 C 0.02485 0.64346 0.63056 0.0
C1849 C 0.98508 0.6621 0.61266 0.0
C1850 C 0.9918 0.64197 0.59545 0.0
C1851 C 0.02113 0.61623 0.58583 0.0
C1852 C 0.04327 0.61049 0.59342 0.0
C1853 C 1.01218 0.63331 0.60398 0.0
C1854 C 0.05563 0.62018 0.61985 0.0
C1855 C 0.04626 0.63635 0.63851 0.0
H1856 H 0.68137 0.82744 0.83762 0.0
H1857 H 0.73482 0.88119 0.90388 0.0
H1858 H 0.76815 0.8791 0.87743 0.0
H1859 H 0.7818 0.86019 0.8366 0.0
H1860 H 0.72901 0.80143 0.77264 0.0
H1861 H 0.69523 0.80755 0.79692 0.0
C1862 C 0.70036 0.83879 0.84605 0.0
C1863 C 0.70599 0.85458 0.87228 0.0
C1864 C 0.71923 0.83682 0.83111 0.0
C1865 C 0.73043 0.86887 0.88358 0.0
C1866 C 0.74932 0.8678 0.86849 0.0
C1867 C 0.76284 0.84947 0.8276 0.0
C1868 C 0.75763 0.83113 0.80265 0.0
C1869 C 0.74389 0.85179 0.84229 0.0
C1870 C 0.73317 0.81625 0.7916 0.0
C1871 C 0.71399 0.81946 0.80556 0.0
H1872 H 0.52369 0.54491 0.70891 0.0
H1873 H 0.48501 0.60388 0.69228 0.0
H1874 H 0.50368 0.60803 0.65135 0.0
H1875 H 0.53158 0.59554 0.6188 0.0
H1876 H 0.56721 0.5333 0.63262 0.0
H1877 H 0.54981 0.53024 0.67468 0.0
C1878 C 0.51932 0.55887 0.69656 0.0
C1879 C 0.50265 0.57438 0.705 0.0
C1880 C 0.52986 0.56066 0.67174 0.0
C1881 C 0.49751 0.5917 0.68744 0.0
C1882 C 0.50835 0.59411 0.66358 0.0
C1883 C 0.53555 0.58111 0.63081 0.0
C1884 C 0.55116 0.56464 0.62155 0.0
C1885 C 0.52462 0.57877 0.65526 0.0
C1886 C 0.55543 0.54619 0.63823 0.0
C1887 C 0.54539 0.5445 0.66273 0.0
H1888 H 0.80405 0.23378 1.00904 0.0
H1889 H 0.79255 0.15401 0.95662 0.0
H1890 H 0.78049 0.17302 0.91784 0.0
H1891 H 0.77425 0.2128 0.89953 0.0
H1892 H 0.7892 0.29291 0.95275 0.0
H1893 H 0.79753 0.27262 0.99129 0.0
C1894 C 0.79881 0.22046 0.98914 0.0
C1895 C 0.79907 0.19268 0.9854 0.0
C1896 C 0.79191 0.23134 0.96747 0.0
C1897 C 0.79263 0.17564 0.95964 0.0
C1898 C 0.78552 0.18636 0.93768 0.0
C1899 C 0.77899 0.22559 0.91967 0.0
C1900 C 0.7809 0.2541 0.92352 0.0
C1901 C 0.7851 0.2142 0.94147 0.0
C1902 C 0.78698 0.27071 0.9495 0.0
C1903 C 0.79221 0.2593 0.97143 0.0
H1904 H 0.16495 0.51581 0.16721 0.0
H1905 H 0.13839 0.56245 0.23041 0.0
H1906 H 0.10911 0.57148 0.19748 0.0
H1907 H 0.09093 0.56581 0.15084 0.0
H1908 H 0.11573 0.51747 0.08762 0.0
H1909 H 0.14581 0.50913 0.12023 0.0
C1910 C 0.15235 0.52744 0.17357 0.0
C1911 C 0.15302 0.53769 0.20084 0.0
C1912 C 0.1354 0.53224 0.15464 0.0
C1913 C 0.13733 0.55349 0.20932 0.0
C1914 C 0.12083 0.55892 0.19061 0.0
C1915 C 0.10285 0.55327 0.14447 0.0
C1916 C 0.10149 0.54228 0.11733 0.0
C1917 C 0.11962 0.54823 0.16329 0.0
C1918 C 0.1168 0.5262 0.10865 0.0
C1919 C 0.13392 0.52139 0.12724 0.0
H1920 H 0.86217 0.8262 0.47219 0.0
H1921 H 0.83095 0.89498 0.47527 0.0
H1922 H 0.82204 0.88532 0.42617 0.0
H1923 H 0.82328 0.85751 0.38185 0.0
H1924 H 0.85598 0.79003 0.37875 0.0
H1925 H 0.86368 0.79861 0.42797 0.0
C1926 C 0.8532 0.83893 0.46216 0.0
C1927 C 0.84701 0.86114 0.47762 0.0
C1928 C 0.84824 0.83338 0.43373 0.0
C1929 C 0.83561 0.87751 0.46408 0.0
C1930 C 0.83058 0.87207 0.43589 0.0
C1931 C 0.83193 0.84462 0.39203 0.0
C1932 C 0.83893 0.82308 0.37669 0.0
C1933 C 0.83678 0.85006 0.42046 0.0
C1934 C 0.85051 0.80681 0.39011 0.0
C1935 C 0.85489 0.81169 0.41829 0.0
H1936 H 0.51575 0.58561 0.88702 0.0
H1937 H 0.5365 0.51661 0.84458 0.0
H1938 H 0.55485 0.50931 0.88723 0.0
H1939 H 0.56498 0.52164 0.9377 0.0
H1940 H 0.54569 0.59172 0.98009 0.0
H1941 H 0.52715 0.59891 0.93742 0.0
C1942 C 0.52438 0.56902 0.88691 0.0
C1943 C 0.5244 0.55178 0.8617 0.0
C1944 C 0.53527 0.56483 0.9121 0.0
C1945 C 0.53586 0.53043 0.86295 0.0
C1946 C 0.54646 0.52613 0.88767 0.0
C1947 C 0.55677 0.53856 0.93777 0.0
C1948 C 0.55699 0.55603 0.96293 0.0
C1949 C 0.54625 0.54303 0.91256 0.0
C1950 C 0.54617 0.57784 0.96169 0.0
C1951 C 0.53541 0.582 0.93698 0.0
H1952 H 0.81985 0.17971 0.14308 0.0
H1953 H 0.86461 0.23848 0.10264 0.0
H1954 H 0.86241 0.2772 0.13703 0.0
H1955 H 0.84705 0.29397 0.17817 0.0
H1956 H 0.80127 0.23428 0.2169 0.0
H1957 H 0.80373 0.19613 0.1827 0.0
C1958 C 0.82961 0.20093 0.14205 0.0
C1959 C 0.84268 0.20626 0.1207 0.0
C1960 C 0.82729 0.22288 0.16093 0.0
C1961 C 0.85475 0.23392 0.11927 0.0
C1962 C 0.85318 0.25603 0.13861 0.0
C1963 C 0.83704 0.27267 0.17856 0.0
C1964 C 0.8237 0.26688 0.19964 0.0
C1965 C 0.83911 0.25072 0.15925 0.0
C1966 C 0.8112 0.23919 0.20044 0.0
C1967 C 0.81298 0.21734 0.18122 0.0
H1968 H 0.14035 0.59735 0.32199 0.0
H1969 H 0.20468 0.58163 0.3609 0.0
H1970 H 0.19663 0.60225 0.40483 0.0
H1971 H 0.1698 0.62201 0.4317 0.0
H1972 H 0.10326 0.63227 0.39152 0.0
H1973 H 0.11494 0.61853 0.34816 0.0
C1974 C 0.1527 0.59843 0.34003 0.0
C1975 C 0.17287 0.5878 0.33844 0.0
C1976 C 0.14805 0.61017 0.36479 0.0
C1977 C 0.18878 0.58941 0.36187 0.0
C1978 C 0.18436 0.60141 0.38685 0.0
C1979 C 0.15807 0.62159 0.41342 0.0
C1980 C 0.13571 0.62799 0.41486 0.0
C1981 C 0.16389 0.6116 0.38848 0.0
C1982 C 0.12086 0.62798 0.39111 0.0
C1983 C 0.1272 0.6195 0.36622 0.0
H1984 H 0.87522 0.8642 0.64681 0.0
H1985 H 0.80214 0.86352 0.61508 0.0
H1986 H 0.78604 0.84612 0.65374 0.0
H1987 H 0.79289 0.83249 0.6975 0.0
H1988 H 0.86635 0.8354 0.73065 0.0
H1989 H 0.88209 0.85043 0.6909 0.0
C1990 C 0.8557 0.85956 0.64814 0.0
C1991 C 0.83972 0.86429 0.62772 0.0
C1992 C 0.84669 0.85036 0.67098 0.0
C1993 C 0.81463 0.85928 0.63018 0.0
C1994 C 0.80547 0.84961 0.65243 0.0
C1995 C 0.81236 0.83658 0.69608 0.0
C1996 C 0.82839 0.83304 0.71718 0.0
C1997 C 0.82135 0.84537 0.67314 0.0
C1998 C 0.85359 0.8383 0.71492 0.0
C1999 C 0.86261 0.84672 0.69205 0.0
H2000 H 0.80796 0.53525 0.57306 0.0
H2001 H 0.76392 0.47098 0.5068 0.0
H2002 H 0.7275 0.48605 0.5153 0.0
H2003 H 0.70855 0.51765 0.5417 0.0
H2004 H 0.75378 0.58284 0.60665 0.0
H2005 H 0.78939 0.56649 0.59899 0.0
C2006 C 0.79046 0.52457 0.56031 0.0
C2007 C 0.78864 0.50226 0.53914 0.0
C2008 C 0.76981 0.53323 0.56534 0.0
C2009 C 0.76577 0.48843 0.52306 0.0
C2010 C 0.74498 0.49695 0.52798 0.0
C2011 C 0.72625 0.52844 0.554 0.0
C2012 C 0.72851 0.55145 0.5747 0.0
C2013 C 0.74684 0.5194 0.54905 0.0
C2014 C 0.75144 0.56482 0.59086 0.0
C2015 C 0.77188 0.55568 0.58633 0.0
H2016 H 0.2167 0.14999 0.48139 0.0
H2017 H 0.25306 0.14159 0.5566 0.0
H2018 H 0.21402 0.11442 0.56676 0.0
H2019 H 0.16934 0.09153 0.55387 0.0
H2020 H 0.13356 0.09545 0.47671 0.0
H2021 H 0.17207 0.12572 0.4678 0.0
C2022 C 0.21603 0.14199 0.49986 0.0
C2023 C 0.23787 0.14753 0.51799 0.0
C2024 C 0.19345 0.12565 0.50536 0.0
C2025 C 0.23666 0.13714 0.54196 0.0
C2026 C 0.21426 0.12177 0.54795 0.0
C2027 C 0.16997 0.09942 0.53533 0.0
C2028 C 0.14861 0.09175 0.51615 0.0
C2029 C 0.1925 0.11577 0.5298 0.0
C2030 C 0.14978 0.10141 0.49187 0.0
C2031 C 0.17182 0.11858 0.48671 0.0
H2032 H 0.23244 0.92429 0.78213 0.0
H2033 H 0.28711 0.97723 0.74612 0.0
H2034 H 0.30986 0.94251 0.74236 0.0
H2035 H 0.31548 0.89612 0.74915 0.0
H2036 H 0.25911 0.84134 0.78157 0.0
H2037 H 0.23687 0.87659 0.78654 0.0
C2038 C 0.24933 0.92851 0.77343 0.0
C2039 C 0.25759 0.95464 0.7647 0.0
C2040 C 0.26252 0.90743 0.77052 0.0
C2041 C 0.27967 0.9582 0.75324 0.0
C2042 C 0.29296 0.93797 0.75105 0.0
C2043 C 0.29827 0.89156 0.75724 0.0
C2044 C 0.28955 0.86497 0.76492 0.0
C2045 C 0.28477 0.91231 0.75957 0.0
C2046 C 0.26687 0.86074 0.7752 0.0
C2047 C 0.25393 0.88132 0.77817 0.0
H2048 H 0.41451 1.01984 0.03781 0.0
H2049 H 0.40609 0.96174 0.96306 0.0
H2050 H 0.45076 0.97037 0.96721 0.0
H2051 H 0.49183 0.99264 0.99336 0.0
H2052 H 0.49988 0.04803 0.06983 0.0
H2053 H 0.45558 0.04206 0.06398 0.0
C2054 C 0.42258 1.00969 0.02212 0.0
C2055 C 0.40733 0.99067 0.99991 0.0
C2056 C 0.44804 1.01376 0.0253 0.0
C2057 C 0.41773 0.97682 0.9801 0.0
C2058 C 0.44315 0.98153 0.9826 0.0
C2059 C 0.48379 1.0032 1.00879 0.0
C2060 C 0.49884 1.02038 0.03212 0.0
C2061 C 0.4584 0.99953 1.00538 0.0
C2062 C 0.48843 0.03415 0.05198 0.0
C2063 C 0.4632 0.03103 0.0485 0.0
H2064 H 0.90108 0.60665 0.76703 0.0
H2065 H 0.90339 0.63328 0.8524 0.0
H2066 H 0.87056 0.65491 0.84372 0.0
H2067 H 0.84079 0.6641 0.81193 0.0
H2068 H 0.8438 0.64511 0.72645 0.0
H2069 H 0.87403 0.62045 0.73503 0.0
C2070 C 0.89451 0.61759 0.7836 0.0
C2071 C 0.90429 0.61885 0.81019 0.0
C2072 C 0.87627 0.63029 0.77843 0.0
C2073 C 0.89605 0.63275 0.8318 0.0
C2074 C 0.87722 0.64468 0.82683 0.0
C2075 C 0.84843 0.65531 0.79508 0.0
C2076 C 0.84009 0.65671 0.7686 0.0
C2077 C 0.86717 0.64336 0.80022 0.0
C2078 C 0.84946 0.64393 0.74704 0.0
C2079 C 0.86707 0.63025 0.75191 0.0
H2080 H 0.85607 0.63205 0.06356 0.0
H2081 H 0.89065 0.69457 0.0204 0.0
H2082 H 0.92786 0.67919 0.02323 0.0
H2083 H 0.95051 0.64783 0.03789 0.0
H2084 H 0.9145 0.58353 0.07859 0.0
H2085 H 0.87818 0.60006 0.07713 0.0
C2086 C 0.87173 0.64232 0.05474 0.0
C2087 C 0.87052 0.66437 0.0417 0.0
C2088 C 0.89292 0.63316 0.05615 0.0
C2089 C 0.89099 0.67739 0.03035 0.0
C2090 C 0.91231 0.66866 0.03204 0.0
C2091 C 0.93468 0.6373 0.04628 0.0
C2092 C 0.93551 0.61464 0.05863 0.0
C2093 C 0.91346 0.64649 0.04481 0.0
C2094 C 0.91478 0.60146 0.06958 0.0
C2095 C 0.89382 0.61071 0.06853 0.0
H2096 H 0.22973 0.1406 0.80328 0.0
H2097 H 0.28537 0.09973 0.78596 0.0
H2098 H 0.31354 0.14415 0.78218 0.0
H2099 H 0.32338 0.19522 0.7836 0.0
H2100 H 0.26816 0.23683 0.79898 0.0
H2101 H 0.23946 0.19241 0.8035 0.0
C2102 C 0.2481 0.14127 0.79895 0.0
C2103 C 0.25505 0.11588 0.79543 0.0
C2104 C 0.26455 0.1675 0.79624 0.0
C2105 C 0.27904 0.11812 0.78919 0.0
C2106 C 0.29535 0.14385 0.78691 0.0
C2107 C 0.30505 0.1948 0.78793 0.0
C2108 C 0.29833 0.22019 0.79093 0.0
C2109 C 0.28846 0.16877 0.79035 0.0
C2110 C 0.2742 0.21828 0.79638 0.0
C2111 C 0.25771 0.19258 0.79909 0.0
H2112 H 0.43615 0.98876 0.30426 0.0
H2113 H 0.41019 1.00039 0.38089 0.0
H2114 H 0.37788 0.95549 0.36627 0.0
H2115 H 0.35863 0.91311 0.33214 0.0
H2116 H 0.38477 0.90301 0.25512 0.0
H2117 H 0.41551 0.94825 0.26942 0.0
C2118 C 0.42365 0.98124 0.31795 0.0
C2119 C 0.42589 0.99691 0.34396 0.0
C2120 C 0.40515 0.95627 0.30919 0.0
C2121 C 0.409 0.98795 0.3611 0.0
C2122 C 0.39057 0.96257 0.35265 0.0
C2123 C 0.3709 0.92081 0.31833 0.0
C2124 C 0.36963 0.90463 0.29266 0.0
C2125 C 0.38867 0.94656 0.32679 0.0
C2126 C 0.38547 0.91503 0.27498 0.0
C2127 C 0.40311 0.94077 0.28318 0.0
H2128 H 0.65679 0.42244 0.58851 0.0
H2129 H 0.58762 0.3845 0.61349 0.0
H2130 H 0.5701 0.41915 0.59781 0.0
H2131 H 0.57436 0.46128 0.57759 0.0
H2132 H 0.64462 0.50146 0.5562 0.0
H2133 H 0.66146 0.4654 0.56965 0.0
C2134 C 0.63787 0.42169 0.59053 0.0
C2135 C 0.62365 0.40053 0.60227 0.0
C2136 C 0.62795 0.44232 0.58197 0.0
C2137 C 0.59919 0.40037 0.60476 0.0
C2138 C 0.58906 0.42025 0.59567 0.0
C2139 C 0.59329 0.46201 0.57562 0.0
C2140 C 0.60803 0.48412 0.56548 0.0
C2141 C 0.60322 0.44144 0.58428 0.0
C2142 C 0.63269 0.48479 0.5637 0.0
C2143 C 0.6424 0.46409 0.57148 0.0
H2144 H 0.4511 0.76565 0.34335 0.0
H2145 H 0.46982 0.84794 0.39255 0.0
H2146 H 0.43224 0.85533 0.37123 0.0
H2147 H 0.39523 0.83977 0.33544 0.0
H2148 H 0.37892 0.75875 0.28421 0.0
H2149 H 0.41387 0.74971 0.30886 0.0
C2150 C 0.44686 0.78512 0.34949 0.0
C2151 C 0.46342 0.80623 0.3695 0.0
C2152 C 0.42539 0.78953 0.33656 0.0
C2153 C 0.45763 0.83144 0.37698 0.0
C2154 C 0.43601 0.83564 0.36483 0.0
C2155 C 0.39879 0.81975 0.33042 0.0
C2156 C 0.38373 0.79953 0.30849 0.0
C2157 C 0.41979 0.81499 0.34427 0.0
C2158 C 0.38957 0.7743 0.30149 0.0
C2159 C 0.40983 0.76921 0.31542 0.0
H2160 H 0.09188 0.73623 0.12074 0.0
H2161 H 0.13531 0.76178 0.0596 0.0
H2162 H 0.13496 0.71325 0.04379 0.0
H2163 H 0.12199 0.6629 0.04773 0.0
H2164 H 0.07879 0.63974 0.10973 0.0
H2165 H 0.08001 0.68809 0.12527 0.0
C2166 C 0.10122 0.7314 0.1038 0.0
C2167 C 0.11347 0.75282 0.0913 0.0
C2168 C 0.10133 0.70377 0.09527 0.0
C2169 C 0.12548 0.74578 0.06946 0.0
C2170 C 0.12546 0.71802 0.06057 0.0
C2171 C 0.11323 0.66868 0.06486 0.0
C2172 C 0.10039 0.64787 0.07772 0.0
C2173 C 0.11356 0.69678 0.07345 0.0
C2174 C 0.08877 0.65544 0.09961 0.0
C2175 C 0.08934 0.68305 0.10841 0.0
H2176 H 0.08956 0.24068 0.85844 0.0
H2177 H 0.11026 0.32143 0.91136 0.0
H2178 H 0.15011 0.33333 0.8953 0.0
H2179 H 0.17929 0.3207 0.86646 0.0
H2180 H 0.15797 0.24017 0.81288 0.0
H2181 H 0.1186 0.22817 0.82951 0.0
C2182 C 0.10273 0.26094 0.86641 0.0
C2183 C 0.09676 0.28017 0.88601 0.0
C2184 C 0.12572 0.26761 0.8572 0.0
C2185 C 0.11424 0.30623 0.89623 0.0
C2186 C 0.13709 0.31305 0.88707 0.0
C2187 C 0.16601 0.30058 0.85821 0.0
C2188 C 0.17189 0.28139 0.83841 0.0
C2189 C 0.14306 0.29389 0.86757 0.0
C2190 C 0.15439 0.25526 0.82844 0.0
C2191 C 0.13166 0.24843 0.83776 0.0
H2192 H 0.6191 0.76378 0.93606 0.0
H2193 H 0.65828 0.8216 1.00893 0.0
H2194 H 0.64536 0.78594 0.03533 0.0
H2195 H 0.62503 0.73817 0.03749 0.0
H2196 H 0.58715 0.67877 0.96521 0.0
H2197 H 0.59777 0.71514 0.93849 0.0
C2198 C 0.6246 0.76844 0.95772 0.0
C2199 C 0.63967 0.79499 0.97064 0.0
C2200 C 0.61757 0.74763 0.97273 0.0
C2201 C 0.64691 0.80105 0.99864 0.0
C2202 C 0.6395 0.78077 1.01373 0.0
C2203 C 0.61873 0.73332 1.01594 0.0
C2204 C 0.60516 0.70616 1.00326 0.0
C2205 C 0.62513 0.75399 1.00094 0.0
C2206 C 0.59766 0.69974 0.97527 0.0
C2207 C 0.60366 0.72046 0.96008 0.0
H2208 H 0.09966 0.79296 0.70207 0.0
H2209 H 0.07032 0.74163 0.7577 0.0
H2210 H 0.11167 0.74128 0.77475 0.0
H2211 H 0.15501 0.75028 0.76944 0.0
H2212 H 0.18447 0.80085 0.71341 0.0
H2213 H 0.14401 0.80688 0.70081 0.0
C2214 C 0.10243 0.78217 0.71829 0.0
C2215 C 0.08214 0.76707 0.72844 0.0
C2216 C 0.12611 0.7817 0.72766 0.0
C2217 C 0.08579 0.75341 0.74962 0.0
C2218 C 0.10936 0.75303 0.75924 0.0
C2219 C 0.15269 0.76327 0.75506 0.0
C2220 C 0.17239 0.77492 0.74214 0.0
C2221 C 0.1295 0.76637 0.7478 0.0
C2222 C 0.16927 0.79141 0.72326 0.0
C2223 C 0.14625 0.79488 0.71611 0.0
H2224 H 0.15814 0.45296 0.48452 0.0
H2225 H 0.08151 0.40738 0.45854 0.0
H2226 H 0.06924 0.44855 0.47583 0.0
H2227 H 0.08008 0.49617 0.50123 0.0
H2228 H 0.15612 0.53985 0.53293 0.0
H2229 H 0.16905 0.50121 0.50993 0.0
C2230 C 0.13883 0.45225 0.48271 0.0
C2231 C 0.12073 0.42743 0.47075 0.0
C2232 C 0.13187 0.47572 0.49335 0.0
C2233 C 0.09569 0.42636 0.4683 0.0
C2234 C 0.08867 0.44987 0.4779 0.0
C2235 C 0.0995 0.49746 0.50243 0.0
C2236 C 0.11723 0.52081 0.51809 0.0
C2237 C 0.10658 0.47452 0.49077 0.0
C2238 C 0.14229 0.52217 0.52031 0.0
C2239 C 0.14964 0.49997 0.50753 0.0
H2240 H 0.44265 0.2201 0.24237 0.0
H2241 H 0.46311 0.28583 0.19762 0.0
H2242 H 0.4333 0.30736 0.21665 0.0
H2243 H 0.40071 0.30652 0.2452 0.0
H2244 H 0.37903 0.23902 0.28743 0.0
H2245 H 0.41085 0.21945 0.27079 0.0
C2246 C 0.4406 0.23912 0.23669 0.0
C2247 C 0.45495 0.25134 0.21862 0.0
C2248 C 0.42358 0.25123 0.2476 0.0
C2249 C 0.4521 0.27596 0.21143 0.0
C2250 C 0.43522 0.28836 0.22241 0.0
C2251 C 0.40337 0.28782 0.25107 0.0
C2252 C 0.38797 0.27417 0.26756 0.0
C2253 C 0.42089 0.27614 0.24053 0.0
C2254 C 0.39094 0.24971 0.27477 0.0
C2255 C 0.40892 0.2385 0.26515 0.0
H2256 H 0.65326 0.51693 0.39493 0.0
H2257 H 0.64576 0.5966 0.38383 0.0
H2258 H 0.62811 0.60173 0.42573 0.0
H2259 H 0.61371 0.5837 0.46706 0.0
H2260 H 0.61923 0.50267 0.47605 0.0
H2261 H 0.63804 0.49851 0.43507 0.0
C2262 C 0.64785 0.53554 0.40146 0.0
C2263 C 0.65142 0.55637 0.38511 0.0
C2264 C 0.63705 0.53835 0.42613 0.0
C2265 C 0.64367 0.57996 0.39501 0.0
C2266 C 0.63343 0.583 0.41945 0.0
C2267 C 0.61924 0.56519 0.4604 0.0
C2268 C 0.61494 0.54365 0.47601 0.0
C2269 C 0.62992 0.56242 0.43552 0.0
C2270 C 0.62211 0.51987 0.46553 0.0
C2271 C 0.633 0.51737 0.44163 0.0
H2272 H 0.36572 0.95054 0.09109 0.0
H2273 H 0.31769 0.87291 0.04323 0.0
H2274 H 0.33457 0.84713 0.07283 0.0
H2275 H 0.36157 0.84715 0.11247 0.0
H2276 H 0.40929 0.92452 0.1608 0.0
H2277 H 0.39437 0.95031 0.12956 0.0
C2278 C 0.35867 0.92798 0.08723 0.0
C2279 C 0.34029 0.91359 0.06525 0.0
C2280 C 0.36889 0.91342 0.10369 0.0
C2281 C 0.3316 0.8844 0.0603 0.0
C2282 C 0.34145 0.86969 0.07694 0.0
C2283 C 0.36958 0.86956 0.11563 0.0
C2284 C 0.38688 0.88399 0.13854 0.0
C2285 C 0.36019 0.88406 0.09849 0.0
C2286 C 0.39632 0.91309 0.14293 0.0
C2287 C 0.38748 0.92776 0.12543 0.0
H2288 H 0.99752 0.56183 0.92105 0.0
H2289 H 0.05556 0.62317 0.89776 0.0
H2290 H 0.08364 0.62405 0.93793 0.0
H2291 H 0.09211 0.60374 0.97695 0.0
H2292 H 0.03595 0.535 0.99333 0.0
H2293 H 1.00618 0.5407 0.95878 0.0
C2294 C 1.01609 0.57604 0.92548 0.0
C2295 C 0.02458 0.59319 0.90771 0.0
C2296 C 0.03227 0.57479 0.9471 0.0
C2297 C 0.04882 0.61061 0.9122 0.0
C2298 C 0.06479 0.61079 0.93477 0.0
C2299 C 0.0733 0.59021 0.97293 0.0
C2300 C 0.06574 0.56975 0.98801 0.0
C2301 C 0.05684 0.59241 0.95193 0.0
C2302 C 0.04166 0.55173 0.98254 0.0
C2303 C 0.02476 0.55475 0.96268 0.0
H2304 H 0.32468 0.2246 0.61237 0.0
H2305 H 0.30042 0.29025 0.58503 0.0
H2306 H 0.2987 0.31062 0.63195 0.0
H2307 H 0.30487 0.3097 0.68152 0.0
H2308 H 0.32827 0.24228 0.70602 0.0
H2309 H 0.32895 0.22238 0.65938 0.0
C2310 C 0.31916 0.24353 0.6164 0.0
C2311 C 0.31303 0.25602 0.59496 0.0
C2312 C 0.31766 0.25458 0.64308 0.0
C2313 C 0.30554 0.2803 0.60102 0.0
C2314 C 0.3044 0.29184 0.62788 0.0
C2315 C 0.30964 0.29041 0.67643 0.0
C2316 C 0.31639 0.27733 0.69718 0.0
C2317 C 0.31036 0.2791 0.64918 0.0
C2318 C 0.32293 0.25261 0.69041 0.0
C2319 C 0.32348 0.2413 0.66375 0.0
H2320 H 0.66314 0.49917 0.19505 0.0
H2321 H 0.65113 0.57159 0.24238 0.0
H2322 H 0.63169 0.58179 0.20182 0.0
H2323 H 0.61748 0.5707 0.15158 0.0
H2324 H 0.6272 0.49644 0.10497 0.0
H2325 H 0.6471 0.48682 0.14543 0.0
C2326 C 0.65606 0.51705 0.19675 0.0
C2327 C 0.65876 0.53422 0.22279 0.0
C2328 C 0.64408 0.52272 0.1728 0.0
C2329 C 0.64928 0.55737 0.22343 0.0
C2330 C 0.63812 0.56344 0.19986 0.0
C2331 C 0.6238 0.5523 0.15008 0.0
C2332 C 0.62045 0.53451 0.12419 0.0
C2333 C 0.63526 0.54633 0.1742 0.0
C2334 C 0.62915 0.51087 0.12381 0.0
C2335 C 0.64074 0.50522 0.14731 0.0
H2336 H 0.33745 0.85631 0.93671 0.0
H2337 H 0.30435 0.91192 0.90134 0.0
H2338 H 0.30642 0.8878 0.85631 0.0
H2339 H 0.31808 0.85154 0.82746 0.0
H2340 H 0.34912 0.79434 0.86249 0.0
H2341 H 0.34828 0.81932 0.90777 0.0
C2342 C 0.33048 0.86302 0.91914 0.0
C2343 C 0.32074 0.8858 0.9222 0.0
C2344 C 0.33192 0.84928 0.89353 0.0
C2345 C 0.31171 0.89424 0.89937 0.0
C2346 C 0.31314 0.88069 0.87371 0.0
C2347 C 0.32502 0.84483 0.84504 0.0
C2348 C 0.33395 0.82149 0.84202 0.0
C2349 C 0.32347 0.85844 0.87064 0.0
C2350 C 0.3424 0.8125 0.8647 0.0
C2351 C 0.3417 0.82657 0.89041 0.0
H2352 H 0.96354 0.53475 0.74664 0.0
H2353 H 0.02937 0.60204 0.78116 0.0
H2354 H 0.05115 0.58562 0.74597 0.0
H2355 H 0.05173 0.55142 0.70698 0.0
H2356 H 0.98628 0.48459 0.6714 0.0
H2357 H 0.96377 0.50123 0.70633 0.0
C2358 C 0.98249 0.54613 0.74613 0.0
C2359 C 0.99494 0.56953 0.76621 0.0
C2360 C 0.99496 0.53621 0.7264 0.0
C2361 C 0.01954 0.58399 0.76569 0.0
C2362 C 0.032 0.57451 0.74583 0.0
C2363 C 0.03268 0.54016 0.70738 0.0
C2364 C 0.02065 0.51634 0.68776 0.0
C2365 C 0.02001 0.55035 0.72657 0.0
C2366 C 0.99578 0.50247 0.68718 0.0
C2367 C 0.983 0.51219 0.70676 0.0
H2368 H 0.27974 0.22725 0.4153 0.0
H2369 H 0.3491 0.27359 0.46466 0.0
H2370 H 0.36369 0.29334 0.42654 0.0
H2371 H 0.35677 0.29833 0.37969 0.0
H2372 H 0.28892 0.25072 0.32834 0.0
H2373 H 0.27394 0.22991 0.36623 0.0
C2374 C 0.29807 0.24158 0.41758 0.0
C2375 C 0.31333 0.24905 0.44294 0.0
C2376 C 0.30671 0.25227 0.39508 0.0
C2377 C 0.33707 0.26745 0.44548 0.0
C2378 C 0.34542 0.27874 0.42364 0.0
C2379 C 0.33882 0.28301 0.37658 0.0
C2380 C 0.32409 0.27592 0.35106 0.0
C2381 C 0.33046 0.27131 0.3984 0.0
C2382 C 0.30083 0.2562 0.34755 0.0
C2383 C 0.29218 0.24457 0.36937 0.0
H2384 H 0.39109 0.6308 0.53043 0.0
H2385 H 0.34294 0.5519 0.53821 0.0
H2386 H 0.37435 0.52899 0.52743 0.0
H2387 H 0.41617 0.53195 0.51843 0.0
H2388 H 0.46606 0.61126 0.51488 0.0
H2389 H 0.43337 0.63376 0.52138 0.0
C2390 C 0.3875 0.60855 0.52937 0.0
C2391 C 0.36492 0.59285 0.53485 0.0
C2392 C 0.40593 0.59577 0.52408 0.0
C2393 C 0.36036 0.5642 0.53402 0.0
C2394 C 0.37824 0.55115 0.52788 0.0
C2395 C 0.41964 0.55405 0.51864 0.0
C2396 C 0.44308 0.57 0.51586 0.0
C2397 C 0.40116 0.56679 0.52322 0.0
C2398 C 0.44789 0.59874 0.51683 0.0
C2399 C 0.4293 0.61152 0.52057 0.0
H2400 H 0.94362 0.93548 0.5384 0.0
H2401 H 0.93003 0.99194 0.60429 0.0
H2402 H 0.97098 0.02407 0.60641 0.0
H2403 H 1.01093 0.0364 0.58959 0.0
H2404 H 0.02303 0.98231 0.52086 0.0
H2405 H 0.98277 0.94908 0.51996 0.0
C2406 C 0.94969 0.95474 0.55332 0.0
C2407 C 0.93377 0.96106 0.57136 0.0
C2408 C 0.97315 0.97358 0.554 0.0
C2409 C 0.94183 0.98642 0.59021 0.0
C2410 C 0.96532 1.00485 0.59146 0.0
C2411 C 1.00482 1.01726 0.5745 0.0
C2412 C 0.02031 1.01157 0.5557 0.0
C2413 C 0.98118 0.99867 0.57349 0.0
C2414 C 1.01174 0.987 0.53588 0.0
C2415 C 0.98863 0.96801 0.53529 0.0
H2416 H 0.87122 0.12962 0.24736 0.0
H2417 H 0.94589 0.17669 0.28113 0.0
H2418 H 0.93375 0.21983 0.28759 0.0
H2419 H 0.90146 0.24601 0.28435 0.0
H2420 H 0.82628 0.19749 0.25383 0.0
H2421 H 0.8389 0.15514 0.24612 0.0
C2422 C 0.88503 0.1492 0.25614 0.0
C2423 C 0.90993 0.14881 0.26347 0.0
C2424 C 0.87764 0.17467 0.26072 0.0
C2425 C 0.92675 0.17526 0.27513 0.0
C2426 C 0.91971 0.20041 0.27888 0.0
C2427 C 0.88768 0.2263 0.276 0.0
C2428 C 0.86246 0.22623 0.26982 0.0
C2429 C 0.89512 0.20073 0.27188 0.0
C2430 C 0.84564 0.19947 0.25915 0.0
C2431 C 0.85294 0.17466 0.25454 0.0
H2432 H 0.73676 0.14842 0.08 0.0
H2433 H 0.73948 0.073 0.02862 0.0
H2434 H 0.69459 0.05504 0.02266 0.0
H2435 H 0.65485 0.06169 0.03072 0.0
H2436 H 0.65168 0.13514 0.0846 0.0
H2437 H 0.69688 0.15335 0.09107 0.0
C2438 C 0.72745 0.12801 0.06762 0.0
C2439 C 0.74113 0.11204 0.0546 0.0
C2440 C 0.70181 0.11776 0.06459 0.0
C2441 C 0.72915 0.08551 0.03888 0.0
C2442 C 0.70358 0.07535 0.03535 0.0
C2443 C 0.66416 0.08181 0.04367 0.0
C2444 C 0.65041 0.09767 0.05656 0.0
C2445 C 0.68979 0.09148 0.04782 0.0
C2446 C 0.66226 0.12309 0.07416 0.0
C2447 C 0.68793 0.13334 0.07787 0.0
H2448 H 0.28211 0.53411 0.28005 0.0
H2449 H 0.21428 0.47179 0.28183 0.0
H2450 H 0.23761 0.44266 0.29958 0.0
H2451 H 0.2774 0.43359 0.30976 0.0
H2452 H 0.34486 0.49603 0.30633 0.0
H2453 H 0.32151 0.5274 0.29497 0.0
C2454 C 0.27254 0.51417 0.28451 0.0
C2455 C 0.24686 0.50433 0.27917 0.0
C2456 C 0.28593 0.49802 0.29465 0.0
C2457 C 0.23423 0.47916 0.28563 0.0
C2458 C 0.2475 0.4627 0.29571 0.0
C2459 C 0.28689 0.45427 0.30693 0.0
C2460 C 0.31262 0.46263 0.30853 0.0
C2461 C 0.27336 0.4717 0.29962 0.0
C2462 C 0.32501 0.48944 0.30531 0.0
C2463 C 0.3117 0.50717 0.29853 0.0
H2464 H 0.29345 0.45523 0.03295 0.0
H2465 H 0.299 0.46139 0.11896 0.0
H2466 H 0.26334 0.47933 0.11964 0.0
H2467 H 0.23107 0.4939 0.09615 0.0
H2468 H 0.22825 0.49322 1.01091 0.0
H2469 H 0.26176 0.4719 1.00952 0.0
C2470 C 0.28675 0.46046 0.05177 0.0
C2471 C 0.29884 0.45703 0.07587 0.0
C2472 C 0.2666 0.4716 0.05216 0.0
C2473 C 0.29013 0.46407 0.10018 0.0
C2474 C 0.26969 0.47425 0.10058 0.0
C2475 C 0.23788 0.48949 0.07725 0.0
C2476 C 0.22685 0.49524 0.0537 0.0
C2477 C 0.25791 0.47832 0.07675 0.0
C2478 C 0.23581 0.48859 0.02936 0.0
C2479 C 0.25525 0.47663 0.02855 0.0
H2480 H 0.93248 0.96655 0.27992 0.0
H2481 H 0.87337 1.00261 0.26417 0.0
H2482 H 0.84335 0.95869 0.26656 0.0
H2483 H 0.83302 0.90955 0.2735 0.0
H2484 H 0.89148 0.87239 0.28794 0.0
H2485 H 0.92192 0.91643 0.28563 0.0
C2486 C 0.91303 0.96504 0.27698 0.0
C2487 C 0.90575 0.98896 0.27192 0.0
C2488 C 0.89542 0.93902 0.27815 0.0
C2489 C 0.88013 0.98545 0.2681 0.0
C2490 C 0.86275 0.95999 0.26949 0.0
C2491 C 0.85242 0.91082 0.27609 0.0
C2492 C 0.85947 0.88682 0.281 0.0
C2493 C 0.87004 0.93655 0.27455 0.0
C2494 C 0.88499 0.88978 0.28416 0.0
C2495 C 0.90255 0.91529 0.28286 0.0
H2496 H 0.75693 0.13714 0.7875 0.0
H2497 H 0.70869 0.1464 0.72093 0.0
H2498 H 0.73629 0.19285 0.72185 0.0
H2499 H 0.77418 0.2302 0.74167 0.0
H2500 H 0.82047 0.22121 0.80988 0.0
H2501 H 0.79372 0.17423 0.80779 0.0
C2502 C 0.75247 0.14925 0.77307 0.0
C2503 C 0.73117 0.13855 0.75391 0.0
C2504 C 0.76817 0.17546 0.77379 0.0
C2505 C 0.72518 0.1545 0.73576 0.0
C2506 C 0.74095 0.1808 0.73618 0.0
C2507 C 0.77844 0.21757 0.75566 0.0
C2508 C 0.79902 0.22831 0.7756 0.0
C2509 C 0.76257 0.19129 0.75495 0.0
C2510 C 0.80454 0.2127 0.79429 0.0
C2511 C 0.78929 0.18614 0.79319 0.0
loop_
_geom_bond_atom_site_label_1
_geom_bond_atom_site_label_2
_geom_bond_distance
_geom_bond_site_symmetry_2
_ccdc_geom_bond_type
O0 Cd1 2.223 . S
O0 C8 1.315 . S
Cd1 O0 2.223 . S
Cd1 O4 2.297 . S
Cd1 O5 2.439 . S
Cd1 O11 2.240 . S
Cd2 O3 2.240 . S
Cd2 O10 2.223 . S
Cd2 O12 2.297 . S
Cd2 O13 2.439 . S
O3 Cd2 2.240 . S
O3 C8 1.279 . S
O4 Cd1 2.297 . S
O4 C6 1.247 . S
O5 Cd1 2.439 . S
O5 C6 1.208 . S
C6 O4 1.247 . S
C6 O5 1.208 . S
C7 O12 1.247 . S
C7 O13 1.208 . S
C8 O0 1.315 . S
C8 O3 1.279 . S
C9 O10 1.315 . S
C9 O11 1.279 . S
O10 Cd2 2.223 . S
O10 C9 1.315 . S
O11 Cd1 2.240 . S
O11 C9 1.279 . S
O12 Cd2 2.297 . S
O12 C7 1.247 . S
O13 Cd2 2.439 . S
O13 C7 1.208 . S
O14 Cd15 2.223 . S
O14 C22 1.315 . S
Cd15 O14 2.223 . S
Cd15 O18 2.297 . S
Cd15 O19 2.439 . S
Cd15 O25 2.240 1_655 S
Cd16 O17 2.240 1_455 S
Cd16 O24 2.223 . S
Cd16 O26 2.297 . S
Cd16 O27 2.456 . S
O17 Cd16 2.240 1_655 S
O17 C22 1.279 . S
O18 Cd15 2.297 . S
O18 C20 1.247 . S
O19 Cd15 2.439 . S
O19 C20 1.208 . S
C20 O18 1.247 . S
C20 O19 1.208 . S
C21 O26 1.247 . S
C21 O27 1.228 . S
C22 O14 1.315 . S
C22 O17 1.279 . S
C23 O24 1.315 . S
C23 O25 1.279 . S
O24 Cd16 2.223 . S
O24 C23 1.315 . S
O25 Cd15 2.240 1_455 S
O25 C23 1.279 . S
O26 Cd16 2.297 . S
O26 C21 1.247 . S
O27 Cd16 2.456 . S
O27 C21 1.228 . S
O28 Cd29 2.223 . S
O28 C36 1.315 . S
Cd29 O28 2.223 . S
Cd29 O32 2.297 . S
Cd29 O33 2.439 . S
Cd29 O39 2.240 . S
Cd30 O31 2.240 . S
Cd30 O38 2.223 . S
Cd30 O40 2.297 . S
Cd30 O41 2.439 . S
O31 Cd30 2.240 . S
O31 C36 1.279 . S
O32 Cd29 2.297 . S
O32 C34 1.247 . S
O33 Cd29 2.439 . S
O33 C34 1.208 . S
C34 O32 1.247 . S
C34 O33 1.208 . S
C35 O40 1.247 . S
C35 O41 1.208 . S
C36 O28 1.315 . S
C36 O31 1.279 . S
C37 O38 1.315 . S
C37 O39 1.279 . S
O38 Cd30 2.223 . S
O38 C37 1.315 . S
O39 Cd29 2.240 . S
O39 C37 1.279 . S
O40 Cd30 2.297 . S
O40 C35 1.247 . S
O41 Cd30 2.439 . S
O41 C35 1.208 . S
O42 Cd43 2.223 . S
O42 C50 1.315 . S
Cd43 O42 2.223 . S
Cd43 O46 2.297 . S
Cd43 O47 2.439 . S
Cd43 O53 2.240 . S
Cd44 O45 2.240 . S
Cd44 O52 2.223 . S
Cd44 O54 2.297 . S
Cd44 O55 2.439 . S
O45 Cd44 2.240 . S
O45 C50 1.279 . S
O46 Cd43 2.297 . S
O46 C48 1.247 . S
O47 Cd43 2.439 . S
O47 C48 1.208 . S
C48 O46 1.247 . S
C48 O47 1.208 . S
C49 O54 1.247 . S
C49 O55 1.208 . S
C50 O42 1.315 . S
C50 O45 1.279 . S
C51 O52 1.315 . S
C51 O53 1.279 . S
O52 Cd44 2.223 . S
O52 C51 1.315 . S
O53 Cd43 2.240 . S
O53 C51 1.279 . S
O54 Cd44 2.297 . S
O54 C49 1.247 . S
O55 Cd44 2.439 . S
O55 C49 1.208 . S
O56 Cd57 2.223 . S
O56 C64 1.315 . S
Cd57 O56 2.223 . S
Cd57 O60 2.297 . S
Cd57 O61 2.439 . S
Cd57 O67 2.240 . S
Cd58 O59 2.240 . S
Cd58 O66 2.223 . S
Cd58 O68 2.297 . S
Cd58 O69 2.439 . S
O59 Cd58 2.240 . S
O59 C64 1.279 . S
O60 Cd57 2.297 . S
O60 C62 1.247 . S
O61 Cd57 2.439 . S
O61 C62 1.208 . S
C62 O60 1.247 . S
C62 O61 1.208 . S
C63 O68 1.247 . S
C63 O69 1.208 . S
C64 O56 1.315 . S
C64 O59 1.279 . S
C65 O66 1.315 . S
C65 O67 1.279 . S
O66 Cd58 2.223 . S
O66 C65 1.315 . S
O67 Cd57 2.240 . S
O67 C65 1.279 . S
O68 Cd58 2.297 . S
O68 C63 1.247 . S
O69 Cd58 2.439 . S
O69 C63 1.208 . S
O70 Cd71 2.223 . S
O70 C78 1.315 . S
Cd71 O70 2.223 . S
Cd71 O74 2.297 . S
Cd71 O75 2.439 . S
Cd71 O81 2.240 . S
Cd72 O73 2.240 . S
Cd72 O80 2.223 . S
Cd72 O82 2.297 . S
Cd72 O83 2.439 . S
O73 Cd72 2.240 . S
O73 C78 1.279 . S
O74 Cd71 2.297 . S
O74 C76 1.247 . S
O75 Cd71 2.439 . S
O75 C76 1.208 . S
C76 O74 1.247 . S
C76 O75 1.208 . S
C77 O82 1.247 . S
C77 O83 1.208 . S
C78 O70 1.315 . S
C78 O73 1.279 . S
C79 O80 1.315 . S
C79 O81 1.279 . S
O80 Cd72 2.223 . S
O80 C79 1.315 . S
O81 Cd71 2.240 . S
O81 C79 1.279 . S
O82 Cd72 2.297 . S
O82 C77 1.247 . S
O83 Cd72 2.439 . S
O83 C77 1.208 . S
O84 Cd85 2.223 . S
O84 C92 1.315 . S
Cd85 O84 2.223 . S
Cd85 O88 2.297 . S
Cd85 O89 2.439 . S
Cd85 O95 2.240 . S
Cd86 O87 2.240 . S
Cd86 O94 2.223 . S
Cd86 O96 2.297 . S
Cd86 O97 2.439 . S
O87 Cd86 2.240 . S
O87 C92 1.279 . S
O88 Cd85 2.297 . S
O88 C90 1.247 . S
O89 Cd85 2.439 . S
O89 C90 1.208 . S
C90 O88 1.247 . S
C90 O89 1.208 . S
C91 O96 1.247 . S
C91 O97 1.208 . S
C92 O84 1.315 . S
C92 O87 1.279 . S
C93 O94 1.315 . S
C93 O95 1.279 . S
O94 Cd86 2.223 . S
O94 C93 1.315 . S
O95 Cd85 2.240 . S
O95 C93 1.279 . S
O96 Cd86 2.297 . S
O96 C91 1.247 . S
O97 Cd86 2.439 . S
O97 C91 1.208 . S
O98 Cd99 2.223 . S
O98 C106 1.315 . S
Cd99 O98 2.223 . S
Cd99 O102 2.297 . S
Cd99 O103 2.439 . S
Cd99 O109 2.240 . S
Cd100 O101 2.240 . S
Cd100 O108 2.223 1_455 S
Cd100 O110 2.297 . S
Cd100 O111 2.439 . S
O101 Cd100 2.240 . S
O101 C106 1.279 . S
O102 Cd99 2.297 . S
O102 C104 1.247 . S
O103 Cd99 2.439 . S
O103 C104 1.208 . S
C104 O102 1.247 . S
C104 O103 1.208 . S
C105 O110 1.247 . S
C105 O111 1.208 . S
C106 O98 1.315 . S
C106 O101 1.279 . S
C107 O108 1.315 . S
C107 O109 1.279 1_655 S
O108 Cd100 2.223 1_655 S
O108 C107 1.315 . S
O109 Cd99 2.240 . S
O109 C107 1.279 1_455 S
O110 Cd100 2.297 . S
O110 C105 1.247 . S
O111 Cd100 2.439 . S
O111 C105 1.208 . S
O112 Cd113 2.223 1_565 S
O112 C120 1.314 . S
Cd113 O112 2.223 1_545 S
Cd113 O116 2.297 . S
Cd113 O117 2.439 . S
Cd113 O123 2.240 1_545 S
Cd114 O115 2.240 1_565 S
Cd114 O122 2.223 . S
Cd114 O124 2.297 . S
Cd114 O125 2.439 1_565 S
O115 Cd114 2.240 1_545 S
O115 C120 1.275 1_545 S
O116 Cd113 2.297 . S
O116 C118 1.247 . S
O117 Cd113 2.439 . S
O117 C118 1.208 . S
C118 O116 1.247 . S
C118 O117 1.208 . S
C119 O124 1.247 1_545 S
C119 O125 1.208 . S
C120 O112 1.314 . S
C120 O115 1.275 1_565 S
C121 O122 1.315 . S
C121 O123 1.279 . S
O122 Cd114 2.223 . S
O122 C121 1.315 . S
O123 Cd113 2.240 1_565 S
O123 C121 1.279 . S
O124 Cd114 2.297 . S
O124 C119 1.247 1_565 S
O125 Cd114 2.439 1_545 S
O125 C119 1.208 . S
O126 Cd127 2.223 . S
O126 C134 1.315 . S
Cd127 O126 2.223 . S
Cd127 O130 2.297 . S
Cd127 O131 2.439 . S
Cd127 O137 2.240 . S
Cd128 O129 2.240 . S
Cd128 O136 2.223 . S
Cd128 O138 2.297 . S
Cd128 O139 2.439 . S
O129 Cd128 2.240 . S
O129 C134 1.279 . S
O130 Cd127 2.297 . S
O130 C132 1.247 . S
O131 Cd127 2.439 . S
O131 C132 1.208 . S
C132 O130 1.247 . S
C132 O131 1.208 . S
C133 O138 1.247 . S
C133 O139 1.208 . S
C134 O126 1.315 . S
C134 O129 1.279 . S
C135 O136 1.315 . S
C135 O137 1.279 . S
O136 Cd128 2.223 . S
O136 C135 1.315 . S
O137 Cd127 2.240 . S
O137 C135 1.279 . S
O138 Cd128 2.297 . S
O138 C133 1.247 . S
O139 Cd128 2.439 . S
O139 C133 1.208 . S
O140 Cd141 2.210 1_545 S
O140 C148 1.315 1_545 S
Cd141 O140 2.210 1_565 S
Cd141 O144 2.325 . S
Cd141 O145 2.464 . S
Cd141 O151 2.217 1_565 S
Cd142 O143 2.240 1_545 S
Cd142 O150 2.223 . S
Cd142 O152 2.297 . S
Cd142 O153 2.439 1_545 S
O143 Cd142 2.240 1_565 S
O143 C148 1.279 . S
O144 Cd141 2.325 . S
O144 C146 1.247 . S
O145 Cd141 2.464 . S
O145 C146 1.208 . S
C146 O144 1.247 . S
C146 O145 1.208 . S
C147 O152 1.247 . S
C147 O153 1.208 1_545 S
C148 O140 1.315 1_565 S
C148 O143 1.279 . S
C149 O150 1.315 . S
C149 O151 1.279 . S
O150 Cd142 2.223 . S
O150 C149 1.315 . S
O151 Cd141 2.217 1_545 S
O151 C149 1.279 . S
O152 Cd142 2.297 . S
O152 C147 1.247 . S
O153 Cd142 2.439 1_565 S
O153 C147 1.208 1_565 S
O154 Cd155 2.223 . S
O154 C162 1.315 . S
Cd155 O154 2.223 . S
Cd155 O158 2.297 . S
Cd155 O159 2.439 1_554 S
Cd155 O165 2.227 1_554 S
Cd156 O157 2.240 1_556 S
Cd156 O164 2.223 1_556 S
Cd156 O166 2.297 . S
Cd156 O167 2.439 . S
O157 Cd156 2.240 1_554 S
O157 C162 1.279 . S
O158 Cd155 2.297 . S
O158 C160 1.247 . S
O159 Cd155 2.439 1_556 S
O159 C160 1.208 1_556 S
C160 O158 1.247 . S
C160 O159 1.208 1_554 S
C161 O166 1.247 . S
C161 O167 1.208 . S
C162 O154 1.315 . S
C162 O157 1.279 . S
C163 O164 1.315 . S
C163 O165 1.271 1_554 S
O164 Cd156 2.223 1_554 S
O164 C163 1.315 . S
O165 Cd155 2.227 1_556 S
O165 C163 1.271 1_556 S
O166 Cd156 2.297 . S
O166 C161 1.247 . S
O167 Cd156 2.439 . S
O167 C161 1.208 . S
O168 Cd169 2.223 . S
O168 C176 1.315 . S
Cd169 O168 2.223 . S
Cd169 O172 2.297 . S
Cd169 O173 2.439 . S
Cd169 O179 2.240 . S
Cd170 O171 2.240 . S
Cd170 O178 2.223 . S
Cd170 O180 2.297 1_554 S
Cd170 O181 2.439 1_554 S
O171 Cd170 2.240 . S
O171 C176 1.279 . S
O172 Cd169 2.297 . S
O172 C174 1.247 . S
O173 Cd169 2.439 . S
O173 C174 1.208 . S
C174 O172 1.247 . S
C174 O173 1.208 . S
C175 O180 1.247 . S
C175 O181 1.208 . S
C176 O168 1.315 . S
C176 O171 1.279 . S
C177 O178 1.315 . S
C177 O179 1.279 . S
O178 Cd170 2.223 . S
O178 C177 1.315 . S
O179 Cd169 2.240 . S
O179 C177 1.279 . S
O180 Cd170 2.297 1_556 S
O180 C175 1.247 . S
O181 Cd170 2.439 1_556 S
O181 C175 1.208 . S
O182 Cd183 2.223 . S
O182 C190 1.315 . S
Cd183 O182 2.223 . S
Cd183 O186 2.297 . S
Cd183 O187 2.439 . S
Cd183 O193 2.240 . S
Cd184 O185 2.240 . S
Cd184 O192 2.223 . S
Cd184 O194 2.297 1_554 S
Cd184 O195 2.439 1_554 S
O185 Cd184 2.240 . S
O185 C190 1.279 . S
O186 Cd183 2.297 . S
O186 C188 1.247 . S
O187 Cd183 2.439 . S
O187 C188 1.208 . S
C188 O186 1.247 . S
C188 O187 1.208 . S
C189 O194 1.247 . S
C189 O195 1.208 . S
C190 O182 1.315 . S
C190 O185 1.279 . S
C191 O192 1.315 . S
C191 O193 1.279 . S
O192 Cd184 2.223 . S
O192 C191 1.315 . S
O193 Cd183 2.240 . S
O193 C191 1.279 . S
O194 Cd184 2.297 1_556 S
O194 C189 1.247 . S
O195 Cd184 2.439 1_556 S
O195 C189 1.208 . S
O196 Cd197 2.223 . S
O196 C204 1.315 . S
Cd197 O196 2.223 . S
Cd197 O200 2.297 . S
Cd197 O201 2.439 . S
Cd197 O207 2.240 . S
Cd198 O199 2.240 . S
Cd198 O206 2.223 . S
Cd198 O208 2.297 . S
Cd198 O209 2.439 . S
O199 Cd198 2.240 . S
O199 C204 1.279 . S
O200 Cd197 2.297 . S
O200 C202 1.247 . S
O201 Cd197 2.439 . S
O201 C202 1.208 . S
C202 O200 1.247 . S
C202 O201 1.208 . S
C203 O208 1.247 . S
C203 O209 1.208 . S
C204 O196 1.315 . S
C204 O199 1.279 . S
C205 O206 1.315 . S
C205 O207 1.279 . S
O206 Cd198 2.223 . S
O206 C205 1.315 . S
O207 Cd197 2.240 . S
O207 C205 1.279 . S
O208 Cd198 2.297 . S
O208 C203 1.247 . S
O209 Cd198 2.439 . S
O209 C203 1.208 . S
O210 Cd211 2.223 . S
O210 C218 1.315 . S
Cd211 O210 2.223 . S
Cd211 O214 2.297 . S
Cd211 O215 2.439 . S
Cd211 O221 2.240 . S
Cd212 O213 2.240 . S
Cd212 O220 2.223 . S
Cd212 O222 2.297 . S
Cd212 O223 2.439 . S
O213 Cd212 2.240 . S
O213 C218 1.279 . S
O214 Cd211 2.297 . S
O214 C216 1.247 . S
O215 Cd211 2.439 . S
O215 C216 1.208 . S
C216 O214 1.247 . S
C216 O215 1.208 . S
C217 O222 1.247 . S
C217 O223 1.208 . S
C218 O210 1.315 . S
C218 O213 1.279 . S
C219 O220 1.315 . S
C219 O221 1.279 . S
O220 Cd212 2.223 . S
O220 C219 1.315 . S
O221 Cd211 2.240 . S
O221 C219 1.279 . S
O222 Cd212 2.297 . S
O222 C217 1.247 . S
O223 Cd212 2.439 . S
O223 C217 1.208 . S
O224 Cd225 2.223 . S
O224 C232 1.315 . S
Cd225 O224 2.223 . S
Cd225 O228 2.297 . S
Cd225 O229 2.439 . S
Cd225 O235 2.240 . S
Cd226 O227 2.240 . S
Cd226 O234 2.223 . S
Cd226 O236 2.297 . S
Cd226 O237 2.439 . S
O227 Cd226 2.240 . S
O227 C232 1.279 . S
O228 Cd225 2.297 . S
O228 C230 1.247 . S
O229 Cd225 2.439 . S
O229 C230 1.208 . S
C230 O228 1.247 . S
C230 O229 1.208 . S
C231 O236 1.247 . S
C231 O237 1.208 . S
C232 O224 1.315 . S
C232 O227 1.279 . S
C233 O234 1.315 . S
C233 O235 1.279 . S
O234 Cd226 2.223 . S
O234 C233 1.315 . S
O235 Cd225 2.240 . S
O235 C233 1.279 . S
O236 Cd226 2.297 . S
O236 C231 1.247 . S
O237 Cd226 2.439 . S
O237 C231 1.208 . S
O238 Cd239 2.223 . S
O238 C246 1.315 . S
Cd239 O238 2.223 . S
Cd239 O242 2.297 . S
Cd239 O243 2.439 . S
Cd239 O249 2.240 . S
Cd240 O241 2.240 . S
Cd240 O248 2.223 . S
Cd240 O250 2.297 . S
Cd240 O251 2.439 . S
O241 Cd240 2.240 . S
O241 C246 1.279 . S
O242 Cd239 2.297 . S
O242 C244 1.247 . S
O243 Cd239 2.439 . S
O243 C244 1.208 . S
C244 O242 1.247 . S
C244 O243 1.208 . S
C245 O250 1.247 . S
C245 O251 1.208 . S
C246 O238 1.315 . S
C246 O241 1.279 . S
C247 O248 1.315 . S
C247 O249 1.279 . S
O248 Cd240 2.223 . S
O248 C247 1.315 . S
O249 Cd239 2.240 . S
O249 C247 1.279 . S
O250 Cd240 2.297 . S
O250 C245 1.247 . S
O251 Cd240 2.439 . S
O251 C245 1.208 . S
O252 Cd253 2.223 . S
O252 C260 1.315 . S
Cd253 O252 2.223 . S
Cd253 O256 2.297 . S
Cd253 O257 2.439 . S
Cd253 O263 2.240 . S
Cd254 O255 2.240 . S
Cd254 O262 2.223 . S
Cd254 O264 2.297 . S
Cd254 O265 2.439 . S
O255 Cd254 2.240 . S
O255 C260 1.279 . S
O256 Cd253 2.297 . S
O256 C258 1.247 . S
O257 Cd253 2.439 . S
O257 C258 1.208 . S
C258 O256 1.247 . S
C258 O257 1.208 . S
C259 O264 1.247 . S
C259 O265 1.208 . S
C260 O252 1.315 . S
C260 O255 1.279 . S
C261 O262 1.315 . S
C261 O263 1.279 . S
O262 Cd254 2.223 . S
O262 C261 1.315 . S
O263 Cd253 2.240 . S
O263 C261 1.279 . S
O264 Cd254 2.297 . S
O264 C259 1.247 . S
O265 Cd254 2.439 . S
O265 C259 1.208 . S
O266 Cd267 2.223 . S
O266 C274 1.315 . S
Cd267 O266 2.223 . S
Cd267 O270 2.297 . S
Cd267 O271 2.439 . S
Cd267 O277 2.240 . S
Cd268 O269 2.240 . S
Cd268 O276 2.223 . S
Cd268 O278 2.297 . S
Cd268 O279 2.439 . S
O269 Cd268 2.240 . S
O269 C274 1.279 . S
O270 Cd267 2.297 . S
O270 C272 1.247 . S
O271 Cd267 2.439 . S
O271 C272 1.208 . S
C272 O270 1.247 . S
C272 O271 1.208 . S
C273 O278 1.247 . S
C273 O279 1.208 . S
C274 O266 1.315 . S
C274 O269 1.279 . S
C275 O276 1.315 . S
C275 O277 1.279 . S
O276 Cd268 2.223 . S
O276 C275 1.315 . S
O277 Cd267 2.240 . S
O277 C275 1.279 . S
O278 Cd268 2.297 . S
O278 C273 1.247 . S
O279 Cd268 2.439 . S
O279 C273 1.208 . S
O280 Cd281 2.223 . S
O280 C288 1.315 . S
Cd281 O280 2.223 . S
Cd281 O284 2.297 . S
Cd281 O285 2.439 . S
Cd281 O291 2.240 . S
Cd282 O283 2.240 . S
Cd282 O290 2.223 . S
Cd282 O292 2.297 1_554 S
Cd282 O293 2.439 1_554 S
O283 Cd282 2.240 . S
O283 C288 1.279 . S
O284 Cd281 2.297 . S
O284 C286 1.247 . S
O285 Cd281 2.439 . S
O285 C286 1.208 . S
C286 O284 1.247 . S
C286 O285 1.208 . S
C287 O292 1.247 . S
C287 O293 1.208 . S
C288 O280 1.315 . S
C288 O283 1.279 . S
C289 O290 1.315 . S
C289 O291 1.279 . S
O290 Cd282 2.223 . S
O290 C289 1.315 . S
O291 Cd281 2.240 . S
O291 C289 1.279 . S
O292 Cd282 2.297 1_556 S
O292 C287 1.247 . S
O293 Cd282 2.439 1_556 S
O293 C287 1.208 . S
O294 Cd295 2.223 . S
O294 C302 1.315 . S
Cd295 O294 2.223 . S
Cd295 O298 2.297 . S
Cd295 O299 2.439 . S
Cd295 O305 2.240 . S
Cd296 O297 2.240 . S
Cd296 O304 2.223 . S
Cd296 O306 2.297 . S
Cd296 O307 2.439 . S
O297 Cd296 2.240 . S
O297 C302 1.279 . S
O298 Cd295 2.297 . S
O298 C300 1.247 . S
O299 Cd295 2.439 . S
O299 C300 1.208 . S
C300 O298 1.247 . S
C300 O299 1.208 . S
C301 O306 1.247 . S
C301 O307 1.208 . S
C302 O294 1.315 . S
C302 O297 1.279 . S
C303 O304 1.315 . S
C303 O305 1.279 . S
O304 Cd296 2.223 . S
O304 C303 1.315 . S
O305 Cd295 2.240 . S
O305 C303 1.279 . S
O306 Cd296 2.297 . S
O306 C301 1.247 . S
O307 Cd296 2.439 . S
O307 C301 1.208 . S
O308 Cd309 2.223 . S
O308 C316 1.315 . S
Cd309 O308 2.223 . S
Cd309 O312 2.297 . S
Cd309 O313 2.439 . S
Cd309 O319 2.240 . S
Cd310 O311 2.240 . S
Cd310 O318 2.223 . S
Cd310 O320 2.297 . S
Cd310 O321 2.439 . S
O311 Cd310 2.240 . S
O311 C316 1.279 . S
O312 Cd309 2.297 . S
O312 C314 1.247 . S
O313 Cd309 2.439 . S
O313 C314 1.208 . S
C314 O312 1.247 . S
C314 O313 1.208 . S
C315 O320 1.247 . S
C315 O321 1.208 . S
C316 O308 1.315 . S
C316 O311 1.279 . S
C317 O318 1.315 . S
C317 O319 1.279 . S
O318 Cd310 2.223 . S
O318 C317 1.315 . S
O319 Cd309 2.240 . S
O319 C317 1.279 . S
O320 Cd310 2.297 . S
O320 C315 1.247 . S
O321 Cd310 2.439 . S
O321 C315 1.208 . S
O322 Cd323 2.223 . S
O322 C330 1.315 . S
Cd323 O322 2.223 . S
Cd323 O326 2.297 . S
Cd323 O327 2.439 . S
Cd323 O333 2.240 . S
Cd324 O325 2.240 . S
Cd324 O332 2.223 . S
Cd324 O334 2.297 . S
Cd324 O335 2.439 . S
O325 Cd324 2.240 . S
O325 C330 1.279 . S
O326 Cd323 2.297 . S
O326 C328 1.247 . S
O327 Cd323 2.439 . S
O327 C328 1.208 . S
C328 O326 1.247 . S
C328 O327 1.208 . S
C329 O334 1.247 . S
C329 O335 1.208 . S
C330 O322 1.315 . S
C330 O325 1.279 . S
C331 O332 1.315 . S
C331 O333 1.279 . S
O332 Cd324 2.223 . S
O332 C331 1.315 . S
O333 Cd323 2.240 . S
O333 C331 1.279 . S
O334 Cd324 2.297 . S
O334 C329 1.247 . S
O335 Cd324 2.439 . S
O335 C329 1.208 . S
Gd336 C339 2.818 1_455 S
Gd336 O356 2.377 . S
Gd336 O358 2.448 1_454 S
Gd336 O359 2.506 1_455 S
Gd336 O360 2.435 1_554 S
Gd336 O361 2.717 . S
Gd336 O363 2.395 1_545 S
Gd336 O367 2.327 . S
Gd337 C348 2.818 . S
Gd337 O357 2.395 . S
Gd337 O361 2.327 . S
Gd337 O362 2.377 . S
Gd337 O364 2.448 . S
Gd337 O365 2.506 . S
Gd337 O366 2.435 . S
Gd337 O367 2.717 . S
C338 O356 1.240 . S
C338 O357 1.240 . S
C339 Gd336 2.818 1_655 S
C339 C340 1.510 1_554 S
C339 O358 1.249 1_554 S
C339 O359 1.252 . S
C340 C339 1.510 1_556 S
C340 C341 1.404 . S
C340 C342 1.352 1_556 S
C341 C340 1.404 . S
C341 C345 1.389 . S
C341 H368 0.930 . S
C342 C340 1.352 1_554 S
C342 C344 1.374 . S
C342 H369 0.931 . S
C343 C344 1.359 1_556 S
C343 C345 1.364 . S
C344 C342 1.374 . S
C344 C343 1.359 1_554 S
C344 H370 0.931 . S
C345 C341 1.389 . S
C345 C343 1.364 . S
C345 H371 0.931 . S
C346 O360 1.256 . S
C346 O361 1.257 1_556 S
C347 O362 1.240 1_565 S
C347 O363 1.240 . S
C348 Gd337 2.818 . S
C348 C349 1.510 . S
C348 O364 1.249 . S
C348 O365 1.252 . S
C349 C348 1.510 . S
C349 C350 1.404 . S
C349 C351 1.352 . S
C350 C349 1.404 . S
C350 C354 1.389 . S
C350 H372 0.930 . S
C351 C349 1.352 . S
C351 C353 1.374 . S
C351 H373 0.931 . S
C352 C353 1.359 . S
C352 C354 1.364 . S
C353 C351 1.374 . S
C353 C352 1.359 . S
C353 H374 0.931 1_545 S
C354 C350 1.389 . S
C354 C352 1.364 . S
C354 H375 0.931 . S
C355 O366 1.256 . S
C355 O367 1.257 . S
O356 Gd336 2.377 . S
O356 C338 1.240 . S
O357 Gd337 2.395 . S
O357 C338 1.240 . S
O358 Gd336 2.448 1_656 S
O358 C339 1.249 1_556 S
O359 Gd336 2.506 1_655 S
O359 C339 1.252 . S
O360 Gd336 2.435 1_556 S
O360 C346 1.256 . S
O361 Gd336 2.717 . S
O361 Gd337 2.327 . S
O361 C346 1.257 1_554 S
O362 Gd337 2.377 . S
O362 C347 1.240 1_545 S
O363 Gd336 2.395 1_565 S
O363 C347 1.240 . S
O364 Gd337 2.448 . S
O364 C348 1.249 . S
O365 Gd337 2.506 . S
O365 C348 1.252 . S
O366 Gd337 2.435 . S
O366 C355 1.256 . S
O367 Gd336 2.327 . S
O367 Gd337 2.717 . S
O367 C355 1.257 . S
H368 C341 0.930 . S
H369 C342 0.931 . S
H370 C344 0.931 . S
H371 C345 0.931 . S
H372 C350 0.930 . S
H373 C351 0.931 . S
H374 C353 0.931 1_565 S
H375 C354 0.931 . S
Gd376 C379 2.818 . S
Gd376 O396 2.377 . S
Gd376 O398 2.448 . S
Gd376 O399 2.506 . S
Gd376 O400 2.435 . S
Gd376 O401 2.717 . S
Gd376 O403 2.395 . S
Gd376 O407 2.327 . S
Gd377 C388 2.818 . S
Gd377 O397 2.395 . S
Gd377 O401 2.327 . S
Gd377 O402 2.377 . S
Gd377 O404 2.448 . S
Gd377 O405 2.506 . S
Gd377 O406 2.435 . S
Gd377 O407 2.717 . S
C378 O396 1.240 . S
C378 O397 1.240 . S
C379 Gd376 2.818 . S
C379 C380 1.510 . S
C379 O398 1.249 . S
C379 O399 1.252 . S
C380 C379 1.510 . S
C380 C381 1.404 . S
C380 C382 1.352 . S
C381 C380 1.404 . S
C381 C385 1.389 . S
C381 H408 0.930 . S
C382 C380 1.352 . S
C382 C384 1.374 . S
C382 H409 0.931 . S
C383 C384 1.359 . S
C383 C385 1.364 . S
C384 C382 1.374 . S
C384 C383 1.359 . S
C384 H410 0.931 . S
C385 C381 1.389 . S
C385 C383 1.364 . S
C385 H411 0.931 . S
C386 O400 1.256 . S
C386 O401 1.257 . S
C387 O402 1.240 . S
C387 O403 1.240 . S
C388 Gd377 2.818 . S
C388 C389 1.510 . S
C388 O404 1.249 . S
C388 O405 1.252 . S
C389 C388 1.510 . S
C389 C390 1.404 . S
C389 C391 1.352 . S
C390 C389 1.404 . S
C390 C394 1.389 . S
C390 H412 0.930 . S
C391 C389 1.352 . S
C391 C393 1.374 . S
C391 H413 0.931 . S
C392 C393 1.359 . S
C392 C394 1.364 . S
C393 C391 1.374 . S
C393 C392 1.359 . S
C393 H414 0.931 . S
C394 C390 1.389 . S
C394 C392 1.364 . S
C394 H415 0.931 . S
C395 O406 1.256 . S
C395 O407 1.257 . S
O396 Gd376 2.377 . S
O396 C378 1.240 . S
O397 Gd377 2.395 . S
O397 C378 1.240 . S
O398 Gd376 2.448 . S
O398 C379 1.249 . S
O399 Gd376 2.506 . S
O399 C379 1.252 . S
O400 Gd376 2.435 . S
O400 C386 1.256 . S
O401 Gd376 2.717 . S
O401 Gd377 2.327 . S
O401 C386 1.257 . S
O402 Gd377 2.377 . S
O402 C387 1.240 . S
O403 Gd376 2.395 . S
O403 C387 1.240 . S
O404 Gd377 2.448 . S
O404 C388 1.249 . S
O405 Gd377 2.506 . S
O405 C388 1.252 . S
O406 Gd377 2.435 . S
O406 C395 1.256 . S
O407 Gd376 2.327 . S
O407 Gd377 2.717 . S
O407 C395 1.257 . S
H408 C381 0.930 . S
H409 C382 0.931 . S
H410 C384 0.931 . S
H411 C385 0.931 . S
H412 C390 0.930 . S
H413 C391 0.931 . S
H414 C393 0.931 . S
H415 C394 0.931 . S
Gd416 C419 2.818 . S
Gd416 O436 2.377 1_545 S
Gd416 O438 2.448 . S
Gd416 O439 2.506 . S
Gd416 O440 2.435 . S
Gd416 O441 2.717 . S
Gd416 O443 2.395 . S
Gd416 O447 2.327 . S
Gd417 C428 2.818 . S
Gd417 O437 2.395 1_545 S
Gd417 O441 2.327 . S
Gd417 O442 2.377 . S
Gd417 O444 2.448 . S
Gd417 O445 2.506 . S
Gd417 O446 2.435 . S
Gd417 O447 2.717 . S
C418 O436 1.240 . S
C418 O437 1.240 . S
C419 Gd416 2.818 . S
C419 C420 1.510 1_545 S
C419 O438 1.249 . S
C419 O439 1.252 . S
C420 C419 1.510 1_565 S
C420 C421 1.404 . S
C420 C422 1.352 . S
C421 C420 1.404 . S
C421 C425 1.389 . S
C421 H448 0.914 1_565 S
C422 C420 1.352 . S
C422 C424 1.374 . S
C422 H449 0.931 . S
C423 C424 1.359 . S
C423 C425 1.364 . S
C424 C422 1.374 . S
C424 C423 1.359 . S
C424 H450 0.931 . S
C425 C421 1.389 . S
C425 C423 1.364 . S
C425 H451 0.931 . S
C426 O440 1.256 . S
C426 O441 1.257 . S
C427 O442 1.240 . S
C427 O443 1.240 . S
C428 Gd417 2.818 . S
C428 C429 1.510 . S
C428 O444 1.249 . S
C428 O445 1.252 . S
C429 C428 1.510 . S
C429 C430 1.404 . S
C429 C431 1.352 . S
C430 C429 1.404 . S
C430 C434 1.389 . S
C430 H452 0.930 . S
C431 C429 1.352 . S
C431 C433 1.374 . S
C431 H453 0.931 . S
C432 C433 1.359 . S
C432 C434 1.364 . S
C433 C431 1.374 . S
C433 C432 1.359 . S
C433 H454 0.931 . S
C434 C430 1.389 . S
C434 C432 1.364 . S
C434 H455 0.931 . S
C435 O446 1.256 . S
C435 O447 1.257 . S
O436 Gd416 2.377 1_565 S
O436 C418 1.240 . S
O437 Gd417 2.395 1_565 S
O437 C418 1.240 . S
O438 Gd416 2.448 . S
O438 C419 1.249 . S
O439 Gd416 2.506 . S
O439 C419 1.252 . S
O440 Gd416 2.435 . S
O440 C426 1.256 . S
O441 Gd416 2.717 . S
O441 Gd417 2.327 . S
O441 C426 1.257 . S
O442 Gd417 2.377 . S
O442 C427 1.240 . S
O443 Gd416 2.395 . S
O443 C427 1.240 . S
O444 Gd417 2.448 . S
O444 C428 1.249 . S
O445 Gd417 2.506 . S
O445 C428 1.252 . S
O446 Gd417 2.435 . S
O446 C435 1.256 . S
O447 Gd416 2.327 . S
O447 Gd417 2.717 . S
O447 C435 1.257 . S
H448 C421 0.914 1_545 S
H449 C422 0.931 . S
H450 C424 0.931 . S
H451 C425 0.931 . S
H452 C430 0.930 . S
H453 C431 0.931 . S
H454 C433 0.931 . S
H455 C434 0.931 . S
Gd456 C459 2.818 . S
Gd456 O476 2.377 . S
Gd456 O478 2.448 . S
Gd456 O479 2.506 . S
Gd456 O480 2.435 . S
Gd456 O481 2.717 . S
Gd456 O483 2.395 . S
Gd456 O487 2.327 . S
Gd457 C468 2.818 . S
Gd457 O477 2.395 . S
Gd457 O481 2.327 . S
Gd457 O482 2.377 . S
Gd457 O484 2.448 . S
Gd457 O485 2.506 . S
Gd457 O486 2.435 . S
Gd457 O487 2.717 . S
C458 O476 1.240 . S
C458 O477 1.240 . S
C459 Gd456 2.818 . S
C459 C460 1.510 . S
C459 O478 1.249 . S
C459 O479 1.252 . S
C460 C459 1.510 . S
C460 C461 1.404 . S
C460 C462 1.352 . S
C461 C460 1.404 . S
C461 C465 1.389 . S
C461 H488 0.930 . S
C462 C460 1.352 . S
C462 C464 1.374 . S
C462 H489 0.931 . S
C463 C464 1.359 . S
C463 C465 1.364 . S
C464 C462 1.374 . S
C464 C463 1.359 . S
C464 H490 0.931 . S
C465 C461 1.389 . S
C465 C463 1.364 . S
C465 H491 0.931 . S
C466 O480 1.256 . S
C466 O481 1.257 . S
C467 O482 1.240 . S
C467 O483 1.240 . S
C468 Gd457 2.818 . S
C468 C469 1.510 . S
C468 O484 1.249 . S
C468 O485 1.252 . S
C469 C468 1.510 . S
C469 C470 1.404 . S
C469 C471 1.352 . S
C470 C469 1.404 . S
C470 C474 1.389 . S
C470 H492 0.930 . S
C471 C469 1.352 . S
C471 C473 1.374 . S
C471 H493 0.931 . S
C472 C473 1.359 . S
C472 C474 1.364 . S
C473 C471 1.374 . S
C473 C472 1.359 . S
C473 H494 0.931 . S
C474 C470 1.389 . S
C474 C472 1.364 . S
C474 H495 0.931 . S
C475 O486 1.256 . S
C475 O487 1.257 . S
O476 Gd456 2.377 . S
O476 C458 1.240 . S
O477 Gd457 2.395 . S
O477 C458 1.240 . S
O478 Gd456 2.448 . S
O478 C459 1.249 . S
O479 Gd456 2.506 . S
O479 C459 1.252 . S
O480 Gd456 2.435 . S
O480 C466 1.256 . S
O481 Gd456 2.717 . S
O481 Gd457 2.327 . S
O481 C466 1.257 . S
O482 Gd457 2.377 . S
O482 C467 1.240 . S
O483 Gd456 2.395 . S
O483 C467 1.240 . S
O484 Gd457 2.448 . S
O484 C468 1.249 . S
O485 Gd457 2.506 . S
O485 C468 1.252 . S
O486 Gd457 2.435 . S
O486 C475 1.256 . S
O487 Gd456 2.327 . S
O487 Gd457 2.717 . S
O487 C475 1.257 . S
H488 C461 0.930 . S
H489 C462 0.931 . S
H490 C464 0.931 . S
H491 C465 0.931 . S
H492 C470 0.930 . S
H493 C471 0.931 . S
H494 C473 0.931 . S
H495 C474 0.931 . S
Gd496 C499 2.818 . S
Gd496 O516 2.377 . S
Gd496 O518 2.448 . S
Gd496 O519 2.506 . S
Gd496 O520 2.435 . S
Gd496 O521 2.717 . S
Gd496 O523 2.395 . S
Gd496 O527 2.327 . S
Gd497 C508 2.861 . S
Gd497 O517 2.364 1_565 S
Gd497 O521 2.301 1_565 S
Gd497 O522 2.373 1_565 S
Gd497 O524 2.490 . S
Gd497 O525 2.541 . S
Gd497 O526 2.425 1_565 S
Gd497 O527 2.676 1_565 S
C498 O516 1.240 . S
C498 O517 1.240 . S
C499 Gd496 2.818 . S
C499 C500 1.510 . S
C499 O518 1.249 . S
C499 O519 1.252 . S
C500 C499 1.510 . S
C500 C501 1.404 . S
C500 C502 1.352 . S
C501 C500 1.404 . S
C501 C505 1.389 . S
C501 H528 0.930 . S
C502 C500 1.352 . S
C502 C504 1.374 . S
C502 H529 0.931 . S
C503 C504 1.359 . S
C503 C505 1.364 . S
C504 C502 1.374 . S
C504 C503 1.359 . S
C504 H530 0.931 . S
C505 C501 1.389 . S
C505 C503 1.364 . S
C505 H531 0.931 . S
C506 O520 1.256 . S
C506 O521 1.257 . S
C507 O522 1.240 . S
C507 O523 1.240 . S
C508 Gd497 2.861 . S
C508 C509 1.510 . S
C508 O524 1.249 . S
C508 O525 1.252 . S
C509 C508 1.510 . S
C509 C510 1.404 . S
C509 C511 1.352 . S
C510 C509 1.404 . S
C510 C514 1.389 . S
C510 H532 0.930 . S
C511 C509 1.352 . S
C511 C513 1.374 . S
C511 H533 0.931 . S
C512 C513 1.359 . S
C512 C514 1.364 . S
C513 C511 1.374 . S
C513 C512 1.359 . S
C513 H534 0.931 . S
C514 C510 1.389 . S
C514 C512 1.364 . S
C514 H535 0.931 . S
C515 O526 1.256 . S
C515 O527 1.257 . S
O516 Gd496 2.377 . S
O516 C498 1.240 . S
O517 Gd497 2.364 1_545 S
O517 C498 1.240 . S
O518 Gd496 2.448 . S
O518 C499 1.249 . S
O519 Gd496 2.506 . S
O519 C499 1.252 . S
O520 Gd496 2.435 . S
O520 C506 1.256 . S
O521 Gd496 2.717 . S
O521 Gd497 2.301 1_545 S
O521 C506 1.257 . S
O522 Gd497 2.373 1_545 S
O522 C507 1.240 . S
O523 Gd496 2.395 . S
O523 C507 1.240 . S
O524 Gd497 2.490 . S
O524 C508 1.249 . S
O525 Gd497 2.541 . S
O525 C508 1.252 . S
O526 Gd497 2.425 1_545 S
O526 C515 1.256 . S
O527 Gd496 2.327 . S
O527 Gd497 2.676 1_545 S
O527 C515 1.257 . S
H528 C501 0.930 . S
H529 C502 0.931 . S
H530 C504 0.931 . S
H531 C505 0.931 . S
H532 C510 0.930 . S
H533 C511 0.931 . S
H534 C513 0.931 . S
H535 C514 0.931 . S
Gd536 C539 2.818 . S
Gd536 O556 2.377 . S
Gd536 O558 2.448 . S
Gd536 O559 2.506 . S
Gd536 O560 2.435 . S
Gd536 O561 2.717 . S
Gd536 O563 2.395 . S
Gd536 O567 2.327 . S
Gd537 C548 2.818 . S
Gd537 O557 2.395 . S
Gd537 O561 2.327 . S
Gd537 O562 2.377 . S
Gd537 O564 2.448 . S
Gd537 O565 2.506 . S
Gd537 O566 2.435 . S
Gd537 O567 2.717 . S
C538 O556 1.240 . S
C538 O557 1.240 . S
C539 Gd536 2.818 . S
C539 C540 1.510 . S
C539 O558 1.249 . S
C539 O559 1.252 . S
C540 C539 1.510 . S
C540 C541 1.404 . S
C540 C542 1.352 . S
C541 C540 1.404 . S
C541 C545 1.389 . S
C541 H568 0.930 . S
C542 C540 1.352 . S
C542 C544 1.374 . S
C542 H569 0.931 . S
C543 C544 1.359 . S
C543 C545 1.364 . S
C544 C542 1.374 . S
C544 C543 1.359 . S
C544 H570 0.931 . S
C545 C541 1.389 . S
C545 C543 1.364 . S
C545 H571 0.931 . S
C546 O560 1.256 . S
C546 O561 1.257 . S
C547 O562 1.240 . S
C547 O563 1.240 . S
C548 Gd537 2.818 . S
C548 C549 1.510 . S
C548 O564 1.249 . S
C548 O565 1.252 . S
C549 C548 1.510 . S
C549 C550 1.404 . S
C549 C551 1.352 . S
C550 C549 1.404 . S
C550 C554 1.389 . S
C550 H572 0.930 . S
C551 C549 1.352 . S
C551 C553 1.374 . S
C551 H573 0.931 . S
C552 C553 1.359 . S
C552 C554 1.364 . S
C553 C551 1.374 . S
C553 C552 1.359 . S
C553 H574 0.931 . S
C554 C550 1.389 . S
C554 C552 1.364 . S
C554 H575 0.931 . S
C555 O566 1.256 . S
C555 O567 1.257 . S
O556 Gd536 2.377 . S
O556 C538 1.240 . S
O557 Gd537 2.395 . S
O557 C538 1.240 . S
O558 Gd536 2.448 . S
O558 C539 1.249 . S
O559 Gd536 2.506 . S
O559 C539 1.252 . S
O560 Gd536 2.435 . S
O560 C546 1.256 . S
O561 Gd536 2.717 . S
O561 Gd537 2.327 . S
O561 C546 1.257 . S
O562 Gd537 2.377 . S
O562 C547 1.240 . S
O563 Gd536 2.395 . S
O563 C547 1.240 . S
O564 Gd537 2.448 . S
O564 C548 1.249 . S
O565 Gd537 2.506 . S
O565 C548 1.252 . S
O566 Gd537 2.435 . S
O566 C555 1.256 . S
O567 Gd536 2.327 . S
O567 Gd537 2.717 . S
O567 C555 1.257 . S
H568 C541 0.930 . S
H569 C542 0.931 . S
H570 C544 0.931 . S
H571 C545 0.931 . S
H572 C550 0.930 . S
H573 C551 0.931 . S
H574 C553 0.931 . S
H575 C554 0.931 . S
Gd576 C579 2.818 . S
Gd576 O596 2.377 . S
Gd576 O598 2.448 1_545 S
Gd576 O599 2.506 . S
Gd576 O600 2.435 1_545 S
Gd576 O601 2.717 . S
Gd576 O603 2.395 . S
Gd576 O607 2.327 . S
Gd577 C588 2.818 . S
Gd577 O597 2.395 1_556 S
Gd577 O601 2.327 1_556 S
Gd577 O602 2.377 1_556 S
Gd577 O604 2.448 . S
Gd577 O605 2.506 . S
Gd577 O606 2.435 1_556 S
Gd577 O607 2.717 1_556 S
C578 O596 1.240 . S
C578 O597 1.240 . S
C579 Gd576 2.818 . S
C579 C580 1.510 . S
C579 O598 1.249 1_545 S
C579 O599 1.252 . S
C580 C579 1.510 . S
C580 C581 1.404 1_545 S
C580 C582 1.352 . S
C581 C580 1.404 1_565 S
C581 C585 1.389 . S
C581 H608 0.930 . S
C582 C580 1.352 . S
C582 C584 1.374 . S
C582 H609 0.931 . S
C583 C584 1.359 1_565 S
C583 C585 1.364 . S
C584 C582 1.374 . S
C584 C583 1.359 1_545 S
C584 H610 0.931 . S
C585 C581 1.389 . S
C585 C583 1.364 . S
C585 H611 0.931 . S
C586 O600 1.256 . S
C586 O601 1.257 1_565 S
C587 O602 1.240 . S
C587 O603 1.240 . S
C588 Gd577 2.818 . S
C588 C589 1.510 . S
C588 O604 1.249 . S
C588 O605 1.252 . S
C589 C588 1.510 . S
C589 C590 1.404 . S
C589 C591 1.352 . S
C590 C589 1.404 . S
C590 C594 1.389 . S
C590 H612 0.930 . S
C591 C589 1.352 . S
C591 C593 1.374 . S
C591 H613 0.931 . S
C592 C593 1.359 . S
C592 C594 1.364 . S
C593 C591 1.374 . S
C593 C592 1.359 . S
C593 H614 0.931 . S
C594 C590 1.389 . S
C594 C592 1.364 . S
C594 H615 0.931 . S
C595 O606 1.256 . S
C595 O607 1.257 . S
O596 Gd576 2.377 . S
O596 C578 1.240 . S
O597 Gd577 2.395 1_554 S
O597 C578 1.240 . S
O598 Gd576 2.448 1_565 S
O598 C579 1.249 1_565 S
O599 Gd576 2.506 . S
O599 C579 1.252 . S
O600 Gd576 2.435 1_565 S
O600 C586 1.256 . S
O601 Gd576 2.717 . S
O601 Gd577 2.327 1_554 S
O601 C586 1.257 1_545 S
O602 Gd577 2.377 1_554 S
O602 C587 1.240 . S
O603 Gd576 2.395 . S
O603 C587 1.240 . S
O604 Gd577 2.448 . S
O604 C588 1.249 . S
O605 Gd577 2.506 . S
O605 C588 1.252 . S
O606 Gd577 2.435 1_554 S
O606 C595 1.256 . S
O607 Gd576 2.327 . S
O607 Gd577 2.717 1_554 S
O607 C595 1.257 . S
H608 C581 0.930 . S
H609 C582 0.931 . S
H610 C584 0.931 . S
H611 C585 0.931 . S
H612 C590 0.930 . S
H613 C591 0.931 . S
H614 C593 0.931 . S
H615 C594 0.931 . S
Gd616 C619 2.818 . S
Gd616 O636 2.377 . S
Gd616 O638 2.448 . S
Gd616 O639 2.506 . S
Gd616 O640 2.435 . S
Gd616 O641 2.717 . S
Gd616 O643 2.395 . S
Gd616 O647 2.327 . S
Gd617 C628 2.818 . S
Gd617 O637 2.395 . S
Gd617 O641 2.327 . S
Gd617 O642 2.377 . S
Gd617 O644 2.448 . S
Gd617 O645 2.506 . S
Gd617 O646 2.435 . S
Gd617 O647 2.717 . S
C618 O636 1.240 . S
C618 O637 1.240 . S
C619 Gd616 2.818 . S
C619 C620 1.510 . S
C619 O638 1.249 . S
C619 O639 1.252 . S
C620 C619 1.510 . S
C620 C621 1.404 . S
C620 C622 1.352 . S
C621 C620 1.404 . S
C621 C625 1.389 . S
C621 H648 0.930 . S
C622 C620 1.352 . S
C622 C624 1.374 . S
C622 H649 0.931 . S
C623 C624 1.359 . S
C623 C625 1.364 . S
C624 C622 1.374 . S
C624 C623 1.359 . S
C624 H650 0.931 . S
C625 C621 1.389 . S
C625 C623 1.364 . S
C625 H651 0.931 . S
C626 O640 1.256 . S
C626 O641 1.257 . S
C627 O642 1.240 . S
C627 O643 1.240 . S
C628 Gd617 2.818 . S
C628 C629 1.510 . S
C628 O644 1.249 . S
C628 O645 1.252 . S
C629 C628 1.510 . S
C629 C630 1.404 . S
C629 C631 1.352 . S
C630 C629 1.404 . S
C630 C634 1.389 . S
C630 H652 0.930 . S
C631 C629 1.352 . S
C631 C633 1.374 . S
C631 H653 0.931 . S
C632 C633 1.359 . S
C632 C634 1.364 . S
C633 C631 1.374 . S
C633 C632 1.359 . S
C633 H654 0.931 . S
C634 C630 1.389 . S
C634 C632 1.364 . S
C634 H655 0.931 . S
C635 O646 1.256 . S
C635 O647 1.257 . S
O636 Gd616 2.377 . S
O636 C618 1.240 . S
O637 Gd617 2.395 . S
O637 C618 1.240 . S
O638 Gd616 2.448 . S
O638 C619 1.249 . S
O639 Gd616 2.506 . S
O639 C619 1.252 . S
O640 Gd616 2.435 . S
O640 C626 1.256 . S
O641 Gd616 2.717 . S
O641 Gd617 2.327 . S
O641 C626 1.257 . S
O642 Gd617 2.377 . S
O642 C627 1.240 . S
O643 Gd616 2.395 . S
O643 C627 1.240 . S
O644 Gd617 2.448 . S
O644 C628 1.249 . S
O645 Gd617 2.506 . S
O645 C628 1.252 . S
O646 Gd617 2.435 . S
O646 C635 1.256 . S
O647 Gd616 2.327 . S
O647 Gd617 2.717 . S
O647 C635 1.257 . S
H648 C621 0.930 . S
H649 C622 0.931 . S
H650 C624 0.931 . S
H651 C625 0.931 . S
H652 C630 0.930 . S
H653 C631 0.931 . S
H654 C633 0.931 . S
H655 C634 0.931 . S
Gd656 C659 2.818 . S
Gd656 O676 2.377 1_554 S
Gd656 O678 2.448 . S
Gd656 O679 2.506 . S
Gd656 O680 2.435 . S
Gd656 O681 2.717 . S
Gd656 O683 2.395 . S
Gd656 O687 2.327 . S
Gd657 C668 2.818 . S
Gd657 O677 2.395 1_554 S
Gd657 O681 2.327 . S
Gd657 O682 2.377 . S
Gd657 O684 2.448 . S
Gd657 O685 2.506 . S
Gd657 O686 2.435 . S
Gd657 O687 2.717 . S
C658 O676 1.240 . S
C658 O677 1.240 . S
C659 Gd656 2.818 . S
C659 C660 1.510 . S
C659 O678 1.249 . S
C659 O679 1.252 . S
C660 C659 1.510 . S
C660 C661 1.404 . S
C660 C662 1.352 1_554 S
C661 C660 1.404 . S
C661 C665 1.389 1_554 S
C661 H688 0.930 . S
C662 C660 1.352 1_556 S
C662 C664 1.374 . S
C662 H689 0.931 . S
C663 C664 1.359 . S
C663 C665 1.364 . S
C664 C662 1.374 . S
C664 C663 1.359 . S
C664 H690 0.931 . S
C665 C661 1.389 1_556 S
C665 C663 1.364 . S
C665 H691 0.931 1_556 S
C666 O680 1.256 . S
C666 O681 1.257 . S
C667 O682 1.240 . S
C667 O683 1.240 . S
C668 Gd657 2.818 . S
C668 C669 1.510 . S
C668 O684 1.249 . S
C668 O685 1.252 . S
C669 C668 1.510 . S
C669 C670 1.404 . S
C669 C671 1.352 . S
C670 C669 1.404 . S
C670 C674 1.389 . S
C670 H692 0.930 . S
C671 C669 1.352 . S
C671 C673 1.374 . S
C671 H693 0.931 . S
C672 C673 1.359 . S
C672 C674 1.364 . S
C673 C671 1.374 . S
C673 C672 1.359 . S
C673 H694 0.931 . S
C674 C670 1.389 . S
C674 C672 1.364 . S
C674 H695 0.931 . S
C675 O686 1.256 . S
C675 O687 1.257 . S
O676 Gd656 2.377 1_556 S
O676 C658 1.240 . S
O677 Gd657 2.395 1_556 S
O677 C658 1.240 . S
O678 Gd656 2.448 . S
O678 C659 1.249 . S
O679 Gd656 2.506 . S
O679 C659 1.252 . S
O680 Gd656 2.435 . S
O680 C666 1.256 . S
O681 Gd656 2.717 . S
O681 Gd657 2.327 . S
O681 C666 1.257 . S
O682 Gd657 2.377 . S
O682 C667 1.240 . S
O683 Gd656 2.395 . S
O683 C667 1.240 . S
O684 Gd657 2.448 . S
O684 C668 1.249 . S
O685 Gd657 2.506 . S
O685 C668 1.252 . S
O686 Gd657 2.435 . S
O686 C675 1.256 . S
O687 Gd656 2.327 . S
O687 Gd657 2.717 . S
O687 C675 1.257 . S
H688 C661 0.930 . S
H689 C662 0.931 . S
H690 C664 0.931 . S
H691 C665 0.931 1_554 S
H692 C670 0.930 . S
H693 C671 0.931 . S
H694 C673 0.931 . S
H695 C674 0.931 . S
Gd696 C699 2.818 . S
Gd696 O716 2.377 . S
Gd696 O718 2.448 . S
Gd696 O719 2.506 . S
Gd696 O720 2.435 . S
Gd696 O721 2.717 . S
Gd696 O723 2.395 . S
Gd696 O727 2.327 . S
Gd697 C708 2.818 . S
Gd697 O717 2.395 . S
Gd697 O721 2.327 . S
Gd697 O722 2.377 . S
Gd697 O724 2.448 . S
Gd697 O725 2.506 . S
Gd697 O726 2.435 . S
Gd697 O727 2.717 . S
C698 O716 1.240 . S
C698 O717 1.240 . S
C699 Gd696 2.818 . S
C699 C700 1.510 . S
C699 O718 1.249 . S
C699 O719 1.252 . S
C700 C699 1.510 . S
C700 C701 1.404 . S
C700 C702 1.352 . S
C701 C700 1.404 . S
C701 C705 1.389 . S
C701 H728 0.930 . S
C702 C700 1.352 . S
C702 C704 1.374 . S
C702 H729 0.931 . S
C703 C704 1.359 . S
C703 C705 1.364 . S
C704 C702 1.374 . S
C704 C703 1.359 . S
C704 H730 0.931 . S
C705 C701 1.389 . S
C705 C703 1.364 . S
C705 H731 0.931 . S
C706 O720 1.256 . S
C706 O721 1.257 . S
C707 O722 1.240 . S
C707 O723 1.240 . S
C708 Gd697 2.818 . S
C708 C709 1.510 . S
C708 O724 1.249 . S
C708 O725 1.252 . S
C709 C708 1.510 . S
C709 C710 1.404 . S
C709 C711 1.352 . S
C710 C709 1.404 . S
C710 C714 1.389 . S
C710 H732 0.930 . S
C711 C709 1.352 . S
C711 C713 1.374 . S
C711 H733 0.931 . S
C712 C713 1.359 . S
C712 C714 1.364 . S
C713 C711 1.374 . S
C713 C712 1.359 . S
C713 H734 0.931 . S
C714 C710 1.389 . S
C714 C712 1.364 . S
C714 H735 0.931 . S
C715 O726 1.256 . S
C715 O727 1.257 . S
O716 Gd696 2.377 . S
O716 C698 1.240 . S
O717 Gd697 2.395 . S
O717 C698 1.240 . S
O718 Gd696 2.448 . S
O718 C699 1.249 . S
O719 Gd696 2.506 . S
O719 C699 1.252 . S
O720 Gd696 2.435 . S
O720 C706 1.256 . S
O721 Gd696 2.717 . S
O721 Gd697 2.327 . S
O721 C706 1.257 . S
O722 Gd697 2.377 . S
O722 C707 1.240 . S
O723 Gd696 2.395 . S
O723 C707 1.240 . S
O724 Gd697 2.448 . S
O724 C708 1.249 . S
O725 Gd697 2.506 . S
O725 C708 1.252 . S
O726 Gd697 2.435 . S
O726 C715 1.256 . S
O727 Gd696 2.327 . S
O727 Gd697 2.717 . S
O727 C715 1.257 . S
H728 C701 0.930 . S
H729 C702 0.931 . S
H730 C704 0.931 . S
H731 C705 0.931 . S
H732 C710 0.930 . S
H733 C711 0.931 . S
H734 C713 0.931 . S
H735 C714 0.931 . S
Gd736 C739 2.818 . S
Gd736 O756 2.377 . S
Gd736 O758 2.448 . S
Gd736 O759 2.506 . S
Gd736 O760 2.435 . S
Gd736 O761 2.717 . S
Gd736 O763 2.395 . S
Gd736 O767 2.327 . S
Gd737 C748 2.818 . S
Gd737 O757 2.395 . S
Gd737 O761 2.327 . S
Gd737 O762 2.377 . S
Gd737 O764 2.448 . S
Gd737 O765 2.506 . S
Gd737 O766 2.435 . S
Gd737 O767 2.717 . S
C738 O756 1.240 . S
C738 O757 1.240 . S
C739 Gd736 2.818 . S
C739 C740 1.510 . S
C739 O758 1.249 . S
C739 O759 1.252 . S
C740 C739 1.510 . S
C740 C741 1.404 . S
C740 C742 1.352 . S
C741 C740 1.404 . S
C741 C745 1.389 . S
C741 H768 0.930 . S
C742 C740 1.352 . S
C742 C744 1.374 1_455 S
C742 H769 0.931 . S
C743 C744 1.359 . S
C743 C745 1.364 1_655 S
C744 C742 1.374 1_655 S
C744 C743 1.359 . S
C744 H770 0.931 . S
C745 C741 1.389 . S
C745 C743 1.364 1_455 S
C745 H771 0.931 . S
C746 O760 1.256 . S
C746 O761 1.257 . S
C747 O762 1.240 . S
C747 O763 1.240 . S
C748 Gd737 2.818 . S
C748 C749 1.510 . S
C748 O764 1.249 . S
C748 O765 1.252 . S
C749 C748 1.510 . S
C749 C750 1.404 . S
C749 C751 1.352 . S
C750 C749 1.404 . S
C750 C754 1.389 . S
C750 H772 0.930 . S
C751 C749 1.352 . S
C751 C753 1.374 . S
C751 H773 0.931 . S
C752 C753 1.359 . S
C752 C754 1.364 . S
C753 C751 1.374 . S
C753 C752 1.359 . S
C753 H774 0.931 . S
C754 C750 1.389 . S
C754 C752 1.364 . S
C754 H775 0.931 . S
C755 O766 1.256 . S
C755 O767 1.257 . S
O756 Gd736 2.377 . S
O756 C738 1.240 . S
O757 Gd737 2.395 . S
O757 C738 1.240 . S
O758 Gd736 2.448 . S
O758 C739 1.249 . S
O759 Gd736 2.506 . S
O759 C739 1.252 . S
O760 Gd736 2.435 . S
O760 C746 1.256 . S
O761 Gd736 2.717 . S
O761 Gd737 2.327 . S
O761 C746 1.257 . S
O762 Gd737 2.377 . S
O762 C747 1.240 . S
O763 Gd736 2.395 . S
O763 C747 1.240 . S
O764 Gd737 2.448 . S
O764 C748 1.249 . S
O765 Gd737 2.506 . S
O765 C748 1.252 . S
O766 Gd737 2.435 . S
O766 C755 1.256 . S
O767 Gd736 2.327 . S
O767 Gd737 2.717 . S
O767 C755 1.257 . S
H768 C741 0.930 . S
H769 C742 0.931 . S
H770 C744 0.931 . S
H771 C745 0.931 . S
H772 C750 0.930 . S
H773 C751 0.931 . S
H774 C753 0.931 . S
H775 C754 0.931 . S
Gd776 C779 2.818 . S
Gd776 O796 2.377 . S
Gd776 O798 2.448 . S
Gd776 O799 2.506 . S
Gd776 O800 2.435 . S
Gd776 O801 2.717 . S
Gd776 O803 2.395 . S
Gd776 O807 2.327 . S
Gd777 C788 2.818 . S
Gd777 O797 2.395 . S
Gd777 O801 2.327 . S
Gd777 O802 2.377 . S
Gd777 O804 2.448 . S
Gd777 O805 2.506 . S
Gd777 O806 2.435 . S
Gd777 O807 2.717 . S
C778 O796 1.240 . S
C778 O797 1.240 . S
C779 Gd776 2.818 . S
C779 C780 1.510 . S
C779 O798 1.249 . S
C779 O799 1.252 . S
C780 C779 1.510 . S
C780 C781 1.404 . S
C780 C782 1.352 . S
C781 C780 1.404 . S
C781 C785 1.389 . S
C781 H808 0.930 . S
C782 C780 1.352 . S
C782 C784 1.374 . S
C782 H809 0.931 . S
C783 C784 1.359 . S
C783 C785 1.364 . S
C784 C782 1.374 . S
C784 C783 1.359 . S
C784 H810 0.931 . S
C785 C781 1.389 . S
C785 C783 1.364 . S
C785 H811 0.931 . S
C786 O800 1.256 . S
C786 O801 1.257 . S
C787 O802 1.240 . S
C787 O803 1.240 . S
C788 Gd777 2.818 . S
C788 C789 1.510 . S
C788 O804 1.249 . S
C788 O805 1.252 . S
C789 C788 1.510 . S
C789 C790 1.404 . S
C789 C791 1.352 . S
C790 C789 1.404 . S
C790 C794 1.389 . S
C790 H812 0.930 . S
C791 C789 1.352 . S
C791 C793 1.374 . S
C791 H813 0.931 . S
C792 C793 1.359 . S
C792 C794 1.364 . S
C793 C791 1.374 . S
C793 C792 1.359 . S
C793 H814 0.931 . S
C794 C790 1.389 . S
C794 C792 1.364 . S
C794 H815 0.931 . S
C795 O806 1.256 . S
C795 O807 1.257 . S
O796 Gd776 2.377 . S
O796 C778 1.240 . S
O797 Gd777 2.395 . S
O797 C778 1.240 . S
O798 Gd776 2.448 . S
O798 C779 1.249 . S
O799 Gd776 2.506 . S
O799 C779 1.252 . S
O800 Gd776 2.435 . S
O800 C786 1.256 . S
O801 Gd776 2.717 . S
O801 Gd777 2.327 . S
O801 C786 1.257 . S
O802 Gd777 2.377 . S
O802 C787 1.240 . S
O803 Gd776 2.395 . S
O803 C787 1.240 . S
O804 Gd777 2.448 . S
O804 C788 1.249 . S
O805 Gd777 2.506 . S
O805 C788 1.252 . S
O806 Gd777 2.435 . S
O806 C795 1.256 . S
O807 Gd776 2.327 . S
O807 Gd777 2.717 . S
O807 C795 1.257 . S
H808 C781 0.930 . S
H809 C782 0.931 . S
H810 C784 0.931 . S
H811 C785 0.931 . S
H812 C790 0.930 . S
H813 C791 0.931 . S
H814 C793 0.931 . S
H815 C794 0.931 . S
Gd816 C819 2.818 . S
Gd816 O836 2.377 . S
Gd816 O838 2.448 . S
Gd816 O839 2.506 . S
Gd816 O840 2.435 . S
Gd816 O841 2.717 . S
Gd816 O843 2.395 . S
Gd816 O847 2.327 . S
Gd817 C828 2.818 . S
Gd817 O837 2.395 . S
Gd817 O841 2.327 . S
Gd817 O842 2.377 . S
Gd817 O844 2.448 . S
Gd817 O845 2.506 . S
Gd817 O846 2.435 . S
Gd817 O847 2.717 . S
C818 O836 1.240 . S
C818 O837 1.240 . S
C819 Gd816 2.818 . S
C819 C820 1.510 . S
C819 O838 1.249 . S
C819 O839 1.252 . S
C820 C819 1.510 . S
C820 C821 1.404 . S
C820 C822 1.352 . S
C821 C820 1.404 . S
C821 C825 1.389 . S
C821 H848 0.930 . S
C822 C820 1.352 . S
C822 C824 1.374 . S
C822 H849 0.931 . S
C823 C824 1.359 . S
C823 C825 1.364 . S
C824 C822 1.374 . S
C824 C823 1.359 . S
C824 H850 0.931 . S
C825 C821 1.389 . S
C825 C823 1.364 . S
C825 H851 0.931 . S
C826 O840 1.256 . S
C826 O841 1.257 . S
C827 O842 1.240 . S
C827 O843 1.240 . S
C828 Gd817 2.818 . S
C828 C829 1.510 . S
C828 O844 1.249 . S
C828 O845 1.252 . S
C829 C828 1.510 . S
C829 C830 1.404 . S
C829 C831 1.352 . S
C830 C829 1.404 . S
C830 C834 1.389 . S
C830 H852 0.930 . S
C831 C829 1.352 . S
C831 C833 1.374 . S
C831 H853 0.931 . S
C832 C833 1.359 . S
C832 C834 1.364 . S
C833 C831 1.374 . S
C833 C832 1.359 . S
C833 H854 0.931 . S
C834 C830 1.389 . S
C834 C832 1.364 . S
C834 H855 0.931 . S
C835 O846 1.256 . S
C835 O847 1.257 . S
O836 Gd816 2.377 . S
O836 C818 1.240 . S
O837 Gd817 2.395 . S
O837 C818 1.240 . S
O838 Gd816 2.448 . S
O838 C819 1.249 . S
O839 Gd816 2.506 . S
O839 C819 1.252 . S
O840 Gd816 2.435 . S
O840 C826 1.256 . S
O841 Gd816 2.717 . S
O841 Gd817 2.327 . S
O841 C826 1.257 . S
O842 Gd817 2.377 . S
O842 C827 1.240 . S
O843 Gd816 2.395 . S
O843 C827 1.240 . S
O844 Gd817 2.448 . S
O844 C828 1.249 . S
O845 Gd817 2.506 . S
O845 C828 1.252 . S
O846 Gd817 2.435 . S
O846 C835 1.256 . S
O847 Gd816 2.327 . S
O847 Gd817 2.717 . S
O847 C835 1.257 . S
H848 C821 0.930 . S
H849 C822 0.931 . S
H850 C824 0.931 . S
H851 C825 0.931 . S
H852 C830 0.930 . S
H853 C831 0.931 . S
H854 C833 0.931 . S
H855 C834 0.931 . S
Gd856 C859 2.818 . S
Gd856 O876 2.377 . S
Gd856 O878 2.448 . S
Gd856 O879 2.506 . S
Gd856 O880 2.435 . S
Gd856 O881 2.717 . S
Gd856 O883 2.395 . S
Gd856 O887 2.327 . S
Gd857 C868 2.818 . S
Gd857 O877 2.395 . S
Gd857 O881 2.327 . S
Gd857 O882 2.377 . S
Gd857 O884 2.448 . S
Gd857 O885 2.506 . S
Gd857 O886 2.435 . S
Gd857 O887 2.717 . S
C858 O876 1.240 . S
C858 O877 1.240 . S
C859 Gd856 2.818 . S
C859 C860 1.510 . S
C859 O878 1.249 . S
C859 O879 1.252 . S
C860 C859 1.510 . S
C860 C861 1.404 . S
C860 C862 1.352 . S
C861 C860 1.404 . S
C861 C865 1.389 . S
C861 H888 0.930 . S
C862 C860 1.352 . S
C862 C864 1.374 . S
C862 H889 0.931 . S
C863 C864 1.359 . S
C863 C865 1.364 . S
C864 C862 1.374 . S
C864 C863 1.359 . S
C864 H890 0.931 . S
C865 C861 1.389 . S
C865 C863 1.364 . S
C865 H891 0.931 . S
C866 O880 1.256 . S
C866 O881 1.257 . S
C867 O882 1.240 . S
C867 O883 1.240 . S
C868 Gd857 2.818 . S
C868 C869 1.510 . S
C868 O884 1.249 . S
C868 O885 1.252 . S
C869 C868 1.510 . S
C869 C870 1.404 . S
C869 C871 1.352 . S
C870 C869 1.404 . S
C870 C874 1.389 . S
C870 H892 0.930 . S
C871 C869 1.352 . S
C871 C873 1.374 . S
C871 H893 0.931 . S
C872 C873 1.359 . S
C872 C874 1.364 . S
C873 C871 1.374 . S
C873 C872 1.359 . S
C873 H894 0.931 . S
C874 C870 1.389 . S
C874 C872 1.364 . S
C874 H895 0.931 . S
C875 O886 1.256 . S
C875 O887 1.257 . S
O876 Gd856 2.377 . S
O876 C858 1.240 . S
O877 Gd857 2.395 . S
O877 C858 1.240 . S
O878 Gd856 2.448 . S
O878 C859 1.249 . S
O879 Gd856 2.506 . S
O879 C859 1.252 . S
O880 Gd856 2.435 . S
O880 C866 1.256 . S
O881 Gd856 2.717 . S
O881 Gd857 2.327 . S
O881 C866 1.257 . S
O882 Gd857 2.377 . S
O882 C867 1.240 . S
O883 Gd856 2.395 . S
O883 C867 1.240 . S
O884 Gd857 2.448 . S
O884 C868 1.249 . S
O885 Gd857 2.506 . S
O885 C868 1.252 . S
O886 Gd857 2.435 . S
O886 C875 1.256 . S
O887 Gd856 2.327 . S
O887 Gd857 2.717 . S
O887 C875 1.257 . S
H888 C861 0.930 . S
H889 C862 0.931 . S
H890 C864 0.931 . S
H891 C865 0.931 . S
H892 C870 0.930 . S
H893 C871 0.931 . S
H894 C873 0.931 . S
H895 C874 0.931 . S
Gd896 C899 2.818 . S
Gd896 O916 2.377 . S
Gd896 O918 2.448 . S
Gd896 O919 2.506 . S
Gd896 O920 2.435 . S
Gd896 O921 2.717 . S
Gd896 O923 2.395 . S
Gd896 O927 2.327 . S
Gd897 C908 2.818 . S
Gd897 O917 2.395 . S
Gd897 O921 2.327 . S
Gd897 O922 2.377 . S
Gd897 O924 2.448 . S
Gd897 O925 2.506 . S
Gd897 O926 2.435 . S
Gd897 O927 2.717 . S
C898 O916 1.240 . S
C898 O917 1.240 . S
C899 Gd896 2.818 . S
C899 C900 1.510 . S
C899 O918 1.249 . S
C899 O919 1.252 . S
C900 C899 1.510 . S
C900 C901 1.404 . S
C900 C902 1.352 . S
C901 C900 1.404 . S
C901 C905 1.389 . S
C901 H928 0.930 . S
C902 C900 1.352 . S
C902 C904 1.374 . S
C902 H929 0.931 . S
C903 C904 1.359 . S
C903 C905 1.364 . S
C904 C902 1.374 . S
C904 C903 1.359 . S
C904 H930 0.931 . S
C905 C901 1.389 . S
C905 C903 1.364 . S
C905 H931 0.931 . S
C906 O920 1.256 . S
C906 O921 1.257 . S
C907 O922 1.240 . S
C907 O923 1.240 . S
C908 Gd897 2.818 . S
C908 C909 1.510 . S
C908 O924 1.249 . S
C908 O925 1.252 . S
C909 C908 1.510 . S
C909 C910 1.404 . S
C909 C911 1.352 . S
C910 C909 1.404 . S
C910 C914 1.389 . S
C910 H932 0.930 . S
C911 C909 1.352 . S
C911 C913 1.374 . S
C911 H933 0.931 . S
C912 C913 1.359 . S
C912 C914 1.364 . S
C913 C911 1.374 . S
C913 C912 1.359 . S
C913 H934 0.931 . S
C914 C910 1.389 . S
C914 C912 1.364 . S
C914 H935 0.931 . S
C915 O926 1.256 . S
C915 O927 1.257 . S
O916 Gd896 2.377 . S
O916 C898 1.240 . S
O917 Gd897 2.395 . S
O917 C898 1.240 . S
O918 Gd896 2.448 . S
O918 C899 1.249 . S
O919 Gd896 2.506 . S
O919 C899 1.252 . S
O920 Gd896 2.435 . S
O920 C906 1.256 . S
O921 Gd896 2.717 . S
O921 Gd897 2.327 . S
O921 C906 1.257 . S
O922 Gd897 2.377 . S
O922 C907 1.240 . S
O923 Gd896 2.395 . S
O923 C907 1.240 . S
O924 Gd897 2.448 . S
O924 C908 1.249 . S
O925 Gd897 2.506 . S
O925 C908 1.252 . S
O926 Gd897 2.435 . S
O926 C915 1.256 . S
O927 Gd896 2.327 . S
O927 Gd897 2.717 . S
O927 C915 1.257 . S
H928 C901 0.930 . S
H929 C902 0.931 . S
H930 C904 0.931 . S
H931 C905 0.931 . S
H932 C910 0.930 . S
H933 C911 0.931 . S
H934 C913 0.931 . S
H935 C914 0.931 . S
Gd936 C939 2.818 . S
Gd936 O956 2.377 . S
Gd936 O958 2.448 . S
Gd936 O959 2.506 . S
Gd936 O960 2.435 1_554 S
Gd936 O961 2.717 . S
Gd936 O963 2.395 . S
Gd936 O967 2.327 . S
Gd937 C948 2.818 1_455 S
Gd937 O957 2.395 . S
Gd937 O961 2.327 . S
Gd937 O962 2.377 . S
Gd937 O964 2.448 . S
Gd937 O965 2.506 . S
Gd937 O966 2.435 . S
Gd937 O967 2.717 . S
C938 O956 1.240 . S
C938 O957 1.240 . S
C939 Gd936 2.818 . S
C939 C940 1.510 . S
C939 O958 1.249 . S
C939 O959 1.252 . S
C940 C939 1.510 . S
C940 C941 1.417 . S
C940 C942 1.352 . S
C941 C940 1.417 . S
C941 C945 1.387 1_554 S
C941 H968 0.919 1_554 S
C942 C940 1.352 . S
C942 C944 1.374 . S
C942 H969 0.931 . S
C943 C944 1.359 . S
C943 C945 1.364 1_554 S
C944 C942 1.374 . S
C944 C943 1.359 . S
C944 H970 0.931 . S
C945 C941 1.387 1_556 S
C945 C943 1.364 1_556 S
C945 H971 0.931 . S
C946 O960 1.272 . S
C946 O961 1.212 1_556 S
C947 O962 1.240 . S
C947 O963 1.240 . S
C948 Gd937 2.818 1_655 S
C948 C949 1.510 . S
C948 O964 1.249 1_655 S
C948 O965 1.252 1_655 S
C949 C948 1.510 . S
C949 C950 1.404 . S
C949 C951 1.352 . S
C950 C949 1.404 . S
C950 C954 1.389 . S
C950 H972 0.930 . S
C951 C949 1.352 . S
C951 C953 1.374 . S
C951 H973 0.931 . S
C952 C953 1.359 . S
C952 C954 1.364 . S
C953 C951 1.374 . S
C953 C952 1.359 . S
C953 H974 0.931 . S
C954 C950 1.389 . S
C954 C952 1.364 . S
C954 H975 0.931 . S
C955 O966 1.256 . S
C955 O967 1.257 . S
O956 Gd936 2.377 . S
O956 C938 1.240 . S
O957 Gd937 2.395 . S
O957 C938 1.240 . S
O958 Gd936 2.448 . S
O958 C939 1.249 . S
O959 Gd936 2.506 . S
O959 C939 1.252 . S
O960 Gd936 2.435 1_556 S
O960 C946 1.272 . S
O961 Gd936 2.717 . S
O961 Gd937 2.327 . S
O961 C946 1.212 1_554 S
O962 Gd937 2.377 . S
O962 C947 1.240 . S
O963 Gd936 2.395 . S
O963 C947 1.240 . S
O964 Gd937 2.448 . S
O964 C948 1.249 1_455 S
O965 Gd937 2.506 . S
O965 C948 1.252 1_455 S
O966 Gd937 2.435 . S
O966 C955 1.256 . S
O967 Gd936 2.327 . S
O967 Gd937 2.717 . S
O967 C955 1.257 . S
H968 C941 0.919 1_556 S
H969 C942 0.931 . S
H970 C944 0.931 . S
H971 C945 0.931 . S
H972 C950 0.930 . S
H973 C951 0.931 . S
H974 C953 0.931 . S
H975 C954 0.931 . S
H976 C982 0.930 . S
H977 C985 0.930 . S
H978 C986 0.930 . S
H979 C987 0.930 . S
H980 C990 0.930 . S
H981 C991 0.930 . S
C982 H976 0.930 . S
C982 C983 1.355 . S
C982 C984 1.415 . S
C983 C982 1.355 . S
C983 C985 1.419 . S
C984 C982 1.415 . S
C984 C989 1.425 . S
C984 C991 1.409 . S
C985 H977 0.930 . S
C985 C983 1.419 . S
C985 C986 1.362 1_556 S
C986 H978 0.930 . S
C986 C985 1.362 1_554 S
C986 C989 1.409 1_554 S
C987 H979 0.930 . S
C987 C988 1.363 . S
C987 C989 1.415 1_554 S
C988 C987 1.363 . S
C988 C990 1.386 1_554 S
C989 C984 1.425 . S
C989 C986 1.409 1_556 S
C989 C987 1.415 1_556 S
C990 H980 0.930 . S
C990 C988 1.386 1_556 S
C990 C991 1.362 . S
C991 H981 0.930 . S
C991 C984 1.409 . S
C991 C990 1.362 . S
H992 C998 0.930 . S
H993 C1001 0.930 . S
H994 C1002 0.930 . S
H995 C1003 0.930 . S
H996 C1006 0.930 . S
H997 C1007 0.930 . S
C998 H992 0.930 . S
C998 C999 1.355 . S
C998 C1000 1.415 . S
C999 C998 1.355 . S
C999 C1001 1.419 . S
C1000 C998 1.415 . S
C1000 C1005 1.425 . S
C1000 C1007 1.409 . S
C1001 H993 0.930 . S
C1001 C999 1.419 . S
C1001 C1002 1.362 . S
C1002 H994 0.930 . S
C1002 C1001 1.362 . S
C1002 C1005 1.409 . S
C1003 H995 0.930 . S
C1003 C1004 1.355 . S
C1003 C1005 1.415 . S
C1004 C1003 1.355 . S
C1004 C1006 1.419 . S
C1005 C1000 1.425 . S
C1005 C1002 1.409 . S
C1005 C1003 1.415 . S
C1006 H996 0.930 . S
C1006 C1004 1.419 . S
C1006 C1007 1.362 . S
C1007 H997 0.930 . S
C1007 C1000 1.409 . S
C1007 C1006 1.362 . S
H1008 C1014 0.930 . S
H1009 C1017 0.930 . S
H1010 C1018 0.930 . S
H1011 C1019 0.930 . S
H1012 C1022 0.930 . S
H1013 C1023 0.930 . S
C1014 H1008 0.930 . S
C1014 C1015 1.355 . S
C1014 C1016 1.415 . S
C1015 C1014 1.355 . S
C1015 C1017 1.419 . S
C1016 C1014 1.415 . S
C1016 C1021 1.425 . S
C1016 C1023 1.409 . S
C1017 H1009 0.930 . S
C1017 C1015 1.419 . S
C1017 C1018 1.362 . S
C1018 H1010 0.930 . S
C1018 C1017 1.362 . S
C1018 C1021 1.409 . S
C1019 H1011 0.930 . S
C1019 C1020 1.355 . S
C1019 C1021 1.415 . S
C1020 C1019 1.355 . S
C1020 C1022 1.419 . S
C1021 C1016 1.425 . S
C1021 C1018 1.409 . S
C1021 C1019 1.415 . S
C1022 H1012 0.930 . S
C1022 C1020 1.419 . S
C1022 C1023 1.362 . S
C1023 H1013 0.930 . S
C1023 C1016 1.409 . S
C1023 C1022 1.362 . S
H1024 C1030 0.930 . S
H1025 C1033 0.930 . S
H1026 C1034 0.930 . S
H1027 C1035 0.930 . S
H1028 C1038 0.930 . S
H1029 C1039 0.930 . S
C1030 H1024 0.930 . S
C1030 C1031 1.355 . S
C1030 C1032 1.415 . S
C1031 C1030 1.355 . S
C1031 C1033 1.419 . S
C1032 C1030 1.415 . S
C1032 C1037 1.425 . S
C1032 C1039 1.409 . S
C1033 H1025 0.930 . S
C1033 C1031 1.419 . S
C1033 C1034 1.362 . S
C1034 H1026 0.930 . S
C1034 C1033 1.362 . S
C1034 C1037 1.409 . S
C1035 H1027 0.930 . S
C1035 C1036 1.355 . S
C1035 C1037 1.415 . S
C1036 C1035 1.355 . S
C1036 C1038 1.419 . S
C1037 C1032 1.425 . S
C1037 C1034 1.409 . S
C1037 C1035 1.415 . S
C1038 H1028 0.930 . S
C1038 C1036 1.419 . S
C1038 C1039 1.362 . S
C1039 H1029 0.930 . S
C1039 C1032 1.409 . S
C1039 C1038 1.362 . S
H1040 C1046 0.930 . S
H1041 C1049 0.930 . S
H1042 C1050 0.930 . S
H1043 C1051 0.930 . S
H1044 C1054 0.930 . S
H1045 C1055 0.930 . S
C1046 H1040 0.930 . S
C1046 C1047 1.355 . S
C1046 C1048 1.415 . S
C1047 C1046 1.355 . S
C1047 C1049 1.419 . S
C1048 C1046 1.415 . S
C1048 C1053 1.425 . S
C1048 C1055 1.409 . S
C1049 H1041 0.930 . S
C1049 C1047 1.419 . S
C1049 C1050 1.362 . S
C1050 H1042 0.930 . S
C1050 C1049 1.362 . S
C1050 C1053 1.409 . S
C1051 H1043 0.930 . S
C1051 C1052 1.355 . S
C1051 C1053 1.415 . S
C1052 C1051 1.355 . S
C1052 C1054 1.419 . S
C1053 C1048 1.425 . S
C1053 C1050 1.409 . S
C1053 C1051 1.415 . S
C1054 H1044 0.930 . S
C1054 C1052 1.419 . S
C1054 C1055 1.362 . S
C1055 H1045 0.930 . S
C1055 C1048 1.409 . S
C1055 C1054 1.362 . S
H1056 C1062 0.930 . S
H1057 C1065 0.930 . S
H1058 C1066 0.930 . S
H1059 C1067 0.930 . S
H1060 C1070 0.930 . S
H1061 C1071 0.930 . S
C1062 H1056 0.930 . S
C1062 C1063 1.355 . S
C1062 C1064 1.415 . S
C1063 C1062 1.355 . S
C1063 C1065 1.419 . S
C1064 C1062 1.415 . S
C1064 C1069 1.425 . S
C1064 C1071 1.409 . S
C1065 H1057 0.930 . S
C1065 C1063 1.419 . S
C1065 C1066 1.362 . S
C1066 H1058 0.930 . S
C1066 C1065 1.362 . S
C1066 C1069 1.409 . S
C1067 H1059 0.930 . S
C1067 C1068 1.355 . S
C1067 C1069 1.415 . S
C1068 C1067 1.355 . S
C1068 C1070 1.419 . S
C1069 C1064 1.425 . S
C1069 C1066 1.409 . S
C1069 C1067 1.415 . S
C1070 H1060 0.930 . S
C1070 C1068 1.419 . S
C1070 C1071 1.362 . S
C1071 H1061 0.930 . S
C1071 C1064 1.409 . S
C1071 C1070 1.362 . S
H1072 C1078 0.930 . S
H1073 C1081 0.930 . S
H1074 C1082 0.930 . S
H1075 C1083 0.930 . S
H1076 C1086 0.930 . S
H1077 C1087 0.930 . S
C1078 H1072 0.930 . S
C1078 C1079 1.355 . S
C1078 C1080 1.415 . S
C1079 C1078 1.355 . S
C1079 C1081 1.419 . S
C1080 C1078 1.415 . S
C1080 C1085 1.425 . S
C1080 C1087 1.409 . S
C1081 H1073 0.930 . S
C1081 C1079 1.419 . S
C1081 C1082 1.362 . S
C1082 H1074 0.930 . S
C1082 C1081 1.362 . S
C1082 C1085 1.409 . S
C1083 H1075 0.930 . S
C1083 C1084 1.355 . S
C1083 C1085 1.415 . S
C1084 C1083 1.355 . S
C1084 C1086 1.419 . S
C1085 C1080 1.425 . S
C1085 C1082 1.409 . S
C1085 C1083 1.415 . S
C1086 H1076 0.930 . S
C1086 C1084 1.419 . S
C1086 C1087 1.362 . S
C1087 H1077 0.930 . S
C1087 C1080 1.409 . S
C1087 C1086 1.362 . S
H1088 C1094 0.930 . S
H1089 C1097 0.930 . S
H1090 C1098 0.930 . S
H1091 C1099 0.930 . S
H1092 C1102 0.930 . S
H1093 C1103 0.930 . S
C1094 H1088 0.930 . S
C1094 C1095 1.355 . S
C1094 C1096 1.415 . S
C1095 C1094 1.355 . S
C1095 C1097 1.419 . S
C1096 C1094 1.415 . S
C1096 C1101 1.425 . S
C1096 C1103 1.409 . S
C1097 H1089 0.930 . S
C1097 C1095 1.419 . S
C1097 C1098 1.362 . S
C1098 H1090 0.930 . S
C1098 C1097 1.362 . S
C1098 C1101 1.409 . S
C1099 H1091 0.930 . S
C1099 C1100 1.355 . S
C1099 C1101 1.415 . S
C1100 C1099 1.355 . S
C1100 C1102 1.419 . S
C1101 C1096 1.425 . S
C1101 C1098 1.409 . S
C1101 C1099 1.415 . S
C1102 H1092 0.930 . S
C1102 C1100 1.419 . S
C1102 C1103 1.362 . S
C1103 H1093 0.930 . S
C1103 C1096 1.409 . S
C1103 C1102 1.362 . S
H1104 C1110 0.930 . S
H1105 C1113 0.930 . S
H1106 C1114 0.930 . S
H1107 C1115 0.930 . S
H1108 C1118 0.930 . S
H1109 C1119 0.930 . S
C1110 H1104 0.930 . S
C1110 C1111 1.355 1_455 S
C1110 C1112 1.415 . S
C1111 C1110 1.355 1_655 S
C1111 C1113 1.419 . S
C1112 C1110 1.415 . S
C1112 C1117 1.425 . S
C1112 C1119 1.409 . S
C1113 H1105 0.930 . S
C1113 C1111 1.419 . S
C1113 C1114 1.362 . S
C1114 H1106 0.930 . S
C1114 C1113 1.362 . S
C1114 C1117 1.409 1_655 S
C1115 H1107 0.930 . S
C1115 C1116 1.355 . S
C1115 C1117 1.415 . S
C1116 C1115 1.355 . S
C1116 C1118 1.419 . S
C1117 C1112 1.425 . S
C1117 C1114 1.409 1_455 S
C1117 C1115 1.415 . S
C1118 H1108 0.930 . S
C1118 C1116 1.419 . S
C1118 C1119 1.362 . S
C1119 H1109 0.930 . S
C1119 C1112 1.409 . S
C1119 C1118 1.362 . S
H1120 C1126 0.930 . S
H1121 C1129 0.930 . S
H1122 C1130 0.930 . S
H1123 C1131 0.930 . S
H1124 C1134 0.930 . S
H1125 C1135 0.930 . S
C1126 H1120 0.930 . S
C1126 C1127 1.355 . S
C1126 C1128 1.415 . S
C1127 C1126 1.355 . S
C1127 C1129 1.419 . S
C1128 C1126 1.415 . S
C1128 C1133 1.425 . S
C1128 C1135 1.409 . S
C1129 H1121 0.930 . S
C1129 C1127 1.419 . S
C1129 C1130 1.362 . S
C1130 H1122 0.930 . S
C1130 C1129 1.362 . S
C1130 C1133 1.409 . S
C1131 H1123 0.930 . S
C1131 C1132 1.355 . S
C1131 C1133 1.415 . S
C1132 C1131 1.355 . S
C1132 C1134 1.419 . S
C1133 C1128 1.425 . S
C1133 C1130 1.409 . S
C1133 C1131 1.415 . S
C1134 H1124 0.930 . S
C1134 C1132 1.419 . S
C1134 C1135 1.362 . S
C1135 H1125 0.930 . S
C1135 C1128 1.409 . S
C1135 C1134 1.362 . S
H1136 C1142 0.930 . S
H1137 C1145 0.930 . S
H1138 C1146 0.930 . S
H1139 C1147 0.930 . S
H1140 C1150 0.930 . S
H1141 C1151 0.930 . S
C1142 H1136 0.930 . S
C1142 C1143 1.355 . S
C1142 C1144 1.415 . S
C1143 C1142 1.355 . S
C1143 C1145 1.419 . S
C1144 C1142 1.415 . S
C1144 C1149 1.425 . S
C1144 C1151 1.409 . S
C1145 H1137 0.930 . S
C1145 C1143 1.419 . S
C1145 C1146 1.362 . S
C1146 H1138 0.930 . S
C1146 C1145 1.362 . S
C1146 C1149 1.409 . S
C1147 H1139 0.930 . S
C1147 C1148 1.355 . S
C1147 C1149 1.415 . S
C1148 C1147 1.355 . S
C1148 C1150 1.419 . S
C1149 C1144 1.425 . S
C1149 C1146 1.409 . S
C1149 C1147 1.415 . S
C1150 H1140 0.930 . S
C1150 C1148 1.419 . S
C1150 C1151 1.362 . S
C1151 H1141 0.930 . S
C1151 C1144 1.409 . S
C1151 C1150 1.362 . S
H1152 C1158 0.930 . S
H1153 C1161 0.930 . S
H1154 C1162 0.930 . S
H1155 C1163 0.930 . S
H1156 C1166 0.930 . S
H1157 C1167 0.930 . S
C1158 H1152 0.930 . S
C1158 C1159 1.355 . S
C1158 C1160 1.415 . S
C1159 C1158 1.355 . S
C1159 C1161 1.419 . S
C1160 C1158 1.415 . S
C1160 C1165 1.425 . S
C1160 C1167 1.409 . S
C1161 H1153 0.930 . S
C1161 C1159 1.419 . S
C1161 C1162 1.362 . S
C1162 H1154 0.930 . S
C1162 C1161 1.362 . S
C1162 C1165 1.409 . S
C1163 H1155 0.930 . S
C1163 C1164 1.355 . S
C1163 C1165 1.415 . S
C1164 C1163 1.355 . S
C1164 C1166 1.419 . S
C1165 C1160 1.425 . S
C1165 C1162 1.409 . S
C1165 C1163 1.415 . S
C1166 H1156 0.930 . S
C1166 C1164 1.419 . S
C1166 C1167 1.362 . S
C1167 H1157 0.930 . S
C1167 C1160 1.409 . S
C1167 C1166 1.362 . S
H1168 C1174 0.930 . S
H1169 C1177 0.930 . S
H1170 C1178 0.930 . S
H1171 C1179 0.930 . S
H1172 C1182 0.930 . S
H1173 C1183 0.930 . S
C1174 H1168 0.930 . S
C1174 C1175 1.355 1_455 S
C1174 C1176 1.415 . S
C1175 C1174 1.355 1_655 S
C1175 C1177 1.419 . S
C1176 C1174 1.415 . S
C1176 C1181 1.425 . S
C1176 C1183 1.409 . S
C1177 H1169 0.930 . S
C1177 C1175 1.419 . S
C1177 C1178 1.362 . S
C1178 H1170 0.930 . S
C1178 C1177 1.362 . S
C1178 C1181 1.409 1_655 S
C1179 H1171 0.930 . S
C1179 C1180 1.355 . S
C1179 C1181 1.415 . S
C1180 C1179 1.355 . S
C1180 C1182 1.419 . S
C1181 C1176 1.425 . S
C1181 C1178 1.409 1_455 S
C1181 C1179 1.415 . S
C1182 H1172 0.930 . S
C1182 C1180 1.419 . S
C1182 C1183 1.362 . S
C1183 H1173 0.930 . S
C1183 C1176 1.409 . S
C1183 C1182 1.362 . S
H1184 C1190 0.930 . S
H1185 C1193 0.930 . S
H1186 C1194 0.930 . S
H1187 C1195 0.930 . S
H1188 C1198 0.930 . S
H1189 C1199 0.930 . S
C1190 H1184 0.930 . S
C1190 C1191 1.355 . S
C1190 C1192 1.415 . S
C1191 C1190 1.355 . S
C1191 C1193 1.419 . S
C1192 C1190 1.415 . S
C1192 C1197 1.425 . S
C1192 C1199 1.409 . S
C1193 H1185 0.930 . S
C1193 C1191 1.419 . S
C1193 C1194 1.362 . S
C1194 H1186 0.930 . S
C1194 C1193 1.362 . S
C1194 C1197 1.409 . S
C1195 H1187 0.930 . S
C1195 C1196 1.355 . S
C1195 C1197 1.415 . S
C1196 C1195 1.355 . S
C1196 C1198 1.419 . S
C1197 C1192 1.425 . S
C1197 C1194 1.409 . S
C1197 C1195 1.415 . S
C1198 H1188 0.930 . S
C1198 C1196 1.419 . S
C1198 C1199 1.362 . S
C1199 H1189 0.930 . S
C1199 C1192 1.409 . S
C1199 C1198 1.362 . S
H1200 C1206 0.930 . S
H1201 C1209 0.930 . S
H1202 C1210 0.930 . S
H1203 C1211 0.930 . S
H1204 C1214 0.930 . S
H1205 C1215 0.930 . S
C1206 H1200 0.930 . S
C1206 C1207 1.355 . S
C1206 C1208 1.415 . S
C1207 C1206 1.355 . S
C1207 C1209 1.419 . S
C1208 C1206 1.415 . S
C1208 C1213 1.425 . S
C1208 C1215 1.409 . S
C1209 H1201 0.930 . S
C1209 C1207 1.419 . S
C1209 C1210 1.362 . S
C1210 H1202 0.930 . S
C1210 C1209 1.362 . S
C1210 C1213 1.409 . S
C1211 H1203 0.930 . S
C1211 C1212 1.355 . S
C1211 C1213 1.415 . S
C1212 C1211 1.355 . S
C1212 C1214 1.419 . S
C1213 C1208 1.425 . S
C1213 C1210 1.409 . S
C1213 C1211 1.415 . S
C1214 H1204 0.930 . S
C1214 C1212 1.419 . S
C1214 C1215 1.362 . S
C1215 H1205 0.930 . S
C1215 C1208 1.409 . S
C1215 C1214 1.362 . S
H1216 C1222 0.930 . S
H1217 C1225 0.930 . S
H1218 C1226 0.930 . S
H1219 C1227 0.930 . S
H1220 C1230 0.930 . S
H1221 C1231 0.930 . S
C1222 H1216 0.930 . S
C1222 C1223 1.355 . S
C1222 C1224 1.415 . S
C1223 C1222 1.355 . S
C1223 C1225 1.419 . S
C1224 C1222 1.415 . S
C1224 C1229 1.425 . S
C1224 C1231 1.409 . S
C1225 H1217 0.930 . S
C1225 C1223 1.419 . S
C1225 C1226 1.362 . S
C1226 H1218 0.930 . S
C1226 C1225 1.362 . S
C1226 C1229 1.409 . S
C1227 H1219 0.930 . S
C1227 C1228 1.355 . S
C1227 C1229 1.415 . S
C1228 C1227 1.355 . S
C1228 C1230 1.419 . S
C1229 C1224 1.425 . S
C1229 C1226 1.409 . S
C1229 C1227 1.415 . S
C1230 H1220 0.930 . S
C1230 C1228 1.419 . S
C1230 C1231 1.362 . S
C1231 H1221 0.930 . S
C1231 C1224 1.409 . S
C1231 C1230 1.362 . S
H1232 C1238 0.930 1_556 S
H1233 C1241 0.930 . S
H1234 C1242 0.930 1_545 S
H1235 C1243 0.930 . S
H1236 C1246 0.930 . S
H1237 C1247 0.930 . S
C1238 H1232 0.930 1_554 S
C1238 C1239 1.355 . S
C1238 C1240 1.415 . S
C1239 C1238 1.355 . S
C1239 C1241 1.419 . S
C1240 C1238 1.415 . S
C1240 C1245 1.425 . S
C1240 C1247 1.409 . S
C1241 H1233 0.930 . S
C1241 C1239 1.419 . S
C1241 C1242 1.362 . S
C1242 H1234 0.930 1_565 S
C1242 C1241 1.362 . S
C1242 C1245 1.409 . S
C1243 H1235 0.930 . S
C1243 C1244 1.358 1_545 S
C1243 C1245 1.415 1_545 S
C1244 C1243 1.358 1_565 S
C1244 C1246 1.426 . S
C1245 C1240 1.425 . S
C1245 C1242 1.409 . S
C1245 C1243 1.415 1_565 S
C1246 H1236 0.930 . S
C1246 C1244 1.426 . S
C1246 C1247 1.362 . S
C1247 H1237 0.930 . S
C1247 C1240 1.409 . S
C1247 C1246 1.362 . S
H1248 C1254 0.930 . S
H1249 C1257 0.930 . S
H1250 C1258 0.930 . S
H1251 C1259 0.900 1_556 S
H1252 C1262 0.930 . S
H1253 C1263 0.930 . S
C1254 H1248 0.930 . S
C1254 C1255 1.355 . S
C1254 C1256 1.415 . S
C1255 C1254 1.355 . S
C1255 C1257 1.419 1_554 S
C1256 C1254 1.415 . S
C1256 C1261 1.425 . S
C1256 C1263 1.409 . S
C1257 H1249 0.930 . S
C1257 C1255 1.419 1_556 S
C1257 C1258 1.362 . S
C1258 H1250 0.930 . S
C1258 C1257 1.362 . S
C1258 C1261 1.409 1_556 S
C1259 H1251 0.900 1_554 S
C1259 C1260 1.391 . S
C1259 C1261 1.409 . S
C1260 C1259 1.391 . S
C1260 C1262 1.419 . S
C1261 C1256 1.425 . S
C1261 C1258 1.409 1_554 S
C1261 C1259 1.409 . S
C1262 H1252 0.930 . S
C1262 C1260 1.419 . S
C1262 C1263 1.362 . S
C1263 H1253 0.930 . S
C1263 C1256 1.409 . S
C1263 C1262 1.362 . S
H1264 C1270 0.930 . S
H1265 C1273 0.930 . S
H1266 C1274 0.930 . S
H1267 C1275 0.930 . S
H1268 C1278 0.930 . S
H1269 C1279 0.930 . S
C1270 H1264 0.930 . S
C1270 C1271 1.355 . S
C1270 C1272 1.415 . S
C1271 C1270 1.355 . S
C1271 C1273 1.419 . S
C1272 C1270 1.415 . S
C1272 C1277 1.425 . S
C1272 C1279 1.409 . S
C1273 H1265 0.930 . S
C1273 C1271 1.419 . S
C1273 C1274 1.362 . S
C1274 H1266 0.930 . S
C1274 C1273 1.362 . S
C1274 C1277 1.409 . S
C1275 H1267 0.930 . S
C1275 C1276 1.355 . S
C1275 C1277 1.415 . S
C1276 C1275 1.355 . S
C1276 C1278 1.419 . S
C1277 C1272 1.425 . S
C1277 C1274 1.409 . S
C1277 C1275 1.415 . S
C1278 H1268 0.930 . S
C1278 C1276 1.419 . S
C1278 C1279 1.362 . S
C1279 H1269 0.930 . S
C1279 C1272 1.409 . S
C1279 C1278 1.362 . S
H1280 C1286 0.930 . S
H1281 C1289 0.930 . S
H1282 C1290 0.930 . S
H1283 C1291 0.930 . S
H1284 C1294 0.930 1_455 S
H1285 C1295 0.930 . S
C1286 H1280 0.930 . S
C1286 C1287 1.355 . S
C1286 C1288 1.415 . S
C1287 C1286 1.355 . S
C1287 C1289 1.419 . S
C1288 C1286 1.415 . S
C1288 C1293 1.425 . S
C1288 C1295 1.409 . S
C1289 H1281 0.930 . S
C1289 C1287 1.419 . S
C1289 C1290 1.362 . S
C1290 H1282 0.930 . S
C1290 C1289 1.362 . S
C1290 C1293 1.409 . S
C1291 H1283 0.930 . S
C1291 C1292 1.355 . S
C1291 C1293 1.415 . S
C1292 C1291 1.355 . S
C1292 C1294 1.419 . S
C1293 C1288 1.425 . S
C1293 C1290 1.409 . S
C1293 C1291 1.415 . S
C1294 H1284 0.930 1_655 S
C1294 C1292 1.419 . S
C1294 C1295 1.362 . S
C1295 H1285 0.930 . S
C1295 C1288 1.409 . S
C1295 C1294 1.362 . S
H1296 C1302 0.930 . S
H1297 C1305 0.930 . S
H1298 C1306 0.930 . S
H1299 C1307 0.930 . S
H1300 C1310 0.930 . S
H1301 C1311 0.930 . S
C1302 H1296 0.930 . S
C1302 C1303 1.355 . S
C1302 C1304 1.415 . S
C1303 C1302 1.355 . S
C1303 C1305 1.419 . S
C1304 C1302 1.415 . S
C1304 C1309 1.425 . S
C1304 C1311 1.409 . S
C1305 H1297 0.930 . S
C1305 C1303 1.419 . S
C1305 C1306 1.362 . S
C1306 H1298 0.930 . S
C1306 C1305 1.362 . S
C1306 C1309 1.409 . S
C1307 H1299 0.930 . S
C1307 C1308 1.355 . S
C1307 C1309 1.415 . S
C1308 C1307 1.355 . S
C1308 C1310 1.419 . S
C1309 C1304 1.425 . S
C1309 C1306 1.409 . S
C1309 C1307 1.415 . S
C1310 H1300 0.930 . S
C1310 C1308 1.419 . S
C1310 C1311 1.362 . S
C1311 H1301 0.930 . S
C1311 C1304 1.409 . S
C1311 C1310 1.362 . S
H1312 C1318 0.930 . S
H1313 C1321 0.930 . S
H1314 C1322 0.930 . S
H1315 C1323 0.930 . S
H1316 C1326 0.930 . S
H1317 C1327 0.930 . S
C1318 H1312 0.930 . S
C1318 C1319 1.355 . S
C1318 C1320 1.415 . S
C1319 C1318 1.355 . S
C1319 C1321 1.419 . S
C1320 C1318 1.415 . S
C1320 C1325 1.425 . S
C1320 C1327 1.409 . S
C1321 H1313 0.930 . S
C1321 C1319 1.419 . S
C1321 C1322 1.362 . S
C1322 H1314 0.930 . S
C1322 C1321 1.362 . S
C1322 C1325 1.409 . S
C1323 H1315 0.930 . S
C1323 C1324 1.355 . S
C1323 C1325 1.415 . S
C1324 C1323 1.355 . S
C1324 C1326 1.419 . S
C1325 C1320 1.425 . S
C1325 C1322 1.409 . S
C1325 C1323 1.415 . S
C1326 H1316 0.930 . S
C1326 C1324 1.419 . S
C1326 C1327 1.362 . S
C1327 H1317 0.930 . S
C1327 C1320 1.409 . S
C1327 C1326 1.362 . S
H1328 C1334 0.930 . S
H1329 C1337 0.930 . S
H1330 C1338 0.930 . S
H1331 C1339 0.930 . S
H1332 C1342 0.930 . S
H1333 C1343 0.930 . S
C1334 H1328 0.930 . S
C1334 C1335 1.355 . S
C1334 C1336 1.415 . S
C1335 C1334 1.355 . S
C1335 C1337 1.419 . S
C1336 C1334 1.415 . S
C1336 C1341 1.425 . S
C1336 C1343 1.409 . S
C1337 H1329 0.930 . S
C1337 C1335 1.419 . S
C1337 C1338 1.362 . S
C1338 H1330 0.930 . S
C1338 C1337 1.362 . S
C1338 C1341 1.409 . S
C1339 H1331 0.930 . S
C1339 C1340 1.355 . S
C1339 C1341 1.415 . S
C1340 C1339 1.355 . S
C1340 C1342 1.419 . S
C1341 C1336 1.425 . S
C1341 C1338 1.409 . S
C1341 C1339 1.415 . S
C1342 H1332 0.930 . S
C1342 C1340 1.419 . S
C1342 C1343 1.362 . S
C1343 H1333 0.930 . S
C1343 C1336 1.409 . S
C1343 C1342 1.362 . S
H1344 C1350 0.930 . S
H1345 C1353 0.930 . S
H1346 C1354 0.930 . S
H1347 C1355 0.930 . S
H1348 C1358 0.930 . S
H1349 C1359 0.930 . S
C1350 H1344 0.930 . S
C1350 C1351 1.355 . S
C1350 C1352 1.415 . S
C1351 C1350 1.355 . S
C1351 C1353 1.419 . S
C1352 C1350 1.415 . S
C1352 C1357 1.425 . S
C1352 C1359 1.409 . S
C1353 H1345 0.930 . S
C1353 C1351 1.419 . S
C1353 C1354 1.362 . S
C1354 H1346 0.930 . S
C1354 C1353 1.362 . S
C1354 C1357 1.409 . S
C1355 H1347 0.930 . S
C1355 C1356 1.355 . S
C1355 C1357 1.415 . S
C1356 C1355 1.355 . S
C1356 C1358 1.419 . S
C1357 C1352 1.425 . S
C1357 C1354 1.409 . S
C1357 C1355 1.415 . S
C1358 H1348 0.930 . S
C1358 C1356 1.419 . S
C1358 C1359 1.362 . S
C1359 H1349 0.930 . S
C1359 C1352 1.409 . S
C1359 C1358 1.362 . S
H1360 C1366 0.930 . S
H1361 C1369 0.930 . S
H1362 C1370 0.930 . S
H1363 C1371 0.930 . S
H1364 C1374 0.930 . S
H1365 C1375 0.930 . S
C1366 H1360 0.930 . S
C1366 C1367 1.355 . S
C1366 C1368 1.415 . S
C1367 C1366 1.355 . S
C1367 C1369 1.419 . S
C1368 C1366 1.415 . S
C1368 C1373 1.425 . S
C1368 C1375 1.409 . S
C1369 H1361 0.930 . S
C1369 C1367 1.419 . S
C1369 C1370 1.362 . S
C1370 H1362 0.930 . S
C1370 C1369 1.362 . S
C1370 C1373 1.409 . S
C1371 H1363 0.930 . S
C1371 C1372 1.355 . S
C1371 C1373 1.415 . S
C1372 C1371 1.355 . S
C1372 C1374 1.419 . S
C1373 C1368 1.425 . S
C1373 C1370 1.409 . S
C1373 C1371 1.415 . S
C1374 H1364 0.930 . S
C1374 C1372 1.419 . S
C1374 C1375 1.362 . S
C1375 H1365 0.930 . S
C1375 C1368 1.409 . S
C1375 C1374 1.362 . S
H1376 C1382 0.930 . S
H1377 C1385 0.930 . S
H1378 C1386 0.930 . S
H1379 C1387 0.930 . S
H1380 C1390 0.930 . S
H1381 C1391 0.930 . S
C1382 H1376 0.930 . S
C1382 C1383 1.355 . S
C1382 C1384 1.415 . S
C1383 C1382 1.355 . S
C1383 C1385 1.419 . S
C1384 C1382 1.415 . S
C1384 C1389 1.425 . S
C1384 C1391 1.409 . S
C1385 H1377 0.930 . S
C1385 C1383 1.419 . S
C1385 C1386 1.362 . S
C1386 H1378 0.930 . S
C1386 C1385 1.362 . S
C1386 C1389 1.409 . S
C1387 H1379 0.930 . S
C1387 C1388 1.355 . S
C1387 C1389 1.415 . S
C1388 C1387 1.355 . S
C1388 C1390 1.419 . S
C1389 C1384 1.425 . S
C1389 C1386 1.409 . S
C1389 C1387 1.415 . S
C1390 H1380 0.930 . S
C1390 C1388 1.419 . S
C1390 C1391 1.362 . S
C1391 H1381 0.930 . S
C1391 C1384 1.409 . S
C1391 C1390 1.362 . S
H1392 C1398 0.930 . S
H1393 C1401 0.930 . S
H1394 C1402 0.930 . S
H1395 C1403 0.930 . S
H1396 C1406 0.930 . S
H1397 C1407 0.930 . S
C1398 H1392 0.930 . S
C1398 C1399 1.355 . S
C1398 C1400 1.415 . S
C1399 C1398 1.355 . S
C1399 C1401 1.419 . S
C1400 C1398 1.415 . S
C1400 C1405 1.425 . S
C1400 C1407 1.409 . S
C1401 H1393 0.930 . S
C1401 C1399 1.419 . S
C1401 C1402 1.362 . S
C1402 H1394 0.930 . S
C1402 C1401 1.362 . S
C1402 C1405 1.409 . S
C1403 H1395 0.930 . S
C1403 C1404 1.355 . S
C1403 C1405 1.415 . S
C1404 C1403 1.355 . S
C1404 C1406 1.419 . S
C1405 C1400 1.425 . S
C1405 C1402 1.409 . S
C1405 C1403 1.415 . S
C1406 H1396 0.930 . S
C1406 C1404 1.419 . S
C1406 C1407 1.362 . S
C1407 H1397 0.930 . S
C1407 C1400 1.409 . S
C1407 C1406 1.362 . S
H1408 C1414 0.930 . S
H1409 C1417 0.930 . S
H1410 C1418 0.930 . S
H1411 C1419 0.930 . S
H1412 C1422 0.930 . S
H1413 C1423 0.930 . S
C1414 H1408 0.930 . S
C1414 C1415 1.355 . S
C1414 C1416 1.415 . S
C1415 C1414 1.355 . S
C1415 C1417 1.419 . S
C1416 C1414 1.415 . S
C1416 C1421 1.425 . S
C1416 C1423 1.409 . S
C1417 H1409 0.930 . S
C1417 C1415 1.419 . S
C1417 C1418 1.362 . S
C1418 H1410 0.930 . S
C1418 C1417 1.362 . S
C1418 C1421 1.409 . S
C1419 H1411 0.930 . S
C1419 C1420 1.355 . S
C1419 C1421 1.415 . S
C1420 C1419 1.355 . S
C1420 C1422 1.419 . S
C1421 C1416 1.425 . S
C1421 C1418 1.409 . S
C1421 C1419 1.415 . S
C1422 H1412 0.930 . S
C1422 C1420 1.419 . S
C1422 C1423 1.362 . S
C1423 H1413 0.930 . S
C1423 C1416 1.409 . S
C1423 C1422 1.362 . S
H1424 C1430 0.930 . S
H1425 C1433 0.930 . S
H1426 C1434 0.930 . S
H1427 C1435 0.930 . S
H1428 C1438 0.930 . S
H1429 C1439 0.930 . S
C1430 H1424 0.930 . S
C1430 C1431 1.355 . S
C1430 C1432 1.415 . S
C1431 C1430 1.355 . S
C1431 C1433 1.419 . S
C1432 C1430 1.415 . S
C1432 C1437 1.425 . S
C1432 C1439 1.409 . S
C1433 H1425 0.930 . S
C1433 C1431 1.419 . S
C1433 C1434 1.362 . S
C1434 H1426 0.930 . S
C1434 C1433 1.362 . S
C1434 C1437 1.409 . S
C1435 H1427 0.930 . S
C1435 C1436 1.355 . S
C1435 C1437 1.415 . S
C1436 C1435 1.355 . S
C1436 C1438 1.419 . S
C1437 C1432 1.425 . S
C1437 C1434 1.409 . S
C1437 C1435 1.415 . S
C1438 H1428 0.930 . S
C1438 C1436 1.419 . S
C1438 C1439 1.362 . S
C1439 H1429 0.930 . S
C1439 C1432 1.409 . S
C1439 C1438 1.362 . S
H1440 C1446 0.930 . S
H1441 C1449 0.930 . S
H1442 C1450 0.930 . S
H1443 C1451 0.930 . S
H1444 C1454 0.930 . S
H1445 C1455 0.930 . S
C1446 H1440 0.930 . S
C1446 C1447 1.355 . S
C1446 C1448 1.415 . S
C1447 C1446 1.355 . S
C1447 C1449 1.419 . S
C1448 C1446 1.415 . S
C1448 C1453 1.425 . S
C1448 C1455 1.409 . S
C1449 H1441 0.930 . S
C1449 C1447 1.419 . S
C1449 C1450 1.362 . S
C1450 H1442 0.930 . S
C1450 C1449 1.362 . S
C1450 C1453 1.409 . S
C1451 H1443 0.930 . S
C1451 C1452 1.355 . S
C1451 C1453 1.415 . S
C1452 C1451 1.355 . S
C1452 C1454 1.419 . S
C1453 C1448 1.425 . S
C1453 C1450 1.409 . S
C1453 C1451 1.415 . S
C1454 H1444 0.930 . S
C1454 C1452 1.419 . S
C1454 C1455 1.362 . S
C1455 H1445 0.930 . S
C1455 C1448 1.409 . S
C1455 C1454 1.362 . S
H1456 C1462 0.930 . S
H1457 C1465 0.930 . S
H1458 C1466 0.930 . S
H1459 C1467 0.930 1_554 S
H1460 C1470 0.930 . S
H1461 C1471 0.930 . S
C1462 H1456 0.930 . S
C1462 C1463 1.355 . S
C1462 C1464 1.415 . S
C1463 C1462 1.355 . S
C1463 C1465 1.419 . S
C1464 C1462 1.415 . S
C1464 C1469 1.425 . S
C1464 C1471 1.409 . S
C1465 H1457 0.930 . S
C1465 C1463 1.419 . S
C1465 C1466 1.362 . S
C1466 H1458 0.930 . S
C1466 C1465 1.362 . S
C1466 C1469 1.409 . S
C1467 H1459 0.930 1_556 S
C1467 C1468 1.355 . S
C1467 C1469 1.415 . S
C1468 C1467 1.355 . S
C1468 C1470 1.419 . S
C1469 C1464 1.425 . S
C1469 C1466 1.409 . S
C1469 C1467 1.415 . S
C1470 H1460 0.930 . S
C1470 C1468 1.419 . S
C1470 C1471 1.362 . S
C1471 H1461 0.930 . S
C1471 C1464 1.409 . S
C1471 C1470 1.362 . S
H1472 C1478 0.930 . S
H1473 C1481 0.930 . S
H1474 C1482 0.930 . S
H1475 C1483 0.930 . S
H1476 C1486 0.930 . S
H1477 C1487 0.930 . S
C1478 H1472 0.930 . S
C1478 C1479 1.355 . S
C1478 C1480 1.415 . S
C1479 C1478 1.355 . S
C1479 C1481 1.419 . S
C1480 C1478 1.415 . S
C1480 C1485 1.425 . S
C1480 C1487 1.409 . S
C1481 H1473 0.930 . S
C1481 C1479 1.419 . S
C1481 C1482 1.362 . S
C1482 H1474 0.930 . S
C1482 C1481 1.362 . S
C1482 C1485 1.409 . S
C1483 H1475 0.930 . S
C1483 C1484 1.355 . S
C1483 C1485 1.415 . S
C1484 C1483 1.355 . S
C1484 C1486 1.419 . S
C1485 C1480 1.425 . S
C1485 C1482 1.409 . S
C1485 C1483 1.415 . S
C1486 H1476 0.930 . S
C1486 C1484 1.419 . S
C1486 C1487 1.362 . S
C1487 H1477 0.930 . S
C1487 C1480 1.409 . S
C1487 C1486 1.362 . S
H1488 C1494 0.930 . S
H1489 C1497 0.930 . S
H1490 C1498 0.930 . S
H1491 C1499 0.930 . S
H1492 C1502 0.930 . S
H1493 C1503 0.930 . S
C1494 H1488 0.930 . S
C1494 C1495 1.355 . S
C1494 C1496 1.415 . S
C1495 C1494 1.355 . S
C1495 C1497 1.419 . S
C1496 C1494 1.415 . S
C1496 C1501 1.425 . S
C1496 C1503 1.409 . S
C1497 H1489 0.930 . S
C1497 C1495 1.419 . S
C1497 C1498 1.362 . S
C1498 H1490 0.930 . S
C1498 C1497 1.362 . S
C1498 C1501 1.409 . S
C1499 H1491 0.930 . S
C1499 C1500 1.355 . S
C1499 C1501 1.415 . S
C1500 C1499 1.355 . S
C1500 C1502 1.419 . S
C1501 C1496 1.425 . S
C1501 C1498 1.409 . S
C1501 C1499 1.415 . S
C1502 H1492 0.930 . S
C1502 C1500 1.419 . S
C1502 C1503 1.362 . S
C1503 H1493 0.930 . S
C1503 C1496 1.409 . S
C1503 C1502 1.362 . S
H1504 C1510 0.930 . S
H1505 C1513 0.930 . S
H1506 C1514 0.930 . S
H1507 C1515 0.930 . S
H1508 C1518 0.930 . S
H1509 C1519 0.930 . S
C1510 H1504 0.930 . S
C1510 C1511 1.355 . S
C1510 C1512 1.415 . S
C1511 C1510 1.355 . S
C1511 C1513 1.419 . S
C1512 C1510 1.415 . S
C1512 C1517 1.425 . S
C1512 C1519 1.409 . S
C1513 H1505 0.930 . S
C1513 C1511 1.419 . S
C1513 C1514 1.362 . S
C1514 H1506 0.930 . S
C1514 C1513 1.362 . S
C1514 C1517 1.409 . S
C1515 H1507 0.930 . S
C1515 C1516 1.355 . S
C1515 C1517 1.415 . S
C1516 C1515 1.355 . S
C1516 C1518 1.419 . S
C1517 C1512 1.425 . S
C1517 C1514 1.409 . S
C1517 C1515 1.415 . S
C1518 H1508 0.930 . S
C1518 C1516 1.419 . S
C1518 C1519 1.362 . S
C1519 H1509 0.930 . S
C1519 C1512 1.409 . S
C1519 C1518 1.362 . S
H1520 C1526 0.930 . S
H1521 C1529 0.930 . S
H1522 C1530 0.930 . S
H1523 C1531 0.930 . S
H1524 C1534 0.930 . S
H1525 C1535 0.930 . S
C1526 H1520 0.930 . S
C1526 C1527 1.355 . S
C1526 C1528 1.415 . S
C1527 C1526 1.355 . S
C1527 C1529 1.419 . S
C1528 C1526 1.415 . S
C1528 C1533 1.425 . S
C1528 C1535 1.409 . S
C1529 H1521 0.930 . S
C1529 C1527 1.419 . S
C1529 C1530 1.362 . S
C1530 H1522 0.930 . S
C1530 C1529 1.362 . S
C1530 C1533 1.409 . S
C1531 H1523 0.930 . S
C1531 C1532 1.355 . S
C1531 C1533 1.415 . S
C1532 C1531 1.355 . S
C1532 C1534 1.419 . S
C1533 C1528 1.425 . S
C1533 C1530 1.409 . S
C1533 C1531 1.415 . S
C1534 H1524 0.930 . S
C1534 C1532 1.419 . S
C1534 C1535 1.362 . S
C1535 H1525 0.930 . S
C1535 C1528 1.409 . S
C1535 C1534 1.362 . S
H1536 C1542 0.930 . S
H1537 C1545 0.930 . S
H1538 C1546 0.930 . S
H1539 C1547 0.930 . S
H1540 C1550 0.930 . S
H1541 C1551 0.930 . S
C1542 H1536 0.930 . S
C1542 C1543 1.355 . S
C1542 C1544 1.415 . S
C1543 C1542 1.355 . S
C1543 C1545 1.419 . S
C1544 C1542 1.415 . S
C1544 C1549 1.425 . S
C1544 C1551 1.409 . S
C1545 H1537 0.930 . S
C1545 C1543 1.419 . S
C1545 C1546 1.362 . S
C1546 H1538 0.930 . S
C1546 C1545 1.362 . S
C1546 C1549 1.409 . S
C1547 H1539 0.930 . S
C1547 C1548 1.355 . S
C1547 C1549 1.415 . S
C1548 C1547 1.355 . S
C1548 C1550 1.419 . S
C1549 C1544 1.425 . S
C1549 C1546 1.409 . S
C1549 C1547 1.415 . S
C1550 H1540 0.930 . S
C1550 C1548 1.419 . S
C1550 C1551 1.362 . S
C1551 H1541 0.930 . S
C1551 C1544 1.409 . S
C1551 C1550 1.362 . S
H1552 C1558 0.930 . S
H1553 C1561 0.930 . S
H1554 C1562 0.930 . S
H1555 C1563 0.930 . S
H1556 C1566 0.930 . S
H1557 C1567 0.930 . S
C1558 H1552 0.930 . S
C1558 C1559 1.375 . S
C1558 C1560 1.415 . S
C1559 C1558 1.375 . S
C1559 C1561 1.409 1_545 S
C1560 C1558 1.415 . S
C1560 C1565 1.425 . S
C1560 C1567 1.409 . S
C1561 H1553 0.930 . S
C1561 C1559 1.409 1_565 S
C1561 C1562 1.362 . S
C1562 H1554 0.930 . S
C1562 C1561 1.362 . S
C1562 C1565 1.409 1_565 S
C1563 H1555 0.930 . S
C1563 C1564 1.355 . S
C1563 C1565 1.415 . S
C1564 C1563 1.355 . S
C1564 C1566 1.419 . S
C1565 C1560 1.425 . S
C1565 C1562 1.409 1_545 S
C1565 C1563 1.415 . S
C1566 H1556 0.930 . S
C1566 C1564 1.419 . S
C1566 C1567 1.362 . S
C1567 H1557 0.930 . S
C1567 C1560 1.409 . S
C1567 C1566 1.362 . S
H1568 C1574 0.930 . S
H1569 C1577 0.930 . S
H1570 C1578 0.930 . S
H1571 C1579 0.930 . S
H1572 C1582 0.930 . S
H1573 C1583 0.930 . S
C1574 H1568 0.930 . S
C1574 C1575 1.355 . S
C1574 C1576 1.415 . S
C1575 C1574 1.355 . S
C1575 C1577 1.419 . S
C1576 C1574 1.415 . S
C1576 C1581 1.425 . S
C1576 C1583 1.409 . S
C1577 H1569 0.930 . S
C1577 C1575 1.419 . S
C1577 C1578 1.362 . S
C1578 H1570 0.930 . S
C1578 C1577 1.362 . S
C1578 C1581 1.409 . S
C1579 H1571 0.930 . S
C1579 C1580 1.355 . S
C1579 C1581 1.415 . S
C1580 C1579 1.355 . S
C1580 C1582 1.419 . S
C1581 C1576 1.425 . S
C1581 C1578 1.409 . S
C1581 C1579 1.415 . S
C1582 H1572 0.930 . S
C1582 C1580 1.419 . S
C1582 C1583 1.362 . S
C1583 H1573 0.930 . S
C1583 C1576 1.409 . S
C1583 C1582 1.362 . S
H1584 C1590 0.930 1_545 S
H1585 C1593 0.930 . S
H1586 C1594 0.930 . S
H1587 C1595 0.930 . S
H1588 C1598 0.930 . S
H1589 C1599 0.930 . S
C1590 H1584 0.930 1_565 S
C1590 C1591 1.355 . S
C1590 C1592 1.415 . S
C1591 C1590 1.355 . S
C1591 C1593 1.419 . S
C1592 C1590 1.415 . S
C1592 C1597 1.425 . S
C1592 C1599 1.409 . S
C1593 H1585 0.930 . S
C1593 C1591 1.419 . S
C1593 C1594 1.362 . S
C1594 H1586 0.930 . S
C1594 C1593 1.362 . S
C1594 C1597 1.409 . S
C1595 H1587 0.930 . S
C1595 C1596 1.355 . S
C1595 C1597 1.415 . S
C1596 C1595 1.355 . S
C1596 C1598 1.419 . S
C1597 C1592 1.425 . S
C1597 C1594 1.409 . S
C1597 C1595 1.415 . S
C1598 H1588 0.930 . S
C1598 C1596 1.419 . S
C1598 C1599 1.362 . S
C1599 H1589 0.930 . S
C1599 C1592 1.409 . S
C1599 C1598 1.362 . S
H1600 C1606 0.930 . S
H1601 C1609 0.930 . S
H1602 C1610 0.930 . S
H1603 C1611 0.930 . S
H1604 C1614 0.930 . S
H1605 C1615 0.930 . S
C1606 H1600 0.930 . S
C1606 C1607 1.355 . S
C1606 C1608 1.415 . S
C1607 C1606 1.355 . S
C1607 C1609 1.419 . S
C1608 C1606 1.415 . S
C1608 C1613 1.425 . S
C1608 C1615 1.409 . S
C1609 H1601 0.930 . S
C1609 C1607 1.419 . S
C1609 C1610 1.362 . S
C1610 H1602 0.930 . S
C1610 C1609 1.362 . S
C1610 C1613 1.409 . S
C1611 H1603 0.930 . S
C1611 C1612 1.355 . S
C1611 C1613 1.415 . S
C1612 C1611 1.355 . S
C1612 C1614 1.419 . S
C1613 C1608 1.425 . S
C1613 C1610 1.409 . S
C1613 C1611 1.415 . S
C1614 H1604 0.930 . S
C1614 C1612 1.419 . S
C1614 C1615 1.362 . S
C1615 H1605 0.930 . S
C1615 C1608 1.409 . S
C1615 C1614 1.362 . S
H1616 C1622 0.930 . S
H1617 C1625 0.930 . S
H1618 C1626 0.930 . S
H1619 C1627 0.930 . S
H1620 C1630 0.930 . S
H1621 C1631 0.930 . S
C1622 H1616 0.930 . S
C1622 C1623 1.355 . S
C1622 C1624 1.415 . S
C1623 C1622 1.355 . S
C1623 C1625 1.419 . S
C1624 C1622 1.415 . S
C1624 C1629 1.424 . S
C1624 C1631 1.409 . S
C1625 H1617 0.930 . S
C1625 C1623 1.419 . S
C1625 C1626 1.362 1_554 S
C1626 H1618 0.930 . S
C1626 C1625 1.362 1_556 S
C1626 C1629 1.409 1_556 S
C1627 H1619 0.930 . S
C1627 C1628 1.355 . S
C1627 C1629 1.416 1_556 S
C1628 C1627 1.355 . S
C1628 C1630 1.419 1_556 S
C1629 C1624 1.424 . S
C1629 C1626 1.409 1_554 S
C1629 C1627 1.416 1_554 S
C1630 H1620 0.930 . S
C1630 C1628 1.419 1_554 S
C1630 C1631 1.362 . S
C1631 H1621 0.930 . S
C1631 C1624 1.409 . S
C1631 C1630 1.362 . S
H1632 C1638 0.930 . S
H1633 C1641 0.930 . S
H1634 C1642 0.930 . S
H1635 C1643 0.930 . S
H1636 C1646 0.930 . S
H1637 C1647 0.930 . S
C1638 H1632 0.930 . S
C1638 C1639 1.355 . S
C1638 C1640 1.415 . S
C1639 C1638 1.355 . S
C1639 C1641 1.419 . S
C1640 C1638 1.415 . S
C1640 C1645 1.425 . S
C1640 C1647 1.409 . S
C1641 H1633 0.930 . S
C1641 C1639 1.419 . S
C1641 C1642 1.362 . S
C1642 H1634 0.930 . S
C1642 C1641 1.362 . S
C1642 C1645 1.409 . S
C1643 H1635 0.930 . S
C1643 C1644 1.355 . S
C1643 C1645 1.415 . S
C1644 C1643 1.355 . S
C1644 C1646 1.419 . S
C1645 C1640 1.425 . S
C1645 C1642 1.409 . S
C1645 C1643 1.415 . S
C1646 H1636 0.930 . S
C1646 C1644 1.419 . S
C1646 C1647 1.362 . S
C1647 H1637 0.930 . S
C1647 C1640 1.409 . S
C1647 C1646 1.362 . S
H1648 C1654 0.930 . S
H1649 C1657 0.930 . S
H1650 C1658 0.930 . S
H1651 C1659 0.930 . S
H1652 C1662 0.930 . S
H1653 C1663 0.930 . S
C1654 H1648 0.930 . S
C1654 C1655 1.355 . S
C1654 C1656 1.415 . S
C1655 C1654 1.355 . S
C1655 C1657 1.419 . S
C1656 C1654 1.415 . S
C1656 C1661 1.425 . S
C1656 C1663 1.409 . S
C1657 H1649 0.930 . S
C1657 C1655 1.419 . S
C1657 C1658 1.362 . S
C1658 H1650 0.930 . S
C1658 C1657 1.362 . S
C1658 C1661 1.409 . S
C1659 H1651 0.930 . S
C1659 C1660 1.355 . S
C1659 C1661 1.415 . S
C1660 C1659 1.355 . S
C1660 C1662 1.419 . S
C1661 C1656 1.425 . S
C1661 C1658 1.409 . S
C1661 C1659 1.415 . S
C1662 H1652 0.930 . S
C1662 C1660 1.419 . S
C1662 C1663 1.362 . S
C1663 H1653 0.930 . S
C1663 C1656 1.409 . S
C1663 C1662 1.362 . S
H1664 C1670 0.930 . S
H1665 C1673 0.930 . S
H1666 C1674 0.930 . S
H1667 C1675 0.930 . S
H1668 C1678 0.930 . S
H1669 C1679 0.930 . S
C1670 H1664 0.930 . S
C1670 C1671 1.355 . S
C1670 C1672 1.415 . S
C1671 C1670 1.355 . S
C1671 C1673 1.419 . S
C1672 C1670 1.415 . S
C1672 C1677 1.425 . S
C1672 C1679 1.409 . S
C1673 H1665 0.930 . S
C1673 C1671 1.419 . S
C1673 C1674 1.362 . S
C1674 H1666 0.930 . S
C1674 C1673 1.362 . S
C1674 C1677 1.409 . S
C1675 H1667 0.930 . S
C1675 C1676 1.355 . S
C1675 C1677 1.415 . S
C1676 C1675 1.355 . S
C1676 C1678 1.419 . S
C1677 C1672 1.425 . S
C1677 C1674 1.409 . S
C1677 C1675 1.415 . S
C1678 H1668 0.930 . S
C1678 C1676 1.419 . S
C1678 C1679 1.362 . S
C1679 H1669 0.930 . S
C1679 C1672 1.409 . S
C1679 C1678 1.362 . S
H1680 C1686 0.930 . S
H1681 C1689 0.930 . S
H1682 C1690 0.930 . S
H1683 C1691 0.930 . S
H1684 C1694 0.930 . S
H1685 C1695 0.930 . S
C1686 H1680 0.930 . S
C1686 C1687 1.397 . S
C1686 C1688 1.415 . S
C1687 C1686 1.397 . S
C1687 C1689 1.405 1_565 S
C1688 C1686 1.415 . S
C1688 C1693 1.425 . S
C1688 C1695 1.409 . S
C1689 H1681 0.930 . S
C1689 C1687 1.405 1_545 S
C1689 C1690 1.362 . S
C1690 H1682 0.930 . S
C1690 C1689 1.362 . S
C1690 C1693 1.409 1_545 S
C1691 H1683 0.930 . S
C1691 C1692 1.355 . S
C1691 C1693 1.415 . S
C1692 C1691 1.355 . S
C1692 C1694 1.419 . S
C1693 C1688 1.425 . S
C1693 C1690 1.409 1_565 S
C1693 C1691 1.415 . S
C1694 H1684 0.930 . S
C1694 C1692 1.419 . S
C1694 C1695 1.362 . S
C1695 H1685 0.930 . S
C1695 C1688 1.409 . S
C1695 C1694 1.362 . S
H1696 C1702 0.930 . S
H1697 C1705 0.930 . S
H1698 C1706 0.930 . S
H1699 C1707 0.930 . S
H1700 C1710 0.930 . S
H1701 C1711 0.930 . S
C1702 H1696 0.930 . S
C1702 C1703 1.355 . S
C1702 C1704 1.415 . S
C1703 C1702 1.355 . S
C1703 C1705 1.419 . S
C1704 C1702 1.415 . S
C1704 C1709 1.425 . S
C1704 C1711 1.409 . S
C1705 H1697 0.930 . S
C1705 C1703 1.419 . S
C1705 C1706 1.362 . S
C1706 H1698 0.930 . S
C1706 C1705 1.362 . S
C1706 C1709 1.409 . S
C1707 H1699 0.930 . S
C1707 C1708 1.355 . S
C1707 C1709 1.415 . S
C1708 C1707 1.355 . S
C1708 C1710 1.419 . S
C1709 C1704 1.425 . S
C1709 C1706 1.409 . S
C1709 C1707 1.415 . S
C1710 H1700 0.930 . S
C1710 C1708 1.419 . S
C1710 C1711 1.362 . S
C1711 H1701 0.930 . S
C1711 C1704 1.409 . S
C1711 C1710 1.362 . S
H1712 C1718 0.930 . S
H1713 C1721 0.930 . S
H1714 C1722 0.930 . S
H1715 C1723 0.930 . S
H1716 C1726 0.930 . S
H1717 C1727 0.930 . S
C1718 H1712 0.930 . S
C1718 C1719 1.355 . S
C1718 C1720 1.415 . S
C1719 C1718 1.355 . S
C1719 C1721 1.419 . S
C1720 C1718 1.415 . S
C1720 C1725 1.425 . S
C1720 C1727 1.409 . S
C1721 H1713 0.930 . S
C1721 C1719 1.419 . S
C1721 C1722 1.362 . S
C1722 H1714 0.930 . S
C1722 C1721 1.362 . S
C1722 C1725 1.409 . S
C1723 H1715 0.930 . S
C1723 C1724 1.355 . S
C1723 C1725 1.415 . S
C1724 C1723 1.355 . S
C1724 C1726 1.419 . S
C1725 C1720 1.425 . S
C1725 C1722 1.409 . S
C1725 C1723 1.415 . S
C1726 H1716 0.930 . S
C1726 C1724 1.419 . S
C1726 C1727 1.362 . S
C1727 H1717 0.930 . S
C1727 C1720 1.409 . S
C1727 C1726 1.362 . S
H1728 C1734 0.930 . S
H1729 C1737 0.930 . S
H1730 C1738 0.930 . S
H1731 C1739 0.930 . S
H1732 C1742 0.930 . S
H1733 C1743 0.930 . S
C1734 H1728 0.930 . S
C1734 C1735 1.355 . S
C1734 C1736 1.415 . S
C1735 C1734 1.355 . S
C1735 C1737 1.419 . S
C1736 C1734 1.415 . S
C1736 C1741 1.425 . S
C1736 C1743 1.409 . S
C1737 H1729 0.930 . S
C1737 C1735 1.419 . S
C1737 C1738 1.362 . S
C1738 H1730 0.930 . S
C1738 C1737 1.362 . S
C1738 C1741 1.409 . S
C1739 H1731 0.930 . S
C1739 C1740 1.355 . S
C1739 C1741 1.415 . S
C1740 C1739 1.355 . S
C1740 C1742 1.419 . S
C1741 C1736 1.425 . S
C1741 C1738 1.409 . S
C1741 C1739 1.415 . S
C1742 H1732 0.930 . S
C1742 C1740 1.419 . S
C1742 C1743 1.362 . S
C1743 H1733 0.930 . S
C1743 C1736 1.409 . S
C1743 C1742 1.362 . S
H1744 C1750 0.930 . S
H1745 C1753 0.930 . S
H1746 C1754 0.930 . S
H1747 C1755 0.930 . S
H1748 C1758 0.930 . S
H1749 C1759 0.930 . S
C1750 H1744 0.930 . S
C1750 C1751 1.355 . S
C1750 C1752 1.415 . S
C1751 C1750 1.355 . S
C1751 C1753 1.419 . S
C1752 C1750 1.415 . S
C1752 C1757 1.425 . S
C1752 C1759 1.409 . S
C1753 H1745 0.930 . S
C1753 C1751 1.419 . S
C1753 C1754 1.362 . S
C1754 H1746 0.930 . S
C1754 C1753 1.362 . S
C1754 C1757 1.409 . S
C1755 H1747 0.930 . S
C1755 C1756 1.355 . S
C1755 C1757 1.415 . S
C1756 C1755 1.355 . S
C1756 C1758 1.419 . S
C1757 C1752 1.425 . S
C1757 C1754 1.409 . S
C1757 C1755 1.415 . S
C1758 H1748 0.930 . S
C1758 C1756 1.419 . S
C1758 C1759 1.362 . S
C1759 H1749 0.930 . S
C1759 C1752 1.409 . S
C1759 C1758 1.362 . S
H1760 C1766 0.930 . S
H1761 C1769 0.930 . S
H1762 C1770 0.930 . S
H1763 C1771 0.930 . S
H1764 C1774 0.930 . S
H1765 C1775 0.930 . S
C1766 H1760 0.930 . S
C1766 C1767 1.355 . S
C1766 C1768 1.415 . S
C1767 C1766 1.355 . S
C1767 C1769 1.419 . S
C1768 C1766 1.415 . S
C1768 C1773 1.425 . S
C1768 C1775 1.409 . S
C1769 H1761 0.930 . S
C1769 C1767 1.419 . S
C1769 C1770 1.362 . S
C1770 H1762 0.930 . S
C1770 C1769 1.362 . S
C1770 C1773 1.409 . S
C1771 H1763 0.930 . S
C1771 C1772 1.355 . S
C1771 C1773 1.415 . S
C1772 C1771 1.355 . S
C1772 C1774 1.419 . S
C1773 C1768 1.425 . S
C1773 C1770 1.409 . S
C1773 C1771 1.415 . S
C1774 H1764 0.930 . S
C1774 C1772 1.419 . S
C1774 C1775 1.362 . S
C1775 H1765 0.930 . S
C1775 C1768 1.409 . S
C1775 C1774 1.362 . S
H1776 C1782 0.930 . S
H1777 C1785 0.930 . S
H1778 C1786 0.930 . S
H1779 C1787 0.930 . S
H1780 C1790 0.930 . S
H1781 C1791 0.930 . S
C1782 H1776 0.930 . S
C1782 C1783 1.355 . S
C1782 C1784 1.408 1_556 S
C1783 C1782 1.355 . S
C1783 C1785 1.419 . S
C1784 C1782 1.408 1_554 S
C1784 C1789 1.422 . S
C1784 C1791 1.420 . S
C1785 H1777 0.930 . S
C1785 C1783 1.419 . S
C1785 C1786 1.362 . S
C1786 H1778 0.930 . S
C1786 C1785 1.362 . S
C1786 C1789 1.409 1_556 S
C1787 H1779 0.930 . S
C1787 C1788 1.355 . S
C1787 C1789 1.415 . S
C1788 C1787 1.355 . S
C1788 C1790 1.419 . S
C1789 C1784 1.422 . S
C1789 C1786 1.409 1_554 S
C1789 C1787 1.415 . S
C1790 H1780 0.930 . S
C1790 C1788 1.419 . S
C1790 C1791 1.362 . S
C1791 H1781 0.930 . S
C1791 C1784 1.420 . S
C1791 C1790 1.362 . S
H1792 C1798 0.929 1_655 S
H1793 C1801 0.930 . S
H1794 C1802 0.930 . S
H1795 C1803 0.930 . S
H1796 C1806 0.930 . S
H1797 C1807 0.930 . S
C1798 H1792 0.929 1_455 S
C1798 C1799 1.360 . S
C1798 C1800 1.409 1_455 S
C1799 C1798 1.360 . S
C1799 C1801 1.419 . S
C1800 C1798 1.409 1_655 S
C1800 C1805 1.425 . S
C1800 C1807 1.409 . S
C1801 H1793 0.930 . S
C1801 C1799 1.419 . S
C1801 C1802 1.362 . S
C1802 H1794 0.930 . S
C1802 C1801 1.362 . S
C1802 C1805 1.409 1_455 S
C1803 H1795 0.930 . S
C1803 C1804 1.355 . S
C1803 C1805 1.415 . S
C1804 C1803 1.355 . S
C1804 C1806 1.419 . S
C1805 C1800 1.425 . S
C1805 C1802 1.409 1_655 S
C1805 C1803 1.415 . S
C1806 H1796 0.930 . S
C1806 C1804 1.419 . S
C1806 C1807 1.362 . S
C1807 H1797 0.930 . S
C1807 C1800 1.409 . S
C1807 C1806 1.362 . S
H1808 C1814 0.930 . S
H1809 C1817 0.930 . S
H1810 C1818 0.930 . S
H1811 C1819 0.930 . S
H1812 C1822 0.930 . S
H1813 C1823 0.930 . S
C1814 H1808 0.930 . S
C1814 C1815 1.355 . S
C1814 C1816 1.415 . S
C1815 C1814 1.355 . S
C1815 C1817 1.419 . S
C1816 C1814 1.415 . S
C1816 C1821 1.425 . S
C1816 C1823 1.409 . S
C1817 H1809 0.930 . S
C1817 C1815 1.419 . S
C1817 C1818 1.362 . S
C1818 H1810 0.930 . S
C1818 C1817 1.362 . S
C1818 C1821 1.409 . S
C1819 H1811 0.930 . S
C1819 C1820 1.355 . S
C1819 C1821 1.415 . S
C1820 C1819 1.355 . S
C1820 C1822 1.419 . S
C1821 C1816 1.425 . S
C1821 C1818 1.409 . S
C1821 C1819 1.415 . S
C1822 H1812 0.930 . S
C1822 C1820 1.419 . S
C1822 C1823 1.362 . S
C1823 H1813 0.930 . S
C1823 C1816 1.409 . S
C1823 C1822 1.362 . S
H1824 C1830 0.930 . S
H1825 C1833 0.930 . S
H1826 C1834 0.930 . S
H1827 C1835 0.930 . S
H1828 C1838 0.930 . S
H1829 C1839 0.930 . S
C1830 H1824 0.930 . S
C1830 C1831 1.355 . S
C1830 C1832 1.415 . S
C1831 C1830 1.355 . S
C1831 C1833 1.419 . S
C1832 C1830 1.415 . S
C1832 C1837 1.425 . S
C1832 C1839 1.409 . S
C1833 H1825 0.930 . S
C1833 C1831 1.419 . S
C1833 C1834 1.362 . S
C1834 H1826 0.930 . S
C1834 C1833 1.362 . S
C1834 C1837 1.409 . S
C1835 H1827 0.930 . S
C1835 C1836 1.355 . S
C1835 C1837 1.415 1_655 S
C1836 C1835 1.355 . S
C1836 C1838 1.419 1_655 S
C1837 C1832 1.425 . S
C1837 C1834 1.409 . S
C1837 C1835 1.415 1_455 S
C1838 H1828 0.930 . S
C1838 C1836 1.419 1_455 S
C1838 C1839 1.362 . S
C1839 H1829 0.930 . S
C1839 C1832 1.409 . S
C1839 C1838 1.362 . S
H1840 C1846 0.930 . S
H1841 C1849 0.930 . S
H1842 C1850 0.930 . S
H1843 C1851 0.930 . S
H1844 C1854 0.930 . S
H1845 C1855 0.930 . S
C1846 H1840 0.930 . S
C1846 C1847 1.355 1_455 S
C1846 C1848 1.415 . S
C1847 C1846 1.355 1_655 S
C1847 C1849 1.419 . S
C1848 C1846 1.415 . S
C1848 C1853 1.425 . S
C1848 C1855 1.409 . S
C1849 H1841 0.930 . S
C1849 C1847 1.419 . S
C1849 C1850 1.362 . S
C1850 H1842 0.930 . S
C1850 C1849 1.362 . S
C1850 C1853 1.409 1_655 S
C1851 H1843 0.930 . S
C1851 C1852 1.355 . S
C1851 C1853 1.415 . S
C1852 C1851 1.355 . S
C1852 C1854 1.419 . S
C1853 C1848 1.425 . S
C1853 C1850 1.409 1_455 S
C1853 C1851 1.415 . S
C1854 H1844 0.930 . S
C1854 C1852 1.419 . S
C1854 C1855 1.362 . S
C1855 H1845 0.930 . S
C1855 C1848 1.409 . S
C1855 C1854 1.362 . S
H1856 C1862 0.930 . S
H1857 C1865 0.930 . S
H1858 C1866 0.930 . S
H1859 C1867 0.930 . S
H1860 C1870 0.930 . S
H1861 C1871 0.930 . S
C1862 H1856 0.930 . S
C1862 C1863 1.355 . S
C1862 C1864 1.415 . S
C1863 C1862 1.355 . S
C1863 C1865 1.419 . S
C1864 C1862 1.415 . S
C1864 C1869 1.425 . S
C1864 C1871 1.409 . S
C1865 H1857 0.930 . S
C1865 C1863 1.419 . S
C1865 C1866 1.362 . S
C1866 H1858 0.930 . S
C1866 C1865 1.362 . S
C1866 C1869 1.409 . S
C1867 H1859 0.930 . S
C1867 C1868 1.355 . S
C1867 C1869 1.415 . S
C1868 C1867 1.355 . S
C1868 C1870 1.419 . S
C1869 C1864 1.425 . S
C1869 C1866 1.409 . S
C1869 C1867 1.415 . S
C1870 H1860 0.930 . S
C1870 C1868 1.419 . S
C1870 C1871 1.362 . S
C1871 H1861 0.930 . S
C1871 C1864 1.409 . S
C1871 C1870 1.362 . S
H1872 C1878 0.930 . S
H1873 C1881 0.930 . S
H1874 C1882 0.930 . S
H1875 C1883 0.930 . S
H1876 C1886 0.930 . S
H1877 C1887 0.930 . S
C1878 H1872 0.930 . S
C1878 C1879 1.355 . S
C1878 C1880 1.415 . S
C1879 C1878 1.355 . S
C1879 C1881 1.419 . S
C1880 C1878 1.415 . S
C1880 C1885 1.425 . S
C1880 C1887 1.409 . S
C1881 H1873 0.930 . S
C1881 C1879 1.419 . S
C1881 C1882 1.362 . S
C1882 H1874 0.930 . S
C1882 C1881 1.362 . S
C1882 C1885 1.409 . S
C1883 H1875 0.930 . S
C1883 C1884 1.355 . S
C1883 C1885 1.415 . S
C1884 C1883 1.355 . S
C1884 C1886 1.419 . S
C1885 C1880 1.425 . S
C1885 C1882 1.409 . S
C1885 C1883 1.415 . S
C1886 H1876 0.930 . S
C1886 C1884 1.419 . S
C1886 C1887 1.362 . S
C1887 H1877 0.930 . S
C1887 C1880 1.409 . S
C1887 C1886 1.362 . S
H1888 C1894 0.930 . S
H1889 C1897 0.930 . S
H1890 C1898 0.930 . S
H1891 C1899 0.930 . S
H1892 C1902 0.930 . S
H1893 C1903 0.930 . S
C1894 H1888 0.930 . S
C1894 C1895 1.355 . S
C1894 C1896 1.415 . S
C1895 C1894 1.355 . S
C1895 C1897 1.419 . S
C1896 C1894 1.415 . S
C1896 C1901 1.425 . S
C1896 C1903 1.409 . S
C1897 H1889 0.930 . S
C1897 C1895 1.419 . S
C1897 C1898 1.362 . S
C1898 H1890 0.930 . S
C1898 C1897 1.362 . S
C1898 C1901 1.409 . S
C1899 H1891 0.930 . S
C1899 C1900 1.355 . S
C1899 C1901 1.415 . S
C1900 C1899 1.355 . S
C1900 C1902 1.419 . S
C1901 C1896 1.425 . S
C1901 C1898 1.409 . S
C1901 C1899 1.415 . S
C1902 H1892 0.930 . S
C1902 C1900 1.419 . S
C1902 C1903 1.362 . S
C1903 H1893 0.930 . S
C1903 C1896 1.409 . S
C1903 C1902 1.362 . S
H1904 C1910 0.930 . S
H1905 C1913 0.930 . S
H1906 C1914 0.930 . S
H1907 C1915 0.930 . S
H1908 C1918 0.930 . S
H1909 C1919 0.930 . S
C1910 H1904 0.930 . S
C1910 C1911 1.355 . S
C1910 C1912 1.415 . S
C1911 C1910 1.355 . S
C1911 C1913 1.419 . S
C1912 C1910 1.415 . S
C1912 C1917 1.425 . S
C1912 C1919 1.409 . S
C1913 H1905 0.930 . S
C1913 C1911 1.419 . S
C1913 C1914 1.362 . S
C1914 H1906 0.930 . S
C1914 C1913 1.362 . S
C1914 C1917 1.409 . S
C1915 H1907 0.930 . S
C1915 C1916 1.355 . S
C1915 C1917 1.415 . S
C1916 C1915 1.355 . S
C1916 C1918 1.419 . S
C1917 C1912 1.425 . S
C1917 C1914 1.409 . S
C1917 C1915 1.415 . S
C1918 H1908 0.930 . S
C1918 C1916 1.419 . S
C1918 C1919 1.362 . S
C1919 H1909 0.930 . S
C1919 C1912 1.409 . S
C1919 C1918 1.362 . S
H1920 C1926 0.930 . S
H1921 C1929 0.930 . S
H1922 C1930 0.930 . S
H1923 C1931 0.930 . S
H1924 C1934 0.930 . S
H1925 C1935 0.930 . S
C1926 H1920 0.930 . S
C1926 C1927 1.355 . S
C1926 C1928 1.415 . S
C1927 C1926 1.355 . S
C1927 C1929 1.419 . S
C1928 C1926 1.415 . S
C1928 C1933 1.425 . S
C1928 C1935 1.409 . S
C1929 H1921 0.930 . S
C1929 C1927 1.419 . S
C1929 C1930 1.362 . S
C1930 H1922 0.930 . S
C1930 C1929 1.362 . S
C1930 C1933 1.409 . S
C1931 H1923 0.930 . S
C1931 C1932 1.355 . S
C1931 C1933 1.415 . S
C1932 C1931 1.355 . S
C1932 C1934 1.419 . S
C1933 C1928 1.425 . S
C1933 C1930 1.409 . S
C1933 C1931 1.415 . S
C1934 H1924 0.930 . S
C1934 C1932 1.419 . S
C1934 C1935 1.362 . S
C1935 H1925 0.930 . S
C1935 C1928 1.409 . S
C1935 C1934 1.362 . S
H1936 C1942 0.930 . S
H1937 C1945 0.930 . S
H1938 C1946 0.930 . S
H1939 C1947 0.930 . S
H1940 C1950 0.930 . S
H1941 C1951 0.930 . S
C1942 H1936 0.930 . S
C1942 C1943 1.355 . S
C1942 C1944 1.415 . S
C1943 C1942 1.355 . S
C1943 C1945 1.419 . S
C1944 C1942 1.415 . S
C1944 C1949 1.425 . S
C1944 C1951 1.409 . S
C1945 H1937 0.930 . S
C1945 C1943 1.419 . S
C1945 C1946 1.362 . S
C1946 H1938 0.930 . S
C1946 C1945 1.362 . S
C1946 C1949 1.409 . S
C1947 H1939 0.930 . S
C1947 C1948 1.355 . S
C1947 C1949 1.415 . S
C1948 C1947 1.355 . S
C1948 C1950 1.419 . S
C1949 C1944 1.425 . S
C1949 C1946 1.409 . S
C1949 C1947 1.415 . S
C1950 H1940 0.930 . S
C1950 C1948 1.419 . S
C1950 C1951 1.362 . S
C1951 H1941 0.930 . S
C1951 C1944 1.409 . S
C1951 C1950 1.362 . S
H1952 C1958 0.930 . S
H1953 C1961 0.930 . S
H1954 C1962 0.930 . S
H1955 C1963 0.930 . S
H1956 C1966 0.930 . S
H1957 C1967 0.930 . S
C1958 H1952 0.930 . S
C1958 C1959 1.355 . S
C1958 C1960 1.415 . S
C1959 C1958 1.355 . S
C1959 C1961 1.419 . S
C1960 C1958 1.415 . S
C1960 C1965 1.425 . S
C1960 C1967 1.409 . S
C1961 H1953 0.930 . S
C1961 C1959 1.419 . S
C1961 C1962 1.362 . S
C1962 H1954 0.930 . S
C1962 C1961 1.362 . S
C1962 C1965 1.409 . S
C1963 H1955 0.930 . S
C1963 C1964 1.355 . S
C1963 C1965 1.415 . S
C1964 C1963 1.355 . S
C1964 C1966 1.419 . S
C1965 C1960 1.425 . S
C1965 C1962 1.409 . S
C1965 C1963 1.415 . S
C1966 H1956 0.930 . S
C1966 C1964 1.419 . S
C1966 C1967 1.362 . S
C1967 H1957 0.930 . S
C1967 C1960 1.409 . S
C1967 C1966 1.362 . S
H1968 C1974 0.930 . S
H1969 C1977 0.930 . S
H1970 C1978 0.930 . S
H1971 C1979 0.930 . S
H1972 C1982 0.930 . S
H1973 C1983 0.930 . S
C1974 H1968 0.930 . S
C1974 C1975 1.355 . S
C1974 C1976 1.415 . S
C1975 C1974 1.355 . S
C1975 C1977 1.419 . S
C1976 C1974 1.415 . S
C1976 C1981 1.425 . S
C1976 C1983 1.409 . S
C1977 H1969 0.930 . S
C1977 C1975 1.419 . S
C1977 C1978 1.362 . S
C1978 H1970 0.930 . S
C1978 C1977 1.362 . S
C1978 C1981 1.409 . S
C1979 H1971 0.930 . S
C1979 C1980 1.355 . S
C1979 C1981 1.415 . S
C1980 C1979 1.355 . S
C1980 C1982 1.419 . S
C1981 C1976 1.425 . S
C1981 C1978 1.409 . S
C1981 C1979 1.415 . S
C1982 H1972 0.930 . S
C1982 C1980 1.419 . S
C1982 C1983 1.362 . S
C1983 H1973 0.930 . S
C1983 C1976 1.409 . S
C1983 C1982 1.362 . S
H1984 C1990 0.930 . S
H1985 C1993 0.930 . S
H1986 C1994 0.930 . S
H1987 C1995 0.930 . S
H1988 C1998 0.930 . S
H1989 C1999 0.930 . S
C1990 H1984 0.930 . S
C1990 C1991 1.355 . S
C1990 C1992 1.415 . S
C1991 C1990 1.355 . S
C1991 C1993 1.419 . S
C1992 C1990 1.415 . S
C1992 C1997 1.425 . S
C1992 C1999 1.409 . S
C1993 H1985 0.930 . S
C1993 C1991 1.419 . S
C1993 C1994 1.362 . S
C1994 H1986 0.930 . S
C1994 C1993 1.362 . S
C1994 C1997 1.409 . S
C1995 H1987 0.930 . S
C1995 C1996 1.355 . S
C1995 C1997 1.415 . S
C1996 C1995 1.355 . S
C1996 C1998 1.419 . S
C1997 C1992 1.425 . S
C1997 C1994 1.409 . S
C1997 C1995 1.415 . S
C1998 H1988 0.930 . S
C1998 C1996 1.419 . S
C1998 C1999 1.362 . S
C1999 H1989 0.930 . S
C1999 C1992 1.409 . S
C1999 C1998 1.362 . S
H2000 C2006 0.930 . S
H2001 C2009 0.930 . S
H2002 C2010 0.930 . S
H2003 C2011 0.930 . S
H2004 C2014 0.930 . S
H2005 C2015 0.930 . S
C2006 H2000 0.930 . S
C2006 C2007 1.355 . S
C2006 C2008 1.415 . S
C2007 C2006 1.355 . S
C2007 C2009 1.419 . S
C2008 C2006 1.415 . S
C2008 C2013 1.425 . S
C2008 C2015 1.409 . S
C2009 H2001 0.930 . S
C2009 C2007 1.419 . S
C2009 C2010 1.362 . S
C2010 H2002 0.930 . S
C2010 C2009 1.362 . S
C2010 C2013 1.409 . S
C2011 H2003 0.930 . S
C2011 C2012 1.355 . S
C2011 C2013 1.415 . S
C2012 C2011 1.355 . S
C2012 C2014 1.419 . S
C2013 C2008 1.425 . S
C2013 C2010 1.409 . S
C2013 C2011 1.415 . S
C2014 H2004 0.930 . S
C2014 C2012 1.419 . S
C2014 C2015 1.362 . S
C2015 H2005 0.930 . S
C2015 C2008 1.409 . S
C2015 C2014 1.362 . S
H2016 C2022 0.930 . S
H2017 C2025 0.930 . S
H2018 C2026 0.930 . S
H2019 C2027 0.930 . S
H2020 C2030 0.930 . S
H2021 C2031 0.930 . S
C2022 H2016 0.930 . S
C2022 C2023 1.355 . S
C2022 C2024 1.415 . S
C2023 C2022 1.355 . S
C2023 C2025 1.419 . S
C2024 C2022 1.415 . S
C2024 C2029 1.425 . S
C2024 C2031 1.409 . S
C2025 H2017 0.930 . S
C2025 C2023 1.419 . S
C2025 C2026 1.362 . S
C2026 H2018 0.930 . S
C2026 C2025 1.362 . S
C2026 C2029 1.409 . S
C2027 H2019 0.930 . S
C2027 C2028 1.355 . S
C2027 C2029 1.415 . S
C2028 C2027 1.355 . S
C2028 C2030 1.419 . S
C2029 C2024 1.425 . S
C2029 C2026 1.409 . S
C2029 C2027 1.415 . S
C2030 H2020 0.930 . S
C2030 C2028 1.419 . S
C2030 C2031 1.362 . S
C2031 H2021 0.930 . S
C2031 C2024 1.409 . S
C2031 C2030 1.362 . S
H2032 C2038 0.930 . S
H2033 C2041 0.930 . S
H2034 C2042 0.930 . S
H2035 C2043 0.930 . S
H2036 C2046 0.930 . S
H2037 C2047 0.930 . S
C2038 H2032 0.930 . S
C2038 C2039 1.355 . S
C2038 C2040 1.415 . S
C2039 C2038 1.355 . S
C2039 C2041 1.419 . S
C2040 C2038 1.415 . S
C2040 C2045 1.425 . S
C2040 C2047 1.409 . S
C2041 H2033 0.930 . S
C2041 C2039 1.419 . S
C2041 C2042 1.362 . S
C2042 H2034 0.930 . S
C2042 C2041 1.362 . S
C2042 C2045 1.409 . S
C2043 H2035 0.930 . S
C2043 C2044 1.355 . S
C2043 C2045 1.415 . S
C2044 C2043 1.355 . S
C2044 C2046 1.419 . S
C2045 C2040 1.425 . S
C2045 C2042 1.409 . S
C2045 C2043 1.415 . S
C2046 H2036 0.930 . S
C2046 C2044 1.419 . S
C2046 C2047 1.362 . S
C2047 H2037 0.930 . S
C2047 C2040 1.409 . S
C2047 C2046 1.362 . S
H2048 C2054 0.930 . S
H2049 C2057 0.930 1_556 S
H2050 C2058 0.930 . S
H2051 C2059 0.930 . S
H2052 C2062 0.930 . S
H2053 C2063 0.930 . S
C2054 H2048 0.930 . S
C2054 C2055 1.355 . S
C2054 C2056 1.415 . S
C2055 C2054 1.355 . S
C2055 C2057 1.419 . S
C2056 C2054 1.415 . S
C2056 C2061 1.425 . S
C2056 C2063 1.409 1_565 S
C2057 H2049 0.930 1_554 S
C2057 C2055 1.419 . S
C2057 C2058 1.362 . S
C2058 H2050 0.930 . S
C2058 C2057 1.362 . S
C2058 C2061 1.409 . S
C2059 H2051 0.930 . S
C2059 C2060 1.355 1_565 S
C2059 C2061 1.415 . S
C2060 C2059 1.355 1_545 S
C2060 C2062 1.419 . S
C2061 C2056 1.425 . S
C2061 C2058 1.409 . S
C2061 C2059 1.415 . S
C2062 H2052 0.930 . S
C2062 C2060 1.419 . S
C2062 C2063 1.362 . S
C2063 H2053 0.930 . S
C2063 C2056 1.409 1_545 S
C2063 C2062 1.362 . S
H2064 C2070 0.930 . S
H2065 C2073 0.930 . S
H2066 C2074 0.930 . S
H2067 C2075 0.930 . S
H2068 C2078 0.930 . S
H2069 C2079 0.930 . S
C2070 H2064 0.930 . S
C2070 C2071 1.355 . S
C2070 C2072 1.415 . S
C2071 C2070 1.355 . S
C2071 C2073 1.419 . S
C2072 C2070 1.415 . S
C2072 C2077 1.425 . S
C2072 C2079 1.409 . S
C2073 H2065 0.930 . S
C2073 C2071 1.419 . S
C2073 C2074 1.362 . S
C2074 H2066 0.930 . S
C2074 C2073 1.362 . S
C2074 C2077 1.409 . S
C2075 H2067 0.930 . S
C2075 C2076 1.355 . S
C2075 C2077 1.415 . S
C2076 C2075 1.355 . S
C2076 C2078 1.419 . S
C2077 C2072 1.425 . S
C2077 C2074 1.409 . S
C2077 C2075 1.415 . S
C2078 H2068 0.930 . S
C2078 C2076 1.419 . S
C2078 C2079 1.362 . S
C2079 H2069 0.930 . S
C2079 C2072 1.409 . S
C2079 C2078 1.362 . S
H2080 C2086 0.930 . S
H2081 C2089 0.930 . S
H2082 C2090 0.930 . S
H2083 C2091 0.930 . S
H2084 C2094 0.930 . S
H2085 C2095 0.930 . S
C2086 H2080 0.930 . S
C2086 C2087 1.355 . S
C2086 C2088 1.415 . S
C2087 C2086 1.355 . S
C2087 C2089 1.419 . S
C2088 C2086 1.415 . S
C2088 C2093 1.425 . S
C2088 C2095 1.409 . S
C2089 H2081 0.930 . S
C2089 C2087 1.419 . S
C2089 C2090 1.362 . S
C2090 H2082 0.930 . S
C2090 C2089 1.362 . S
C2090 C2093 1.409 . S
C2091 H2083 0.930 . S
C2091 C2092 1.355 . S
C2091 C2093 1.415 . S
C2092 C2091 1.355 . S
C2092 C2094 1.419 . S
C2093 C2088 1.425 . S
C2093 C2090 1.409 . S
C2093 C2091 1.415 . S
C2094 H2084 0.930 . S
C2094 C2092 1.419 . S
C2094 C2095 1.362 . S
C2095 H2085 0.930 . S
C2095 C2088 1.409 . S
C2095 C2094 1.362 . S
H2096 C2102 0.930 . S
H2097 C2105 0.930 . S
H2098 C2106 0.930 . S
H2099 C2107 0.930 . S
H2100 C2110 0.930 . S
H2101 C2111 0.930 . S
C2102 H2096 0.930 . S
C2102 C2103 1.355 . S
C2102 C2104 1.415 . S
C2103 C2102 1.355 . S
C2103 C2105 1.419 . S
C2104 C2102 1.415 . S
C2104 C2109 1.425 . S
C2104 C2111 1.409 . S
C2105 H2097 0.930 . S
C2105 C2103 1.419 . S
C2105 C2106 1.362 . S
C2106 H2098 0.930 . S
C2106 C2105 1.362 . S
C2106 C2109 1.409 . S
C2107 H2099 0.930 . S
C2107 C2108 1.355 . S
C2107 C2109 1.415 . S
C2108 C2107 1.355 . S
C2108 C2110 1.419 . S
C2109 C2104 1.425 . S
C2109 C2106 1.409 . S
C2109 C2107 1.415 . S
C2110 H2100 0.930 . S
C2110 C2108 1.419 . S
C2110 C2111 1.362 . S
C2111 H2101 0.930 . S
C2111 C2104 1.409 . S
C2111 C2110 1.362 . S
H2112 C2118 0.930 . S
H2113 C2121 0.930 . S
H2114 C2122 0.930 . S
H2115 C2123 0.930 . S
H2116 C2126 0.930 . S
H2117 C2127 0.930 . S
C2118 H2112 0.930 . S
C2118 C2119 1.355 . S
C2118 C2120 1.415 . S
C2119 C2118 1.355 . S
C2119 C2121 1.419 . S
C2120 C2118 1.415 . S
C2120 C2125 1.425 . S
C2120 C2127 1.409 . S
C2121 H2113 0.930 . S
C2121 C2119 1.419 . S
C2121 C2122 1.362 . S
C2122 H2114 0.930 . S
C2122 C2121 1.362 . S
C2122 C2125 1.409 . S
C2123 H2115 0.930 . S
C2123 C2124 1.355 . S
C2123 C2125 1.415 . S
C2124 C2123 1.355 . S
C2124 C2126 1.419 . S
C2125 C2120 1.425 . S
C2125 C2122 1.409 . S
C2125 C2123 1.415 . S
C2126 H2116 0.930 . S
C2126 C2124 1.419 . S
C2126 C2127 1.362 . S
C2127 H2117 0.930 . S
C2127 C2120 1.409 . S
C2127 C2126 1.362 . S
H2128 C2134 0.930 . S
H2129 C2137 0.930 . S
H2130 C2138 0.930 . S
H2131 C2139 0.930 . S
H2132 C2142 0.930 . S
H2133 C2143 0.930 . S
C2134 H2128 0.930 . S
C2134 C2135 1.355 . S
C2134 C2136 1.415 . S
C2135 C2134 1.355 . S
C2135 C2137 1.419 . S
C2136 C2134 1.415 . S
C2136 C2141 1.425 . S
C2136 C2143 1.409 . S
C2137 H2129 0.930 . S
C2137 C2135 1.419 . S
C2137 C2138 1.362 . S
C2138 H2130 0.930 . S
C2138 C2137 1.362 . S
C2138 C2141 1.409 . S
C2139 H2131 0.930 . S
C2139 C2140 1.355 . S
C2139 C2141 1.415 . S
C2140 C2139 1.355 . S
C2140 C2142 1.419 . S
C2141 C2136 1.425 . S
C2141 C2138 1.409 . S
C2141 C2139 1.415 . S
C2142 H2132 0.930 . S
C2142 C2140 1.419 . S
C2142 C2143 1.362 . S
C2143 H2133 0.930 . S
C2143 C2136 1.409 . S
C2143 C2142 1.362 . S
H2144 C2150 0.930 . S
H2145 C2153 0.930 . S
H2146 C2154 0.930 . S
H2147 C2155 0.930 . S
H2148 C2158 0.930 . S
H2149 C2159 0.930 . S
C2150 H2144 0.930 . S
C2150 C2151 1.355 . S
C2150 C2152 1.415 . S
C2151 C2150 1.355 . S
C2151 C2153 1.419 . S
C2152 C2150 1.415 . S
C2152 C2157 1.425 . S
C2152 C2159 1.409 . S
C2153 H2145 0.930 . S
C2153 C2151 1.419 . S
C2153 C2154 1.362 . S
C2154 H2146 0.930 . S
C2154 C2153 1.362 . S
C2154 C2157 1.409 . S
C2155 H2147 0.930 . S
C2155 C2156 1.355 . S
C2155 C2157 1.415 . S
C2156 C2155 1.355 . S
C2156 C2158 1.419 . S
C2157 C2152 1.425 . S
C2157 C2154 1.409 . S
C2157 C2155 1.415 . S
C2158 H2148 0.930 . S
C2158 C2156 1.419 . S
C2158 C2159 1.362 . S
C2159 H2149 0.930 . S
C2159 C2152 1.409 . S
C2159 C2158 1.362 . S
H2160 C2166 0.930 . S
H2161 C2169 0.930 . S
H2162 C2170 0.930 . S
H2163 C2171 0.930 . S
H2164 C2174 0.930 . S
H2165 C2175 0.930 . S
C2166 H2160 0.930 . S
C2166 C2167 1.355 . S
C2166 C2168 1.415 . S
C2167 C2166 1.355 . S
C2167 C2169 1.419 . S
C2168 C2166 1.415 . S
C2168 C2173 1.425 . S
C2168 C2175 1.409 . S
C2169 H2161 0.930 . S
C2169 C2167 1.419 . S
C2169 C2170 1.362 . S
C2170 H2162 0.930 . S
C2170 C2169 1.362 . S
C2170 C2173 1.409 . S
C2171 H2163 0.930 . S
C2171 C2172 1.355 . S
C2171 C2173 1.415 . S
C2172 C2171 1.355 . S
C2172 C2174 1.419 . S
C2173 C2168 1.425 . S
C2173 C2170 1.409 . S
C2173 C2171 1.415 . S
C2174 H2164 0.930 . S
C2174 C2172 1.419 . S
C2174 C2175 1.362 . S
C2175 H2165 0.930 . S
C2175 C2168 1.409 . S
C2175 C2174 1.362 . S
H2176 C2182 0.930 . S
H2177 C2185 0.930 . S
H2178 C2186 0.930 . S
H2179 C2187 0.930 . S
H2180 C2190 0.930 . S
H2181 C2191 0.930 . S
C2182 H2176 0.930 . S
C2182 C2183 1.355 . S
C2182 C2184 1.415 . S
C2183 C2182 1.355 . S
C2183 C2185 1.419 . S
C2184 C2182 1.415 . S
C2184 C2189 1.425 . S
C2184 C2191 1.409 . S
C2185 H2177 0.930 . S
C2185 C2183 1.419 . S
C2185 C2186 1.362 . S
C2186 H2178 0.930 . S
C2186 C2185 1.362 . S
C2186 C2189 1.409 . S
C2187 H2179 0.930 . S
C2187 C2188 1.355 . S
C2187 C2189 1.415 . S
C2188 C2187 1.355 . S
C2188 C2190 1.419 . S
C2189 C2184 1.425 . S
C2189 C2186 1.409 . S
C2189 C2187 1.415 . S
C2190 H2180 0.930 . S
C2190 C2188 1.419 . S
C2190 C2191 1.362 . S
C2191 H2181 0.930 . S
C2191 C2184 1.409 . S
C2191 C2190 1.362 . S
H2192 C2198 0.930 . S
H2193 C2201 0.930 . S
H2194 C2202 0.930 . S
H2195 C2203 0.930 . S
H2196 C2206 0.930 . S
H2197 C2207 0.930 . S
C2198 H2192 0.930 . S
C2198 C2199 1.355 . S
C2198 C2200 1.415 . S
C2199 C2198 1.355 . S
C2199 C2201 1.419 . S
C2200 C2198 1.415 . S
C2200 C2205 1.425 . S
C2200 C2207 1.409 . S
C2201 H2193 0.930 . S
C2201 C2199 1.419 . S
C2201 C2202 1.362 . S
C2202 H2194 0.930 . S
C2202 C2201 1.362 . S
C2202 C2205 1.409 . S
C2203 H2195 0.930 . S
C2203 C2204 1.355 . S
C2203 C2205 1.415 . S
C2204 C2203 1.355 . S
C2204 C2206 1.419 . S
C2205 C2200 1.425 . S
C2205 C2202 1.409 . S
C2205 C2203 1.415 . S
C2206 H2196 0.930 . S
C2206 C2204 1.419 . S
C2206 C2207 1.362 . S
C2207 H2197 0.930 . S
C2207 C2200 1.409 . S
C2207 C2206 1.362 . S
H2208 C2214 0.930 . S
H2209 C2217 0.930 . S
H2210 C2218 0.930 . S
H2211 C2219 0.930 . S
H2212 C2222 0.930 . S
H2213 C2223 0.930 . S
C2214 H2208 0.930 . S
C2214 C2215 1.355 . S
C2214 C2216 1.415 . S
C2215 C2214 1.355 . S
C2215 C2217 1.419 . S
C2216 C2214 1.415 . S
C2216 C2221 1.425 . S
C2216 C2223 1.409 . S
C2217 H2209 0.930 . S
C2217 C2215 1.419 . S
C2217 C2218 1.362 . S
C2218 H2210 0.930 . S
C2218 C2217 1.362 . S
C2218 C2221 1.409 . S
C2219 H2211 0.930 . S
C2219 C2220 1.355 . S
C2219 C2221 1.415 . S
C2220 C2219 1.355 . S
C2220 C2222 1.419 . S
C2221 C2216 1.425 . S
C2221 C2218 1.409 . S
C2221 C2219 1.415 . S
C2222 H2212 0.930 . S
C2222 C2220 1.419 . S
C2222 C2223 1.362 . S
C2223 H2213 0.930 . S
C2223 C2216 1.409 . S
C2223 C2222 1.362 . S
H2224 C2230 0.930 . S
H2225 C2233 0.930 . S
H2226 C2234 0.930 . S
H2227 C2235 0.930 . S
H2228 C2238 0.930 . S
H2229 C2239 0.930 . S
C2230 H2224 0.930 . S
C2230 C2231 1.355 . S
C2230 C2232 1.415 . S
C2231 C2230 1.355 . S
C2231 C2233 1.419 . S
C2232 C2230 1.415 . S
C2232 C2237 1.425 . S
C2232 C2239 1.409 . S
C2233 H2225 0.930 . S
C2233 C2231 1.419 . S
C2233 C2234 1.362 . S
C2234 H2226 0.930 . S
C2234 C2233 1.362 . S
C2234 C2237 1.409 . S
C2235 H2227 0.930 . S
C2235 C2236 1.355 . S
C2235 C2237 1.415 . S
C2236 C2235 1.355 . S
C2236 C2238 1.419 . S
C2237 C2232 1.425 . S
C2237 C2234 1.409 . S
C2237 C2235 1.415 . S
C2238 H2228 0.930 . S
C2238 C2236 1.419 . S
C2238 C2239 1.362 . S
C2239 H2229 0.930 . S
C2239 C2232 1.409 . S
C2239 C2238 1.362 . S
H2240 C2246 0.930 . S
H2241 C2249 0.930 . S
H2242 C2250 0.930 . S
H2243 C2251 0.930 . S
H2244 C2254 0.930 . S
H2245 C2255 0.930 . S
C2246 H2240 0.930 . S
C2246 C2247 1.355 . S
C2246 C2248 1.415 . S
C2247 C2246 1.355 . S
C2247 C2249 1.419 . S
C2248 C2246 1.415 . S
C2248 C2253 1.425 . S
C2248 C2255 1.409 . S
C2249 H2241 0.930 . S
C2249 C2247 1.419 . S
C2249 C2250 1.362 . S
C2250 H2242 0.930 . S
C2250 C2249 1.362 . S
C2250 C2253 1.409 . S
C2251 H2243 0.930 . S
C2251 C2252 1.355 . S
C2251 C2253 1.415 . S
C2252 C2251 1.355 . S
C2252 C2254 1.419 . S
C2253 C2248 1.425 . S
C2253 C2250 1.409 . S
C2253 C2251 1.415 . S
C2254 H2244 0.930 . S
C2254 C2252 1.419 . S
C2254 C2255 1.362 . S
C2255 H2245 0.930 . S
C2255 C2248 1.409 . S
C2255 C2254 1.362 . S
H2256 C2262 0.930 . S
H2257 C2265 0.930 . S
H2258 C2266 0.930 . S
H2259 C2267 0.930 . S
H2260 C2270 0.930 . S
H2261 C2271 0.930 . S
C2262 H2256 0.930 . S
C2262 C2263 1.355 . S
C2262 C2264 1.415 . S
C2263 C2262 1.355 . S
C2263 C2265 1.419 . S
C2264 C2262 1.415 . S
C2264 C2269 1.425 . S
C2264 C2271 1.409 . S
C2265 H2257 0.930 . S
C2265 C2263 1.419 . S
C2265 C2266 1.362 . S
C2266 H2258 0.930 . S
C2266 C2265 1.362 . S
C2266 C2269 1.409 . S
C2267 H2259 0.930 . S
C2267 C2268 1.355 . S
C2267 C2269 1.415 . S
C2268 C2267 1.355 . S
C2268 C2270 1.419 . S
C2269 C2264 1.425 . S
C2269 C2266 1.409 . S
C2269 C2267 1.415 . S
C2270 H2260 0.930 . S
C2270 C2268 1.419 . S
C2270 C2271 1.362 . S
C2271 H2261 0.930 . S
C2271 C2264 1.409 . S
C2271 C2270 1.362 . S
H2272 C2278 0.930 . S
H2273 C2281 0.930 . S
H2274 C2282 0.930 . S
H2275 C2283 0.930 . S
H2276 C2286 0.930 . S
H2277 C2287 0.930 . S
C2278 H2272 0.930 . S
C2278 C2279 1.355 . S
C2278 C2280 1.415 . S
C2279 C2278 1.355 . S
C2279 C2281 1.419 . S
C2280 C2278 1.415 . S
C2280 C2285 1.425 . S
C2280 C2287 1.409 . S
C2281 H2273 0.930 . S
C2281 C2279 1.419 . S
C2281 C2282 1.362 . S
C2282 H2274 0.930 . S
C2282 C2281 1.362 . S
C2282 C2285 1.409 . S
C2283 H2275 0.930 . S
C2283 C2284 1.355 . S
C2283 C2285 1.415 . S
C2284 C2283 1.355 . S
C2284 C2286 1.419 . S
C2285 C2280 1.425 . S
C2285 C2282 1.409 . S
C2285 C2283 1.415 . S
C2286 H2276 0.930 . S
C2286 C2284 1.419 . S
C2286 C2287 1.362 . S
C2287 H2277 0.930 . S
C2287 C2280 1.409 . S
C2287 C2286 1.362 . S
H2288 C2294 0.930 . S
H2289 C2297 0.930 . S
H2290 C2298 0.930 . S
H2291 C2299 0.930 . S
H2292 C2302 0.930 1_554 S
H2293 C2303 0.930 . S
C2294 H2288 0.930 . S
C2294 C2295 1.355 . S
C2294 C2296 1.415 . S
C2295 C2294 1.355 . S
C2295 C2297 1.419 1_655 S
C2296 C2294 1.415 . S
C2296 C2301 1.425 1_655 S
C2296 C2303 1.409 . S
C2297 H2289 0.930 . S
C2297 C2295 1.419 1_455 S
C2297 C2298 1.362 . S
C2298 H2290 0.930 . S
C2298 C2297 1.362 . S
C2298 C2301 1.409 . S
C2299 H2291 0.930 . S
C2299 C2300 1.355 . S
C2299 C2301 1.415 . S
C2300 C2299 1.355 . S
C2300 C2302 1.419 . S
C2301 C2296 1.425 1_455 S
C2301 C2298 1.409 . S
C2301 C2299 1.415 . S
C2302 H2292 0.930 1_556 S
C2302 C2300 1.419 . S
C2302 C2303 1.362 1_455 S
C2303 H2293 0.930 . S
C2303 C2296 1.409 . S
C2303 C2302 1.362 1_655 S
H2304 C2310 0.930 . S
H2305 C2313 0.930 . S
H2306 C2314 0.930 . S
H2307 C2315 0.930 . S
H2308 C2318 0.930 . S
H2309 C2319 0.930 . S
C2310 H2304 0.930 . S
C2310 C2311 1.355 . S
C2310 C2312 1.415 . S
C2311 C2310 1.355 . S
C2311 C2313 1.419 . S
C2312 C2310 1.415 . S
C2312 C2317 1.425 . S
C2312 C2319 1.409 . S
C2313 H2305 0.930 . S
C2313 C2311 1.419 . S
C2313 C2314 1.362 . S
C2314 H2306 0.930 . S
C2314 C2313 1.362 . S
C2314 C2317 1.409 . S
C2315 H2307 0.930 . S
C2315 C2316 1.355 . S
C2315 C2317 1.415 . S
C2316 C2315 1.355 . S
C2316 C2318 1.419 . S
C2317 C2312 1.425 . S
C2317 C2314 1.409 . S
C2317 C2315 1.415 . S
C2318 H2308 0.930 . S
C2318 C2316 1.419 . S
C2318 C2319 1.362 . S
C2319 H2309 0.930 . S
C2319 C2312 1.409 . S
C2319 C2318 1.362 . S
H2320 C2326 0.930 . S
H2321 C2329 0.930 . S
H2322 C2330 0.930 . S
H2323 C2331 0.930 . S
H2324 C2334 0.930 . S
H2325 C2335 0.930 . S
C2326 H2320 0.930 . S
C2326 C2327 1.355 . S
C2326 C2328 1.415 . S
C2327 C2326 1.355 . S
C2327 C2329 1.419 . S
C2328 C2326 1.415 . S
C2328 C2333 1.425 . S
C2328 C2335 1.409 . S
C2329 H2321 0.930 . S
C2329 C2327 1.419 . S
C2329 C2330 1.362 . S
C2330 H2322 0.930 . S
C2330 C2329 1.362 . S
C2330 C2333 1.409 . S
C2331 H2323 0.930 . S
C2331 C2332 1.355 . S
C2331 C2333 1.415 . S
C2332 C2331 1.355 . S
C2332 C2334 1.419 . S
C2333 C2328 1.425 . S
C2333 C2330 1.409 . S
C2333 C2331 1.415 . S
C2334 H2324 0.930 . S
C2334 C2332 1.419 . S
C2334 C2335 1.362 . S
C2335 H2325 0.930 . S
C2335 C2328 1.409 . S
C2335 C2334 1.362 . S
H2336 C2342 0.930 . S
H2337 C2345 0.930 . S
H2338 C2346 0.930 . S
H2339 C2347 0.930 . S
H2340 C2350 0.930 . S
H2341 C2351 0.930 . S
C2342 H2336 0.930 . S
C2342 C2343 1.355 . S
C2342 C2344 1.415 . S
C2343 C2342 1.355 . S
C2343 C2345 1.419 . S
C2344 C2342 1.415 . S
C2344 C2349 1.425 . S
C2344 C2351 1.409 . S
C2345 H2337 0.930 . S
C2345 C2343 1.419 . S
C2345 C2346 1.362 . S
C2346 H2338 0.930 . S
C2346 C2345 1.362 . S
C2346 C2349 1.409 . S
C2347 H2339 0.930 . S
C2347 C2348 1.355 . S
C2347 C2349 1.415 . S
C2348 C2347 1.355 . S
C2348 C2350 1.419 . S
C2349 C2344 1.425 . S
C2349 C2346 1.409 . S
C2349 C2347 1.415 . S
C2350 H2340 0.930 . S
C2350 C2348 1.419 . S
C2350 C2351 1.362 . S
C2351 H2341 0.930 . S
C2351 C2344 1.409 . S
C2351 C2350 1.362 . S
H2352 C2358 0.930 . S
H2353 C2361 0.930 . S
H2354 C2362 0.930 . S
H2355 C2363 0.930 . S
H2356 C2366 0.930 . S
H2357 C2367 0.930 . S
C2358 H2352 0.930 . S
C2358 C2359 1.355 . S
C2358 C2360 1.415 . S
C2359 C2358 1.355 . S
C2359 C2361 1.419 . S
C2360 C2358 1.415 . S
C2360 C2365 1.425 . S
C2360 C2367 1.409 . S
C2361 H2353 0.930 . S
C2361 C2359 1.419 . S
C2361 C2362 1.362 . S
C2362 H2354 0.930 . S
C2362 C2361 1.362 . S
C2362 C2365 1.409 . S
C2363 H2355 0.930 . S
C2363 C2364 1.355 . S
C2363 C2365 1.415 . S
C2364 C2363 1.355 . S
C2364 C2366 1.419 . S
C2365 C2360 1.425 . S
C2365 C2362 1.409 . S
C2365 C2363 1.415 . S
C2366 H2356 0.930 . S
C2366 C2364 1.419 . S
C2366 C2367 1.362 . S
C2367 H2357 0.930 . S
C2367 C2360 1.409 . S
C2367 C2366 1.362 . S
H2368 C2374 0.930 . S
H2369 C2377 0.930 . S
H2370 C2378 0.930 . S
H2371 C2379 0.930 . S
H2372 C2382 0.930 . S
H2373 C2383 0.930 . S
C2374 H2368 0.930 . S
C2374 C2375 1.355 . S
C2374 C2376 1.415 . S
C2375 C2374 1.355 . S
C2375 C2377 1.419 . S
C2376 C2374 1.415 . S
C2376 C2381 1.425 . S
C2376 C2383 1.409 . S
C2377 H2369 0.930 . S
C2377 C2375 1.419 . S
C2377 C2378 1.362 . S
C2378 H2370 0.930 . S
C2378 C2377 1.362 . S
C2378 C2381 1.409 . S
C2379 H2371 0.930 . S
C2379 C2380 1.355 . S
C2379 C2381 1.415 . S
C2380 C2379 1.355 . S
C2380 C2382 1.419 . S
C2381 C2376 1.425 . S
C2381 C2378 1.409 . S
C2381 C2379 1.415 . S
C2382 H2372 0.930 . S
C2382 C2380 1.419 . S
C2382 C2383 1.362 . S
C2383 H2373 0.930 . S
C2383 C2376 1.409 . S
C2383 C2382 1.362 . S
H2384 C2390 0.930 . S
H2385 C2393 0.930 . S
H2386 C2394 0.930 . S
H2387 C2395 0.930 . S
H2388 C2398 0.930 . S
H2389 C2399 0.930 . S
C2390 H2384 0.930 . S
C2390 C2391 1.355 . S
C2390 C2392 1.415 . S
C2391 C2390 1.355 . S
C2391 C2393 1.419 . S
C2392 C2390 1.415 . S
C2392 C2397 1.425 . S
C2392 C2399 1.409 . S
C2393 H2385 0.930 . S
C2393 C2391 1.419 . S
C2393 C2394 1.362 . S
C2394 H2386 0.930 . S
C2394 C2393 1.362 . S
C2394 C2397 1.409 . S
C2395 H2387 0.930 . S
C2395 C2396 1.355 . S
C2395 C2397 1.415 . S
C2396 C2395 1.355 . S
C2396 C2398 1.419 . S
C2397 C2392 1.425 . S
C2397 C2394 1.409 . S
C2397 C2395 1.415 . S
C2398 H2388 0.930 . S
C2398 C2396 1.419 . S
C2398 C2399 1.362 . S
C2399 H2389 0.930 . S
C2399 C2392 1.409 . S
C2399 C2398 1.362 . S
H2400 C2406 0.930 . S
H2401 C2409 0.930 . S
H2402 C2410 0.930 . S
H2403 C2411 0.930 1_545 S
H2404 C2414 0.930 . S
H2405 C2415 0.930 . S
C2406 H2400 0.930 . S
C2406 C2407 1.355 . S
C2406 C2408 1.415 . S
C2407 C2406 1.355 . S
C2407 C2409 1.419 . S
C2408 C2406 1.415 . S
C2408 C2413 1.425 . S
C2408 C2415 1.409 . S
C2409 H2401 0.930 . S
C2409 C2407 1.419 . S
C2409 C2410 1.362 . S
C2410 H2402 0.930 . S
C2410 C2409 1.362 . S
C2410 C2413 1.409 . S
C2411 H2403 0.930 1_565 S
C2411 C2412 1.355 . S
C2411 C2413 1.415 . S
C2412 C2411 1.355 . S
C2412 C2414 1.419 . S
C2413 C2408 1.425 . S
C2413 C2410 1.409 . S
C2413 C2411 1.415 . S
C2414 H2404 0.930 . S
C2414 C2412 1.419 . S
C2414 C2415 1.362 . S
C2415 H2405 0.930 . S
C2415 C2408 1.409 . S
C2415 C2414 1.362 . S
H2416 C2422 0.930 . S
H2417 C2425 0.930 . S
H2418 C2426 0.930 . S
H2419 C2427 0.930 . S
H2420 C2430 0.930 . S
H2421 C2431 0.930 . S
C2422 H2416 0.930 . S
C2422 C2423 1.355 . S
C2422 C2424 1.415 . S
C2423 C2422 1.355 . S
C2423 C2425 1.419 . S
C2424 C2422 1.415 . S
C2424 C2429 1.425 . S
C2424 C2431 1.409 . S
C2425 H2417 0.930 . S
C2425 C2423 1.419 . S
C2425 C2426 1.362 . S
C2426 H2418 0.930 . S
C2426 C2425 1.362 . S
C2426 C2429 1.409 . S
C2427 H2419 0.930 . S
C2427 C2428 1.355 . S
C2427 C2429 1.415 . S
C2428 C2427 1.355 . S
C2428 C2430 1.419 . S
C2429 C2424 1.425 . S
C2429 C2426 1.409 . S
C2429 C2427 1.415 . S
C2430 H2420 0.930 . S
C2430 C2428 1.419 . S
C2430 C2431 1.362 . S
C2431 H2421 0.930 . S
C2431 C2424 1.409 . S
C2431 C2430 1.362 . S
H2432 C2438 0.930 . S
H2433 C2441 0.938 . S
H2434 C2442 0.930 1_556 S
H2435 C2443 0.930 . S
H2436 C2446 0.930 . S
H2437 C2447 0.930 . S
C2438 H2432 0.930 . S
C2438 C2439 1.355 . S
C2438 C2440 1.415 . S
C2439 C2438 1.355 . S
C2439 C2441 1.419 . S
C2440 C2438 1.415 . S
C2440 C2445 1.425 . S
C2440 C2447 1.409 . S
C2441 H2433 0.938 . S
C2441 C2439 1.419 . S
C2441 C2442 1.362 . S
C2442 H2434 0.930 1_554 S
C2442 C2441 1.362 . S
C2442 C2445 1.409 . S
C2443 H2435 0.930 . S
C2443 C2444 1.355 . S
C2443 C2445 1.415 . S
C2444 C2443 1.355 . S
C2444 C2446 1.419 . S
C2445 C2440 1.425 . S
C2445 C2442 1.409 . S
C2445 C2443 1.415 . S
C2446 H2436 0.930 . S
C2446 C2444 1.419 . S
C2446 C2447 1.362 . S
C2447 H2437 0.930 . S
C2447 C2440 1.409 . S
C2447 C2446 1.362 . S
H2448 C2454 0.930 . S
H2449 C2457 0.930 . S
H2450 C2458 0.930 . S
H2451 C2459 0.930 . S
H2452 C2462 0.930 . S
H2453 C2463 0.930 . S
C2454 H2448 0.930 . S
C2454 C2455 1.355 . S
C2454 C2456 1.415 . S
C2455 C2454 1.355 . S
C2455 C2457 1.419 . S
C2456 C2454 1.415 . S
C2456 C2461 1.425 . S
C2456 C2463 1.409 . S
C2457 H2449 0.930 . S
C2457 C2455 1.419 . S
C2457 C2458 1.362 . S
C2458 H2450 0.930 . S
C2458 C2457 1.362 . S
C2458 C2461 1.409 . S
C2459 H2451 0.930 . S
C2459 C2460 1.355 . S
C2459 C2461 1.415 . S
C2460 C2459 1.355 . S
C2460 C2462 1.419 . S
C2461 C2456 1.425 . S
C2461 C2458 1.409 . S
C2461 C2459 1.415 . S
C2462 H2452 0.930 . S
C2462 C2460 1.419 . S
C2462 C2463 1.362 . S
C2463 H2453 0.930 . S
C2463 C2456 1.409 . S
C2463 C2462 1.362 . S
H2464 C2470 0.930 . S
H2465 C2473 0.930 . S
H2466 C2474 0.930 . S
H2467 C2475 0.930 . S
H2468 C2478 0.930 . S
H2469 C2479 0.930 . S
C2470 H2464 0.930 . S
C2470 C2471 1.355 . S
C2470 C2472 1.415 . S
C2471 C2470 1.355 . S
C2471 C2473 1.419 . S
C2472 C2470 1.415 . S
C2472 C2477 1.425 . S
C2472 C2479 1.409 1_554 S
C2473 H2465 0.930 . S
C2473 C2471 1.419 . S
C2473 C2474 1.362 . S
C2474 H2466 0.930 . S
C2474 C2473 1.362 . S
C2474 C2477 1.409 . S
C2475 H2467 0.930 . S
C2475 C2476 1.355 . S
C2475 C2477 1.415 . S
C2476 C2475 1.355 . S
C2476 C2478 1.419 1_554 S
C2477 C2472 1.425 . S
C2477 C2474 1.409 . S
C2477 C2475 1.415 . S
C2478 H2468 0.930 . S
C2478 C2476 1.419 1_556 S
C2478 C2479 1.362 . S
C2479 H2469 0.930 . S
C2479 C2472 1.409 1_556 S
C2479 C2478 1.362 . S
H2480 C2486 0.930 . S
H2481 C2489 0.930 . S
H2482 C2490 0.930 . S
H2483 C2491 0.930 . S
H2484 C2494 0.930 . S
H2485 C2495 0.930 . S
C2486 H2480 0.930 . S
C2486 C2487 1.355 . S
C2486 C2488 1.415 . S
C2487 C2486 1.355 . S
C2487 C2489 1.419 . S
C2488 C2486 1.415 . S
C2488 C2493 1.425 . S
C2488 C2495 1.409 . S
C2489 H2481 0.930 . S
C2489 C2487 1.419 . S
C2489 C2490 1.362 . S
C2490 H2482 0.930 . S
C2490 C2489 1.362 . S
C2490 C2493 1.409 . S
C2491 H2483 0.930 . S
C2491 C2492 1.355 . S
C2491 C2493 1.415 . S
C2492 C2491 1.355 . S
C2492 C2494 1.419 . S
C2493 C2488 1.425 . S
C2493 C2490 1.409 . S
C2493 C2491 1.415 . S
C2494 H2484 0.930 . S
C2494 C2492 1.419 . S
C2494 C2495 1.362 . S
C2495 H2485 0.930 . S
C2495 C2488 1.409 . S
C2495 C2494 1.362 . S
H2496 C2502 0.930 . S
H2497 C2505 0.930 . S
H2498 C2506 0.930 . S
H2499 C2507 0.930 . S
H2500 C2510 0.930 . S
H2501 C2511 0.930 . S
C2502 H2496 0.930 . S
C2502 C2503 1.355 . S
C2502 C2504 1.415 . S
C2503 C2502 1.355 . S
C2503 C2505 1.419 . S
C2504 C2502 1.415 . S
C2504 C2509 1.425 . S
C2504 C2511 1.409 . S
C2505 H2497 0.930 . S
C2505 C2503 1.419 . S
C2505 C2506 1.362 . S
C2506 H2498 0.930 . S
C2506 C2505 1.362 . S
C2506 C2509 1.409 . S
C2507 H2499 0.930 . S
C2507 C2508 1.355 . S
C2507 C2509 1.415 . S
C2508 C2507 1.355 . S
C2508 C2510 1.419 . S
C2509 C2504 1.425 . S
C2509 C2506 1.409 . S
C2509 C2507 1.415 . S
C2510 H2500 0.930 . S
C2510 C2508 1.419 . S
C2510 C2511 1.362 . S
C2511 H2501 0.930 . S
C2511 C2504 1.409 . S
C2511 C2510 1.362 . S
C983 C106 2.582 . S
C988 C338 2.589 . S
C999 C65 2.166 . S
C1004 C395 2.175 . S
C1015 C79 1.629 . S
C1020 C418 1.632 . S
C1036 C472 1.172 . S
C1031 C90 1.141 . S
C1047 C21 1.142 . S
C1052 C512 1.158 . S
C1068 C543 0.743 . S
C1063 C35 0.719 . S
C1084 C595 1.424 . S
C1079 C50 1.412 . S
C1095 C6 1.937 . S
C1100 C618 1.993 . S
C1116 C355 2.675 . S
C1111 C232 2.673 . S
C1127 C245 0.660 . S
C1132 C392 0.728 . S
C1148 C435 1.314 . S
C1143 C274 1.319 . S
C1164 C458 1.463 . S
C1159 C175 1.465 . S
C1175 C231 1.680 . S
C1180 C498 1.755 . S
C1196 C546 1.406 . S
C1191 C246 1.462 . S
C1212 C592 0.404 . S
C1207 C273 0.505 . S
C1228 C635 2.289 . S
C1223 C176 2.275 . S
C1244 C352 1.490 1_565 S
C1239 C160 1.506 . S
C1255 C289 1.968 . S
C1260 C675 1.975 . S
C1276 C707 2.699 . S
C1271 C328 2.653 . S
C1292 C738 0.828 1_655 S
C1287 C317 0.895 . S
C1303 C118 1.658 . S
C1308 C632 1.676 . S
C1319 C132 1.629 . S
C1324 C432 1.618 . S
C1335 C331 2.349 . S
C1340 C795 2.341 . S
C1356 C818 0.826 . S
C1351 C303 0.915 . S
C1372 C347 2.187 . S
C1367 C63 2.166 . S
C1388 C826 2.611 . S
C1383 C107 2.549 . S
C1399 C92 1.453 . S
C1404 C427 1.451 . S
C1415 C78 1.611 . S
C1420 C783 1.630 . S
C1436 C503 1.517 . S
C1431 C8 1.593 . S
C1447 C51 0.820 . S
C1452 C712 0.771 . S
C1468 C586 1.969 1_556 S
C1463 C37 1.828 . S
C1484 C867 1.814 . S
C1479 C20 1.803 . S
C1500 C346 2.489 . S
C1495 C147 2.462 . S
C1516 C823 0.767 . S
C1511 C316 0.722 . S
C1527 C119 1.168 . S
C1532 C426 1.254 . S
C1543 C288 1.514 . S
C1548 C787 1.573 . S
C1559 C148 2.144 1_545 S
C1564 C507 2.135 . S
C1580 C715 1.384 . S
C1575 C315 1.326 . S
C1591 C120 0.552 . S
C1596 C583 0.637 . S
C1607 C287 2.111 . S
C1612 C866 2.085 . S
C1623 C188 1.475 . S
C1628 C343 1.407 . S
C1639 C177 2.255 . S
C1644 C666 2.295 . S
C1655 C258 2.745 . S
C1660 C538 2.790 . S
C1671 C247 0.887 . S
C1676 C747 0.867 . S
C1692 C863 1.398 . S
C1687 C272 1.377 1_565 S
C1703 C216 1.450 . S
C1708 C423 1.469 . S
C1724 C466 2.526 . S
C1719 C261 2.511 . S
C1740 C387 0.759 . S
C1735 C205 0.808 . S
C1751 C76 2.149 . S
C1756 C898 2.198 . S
C1772 C835 2.267 . S
C1767 C93 2.270 . S
C1783 C105 1.308 . S
C1788 C938 1.274 . S
C1799 C62 1.185 . S
C1804 C792 1.232 . S
C1815 C49 1.271 . S
C1820 C672 1.274 . S
C1836 C703 1.077 . S
C1831 C9 1.052 . S
C1852 C755 1.382 . S
C1847 C22 1.359 . S
C1868 C858 2.339 . S
C1863 C36 2.362 . S
C1884 C915 2.628 . S
C1879 C260 2.624 . S
C1895 C189 0.586 . S
C1900 C832 0.500 . S
C1916 C955 1.235 . S
C1911 C204 1.227 . S
C1932 C778 1.322 . S
C1927 C217 1.311 . S
C1948 C658 2.016 . S
C1943 C259 1.955 . S
C1959 C190 1.533 . S
C1964 C706 1.484 . S
C1980 C752 0.439 . S
C1975 C203 0.535 . S
C1991 C218 2.322 . S
C1996 C875 2.343 . S
C2012 C912 1.559 . S
C2007 C314 1.578 . S
C2023 C135 2.052 . S
C2028 C515 2.046 . S
C2044 C547 2.612 . S
C2039 C146 2.542 . S
C2060 C578 0.909 . S
C2055 C163 0.844 . S
C2076 C872 1.735 . S
C2071 C300 1.699 . S
C2087 C286 1.572 . S
C2092 C952 1.560 . S
C2108 C475 2.250 . S
C2103 C149 2.259 . S
C2124 C378 0.837 . S
C2119 C121 0.869 . S
C2135 C91 2.156 . S
C2140 C907 2.185 . S
C2156 C386 2.200 . S
C2151 C77 2.083 . S
C2167 C64 1.426 . S
C2172 C947 1.427 . S
C2183 C104 1.360 . S
C2188 C463 1.331 . S
C2199 C34 1.269 . S
C2204 C663 1.273 . S
C2220 C552 0.746 . S
C2215 C23 0.765 . S
C2231 C7 1.350 . S
C2236 C746 1.544 . S
C2247 C48 1.821 . S
C2252 C627 1.850 . S
C2268 C906 2.450 . S
C2263 C329 2.381 . S
C2279 C162 0.751 . S
C2284 C383 0.709 . S
C2300 C946 1.269 . S
C2295 C301 1.158 . S
C2311 C134 1.571 . S
C2316 C467 1.566 . S
C2327 C330 2.086 . S
C2332 C667 2.091 . S
C2348 C555 1.408 . S
C2343 C161 1.414 . S
C2359 C302 0.575 . S
C2364 C743 0.658 . S
C2380 C626 2.047 . S
C2375 C133 2.044 . S
C2396 C903 1.541 . S
C2391 C244 1.588 . S
C2412 C506 2.239 1_665 S
C2407 C219 2.202 . S
C2423 C230 2.483 . S
C2428 C698 2.518 . S
C2444 C587 0.831 . S
C2439 C191 0.873 . S
C2455 C202 1.596 . S
C2460 C623 1.561 . S
C2471 C174 1.586 . S
C2476 C943 1.605 . S
C2492 C786 2.533 . S
C2487 C233 2.506 1_565 S
C2508 C827 0.894 . S
C2503 C275 0.869 . S
