# Generated by pormake.
# Topology dag, (6,3)-cn, num edge types: 1
# Building blocks:
#     Node 0, Type 0, BuildingBlock: IZENUY_clean_sbu_0, # of connection points: 6
#     Node 1, Type 0, BuildingBlock: IZENUY_clean_sbu_0, # of connection points: 6
#     Node 2, Type 0, BuildingBlock: IZENUY_clean_sbu_0, # of connection points: 6
#     Node 3, Type 0, BuildingBlock: IZENUY_clean_sbu_0, # of connection points: 6
#     Node 4, Type 1, BuildingBlock: WUSLED_clean_sbu_0, # of connection points: 3
#     Node 5, Type 1, BuildingBlock: WUSLED_clean_sbu_0, # of connection points: 3
#     Node 6, Type 1, BuildingBlock: WUSLED_clean_sbu_0, # of connection points: 3
#     Node 7, Type 1, BuildingBlock: WUSLED_clean_sbu_0, # of connection points: 3
#     Node 8, Type 1, BuildingBlock: WUSLED_clean_sbu_0, # of connection points: 3
#     Node 9, Type 1, BuildingBlock: WUSLED_clean_sbu_0, # of connection points: 3
#     Node 10, Type 1, BuildingBlock: WUSLED_clean_sbu_0, # of connection points: 3
#     Node 11, Type 1, BuildingBlock: WUSLED_clean_sbu_0, # of connection points: 3
#     Edge 12, Type (0, 1), BuildingBlock: KIFKEQ_clean_linker_1, # of connection points: 2
#     Edge 13, Type (0, 1), BuildingBlock: KIFKEQ_clean_linker_1, # of connection points: 2
#     Edge 14, Type (0, 1), BuildingBlock: KIFKEQ_clean_linker_1, # of connection points: 2
#     Edge 15, Type (0, 1), BuildingBlock: KIFKEQ_clean_linker_1, # of connection points: 2
#     Edge 16, Type (0, 1), BuildingBlock: KIFKEQ_clean_linker_1, # of connection points: 2
#     Edge 17, Type (0, 1), BuildingBlock: KIFKEQ_clean_linker_1, # of connection points: 2
#     Edge 18, Type (0, 1), BuildingBlock: KIFKEQ_clean_linker_1, # of connection points: 2
#     Edge 19, Type (0, 1), BuildingBlock: KIFKEQ_clean_linker_1, # of connection points: 2
#     Edge 20, Type (0, 1), BuildingBlock: KIFKEQ_clean_linker_1, # of connection points: 2
#     Edge 21, Type (0, 1), BuildingBlock: KIFKEQ_clean_linker_1, # of connection points: 2
#     Edge 22, Type (0, 1), BuildingBlock: KIFKEQ_clean_linker_1, # of connection points: 2
#     Edge 23, Type (0, 1), BuildingBlock: KIFKEQ_clean_linker_1, # of connection points: 2
#     Edge 24, Type (0, 1), BuildingBlock: KIFKEQ_clean_linker_1, # of connection points: 2
#     Edge 25, Type (0, 1), BuildingBlock: KIFKEQ_clean_linker_1, # of connection points: 2
#     Edge 26, Type (0, 1), BuildingBlock: KIFKEQ_clean_linker_1, # of connection points: 2
#     Edge 27, Type (0, 1), BuildingBlock: KIFKEQ_clean_linker_1, # of connection points: 2
#     Edge 28, Type (0, 1), BuildingBlock: KIFKEQ_clean_linker_1, # of connection points: 2
#     Edge 29, Type (0, 1), BuildingBlock: KIFKEQ_clean_linker_1, # of connection points: 2
#     Edge 30, Type (0, 1), BuildingBlock: KIFKEQ_clean_linker_1, # of connection points: 2
#     Edge 31, Type (0, 1), BuildingBlock: KIFKEQ_clean_linker_1, # of connection points: 2
#     Edge 32, Type (0, 1), BuildingBlock: KIFKEQ_clean_linker_1, # of connection points: 2
#     Edge 33, Type (0, 1), BuildingBlock: KIFKEQ_clean_linker_1, # of connection points: 2
#     Edge 34, Type (0, 1), BuildingBlock: KIFKEQ_clean_linker_1, # of connection points: 2
#     Edge 35, Type (0, 1), BuildingBlock: KIFKEQ_clean_linker_1, # of connection points: 2
# Relax obj value: 0.246
# Max RMSD: 0.191
# Mean RMSD: 0.158
data_MOF--net-dag--node1-IZENUY_clean_sbu_0--node2-WUSLED_clean_sbu_0--edge1-KIFKEQ_clean_linker_1
_symmetry_space_group_name_H-M    P1
_symmetry_Int_Tables_number       1
_symmetry_cell_setting            triclinic
loop_
_symmetry_equiv_pos_as_xyz
'x, y, z'
_cell_length_a     50.193675
_cell_length_b     52.5066
_cell_length_c     44.383133
_cell_angle_alpha  94.816672
_cell_angle_beta   90.261963
_cell_angle_gamma 90.105342
loop_
_atom_site_label
_atom_site_type_symbol
_atom_site_fract_x
_atom_site_fract_y
_atom_site_fract_z
_atom_type_partial_charge
Fe0 Fe 0.18964 0.85355 0.09 0.0
Fe1 Fe 0.13526 0.86973 0.06608 0.0
O2 O 0.15846 0.84556 0.07277 0.0
Fe3 Fe 0.15016 0.81308 0.06256 0.0
O4 O 0.15215 0.80593 0.10197 0.0
O5 O 0.19101 0.8248 0.11082 0.0
O6 O 0.17401 0.86952 0.12335 0.0
C7 C 0.15721 0.8873 0.12289 0.0
C8 C 0.2053 0.81474 0.0492 0.0
O9 O 0.14453 0.89106 0.09907 0.0
C10 C 0.13185 0.8355 0.01333 0.0
O11 O 0.19355 0.88381 0.07221 0.0
O12 O 0.15844 0.8853 0.0425 0.0
O13 O 0.18457 0.80253 0.05539 0.0
O14 O 0.20775 0.83809 0.05813 0.0
C15 C 0.10102 0.83361 0.08345 0.0
O16 O 0.12214 0.85288 0.03153 0.0
O17 O 0.14733 0.8188 0.02264 0.0
C18 C 0.18149 0.89291 0.05036 0.0
O19 O 0.11016 0.85587 0.08935 0.0
O20 O 0.11419 0.81705 0.06758 0.0
C21 C 0.17242 0.81039 0.11862 0.0
Fe22 Fe 0.68514 0.65408 0.48956 0.0
Fe23 Fe 0.64601 0.69556 0.5155 0.0
O24 O 0.65429 0.6628 0.507 0.0
Fe25 Fe 0.63163 0.63868 0.51563 0.0
O26 O 0.6556 0.62464 0.53988 0.0
O27 O 0.68915 0.62447 0.50824 0.0
O28 O 0.70386 0.67012 0.52049 0.0
C29 C 0.701 0.69325 0.52995 0.0
C30 C 0.65212 0.61945 0.45888 0.0
O31 O 0.68042 0.70574 0.52381 0.0
C32 C 0.5967 0.67326 0.49537 0.0
O33 O 0.68696 0.682 0.46794 0.0
O34 O 0.6489 0.70201 0.47578 0.0
O35 O 0.64059 0.61642 0.48356 0.0
O36 O 0.66864 0.63736 0.45698 0.0
C37 C 0.62704 0.67522 0.56617 0.0
O38 O 0.61005 0.69126 0.50892 0.0
O39 O 0.60594 0.65089 0.49203 0.0
C40 C 0.66929 0.69709 0.45972 0.0
O41 O 0.64232 0.69154 0.55586 0.0
O42 O 0.61848 0.6564 0.54926 0.0
C43 C 0.67827 0.61669 0.53142 0.0
Fe44 Fe 0.8611 0.196 0.02018 0.0
Fe45 Fe 0.87602 0.13933 0.02117 0.0
O46 O 0.85295 0.16307 0.01211 0.0
Fe47 Fe 0.82203 0.15335 0.99491 0.0
O48 O 0.82842 0.17102 0.96266 0.0
O49 O 0.84495 0.20641 0.98597 0.0
O50 O 0.89189 0.19339 0.99856 0.0
C51 C 0.9103 0.17785 1.00298 0.0
C52 C 0.80766 0.19607 0.03506 0.0
O53 O 0.90592 0.15842 0.01701 0.0
C54 C 0.82669 0.11626 0.03379 0.0
O55 O 0.87872 0.19089 0.05572 0.0
O56 O 0.87398 0.14967 0.06117 0.0
O57 O 0.80271 0.17959 0.01336 0.0
O58 O 0.83128 0.20198 0.04262 0.0
C59 C 0.85977 0.12063 0.96487 0.0
O60 O 0.85111 0.11496 0.02726 0.0
O61 O 0.81278 0.13452 0.02589 0.0
C62 C 0.87895 0.1722 0.07216 0.0
O63 O 0.87923 0.128 0.98152 0.0
O64 O 0.83601 0.1254 0.97291 0.0
C65 C 0.83537 0.19407 0.9626 0.0
Fe66 Fe 0.37755 0.36953 0.5674 0.0
Fe67 Fe 0.32295 0.35558 0.5917 0.0
O68 O 0.35399 0.34574 0.57532 0.0
Fe69 Fe 0.3617 0.3128 0.56709 0.0
O70 O 0.39252 0.31503 0.58883 0.0
O71 O 0.40737 0.35026 0.57186 0.0
O72 O 0.38033 0.38041 0.60718 0.0
C73 C 0.36077 0.38843 0.62301 0.0
C74 C 0.38052 0.33731 0.51588 0.0
O75 O 0.33707 0.38356 0.61417 0.0
C76 C 0.30816 0.31229 0.55187 0.0
O77 O 0.35283 0.39415 0.56085 0.0
O78 O 0.31452 0.37428 0.56022 0.0
O79 O 0.37898 0.31803 0.53139 0.0
O80 O 0.37609 0.3597 0.52752 0.0
C81 C 0.3362 0.31511 0.62465 0.0
O82 O 0.30323 0.32931 0.57296 0.0
O83 O 0.3318 0.30673 0.54454 0.0
C84 C 0.32856 0.39278 0.55319 0.0
O85 O 0.32871 0.33796 0.62419 0.0
O86 O 0.34581 0.30262 0.60149 0.0
C87 C 0.41122 0.33035 0.58513 0.0
C88 C 0.02108 0.17421 0.31328 0.0
C89 C 0.01476 0.15256 0.29379 0.0
C90 C 0.98131 0.1769 0.26839 0.0
C91 C 0.99499 0.15388 0.2716 0.0
C92 C 0.98734 0.19832 0.28849 0.0
C93 C 0.00703 0.19695 0.31071 0.0
U94 U 0.07956 0.1403 0.34729 0.0
O95 O 0.1197 0.15415 0.35998 0.0
O96 O 0.09363 0.13988 0.39455 0.0
C97 C 0.11674 0.15015 0.38863 0.0
C98 C 0.04306 0.17381 0.33537 0.0
C99 C 0.12812 0.1695 0.41131 0.0
C100 C 0.14503 0.21237 0.42591 0.0
C101 C 0.12934 0.19565 0.40676 0.0
C102 C 0.15675 0.17739 0.4555 0.0
C103 C 0.15983 0.20323 0.44988 0.0
C104 C 0.14126 0.16078 0.43637 0.0
C105 C 0.0907 0.07106 0.30808 0.0
C106 C 0.12979 0.04441 0.29838 0.0
C107 C 0.08605 0.02829 0.2833 0.0
C108 C 0.07468 0.05113 0.2952 0.0
C109 C 0.11378 0.02491 0.28396 0.0
C110 C 0.11831 0.06737 0.31043 0.0
C111 C 0.07808 0.09616 0.31478 0.0
O112 O 0.0403 0.15786 0.35645 0.0
O113 O 0.06707 0.17349 0.32368 0.0
O114 O 0.09106 0.11621 0.30664 0.0
O115 O 0.06553 0.10032 0.34063 0.0
H116 H 0.02551 0.13484 0.29534 0.0
H117 H 0.9911 0.13711 0.25627 0.0
H118 H 0.977 0.21624 0.28689 0.0
H119 H 0.01162 0.21383 0.32557 0.0
H120 H 0.14676 0.23209 0.42074 0.0
H121 H 0.11932 0.20289 0.38758 0.0
H122 H 0.16699 0.16967 0.47422 0.0
H123 H 0.14054 0.14072 0.44043 0.0
H124 H 0.15123 0.04224 0.29932 0.0
H125 H 0.07321 0.01387 0.27194 0.0
H126 H 0.05337 0.05373 0.29291 0.0
H127 H 0.13104 0.08257 0.32027 0.0
C128 C 0.39844 0.57666 0.8253 0.0
C129 C 0.41603 0.57087 0.8012 0.0
C130 C 0.39329 0.53009 0.78875 0.0
C131 C 0.41347 0.54778 0.78306 0.0
C132 C 0.3764 0.53579 0.81364 0.0
C133 C 0.3789 0.55885 0.83157 0.0
U134 U 0.4288 0.64292 0.84664 0.0
O135 O 0.40894 0.68009 0.85498 0.0
O136 O 0.43237 0.66474 0.89121 0.0
C137 C 0.41686 0.68323 0.88331 0.0
C138 C 0.39908 0.60155 0.8433 0.0
C139 C 0.39688 0.69338 0.90544 0.0
C140 C 0.35364 0.69212 0.93002 0.0
C141 C 0.3732 0.6803 0.91106 0.0
C142 C 0.38164 0.72967 0.9384 0.0
C143 C 0.35742 0.71723 0.94324 0.0
C144 C 0.40111 0.71785 0.91977 0.0
C145 C 0.49248 0.65794 0.79934 0.0
C146 C 0.50808 0.69328 0.77199 0.0
C147 C 0.53521 0.65534 0.77373 0.0
C148 C 0.51617 0.6448 0.79191 0.0
C149 C 0.53074 0.67916 0.76251 0.0
C150 C 0.48909 0.6828 0.79045 0.0
C151 C 0.47014 0.6432 0.81064 0.0
O152 O 0.41902 0.60536 0.86247 0.0
O153 O 0.3939 0.62149 0.82827 0.0
O154 O 0.44598 0.6497 0.80273 0.0
O155 O 0.47169 0.63596 0.83824 0.0
H156 H 0.43127 0.58444 0.79598 0.0
H157 H 0.42669 0.54429 0.76396 0.0
H158 H 0.36103 0.52251 0.81924 0.0
H159 H 0.36522 0.56296 0.85015 0.0
H160 H 0.33513 0.68208 0.93327 0.0
H161 H 0.36955 0.66136 0.90017 0.0
H162 H 0.38534 0.74883 0.9486 0.0
H163 H 0.41928 0.72822 0.91581 0.0
H164 H 0.50421 0.71166 0.76344 0.0
H165 H 0.5523 0.64391 0.76635 0.0
H166 H 0.51906 0.6255 0.79825 0.0
H167 H 0.47096 0.69332 0.79585 0.0
C168 C 0.7516 0.90622 0.13744 0.0
C169 C 0.77529 0.90988 0.12163 0.0
C170 C 0.7606 0.95237 0.11082 0.0
C171 C 0.77979 0.93285 0.10854 0.0
C172 C 0.73646 0.94825 0.12548 0.0
C173 C 0.73207 0.92536 0.13884 0.0
U174 U 0.77838 0.84448 0.16473 0.0
O175 O 0.77679 0.82926 0.20925 0.0
O176 O 0.75948 0.80697 0.16961 0.0
C177 C 0.76415 0.80835 0.1989 0.0
C178 C 0.74785 0.88339 0.15424 0.0
C179 C 0.7441 0.79781 0.21874 0.0
C180 C 0.71619 0.8017 0.26367 0.0
C181 C 0.73001 0.81306 0.24078 0.0
C182 C 0.72858 0.75987 0.24115 0.0
C183 C 0.7163 0.77492 0.2649 0.0
C184 C 0.74246 0.77119 0.21859 0.0
C185 C 0.85187 0.83282 0.13315 0.0
C186 C 0.89093 0.80807 0.14505 0.0
C187 C 0.89197 0.83512 0.10345 0.0
C188 C 0.86572 0.84215 0.10919 0.0
C189 C 0.90512 0.81811 0.1213 0.0
C190 C 0.8644 0.81548 0.15105 0.0
C191 C 0.82546 0.84389 0.13951 0.0
O192 O 0.74698 0.86135 0.13784 0.0
O193 O 0.76273 0.88274 0.1786 0.0
O194 O 0.82086 0.85479 0.16672 0.0
O195 O 0.80456 0.83264 0.12633 0.0
H196 H 0.79064 0.89535 0.1203 0.0
H197 H 0.79859 0.93569 0.09738 0.0
H198 H 0.72155 0.96316 0.12778 0.0
H199 H 0.71372 0.9229 0.15103 0.0
H200 H 0.70698 0.81404 0.2814 0.0
H201 H 0.73096 0.8337 0.24136 0.0
H202 H 0.72836 0.73922 0.24045 0.0
H203 H 0.75314 0.75903 0.20179 0.0
H204 H 0.90036 0.79484 0.15918 0.0
H205 H 0.90221 0.84398 0.08563 0.0
H206 H 0.85647 0.8558 0.0954 0.0
H207 H 0.85397 0.80816 0.16982 0.0
C208 C 0.75945 0.40504 0.62515 0.0
C209 C 0.73716 0.40703 0.60635 0.0
C210 C 0.74827 0.45154 0.60085 0.0
C211 C 0.73159 0.43022 0.59428 0.0
C212 C 0.77126 0.44906 0.61838 0.0
C213 C 0.77672 0.42596 0.63055 0.0
U214 U 0.73853 0.34231 0.65883 0.0
O215 O 0.76351 0.30933 0.66835 0.0
O216 O 0.74664 0.33485 0.70623 0.0
C217 C 0.76158 0.31507 0.69768 0.0
C218 C 0.76374 0.38268 0.64222 0.0
C219 C 0.77454 0.29971 0.71954 0.0
C220 C 0.80582 0.29694 0.76105 0.0
C221 C 0.79616 0.30971 0.73683 0.0
C222 C 0.77283 0.26364 0.75008 0.0
C223 C 0.79365 0.2742 0.76854 0.0
C224 C 0.76336 0.27631 0.72576 0.0
C225 C 0.66267 0.32462 0.63223 0.0
C226 C 0.62183 0.30269 0.64428 0.0
C227 C 0.62255 0.32967 0.60263 0.0
C228 C 0.64943 0.33493 0.60826 0.0
C229 C 0.60823 0.31376 0.62075 0.0
C230 C 0.64888 0.30816 0.65005 0.0
C231 C 0.69004 0.33331 0.63919 0.0
O232 O 0.74978 0.38261 0.66712 0.0
O233 O 0.76486 0.36017 0.62689 0.0
O234 O 0.71084 0.32284 0.62517 0.0
O235 O 0.6953 0.34747 0.66435 0.0
H236 H 0.72353 0.39109 0.60212 0.0
H237 H 0.71374 0.43183 0.58077 0.0
H238 H 0.78418 0.46533 0.62399 0.0
H239 H 0.79388 0.42475 0.64527 0.0
H240 H 0.82176 0.30563 0.7749 0.0
H241 H 0.80489 0.32788 0.73233 0.0
H242 H 0.76332 0.24595 0.75503 0.0
H243 H 0.74656 0.26842 0.71267 0.0
H244 H 0.61148 0.29015 0.65849 0.0
H245 H 0.61276 0.33896 0.58473 0.0
H246 H 0.65971 0.34788 0.59447 0.0
H247 H 0.65882 0.30003 0.6687 0.0
C248 C 0.52045 0.32633 0.27384 0.0
C249 C 0.51383 0.34909 0.29098 0.0
C250 C 0.48312 0.32583 0.32096 0.0
C251 C 0.49531 0.34883 0.31436 0.0
C252 C 0.4889 0.30328 0.30292 0.0
C253 C 0.50758 0.30353 0.27959 0.0
U254 U 0.57771 0.35987 0.23845 0.0
O255 O 0.61776 0.34678 0.22521 0.0
O256 O 0.59052 0.36027 0.19096 0.0
C257 C 0.61395 0.3505 0.19658 0.0
C258 C 0.54191 0.326 0.25133 0.0
C259 C 0.62485 0.33115 0.174 0.0
C260 C 0.64334 0.28895 0.16048 0.0
C261 C 0.62769 0.30537 0.17965 0.0
C262 C 0.65138 0.32333 0.12859 0.0
C263 C 0.65632 0.29804 0.13536 0.0
C264 C 0.63604 0.33969 0.14783 0.0
C265 C 0.58894 0.43006 0.27465 0.0
C266 C 0.62511 0.45765 0.29456 0.0
C267 C 0.58107 0.47515 0.28807 0.0
C268 C 0.57196 0.45126 0.27635 0.0
C269 C 0.60735 0.47836 0.29885 0.0
C270 C 0.61595 0.43361 0.2826 0.0
C271 C 0.57659 0.40452 0.26974 0.0
O272 O 0.53868 0.34145 0.22978 0.0
O273 O 0.56613 0.32678 0.26274 0.0
O274 O 0.59002 0.38487 0.27828 0.0
O275 O 0.56286 0.39942 0.24466 0.0
H276 H 0.52356 0.3669 0.28687 0.0
H277 H 0.49105 0.36649 0.32788 0.0
H278 H 0.47992 0.2853 0.30775 0.0
H279 H 0.51254 0.28579 0.26661 0.0
H280 H 0.64656 0.26966 0.16657 0.0
H281 H 0.61913 0.29831 0.19971 0.0
H282 H 0.66012 0.33089 0.10894 0.0
H283 H 0.63398 0.35948 0.14298 0.0
H284 H 0.64549 0.45947 0.30257 0.0
H285 H 0.56703 0.49083 0.29031 0.0
H286 H 0.55108 0.44902 0.27035 0.0
H287 H 0.62953 0.41756 0.28142 0.0
C288 C 0.15931 0.20212 0.93418 0.0
C289 C 0.15244 0.18507 0.95561 0.0
C290 C 0.10645 0.20067 0.95623 0.0
C291 C 0.12634 0.18451 0.96673 0.0
C292 C 0.11386 0.21796 0.9351 0.0
C293 C 0.13996 0.21874 0.92442 0.0
U294 U 0.22923 0.17406 0.91888 0.0
O295 O 0.25155 0.1692 0.87636 0.0
O296 O 0.26762 0.19396 0.91447 0.0
C297 C 0.27054 0.18513 0.88606 0.0
C298 C 0.18606 0.20239 0.92059 0.0
C299 C 0.27913 0.2034 0.86456 0.0
C300 C 0.26985 0.23719 0.83179 0.0
C301 C 0.26208 0.22236 0.85511 0.0
C302 C 0.31214 0.21504 0.82815 0.0
C303 C 0.29473 0.23324 0.81753 0.0
C304 C 0.30435 0.20026 0.85137 0.0
C305 C 0.24039 0.10994 0.95975 0.0
C306 C 0.24888 0.06433 0.94958 0.0
C307 C 0.24061 0.08214 1.00076 0.0
C308 C 0.23881 0.10651 0.99067 0.0
C309 C 0.24415 0.06068 0.98012 0.0
C310 C 0.24684 0.08886 0.93937 0.0
C311 C 0.22868 0.13357 0.94961 0.0
O312 O 0.20622 0.20671 0.93935 0.0
O313 O 0.19073 0.1841 0.89924 0.0
O314 O 0.22026 0.13342 0.9215 0.0
O315 O 0.23763 0.15589 0.96108 0.0
H316 H 0.16717 0.17208 0.96351 0.0
H317 H 0.12185 0.17131 0.98347 0.0
H318 H 0.09938 0.23038 0.92578 0.0
H319 H 0.14488 0.23197 0.90781 0.0
H320 H 0.25612 0.25131 0.82438 0.0
H321 H 0.24251 0.22511 0.86506 0.0
H322 H 0.33128 0.21133 0.81754 0.0
H323 H 0.31773 0.18565 0.85831 0.0
H324 H 0.2516 0.04804 0.93323 0.0
H325 H 0.23706 0.07982 0.02444 0.0
H326 H 0.23367 0.12237 0.0068 0.0
H327 H 0.24811 0.09095 0.91535 0.0
C328 C 0.25111 0.59794 0.43829 0.0
C329 C 0.2761 0.5938 0.45133 0.0
C330 C 0.26071 0.55315 0.46807 0.0
C331 C 0.28085 0.57165 0.46602 0.0
C332 C 0.23562 0.55754 0.45521 0.0
C333 C 0.23089 0.57974 0.44052 0.0
U334 U 0.27487 0.66161 0.41375 0.0
O335 O 0.27395 0.67773 0.36965 0.0
O336 O 0.2543 0.69829 0.40869 0.0
C337 C 0.26043 0.69804 0.37988 0.0
C338 C 0.24626 0.62076 0.42167 0.0
C339 C 0.24137 0.70881 0.35891 0.0
C340 C 0.20862 0.70411 0.31814 0.0
C341 C 0.22255 0.69382 0.34185 0.0
C342 C 0.23092 0.74472 0.32963 0.0
C343 C 0.21323 0.72948 0.31144 0.0
C344 C 0.24487 0.73445 0.35307 0.0
C345 C 0.34696 0.67731 0.44699 0.0
C346 C 0.38674 0.69783 0.42926 0.0
C347 C 0.38723 0.67956 0.47762 0.0
C348 C 0.36059 0.67248 0.47354 0.0
C349 C 0.4007 0.69154 0.45513 0.0
C350 C 0.35987 0.69084 0.42524 0.0
C351 C 0.32139 0.66405 0.44106 0.0
O352 O 0.24363 0.64247 0.43843 0.0
O353 O 0.26157 0.62279 0.39805 0.0
O354 O 0.31754 0.65279 0.41382 0.0
O355 O 0.29975 0.67419 0.4535 0.0
H356 H 0.29205 0.60756 0.4498 0.0
H357 H 0.30055 0.56878 0.4752 0.0
H358 H 0.21958 0.54388 0.4566 0.0
H359 H 0.21145 0.58261 0.43066 0.0
H360 H 0.19515 0.69199 0.3042 0.0
H361 H 0.21962 0.67395 0.34585 0.0
H362 H 0.23511 0.76416 0.3246 0.0
H363 H 0.25951 0.74625 0.36572 0.0
H364 H 0.39697 0.70689 0.41156 0.0
H365 H 0.39779 0.67417 0.49746 0.0
H366 H 0.35108 0.66178 0.49038 0.0
H367 H 0.34973 0.69461 0.40448 0.0
C368 C 0.90227 0.93747 0.76167 0.0
C369 C 0.92006 0.9442 0.78554 0.0
C370 C 0.89477 0.9832 0.7984 0.0
C371 C 0.91639 0.96713 0.80375 0.0
C372 C 0.87755 0.97663 0.77407 0.0
C373 C 0.8814 0.95406 0.75578 0.0
U374 U 0.92514 0.86774 0.73187 0.0
O375 O 0.8975 0.83646 0.71831 0.0
O376 O 0.92334 0.85203 0.68409 0.0
C377 C 0.9058 0.83461 0.69022 0.0
C378 C 0.90326 0.91286 0.74328 0.0
C379 C 0.88738 0.82407 0.66678 0.0
C380 C 0.84516 0.8234 0.63989 0.0
C381 C 0.86391 0.83648 0.65902 0.0
C382 C 0.87367 0.78602 0.63596 0.0
C383 C 0.84974 0.79786 0.62899 0.0
C384 C 0.8924 0.79911 0.65454 0.0
C385 C 0.98755 0.84769 0.78192 0.0
C386 C 0.0213 0.82017 0.80109 0.0
C387 C 0.01622 0.86375 0.82308 0.0
C388 C 0.99545 0.8676 0.8029 0.0
C389 C 0.02934 0.83996 0.82242 0.0
C390 C 1.00054 0.82404 0.78102 0.0
C391 C 0.9655 0.85038 0.76095 0.0
O392 O 0.92321 0.90871 0.72439 0.0
O393 O 0.89572 0.89248 0.75632 0.0
O394 O 0.96856 0.86392 0.73758 0.0
O395 O 0.94088 0.84868 0.77051 0.0
H396 H 0.93622 0.93154 0.7905 0.0
H397 H 0.9297 0.97181 0.8227 0.0
H398 H 0.86071 0.98868 0.76969 0.0
H399 H 0.86747 0.94913 0.73747 0.0
H400 H 0.82658 0.83267 0.63491 0.0
H401 H 0.85967 0.8557 0.6686 0.0
H402 H 0.87741 0.7663 0.62791 0.0
H403 H 0.91036 0.78923 0.66056 0.0
H404 H 0.03108 0.80174 0.7998 0.0
H405 H 0.02159 0.87925 0.83965 0.0
H406 H 0.98542 0.8859 0.80389 0.0
H407 H 0.99452 0.80847 0.76482 0.0
H408 H 0.15646 0.87877 0.18295 0.0
H409 H 0.15132 0.93826 0.12174 0.0
H410 H 0.14951 0.91074 0.22597 0.0
H411 H 0.14469 0.96996 0.16423 0.0
H412 H 0.15521 0.025 0.24463 0.0
H413 H 0.16923 0.99023 0.20836 0.0
H414 H 0.1123 0.93986 0.24561 0.0
H415 H 0.09857 0.97463 0.28239 0.0
C416 C 0.15415 0.89869 0.17882 0.0
C417 C 0.15443 0.90614 0.14918 0.0
C418 C 0.15004 0.91691 0.2033 0.0
C419 C 0.14682 0.94288 0.19848 0.0
C420 C 0.14756 0.9502 0.16876 0.0
C421 C 0.15113 0.93203 0.14441 0.0
C422 C 0.14625 0.00632 0.24571 0.0
C423 C 0.12571 1.00257 0.26626 0.0
C424 C 0.15405 0.98648 0.2247 0.0
C425 C 0.14159 0.96244 0.22387 0.0
C426 C 0.12231 0.95816 0.24575 0.0
C427 C 0.11436 0.97809 0.26667 0.0
H428 H 0.58854 0.64673 0.58959 0.0
H429 H 0.63977 0.71183 0.61307 0.0
H430 H 0.56749 0.65268 0.6383 0.0
H431 H 0.61812 0.71765 0.66303 0.0
H432 H 0.58486 0.68669 0.75889 0.0
H433 H 0.61069 0.68991 0.71226 0.0
H434 H 0.53743 0.689 0.66087 0.0
H435 H 0.51194 0.68612 0.70701 0.0
C436 C 0.59547 0.66237 0.60515 0.0
C437 C 0.61577 0.679 0.59711 0.0
C438 C 0.58321 0.66579 0.63315 0.0
C439 C 0.59085 0.68586 0.6542 0.0
C440 C 0.6118 0.7021 0.647 0.0
C441 C 0.62407 0.69881 0.61847 0.0
C442 C 0.57442 0.68796 0.73765 0.0
C443 C 0.54647 0.68633 0.73642 0.0
C444 C 0.58913 0.68986 0.7111 0.0
C445 C 0.57601 0.6895 0.68302 0.0
C446 C 0.54803 0.68922 0.68221 0.0
C447 C 0.53343 0.68775 0.70862 0.0
H448 H 0.85257 0.07836 0.05922 0.0
H449 H 0.77333 0.10341 0.03757 0.0
H450 H 0.83454 0.04004 0.07728 0.0
H451 H 0.75476 0.06491 0.05739 0.0
H452 H 0.73622 0.97828 0.06697 0.0
H453 H 0.75002 0.01937 0.0492 0.0
H454 H 0.81217 0.02532 0.11732 0.0
H455 H 0.79941 0.98394 0.13326 0.0
C456 C 0.83113 0.07586 0.05872 0.0
C457 C 0.81442 0.0941 0.04707 0.0
C458 C 0.82069 0.05383 0.06944 0.0
C459 C 0.79306 0.04937 0.06938 0.0
C460 C 0.77614 0.06762 0.05774 0.0
C461 C 0.78673 0.08983 0.04671 0.0
C462 C 0.75284 0.98854 0.07791 0.0
C463 C 0.76719 0.97786 0.10099 0.0
C464 C 0.76064 0.01214 0.06797 0.0
C465 C 0.78262 0.02556 0.08136 0.0
C466 C 0.79581 0.01525 0.10562 0.0
C467 C 0.78844 0.99159 0.11498 0.0
H468 H 0.44002 0.34607 0.63502 0.0
H469 H 0.4444 0.30013 0.55015 0.0
H470 H 0.48721 0.33867 0.64409 0.0
H471 H 0.49139 0.29148 0.5594 0.0
H472 H 0.58071 0.30761 0.5671 0.0
H473 H 0.53294 0.30923 0.55945 0.0
H474 H 0.52125 0.31228 0.65621 0.0
H475 H 0.56924 0.31269 0.66377 0.0
C476 C 0.45112 0.33387 0.61867 0.0
C477 C 0.43875 0.32337 0.59216 0.0
C478 C 0.47818 0.32942 0.62386 0.0
C479 C 0.49348 0.31436 0.60257 0.0
C480 C 0.48063 0.3035 0.57619 0.0
C481 C 0.45361 0.30811 0.57098 0.0
C482 C 0.56794 0.30869 0.58677 0.0
C483 C 0.57893 0.31042 0.61608 0.0
C484 C 0.54035 0.30925 0.58238 0.0
C485 C 0.52286 0.31121 0.60719 0.0
C486 C 0.5339 0.31147 0.63648 0.0
C487 C 0.56154 0.31122 0.64086 0.0
H488 H 0.66885 0.6195 0.39953 0.0
H489 H 0.62548 0.57474 0.46056 0.0
H490 H 0.65899 0.58696 0.3578 0.0
H491 H 0.61659 0.54257 0.41988 0.0
H492 H 0.57667 0.50357 0.34171 0.0
H493 H 0.58837 0.53947 0.37673 0.0
H494 H 0.66703 0.54146 0.3379 0.0
H495 H 0.65463 0.50579 0.30105 0.0
C496 C 0.65739 0.60276 0.40408 0.0
C497 C 0.64763 0.59994 0.43329 0.0
C498 C 0.65187 0.58411 0.38026 0.0
C499 C 0.63654 0.56243 0.38539 0.0
C500 C 0.62773 0.55937 0.41485 0.0
C501 C 0.63299 0.57788 0.43832 0.0
C502 C 0.59625 0.51196 0.33988 0.0
C503 C 0.61465 0.50178 0.31838 0.0
C504 C 0.60313 0.53239 0.36039 0.0
C505 C 0.62882 0.54302 0.36056 0.0
C506 C 0.64706 0.53365 0.33836 0.0
C507 C 0.64006 0.5131 0.31748 0.0
H508 H 0.94623 0.14303 0.9814 0.0
H509 H 0.93708 0.22366 0.00601 0.0
H510 H 0.99263 0.14933 0.97027 0.0
H511 H 0.9845 0.23014 0.99784 0.0
H512 H 0.06789 0.23847 0.9613 0.0
H513 H 0.02087 0.23381 0.97028 0.0
H514 H 0.03358 0.15457 0.98661 0.0
H515 H 0.07956 0.15835 0.97319 0.0
C516 C 0.95439 0.1622 0.98463 0.0
C517 C 0.93807 0.18287 0.99432 0.0
C518 C 0.98133 0.16587 0.9788 0.0
C519 C 0.99319 0.19025 0.98369 0.0
C520 C 0.97653 0.21107 0.99323 0.0
C521 C 0.94921 0.20744 0.99807 0.0
C522 C 0.0606 0.21983 0.96604 0.0
C523 C 0.07792 0.19869 0.96578 0.0
C524 C 0.03338 0.21725 0.97192 0.0
C525 C 0.0226 0.19362 0.97875 0.0
C526 C 0.04032 0.17292 0.98023 0.0
C527 C 0.06729 0.17527 0.97329 0.0
H528 H 0.27687 0.3986 0.53288 0.0
H529 H 0.35227 0.43815 0.54472 0.0
H530 H 0.2571 0.43705 0.51416 0.0
H531 H 0.33291 0.47578 0.52587 0.0
H532 H 0.28919 0.54811 0.5199 0.0
H533 H 0.30248 0.509 0.5414 0.0
H534 H 0.2581 0.46453 0.47183 0.0
H535 H 0.24455 0.50392 0.45033 0.0
C536 C 0.28924 0.41537 0.5314 0.0
C537 C 0.31616 0.41523 0.54041 0.0
C538 C 0.27794 0.43737 0.52061 0.0
C539 C 0.29329 0.4597 0.51891 0.0
C540 C 0.32024 0.45925 0.52754 0.0
C541 C 0.33147 0.43743 0.53811 0.0
C542 C 0.28223 0.53003 0.50913 0.0
C543 C 0.26626 0.52922 0.48298 0.0
C544 C 0.28985 0.50754 0.52148 0.0
C545 C 0.28189 0.48351 0.50796 0.0
C546 C 0.26461 0.48268 0.48285 0.0
C547 C 0.25687 0.5053 0.4705 0.0
H548 H 0.10342 0.87143 0.98744 0.0
H549 H 0.13713 0.7961 0.96797 0.0
H550 H 0.08371 0.86933 0.9378 0.0
H551 H 0.11722 0.79426 0.91693 0.0
H552 H 0.03835 0.79721 0.85273 0.0
H553 H 0.06884 0.79341 0.89521 0.0
H554 H 0.09893 0.86921 0.8847 0.0
H555 H 0.06882 0.873 0.84226 0.0
C556 C 0.10689 0.85441 0.97244 0.0
C557 C 0.12188 0.83388 0.9818 0.0
C558 C 0.09571 0.85335 0.94376 0.0
C559 C 0.09925 0.8318 0.92334 0.0
C560 C 0.11432 0.81115 0.93231 0.0
C561 C 0.12576 0.81225 0.96136 0.0
C562 C 0.05198 0.81279 0.85897 0.0
C563 C 0.05066 0.83573 0.84469 0.0
C564 C 0.06949 0.81054 0.88322 0.0
C565 C 0.08583 0.83121 0.89354 0.0
C566 C 0.08611 0.85318 0.87756 0.0
C567 C 0.06873 0.85543 0.85342 0.0
H568 H 0.84702 0.07076 0.96119 0.0
H569 H 0.88195 0.12883 0.91073 0.0
H570 H 0.85442 0.03895 0.91908 0.0
H571 H 0.88782 0.09747 0.86719 0.0
H572 H 0.92274 0.02774 0.80995 0.0
H573 H 0.91289 0.06268 0.84824 0.0
H574 H 0.84112 0.02321 0.87191 0.0
H575 H 0.85185 0.98819 0.8346 0.0
C576 C 0.85606 0.07663 0.94074 0.0
C577 C 0.86426 0.10193 0.93906 0.0
C578 C 0.86001 0.05853 0.91636 0.0
C579 C 0.87161 0.0655 0.88936 0.0
C580 C 0.87929 0.09119 0.88766 0.0
C581 C 0.87588 0.1092 0.91246 0.0
C582 C 0.90495 0.02673 0.82352 0.0
C583 C 0.88828 0.00524 0.81992 0.0
C584 C 0.89905 0.04684 0.84522 0.0
C585 C 0.87641 0.0457 0.8638 0.0
C586 C 0.85918 0.02454 0.8589 0.0
C587 C 0.86512 0.00453 0.83732 0.0
H588 H 0.40988 0.37249 0.48979 0.0
H589 H 0.37864 0.29585 0.47342 0.0
H590 H 0.43267 0.36809 0.44174 0.0
H591 H 0.40199 0.29129 0.42461 0.0
H592 H 0.43261 0.30619 0.3265 0.0
H593 H 0.4055 0.30754 0.37273 0.0
H594 H 0.47083 0.34404 0.42343 0.0
H595 H 0.49714 0.34336 0.37762 0.0
C596 C 0.40763 0.35473 0.47571 0.0
C597 C 0.39247 0.3345 0.48541 0.0
C598 C 0.42095 0.35211 0.44823 0.0
C599 C 0.4195 0.3292 0.42953 0.0
C600 C 0.4035 0.30917 0.43856 0.0
C601 C 0.39029 0.31172 0.46649 0.0
C602 C 0.441 0.31444 0.34766 0.0
C603 C 0.46671 0.32517 0.34851 0.0
C604 C 0.4256 0.31511 0.37405 0.0
C605 C 0.43586 0.32633 0.40163 0.0
C606 C 0.46202 0.33596 0.40244 0.0
C607 C 0.47714 0.33554 0.37622 0.0
H608 H 0.1545 0.92775 0.02015 0.0
H609 H 0.23358 0.90928 0.05016 0.0
H610 H 0.17134 0.9665 1.00117 0.0
H611 H 0.25057 0.9489 0.03177 0.0
H612 H 0.27382 0.01619 0.97465 0.0
H613 H 0.26024 0.97399 0.98965 0.0
H614 H 0.18544 0.00635 0.02197 0.0
H615 H 0.19865 0.04751 0.00632 0.0
C616 C 0.17559 0.93188 0.02252 0.0
C617 C 0.19266 0.91545 0.03681 0.0
C618 C 0.18526 0.95435 0.01193 0.0
C619 C 0.21228 0.96121 0.01542 0.0
C620 C 0.22966 0.94427 0.02864 0.0
C621 C 0.2199 0.92166 0.03938 0.0
C622 C 0.25451 0.01402 0.98491 0.0
C623 C 0.23732 0.03506 0.98952 0.0
C624 C 0.24677 0.98998 0.99368 0.0
C625 C 0.22155 0.98659 0.00671 0.0
C626 C 0.20469 0.0079 0.01137 0.0
C627 C 0.21241 0.03167 1.00279 0.0
H628 H 0.56997 0.71889 0.49731 0.0
H629 H 0.55958 0.63775 0.47522 0.0
H630 H 0.52335 0.72587 0.48492 0.0
H631 H 0.51296 0.64444 0.46446 0.0
H632 H 0.4355 0.66163 0.42294 0.0
H633 H 0.48345 0.65902 0.43026 0.0
H634 H 0.47936 0.72124 0.50055 0.0
H635 H 0.43127 0.72411 0.49213 0.0
C636 C 0.55775 0.70253 0.4898 0.0
C637 C 0.56862 0.67777 0.48693 0.0
C638 C 0.5309 0.70651 0.48295 0.0
C639 C 0.51422 0.68578 0.47336 0.0
C640 C 0.52518 0.66103 0.47085 0.0
C641 C 0.55201 0.65712 0.47728 0.0
C642 C 0.4451 0.67511 0.43938 0.0
C643 C 0.42998 0.69323 0.45675 0.0
C644 C 0.47251 0.67339 0.44403 0.0
C645 C 0.48544 0.6896 0.46642 0.0
C646 C 0.47028 0.70852 0.48295 0.0
C647 C 0.44274 0.7102 0.47826 0.0
H648 H 0.40638 0.3957 0.65674 0.0
H649 H 0.32551 0.4223 0.64999 0.0
H650 H 0.41397 0.42607 0.70009 0.0
H651 H 0.33337 0.4543 0.69097 0.0
H652 H 0.34577 0.50726 0.77166 0.0
H653 H 0.33802 0.47034 0.73707 0.0
H654 H 0.42298 0.46425 0.72074 0.0
H655 H 0.43061 0.49926 0.75857 0.0
C656 C 0.39028 0.40831 0.66441 0.0
C657 C 0.36538 0.40662 0.64987 0.0
C658 C 0.39466 0.42612 0.68926 0.0
C659 C 0.3745 0.4434 0.69968 0.0
C660 C 0.3495 0.44132 0.6849 0.0
C661 C 0.34492 0.42298 0.6608 0.0
C662 C 0.3629 0.49762 0.76134 0.0
C663 C 0.38886 0.50655 0.76794 0.0
C664 C 0.35841 0.47653 0.74058 0.0
C665 C 0.37966 0.46411 0.72469 0.0
C666 C 0.40576 0.47269 0.73212 0.0
C667 C 0.41027 0.49335 0.75363 0.0
H668 H 0.07315 0.84694 0.13497 0.0
H669 H 0.06589 0.80767 0.04601 0.0
H670 H 0.02634 0.8382 0.14458 0.0
H671 H 0.0196 0.79788 0.05562 0.0
H672 H 0.93113 0.81273 0.06704 0.0
H673 H 0.9784 0.81481 0.05867 0.0
H674 H 0.99263 0.81048 0.15436 0.0
H675 H 0.94482 0.8114 0.16309 0.0
C676 C 0.06145 0.83632 0.11759 0.0
C677 C 0.07295 0.82807 0.08981 0.0
C678 C 0.0347 0.83092 0.12315 0.0
C679 C 0.01883 0.81729 0.10091 0.0
C680 C 0.03074 0.80882 0.07319 0.0
C681 C 0.05743 0.81418 0.06773 0.0
C682 C 0.94427 0.81242 0.08642 0.0
C683 C 0.93398 0.81281 0.11589 0.0
C684 C 0.97165 0.81314 0.08154 0.0
C685 C 0.98972 0.81334 0.10589 0.0
C686 C 0.97945 0.81127 0.13509 0.0
C687 C 0.95191 0.81126 0.14008 0.0
H688 H 0.73091 0.6048 0.53719 0.0
H689 H 0.65165 0.57829 0.55501 0.0
H690 H 0.74965 0.56689 0.55713 0.0
H691 H 0.66954 0.53943 0.5717 0.0
H692 H 0.70301 0.47599 0.61736 0.0
H693 H 0.68841 0.51773 0.60552 0.0
H694 H 0.75974 0.52556 0.5522 0.0
H695 H 0.77534 0.48458 0.56735 0.0
C696 C 0.71754 0.59073 0.54538 0.0
C697 C 0.68989 0.5946 0.54505 0.0
C698 C 0.72821 0.56872 0.55647 0.0
C699 C 0.71137 0.54961 0.56645 0.0
C700 C 0.6836 0.55372 0.56562 0.0
C701 C 0.6731 0.57608 0.55568 0.0
C702 C 0.71548 0.48678 0.60313 0.0
C703 C 0.73992 0.47696 0.59265 0.0
C704 C 0.70702 0.51075 0.5959 0.0
C705 C 0.72223 0.52521 0.57681 0.0
C706 C 0.74725 0.51546 0.56702 0.0
C707 C 0.75617 0.49175 0.5753 0.0
H708 H 0.91886 0.20427 0.09208 0.0
H709 H 0.86391 0.14857 0.12187 0.0
H710 H 0.9408 0.20711 0.14073 0.0
H711 H 0.88378 0.15316 0.17207 0.0
H712 H 0.94327 0.14229 0.24723 0.0
H713 H 0.91624 0.14308 0.20214 0.0
H714 H 0.94688 0.21855 0.18882 0.0
H715 H 0.97574 0.21624 0.23219 0.0
C716 C 0.911 0.19316 0.10954 0.0
C717 C 0.88983 0.17607 0.10319 0.0
C718 C 0.92345 0.19492 0.13786 0.0
C719 C 0.9145 0.18029 0.16113 0.0
C720 C 0.8922 0.16419 0.15494 0.0
C721 C 0.88042 0.16171 0.12616 0.0
C722 C 0.94432 0.15893 0.23443 0.0
C723 C 0.96206 0.17895 0.24306 0.0
C724 C 0.92836 0.15968 0.20859 0.0
C725 C 0.92933 0.18072 0.19076 0.0
C726 C 0.94599 0.20145 0.20074 0.0
C727 C 0.96231 0.20043 0.22623 0.0
H728 H 0.13513 0.80071 0.16101 0.0
H729 H 0.21817 0.79044 0.13865 0.0
H730 H 0.14244 0.78019 0.20812 0.0
H731 H 0.22558 0.77017 0.18525 0.0
H732 H 0.2275 0.71323 0.25462 0.0
H733 H 0.2156 0.73156 0.20771 0.0
H734 H 0.16506 0.78655 0.2576 0.0
H735 H 0.17714 0.76784 0.30473 0.0
C736 C 0.15484 0.79379 0.16607 0.0
C737 C 0.17605 0.79688 0.14617 0.0
C738 C 0.15911 0.78231 0.19313 0.0
C739 C 0.18456 0.77329 0.20041 0.0
C740 C 0.20562 0.7764 0.18021 0.0
C741 C 0.20145 0.78817 0.15356 0.0
C742 C 0.21348 0.72893 0.25541 0.0
C743 C 0.20303 0.73899 0.2831 0.0
C744 C 0.20687 0.73967 0.22862 0.0
C745 C 0.18956 0.76073 0.22883 0.0
C746 C 0.17831 0.77025 0.25655 0.0
C747 C 0.18522 0.75963 0.28351 0.0
H748 H 0.70529 0.71215 0.58827 0.0
H749 H 0.74687 0.70588 0.50324 0.0
H750 H 0.74217 0.73717 0.61171 0.0
H751 H 0.78408 0.7308 0.52647 0.0
H752 H 0.83014 0.80056 0.57184 0.0
H753 H 0.79484 0.77392 0.54698 0.0
H754 H 0.78763 0.733 0.62716 0.0
H755 H 0.82247 0.75984 0.65174 0.0
C756 C 0.72254 0.71604 0.57479 0.0
C757 C 0.72363 0.70709 0.54424 0.0
C758 C 0.74369 0.7302 0.58812 0.0
C759 C 0.76613 0.73592 0.57097 0.0
C760 C 0.76702 0.72691 0.54023 0.0
C761 C 0.74595 0.7125 0.52701 0.0
C762 C 0.82077 0.78591 0.58397 0.0
C763 C 0.82852 0.7823 0.61367 0.0
C764 C 0.80084 0.77051 0.56975 0.0
C765 C 0.78827 0.75146 0.5852 0.0
C766 C 0.79651 0.74778 0.61483 0.0
C767 C 0.81648 0.76302 0.62887 0.0
H768 H 0.75494 0.18294 0.03276 0.0
H769 H 0.80932 0.24061 0.07173 0.0
H770 H 0.71751 0.20698 0.05502 0.0
H771 H 0.77215 0.26411 0.09512 0.0
H772 H 0.70223 0.3147 0.11009 0.0
H773 H 0.73688 0.28982 0.08451 0.0
H774 H 0.69399 0.22037 0.09861 0.0
H775 H 0.65774 0.24563 0.12179 0.0
C776 C 0.75892 0.20069 0.04627 0.0
C777 C 0.78512 0.20994 0.0503 0.0
C778 C 0.73742 0.21441 0.0593 0.0
C779 C 0.74159 0.23773 0.07672 0.0
C780 C 0.76794 0.24661 0.08124 0.0
C781 C 0.7894 0.23294 0.06814 0.0
C782 C 0.6996 0.29419 0.10706 0.0
C783 C 0.67688 0.28233 0.11812 0.0
C784 C 0.71997 0.27977 0.09289 0.0
C785 C 0.71872 0.25294 0.08995 0.0
C786 C 0.69575 0.24099 0.10031 0.0
C787 C 0.67503 0.25551 0.11404 0.0
H788 H 0.37027 0.28589 0.65563 0.0
H789 H 0.29063 0.31649 0.65644 0.0
H790 H 0.3613 0.26664 0.70312 0.0
H791 H 0.28164 0.298 0.70368 0.0
H792 H 0.26244 0.24058 0.76968 0.0
H793 H 0.27344 0.25928 0.72324 0.0
H794 H 0.35364 0.27419 0.75614 0.0
H795 H 0.34264 0.25451 0.80259 0.0
C796 C 0.3508 0.28826 0.66591 0.0
C797 C 0.331 0.30233 0.65235 0.0
C798 C 0.34572 0.27757 0.69328 0.0
C799 C 0.32061 0.28051 0.70728 0.0
C800 C 0.30099 0.29475 0.69342 0.0
C801 C 0.30615 0.30555 0.6664 0.0
C802 C 0.28232 0.24816 0.76725 0.0
C803 C 0.30153 0.2463 0.79003 0.0
C804 C 0.28869 0.25895 0.74051 0.0
C805 C 0.31441 0.26856 0.73584 0.0
C806 C 0.33372 0.26675 0.75869 0.0
C807 C 0.32738 0.25563 0.78542 0.0
H808 H 0.71575 0.69843 0.42923 0.0
H809 H 0.63441 0.72484 0.42678 0.0
H810 H 0.72511 0.71745 0.3833 0.0
H811 H 0.6432 0.74265 0.37859 0.0
H812 H 0.67398 0.78945 0.30256 0.0
H813 H 0.66154 0.7719 0.34958 0.0
H814 H 0.72171 0.71343 0.33368 0.0
H815 H 0.73611 0.73275 0.2896 0.0
C816 C 0.69962 0.70808 0.41858 0.0
C817 C 0.67423 0.70992 0.43173 0.0
C818 C 0.70491 0.71878 0.39163 0.0
C819 C 0.68482 0.73114 0.37614 0.0
C820 C 0.65938 0.73344 0.3896 0.0
C821 C 0.65421 0.7231 0.41723 0.0
C822 C 0.68481 0.77309 0.30943 0.0
C823 C 0.70625 0.76279 0.29206 0.0
C824 C 0.67737 0.76268 0.33632 0.0
C825 C 0.6909 0.74142 0.34633 0.0
C826 C 0.71134 0.73041 0.32793 0.0
C827 C 0.71923 0.74119 0.30176 0.0
H828 H 0.79477 0.18441 0.92316 0.0
H829 H 0.86377 0.2328 0.93973 0.0
H830 H 0.78602 0.20362 0.87651 0.0
H831 H 0.85452 0.25308 0.89302 0.0
H832 H 0.84351 0.26673 0.79237 0.0
H833 H 0.85436 0.24834 0.83972 0.0
H834 H 0.77024 0.23967 0.85714 0.0
H835 H 0.75973 0.25691 0.80969 0.0
C836 C 0.80801 0.19936 0.91682 0.0
C837 C 0.82994 0.20712 0.93504 0.0
C838 C 0.80282 0.21066 0.89014 0.0
C839 C 0.81936 0.23019 0.88088 0.0
C840 C 0.84144 0.23797 0.8992 0.0
C841 C 0.8466 0.22661 0.92613 0.0
C842 C 0.82743 0.26074 0.80637 0.0
C843 C 0.80078 0.26282 0.79702 0.0
C844 C 0.83361 0.25036 0.83364 0.0
C845 C 0.81323 0.24215 0.8523 0.0
C846 C 0.7866 0.24491 0.84309 0.0
C847 C 0.78049 0.25487 0.81578 0.0
H848 H 0.3111 0.26725 0.51637 0.0
H849 H 0.25459 0.32292 0.55394 0.0
H850 H 0.27513 0.24206 0.49286 0.0
H851 H 0.21809 0.29698 0.53182 0.0
H852 H 0.15818 0.2552 0.46712 0.0
H853 H 0.19325 0.28186 0.49113 0.0
H854 H 0.24177 0.21462 0.4984 0.0
H855 H 0.20816 0.18875 0.47185 0.0
C856 C 0.2909 0.27411 0.51971 0.0
C857 C 0.28584 0.29721 0.53703 0.0
C858 C 0.27001 0.25936 0.50655 0.0
C859 C 0.24323 0.26702 0.5105 0.0
C860 C 0.23824 0.29033 0.52773 0.0
C861 C 0.25924 0.30521 0.54074 0.0
C862 C 0.17648 0.24617 0.47352 0.0
C863 C 0.18013 0.21967 0.46723 0.0
C864 C 0.19661 0.26148 0.48781 0.0
C865 C 0.2209 0.25073 0.49661 0.0
C866 C 0.22396 0.22407 0.49131 0.0
C867 C 0.20416 0.20893 0.47655 0.0
H868 H 0.21041 0.76307 0.03696 0.0
H869 H 0.25184 0.83425 0.02855 0.0
H870 H 0.24721 0.7397 0.01274 0.0
H871 H 0.28938 0.81088 0.00566 0.0
H872 H 0.3404 0.7656 0.93675 0.0
H873 H 0.30447 0.78885 0.96272 0.0
H874 H 0.28996 0.72452 0.01535 0.0
H875 H 0.32533 0.70079 0.98787 0.0
C876 C 0.22747 0.77377 0.03003 0.0
C877 C 0.22803 0.80061 0.03449 0.0
C878 C 0.24886 0.76027 0.01643 0.0
C879 C 0.27155 0.7732 0.00701 0.0
C880 C 0.27216 0.8001 0.01189 0.0
C881 C 0.25066 0.8136 0.02531 0.0
C882 C 0.32963 0.75647 0.95401 0.0
C883 C 0.33573 0.73133 0.96023 0.0
C884 C 0.30901 0.76992 0.96916 0.0
C885 C 0.29407 0.75881 0.99143 0.0
C886 C 0.3005 0.73369 0.99798 0.0
C887 C 0.3209 0.72004 0.98236 0.0
loop_
_geom_bond_atom_site_label_1
_geom_bond_atom_site_label_2
_geom_bond_distance
_geom_bond_site_symmetry_2
_ccdc_geom_bond_type
Fe0 O2 1.918 . S
Fe0 O5 1.997 . S
Fe0 O6 2.002 . S
Fe0 O11 1.976 . S
Fe0 O14 1.996 . S
Fe1 O2 1.918 . S
Fe1 O9 1.997 . S
Fe1 O12 1.996 . S
Fe1 O16 1.976 . S
Fe1 O19 2.002 . S
O2 Fe0 1.918 . S
O2 Fe1 1.918 . S
O2 Fe3 1.918 . S
Fe3 O2 1.918 . S
Fe3 O4 2.002 . S
Fe3 O13 1.976 . S
Fe3 O17 1.996 . S
Fe3 O20 1.997 . S
O4 Fe3 2.002 . S
O4 C21 1.295 . S
O5 Fe0 1.997 . S
O5 C21 1.235 . S
O6 Fe0 2.002 . S
O6 C7 1.295 . S
C7 O6 1.295 . S
C7 O9 1.235 . S
C8 O13 1.287 . S
C8 O14 1.255 . S
O9 Fe1 1.997 . S
O9 C7 1.235 . S
C10 O16 1.287 . S
C10 O17 1.255 . S
O11 Fe0 1.976 . S
O11 C18 1.287 . S
O12 Fe1 1.996 . S
O12 C18 1.255 . S
O13 Fe3 1.976 . S
O13 C8 1.287 . S
O14 Fe0 1.996 . S
O14 C8 1.255 . S
C15 O19 1.295 . S
C15 O20 1.235 . S
O16 Fe1 1.976 . S
O16 C10 1.287 . S
O17 Fe3 1.996 . S
O17 C10 1.255 . S
C18 O11 1.287 . S
C18 O12 1.255 . S
O19 Fe1 2.002 . S
O19 C15 1.295 . S
O20 Fe3 1.997 . S
O20 C15 1.235 . S
C21 O4 1.295 . S
C21 O5 1.235 . S
Fe22 O24 1.918 . S
Fe22 O27 1.997 . S
Fe22 O28 2.002 . S
Fe22 O33 1.976 . S
Fe22 O36 1.996 . S
Fe23 O24 1.918 . S
Fe23 O31 1.997 . S
Fe23 O34 1.996 . S
Fe23 O38 1.976 . S
Fe23 O41 2.002 . S
O24 Fe22 1.918 . S
O24 Fe23 1.918 . S
O24 Fe25 1.918 . S
Fe25 O24 1.918 . S
Fe25 O26 2.002 . S
Fe25 O35 1.976 . S
Fe25 O39 1.996 . S
Fe25 O42 1.997 . S
O26 Fe25 2.002 . S
O26 C43 1.295 . S
O27 Fe22 1.997 . S
O27 C43 1.235 . S
O28 Fe22 2.002 . S
O28 C29 1.295 . S
C29 O28 1.295 . S
C29 O31 1.235 . S
C30 O35 1.287 . S
C30 O36 1.255 . S
O31 Fe23 1.997 . S
O31 C29 1.235 . S
C32 O38 1.287 . S
C32 O39 1.255 . S
O33 Fe22 1.976 . S
O33 C40 1.287 . S
O34 Fe23 1.996 . S
O34 C40 1.255 . S
O35 Fe25 1.976 . S
O35 C30 1.287 . S
O36 Fe22 1.996 . S
O36 C30 1.255 . S
C37 O41 1.295 . S
C37 O42 1.235 . S
O38 Fe23 1.976 . S
O38 C32 1.287 . S
O39 Fe25 1.996 . S
O39 C32 1.255 . S
C40 O33 1.287 . S
C40 O34 1.255 . S
O41 Fe23 2.002 . S
O41 C37 1.295 . S
O42 Fe25 1.997 . S
O42 C37 1.235 . S
C43 O26 1.295 . S
C43 O27 1.235 . S
Fe44 O46 1.918 . S
Fe44 O49 1.997 1_554 S
Fe44 O50 2.002 . S
Fe44 O55 1.976 . S
Fe44 O58 1.996 . S
Fe45 O46 1.918 . S
Fe45 O53 1.997 . S
Fe45 O56 1.996 . S
Fe45 O60 1.976 . S
Fe45 O63 2.002 1_554 S
O46 Fe44 1.918 . S
O46 Fe45 1.918 . S
O46 Fe47 1.918 1_554 S
Fe47 O46 1.918 1_556 S
Fe47 O48 2.002 . S
Fe47 O57 1.976 1_556 S
Fe47 O61 1.996 1_556 S
Fe47 O64 1.997 . S
O48 Fe47 2.002 . S
O48 C65 1.295 . S
O49 Fe44 1.997 1_556 S
O49 C65 1.235 . S
O50 Fe44 2.002 . S
O50 C51 1.295 1_554 S
C51 O50 1.295 1_556 S
C51 O53 1.235 1_556 S
C52 O57 1.287 . S
C52 O58 1.255 . S
O53 Fe45 1.997 . S
O53 C51 1.235 1_554 S
C54 O60 1.287 . S
C54 O61 1.255 . S
O55 Fe44 1.976 . S
O55 C62 1.287 . S
O56 Fe45 1.996 . S
O56 C62 1.255 . S
O57 Fe47 1.976 1_554 S
O57 C52 1.287 . S
O58 Fe44 1.996 . S
O58 C52 1.255 . S
C59 O63 1.295 . S
C59 O64 1.235 . S
O60 Fe45 1.976 . S
O60 C54 1.287 . S
O61 Fe47 1.996 1_554 S
O61 C54 1.255 . S
C62 O55 1.287 . S
C62 O56 1.255 . S
O63 Fe45 2.002 1_556 S
O63 C59 1.295 . S
O64 Fe47 1.997 . S
O64 C59 1.235 . S
C65 O48 1.295 . S
C65 O49 1.235 . S
Fe66 O68 1.918 . S
Fe66 O71 1.997 . S
Fe66 O72 2.002 . S
Fe66 O77 1.976 . S
Fe66 O80 1.996 . S
Fe67 O68 1.918 . S
Fe67 O75 1.997 . S
Fe67 O78 1.996 . S
Fe67 O82 1.976 . S
Fe67 O85 2.002 . S
O68 Fe66 1.918 . S
O68 Fe67 1.918 . S
O68 Fe69 1.918 . S
Fe69 O68 1.918 . S
Fe69 O70 2.002 . S
Fe69 O79 1.976 . S
Fe69 O83 1.996 . S
Fe69 O86 1.997 . S
O70 Fe69 2.002 . S
O70 C87 1.295 . S
O71 Fe66 1.997 . S
O71 C87 1.235 . S
O72 Fe66 2.002 . S
O72 C73 1.295 . S
C73 O72 1.295 . S
C73 O75 1.235 . S
C74 O79 1.287 . S
C74 O80 1.255 . S
O75 Fe67 1.997 . S
O75 C73 1.235 . S
C76 O82 1.287 . S
C76 O83 1.255 . S
O77 Fe66 1.976 . S
O77 C84 1.287 . S
O78 Fe67 1.996 . S
O78 C84 1.255 . S
O79 Fe69 1.976 . S
O79 C74 1.287 . S
O80 Fe66 1.996 . S
O80 C74 1.255 . S
C81 O85 1.295 . S
C81 O86 1.235 . S
O82 Fe67 1.976 . S
O82 C76 1.287 . S
O83 Fe69 1.996 . S
O83 C76 1.255 . S
C84 O77 1.287 . S
C84 O78 1.255 . S
O85 Fe67 2.002 . S
O85 C81 1.295 . S
O86 Fe69 1.997 . S
O86 C81 1.235 . S
C87 O70 1.295 . S
C87 O71 1.235 . S
C88 C89 1.244 1_455 S
C88 C93 1.474 1_455 S
C88 C98 1.465 . S
C89 C88 1.244 1_655 S
C89 C91 1.379 . S
C89 H116 0.912 1_655 S
C90 C91 1.395 . S
C90 C92 1.320 . S
C91 C89 1.379 . S
C91 C90 1.395 . S
C91 H117 0.929 . S
C92 C90 1.320 . S
C92 C93 1.418 . S
C92 H118 0.930 . S
C93 C88 1.474 1_655 S
C93 C92 1.418 . S
C93 H119 0.924 1_655 S
U94 O95 2.454 . S
U94 O96 2.458 . S
U94 C97 2.984 . S
U94 C98 2.847 . S
U94 C111 2.882 . S
U94 O112 2.441 . S
U94 O113 2.420 . S
U94 O114 2.455 . S
U94 O115 2.449 . S
O95 U94 2.454 . S
O95 C97 1.353 . S
O96 U94 2.458 . S
O96 C97 1.286 . S
C97 U94 2.984 . S
C97 O95 1.353 . S
C97 O96 1.286 . S
C97 C99 1.363 . S
C98 C88 1.465 . S
C98 U94 2.847 . S
C98 O112 1.249 . S
C98 O113 1.202 . S
C99 C97 1.363 . S
C99 C101 1.408 . S
C99 C104 1.342 . S
C100 C101 1.310 . S
C100 C103 1.461 . S
C100 H120 0.932 . S
C101 C99 1.408 . S
C101 C100 1.310 . S
C101 H121 0.930 . S
C102 C103 1.474 . S
C102 C104 1.285 . S
C102 H122 0.929 . S
C103 C100 1.461 . S
C103 C102 1.474 . S
C104 C99 1.342 . S
C104 C102 1.285 . S
C104 H123 0.930 . S
C105 C108 1.424 . S
C105 C110 1.245 . S
C105 C111 1.428 . S
C106 C109 1.260 . S
C106 C110 1.477 . S
C106 H124 0.932 . S
C107 C108 1.384 . S
C107 C109 1.479 . S
C107 H125 0.929 . S
C108 C105 1.424 . S
C108 C107 1.384 . S
C108 H126 0.928 . S
C109 C106 1.260 . S
C109 C107 1.479 . S
C110 C105 1.245 . S
C110 C106 1.477 . S
C110 H127 0.932 . S
C111 U94 2.882 . S
C111 C105 1.428 . S
C111 O114 1.301 . S
C111 O115 1.282 . S
O112 U94 2.441 . S
O112 C98 1.249 . S
O113 U94 2.420 . S
O113 C98 1.202 . S
O114 U94 2.455 . S
O114 C111 1.301 . S
O115 U94 2.449 . S
O115 C111 1.282 . S
H116 C89 0.912 1_455 S
H117 C91 0.929 . S
H118 C92 0.930 . S
H119 C93 0.924 1_455 S
H120 C100 0.932 . S
H121 C101 0.930 . S
H122 C102 0.929 . S
H123 C104 0.930 . S
H124 C106 0.932 . S
H125 C107 0.929 . S
H126 C108 0.928 . S
H127 C110 0.932 . S
C128 C129 1.264 . S
C128 C133 1.479 . S
C128 C138 1.465 . S
C129 C128 1.264 . S
C129 C131 1.339 . S
C129 H156 0.931 . S
C130 C131 1.395 . S
C130 C132 1.320 . S
C131 C129 1.339 . S
C131 C130 1.395 . S
C131 H157 0.929 . S
C132 C130 1.320 . S
C132 C133 1.405 . S
C132 H158 0.930 . S
C133 C128 1.479 . S
C133 C132 1.405 . S
C133 H159 0.931 . S
U134 O135 2.454 . S
U134 O136 2.458 . S
U134 C137 2.984 . S
U134 C138 2.847 . S
U134 C151 2.882 . S
U134 O152 2.441 . S
U134 O153 2.420 . S
U134 O154 2.455 . S
U134 O155 2.449 . S
O135 U134 2.454 . S
O135 C137 1.353 . S
O136 U134 2.458 . S
O136 C137 1.286 . S
C137 U134 2.984 . S
C137 O135 1.353 . S
C137 O136 1.286 . S
C137 C139 1.363 . S
C138 C128 1.465 . S
C138 U134 2.847 . S
C138 O152 1.249 . S
C138 O153 1.202 . S
C139 C137 1.363 . S
C139 C141 1.408 . S
C139 C144 1.342 . S
C140 C141 1.310 . S
C140 C143 1.461 . S
C140 H160 0.932 . S
C141 C139 1.408 . S
C141 C140 1.310 . S
C141 H161 0.930 . S
C142 C143 1.474 . S
C142 C144 1.285 . S
C142 H162 0.929 . S
C143 C140 1.461 . S
C143 C142 1.474 . S
C144 C139 1.342 . S
C144 C142 1.285 . S
C144 H163 0.930 . S
C145 C148 1.424 . S
C145 C150 1.245 . S
C145 C151 1.428 . S
C146 C149 1.260 . S
C146 C150 1.477 . S
C146 H164 0.932 . S
C147 C148 1.384 . S
C147 C149 1.479 . S
C147 H165 0.929 . S
C148 C145 1.424 . S
C148 C147 1.384 . S
C148 H166 0.928 . S
C149 C146 1.260 . S
C149 C147 1.479 . S
C150 C145 1.245 . S
C150 C146 1.477 . S
C150 H167 0.932 . S
C151 U134 2.882 . S
C151 C145 1.428 . S
C151 O154 1.301 . S
C151 O155 1.282 . S
O152 U134 2.441 . S
O152 C138 1.249 . S
O153 U134 2.420 . S
O153 C138 1.202 . S
O154 U134 2.455 . S
O154 C151 1.301 . S
O155 U134 2.449 . S
O155 C151 1.282 . S
H156 C129 0.931 . S
H157 C131 0.929 . S
H158 C132 0.930 . S
H159 C133 0.931 . S
H160 C140 0.932 . S
H161 C141 0.930 . S
H162 C142 0.929 . S
H163 C144 0.930 . S
H164 C146 0.932 . S
H165 C147 0.929 . S
H166 C148 0.928 . S
H167 C150 0.932 . S
C168 C169 1.264 . S
C168 C173 1.479 . S
C168 C178 1.465 . S
C169 C168 1.264 . S
C169 C171 1.339 . S
C169 H196 0.931 . S
C170 C171 1.395 . S
C170 C172 1.320 . S
C171 C169 1.339 . S
C171 C170 1.395 . S
C171 H197 0.929 . S
C172 C170 1.320 . S
C172 C173 1.405 . S
C172 H198 0.930 . S
C173 C168 1.479 . S
C173 C172 1.405 . S
C173 H199 0.931 . S
U174 O175 2.454 . S
U174 O176 2.458 . S
U174 C177 2.984 . S
U174 C178 2.847 . S
U174 C191 2.882 . S
U174 O192 2.441 . S
U174 O193 2.420 . S
U174 O194 2.455 . S
U174 O195 2.449 . S
O175 U174 2.454 . S
O175 C177 1.353 . S
O176 U174 2.458 . S
O176 C177 1.286 . S
C177 U174 2.984 . S
C177 O175 1.353 . S
C177 O176 1.286 . S
C177 C179 1.363 . S
C178 C168 1.465 . S
C178 U174 2.847 . S
C178 O192 1.249 . S
C178 O193 1.202 . S
C179 C177 1.363 . S
C179 C181 1.408 . S
C179 C184 1.342 . S
C180 C181 1.310 . S
C180 C183 1.461 . S
C180 H200 0.932 . S
C181 C179 1.408 . S
C181 C180 1.310 . S
C181 H201 0.930 . S
C182 C183 1.474 . S
C182 C184 1.285 . S
C182 H202 0.929 . S
C183 C180 1.461 . S
C183 C182 1.474 . S
C184 C179 1.342 . S
C184 C182 1.285 . S
C184 H203 0.930 . S
C185 C188 1.424 . S
C185 C190 1.245 . S
C185 C191 1.428 . S
C186 C189 1.260 . S
C186 C190 1.477 . S
C186 H204 0.932 . S
C187 C188 1.384 . S
C187 C189 1.479 . S
C187 H205 0.929 . S
C188 C185 1.424 . S
C188 C187 1.384 . S
C188 H206 0.928 . S
C189 C186 1.260 . S
C189 C187 1.479 . S
C190 C185 1.245 . S
C190 C186 1.477 . S
C190 H207 0.932 . S
C191 U174 2.882 . S
C191 C185 1.428 . S
C191 O194 1.301 . S
C191 O195 1.282 . S
O192 U174 2.441 . S
O192 C178 1.249 . S
O193 U174 2.420 . S
O193 C178 1.202 . S
O194 U174 2.455 . S
O194 C191 1.301 . S
O195 U174 2.449 . S
O195 C191 1.282 . S
H196 C169 0.931 . S
H197 C171 0.929 . S
H198 C172 0.930 . S
H199 C173 0.931 . S
H200 C180 0.932 . S
H201 C181 0.930 . S
H202 C182 0.929 . S
H203 C184 0.930 . S
H204 C186 0.932 . S
H205 C187 0.929 . S
H206 C188 0.928 . S
H207 C190 0.932 . S
C208 C209 1.264 . S
C208 C213 1.479 . S
C208 C218 1.465 . S
C209 C208 1.264 . S
C209 C211 1.339 . S
C209 H236 0.931 . S
C210 C211 1.395 . S
C210 C212 1.320 . S
C211 C209 1.339 . S
C211 C210 1.395 . S
C211 H237 0.929 . S
C212 C210 1.320 . S
C212 C213 1.405 . S
C212 H238 0.930 . S
C213 C208 1.479 . S
C213 C212 1.405 . S
C213 H239 0.931 . S
U214 O215 2.454 . S
U214 O216 2.458 . S
U214 C217 2.984 . S
U214 C218 2.847 . S
U214 C231 2.882 . S
U214 O232 2.441 . S
U214 O233 2.420 . S
U214 O234 2.455 . S
U214 O235 2.449 . S
O215 U214 2.454 . S
O215 C217 1.353 . S
O216 U214 2.458 . S
O216 C217 1.286 . S
C217 U214 2.984 . S
C217 O215 1.353 . S
C217 O216 1.286 . S
C217 C219 1.363 . S
C218 C208 1.465 . S
C218 U214 2.847 . S
C218 O232 1.249 . S
C218 O233 1.202 . S
C219 C217 1.363 . S
C219 C221 1.408 . S
C219 C224 1.342 . S
C220 C221 1.310 . S
C220 C223 1.461 . S
C220 H240 0.932 . S
C221 C219 1.408 . S
C221 C220 1.310 . S
C221 H241 0.930 . S
C222 C223 1.474 . S
C222 C224 1.285 . S
C222 H242 0.929 . S
C223 C220 1.461 . S
C223 C222 1.474 . S
C224 C219 1.342 . S
C224 C222 1.285 . S
C224 H243 0.930 . S
C225 C228 1.424 . S
C225 C230 1.245 . S
C225 C231 1.428 . S
C226 C229 1.260 . S
C226 C230 1.477 . S
C226 H244 0.932 . S
C227 C228 1.384 . S
C227 C229 1.479 . S
C227 H245 0.929 . S
C228 C225 1.424 . S
C228 C227 1.384 . S
C228 H246 0.928 . S
C229 C226 1.260 . S
C229 C227 1.479 . S
C230 C225 1.245 . S
C230 C226 1.477 . S
C230 H247 0.932 . S
C231 U214 2.882 . S
C231 C225 1.428 . S
C231 O234 1.301 . S
C231 O235 1.282 . S
O232 U214 2.441 . S
O232 C218 1.249 . S
O233 U214 2.420 . S
O233 C218 1.202 . S
O234 U214 2.455 . S
O234 C231 1.301 . S
O235 U214 2.449 . S
O235 C231 1.282 . S
H236 C209 0.931 . S
H237 C211 0.929 . S
H238 C212 0.930 . S
H239 C213 0.931 . S
H240 C220 0.932 . S
H241 C221 0.930 . S
H242 C222 0.929 . S
H243 C224 0.930 . S
H244 C226 0.932 . S
H245 C227 0.929 . S
H246 C228 0.928 . S
H247 C230 0.932 . S
C248 C249 1.264 . S
C248 C253 1.479 . S
C248 C258 1.465 . S
C249 C248 1.264 . S
C249 C251 1.339 . S
C249 H276 0.931 . S
C250 C251 1.395 . S
C250 C252 1.320 . S
C251 C249 1.339 . S
C251 C250 1.395 . S
C251 H277 0.929 . S
C252 C250 1.320 . S
C252 C253 1.405 . S
C252 H278 0.930 . S
C253 C248 1.479 . S
C253 C252 1.405 . S
C253 H279 0.931 . S
U254 O255 2.454 . S
U254 O256 2.458 . S
U254 C257 2.984 . S
U254 C258 2.847 . S
U254 C271 2.882 . S
U254 O272 2.441 . S
U254 O273 2.420 . S
U254 O274 2.455 . S
U254 O275 2.449 . S
O255 U254 2.454 . S
O255 C257 1.353 . S
O256 U254 2.458 . S
O256 C257 1.286 . S
C257 U254 2.984 . S
C257 O255 1.353 . S
C257 O256 1.286 . S
C257 C259 1.363 . S
C258 C248 1.465 . S
C258 U254 2.847 . S
C258 O272 1.249 . S
C258 O273 1.202 . S
C259 C257 1.363 . S
C259 C261 1.408 . S
C259 C264 1.342 . S
C260 C261 1.310 . S
C260 C263 1.461 . S
C260 H280 0.932 . S
C261 C259 1.408 . S
C261 C260 1.310 . S
C261 H281 0.930 . S
C262 C263 1.474 . S
C262 C264 1.285 . S
C262 H282 0.929 . S
C263 C260 1.461 . S
C263 C262 1.474 . S
C264 C259 1.342 . S
C264 C262 1.285 . S
C264 H283 0.930 . S
C265 C268 1.424 . S
C265 C270 1.245 . S
C265 C271 1.428 . S
C266 C269 1.260 . S
C266 C270 1.477 . S
C266 H284 0.932 . S
C267 C268 1.384 . S
C267 C269 1.479 . S
C267 H285 0.929 . S
C268 C265 1.424 . S
C268 C267 1.384 . S
C268 H286 0.928 . S
C269 C266 1.260 . S
C269 C267 1.479 . S
C270 C265 1.245 . S
C270 C266 1.477 . S
C270 H287 0.932 . S
C271 U254 2.882 . S
C271 C265 1.428 . S
C271 O274 1.301 . S
C271 O275 1.282 . S
O272 U254 2.441 . S
O272 C258 1.249 . S
O273 U254 2.420 . S
O273 C258 1.202 . S
O274 U254 2.455 . S
O274 C271 1.301 . S
O275 U254 2.449 . S
O275 C271 1.282 . S
H276 C249 0.931 . S
H277 C251 0.929 . S
H278 C252 0.930 . S
H279 C253 0.931 . S
H280 C260 0.932 . S
H281 C261 0.930 . S
H282 C262 0.929 . S
H283 C264 0.930 . S
H284 C266 0.932 . S
H285 C267 0.929 . S
H286 C268 0.928 . S
H287 C270 0.932 . S
C288 C289 1.264 . S
C288 C293 1.479 . S
C288 C298 1.465 . S
C289 C288 1.264 . S
C289 C291 1.339 . S
C289 H316 0.931 . S
C290 C291 1.395 . S
C290 C292 1.320 . S
C291 C289 1.339 . S
C291 C290 1.395 . S
C291 H317 0.929 . S
C292 C290 1.320 . S
C292 C293 1.405 . S
C292 H318 0.930 . S
C293 C288 1.479 . S
C293 C292 1.405 . S
C293 H319 0.931 . S
U294 O295 2.454 . S
U294 O296 2.458 . S
U294 C297 2.984 . S
U294 C298 2.847 . S
U294 C311 2.882 . S
U294 O312 2.441 . S
U294 O313 2.420 . S
U294 O314 2.455 . S
U294 O315 2.449 . S
O295 U294 2.454 . S
O295 C297 1.353 . S
O296 U294 2.458 . S
O296 C297 1.286 . S
C297 U294 2.984 . S
C297 O295 1.353 . S
C297 O296 1.286 . S
C297 C299 1.363 . S
C298 C288 1.465 . S
C298 U294 2.847 . S
C298 O312 1.249 . S
C298 O313 1.202 . S
C299 C297 1.363 . S
C299 C301 1.408 . S
C299 C304 1.342 . S
C300 C301 1.310 . S
C300 C303 1.461 . S
C300 H320 0.932 . S
C301 C299 1.408 . S
C301 C300 1.310 . S
C301 H321 0.930 . S
C302 C303 1.474 . S
C302 C304 1.285 . S
C302 H322 0.929 . S
C303 C300 1.461 . S
C303 C302 1.474 . S
C304 C299 1.342 . S
C304 C302 1.285 . S
C304 H323 0.930 . S
C305 C308 1.424 . S
C305 C310 1.245 . S
C305 C311 1.428 . S
C306 C309 1.260 . S
C306 C310 1.477 . S
C306 H324 0.932 . S
C307 C308 1.384 . S
C307 C309 1.479 . S
C307 H325 0.929 . S
C308 C305 1.424 . S
C308 C307 1.384 . S
C308 H326 0.928 . S
C309 C306 1.260 . S
C309 C307 1.479 . S
C310 C305 1.245 . S
C310 C306 1.477 . S
C310 H327 0.932 . S
C311 U294 2.882 . S
C311 C305 1.428 . S
C311 O314 1.301 . S
C311 O315 1.282 . S
O312 U294 2.441 . S
O312 C298 1.249 . S
O313 U294 2.420 . S
O313 C298 1.202 . S
O314 U294 2.455 . S
O314 C311 1.301 . S
O315 U294 2.449 . S
O315 C311 1.282 . S
H316 C289 0.931 . S
H317 C291 0.929 . S
H318 C292 0.930 . S
H319 C293 0.931 . S
H320 C300 0.932 . S
H321 C301 0.930 . S
H322 C302 0.929 . S
H323 C304 0.930 . S
H324 C306 0.932 . S
H325 C307 0.929 . S
H326 C308 0.928 . S
H327 C310 0.932 . S
C328 C329 1.264 . S
C328 C333 1.479 . S
C328 C338 1.465 . S
C329 C328 1.264 . S
C329 C331 1.339 . S
C329 H356 0.931 . S
C330 C331 1.395 . S
C330 C332 1.320 . S
C331 C329 1.339 . S
C331 C330 1.395 . S
C331 H357 0.929 . S
C332 C330 1.320 . S
C332 C333 1.405 . S
C332 H358 0.930 . S
C333 C328 1.479 . S
C333 C332 1.405 . S
C333 H359 0.931 . S
U334 O335 2.454 . S
U334 O336 2.458 . S
U334 C337 2.984 . S
U334 C338 2.847 . S
U334 C351 2.882 . S
U334 O352 2.441 . S
U334 O353 2.420 . S
U334 O354 2.455 . S
U334 O355 2.449 . S
O335 U334 2.454 . S
O335 C337 1.353 . S
O336 U334 2.458 . S
O336 C337 1.286 . S
C337 U334 2.984 . S
C337 O335 1.353 . S
C337 O336 1.286 . S
C337 C339 1.363 . S
C338 C328 1.465 . S
C338 U334 2.847 . S
C338 O352 1.249 . S
C338 O353 1.202 . S
C339 C337 1.363 . S
C339 C341 1.408 . S
C339 C344 1.342 . S
C340 C341 1.310 . S
C340 C343 1.461 . S
C340 H360 0.932 . S
C341 C339 1.408 . S
C341 C340 1.310 . S
C341 H361 0.930 . S
C342 C343 1.474 . S
C342 C344 1.285 . S
C342 H362 0.929 . S
C343 C340 1.461 . S
C343 C342 1.474 . S
C344 C339 1.342 . S
C344 C342 1.285 . S
C344 H363 0.930 . S
C345 C348 1.424 . S
C345 C350 1.245 . S
C345 C351 1.428 . S
C346 C349 1.260 . S
C346 C350 1.477 . S
C346 H364 0.932 . S
C347 C348 1.384 . S
C347 C349 1.479 . S
C347 H365 0.929 . S
C348 C345 1.424 . S
C348 C347 1.384 . S
C348 H366 0.928 . S
C349 C346 1.260 . S
C349 C347 1.479 . S
C350 C345 1.245 . S
C350 C346 1.477 . S
C350 H367 0.932 . S
C351 U334 2.882 . S
C351 C345 1.428 . S
C351 O354 1.301 . S
C351 O355 1.282 . S
O352 U334 2.441 . S
O352 C338 1.249 . S
O353 U334 2.420 . S
O353 C338 1.202 . S
O354 U334 2.455 . S
O354 C351 1.301 . S
O355 U334 2.449 . S
O355 C351 1.282 . S
H356 C329 0.931 . S
H357 C331 0.929 . S
H358 C332 0.930 . S
H359 C333 0.931 . S
H360 C340 0.932 . S
H361 C341 0.930 . S
H362 C342 0.929 . S
H363 C344 0.930 . S
H364 C346 0.932 . S
H365 C347 0.929 . S
H366 C348 0.928 . S
H367 C350 0.932 . S
C368 C369 1.264 . S
C368 C373 1.479 . S
C368 C378 1.465 . S
C369 C368 1.264 . S
C369 C371 1.339 . S
C369 H396 0.931 . S
C370 C371 1.395 . S
C370 C372 1.320 . S
C371 C369 1.339 . S
C371 C370 1.395 . S
C371 H397 0.929 . S
C372 C370 1.320 . S
C372 C373 1.405 . S
C372 H398 0.930 . S
C373 C368 1.479 . S
C373 C372 1.405 . S
C373 H399 0.931 . S
U374 O375 2.454 . S
U374 O376 2.458 . S
U374 C377 2.984 . S
U374 C378 2.847 . S
U374 C391 2.882 . S
U374 O392 2.441 . S
U374 O393 2.420 . S
U374 O394 2.455 . S
U374 O395 2.449 . S
O375 U374 2.454 . S
O375 C377 1.353 . S
O376 U374 2.458 . S
O376 C377 1.286 . S
C377 U374 2.984 . S
C377 O375 1.353 . S
C377 O376 1.286 . S
C377 C379 1.363 . S
C378 C368 1.465 . S
C378 U374 2.847 . S
C378 O392 1.249 . S
C378 O393 1.202 . S
C379 C377 1.363 . S
C379 C381 1.408 . S
C379 C384 1.342 . S
C380 C381 1.310 . S
C380 C383 1.461 . S
C380 H400 0.932 . S
C381 C379 1.408 . S
C381 C380 1.310 . S
C381 H401 0.930 . S
C382 C383 1.474 . S
C382 C384 1.285 . S
C382 H402 0.929 . S
C383 C380 1.461 . S
C383 C382 1.474 . S
C384 C379 1.342 . S
C384 C382 1.285 . S
C384 H403 0.930 . S
C385 C388 1.443 . S
C385 C390 1.245 . S
C385 C391 1.428 . S
C386 C389 1.260 . S
C386 C390 1.477 1_455 S
C386 H404 0.932 . S
C387 C388 1.354 1_455 S
C387 C389 1.479 . S
C387 H405 0.929 . S
C388 C385 1.443 . S
C388 C387 1.354 1_655 S
C388 H406 0.940 . S
C389 C386 1.260 . S
C389 C387 1.479 . S
C390 C385 1.245 . S
C390 C386 1.477 1_655 S
C390 H407 0.932 . S
C391 U374 2.882 . S
C391 C385 1.428 . S
C391 O394 1.301 . S
C391 O395 1.282 . S
O392 U374 2.441 . S
O392 C378 1.249 . S
O393 U374 2.420 . S
O393 C378 1.202 . S
O394 U374 2.455 . S
O394 C391 1.301 . S
O395 U374 2.449 . S
O395 C391 1.282 . S
H396 C369 0.931 . S
H397 C371 0.929 . S
H398 C372 0.930 . S
H399 C373 0.931 . S
H400 C380 0.932 . S
H401 C381 0.930 . S
H402 C382 0.929 . S
H403 C384 0.930 . S
H404 C386 0.932 . S
H405 C387 0.929 . S
H406 C388 0.940 . S
H407 C390 0.932 . S
H408 C416 0.950 . S
H409 C421 0.950 . S
H410 C418 0.950 . S
H411 C420 0.950 . S
H412 C422 0.950 1_545 S
H413 C424 0.950 . S
H414 C426 0.950 . S
H415 C427 0.950 . S
C416 H408 0.950 . S
C416 C417 1.386 . S
C416 C418 1.391 . S
C417 C416 1.386 . S
C417 C421 1.393 . S
C418 H410 0.950 . S
C418 C416 1.391 . S
C418 C419 1.400 . S
C419 C418 1.400 . S
C419 C420 1.398 . S
C419 C425 1.491 . S
C420 H411 0.950 . S
C420 C419 1.398 . S
C420 C421 1.391 . S
C421 H409 0.950 . S
C421 C417 1.393 . S
C421 C420 1.391 . S
C422 H412 0.950 1_565 S
C422 C423 1.386 . S
C422 C424 1.391 . S
C423 C422 1.386 . S
C423 C427 1.393 . S
C424 H413 0.950 . S
C424 C422 1.391 . S
C424 C425 1.400 . S
C425 C419 1.491 . S
C425 C424 1.400 . S
C425 C426 1.398 . S
C426 H414 0.950 . S
C426 C425 1.398 . S
C426 C427 1.391 . S
C427 H415 0.950 . S
C427 C423 1.393 . S
C427 C426 1.391 . S
H428 C436 0.950 . S
H429 C441 0.950 . S
H430 C438 0.950 . S
H431 C440 0.950 . S
H432 C442 0.950 . S
H433 C444 0.950 . S
H434 C446 0.950 . S
H435 C447 0.950 . S
C436 H428 0.950 . S
C436 C437 1.386 . S
C436 C438 1.391 . S
C437 C436 1.386 . S
C437 C441 1.393 . S
C438 H430 0.950 . S
C438 C436 1.391 . S
C438 C439 1.400 . S
C439 C438 1.400 . S
C439 C440 1.398 . S
C439 C445 1.491 . S
C440 H431 0.950 . S
C440 C439 1.398 . S
C440 C441 1.391 . S
C441 H429 0.950 . S
C441 C437 1.393 . S
C441 C440 1.391 . S
C442 H432 0.950 . S
C442 C443 1.386 . S
C442 C444 1.391 . S
C443 C442 1.386 . S
C443 C447 1.393 . S
C444 H433 0.950 . S
C444 C442 1.391 . S
C444 C445 1.400 . S
C445 C439 1.491 . S
C445 C444 1.400 . S
C445 C446 1.398 . S
C446 H434 0.950 . S
C446 C445 1.398 . S
C446 C447 1.391 . S
C447 H435 0.950 . S
C447 C443 1.393 . S
C447 C446 1.391 . S
H448 C456 0.950 . S
H449 C461 0.950 . S
H450 C458 0.950 . S
H451 C460 0.950 . S
H452 C462 0.950 . S
H453 C464 0.950 . S
H454 C466 0.947 1_545 S
H455 C467 0.950 . S
C456 H448 0.950 . S
C456 C457 1.386 . S
C456 C458 1.391 . S
C457 C456 1.386 . S
C457 C461 1.393 . S
C458 H450 0.950 . S
C458 C456 1.391 . S
C458 C459 1.400 . S
C459 C458 1.400 . S
C459 C460 1.398 . S
C459 C465 1.491 . S
C460 H451 0.950 . S
C460 C459 1.398 . S
C460 C461 1.391 . S
C461 H449 0.950 . S
C461 C457 1.393 . S
C461 C460 1.391 . S
C462 H452 0.950 . S
C462 C463 1.386 . S
C462 C464 1.391 1_565 S
C463 C462 1.386 . S
C463 C467 1.393 . S
C464 H453 0.950 . S
C464 C462 1.391 1_545 S
C464 C465 1.400 . S
C465 C459 1.491 . S
C465 C464 1.400 . S
C465 C466 1.398 1_545 S
C466 H454 0.947 1_565 S
C466 C465 1.398 1_565 S
C466 C467 1.391 . S
C467 H455 0.950 . S
C467 C463 1.393 . S
C467 C466 1.391 . S
H468 C476 0.950 . S
H469 C481 0.950 . S
H470 C478 0.950 . S
H471 C480 0.950 . S
H472 C482 0.950 . S
H473 C484 0.950 . S
H474 C486 0.950 . S
H475 C487 0.950 . S
C476 H468 0.950 . S
C476 C477 1.386 . S
C476 C478 1.391 . S
C477 C476 1.386 . S
C477 C481 1.393 . S
C478 H470 0.950 . S
C478 C476 1.391 . S
C478 C479 1.400 . S
C479 C478 1.400 . S
C479 C480 1.398 . S
C479 C485 1.491 . S
C480 H471 0.950 . S
C480 C479 1.398 . S
C480 C481 1.391 . S
C481 H469 0.950 . S
C481 C477 1.393 . S
C481 C480 1.391 . S
C482 H472 0.950 . S
C482 C483 1.386 . S
C482 C484 1.391 . S
C483 C482 1.386 . S
C483 C487 1.393 . S
C484 H473 0.950 . S
C484 C482 1.391 . S
C484 C485 1.400 . S
C485 C479 1.491 . S
C485 C484 1.400 . S
C485 C486 1.398 . S
C486 H474 0.950 . S
C486 C485 1.398 . S
C486 C487 1.391 . S
C487 H475 0.950 . S
C487 C483 1.393 . S
C487 C486 1.391 . S
H488 C496 0.950 . S
H489 C501 0.950 . S
H490 C498 0.950 . S
H491 C500 0.950 . S
H492 C502 0.950 . S
H493 C504 0.950 . S
H494 C506 0.950 . S
H495 C507 0.950 . S
C496 H488 0.950 . S
C496 C497 1.386 . S
C496 C498 1.391 . S
C497 C496 1.386 . S
C497 C501 1.393 . S
C498 H490 0.950 . S
C498 C496 1.391 . S
C498 C499 1.400 . S
C499 C498 1.400 . S
C499 C500 1.398 . S
C499 C505 1.491 . S
C500 H491 0.950 . S
C500 C499 1.398 . S
C500 C501 1.391 . S
C501 H489 0.950 . S
C501 C497 1.393 . S
C501 C500 1.391 . S
C502 H492 0.950 . S
C502 C503 1.386 . S
C502 C504 1.391 . S
C503 C502 1.386 . S
C503 C507 1.393 . S
C504 H493 0.950 . S
C504 C502 1.391 . S
C504 C505 1.400 . S
C505 C499 1.491 . S
C505 C504 1.400 . S
C505 C506 1.398 . S
C506 H494 0.950 . S
C506 C505 1.398 . S
C506 C507 1.391 . S
C507 H495 0.950 . S
C507 C503 1.393 . S
C507 C506 1.391 . S
H508 C516 0.950 . S
H509 C521 0.950 . S
H510 C518 0.950 . S
H511 C520 0.950 . S
H512 C522 0.950 . S
H513 C524 0.950 . S
H514 C526 0.950 . S
H515 C527 0.950 . S
C516 H508 0.950 . S
C516 C517 1.386 . S
C516 C518 1.391 . S
C517 C516 1.386 . S
C517 C521 1.393 . S
C518 H510 0.950 . S
C518 C516 1.391 . S
C518 C519 1.400 . S
C519 C518 1.400 . S
C519 C520 1.398 . S
C519 C525 1.491 1_655 S
C520 H511 0.950 . S
C520 C519 1.398 . S
C520 C521 1.391 . S
C521 H509 0.950 . S
C521 C517 1.393 . S
C521 C520 1.391 . S
C522 H512 0.950 . S
C522 C523 1.386 . S
C522 C524 1.391 . S
C523 C522 1.386 . S
C523 C527 1.393 . S
C524 H513 0.950 . S
C524 C522 1.391 . S
C524 C525 1.400 . S
C525 C519 1.491 1_455 S
C525 C524 1.400 . S
C525 C526 1.398 . S
C526 H514 0.950 . S
C526 C525 1.398 . S
C526 C527 1.391 . S
C527 H515 0.950 . S
C527 C523 1.393 . S
C527 C526 1.391 . S
H528 C536 0.950 . S
H529 C541 0.950 . S
H530 C538 0.950 . S
H531 C540 0.950 . S
H532 C542 0.950 . S
H533 C544 0.950 . S
H534 C546 0.950 . S
H535 C547 0.950 . S
C536 H528 0.950 . S
C536 C537 1.386 . S
C536 C538 1.391 . S
C537 C536 1.386 . S
C537 C541 1.393 . S
C538 H530 0.950 . S
C538 C536 1.391 . S
C538 C539 1.400 . S
C539 C538 1.400 . S
C539 C540 1.398 . S
C539 C545 1.491 . S
C540 H531 0.950 . S
C540 C539 1.398 . S
C540 C541 1.391 . S
C541 H529 0.950 . S
C541 C537 1.393 . S
C541 C540 1.391 . S
C542 H532 0.950 . S
C542 C543 1.386 . S
C542 C544 1.391 . S
C543 C542 1.386 . S
C543 C547 1.393 . S
C544 H533 0.950 . S
C544 C542 1.391 . S
C544 C545 1.400 . S
C545 C539 1.491 . S
C545 C544 1.400 . S
C545 C546 1.398 . S
C546 H534 0.950 . S
C546 C545 1.398 . S
C546 C547 1.391 . S
C547 H535 0.950 . S
C547 C543 1.393 . S
C547 C546 1.391 . S
H548 C556 0.950 . S
H549 C561 0.950 . S
H550 C558 0.950 . S
H551 C560 0.950 . S
H552 C562 0.950 . S
H553 C564 0.950 . S
H554 C566 0.950 . S
H555 C567 0.950 . S
C556 H548 0.950 . S
C556 C557 1.386 . S
C556 C558 1.391 . S
C557 C556 1.386 . S
C557 C561 1.393 . S
C558 H550 0.950 . S
C558 C556 1.391 . S
C558 C559 1.400 . S
C559 C558 1.400 . S
C559 C560 1.398 . S
C559 C565 1.491 . S
C560 H551 0.950 . S
C560 C559 1.398 . S
C560 C561 1.391 . S
C561 H549 0.950 . S
C561 C557 1.393 . S
C561 C560 1.391 . S
C562 H552 0.950 . S
C562 C563 1.386 . S
C562 C564 1.391 . S
C563 C562 1.386 . S
C563 C567 1.393 . S
C564 H553 0.950 . S
C564 C562 1.391 . S
C564 C565 1.400 . S
C565 C559 1.491 . S
C565 C564 1.400 . S
C565 C566 1.398 . S
C566 H554 0.950 . S
C566 C565 1.398 . S
C566 C567 1.391 . S
C567 H555 0.950 . S
C567 C563 1.393 . S
C567 C566 1.391 . S
H568 C576 0.950 . S
H569 C581 0.950 . S
H570 C578 0.950 . S
H571 C580 0.950 . S
H572 C582 0.950 . S
H573 C584 0.950 . S
H574 C586 0.950 . S
H575 C587 0.950 1_565 S
C576 H568 0.950 . S
C576 C577 1.386 . S
C576 C578 1.391 . S
C577 C576 1.386 . S
C577 C581 1.393 . S
C578 H570 0.950 . S
C578 C576 1.391 . S
C578 C579 1.400 . S
C579 C578 1.400 . S
C579 C580 1.398 . S
C579 C585 1.491 . S
C580 H571 0.950 . S
C580 C579 1.398 . S
C580 C581 1.391 . S
C581 H569 0.950 . S
C581 C577 1.393 . S
C581 C580 1.391 . S
C582 H572 0.950 . S
C582 C583 1.386 . S
C582 C584 1.391 . S
C583 C582 1.386 . S
C583 C587 1.393 . S
C584 H573 0.950 . S
C584 C582 1.391 . S
C584 C585 1.400 . S
C585 C579 1.491 . S
C585 C584 1.400 . S
C585 C586 1.398 . S
C586 H574 0.950 . S
C586 C585 1.398 . S
C586 C587 1.391 . S
C587 H575 0.950 1_545 S
C587 C583 1.393 . S
C587 C586 1.391 . S
H588 C596 0.950 . S
H589 C601 0.950 . S
H590 C598 0.950 . S
H591 C600 0.950 . S
H592 C602 0.950 . S
H593 C604 0.950 . S
H594 C606 0.950 . S
H595 C607 0.950 . S
C596 H588 0.950 . S
C596 C597 1.386 . S
C596 C598 1.391 . S
C597 C596 1.386 . S
C597 C601 1.393 . S
C598 H590 0.950 . S
C598 C596 1.391 . S
C598 C599 1.400 . S
C599 C598 1.400 . S
C599 C600 1.398 . S
C599 C605 1.491 . S
C600 H591 0.950 . S
C600 C599 1.398 . S
C600 C601 1.391 . S
C601 H589 0.950 . S
C601 C597 1.393 . S
C601 C600 1.391 . S
C602 H592 0.950 . S
C602 C603 1.386 . S
C602 C604 1.391 . S
C603 C602 1.386 . S
C603 C607 1.393 . S
C604 H593 0.950 . S
C604 C602 1.391 . S
C604 C605 1.400 . S
C605 C599 1.491 . S
C605 C604 1.400 . S
C605 C606 1.398 . S
C606 H594 0.950 . S
C606 C605 1.398 . S
C606 C607 1.391 . S
C607 H595 0.950 . S
C607 C603 1.393 . S
C607 C606 1.391 . S
H608 C616 0.950 . S
H609 C621 0.950 . S
H610 C618 0.950 . S
H611 C620 0.950 . S
H612 C622 0.950 . S
H613 C624 0.950 . S
H614 C626 0.957 . S
H615 C627 0.950 . S
C616 H608 0.950 . S
C616 C617 1.386 . S
C616 C618 1.391 . S
C617 C616 1.386 . S
C617 C621 1.393 . S
C618 H610 0.950 . S
C618 C616 1.391 . S
C618 C619 1.400 . S
C619 C618 1.400 . S
C619 C620 1.398 . S
C619 C625 1.491 . S
C620 H611 0.950 . S
C620 C619 1.398 . S
C620 C621 1.391 . S
C621 H609 0.950 . S
C621 C617 1.393 . S
C621 C620 1.391 . S
C622 H612 0.950 . S
C622 C623 1.386 . S
C622 C624 1.391 1_545 S
C623 C622 1.386 . S
C623 C627 1.393 . S
C624 H613 0.950 . S
C624 C622 1.391 1_565 S
C624 C625 1.400 1_556 S
C625 C619 1.491 . S
C625 C624 1.400 1_554 S
C625 C626 1.404 1_565 S
C626 H614 0.957 . S
C626 C625 1.404 1_545 S
C626 C627 1.380 1_554 S
C627 H615 0.950 . S
C627 C623 1.393 . S
C627 C626 1.380 1_556 S
H628 C636 0.950 . S
H629 C641 0.950 . S
H630 C638 0.950 . S
H631 C640 0.950 . S
H632 C642 0.950 . S
H633 C644 0.950 . S
H634 C646 0.950 . S
H635 C647 0.950 . S
C636 H628 0.950 . S
C636 C637 1.386 . S
C636 C638 1.391 . S
C637 C636 1.386 . S
C637 C641 1.393 . S
C638 H630 0.950 . S
C638 C636 1.391 . S
C638 C639 1.400 . S
C639 C638 1.400 . S
C639 C640 1.398 . S
C639 C645 1.491 . S
C640 H631 0.950 . S
C640 C639 1.398 . S
C640 C641 1.391 . S
C641 H629 0.950 . S
C641 C637 1.393 . S
C641 C640 1.391 . S
C642 H632 0.950 . S
C642 C643 1.386 . S
C642 C644 1.391 . S
C643 C642 1.386 . S
C643 C647 1.393 . S
C644 H633 0.950 . S
C644 C642 1.391 . S
C644 C645 1.400 . S
C645 C639 1.491 . S
C645 C644 1.400 . S
C645 C646 1.398 . S
C646 H634 0.950 . S
C646 C645 1.398 . S
C646 C647 1.391 . S
C647 H635 0.950 . S
C647 C643 1.393 . S
C647 C646 1.391 . S
H648 C656 0.950 . S
H649 C661 0.950 . S
H650 C658 0.950 . S
H651 C660 0.950 . S
H652 C662 0.950 . S
H653 C664 0.950 . S
H654 C666 0.950 . S
H655 C667 0.950 . S
C656 H648 0.950 . S
C656 C657 1.386 . S
C656 C658 1.391 . S
C657 C656 1.386 . S
C657 C661 1.393 . S
C658 H650 0.950 . S
C658 C656 1.391 . S
C658 C659 1.400 . S
C659 C658 1.400 . S
C659 C660 1.398 . S
C659 C665 1.491 . S
C660 H651 0.950 . S
C660 C659 1.398 . S
C660 C661 1.391 . S
C661 H649 0.950 . S
C661 C657 1.393 . S
C661 C660 1.391 . S
C662 H652 0.950 . S
C662 C663 1.386 . S
C662 C664 1.391 . S
C663 C662 1.386 . S
C663 C667 1.393 . S
C664 H653 0.950 . S
C664 C662 1.391 . S
C664 C665 1.400 . S
C665 C659 1.491 . S
C665 C664 1.400 . S
C665 C666 1.398 . S
C666 H654 0.950 . S
C666 C665 1.398 . S
C666 C667 1.391 . S
C667 H655 0.950 . S
C667 C663 1.393 . S
C667 C666 1.391 . S
H668 C676 0.950 . S
H669 C681 0.950 . S
H670 C678 0.950 . S
H671 C680 0.950 . S
H672 C682 0.950 . S
H673 C684 0.950 . S
H674 C686 0.950 . S
H675 C687 0.950 . S
C676 H668 0.950 . S
C676 C677 1.386 . S
C676 C678 1.391 . S
C677 C676 1.386 . S
C677 C681 1.393 . S
C678 H670 0.950 . S
C678 C676 1.391 . S
C678 C679 1.400 . S
C679 C678 1.400 . S
C679 C680 1.398 . S
C679 C685 1.491 1_455 S
C680 H671 0.950 . S
C680 C679 1.398 . S
C680 C681 1.391 . S
C681 H669 0.950 . S
C681 C677 1.393 . S
C681 C680 1.391 . S
C682 H672 0.950 . S
C682 C683 1.386 . S
C682 C684 1.391 . S
C683 C682 1.386 . S
C683 C687 1.393 . S
C684 H673 0.950 . S
C684 C682 1.391 . S
C684 C685 1.400 . S
C685 C679 1.491 1_655 S
C685 C684 1.400 . S
C685 C686 1.398 . S
C686 H674 0.950 . S
C686 C685 1.398 . S
C686 C687 1.391 . S
C687 H675 0.950 . S
C687 C683 1.393 . S
C687 C686 1.391 . S
H688 C696 0.950 . S
H689 C701 0.950 . S
H690 C698 0.950 . S
H691 C700 0.950 . S
H692 C702 0.950 . S
H693 C704 0.950 . S
H694 C706 0.950 . S
H695 C707 0.950 . S
C696 H688 0.950 . S
C696 C697 1.386 . S
C696 C698 1.391 . S
C697 C696 1.386 . S
C697 C701 1.393 . S
C698 H690 0.950 . S
C698 C696 1.391 . S
C698 C699 1.400 . S
C699 C698 1.400 . S
C699 C700 1.398 . S
C699 C705 1.491 . S
C700 H691 0.950 . S
C700 C699 1.398 . S
C700 C701 1.391 . S
C701 H689 0.950 . S
C701 C697 1.393 . S
C701 C700 1.391 . S
C702 H692 0.950 . S
C702 C703 1.386 . S
C702 C704 1.391 . S
C703 C702 1.386 . S
C703 C707 1.393 . S
C704 H693 0.950 . S
C704 C702 1.391 . S
C704 C705 1.400 . S
C705 C699 1.491 . S
C705 C704 1.400 . S
C705 C706 1.398 . S
C706 H694 0.950 . S
C706 C705 1.398 . S
C706 C707 1.391 . S
C707 H695 0.950 . S
C707 C703 1.393 . S
C707 C706 1.391 . S
H708 C716 0.950 . S
H709 C721 0.950 . S
H710 C718 0.950 . S
H711 C720 0.950 . S
H712 C722 0.950 . S
H713 C724 0.950 . S
H714 C726 0.950 . S
H715 C727 0.950 . S
C716 H708 0.950 . S
C716 C717 1.386 . S
C716 C718 1.391 . S
C717 C716 1.386 . S
C717 C721 1.393 . S
C718 H710 0.950 . S
C718 C716 1.391 . S
C718 C719 1.400 . S
C719 C718 1.400 . S
C719 C720 1.398 . S
C719 C725 1.491 . S
C720 H711 0.950 . S
C720 C719 1.398 . S
C720 C721 1.391 . S
C721 H709 0.950 . S
C721 C717 1.393 . S
C721 C720 1.391 . S
C722 H712 0.950 . S
C722 C723 1.386 . S
C722 C724 1.391 . S
C723 C722 1.386 . S
C723 C727 1.393 . S
C724 H713 0.950 . S
C724 C722 1.391 . S
C724 C725 1.400 . S
C725 C719 1.491 . S
C725 C724 1.400 . S
C725 C726 1.398 . S
C726 H714 0.950 . S
C726 C725 1.398 . S
C726 C727 1.391 . S
C727 H715 0.950 . S
C727 C723 1.393 . S
C727 C726 1.391 . S
H728 C736 0.950 . S
H729 C741 0.950 . S
H730 C738 0.950 . S
H731 C740 0.950 . S
H732 C742 0.950 . S
H733 C744 0.950 . S
H734 C746 0.950 . S
H735 C747 0.950 . S
C736 H728 0.950 . S
C736 C737 1.386 . S
C736 C738 1.391 . S
C737 C736 1.386 . S
C737 C741 1.393 . S
C738 H730 0.950 . S
C738 C736 1.391 . S
C738 C739 1.400 . S
C739 C738 1.400 . S
C739 C740 1.398 . S
C739 C745 1.491 . S
C740 H731 0.950 . S
C740 C739 1.398 . S
C740 C741 1.391 . S
C741 H729 0.950 . S
C741 C737 1.393 . S
C741 C740 1.391 . S
C742 H732 0.950 . S
C742 C743 1.386 . S
C742 C744 1.391 . S
C743 C742 1.386 . S
C743 C747 1.393 . S
C744 H733 0.950 . S
C744 C742 1.391 . S
C744 C745 1.400 . S
C745 C739 1.491 . S
C745 C744 1.400 . S
C745 C746 1.398 . S
C746 H734 0.950 . S
C746 C745 1.398 . S
C746 C747 1.391 . S
C747 H735 0.950 . S
C747 C743 1.393 . S
C747 C746 1.391 . S
H748 C756 0.950 . S
H749 C761 0.950 . S
H750 C758 0.950 . S
H751 C760 0.950 . S
H752 C762 0.950 . S
H753 C764 0.950 . S
H754 C766 0.950 . S
H755 C767 0.950 . S
C756 H748 0.950 . S
C756 C757 1.386 . S
C756 C758 1.391 . S
C757 C756 1.386 . S
C757 C761 1.393 . S
C758 H750 0.950 . S
C758 C756 1.391 . S
C758 C759 1.400 . S
C759 C758 1.400 . S
C759 C760 1.398 . S
C759 C765 1.491 . S
C760 H751 0.950 . S
C760 C759 1.398 . S
C760 C761 1.391 . S
C761 H749 0.950 . S
C761 C757 1.393 . S
C761 C760 1.391 . S
C762 H752 0.950 . S
C762 C763 1.386 . S
C762 C764 1.391 . S
C763 C762 1.386 . S
C763 C767 1.393 . S
C764 H753 0.950 . S
C764 C762 1.391 . S
C764 C765 1.400 . S
C765 C759 1.491 . S
C765 C764 1.400 . S
C765 C766 1.398 . S
C766 H754 0.950 . S
C766 C765 1.398 . S
C766 C767 1.391 . S
C767 H755 0.950 . S
C767 C763 1.393 . S
C767 C766 1.391 . S
H768 C776 0.950 . S
H769 C781 0.950 . S
H770 C778 0.950 . S
H771 C780 0.950 . S
H772 C782 0.950 . S
H773 C784 0.950 . S
H774 C786 0.950 . S
H775 C787 0.950 . S
C776 H768 0.950 . S
C776 C777 1.386 . S
C776 C778 1.391 . S
C777 C776 1.386 . S
C777 C781 1.393 . S
C778 H770 0.950 . S
C778 C776 1.391 . S
C778 C779 1.400 . S
C779 C778 1.400 . S
C779 C780 1.398 . S
C779 C785 1.491 . S
C780 H771 0.950 . S
C780 C779 1.398 . S
C780 C781 1.391 . S
C781 H769 0.950 . S
C781 C777 1.393 . S
C781 C780 1.391 . S
C782 H772 0.950 . S
C782 C783 1.386 . S
C782 C784 1.391 . S
C783 C782 1.386 . S
C783 C787 1.393 . S
C784 H773 0.950 . S
C784 C782 1.391 . S
C784 C785 1.400 . S
C785 C779 1.491 . S
C785 C784 1.400 . S
C785 C786 1.398 . S
C786 H774 0.950 . S
C786 C785 1.398 . S
C786 C787 1.391 . S
C787 H775 0.950 . S
C787 C783 1.393 . S
C787 C786 1.391 . S
H788 C796 0.950 . S
H789 C801 0.950 . S
H790 C798 0.950 . S
H791 C800 0.950 . S
H792 C802 0.950 . S
H793 C804 0.950 . S
H794 C806 0.950 . S
H795 C807 0.950 . S
C796 H788 0.950 . S
C796 C797 1.386 . S
C796 C798 1.391 . S
C797 C796 1.386 . S
C797 C801 1.393 . S
C798 H790 0.950 . S
C798 C796 1.391 . S
C798 C799 1.400 . S
C799 C798 1.400 . S
C799 C800 1.398 . S
C799 C805 1.491 . S
C800 H791 0.950 . S
C800 C799 1.398 . S
C800 C801 1.391 . S
C801 H789 0.950 . S
C801 C797 1.393 . S
C801 C800 1.391 . S
C802 H792 0.950 . S
C802 C803 1.386 . S
C802 C804 1.391 . S
C803 C802 1.386 . S
C803 C807 1.393 . S
C804 H793 0.950 . S
C804 C802 1.391 . S
C804 C805 1.400 . S
C805 C799 1.491 . S
C805 C804 1.400 . S
C805 C806 1.398 . S
C806 H794 0.950 . S
C806 C805 1.398 . S
C806 C807 1.391 . S
C807 H795 0.950 . S
C807 C803 1.393 . S
C807 C806 1.391 . S
H808 C816 0.950 . S
H809 C821 0.950 . S
H810 C818 0.950 . S
H811 C820 0.950 . S
H812 C822 0.950 . S
H813 C824 0.950 . S
H814 C826 0.950 . S
H815 C827 0.950 . S
C816 H808 0.950 . S
C816 C817 1.386 . S
C816 C818 1.391 . S
C817 C816 1.386 . S
C817 C821 1.393 . S
C818 H810 0.950 . S
C818 C816 1.391 . S
C818 C819 1.400 . S
C819 C818 1.400 . S
C819 C820 1.398 . S
C819 C825 1.491 . S
C820 H811 0.950 . S
C820 C819 1.398 . S
C820 C821 1.391 . S
C821 H809 0.950 . S
C821 C817 1.393 . S
C821 C820 1.391 . S
C822 H812 0.950 . S
C822 C823 1.386 . S
C822 C824 1.391 . S
C823 C822 1.386 . S
C823 C827 1.393 . S
C824 H813 0.950 . S
C824 C822 1.391 . S
C824 C825 1.400 . S
C825 C819 1.491 . S
C825 C824 1.400 . S
C825 C826 1.398 . S
C826 H814 0.950 . S
C826 C825 1.398 . S
C826 C827 1.391 . S
C827 H815 0.950 . S
C827 C823 1.393 . S
C827 C826 1.391 . S
H828 C836 0.950 . S
H829 C841 0.950 . S
H830 C838 0.950 . S
H831 C840 0.950 . S
H832 C842 0.950 . S
H833 C844 0.950 . S
H834 C846 0.950 . S
H835 C847 0.950 . S
C836 H828 0.950 . S
C836 C837 1.386 . S
C836 C838 1.391 . S
C837 C836 1.386 . S
C837 C841 1.393 . S
C838 H830 0.950 . S
C838 C836 1.391 . S
C838 C839 1.400 . S
C839 C838 1.400 . S
C839 C840 1.398 . S
C839 C845 1.491 . S
C840 H831 0.950 . S
C840 C839 1.398 . S
C840 C841 1.391 . S
C841 H829 0.950 . S
C841 C837 1.393 . S
C841 C840 1.391 . S
C842 H832 0.950 . S
C842 C843 1.386 . S
C842 C844 1.391 . S
C843 C842 1.386 . S
C843 C847 1.393 . S
C844 H833 0.950 . S
C844 C842 1.391 . S
C844 C845 1.400 . S
C845 C839 1.491 . S
C845 C844 1.400 . S
C845 C846 1.398 . S
C846 H834 0.950 . S
C846 C845 1.398 . S
C846 C847 1.391 . S
C847 H835 0.950 . S
C847 C843 1.393 . S
C847 C846 1.391 . S
H848 C856 0.950 . S
H849 C861 0.950 . S
H850 C858 0.950 . S
H851 C860 0.950 . S
H852 C862 0.950 . S
H853 C864 0.950 . S
H854 C866 0.950 . S
H855 C867 0.950 . S
C856 H848 0.950 . S
C856 C857 1.386 . S
C856 C858 1.391 . S
C857 C856 1.386 . S
C857 C861 1.393 . S
C858 H850 0.950 . S
C858 C856 1.391 . S
C858 C859 1.400 . S
C859 C858 1.400 . S
C859 C860 1.398 . S
C859 C865 1.491 . S
C860 H851 0.950 . S
C860 C859 1.398 . S
C860 C861 1.391 . S
C861 H849 0.950 . S
C861 C857 1.393 . S
C861 C860 1.391 . S
C862 H852 0.950 . S
C862 C863 1.386 . S
C862 C864 1.391 . S
C863 C862 1.386 . S
C863 C867 1.393 . S
C864 H853 0.950 . S
C864 C862 1.391 . S
C864 C865 1.400 . S
C865 C859 1.491 . S
C865 C864 1.400 . S
C865 C866 1.398 . S
C866 H854 0.950 . S
C866 C865 1.398 . S
C866 C867 1.391 . S
C867 H855 0.950 . S
C867 C863 1.393 . S
C867 C866 1.391 . S
H868 C876 0.950 . S
H869 C881 0.950 1_556 S
H870 C878 0.950 . S
H871 C880 0.950 . S
H872 C882 0.950 . S
H873 C884 0.950 . S
H874 C886 0.930 1_554 S
H875 C887 0.950 . S
C876 H868 0.950 . S
C876 C877 1.386 . S
C876 C878 1.391 . S
C877 C876 1.386 . S
C877 C881 1.393 . S
C878 H870 0.950 . S
C878 C876 1.391 . S
C878 C879 1.422 . S
C879 C878 1.422 . S
C879 C880 1.387 1_554 S
C879 C885 1.482 1_554 S
C880 H871 0.950 . S
C880 C879 1.387 1_556 S
C880 C881 1.391 1_556 S
C881 H869 0.950 1_554 S
C881 C877 1.393 . S
C881 C880 1.391 1_554 S
C882 H872 0.950 . S
C882 C883 1.386 . S
C882 C884 1.391 . S
C883 C882 1.386 . S
C883 C887 1.393 . S
C884 H873 0.950 . S
C884 C882 1.391 . S
C884 C885 1.400 . S
C885 C879 1.482 1_556 S
C885 C884 1.400 . S
C885 C886 1.410 . S
C886 H874 0.930 1_556 S
C886 C885 1.410 . S
C886 C887 1.401 . S
C887 H875 0.950 . S
C887 C883 1.393 . S
C887 C886 1.401 . S
C417 C7 1.695 . S
C423 C109 1.534 1_565 S
C437 C37 1.675 . S
C443 C149 1.461 . S
C457 C54 1.823 . S
C463 C170 1.659 . S
C483 C229 1.529 . S
C477 C87 1.543 . S
C503 C269 1.499 . S
C497 C30 1.632 . S
C517 C51 1.577 . S
C523 C290 1.507 . S
C537 C84 1.919 . S
C543 C330 1.743 . S
C557 C10 1.622 1_556 S
C563 C389 1.407 . S
C577 C59 1.650 . S
C583 C370 1.527 1_545 S
C603 C250 1.404 . S
C597 C74 1.547 . S
C623 C309 1.692 . S
C617 C18 1.930 . S
C637 C32 1.564 . S
C643 C349 1.455 . S
C663 C130 1.537 . S
C657 C73 1.633 . S
C677 C15 1.617 . S
C683 C189 1.536 . S
C703 C210 1.845 . S
C697 C43 1.915 . S
C723 C90 1.396 . S
C717 C62 1.563 . S
C743 C343 1.574 . S
C737 C21 1.649 . S
C763 C383 1.384 . S
C757 C29 1.415 . S
C777 C52 1.336 . S
C783 C263 1.308 . S
C803 C303 1.563 . S
C797 C81 1.637 . S
C823 C183 1.521 . S
C817 C40 1.582 . S
C837 C65 1.588 . S
C843 C223 1.533 . S
C863 C103 1.319 . S
C857 C76 1.366 . S
C883 C143 1.404 . S
C877 C8 1.439 . S
