# Generated by pormake.
# Topology dag, (6,3)-cn, num edge types: 1
# Building blocks:
#     Node 0, Type 0, BuildingBlock: MIDCAF_clean_sbu_0, # of connection points: 6
#     Node 1, Type 0, BuildingBlock: MIDCAF_clean_sbu_0, # of connection points: 6
#     Node 2, Type 0, BuildingBlock: MIDCAF_clean_sbu_0, # of connection points: 6
#     Node 3, Type 0, BuildingBlock: MIDCAF_clean_sbu_0, # of connection points: 6
#     Node 4, Type 1, BuildingBlock: OLANEW_clean_sbu_2, # of connection points: 3
#     Node 5, Type 1, BuildingBlock: OLANEW_clean_sbu_2, # of connection points: 3
#     Node 6, Type 1, BuildingBlock: OLANEW_clean_sbu_2, # of connection points: 3
#     Node 7, Type 1, BuildingBlock: OLANEW_clean_sbu_2, # of connection points: 3
#     Node 8, Type 1, BuildingBlock: OLANEW_clean_sbu_2, # of connection points: 3
#     Node 9, Type 1, BuildingBlock: OLANEW_clean_sbu_2, # of connection points: 3
#     Node 10, Type 1, BuildingBlock: OLANEW_clean_sbu_2, # of connection points: 3
#     Node 11, Type 1, BuildingBlock: OLANEW_clean_sbu_2, # of connection points: 3
#     Edge 12, Type (0, 1), BuildingBlock: AJUNOK_clean_linker_0, # of connection points: 2
#     Edge 13, Type (0, 1), BuildingBlock: AJUNOK_clean_linker_0, # of connection points: 2
#     Edge 14, Type (0, 1), BuildingBlock: AJUNOK_clean_linker_0, # of connection points: 2
#     Edge 15, Type (0, 1), BuildingBlock: AJUNOK_clean_linker_0, # of connection points: 2
#     Edge 16, Type (0, 1), BuildingBlock: AJUNOK_clean_linker_0, # of connection points: 2
#     Edge 17, Type (0, 1), BuildingBlock: AJUNOK_clean_linker_0, # of connection points: 2
#     Edge 18, Type (0, 1), BuildingBlock: AJUNOK_clean_linker_0, # of connection points: 2
#     Edge 19, Type (0, 1), BuildingBlock: AJUNOK_clean_linker_0, # of connection points: 2
#     Edge 20, Type (0, 1), BuildingBlock: AJUNOK_clean_linker_0, # of connection points: 2
#     Edge 21, Type (0, 1), BuildingBlock: AJUNOK_clean_linker_0, # of connection points: 2
#     Edge 22, Type (0, 1), BuildingBlock: AJUNOK_clean_linker_0, # of connection points: 2
#     Edge 23, Type (0, 1), BuildingBlock: AJUNOK_clean_linker_0, # of connection points: 2
#     Edge 24, Type (0, 1), BuildingBlock: AJUNOK_clean_linker_0, # of connection points: 2
#     Edge 25, Type (0, 1), BuildingBlock: AJUNOK_clean_linker_0, # of connection points: 2
#     Edge 26, Type (0, 1), BuildingBlock: AJUNOK_clean_linker_0, # of connection points: 2
#     Edge 27, Type (0, 1), BuildingBlock: AJUNOK_clean_linker_0, # of connection points: 2
#     Edge 28, Type (0, 1), BuildingBlock: AJUNOK_clean_linker_0, # of connection points: 2
#     Edge 29, Type (0, 1), BuildingBlock: AJUNOK_clean_linker_0, # of connection points: 2
#     Edge 30, Type (0, 1), BuildingBlock: AJUNOK_clean_linker_0, # of connection points: 2
#     Edge 31, Type (0, 1), BuildingBlock: AJUNOK_clean_linker_0, # of connection points: 2
#     Edge 32, Type (0, 1), BuildingBlock: AJUNOK_clean_linker_0, # of connection points: 2
#     Edge 33, Type (0, 1), BuildingBlock: AJUNOK_clean_linker_0, # of connection points: 2
#     Edge 34, Type (0, 1), BuildingBlock: AJUNOK_clean_linker_0, # of connection points: 2
#     Edge 35, Type (0, 1), BuildingBlock: AJUNOK_clean_linker_0, # of connection points: 2
# Relax obj value: 0.176
# Max RMSD: 0.164
# Mean RMSD: 0.145
data_MOF--net-dag--node1-MIDCAF_clean_sbu_0--node2-OLANEW_clean_sbu_2--edge1-AJUNOK_clean_linker_0
_symmetry_space_group_name_H-M    P1
_symmetry_Int_Tables_number       1
_symmetry_cell_setting            triclinic
loop_
_symmetry_equiv_pos_as_xyz
'x, y, z'
_cell_length_a     34.021813
_cell_length_b     31.509878
_cell_length_c     24.717023
_cell_angle_alpha  91.74661
_cell_angle_beta   92.787154
_cell_angle_gamma 91.750445
loop_
_atom_site_label
_atom_site_type_symbol
_atom_site_fract_x
_atom_site_fract_y
_atom_site_fract_z
_atom_type_partial_charge
Zn0 Zn 0.11152 0.8119 0.09262 0.0
Zn1 Zn 0.1667 0.89388 0.95069 0.0
Zn2 Zn 0.12964 0.85945 0.02117 0.0
C3 C 0.15138 0.96096 0.01364 0.0
C4 C 0.09228 0.85414 0.90525 0.0
O5 O 0.17555 0.81341 0.04847 0.0
O6 O 0.14606 0.76281 0.09244 0.0
C7 C 0.13288 0.89531 0.13917 0.0
O8 O 0.13647 0.92973 0.03937 0.0
O9 O 0.16866 0.954 0.97056 0.0
O10 O 0.12444 0.87291 0.89519 0.0
O11 O 0.08489 0.84701 0.95481 0.0
O12 O 0.12672 0.85672 0.14972 0.0
O13 O 0.13294 0.90631 0.08944 0.0
O14 O 0.06605 0.83996 1.00662 0.0
O15 O 0.0551 0.80269 0.07878 0.0
C16 C 0.04208 0.8198 0.03645 0.0
O17 O 0.17858 0.82248 0.98599 0.0
O18 O 0.21715 0.86613 0.94319 0.0
C19 C 0.17719 0.77858 0.07458 0.0
C20 C 0.20885 0.829 0.95743 0.0
Zn21 Zn 0.66219 0.61158 0.3698 0.0
Zn22 Zn 0.6702 0.68657 0.5651 0.0
Zn23 Zn 0.66785 0.64833 0.46698 0.0
C24 C 0.68 0.59792 0.57823 0.0
C25 C 0.59599 0.69943 0.52241 0.0
O26 O 0.71174 0.68185 0.41686 0.0
O27 O 0.70271 0.64718 0.33781 0.0
C28 C 0.67893 0.54775 0.43889 0.0
O29 O 0.67868 0.59771 0.52593 0.0
O30 O 0.67604 0.63227 0.60485 0.0
O31 O 0.61773 0.71261 0.56262 0.0
O32 O 0.61013 0.67597 0.48476 0.0
O33 O 0.67577 0.55357 0.38867 0.0
O34 O 0.67586 0.57889 0.47332 0.0
O35 O 0.60911 0.66138 0.42948 0.0
O36 O 0.60615 0.62397 0.35204 0.0
C37 C 0.59033 0.64877 0.38501 0.0
O38 O 0.72051 0.69184 0.47344 0.0
O39 O 0.71859 0.72136 0.55565 0.0
C40 C 0.72008 0.67634 0.36676 0.0
C41 C 0.7359 0.7165 0.51192 0.0
Zn42 Zn 0.86596 0.17319 0.93188 0.0
Zn43 Zn 0.77688 0.13374 0.07614 0.0
Zn44 Zn 0.82145 0.15428 1.00687 0.0
C45 C 0.84927 0.09682 0.09664 0.0
C46 C 0.74628 0.10222 0.97757 0.0
O47 O 0.78254 0.1683 0.93361 0.0
O48 O 0.82656 0.19254 0.87836 0.0
C49 C 0.88246 0.23035 0.02119 0.0
O50 O 0.84835 0.09992 0.04481 0.0
O51 O 0.82377 0.1155 0.12344 0.0
O52 O 0.74861 0.09219 0.02665 0.0
O53 O 0.76652 0.13466 0.96274 0.0
O54 O 0.89523 0.21747 0.97665 0.0
O55 O 0.85199 0.21218 0.0402 0.0
O56 O 0.85875 0.09893 0.99184 0.0
O57 O 0.88896 0.11699 0.91833 0.0
C58 C 0.88085 0.08952 0.9525 0.0
O59 O 0.81893 0.20298 0.07475 0.0
O60 O 0.75583 0.19143 0.08461 0.0
C61 C 0.79104 0.18578 0.88878 0.0
C62 C 0.78652 0.2141 0.09537 0.0
Zn63 Zn 0.32159 0.3427 0.693 0.0
Zn64 Zn 0.28893 0.31881 0.48471 0.0
Zn65 Zn 0.30403 0.32935 0.59131 0.0
C66 C 0.36886 0.30062 0.50736 0.0
C67 C 0.27605 0.40256 0.50564 0.0
O68 O 0.25794 0.29376 0.63625 0.0
O69 O 0.27318 0.31805 0.7198 0.0
C70 C 0.38593 0.30637 0.65734 0.0
O71 O 0.35844 0.30613 0.55648 0.0
O72 O 0.3446 0.30622 0.46804 0.0
O73 O 0.2696 0.3756 0.46722 0.0
O74 O 0.28941 0.39067 0.55241 0.0
O75 O 0.37087 0.31196 0.70249 0.0
O76 O 0.3658 0.313 0.61297 0.0
O77 O 0.2976 0.39746 0.60869 0.0
O78 O 0.32536 0.40574 0.6914 0.0
C79 C 0.3095 0.42146 0.64971 0.0
O80 O 0.25774 0.27857 0.58132 0.0
O81 O 0.2504 0.27148 0.49182 0.0
C82 C 0.25027 0.29688 0.68686 0.0
C83 C 0.2416 0.25991 0.5383 0.0
O84 O 0.16092 0.99039 0.37771 0.0
Cd85 Cd 0.14431 0.01209 0.4703 0.0
O86 O 0.10665 0.01903 0.34817 0.0
Cd87 Cd 0.05544 0.03061 0.29426 0.0
O88 O 0.00273 0.05145 0.25013 0.0
C89 C -0.01164 0.0313 0.20806 0.0
O90 O 0.006 -0.00268 0.19076 0.0
C91 C 0.13686 -0.00222 0.33834 0.0
C92 C 0.16809 0.09462 0.50415 0.0
O93 O 0.18977 0.06308 0.51487 0.0
O94 O 0.1354 0.08702 0.47711 0.0
O95 O 0.28643 0.62534 0.66868 0.0
Cd96 Cd 0.28416 0.70231 0.68024 0.0
O97 O 0.33373 0.62297 0.61024 0.0
Cd98 Cd 0.35069 0.68879 0.59591 0.0
O99 O 0.40869 0.69374 0.56164 0.0
C100 C 0.43106 0.72618 0.55624 0.0
O101 O 0.41924 0.76378 0.57159 0.0
C102 C 0.30899 0.60437 0.63911 0.0
C103 C 0.26462 0.72726 0.78528 0.0
O104 O 0.23805 0.71583 0.74878 0.0
O105 O 0.30064 0.72673 0.77236 0.0
O106 O 0.85721 0.82608 0.07715 0.0
Cd107 Cd 0.7907 0.82891 0.11189 0.0
O108 O 0.85362 0.85242 0.99466 0.0
Cd109 Cd 0.79199 0.86991 0.98652 0.0
O110 O 0.75144 0.91934 0.96262 0.0
C111 C 0.75366 0.93685 0.91706 0.0
O112 O 0.77794 0.92175 0.88204 0.0
C113 C 0.87321 0.83603 0.03345 0.0
C114 C 0.78271 0.78298 0.20745 0.0
O115 O 0.78136 0.76469 0.16036 0.0
O116 O 0.78792 0.82345 0.2102 0.0
O117 O 0.67684 0.40048 0.64404 0.0
Cd118 Cd 0.65358 0.32599 0.65902 0.0
O119 O 0.65398 0.42687 0.71896 0.0
Cd120 Cd 0.62458 0.36684 0.73329 0.0
O121 O 0.56794 0.34329 0.6993 0.0
C122 C 0.55286 0.30593 0.69773 0.0
O123 O 0.57205 0.2751 0.7206 0.0
C124 C 0.67157 0.43241 0.67543 0.0
C125 C 0.69296 0.27528 0.73503 0.0
O126 O 0.70371 0.27771 0.68615 0.0
O127 O 0.66428 0.29795 0.74881 0.0
O128 O 0.70085 0.34659 0.43476 0.0
Cd129 Cd 0.70505 0.27369 0.40053 0.0
O130 O 0.65004 0.3503 0.48738 0.0
Cd131 Cd 0.62207 0.28675 0.48353 0.0
O132 O 0.55975 0.26841 0.49142 0.0
C133 C 0.53648 0.29594 0.47299 0.0
O134 O 0.55181 0.32935 0.45023 0.0
C135 C 0.67931 0.3678 0.46563 0.0
C136 C 0.74262 0.27244 0.30141 0.0
O137 O 0.70553 0.27777 0.30375 0.0
O138 O 0.76235 0.26766 0.34618 0.0
O139 O 0.10356 0.14404 0.95724 0.0
Cd140 Cd 0.08307 0.20605 0.90588 0.0
O141 O 0.12811 0.16722 0.03815 0.0
Cd142 Cd 0.10455 0.23086 0.03493 0.0
O143 O 0.04823 0.25016 0.06491 0.0
C144 C 0.03177 0.28584 0.06506 0.0
O145 O 0.04966 0.31877 0.04463 0.0
C146 C 0.12016 0.13723 1.00336 0.0
C147 C 0.13236 0.23203 0.82383 0.0
O148 O 0.1334 0.25076 0.87068 0.0
O149 O 0.10886 0.19971 0.81549 0.0
O150 O 0.40839 0.71056 0.33158 0.0
Cd151 Cd 0.33705 0.72018 0.32609 0.0
O152 O 0.40338 0.65434 0.38261 0.0
Cd153 Cd 0.34073 0.64781 0.39686 0.0
O154 O 0.31483 0.59732 0.44397 0.0
C155 C 0.28645 0.57282 0.42624 0.0
O156 O 0.26898 0.58028 0.37906 0.0
C157 C 0.4242 0.68065 0.35741 0.0
C158 C 0.3006 0.73264 0.22335 0.0
O159 O 0.31661 0.76377 0.25189 0.0
O160 O 0.30332 0.69538 0.24237 0.0
O161 O 0.00506 0.79522 0.67068 0.0
Cd162 Cd 0.97697 0.79689 0.5764 0.0
O163 O 0.95574 0.82387 0.71124 0.0
Cd164 Cd 0.93705 0.86142 0.78053 0.0
O165 O 0.93401 0.91696 0.83466 0.0
C166 C 0.91024 0.92021 0.8725 0.0
O167 O 0.88592 0.88816 0.88095 0.0
C168 C -0.00963 0.80988 0.71352 0.0
C169 C 0.89862 0.77273 0.5484 0.0
O170 O 0.92621 0.74613 0.54448 0.0
O171 O 0.90787 0.81006 0.56797 0.0
C172 C 0.15528 0.91049 0.23523 0.0
C173 C 0.13944 0.92583 0.1861 0.0
C174 C 0.15616 0.93502 0.28343 0.0
C175 C 0.14106 0.97601 0.28486 0.0
H176 H 0.16591 0.87846 0.237 0.0
H177 H 0.16701 0.9208 0.32039 0.0
S178 S 0.10254 0.03406 0.1663 0.0
N179 N 0.11184 0.9864 0.14122 0.0
N180 N 0.11546 0.03349 0.23153 0.0
C181 C 0.12795 0.99314 0.23549 0.0
C182 C 0.12674 0.96786 0.18617 0.0
C183 C 0.54045 0.74716 0.54027 0.0
C184 C 0.55341 0.70738 0.52257 0.0
C185 C 0.50047 0.75371 0.54807 0.0
C186 C 0.47205 0.72043 0.53953 0.0
H187 H 0.56153 0.77317 0.54935 0.0
H188 H 0.49213 0.78461 0.56316 0.0
S189 S 0.49117 0.61012 0.4925 0.0
N190 N 0.53496 0.63434 0.49639 0.0
N191 N 0.45985 0.64649 0.50994 0.0
C192 C 0.48462 0.68081 0.51996 0.0
C193 C 0.5253 0.67428 0.51193 0.0
C194 C 0.75913 0.05456 0.90002 0.0
C195 C 0.73263 0.06797 0.93853 0.0
C196 C 0.76234 0.01119 0.88678 0.0
C197 C 0.73907 0.98036 0.91169 0.0
H198 H 0.78149 0.07652 0.88656 0.0
H199 H 0.7865 0.00173 0.8626 0.0
S200 S 0.65576 0.00119 0.99871 0.0
N201 N 0.67542 0.04868 0.98851 0.0
N202 N 0.68173 0.96717 0.96428 0.0
C203 C 0.70778 0.99421 0.94194 0.0
C204 C 0.70423 0.03826 0.95475 0.0
C205 C 0.44571 0.27038 0.69215 0.0
C206 C 0.42846 0.29972 0.65724 0.0
C207 C 0.48667 0.26996 0.70162 0.0
C208 C 0.51146 0.29968 0.67755 0.0
H209 H 0.42729 0.24886 0.71402 0.0
H210 H 0.49864 0.24826 0.73083 0.0
S211 S 0.48072 0.38137 0.58044 0.0
N212 N 0.43914 0.35773 0.59663 0.0
N213 N 0.51607 0.3568 0.61381 0.0
C214 C 0.49462 0.3275 0.64011 0.0
C215 C 0.45306 0.32768 0.63025 0.0
C216 C 0.65421 0.48352 0.48388 0.0
C217 C 0.68405 0.5042 0.45654 0.0
C218 C 0.65453 0.43951 0.49059 0.0
C219 C 0.68454 0.41478 0.46963 0.0
H220 H 0.62946 0.50107 0.49757 0.0
H221 H 0.6298 0.4246 0.50947 0.0
S222 S 0.77265 0.45623 0.40265 0.0
N223 N 0.74645 0.49854 0.41406 0.0
N224 N 0.74768 0.4159 0.42694 0.0
C225 C 0.71618 0.43604 0.44609 0.0
C226 C 0.71564 0.48074 0.43918 0.0
C227 C 0.92468 0.29501 0.02878 0.0
C228 C 0.90906 0.25934 0.05426 0.0
C229 C 0.96419 0.30825 0.03855 0.0
C230 C -0.01094 0.28584 0.07379 0.0
H231 H 0.90804 0.30881 0.99557 0.0
H232 H 0.97631 0.33227 0.0131 0.0
S233 S 0.9589 0.19902 0.16231 0.0
N234 N 0.9187 0.20859 0.1251 0.0
N235 N -0.00711 0.23352 0.14397 0.0
C236 C 0.97188 0.25516 0.10627 0.0
C237 C 0.93163 0.24199 0.09656 0.0
C238 C 0.30418 0.47654 0.51149 0.0
C239 C 0.27342 0.44809 0.49356 0.0
C240 C 0.30654 0.51794 0.49245 0.0
C241 C 0.27877 0.53211 0.45337 0.0
H242 H 0.32814 0.46587 0.53751 0.0
H243 H 0.33177 0.53795 0.50607 0.0
S244 S 0.19046 0.4707 0.39698 0.0
N245 N 0.21289 0.43768 0.43793 0.0
N246 N 0.21758 0.51516 0.40093 0.0
C247 C 0.24677 0.50452 0.43702 0.0
C248 C 0.24417 0.46252 0.45709 0.0
C249 C 0.07642 0.85017 0.80524 0.0
C250 C 0.06508 0.84064 0.85792 0.0
C251 C 0.05263 0.83872 0.759 0.0
C252 C 0.016 0.81784 0.7631 0.0
H253 H 0.10403 0.86696 0.79919 0.0
H254 H 0.06256 0.84744 0.71973 0.0
S255 S 0.97347 0.78106 0.88923 0.0
N256 N 0.01574 0.80489 0.90981 0.0
N257 N 0.97009 0.78539 0.82277 0.0
C258 C 0.00431 0.80712 0.81479 0.0
C259 C 0.02906 0.81798 0.86214 0.0
C260 C 0.86417 0.01201 0.94611 0.0
C261 C 0.89215 0.04535 0.94191 0.0
C262 C 0.87134 0.97083 0.92672 0.0
C263 C 0.90633 0.9618 0.90112 0.0
H264 H 0.8359 0.01813 0.96266 0.0
H265 H 0.84848 0.94647 0.92955 0.0
S266 S -0.00957 0.03753 0.88468 0.0
N267 N 0.9573 0.06617 0.91438 0.0
N268 N 0.97074 0.98903 0.87708 0.0
C269 C 0.93534 0.99452 0.89913 0.0
C270 C 0.92815 0.03628 0.9194 0.0
C271 C 0.42855 0.32268 0.46048 0.0
C272 C 0.41068 0.29499 0.49606 0.0
C273 C 0.46894 0.32174 0.45243 0.0
C274 C 0.4932 0.29274 0.47921 0.0
H275 H 0.41142 0.34646 0.44017 0.0
H276 H 0.48128 0.3447 0.42573 0.0
S277 S 0.45939 0.20962 0.57127 0.0
N278 N 0.41908 0.23512 0.5545 0.0
N279 N 0.49535 0.23309 0.53959 0.0
C280 C 0.47525 0.26335 0.51295 0.0
C281 C 0.43392 0.26457 0.52138 0.0
C282 C 0.17435 0.0362 0.02754 0.0
C283 C 0.14338 0.00549 0.02722 0.0
C284 C 0.16674 0.07954 0.02336 0.0
C285 C 0.12795 0.09318 0.01738 0.0
H286 H 0.2046 0.02637 0.02784 0.0
H287 H 0.19126 0.10211 0.02134 0.0
S288 S 0.03666 0.02612 0.01971 0.0
N289 N 0.07261 0.99216 0.02476 0.0
N290 N 0.0583 0.07359 0.01642 0.0
C291 C 0.09678 0.06316 0.01997 0.0
C292 C 0.10451 0.01922 0.02495 0.0
C293 C 0.52156 0.62658 0.35716 0.0
C294 C 0.54877 0.65927 0.3743 0.0
C295 C 0.48138 0.63428 0.35032 0.0
C296 C 0.4671 0.67519 0.35876 0.0
H297 H 0.53119 0.5944 0.35108 0.0
H298 H 0.46121 0.60783 0.33917 0.0
S299 S 0.52663 0.77237 0.39943 0.0
N300 N 0.55912 0.73451 0.39674 0.0
N301 N 0.48331 0.74922 0.38269 0.0
C302 C 0.49413 0.70859 0.37358 0.0
C303 C 0.53509 0.70056 0.38167 0.0
C304 C 0.27349 0.48907 0.64147 0.0
C305 C 0.30912 0.46779 0.64623 0.0
C306 C 0.2734 0.53361 0.63979 0.0
C307 C 0.30896 0.55772 0.64108 0.0
H308 H 0.2457 0.47125 0.63985 0.0
H309 H 0.24548 0.54921 0.63671 0.0
S310 S 0.40981 0.51618 0.65108 0.0
N311 N 0.38048 0.47349 0.65174 0.0
N312 N 0.38051 0.55686 0.64625 0.0
C313 C 0.34465 0.53646 0.6447 0.0
C314 C 0.34468 0.49151 0.64799 0.0
C315 C 0.98073 0.85565 1.00427 0.0
C316 C -0.00122 0.82015 0.02671 0.0
C317 C 0.93971 0.85983 1.00453 0.0
C318 C 0.91561 0.8291 0.02816 0.0
H319 H -0.00151 0.88114 0.98853 0.0
H320 H 0.92705 0.88826 0.98853 0.0
S321 S 0.94771 0.72801 0.08605 0.0
N322 N -0.01125 0.75173 0.06794 0.0
N323 N 0.91211 0.76044 0.06986 0.0
C324 C 0.93306 0.79272 0.04841 0.0
C325 C 0.97453 0.78805 0.04732 0.0
C326 C 0.70409 0.52359 0.58827 0.0
C327 C 0.68237 0.55755 0.60769 0.0
C328 C 0.70228 0.48356 0.61198 0.0
C329 C 0.67942 0.47642 0.65715 0.0
H330 H 0.72209 0.52771 0.55363 0.0
H331 H 0.71789 0.45784 0.59387 0.0
S332 S 0.62109 0.55708 0.72794 0.0
N333 N 0.64 0.58258 0.6775 0.0
N334 N 0.63758 0.50849 0.72337 0.0
C335 C 0.66004 0.51128 0.67945 0.0
C336 C 0.66134 0.55163 0.65467 0.0
C337 C 0.90056 0.0986 0.172 0.0
C338 C 0.88307 0.07757 0.12554 0.0
C339 C 0.93449 0.0834 0.19824 0.0
C340 C 0.95216 0.04623 0.17941 0.0
H341 H 0.88851 0.12775 0.18745 0.0
H342 H 0.94708 0.10127 0.23336 0.0
S343 S 0.91492 0.97679 0.06283 0.0
N344 N 0.88377 0.01595 0.06451 0.0
N345 N 0.94783 0.98733 0.11306 0.0
C346 C 0.93423 0.02423 0.13377 0.0
C347 C 0.89965 0.0399 0.10704 0.0
C348 C 0.24511 0.79253 0.11439 0.0
C349 C 0.21531 0.76288 0.096 0.0
C350 C 0.27463 0.78159 0.15273 0.0
C351 C 0.27577 0.74043 0.17348 0.0
H352 H 0.24351 0.82546 0.10327 0.0
H353 H 0.29508 0.80638 0.16878 0.0
S354 S 0.20974 0.64879 0.12814 0.0
N355 N 0.19249 0.68911 0.09418 0.0
N356 N 0.24833 0.66808 0.16507 0.0
C357 C 0.2489 0.70929 0.15031 0.0
C358 C 0.21859 0.72063 0.11182 0.0
C359 C 0.78695 0.77164 0.54188 0.0
C360 C 0.77638 0.7349 0.51003 0.0
C361 C 0.82645 0.78444 0.55231 0.0
C362 C 0.8571 0.76062 0.532 0.0
H363 H 0.7645 0.78973 0.56098 0.0
H364 H 0.83298 0.81217 0.57851 0.0
S365 S 0.84512 0.66441 0.44132 0.0
N366 N 0.79968 0.67682 0.45443 0.0
N367 N 0.87404 0.70071 0.47406 0.0
C368 C 0.84692 0.72514 0.4975 0.0
C369 C 0.80655 0.71239 0.48633 0.0
C370 C 0.75072 0.26615 0.14924 0.0
C371 C 0.78526 0.24347 0.14294 0.0
C372 C 0.73877 0.27844 0.20069 0.0
C373 C 0.76089 0.26852 0.24799 0.0
H374 H 0.73081 0.27078 0.11449 0.0
H375 H 0.71054 0.29316 0.20341 0.0
S376 S 0.85752 0.21662 0.25264 0.0
N377 N 0.84423 0.21687 0.1875 0.0
N378 N 0.82229 0.24047 0.28443 0.0
C379 C 0.79781 0.25027 0.24186 0.0
C380 C 0.80995 0.23773 0.18919 0.0
C381 C 0.20499 0.23629 0.71087 0.0
C382 C 0.21339 0.28018 0.70865 0.0
C383 C 0.17689 0.22056 0.74611 0.0
C384 C 0.15717 0.24829 0.78076 0.0
H385 H 0.22203 0.21402 0.6883 0.0
H386 H 0.17244 0.18652 0.74875 0.0
S387 S 0.16462 0.36597 0.78354 0.0
N388 N 0.19628 0.351 0.73872 0.0
N389 N 0.14461 0.32166 0.80532 0.0
C390 C 0.16351 0.29218 0.77581 0.0
C391 C 0.19132 0.30804 0.73961 0.0
C392 C 0.74124 0.74948 0.34063 0.0
C393 C 0.7469 0.70543 0.33899 0.0
C394 C 0.75559 0.77543 0.29996 0.0
C395 C 0.77571 0.75797 0.25635 0.0
H396 H 0.72272 0.76329 0.3705 0.0
H397 H 0.74822 0.80864 0.30043 0.0
S398 S 0.80558 0.64619 0.24111 0.0
N399 N 0.77971 0.64701 0.29591 0.0
N400 N 0.80623 0.69532 0.21968 0.0
C401 C 0.78493 0.71485 0.25775 0.0
C402 C 0.7707 0.68872 0.29913 0.0
C403 C 0.76976 0.20295 0.79468 0.0
C404 C 0.76066 0.20081 0.84952 0.0
C405 C 0.74685 0.22577 0.75789 0.0
C406 C 0.7139 0.2478 0.77427 0.0
H407 H 0.79589 0.18831 0.78047 0.0
H408 H 0.75608 0.22734 0.71661 0.0
S409 S 0.67495 0.24843 0.91228 0.0
N410 N 0.71461 0.21959 0.91763 0.0
N411 N 0.67119 0.26268 0.84849 0.0
C412 C 0.70298 0.24379 0.82836 0.0
C413 C 0.72637 0.22015 0.86589 0.0
C414 C 0.22974 0.18665 0.56969 0.0
C415 C 0.21616 0.22148 0.54091 0.0
C416 C 0.21284 0.14582 0.55928 0.0
C417 C 0.18152 0.13865 0.52025 0.0
H418 H 0.25548 0.19033 0.59722 0.0
H419 H 0.22551 0.11946 0.58034 0.0
S420 S 0.13223 0.22106 0.43956 0.0
N421 N 0.16758 0.24733 0.47586 0.0
N422 N 0.13514 0.17104 0.457 0.0
C423 C 0.16576 0.17401 0.4945 0.0
C424 C 0.18329 0.21533 0.50466 0.0
C425 C 0.26561 0.79942 0.91058 0.0
C426 C 0.22722 0.79353 0.92844 0.0
C427 C 0.27879 0.77515 0.8669 0.0
C428 C 0.25372 0.74474 0.83876 0.0
H429 H 0.2845 0.82522 0.92771 0.0
H430 H 0.30763 0.78276 0.85243 0.0
S431 S 0.15295 0.71212 0.87533 0.0
N432 N 0.16639 0.75077 0.91958 0.0
N433 N 0.19079 0.70586 0.83678 0.0
C434 C 0.21667 0.73579 0.85945 0.0
C435 C 0.20356 0.75991 0.90466 0.0
loop_
_geom_bond_atom_site_label_1
_geom_bond_atom_site_label_2
_geom_bond_distance
_geom_bond_site_symmetry_2
_ccdc_geom_bond_type
Zn0 O6 1.920 . S
Zn0 O12 1.898 . S
Zn0 O15 1.905 . S
Zn1 O9 1.905 . S
Zn1 O10 1.898 . S
Zn1 O18 1.920 . S
Zn2 O5 2.089 . S
Zn2 O8 2.105 1_554 S
Zn2 O11 2.103 1_554 S
Zn2 O13 2.136 . S
Zn2 O14 2.125 . S
Zn2 O17 2.070 1_554 S
C3 O8 1.166 . S
C3 O9 1.182 . S
C4 O10 1.167 . S
C4 O11 1.299 . S
O5 Zn2 2.089 . S
O5 C19 1.305 . S
O6 Zn0 1.920 . S
O6 C19 1.234 . S
C7 O12 1.167 . S
C7 O13 1.299 . S
O8 Zn2 2.105 1_556 S
O8 C3 1.166 . S
O9 Zn1 1.905 . S
O9 C3 1.182 . S
O10 Zn1 1.898 . S
O10 C4 1.167 . S
O11 Zn2 2.103 1_556 S
O11 C4 1.299 . S
O12 Zn0 1.898 . S
O12 C7 1.167 . S
O13 Zn2 2.136 . S
O13 C7 1.299 . S
O14 Zn2 2.125 . S
O14 C16 1.166 . S
O15 Zn0 1.905 . S
O15 C16 1.182 . S
C16 O14 1.166 . S
C16 O15 1.182 . S
O17 Zn2 2.070 1_556 S
O17 C20 1.305 . S
O18 Zn1 1.920 . S
O18 C20 1.234 . S
C19 O5 1.305 . S
C19 O6 1.234 . S
C20 O17 1.305 . S
C20 O18 1.234 . S
Zn21 O27 1.920 . S
Zn21 O33 1.898 . S
Zn21 O36 1.905 . S
Zn22 O30 1.905 . S
Zn22 O31 1.898 . S
Zn22 O39 1.920 . S
Zn23 O26 2.080 . S
Zn23 O29 2.114 . S
Zn23 O32 2.120 . S
Zn23 O34 2.120 . S
Zn23 O35 2.114 . S
Zn23 O38 2.080 . S
C24 O29 1.166 . S
C24 O30 1.182 . S
C25 O31 1.167 . S
C25 O32 1.299 . S
O26 Zn23 2.080 . S
O26 C40 1.305 . S
O27 Zn21 1.920 . S
O27 C40 1.234 . S
C28 O33 1.167 . S
C28 O34 1.299 . S
O29 Zn23 2.114 . S
O29 C24 1.166 . S
O30 Zn22 1.905 . S
O30 C24 1.182 . S
O31 Zn22 1.898 . S
O31 C25 1.167 . S
O32 Zn23 2.120 . S
O32 C25 1.299 . S
O33 Zn21 1.898 . S
O33 C28 1.167 . S
O34 Zn23 2.120 . S
O34 C28 1.299 . S
O35 Zn23 2.114 . S
O35 C37 1.166 . S
O36 Zn21 1.905 . S
O36 C37 1.182 . S
C37 O35 1.166 . S
C37 O36 1.182 . S
O38 Zn23 2.080 . S
O38 C41 1.305 . S
O39 Zn22 1.920 . S
O39 C41 1.234 . S
C40 O26 1.305 . S
C40 O27 1.234 . S
C41 O38 1.305 . S
C41 O39 1.234 . S
Zn42 O48 1.920 . S
Zn42 O54 1.898 . S
Zn42 O57 1.905 . S
Zn43 O51 1.905 . S
Zn43 O52 1.898 . S
Zn43 O60 1.920 . S
Zn44 O47 2.080 1_554 S
Zn44 O50 2.114 . S
Zn44 O53 2.120 . S
Zn44 O55 2.120 1_554 S
Zn44 O56 2.114 1_554 S
Zn44 O59 2.080 . S
C45 O50 1.166 . S
C45 O51 1.182 . S
C46 O52 1.167 . S
C46 O53 1.299 . S
O47 Zn44 2.080 1_556 S
O47 C61 1.305 . S
O48 Zn42 1.920 . S
O48 C61 1.234 . S
C49 O54 1.167 . S
C49 O55 1.299 . S
O50 Zn44 2.114 . S
O50 C45 1.166 . S
O51 Zn43 1.905 . S
O51 C45 1.182 . S
O52 Zn43 1.898 . S
O52 C46 1.167 . S
O53 Zn44 2.120 . S
O53 C46 1.299 . S
O54 Zn42 1.898 . S
O54 C49 1.167 . S
O55 Zn44 2.120 1_556 S
O55 C49 1.299 . S
O56 Zn44 2.114 1_556 S
O56 C58 1.166 . S
O57 Zn42 1.905 . S
O57 C58 1.182 . S
C58 O56 1.166 . S
C58 O57 1.182 . S
O59 Zn44 2.080 . S
O59 C62 1.305 . S
O60 Zn43 1.920 . S
O60 C62 1.234 . S
C61 O47 1.305 . S
C61 O48 1.234 . S
C62 O59 1.305 . S
C62 O60 1.234 . S
Zn63 O69 1.920 . S
Zn63 O75 1.898 . S
Zn63 O78 1.905 . S
Zn64 O72 1.905 . S
Zn64 O73 1.898 . S
Zn64 O81 1.920 . S
Zn65 O68 2.080 . S
Zn65 O71 2.114 . S
Zn65 O74 2.120 . S
Zn65 O76 2.120 . S
Zn65 O77 2.114 . S
Zn65 O80 2.080 . S
C66 O71 1.166 . S
C66 O72 1.182 . S
C67 O73 1.167 . S
C67 O74 1.299 . S
O68 Zn65 2.080 . S
O68 C82 1.305 . S
O69 Zn63 1.920 . S
O69 C82 1.234 . S
C70 O75 1.167 . S
C70 O76 1.299 . S
O71 Zn65 2.114 . S
O71 C66 1.166 . S
O72 Zn64 1.905 . S
O72 C66 1.182 . S
O73 Zn64 1.898 . S
O73 C67 1.167 . S
O74 Zn65 2.120 . S
O74 C67 1.299 . S
O75 Zn63 1.898 . S
O75 C70 1.167 . S
O76 Zn65 2.120 . S
O76 C70 1.299 . S
O77 Zn65 2.114 . S
O77 C79 1.166 . S
O78 Zn63 1.905 . S
O78 C79 1.182 . S
C79 O77 1.166 . S
C79 O78 1.182 . S
O80 Zn65 2.080 . S
O80 C83 1.305 . S
O81 Zn64 1.920 . S
O81 C83 1.234 . S
C82 O68 1.305 . S
C82 O69 1.234 . S
C83 O80 1.305 . S
C83 O81 1.234 . S
O84 Cd85 2.300 . S
O84 C91 1.275 . S
Cd85 O84 2.300 . S
Cd85 O93 2.381 . S
Cd85 O94 2.378 . S
O86 Cd87 2.385 . S
O86 C91 1.255 . S
Cd87 O86 2.385 . S
Cd87 O88 2.317 . S
O88 Cd87 2.317 . S
O88 C89 1.232 . S
C89 O88 1.232 . S
C89 O90 1.218 . S
O90 C89 1.218 . S
C91 O84 1.275 . S
C91 O86 1.255 . S
C92 O93 1.258 . S
C92 O94 1.256 . S
O93 Cd85 2.381 . S
O93 C92 1.258 . S
O94 Cd85 2.378 . S
O94 C92 1.256 . S
O95 Cd96 2.300 . S
O95 C102 1.275 . S
Cd96 O95 2.300 . S
Cd96 O104 2.381 . S
Cd96 O105 2.378 . S
O97 Cd98 2.385 . S
O97 C102 1.255 . S
Cd98 O97 2.385 . S
Cd98 O99 2.317 . S
O99 Cd98 2.317 . S
O99 C100 1.232 . S
C100 O99 1.232 . S
C100 O101 1.218 . S
O101 C100 1.218 . S
C102 O95 1.275 . S
C102 O97 1.255 . S
C103 O104 1.258 . S
C103 O105 1.256 . S
O104 Cd96 2.381 . S
O104 C103 1.258 . S
O105 Cd96 2.378 . S
O105 C103 1.256 . S
O106 Cd107 2.300 . S
O106 C113 1.275 . S
Cd107 O106 2.300 . S
Cd107 O115 2.381 . S
Cd107 O116 2.378 . S
O108 Cd109 2.385 . S
O108 C113 1.255 . S
Cd109 O108 2.385 . S
Cd109 O110 2.317 . S
O110 Cd109 2.317 . S
O110 C111 1.232 . S
C111 O110 1.232 . S
C111 O112 1.218 . S
O112 C111 1.218 . S
C113 O106 1.275 . S
C113 O108 1.255 . S
C114 O115 1.258 . S
C114 O116 1.256 . S
O115 Cd107 2.381 . S
O115 C114 1.258 . S
O116 Cd107 2.378 . S
O116 C114 1.256 . S
O117 Cd118 2.300 . S
O117 C124 1.275 . S
Cd118 O117 2.300 . S
Cd118 O126 2.381 . S
Cd118 O127 2.378 . S
O119 Cd120 2.385 . S
O119 C124 1.255 . S
Cd120 O119 2.385 . S
Cd120 O121 2.317 . S
O121 Cd120 2.317 . S
O121 C122 1.232 . S
C122 O121 1.232 . S
C122 O123 1.218 . S
O123 C122 1.218 . S
C124 O117 1.275 . S
C124 O119 1.255 . S
C125 O126 1.258 . S
C125 O127 1.256 . S
O126 Cd118 2.381 . S
O126 C125 1.258 . S
O127 Cd118 2.378 . S
O127 C125 1.256 . S
O128 Cd129 2.300 . S
O128 C135 1.275 . S
Cd129 O128 2.300 . S
Cd129 O137 2.381 . S
Cd129 O138 2.378 . S
O130 Cd131 2.385 . S
O130 C135 1.255 . S
Cd131 O130 2.385 . S
Cd131 O132 2.317 . S
O132 Cd131 2.317 . S
O132 C133 1.232 . S
C133 O132 1.232 . S
C133 O134 1.218 . S
O134 C133 1.218 . S
C135 O128 1.275 . S
C135 O130 1.255 . S
C136 O137 1.258 . S
C136 O138 1.256 . S
O137 Cd129 2.381 . S
O137 C136 1.258 . S
O138 Cd129 2.378 . S
O138 C136 1.256 . S
O139 Cd140 2.300 . S
O139 C146 1.275 . S
Cd140 O139 2.300 . S
Cd140 O148 2.381 . S
Cd140 O149 2.378 . S
O141 Cd142 2.385 . S
O141 C146 1.255 . S
Cd142 O141 2.385 . S
Cd142 O143 2.317 . S
O143 Cd142 2.317 . S
O143 C144 1.232 . S
C144 O143 1.232 . S
C144 O145 1.218 . S
O145 C144 1.218 . S
C146 O139 1.275 . S
C146 O141 1.255 . S
C147 O148 1.258 . S
C147 O149 1.256 . S
O148 Cd140 2.381 . S
O148 C147 1.258 . S
O149 Cd140 2.378 . S
O149 C147 1.256 . S
O150 Cd151 2.300 . S
O150 C157 1.275 . S
Cd151 O150 2.300 . S
Cd151 O159 2.381 . S
Cd151 O160 2.378 . S
O152 Cd153 2.385 . S
O152 C157 1.255 . S
Cd153 O152 2.385 . S
Cd153 O154 2.317 . S
O154 Cd153 2.317 . S
O154 C155 1.232 . S
C155 O154 1.232 . S
C155 O156 1.218 . S
O156 C155 1.218 . S
C157 O150 1.275 . S
C157 O152 1.255 . S
C158 O159 1.258 . S
C158 O160 1.256 . S
O159 Cd151 2.381 . S
O159 C158 1.258 . S
O160 Cd151 2.378 . S
O160 C158 1.256 . S
O161 Cd162 2.300 . S
O161 C168 1.275 . S
Cd162 O161 2.300 . S
Cd162 O170 2.381 . S
Cd162 O171 2.378 . S
O163 Cd164 2.385 . S
O163 C168 1.255 . S
Cd164 O163 2.385 . S
Cd164 O165 2.317 . S
O165 Cd164 2.317 . S
O165 C166 1.232 . S
C166 O165 1.232 . S
C166 O167 1.218 . S
O167 C166 1.218 . S
C168 O161 1.275 . S
C168 O163 1.255 . S
C169 O170 1.258 . S
C169 O171 1.256 . S
O170 Cd162 2.381 . S
O170 C169 1.258 . S
O171 Cd162 2.378 . S
O171 C169 1.256 . S
C172 C173 1.369 . S
C172 C174 1.419 . S
C172 H176 0.930 . S
C173 C172 1.369 . S
C173 C182 1.446 . S
C174 C172 1.419 . S
C174 C175 1.363 1_565 S
C174 H177 0.929 . S
C175 C174 1.363 1_545 S
C175 C181 1.428 . S
H176 C172 0.930 . S
H177 C174 0.929 . S
S178 N179 1.613 . S
S178 N180 1.610 . S
N179 S178 1.613 . S
N179 C182 1.339 1_545 S
N180 S178 1.610 . S
N180 C181 1.351 . S
C181 C175 1.428 . S
C181 N180 1.351 . S
C181 C182 1.426 1_545 S
C182 C173 1.446 . S
C182 N179 1.339 1_565 S
C182 C181 1.426 1_565 S
C183 C184 1.369 . S
C183 C185 1.419 . S
C183 H187 0.930 . S
C184 C183 1.369 . S
C184 C193 1.429 . S
C185 C183 1.419 . S
C185 C186 1.363 . S
C185 H188 0.929 . S
C186 C185 1.363 . S
C186 C192 1.428 . S
H187 C183 0.930 . S
H188 C185 0.929 . S
S189 N190 1.613 . S
S189 N191 1.610 . S
N190 S189 1.613 . S
N190 C193 1.350 . S
N191 S189 1.610 . S
N191 C192 1.351 . S
C192 C186 1.428 . S
C192 N191 1.351 . S
C192 C193 1.434 . S
C193 C184 1.429 . S
C193 N190 1.350 . S
C193 C192 1.434 . S
C194 C195 1.369 1_565 S
C194 C196 1.419 . S
C194 H198 0.930 1_565 S
C195 C194 1.369 1_545 S
C195 C204 1.429 . S
C196 C194 1.419 . S
C196 C197 1.363 . S
C196 H199 0.929 . S
C197 C196 1.363 . S
C197 C203 1.428 . S
H198 C194 0.930 1_545 S
H199 C196 0.929 . S
S200 N201 1.613 . S
S200 N202 1.610 1_545 S
N201 S200 1.613 . S
N201 C204 1.350 . S
N202 S200 1.610 1_565 S
N202 C203 1.351 . S
C203 C197 1.428 . S
C203 N202 1.351 . S
C203 C204 1.434 1_565 S
C204 C195 1.429 . S
C204 N201 1.350 . S
C204 C203 1.434 1_545 S
C205 C206 1.369 . S
C205 C207 1.419 . S
C205 H209 0.930 . S
C206 C205 1.369 . S
C206 C215 1.429 . S
C207 C205 1.419 . S
C207 C208 1.363 . S
C207 H210 0.929 . S
C208 C207 1.363 . S
C208 C214 1.428 . S
H209 C205 0.930 . S
H210 C207 0.929 . S
S211 N212 1.613 . S
S211 N213 1.610 . S
N212 S211 1.613 . S
N212 C215 1.350 . S
N213 S211 1.610 . S
N213 C214 1.351 . S
C214 C208 1.428 . S
C214 N213 1.351 . S
C214 C215 1.434 . S
C215 C206 1.429 . S
C215 N212 1.350 . S
C215 C214 1.434 . S
C216 C217 1.369 . S
C216 C218 1.419 . S
C216 H220 0.930 . S
C217 C216 1.369 . S
C217 C226 1.429 . S
C218 C216 1.419 . S
C218 C219 1.363 . S
C218 H221 0.929 . S
C219 C218 1.363 . S
C219 C225 1.428 . S
H220 C216 0.930 . S
H221 C218 0.929 . S
S222 N223 1.613 . S
S222 N224 1.610 . S
N223 S222 1.613 . S
N223 C226 1.350 . S
N224 S222 1.610 . S
N224 C225 1.351 . S
C225 C219 1.428 . S
C225 N224 1.351 . S
C225 C226 1.434 . S
C226 C217 1.429 . S
C226 N223 1.350 . S
C226 C225 1.434 . S
C227 C228 1.369 . S
C227 C229 1.419 . S
C227 H231 0.930 . S
C228 C227 1.369 . S
C228 C237 1.429 . S
C229 C227 1.419 . S
C229 C230 1.363 1_655 S
C229 H232 0.929 . S
C230 C229 1.363 1_455 S
C230 C236 1.428 . S
H231 C227 0.930 . S
H232 C229 0.929 . S
S233 N234 1.613 1_455 S
S233 N235 1.610 . S
N234 S233 1.613 1_655 S
N234 C237 1.350 . S
N235 S233 1.610 . S
N235 C236 1.351 . S
C236 C230 1.428 . S
C236 N235 1.351 . S
C236 C237 1.434 1_455 S
C237 C228 1.429 . S
C237 N234 1.350 . S
C237 C236 1.434 1_655 S
C238 C239 1.369 . S
C238 C240 1.419 . S
C238 H242 0.930 . S
C239 C238 1.369 . S
C239 C248 1.429 . S
C240 C238 1.419 . S
C240 C241 1.363 . S
C240 H243 0.929 . S
C241 C240 1.363 . S
C241 C247 1.428 . S
H242 C238 0.930 . S
H243 C240 0.929 . S
S244 N245 1.613 . S
S244 N246 1.610 . S
N245 S244 1.613 . S
N245 C248 1.350 . S
N246 S244 1.610 . S
N246 C247 1.351 . S
C247 C241 1.428 . S
C247 N246 1.351 . S
C247 C248 1.434 . S
C248 C239 1.429 . S
C248 N245 1.350 . S
C248 C247 1.434 . S
C249 C250 1.369 . S
C249 C251 1.419 . S
C249 H253 0.930 . S
C250 C249 1.369 . S
C250 C259 1.429 . S
C251 C249 1.419 . S
C251 C252 1.363 1_455 S
C251 H254 0.929 . S
C252 C251 1.363 1_655 S
C252 C258 1.428 . S
H253 C249 0.930 . S
H254 C251 0.929 . S
S255 N256 1.613 . S
S255 N257 1.610 . S
N256 S255 1.613 . S
N256 C259 1.350 1_655 S
N257 S255 1.610 . S
N257 C258 1.351 . S
C258 C252 1.428 . S
C258 N257 1.351 . S
C258 C259 1.434 1_655 S
C259 C250 1.429 . S
C259 N256 1.350 1_455 S
C259 C258 1.434 1_455 S
C260 C261 1.369 . S
C260 C262 1.419 1_545 S
C260 H264 0.930 . S
C261 C260 1.369 . S
C261 C270 1.429 . S
C262 C260 1.419 1_565 S
C262 C263 1.363 . S
C262 H265 0.929 . S
C263 C262 1.363 . S
C263 C269 1.428 . S
H264 C260 0.930 . S
H265 C262 0.929 . S
S266 N267 1.613 . S
S266 N268 1.610 1_545 S
N267 S266 1.613 . S
N267 C270 1.350 . S
N268 S266 1.610 1_565 S
N268 C269 1.351 . S
C269 C263 1.428 . S
C269 N268 1.351 . S
C269 C270 1.434 1_565 S
C270 C261 1.429 . S
C270 N267 1.350 . S
C270 C269 1.434 1_545 S
C271 C272 1.369 . S
C271 C273 1.419 . S
C271 H275 0.930 . S
C272 C271 1.369 . S
C272 C281 1.429 . S
C273 C271 1.419 . S
C273 C274 1.363 . S
C273 H276 0.929 . S
C274 C273 1.363 . S
C274 C280 1.428 . S
H275 C271 0.930 . S
H276 C273 0.929 . S
S277 N278 1.613 . S
S277 N279 1.610 . S
N278 S277 1.613 . S
N278 C281 1.350 . S
N279 S277 1.610 . S
N279 C280 1.351 . S
C280 C274 1.428 . S
C280 N279 1.351 . S
C280 C281 1.434 . S
C281 C272 1.429 . S
C281 N278 1.350 . S
C281 C280 1.434 . S
C282 C283 1.369 . S
C282 C284 1.419 . S
C282 H286 0.930 . S
C283 C282 1.369 . S
C283 C292 1.429 . S
C284 C282 1.419 . S
C284 C285 1.363 . S
C284 H287 0.929 . S
C285 C284 1.363 . S
C285 C291 1.428 . S
H286 C282 0.930 . S
H287 C284 0.929 . S
S288 N289 1.613 . S
S288 N290 1.607 1_554 S
N289 S288 1.613 . S
N289 C292 1.350 1_554 S
N290 S288 1.607 1_556 S
N290 C291 1.354 . S
C291 C285 1.428 . S
C291 N290 1.354 . S
C291 C292 1.434 . S
C292 C283 1.429 . S
C292 N289 1.350 1_556 S
C292 C291 1.434 . S
C293 C294 1.369 . S
C293 C295 1.419 . S
C293 H297 0.930 . S
C294 C293 1.369 . S
C294 C303 1.429 . S
C295 C293 1.419 . S
C295 C296 1.363 . S
C295 H298 0.929 . S
C296 C295 1.363 . S
C296 C302 1.428 . S
H297 C293 0.930 . S
H298 C295 0.929 . S
S299 N300 1.613 . S
S299 N301 1.610 . S
N300 S299 1.613 . S
N300 C303 1.350 . S
N301 S299 1.610 . S
N301 C302 1.351 . S
C302 C296 1.428 . S
C302 N301 1.351 . S
C302 C303 1.434 . S
C303 C294 1.429 . S
C303 N300 1.350 . S
C303 C302 1.434 . S
C304 C305 1.369 . S
C304 C306 1.419 . S
C304 H308 0.930 . S
C305 C304 1.369 . S
C305 C314 1.429 . S
C306 C304 1.419 . S
C306 C307 1.363 . S
C306 H309 0.929 . S
C307 C306 1.363 . S
C307 C313 1.428 . S
H308 C304 0.930 . S
H309 C306 0.929 . S
S310 N311 1.613 . S
S310 N312 1.610 . S
N311 S310 1.613 . S
N311 C314 1.350 . S
N312 S310 1.610 . S
N312 C313 1.351 . S
C313 C307 1.428 . S
C313 N312 1.351 . S
C313 C314 1.434 . S
C314 C305 1.429 . S
C314 N311 1.350 . S
C314 C313 1.434 . S
C315 C316 1.369 . S
C315 C317 1.419 . S
C315 H319 0.930 . S
C316 C315 1.369 . S
C316 C325 1.429 . S
C317 C315 1.419 . S
C317 C318 1.363 . S
C317 H320 0.929 . S
C318 C317 1.363 . S
C318 C324 1.428 . S
H319 C315 0.930 . S
H320 C317 0.929 . S
S321 N322 1.613 1_655 S
S321 N323 1.610 . S
N322 S321 1.613 1_455 S
N322 C325 1.350 1_455 S
N323 S321 1.610 . S
N323 C324 1.351 . S
C324 C318 1.428 . S
C324 N323 1.351 . S
C324 C325 1.434 . S
C325 C316 1.429 . S
C325 N322 1.350 1_655 S
C325 C324 1.434 . S
C326 C327 1.369 . S
C326 C328 1.419 . S
C326 H330 0.930 . S
C327 C326 1.369 . S
C327 C336 1.429 . S
C328 C326 1.419 . S
C328 C329 1.363 . S
C328 H331 0.929 . S
C329 C328 1.363 . S
C329 C335 1.428 . S
H330 C326 0.930 . S
H331 C328 0.929 . S
S332 N333 1.613 . S
S332 N334 1.610 . S
N333 S332 1.613 . S
N333 C336 1.350 . S
N334 S332 1.610 . S
N334 C335 1.351 . S
C335 C329 1.428 . S
C335 N334 1.351 . S
C335 C336 1.434 . S
C336 C327 1.429 . S
C336 N333 1.350 . S
C336 C335 1.434 . S
C337 C338 1.369 . S
C337 C339 1.419 1_655 S
C337 H341 0.930 . S
C338 C337 1.369 . S
C338 C347 1.429 . S
C339 C337 1.419 1_455 S
C339 C340 1.363 . S
C339 H342 0.929 . S
C340 C339 1.363 . S
C340 C346 1.428 . S
H341 C337 0.930 . S
H342 C339 0.929 . S
S343 N344 1.613 1_455 S
S343 N345 1.610 . S
N344 S343 1.613 1_655 S
N344 C347 1.350 . S
N345 S343 1.610 . S
N345 C346 1.351 . S
C346 C340 1.428 . S
C346 N345 1.351 . S
C346 C347 1.434 1_455 S
C347 C338 1.429 . S
C347 N344 1.350 . S
C347 C346 1.434 1_655 S
C348 C349 1.369 . S
C348 C350 1.419 . S
C348 H352 0.930 . S
C349 C348 1.369 . S
C349 C358 1.429 . S
C350 C348 1.419 . S
C350 C351 1.363 . S
C350 H353 0.929 . S
C351 C350 1.363 . S
C351 C357 1.428 . S
H352 C348 0.930 . S
H353 C350 0.929 . S
S354 N355 1.613 1_556 S
S354 N356 1.610 1_556 S
N355 S354 1.613 1_554 S
N355 C358 1.350 . S
N356 S354 1.610 1_554 S
N356 C357 1.351 . S
C357 C351 1.428 . S
C357 N356 1.351 . S
C357 C358 1.434 . S
C358 C349 1.429 . S
C358 N355 1.350 . S
C358 C357 1.434 . S
C359 C360 1.369 . S
C359 C361 1.419 . S
C359 H363 0.930 . S
C360 C359 1.369 . S
C360 C369 1.429 . S
C361 C359 1.419 . S
C361 C362 1.363 . S
C361 H364 0.929 . S
C362 C361 1.363 . S
C362 C368 1.428 . S
H363 C359 0.930 . S
H364 C361 0.929 . S
S365 N366 1.613 . S
S365 N367 1.610 . S
N366 S365 1.613 . S
N366 C369 1.350 . S
N367 S365 1.610 . S
N367 C368 1.351 . S
C368 C362 1.428 . S
C368 N367 1.351 . S
C368 C369 1.434 . S
C369 C360 1.429 . S
C369 N366 1.350 . S
C369 C368 1.434 . S
C370 C371 1.369 . S
C370 C372 1.419 . S
C370 H374 0.930 . S
C371 C370 1.369 . S
C371 C380 1.429 . S
C372 C370 1.419 . S
C372 C373 1.363 . S
C372 H375 0.929 . S
C373 C372 1.363 . S
C373 C379 1.428 . S
H374 C370 0.930 . S
H375 C372 0.929 . S
S376 N377 1.613 . S
S376 N378 1.610 . S
N377 S376 1.613 . S
N377 C380 1.350 . S
N378 S376 1.610 . S
N378 C379 1.351 . S
C379 C373 1.428 . S
C379 N378 1.351 . S
C379 C380 1.434 . S
C380 C371 1.429 . S
C380 N377 1.350 . S
C380 C379 1.434 . S
C381 C382 1.369 . S
C381 C383 1.419 . S
C381 H385 0.930 . S
C382 C381 1.369 . S
C382 C391 1.429 . S
C383 C381 1.419 . S
C383 C384 1.363 . S
C383 H386 0.929 . S
C384 C383 1.363 . S
C384 C390 1.428 . S
H385 C381 0.930 . S
H386 C383 0.929 . S
S387 N388 1.613 . S
S387 N389 1.610 . S
N388 S387 1.613 . S
N388 C391 1.350 . S
N389 S387 1.610 . S
N389 C390 1.351 . S
C390 C384 1.428 . S
C390 N389 1.351 . S
C390 C391 1.434 . S
C391 C382 1.429 . S
C391 N388 1.350 . S
C391 C390 1.434 . S
C392 C393 1.369 . S
C392 C394 1.419 . S
C392 H396 0.930 . S
C393 C392 1.369 . S
C393 C402 1.429 . S
C394 C392 1.419 . S
C394 C395 1.363 . S
C394 H397 0.929 . S
C395 C394 1.363 . S
C395 C401 1.428 . S
H396 C392 0.930 . S
H397 C394 0.929 . S
S398 N399 1.613 . S
S398 N400 1.610 . S
N399 S398 1.613 . S
N399 C402 1.350 . S
N400 S398 1.610 . S
N400 C401 1.351 . S
C401 C395 1.428 . S
C401 N400 1.351 . S
C401 C402 1.434 . S
C402 C393 1.429 . S
C402 N399 1.350 . S
C402 C401 1.434 . S
C403 C404 1.369 . S
C403 C405 1.419 . S
C403 H407 0.930 . S
C404 C403 1.369 . S
C404 C413 1.429 . S
C405 C403 1.419 . S
C405 C406 1.363 . S
C405 H408 0.929 . S
C406 C405 1.363 . S
C406 C412 1.428 . S
H407 C403 0.930 . S
H408 C405 0.929 . S
S409 N410 1.613 . S
S409 N411 1.610 1_554 S
N410 S409 1.613 . S
N410 C413 1.350 1_554 S
N411 S409 1.610 1_556 S
N411 C412 1.351 . S
C412 C406 1.428 . S
C412 N411 1.351 . S
C412 C413 1.434 . S
C413 C404 1.429 . S
C413 N410 1.350 1_556 S
C413 C412 1.434 . S
C414 C415 1.369 . S
C414 C416 1.419 . S
C414 H418 0.930 . S
C415 C414 1.369 . S
C415 C424 1.429 . S
C416 C414 1.419 . S
C416 C417 1.363 . S
C416 H419 0.929 . S
C417 C416 1.363 . S
C417 C423 1.428 . S
H418 C414 0.930 . S
H419 C416 0.929 . S
S420 N421 1.613 . S
S420 N422 1.610 . S
N421 S420 1.613 . S
N421 C424 1.350 . S
N422 S420 1.610 . S
N422 C423 1.351 . S
C423 C417 1.428 . S
C423 N422 1.351 . S
C423 C424 1.434 . S
C424 C415 1.429 . S
C424 N421 1.350 . S
C424 C423 1.434 . S
C425 C426 1.369 . S
C425 C427 1.419 . S
C425 H429 0.930 . S
C426 C425 1.369 . S
C426 C435 1.429 . S
C427 C425 1.419 . S
C427 C428 1.363 . S
C427 H430 0.929 . S
C428 C427 1.363 . S
C428 C434 1.428 . S
H429 C425 0.930 . S
H430 C427 0.929 . S
S431 N432 1.613 . S
S431 N433 1.610 . S
N432 S431 1.613 . S
N432 C435 1.350 . S
N433 S431 1.610 . S
N433 C434 1.351 . S
C434 C428 1.428 . S
C434 N433 1.351 . S
C434 C435 1.434 . S
C435 C426 1.429 . S
C435 N432 1.350 . S
C435 C434 1.434 . S
C173 C7 1.104 . S
C175 C91 1.162 . S
C184 C25 1.121 . S
C186 C100 0.963 . S
C195 C46 0.909 . S
C197 C111 0.774 . S
C208 C122 0.728 . S
C206 C70 0.720 . S
C219 C135 0.848 . S
C217 C28 0.820 . S
C228 C49 0.875 . S
C230 C144 0.751 . S
C239 C67 0.842 . S
C241 C155 0.881 . S
C250 C4 1.121 . S
C252 C168 1.181 . S
C261 C58 1.370 . S
C263 C166 1.175 . S
C274 C133 1.438 . S
C272 C66 1.536 . S
C285 C146 1.915 . S
C283 C3 1.902 1_545 S
C294 C37 1.872 . S
C296 C157 2.018 . S
C307 C102 1.770 . S
C305 C79 1.695 . S
C316 C16 1.908 1_655 S
C318 C113 1.909 . S
C329 C124 1.759 . S
C327 C24 1.638 . S
C340 C89 1.161 . S
C338 C45 1.359 . S
C351 C158 1.513 . S
C349 C19 1.383 . S
C362 C169 1.500 . S
C360 C41 1.468 . S
C371 C62 1.126 . S
C373 C136 1.309 . S
C384 C147 1.431 . S
C382 C82 1.244 . S
C395 C114 1.463 . S
C393 C40 1.294 . S
C404 C61 1.138 . S
C406 C125 1.246 . S
C417 C92 1.460 . S
C415 C83 1.406 . S
C428 C103 1.524 . S
C426 C20 1.363 . S
