# Generated by pormake.
# Topology gar, (4,6)-cn, num edge types: 1
# Building blocks:
#     Node 0, Type 0, BuildingBlock: QUQFOY_clean_sbu_1, # of connection points: 4
#     Node 1, Type 0, BuildingBlock: QUQFOY_clean_sbu_1, # of connection points: 4
#     Node 2, Type 0, BuildingBlock: QUQFOY_clean_sbu_1, # of connection points: 4
#     Node 3, Type 0, BuildingBlock: QUQFOY_clean_sbu_1, # of connection points: 4
#     Node 4, Type 0, BuildingBlock: QUQFOY_clean_sbu_1, # of connection points: 4
#     Node 5, Type 0, BuildingBlock: QUQFOY_clean_sbu_1, # of connection points: 4
#     Node 6, Type 0, BuildingBlock: QUQFOY_clean_sbu_1, # of connection points: 4
#     Node 7, Type 0, BuildingBlock: QUQFOY_clean_sbu_1, # of connection points: 4
#     Node 8, Type 0, BuildingBlock: QUQFOY_clean_sbu_1, # of connection points: 4
#     Node 9, Type 0, BuildingBlock: QUQFOY_clean_sbu_1, # of connection points: 4
#     Node 10, Type 0, BuildingBlock: QUQFOY_clean_sbu_1, # of connection points: 4
#     Node 11, Type 0, BuildingBlock: QUQFOY_clean_sbu_1, # of connection points: 4
#     Node 12, Type 0, BuildingBlock: QUQFOY_clean_sbu_1, # of connection points: 4
#     Node 13, Type 0, BuildingBlock: QUQFOY_clean_sbu_1, # of connection points: 4
#     Node 14, Type 0, BuildingBlock: QUQFOY_clean_sbu_1, # of connection points: 4
#     Node 15, Type 0, BuildingBlock: QUQFOY_clean_sbu_1, # of connection points: 4
#     Node 16, Type 0, BuildingBlock: QUQFOY_clean_sbu_1, # of connection points: 4
#     Node 17, Type 0, BuildingBlock: QUQFOY_clean_sbu_1, # of connection points: 4
#     Node 18, Type 0, BuildingBlock: QUQFOY_clean_sbu_1, # of connection points: 4
#     Node 19, Type 0, BuildingBlock: QUQFOY_clean_sbu_1, # of connection points: 4
#     Node 20, Type 0, BuildingBlock: QUQFOY_clean_sbu_1, # of connection points: 4
#     Node 21, Type 0, BuildingBlock: QUQFOY_clean_sbu_1, # of connection points: 4
#     Node 22, Type 0, BuildingBlock: QUQFOY_clean_sbu_1, # of connection points: 4
#     Node 23, Type 0, BuildingBlock: QUQFOY_clean_sbu_1, # of connection points: 4
#     Node 24, Type 1, BuildingBlock: CUKXOW_clean_sbu_0, # of connection points: 6
#     Node 25, Type 1, BuildingBlock: CUKXOW_clean_sbu_0, # of connection points: 6
#     Node 26, Type 1, BuildingBlock: CUKXOW_clean_sbu_0, # of connection points: 6
#     Node 27, Type 1, BuildingBlock: CUKXOW_clean_sbu_0, # of connection points: 6
#     Node 28, Type 1, BuildingBlock: CUKXOW_clean_sbu_0, # of connection points: 6
#     Node 29, Type 1, BuildingBlock: CUKXOW_clean_sbu_0, # of connection points: 6
#     Node 30, Type 1, BuildingBlock: CUKXOW_clean_sbu_0, # of connection points: 6
#     Node 31, Type 1, BuildingBlock: CUKXOW_clean_sbu_0, # of connection points: 6
#     Node 32, Type 1, BuildingBlock: CUKXOW_clean_sbu_0, # of connection points: 6
#     Node 33, Type 1, BuildingBlock: CUKXOW_clean_sbu_0, # of connection points: 6
#     Node 34, Type 1, BuildingBlock: CUKXOW_clean_sbu_0, # of connection points: 6
#     Node 35, Type 1, BuildingBlock: CUKXOW_clean_sbu_0, # of connection points: 6
#     Node 36, Type 1, BuildingBlock: CUKXOW_clean_sbu_0, # of connection points: 6
#     Node 37, Type 1, BuildingBlock: CUKXOW_clean_sbu_0, # of connection points: 6
#     Node 38, Type 1, BuildingBlock: CUKXOW_clean_sbu_0, # of connection points: 6
#     Node 39, Type 1, BuildingBlock: CUKXOW_clean_sbu_0, # of connection points: 6
#     Edge 40, Type (0, 1), BuildingBlock: XUDNAN_clean_linker_2, # of connection points: 2
#     Edge 41, Type (0, 1), BuildingBlock: XUDNAN_clean_linker_2, # of connection points: 2
#     Edge 42, Type (0, 1), BuildingBlock: XUDNAN_clean_linker_2, # of connection points: 2
#     Edge 43, Type (0, 1), BuildingBlock: XUDNAN_clean_linker_2, # of connection points: 2
#     Edge 44, Type (0, 1), BuildingBlock: XUDNAN_clean_linker_2, # of connection points: 2
#     Edge 45, Type (0, 1), BuildingBlock: XUDNAN_clean_linker_2, # of connection points: 2
#     Edge 46, Type (0, 1), BuildingBlock: XUDNAN_clean_linker_2, # of connection points: 2
#     Edge 47, Type (0, 1), BuildingBlock: XUDNAN_clean_linker_2, # of connection points: 2
#     Edge 48, Type (0, 1), BuildingBlock: XUDNAN_clean_linker_2, # of connection points: 2
#     Edge 49, Type (0, 1), BuildingBlock: XUDNAN_clean_linker_2, # of connection points: 2
#     Edge 50, Type (0, 1), BuildingBlock: XUDNAN_clean_linker_2, # of connection points: 2
#     Edge 51, Type (0, 1), BuildingBlock: XUDNAN_clean_linker_2, # of connection points: 2
#     Edge 52, Type (0, 1), BuildingBlock: XUDNAN_clean_linker_2, # of connection points: 2
#     Edge 53, Type (0, 1), BuildingBlock: XUDNAN_clean_linker_2, # of connection points: 2
#     Edge 54, Type (0, 1), BuildingBlock: XUDNAN_clean_linker_2, # of connection points: 2
#     Edge 55, Type (0, 1), BuildingBlock: XUDNAN_clean_linker_2, # of connection points: 2
#     Edge 56, Type (0, 1), BuildingBlock: XUDNAN_clean_linker_2, # of connection points: 2
#     Edge 57, Type (0, 1), BuildingBlock: XUDNAN_clean_linker_2, # of connection points: 2
#     Edge 58, Type (0, 1), BuildingBlock: XUDNAN_clean_linker_2, # of connection points: 2
#     Edge 59, Type (0, 1), BuildingBlock: XUDNAN_clean_linker_2, # of connection points: 2
#     Edge 60, Type (0, 1), BuildingBlock: XUDNAN_clean_linker_2, # of connection points: 2
#     Edge 61, Type (0, 1), BuildingBlock: XUDNAN_clean_linker_2, # of connection points: 2
#     Edge 62, Type (0, 1), BuildingBlock: XUDNAN_clean_linker_2, # of connection points: 2
#     Edge 63, Type (0, 1), BuildingBlock: XUDNAN_clean_linker_2, # of connection points: 2
#     Edge 64, Type (0, 1), BuildingBlock: XUDNAN_clean_linker_2, # of connection points: 2
#     Edge 65, Type (0, 1), BuildingBlock: XUDNAN_clean_linker_2, # of connection points: 2
#     Edge 66, Type (0, 1), BuildingBlock: XUDNAN_clean_linker_2, # of connection points: 2
#     Edge 67, Type (0, 1), BuildingBlock: XUDNAN_clean_linker_2, # of connection points: 2
#     Edge 68, Type (0, 1), BuildingBlock: XUDNAN_clean_linker_2, # of connection points: 2
#     Edge 69, Type (0, 1), BuildingBlock: XUDNAN_clean_linker_2, # of connection points: 2
#     Edge 70, Type (0, 1), BuildingBlock: XUDNAN_clean_linker_2, # of connection points: 2
#     Edge 71, Type (0, 1), BuildingBlock: XUDNAN_clean_linker_2, # of connection points: 2
#     Edge 72, Type (0, 1), BuildingBlock: XUDNAN_clean_linker_2, # of connection points: 2
#     Edge 73, Type (0, 1), BuildingBlock: XUDNAN_clean_linker_2, # of connection points: 2
#     Edge 74, Type (0, 1), BuildingBlock: XUDNAN_clean_linker_2, # of connection points: 2
#     Edge 75, Type (0, 1), BuildingBlock: XUDNAN_clean_linker_2, # of connection points: 2
#     Edge 76, Type (0, 1), BuildingBlock: XUDNAN_clean_linker_2, # of connection points: 2
#     Edge 77, Type (0, 1), BuildingBlock: XUDNAN_clean_linker_2, # of connection points: 2
#     Edge 78, Type (0, 1), BuildingBlock: XUDNAN_clean_linker_2, # of connection points: 2
#     Edge 79, Type (0, 1), BuildingBlock: XUDNAN_clean_linker_2, # of connection points: 2
#     Edge 80, Type (0, 1), BuildingBlock: XUDNAN_clean_linker_2, # of connection points: 2
#     Edge 81, Type (0, 1), BuildingBlock: XUDNAN_clean_linker_2, # of connection points: 2
#     Edge 82, Type (0, 1), BuildingBlock: XUDNAN_clean_linker_2, # of connection points: 2
#     Edge 83, Type (0, 1), BuildingBlock: XUDNAN_clean_linker_2, # of connection points: 2
#     Edge 84, Type (0, 1), BuildingBlock: XUDNAN_clean_linker_2, # of connection points: 2
#     Edge 85, Type (0, 1), BuildingBlock: XUDNAN_clean_linker_2, # of connection points: 2
#     Edge 86, Type (0, 1), BuildingBlock: XUDNAN_clean_linker_2, # of connection points: 2
#     Edge 87, Type (0, 1), BuildingBlock: XUDNAN_clean_linker_2, # of connection points: 2
#     Edge 88, Type (0, 1), BuildingBlock: XUDNAN_clean_linker_2, # of connection points: 2
#     Edge 89, Type (0, 1), BuildingBlock: XUDNAN_clean_linker_2, # of connection points: 2
#     Edge 90, Type (0, 1), BuildingBlock: XUDNAN_clean_linker_2, # of connection points: 2
#     Edge 91, Type (0, 1), BuildingBlock: XUDNAN_clean_linker_2, # of connection points: 2
#     Edge 92, Type (0, 1), BuildingBlock: XUDNAN_clean_linker_2, # of connection points: 2
#     Edge 93, Type (0, 1), BuildingBlock: XUDNAN_clean_linker_2, # of connection points: 2
#     Edge 94, Type (0, 1), BuildingBlock: XUDNAN_clean_linker_2, # of connection points: 2
#     Edge 95, Type (0, 1), BuildingBlock: XUDNAN_clean_linker_2, # of connection points: 2
#     Edge 96, Type (0, 1), BuildingBlock: XUDNAN_clean_linker_2, # of connection points: 2
#     Edge 97, Type (0, 1), BuildingBlock: XUDNAN_clean_linker_2, # of connection points: 2
#     Edge 98, Type (0, 1), BuildingBlock: XUDNAN_clean_linker_2, # of connection points: 2
#     Edge 99, Type (0, 1), BuildingBlock: XUDNAN_clean_linker_2, # of connection points: 2
#     Edge 100, Type (0, 1), BuildingBlock: XUDNAN_clean_linker_2, # of connection points: 2
#     Edge 101, Type (0, 1), BuildingBlock: XUDNAN_clean_linker_2, # of connection points: 2
#     Edge 102, Type (0, 1), BuildingBlock: XUDNAN_clean_linker_2, # of connection points: 2
#     Edge 103, Type (0, 1), BuildingBlock: XUDNAN_clean_linker_2, # of connection points: 2
#     Edge 104, Type (0, 1), BuildingBlock: XUDNAN_clean_linker_2, # of connection points: 2
#     Edge 105, Type (0, 1), BuildingBlock: XUDNAN_clean_linker_2, # of connection points: 2
#     Edge 106, Type (0, 1), BuildingBlock: XUDNAN_clean_linker_2, # of connection points: 2
#     Edge 107, Type (0, 1), BuildingBlock: XUDNAN_clean_linker_2, # of connection points: 2
#     Edge 108, Type (0, 1), BuildingBlock: XUDNAN_clean_linker_2, # of connection points: 2
#     Edge 109, Type (0, 1), BuildingBlock: XUDNAN_clean_linker_2, # of connection points: 2
#     Edge 110, Type (0, 1), BuildingBlock: XUDNAN_clean_linker_2, # of connection points: 2
#     Edge 111, Type (0, 1), BuildingBlock: XUDNAN_clean_linker_2, # of connection points: 2
#     Edge 112, Type (0, 1), BuildingBlock: XUDNAN_clean_linker_2, # of connection points: 2
#     Edge 113, Type (0, 1), BuildingBlock: XUDNAN_clean_linker_2, # of connection points: 2
#     Edge 114, Type (0, 1), BuildingBlock: XUDNAN_clean_linker_2, # of connection points: 2
#     Edge 115, Type (0, 1), BuildingBlock: XUDNAN_clean_linker_2, # of connection points: 2
#     Edge 116, Type (0, 1), BuildingBlock: XUDNAN_clean_linker_2, # of connection points: 2
#     Edge 117, Type (0, 1), BuildingBlock: XUDNAN_clean_linker_2, # of connection points: 2
#     Edge 118, Type (0, 1), BuildingBlock: XUDNAN_clean_linker_2, # of connection points: 2
#     Edge 119, Type (0, 1), BuildingBlock: XUDNAN_clean_linker_2, # of connection points: 2
#     Edge 120, Type (0, 1), BuildingBlock: XUDNAN_clean_linker_2, # of connection points: 2
#     Edge 121, Type (0, 1), BuildingBlock: XUDNAN_clean_linker_2, # of connection points: 2
#     Edge 122, Type (0, 1), BuildingBlock: XUDNAN_clean_linker_2, # of connection points: 2
#     Edge 123, Type (0, 1), BuildingBlock: XUDNAN_clean_linker_2, # of connection points: 2
#     Edge 124, Type (0, 1), BuildingBlock: XUDNAN_clean_linker_2, # of connection points: 2
#     Edge 125, Type (0, 1), BuildingBlock: XUDNAN_clean_linker_2, # of connection points: 2
#     Edge 126, Type (0, 1), BuildingBlock: XUDNAN_clean_linker_2, # of connection points: 2
#     Edge 127, Type (0, 1), BuildingBlock: XUDNAN_clean_linker_2, # of connection points: 2
#     Edge 128, Type (0, 1), BuildingBlock: XUDNAN_clean_linker_2, # of connection points: 2
#     Edge 129, Type (0, 1), BuildingBlock: XUDNAN_clean_linker_2, # of connection points: 2
#     Edge 130, Type (0, 1), BuildingBlock: XUDNAN_clean_linker_2, # of connection points: 2
#     Edge 131, Type (0, 1), BuildingBlock: XUDNAN_clean_linker_2, # of connection points: 2
#     Edge 132, Type (0, 1), BuildingBlock: XUDNAN_clean_linker_2, # of connection points: 2
#     Edge 133, Type (0, 1), BuildingBlock: XUDNAN_clean_linker_2, # of connection points: 2
#     Edge 134, Type (0, 1), BuildingBlock: XUDNAN_clean_linker_2, # of connection points: 2
#     Edge 135, Type (0, 1), BuildingBlock: XUDNAN_clean_linker_2, # of connection points: 2
# Relax obj value: 0.116
# Max RMSD: 0.227
# Mean RMSD: 0.160
data_MOF--net-gar--node1-QUQFOY_clean_sbu_1--node2-CUKXOW_clean_sbu_0--edge1-XUDNAN_clean_linker_2
_symmetry_space_group_name_H-M    P1
_symmetry_Int_Tables_number       1
_symmetry_cell_setting            triclinic
loop_
_symmetry_equiv_pos_as_xyz
'x, y, z'
_cell_length_a     56.062997
_cell_length_b     54.527064
_cell_length_c     54.742189
_cell_angle_alpha  94.319848
_cell_angle_beta   95.624271
_cell_angle_gamma 101.81103
loop_
_atom_site_label
_atom_site_type_symbol
_atom_site_fract_x
_atom_site_fract_y
_atom_site_fract_z
_atom_type_partial_charge
O0 O 0.0363 0.23248 0.45081 0.0
Cd1 Cd 0.03381 0.25271 0.42098 0.0
Cd2 Cd 0.01196 0.28013 0.45272 0.0
O3 O 0.01344 0.25072 0.47376 0.0
O4 O 0.05612 0.24148 0.3987 0.0
O5 O 0.06063 0.28106 0.41439 0.0
C6 C 0.0678 0.2646 0.40023 0.0
C7 C 0.02282 0.31988 0.47401 0.0
C8 C 0.02563 0.23385 0.47013 0.0
C9 C 0.98494 0.26067 0.40242 0.0
O10 O 0.98697 0.27569 0.42175 0.0
O11 O 1.00091 0.24765 0.3993 0.0
O12 O 1.00165 0.30551 0.47479 0.0
O13 O 0.03803 0.31166 0.46091 0.0
O14 O 1.00152 0.75215 0.58648 0.0
Cd15 Cd 1.0047 0.77554 0.61866 0.0
Cd16 Cd 0.04045 0.80588 0.59374 0.0
O17 O 0.03257 0.77364 0.56987 0.0
O18 O 0.98231 0.75408 0.63818 0.0
O19 O 0.97746 0.7917 0.62945 0.0
C20 C 0.97071 0.77196 0.64078 0.0
C21 C 0.0407 0.84299 0.57576 0.0
C22 C 0.01553 0.75425 0.56951 0.0
C23 C 0.05747 0.79446 0.6435 0.0
O24 O 0.0633 0.80699 0.62559 0.0
O25 O 0.03608 0.78096 0.64301 0.0
O26 O 0.05822 0.83113 0.5741 0.0
O27 O 0.02302 0.83397 0.58819 0.0
O28 O 0.59518 0.80529 0.93109 0.0
Cd29 Cd 0.57322 0.80184 0.95887 0.0
Cd30 Cd 0.53912 0.81278 0.92598 0.0
O31 O 0.56799 0.8169 0.90511 0.0
O32 O 0.57983 0.77522 0.97952 0.0
O33 O 0.54505 0.77273 0.95527 0.0
C34 C 0.55803 0.76282 0.97096 0.0
C35 C 0.50135 0.7946 0.90378 0.0
C36 C 0.58904 0.81213 0.91016 0.0
C37 C 0.55242 0.84425 0.97547 0.0
O38 O 0.53835 0.83838 0.95533 0.0
O39 O 0.56962 0.83285 0.98043 0.0
O40 O 0.51212 0.8175 0.90191 0.0
O41 O 0.512 0.78181 0.91861 0.0
O42 O 0.49733 0.26555 0.09079 0.0
Cd43 Cd 0.50405 0.28973 0.12232 0.0
Cd44 Cd 0.53348 0.32051 0.09103 0.0
O45 O 0.52282 0.28741 0.06818 0.0
O46 O 0.48415 0.26921 0.14443 0.0
O47 O 0.47778 0.30614 0.13487 0.0
C48 C 0.47205 0.2867 0.14689 0.0
C49 C 0.53556 0.35752 0.0723 0.0
C50 C 0.50749 0.26751 0.07111 0.0
C51 C 0.55762 0.31066 0.1396 0.0
O52 O 0.55922 0.32305 0.12093 0.0
O53 O 0.53786 0.29566 0.14257 0.0
O54 O 0.55105 0.34346 0.0691 0.0
O55 O 0.51845 0.3504 0.08603 0.0
O56 O 0.99299 0.72825 0.15612 0.0
Cd57 Cd 0.99358 0.75521 0.1857 0.0
Cd58 Cd 0.01593 0.78907 0.1557 0.0
O59 O 0.01065 0.75627 0.13275 0.0
O60 O 0.96548 0.7456 0.20615 0.0
O61 O 0.96911 0.77748 0.18315 0.0
C62 C 0.95685 0.76411 0.19813 0.0
C63 C 1.00592 0.82347 0.13686 0.0
C64 C 1.00138 0.73357 0.1359 0.0
C65 C 0.04562 0.78408 0.20336 0.0
O66 O 0.04468 0.79511 0.18374 0.0
O67 O 0.02707 0.76793 0.20794 0.0
O68 O 0.02598 0.81622 0.1338 0.0
O69 O 0.99164 0.81157 0.15121 0.0
O70 O 0.58176 0.80057 0.38114 0.0
Cd71 Cd 0.55782 0.80076 0.40817 0.0
Cd72 Cd 0.52469 0.80588 0.36519 0.0
O73 O 0.55544 0.80136 0.34842 0.0
O74 O 0.57307 0.78751 0.43758 0.0
O75 O 0.5382 0.76733 0.41626 0.0
C76 C 0.55502 0.76822 0.43442 0.0
C77 C 0.48456 0.79019 0.34539 0.0
C78 C 0.57693 0.80038 0.35787 0.0
C79 C 0.53633 0.84718 0.40867 0.0
O80 O 0.52654 0.83873 0.38696 0.0
O81 O 0.54927 0.83473 0.42106 0.0
O82 O 0.49889 0.80916 0.33814 0.0
O83 O 0.49349 0.77895 0.36294 0.0
O84 O 0.49405 0.21811 0.66676 0.0
Cd85 Cd 0.49277 0.25032 0.68935 0.0
Cd86 Cd 0.51698 0.27194 0.65032 0.0
O87 O 0.5098 0.23486 0.6347 0.0
O88 O 0.47192 0.23732 0.71552 0.0
O89 O 0.46144 0.2643 0.69091 0.0
C90 C 0.45653 0.25084 0.70893 0.0
C91 C 0.50886 0.30449 0.62728 0.0
C92 C 0.50139 0.21561 0.64555 0.0
C93 C 0.54607 0.27802 0.70097 0.0
O94 O 0.54586 0.28145 0.67824 0.0
O95 O 0.52652 0.26733 0.7093 0.0
O96 O 0.52776 0.29491 0.62467 0.0
O97 O 0.49408 0.29517 0.64255 0.0
O98 O 0.03252 0.25069 0.88942 0.0
Cd99 Cd 0.03174 0.27044 0.8586 0.0
Cd100 Cd 0.01289 0.30401 0.89614 0.0
O101 O 0.02211 0.27669 0.91752 0.0
O102 O 0.04583 0.24976 0.8343 0.0
O103 O 0.06458 0.28841 0.84864 0.0
C104 C 0.06454 0.26807 0.83494 0.0
C105 C 0.01914 0.34485 0.91614 0.0
C106 C 0.02894 0.25642 0.91153 0.0
C107 C 0.98095 0.28263 0.84726 0.0
O108 O 0.98374 0.29524 0.86826 0.0
O109 O 0.99776 0.27208 0.84026 0.0
O110 O 1.00154 0.3271 0.92049 0.0
O111 O 0.03357 0.33939 0.90053 0.0
O112 O 0.42003 0.08687 0.218 0.0
Cd113 Cd 0.39223 0.08882 0.24079 0.0
Cd114 Cd 0.42852 0.06849 0.27433 0.0
O115 O 0.44745 0.0748 0.24384 0.0
O116 O 0.36919 0.10603 0.22148 0.0
O117 O 0.3868 0.12098 0.25891 0.0
C118 C 0.37193 0.12288 0.23992 0.0
C119 C 0.44873 0.0755 0.31518 0.0
C120 C 0.44079 0.08096 0.22258 0.0
C121 C 0.3765 0.03738 0.25929 0.0
O122 O 0.39821 0.03923 0.26956 0.0
O123 O 0.37041 0.05514 0.24803 0.0
O124 O 0.45128 0.05718 0.30007 0.0
O125 O 0.43566 0.09065 0.30679 0.0
O126 O 0.29306 0.17832 0.53486 0.0
Cd127 Cd 0.28885 0.14468 0.51387 0.0
Cd128 Cd 0.26394 0.17162 0.48193 0.0
O129 O 0.26524 0.19398 0.51391 0.0
O130 O 0.30303 0.12724 0.54036 0.0
O131 O 0.31848 0.13192 0.50495 0.0
C132 C 0.31951 0.12391 0.52653 0.0
C133 C 0.27747 0.19558 0.451 0.0
C134 C 0.28028 0.19485 0.53293 0.0
C135 C 0.23661 0.12128 0.48993 0.0
O136 O 0.237 0.13926 0.47639 0.0
O137 O 0.25469 0.12121 0.50583 0.0
O138 O 0.25596 0.19463 0.45777 0.0
O139 O 0.2908 0.18111 0.46031 0.0
O140 O 0.14945 0.9881 0.75035 0.0
Cd141 Cd 0.17875 0.99557 0.77727 0.0
Cd142 Cd 0.14133 0.01363 0.80714 0.0
O143 O 0.1222 0.99949 0.77295 0.0
O144 O 0.20144 0.97361 0.76708 0.0
O145 O 0.18295 0.96998 0.80099 0.0
C146 C 0.19715 0.96201 0.78641 0.0
C147 C 0.11393 0.0165 0.83725 0.0
C148 C 0.12777 0.99077 0.75257 0.0
C149 C 0.19032 0.04958 0.79898 0.0
O150 O 0.17069 0.04445 0.80927 0.0
O151 O 0.19683 0.03299 0.785 0.0
O152 O 0.11609 0.03093 0.81976 0.0
O153 O 0.12785 1.00039 0.83834 0.0
O154 O 0.23069 0.89738 0.08733 0.0
Cd155 Cd 0.22613 0.9215 0.06024 0.0
Cd156 Cd 0.23899 0.87707 0.03085 0.0
O157 O 0.23659 0.86331 0.06567 0.0
O158 O 0.20733 0.94742 0.07178 0.0
O159 O 0.19333 0.91894 0.04007 0.0
C160 C 0.19024 0.93799 0.05405 0.0
C161 C 0.23064 0.85067 0.99313 0.0
C162 C 0.23429 0.87496 0.08618 0.0
C163 C 0.27205 0.93104 0.03548 0.0
O164 O 0.26674 0.90775 0.02783 0.0
O165 O 0.2583 0.94077 0.04867 0.0
O166 O 0.2495 0.85086 0.00864 0.0
O167 O 0.21533 0.86394 0.99982 0.0
O168 O 0.23897 0.41565 0.09137 0.0
Cd169 Cd 0.2532 0.44576 0.07302 0.0
Cd170 Cd 0.26889 0.41139 0.0451 0.0
O171 O 0.25637 0.38862 0.07156 0.0
O172 O 0.23245 0.47071 0.07691 0.0
O173 O 0.23615 0.45126 0.04075 0.0
C174 C 0.22668 0.4671 0.0533 0.0
C175 C 0.2606 0.39376 1.00445 0.0
C176 C 0.24342 0.39381 0.08821 0.0
C177 C 0.30563 0.45792 0.0685 0.0
O178 O 0.30045 0.4388 0.05269 0.0
O179 O 0.28945 0.46366 0.08117 0.0
O180 O 0.2775 0.38822 0.01937 0.0
O181 O 0.24799 0.40923 0.01276 0.0
O182 O 0.81902 0.19372 0.05834 0.0
Cd183 Cd 0.81593 0.16452 0.03048 0.0
Cd184 Cd 0.79161 0.19695 1.00262 0.0
O185 O 0.80076 0.21866 0.03644 0.0
O186 O 0.83762 0.14103 0.04127 0.0
O187 O 0.8434 0.16294 0.00925 0.0
C188 C 0.85004 0.1468 0.02314 0.0
C189 C 0.79616 0.21623 0.96565 0.0
C190 C 0.81112 0.21397 0.05686 0.0
C191 C 0.76186 0.14604 0.01109 0.0
O192 O 0.76251 0.16659 1.0014 0.0
O193 O 0.78115 0.14161 0.02262 0.0
O194 O 0.77858 0.21855 0.97854 0.0
O195 O 0.81162 0.20337 0.97395 0.0
O196 O 0.11236 0.48212 0.23084 0.0
Cd197 Cd 0.13885 0.48545 0.26081 0.0
Cd198 Cd 0.10057 0.50836 0.2823 0.0
O199 O 0.08384 0.49982 0.24579 0.0
O200 O 0.16335 0.46594 0.24944 0.0
O201 O 0.14305 0.45667 0.28117 0.0
C202 C 0.15917 0.45199 0.26718 0.0
C203 C 0.08086 0.50233 0.3182 0.0
C204 C 0.09218 0.48945 0.22772 0.0
C205 C 0.15245 0.53972 0.28271 0.0
O206 O 0.13072 0.53768 0.28832 0.0
O207 O 0.15925 0.52146 0.2716 0.0
O208 O 0.07671 0.51921 0.30402 0.0
O209 O 0.09465 0.48754 0.31096 0.0
O210 O 0.74604 0.91616 0.5951 0.0
Cd211 Cd 0.75679 0.9422 0.57038 0.0
Cd212 Cd 0.7786 0.90642 0.55036 0.0
O213 O 0.76545 0.88862 0.57911 0.0
O214 O 0.73624 0.96759 0.57069 0.0
O215 O 0.73622 0.94072 0.53801 0.0
C216 C 0.72873 0.95963 0.5479 0.0
C217 C 0.77643 0.88033 0.51431 0.0
C218 C 0.75248 0.8951 0.59511 0.0
C219 C 0.81062 0.95697 0.5673 0.0
O220 O 0.80902 0.93487 0.55732 0.0
O221 O 0.79192 0.96386 0.57433 0.0
O222 O 0.79164 0.87965 0.53329 0.0
O223 O 0.76218 0.89611 0.51569 0.0
O224 O 0.88886 0.06883 0.20156 0.0
Cd225 Cd 0.8601 0.06493 0.22339 0.0
Cd226 Cd 0.89443 0.0594 0.26127 0.0
O227 O 0.91525 0.06294 0.232 0.0
O228 O 0.83659 0.08748 0.21625 0.0
O229 O 0.86145 0.09183 0.25103 0.0
C230 C 0.84436 0.0993 0.23785 0.0
C231 C 0.91687 0.07302 0.30008 0.0
C232 C 0.91039 0.06677 0.2096 0.0
C233 C 0.84802 0.01788 0.2474 0.0
O234 O 0.86701 0.02786 0.26221 0.0
O235 O 0.84193 0.02875 0.22875 0.0
O236 O 0.91924 0.05316 0.28718 0.0
O237 O 0.9018 0.08578 0.29082 0.0
O238 O 0.32742 0.68911 0.56621 0.0
Cd239 Cd 0.32536 0.65999 0.53845 0.0
Cd240 Cd 0.29401 0.6953 0.51526 0.0
O241 O 0.30339 0.71347 0.55103 0.0
O242 O 0.34388 0.63771 0.55669 0.0
O243 O 0.35557 0.65233 0.52264 0.0
C244 C 0.35911 0.63891 0.54052 0.0
C245 C 0.28768 0.71737 0.48014 0.0
C246 C 0.31702 0.70775 0.56887 0.0
C247 C 0.27059 0.64016 0.5207 0.0
O248 O 0.26928 0.66142 0.51327 0.0
O249 O 0.29079 0.63614 0.53062 0.0
O250 O 0.27289 0.71517 0.49679 0.0
O251 O 0.30717 0.70841 0.48396 0.0
O252 O 0.38339 0.56211 0.69973 0.0
Cd253 Cd 0.35449 0.55537 0.72126 0.0
Cd254 Cd 0.38841 0.53923 0.75134 0.0
O255 O 0.40912 0.54478 0.72229 0.0
O256 O 0.3323 0.5794 0.71461 0.0
O257 O 0.35457 0.58007 0.75041 0.0
C258 C 0.3391 0.58949 0.73699 0.0
C259 C 0.40686 0.5536 0.79124 0.0
C260 C 0.4038 0.55534 0.70318 0.0
C261 C 0.34035 0.50254 0.73507 0.0
O262 O 0.36068 0.5078 0.74878 0.0
O263 O 0.33421 0.51858 0.72129 0.0
O264 O 0.41104 0.53372 0.77969 0.0
O265 O 0.39264 0.56596 0.77982 0.0
O266 O 0.61856 0.98081 0.74347 0.0
Cd267 Cd 0.64735 0.98494 0.77136 0.0
Cd268 Cd 0.60633 0.01013 0.79464 0.0
O269 O 0.59029 0.99925 0.75807 0.0
O270 O 0.67163 0.97142 0.75257 0.0
O271 O 0.65867 0.95463 0.78535 0.0
C272 C 0.6722 0.95451 0.76761 0.0
C273 C 0.5813 0.01484 0.82668 0.0
C274 C 0.59819 0.98777 0.74039 0.0
C275 C 0.65975 0.03969 0.79391 0.0
O276 O 0.6381 0.03769 0.7998 0.0
O277 O 0.66647 0.02145 0.78264 0.0
O278 O 0.58274 0.02892 0.80883 0.0
O279 O 0.59318 0.99692 0.82599 0.0
O280 O 0.76337 0.65632 0.03446 0.0
Cd281 Cd 0.77008 0.64147 1.00081 0.0
Cd282 Cd 0.77061 0.68834 0.99259 0.0
O283 O 0.78168 0.69497 0.0297 0.0
O284 O 0.77796 0.60877 0.00799 0.0
O285 O 0.80465 0.63995 0.99568 0.0
C286 C 0.79989 0.61769 1.00308 0.0
C287 C 0.78772 0.71917 0.96815 0.0
C288 C 0.77218 0.67885 0.04342 0.0
C289 C 0.72581 0.64762 0.97515 0.0
O290 O 0.73395 0.67041 0.98386 0.0
O291 O 0.74026 0.63256 0.97464 0.0
O292 O 0.77208 0.72299 0.98294 0.0
O293 O 0.79361 0.69745 0.96691 0.0
O294 O 0.91703 0.59059 0.71062 0.0
Cd295 Cd 0.8933 0.58836 0.73784 0.0
Cd296 Cd 0.92934 0.56429 0.75878 0.0
O297 O 0.9466 0.57395 0.7278 0.0
O298 O 0.86972 0.61048 0.72888 0.0
O299 O 0.89404 0.61676 0.76402 0.0
C300 C 0.87692 0.62328 0.75002 0.0
C301 C 0.9471 0.57514 0.79994 0.0
C302 C 0.93743 0.58379 0.70972 0.0
C303 C 0.87787 0.53351 0.74692 0.0
O304 O 0.90031 0.53354 0.7533 0.0
O305 O 0.87133 0.55354 0.74122 0.0
O306 O 0.95314 0.55762 0.78619 0.0
O307 O 0.93196 0.58746 0.78985 0.0
O308 O 0.72727 0.38618 0.58146 0.0
Cd309 Cd 0.72704 0.4152 0.55849 0.0
Cd310 Cd 0.74488 0.37778 0.52518 0.0
O311 O 0.73823 0.35794 0.55588 0.0
O312 O 0.70488 0.43771 0.57038 0.0
O313 O 0.69837 0.4166 0.53347 0.0
C314 C 0.69185 0.43222 0.54915 0.0
C315 C 0.73854 0.35629 0.48497 0.0
C316 C 0.73227 0.3646 0.57692 0.0
C317 C 0.77739 0.43058 0.54137 0.0
O318 O 0.7736 0.40888 0.52957 0.0
O319 O 0.76122 0.43694 0.55391 0.0
O320 O 0.7567 0.35467 0.50064 0.0
O321 O 0.72327 0.36925 0.49237 0.0
O322 O 0.64529 0.50112 0.25073 0.0
Cd323 Cd 0.67762 0.50495 0.27383 0.0
Cd324 Cd 0.64945 0.52835 0.30725 0.0
O325 O 0.62499 0.52064 0.27569 0.0
O326 O 0.69664 0.48627 0.25279 0.0
O327 O 0.68813 0.47542 0.28943 0.0
C328 C 0.69798 0.4712 0.26962 0.0
C329 C 0.63076 0.52122 0.34354 0.0
C330 C 0.62637 0.50956 0.25478 0.0
C331 C 0.69622 0.5603 0.29358 0.0
O332 O 0.67865 0.55856 0.30689 0.0
O333 O 0.69878 0.54128 0.27986 0.0
O334 O 0.62927 0.54059 0.33189 0.0
O335 O 0.64379 0.5062 0.33518 0.0
Tb336 Tb 0.03282 0.06941 0.0253 0.0
C337 C 0.02056 0.02948 0.97756 0.0
Tb338 Tb 1.00498 0.01496 0.02869 0.0
O339 O 0.06772 0.06154 0.04265 0.0
O340 O 0.04088 0.03335 0.0236 0.0
O341 O 0.02393 0.05342 0.98662 0.0
C342 C 0.99698 0.96894 0.04406 0.0
O343 O 0.01575 0.01052 0.99151 0.0
C344 C 0.97716 0.04627 0.01455 0.0
C345 C 0.01225 0.05572 0.0752 0.0
O346 O 0.98059 0.97844 0.03174 0.0
O347 O 0.01767 0.98518 0.04732 0.0
O348 O 0.97053 0.02186 0.01001 0.0
O349 O 0.99665 0.05109 0.02914 0.0
O350 O 0.00939 0.03156 0.06722 0.0
O351 O 0.01767 0.07391 0.06047 0.0
C352 C 0.04286 0.11518 0.00907 0.0
O353 O 0.04708 0.11053 0.03187 0.0
O354 O 0.0335 0.09419 0.99577 0.0
C355 C 0.06081 0.03727 0.03729 0.0
Tb356 Tb 0.27326 0.81798 0.28341 0.0
C357 C 0.31095 0.78231 0.28712 0.0
Tb358 Tb 0.25326 0.76109 0.27478 0.0
O359 O 0.28538 0.81569 0.32246 0.0
O360 O 0.25555 0.78968 0.30387 0.0
O361 O 0.30801 0.80548 0.28387 0.0
C362 C 0.23962 0.71309 0.28364 0.0
O363 O 0.29215 0.76275 0.28559 0.0
C364 C 0.25626 0.78479 0.23449 0.0
C365 C 0.21553 0.79551 0.27207 0.0
O366 O 0.24181 0.73253 0.29943 0.0
O367 O 0.24507 0.72056 0.26247 0.0
O368 O 0.24036 0.76403 0.23591 0.0
O369 O 0.27077 0.78963 0.25423 0.0
O370 O 0.21927 0.7733 0.27768 0.0
O371 O 0.23395 0.81471 0.26974 0.0
C372 C 0.28731 0.86722 0.27908 0.0
O373 O 0.26895 0.85706 0.2903 0.0
O374 O 0.29764 0.84976 0.27053 0.0
C375 C 0.26994 0.79466 0.3236 0.0
Tb376 Tb 0.54721 0.03297 0.52272 0.0
C377 C 0.53345 0.01272 0.57311 0.0
Tb378 Tb 0.49565 0.03082 0.53485 0.0
O379 O 0.56038 0.06255 0.55342 0.0
O380 O 0.5264 0.05974 0.533 0.0
O381 O 0.54867 0.01331 0.55591 0.0
C382 C 0.45479 0.03935 0.55147 0.0
O383 O 0.51226 0.0201 0.5696 0.0
C384 C 0.50154 0.9921 0.5064 0.0
C385 C 0.50931 0.05082 0.48491 0.0
O386 O 0.47687 0.05058 0.56067 0.0
O387 O 0.45587 0.02302 0.5334 0.0
O388 O 0.48141 1.00034 0.50546 0.0
O389 O 0.51625 1.00402 0.52421 0.0
O390 O 0.49627 0.05337 0.50356 0.0
O391 O 0.52885 0.04049 0.48731 0.0
C392 C 0.58809 0.02504 0.50537 0.0
O393 O 0.56873 0.00787 0.50703 0.0
O394 O 0.58429 0.04684 0.51318 0.0
C395 C 0.54059 0.07146 0.55123 0.0
Tb396 Tb 0.26768 0.28644 0.79768 0.0
C397 C 0.273 0.32636 0.7587 0.0
Tb398 Tb 0.26087 0.26717 0.74482 0.0
O399 O 0.30001 0.27002 0.80412 0.0
O400 O 0.29179 0.28344 0.77027 0.0
O401 O 0.27448 0.3227 0.78241 0.0
C402 C 0.2656 0.25929 0.69738 0.0
O403 O 0.26779 0.3075 0.74099 0.0
C404 C 0.21946 0.2625 0.76431 0.0
C405 C 0.25619 0.22809 0.78418 0.0
O406 O 0.24889 0.26938 0.70625 0.0
O407 O 0.27938 0.25282 0.7152 0.0
O408 O 0.2235 0.24732 0.74654 0.0
O409 O 0.23782 0.28079 0.7691 0.0
O410 O 0.26299 0.23239 0.762 0.0
O411 O 0.2534 0.24661 0.80006 0.0
C412 C 0.26119 0.30824 0.84097 0.0
O413 O 0.28234 0.30841 0.83316 0.0
O414 O 0.24394 0.29543 0.82475 0.0
C415 C 0.30611 0.27215 0.78194 0.0
Tb416 Tb 0.01606 0.04586 0.50319 0.0
C417 C 0.97629 0.03259 0.53992 0.0
Tb418 Tb 0.03173 0.0345 0.556 0.0
O419 O 0.02136 0.00909 0.48831 0.0
O420 O 0.01156 0.0142 0.52371 0.0
O421 O 0.98229 0.04491 0.52064 0.0
C422 C 0.04412 0.01461 0.59713 0.0
O423 O 0.9921 0.02227 0.55305 0.0
C424 C 0.03141 0.08173 0.55016 0.0
C425 C 0.07143 0.04623 0.51829 0.0
O426 O 0.02916 0.0297 0.59483 0.0
O427 O 0.05267 0.0109 0.57627 0.0
O428 O 0.02894 0.07244 0.57107 0.0
O429 O 0.03676 0.06573 0.53537 0.0
O430 O 0.06535 0.03486 0.53823 0.0
O431 O 0.05572 0.05605 0.50431 0.0
C432 C 0.99972 0.06502 0.46292 0.0
O433 O 1.0077 0.04434 0.46326 0.0
O434 O 1.001 0.07515 0.48538 0.0
C435 C 0.01813 0.99905 0.50879 0.0
Tb436 Tb 0.29654 0.77876 0.79472 0.0
C437 C 0.2541 0.78417 0.82639 0.0
Tb438 Tb 0.24573 0.77422 0.7672 0.0
O439 O 0.29859 0.8177 0.80869 0.0
O440 O 0.2778 0.80283 0.77526 0.0
O441 O 0.27606 0.77845 0.82668 0.0
C442 C 0.20221 0.78174 0.74985 0.0
O443 O 0.24047 0.78558 0.80542 0.0
C444 C 0.25957 0.73148 0.77182 0.0
C445 C 0.28827 0.76914 0.73548 0.0
O446 O 0.2058 0.76434 0.76382 0.0
O447 O 0.22313 0.79474 0.74529 0.0
O448 O 0.2443 0.73498 0.75366 0.0
O449 O 0.26417 0.75064 0.78729 0.0
O450 O 0.26614 0.77447 0.73513 0.0
O451 O 0.302 0.768 0.75647 0.0
C452 C 0.33926 0.77031 0.81354 0.0
O453 O 0.3365 0.78922 0.80132 0.0
O454 O 0.31799 0.75626 0.81533 0.0
C455 C 0.28282 0.8217 0.79123 0.0
Tb456 Tb 0.48777 0.04016 0.02198 0.0
C457 C 0.52117 1.00175 0.03281 0.0
Tb458 Tb 0.54182 0.05825 0.03043 0.0
O459 O 0.48826 0.0498 0.98416 0.0
O460 O 0.51753 0.03647 1.00087 0.0
O461 O 0.49943 0.00702 0.03501 0.0
C462 C 0.59002 0.07381 0.02764 0.0
O463 O 0.53936 0.01818 0.02588 0.0
C464 C 0.52065 0.05558 0.07167 0.0
C465 C 0.50836 0.09744 0.02022 0.0
O466 O 0.58024 0.06155 0.04476 0.0
O467 O 0.57261 0.07792 0.01207 0.0
O468 O 0.54287 0.05323 0.0696 0.0
O469 O 0.51212 0.06213 0.05158 0.0
O470 O 0.53056 0.09247 0.0201 0.0
O471 O 0.48896 0.08033 0.02414 0.0
C472 C 0.43979 0.01941 0.02004 0.0
O473 O 0.45337 0.01819 1.00241 0.0
O474 O 0.45325 0.03239 0.03924 0.0
C475 C 0.50954 0.04484 0.9815 0.0
Tb476 Tb 0.2413 0.27809 0.27602 0.0
C477 C 0.28879 0.28629 0.31296 0.0
Tb478 Tb 0.29059 0.29557 0.25647 0.0
O479 O 0.24945 0.24024 0.27818 0.0
O480 O 0.2626 0.26287 0.25149 0.0
O481 O 0.26517 0.28686 0.31051 0.0
C482 C 0.33389 0.29292 0.24174 0.0
O483 O 0.3021 0.2876 0.29415 0.0
C484 C 0.26895 0.33168 0.27074 0.0
C485 C 0.2428 0.29001 0.22021 0.0
O486 O 0.32002 0.2757 0.25206 0.0
O487 O 0.32356 0.31209 0.23987 0.0
O488 O 0.28436 0.33392 0.25435 0.0
O489 O 0.26893 0.3113 0.28018 0.0
O490 O 0.26633 0.28878 0.22206 0.0
O491 O 0.22969 0.28747 0.23917 0.0
C492 C 0.1978 0.27764 0.29207 0.0
O493 O 0.20884 0.25888 0.29186 0.0
O494 O 0.21096 0.29613 0.28271 0.0
C495 C 0.26346 0.24258 0.26058 0.0
Tb496 Tb 0.50497 0.55832 1.0043 0.0
C497 C 0.47167 0.54371 0.04671 0.0
Tb498 Tb 0.52988 0.5595 0.05782 0.0
O499 O 0.5223 0.52742 0.99253 0.0
O500 O 0.51371 0.53224 0.02842 0.0
O501 O 0.4725 0.54837 0.02328 0.0
C502 C 0.54456 0.54661 0.10181 0.0
O503 O 0.49147 0.54591 0.06287 0.0
C504 C 0.5253 0.60297 0.04352 0.0
C505 C 0.56203 0.57459 0.01497 0.0
O506 O 0.5311 0.56298 0.09785 0.0
O507 O 0.55035 0.53782 0.08095 0.0
O508 O 0.54255 0.6004 0.06021 0.0
O509 O 0.51075 0.58213 0.03754 0.0
O510 O 0.5614 0.56473 0.0365 0.0
O511 O 0.5422 0.5775 1.00122 0.0
C512 C 0.48021 0.56578 0.96253 0.0
O513 O 0.49447 0.58338 0.97772 0.0
O514 O 0.47977 0.54407 0.97096 0.0
C515 C 0.52422 0.51982 0.0144 0.0
Tb516 Tb 0.79784 0.28868 0.28043 0.0
C517 C 0.75736 0.29191 0.31579 0.0
Tb518 Tb 0.74502 0.28051 0.25718 0.0
O519 O 0.79946 0.32925 0.28868 0.0
O520 O 0.77713 0.30854 0.2584 0.0
O521 O 0.7797 0.28752 0.31425 0.0
C522 C 0.70272 0.29271 0.24266 0.0
O523 O 0.74157 0.29116 0.29586 0.0
C524 C 0.76059 0.23938 0.26549 0.0
C525 C 0.78513 0.27872 0.22133 0.0
O526 O 0.70617 0.26979 0.24202 0.0
O527 O 0.72286 0.3083 0.25145 0.0
O528 O 0.74356 0.24038 0.24785 0.0
O529 O 0.76598 0.2601 0.27884 0.0
O530 O 0.76262 0.28213 0.2235 0.0
O531 O 0.80144 0.27911 0.24093 0.0
C532 C 0.84195 0.28063 0.29538 0.0
O533 O 0.83424 0.30091 0.30128 0.0
O534 O 0.82497 0.26509 0.2809 0.0
C535 C 0.78242 0.32954 0.27094 0.0
Tb536 Tb 0.99406 0.53023 0.51709 0.0
C537 C 0.02869 0.49302 0.53173 0.0
Tb538 Tb 0.05011 0.55121 0.52845 0.0
O539 O 0.9957 0.53359 0.47727 0.0
O540 O 0.02577 0.52834 0.4997 0.0
O541 O 1.00578 0.4965 0.52848 0.0
C542 C 0.09877 0.56173 0.52813 0.0
O543 O 0.04831 0.51132 0.53125 0.0
C544 C 0.02355 0.56199 0.56333 0.0
C545 C 0.01645 0.5865 0.50968 0.0
O546 O 0.08724 0.55163 0.5456 0.0
O547 O 0.08289 0.56601 0.51091 0.0
O548 O 0.0448 0.57559 0.56059 0.0
O549 O 0.01973 0.54221 0.54884 0.0
O550 O 0.03826 0.58078 0.50902 0.0
O551 O 0.99726 0.57051 0.51571 0.0
C552 C 0.94685 0.51533 0.52392 0.0
O553 O 0.96214 0.53478 0.53551 0.0
O554 O 0.95812 0.50412 0.50823 0.0
C555 C 0.01882 0.53268 0.47821 0.0
Tb556 Tb 0.77177 0.79329 0.2983 0.0
C557 C 0.77633 0.84214 0.26846 0.0
Tb558 Tb 0.75774 0.78689 0.24483 0.0
O559 O 0.80531 0.77867 0.294 0.0
O560 O 0.79143 0.79837 0.26722 0.0
O561 O 0.77579 0.83265 0.29015 0.0
C562 C 0.75101 0.76983 0.19729 0.0
O563 O 0.77202 0.82747 0.2473 0.0
C564 C 0.72281 0.79708 0.27001 0.0
C565 C 0.75505 0.73921 0.27469 0.0
O566 O 0.7712 0.78364 0.20874 0.0
O567 O 0.7346 0.76634 0.21245 0.0
O568 O 0.72683 0.80439 0.24849 0.0
O569 O 0.73724 0.78281 0.27601 0.0
O570 O 0.76068 0.74895 0.25402 0.0
O571 O 0.75355 0.75389 0.2945 0.0
C572 C 0.77416 0.80506 0.34667 0.0
O573 O 0.78725 0.79131 0.33613 0.0
O574 O 0.75993 0.81247 0.33002 0.0
C575 C 0.80737 0.78578 0.2721 0.0
Tb576 Tb 0.77437 0.31519 0.76882 0.0
C577 C 0.81428 0.28192 0.77248 0.0
Tb578 Tb 0.75709 0.25801 0.76916 0.0
O579 O 0.79208 0.31887 0.80683 0.0
O580 O 0.76193 0.29003 0.79486 0.0
O581 O 0.80958 0.30407 0.76753 0.0
C582 C 0.74573 0.21171 0.7836 0.0
O583 O 0.79689 0.26201 0.77503 0.0
C584 C 0.75188 0.27481 0.72556 0.0
C585 C 0.71741 0.2907 0.76539 0.0
O586 O 0.75138 0.21686 0.76182 0.0
O587 O 0.74673 0.23256 0.79709 0.0
O588 O 0.73891 0.25391 0.73138 0.0
O589 O 0.76902 0.28339 0.74275 0.0
O590 O 0.72287 0.26988 0.7733 0.0
O591 O 0.73434 0.30953 0.75948 0.0
C592 C 0.78529 0.36286 0.75816 0.0
O593 O 0.77041 0.35437 0.77382 0.0
O594 O 0.79387 0.34451 0.74843 0.0
C595 C 0.77848 0.29836 0.81254 0.0
Tb596 Tb 0.75489 0.78689 0.78591 0.0
C597 C 0.80189 0.79993 0.8234 0.0
Tb598 Tb 0.80418 0.79673 0.76587 0.0
O599 O 0.75993 0.74943 0.79449 0.0
O600 O 0.77489 0.76543 0.76494 0.0
O601 O 0.77927 0.8035 0.81887 0.0
C602 C 0.84644 0.79053 0.75053 0.0
O603 O 0.81471 0.79454 0.80534 0.0
C604 C 0.78451 0.83641 0.77075 0.0
C605 C 0.75632 0.79092 0.72898 0.0
O606 O 0.83081 0.77353 0.75934 0.0
O607 O 0.83846 0.81124 0.7506 0.0
O608 O 0.80048 0.83373 0.75562 0.0
O609 O 0.7831 0.81882 0.7847 0.0
O610 O 0.77949 0.78823 0.73143 0.0
O611 O 0.74336 0.79137 0.7479 0.0
C612 C 0.71146 0.78812 0.80103 0.0
O613 O 0.72033 0.79984 0.78311 0.0
O614 O 0.72689 0.77559 0.8102 0.0
C615 C 0.77389 0.74691 0.7774 0.0
Tb616 Tb 0.53389 0.56357 0.52565 0.0
C617 C 0.53432 0.52095 0.48404 0.0
Tb618 Tb 0.51733 0.50817 0.53641 0.0
O619 O 0.57107 0.55822 0.52187 0.0
O620 O 0.54965 0.53662 0.54445 0.0
O621 O 0.53245 0.54468 0.48891 0.0
C622 C 0.51285 0.46031 0.54677 0.0
O623 O 0.53063 0.50403 0.50033 0.0
C624 C 0.48101 0.53192 0.52794 0.0
C625 C 0.51605 0.55114 0.57764 0.0
O626 O 0.4977 0.46874 0.53178 0.0
O627 O 0.53092 0.4788 0.5556 0.0
O628 O 0.47984 0.51194 0.53961 0.0
O629 O 0.50117 0.53547 0.51863 0.0
O630 O 0.51786 0.52728 0.57316 0.0
O631 O 0.52003 0.56779 0.56119 0.0
C632 C 0.53782 0.61155 0.51579 0.0
O633 O 0.55132 0.60366 0.5329 0.0
O634 O 0.52187 0.5924 0.50442 0.0
C635 C 0.5697 0.53933 0.53514 0.0
Tb636 Tb 0.04382 0.55063 0.01242 0.0
C637 C 0.031 0.52985 0.06433 0.0
Tb638 Tb 0.99211 0.54359 0.02627 0.0
O639 O 0.04958 0.59155 0.01839 0.0
O640 O 0.02592 0.56869 0.03867 0.0
O641 O 0.04597 0.53229 0.04684 0.0
C642 C 0.94894 0.55336 0.03498 0.0
O643 O 0.00954 0.53668 0.06188 0.0
C644 C 1.00327 0.50375 1.00381 0.0
C645 C 1.00422 0.56251 0.9736 0.0
O646 O 0.96871 0.57008 0.03359 0.0
O647 O 0.95357 0.53104 0.03192 0.0
O648 O 0.98692 0.50227 0.01921 0.0
O649 O 0.01012 0.52633 1.00004 0.0
O650 O 0.98971 0.5618 0.99155 0.0
O651 O 0.02532 0.5549 0.97637 0.0
C652 C 0.08612 0.53825 1.0045 0.0
O653 O 0.08127 0.56027 1.0019 0.0
O654 O 0.06737 0.52366 0.01154 0.0
C655 C 0.03323 0.59098 0.03371 0.0
H656 H 0.03066 0.20654 0.90424 0.0
H657 H 0.03596 0.26721 0.96188 0.0
H658 H 0.04286 0.23843 0.99344 0.0
H659 H 0.9971 0.15854 0.93598 0.0
H660 H 0.01196 0.13447 0.92432 0.0
H661 H 0.00885 0.16031 0.90652 0.0
H662 H 0.05589 0.17088 0.90496 0.0
H663 H 0.05913 0.14514 0.92291 0.0
H664 H 0.07627 0.17652 0.93334 0.0
H665 H 0.04899 0.20235 0.01887 0.0
H666 H 0.05031 0.1615 0.03561 0.0
H667 H 0.03937 0.1248 0.96111 0.0
C668 C 0.03346 0.21387 0.92349 0.0
C669 C 0.03293 0.2392 0.93057 0.0
C670 C 0.03628 0.24788 0.956 0.0
C671 C 0.04033 0.2317 0.97406 0.0
C672 C 0.04078 0.20683 0.96642 0.0
C673 C 0.03719 0.19793 0.94172 0.0
C674 C 0.03719 0.17013 0.9383 0.0
C675 C 0.0123 0.15498 0.92553 0.0
C676 C 0.05839 0.1654 0.92404 0.0
C677 C 0.04129 0.16471 0.96491 0.0
C678 C 0.0436 0.18612 0.98093 0.0
C679 C 0.04724 0.1855 1.00647 0.0
C680 C 0.04808 0.16229 0.01583 0.0
C681 C 0.04502 0.14012 0.99964 0.0
C682 C 0.04187 0.14151 0.97392 0.0
H683 H 0.09161 0.80833 0.19412 0.0
H684 H 0.05316 0.76921 0.24974 0.0
H685 H 0.09264 0.77282 0.27547 0.0
H686 H 0.14093 0.77845 0.19832 0.0
H687 H 0.1641 0.8055 0.19406 0.0
H688 H 0.13285 0.80311 0.18114 0.0
H689 H 0.13243 0.84614 0.20425 0.0
H690 H 0.16387 0.84886 0.21697 0.0
H691 H 0.14075 0.85124 0.23718 0.0
H692 H 0.13604 0.7762 0.29294 0.0
H693 H 0.18059 0.77885 0.30102 0.0
H694 H 0.1919 0.81632 0.23472 0.0
C695 C 0.0914 0.80106 0.21199 0.0
C696 C 0.06912 0.78864 0.21997 0.0
C697 C 0.06985 0.7789 0.24323 0.0
C698 C 0.09222 0.78093 0.25803 0.0
C699 C 0.11382 0.79284 0.24941 0.0
C700 C 0.11364 0.80284 0.22698 0.0
C701 C 0.13964 0.81287 0.22119 0.0
C702 C 0.14464 0.79915 0.19725 0.0
C703 C 0.14445 0.84148 0.21982 0.0
C704 C 0.15449 0.80633 0.24356 0.0
C705 C 0.13913 0.795 0.25969 0.0
C706 C 0.14824 0.78546 0.2807 0.0
C707 C 0.17357 0.78704 0.28512 0.0
C708 C 0.18969 0.79819 0.26875 0.0
C709 C 0.18006 0.80842 0.24793 0.0
H710 H 0.55034 0.8715 0.45612 0.0
H711 H 0.51083 0.87777 0.38525 0.0
H712 H 0.49984 0.91629 0.40225 0.0
H713 H 0.50811 0.89198 0.49312 0.0
H714 H 0.53098 0.90983 0.51683 0.0
H715 H 0.53732 0.88325 0.49902 0.0
H716 H 0.57628 0.91164 0.48657 0.0
H717 H 0.56986 0.93833 0.50422 0.0
H718 H 0.5737 0.93971 0.472 0.0
H719 H 0.48998 0.95188 0.42697 0.0
H720 H 0.48357 0.9842 0.45824 0.0
H721 H 0.53067 0.9575 0.51316 0.0
C722 C 0.53965 0.88115 0.44412 0.0
C723 C 0.53148 0.8714 0.41929 0.0
C724 C 0.51736 0.88464 0.40431 0.0
C725 C 0.51099 0.90665 0.41377 0.0
C726 C 0.51897 0.91553 0.43828 0.0
C727 C 0.53315 0.90342 0.45328 0.0
C728 C 0.53863 0.91687 0.47921 0.0
C729 C 0.52813 0.89944 0.49816 0.0
C730 C 0.56629 0.92724 0.48588 0.0
C731 C 0.52499 0.93809 0.4764 0.0
C732 C 0.51376 0.93681 0.45258 0.0
C733 C 0.49892 0.9533 0.44561 0.0
C734 C 0.49531 0.97151 0.46349 0.0
C735 C 0.50674 0.97335 0.48794 0.0
C736 C 0.52203 0.95665 0.49444 0.0
H737 H 0.41678 0.27335 0.6976 0.0
H738 H 0.44602 0.22834 0.75044 0.0
H739 H 0.41051 0.22815 0.77349 0.0
H740 H 0.39251 0.31164 0.74106 0.0
H741 H 0.3651 0.31227 0.72116 0.0
H742 H 0.39254 0.30861 0.70803 0.0
H743 H 0.36854 0.26756 0.68246 0.0
H744 H 0.34102 0.27112 0.69553 0.0
H745 H 0.35207 0.24252 0.69798 0.0
H746 H 0.37298 0.23371 0.79202 0.0
H747 H 0.33494 0.24429 0.80454 0.0
H748 H 0.32808 0.28489 0.73992 0.0
C749 C 0.41565 0.2634 0.71397 0.0
C750 C 0.4344 0.25087 0.72214 0.0
C751 C 0.43206 0.23806 0.74367 0.0
C752 C 0.41188 0.23782 0.75696 0.0
C753 C 0.39384 0.25031 0.74853 0.0
C754 C 0.39534 0.26278 0.72748 0.0
C755 C 0.37323 0.27478 0.72274 0.0
C756 C 0.38134 0.30353 0.72329 0.0
C757 C 0.35781 0.26331 0.69823 0.0
C758 C 0.35943 0.26743 0.74463 0.0
C759 C 0.37172 0.25326 0.75917 0.0
C760 C 0.36312 0.24469 0.78071 0.0
C761 C 0.34148 0.25083 0.78771 0.0
C762 C 0.32848 0.26536 0.77326 0.0
C763 C 0.33753 0.27361 0.75128 0.0
H764 H 0.01724 0.88128 0.58656 0.0
H765 H 0.06422 0.8559 0.53604 0.0
H766 H 0.06347 0.89316 0.5133 0.0
H767 H 0.97974 0.90644 0.54298 0.0
H768 H 0.97802 0.93343 0.56334 0.0
H769 H 0.98223 0.90481 0.57588 0.0
H770 H 0.02177 0.92926 0.60314 0.0
H771 H 0.01712 0.95785 0.59086 0.0
H772 H 0.04579 0.94816 0.58882 0.0
H773 H 0.05595 0.9317 0.49479 0.0
H774 H 0.0448 0.9714 0.4837 0.0
H775 H 1.00485 0.97305 0.54757 0.0
C776 C 0.02736 0.88363 0.57072 0.0
C777 C 0.04067 0.86573 0.56292 0.0
C778 C 0.05395 0.86949 0.54231 0.0
C779 C 0.05359 0.89052 0.52925 0.0
C780 C 0.0402 0.90777 0.53731 0.0
C781 C 0.0276 0.9048 0.55775 0.0
C782 C 0.01511 0.92648 0.56279 0.0
C783 C 0.98711 0.91722 0.56114 0.0
C784 C 0.02559 0.94131 0.58789 0.0
C785 C 0.02227 0.94177 0.54169 0.0
C786 C 0.03664 0.93058 0.52714 0.0
C787 C 0.04488 0.94079 0.50613 0.0
C788 C 0.03839 0.9632 0.49991 0.0
C789 C 0.02407 0.97511 0.51483 0.0
C790 C 0.01594 0.96429 0.53595 0.0
H791 H 0.4781 0.81576 0.86779 0.0
H792 H 0.47035 0.74937 0.90784 0.0
H793 H 0.42872 0.73338 0.88564 0.0
H794 H 0.41925 0.82505 0.87025 0.0
H795 H 0.41588 0.83547 0.83986 0.0
H796 H 0.44588 0.83996 0.8567 0.0
H797 H 0.46051 0.81577 0.8204 0.0
H798 H 0.4305 0.81124 0.80338 0.0
H799 H 0.44379 0.78447 0.80901 0.0
H800 H 0.38642 0.72714 0.86212 0.0
H801 H 0.34726 0.73109 0.83917 0.0
H802 H 0.3838 0.80142 0.81466 0.0
C803 C 0.46783 0.79766 0.87167 0.0
C804 C 0.47736 0.78379 0.88952 0.0
C805 C 0.46334 0.76025 0.89414 0.0
C806 C 0.43975 0.75101 0.88159 0.0
C807 C 0.43074 0.76546 0.86438 0.0
C808 C 0.44447 0.7882 0.85931 0.0
C809 C 0.43021 0.801 0.84127 0.0
C810 C 0.42765 0.82688 0.85272 0.0
C811 C 0.44195 0.80324 0.81708 0.0
C812 C 0.40595 0.78234 0.83757 0.0
C813 C 0.40662 0.7618 0.85079 0.0
C814 C 0.38579 0.74294 0.85141 0.0
C815 C 0.36368 0.74536 0.83842 0.0
C816 C 0.36273 0.76652 0.8252 0.0
C817 C 0.38418 0.78493 0.82445 0.0
H818 H 0.47558 0.22244 0.07141 0.0
H819 H 0.53206 0.26167 0.03088 0.0
H820 H 0.53261 0.22165 0.0071 0.0
H821 H 0.5004 0.17338 0.08111 0.0
H822 H 0.47259 0.14937 0.0776 0.0
H823 H 0.47164 0.18141 0.08677 0.0
H824 H 0.43887 0.18101 0.04982 0.0
H825 H 0.43945 0.14869 0.04066 0.0
H826 H 0.44481 0.17199 0.01901 0.0
H827 H 0.53463 0.17739 0.99568 0.0
H828 H 0.5353 0.13219 0.99492 0.0
H829 H 0.47658 0.12144 0.04158 0.0
C830 C 0.48738 0.2228 0.05686 0.0
C831 C 0.50382 0.24516 0.05305 0.0
C832 C 0.51921 0.2448 0.03407 0.0
C833 C 0.51962 0.22214 0.02041 0.0
C834 C 0.5042 0.20016 0.02564 0.0
C835 C 0.48795 0.20037 0.04307 0.0
C836 C 0.47567 0.17394 0.04753 0.0
C837 C 0.48038 0.16928 0.07485 0.0
C838 C 0.44806 0.16859 0.03872 0.0
C839 C 0.48882 0.15885 0.03122 0.0
C840 C 0.50491 0.17429 0.01842 0.0
C841 C 0.52153 0.16501 1.00491 0.0
C842 C 0.52194 0.13941 1.00475 0.0
C843 C 0.50577 0.12345 0.01794 0.0
C844 C 0.48861 0.13317 0.03076 0.0
H845 H 0.09436 0.23404 0.37878 0.0
H846 H 0.08616 0.31157 0.38698 0.0
H847 H 0.11713 0.32282 0.35818 0.0
H848 H 0.15995 0.24864 0.37688 0.0
H849 H 0.15925 0.22217 0.35481 0.0
H850 H 0.13636 0.22049 0.37586 0.0
H851 H 0.1022 0.20947 0.33883 0.0
H852 H 0.12501 0.21149 0.31765 0.0
H853 H 0.10215 0.23036 0.31483 0.0
H854 H 0.1476 0.32506 0.32719 0.0
H855 H 0.17939 0.31948 0.30035 0.0
H856 H 0.16895 0.24085 0.31398 0.0
C857 C 0.09917 0.25342 0.37461 0.0
C858 C 0.08785 0.27196 0.38499 0.0
C859 C 0.09473 0.29714 0.37928 0.0
C860 C 0.11214 0.30364 0.36283 0.0
C861 C 0.12261 0.28478 0.35255 0.0
C862 C 0.1167 0.26028 0.35853 0.0
C863 C 0.13119 0.24373 0.34561 0.0
C864 C 0.14767 0.23315 0.36442 0.0
C865 C 0.11411 0.22251 0.3282 0.0
C866 C 0.14618 0.26274 0.33133 0.0
C867 C 0.14072 0.28623 0.33534 0.0
C868 C 0.15212 0.3068 0.32403 0.0
C869 C 0.17006 0.30342 0.30875 0.0
C870 C 0.17657 0.27976 0.30522 0.0
C871 C 0.16422 0.2591 0.31635 0.0
H872 H 0.90799 0.07331 0.15963 0.0
H873 H 0.9576 0.06235 0.22201 0.0
H874 H 0.99002 0.06161 0.19501 0.0
H875 H 0.92693 0.0324 0.11656 0.0
H876 H 0.92547 0.05086 0.0908 0.0
H877 H 0.90569 0.05313 0.11451 0.0
H878 H 0.92175 0.10097 0.12253 0.0
H879 H 0.94128 0.0999 0.09837 0.0
H880 H 0.95428 0.1137 0.12895 0.0
H881 H 0.01603 0.05786 0.16076 0.0
H882 H 0.03401 0.05325 0.12143 0.0
H883 H 0.96908 0.06894 0.08156 0.0
C884 C 0.92576 0.07111 0.16768 0.0
C885 C 0.93011 0.06792 0.19306 0.0
C886 C 0.95366 0.06486 0.20271 0.0
C887 C 0.97231 0.06445 0.1875 0.0
C888 C 0.96737 0.06736 0.16262 0.0
C889 C 0.94476 0.07082 0.15275 0.0
C890 C 0.94406 0.07246 0.12514 0.0
C891 C 0.92435 0.05094 0.11093 0.0
C892 C 0.9401 0.0983 0.11836 0.0
C893 C 0.96967 0.06917 0.12109 0.0
C894 C 0.9828 0.06614 0.14295 0.0
C895 C 1.00616 0.06077 0.1436 0.0
C896 C 0.01627 0.05824 0.12128 0.0
C897 C 1.00319 0.06152 0.09882 0.0
C898 C 0.97973 0.06724 0.09874 0.0
H899 H 0.31815 0.7435 0.44924 0.0
H900 H 0.24174 0.71418 0.45768 0.0
H901 H 0.22917 0.72902 0.41795 0.0
H902 H 0.30761 0.80034 0.42382 0.0
H903 H 0.33063 0.80117 0.40293 0.0
H904 H 0.33393 0.78693 0.43136 0.0
H905 H 0.33762 0.7456 0.40685 0.0
H906 H 0.33418 0.7597 0.37833 0.0
H907 H 0.31373 0.73065 0.38269 0.0
H908 H 0.22471 0.74523 0.37629 0.0
H909 H 0.22846 0.76715 0.33839 0.0
H910 H 0.3071 0.7901 0.35836 0.0
C911 C 0.29881 0.7402 0.44265 0.0
C912 C 0.28092 0.72755 0.45656 0.0
C913 C 0.25577 0.72389 0.44745 0.0
C914 C 0.24843 0.73212 0.42479 0.0
C915 C 0.26641 0.74448 0.4115 0.0
C916 C 0.29107 0.74896 0.42024 0.0
C917 C 0.30645 0.76412 0.4029 0.0
C918 C 0.32048 0.78965 0.41604 0.0
C919 C 0.32404 0.74912 0.39206 0.0
C920 C 0.28659 0.76738 0.38316 0.0
C921 C 0.26367 0.75542 0.38825 0.0
C922 C 0.24254 0.75493 0.37228 0.0
C923 C 0.24482 0.76733 0.35076 0.0
C924 C 0.26798 0.78051 0.34565 0.0
C925 C 0.28912 0.78044 0.36205 0.0
H926 H 0.56582 0.01487 0.7195 0.0
H927 H 0.60174 0.95318 0.70317 0.0
H928 H 0.5858 0.95073 0.65936 0.0
H929 H 0.51067 0.99186 0.67268 0.0
H930 H 0.50952 0.02319 0.66497 0.0
H931 H 0.52113 0.01832 0.69572 0.0
H932 H 0.56148 0.05017 0.69218 0.0
H933 H 0.5501 0.05498 0.66139 0.0
H934 H 0.57886 0.04529 0.66689 0.0
H935 H 0.57103 0.9582 0.61696 0.0
H936 H 0.55592 0.97361 0.57841 0.0
H937 H 0.52777 0.0296 0.62073 0.0
C938 C 0.56967 1.00035 0.70681 0.0
C939 C 0.58495 0.98408 0.71494 0.0
C940 C 0.59008 0.96581 0.69754 0.0
C941 C 0.58107 0.96424 0.67254 0.0
C942 C 0.56677 0.98099 0.665 0.0
C943 C 0.56081 0.99855 0.68157 0.0
C944 C 0.54638 0.01533 0.66811 0.0
C945 C 0.52038 0.01196 0.67583 0.0
C946 C 0.56003 0.04308 0.6724 0.0
C947 C 0.54578 1.00482 0.64143 0.0
C948 C 0.55764 0.98498 0.64019 0.0
C949 C 0.56127 0.97338 0.6177 0.0
C950 C 0.5527 0.98232 0.59588 0.0
C951 C 0.54037 1.00252 0.59655 0.0
C952 C 0.53659 0.01371 0.61967 0.0
H953 H 0.2902 0.36914 0.98 0.0
H954 H 0.22126 0.39377 0.97048 0.0
H955 H 0.21406 0.37467 0.92721 0.0
H956 H 0.30741 0.38111 0.91962 0.0
H957 H 0.32114 0.35407 0.91647 0.0
H958 H 0.32068 0.36956 0.94661 0.0
H959 H 0.2988 0.32732 0.96087 0.0
H960 H 0.29916 0.31169 0.93078 0.0
H961 H 0.27054 0.31002 0.94364 0.0
H962 H 0.21401 0.35193 0.8855 0.0
H963 H 0.22199 0.3287 0.84764 0.0
H964 H 0.29138 0.32001 0.88436 0.0
C965 C 0.27355 0.3705 0.96885 0.0
C966 C 0.25619 0.38278 0.97856 0.0
C967 C 0.23477 0.38441 0.96334 0.0
C968 C 0.23053 0.37361 0.9388 0.0
C969 C 0.24801 0.36155 0.92985 0.0
C970 C 0.26918 0.36011 0.94435 0.0
C971 C 0.28523 0.34639 0.93025 0.0
C972 C 0.31008 0.36383 0.92811 0.0
C973 C 0.28862 0.32243 0.94209 0.0
C974 C 0.26967 0.34008 0.90555 0.0
C975 C 0.24822 0.34889 0.90574 0.0
C976 C 0.2307 0.34491 0.88518 0.0
C977 C 0.23522 0.33148 0.86391 0.0
C978 C 0.25701 0.3223 0.86345 0.0
C979 C 0.27457 0.32689 0.88438 0.0
H980 H 0.95233 0.05142 0.32109 0.0
H981 H 0.91149 0.10941 0.33574 0.0
H982 H 0.9315 0.11696 0.37889 0.0
H983 H 0.94651 0.02493 0.37606 0.0
H984 H 0.97668 0.01799 0.37926 0.0
H985 H 0.96156 0.01965 0.34911 0.0
H986 H 0.99866 0.05339 0.34011 0.0
H987 H 0.014 0.05176 0.37027 0.0
H988 H 0.00916 0.08157 0.36103 0.0
H989 H 0.9531 0.11463 0.42181 0.0
H990 H 0.97415 0.10279 0.45976 0.0
H991 H 1.00038 0.04661 0.41575 0.0
C992 C 0.94786 0.06606 0.33318 0.0
C993 C 0.93037 0.07986 0.32507 0.0
C994 C 0.92496 0.09871 0.34156 0.0
C995 C 0.93624 0.10312 0.36607 0.0
C996 C 0.95302 0.08868 0.37361 0.0
C997 C 0.9589 0.07068 0.3575 0.0
C998 C 0.97612 0.05641 0.37025 0.0
C999 C 0.96451 0.02808 0.36857 0.0
C1000 C 1.00096 0.06107 0.35979 0.0
C1001 C 0.97851 0.06861 0.39629 0.0
C1002 C 0.96533 0.0874 0.39795 0.0
C1003 C 0.96379 0.10024 0.4206 0.0
C1004 C 0.97581 0.09346 0.44203 0.0
C1005 C 0.98903 0.074 0.44054 0.0
C1006 C 0.99059 0.06174 0.41736 0.0
H1007 H 0.28299 0.73058 0.5896 0.0
H1008 H 0.35478 0.71343 0.60571 0.0
H1009 H 0.35603 0.72974 0.64922 0.0
H1010 H 0.29313 0.7882 0.63317 0.0
H1011 H 0.26248 0.78084 0.64189 0.0
H1012 H 0.26824 0.77044 0.61141 0.0
H1013 H 0.2488 0.7245 0.61822 0.0
H1014 H 0.24313 0.73474 0.64875 0.0
H1015 H 0.26059 0.71073 0.64452 0.0
H1016 H 0.34844 0.74475 0.69147 0.0
H1017 H 0.33289 0.75793 0.72969 0.0
H1018 H 0.26524 0.76478 0.68739 0.0
C1019 C 0.29927 0.73095 0.60214 0.0
C1020 C 0.319 0.72105 0.59406 0.0
C1021 C 0.33957 0.7211 0.61132 0.0
C1022 C 0.34044 0.73032 0.63612 0.0
C1023 C 0.3205 0.73934 0.64361 0.0
C1024 C 0.3003 0.73982 0.62717 0.0
C1025 C 0.28065 0.74894 0.64051 0.0
C1026 C 0.27585 0.77357 0.63119 0.0
C1027 C 0.25689 0.7285 0.63783 0.0
C1028 C 0.2929 0.75329 0.66699 0.0
C1029 C 0.31593 0.74773 0.66825 0.0
C1030 C 0.33053 0.74941 0.69066 0.0
C1031 C 0.32146 0.75694 0.71236 0.0
C1032 C 0.29784 0.76268 0.71178 0.0
C1033 C 0.28346 0.76087 0.68861 0.0
H1034 H 0.58451 0.99937 0.87406 0.0
H1035 H 0.54679 0.04325 0.82668 0.0
H1036 H 0.52549 0.05576 0.86122 0.0
H1037 H 0.53355 0.97772 0.90966 0.0
H1038 H 0.55287 0.98042 0.93848 0.0
H1039 H 0.56476 0.9739 0.90984 0.0
H1040 H 0.60047 0.01276 0.92123 0.0
H1041 H 0.58855 0.01951 0.94981 0.0
H1042 H 0.59368 0.04321 0.92855 0.0
H1043 H 0.50861 0.06433 0.90026 0.0
H1044 H 0.49594 0.06758 0.94198 0.0
H1045 H 0.54462 0.01937 0.96597 0.0
C1046 C 0.57151 0.01132 0.87092 0.0
C1047 C 0.56726 0.02021 0.84749 0.0
C1048 C 0.55039 0.03615 0.84432 0.0
C1049 C 0.53819 0.04342 0.86388 0.0
C1050 C 0.54305 0.03477 0.88674 0.0
C1051 C 0.55921 0.01902 0.89048 0.0
C1052 C 0.56124 0.01296 0.91725 0.0
C1053 C 0.55259 0.98456 0.9189 0.0
C1054 C 0.58755 0.02269 0.92995 0.0
C1055 C 0.54364 0.02771 0.92781 0.0
C1056 C 0.53343 0.0401 0.90974 0.0
C1057 C 0.51647 0.05471 0.91457 0.0
C1058 C 0.5094 0.05646 0.93837 0.0
C1059 C 0.51928 0.0438 0.95725 0.0
C1060 C 0.53689 0.02943 0.95195 0.0
H1061 H 0.26172 0.35259 0.09822 0.0
H1062 H 0.20538 0.39263 0.1161 0.0
H1063 H 0.19302 0.36297 0.14678 0.0
H1064 H 0.22882 0.28768 0.11006 0.0
H1065 H 0.25692 0.28069 0.12379 0.0
H1066 H 0.2576 0.30121 0.09941 0.0
H1067 H 0.28903 0.33604 0.12745 0.0
H1068 H 0.28853 0.31563 0.15171 0.0
H1069 H 0.28164 0.34629 0.15735 0.0
H1070 H 0.19089 0.33353 0.1793 0.0
H1071 H 0.20196 0.30993 0.21375 0.0
H1072 H 0.26045 0.28966 0.17552 0.0
C1073 C 0.24624 0.35458 0.108 0.0
C1074 C 0.23432 0.37469 0.10465 0.0
C1075 C 0.21467 0.37724 0.11835 0.0
C1076 C 0.20737 0.36035 0.13562 0.0
C1077 C 0.21989 0.34102 0.13893 0.0
C1078 C 0.23899 0.33811 0.12554 0.0
C1079 C 0.252 0.31848 0.13521 0.0
C1080 C 0.24862 0.29566 0.11597 0.0
C1081 C 0.2794 0.3298 0.14343 0.0
C1082 C 0.23809 0.31177 0.15693 0.0
C1083 C 0.21913 0.32436 0.1583 0.0
C1084 C 0.2053 0.32312 0.17815 0.0
C1085 C 0.21168 0.30956 0.19762 0.0
C1086 C 0.232 0.29785 0.19722 0.0
C1087 C 0.24464 0.29815 0.17616 0.0
H1088 H 0.1824 0.98383 0.07322 0.0
H1089 H 0.14752 0.91676 0.02473 0.0
H1090 H 0.11062 0.93437 0.0167 0.0
H1091 H 0.12754 0.99455 0.09912 0.0
H1092 H 0.13604 0.02832 0.09962 0.0
H1093 H 0.15947 0.01015 0.10251 0.0
H1094 H 0.17826 0.02975 0.06523 0.0
H1095 H 0.1549 0.04798 0.06225 0.0
H1096 H 0.15917 0.02755 0.03633 0.0
H1097 H 0.07762 0.95912 0.01347 0.0
H1098 H 0.05126 0.99001 0.0137 0.0
H1099 H 0.10712 0.04235 0.0633 0.0
C1100 C 0.16692 0.97276 0.06105 0.0
C1101 C 0.1679 0.94875 0.0497 0.0
C1102 C 0.14731 0.93511 0.03366 0.0
C1103 C 0.12621 0.94496 0.02903 0.0
C1104 C 0.12588 0.96864 0.0404 0.0
C1105 C 0.14571 0.98248 0.05598 0.0
C1106 C 0.1408 0.00788 0.06508 0.0
C1107 C 0.14097 0.01037 0.09326 0.0
C1108 C 0.15939 0.02957 0.05672 0.0
C1109 C 0.11514 0.00618 0.05211 0.0
C1110 C 0.1069 0.98324 0.03814 0.0
C1111 C 0.08389 0.9771 0.02439 0.0
C1112 C 0.06897 0.99484 0.02472 0.0
C1113 C 0.07694 0.01865 0.03863 0.0
C1114 C 0.10042 0.02431 0.05257 0.0
H1115 H 0.69754 0.65338 0.0111 0.0
H1116 H 0.69588 0.61583 0.93816 0.0
H1117 H 0.65295 0.59326 0.94021 0.0
H1118 H 0.66673 0.59917 0.03572 0.0
H1119 H 0.65076 0.61607 0.0559 0.0
H1120 H 0.67996 0.63139 0.04739 0.0
H1121 H 0.66077 0.66704 0.03106 0.0
H1122 H 0.63141 0.65207 0.03944 0.0
H1123 H 0.63439 0.65943 0.00812 0.0
H1124 H 0.61047 0.57489 0.9508 0.0
H1125 H 0.57229 0.56028 0.96957 0.0
H1126 H 0.60387 0.60652 0.03745 0.0
C1127 C 0.68781 0.64099 0.99525 0.0
C1128 C 0.69946 0.6369 0.97407 0.0
C1129 C 0.68683 0.6196 0.9542 0.0
C1130 C 0.66261 0.60668 0.95531 0.0
C1131 C 0.65176 0.61082 0.97673 0.0
C1132 C 0.66408 0.62738 0.99644 0.0
C1133 C 0.64927 0.62693 0.01815 0.0
C1134 C 0.66247 0.61785 0.04061 0.0
C1135 C 0.6436 0.65291 0.02457 0.0
C1136 C 0.62642 0.60776 0.00753 0.0
C1137 C 0.62815 0.59886 0.98354 0.0
C1138 C 0.60901 0.58156 0.96961 0.0
C1139 C 0.58749 0.57335 0.9804 0.0
C1140 C 0.58552 0.58202 1.00498 0.0
C1141 C 0.60527 0.59925 0.0188 0.0
H1142 H 0.71893 0.44508 0.30437 0.0
H1143 H 0.70385 0.44834 0.22552 0.0
H1144 H 0.72358 0.41255 0.21757 0.0
H1145 H 0.77889 0.43135 0.30229 0.0
H1146 H 0.77607 0.41033 0.32624 0.0
H1147 H 0.75957 0.43542 0.32609 0.0
H1148 H 0.71869 0.40311 0.32641 0.0
H1149 H 0.73511 0.37795 0.32666 0.0
H1150 H 0.71016 0.37687 0.30292 0.0
H1151 H 0.74378 0.37588 0.21781 0.0
H1152 H 0.76578 0.34196 0.22642 0.0
H1153 H 0.77111 0.36389 0.30488 0.0
C1154 C 0.71969 0.43812 0.28546 0.0
C1155 C 0.70977 0.44946 0.26554 0.0
C1156 C 0.71137 0.44003 0.24106 0.0
C1157 C 0.72248 0.41964 0.23634 0.0
C1158 C 0.73226 0.40901 0.25629 0.0
C1159 C 0.7312 0.41797 0.28038 0.0
C1160 C 0.74406 0.40359 0.29835 0.0
C1161 C 0.76595 0.42123 0.31417 0.0
C1162 C 0.72592 0.38955 0.31454 0.0
C1163 C 0.75255 0.38531 0.28056 0.0
C1164 C 0.7452 0.38858 0.2564 0.0
C1165 C 0.7499 0.37332 0.23663 0.0
C1166 C 0.7624 0.35416 0.24167 0.0
C1167 C 0.77042 0.35069 0.26623 0.0
C1168 C 0.76559 0.36657 0.28591 0.0
H1169 H 0.81486 0.42346 0.51472 0.0
H1170 H 0.7946 0.47736 0.56701 0.0
H1171 H 0.83538 0.50537 0.56733 0.0
H1172 H 0.8768 0.43102 0.5407 0.0
H1173 H 0.88862 0.42791 0.51143 0.0
H1174 H 0.85757 0.41264 0.51459 0.0
H1175 H 0.84155 0.43527 0.47847 0.0
H1176 H 0.87258 0.45058 0.47514 0.0
H1177 H 0.84993 0.46912 0.47981 0.0
H1178 H 0.87917 0.52664 0.56325 0.0
H1179 H 0.92203 0.54 0.55435 0.0
H1180 H 0.91343 0.47242 0.5043 0.0
C1181 C 0.81885 0.44122 0.52616 0.0
C1182 C 0.8014 0.44816 0.54087 0.0
C1183 C 0.80754 0.4716 0.55555 0.0
C1184 C 0.83069 0.48763 0.55586 0.0
C1185 C 0.84748 0.48004 0.54131 0.0
C1186 C 0.84178 0.45743 0.52664 0.0
C1187 C 0.86318 0.45345 0.513 0.0
C1188 C 0.87206 0.42986 0.52038 0.0
C1189 C 0.8564 0.45203 0.48494 0.0
C1190 C 0.88196 0.47726 0.52245 0.0
C1191 C 0.87253 0.49236 0.53876 0.0
C1192 C 0.88664 0.51504 0.55038 0.0
C1193 C 0.91097 0.52245 0.54522 0.0
C1194 C 0.92097 0.5073 0.52855 0.0
C1195 C 0.9062 0.48446 0.51698 0.0
H1196 H 0.35299 0.14566 0.27816 0.0
H1197 H 0.35828 0.14519 0.19964 0.0
H1198 H 0.33237 0.1767 0.19687 0.0
H1199 H 0.29011 0.14838 0.27441 0.0
H1200 H 0.29276 0.16891 0.30238 0.0
H1201 H 0.31392 0.14843 0.29909 0.0
H1202 H 0.35014 0.18664 0.30851 0.0
H1203 H 0.32953 0.20787 0.31106 0.0
H1204 H 0.35204 0.21258 0.28967 0.0
H1205 H 0.30573 0.20803 0.2024 0.0
H1206 H 0.27782 0.23499 0.21531 0.0
H1207 H 0.28616 0.21264 0.28946 0.0
C1208 C 0.34901 0.15257 0.2605 0.0
C1209 C 0.35791 0.14322 0.23913 0.0
C1210 C 0.35179 0.1522 0.21623 0.0
C1211 C 0.33711 0.17012 0.21449 0.0
C1212 C 0.32827 0.17865 0.23576 0.0
C1213 C 0.33382 0.17009 0.25832 0.0
C1214 C 0.32065 0.18125 0.27796 0.0
C1215 C 0.30334 0.1605 0.28911 0.0
C1216 C 0.33922 0.19806 0.298 0.0
C1217 C 0.3064 0.19688 0.26281 0.0
C1218 C 0.31156 0.19555 0.23862 0.0
C1219 C 0.30139 0.20903 0.22123 0.0
C1220 C 0.28552 0.22424 0.2287 0.0
C1221 C 0.27954 0.22554 0.25323 0.0
C1222 C 0.29007 0.21159 0.27048 0.0
H1223 H 0.34062 0.09124 0.50042 0.0
H1224 H 0.342 0.12895 0.57331 0.0
H1225 H 0.37519 0.10861 0.58919 0.0
H1226 H 0.35043 0.03195 0.52211 0.0
H1227 H 0.36898 0.02622 0.49808 0.0
H1228 H 0.34529 0.0437 0.49256 0.0
H1229 H 0.37722 0.08095 0.48028 0.0
H1230 H 0.40088 0.06346 0.4855 0.0
H1231 H 0.40433 0.09439 0.50136 0.0
H1232 H 0.41125 0.08791 0.59564 0.0
H1233 H 0.44538 0.06553 0.59275 0.0
H1234 H 0.4164 0.0373 0.51727 0.0
C1235 C 0.34797 0.09515 0.5197 0.0
C1236 C 0.33912 0.11171 0.53567 0.0
C1237 C 0.34874 0.11624 0.56087 0.0
C1238 C 0.36749 0.10479 0.57003 0.0
C1239 C 0.37584 0.0884 0.55384 0.0
C1240 C 0.36615 0.08329 0.5293 0.0
C1241 C 0.3782 0.06484 0.51581 0.0
C1242 C 0.35961 0.04022 0.50661 0.0
C1243 C 0.39092 0.07662 0.49449 0.0
C1244 C 0.39661 0.06091 0.53641 0.0
C1245 C 0.39516 0.0748 0.55818 0.0
C1246 C 0.41216 0.07635 0.57894 0.0
C1247 C 0.43138 0.0636 0.57721 0.0
C1248 C 0.43291 0.04922 0.55508 0.0
C1249 C 0.41503 0.04743 0.5347 0.0
H1250 H 0.6948 0.60609 0.31794 0.0
H1251 H 0.7322 0.57171 0.26325 0.0
H1252 H 0.75294 0.61381 0.25411 0.0
H1253 H 0.68299 0.6551 0.28496 0.0
H1254 H 0.68837 0.67866 0.31096 0.0
H1255 H 0.6784 0.64595 0.31542 0.0
H1256 H 0.71614 0.64883 0.34767 0.0
H1257 H 0.72608 0.6817 0.34357 0.0
H1258 H 0.7465 0.6605 0.3395 0.0
H1259 H 0.76539 0.65934 0.24692 0.0
H1260 H 0.77216 0.70541 0.24546 0.0
H1261 H 0.72832 0.71063 0.30596 0.0
C1262 C 0.70782 0.60736 0.30449 0.0
C1263 C 0.71182 0.58544 0.29136 0.0
C1264 C 0.72883 0.58809 0.27368 0.0
C1265 C 0.74069 0.61198 0.26828 0.0
C1266 C 0.73566 0.63314 0.28092 0.0
C1267 C 0.71999 0.6311 0.29899 0.0
C1268 C 0.71703 0.65685 0.30913 0.0
C1269 C 0.6901 0.65927 0.30485 0.0
C1270 C 0.72704 0.66229 0.3366 0.0
C1271 C 0.73294 0.6736 0.29347 0.0
C1272 C 0.74348 0.65953 0.27727 0.0
C1273 C 0.7576 0.6706 0.25982 0.0
C1274 C 0.76121 0.69676 0.25902 0.0
C1275 C 0.75094 0.71161 0.27571 0.0
C1276 C 0.73673 0.69981 0.29322 0.0
H1277 H 0.88392 0.48505 0.73954 0.0
H1278 H 0.82964 0.52905 0.75403 0.0
H1279 H 0.79895 0.48984 0.75625 0.0
H1280 H 0.84109 0.43365 0.70062 0.0
H1281 H 0.85625 0.40991 0.71192 0.0
H1282 H 0.87358 0.44141 0.71065 0.0
H1283 H 0.8888 0.44407 0.75724 0.0
H1284 H 0.87153 0.41263 0.75865 0.0
H1285 H 0.86668 0.43822 0.77906 0.0
H1286 H 0.77563 0.44596 0.76122 0.0
H1287 H 0.76051 0.40054 0.765 0.0
H1288 H 0.8288 0.38522 0.74354 0.0
C1289 C 0.86552 0.48641 0.743 0.0
C1290 C 0.85915 0.51005 0.74675 0.0
C1291 C 0.83485 0.51109 0.75103 0.0
C1292 C 0.81733 0.48894 0.75236 0.0
C1293 C 0.82426 0.46592 0.74882 0.0
C1294 C 0.84767 0.46449 0.74382 0.0
C1295 C 0.85049 0.43744 0.74077 0.0
C1296 C 0.85565 0.43018 0.71442 0.0
C1297 C 0.87056 0.43283 0.76008 0.0
C1298 C 0.82524 0.42389 0.74553 0.0
C1299 C 0.81039 0.44063 0.75025 0.0
C1300 C 0.78692 0.43264 0.75706 0.0
C1301 C 0.7785 0.40689 0.75922 0.0
C1302 C 0.79339 0.38953 0.7542 0.0
C1303 C 0.81687 0.39811 0.74694 0.0
H1304 H 0.03672 0.86014 0.11686 0.0
H1305 H 0.96021 0.83351 0.12669 0.0
H1306 H 0.94906 0.86667 0.1021 0.0
H1307 H 0.03552 0.92614 0.12288 0.0
H1308 H 0.05667 0.93385 0.10045 0.0
H1309 H 0.05821 0.90764 0.11823 0.0
H1310 H 0.05372 0.87828 0.07778 0.0
H1311 H 0.05191 0.90439 0.05991 0.0
H1312 H 0.02778 0.87642 0.05497 0.0
H1313 H 0.94634 0.90214 0.07496 0.0
H1314 H 0.95288 0.93995 0.05188 0.0
H1315 H 0.03135 0.94429 0.06209 0.0
C1316 C 0.01761 0.86128 0.11385 0.0
C1317 C 0.99929 0.84419 0.12354 0.0
C1318 C 0.97453 0.84647 0.11946 0.0
C1319 C 0.96802 0.86514 0.10541 0.0
C1320 C 0.98653 0.88152 0.09585 0.0
C1321 C 0.01087 0.88 0.10025 0.0
C1322 C 0.02742 0.90049 0.08885 0.0
C1323 C 0.04551 0.91807 0.10879 0.0
C1324 C 0.041 0.88921 0.06921 0.0
C1325 C 0.00861 0.91375 0.07725 0.0
C1326 C 0.98508 0.90238 0.08118 0.0
C1327 C 0.96469 0.91125 0.07189 0.0
C1328 C 0.96854 0.9326 0.0587 0.0
C1329 C 0.99258 0.94494 0.0553 0.0
C1330 C 0.01277 0.9352 0.06449 0.0
H1331 H 0.94793 0.31366 0.84717 0.0
H1332 H 0.96051 0.24462 0.81102 0.0
H1333 H 0.92011 0.23804 0.78602 0.0
H1334 H 0.88415 0.29282 0.85046 0.0
H1335 H 0.87637 0.32233 0.84406 0.0
H1336 H 0.90647 0.3219 0.85865 0.0
H1337 H 0.9261 0.34611 0.82408 0.0
H1338 H 0.89602 0.34658 0.80938 0.0
H1339 H 0.91722 0.33357 0.79232 0.0
H1340 H 0.87627 0.23663 0.76843 0.0
H1341 H 0.83422 0.24276 0.75667 0.0
H1342 H 0.852 0.31498 0.80055 0.0
C1343 C 0.94227 0.29725 0.83386 0.0
C1344 C 0.95738 0.27958 0.83113 0.0
C1345 C 0.94933 0.25845 0.81338 0.0
C1346 C 0.92637 0.25452 0.79914 0.0
C1347 C 0.91184 0.27217 0.80245 0.0
C1348 C 0.91963 0.29333 0.8191 0.0
C1349 C 0.90052 0.30943 0.81908 0.0
C1350 C 0.89134 0.31175 0.84457 0.0
C1351 C 0.91057 0.33547 0.81071 0.0
C1352 C 0.88061 0.29386 0.80008 0.0
C1353 C 0.88735 0.27225 0.79095 0.0
C1354 C 0.87104 0.25377 0.775 0.0
C1355 C 0.84722 0.25739 0.76842 0.0
C1356 C 0.84011 0.27956 0.77726 0.0
C1357 C 0.85722 0.29819 0.79294 0.0
H1358 H 0.49717 0.19652 0.59661 0.0
H1359 H 0.51191 0.17787 0.67146 0.0
H1360 H 0.52212 0.13822 0.6555 0.0
H1361 H 0.46879 0.12989 0.57122 0.0
H1362 H 0.48097 0.13406 0.54218 0.0
H1363 H 0.47343 0.16033 0.55949 0.0
H1364 H 0.51772 0.18594 0.55881 0.0
H1365 H 0.52544 0.15966 0.54181 0.0
H1366 H 0.54332 0.17322 0.57061 0.0
H1367 H 0.53664 0.10385 0.6317 0.0
H1368 H 0.54789 0.07345 0.60125 0.0
H1369 H 0.51897 0.11091 0.54164 0.0
C1370 C 0.50207 0.18381 0.60957 0.0
C1371 C 0.50375 0.19031 0.63531 0.0
C1372 C 0.51027 0.17321 0.6517 0.0
C1373 C 0.51624 0.15068 0.6428 0.0
C1374 C 0.51494 0.14506 0.6174 0.0
C1375 C 0.50731 0.16073 0.60096 0.0
C1376 C 0.50728 0.14999 0.57452 0.0
C1377 C 0.48106 0.14316 0.56106 0.0
C1378 C 0.52447 0.1683 0.56063 0.0
C1379 C 0.51714 0.12652 0.57873 0.0
C1380 C 0.52161 0.12414 0.60363 0.0
C1381 C 0.53269 0.10519 0.61216 0.0
C1382 C 0.53917 0.08813 0.59479 0.0
C1383 C 0.53407 0.08981 0.56925 0.0
C1384 C 0.5227 0.10907 0.56113 0.0
H1385 H 0.62352 0.79035 0.36853 0.0
H1386 H 0.57507 0.81004 0.30972 0.0
H1387 H 0.60712 0.81117 0.28207 0.0
H1388 H 0.68007 0.82876 0.35367 0.0
H1389 H 0.69852 0.80606 0.36018 0.0
H1390 H 0.672 0.80684 0.37611 0.0
H1391 H 0.65448 0.75977 0.3614 0.0
H1392 H 0.68099 0.75886 0.34549 0.0
H1393 H 0.65066 0.74944 0.32891 0.0
H1394 H 0.64394 0.8121 0.26107 0.0
H1395 H 0.68337 0.80987 0.24626 0.0
H1396 H 0.70911 0.78712 0.31675 0.0
C1397 C 0.61968 0.79487 0.34982 0.0
C1398 C 0.59661 0.80015 0.3414 0.0
C1399 C 0.59239 0.80584 0.31672 0.0
C1400 C 0.61056 0.80662 0.30082 0.0
C1401 C 0.63297 0.80144 0.30964 0.0
C1402 C 0.63767 0.79545 0.33344 0.0
C1403 C 0.66341 0.79021 0.33773 0.0
C1404 C 0.67944 0.80909 0.35813 0.0
C1405 C 0.66231 0.76295 0.34374 0.0
C1406 C 0.67232 0.79435 0.31263 0.0
C1407 C 0.65437 0.80104 0.29694 0.0
C1408 C 0.65808 0.80667 0.27309 0.0
C1409 C 0.68065 0.80537 0.26487 0.0
C1410 C 0.69937 0.79814 0.28022 0.0
C1411 C 0.6951 0.79248 0.3045 0.0
H1412 H 0.04669 0.19321 0.46562 0.0
H1413 H 1.0068 0.23169 0.51465 0.0
H1414 H 1.00675 0.19833 0.54287 0.0
H1415 H 0.01434 0.13314 0.4706 0.0
H1416 H 0.04006 0.11808 0.46949 0.0
H1417 H 0.03988 0.14642 0.45473 0.0
H1418 H 0.08115 0.16837 0.48009 0.0
H1419 H 0.0819 0.14 0.49474 0.0
H1420 H 0.08417 0.16933 0.51326 0.0
H1421 H 0.00886 0.15894 0.5643 0.0
H1422 H 0.01195 0.11645 0.57604 0.0
H1423 H 0.04938 0.10468 0.5119 0.0
C1424 C 0.03829 0.19494 0.48248 0.0
C1425 C 0.02682 0.21507 0.48798 0.0
C1426 C 0.01575 0.21641 0.5101 0.0
C1427 C 0.01571 0.19763 0.52627 0.0
C1428 C 0.02688 0.17779 0.52004 0.0
C1429 C 0.03801 0.17643 0.49867 0.0
C1430 C 0.04716 0.15239 0.49511 0.0
C1431 C 0.03461 0.13657 0.47106 0.0
C1432 C 0.07527 0.15787 0.49585 0.0
C1433 C 0.03895 0.14014 0.51752 0.0
C1434 C 0.0276 0.15512 0.53194 0.0
C1435 C 0.0179 0.14715 0.55325 0.0
C1436 C 0.01971 0.12311 0.55978 0.0
C1437 C 0.03081 0.1075 0.54479 0.0
C1438 C 0.04074 0.11628 0.52365 0.0
H1439 H 0.57252 0.27389 0.16412 0.0
H1440 H 0.59117 0.35375 0.1557 0.0
H1441 H 0.6281 0.35841 0.1858 0.0
H1442 H 0.59633 0.27681 0.22984 0.0
H1443 H 0.60839 0.24882 0.2252 0.0
H1444 H 0.58157 0.25236 0.20592 0.0
H1445 H 0.60305 0.24529 0.16695 0.0
H1446 H 0.62984 0.24168 0.18606 0.0
H1447 H 0.63253 0.26498 0.16424 0.0
H1448 H 0.66356 0.35408 0.21479 0.0
H1449 H 0.69815 0.34048 0.23713 0.0
H1450 H 0.65824 0.26273 0.22416 0.0
C1451 C 0.58417 0.2924 0.16907 0.0
C1452 C 0.57904 0.31356 0.15802 0.0
C1453 C 0.59492 0.33741 0.16418 0.0
C1454 C 0.61574 0.34023 0.18134 0.0
C1455 C 0.62046 0.31894 0.19179 0.0
C1456 C 0.60533 0.29543 0.18568 0.0
C1457 C 0.61608 0.27516 0.19729 0.0
C1458 C 0.59961 0.26255 0.21566 0.0
C1459 C 0.62065 0.25564 0.17745 0.0
C1460 C 0.63989 0.2909 0.21043 0.0
C1461 C 0.64172 0.31618 0.20752 0.0
C1462 C 0.66231 0.33438 0.21731 0.0
C1463 C 0.68184 0.32646 0.22993 0.0
C1464 C 0.68075 0.30058 0.23219 0.0
C1465 C 0.65938 0.28263 0.22272 0.0
H1466 H 0.51268 0.8658 0.97455 0.0
H1467 H 0.58395 0.86923 0.01518 0.0
H1468 H 0.57927 0.90664 0.04107 0.0
H1469 H 0.5193 0.92785 0.96952 0.0
H1470 H 0.48808 0.92976 0.97303 0.0
H1471 H 0.49473 0.90054 0.96143 0.0
H1472 H 0.4734 0.87825 0.99619 0.0
H1473 H 0.46672 0.90759 0.00798 0.0
H1474 H 0.48323 0.89033 0.02794 0.0
H1475 H 0.57115 0.9478 0.05573 0.0
H1476 H 0.55961 0.98919 0.05884 0.0
H1477 H 0.49249 0.95814 0.01077 0.0
C1478 C 0.52705 0.87404 0.9893 0.0
C1479 C 0.54872 0.86474 0.99284 0.0
C1480 C 0.56716 0.87605 0.01223 0.0
C1481 C 0.56459 0.8972 0.0271 0.0
C1482 C 0.54327 0.90637 0.02263 0.0
C1483 C 0.52466 0.89494 1.0044 0.0
C1484 C 0.50495 0.91007 1.00132 0.0
C1485 C 0.5016 0.91749 0.97477 0.0
C1486 C 0.48063 0.8957 0.00882 0.0
C1487 C 0.51614 0.93266 0.01955 0.0
C1488 C 0.53806 0.92996 0.03198 0.0
C1489 C 0.55363 0.94983 0.04687 0.0
C1490 C 0.547 0.97322 0.04848 0.0
C1491 C 0.52495 0.97635 0.03551 0.0
C1492 C 0.50893 0.95571 0.02162 0.0
H1493 H 0.94269 0.80658 0.65182 0.0
H1494 H 0.95639 0.73384 0.66904 0.0
H1495 H 0.92807 0.73228 0.70072 0.0
H1496 H 0.93851 0.83065 0.71373 0.0
H1497 H 0.91382 0.84611 0.70533 0.0
H1498 H 0.93521 0.84186 0.68368 0.0
H1499 H 0.89936 0.8187 0.6512 0.0
H1500 H 0.87786 0.82323 0.67261 0.0
H1501 H 0.87785 0.79199 0.65924 0.0
H1502 H 0.89934 0.73867 0.73114 0.0
H1503 H 0.86801 0.75078 0.75554 0.0
H1504 H 0.87192 0.8188 0.71848 0.0
C1505 C 0.93957 0.79025 0.66213 0.0
C1506 C 0.95181 0.77036 0.65796 0.0
C1507 C 0.94723 0.74931 0.67185 0.0
C1508 C 0.93127 0.74828 0.69001 0.0
C1509 C 0.91991 0.76838 0.69403 0.0
C1510 C 0.92352 0.78882 0.68031 0.0
C1511 C 0.90841 0.80755 0.68803 0.0
C1512 C 0.92499 0.83305 0.6983 0.0
C1513 C 0.88976 0.81053 0.66649 0.0
C1514 C 0.89579 0.79437 0.70817 0.0
C1515 C 0.9029 0.77191 0.71145 0.0
C1516 C 0.89355 0.75617 0.72871 0.0
C1517 C 0.87582 0.76317 0.74246 0.0
C1518 C 0.8676 0.78557 0.73871 0.0
C1519 C 0.8781 0.80165 0.72178 0.0
H1520 H 0.10678 0.99256 0.87989 0.0
H1521 H 0.07965 0.04524 0.83448 0.0
H1522 H 0.04949 0.05002 0.86316 0.0
H1523 H 0.0469 0.96286 0.89874 0.0
H1524 H 0.05958 0.96026 0.92976 0.0
H1525 H 0.0781 0.95914 0.90473 0.0
H1526 H 0.11122 0.99612 0.92761 0.0
H1527 H 0.09289 0.99715 0.95273 0.0
H1528 H 0.10257 0.02505 0.93748 0.0
H1529 H 0.02479 0.05236 0.89794 0.0
H1530 H 1.00778 0.05282 0.93787 0.0
H1531 H 0.04904 0.99784 0.96107 0.0
C1532 C 0.09429 1.00486 0.87588 0.0
C1533 C 0.09563 0.01848 0.85482 0.0
C1534 C 0.0791 0.0346 0.85041 0.0
C1535 C 0.06175 0.03737 0.86655 0.0
C1536 C 0.06093 0.02383 0.88711 0.0
C1537 C 0.07673 0.00791 0.89193 0.0
C1538 C 0.07277 0.99679 0.91624 0.0
C1539 C 0.0638 0.96805 0.91211 0.0
C1540 C 0.09625 1.00423 0.9346 0.0
C1541 C 0.0527 0.00941 0.92447 0.0
C1542 C 0.04606 0.02478 0.90722 0.0
C1543 C 0.02943 0.04002 0.91139 0.0
C1544 C 0.01979 0.04011 0.93405 0.0
C1545 C 0.02657 0.02488 0.95218 0.0
C1546 C 0.04282 0.00891 0.9471 0.0
H1547 H 0.74256 0.37649 0.62748 0.0
H1548 H 0.72309 0.31331 0.57095 0.0
H1549 H 0.7257 0.28401 0.60287 0.0
H1550 H 0.78732 0.35187 0.66377 0.0
H1551 H 0.78 0.36359 0.69317 0.0
H1552 H 0.77493 0.37985 0.66632 0.0
H1553 H 0.72929 0.37592 0.67332 0.0
H1554 H 0.73445 0.35989 0.70033 0.0
H1555 H 0.71064 0.34531 0.67597 0.0
H1556 H 0.72986 0.26137 0.64061 0.0
H1557 H 0.73755 0.24683 0.68173 0.0
H1558 H 0.75741 0.32423 0.71424 0.0
C1559 C 0.73848 0.35646 0.62191 0.0
C1560 C 0.73232 0.34718 0.59665 0.0
C1561 C 0.72771 0.32087 0.5901 0.0
C1562 C 0.72915 0.30407 0.60813 0.0
C1563 C 0.73557 0.31378 0.63273 0.0
C1564 C 0.74031 0.33936 0.63972 0.0
C1565 C 0.74795 0.34475 0.66742 0.0
C1566 C 0.77411 0.36098 0.67299 0.0
C1567 C 0.72947 0.3572 0.68 0.0
C1568 C 0.74691 0.31824 0.67479 0.0
C1569 C 0.73936 0.3007 0.65448 0.0
C1570 C 0.73602 0.27494 0.65659 0.0
C1571 C 0.74045 0.26686 0.68002 0.0
C1572 C 0.74864 0.28439 0.70106 0.0
C1573 C 0.75194 0.31045 0.69837 0.0
H1574 H 0.47706 0.04614 0.33833 0.0
H1575 H 0.44333 0.10998 0.3522 0.0
H1576 H 0.45726 0.11193 0.39664 0.0
H1577 H 0.4615 0.01643 0.39164 0.0
H1578 H 0.48983 0.00595 0.39745 0.0
H1579 H 0.47865 0.01041 0.36648 0.0
H1580 H 0.51969 0.04099 0.36247 0.0
H1581 H 0.53104 0.03655 0.39343 0.0
H1582 H 0.53073 0.06782 0.38499 0.0
H1583 H 0.47157 0.10472 0.43994 0.0
H1584 H 0.48716 0.09028 0.47886 0.0
H1585 H 0.51339 0.03218 0.43747 0.0
C1586 C 0.47291 0.06078 0.35065 0.0
C1587 C 0.45911 0.07799 0.34163 0.0
C1588 C 0.45394 0.09667 0.35851 0.0
C1589 C 0.46176 0.09791 0.38385 0.0
C1590 C 0.47497 0.08047 0.39214 0.0
C1591 C 0.48073 0.06239 0.37605 0.0
C1592 C 0.4946 0.04547 0.38992 0.0
C1593 C 0.48029 0.01794 0.38614 0.0
C1594 C 0.52056 0.04786 0.38225 0.0
C1595 C 0.4954 0.05663 0.41635 0.0
C1596 C 0.4839 0.07677 0.41716 0.0
C1597 C 0.48094 0.08922 0.43948 0.0
C1598 C 0.48981 0.08084 0.46152 0.0
C1599 C 0.5018 0.06034 0.46124 0.0
C1600 C 0.50483 0.04827 0.43827 0.0
H1601 H 0.79704 0.72055 0.07346 0.0
H1602 H 0.7355 0.65669 0.06861 0.0
H1603 H 0.72264 0.67431 0.10671 0.0
H1604 H 0.80997 0.72578 0.14116 0.0
H1605 H 0.81855 0.75966 0.14355 0.0
H1606 H 0.82339 0.74143 0.11635 0.0
H1607 H 0.79816 0.76644 0.08939 0.0
H1608 H 0.79278 0.78436 0.11654 0.0
H1609 H 0.76721 0.76717 0.09525 0.0
H1610 H 0.71413 0.70049 0.14249 0.0
H1611 H 0.71464 0.73003 0.17901 0.0
H1612 H 0.7831 0.77566 0.16253 0.0
C1613 C 0.78113 0.7101 0.0807 0.0
C1614 C 0.76724 0.68731 0.06817 0.0
C1615 C 0.74652 0.67408 0.0781 0.0
C1616 C 0.73893 0.68403 0.09957 0.0
C1617 C 0.75254 0.70694 0.11104 0.0
C1618 C 0.77356 0.71951 0.1024 0.0
C1619 C 0.78506 0.74359 0.11861 0.0
C1620 C 0.81076 0.74254 0.13063 0.0
C1621 C 0.78584 0.76675 0.10407 0.0
C1622 C 0.76696 0.74274 0.13745 0.0
C1623 C 0.74818 0.72161 0.13248 0.0
C1624 C 0.72887 0.71696 0.1468 0.0
C1625 C 0.72922 0.73394 0.16734 0.0
C1626 C 0.74893 0.75499 0.17346 0.0
C1627 C 0.76782 0.75968 0.15814 0.0
H1628 H 0.13532 0.98396 0.70394 0.0
H1629 H 0.0785 0.98819 0.75161 0.0
H1630 H 0.04888 0.98775 0.7152 0.0
H1631 H 0.12103 0.02569 0.66556 0.0
H1632 H 0.12686 0.01006 0.63725 0.0
H1633 H 0.1424 0.00506 0.66614 0.0
H1634 H 0.1259 0.9569 0.65714 0.0
H1635 H 0.11045 0.96174 0.62798 0.0
H1636 H 0.09337 0.94462 0.64985 0.0
H1637 H 0.02795 0.99511 0.67564 0.0
H1638 H 0.01642 0.00816 0.63475 0.0
H1639 H 0.08589 0.99821 0.61166 0.0
C1640 C 0.11643 0.98385 0.70665 0.0
C1641 C 0.10922 0.98603 0.73063 0.0
C1642 C 0.08446 0.98648 0.73344 0.0
C1643 C 0.06745 0.98611 0.71285 0.0
C1644 C 0.07538 0.98501 0.68954 0.0
C1645 C 0.0992 0.98354 0.68624 0.0
C1646 C 0.10369 0.98548 0.6595 0.0
C1647 C 0.12473 0.00791 0.65699 0.0
C1648 C 0.10864 0.96071 0.64794 0.0
C1649 C 0.07916 0.98981 0.64864 0.0
C1650 C 0.06298 0.98899 0.66625 0.0
C1651 C 0.04017 0.99514 0.66151 0.0
C1652 C 0.03386 1.00269 0.63833 0.0
C1653 C 0.05025 1.00395 0.62019 0.0
C1654 C 0.0729 0.99684 0.62515 0.0
H1655 H 0.77328 0.33824 0.46075 0.0
H1656 H 0.69831 0.34843 0.45035 0.0
H1657 H 0.69454 0.33083 0.40686 0.0
H1658 H 0.78883 0.35665 0.40215 0.0
H1659 H 0.808 0.33426 0.39767 0.0
H1660 H 0.80436 0.346 0.42842 0.0
H1661 H 0.78974 0.30033 0.43925 0.0
H1662 H 0.79333 0.28846 0.4085 0.0
H1663 H 0.76423 0.27973 0.42041 0.0
H1664 H 0.69921 0.31349 0.36428 0.0
H1665 H 0.71211 0.29904 0.32507 0.0
H1666 H 0.78472 0.30079 0.36208 0.0
C1667 C 0.75594 0.33645 0.44942 0.0
C1668 C 0.73597 0.34454 0.4591 0.0
C1669 C 0.7138 0.3423 0.44346 0.0
C1670 C 0.71149 0.33227 0.41872 0.0
C1671 C 0.73155 0.32467 0.40973 0.0
C1672 C 0.7534 0.32671 0.42454 0.0
C1673 C 0.77252 0.31832 0.40989 0.0
C1674 C 0.79474 0.34011 0.40951 0.0
C1675 C 0.78042 0.29534 0.42013 0.0
C1676 C 0.75804 0.31133 0.38449 0.0
C1677 C 0.7344 0.31502 0.38494 0.0
C1678 C 0.71764 0.31045 0.36375 0.0
C1679 C 0.72522 0.30218 0.34148 0.0
C1680 C 0.74948 0.29858 0.34029 0.0
C1681 C 0.766 0.30306 0.36228 0.0
H1682 H 0.43086 0.08484 0.17217 0.0
H1683 H 0.48714 0.07219 0.22736 0.0
H1684 H 0.51267 0.06476 0.19476 0.0
H1685 H 0.43758 0.03755 0.126 0.0
H1686 H 0.43337 0.05547 0.10016 0.0
H1687 H 0.41933 0.06115 0.12767 0.0
H1688 H 0.44074 0.1083 0.13126 0.0
H1689 H 0.45468 0.10281 0.10362 0.0
H1690 H 0.4736 0.11697 0.13168 0.0
H1691 H 0.53129 0.05606 0.15701 0.0
H1692 H 0.54379 0.04959 0.11568 0.0
H1693 H 0.47697 0.0687 0.08315 0.0
C1694 C 0.44871 0.08088 0.17742 0.0
C1695 C 0.45688 0.07915 0.20256 0.0
C1696 C 0.48031 0.07366 0.20844 0.0
C1697 C 0.49501 0.06934 0.18999 0.0
C1698 C 0.48626 0.07066 0.16554 0.0
C1699 C 0.46382 0.07654 0.15909 0.0
C1700 C 0.45897 0.07641 0.13113 0.0
C1701 C 0.43595 0.05646 0.12063 0.0
C1702 C 0.45688 0.10269 0.124 0.0
C1703 C 0.4821 0.06927 0.12303 0.0
C1704 C 0.49744 0.06601 0.14333 0.0
C1705 C 0.51957 0.05881 0.14098 0.0
C1706 C 0.52649 0.05513 0.11733 0.0
C1707 C 0.51151 0.05878 0.09609 0.0
C1708 C 0.48887 0.06585 0.09901 0.0
H1709 H 0.8133 0.71467 0.92829 0.0
H1710 H 0.78358 0.76815 0.97234 0.0
H1711 H 0.79451 0.79973 0.94329 0.0
H1712 H 0.86359 0.76369 0.90506 0.0
H1713 H 0.85889 0.74607 0.87515 0.0
H1714 H 0.85468 0.72981 0.90242 0.0
H1715 H 0.81027 0.70771 0.88388 0.0
H1716 H 0.81524 0.72339 0.8567 0.0
H1717 H 0.78943 0.72674 0.87289 0.0
H1718 H 0.7992 0.82136 0.90598 0.0
H1719 H 0.7965 0.83088 0.86264 0.0
H1720 H 0.82554 0.76548 0.84233 0.0
C1721 C 0.80994 0.73334 0.93224 0.0
C1722 C 0.79763 0.73895 0.95256 0.0
C1723 C 0.79299 0.76339 0.95688 0.0
C1724 C 0.79935 0.78158 0.94058 0.0
C1725 C 0.81064 0.77521 0.92017 0.0
C1726 C 0.81617 0.75176 0.91604 0.0
C1727 C 0.82499 0.74848 0.89093 0.0
C1728 C 0.85216 0.74693 0.89356 0.0
C1729 C 0.80898 0.72523 0.87519 0.0
C1730 C 0.82156 0.77285 0.8808 0.0
C1731 C 0.81396 0.7883 0.89831 0.0
C1732 C 0.80595 0.80992 0.89235 0.0
C1733 C 0.80449 0.81522 0.8677 0.0
C1734 C 0.81115 0.79909 0.84935 0.0
C1735 C 0.82101 0.77844 0.85619 0.0
H1736 H 0.85556 0.09892 0.03066 0.0
H1737 H 0.89234 0.16864 1.00524 0.0
H1738 H 0.92854 0.15023 0.99939 0.0
H1739 H 0.90744 0.0823 0.06296 0.0
H1740 H 0.89768 0.04914 0.05295 0.0
H1741 H 0.87527 0.06828 0.05549 0.0
H1742 H 0.85799 0.0536 0.00983 0.0
H1743 H 0.88079 0.03483 0.00734 0.0
H1744 H 0.87824 0.05818 0.98617 0.0
H1745 H 0.96207 0.12522 0.99976 0.0
H1746 H 0.98853 0.09413 1.00188 0.0
H1747 H 0.92863 0.03902 0.02269 0.0
C1748 C 0.87125 0.11028 0.02384 0.0
C1749 C 0.87128 0.13532 0.01862 0.0
C1750 C 0.89196 0.14945 0.00935 0.0
C1751 C 0.91261 0.13915 1.00604 0.0
C1752 C 0.91207 0.11445 0.01147 0.0
C1753 C 0.89173 0.10002 0.01972 0.0
C1754 C 0.89551 0.07366 0.02334 0.0
C1755 C 0.89389 0.06804 0.0503 0.0
C1756 C 0.87703 0.0539 1.00561 0.0
C1757 C 0.92144 0.07571 0.01657 0.0
C1758 C 0.93071 0.09949 0.00995 0.0
C1759 C 0.9548 0.10643 1.00444 0.0
C1760 C 0.96974 0.08867 1.0057 0.0
C1761 C 0.96051 0.06407 0.01186 0.0
C1762 C 0.93596 0.0575 0.01723 0.0
H1763 H 0.33449 0.46627 0.03197 0.0
H1764 H 0.33206 0.48619 0.10975 0.0
H1765 H 0.37448 0.51189 0.11278 0.0
H1766 H 0.39606 0.46048 0.0352 0.0
H1767 H 0.40162 0.47425 0.00683 0.0
H1768 H 0.37117 0.45809 0.01105 0.0
H1769 H 0.3546 0.49792 1.00187 0.0
H1770 H 0.38504 0.51421 0.9976 0.0
H1771 H 0.36822 0.52751 0.01969 0.0
H1772 H 0.41847 0.53236 0.10742 0.0
H1773 H 0.45891 0.54895 0.09355 0.0
H1774 H 0.43029 0.51761 0.0187 0.0
C1775 C 0.34288 0.47606 0.04966 0.0
C1776 C 0.33029 0.47413 0.07072 0.0
C1777 C 0.34158 0.4875 0.09345 0.0
C1778 C 0.36558 0.50205 0.09531 0.0
C1779 C 0.3776 0.50333 0.07414 0.0
C1780 C 0.36643 0.49098 0.05168 0.0
C1781 C 0.38297 0.49547 0.03157 0.0
C1782 C 0.38827 0.4706 0.02053 0.0
C1783 C 0.37205 0.50962 0.0115 0.0
C1784 C 0.40551 0.51185 0.04628 0.0
C1785 C 0.4022 0.51611 0.07083 0.0
C1786 C 0.42113 0.52948 0.08818 0.0
C1787 C 0.444 0.53873 0.08017 0.0
C1788 C 0.44752 0.53478 0.05503 0.0
C1789 C 0.42795 0.52134 0.03794 0.0
H1790 H 0.31168 0.61799 0.71166 0.0
H1791 H 0.34467 0.61005 0.78495 0.0
H1792 H 0.32806 0.64553 0.80187 0.0
H1793 H 0.32317 0.6866 0.71886 0.0
H1794 H 0.29471 0.68777 0.70105 0.0
H1795 H 0.30955 0.66204 0.69463 0.0
H1796 H 0.26982 0.63025 0.70068 0.0
H1797 H 0.25493 0.6559 0.70719 0.0
H1798 H 0.25639 0.63303 0.7291 0.0
H1799 H 0.30686 0.68135 0.81106 0.0
H1800 H 0.28343 0.71526 0.81141 0.0
H1801 H 0.26515 0.70049 0.73216 0.0
C1802 C 0.31544 0.62371 0.73127 0.0
C1803 C 0.32942 0.61112 0.74699 0.0
C1804 C 0.33402 0.61935 0.77252 0.0
C1805 C 0.32466 0.6395 0.78232 0.0
C1806 C 0.31086 0.65142 0.76634 0.0
C1807 C 0.30641 0.64396 0.74132 0.0
C1808 C 0.2911 0.65999 0.72815 0.0
C1809 C 0.30549 0.67498 0.70958 0.0
C1810 C 0.26661 0.64382 0.71554 0.0
C1811 C 0.28722 0.67727 0.74973 0.0
C1812 C 0.29888 0.67214 0.77159 0.0
C1813 C 0.29782 0.68562 0.79402 0.0
C1814 C 0.28461 0.70492 0.79405 0.0
C1815 C 0.27276 0.71062 0.77183 0.0
C1816 C 0.27398 0.69646 0.74945 0.0
H1817 H 0.22586 0.63908 0.49486 0.0
H1818 H 0.26254 0.59901 0.5472 0.0
H1819 H 0.2225 0.57234 0.55272 0.0
H1820 H 0.17578 0.64217 0.5259 0.0
H1821 H 0.15349 0.63738 0.49898 0.0
H1822 H 0.18511 0.65114 0.49667 0.0
H1823 H 0.18638 0.61649 0.46205 0.0
H1824 H 0.1546 0.60276 0.46399 0.0
H1825 H 0.17736 0.58382 0.46734 0.0
H1826 H 0.17796 0.55441 0.55706 0.0
H1827 H 0.13278 0.54356 0.55649 0.0
H1828 H 0.12537 0.5939 0.49993 0.0
C1829 C 0.22559 0.62427 0.50702 0.0
C1830 C 0.24742 0.62114 0.52057 0.0
C1831 C 0.24616 0.60166 0.53643 0.0
C1832 C 0.22346 0.58647 0.53977 0.0
C1833 C 0.20222 0.59071 0.52681 0.0
C1834 C 0.20315 0.60881 0.51036 0.0
C1835 C 0.17763 0.61042 0.49954 0.0
C1836 C 0.17273 0.63684 0.50565 0.0
C1837 C 0.17377 0.60292 0.47157 0.0
C1838 C 0.16214 0.59098 0.51306 0.0
C1839 C 0.17664 0.5798 0.52872 0.0
C1840 C 0.16644 0.56265 0.54449 0.0
C1841 C 0.1408 0.5567 0.54414 0.0
C1842 C 0.12567 0.56771 0.528 0.0
C1843 C 0.13652 0.5849 0.51215 0.0
H1844 H 0.68779 0.92287 0.80072 0.0
H1845 H 0.69209 0.94376 0.726 0.0
H1846 H 0.71902 0.9143 0.71882 0.0
H1847 H 0.75074 0.91811 0.81246 0.0
H1848 H 0.74474 0.89131 0.83006 0.0
H1849 H 0.7244 0.91297 0.82935 0.0
H1850 H 0.68785 0.87609 0.8143 0.0
H1851 H 0.70794 0.85416 0.81433 0.0
H1852 H 0.68863 0.85643 0.78656 0.0
H1853 H 0.74666 0.88477 0.71957 0.0
H1854 H 0.77466 0.85659 0.72847 0.0
H1855 H 0.75378 0.85295 0.80266 0.0
C1856 C 0.69423 0.921 0.7828 0.0
C1857 C 0.68771 0.93569 0.76389 0.0
C1858 C 0.69678 0.93287 0.7408 0.0
C1859 C 0.71207 0.91609 0.73648 0.0
C1860 C 0.71836 0.90214 0.75543 0.0
C1861 C 0.70986 0.90433 0.77818 0.0
C1862 C 0.72049 0.88763 0.7955 0.0
C1863 C 0.73602 0.90346 0.81818 0.0
C1864 C 0.70001 0.86736 0.80314 0.0
C1865 C 0.73644 0.87605 0.77895 0.0
C1866 C 0.7347 0.88474 0.75591 0.0
C1867 C 0.74815 0.87778 0.73752 0.0
C1868 C 0.76413 0.8618 0.74284 0.0
C1869 C 0.76653 0.85262 0.76629 0.0
C1870 C 0.75222 0.85958 0.78454 0.0
H1871 H 0.68344 0.93975 0.52336 0.0
H1872 H 0.73768 0.0092 0.54211 0.0
H1873 H 0.70879 0.03301 0.52333 0.0
H1874 H 0.65024 0.95798 0.4655 0.0
H1875 H 0.62087 0.94291 0.47386 0.0
H1876 H 0.64764 0.93047 0.4822 0.0
H1877 H 0.63959 0.93363 0.52796 0.0
H1878 H 0.61301 0.94617 0.52007 0.0
H1879 H 0.6371 0.96352 0.54281 0.0
H1880 H 0.67269 0.04994 0.50987 0.0
H1881 H 0.63123 0.05911 0.50617 0.0
H1882 H 0.59931 0.97915 0.49786 0.0
C1883 C 0.68942 0.95982 0.52245 0.0
C1884 C 0.71274 0.97275 0.53355 0.0
C1885 C 0.71986 0.99911 0.53328 0.0
C1886 C 0.70367 0.0127 0.52251 0.0
C1887 C 0.68037 0.99962 0.51234 0.0
C1888 C 0.67318 0.97374 0.51229 0.0
C1889 C 0.64588 0.96487 0.50464 0.0
C1890 C 0.64087 0.94806 0.48009 0.0
C1891 C 0.63316 0.95127 0.52508 0.0
C1892 C 0.63869 0.98988 0.5016 0.0
C1893 C 0.65896 0.0096 0.50538 0.0
C1894 C 0.65671 0.03466 0.50628 0.0
C1895 C 0.63312 0.03971 0.50418 0.0
C1896 C 0.61221 0.01979 0.50153 0.0
C1897 C 0.61506 0.99464 0.49931 0.0
H1898 H 0.34066 0.47088 0.77131 0.0
H1899 H 0.30471 0.47661 0.69873 0.0
H1900 H 0.28178 0.43244 0.69755 0.0
H1901 H 0.34884 0.40923 0.76073 0.0
H1902 H 0.34279 0.4005 0.79099 0.0
H1903 H 0.35493 0.43288 0.78671 0.0
H1904 H 0.31851 0.44608 0.80603 0.0
H1905 H 0.3063 0.41372 0.81052 0.0
H1906 H 0.28753 0.43126 0.79347 0.0
H1907 H 0.26625 0.38611 0.70284 0.0
H1908 H 0.25666 0.34288 0.71544 0.0
H1909 H 0.30126 0.36863 0.78553 0.0
C1910 C 0.32774 0.46298 0.75525 0.0
C1911 C 0.32451 0.47716 0.73504 0.0
C1912 C 0.30736 0.46614 0.71446 0.0
C1913 C 0.29434 0.44105 0.71362 0.0
C1914 C 0.29839 0.42745 0.73369 0.0
C1915 C 0.3144 0.43821 0.75428 0.0
C1916 C 0.3159 0.41958 0.77326 0.0
C1917 C 0.34217 0.4153 0.7782 0.0
C1918 C 0.30649 0.42818 0.79724 0.0
C1919 C 0.29863 0.39639 0.75995 0.0
C1920 C 0.28876 0.40124 0.73711 0.0
C1921 C 0.27355 0.38224 0.72084 0.0
C1922 C 0.2683 0.35773 0.72813 0.0
C1923 C 0.278 0.35245 0.75157 0.0
C1924 C 0.29319 0.37216 0.76769 0.0
H1925 H 0.18113 0.56671 0.25225 0.0
H1926 H 0.161 0.568 0.32669 0.0
H1927 H 0.18593 0.61123 0.33627 0.0
H1928 H 0.24413 0.60759 0.26633 0.0
H1929 H 0.24079 0.62345 0.23887 0.0
H1930 H 0.22522 0.59109 0.23912 0.0
H1931 H 0.18378 0.60293 0.22561 0.0
H1932 H 0.19915 0.63528 0.22547 0.0
H1933 H 0.17418 0.62733 0.24381 0.0
H1934 H 0.2092 0.65497 0.33672 0.0
H1935 H 0.22768 0.69782 0.32759 0.0
H1936 H 0.23097 0.66975 0.25194 0.0
C1937 C 0.18273 0.5759 0.27076 0.0
C1938 C 0.16969 0.56407 0.28896 0.0
C1939 C 0.1712 0.57682 0.31269 0.0
C1940 C 0.18535 0.60127 0.31829 0.0
C1941 C 0.19756 0.61276 0.2998 0.0
C1942 C 0.19634 0.6006 0.27646 0.0
C1943 C 0.20866 0.61834 0.25917 0.0
C1944 C 0.23103 0.60959 0.25036 0.0
C1945 C 0.19035 0.62113 0.23723 0.0
C1946 C 0.2164 0.64248 0.27627 0.0
C1947 C 0.21023 0.63862 0.29974 0.0
C1948 C 0.21437 0.6582 0.31851 0.0
C1949 C 0.2248 0.68246 0.31312 0.0
C1950 C 0.23072 0.68698 0.28908 0.0
C1951 C 0.22678 0.66669 0.27051 0.0
H1952 H 0.52353 0.72133 0.42945 0.0
H1953 H 0.58481 0.76871 0.47701 0.0
H1954 H 0.58513 0.73473 0.50415 0.0
H1955 H 0.49291 0.68991 0.47873 0.0
H1956 H 0.48381 0.6598 0.46067 0.0
H1957 H 0.48706 0.6884 0.44562 0.0
H1958 H 0.51766 0.67324 0.41857 0.0
H1959 H 0.51446 0.64461 0.43348 0.0
H1960 H 0.54444 0.66436 0.43322 0.0
H1961 H 0.58042 0.69525 0.52521 0.0
H1962 H 0.5714 0.65224 0.53824 0.0
H1963 H 0.51336 0.6297 0.47738 0.0
C1964 C 0.53681 0.72464 0.44574 0.0
C1965 C 0.55411 0.7478 0.45109 0.0
C1966 C 0.57136 0.75122 0.47246 0.0
C1967 C 0.57166 0.73202 0.48807 0.0
C1968 C 0.55458 0.7094 0.48219 0.0
C1969 C 0.53743 0.70556 0.46156 0.0
C1970 C 0.52188 0.67896 0.45896 0.0
C1971 C 0.49481 0.6793 0.46112 0.0
C1972 C 0.5248 0.66444 0.43462 0.0
C1973 C 0.53327 0.66841 0.48107 0.0
C1974 C 0.55195 0.68641 0.49432 0.0
C1975 C 0.56572 0.68104 0.51508 0.0
C1976 C 0.56046 0.65656 0.52236 0.0
C1977 C 0.54167 0.6377 0.50889 0.0
C1978 C 0.52774 0.64382 0.48813 0.0
H1979 H 0.59172 0.30035 0.68917 0.0
H1980 H 0.55473 0.26795 0.74902 0.0
H1981 H 0.59482 0.27166 0.77359 0.0
H1982 H 0.63987 0.26929 0.69393 0.0
H1983 H 0.66321 0.29516 0.68729 0.0
H1984 H 0.63168 0.29298 0.67545 0.0
H1985 H 0.63334 0.33765 0.69628 0.0
H1986 H 0.665 0.33999 0.70804 0.0
H1987 H 0.64299 0.34463 0.7289 0.0
H1988 H 0.63862 0.27292 0.78913 0.0
H1989 H 0.68322 0.27477 0.79586 0.0
H1990 H 0.69243 0.30846 0.72724 0.0
C1991 C 0.59197 0.29461 0.70768 0.0
C1992 C 0.56991 0.2839 0.71713 0.0
C1993 C 0.57123 0.27635 0.74135 0.0
C1994 C 0.59397 0.27836 0.75547 0.0
C1995 C 0.61532 0.28828 0.74532 0.0
C1996 C 0.61454 0.29666 0.72212 0.0
C1997 C 0.64026 0.30526 0.715 0.0
C1998 C 0.64396 0.28974 0.69153 0.0
C1999 C 0.64571 0.33357 0.71188 0.0
C2000 C 0.65557 0.29964 0.73748 0.0
C2001 C 0.64078 0.28988 0.75476 0.0
C2002 C 0.65041 0.28109 0.77602 0.0
C2003 C 0.67574 0.28214 0.77967 0.0
C2004 C 0.69125 0.29219 0.76232 0.0
C2005 C 0.68105 0.30139 0.74114 0.0
H2006 H 0.99456 0.36038 0.95332 0.0
H2007 H 0.04995 0.38789 0.90604 0.0
H2008 H 0.05284 0.43134 0.92449 0.0
H2009 H 0.96357 0.41064 0.95048 0.0
H2010 H 0.95757 0.41155 0.98225 0.0
H2011 H 0.96067 0.3825 0.96623 0.0
H2012 H 0.99512 0.37869 1.00001 0.0
H2013 H 0.99205 0.4077 0.0162 0.0
H2014 H 0.02147 0.40429 0.00748 0.0
H2015 H 0.04751 0.4719 0.94584 0.0
H2016 H 0.03604 0.50672 0.97013 0.0
H2017 H 0.98536 0.45294 1.00504 0.0
C2018 C 1.00746 0.3755 0.94698 0.0
C2019 C 0.02203 0.37073 0.92819 0.0
C2020 C 0.03866 0.39106 0.92043 0.0
C2021 C 0.04041 0.41581 0.93079 0.0
C2022 C 0.02557 0.41987 0.94905 0.0
C2023 C 0.00958 0.40027 0.95725 0.0
C2024 C 0.99541 0.40978 0.97685 0.0
C2025 C 0.96766 0.40323 0.96844 0.0
C2026 C 1.00138 0.3995 1.0016 0.0
C2027 C 1.00563 0.43787 0.9781 0.0
C2028 C 0.02299 0.44325 0.96188 0.0
C2029 C 0.03423 0.46789 0.95885 0.0
C2030 C 0.0276 0.48754 0.97278 0.0
C2031 C 0.01011 0.48251 0.98975 0.0
C2032 C 0.99903 0.45732 0.99245 0.0
H2033 H 0.93082 0.74573 0.23576 0.0
H2034 H 0.93011 0.79564 0.17767 0.0
H2035 H 0.89158 0.8055 0.18967 0.0
H2036 H 0.86498 0.72163 0.23087 0.0
H2037 H 0.86425 0.72105 0.26367 0.0
H2038 H 0.89143 0.71715 0.25013 0.0
H2039 H 0.91732 0.75454 0.27966 0.0
H2040 H 0.89023 0.75853 0.2933 0.0
H2041 H 0.90856 0.78459 0.28061 0.0
H2042 H 0.85299 0.80994 0.20767 0.0
H2043 H 0.81811 0.81035 0.23179 0.0
H2044 H 0.84386 0.75879 0.27944 0.0
C2045 C 0.9225 0.75865 0.2255 0.0
C2046 C 0.93355 0.76983 0.20565 0.0
C2047 C 0.92211 0.78682 0.1929 0.0
C2048 C 0.90014 0.79251 0.19956 0.0
C2049 C 0.88977 0.78123 0.21917 0.0
C2050 C 0.90061 0.76477 0.23209 0.0
C2051 C 0.88596 0.75587 0.25292 0.0
C2052 C 0.87607 0.72722 0.24917 0.0
C2053 C 0.90144 0.76387 0.27811 0.0
C2054 C 0.86526 0.76994 0.24973 0.0
C2055 C 0.86776 0.78429 0.22999 0.0
C2056 C 0.8509 0.79882 0.22319 0.0
C2057 C 0.83108 0.79889 0.237 0.0
C2058 C 0.82824 0.78466 0.25754 0.0
C2059 C 0.84558 0.76993 0.2639 0.0
H2060 H 0.51972 0.39962 0.0879 0.0
H2061 H 0.5567 0.36876 0.03074 0.0
H2062 H 0.56057 0.40842 0.01096 0.0
H2063 H 0.48526 0.4327 0.0507 0.0
H2064 H 0.48888 0.45962 0.07302 0.0
H2065 H 0.49004 0.42924 0.08321 0.0
H2066 H 0.53288 0.4479 0.1076 0.0
H2067 H 0.53174 0.47832 0.09737 0.0
H2068 H 0.55721 0.46407 0.09173 0.0
H2069 H 0.55751 0.45002 0.99573 0.0
H2070 H 0.54852 0.49133 0.98684 0.0
H2071 H 0.51575 0.4956 0.05518 0.0
C2072 C 0.52864 0.40128 0.07124 0.0
C2073 C 0.53775 0.38119 0.06067 0.0
C2074 C 0.54961 0.38403 0.03906 0.0
C2075 C 0.55194 0.40646 0.02776 0.0
C2076 C 0.54278 0.42596 0.03862 0.0
C2077 C 0.53162 0.42372 0.06003 0.0
C2078 C 0.52309 0.44741 0.06777 0.0
C2079 C 0.49516 0.4419 0.06871 0.0
C2080 C 0.53707 0.46017 0.09258 0.0
C2081 C 0.5303 0.46286 0.04682 0.0
C2082 C 0.54181 0.45028 0.03029 0.0
C2083 C 0.54883 0.46025 0.00871 0.0
C2084 C 0.54365 0.4836 1.00378 0.0
C2085 C 0.53166 0.49654 0.02043 0.0
C2086 C 0.52529 0.48621 0.04234 0.0
H2087 H 0.95543 0.29433 0.39712 0.0
H2088 H 0.96842 0.22417 0.36374 0.0
H2089 H 0.93424 0.2226 0.33103 0.0
H2090 H 0.89044 0.27906 0.38607 0.0
H2091 H 0.88787 0.31037 0.37949 0.0
H2092 H 0.91351 0.3059 0.39983 0.0
H2093 H 0.94348 0.33035 0.37244 0.0
H2094 H 0.9179 0.33476 0.35189 0.0
H2095 H 0.94101 0.32011 0.34003 0.0
H2096 H 0.89721 0.22777 0.30337 0.0
H2097 H 0.86068 0.23977 0.28247 0.0
H2098 H 0.87388 0.3075 0.33312 0.0
C2099 C 0.95108 0.27857 0.38298 0.0
C2100 C 0.96443 0.25928 0.38301 0.0
C2101 C 0.95836 0.23914 0.36403 0.0
C2102 C 0.93904 0.23811 0.3454 0.0
C2103 C 0.92629 0.25753 0.34591 0.0
C2104 C 0.93216 0.27743 0.36415 0.0
C2105 C 0.91565 0.29588 0.36067 0.0
C2106 C 0.901 0.2979 0.38283 0.0
C2107 C 0.93039 0.32181 0.35597 0.0
C2108 C 0.89925 0.28306 0.33782 0.0
C2109 C 0.90564 0.26095 0.32955 0.0
C2110 C 0.89224 0.24521 0.30946 0.0
C2111 C 0.8716 0.25216 0.29772 0.0
C2112 C 0.86482 0.27467 0.30609 0.0
C2113 C 0.87899 0.29041 0.32614 0.0
H2114 H 0.9822 0.70919 0.5636 0.0
H2115 H 0.0456 0.75048 0.53352 0.0
H2116 H 0.04757 0.71222 0.5076 0.0
H2117 H 1.00309 0.65663 0.57116 0.0
H2118 H 0.97437 0.63438 0.56269 0.0
H2119 H 0.97444 0.66597 0.57454 0.0
H2120 H 0.94657 0.67119 0.53539 0.0
H2121 H 0.94647 0.63942 0.52347 0.0
H2122 H 0.95599 0.66519 0.50535 0.0
H2123 H 0.04879 0.66834 0.49292 0.0
H2124 H 0.04753 0.62269 0.48902 0.0
H2125 H 0.98156 0.60998 0.52575 0.0
C2126 C 0.99595 0.71043 0.55091 0.0
C2127 C 0.01375 0.73283 0.55065 0.0
C2128 C 0.0317 0.73357 0.53404 0.0
C2129 C 0.03292 0.71192 0.51913 0.0
C2130 C 0.01578 0.68982 0.52066 0.0
C2131 C 0.99732 0.68903 0.53579 0.0
C2132 C 0.98299 0.66237 0.53627 0.0
C2133 C 0.9838 0.65439 0.56272 0.0
C2134 C 0.95643 0.65937 0.5244 0.0
C2135 C 0.99732 0.64816 0.5204 0.0
C2136 C 0.01595 0.66433 0.51127 0.0
C2137 C 0.0338 0.65548 0.49926 0.0
C2138 C 0.033 0.62952 0.49721 0.0
C2139 C 0.01443 0.61277 0.50705 0.0
C2140 C 0.99581 0.62221 0.51776 0.0
H2141 H 0.63051 0.79318 0.9109 0.0
H2142 H 0.58444 0.83114 0.86539 0.0
H2143 H 0.61013 0.82805 0.83158 0.0
H2144 H 0.68817 0.82127 0.89019 0.0
H2145 H 0.69961 0.79273 0.89109 0.0
H2146 H 0.67808 0.79906 0.91179 0.0
H2147 H 0.64919 0.75618 0.89562 0.0
H2148 H 0.67047 0.74991 0.87458 0.0
H2149 H 0.6391 0.74936 0.86307 0.0
H2150 H 0.64065 0.8201 0.80252 0.0
H2151 H 0.67481 0.80936 0.7813 0.0
H2152 H 0.69945 0.77579 0.84584 0.0
C2153 C 0.62597 0.80117 0.89397 0.0
C2154 C 0.60556 0.81249 0.8908 0.0
C2155 C 0.60007 0.82242 0.86822 0.0
C2156 C 0.61448 0.8207 0.8489 0.0
C2157 C 0.63417 0.8089 0.85248 0.0
C2158 C 0.63997 0.79942 0.87449 0.0
C2159 C 0.66179 0.78724 0.87359 0.0
C2160 C 0.68318 0.8009 0.8928 0.0
C2161 C 0.6547 0.759 0.87691 0.0
C2162 C 0.66743 0.79141 0.84764 0.0
C2163 C 0.65134 0.80392 0.8357 0.0
C2164 C 0.65334 0.81027 0.81167 0.0
C2165 C 0.67268 0.8041 0.79978 0.0
C2166 C 0.68957 0.79184 0.81205 0.0
C2167 C 0.68661 0.78501 0.83602 0.0
H2168 H 0.4335 0.52465 0.68757 0.0
H2169 H 0.4141 0.59656 0.6777 0.0
H2170 H 0.44478 0.60522 0.64814 0.0
H2171 H 0.49864 0.54266 0.68144 0.0
H2172 H 0.49937 0.5137 0.66363 0.0
H2173 H 0.47755 0.51397 0.68568 0.0
H2174 H 0.44178 0.49485 0.65147 0.0
H2175 H 0.46356 0.49418 0.62949 0.0
H2176 H 0.43881 0.51025 0.62365 0.0
H2177 H 0.4775 0.60611 0.62004 0.0
H2178 H 0.50464 0.5966 0.58974 0.0
H2179 H 0.50052 0.5223 0.61492 0.0
C2180 C 0.43595 0.54233 0.67936 0.0
C2181 C 0.42173 0.56015 0.68511 0.0
C2182 C 0.42491 0.58276 0.67356 0.0
C2183 C 0.4424 0.58789 0.65693 0.0
C2184 C 0.45626 0.57001 0.65175 0.0
C2185 C 0.45288 0.54745 0.6622 0.0
C2186 C 0.46843 0.53044 0.65162 0.0
C2187 C 0.48711 0.52487 0.6718 0.0
C2188 C 0.45217 0.50599 0.63826 0.0
C2189 C 0.48109 0.54697 0.63358 0.0
C2190 C 0.47416 0.56991 0.63438 0.0
C2191 C 0.48305 0.58822 0.61924 0.0
C2192 C 0.49864 0.58262 0.60213 0.0
C2193 C 0.50481 0.55862 0.59979 0.0
C2194 C 0.4964 0.54087 0.6163 0.0
H2195 H 0.75941 0.22831 0.93498 0.0
H2196 H 0.83752 0.23014 0.94287 0.0
H2197 H 0.84117 0.25037 0.90402 0.0
H2198 H 0.75015 0.21272 0.86922 0.0
H2199 H 0.72755 0.23156 0.86353 0.0
H2200 H 0.73073 0.2182 0.89247 0.0
H2201 H 0.73786 0.26206 0.91653 0.0
H2202 H 0.73412 0.27583 0.88789 0.0
H2203 H 0.76155 0.28719 0.90911 0.0
H2204 H 0.83679 0.27371 0.86634 0.0
H2205 H 0.82416 0.29438 0.83012 0.0
H2206 H 0.74815 0.27298 0.84345 0.0
C2207 C 0.7773 0.23302 0.92854 0.0
C2208 C 0.79827 0.22785 0.94206 0.0
C2209 C 0.82125 0.23394 0.93283 0.0
C2210 C 0.82349 0.24548 0.91082 0.0
C2211 C 0.80247 0.25037 0.89796 0.0
C2212 C 0.77976 0.24403 0.9063 0.0
C2213 C 0.75995 0.25064 0.88858 0.0
C2214 C 0.74096 0.22686 0.87779 0.0
C2215 C 0.74765 0.27009 0.90129 0.0
C2216 C 0.7751 0.26198 0.86908 0.0
C2217 C 0.79966 0.26197 0.87511 0.0
C2218 C 0.81757 0.27331 0.86116 0.0
C2219 C 0.81024 0.285 0.8406 0.0
C2220 C 0.78519 0.28472 0.83368 0.0
C2221 C 0.76736 0.27285 0.84799 0.0
H2222 H 0.05856 0.51648 0.20922 0.0
H2223 H 0.09944 0.46039 0.18759 0.0
H2224 H 0.08574 0.46293 0.14398 0.0
H2225 H 1.00629 0.49568 0.15884 0.0
H2226 H 1.00339 0.5275 0.15488 0.0
H2227 H 0.01408 0.51944 0.18475 0.0
H2228 H 0.05312 0.55464 0.18643 0.0
H2229 H 0.0427 0.56264 0.15649 0.0
H2230 H 0.07233 0.55471 0.16187 0.0
H2231 H 0.07275 0.47524 0.10301 0.0
H2232 H 0.05761 0.49378 0.06649 0.0
H2233 H 0.02296 0.54079 0.11294 0.0
C2234 C 0.064 0.50418 0.19534 0.0
C2235 C 0.08007 0.48813 0.20199 0.0
C2236 C 0.08717 0.47281 0.18312 0.0
C2237 C 0.07948 0.47411 0.15821 0.0
C2238 C 0.06443 0.49069 0.15224 0.0
C2239 C 0.05639 0.5052 0.17017 0.0
C2240 C 0.04124 0.52237 0.1584 0.0
C2241 C 0.01467 0.51585 0.16459 0.0
C2242 C 0.05306 0.55024 0.16627 0.0
C2243 C 0.0426 0.51562 0.13114 0.0
C2244 C 0.05615 0.49731 0.12816 0.0
C2245 C 0.06168 0.48921 0.10506 0.0
C2246 C 0.0531 0.49997 0.08442 0.0
C2247 C 0.03887 0.51852 0.08679 0.0
C2248 C 0.03336 0.52628 0.1105 0.0
H2249 H 0.75091 0.88066 0.46885 0.0
H2250 H 0.80166 0.84305 0.50854 0.0
H2251 H 0.80404 0.81747 0.47025 0.0
H2252 H 0.71895 0.82507 0.42585 0.0
H2253 H 0.71612 0.84389 0.40046 0.0
H2254 H 0.71625 0.85734 0.43158 0.0
H2255 H 0.75254 0.89337 0.42512 0.0
H2256 H 0.75262 0.87978 0.39415 0.0
H2257 H 0.78021 0.88567 0.41552 0.0
H2258 H 0.80416 0.79888 0.42766 0.0
H2259 H 0.80106 0.78754 0.38275 0.0
H2260 H 0.74999 0.83658 0.3704 0.0
C2261 C 0.76215 0.86672 0.46954 0.0
C2262 C 0.77609 0.86383 0.49164 0.0
C2263 C 0.79084 0.84561 0.4918 0.0
C2264 C 0.79226 0.83091 0.47017 0.0
C2265 C 0.77871 0.83454 0.4486 0.0
C2266 C 0.76378 0.85183 0.44807 0.0
C2267 C 0.75231 0.85299 0.42207 0.0
C2268 C 0.72424 0.8443 0.41987 0.0
C2269 C 0.75988 0.87953 0.41374 0.0
C2270 C 0.76372 0.8342 0.40809 0.0
C2271 C 0.7787 0.82363 0.4238 0.0
C2272 C 0.79224 0.80674 0.41516 0.0
C2273 C 0.79045 0.8005 0.38969 0.0
C2274 C 0.77529 0.8112 0.37333 0.0
C2275 C 0.76159 0.82805 0.38263 0.0
H2276 H 0.42226 0.52358 0.82404 0.0
H2277 H 0.41448 0.60033 0.81695 0.0
H2278 H 0.4321 0.61221 0.86064 0.0
H2279 H 0.40481 0.5209 0.8854 0.0
H2280 H 0.42597 0.50154 0.89456 0.0
H2281 H 0.41337 0.49956 0.86275 0.0
H2282 H 0.45729 0.50938 0.84968 0.0
H2283 H 0.47002 0.51133 0.88143 0.0
H2284 H 0.47877 0.53741 0.86347 0.0
H2285 H 0.45262 0.61567 0.90485 0.0
H2286 H 0.47157 0.60977 0.94632 0.0
H2287 H 0.46254 0.53006 0.92429 0.0
C2288 C 0.42438 0.54294 0.83161 0.0
C2289 C 0.41731 0.56114 0.81714 0.0
C2290 C 0.41991 0.58615 0.8278 0.0
C2291 C 0.42989 0.59304 0.85253 0.0
C2292 C 0.43671 0.57456 0.86632 0.0
C2293 C 0.43379 0.54996 0.85625 0.0
C2294 C 0.44185 0.53341 0.87497 0.0
C2295 C 0.42021 0.51263 0.87969 0.0
C2296 C 0.46326 0.52224 0.8669 0.0
C2297 C 0.45009 0.55257 0.89715 0.0
C2298 C 0.4472 0.57626 0.89184 0.0
C2299 C 0.45467 0.59715 0.90928 0.0
C2300 C 0.4654 0.59366 0.9327 0.0
C2301 C 0.46816 0.56944 0.93841 0.0
C2302 C 0.46024 0.5487 0.92047 0.0
H2303 H 0.82771 0.20861 0.10515 0.0
H2304 H 0.79397 0.2575 0.06028 0.0
H2305 H 0.78799 0.28209 0.09788 0.0
H2306 H 0.78845 0.20492 0.15003 0.0
H2307 H 0.81136 0.20594 0.17576 0.0
H2308 H 0.81613 0.19392 0.14558 0.0
H2309 H 0.85747 0.22623 0.14898 0.0
H2310 H 0.85262 0.23796 0.17938 0.0
H2311 H 0.85816 0.25924 0.15591 0.0
H2312 H 0.7798 0.29732 0.13964 0.0
H2313 H 0.77239 0.30393 0.18308 0.0
H2314 H 0.81279 0.2469 0.20213 0.0
C2315 C 0.81971 0.22492 0.1032 0.0
C2316 C 0.81136 0.23103 0.07958 0.0
C2317 C 0.80062 0.25235 0.078 0.0
C2318 C 0.79715 0.26653 0.09933 0.0
C2319 C 0.80483 0.25951 0.12226 0.0
C2320 C 0.81628 0.2395 0.12438 0.0
C2321 C 0.82131 0.23501 0.15129 0.0
C2322 C 0.8085 0.20832 0.15587 0.0
C2323 C 0.84904 0.23991 0.15936 0.0
C2324 C 0.80985 0.25482 0.16387 0.0
C2325 C 0.80067 0.26888 0.14669 0.0
C2326 C 0.78739 0.28682 0.15331 0.0
C2327 C 0.78318 0.29037 0.17803 0.0
C2328 C 0.7923 0.27621 0.19602 0.0
C2329 C 0.80618 0.25847 0.18888 0.0
H2330 H 0.04524 0.5248 0.3362 0.0
H2331 H 0.0979 0.47959 0.35706 0.0
H2332 H 0.08808 0.48314 0.39998 0.0
H2333 H 0.05645 0.56699 0.39079 0.0
H2334 H 0.02482 0.56849 0.39239 0.0
H2335 H 0.03528 0.562 0.36299 0.0
H2336 H 1.00193 0.52083 0.35443 0.0
H2337 H 0.99117 0.52736 0.38368 0.0
H2338 H 0.99999 0.49787 0.37659 0.0
H2339 H 0.07544 0.49471 0.44131 0.0
H2340 H 0.0564 0.50816 0.47732 0.0
H2341 H 0.00933 0.54326 0.42996 0.0
C2342 C 0.05445 0.51535 0.34973 0.0
C2343 C 0.07238 0.50187 0.34317 0.0
C2344 C 0.084 0.48984 0.36149 0.0
C2345 C 0.07866 0.4919 0.38601 0.0
C2346 C 0.06133 0.50574 0.39196 0.0
C2347 C 0.04899 0.51682 0.37429 0.0
C2348 C 0.03086 0.53025 0.38564 0.0
C2349 C 0.03724 0.55861 0.38278 0.0
C2350 C 1.00442 0.51836 0.37442 0.0
C2351 C 0.03518 0.52525 0.41249 0.0
C2352 C 0.05309 0.51135 0.41571 0.0
C2353 C 0.06114 0.50528 0.43893 0.0
C2354 C 0.05028 0.51314 0.45933 0.0
C2355 C 0.03123 0.52659 0.45645 0.0
C2356 C 0.0237 0.53282 0.43268 0.0
H2357 H 0.77634 0.85934 0.60972 0.0
H2358 H 0.71431 0.8925 0.62364 0.0
H2359 H 0.70421 0.863 0.65533 0.0
H2360 H 0.74961 0.79424 0.61997 0.0
H2361 H 0.77811 0.78968 0.63527 0.0
H2362 H 0.7784 0.81097 0.61161 0.0
H2363 H 0.80539 0.84718 0.642 0.0
H2364 H 0.80552 0.82587 0.66546 0.0
H2365 H 0.79519 0.85473 0.67133 0.0
H2366 H 0.70269 0.83172 0.68693 0.0
H2367 H 0.71314 0.80646 0.72008 0.0
H2368 H 0.77736 0.79525 0.68599 0.0
C2369 C 0.76031 0.86012 0.61906 0.0
C2370 C 0.74586 0.87792 0.61405 0.0
C2371 C 0.72551 0.87888 0.62718 0.0
C2372 C 0.71954 0.86206 0.64498 0.0
C2373 C 0.73418 0.84462 0.64935 0.0
C2374 C 0.75434 0.84382 0.63696 0.0
C2375 C 0.76889 0.82554 0.64693 0.0
C2376 C 0.76873 0.80382 0.62727 0.0
C2377 C 0.79529 0.83915 0.65703 0.0
C2378 C 0.75411 0.8165 0.66736 0.0
C2379 C 0.73383 0.82723 0.66807 0.0
C2380 C 0.71835 0.823 0.68637 0.0
C2381 C 0.72443 0.80846 0.70509 0.0
C2382 C 0.74615 0.79883 0.70567 0.0
C2383 C 0.76051 0.80204 0.68594 0.0
H2384 H 0.66092 0.45041 0.57931 0.0
H2385 H 0.67651 0.44313 0.50335 0.0
H2386 H 0.6454 0.46754 0.49155 0.0
H2387 H 0.59336 0.44421 0.56289 0.0
H2388 H 0.5909 0.46606 0.58842 0.0
H2389 H 0.6137 0.44711 0.59105 0.0
H2390 H 0.64775 0.48742 0.60251 0.0
H2391 H 0.6251 0.50649 0.59987 0.0
H2392 H 0.65076 0.51204 0.58208 0.0
H2393 H 0.61727 0.49749 0.48893 0.0
H2394 H 0.58965 0.52668 0.49437 0.0
H2395 H 0.58674 0.51084 0.57057 0.0
C2396 C 0.65752 0.45371 0.56016 0.0
C2397 C 0.6713 0.4449 0.54224 0.0
C2398 C 0.66619 0.44952 0.51736 0.0
C2399 C 0.64857 0.46346 0.51049 0.0
C2400 C 0.63556 0.47214 0.52855 0.0
C2401 C 0.6393 0.46698 0.55278 0.0
C2402 C 0.62246 0.47845 0.56835 0.0
C2403 C 0.60401 0.45773 0.57827 0.0
C2404 C 0.63742 0.49722 0.58945 0.0
C2405 C 0.60956 0.49181 0.54932 0.0
C2406 C 0.61759 0.48791 0.52652 0.0
C2407 C 0.61033 0.50007 0.5065 0.0
C2408 C 0.59454 0.51662 0.50977 0.0
C2409 C 0.58537 0.52047 0.53263 0.0
C2410 C 0.59284 0.50767 0.55266 0.0
H2411 H 0.19021 0.12259 0.4699 0.0
H2412 H 0.23165 0.07689 0.51092 0.0
H2413 H 0.19306 0.04911 0.5184 0.0
H2414 H 0.14713 0.12315 0.50904 0.0
H2415 H 0.12132 0.12143 0.48611 0.0
H2416 H 0.15178 0.13473 0.4795 0.0
H2417 H 0.14617 0.10291 0.44066 0.0
H2418 H 0.11545 0.0897 0.447 0.0
H2419 H 0.13703 0.06966 0.4435 0.0
H2420 H 0.15071 0.03108 0.52779 0.0
H2421 H 0.10728 0.02239 0.53579 0.0
H2422 H 0.09352 0.07953 0.48836 0.0
C2423 C 0.19118 0.10618 0.47962 0.0
C2424 C 0.21393 0.10186 0.48975 0.0
C2425 C 0.21442 0.08054 0.50293 0.0
C2426 C 0.19259 0.0646 0.50725 0.0
C2427 C 0.17044 0.07009 0.49805 0.0
C2428 C 0.16955 0.09013 0.48416 0.0
C2429 C 0.1435 0.09351 0.47862 0.0
C2430 C 0.1408 0.11975 0.48895 0.0
C2431 C 0.13504 0.08864 0.45079 0.0
C2432 C 0.1301 0.073 0.49248 0.0
C2433 C 0.14588 0.05949 0.50334 0.0
C2434 C 0.13804 0.04112 0.51891 0.0
C2435 C 0.11342 0.03644 0.5235 0.0
C2436 C 0.09702 0.05015 0.51257 0.0
C2437 C 0.1055 0.06839 0.49664 0.0
H2438 H 0.21114 0.92873 0.75322 0.0
H2439 H 0.20784 0.94592 0.83134 0.0
H2440 H 0.22754 0.91052 0.84053 0.0
H2441 H 0.19775 0.85941 0.755 0.0
H2442 H 0.21773 0.85471 0.73205 0.0
H2443 H 0.20254 0.88081 0.73153 0.0
H2444 H 0.2447 0.91155 0.73281 0.0
H2445 H 0.2599 0.88552 0.73352 0.0
H2446 H 0.26855 0.91139 0.75738 0.0
H2447 H 0.25082 0.87626 0.84162 0.0
H2448 H 0.27372 0.84288 0.83459 0.0
H2449 H 0.25925 0.84464 0.75549 0.0
C2450 C 0.2145 0.92494 0.77224 0.0
C2451 C 0.20818 0.9402 0.79165 0.0
C2452 C 0.21255 0.93449 0.81625 0.0
C2453 C 0.22372 0.91442 0.82163 0.0
C2454 C 0.22987 0.89985 0.80214 0.0
C2455 C 0.22508 0.90452 0.77789 0.0
C2456 C 0.23352 0.8858 0.76047 0.0
C2457 C 0.21158 0.86921 0.74378 0.0
C2458 C 0.25282 0.89938 0.74515 0.0
C2459 C 0.2447 0.87056 0.7788 0.0
C2460 C 0.24231 0.87905 0.80272 0.0
C2461 C 0.25247 0.8692 0.82299 0.0
C2462 C 0.26554 0.8503 0.81879 0.0
C2463 C 0.26808 0.84107 0.7945 0.0
C2464 C 0.25724 0.85111 0.77422 0.0
H2465 H 0.30813 0.96629 0.06449 0.0
H2466 H 0.28712 0.92951 0.99022 0.0
H2467 H 0.32658 0.95106 0.97791 0.0
H2468 H 0.34448 0.02669 0.04778 0.0
H2469 H 0.36776 0.02926 0.07356 0.0
H2470 H 0.33656 0.01373 0.07598 0.0
H2471 H 0.35152 0.97393 0.08809 0.0
H2472 H 0.38269 0.98927 0.08553 0.0
H2473 H 0.36941 0.95946 0.06798 0.0
H2474 H 0.36864 0.97321 0.97413 0.0
H2475 H 0.41209 0.99481 0.97896 0.0
H2476 H 0.40803 0.01688 0.05606 0.0
C2477 C 0.31167 0.96343 0.04551 0.0
C2478 C 0.2945 0.94658 0.02813 0.0
C2479 C 0.29999 0.94252 1.00367 0.0
C2480 C 0.32231 0.9547 0.99652 0.0
C2481 C 0.33913 0.97072 0.01412 0.0
C2482 C 0.33422 0.97517 0.03813 0.0
C2483 C 0.35655 0.9916 0.05375 0.0
C2484 C 0.351 0.01682 0.06333 0.0
C2485 C 0.36557 0.97773 0.07509 0.0
C2486 C 0.37476 0.99525 0.03483 0.0
C2487 C 0.36409 0.98321 0.01207 0.0
C2488 C 0.37717 0.98292 0.99178 0.0
C2489 C 0.40188 0.9952 0.99474 0.0
C2490 C 0.4134 0.00754 0.01785 0.0
C2491 C 0.39961 0.00772 0.03815 0.0
H2492 H 0.84712 0.64761 0.72205 0.0
H2493 H 0.87912 0.64506 0.79706 0.0
H2494 H 0.85665 0.67673 0.8118 0.0
H2495 H 0.84999 0.71379 0.72639 0.0
H2496 H 0.82091 0.71261 0.70857 0.0
H2497 H 0.83806 0.68867 0.70245 0.0
H2498 H 0.80245 0.65314 0.70917 0.0
H2499 H 0.78384 0.676 0.71387 0.0
H2500 H 0.78771 0.65473 0.73689 0.0
H2501 H 0.82726 0.70478 0.81891 0.0
H2502 H 0.79734 0.73253 0.81745 0.0
H2503 H 0.78808 0.72147 0.7377 0.0
C2504 C 0.84956 0.65388 0.74156 0.0
C2505 C 0.86489 0.64379 0.75843 0.0
C2506 C 0.8676 0.65255 0.78378 0.0
C2507 C 0.85481 0.67046 0.79234 0.0
C2508 C 0.83962 0.67975 0.7753 0.0
C2509 C 0.8372 0.67208 0.75039 0.0
C2510 C 0.81979 0.68526 0.73599 0.0
C2511 C 0.83295 0.70105 0.71724 0.0
C2512 C 0.79711 0.66614 0.72323 0.0
C2513 C 0.81298 0.70172 0.75671 0.0
C2514 C 0.82418 0.69769 0.77928 0.0
C2515 C 0.81888 0.70864 0.80136 0.0
C2516 C 0.80192 0.72432 0.8004 0.0
C2517 C 0.79108 0.72964 0.77756 0.0
C2518 C 0.79668 0.71819 0.7554 0.0
H2519 H 0.84964 0.63531 0.0071 0.0
H2520 H 0.7937 0.56786 0.01001 0.0
H2521 H 0.82589 0.54449 0.02105 0.0
H2522 H 0.89375 0.60478 0.98107 0.0
H2523 H 0.91975 0.62548 0.99908 0.0
H2524 H 0.89219 0.63662 0.99108 0.0
H2525 H 0.89031 0.64905 0.03742 0.0
H2526 H 0.91766 0.63753 0.04557 0.0
H2527 H 0.88999 0.62556 0.05895 0.0
H2528 H 0.86407 0.52831 0.0311 0.0
H2529 H 0.90595 0.52014 0.03781 0.0
H2530 H 0.93665 0.59855 0.03015 0.0
C2531 C 0.84418 0.61556 0.00979 0.0
C2532 C 0.81921 0.60333 0.00757 0.0
C2533 C 0.81276 0.57756 0.01157 0.0
C2534 C 0.83088 0.56416 0.01794 0.0
C2535 C 0.85532 0.57689 0.02045 0.0
C2536 C 0.86201 0.60198 0.01644 0.0
C2537 C 0.88958 0.6112 0.02034 0.0
C2538 C 0.89939 0.62003 0.99647 0.0
C2539 C 0.89733 0.63207 0.04185 0.0
C2540 C 0.89732 0.58728 0.02683 0.0
C2541 C 0.8773 0.56772 0.02688 0.0
C2542 C 0.87991 0.54351 0.03131 0.0
C2543 C 0.90369 0.53906 0.03518 0.0
C2544 C 0.92435 0.55877 0.03467 0.0
C2545 C 0.9211 0.58325 0.03098 0.0
H2546 H 0.21283 0.07744 0.76446 0.0
H2547 H 0.1988 0.08138 0.84099 0.0
H2548 H 0.21806 0.1267 0.84615 0.0
H2549 H 0.27164 0.12544 0.77218 0.0
H2550 H 0.26416 0.13838 0.74378 0.0
H2551 H 0.25261 0.10551 0.74685 0.0
H2552 H 0.20827 0.11105 0.73514 0.0
H2553 H 0.21965 0.14391 0.73217 0.0
H2554 H 0.19686 0.13461 0.75267 0.0
H2555 H 0.23535 0.17167 0.84244 0.0
H2556 H 0.24848 0.21424 0.83002 0.0
H2557 H 0.25016 0.18272 0.75507 0.0
C2558 C 0.21455 0.08775 0.78246 0.0
C2559 C 0.20475 0.07584 0.8025 0.0
C2560 C 0.20643 0.0901 0.82553 0.0
C2561 C 0.21738 0.11583 0.82863 0.0
C2562 C 0.22635 0.12717 0.80844 0.0
C2563 C 0.22505 0.11368 0.78576 0.0
C2564 C 0.23395 0.13109 0.76654 0.0
C2565 C 0.25696 0.12472 0.75677 0.0
C2566 C 0.21346 0.1301 0.74539 0.0
C2567 C 0.24 0.15646 0.78188 0.0
C2568 C 0.23575 0.15359 0.80606 0.0
C2569 C 0.23893 0.17415 0.82362 0.0
C2570 C 0.24635 0.19833 0.8163 0.0
C2571 C 0.25042 0.20199 0.79153 0.0
C2572 C 0.24748 0.18063 0.77418 0.0
H2573 H 0.38424 0.98971 0.25769 0.0
H2574 H 0.32764 0.03256 0.26431 0.0
H2575 H 0.29796 0.99346 0.27 0.0
H2576 H 0.34386 0.93461 0.2226 0.0
H2577 H 0.35984 0.91296 0.23696 0.0
H2578 H 0.37615 0.94429 0.23324 0.0
H2579 H 0.39039 0.95162 0.28023 0.0
H2580 H 0.37399 0.92041 0.28411 0.0
H2581 H 0.36779 0.94725 0.30168 0.0
H2582 H 0.27565 0.94971 0.27848 0.0
H2583 H 0.26136 0.90448 0.28403 0.0
H2584 H 0.33198 0.89061 0.26828 0.0
C2585 C 0.36555 0.99082 0.26022 0.0
C2586 C 0.35817 0.01406 0.26077 0.0
C2587 C 0.33354 0.01483 0.26379 0.0
C2588 C 0.31664 0.99278 0.26712 0.0
C2589 C 0.32462 0.97014 0.26682 0.0
C2590 C 0.34838 0.96899 0.26294 0.0
C2591 C 0.35232 0.94237 0.26278 0.0
C2592 C 0.35839 0.93301 0.23739 0.0
C2593 C 0.3723 0.94031 0.28343 0.0
C2594 C 0.32725 0.92873 0.26782 0.0
C2595 C 0.31151 0.94502 0.27029 0.0
C2596 C 0.28771 0.93675 0.27622 0.0
C2597 C 0.27979 0.91113 0.27944 0.0
C2598 C 0.29555 0.8942 0.27638 0.0
C2599 C 0.31949 0.90316 0.27045 0.0
H2600 H 0.5433 0.34372 0.61538 0.0
H2601 H 0.46489 0.31354 0.60855 0.0
H2602 H 0.45776 0.34894 0.58499 0.0
H2603 H 0.53876 0.40845 0.62609 0.0
H2604 H 0.56433 0.42044 0.60965 0.0
H2605 H 0.56333 0.39184 0.62433 0.0
H2606 H 0.56799 0.36838 0.5827 0.0
H2607 H 0.56887 0.39693 0.56794 0.0
H2608 H 0.54653 0.3688 0.55604 0.0
H2609 H 0.45935 0.38685 0.56117 0.0
H2610 H 0.46879 0.42772 0.54366 0.0
H2611 H 0.54587 0.43581 0.56957 0.0
C2612 C 0.52466 0.3445 0.6087 0.0
C2613 C 0.5046 0.32576 0.61342 0.0
C2614 C 0.48045 0.32767 0.60499 0.0
C2615 C 0.47627 0.34762 0.59153 0.0
C2616 C 0.49643 0.36579 0.58712 0.0
C2617 C 0.52013 0.36469 0.59584 0.0
C2618 C 0.5384 0.38762 0.59012 0.0
C2619 C 0.552 0.403 0.61397 0.0
C2620 C 0.55651 0.37996 0.57319 0.0
C2621 C 0.52127 0.40174 0.57676 0.0
C2622 C 0.4972 0.38855 0.57482 0.0
C2623 C 0.4781 0.39742 0.56274 0.0
C2624 C 0.48365 0.42059 0.55275 0.0
C2625 C 0.50802 0.43489 0.55535 0.0
C2626 C 0.52707 0.42526 0.56741 0.0
H2627 H 0.45713 0.8191 0.32116 0.0
H2628 H 0.45232 0.74538 0.34751 0.0
H2629 H 0.40785 0.73461 0.33309 0.0
H2630 H 0.40103 0.82877 0.34068 0.0
H2631 H 0.39304 0.84522 0.31477 0.0
H2632 H 0.42479 0.84629 0.325 0.0
H2633 H 0.43113 0.82938 0.28114 0.0
H2634 H 0.39939 0.8283 0.27076 0.0
H2635 H 0.41166 0.80037 0.26677 0.0
H2636 H 0.36373 0.73245 0.31714 0.0
H2637 H 0.32292 0.73938 0.30266 0.0
H2638 H 0.35584 0.81544 0.28824 0.0
C2639 C 0.44682 0.8005 0.32347 0.0
C2640 C 0.45828 0.78291 0.33517 0.0
C2641 C 0.44399 0.75905 0.33844 0.0
C2642 C 0.41873 0.75278 0.33028 0.0
C2643 C 0.40796 0.77066 0.3191 0.0
C2644 C 0.42152 0.79409 0.31579 0.0
C2645 C 0.40521 0.81048 0.30473 0.0
C2646 C 0.40607 0.83408 0.32235 0.0
C2647 C 0.41227 0.81754 0.27934 0.0
C2648 C 0.38031 0.79264 0.30242 0.0
C2649 C 0.38238 0.7697 0.31059 0.0
C2650 C 0.36193 0.7503 0.3106 0.0
C2651 C 0.33876 0.75445 0.30225 0.0
C2652 C 0.336 0.77795 0.29414 0.0
C2653 C 0.35721 0.79722 0.29417 0.0
H2654 H 0.99424 0.68166 0.13774 0.0
H2655 H 0.01016 0.74047 0.0887 0.0
H2656 H 0.01631 0.7094 0.05647 0.0
H2657 H 0.03845 0.64895 0.12173 0.0
H2658 H 0.02032 0.61766 0.12235 0.0
H2659 H 0.01396 0.64364 0.14102 0.0
H2660 H 0.96884 0.63312 0.12076 0.0
H2661 H 0.97507 0.60695 0.10213 0.0
H2662 H 0.9625 0.63085 0.08764 0.0
H2663 H 0.02608 0.67416 0.03151 0.0
H2664 H 0.03653 0.63526 0.01398 0.0
H2665 H 0.013 0.59753 0.07722 0.0
C2666 C 0.99842 0.68784 0.12001 0.0
C2667 C 1.00176 0.71363 0.11589 0.0
C2668 C 1.00759 0.72094 0.09249 0.0
C2669 C 0.01105 0.70339 0.07393 0.0
C2670 C 0.00838 0.67837 0.07878 0.0
C2671 C 1.00187 0.67039 0.10105 0.0
C2672 C 1.00155 0.64245 0.10162 0.0
C2673 C 0.01965 0.63792 0.12294 0.0
C2674 C 0.97543 0.62746 0.10313 0.0
C2675 C 0.00999 0.63645 0.0767 0.0
C2676 C 0.01356 0.65749 0.06382 0.0
C2677 C 0.02293 0.65741 0.04118 0.0
C2678 C 0.02894 0.63528 0.03143 0.0
C2679 C 0.02544 0.61345 0.04417 0.0
C2680 C 0.0155 0.61391 0.06696 0.0
H2681 H 0.11186 0.29755 0.83961 0.0
H2682 H 0.06438 0.23123 0.7986 0.0
H2683 H 0.09869 0.22353 0.77656 0.0
H2684 H 0.14838 0.31839 0.79033 0.0
H2685 H 0.17679 0.32746 0.81051 0.0
H2686 H 0.14815 0.32864 0.82238 0.0
H2687 H 0.15889 0.3006 0.85573 0.0
H2688 H 0.18683 0.29726 0.84345 0.0
H2689 H 0.16402 0.26975 0.84681 0.0
H2690 H 0.13773 0.22143 0.76021 0.0
H2691 H 0.17949 0.22601 0.74868 0.0
H2692 H 0.20309 0.29441 0.79858 0.0
C2693 C 0.10863 0.28166 0.82571 0.0
C2694 C 0.08529 0.26506 0.82078 0.0
C2695 C 0.08199 0.24422 0.80276 0.0
C2696 C 0.1014 0.23966 0.79009 0.0
C2697 C 0.12417 0.25606 0.79558 0.0
C2698 C 0.12798 0.27672 0.81282 0.0
C2699 C 0.15474 0.2906 0.81576 0.0
C2700 C 0.15715 0.31789 0.80935 0.0
C2701 C 0.16682 0.28952 0.842 0.0
C2702 C 0.16511 0.27495 0.79691 0.0
C2703 C 0.14708 0.25492 0.78587 0.0
C2704 C 0.15197 0.23716 0.76856 0.0
C2705 C 0.17584 0.23998 0.76213 0.0
C2706 C 0.19472 0.26057 0.77266 0.0
C2707 C 0.18921 0.27837 0.79032 0.0
H2708 H 0.58187 0.73633 1.00177 0.0
H2709 H 0.51185 0.73353 0.95876 0.0
H2710 H 0.49524 0.69239 0.97347 0.0
H2711 H 0.58166 0.67079 0.99074 0.0
H2712 H 0.5955 0.66839 0.02132 0.0
H2713 H 0.60223 0.69777 0.0078 0.0
H2714 H 0.58808 0.72067 0.04511 0.0
H2715 H 0.5818 0.69151 0.05906 0.0
H2716 H 0.55804 0.70902 0.05406 0.0
H2717 H 0.4864 0.65161 0.99314 0.0
H2718 H 0.48652 0.61374 0.01545 0.0
H2719 H 0.56247 0.64372 0.04481 0.0
C2720 C 0.56303 0.72712 0.99543 0.0
C2721 C 0.54812 0.7381 0.9792 0.0
C2722 C 0.52359 0.72539 0.97123 0.0
C2723 C 0.51399 0.70208 0.9795 0.0
C2724 C 0.52919 0.69186 0.99565 0.0
C2725 C 0.5532 0.70393 1.00343 0.0
C2726 C 0.56584 0.68887 0.02055 0.0
C2727 C 0.5876 0.68101 0.0094 0.0
C2728 C 0.5739 0.70339 0.04622 0.0
C2729 C 0.54518 0.66646 0.0213 0.0
C2730 C 0.52416 0.66847 0.00683 0.0
C2731 C 0.50276 0.6498 1.00446 0.0
C2732 C 0.50303 0.6284 0.01706 0.0
C2733 C 0.52457 0.62593 0.03153 0.0
C2734 C 0.54575 0.64529 0.03389 0.0
H2735 H 0.10661 0.81672 0.64942 0.0
H2736 H 0.04965 0.77205 0.68577 0.0
H2737 H 0.08047 0.76851 0.71973 0.0
H2738 H 0.15031 0.78209 0.66164 0.0
H2739 H 0.17637 0.80819 0.66721 0.0
H2740 H 0.14957 0.8108 0.64752 0.0
H2741 H 0.14614 0.85074 0.67472 0.0
H2742 H 0.17318 0.84831 0.6943 0.0
H2743 H 0.14514 0.84945 0.70743 0.0
H2744 H 0.1173 0.76451 0.74638 0.0
H2745 H 0.15842 0.76148 0.76492 0.0
H2746 H 0.19177 0.80951 0.71238 0.0
C2747 C 0.10054 0.80671 0.66481 0.0
C2748 C 0.07573 0.79465 0.6649 0.0
C2749 C 0.06856 0.78143 0.68523 0.0
C2750 C 0.08591 0.77941 0.70471 0.0
C2751 C 0.11028 0.79095 0.70375 0.0
C2752 C 0.11764 0.80458 0.68449 0.0
C2753 C 0.14529 0.8133 0.68699 0.0
C2754 C 0.156 0.80296 0.66451 0.0
C2755 C 0.15287 0.84217 0.69111 0.0
C2756 C 0.1523 0.80141 0.70999 0.0
C2757 C 0.13179 0.78891 0.71954 0.0
C2758 C 0.13352 0.77466 0.73944 0.0
C2759 C 0.15688 0.77293 0.74975 0.0
C2760 C 0.17805 0.7854 0.74009 0.0
C2761 C 0.17578 0.80017 0.72029 0.0
H2762 H 0.99098 0.34768 0.48926 0.0
H2763 H 0.06857 0.34928 0.48845 0.0
H2764 H 0.0785 0.39229 0.51005 0.0
H2765 H 0.99422 0.40881 0.47421 0.0
H2766 H 0.97105 0.41529 0.49287 0.0
H2767 H 0.9704 0.38349 0.48104 0.0
H2768 H 0.97087 0.37002 0.5255 0.0
H2769 H 0.97177 0.40195 0.53748 0.0
H2770 H 0.99506 0.38595 0.54895 0.0
H2771 H 0.07976 0.43589 0.52849 0.0
H2772 H 0.07265 0.47846 0.53772 0.0
H2773 H 0.99394 0.44885 0.52489 0.0
C2774 C 0.01008 0.35688 0.49411 0.0
C2775 C 0.02906 0.34516 0.4875 0.0
C2776 C 0.0538 0.35799 0.49348 0.0
C2777 C 0.05958 0.38228 0.50592 0.0
C2778 C 0.04038 0.39339 0.51207 0.0
C2779 C 0.01612 0.38119 0.50615 0.0
C2780 C 0.9989 0.39829 0.51204 0.0
C2781 C 0.98271 0.40167 0.48865 0.0
C2782 C 0.98323 0.38846 0.5322 0.0
C2783 C 0.01727 0.42231 0.52151 0.0
C2784 C 0.04108 0.4189 0.52196 0.0
C2785 C 0.06121 0.43874 0.52846 0.0
C2786 C 0.05694 0.46289 0.53368 0.0
C2787 C 0.03269 0.46706 0.53196 0.0
C2788 C 0.01266 0.4463 0.52666 0.0
H2789 H 0.44166 0.31941 0.15596 0.0
H2790 H 0.45859 0.24852 0.17529 0.0
H2791 H 0.42659 0.24396 0.20327 0.0
H2792 H 0.42878 0.34077 0.21689 0.0
H2793 H 0.40378 0.35442 0.20524 0.0
H2794 H 0.42868 0.35283 0.18712 0.0
H2795 H 0.39776 0.32876 0.15059 0.0
H2796 H 0.37279 0.33038 0.16855 0.0
H2797 H 0.37665 0.30031 0.15545 0.0
H2798 H 0.39228 0.24589 0.22782 0.0
H2799 H 0.35649 0.25402 0.24729 0.0
H2800 H 0.36142 0.32378 0.21286 0.0
C2801 C 0.43867 0.303 0.16616 0.0
C2802 C 0.45263 0.28434 0.16345 0.0
C2803 C 0.44813 0.26307 0.17703 0.0
C2804 C 0.43004 0.26032 0.19305 0.0
C2805 C 0.41663 0.279 0.19533 0.0
C2806 C 0.42061 0.29991 0.18228 0.0
C2807 C 0.40299 0.31678 0.18772 0.0
C2808 C 0.4169 0.34274 0.19998 0.0
C2809 C 0.38658 0.31919 0.16418 0.0
C2810 C 0.3884 0.30189 0.20563 0.0
C2811 C 0.39671 0.28022 0.20981 0.0
C2812 C 0.38571 0.26289 0.22491 0.0
C2813 C 0.36544 0.26769 0.23589 0.0
C2814 C 0.35646 0.28962 0.23168 0.0
C2815 C 0.36821 0.30706 0.21659 0.0
H2816 H 0.60607 0.55222 0.36774 0.0
H2817 H 0.62371 0.47835 0.36768 0.0
H2818 H 0.59832 0.46894 0.40173 0.0
H2819 H 0.60818 0.56373 0.43354 0.0
H2820 H 0.58332 0.58013 0.43167 0.0
H2821 H 0.60255 0.58053 0.40717 0.0
H2822 H 0.56397 0.56302 0.37574 0.0
H2823 H 0.54469 0.56222 0.40025 0.0
H2824 H 0.54357 0.53401 0.38036 0.0
H2825 H 0.57066 0.46773 0.43589 0.0
H2826 H 0.54639 0.47611 0.4696 0.0
H2827 H 0.54732 0.55103 0.44725 0.0
C2828 C 0.60465 0.53405 0.37488 0.0
C2829 C 0.61687 0.51598 0.36498 0.0
C2830 C 0.6146 0.49251 0.37499 0.0
C2831 C 0.60009 0.48695 0.39424 0.0
C2832 C 0.58803 0.50508 0.40332 0.0
C2833 C 0.59039 0.52826 0.39412 0.0
C2834 C 0.57623 0.54481 0.40759 0.0
C2835 C 0.59361 0.56871 0.42077 0.0
C2836 C 0.55591 0.55139 0.38993 0.0
C2837 C 0.56553 0.52737 0.42586 0.0
C2838 C 0.57236 0.50447 0.423 0.0
C2839 C 0.56514 0.48557 0.43821 0.0
C2840 C 0.55117 0.49048 0.45724 0.0
C2841 C 0.54473 0.5142 0.46111 0.0
C2842 C 0.55164 0.5326 0.44476 0.0
H2843 H 0.21269 0.82947 0.10285 0.0
H2844 H 0.26974 0.89681 0.12253 0.0
H2845 H 0.2822 0.88031 0.16147 0.0
H2846 H 0.19568 0.82464 0.16531 0.0
H2847 H 0.18919 0.79068 0.16244 0.0
H2848 H 0.18541 0.80721 0.13553 0.0
H2849 H 0.21464 0.78341 0.11448 0.0
H2850 H 0.21864 0.76712 0.14154 0.0
H2851 H 0.24501 0.78496 0.12967 0.0
H2852 H 0.29046 0.8556 0.19677 0.0
H2853 H 0.29028 0.82687 0.22942 0.0
H2854 H 0.2246 0.77773 0.19101 0.0
C2855 C 0.2278 0.84061 0.11542 0.0
C2856 C 0.24042 0.86438 0.10965 0.0
C2857 C 0.25987 0.87861 0.12664 0.0
C2858 C 0.26714 0.86934 0.14874 0.0
C2859 C 0.25446 0.84593 0.15398 0.0
C2860 C 0.23489 0.83191 0.13811 0.0
C2861 C 0.22365 0.80797 0.14913 0.0
C2862 C 0.19689 0.80762 0.15336 0.0
C2863 C 0.22561 0.78447 0.13272 0.0
C2864 C 0.24007 0.81073 0.17351 0.0
C2865 C 0.25796 0.8326 0.1756 0.0
C2866 C 0.27612 0.83878 0.19566 0.0
C2867 C 0.27573 0.8225 0.21434 0.0
C2868 C 0.25692 0.80066 0.21345 0.0
C2869 C 0.23899 0.79456 0.19251 0.0
H2870 H 0.98106 0.55406 0.82618 0.0
H2871 H 0.93223 0.60566 0.83481 0.0
H2872 H 0.94315 0.60968 0.87995 0.0
H2873 H 0.96785 0.52168 0.87819 0.0
H2874 H 0.99878 0.51829 0.8868 0.0
H2875 H 0.9885 0.52073 0.85505 0.0
H2876 H 0.02449 0.55878 0.85393 0.0
H2877 H 0.03497 0.55638 0.88567 0.0
H2878 H 0.02861 0.58565 0.87644 0.0
H2879 H 0.95625 0.60484 0.92446 0.0
H2880 H 0.97286 0.59393 0.96476 0.0
H2881 H 0.01484 0.54713 0.92752 0.0
C2882 C 0.97295 0.56653 0.83751 0.0
C2883 C 0.95578 0.5796 0.82683 0.0
C2884 C 0.9455 0.59556 0.84243 0.0
C2885 C 0.95156 0.59793 0.86816 0.0
C2886 C 0.96817 0.58444 0.8781 0.0
C2887 C 0.97899 0.5693 0.86325 0.0
C2888 C 0.99584 0.55638 0.87867 0.0
C2889 C 0.98722 0.52757 0.87442 0.0
C2890 C 0.02256 0.56481 0.87336 0.0
C2891 C 0.99246 0.56622 0.90451 0.0
C2892 C 0.97636 0.58233 0.90375 0.0
C2893 C 0.96917 0.59257 0.92525 0.0
C2894 C 0.97864 0.5862 0.94806 0.0
C2895 C 0.99536 0.56992 0.94933 0.0
C2896 C 1.00248 0.56002 0.92719 0.0
H2897 H 0.30664 0.19818 0.57809 0.0
H2898 H 0.25489 0.23268 0.53591 0.0
H2899 H 0.25046 0.25819 0.57365 0.0
H2900 H 0.27529 0.18905 0.62665 0.0
H2901 H 0.30102 0.19574 0.65039 0.0
H2902 H 0.305 0.1847 0.61962 0.0
H2903 H 0.33964 0.22394 0.61754 0.0
H2904 H 0.33617 0.23454 0.64871 0.0
H2905 H 0.33401 0.25495 0.62455 0.0
H2906 H 0.24531 0.27311 0.61609 0.0
H2907 H 0.24156 0.27855 0.66058 0.0
H2908 H 0.29674 0.23457 0.67541 0.0
C2909 C 0.29504 0.21175 0.57658 0.0
C2910 C 0.28108 0.21345 0.5541 0.0
C2911 C 0.26579 0.23111 0.55296 0.0
C2912 C 0.26323 0.24575 0.57427 0.0
C2913 C 0.27633 0.24269 0.59639 0.0
C2914 C 0.29225 0.22641 0.59765 0.0
C2915 C 0.30179 0.22423 0.62406 0.0
C2916 C 0.29537 0.19681 0.63054 0.0
C2917 C 0.32955 0.23508 0.629 0.0
C2918 C 0.2876 0.24063 0.6375 0.0
C2919 C 0.27338 0.25146 0.62119 0.0
C2920 C 0.2568 0.2653 0.62908 0.0
C2921 C 0.25465 0.26808 0.65431 0.0
C2922 C 0.26891 0.25696 0.6712 0.0
C2923 C 0.28586 0.24345 0.66278 0.0
H2924 H 0.62714 0.49693 0.20524 0.0
H2925 H 0.58237 0.52308 0.25777 0.0
H2926 H 0.55399 0.53094 0.22351 0.0
H2927 H 0.62439 0.54161 0.16575 0.0
H2928 H 0.62224 0.52184 0.13735 0.0
H2929 H 0.63674 0.51355 0.16539 0.0
H2930 H 0.57431 0.46801 0.15577 0.0
H2931 H 0.60695 0.46984 0.16001 0.0
H2932 H 0.59268 0.47787 0.13161 0.0
H2933 H 0.53487 0.54303 0.1849 0.0
H2934 H 0.52389 0.55516 0.14345 0.0
H2935 H 0.57971 0.52011 0.11507 0.0
C2936 C 0.6109 0.50346 0.20952 0.0
C2937 C 0.60702 0.50938 0.23424 0.0
C2938 C 0.58578 0.51838 0.23904 0.0
C2939 C 0.56948 0.52287 0.21968 0.0
C2940 C 0.57444 0.51794 0.19559 0.0
C2941 C 0.59435 0.50797 0.19035 0.0
C2942 C 0.59657 0.50645 0.16289 0.0
C2943 C 0.62146 0.52178 0.15755 0.0
C2944 C 0.59237 0.4789 0.15193 0.0
C2945 C 0.57563 0.51837 0.15377 0.0
C2946 C 0.56296 0.52458 0.17294 0.0
C2947 C 0.54425 0.53774 0.16962 0.0
C2948 C 0.53828 0.54472 0.14608 0.0
C2949 C 0.55092 0.53846 0.12618 0.0
C2950 C 0.5696 0.52484 0.12999 0.0
H2951 H 0.26473 0.82978 0.97076 0.0
H2952 H 0.19099 0.84289 0.95757 0.0
H2953 H 0.18818 0.82501 0.91424 0.0
H2954 H 0.28328 0.8475 0.91352 0.0
H2955 H 0.30163 0.82422 0.90979 0.0
H2956 H 0.29712 0.83598 0.94024 0.0
H2957 H 0.28014 0.79046 0.95029 0.0
H2958 H 0.28468 0.77855 0.91986 0.0
H2959 H 0.25482 0.7708 0.93038 0.0
H2960 H 0.19439 0.80814 0.87153 0.0
H2961 H 0.20885 0.79354 0.83305 0.0
H2962 H 0.27888 0.79163 0.87364 0.0
C2963 C 0.24778 0.82844 0.95892 0.0
C2964 C 0.22794 0.83755 0.96776 0.0
C2965 C 0.20635 0.8359 0.95139 0.0
C2966 C 0.2046 0.82577 0.9267 0.0
C2967 C 0.22462 0.81737 0.91851 0.0
C2968 C 0.24579 0.81853 0.93415 0.0
C2969 C 0.26514 0.80944 0.9204 0.0
C2970 C 0.28815 0.83054 0.92103 0.0
C2971 C 0.27157 0.78591 0.93086 0.0
C2972 C 0.25163 0.80313 0.89454 0.0
C2973 C 0.22825 0.80777 0.89388 0.0
C2974 C 0.21259 0.80424 0.87192 0.0
C2975 C 0.22102 0.79591 0.85009 0.0
C2976 C 0.24498 0.79114 0.85016 0.0
C2977 C 0.26035 0.7947 0.87286 0.0
H2978 H 0.97818 0.5659 0.6979 0.0
H2979 H 0.92296 0.60456 0.66825 0.0
H2980 H 0.93926 0.60342 0.6281 0.0
H2981 H 0.02753 0.59692 0.664 0.0
H2982 H 0.0395 0.5689 0.65916 0.0
H2983 H 0.02433 0.57388 0.68607 0.0
H2984 H 0.9943 0.53081 0.6743 0.0
H2985 H 0.00921 0.5258 0.64723 0.0
H2986 H 0.97666 0.52453 0.64429 0.0
H2987 H 0.95985 0.59609 0.59034 0.0
H2988 H 0.98509 0.58513 0.55834 0.0
H2989 H 0.02746 0.55164 0.61171 0.0
C2990 C 0.96974 0.57448 0.6831 0.0
C2991 C 0.94923 0.58538 0.68642 0.0
C2992 C 0.93867 0.59615 0.66636 0.0
C2993 C 0.94778 0.59556 0.64339 0.0
C2994 C 0.96761 0.58423 0.64061 0.0
C2995 C 0.97866 0.5741 0.65995 0.0
C2996 C 0.99951 0.56266 0.6518 0.0
C2997 C 0.02418 0.57641 0.66611 0.0
C2998 C 0.99461 0.53426 0.65457 0.0
C2999 C 0.9982 0.56765 0.62481 0.0
C3000 C 0.97964 0.58013 0.61879 0.0
C3001 C 0.97452 0.58646 0.59491 0.0
C3002 C 0.98888 0.5801 0.57679 0.0
C3003 C 0.00804 0.56749 0.58252 0.0
C3004 C 0.01279 0.56122 0.60686 0.0
H3005 H 0.29899 0.19059 0.40836 0.0
H3006 H 0.277 0.24455 0.4589 0.0
H3007 H 0.28917 0.27794 0.4319 0.0
H3008 H 0.35028 0.23721 0.38461 0.0
H3009 H 0.34246 0.22269 0.35346 0.0
H3010 H 0.33822 0.20375 0.37896 0.0
H3011 H 0.29258 0.18687 0.36298 0.0
H3012 H 0.29598 0.20489 0.33698 0.0
H3013 H 0.27307 0.20876 0.35695 0.0
H3014 H 0.29459 0.30249 0.39707 0.0
H3015 H 0.28982 0.31564 0.3551 0.0
H3016 H 0.30867 0.24718 0.32553 0.0
C3017 C 0.29766 0.20969 0.41399 0.0
C3018 C 0.28738 0.21527 0.43567 0.0
C3019 C 0.28497 0.24011 0.4423 0.0
C3020 C 0.29208 0.25922 0.42724 0.0
C3021 C 0.3015 0.25316 0.40552 0.0
C3022 C 0.30428 0.22899 0.39878 0.0
C3023 C 0.31075 0.22661 0.37258 0.0
C3024 C 0.33697 0.22229 0.37239 0.0
C3025 C 0.29198 0.20556 0.35644 0.0
C3026 C 0.30915 0.25251 0.36507 0.0
C3027 C 0.30472 0.2678 0.38472 0.0
C3028 C 0.29889 0.29113 0.38171 0.0
C3029 C 0.29627 0.29851 0.35787 0.0
C3030 C 0.29962 0.28269 0.33747 0.0
C3031 C 0.30717 0.25998 0.34114 0.0
H3032 H 0.39278 0.63124 0.50725 0.0
H3033 H 0.3716 0.61458 0.57949 0.0
H3034 H 0.40272 0.5892 0.58441 0.0
H3035 H 0.40293 0.57077 0.4888 0.0
H3036 H 0.42967 0.5814 0.47348 0.0
H3037 H 0.40717 0.60053 0.47574 0.0
H3038 H 0.441 0.63792 0.49658 0.0
H3039 H 0.46361 0.61886 0.4944 0.0
H3040 H 0.45993 0.63377 0.52389 0.0
H3041 H 0.43165 0.5622 0.58065 0.0
H3042 H 0.45937 0.53535 0.56916 0.0
H3043 H 0.46646 0.56928 0.50021 0.0
C3044 C 0.39499 0.62253 0.52421 0.0
C3045 C 0.37951 0.62501 0.54298 0.0
C3046 C 0.38296 0.61306 0.56478 0.0
C3047 C 0.40073 0.5986 0.56783 0.0
C3048 C 0.41532 0.59618 0.54904 0.0
C3049 C 0.413 0.60788 0.52769 0.0
C3050 C 0.43077 0.60088 0.51018 0.0
C3051 C 0.41679 0.58761 0.48559 0.0
C3052 C 0.44996 0.62425 0.50601 0.0
C3053 C 0.44265 0.58282 0.5248 0.0
C3054 C 0.43332 0.58073 0.5472 0.0
C3055 C 0.43949 0.56404 0.56341 0.0
C3056 C 0.45539 0.54882 0.55663 0.0
C3057 C 0.46577 0.55053 0.53405 0.0
C3058 C 0.45946 0.56803 0.51791 0.0
H3059 H 0.85598 0.94733 0.57608 0.0
H3060 H 0.81778 0.00684 0.56014 0.0
H3061 H 0.85716 0.0347 0.55402 0.0
H3062 H 0.9133 0.98961 0.60864 0.0
H3063 H 0.93214 0.96974 0.59622 0.0
H3064 H 0.90149 0.95615 0.60242 0.0
H3065 H 0.89125 0.93612 0.55713 0.0
H3066 H 0.92165 0.94998 0.55069 0.0
H3067 H 0.89535 0.95606 0.53238 0.0
H3068 H 0.89947 0.0528 0.54251 0.0
H3069 H 0.9425 0.06204 0.53266 0.0
H3070 H 0.95261 0.99142 0.55907 0.0
C3071 C 0.85607 0.96648 0.57201 0.0
C3072 C 0.83407 0.97509 0.56858 0.0
C3073 C 0.83463 1.00013 0.5631 0.0
C3074 C 0.85684 0.01598 0.55948 0.0
C3075 C 0.87818 0.00656 0.56206 0.0
C3076 C 0.87803 0.98261 0.56887 0.0
C3077 C 0.90311 0.97645 0.5694 0.0
C3078 C 0.9131 0.97278 0.59574 0.0
C3079 C 0.9028 0.9533 0.55132 0.0
C3080 C 0.91722 1.00025 0.56082 0.0
C3081 C 0.90262 0.01744 0.5566 0.0
C3082 C 0.91125 0.03979 0.54637 0.0
C3083 C 0.93554 0.04478 0.54064 0.0
C3084 C 0.95077 0.02757 0.54544 0.0
C3085 C 0.94147 0.00517 0.55574 0.0
H3086 H 0.80666 0.11786 0.2153 0.0
H3087 H 0.85813 0.12904 0.28179 0.0
H3088 H 0.84076 0.1646 0.29732 0.0
H3089 H 0.8099 0.18176 0.20875 0.0
H3090 H 0.77792 0.17875 0.19761 0.0
H3091 H 0.79264 0.15275 0.19217 0.0
H3092 H 0.76057 0.12362 0.21361 0.0
H3093 H 0.74497 0.14903 0.21867 0.0
H3094 H 0.75485 0.13323 0.24434 0.0
H3095 H 0.81799 0.19981 0.30521 0.0
H3096 H 0.7932 0.23255 0.30374 0.0
H3097 H 0.75767 0.19898 0.2316 0.0
C3098 C 0.8142 0.12764 0.23322 0.0
C3099 C 0.83379 0.12057 0.24731 0.0
C3100 C 0.84313 0.13402 0.27063 0.0
C3101 C 0.83331 0.15422 0.27966 0.0
C3102 C 0.81401 0.16069 0.26527 0.0
C3103 C 0.80454 0.14774 0.24256 0.0
C3104 C 0.78453 0.15907 0.23021 0.0
C3105 C 0.79164 0.16865 0.2057 0.0
C3106 C 0.75976 0.14011 0.2265 0.0
C3107 C 0.78441 0.18067 0.24928 0.0
C3108 C 0.80135 0.18114 0.26953 0.0
C3109 C 0.80469 0.19958 0.28942 0.0
C3110 C 0.7906 0.21815 0.2884 0.0
C3111 C 0.77378 0.2185 0.26744 0.0
C3112 C 0.77042 0.19923 0.24786 0.0
H3113 H 0.71635 0.14987 0.98955 0.0
H3114 H 0.75279 0.10322 0.03483 0.0
H3115 H 0.71257 0.0782 0.0416 0.0
H3116 H 0.66926 0.15336 0.0253 0.0
H3117 H 0.64549 0.15148 1.00012 0.0
H3118 H 0.67698 0.16405 0.99612 0.0
H3119 H 0.6741 0.13133 0.95853 0.0
H3120 H 0.64244 0.11883 0.9622 0.0
H3121 H 0.66387 0.0983 0.96181 0.0
H3122 H 0.6691 0.06208 0.04825 0.0
H3123 H 0.62454 0.05285 0.05091 0.0
H3124 H 0.6154 0.10829 0.99992 0.0
C3125 C 0.71592 0.134 1.00038 0.0
C3126 C 0.73785 0.12856 0.01164 0.0
C3127 C 0.73636 0.10776 0.0259 0.0
C3128 C 0.71355 0.09344 0.02991 0.0
C3129 C 0.69235 0.09987 0.01928 0.0
C3130 C 0.69326 0.11934 1.00443 0.0
C3131 C 0.66766 0.12298 0.99614 0.0
C3132 C 0.66468 0.14954 1.00495 0.0
C3133 C 0.66167 0.11753 0.968 0.0
C3134 C 0.6523 0.10306 0.00933 0.0
C3135 C 0.66698 0.08996 0.02255 0.0
C3136 C 0.65736 0.07186 0.03762 0.0
C3137 C 0.63206 0.06687 0.03912 0.0
C3138 C 0.61659 0.07975 0.0255 0.0
C3139 C 0.62682 0.09795 0.01027 0.0
H3140 H 0.19069 0.43471 0.2379 0.0
H3141 H 0.15933 0.42382 0.3067 0.0
H3142 H 0.18403 0.39203 0.3152 0.0
H3143 H 0.19265 0.36873 0.22247 0.0
H3144 H 0.22112 0.37656 0.20927 0.0
H3145 H 0.20034 0.39775 0.20841 0.0
H3146 H 0.23536 0.43371 0.23017 0.0
H3147 H 0.25605 0.41244 0.23132 0.0
H3148 H 0.25119 0.42941 0.25931 0.0
H3149 H 0.21362 0.36248 0.317 0.0
H3150 H 0.24388 0.33593 0.31071 0.0
H3151 H 0.25535 0.36549 0.24046 0.0
C3152 C 0.18889 0.42556 0.25471 0.0
C3153 C 0.17305 0.43187 0.27168 0.0
C3154 C 0.17126 0.41934 0.2934 0.0
C3155 C 0.18527 0.40127 0.29841 0.0
C3156 C 0.20091 0.39573 0.28145 0.0
C3157 C 0.2026 0.40733 0.2599 0.0
C3158 C 0.22079 0.39799 0.2447 0.0
C3159 C 0.20795 0.38446 0.21974 0.0
C3160 C 0.24211 0.41968 0.24118 0.0
C3161 C 0.22937 0.37963 0.26123 0.0
C3162 C 0.21766 0.37856 0.28234 0.0
C3163 C 0.22275 0.36308 0.30046 0.0
C3164 C 0.23995 0.34807 0.29675 0.0
C3165 C 0.25181 0.34855 0.27507 0.0
C3166 C 0.24659 0.36477 0.25725 0.0
H3167 H 0.19006 0.48331 0.07386 0.0
H3168 H 0.22304 0.47969 1.00565 0.0
H3169 H 0.1925 0.50149 0.98602 0.0
H3170 H 0.12894 0.46848 0.04557 0.0
H3171 H 0.11812 0.48841 0.06782 0.0
H3172 H 0.14405 0.475 0.0767 0.0
H3173 H 0.17014 0.51969 0.09128 0.0
H3174 H 0.14426 0.53322 0.08227 0.0
H3175 H 0.17297 0.54361 0.0701 0.0
H3176 H 0.1574 0.52355 0.97407 0.0
H3177 H 0.11839 0.53886 0.9697 0.0
H3178 H 0.10795 0.52428 0.04501 0.0
C3179 C 0.19109 0.48744 0.0549 0.0
C3180 C 0.20899 0.48023 0.0413 0.0
C3181 C 0.20942 0.48526 0.01634 0.0
C3182 C 0.19229 0.49773 1.00513 0.0
C3183 C 0.17477 0.5046 0.01912 0.0
C3184 C 0.17391 0.49927 0.04338 0.0
C3185 C 0.15214 0.50644 0.05391 0.0
C3186 C 0.13479 0.4832 0.06142 0.0
C3187 C 0.16038 0.52697 0.07567 0.0
C3188 C 0.14072 0.51654 0.03179 0.0
C3189 C 0.15417 0.51586 0.01197 0.0
C3190 C 0.14677 0.52418 0.98948 0.0
C3191 C 0.12478 0.53291 0.98715 0.0
C3192 C 0.11055 0.53264 0.00707 0.0
C3193 C 0.11874 0.52464 0.0296 0.0
H3194 H 0.82895 0.97422 0.21659 0.0
H3195 H 0.83397 0.00764 0.29183 0.0
H3196 H 0.81266 0.96706 0.30414 0.0
H3197 H 0.76875 0.9294 0.21576 0.0
H3198 H 0.7783 0.90458 0.19815 0.0
H3199 H 0.79085 0.93703 0.1942 0.0
H3200 H 0.83477 0.92956 0.20414 0.0
H3201 H 0.82236 0.89717 0.20825 0.0
H3202 H 0.8428 0.91707 0.23266 0.0
H3203 H 0.79422 0.923 0.30937 0.0
H3204 H 0.78035 0.87712 0.30773 0.0
H3205 H 0.78817 0.8703 0.22946 0.0
C3206 C 0.82488 0.97303 0.23545 0.0
C3207 C 0.83271 0.9941 0.25325 0.0
C3208 C 0.8279 0.99175 0.27795 0.0
C3209 C 0.81577 0.96881 0.28509 0.0
C3210 C 0.80875 0.94822 0.26735 0.0
C3211 C 0.8131 0.94997 0.24304 0.0
C3212 C 0.80559 0.92424 0.22836 0.0
C3213 C 0.78462 0.92379 0.2079 0.0
C3214 C 0.8277 0.91657 0.21773 0.0
C3215 C 0.79683 0.90783 0.24835 0.0
C3216 C 0.79857 0.92222 0.27057 0.0
C3217 C 0.79257 0.91151 0.29204 0.0
C3218 C 0.78478 0.88534 0.2909 0.0
C3219 C 0.78314 0.86996 0.26847 0.0
C3220 C 0.78901 0.88149 0.24684 0.0
H3221 H 0.69121 0.06375 0.76382 0.0
H3222 H 0.66516 0.07184 0.83535 0.0
H3223 H 0.6891 0.11563 0.84239 0.0
H3224 H 0.75336 0.10633 0.7798 0.0
H3225 H 0.75207 0.11914 0.75041 0.0
H3226 H 0.73669 0.08711 0.75281 0.0
H3227 H 0.6959 0.09669 0.73359 0.0
H3228 H 0.71106 0.12871 0.73129 0.0
H3229 H 0.68446 0.12226 0.74769 0.0
H3230 H 0.71154 0.15932 0.83989 0.0
H3231 H 0.72998 0.20085 0.82741 0.0
H3232 H 0.74055 0.16574 0.75676 0.0
C3233 C 0.69131 0.07454 0.78129 0.0
C3234 C 0.67679 0.0644 0.79929 0.0
C3235 C 0.67644 0.07928 0.82151 0.0
C3236 C 0.69002 0.1041 0.82568 0.0
C3237 C 0.70365 0.11384 0.80731 0.0
C3238 C 0.70441 0.09959 0.78552 0.0
C3239 C 0.71807 0.11556 0.76764 0.0
C3240 C 0.74144 0.10649 0.76236 0.0
C3241 C 0.70137 0.11581 0.74365 0.0
C3242 C 0.72424 0.1411 0.78253 0.0
C3243 C 0.71613 0.13951 0.80553 0.0
C3244 C 0.71835 0.16073 0.82211 0.0
C3245 C 0.72888 0.18424 0.8149 0.0
C3246 C 0.73694 0.18641 0.79133 0.0
C3247 C 0.73485 0.16453 0.77504 0.0
loop_
_geom_bond_atom_site_label_1
_geom_bond_atom_site_label_2
_geom_bond_distance
_geom_bond_site_symmetry_2
_ccdc_geom_bond_type
O0 Cd1 2.223 . S
O0 C8 1.315 . S
Cd1 O0 2.223 . S
Cd1 O4 2.297 . S
Cd1 O5 2.439 . S
Cd1 O11 2.240 1_455 S
Cd2 O3 2.240 . S
Cd2 O10 2.223 1_455 S
Cd2 O12 2.289 1_455 S
Cd2 O13 2.439 . S
O3 Cd2 2.240 . S
O3 C8 1.279 . S
O4 Cd1 2.297 . S
O4 C6 1.247 . S
O5 Cd1 2.439 . S
O5 C6 1.208 . S
C6 O4 1.247 . S
C6 O5 1.208 . S
C7 O12 1.233 1_455 S
C7 O13 1.208 . S
C8 O0 1.315 . S
C8 O3 1.279 . S
C9 O10 1.315 . S
C9 O11 1.279 . S
O10 Cd2 2.223 1_655 S
O10 C9 1.315 . S
O11 Cd1 2.240 1_655 S
O11 C9 1.279 . S
O12 Cd2 2.289 1_655 S
O12 C7 1.233 1_655 S
O13 Cd2 2.439 . S
O13 C7 1.208 . S
O14 Cd15 2.227 . S
O14 C22 1.316 . S
Cd15 O14 2.227 . S
Cd15 O18 2.297 . S
Cd15 O19 2.439 . S
Cd15 O25 2.240 1_655 S
Cd16 O17 2.240 1_455 S
Cd16 O24 2.223 . S
Cd16 O26 2.297 . S
Cd16 O27 2.427 1_455 S
O17 Cd16 2.240 1_655 S
O17 C22 1.279 . S
O18 Cd15 2.297 . S
O18 C20 1.247 . S
O19 Cd15 2.439 . S
O19 C20 1.208 . S
C20 O18 1.247 . S
C20 O19 1.208 . S
C21 O26 1.247 . S
C21 O27 1.194 1_455 S
C22 O14 1.316 . S
C22 O17 1.279 . S
C23 O24 1.315 . S
C23 O25 1.279 . S
O24 Cd16 2.223 . S
O24 C23 1.315 . S
O25 Cd15 2.240 1_455 S
O25 C23 1.279 . S
O26 Cd16 2.297 . S
O26 C21 1.247 . S
O27 Cd16 2.427 1_655 S
O27 C21 1.194 1_655 S
O28 Cd29 2.223 . S
O28 C36 1.315 . S
Cd29 O28 2.223 . S
Cd29 O32 2.297 . S
Cd29 O33 2.439 . S
Cd29 O39 2.240 . S
Cd30 O31 2.240 . S
Cd30 O38 2.223 . S
Cd30 O40 2.297 . S
Cd30 O41 2.439 . S
O31 Cd30 2.240 . S
O31 C36 1.279 . S
O32 Cd29 2.297 . S
O32 C34 1.247 . S
O33 Cd29 2.439 . S
O33 C34 1.208 . S
C34 O32 1.247 . S
C34 O33 1.208 . S
C35 O40 1.247 . S
C35 O41 1.208 . S
C36 O28 1.315 . S
C36 O31 1.279 . S
C37 O38 1.315 . S
C37 O39 1.279 . S
O38 Cd30 2.223 . S
O38 C37 1.315 . S
O39 Cd29 2.240 . S
O39 C37 1.279 . S
O40 Cd30 2.297 . S
O40 C35 1.247 . S
O41 Cd30 2.439 . S
O41 C35 1.208 . S
O42 Cd43 2.223 . S
O42 C50 1.315 . S
Cd43 O42 2.223 . S
Cd43 O46 2.297 . S
Cd43 O47 2.439 . S
Cd43 O53 2.240 . S
Cd44 O45 2.240 . S
Cd44 O52 2.223 . S
Cd44 O54 2.297 . S
Cd44 O55 2.439 . S
O45 Cd44 2.240 . S
O45 C50 1.279 . S
O46 Cd43 2.297 . S
O46 C48 1.247 . S
O47 Cd43 2.439 . S
O47 C48 1.208 . S
C48 O46 1.247 . S
C48 O47 1.208 . S
C49 O54 1.247 . S
C49 O55 1.208 . S
C50 O42 1.315 . S
C50 O45 1.279 . S
C51 O52 1.315 . S
C51 O53 1.279 . S
O52 Cd44 2.223 . S
O52 C51 1.315 . S
O53 Cd43 2.240 . S
O53 C51 1.279 . S
O54 Cd44 2.297 . S
O54 C49 1.247 . S
O55 Cd44 2.439 . S
O55 C49 1.208 . S
O56 Cd57 2.223 . S
O56 C64 1.315 . S
Cd57 O56 2.223 . S
Cd57 O60 2.297 1_455 S
Cd57 O61 2.439 1_455 S
Cd57 O67 2.240 . S
Cd58 O59 2.240 1_455 S
Cd58 O66 2.223 . S
Cd58 O68 2.297 . S
Cd58 O69 2.439 . S
O59 Cd58 2.240 1_655 S
O59 C64 1.279 1_655 S
O60 Cd57 2.297 1_655 S
O60 C62 1.247 . S
O61 Cd57 2.439 1_655 S
O61 C62 1.208 . S
C62 O60 1.247 . S
C62 O61 1.208 . S
C63 O68 1.247 . S
C63 O69 1.208 . S
C64 O56 1.315 . S
C64 O59 1.279 1_455 S
C65 O66 1.315 . S
C65 O67 1.279 . S
O66 Cd58 2.223 . S
O66 C65 1.315 . S
O67 Cd57 2.240 . S
O67 C65 1.279 . S
O68 Cd58 2.297 . S
O68 C63 1.247 . S
O69 Cd58 2.439 . S
O69 C63 1.208 . S
O70 Cd71 2.223 . S
O70 C78 1.315 . S
Cd71 O70 2.223 . S
Cd71 O74 2.297 . S
Cd71 O75 2.439 . S
Cd71 O81 2.240 . S
Cd72 O73 2.240 . S
Cd72 O80 2.223 . S
Cd72 O82 2.297 . S
Cd72 O83 2.439 . S
O73 Cd72 2.240 . S
O73 C78 1.279 . S
O74 Cd71 2.297 . S
O74 C76 1.247 . S
O75 Cd71 2.439 . S
O75 C76 1.208 . S
C76 O74 1.247 . S
C76 O75 1.208 . S
C77 O82 1.247 . S
C77 O83 1.208 . S
C78 O70 1.315 . S
C78 O73 1.279 . S
C79 O80 1.315 . S
C79 O81 1.279 . S
O80 Cd72 2.223 . S
O80 C79 1.315 . S
O81 Cd71 2.240 . S
O81 C79 1.279 . S
O82 Cd72 2.297 . S
O82 C77 1.247 . S
O83 Cd72 2.439 . S
O83 C77 1.208 . S
O84 Cd85 2.223 . S
O84 C92 1.315 . S
Cd85 O84 2.223 . S
Cd85 O88 2.297 . S
Cd85 O89 2.439 . S
Cd85 O95 2.240 . S
Cd86 O87 2.240 . S
Cd86 O94 2.223 . S
Cd86 O96 2.297 . S
Cd86 O97 2.439 . S
O87 Cd86 2.240 . S
O87 C92 1.279 . S
O88 Cd85 2.297 . S
O88 C90 1.247 . S
O89 Cd85 2.439 . S
O89 C90 1.208 . S
C90 O88 1.247 . S
C90 O89 1.208 . S
C91 O96 1.247 . S
C91 O97 1.208 . S
C92 O84 1.315 . S
C92 O87 1.279 . S
C93 O94 1.315 . S
C93 O95 1.279 . S
O94 Cd86 2.223 . S
O94 C93 1.315 . S
O95 Cd85 2.240 . S
O95 C93 1.279 . S
O96 Cd86 2.297 . S
O96 C91 1.247 . S
O97 Cd86 2.439 . S
O97 C91 1.208 . S
O98 Cd99 2.223 . S
O98 C106 1.315 . S
Cd99 O98 2.223 . S
Cd99 O102 2.297 . S
Cd99 O103 2.439 . S
Cd99 O109 2.240 1_455 S
Cd100 O101 2.240 . S
Cd100 O108 2.223 1_455 S
Cd100 O110 2.297 1_455 S
Cd100 O111 2.439 . S
O101 Cd100 2.240 . S
O101 C106 1.279 . S
O102 Cd99 2.297 . S
O102 C104 1.247 . S
O103 Cd99 2.439 . S
O103 C104 1.208 . S
C104 O102 1.247 . S
C104 O103 1.208 . S
C105 O110 1.247 1_455 S
C105 O111 1.208 . S
C106 O98 1.315 . S
C106 O101 1.279 . S
C107 O108 1.315 . S
C107 O109 1.279 . S
O108 Cd100 2.223 1_655 S
O108 C107 1.315 . S
O109 Cd99 2.240 1_655 S
O109 C107 1.279 . S
O110 Cd100 2.297 1_655 S
O110 C105 1.247 1_655 S
O111 Cd100 2.439 . S
O111 C105 1.208 . S
O112 Cd113 2.223 . S
O112 C120 1.315 . S
Cd113 O112 2.223 . S
Cd113 O116 2.297 . S
Cd113 O117 2.439 . S
Cd113 O123 2.240 . S
Cd114 O115 2.240 . S
Cd114 O122 2.223 . S
Cd114 O124 2.297 . S
Cd114 O125 2.439 . S
O115 Cd114 2.240 . S
O115 C120 1.279 . S
O116 Cd113 2.297 . S
O116 C118 1.247 . S
O117 Cd113 2.439 . S
O117 C118 1.208 . S
C118 O116 1.247 . S
C118 O117 1.208 . S
C119 O124 1.247 . S
C119 O125 1.208 . S
C120 O112 1.315 . S
C120 O115 1.279 . S
C121 O122 1.315 . S
C121 O123 1.279 . S
O122 Cd114 2.223 . S
O122 C121 1.315 . S
O123 Cd113 2.240 . S
O123 C121 1.279 . S
O124 Cd114 2.297 . S
O124 C119 1.247 . S
O125 Cd114 2.439 . S
O125 C119 1.208 . S
O126 Cd127 2.223 . S
O126 C134 1.315 . S
Cd127 O126 2.223 . S
Cd127 O130 2.297 . S
Cd127 O131 2.439 . S
Cd127 O137 2.240 . S
Cd128 O129 2.240 . S
Cd128 O136 2.223 . S
Cd128 O138 2.297 . S
Cd128 O139 2.439 . S
O129 Cd128 2.240 . S
O129 C134 1.279 . S
O130 Cd127 2.297 . S
O130 C132 1.247 . S
O131 Cd127 2.439 . S
O131 C132 1.208 . S
C132 O130 1.247 . S
C132 O131 1.208 . S
C133 O138 1.247 . S
C133 O139 1.208 . S
C134 O126 1.315 . S
C134 O129 1.279 . S
C135 O136 1.315 . S
C135 O137 1.279 . S
O136 Cd128 2.223 . S
O136 C135 1.315 . S
O137 Cd127 2.240 . S
O137 C135 1.279 . S
O138 Cd128 2.297 . S
O138 C133 1.247 . S
O139 Cd128 2.439 . S
O139 C133 1.208 . S
O140 Cd141 2.223 1_545 S
O140 C148 1.315 1_545 S
Cd141 O140 2.223 1_565 S
Cd141 O144 2.297 . S
Cd141 O145 2.439 . S
Cd141 O151 2.240 1_565 S
Cd142 O143 2.240 1_545 S
Cd142 O150 2.223 . S
Cd142 O152 2.297 . S
Cd142 O153 2.439 1_545 S
O143 Cd142 2.240 1_565 S
O143 C148 1.279 . S
O144 Cd141 2.297 . S
O144 C146 1.247 . S
O145 Cd141 2.439 . S
O145 C146 1.208 . S
C146 O144 1.247 . S
C146 O145 1.208 . S
C147 O152 1.247 . S
C147 O153 1.208 1_545 S
C148 O140 1.315 1_565 S
C148 O143 1.279 . S
C149 O150 1.315 . S
C149 O151 1.279 . S
O150 Cd142 2.223 . S
O150 C149 1.315 . S
O151 Cd141 2.240 1_545 S
O151 C149 1.279 . S
O152 Cd142 2.297 . S
O152 C147 1.247 . S
O153 Cd142 2.439 1_565 S
O153 C147 1.208 1_565 S
O154 Cd155 2.223 . S
O154 C162 1.315 . S
Cd155 O154 2.223 . S
Cd155 O158 2.297 . S
Cd155 O159 2.439 . S
Cd155 O165 2.240 . S
Cd156 O157 2.240 . S
Cd156 O164 2.223 . S
Cd156 O166 2.297 1_554 S
Cd156 O167 2.439 1_554 S
O157 Cd156 2.240 . S
O157 C162 1.279 . S
O158 Cd155 2.297 . S
O158 C160 1.247 . S
O159 Cd155 2.439 . S
O159 C160 1.208 . S
C160 O158 1.247 . S
C160 O159 1.208 . S
C161 O166 1.247 . S
C161 O167 1.208 . S
C162 O154 1.315 . S
C162 O157 1.279 . S
C163 O164 1.315 . S
C163 O165 1.279 . S
O164 Cd156 2.223 . S
O164 C163 1.315 . S
O165 Cd155 2.240 . S
O165 C163 1.279 . S
O166 Cd156 2.297 1_556 S
O166 C161 1.247 . S
O167 Cd156 2.439 1_556 S
O167 C161 1.208 . S
O168 Cd169 2.223 . S
O168 C176 1.315 . S
Cd169 O168 2.223 . S
Cd169 O172 2.297 . S
Cd169 O173 2.439 . S
Cd169 O179 2.240 . S
Cd170 O171 2.240 . S
Cd170 O178 2.223 . S
Cd170 O180 2.297 1_554 S
Cd170 O181 2.439 1_554 S
O171 Cd170 2.240 . S
O171 C176 1.279 . S
O172 Cd169 2.297 . S
O172 C174 1.247 . S
O173 Cd169 2.439 . S
O173 C174 1.208 . S
C174 O172 1.247 . S
C174 O173 1.208 . S
C175 O180 1.247 . S
C175 O181 1.208 . S
C176 O168 1.315 . S
C176 O171 1.279 . S
C177 O178 1.315 . S
C177 O179 1.279 . S
O178 Cd170 2.223 . S
O178 C177 1.315 . S
O179 Cd169 2.240 . S
O179 C177 1.279 . S
O180 Cd170 2.297 1_556 S
O180 C175 1.247 . S
O181 Cd170 2.439 1_556 S
O181 C175 1.208 . S
O182 Cd183 2.223 . S
O182 C190 1.315 . S
Cd183 O182 2.223 . S
Cd183 O186 2.297 . S
Cd183 O187 2.439 1_554 S
Cd183 O193 2.240 1_554 S
Cd184 O185 2.240 1_556 S
Cd184 O192 2.223 1_556 S
Cd184 O194 2.297 . S
Cd184 O195 2.439 . S
O185 Cd184 2.240 1_554 S
O185 C190 1.279 . S
O186 Cd183 2.297 . S
O186 C188 1.247 . S
O187 Cd183 2.439 1_556 S
O187 C188 1.208 1_556 S
C188 O186 1.247 . S
C188 O187 1.208 1_554 S
C189 O194 1.247 . S
C189 O195 1.208 . S
C190 O182 1.315 . S
C190 O185 1.279 . S
C191 O192 1.315 1_556 S
C191 O193 1.279 . S
O192 Cd184 2.223 1_554 S
O192 C191 1.315 1_554 S
O193 Cd183 2.240 1_556 S
O193 C191 1.279 . S
O194 Cd184 2.297 . S
O194 C189 1.247 . S
O195 Cd184 2.439 . S
O195 C189 1.208 . S
O196 Cd197 2.223 . S
O196 C204 1.315 . S
Cd197 O196 2.223 . S
Cd197 O200 2.297 . S
Cd197 O201 2.439 . S
Cd197 O207 2.240 . S
Cd198 O199 2.240 . S
Cd198 O206 2.223 . S
Cd198 O208 2.297 . S
Cd198 O209 2.439 . S
O199 Cd198 2.240 . S
O199 C204 1.279 . S
O200 Cd197 2.297 . S
O200 C202 1.247 . S
O201 Cd197 2.439 . S
O201 C202 1.208 . S
C202 O200 1.247 . S
C202 O201 1.208 . S
C203 O208 1.247 . S
C203 O209 1.208 . S
C204 O196 1.315 . S
C204 O199 1.279 . S
C205 O206 1.315 . S
C205 O207 1.279 . S
O206 Cd198 2.223 . S
O206 C205 1.315 . S
O207 Cd197 2.240 . S
O207 C205 1.279 . S
O208 Cd198 2.297 . S
O208 C203 1.247 . S
O209 Cd198 2.439 . S
O209 C203 1.208 . S
O210 Cd211 2.223 . S
O210 C218 1.315 . S
Cd211 O210 2.223 . S
Cd211 O214 2.297 . S
Cd211 O215 2.439 . S
Cd211 O221 2.240 . S
Cd212 O213 2.240 . S
Cd212 O220 2.223 . S
Cd212 O222 2.297 . S
Cd212 O223 2.439 . S
O213 Cd212 2.240 . S
O213 C218 1.279 . S
O214 Cd211 2.297 . S
O214 C216 1.247 . S
O215 Cd211 2.439 . S
O215 C216 1.208 . S
C216 O214 1.247 . S
C216 O215 1.208 . S
C217 O222 1.247 . S
C217 O223 1.208 . S
C218 O210 1.315 . S
C218 O213 1.279 . S
C219 O220 1.315 . S
C219 O221 1.279 . S
O220 Cd212 2.223 . S
O220 C219 1.315 . S
O221 Cd211 2.240 . S
O221 C219 1.279 . S
O222 Cd212 2.297 . S
O222 C217 1.247 . S
O223 Cd212 2.439 . S
O223 C217 1.208 . S
O224 Cd225 2.223 . S
O224 C232 1.315 . S
Cd225 O224 2.223 . S
Cd225 O228 2.297 . S
Cd225 O229 2.439 . S
Cd225 O235 2.240 . S
Cd226 O227 2.240 . S
Cd226 O234 2.223 . S
Cd226 O236 2.297 . S
Cd226 O237 2.439 . S
O227 Cd226 2.240 . S
O227 C232 1.279 . S
O228 Cd225 2.297 . S
O228 C230 1.247 . S
O229 Cd225 2.439 . S
O229 C230 1.208 . S
C230 O228 1.247 . S
C230 O229 1.208 . S
C231 O236 1.247 . S
C231 O237 1.208 . S
C232 O224 1.315 . S
C232 O227 1.279 . S
C233 O234 1.315 . S
C233 O235 1.279 . S
O234 Cd226 2.223 . S
O234 C233 1.315 . S
O235 Cd225 2.240 . S
O235 C233 1.279 . S
O236 Cd226 2.297 . S
O236 C231 1.247 . S
O237 Cd226 2.439 . S
O237 C231 1.208 . S
O238 Cd239 2.223 . S
O238 C246 1.315 . S
Cd239 O238 2.223 . S
Cd239 O242 2.297 . S
Cd239 O243 2.439 . S
Cd239 O249 2.240 . S
Cd240 O241 2.240 . S
Cd240 O248 2.223 . S
Cd240 O250 2.297 . S
Cd240 O251 2.439 . S
O241 Cd240 2.240 . S
O241 C246 1.279 . S
O242 Cd239 2.297 . S
O242 C244 1.247 . S
O243 Cd239 2.439 . S
O243 C244 1.208 . S
C244 O242 1.247 . S
C244 O243 1.208 . S
C245 O250 1.247 . S
C245 O251 1.208 . S
C246 O238 1.315 . S
C246 O241 1.279 . S
C247 O248 1.315 . S
C247 O249 1.279 . S
O248 Cd240 2.223 . S
O248 C247 1.315 . S
O249 Cd239 2.240 . S
O249 C247 1.279 . S
O250 Cd240 2.297 . S
O250 C245 1.247 . S
O251 Cd240 2.439 . S
O251 C245 1.208 . S
O252 Cd253 2.223 . S
O252 C260 1.315 . S
Cd253 O252 2.223 . S
Cd253 O256 2.297 . S
Cd253 O257 2.439 . S
Cd253 O263 2.240 . S
Cd254 O255 2.240 . S
Cd254 O262 2.223 . S
Cd254 O264 2.297 . S
Cd254 O265 2.439 . S
O255 Cd254 2.240 . S
O255 C260 1.279 . S
O256 Cd253 2.297 . S
O256 C258 1.247 . S
O257 Cd253 2.439 . S
O257 C258 1.208 . S
C258 O256 1.247 . S
C258 O257 1.208 . S
C259 O264 1.247 . S
C259 O265 1.208 . S
C260 O252 1.315 . S
C260 O255 1.279 . S
C261 O262 1.315 . S
C261 O263 1.279 . S
O262 Cd254 2.223 . S
O262 C261 1.315 . S
O263 Cd253 2.240 . S
O263 C261 1.279 . S
O264 Cd254 2.297 . S
O264 C259 1.247 . S
O265 Cd254 2.439 . S
O265 C259 1.208 . S
O266 Cd267 2.223 . S
O266 C274 1.315 . S
Cd267 O266 2.223 . S
Cd267 O270 2.297 1_545 S
Cd267 O271 2.439 1_545 S
Cd267 O277 2.240 . S
Cd268 O269 2.240 . S
Cd268 O276 2.223 . S
Cd268 O278 2.297 . S
Cd268 O279 2.439 . S
O269 Cd268 2.240 . S
O269 C274 1.279 . S
O270 Cd267 2.297 1_565 S
O270 C272 1.247 . S
O271 Cd267 2.439 1_565 S
O271 C272 1.208 . S
C272 O270 1.247 . S
C272 O271 1.208 . S
C273 O278 1.247 . S
C273 O279 1.208 . S
C274 O266 1.315 . S
C274 O269 1.279 . S
C275 O276 1.315 . S
C275 O277 1.279 . S
O276 Cd268 2.223 . S
O276 C275 1.315 . S
O277 Cd267 2.240 . S
O277 C275 1.279 . S
O278 Cd268 2.297 . S
O278 C273 1.247 . S
O279 Cd268 2.439 . S
O279 C273 1.208 . S
O280 Cd281 2.223 . S
O280 C288 1.315 . S
Cd281 O280 2.223 . S
Cd281 O284 2.297 . S
Cd281 O285 2.439 . S
Cd281 O291 2.249 . S
Cd282 O283 2.240 . S
Cd282 O290 2.223 . S
Cd282 O292 2.297 1_554 S
Cd282 O293 2.439 1_554 S
O283 Cd282 2.240 . S
O283 C288 1.279 . S
O284 Cd281 2.297 . S
O284 C286 1.247 . S
O285 Cd281 2.439 . S
O285 C286 1.208 . S
C286 O284 1.247 . S
C286 O285 1.208 . S
C287 O292 1.247 . S
C287 O293 1.208 . S
C288 O280 1.315 . S
C288 O283 1.279 . S
C289 O290 1.315 . S
C289 O291 1.287 . S
O290 Cd282 2.223 . S
O290 C289 1.315 . S
O291 Cd281 2.249 . S
O291 C289 1.287 . S
O292 Cd282 2.297 1_556 S
O292 C287 1.247 . S
O293 Cd282 2.439 1_556 S
O293 C287 1.208 . S
O294 Cd295 2.223 . S
O294 C302 1.315 . S
Cd295 O294 2.223 . S
Cd295 O298 2.297 . S
Cd295 O299 2.439 . S
Cd295 O305 2.240 . S
Cd296 O297 2.240 . S
Cd296 O304 2.223 . S
Cd296 O306 2.297 . S
Cd296 O307 2.439 . S
O297 Cd296 2.240 . S
O297 C302 1.279 . S
O298 Cd295 2.297 . S
O298 C300 1.247 . S
O299 Cd295 2.439 . S
O299 C300 1.208 . S
C300 O298 1.247 . S
C300 O299 1.208 . S
C301 O306 1.247 . S
C301 O307 1.208 . S
C302 O294 1.315 . S
C302 O297 1.279 . S
C303 O304 1.315 . S
C303 O305 1.279 . S
O304 Cd296 2.223 . S
O304 C303 1.315 . S
O305 Cd295 2.240 . S
O305 C303 1.279 . S
O306 Cd296 2.297 . S
O306 C301 1.247 . S
O307 Cd296 2.439 . S
O307 C301 1.208 . S
O308 Cd309 2.223 . S
O308 C316 1.315 . S
Cd309 O308 2.223 . S
Cd309 O312 2.297 . S
Cd309 O313 2.439 . S
Cd309 O319 2.240 . S
Cd310 O311 2.240 . S
Cd310 O318 2.223 . S
Cd310 O320 2.297 . S
Cd310 O321 2.439 . S
O311 Cd310 2.240 . S
O311 C316 1.279 . S
O312 Cd309 2.297 . S
O312 C314 1.247 . S
O313 Cd309 2.439 . S
O313 C314 1.208 . S
C314 O312 1.247 . S
C314 O313 1.208 . S
C315 O320 1.247 . S
C315 O321 1.208 . S
C316 O308 1.315 . S
C316 O311 1.279 . S
C317 O318 1.315 . S
C317 O319 1.279 . S
O318 Cd310 2.223 . S
O318 C317 1.315 . S
O319 Cd309 2.240 . S
O319 C317 1.279 . S
O320 Cd310 2.297 . S
O320 C315 1.247 . S
O321 Cd310 2.439 . S
O321 C315 1.208 . S
O322 Cd323 2.223 . S
O322 C330 1.315 . S
Cd323 O322 2.223 . S
Cd323 O326 2.297 . S
Cd323 O327 2.439 . S
Cd323 O333 2.240 . S
Cd324 O325 2.240 . S
Cd324 O332 2.223 . S
Cd324 O334 2.297 . S
Cd324 O335 2.439 . S
O325 Cd324 2.240 . S
O325 C330 1.279 . S
O326 Cd323 2.297 . S
O326 C328 1.247 . S
O327 Cd323 2.439 . S
O327 C328 1.208 . S
C328 O326 1.247 . S
C328 O327 1.208 . S
C329 O334 1.247 . S
C329 O335 1.208 . S
C330 O322 1.315 . S
C330 O325 1.279 . S
C331 O332 1.315 . S
C331 O333 1.279 . S
O332 Cd324 2.223 . S
O332 C331 1.315 . S
O333 Cd323 2.240 . S
O333 C331 1.279 . S
O334 Cd324 2.297 . S
O334 C329 1.247 . S
O335 Cd324 2.439 . S
O335 C329 1.208 . S
Tb336 O339 2.453 . S
Tb336 O340 2.596 . S
Tb336 O341 2.374 1_554 S
Tb336 O349 2.343 1_455 S
Tb336 O351 2.353 . S
Tb336 O353 2.427 . S
Tb336 O354 2.513 1_554 S
C337 O341 1.251 . S
C337 O343 1.263 . S
Tb338 O340 2.343 1_655 S
Tb338 O343 2.353 1_654 S
Tb338 O346 2.427 1_645 S
Tb338 O347 2.513 1_645 S
Tb338 O348 2.453 . S
Tb338 O349 2.596 . S
Tb338 O350 2.374 . S
O339 Tb336 2.453 . S
O339 C355 1.245 . S
O340 Tb336 2.596 . S
O340 Tb338 2.343 1_455 S
O340 C355 1.259 . S
O341 Tb336 2.374 1_556 S
O341 C337 1.251 . S
C342 O346 1.275 . S
C342 O347 1.246 . S
O343 C337 1.263 . S
O343 Tb338 2.353 1_456 S
C344 O348 1.245 . S
C344 O349 1.259 . S
C345 O350 1.250 1_455 S
C345 O351 1.263 . S
O346 Tb338 2.427 1_465 S
O346 C342 1.275 . S
O347 Tb338 2.513 1_465 S
O347 C342 1.246 . S
O348 Tb338 2.453 . S
O348 C344 1.245 . S
O349 Tb336 2.343 1_655 S
O349 Tb338 2.596 . S
O349 C344 1.259 . S
O350 Tb338 2.374 . S
O350 C345 1.250 1_655 S
O351 Tb336 2.353 . S
O351 C345 1.263 . S
C352 O353 1.275 . S
C352 O354 1.246 1_554 S
O353 Tb336 2.427 . S
O353 C352 1.275 . S
O354 Tb336 2.513 1_556 S
O354 C352 1.246 1_556 S
C355 O339 1.245 . S
C355 O340 1.259 . S
Tb356 O359 2.453 . S
Tb356 O360 2.596 . S
Tb356 O361 2.374 . S
Tb356 O369 2.343 . S
Tb356 O371 2.353 . S
Tb356 O373 2.427 . S
Tb356 O374 2.513 . S
C357 O361 1.251 . S
C357 O363 1.263 . S
Tb358 O360 2.343 . S
Tb358 O363 2.353 . S
Tb358 O366 2.427 . S
Tb358 O367 2.513 . S
Tb358 O368 2.453 . S
Tb358 O369 2.596 . S
Tb358 O370 2.374 . S
O359 Tb356 2.453 . S
O359 C375 1.245 . S
O360 Tb356 2.596 . S
O360 Tb358 2.343 . S
O360 C375 1.259 . S
O361 Tb356 2.374 . S
O361 C357 1.251 . S
C362 O366 1.275 . S
C362 O367 1.246 . S
O363 C357 1.263 . S
O363 Tb358 2.353 . S
C364 O368 1.245 . S
C364 O369 1.259 . S
C365 O370 1.250 . S
C365 O371 1.263 . S
O366 Tb358 2.427 . S
O366 C362 1.275 . S
O367 Tb358 2.513 . S
O367 C362 1.246 . S
O368 Tb358 2.453 . S
O368 C364 1.245 . S
O369 Tb356 2.343 . S
O369 Tb358 2.596 . S
O369 C364 1.259 . S
O370 Tb358 2.374 . S
O370 C365 1.250 . S
O371 Tb356 2.353 . S
O371 C365 1.263 . S
C372 O373 1.275 . S
C372 O374 1.246 . S
O373 Tb356 2.427 . S
O373 C372 1.275 . S
O374 Tb356 2.513 . S
O374 C372 1.246 . S
C375 O359 1.245 . S
C375 O360 1.259 . S
Tb376 O379 2.453 . S
Tb376 O380 2.596 . S
Tb376 O381 2.374 . S
Tb376 O389 2.343 . S
Tb376 O391 2.353 . S
Tb376 O393 2.427 . S
Tb376 O394 2.513 . S
C377 O381 1.251 . S
C377 O383 1.263 . S
Tb378 O380 2.343 . S
Tb378 O383 2.353 . S
Tb378 O386 2.427 . S
Tb378 O387 2.513 . S
Tb378 O388 2.453 1_545 S
Tb378 O389 2.596 . S
Tb378 O390 2.374 . S
O379 Tb376 2.453 . S
O379 C395 1.245 . S
O380 Tb376 2.596 . S
O380 Tb378 2.343 . S
O380 C395 1.259 . S
O381 Tb376 2.374 . S
O381 C377 1.251 . S
C382 O386 1.275 . S
C382 O387 1.246 . S
O383 C377 1.263 . S
O383 Tb378 2.353 . S
C384 O388 1.245 . S
C384 O389 1.259 1_565 S
C385 O390 1.250 . S
C385 O391 1.263 . S
O386 Tb378 2.427 . S
O386 C382 1.275 . S
O387 Tb378 2.513 . S
O387 C382 1.246 . S
O388 Tb378 2.453 1_565 S
O388 C384 1.245 . S
O389 Tb376 2.343 . S
O389 Tb378 2.596 . S
O389 C384 1.259 1_545 S
O390 Tb378 2.374 . S
O390 C385 1.250 . S
O391 Tb376 2.353 . S
O391 C385 1.263 . S
C392 O393 1.275 . S
C392 O394 1.246 . S
O393 Tb376 2.427 . S
O393 C392 1.275 . S
O394 Tb376 2.513 . S
O394 C392 1.246 . S
C395 O379 1.245 . S
C395 O380 1.259 . S
Tb396 O399 2.453 . S
Tb396 O400 2.596 . S
Tb396 O401 2.374 . S
Tb396 O409 2.343 . S
Tb396 O411 2.353 . S
Tb396 O413 2.427 . S
Tb396 O414 2.513 . S
C397 O401 1.251 . S
C397 O403 1.263 . S
Tb398 O400 2.343 . S
Tb398 O403 2.353 . S
Tb398 O406 2.427 . S
Tb398 O407 2.513 . S
Tb398 O408 2.453 . S
Tb398 O409 2.596 . S
Tb398 O410 2.374 . S
O399 Tb396 2.453 . S
O399 C415 1.245 . S
O400 Tb396 2.596 . S
O400 Tb398 2.343 . S
O400 C415 1.259 . S
O401 Tb396 2.374 . S
O401 C397 1.251 . S
C402 O406 1.275 . S
C402 O407 1.246 . S
O403 C397 1.263 . S
O403 Tb398 2.353 . S
C404 O408 1.245 . S
C404 O409 1.259 . S
C405 O410 1.250 . S
C405 O411 1.263 . S
O406 Tb398 2.427 . S
O406 C402 1.275 . S
O407 Tb398 2.513 . S
O407 C402 1.246 . S
O408 Tb398 2.453 . S
O408 C404 1.245 . S
O409 Tb396 2.343 . S
O409 Tb398 2.596 . S
O409 C404 1.259 . S
O410 Tb398 2.374 . S
O410 C405 1.250 . S
O411 Tb396 2.353 . S
O411 C405 1.263 . S
C412 O413 1.275 . S
C412 O414 1.246 . S
O413 Tb396 2.427 . S
O413 C412 1.275 . S
O414 Tb396 2.513 . S
O414 C412 1.246 . S
C415 O399 1.245 . S
C415 O400 1.259 . S
Tb416 O419 2.453 1_545 S
Tb416 O420 2.596 . S
Tb416 O421 2.374 1_455 S
Tb416 O429 2.343 . S
Tb416 O431 2.353 . S
Tb416 O433 2.427 . S
Tb416 O434 2.513 1_455 S
C417 O421 1.251 . S
C417 O423 1.263 . S
Tb418 O420 2.343 . S
Tb418 O423 2.353 1_455 S
Tb418 O426 2.427 . S
Tb418 O427 2.513 . S
Tb418 O428 2.453 . S
Tb418 O429 2.596 . S
Tb418 O430 2.374 . S
O419 Tb416 2.453 1_565 S
O419 C435 1.245 . S
O420 Tb416 2.596 . S
O420 Tb418 2.343 . S
O420 C435 1.259 1_545 S
O421 Tb416 2.374 1_655 S
O421 C417 1.251 . S
C422 O426 1.275 . S
C422 O427 1.246 . S
O423 C417 1.263 . S
O423 Tb418 2.353 1_655 S
C424 O428 1.245 . S
C424 O429 1.259 . S
C425 O430 1.250 . S
C425 O431 1.263 . S
O426 Tb418 2.427 . S
O426 C422 1.275 . S
O427 Tb418 2.513 . S
O427 C422 1.246 . S
O428 Tb418 2.453 . S
O428 C424 1.245 . S
O429 Tb416 2.343 . S
O429 Tb418 2.596 . S
O429 C424 1.259 . S
O430 Tb418 2.374 . S
O430 C425 1.250 . S
O431 Tb416 2.353 . S
O431 C425 1.263 . S
C432 O433 1.275 1_655 S
C432 O434 1.246 . S
O433 Tb416 2.427 . S
O433 C432 1.275 1_455 S
O434 Tb416 2.513 1_655 S
O434 C432 1.246 . S
C435 O419 1.245 . S
C435 O420 1.259 1_565 S
Tb436 O439 2.453 . S
Tb436 O440 2.596 . S
Tb436 O441 2.374 . S
Tb436 O449 2.343 . S
Tb436 O451 2.353 . S
Tb436 O453 2.427 . S
Tb436 O454 2.513 . S
C437 O441 1.251 . S
C437 O443 1.263 . S
Tb438 O440 2.343 . S
Tb438 O443 2.353 . S
Tb438 O446 2.427 . S
Tb438 O447 2.513 . S
Tb438 O448 2.453 . S
Tb438 O449 2.596 . S
Tb438 O450 2.374 . S
O439 Tb436 2.453 . S
O439 C455 1.245 . S
O440 Tb436 2.596 . S
O440 Tb438 2.343 . S
O440 C455 1.259 . S
O441 Tb436 2.374 . S
O441 C437 1.251 . S
C442 O446 1.275 . S
C442 O447 1.246 . S
O443 C437 1.263 . S
O443 Tb438 2.353 . S
C444 O448 1.245 . S
C444 O449 1.259 . S
C445 O450 1.250 . S
C445 O451 1.263 . S
O446 Tb438 2.427 . S
O446 C442 1.275 . S
O447 Tb438 2.513 . S
O447 C442 1.246 . S
O448 Tb438 2.453 . S
O448 C444 1.245 . S
O449 Tb436 2.343 . S
O449 Tb438 2.596 . S
O449 C444 1.259 . S
O450 Tb438 2.374 . S
O450 C445 1.250 . S
O451 Tb436 2.353 . S
O451 C445 1.263 . S
C452 O453 1.275 . S
C452 O454 1.246 . S
O453 Tb436 2.427 . S
O453 C452 1.275 . S
O454 Tb436 2.513 . S
O454 C452 1.246 . S
C455 O439 1.245 . S
C455 O440 1.259 . S
Tb456 O459 2.453 1_554 S
Tb456 O460 2.596 . S
Tb456 O461 2.374 1_545 S
Tb456 O469 2.343 . S
Tb456 O471 2.353 . S
Tb456 O473 2.427 . S
Tb456 O474 2.513 1_545 S
C457 O461 1.251 . S
C457 O463 1.263 . S
Tb458 O460 2.343 . S
Tb458 O463 2.353 1_545 S
Tb458 O466 2.427 . S
Tb458 O467 2.513 . S
Tb458 O468 2.453 . S
Tb458 O469 2.596 . S
Tb458 O470 2.374 . S
O459 Tb456 2.453 1_556 S
O459 C475 1.245 . S
O460 Tb456 2.596 . S
O460 Tb458 2.343 . S
O460 C475 1.259 1_554 S
O461 Tb456 2.374 1_565 S
O461 C457 1.251 . S
C462 O466 1.275 . S
C462 O467 1.246 . S
O463 C457 1.263 . S
O463 Tb458 2.353 1_565 S
C464 O468 1.245 . S
C464 O469 1.259 . S
C465 O470 1.250 . S
C465 O471 1.263 . S
O466 Tb458 2.427 . S
O466 C462 1.275 . S
O467 Tb458 2.513 . S
O467 C462 1.246 . S
O468 Tb458 2.453 . S
O468 C464 1.245 . S
O469 Tb456 2.343 . S
O469 Tb458 2.596 . S
O469 C464 1.259 . S
O470 Tb458 2.374 . S
O470 C465 1.250 . S
O471 Tb456 2.353 . S
O471 C465 1.263 . S
C472 O473 1.275 . S
C472 O474 1.246 1_545 S
O473 Tb456 2.427 . S
O473 C472 1.275 . S
O474 Tb456 2.513 1_565 S
O474 C472 1.246 1_565 S
C475 O459 1.245 . S
C475 O460 1.259 1_556 S
Tb476 O479 2.453 . S
Tb476 O480 2.596 . S
Tb476 O481 2.374 . S
Tb476 O489 2.343 . S
Tb476 O491 2.353 . S
Tb476 O493 2.427 . S
Tb476 O494 2.513 . S
C477 O481 1.251 . S
C477 O483 1.263 . S
Tb478 O480 2.343 . S
Tb478 O483 2.353 . S
Tb478 O486 2.427 . S
Tb478 O487 2.513 . S
Tb478 O488 2.453 . S
Tb478 O489 2.596 . S
Tb478 O490 2.374 . S
O479 Tb476 2.453 . S
O479 C495 1.245 . S
O480 Tb476 2.596 . S
O480 Tb478 2.343 . S
O480 C495 1.259 . S
O481 Tb476 2.374 . S
O481 C477 1.251 . S
C482 O486 1.275 . S
C482 O487 1.246 . S
O483 C477 1.263 . S
O483 Tb478 2.353 . S
C484 O488 1.245 . S
C484 O489 1.259 . S
C485 O490 1.250 . S
C485 O491 1.263 . S
O486 Tb478 2.427 . S
O486 C482 1.275 . S
O487 Tb478 2.513 . S
O487 C482 1.246 . S
O488 Tb478 2.453 . S
O488 C484 1.245 . S
O489 Tb476 2.343 . S
O489 Tb478 2.596 . S
O489 C484 1.259 . S
O490 Tb478 2.374 . S
O490 C485 1.250 . S
O491 Tb476 2.353 . S
O491 C485 1.263 . S
C492 O493 1.275 . S
C492 O494 1.246 . S
O493 Tb476 2.427 . S
O493 C492 1.275 . S
O494 Tb476 2.513 . S
O494 C492 1.246 . S
C495 O479 1.245 . S
C495 O480 1.259 . S
Tb496 O499 2.453 1_556 S
Tb496 O500 2.596 1_556 S
Tb496 O501 2.374 1_556 S
Tb496 O509 2.343 1_556 S
Tb496 O511 2.353 1_556 S
Tb496 O513 2.427 . S
Tb496 O514 2.513 . S
C497 O501 1.251 . S
C497 O503 1.263 . S
Tb498 O500 2.343 . S
Tb498 O503 2.353 . S
Tb498 O506 2.427 . S
Tb498 O507 2.513 . S
Tb498 O508 2.453 . S
Tb498 O509 2.596 . S
Tb498 O510 2.374 . S
O499 Tb496 2.453 1_554 S
O499 C515 1.245 . S
O500 Tb496 2.596 1_554 S
O500 Tb498 2.343 . S
O500 C515 1.259 . S
O501 Tb496 2.374 1_554 S
O501 C497 1.251 . S
C502 O506 1.275 . S
C502 O507 1.246 . S
O503 C497 1.263 . S
O503 Tb498 2.353 . S
C504 O508 1.245 . S
C504 O509 1.259 . S
C505 O510 1.250 . S
C505 O511 1.263 . S
O506 Tb498 2.427 . S
O506 C502 1.275 . S
O507 Tb498 2.513 . S
O507 C502 1.246 . S
O508 Tb498 2.453 . S
O508 C504 1.245 . S
O509 Tb496 2.343 1_554 S
O509 Tb498 2.596 . S
O509 C504 1.259 . S
O510 Tb498 2.374 . S
O510 C505 1.250 . S
O511 Tb496 2.353 1_554 S
O511 C505 1.263 . S
C512 O513 1.275 . S
C512 O514 1.246 . S
O513 Tb496 2.427 . S
O513 C512 1.275 . S
O514 Tb496 2.513 . S
O514 C512 1.246 . S
C515 O499 1.245 . S
C515 O500 1.259 . S
Tb516 O519 2.453 . S
Tb516 O520 2.596 . S
Tb516 O521 2.374 . S
Tb516 O529 2.343 . S
Tb516 O531 2.353 . S
Tb516 O533 2.427 . S
Tb516 O534 2.513 . S
C517 O521 1.251 . S
C517 O523 1.263 . S
Tb518 O520 2.343 . S
Tb518 O523 2.353 . S
Tb518 O526 2.427 . S
Tb518 O527 2.513 . S
Tb518 O528 2.453 . S
Tb518 O529 2.596 . S
Tb518 O530 2.374 . S
O519 Tb516 2.453 . S
O519 C535 1.245 . S
O520 Tb516 2.596 . S
O520 Tb518 2.343 . S
O520 C535 1.259 . S
O521 Tb516 2.374 . S
O521 C517 1.251 . S
C522 O526 1.275 . S
C522 O527 1.246 . S
O523 C517 1.263 . S
O523 Tb518 2.353 . S
C524 O528 1.245 . S
C524 O529 1.259 . S
C525 O530 1.250 . S
C525 O531 1.263 . S
O526 Tb518 2.427 . S
O526 C522 1.275 . S
O527 Tb518 2.513 . S
O527 C522 1.246 . S
O528 Tb518 2.453 . S
O528 C524 1.245 . S
O529 Tb516 2.343 . S
O529 Tb518 2.596 . S
O529 C524 1.259 . S
O530 Tb518 2.374 . S
O530 C525 1.250 . S
O531 Tb516 2.353 . S
O531 C525 1.263 . S
C532 O533 1.275 . S
C532 O534 1.246 . S
O533 Tb516 2.427 . S
O533 C532 1.275 . S
O534 Tb516 2.513 . S
O534 C532 1.246 . S
C535 O519 1.245 . S
C535 O520 1.259 . S
Tb536 O539 2.482 . S
Tb536 O540 2.596 1_655 S
Tb536 O541 2.374 . S
Tb536 O549 2.343 . S
Tb536 O551 2.353 . S
Tb536 O553 2.427 . S
Tb536 O554 2.513 . S
C537 O541 1.251 1_455 S
C537 O543 1.263 . S
Tb538 O540 2.343 . S
Tb538 O543 2.353 . S
Tb538 O546 2.427 . S
Tb538 O547 2.513 . S
Tb538 O548 2.453 . S
Tb538 O549 2.596 1_455 S
Tb538 O550 2.374 . S
O539 Tb536 2.482 . S
O539 C555 1.201 1_655 S
O540 Tb536 2.596 1_455 S
O540 Tb538 2.343 . S
O540 C555 1.259 . S
O541 Tb536 2.374 . S
O541 C537 1.251 1_655 S
C542 O546 1.275 . S
C542 O547 1.246 . S
O543 C537 1.263 . S
O543 Tb538 2.353 . S
C544 O548 1.245 1_655 S
C544 O549 1.259 . S
C545 O550 1.250 . S
C545 O551 1.263 1_455 S
O546 Tb538 2.427 . S
O546 C542 1.275 . S
O547 Tb538 2.513 . S
O547 C542 1.246 . S
O548 Tb538 2.453 . S
O548 C544 1.245 1_455 S
O549 Tb536 2.343 . S
O549 Tb538 2.596 1_655 S
O549 C544 1.259 . S
O550 Tb538 2.374 . S
O550 C545 1.250 . S
O551 Tb536 2.353 . S
O551 C545 1.263 1_655 S
C552 O553 1.275 . S
C552 O554 1.246 . S
O553 Tb536 2.427 . S
O553 C552 1.275 . S
O554 Tb536 2.513 . S
O554 C552 1.246 . S
C555 O539 1.201 1_455 S
C555 O540 1.259 . S
Tb556 O559 2.453 . S
Tb556 O560 2.596 . S
Tb556 O561 2.374 . S
Tb556 O569 2.343 . S
Tb556 O571 2.353 . S
Tb556 O573 2.427 . S
Tb556 O574 2.513 . S
C557 O561 1.251 . S
C557 O563 1.263 . S
Tb558 O560 2.343 . S
Tb558 O563 2.353 . S
Tb558 O566 2.427 . S
Tb558 O567 2.513 . S
Tb558 O568 2.453 . S
Tb558 O569 2.596 . S
Tb558 O570 2.374 . S
O559 Tb556 2.453 . S
O559 C575 1.245 . S
O560 Tb556 2.596 . S
O560 Tb558 2.343 . S
O560 C575 1.259 . S
O561 Tb556 2.374 . S
O561 C557 1.251 . S
C562 O566 1.275 . S
C562 O567 1.246 . S
O563 C557 1.263 . S
O563 Tb558 2.353 . S
C564 O568 1.245 . S
C564 O569 1.259 . S
C565 O570 1.250 . S
C565 O571 1.263 . S
O566 Tb558 2.427 . S
O566 C562 1.275 . S
O567 Tb558 2.513 . S
O567 C562 1.246 . S
O568 Tb558 2.453 . S
O568 C564 1.245 . S
O569 Tb556 2.343 . S
O569 Tb558 2.596 . S
O569 C564 1.259 . S
O570 Tb558 2.374 . S
O570 C565 1.250 . S
O571 Tb556 2.353 . S
O571 C565 1.263 . S
C572 O573 1.275 . S
C572 O574 1.246 . S
O573 Tb556 2.427 . S
O573 C572 1.275 . S
O574 Tb556 2.513 . S
O574 C572 1.246 . S
C575 O559 1.245 . S
C575 O560 1.259 . S
Tb576 O579 2.453 . S
Tb576 O580 2.596 . S
Tb576 O581 2.374 . S
Tb576 O589 2.343 . S
Tb576 O591 2.353 . S
Tb576 O593 2.427 . S
Tb576 O594 2.513 . S
C577 O581 1.251 . S
C577 O583 1.263 . S
Tb578 O580 2.343 . S
Tb578 O583 2.353 . S
Tb578 O586 2.427 . S
Tb578 O587 2.513 . S
Tb578 O588 2.453 . S
Tb578 O589 2.596 . S
Tb578 O590 2.374 . S
O579 Tb576 2.453 . S
O579 C595 1.245 . S
O580 Tb576 2.596 . S
O580 Tb578 2.343 . S
O580 C595 1.259 . S
O581 Tb576 2.374 . S
O581 C577 1.251 . S
C582 O586 1.275 . S
C582 O587 1.246 . S
O583 C577 1.263 . S
O583 Tb578 2.353 . S
C584 O588 1.245 . S
C584 O589 1.259 . S
C585 O590 1.250 . S
C585 O591 1.263 . S
O586 Tb578 2.427 . S
O586 C582 1.275 . S
O587 Tb578 2.513 . S
O587 C582 1.246 . S
O588 Tb578 2.453 . S
O588 C584 1.245 . S
O589 Tb576 2.343 . S
O589 Tb578 2.596 . S
O589 C584 1.259 . S
O590 Tb578 2.374 . S
O590 C585 1.250 . S
O591 Tb576 2.353 . S
O591 C585 1.263 . S
C592 O593 1.275 . S
C592 O594 1.246 . S
O593 Tb576 2.427 . S
O593 C592 1.275 . S
O594 Tb576 2.513 . S
O594 C592 1.246 . S
C595 O579 1.245 . S
C595 O580 1.259 . S
Tb596 O599 2.453 . S
Tb596 O600 2.596 . S
Tb596 O601 2.374 . S
Tb596 O609 2.343 . S
Tb596 O611 2.353 . S
Tb596 O613 2.427 . S
Tb596 O614 2.513 . S
C597 O601 1.251 . S
C597 O603 1.263 . S
Tb598 O600 2.343 . S
Tb598 O603 2.353 . S
Tb598 O606 2.427 . S
Tb598 O607 2.513 . S
Tb598 O608 2.453 . S
Tb598 O609 2.596 . S
Tb598 O610 2.374 . S
O599 Tb596 2.453 . S
O599 C615 1.245 . S
O600 Tb596 2.596 . S
O600 Tb598 2.343 . S
O600 C615 1.259 . S
O601 Tb596 2.374 . S
O601 C597 1.251 . S
C602 O606 1.275 . S
C602 O607 1.246 . S
O603 C597 1.263 . S
O603 Tb598 2.353 . S
C604 O608 1.245 . S
C604 O609 1.259 . S
C605 O610 1.250 . S
C605 O611 1.263 . S
O606 Tb598 2.427 . S
O606 C602 1.275 . S
O607 Tb598 2.513 . S
O607 C602 1.246 . S
O608 Tb598 2.453 . S
O608 C604 1.245 . S
O609 Tb596 2.343 . S
O609 Tb598 2.596 . S
O609 C604 1.259 . S
O610 Tb598 2.374 . S
O610 C605 1.250 . S
O611 Tb596 2.353 . S
O611 C605 1.263 . S
C612 O613 1.275 . S
C612 O614 1.246 . S
O613 Tb596 2.427 . S
O613 C612 1.275 . S
O614 Tb596 2.513 . S
O614 C612 1.246 . S
C615 O599 1.245 . S
C615 O600 1.259 . S
Tb616 O619 2.453 . S
Tb616 O620 2.596 . S
Tb616 O621 2.374 . S
Tb616 O629 2.343 . S
Tb616 O631 2.353 . S
Tb616 O633 2.427 . S
Tb616 O634 2.513 . S
C617 O621 1.251 . S
C617 O623 1.263 . S
Tb618 O620 2.343 . S
Tb618 O623 2.353 . S
Tb618 O626 2.427 . S
Tb618 O627 2.513 . S
Tb618 O628 2.453 . S
Tb618 O629 2.596 . S
Tb618 O630 2.374 . S
O619 Tb616 2.453 . S
O619 C635 1.245 . S
O620 Tb616 2.596 . S
O620 Tb618 2.343 . S
O620 C635 1.259 . S
O621 Tb616 2.374 . S
O621 C617 1.251 . S
C622 O626 1.275 . S
C622 O627 1.246 . S
O623 C617 1.263 . S
O623 Tb618 2.353 . S
C624 O628 1.245 . S
C624 O629 1.259 . S
C625 O630 1.250 . S
C625 O631 1.263 . S
O626 Tb618 2.427 . S
O626 C622 1.275 . S
O627 Tb618 2.513 . S
O627 C622 1.246 . S
O628 Tb618 2.453 . S
O628 C624 1.245 . S
O629 Tb616 2.343 . S
O629 Tb618 2.596 . S
O629 C624 1.259 . S
O630 Tb618 2.374 . S
O630 C625 1.250 . S
O631 Tb616 2.353 . S
O631 C625 1.263 . S
C632 O633 1.275 . S
C632 O634 1.246 . S
O633 Tb616 2.427 . S
O633 C632 1.275 . S
O634 Tb616 2.513 . S
O634 C632 1.246 . S
C635 O619 1.245 . S
C635 O620 1.259 . S
Tb636 O639 2.453 . S
Tb636 O640 2.596 . S
Tb636 O641 2.374 . S
Tb636 O649 2.343 . S
Tb636 O651 2.353 1_554 S
Tb636 O653 2.427 . S
Tb636 O654 2.513 . S
C637 O641 1.251 . S
C637 O643 1.252 1_455 S
Tb638 O640 2.343 1_655 S
Tb638 O643 2.360 . S
Tb638 O646 2.427 . S
Tb638 O647 2.513 . S
Tb638 O648 2.453 . S
Tb638 O649 2.596 1_655 S
Tb638 O650 2.374 1_554 S
O639 Tb636 2.453 . S
O639 C655 1.245 . S
O640 Tb636 2.596 . S
O640 Tb638 2.343 1_455 S
O640 C655 1.259 . S
O641 Tb636 2.374 . S
O641 C637 1.251 . S
C642 O646 1.275 . S
C642 O647 1.246 . S
O643 C637 1.252 1_655 S
O643 Tb638 2.360 . S
C644 O648 1.245 1_455 S
C644 O649 1.259 . S
C645 O650 1.250 1_455 S
C645 O651 1.263 . S
O646 Tb638 2.427 . S
O646 C642 1.275 . S
O647 Tb638 2.513 . S
O647 C642 1.246 . S
O648 Tb638 2.453 . S
O648 C644 1.245 1_655 S
O649 Tb636 2.343 . S
O649 Tb638 2.596 1_455 S
O649 C644 1.259 . S
O650 Tb638 2.374 1_556 S
O650 C645 1.250 1_655 S
O651 Tb636 2.353 1_556 S
O651 C645 1.263 . S
C652 O653 1.275 . S
C652 O654 1.246 . S
O653 Tb636 2.427 . S
O653 C652 1.275 . S
O654 Tb636 2.513 . S
O654 C652 1.246 . S
C655 O639 1.245 . S
C655 O640 1.259 . S
H656 C668 0.930 . S
H657 C670 0.930 . S
H658 C671 0.930 . S
H659 C675 0.959 . S
H660 C675 0.959 . S
H661 C675 0.961 . S
H662 C676 0.960 . S
H663 C676 0.961 . S
H664 C676 0.959 1_455 S
H665 C679 0.929 . S
H666 C680 0.963 . S
H667 C682 0.930 . S
C668 H656 0.930 . S
C668 C669 1.399 1_655 S
C668 C673 1.413 . S
C669 C668 1.399 1_455 S
C669 C670 1.376 . S
C670 H657 0.930 . S
C670 C669 1.376 . S
C670 C671 1.388 . S
C671 H658 0.930 . S
C671 C670 1.388 . S
C671 C672 1.390 . S
C672 C671 1.390 . S
C672 C673 1.364 1_455 S
C672 C678 1.465 . S
C673 C668 1.413 . S
C673 C672 1.364 1_655 S
C673 C674 1.529 . S
C674 C673 1.529 . S
C674 C675 1.502 . S
C674 C676 1.561 . S
C674 C677 1.526 1_655 S
C675 H659 0.959 . S
C675 H660 0.959 . S
C675 H661 0.961 . S
C675 C674 1.502 . S
C676 H662 0.960 . S
C676 H663 0.961 . S
C676 H664 0.959 1_655 S
C676 C674 1.561 . S
C677 C674 1.526 1_455 S
C677 C678 1.396 . S
C677 C682 1.390 1_455 S
C678 C672 1.465 . S
C678 C677 1.396 . S
C678 C679 1.399 . S
C679 H665 0.929 . S
C679 C678 1.399 . S
C679 C680 1.360 1_556 S
C680 H666 0.963 . S
C680 C679 1.360 1_554 S
C680 C681 1.385 1_554 S
C681 C680 1.385 1_556 S
C681 C682 1.387 1_455 S
C682 H667 0.930 . S
C682 C677 1.390 1_655 S
C682 C681 1.387 1_655 S
H683 C695 0.930 . S
H684 C697 0.930 . S
H685 C698 0.930 . S
H686 C702 0.959 . S
H687 C702 0.959 . S
H688 C702 0.961 . S
H689 C703 0.960 . S
H690 C703 0.961 . S
H691 C703 0.959 . S
H692 C706 0.929 . S
H693 C707 0.931 . S
H694 C709 0.930 . S
C695 H683 0.930 . S
C695 C696 1.399 . S
C695 C700 1.399 . S
C696 C695 1.399 . S
C696 C697 1.376 . S
C697 H684 0.930 . S
C697 C696 1.376 . S
C697 C698 1.388 . S
C698 H685 0.930 . S
C698 C697 1.388 . S
C698 C699 1.390 . S
C699 C698 1.390 . S
C699 C700 1.394 . S
C699 C705 1.465 . S
C700 C695 1.399 . S
C700 C699 1.394 . S
C700 C701 1.516 . S
C701 C700 1.516 . S
C701 C702 1.502 . S
C701 C703 1.561 . S
C701 C704 1.526 . S
C702 H686 0.959 . S
C702 H687 0.959 . S
C702 H688 0.961 . S
C702 C701 1.502 . S
C703 H689 0.960 . S
C703 H690 0.961 . S
C703 H691 0.959 . S
C703 C701 1.561 . S
C704 C701 1.526 . S
C704 C705 1.396 . S
C704 C709 1.390 . S
C705 C699 1.465 . S
C705 C704 1.396 . S
C705 C706 1.399 . S
C706 H692 0.929 . S
C706 C705 1.399 . S
C706 C707 1.385 . S
C707 H693 0.931 . S
C707 C706 1.385 . S
C707 C708 1.389 . S
C708 C707 1.389 . S
C708 C709 1.387 . S
C709 H694 0.930 . S
C709 C704 1.390 . S
C709 C708 1.387 . S
H710 C722 0.930 . S
H711 C724 0.930 . S
H712 C725 0.930 . S
H713 C729 0.959 . S
H714 C729 0.959 . S
H715 C729 0.961 . S
H716 C730 0.960 . S
H717 C730 0.961 . S
H718 C730 0.959 . S
H719 C733 0.929 . S
H720 C734 0.931 . S
H721 C736 0.930 . S
C722 H710 0.930 . S
C722 C723 1.399 . S
C722 C727 1.399 . S
C723 C722 1.399 . S
C723 C724 1.376 . S
C724 H711 0.930 . S
C724 C723 1.376 . S
C724 C725 1.388 . S
C725 H712 0.930 . S
C725 C724 1.388 . S
C725 C726 1.390 . S
C726 C725 1.390 . S
C726 C727 1.394 . S
C726 C732 1.465 . S
C727 C722 1.399 . S
C727 C726 1.394 . S
C727 C728 1.516 . S
C728 C727 1.516 . S
C728 C729 1.502 . S
C728 C730 1.561 . S
C728 C731 1.526 . S
C729 H713 0.959 . S
C729 H714 0.959 . S
C729 H715 0.961 . S
C729 C728 1.502 . S
C730 H716 0.960 . S
C730 H717 0.961 . S
C730 H718 0.959 . S
C730 C728 1.561 . S
C731 C728 1.526 . S
C731 C732 1.396 . S
C731 C736 1.390 . S
C732 C726 1.465 . S
C732 C731 1.396 . S
C732 C733 1.399 . S
C733 H719 0.929 . S
C733 C732 1.399 . S
C733 C734 1.385 . S
C734 H720 0.931 . S
C734 C733 1.385 . S
C734 C735 1.389 . S
C735 C734 1.389 . S
C735 C736 1.387 . S
C736 H721 0.930 . S
C736 C731 1.390 . S
C736 C735 1.387 . S
H737 C749 0.930 . S
H738 C751 0.930 . S
H739 C752 0.930 . S
H740 C756 0.959 . S
H741 C756 0.959 . S
H742 C756 0.961 . S
H743 C757 0.960 . S
H744 C757 0.961 . S
H745 C757 0.959 . S
H746 C760 0.929 . S
H747 C761 0.931 . S
H748 C763 0.930 . S
C749 H737 0.930 . S
C749 C750 1.399 . S
C749 C754 1.399 . S
C750 C749 1.399 . S
C750 C751 1.376 . S
C751 H738 0.930 . S
C751 C750 1.376 . S
C751 C752 1.388 . S
C752 H739 0.930 . S
C752 C751 1.388 . S
C752 C753 1.390 . S
C753 C752 1.390 . S
C753 C754 1.394 . S
C753 C759 1.465 . S
C754 C749 1.399 . S
C754 C753 1.394 . S
C754 C755 1.516 . S
C755 C754 1.516 . S
C755 C756 1.502 . S
C755 C757 1.561 . S
C755 C758 1.526 . S
C756 H740 0.959 . S
C756 H741 0.959 . S
C756 H742 0.961 . S
C756 C755 1.502 . S
C757 H743 0.960 . S
C757 H744 0.961 . S
C757 H745 0.959 . S
C757 C755 1.561 . S
C758 C755 1.526 . S
C758 C759 1.396 . S
C758 C763 1.390 . S
C759 C753 1.465 . S
C759 C758 1.396 . S
C759 C760 1.399 . S
C760 H746 0.929 . S
C760 C759 1.399 . S
C760 C761 1.385 . S
C761 H747 0.931 . S
C761 C760 1.385 . S
C761 C762 1.389 . S
C762 C761 1.389 . S
C762 C763 1.387 . S
C763 H748 0.930 . S
C763 C758 1.390 . S
C763 C762 1.387 . S
H764 C776 0.930 . S
H765 C778 0.930 . S
H766 C779 0.930 . S
H767 C783 0.959 . S
H768 C783 0.959 . S
H769 C783 0.961 . S
H770 C784 0.960 . S
H771 C784 0.961 . S
H772 C784 0.959 . S
H773 C787 0.929 . S
H774 C788 0.931 . S
H775 C790 0.930 . S
C776 H764 0.930 . S
C776 C777 1.399 . S
C776 C781 1.399 . S
C777 C776 1.399 . S
C777 C778 1.376 . S
C778 H765 0.930 . S
C778 C777 1.376 . S
C778 C779 1.388 . S
C779 H766 0.930 . S
C779 C778 1.388 . S
C779 C780 1.390 . S
C780 C779 1.390 . S
C780 C781 1.394 . S
C780 C786 1.465 . S
C781 C776 1.399 . S
C781 C780 1.394 . S
C781 C782 1.516 . S
C782 C781 1.516 . S
C782 C783 1.502 1_455 S
C782 C784 1.561 . S
C782 C785 1.526 . S
C783 H767 0.959 . S
C783 H768 0.959 . S
C783 H769 0.961 . S
C783 C782 1.502 1_655 S
C784 H770 0.960 . S
C784 H771 0.961 . S
C784 H772 0.959 . S
C784 C782 1.561 . S
C785 C782 1.526 . S
C785 C786 1.396 . S
C785 C790 1.390 . S
C786 C780 1.465 . S
C786 C785 1.396 . S
C786 C787 1.399 . S
C787 H773 0.929 . S
C787 C786 1.399 . S
C787 C788 1.385 . S
C788 H774 0.931 . S
C788 C787 1.385 . S
C788 C789 1.389 . S
C789 C788 1.389 . S
C789 C790 1.387 . S
C790 H775 0.930 . S
C790 C785 1.390 . S
C790 C789 1.387 . S
H791 C803 0.930 . S
H792 C805 0.930 . S
H793 C806 0.930 . S
H794 C810 0.959 . S
H795 C810 0.959 . S
H796 C810 0.961 . S
H797 C811 0.960 . S
H798 C811 0.961 . S
H799 C811 0.959 . S
H800 C814 0.929 . S
H801 C815 0.931 . S
H802 C817 0.930 . S
C803 H791 0.930 . S
C803 C804 1.399 . S
C803 C808 1.399 . S
C804 C803 1.399 . S
C804 C805 1.376 . S
C805 H792 0.930 . S
C805 C804 1.376 . S
C805 C806 1.388 . S
C806 H793 0.930 . S
C806 C805 1.388 . S
C806 C807 1.390 . S
C807 C806 1.390 . S
C807 C808 1.394 . S
C807 C813 1.465 . S
C808 C803 1.399 . S
C808 C807 1.394 . S
C808 C809 1.516 . S
C809 C808 1.516 . S
C809 C810 1.502 . S
C809 C811 1.561 . S
C809 C812 1.526 . S
C810 H794 0.959 . S
C810 H795 0.959 . S
C810 H796 0.961 . S
C810 C809 1.502 . S
C811 H797 0.960 . S
C811 H798 0.961 . S
C811 H799 0.959 . S
C811 C809 1.561 . S
C812 C809 1.526 . S
C812 C813 1.396 . S
C812 C817 1.390 . S
C813 C807 1.465 . S
C813 C812 1.396 . S
C813 C814 1.399 . S
C814 H800 0.929 . S
C814 C813 1.399 . S
C814 C815 1.385 . S
C815 H801 0.931 . S
C815 C814 1.385 . S
C815 C816 1.389 . S
C816 C815 1.389 . S
C816 C817 1.387 . S
C817 H802 0.930 . S
C817 C812 1.390 . S
C817 C816 1.387 . S
H818 C830 0.930 . S
H819 C832 0.930 . S
H820 C833 0.930 . S
H821 C837 0.959 . S
H822 C837 0.959 . S
H823 C837 0.961 . S
H824 C838 0.960 . S
H825 C838 0.961 . S
H826 C838 0.959 . S
H827 C841 0.929 . S
H828 C842 0.931 . S
H829 C844 0.930 . S
C830 H818 0.930 . S
C830 C831 1.399 . S
C830 C835 1.399 . S
C831 C830 1.399 . S
C831 C832 1.376 . S
C832 H819 0.930 . S
C832 C831 1.376 . S
C832 C833 1.388 . S
C833 H820 0.930 . S
C833 C832 1.388 . S
C833 C834 1.390 . S
C834 C833 1.390 . S
C834 C835 1.394 . S
C834 C840 1.465 . S
C835 C830 1.399 . S
C835 C834 1.394 . S
C835 C836 1.516 . S
C836 C835 1.516 . S
C836 C837 1.502 . S
C836 C838 1.561 . S
C836 C839 1.526 . S
C837 H821 0.959 . S
C837 H822 0.959 . S
C837 H823 0.961 . S
C837 C836 1.502 . S
C838 H824 0.960 . S
C838 H825 0.961 . S
C838 H826 0.959 . S
C838 C836 1.561 . S
C839 C836 1.526 . S
C839 C840 1.396 . S
C839 C844 1.390 . S
C840 C834 1.465 . S
C840 C839 1.396 . S
C840 C841 1.399 . S
C841 H827 0.929 . S
C841 C840 1.399 . S
C841 C842 1.385 . S
C842 H828 0.931 . S
C842 C841 1.385 . S
C842 C843 1.389 . S
C843 C842 1.389 . S
C843 C844 1.387 . S
C844 H829 0.930 . S
C844 C839 1.390 . S
C844 C843 1.387 . S
H845 C857 0.930 . S
H846 C859 0.930 . S
H847 C860 0.930 . S
H848 C864 0.959 . S
H849 C864 0.959 . S
H850 C864 0.961 . S
H851 C865 0.960 . S
H852 C865 0.961 . S
H853 C865 0.959 . S
H854 C868 0.929 . S
H855 C869 0.931 . S
H856 C871 0.930 . S
C857 H845 0.930 . S
C857 C858 1.399 . S
C857 C862 1.399 . S
C858 C857 1.399 . S
C858 C859 1.376 . S
C859 H846 0.930 . S
C859 C858 1.376 . S
C859 C860 1.388 . S
C860 H847 0.930 . S
C860 C859 1.388 . S
C860 C861 1.390 . S
C861 C860 1.390 . S
C861 C862 1.394 . S
C861 C867 1.465 . S
C862 C857 1.399 . S
C862 C861 1.394 . S
C862 C863 1.516 . S
C863 C862 1.516 . S
C863 C864 1.502 . S
C863 C865 1.561 . S
C863 C866 1.526 . S
C864 H848 0.959 . S
C864 H849 0.959 . S
C864 H850 0.961 . S
C864 C863 1.502 . S
C865 H851 0.960 . S
C865 H852 0.961 . S
C865 H853 0.959 . S
C865 C863 1.561 . S
C866 C863 1.526 . S
C866 C867 1.396 . S
C866 C871 1.390 . S
C867 C861 1.465 . S
C867 C866 1.396 . S
C867 C868 1.399 . S
C868 H854 0.929 . S
C868 C867 1.399 . S
C868 C869 1.385 . S
C869 H855 0.931 . S
C869 C868 1.385 . S
C869 C870 1.389 . S
C870 C869 1.389 . S
C870 C871 1.387 . S
C871 H856 0.930 . S
C871 C866 1.390 . S
C871 C870 1.387 . S
H872 C884 0.930 . S
H873 C886 0.930 . S
H874 C887 0.930 . S
H875 C891 0.959 . S
H876 C891 0.959 . S
H877 C891 0.961 . S
H878 C892 0.960 . S
H879 C892 0.961 . S
H880 C892 0.959 . S
H881 C895 0.929 . S
H882 C896 0.931 1_455 S
H883 C898 0.930 . S
C884 H872 0.930 . S
C884 C885 1.399 . S
C884 C889 1.399 . S
C885 C884 1.399 . S
C885 C886 1.376 . S
C886 H873 0.930 . S
C886 C885 1.376 . S
C886 C887 1.388 . S
C887 H874 0.930 . S
C887 C886 1.388 . S
C887 C888 1.390 . S
C888 C887 1.390 . S
C888 C889 1.394 . S
C888 C894 1.465 . S
C889 C884 1.399 . S
C889 C888 1.394 . S
C889 C890 1.516 . S
C890 C889 1.516 . S
C890 C891 1.502 . S
C890 C892 1.561 . S
C890 C893 1.526 . S
C891 H875 0.959 . S
C891 H876 0.959 . S
C891 H877 0.961 . S
C891 C890 1.502 . S
C892 H878 0.960 . S
C892 H879 0.961 . S
C892 H880 0.959 . S
C892 C890 1.561 . S
C893 C890 1.526 . S
C893 C894 1.396 . S
C893 C898 1.390 . S
C894 C888 1.465 . S
C894 C893 1.396 . S
C894 C895 1.399 . S
C895 H881 0.929 . S
C895 C894 1.399 . S
C895 C896 1.385 . S
C896 H882 0.931 1_655 S
C896 C895 1.385 . S
C896 C897 1.389 . S
C897 C896 1.389 . S
C897 C898 1.387 . S
C898 H883 0.930 . S
C898 C893 1.390 . S
C898 C897 1.387 . S
H899 C911 0.930 . S
H900 C913 0.930 . S
H901 C914 0.930 . S
H902 C918 0.959 . S
H903 C918 0.959 . S
H904 C918 0.961 . S
H905 C919 0.960 . S
H906 C919 0.961 . S
H907 C919 0.959 . S
H908 C922 0.929 . S
H909 C923 0.931 . S
H910 C925 0.930 . S
C911 H899 0.930 . S
C911 C912 1.399 . S
C911 C916 1.399 . S
C912 C911 1.399 . S
C912 C913 1.376 . S
C913 H900 0.930 . S
C913 C912 1.376 . S
C913 C914 1.388 . S
C914 H901 0.930 . S
C914 C913 1.388 . S
C914 C915 1.390 . S
C915 C914 1.390 . S
C915 C916 1.394 . S
C915 C921 1.465 . S
C916 C911 1.399 . S
C916 C915 1.394 . S
C916 C917 1.516 . S
C917 C916 1.516 . S
C917 C918 1.502 . S
C917 C919 1.561 . S
C917 C920 1.526 . S
C918 H902 0.959 . S
C918 H903 0.959 . S
C918 H904 0.961 . S
C918 C917 1.502 . S
C919 H905 0.960 . S
C919 H906 0.961 . S
C919 H907 0.959 . S
C919 C917 1.561 . S
C920 C917 1.526 . S
C920 C921 1.396 . S
C920 C925 1.390 . S
C921 C915 1.465 . S
C921 C920 1.396 . S
C921 C922 1.399 . S
C922 H908 0.929 . S
C922 C921 1.399 . S
C922 C923 1.385 . S
C923 H909 0.931 . S
C923 C922 1.385 . S
C923 C924 1.389 . S
C924 C923 1.389 . S
C924 C925 1.387 . S
C925 H910 0.930 . S
C925 C920 1.390 . S
C925 C924 1.387 . S
H926 C938 0.930 . S
H927 C940 0.910 1_565 S
H928 C941 0.961 . S
H929 C945 0.959 . S
H930 C945 0.959 . S
H931 C945 0.961 . S
H932 C946 0.960 . S
H933 C946 0.961 . S
H934 C946 0.959 . S
H935 C949 0.929 1_565 S
H936 C950 0.931 . S
H937 C952 0.930 . S
C938 H926 0.930 . S
C938 C939 1.399 . S
C938 C943 1.399 . S
C939 C938 1.399 . S
C939 C940 1.394 . S
C940 H927 0.910 1_545 S
C940 C939 1.394 . S
C940 C941 1.397 1_545 S
C941 H928 0.961 . S
C941 C940 1.397 1_565 S
C941 C942 1.354 1_565 S
C942 C941 1.354 1_545 S
C942 C943 1.394 . S
C942 C948 1.465 . S
C943 C938 1.399 . S
C943 C942 1.394 . S
C943 C944 1.516 . S
C944 C943 1.516 . S
C944 C945 1.502 . S
C944 C946 1.561 . S
C944 C947 1.526 . S
C945 H929 0.959 . S
C945 H930 0.959 . S
C945 H931 0.961 . S
C945 C944 1.502 . S
C946 H932 0.960 . S
C946 H933 0.961 . S
C946 H934 0.959 . S
C946 C944 1.561 . S
C947 C944 1.526 . S
C947 C948 1.396 . S
C947 C952 1.390 . S
C948 C942 1.465 . S
C948 C947 1.396 . S
C948 C949 1.399 . S
C949 H935 0.929 1_545 S
C949 C948 1.399 . S
C949 C950 1.385 . S
C950 H936 0.931 . S
C950 C949 1.385 . S
C950 C951 1.389 . S
C951 C950 1.389 . S
C951 C952 1.387 . S
C952 H937 0.930 . S
C952 C947 1.390 . S
C952 C951 1.387 . S
H953 C965 0.930 . S
H954 C967 0.930 . S
H955 C968 0.930 . S
H956 C972 0.959 . S
H957 C972 0.959 . S
H958 C972 0.961 . S
H959 C973 0.960 . S
H960 C973 0.961 . S
H961 C973 0.959 . S
H962 C976 0.929 . S
H963 C977 0.931 . S
H964 C979 0.930 . S
C965 H953 0.930 . S
C965 C966 1.399 . S
C965 C970 1.399 . S
C966 C965 1.399 . S
C966 C967 1.376 . S
C967 H954 0.930 . S
C967 C966 1.376 . S
C967 C968 1.388 . S
C968 H955 0.930 . S
C968 C967 1.388 . S
C968 C969 1.390 . S
C969 C968 1.390 . S
C969 C970 1.394 . S
C969 C975 1.465 . S
C970 C965 1.399 . S
C970 C969 1.394 . S
C970 C971 1.516 . S
C971 C970 1.516 . S
C971 C972 1.502 . S
C971 C973 1.561 . S
C971 C974 1.526 . S
C972 H956 0.959 . S
C972 H957 0.959 . S
C972 H958 0.961 . S
C972 C971 1.502 . S
C973 H959 0.960 . S
C973 H960 0.961 . S
C973 H961 0.959 . S
C973 C971 1.561 . S
C974 C971 1.526 . S
C974 C975 1.396 . S
C974 C979 1.390 . S
C975 C969 1.465 . S
C975 C974 1.396 . S
C975 C976 1.399 . S
C976 H962 0.929 . S
C976 C975 1.399 . S
C976 C977 1.385 . S
C977 H963 0.931 . S
C977 C976 1.385 . S
C977 C978 1.389 . S
C978 C977 1.389 . S
C978 C979 1.387 . S
C979 H964 0.930 . S
C979 C974 1.390 . S
C979 C978 1.387 . S
H980 C992 0.930 . S
H981 C994 0.930 . S
H982 C995 0.930 . S
H983 C999 0.959 . S
H984 C999 0.959 1_565 S
H985 C999 0.957 1_565 S
H986 C1000 0.960 1_565 S
H987 C1000 0.961 1_565 S
H988 C1000 0.959 . S
H989 C1003 0.929 . S
H990 C1004 0.931 . S
H991 C1006 0.930 . S
C992 H980 0.930 . S
C992 C993 1.399 . S
C992 C997 1.399 . S
C993 C992 1.399 . S
C993 C994 1.376 . S
C994 H981 0.930 . S
C994 C993 1.376 . S
C994 C995 1.388 . S
C995 H982 0.930 . S
C995 C994 1.388 . S
C995 C996 1.390 . S
C996 C995 1.390 . S
C996 C997 1.394 . S
C996 C1002 1.465 . S
C997 C992 1.399 . S
C997 C996 1.394 . S
C997 C998 1.516 . S
C998 C997 1.516 . S
C998 C999 1.502 . S
C998 C1000 1.561 . S
C998 C1001 1.526 . S
C999 H983 0.959 . S
C999 H984 0.959 1_545 S
C999 H985 0.957 1_545 S
C999 C998 1.502 . S
C1000 H986 0.960 1_545 S
C1000 H987 0.961 1_545 S
C1000 H988 0.959 . S
C1000 C998 1.561 . S
C1001 C998 1.526 . S
C1001 C1002 1.396 . S
C1001 C1006 1.390 . S
C1002 C996 1.465 . S
C1002 C1001 1.396 . S
C1002 C1003 1.399 . S
C1003 H989 0.929 . S
C1003 C1002 1.399 . S
C1003 C1004 1.385 1_655 S
C1004 H990 0.931 . S
C1004 C1003 1.385 1_455 S
C1004 C1005 1.389 1_455 S
C1005 C1004 1.389 1_655 S
C1005 C1006 1.387 . S
C1006 H991 0.930 . S
C1006 C1001 1.390 . S
C1006 C1005 1.387 . S
H1007 C1019 0.930 . S
H1008 C1021 0.930 . S
H1009 C1022 0.930 . S
H1010 C1026 0.959 . S
H1011 C1026 0.959 . S
H1012 C1026 0.961 . S
H1013 C1027 0.960 . S
H1014 C1027 0.961 . S
H1015 C1027 0.959 . S
H1016 C1030 0.929 . S
H1017 C1031 0.931 . S
H1018 C1033 0.930 . S
C1019 H1007 0.930 . S
C1019 C1020 1.399 . S
C1019 C1024 1.399 . S
C1020 C1019 1.399 . S
C1020 C1021 1.376 . S
C1021 H1008 0.930 . S
C1021 C1020 1.376 . S
C1021 C1022 1.388 . S
C1022 H1009 0.930 . S
C1022 C1021 1.388 . S
C1022 C1023 1.390 . S
C1023 C1022 1.390 . S
C1023 C1024 1.394 . S
C1023 C1029 1.465 . S
C1024 C1019 1.399 . S
C1024 C1023 1.394 . S
C1024 C1025 1.516 . S
C1025 C1024 1.516 . S
C1025 C1026 1.502 . S
C1025 C1027 1.561 . S
C1025 C1028 1.526 . S
C1026 H1010 0.959 . S
C1026 H1011 0.959 . S
C1026 H1012 0.961 . S
C1026 C1025 1.502 . S
C1027 H1013 0.960 . S
C1027 H1014 0.961 . S
C1027 H1015 0.959 . S
C1027 C1025 1.561 . S
C1028 C1025 1.526 . S
C1028 C1029 1.396 . S
C1028 C1033 1.390 . S
C1029 C1023 1.465 . S
C1029 C1028 1.396 . S
C1029 C1030 1.399 . S
C1030 H1016 0.929 . S
C1030 C1029 1.399 . S
C1030 C1031 1.385 . S
C1031 H1017 0.931 . S
C1031 C1030 1.385 . S
C1031 C1032 1.389 . S
C1032 C1031 1.389 . S
C1032 C1033 1.387 . S
C1033 H1018 0.930 . S
C1033 C1028 1.390 . S
C1033 C1032 1.387 . S
H1034 C1046 0.930 . S
H1035 C1048 0.930 . S
H1036 C1049 0.930 . S
H1037 C1053 0.959 . S
H1038 C1053 0.959 . S
H1039 C1053 0.961 . S
H1040 C1054 0.960 . S
H1041 C1054 0.961 . S
H1042 C1054 0.959 . S
H1043 C1057 0.929 . S
H1044 C1058 0.931 . S
H1045 C1060 0.930 . S
C1046 H1034 0.930 . S
C1046 C1047 1.399 . S
C1046 C1051 1.399 . S
C1047 C1046 1.399 . S
C1047 C1048 1.376 . S
C1048 H1035 0.930 . S
C1048 C1047 1.376 . S
C1048 C1049 1.388 . S
C1049 H1036 0.930 . S
C1049 C1048 1.388 . S
C1049 C1050 1.390 . S
C1050 C1049 1.390 . S
C1050 C1051 1.394 . S
C1050 C1056 1.465 . S
C1051 C1046 1.399 . S
C1051 C1050 1.394 . S
C1051 C1052 1.516 . S
C1052 C1051 1.516 . S
C1052 C1053 1.502 . S
C1052 C1054 1.561 . S
C1052 C1055 1.526 . S
C1053 H1037 0.959 . S
C1053 H1038 0.959 . S
C1053 H1039 0.961 . S
C1053 C1052 1.502 . S
C1054 H1040 0.960 . S
C1054 H1041 0.961 . S
C1054 H1042 0.959 . S
C1054 C1052 1.561 . S
C1055 C1052 1.526 . S
C1055 C1056 1.396 . S
C1055 C1060 1.390 . S
C1056 C1050 1.465 . S
C1056 C1055 1.396 . S
C1056 C1057 1.399 . S
C1057 H1043 0.929 . S
C1057 C1056 1.399 . S
C1057 C1058 1.385 . S
C1058 H1044 0.931 . S
C1058 C1057 1.385 . S
C1058 C1059 1.389 . S
C1059 C1058 1.389 . S
C1059 C1060 1.387 . S
C1060 H1045 0.930 . S
C1060 C1055 1.390 . S
C1060 C1059 1.387 . S
H1061 C1073 0.930 . S
H1062 C1075 0.930 . S
H1063 C1076 0.930 . S
H1064 C1080 0.959 . S
H1065 C1080 0.959 . S
H1066 C1080 0.961 . S
H1067 C1081 0.960 . S
H1068 C1081 0.961 . S
H1069 C1081 0.959 . S
H1070 C1084 0.929 . S
H1071 C1085 0.931 . S
H1072 C1087 0.930 . S
C1073 H1061 0.930 . S
C1073 C1074 1.399 . S
C1073 C1078 1.399 . S
C1074 C1073 1.399 . S
C1074 C1075 1.376 . S
C1075 H1062 0.930 . S
C1075 C1074 1.376 . S
C1075 C1076 1.388 . S
C1076 H1063 0.930 . S
C1076 C1075 1.388 . S
C1076 C1077 1.390 . S
C1077 C1076 1.390 . S
C1077 C1078 1.394 . S
C1077 C1083 1.465 . S
C1078 C1073 1.399 . S
C1078 C1077 1.394 . S
C1078 C1079 1.516 . S
C1079 C1078 1.516 . S
C1079 C1080 1.502 . S
C1079 C1081 1.561 . S
C1079 C1082 1.526 . S
C1080 H1064 0.959 . S
C1080 H1065 0.959 . S
C1080 H1066 0.961 . S
C1080 C1079 1.502 . S
C1081 H1067 0.960 . S
C1081 H1068 0.961 . S
C1081 H1069 0.959 . S
C1081 C1079 1.561 . S
C1082 C1079 1.526 . S
C1082 C1083 1.396 . S
C1082 C1087 1.390 . S
C1083 C1077 1.465 . S
C1083 C1082 1.396 . S
C1083 C1084 1.399 . S
C1084 H1070 0.929 . S
C1084 C1083 1.399 . S
C1084 C1085 1.385 . S
C1085 H1071 0.931 . S
C1085 C1084 1.385 . S
C1085 C1086 1.389 . S
C1086 C1085 1.389 . S
C1086 C1087 1.387 . S
C1087 H1072 0.930 . S
C1087 C1082 1.390 . S
C1087 C1086 1.387 . S
H1088 C1100 0.930 . S
H1089 C1102 0.930 1_556 S
H1090 C1103 0.930 . S
H1091 C1107 0.959 . S
H1092 C1107 0.959 . S
H1093 C1107 0.961 . S
H1094 C1108 0.963 . S
H1095 C1108 0.961 . S
H1096 C1108 0.959 . S
H1097 C1111 0.907 1_556 S
H1098 C1112 0.931 1_556 S
H1099 C1114 0.930 . S
C1100 H1088 0.930 . S
C1100 C1101 1.399 . S
C1100 C1105 1.399 . S
C1101 C1100 1.399 . S
C1101 C1102 1.376 . S
C1102 H1089 0.930 1_554 S
C1102 C1101 1.376 . S
C1102 C1103 1.388 1_554 S
C1103 H1090 0.930 . S
C1103 C1102 1.388 1_556 S
C1103 C1104 1.390 1_556 S
C1104 C1103 1.390 1_554 S
C1104 C1105 1.394 . S
C1104 C1110 1.465 . S
C1105 C1100 1.399 . S
C1105 C1104 1.394 . S
C1105 C1106 1.516 . S
C1106 C1105 1.516 . S
C1106 C1107 1.502 . S
C1106 C1108 1.561 1_565 S
C1106 C1109 1.526 . S
C1107 H1091 0.959 . S
C1107 H1092 0.959 . S
C1107 H1093 0.961 . S
C1107 C1106 1.502 . S
C1108 H1094 0.963 . S
C1108 H1095 0.961 . S
C1108 H1096 0.959 . S
C1108 C1106 1.561 1_545 S
C1109 C1106 1.526 . S
C1109 C1110 1.396 . S
C1109 C1114 1.390 1_565 S
C1110 C1104 1.465 . S
C1110 C1109 1.396 . S
C1110 C1111 1.415 . S
C1111 H1097 0.907 1_554 S
C1111 C1110 1.415 . S
C1111 C1112 1.392 1_565 S
C1112 H1098 0.931 1_554 S
C1112 C1111 1.392 1_545 S
C1112 C1113 1.389 . S
C1113 C1112 1.389 . S
C1113 C1114 1.387 . S
C1114 H1099 0.930 . S
C1114 C1109 1.390 1_545 S
C1114 C1113 1.387 . S
H1115 C1127 0.930 . S
H1116 C1129 0.930 . S
H1117 C1130 0.930 . S
H1118 C1134 0.959 . S
H1119 C1134 0.959 . S
H1120 C1134 0.961 . S
H1121 C1135 0.960 . S
H1122 C1135 0.961 . S
H1123 C1135 0.959 . S
H1124 C1138 0.929 . S
H1125 C1139 0.931 . S
H1126 C1141 0.930 . S
C1127 H1115 0.930 . S
C1127 C1128 1.399 . S
C1127 C1132 1.399 . S
C1128 C1127 1.399 . S
C1128 C1129 1.376 1_554 S
C1129 H1116 0.930 . S
C1129 C1128 1.376 1_556 S
C1129 C1130 1.388 . S
C1130 H1117 0.930 . S
C1130 C1129 1.388 . S
C1130 C1131 1.390 . S
C1131 C1130 1.390 . S
C1131 C1132 1.394 1_556 S
C1131 C1137 1.472 . S
C1132 C1127 1.399 . S
C1132 C1131 1.394 1_554 S
C1132 C1133 1.516 . S
C1133 C1132 1.516 . S
C1133 C1134 1.502 . S
C1133 C1135 1.561 . S
C1133 C1136 1.526 . S
C1134 H1118 0.959 . S
C1134 H1119 0.959 . S
C1134 H1120 0.961 . S
C1134 C1133 1.502 . S
C1135 H1121 0.960 . S
C1135 H1122 0.961 . S
C1135 H1123 0.959 . S
C1135 C1133 1.561 . S
C1136 C1133 1.526 . S
C1136 C1137 1.366 1_554 S
C1136 C1141 1.390 . S
C1137 C1131 1.472 . S
C1137 C1136 1.366 1_556 S
C1137 C1138 1.418 . S
C1138 H1124 0.929 . S
C1138 C1137 1.418 . S
C1138 C1139 1.385 . S
C1139 H1125 0.931 . S
C1139 C1138 1.385 . S
C1139 C1140 1.389 1_556 S
C1140 C1139 1.389 1_554 S
C1140 C1141 1.387 . S
C1141 H1126 0.930 . S
C1141 C1136 1.390 . S
C1141 C1140 1.387 . S
H1142 C1154 0.930 . S
H1143 C1156 0.930 . S
H1144 C1157 0.930 . S
H1145 C1161 0.959 . S
H1146 C1161 0.959 . S
H1147 C1161 0.961 . S
H1148 C1162 0.960 . S
H1149 C1162 0.961 . S
H1150 C1162 0.959 . S
H1151 C1165 0.929 . S
H1152 C1166 0.931 . S
H1153 C1168 0.930 . S
C1154 H1142 0.930 . S
C1154 C1155 1.399 . S
C1154 C1159 1.399 . S
C1155 C1154 1.399 . S
C1155 C1156 1.376 . S
C1156 H1143 0.930 . S
C1156 C1155 1.376 . S
C1156 C1157 1.388 . S
C1157 H1144 0.930 . S
C1157 C1156 1.388 . S
C1157 C1158 1.390 . S
C1158 C1157 1.390 . S
C1158 C1159 1.394 . S
C1158 C1164 1.465 . S
C1159 C1154 1.399 . S
C1159 C1158 1.394 . S
C1159 C1160 1.516 . S
C1160 C1159 1.516 . S
C1160 C1161 1.502 . S
C1160 C1162 1.561 . S
C1160 C1163 1.526 . S
C1161 H1145 0.959 . S
C1161 H1146 0.959 . S
C1161 H1147 0.961 . S
C1161 C1160 1.502 . S
C1162 H1148 0.960 . S
C1162 H1149 0.961 . S
C1162 H1150 0.959 . S
C1162 C1160 1.561 . S
C1163 C1160 1.526 . S
C1163 C1164 1.396 . S
C1163 C1168 1.390 . S
C1164 C1158 1.465 . S
C1164 C1163 1.396 . S
C1164 C1165 1.399 . S
C1165 H1151 0.929 . S
C1165 C1164 1.399 . S
C1165 C1166 1.385 . S
C1166 H1152 0.931 . S
C1166 C1165 1.385 . S
C1166 C1167 1.389 . S
C1167 C1166 1.389 . S
C1167 C1168 1.387 . S
C1168 H1153 0.930 . S
C1168 C1163 1.390 . S
C1168 C1167 1.387 . S
H1169 C1181 0.930 . S
H1170 C1183 0.930 . S
H1171 C1184 0.930 . S
H1172 C1188 0.959 . S
H1173 C1188 0.959 . S
H1174 C1188 0.961 . S
H1175 C1189 0.960 . S
H1176 C1189 0.961 . S
H1177 C1189 0.959 . S
H1178 C1192 0.929 . S
H1179 C1193 0.931 . S
H1180 C1195 0.930 . S
C1181 H1169 0.930 . S
C1181 C1182 1.399 . S
C1181 C1186 1.399 . S
C1182 C1181 1.399 . S
C1182 C1183 1.376 . S
C1183 H1170 0.930 . S
C1183 C1182 1.376 . S
C1183 C1184 1.388 . S
C1184 H1171 0.930 . S
C1184 C1183 1.388 . S
C1184 C1185 1.390 . S
C1185 C1184 1.390 . S
C1185 C1186 1.394 . S
C1185 C1191 1.465 . S
C1186 C1181 1.399 . S
C1186 C1185 1.394 . S
C1186 C1187 1.516 . S
C1187 C1186 1.516 . S
C1187 C1188 1.502 . S
C1187 C1189 1.561 . S
C1187 C1190 1.526 . S
C1188 H1172 0.959 . S
C1188 H1173 0.959 . S
C1188 H1174 0.961 . S
C1188 C1187 1.502 . S
C1189 H1175 0.960 . S
C1189 H1176 0.961 . S
C1189 H1177 0.959 . S
C1189 C1187 1.561 . S
C1190 C1187 1.526 . S
C1190 C1191 1.396 . S
C1190 C1195 1.390 . S
C1191 C1185 1.465 . S
C1191 C1190 1.396 . S
C1191 C1192 1.399 . S
C1192 H1178 0.929 . S
C1192 C1191 1.399 . S
C1192 C1193 1.385 . S
C1193 H1179 0.931 . S
C1193 C1192 1.385 . S
C1193 C1194 1.389 . S
C1194 C1193 1.389 . S
C1194 C1195 1.387 . S
C1195 H1180 0.930 . S
C1195 C1190 1.390 . S
C1195 C1194 1.387 . S
H1196 C1208 0.930 . S
H1197 C1210 0.930 . S
H1198 C1211 0.930 . S
H1199 C1215 0.959 . S
H1200 C1215 0.959 . S
H1201 C1215 0.961 . S
H1202 C1216 0.960 . S
H1203 C1216 0.961 . S
H1204 C1216 0.959 . S
H1205 C1219 0.929 . S
H1206 C1220 0.931 . S
H1207 C1222 0.930 . S
C1208 H1196 0.930 . S
C1208 C1209 1.399 . S
C1208 C1213 1.399 . S
C1209 C1208 1.399 . S
C1209 C1210 1.376 . S
C1210 H1197 0.930 . S
C1210 C1209 1.376 . S
C1210 C1211 1.388 . S
C1211 H1198 0.930 . S
C1211 C1210 1.388 . S
C1211 C1212 1.390 . S
C1212 C1211 1.390 . S
C1212 C1213 1.394 . S
C1212 C1218 1.465 . S
C1213 C1208 1.399 . S
C1213 C1212 1.394 . S
C1213 C1214 1.516 . S
C1214 C1213 1.516 . S
C1214 C1215 1.502 . S
C1214 C1216 1.561 . S
C1214 C1217 1.526 . S
C1215 H1199 0.959 . S
C1215 H1200 0.959 . S
C1215 H1201 0.961 . S
C1215 C1214 1.502 . S
C1216 H1202 0.960 . S
C1216 H1203 0.961 . S
C1216 H1204 0.959 . S
C1216 C1214 1.561 . S
C1217 C1214 1.526 . S
C1217 C1218 1.396 . S
C1217 C1222 1.390 . S
C1218 C1212 1.465 . S
C1218 C1217 1.396 . S
C1218 C1219 1.399 . S
C1219 H1205 0.929 . S
C1219 C1218 1.399 . S
C1219 C1220 1.385 . S
C1220 H1206 0.931 . S
C1220 C1219 1.385 . S
C1220 C1221 1.389 . S
C1221 C1220 1.389 . S
C1221 C1222 1.387 . S
C1222 H1207 0.930 . S
C1222 C1217 1.390 . S
C1222 C1221 1.387 . S
H1223 C1235 0.930 . S
H1224 C1237 0.930 . S
H1225 C1238 0.930 . S
H1226 C1242 0.959 . S
H1227 C1242 0.959 . S
H1228 C1242 0.961 . S
H1229 C1243 0.960 . S
H1230 C1243 0.961 . S
H1231 C1243 0.959 . S
H1232 C1246 0.929 . S
H1233 C1247 0.931 . S
H1234 C1249 0.930 . S
C1235 H1223 0.930 . S
C1235 C1236 1.399 . S
C1235 C1240 1.399 . S
C1236 C1235 1.399 . S
C1236 C1237 1.376 . S
C1237 H1224 0.930 . S
C1237 C1236 1.376 . S
C1237 C1238 1.388 . S
C1238 H1225 0.930 . S
C1238 C1237 1.388 . S
C1238 C1239 1.390 . S
C1239 C1238 1.390 . S
C1239 C1240 1.394 . S
C1239 C1245 1.465 . S
C1240 C1235 1.399 . S
C1240 C1239 1.394 . S
C1240 C1241 1.516 . S
C1241 C1240 1.516 . S
C1241 C1242 1.502 . S
C1241 C1243 1.561 . S
C1241 C1244 1.526 . S
C1242 H1226 0.959 . S
C1242 H1227 0.959 . S
C1242 H1228 0.961 . S
C1242 C1241 1.502 . S
C1243 H1229 0.960 . S
C1243 H1230 0.961 . S
C1243 H1231 0.959 . S
C1243 C1241 1.561 . S
C1244 C1241 1.526 . S
C1244 C1245 1.396 . S
C1244 C1249 1.390 . S
C1245 C1239 1.465 . S
C1245 C1244 1.396 . S
C1245 C1246 1.399 . S
C1246 H1232 0.929 . S
C1246 C1245 1.399 . S
C1246 C1247 1.385 . S
C1247 H1233 0.931 . S
C1247 C1246 1.385 . S
C1247 C1248 1.389 . S
C1248 C1247 1.389 . S
C1248 C1249 1.387 . S
C1249 H1234 0.930 . S
C1249 C1244 1.390 . S
C1249 C1248 1.387 . S
H1250 C1262 0.930 . S
H1251 C1264 0.930 . S
H1252 C1265 0.930 . S
H1253 C1269 0.959 . S
H1254 C1269 0.959 . S
H1255 C1269 0.961 . S
H1256 C1270 0.960 . S
H1257 C1270 0.961 . S
H1258 C1270 0.959 . S
H1259 C1273 0.929 . S
H1260 C1274 0.931 . S
H1261 C1276 0.930 . S
C1262 H1250 0.930 . S
C1262 C1263 1.399 . S
C1262 C1267 1.399 . S
C1263 C1262 1.399 . S
C1263 C1264 1.376 . S
C1264 H1251 0.930 . S
C1264 C1263 1.376 . S
C1264 C1265 1.388 . S
C1265 H1252 0.930 . S
C1265 C1264 1.388 . S
C1265 C1266 1.390 . S
C1266 C1265 1.390 . S
C1266 C1267 1.394 . S
C1266 C1272 1.465 . S
C1267 C1262 1.399 . S
C1267 C1266 1.394 . S
C1267 C1268 1.516 . S
C1268 C1267 1.516 . S
C1268 C1269 1.502 . S
C1268 C1270 1.561 . S
C1268 C1271 1.526 . S
C1269 H1253 0.959 . S
C1269 H1254 0.959 . S
C1269 H1255 0.961 . S
C1269 C1268 1.502 . S
C1270 H1256 0.960 . S
C1270 H1257 0.961 . S
C1270 H1258 0.959 . S
C1270 C1268 1.561 . S
C1271 C1268 1.526 . S
C1271 C1272 1.396 . S
C1271 C1276 1.390 . S
C1272 C1266 1.465 . S
C1272 C1271 1.396 . S
C1272 C1273 1.399 . S
C1273 H1259 0.929 . S
C1273 C1272 1.399 . S
C1273 C1274 1.385 . S
C1274 H1260 0.931 . S
C1274 C1273 1.385 . S
C1274 C1275 1.389 . S
C1275 C1274 1.389 . S
C1275 C1276 1.387 . S
C1276 H1261 0.930 . S
C1276 C1271 1.390 . S
C1276 C1275 1.387 . S
H1277 C1289 0.930 . S
H1278 C1291 0.930 . S
H1279 C1292 0.930 . S
H1280 C1296 0.959 . S
H1281 C1296 0.959 . S
H1282 C1296 0.961 . S
H1283 C1297 0.960 . S
H1284 C1297 0.961 . S
H1285 C1297 0.959 . S
H1286 C1300 0.929 . S
H1287 C1301 0.931 . S
H1288 C1303 0.930 . S
C1289 H1277 0.930 . S
C1289 C1290 1.399 . S
C1289 C1294 1.399 . S
C1290 C1289 1.399 . S
C1290 C1291 1.376 . S
C1291 H1278 0.930 . S
C1291 C1290 1.376 . S
C1291 C1292 1.388 . S
C1292 H1279 0.930 . S
C1292 C1291 1.388 . S
C1292 C1293 1.390 . S
C1293 C1292 1.390 . S
C1293 C1294 1.394 . S
C1293 C1299 1.465 . S
C1294 C1289 1.399 . S
C1294 C1293 1.394 . S
C1294 C1295 1.516 . S
C1295 C1294 1.516 . S
C1295 C1296 1.502 . S
C1295 C1297 1.561 . S
C1295 C1298 1.526 . S
C1296 H1280 0.959 . S
C1296 H1281 0.959 . S
C1296 H1282 0.961 . S
C1296 C1295 1.502 . S
C1297 H1283 0.960 . S
C1297 H1284 0.961 . S
C1297 H1285 0.959 . S
C1297 C1295 1.561 . S
C1298 C1295 1.526 . S
C1298 C1299 1.396 . S
C1298 C1303 1.390 . S
C1299 C1293 1.465 . S
C1299 C1298 1.396 . S
C1299 C1300 1.399 . S
C1300 H1286 0.929 . S
C1300 C1299 1.399 . S
C1300 C1301 1.385 . S
C1301 H1287 0.931 . S
C1301 C1300 1.385 . S
C1301 C1302 1.389 . S
C1302 C1301 1.389 . S
C1302 C1303 1.387 . S
C1303 H1288 0.930 . S
C1303 C1298 1.390 . S
C1303 C1302 1.387 . S
H1304 C1316 0.930 . S
H1305 C1318 0.930 . S
H1306 C1319 0.930 . S
H1307 C1323 0.959 1_655 S
H1308 C1323 0.959 . S
H1309 C1323 0.961 . S
H1310 C1324 0.960 . S
H1311 C1324 0.961 . S
H1312 C1324 0.959 . S
H1313 C1327 0.929 . S
H1314 C1328 0.931 . S
H1315 C1330 0.930 . S
C1316 H1304 0.930 . S
C1316 C1317 1.399 . S
C1316 C1321 1.399 . S
C1317 C1316 1.399 . S
C1317 C1318 1.376 . S
C1318 H1305 0.930 . S
C1318 C1317 1.376 . S
C1318 C1319 1.388 . S
C1319 H1306 0.930 . S
C1319 C1318 1.388 . S
C1319 C1320 1.390 . S
C1320 C1319 1.390 . S
C1320 C1321 1.394 . S
C1320 C1326 1.465 . S
C1321 C1316 1.399 . S
C1321 C1320 1.394 . S
C1321 C1322 1.516 . S
C1322 C1321 1.516 . S
C1322 C1323 1.502 . S
C1322 C1324 1.561 . S
C1322 C1325 1.526 . S
C1323 H1307 0.959 1_455 S
C1323 H1308 0.959 . S
C1323 H1309 0.961 . S
C1323 C1322 1.502 . S
C1324 H1310 0.960 . S
C1324 H1311 0.961 . S
C1324 H1312 0.959 . S
C1324 C1322 1.561 . S
C1325 C1322 1.526 . S
C1325 C1326 1.396 . S
C1325 C1330 1.390 . S
C1326 C1320 1.465 . S
C1326 C1325 1.396 . S
C1326 C1327 1.399 . S
C1327 H1313 0.929 . S
C1327 C1326 1.399 . S
C1327 C1328 1.385 . S
C1328 H1314 0.931 . S
C1328 C1327 1.385 . S
C1328 C1329 1.389 . S
C1329 C1328 1.389 . S
C1329 C1330 1.387 . S
C1330 H1315 0.930 . S
C1330 C1325 1.390 . S
C1330 C1329 1.387 . S
H1331 C1343 0.930 . S
H1332 C1345 0.930 . S
H1333 C1346 0.930 . S
H1334 C1350 0.959 . S
H1335 C1350 0.959 . S
H1336 C1350 0.961 . S
H1337 C1351 0.960 . S
H1338 C1351 0.961 . S
H1339 C1351 0.959 . S
H1340 C1354 0.929 . S
H1341 C1355 0.931 . S
H1342 C1357 0.930 . S
C1343 H1331 0.930 . S
C1343 C1344 1.399 . S
C1343 C1348 1.399 . S
C1344 C1343 1.399 . S
C1344 C1345 1.376 . S
C1345 H1332 0.930 . S
C1345 C1344 1.376 . S
C1345 C1346 1.388 . S
C1346 H1333 0.930 . S
C1346 C1345 1.388 . S
C1346 C1347 1.390 . S
C1347 C1346 1.390 . S
C1347 C1348 1.394 . S
C1347 C1353 1.465 . S
C1348 C1343 1.399 . S
C1348 C1347 1.394 . S
C1348 C1349 1.516 . S
C1349 C1348 1.516 . S
C1349 C1350 1.502 . S
C1349 C1351 1.561 . S
C1349 C1352 1.526 . S
C1350 H1334 0.959 . S
C1350 H1335 0.959 . S
C1350 H1336 0.961 . S
C1350 C1349 1.502 . S
C1351 H1337 0.960 . S
C1351 H1338 0.961 . S
C1351 H1339 0.959 . S
C1351 C1349 1.561 . S
C1352 C1349 1.526 . S
C1352 C1353 1.396 . S
C1352 C1357 1.390 . S
C1353 C1347 1.465 . S
C1353 C1352 1.396 . S
C1353 C1354 1.399 . S
C1354 H1340 0.929 . S
C1354 C1353 1.399 . S
C1354 C1355 1.385 . S
C1355 H1341 0.931 . S
C1355 C1354 1.385 . S
C1355 C1356 1.389 . S
C1356 C1355 1.389 . S
C1356 C1357 1.387 . S
C1357 H1342 0.930 . S
C1357 C1352 1.390 . S
C1357 C1356 1.387 . S
H1358 C1370 0.930 . S
H1359 C1372 0.930 . S
H1360 C1373 0.930 . S
H1361 C1377 0.959 . S
H1362 C1377 0.959 . S
H1363 C1377 0.961 . S
H1364 C1378 0.960 . S
H1365 C1378 0.961 . S
H1366 C1378 0.959 . S
H1367 C1381 0.929 . S
H1368 C1382 0.931 . S
H1369 C1384 0.930 . S
C1370 H1358 0.930 . S
C1370 C1371 1.399 . S
C1370 C1375 1.399 . S
C1371 C1370 1.399 . S
C1371 C1372 1.376 . S
C1372 H1359 0.930 . S
C1372 C1371 1.376 . S
C1372 C1373 1.388 . S
C1373 H1360 0.930 . S
C1373 C1372 1.388 . S
C1373 C1374 1.390 . S
C1374 C1373 1.390 . S
C1374 C1375 1.394 . S
C1374 C1380 1.465 . S
C1375 C1370 1.399 . S
C1375 C1374 1.394 . S
C1375 C1376 1.516 . S
C1376 C1375 1.516 . S
C1376 C1377 1.502 . S
C1376 C1378 1.561 . S
C1376 C1379 1.526 . S
C1377 H1361 0.959 . S
C1377 H1362 0.959 . S
C1377 H1363 0.961 . S
C1377 C1376 1.502 . S
C1378 H1364 0.960 . S
C1378 H1365 0.961 . S
C1378 H1366 0.959 . S
C1378 C1376 1.561 . S
C1379 C1376 1.526 . S
C1379 C1380 1.396 . S
C1379 C1384 1.390 . S
C1380 C1374 1.465 . S
C1380 C1379 1.396 . S
C1380 C1381 1.399 . S
C1381 H1367 0.929 . S
C1381 C1380 1.399 . S
C1381 C1382 1.385 . S
C1382 H1368 0.931 . S
C1382 C1381 1.385 . S
C1382 C1383 1.389 . S
C1383 C1382 1.389 . S
C1383 C1384 1.387 . S
C1384 H1369 0.930 . S
C1384 C1379 1.390 . S
C1384 C1383 1.387 . S
H1385 C1397 0.930 . S
H1386 C1399 0.930 . S
H1387 C1400 0.930 . S
H1388 C1404 0.959 . S
H1389 C1404 0.959 . S
H1390 C1404 0.961 . S
H1391 C1405 0.960 . S
H1392 C1405 0.961 . S
H1393 C1405 0.959 . S
H1394 C1408 0.929 . S
H1395 C1409 0.931 . S
H1396 C1411 0.930 . S
C1397 H1385 0.930 . S
C1397 C1398 1.399 . S
C1397 C1402 1.399 . S
C1398 C1397 1.399 . S
C1398 C1399 1.376 . S
C1399 H1386 0.930 . S
C1399 C1398 1.376 . S
C1399 C1400 1.388 . S
C1400 H1387 0.930 . S
C1400 C1399 1.388 . S
C1400 C1401 1.390 . S
C1401 C1400 1.390 . S
C1401 C1402 1.394 . S
C1401 C1407 1.465 . S
C1402 C1397 1.399 . S
C1402 C1401 1.394 . S
C1402 C1403 1.516 . S
C1403 C1402 1.516 . S
C1403 C1404 1.502 . S
C1403 C1405 1.561 . S
C1403 C1406 1.526 . S
C1404 H1388 0.959 . S
C1404 H1389 0.959 . S
C1404 H1390 0.961 . S
C1404 C1403 1.502 . S
C1405 H1391 0.960 . S
C1405 H1392 0.961 . S
C1405 H1393 0.959 . S
C1405 C1403 1.561 . S
C1406 C1403 1.526 . S
C1406 C1407 1.396 . S
C1406 C1411 1.390 . S
C1407 C1401 1.465 . S
C1407 C1406 1.396 . S
C1407 C1408 1.399 . S
C1408 H1394 0.929 . S
C1408 C1407 1.399 . S
C1408 C1409 1.385 . S
C1409 H1395 0.931 . S
C1409 C1408 1.385 . S
C1409 C1410 1.389 . S
C1410 C1409 1.389 . S
C1410 C1411 1.387 . S
C1411 H1396 0.930 . S
C1411 C1406 1.390 . S
C1411 C1410 1.387 . S
H1412 C1424 0.930 . S
H1413 C1426 0.930 . S
H1414 C1427 0.930 . S
H1415 C1431 0.959 1_655 S
H1416 C1431 0.959 . S
H1417 C1431 0.961 . S
H1418 C1432 0.960 . S
H1419 C1432 0.961 . S
H1420 C1432 0.959 . S
H1421 C1435 0.929 . S
H1422 C1436 0.931 . S
H1423 C1438 0.930 . S
C1424 H1412 0.930 . S
C1424 C1425 1.399 . S
C1424 C1429 1.399 . S
C1425 C1424 1.399 . S
C1425 C1426 1.376 . S
C1426 H1413 0.930 . S
C1426 C1425 1.376 . S
C1426 C1427 1.388 . S
C1427 H1414 0.930 . S
C1427 C1426 1.388 . S
C1427 C1428 1.390 . S
C1428 C1427 1.390 . S
C1428 C1429 1.394 . S
C1428 C1434 1.465 . S
C1429 C1424 1.399 . S
C1429 C1428 1.394 . S
C1429 C1430 1.516 . S
C1430 C1429 1.516 . S
C1430 C1431 1.502 . S
C1430 C1432 1.561 . S
C1430 C1433 1.526 . S
C1431 H1415 0.959 1_455 S
C1431 H1416 0.959 . S
C1431 H1417 0.961 . S
C1431 C1430 1.502 . S
C1432 H1418 0.960 . S
C1432 H1419 0.961 . S
C1432 H1420 0.959 . S
C1432 C1430 1.561 . S
C1433 C1430 1.526 . S
C1433 C1434 1.396 . S
C1433 C1438 1.390 . S
C1434 C1428 1.465 . S
C1434 C1433 1.396 . S
C1434 C1435 1.399 . S
C1435 H1421 0.929 . S
C1435 C1434 1.399 . S
C1435 C1436 1.385 . S
C1436 H1422 0.931 . S
C1436 C1435 1.385 . S
C1436 C1437 1.389 . S
C1437 C1436 1.389 . S
C1437 C1438 1.387 . S
C1438 H1423 0.930 . S
C1438 C1433 1.390 . S
C1438 C1437 1.387 . S
H1439 C1451 0.930 . S
H1440 C1453 0.930 . S
H1441 C1454 0.930 . S
H1442 C1458 0.959 . S
H1443 C1458 0.959 . S
H1444 C1458 0.961 . S
H1445 C1459 0.960 . S
H1446 C1459 0.961 . S
H1447 C1459 0.959 . S
H1448 C1462 0.929 . S
H1449 C1463 0.931 . S
H1450 C1465 0.930 . S
C1451 H1439 0.930 . S
C1451 C1452 1.399 . S
C1451 C1456 1.399 . S
C1452 C1451 1.399 . S
C1452 C1453 1.376 . S
C1453 H1440 0.930 . S
C1453 C1452 1.376 . S
C1453 C1454 1.388 . S
C1454 H1441 0.930 . S
C1454 C1453 1.388 . S
C1454 C1455 1.390 . S
C1455 C1454 1.390 . S
C1455 C1456 1.394 . S
C1455 C1461 1.465 . S
C1456 C1451 1.399 . S
C1456 C1455 1.394 . S
C1456 C1457 1.516 . S
C1457 C1456 1.516 . S
C1457 C1458 1.502 . S
C1457 C1459 1.561 . S
C1457 C1460 1.526 . S
C1458 H1442 0.959 . S
C1458 H1443 0.959 . S
C1458 H1444 0.961 . S
C1458 C1457 1.502 . S
C1459 H1445 0.960 . S
C1459 H1446 0.961 . S
C1459 H1447 0.959 . S
C1459 C1457 1.561 . S
C1460 C1457 1.526 . S
C1460 C1461 1.396 . S
C1460 C1465 1.390 . S
C1461 C1455 1.465 . S
C1461 C1460 1.396 . S
C1461 C1462 1.399 . S
C1462 H1448 0.929 . S
C1462 C1461 1.399 . S
C1462 C1463 1.385 . S
C1463 H1449 0.931 . S
C1463 C1462 1.385 . S
C1463 C1464 1.389 . S
C1464 C1463 1.389 . S
C1464 C1465 1.387 . S
C1465 H1450 0.930 . S
C1465 C1460 1.390 . S
C1465 C1464 1.387 . S
H1466 C1478 0.930 . S
H1467 C1480 0.930 . S
H1468 C1481 0.930 . S
H1469 C1485 0.959 . S
H1470 C1485 0.959 . S
H1471 C1485 0.961 . S
H1472 C1486 0.960 . S
H1473 C1486 0.961 1_554 S
H1474 C1486 0.958 1_554 S
H1475 C1489 0.929 . S
H1476 C1490 0.931 . S
H1477 C1492 0.930 1_554 S
C1478 H1466 0.930 . S
C1478 C1479 1.399 . S
C1478 C1483 1.399 . S
C1479 C1478 1.399 . S
C1479 C1480 1.376 . S
C1480 H1467 0.930 . S
C1480 C1479 1.376 . S
C1480 C1481 1.388 . S
C1481 H1468 0.930 . S
C1481 C1480 1.388 . S
C1481 C1482 1.390 . S
C1482 C1481 1.390 . S
C1482 C1483 1.394 . S
C1482 C1488 1.465 . S
C1483 C1478 1.399 . S
C1483 C1482 1.394 . S
C1483 C1484 1.516 . S
C1484 C1483 1.516 . S
C1484 C1485 1.502 . S
C1484 C1486 1.561 . S
C1484 C1487 1.526 . S
C1485 H1469 0.959 . S
C1485 H1470 0.959 . S
C1485 H1471 0.961 . S
C1485 C1484 1.502 . S
C1486 H1472 0.960 . S
C1486 H1473 0.961 1_556 S
C1486 H1474 0.958 1_556 S
C1486 C1484 1.561 . S
C1487 C1484 1.526 . S
C1487 C1488 1.396 . S
C1487 C1492 1.390 . S
C1488 C1482 1.465 . S
C1488 C1487 1.396 . S
C1488 C1489 1.399 . S
C1489 H1475 0.929 . S
C1489 C1488 1.399 . S
C1489 C1490 1.385 . S
C1490 H1476 0.931 . S
C1490 C1489 1.385 . S
C1490 C1491 1.389 . S
C1491 C1490 1.389 . S
C1491 C1492 1.387 . S
C1492 H1477 0.930 1_556 S
C1492 C1487 1.390 . S
C1492 C1491 1.387 . S
H1493 C1505 0.930 . S
H1494 C1507 0.930 . S
H1495 C1508 0.930 . S
H1496 C1512 0.959 . S
H1497 C1512 0.959 . S
H1498 C1512 0.961 . S
H1499 C1513 0.960 . S
H1500 C1513 0.961 . S
H1501 C1513 0.959 . S
H1502 C1516 0.929 . S
H1503 C1517 0.931 . S
H1504 C1519 0.930 . S
C1505 H1493 0.930 . S
C1505 C1506 1.399 . S
C1505 C1510 1.399 . S
C1506 C1505 1.399 . S
C1506 C1507 1.376 . S
C1507 H1494 0.930 . S
C1507 C1506 1.376 . S
C1507 C1508 1.388 . S
C1508 H1495 0.930 . S
C1508 C1507 1.388 . S
C1508 C1509 1.390 . S
C1509 C1508 1.390 . S
C1509 C1510 1.394 . S
C1509 C1515 1.465 . S
C1510 C1505 1.399 . S
C1510 C1509 1.394 . S
C1510 C1511 1.516 . S
C1511 C1510 1.516 . S
C1511 C1512 1.502 . S
C1511 C1513 1.561 . S
C1511 C1514 1.526 . S
C1512 H1496 0.959 . S
C1512 H1497 0.959 . S
C1512 H1498 0.961 . S
C1512 C1511 1.502 . S
C1513 H1499 0.960 . S
C1513 H1500 0.961 . S
C1513 H1501 0.959 . S
C1513 C1511 1.561 . S
C1514 C1511 1.526 . S
C1514 C1515 1.396 . S
C1514 C1519 1.390 . S
C1515 C1509 1.465 . S
C1515 C1514 1.396 . S
C1515 C1516 1.399 . S
C1516 H1502 0.929 . S
C1516 C1515 1.399 . S
C1516 C1517 1.385 . S
C1517 H1503 0.931 . S
C1517 C1516 1.385 . S
C1517 C1518 1.389 . S
C1518 C1517 1.389 . S
C1518 C1519 1.387 . S
C1519 H1504 0.930 . S
C1519 C1514 1.390 . S
C1519 C1518 1.387 . S
H1520 C1532 0.930 . S
H1521 C1534 0.930 . S
H1522 C1535 0.930 . S
H1523 C1539 0.959 . S
H1524 C1539 0.959 . S
H1525 C1539 0.961 . S
H1526 C1540 0.960 . S
H1527 C1540 0.961 . S
H1528 C1540 0.959 . S
H1529 C1543 0.929 . S
H1530 C1544 0.931 . S
H1531 C1546 0.930 1_565 S
C1532 H1520 0.930 . S
C1532 C1533 1.399 1_565 S
C1532 C1537 1.399 1_565 S
C1533 C1532 1.399 1_545 S
C1533 C1534 1.376 . S
C1534 H1521 0.930 . S
C1534 C1533 1.376 . S
C1534 C1535 1.388 . S
C1535 H1522 0.930 . S
C1535 C1534 1.388 . S
C1535 C1536 1.390 . S
C1536 C1535 1.390 . S
C1536 C1537 1.394 . S
C1536 C1542 1.465 . S
C1537 C1532 1.399 1_545 S
C1537 C1536 1.394 . S
C1537 C1538 1.516 1_545 S
C1538 C1537 1.516 1_565 S
C1538 C1539 1.502 . S
C1538 C1540 1.561 . S
C1538 C1541 1.526 1_565 S
C1539 H1523 0.959 . S
C1539 H1524 0.959 . S
C1539 H1525 0.961 . S
C1539 C1538 1.502 . S
C1540 H1526 0.960 . S
C1540 H1527 0.961 . S
C1540 H1528 0.959 . S
C1540 C1538 1.561 . S
C1541 C1538 1.526 1_545 S
C1541 C1542 1.396 . S
C1541 C1546 1.390 . S
C1542 C1536 1.465 . S
C1542 C1541 1.396 . S
C1542 C1543 1.399 . S
C1543 H1529 0.929 . S
C1543 C1542 1.399 . S
C1543 C1544 1.385 . S
C1544 H1530 0.931 . S
C1544 C1543 1.385 . S
C1544 C1545 1.389 . S
C1545 C1544 1.389 . S
C1545 C1546 1.387 . S
C1546 H1531 0.930 1_545 S
C1546 C1541 1.390 . S
C1546 C1545 1.387 . S
H1547 C1559 0.930 . S
H1548 C1561 0.930 . S
H1549 C1562 0.930 . S
H1550 C1566 0.959 . S
H1551 C1566 0.959 . S
H1552 C1566 0.961 . S
H1553 C1567 0.960 . S
H1554 C1567 0.961 . S
H1555 C1567 0.959 . S
H1556 C1570 0.929 . S
H1557 C1571 0.931 . S
H1558 C1573 0.930 . S
C1559 H1547 0.930 . S
C1559 C1560 1.399 . S
C1559 C1564 1.399 . S
C1560 C1559 1.399 . S
C1560 C1561 1.376 . S
C1561 H1548 0.930 . S
C1561 C1560 1.376 . S
C1561 C1562 1.388 . S
C1562 H1549 0.930 . S
C1562 C1561 1.388 . S
C1562 C1563 1.390 . S
C1563 C1562 1.390 . S
C1563 C1564 1.394 . S
C1563 C1569 1.465 . S
C1564 C1559 1.399 . S
C1564 C1563 1.394 . S
C1564 C1565 1.516 . S
C1565 C1564 1.516 . S
C1565 C1566 1.502 . S
C1565 C1567 1.561 . S
C1565 C1568 1.526 . S
C1566 H1550 0.959 . S
C1566 H1551 0.959 . S
C1566 H1552 0.961 . S
C1566 C1565 1.502 . S
C1567 H1553 0.960 . S
C1567 H1554 0.961 . S
C1567 H1555 0.959 . S
C1567 C1565 1.561 . S
C1568 C1565 1.526 . S
C1568 C1569 1.396 . S
C1568 C1573 1.390 . S
C1569 C1563 1.465 . S
C1569 C1568 1.396 . S
C1569 C1570 1.399 . S
C1570 H1556 0.929 . S
C1570 C1569 1.399 . S
C1570 C1571 1.385 . S
C1571 H1557 0.931 . S
C1571 C1570 1.385 . S
C1571 C1572 1.389 . S
C1572 C1571 1.389 . S
C1572 C1573 1.387 . S
C1573 H1558 0.930 . S
C1573 C1568 1.390 . S
C1573 C1572 1.387 . S
H1574 C1586 0.930 . S
H1575 C1588 0.930 . S
H1576 C1589 0.930 . S
H1577 C1593 0.959 . S
H1578 C1593 0.959 1_565 S
H1579 C1593 0.961 1_565 S
H1580 C1594 0.960 . S
H1581 C1594 0.961 . S
H1582 C1594 0.959 1_545 S
H1583 C1597 0.929 . S
H1584 C1598 0.931 . S
H1585 C1600 0.930 . S
C1586 H1574 0.930 . S
C1586 C1587 1.399 . S
C1586 C1591 1.399 . S
C1587 C1586 1.399 . S
C1587 C1588 1.376 . S
C1588 H1575 0.930 . S
C1588 C1587 1.376 . S
C1588 C1589 1.388 . S
C1589 H1576 0.930 . S
C1589 C1588 1.388 . S
C1589 C1590 1.390 . S
C1590 C1589 1.390 . S
C1590 C1591 1.394 . S
C1590 C1596 1.465 . S
C1591 C1586 1.399 . S
C1591 C1590 1.394 . S
C1591 C1592 1.516 . S
C1592 C1591 1.516 . S
C1592 C1593 1.502 . S
C1592 C1594 1.561 1_545 S
C1592 C1595 1.526 . S
C1593 H1577 0.959 . S
C1593 H1578 0.959 1_545 S
C1593 H1579 0.961 1_545 S
C1593 C1592 1.502 . S
C1594 H1580 0.960 . S
C1594 H1581 0.961 . S
C1594 H1582 0.959 1_565 S
C1594 C1592 1.561 1_565 S
C1595 C1592 1.526 . S
C1595 C1596 1.396 . S
C1595 C1600 1.390 . S
C1596 C1590 1.465 . S
C1596 C1595 1.396 . S
C1596 C1597 1.399 . S
C1597 H1583 0.929 . S
C1597 C1596 1.399 . S
C1597 C1598 1.385 . S
C1598 H1584 0.931 . S
C1598 C1597 1.385 . S
C1598 C1599 1.389 . S
C1599 C1598 1.389 . S
C1599 C1600 1.387 . S
C1600 H1585 0.930 . S
C1600 C1595 1.390 . S
C1600 C1599 1.387 . S
H1601 C1613 0.930 . S
H1602 C1615 0.930 . S
H1603 C1616 0.930 . S
H1604 C1620 0.959 . S
H1605 C1620 0.959 . S
H1606 C1620 0.961 . S
H1607 C1621 0.960 . S
H1608 C1621 0.961 . S
H1609 C1621 0.959 . S
H1610 C1624 0.929 . S
H1611 C1625 0.931 . S
H1612 C1627 0.930 . S
C1613 H1601 0.930 . S
C1613 C1614 1.399 . S
C1613 C1618 1.399 . S
C1614 C1613 1.399 . S
C1614 C1615 1.376 . S
C1615 H1602 0.930 . S
C1615 C1614 1.376 . S
C1615 C1616 1.388 . S
C1616 H1603 0.930 . S
C1616 C1615 1.388 . S
C1616 C1617 1.390 . S
C1617 C1616 1.390 . S
C1617 C1618 1.394 . S
C1617 C1623 1.465 . S
C1618 C1613 1.399 . S
C1618 C1617 1.394 . S
C1618 C1619 1.516 . S
C1619 C1618 1.516 . S
C1619 C1620 1.502 . S
C1619 C1621 1.561 . S
C1619 C1622 1.526 . S
C1620 H1604 0.959 . S
C1620 H1605 0.959 . S
C1620 H1606 0.961 . S
C1620 C1619 1.502 . S
C1621 H1607 0.960 . S
C1621 H1608 0.961 . S
C1621 H1609 0.959 . S
C1621 C1619 1.561 . S
C1622 C1619 1.526 . S
C1622 C1623 1.396 . S
C1622 C1627 1.390 . S
C1623 C1617 1.465 . S
C1623 C1622 1.396 . S
C1623 C1624 1.399 . S
C1624 H1610 0.929 . S
C1624 C1623 1.399 . S
C1624 C1625 1.385 . S
C1625 H1611 0.931 . S
C1625 C1624 1.385 . S
C1625 C1626 1.389 . S
C1626 C1625 1.389 . S
C1626 C1627 1.387 . S
C1627 H1612 0.930 . S
C1627 C1622 1.390 . S
C1627 C1626 1.387 . S
H1628 C1640 0.930 . S
H1629 C1642 0.930 . S
H1630 C1643 0.930 . S
H1631 C1647 0.959 . S
H1632 C1647 0.959 1_565 S
H1633 C1647 0.961 1_565 S
H1634 C1648 0.960 . S
H1635 C1648 0.961 . S
H1636 C1648 0.959 . S
H1637 C1651 0.929 . S
H1638 C1652 0.931 . S
H1639 C1654 0.930 . S
C1640 H1628 0.930 . S
C1640 C1641 1.399 1_565 S
C1640 C1645 1.399 1_565 S
C1641 C1640 1.399 1_545 S
C1641 C1642 1.376 . S
C1642 H1629 0.930 . S
C1642 C1641 1.376 . S
C1642 C1643 1.388 . S
C1643 H1630 0.930 . S
C1643 C1642 1.388 . S
C1643 C1644 1.390 . S
C1644 C1643 1.390 . S
C1644 C1645 1.394 . S
C1644 C1650 1.465 . S
C1645 C1640 1.399 1_545 S
C1645 C1644 1.394 . S
C1645 C1646 1.516 1_545 S
C1646 C1645 1.516 1_565 S
C1646 C1647 1.502 1_565 S
C1646 C1648 1.561 . S
C1646 C1649 1.526 1_565 S
C1647 H1631 0.959 . S
C1647 H1632 0.959 1_545 S
C1647 H1633 0.961 1_545 S
C1647 C1646 1.502 1_545 S
C1648 H1634 0.960 . S
C1648 H1635 0.961 . S
C1648 H1636 0.959 . S
C1648 C1646 1.561 . S
C1649 C1646 1.526 1_545 S
C1649 C1650 1.396 . S
C1649 C1654 1.390 . S
C1650 C1644 1.465 . S
C1650 C1649 1.396 . S
C1650 C1651 1.399 . S
C1651 H1637 0.929 . S
C1651 C1650 1.399 . S
C1651 C1652 1.385 . S
C1652 H1638 0.931 . S
C1652 C1651 1.385 . S
C1652 C1653 1.389 . S
C1653 C1652 1.389 . S
C1653 C1654 1.387 . S
C1654 H1639 0.930 . S
C1654 C1649 1.390 . S
C1654 C1653 1.387 . S
H1655 C1667 0.930 . S
H1656 C1669 0.930 . S
H1657 C1670 0.930 . S
H1658 C1674 0.959 . S
H1659 C1674 0.959 . S
H1660 C1674 0.961 . S
H1661 C1675 0.960 . S
H1662 C1675 0.961 . S
H1663 C1675 0.959 . S
H1664 C1678 0.929 . S
H1665 C1679 0.931 . S
H1666 C1681 0.930 . S
C1667 H1655 0.930 . S
C1667 C1668 1.399 . S
C1667 C1672 1.399 . S
C1668 C1667 1.399 . S
C1668 C1669 1.376 . S
C1669 H1656 0.930 . S
C1669 C1668 1.376 . S
C1669 C1670 1.388 . S
C1670 H1657 0.930 . S
C1670 C1669 1.388 . S
C1670 C1671 1.390 . S
C1671 C1670 1.390 . S
C1671 C1672 1.394 . S
C1671 C1677 1.465 . S
C1672 C1667 1.399 . S
C1672 C1671 1.394 . S
C1672 C1673 1.516 . S
C1673 C1672 1.516 . S
C1673 C1674 1.502 . S
C1673 C1675 1.561 . S
C1673 C1676 1.526 . S
C1674 H1658 0.959 . S
C1674 H1659 0.959 . S
C1674 H1660 0.961 . S
C1674 C1673 1.502 . S
C1675 H1661 0.960 . S
C1675 H1662 0.961 . S
C1675 H1663 0.959 . S
C1675 C1673 1.561 . S
C1676 C1673 1.526 . S
C1676 C1677 1.396 . S
C1676 C1681 1.390 . S
C1677 C1671 1.465 . S
C1677 C1676 1.396 . S
C1677 C1678 1.399 . S
C1678 H1664 0.929 . S
C1678 C1677 1.399 . S
C1678 C1679 1.385 . S
C1679 H1665 0.931 . S
C1679 C1678 1.385 . S
C1679 C1680 1.389 . S
C1680 C1679 1.389 . S
C1680 C1681 1.387 . S
C1681 H1666 0.930 . S
C1681 C1676 1.390 . S
C1681 C1680 1.387 . S
H1682 C1694 0.930 . S
H1683 C1696 0.930 . S
H1684 C1697 0.930 . S
H1685 C1701 0.959 . S
H1686 C1701 0.959 . S
H1687 C1701 0.961 . S
H1688 C1702 0.960 . S
H1689 C1702 0.961 . S
H1690 C1702 0.959 . S
H1691 C1705 0.929 1_565 S
H1692 C1706 0.931 1_565 S
H1693 C1708 0.930 . S
C1694 H1682 0.930 . S
C1694 C1695 1.399 . S
C1694 C1699 1.399 . S
C1695 C1694 1.399 . S
C1695 C1696 1.376 . S
C1696 H1683 0.930 . S
C1696 C1695 1.376 . S
C1696 C1697 1.388 . S
C1697 H1684 0.930 . S
C1697 C1696 1.388 . S
C1697 C1698 1.390 . S
C1698 C1697 1.390 . S
C1698 C1699 1.394 . S
C1698 C1704 1.465 . S
C1699 C1694 1.399 . S
C1699 C1698 1.394 . S
C1699 C1700 1.516 . S
C1700 C1699 1.516 . S
C1700 C1701 1.502 . S
C1700 C1702 1.561 . S
C1700 C1703 1.526 . S
C1701 H1685 0.959 . S
C1701 H1686 0.959 . S
C1701 H1687 0.961 . S
C1701 C1700 1.502 . S
C1702 H1688 0.960 . S
C1702 H1689 0.961 . S
C1702 H1690 0.959 . S
C1702 C1700 1.561 . S
C1703 C1700 1.526 . S
C1703 C1704 1.396 . S
C1703 C1708 1.390 . S
C1704 C1698 1.465 . S
C1704 C1703 1.396 . S
C1704 C1705 1.399 . S
C1705 H1691 0.929 1_545 S
C1705 C1704 1.399 . S
C1705 C1706 1.385 . S
C1706 H1692 0.931 1_545 S
C1706 C1705 1.385 . S
C1706 C1707 1.389 . S
C1707 C1706 1.389 . S
C1707 C1708 1.387 . S
C1708 H1693 0.930 . S
C1708 C1703 1.390 . S
C1708 C1707 1.387 . S
H1709 C1721 0.930 . S
H1710 C1723 0.930 . S
H1711 C1724 0.930 . S
H1712 C1728 0.959 . S
H1713 C1728 0.959 . S
H1714 C1728 0.961 . S
H1715 C1729 0.960 . S
H1716 C1729 0.961 . S
H1717 C1729 0.959 . S
H1718 C1732 0.929 . S
H1719 C1733 0.931 . S
H1720 C1735 0.930 . S
C1721 H1709 0.930 . S
C1721 C1722 1.399 . S
C1721 C1726 1.399 . S
C1722 C1721 1.399 . S
C1722 C1723 1.376 . S
C1723 H1710 0.930 . S
C1723 C1722 1.376 . S
C1723 C1724 1.388 . S
C1724 H1711 0.930 . S
C1724 C1723 1.388 . S
C1724 C1725 1.390 . S
C1725 C1724 1.390 . S
C1725 C1726 1.394 . S
C1725 C1731 1.465 . S
C1726 C1721 1.399 . S
C1726 C1725 1.394 . S
C1726 C1727 1.516 . S
C1727 C1726 1.516 . S
C1727 C1728 1.502 . S
C1727 C1729 1.561 . S
C1727 C1730 1.526 . S
C1728 H1712 0.959 . S
C1728 H1713 0.959 . S
C1728 H1714 0.961 . S
C1728 C1727 1.502 . S
C1729 H1715 0.960 . S
C1729 H1716 0.961 . S
C1729 H1717 0.959 . S
C1729 C1727 1.561 . S
C1730 C1727 1.526 . S
C1730 C1731 1.396 . S
C1730 C1735 1.390 . S
C1731 C1725 1.465 . S
C1731 C1730 1.396 . S
C1731 C1732 1.399 . S
C1732 H1718 0.929 . S
C1732 C1731 1.399 . S
C1732 C1733 1.385 . S
C1733 H1719 0.931 . S
C1733 C1732 1.385 . S
C1733 C1734 1.389 . S
C1734 C1733 1.389 . S
C1734 C1735 1.387 . S
C1735 H1720 0.930 . S
C1735 C1730 1.390 . S
C1735 C1734 1.387 . S
H1736 C1748 0.930 . S
H1737 C1750 0.930 . S
H1738 C1751 0.930 . S
H1739 C1755 0.959 1_554 S
H1740 C1755 0.959 . S
H1741 C1755 0.961 . S
H1742 C1756 0.960 . S
H1743 C1756 0.961 . S
H1744 C1756 0.959 . S
H1745 C1759 0.929 . S
H1746 C1760 0.931 . S
H1747 C1762 0.930 . S
C1748 H1736 0.930 . S
C1748 C1749 1.399 1_556 S
C1748 C1753 1.399 1_556 S
C1749 C1748 1.399 1_554 S
C1749 C1750 1.376 . S
C1750 H1737 0.930 . S
C1750 C1749 1.376 . S
C1750 C1751 1.388 . S
C1751 H1738 0.930 . S
C1751 C1750 1.388 . S
C1751 C1752 1.390 . S
C1752 C1751 1.390 . S
C1752 C1753 1.397 . S
C1752 C1758 1.465 . S
C1753 C1748 1.399 1_554 S
C1753 C1752 1.397 . S
C1753 C1754 1.513 1_554 S
C1754 C1753 1.513 1_556 S
C1754 C1755 1.502 . S
C1754 C1756 1.561 . S
C1754 C1757 1.537 . S
C1755 H1739 0.959 1_556 S
C1755 H1740 0.959 . S
C1755 H1741 0.961 . S
C1755 C1754 1.502 . S
C1756 H1742 0.960 . S
C1756 H1743 0.961 . S
C1756 H1744 0.959 . S
C1756 C1754 1.561 . S
C1757 C1754 1.537 . S
C1757 C1758 1.378 1_556 S
C1757 C1762 1.395 . S
C1758 C1752 1.465 . S
C1758 C1757 1.378 1_554 S
C1758 C1759 1.399 . S
C1759 H1745 0.929 . S
C1759 C1758 1.399 . S
C1759 C1760 1.385 . S
C1760 H1746 0.931 . S
C1760 C1759 1.385 . S
C1760 C1761 1.389 . S
C1761 C1760 1.389 . S
C1761 C1762 1.387 1_554 S
C1762 H1747 0.930 . S
C1762 C1757 1.395 . S
C1762 C1761 1.387 1_556 S
H1763 C1775 0.930 . S
H1764 C1777 0.930 . S
H1765 C1778 0.930 1_556 S
H1766 C1782 0.959 . S
H1767 C1782 0.959 . S
H1768 C1782 0.961 . S
H1769 C1783 0.960 . S
H1770 C1783 0.961 . S
H1771 C1783 0.959 . S
H1772 C1786 0.929 1_556 S
H1773 C1787 0.902 1_556 S
H1774 C1789 0.930 . S
C1775 H1763 0.930 . S
C1775 C1776 1.399 . S
C1775 C1780 1.399 . S
C1776 C1775 1.399 . S
C1776 C1777 1.376 . S
C1777 H1764 0.930 . S
C1777 C1776 1.376 . S
C1777 C1778 1.388 . S
C1778 H1765 0.930 1_554 S
C1778 C1777 1.388 . S
C1778 C1779 1.390 . S
C1779 C1778 1.390 . S
C1779 C1780 1.394 . S
C1779 C1785 1.465 . S
C1780 C1775 1.399 . S
C1780 C1779 1.394 . S
C1780 C1781 1.516 . S
C1781 C1780 1.516 . S
C1781 C1782 1.502 . S
C1781 C1783 1.561 . S
C1781 C1784 1.526 . S
C1782 H1766 0.959 . S
C1782 H1767 0.959 . S
C1782 H1768 0.961 . S
C1782 C1781 1.502 . S
C1783 H1769 0.960 . S
C1783 H1770 0.961 . S
C1783 H1771 0.959 . S
C1783 C1781 1.561 . S
C1784 C1781 1.526 . S
C1784 C1785 1.396 . S
C1784 C1789 1.390 . S
C1785 C1779 1.465 . S
C1785 C1784 1.396 . S
C1785 C1786 1.399 . S
C1786 H1772 0.929 1_554 S
C1786 C1785 1.399 . S
C1786 C1787 1.385 . S
C1787 H1773 0.902 1_554 S
C1787 C1786 1.385 . S
C1787 C1788 1.389 . S
C1788 C1787 1.389 . S
C1788 C1789 1.387 . S
C1789 H1774 0.930 . S
C1789 C1784 1.390 . S
C1789 C1788 1.387 . S
H1790 C1802 0.930 . S
H1791 C1804 0.930 . S
H1792 C1805 0.930 . S
H1793 C1809 0.959 . S
H1794 C1809 0.959 . S
H1795 C1809 0.961 . S
H1796 C1810 0.960 . S
H1797 C1810 0.961 . S
H1798 C1810 0.959 . S
H1799 C1813 0.929 . S
H1800 C1814 0.931 . S
H1801 C1816 0.930 . S
C1802 H1790 0.930 . S
C1802 C1803 1.399 . S
C1802 C1807 1.399 . S
C1803 C1802 1.399 . S
C1803 C1804 1.376 . S
C1804 H1791 0.930 . S
C1804 C1803 1.376 . S
C1804 C1805 1.388 . S
C1805 H1792 0.930 . S
C1805 C1804 1.388 . S
C1805 C1806 1.390 . S
C1806 C1805 1.390 . S
C1806 C1807 1.394 . S
C1806 C1812 1.465 . S
C1807 C1802 1.399 . S
C1807 C1806 1.394 . S
C1807 C1808 1.516 . S
C1808 C1807 1.516 . S
C1808 C1809 1.502 . S
C1808 C1810 1.561 . S
C1808 C1811 1.526 . S
C1809 H1793 0.959 . S
C1809 H1794 0.959 . S
C1809 H1795 0.961 . S
C1809 C1808 1.502 . S
C1810 H1796 0.960 . S
C1810 H1797 0.961 . S
C1810 H1798 0.959 . S
C1810 C1808 1.561 . S
C1811 C1808 1.526 . S
C1811 C1812 1.396 . S
C1811 C1816 1.390 . S
C1812 C1806 1.465 . S
C1812 C1811 1.396 . S
C1812 C1813 1.399 . S
C1813 H1799 0.929 . S
C1813 C1812 1.399 . S
C1813 C1814 1.385 . S
C1814 H1800 0.931 . S
C1814 C1813 1.385 . S
C1814 C1815 1.389 . S
C1815 C1814 1.389 . S
C1815 C1816 1.387 . S
C1816 H1801 0.930 . S
C1816 C1811 1.390 . S
C1816 C1815 1.387 . S
H1817 C1829 0.930 . S
H1818 C1831 0.930 . S
H1819 C1832 0.930 . S
H1820 C1836 0.959 . S
H1821 C1836 0.959 . S
H1822 C1836 0.961 . S
H1823 C1837 0.960 . S
H1824 C1837 0.961 . S
H1825 C1837 0.959 . S
H1826 C1840 0.929 . S
H1827 C1841 0.931 . S
H1828 C1843 0.930 . S
C1829 H1817 0.930 . S
C1829 C1830 1.399 . S
C1829 C1834 1.399 . S
C1830 C1829 1.399 . S
C1830 C1831 1.376 . S
C1831 H1818 0.930 . S
C1831 C1830 1.376 . S
C1831 C1832 1.388 . S
C1832 H1819 0.930 . S
C1832 C1831 1.388 . S
C1832 C1833 1.390 . S
C1833 C1832 1.390 . S
C1833 C1834 1.394 . S
C1833 C1839 1.465 . S
C1834 C1829 1.399 . S
C1834 C1833 1.394 . S
C1834 C1835 1.516 . S
C1835 C1834 1.516 . S
C1835 C1836 1.502 . S
C1835 C1837 1.561 . S
C1835 C1838 1.526 . S
C1836 H1820 0.959 . S
C1836 H1821 0.959 . S
C1836 H1822 0.961 . S
C1836 C1835 1.502 . S
C1837 H1823 0.960 . S
C1837 H1824 0.961 . S
C1837 H1825 0.959 . S
C1837 C1835 1.561 . S
C1838 C1835 1.526 . S
C1838 C1839 1.396 . S
C1838 C1843 1.390 . S
C1839 C1833 1.465 . S
C1839 C1838 1.396 . S
C1839 C1840 1.399 . S
C1840 H1826 0.929 . S
C1840 C1839 1.399 . S
C1840 C1841 1.385 . S
C1841 H1827 0.931 . S
C1841 C1840 1.385 . S
C1841 C1842 1.389 . S
C1842 C1841 1.389 . S
C1842 C1843 1.387 . S
C1843 H1828 0.930 . S
C1843 C1838 1.390 . S
C1843 C1842 1.387 . S
H1844 C1856 0.930 . S
H1845 C1858 0.930 . S
H1846 C1859 0.930 . S
H1847 C1863 0.959 . S
H1848 C1863 0.959 . S
H1849 C1863 0.961 . S
H1850 C1864 0.960 . S
H1851 C1864 0.961 . S
H1852 C1864 0.959 . S
H1853 C1867 0.929 . S
H1854 C1868 0.931 . S
H1855 C1870 0.930 . S
C1856 H1844 0.930 . S
C1856 C1857 1.399 . S
C1856 C1861 1.399 . S
C1857 C1856 1.399 . S
C1857 C1858 1.376 . S
C1858 H1845 0.930 . S
C1858 C1857 1.376 . S
C1858 C1859 1.388 . S
C1859 H1846 0.930 . S
C1859 C1858 1.388 . S
C1859 C1860 1.390 . S
C1860 C1859 1.390 . S
C1860 C1861 1.394 . S
C1860 C1866 1.465 . S
C1861 C1856 1.399 . S
C1861 C1860 1.394 . S
C1861 C1862 1.516 . S
C1862 C1861 1.516 . S
C1862 C1863 1.502 . S
C1862 C1864 1.561 . S
C1862 C1865 1.526 . S
C1863 H1847 0.959 . S
C1863 H1848 0.959 . S
C1863 H1849 0.961 . S
C1863 C1862 1.502 . S
C1864 H1850 0.960 . S
C1864 H1851 0.961 . S
C1864 H1852 0.959 . S
C1864 C1862 1.561 . S
C1865 C1862 1.526 . S
C1865 C1866 1.396 . S
C1865 C1870 1.390 . S
C1866 C1860 1.465 . S
C1866 C1865 1.396 . S
C1866 C1867 1.399 . S
C1867 H1853 0.929 . S
C1867 C1866 1.399 . S
C1867 C1868 1.385 . S
C1868 H1854 0.931 . S
C1868 C1867 1.385 . S
C1868 C1869 1.389 . S
C1869 C1868 1.389 . S
C1869 C1870 1.387 . S
C1870 H1855 0.930 . S
C1870 C1865 1.390 . S
C1870 C1869 1.387 . S
H1871 C1883 0.930 . S
H1872 C1885 0.930 . S
H1873 C1886 0.930 . S
H1874 C1890 0.959 . S
H1875 C1890 0.959 . S
H1876 C1890 0.961 . S
H1877 C1891 0.960 . S
H1878 C1891 0.961 . S
H1879 C1891 0.959 . S
H1880 C1894 0.929 . S
H1881 C1895 0.931 . S
H1882 C1897 0.930 . S
C1883 H1871 0.930 . S
C1883 C1884 1.399 . S
C1883 C1888 1.399 . S
C1884 C1883 1.399 . S
C1884 C1885 1.376 . S
C1885 H1872 0.930 . S
C1885 C1884 1.376 . S
C1885 C1886 1.388 . S
C1886 H1873 0.930 . S
C1886 C1885 1.388 . S
C1886 C1887 1.390 . S
C1887 C1886 1.390 . S
C1887 C1888 1.394 . S
C1887 C1893 1.465 . S
C1888 C1883 1.399 . S
C1888 C1887 1.394 . S
C1888 C1889 1.516 . S
C1889 C1888 1.516 . S
C1889 C1890 1.502 . S
C1889 C1891 1.561 . S
C1889 C1892 1.526 . S
C1890 H1874 0.959 . S
C1890 H1875 0.959 . S
C1890 H1876 0.961 . S
C1890 C1889 1.502 . S
C1891 H1877 0.960 . S
C1891 H1878 0.961 . S
C1891 H1879 0.959 . S
C1891 C1889 1.561 . S
C1892 C1889 1.526 . S
C1892 C1893 1.396 . S
C1892 C1897 1.390 . S
C1893 C1887 1.465 . S
C1893 C1892 1.396 . S
C1893 C1894 1.399 . S
C1894 H1880 0.929 . S
C1894 C1893 1.399 . S
C1894 C1895 1.385 . S
C1895 H1881 0.931 . S
C1895 C1894 1.385 . S
C1895 C1896 1.389 . S
C1896 C1895 1.389 . S
C1896 C1897 1.387 . S
C1897 H1882 0.930 . S
C1897 C1892 1.390 . S
C1897 C1896 1.387 . S
H1898 C1910 0.930 . S
H1899 C1912 0.930 . S
H1900 C1913 0.930 . S
H1901 C1917 0.959 . S
H1902 C1917 0.959 . S
H1903 C1917 0.961 . S
H1904 C1918 0.960 . S
H1905 C1918 0.961 . S
H1906 C1918 0.959 . S
H1907 C1921 0.929 . S
H1908 C1922 0.931 . S
H1909 C1924 0.930 . S
C1910 H1898 0.930 . S
C1910 C1911 1.399 . S
C1910 C1915 1.399 . S
C1911 C1910 1.399 . S
C1911 C1912 1.376 . S
C1912 H1899 0.930 . S
C1912 C1911 1.376 . S
C1912 C1913 1.388 . S
C1913 H1900 0.930 . S
C1913 C1912 1.388 . S
C1913 C1914 1.390 . S
C1914 C1913 1.390 . S
C1914 C1915 1.394 . S
C1914 C1920 1.465 . S
C1915 C1910 1.399 . S
C1915 C1914 1.394 . S
C1915 C1916 1.516 . S
C1916 C1915 1.516 . S
C1916 C1917 1.502 . S
C1916 C1918 1.561 . S
C1916 C1919 1.526 . S
C1917 H1901 0.959 . S
C1917 H1902 0.959 . S
C1917 H1903 0.961 . S
C1917 C1916 1.502 . S
C1918 H1904 0.960 . S
C1918 H1905 0.961 . S
C1918 H1906 0.959 . S
C1918 C1916 1.561 . S
C1919 C1916 1.526 . S
C1919 C1920 1.396 . S
C1919 C1924 1.390 . S
C1920 C1914 1.465 . S
C1920 C1919 1.396 . S
C1920 C1921 1.399 . S
C1921 H1907 0.929 . S
C1921 C1920 1.399 . S
C1921 C1922 1.385 . S
C1922 H1908 0.931 . S
C1922 C1921 1.385 . S
C1922 C1923 1.389 . S
C1923 C1922 1.389 . S
C1923 C1924 1.387 . S
C1924 H1909 0.930 . S
C1924 C1919 1.390 . S
C1924 C1923 1.387 . S
H1925 C1937 0.930 . S
H1926 C1939 0.930 . S
H1927 C1940 0.930 . S
H1928 C1944 0.959 . S
H1929 C1944 0.959 . S
H1930 C1944 0.961 . S
H1931 C1945 0.960 . S
H1932 C1945 0.961 . S
H1933 C1945 0.959 . S
H1934 C1948 0.929 . S
H1935 C1949 0.931 . S
H1936 C1951 0.930 . S
C1937 H1925 0.930 . S
C1937 C1938 1.399 . S
C1937 C1942 1.399 . S
C1938 C1937 1.399 . S
C1938 C1939 1.376 . S
C1939 H1926 0.930 . S
C1939 C1938 1.376 . S
C1939 C1940 1.388 . S
C1940 H1927 0.930 . S
C1940 C1939 1.388 . S
C1940 C1941 1.390 . S
C1941 C1940 1.390 . S
C1941 C1942 1.394 . S
C1941 C1947 1.465 . S
C1942 C1937 1.399 . S
C1942 C1941 1.394 . S
C1942 C1943 1.516 . S
C1943 C1942 1.516 . S
C1943 C1944 1.502 . S
C1943 C1945 1.561 . S
C1943 C1946 1.526 . S
C1944 H1928 0.959 . S
C1944 H1929 0.959 . S
C1944 H1930 0.961 . S
C1944 C1943 1.502 . S
C1945 H1931 0.960 . S
C1945 H1932 0.961 . S
C1945 H1933 0.959 . S
C1945 C1943 1.561 . S
C1946 C1943 1.526 . S
C1946 C1947 1.396 . S
C1946 C1951 1.390 . S
C1947 C1941 1.465 . S
C1947 C1946 1.396 . S
C1947 C1948 1.399 . S
C1948 H1934 0.929 . S
C1948 C1947 1.399 . S
C1948 C1949 1.385 . S
C1949 H1935 0.931 . S
C1949 C1948 1.385 . S
C1949 C1950 1.389 . S
C1950 C1949 1.389 . S
C1950 C1951 1.387 . S
C1951 H1936 0.930 . S
C1951 C1946 1.390 . S
C1951 C1950 1.387 . S
H1952 C1964 0.930 . S
H1953 C1966 0.930 . S
H1954 C1967 0.930 . S
H1955 C1971 0.959 . S
H1956 C1971 0.959 . S
H1957 C1971 0.961 . S
H1958 C1972 0.960 . S
H1959 C1972 0.961 . S
H1960 C1972 0.959 . S
H1961 C1975 0.929 . S
H1962 C1976 0.931 . S
H1963 C1978 0.930 . S
C1964 H1952 0.930 . S
C1964 C1965 1.399 . S
C1964 C1969 1.399 . S
C1965 C1964 1.399 . S
C1965 C1966 1.376 . S
C1966 H1953 0.930 . S
C1966 C1965 1.376 . S
C1966 C1967 1.388 . S
C1967 H1954 0.930 . S
C1967 C1966 1.388 . S
C1967 C1968 1.390 . S
C1968 C1967 1.390 . S
C1968 C1969 1.394 . S
C1968 C1974 1.465 . S
C1969 C1964 1.399 . S
C1969 C1968 1.394 . S
C1969 C1970 1.516 . S
C1970 C1969 1.516 . S
C1970 C1971 1.502 . S
C1970 C1972 1.561 . S
C1970 C1973 1.526 . S
C1971 H1955 0.959 . S
C1971 H1956 0.959 . S
C1971 H1957 0.961 . S
C1971 C1970 1.502 . S
C1972 H1958 0.960 . S
C1972 H1959 0.961 . S
C1972 H1960 0.959 . S
C1972 C1970 1.561 . S
C1973 C1970 1.526 . S
C1973 C1974 1.396 . S
C1973 C1978 1.390 . S
C1974 C1968 1.465 . S
C1974 C1973 1.396 . S
C1974 C1975 1.399 . S
C1975 H1961 0.929 . S
C1975 C1974 1.399 . S
C1975 C1976 1.385 . S
C1976 H1962 0.931 . S
C1976 C1975 1.385 . S
C1976 C1977 1.389 . S
C1977 C1976 1.389 . S
C1977 C1978 1.387 . S
C1978 H1963 0.930 . S
C1978 C1973 1.390 . S
C1978 C1977 1.387 . S
H1979 C1991 0.930 . S
H1980 C1993 0.930 . S
H1981 C1994 0.930 . S
H1982 C1998 0.959 . S
H1983 C1998 0.959 . S
H1984 C1998 0.961 . S
H1985 C1999 0.960 . S
H1986 C1999 0.961 . S
H1987 C1999 0.959 . S
H1988 C2002 0.929 . S
H1989 C2003 0.931 . S
H1990 C2005 0.930 . S
C1991 H1979 0.930 . S
C1991 C1992 1.399 . S
C1991 C1996 1.399 . S
C1992 C1991 1.399 . S
C1992 C1993 1.376 . S
C1993 H1980 0.930 . S
C1993 C1992 1.376 . S
C1993 C1994 1.388 . S
C1994 H1981 0.930 . S
C1994 C1993 1.388 . S
C1994 C1995 1.390 . S
C1995 C1994 1.390 . S
C1995 C1996 1.394 . S
C1995 C2001 1.465 . S
C1996 C1991 1.399 . S
C1996 C1995 1.394 . S
C1996 C1997 1.516 . S
C1997 C1996 1.516 . S
C1997 C1998 1.502 . S
C1997 C1999 1.561 . S
C1997 C2000 1.526 . S
C1998 H1982 0.959 . S
C1998 H1983 0.959 . S
C1998 H1984 0.961 . S
C1998 C1997 1.502 . S
C1999 H1985 0.960 . S
C1999 H1986 0.961 . S
C1999 H1987 0.959 . S
C1999 C1997 1.561 . S
C2000 C1997 1.526 . S
C2000 C2001 1.396 . S
C2000 C2005 1.390 . S
C2001 C1995 1.465 . S
C2001 C2000 1.396 . S
C2001 C2002 1.399 . S
C2002 H1988 0.929 . S
C2002 C2001 1.399 . S
C2002 C2003 1.385 . S
C2003 H1989 0.931 . S
C2003 C2002 1.385 . S
C2003 C2004 1.389 . S
C2004 C2003 1.389 . S
C2004 C2005 1.387 . S
C2005 H1990 0.930 . S
C2005 C2000 1.390 . S
C2005 C2004 1.387 . S
H2006 C2018 0.916 1_655 S
H2007 C2020 0.930 . S
H2008 C2021 0.930 . S
H2009 C2025 0.959 . S
H2010 C2025 0.959 . S
H2011 C2025 0.961 . S
H2012 C2026 0.960 . S
H2013 C2026 0.961 1_554 S
H2014 C2026 0.959 1_454 S
H2015 C2029 0.929 . S
H2016 C2030 0.931 . S
H2017 C2032 0.930 1_554 S
C2018 H2006 0.916 1_455 S
C2018 C2019 1.415 . S
C2018 C2023 1.397 . S
C2019 C2018 1.415 . S
C2019 C2020 1.376 . S
C2020 H2007 0.930 . S
C2020 C2019 1.376 . S
C2020 C2021 1.388 . S
C2021 H2008 0.930 . S
C2021 C2020 1.388 . S
C2021 C2022 1.390 . S
C2022 C2021 1.390 . S
C2022 C2023 1.394 . S
C2022 C2028 1.465 . S
C2023 C2018 1.397 . S
C2023 C2022 1.394 . S
C2023 C2024 1.516 1_455 S
C2024 C2023 1.516 1_655 S
C2024 C2025 1.502 . S
C2024 C2026 1.561 . S
C2024 C2027 1.526 1_655 S
C2025 H2009 0.959 . S
C2025 H2010 0.959 . S
C2025 H2011 0.961 . S
C2025 C2024 1.502 . S
C2026 H2012 0.960 . S
C2026 H2013 0.961 1_556 S
C2026 H2014 0.959 1_656 S
C2026 C2024 1.561 . S
C2027 C2024 1.526 1_455 S
C2027 C2028 1.396 . S
C2027 C2032 1.390 1_455 S
C2028 C2022 1.465 . S
C2028 C2027 1.396 . S
C2028 C2029 1.399 . S
C2029 H2015 0.929 . S
C2029 C2028 1.399 . S
C2029 C2030 1.385 . S
C2030 H2016 0.931 . S
C2030 C2029 1.385 . S
C2030 C2031 1.389 1_556 S
C2031 C2030 1.389 1_554 S
C2031 C2032 1.387 1_454 S
C2032 H2017 0.930 1_556 S
C2032 C2027 1.390 1_655 S
C2032 C2031 1.387 1_656 S
H2033 C2045 0.930 . S
H2034 C2047 0.930 . S
H2035 C2048 0.930 . S
H2036 C2052 0.959 . S
H2037 C2052 0.959 . S
H2038 C2052 0.961 . S
H2039 C2053 0.960 . S
H2040 C2053 0.961 . S
H2041 C2053 0.959 . S
H2042 C2056 0.929 . S
H2043 C2057 0.931 . S
H2044 C2059 0.930 . S
C2045 H2033 0.930 . S
C2045 C2046 1.399 . S
C2045 C2050 1.399 . S
C2046 C2045 1.399 . S
C2046 C2047 1.376 . S
C2047 H2034 0.930 . S
C2047 C2046 1.376 . S
C2047 C2048 1.388 . S
C2048 H2035 0.930 . S
C2048 C2047 1.388 . S
C2048 C2049 1.390 . S
C2049 C2048 1.390 . S
C2049 C2050 1.394 . S
C2049 C2055 1.465 . S
C2050 C2045 1.399 . S
C2050 C2049 1.394 . S
C2050 C2051 1.516 . S
C2051 C2050 1.516 . S
C2051 C2052 1.502 . S
C2051 C2053 1.561 . S
C2051 C2054 1.526 . S
C2052 H2036 0.959 . S
C2052 H2037 0.959 . S
C2052 H2038 0.961 . S
C2052 C2051 1.502 . S
C2053 H2039 0.960 . S
C2053 H2040 0.961 . S
C2053 H2041 0.959 . S
C2053 C2051 1.561 . S
C2054 C2051 1.526 . S
C2054 C2055 1.396 . S
C2054 C2059 1.390 . S
C2055 C2049 1.465 . S
C2055 C2054 1.396 . S
C2055 C2056 1.399 . S
C2056 H2042 0.929 . S
C2056 C2055 1.399 . S
C2056 C2057 1.385 . S
C2057 H2043 0.931 . S
C2057 C2056 1.385 . S
C2057 C2058 1.389 . S
C2058 C2057 1.389 . S
C2058 C2059 1.387 . S
C2059 H2044 0.930 . S
C2059 C2054 1.390 . S
C2059 C2058 1.387 . S
H2060 C2072 0.930 . S
H2061 C2074 0.930 . S
H2062 C2075 0.930 . S
H2063 C2079 0.959 . S
H2064 C2079 0.959 . S
H2065 C2079 0.961 . S
H2066 C2080 0.960 . S
H2067 C2080 0.961 . S
H2068 C2080 0.959 . S
H2069 C2083 0.929 . S
H2070 C2084 0.931 . S
H2071 C2086 0.930 . S
C2072 H2060 0.930 . S
C2072 C2073 1.399 . S
C2072 C2077 1.399 . S
C2073 C2072 1.399 . S
C2073 C2074 1.376 . S
C2074 H2061 0.930 . S
C2074 C2073 1.376 . S
C2074 C2075 1.388 . S
C2075 H2062 0.930 . S
C2075 C2074 1.388 . S
C2075 C2076 1.390 . S
C2076 C2075 1.390 . S
C2076 C2077 1.394 . S
C2076 C2082 1.465 . S
C2077 C2072 1.399 . S
C2077 C2076 1.394 . S
C2077 C2078 1.516 . S
C2078 C2077 1.516 . S
C2078 C2079 1.502 . S
C2078 C2080 1.561 . S
C2078 C2081 1.526 . S
C2079 H2063 0.959 . S
C2079 H2064 0.959 . S
C2079 H2065 0.961 . S
C2079 C2078 1.502 . S
C2080 H2066 0.960 . S
C2080 H2067 0.961 . S
C2080 H2068 0.959 . S
C2080 C2078 1.561 . S
C2081 C2078 1.526 . S
C2081 C2082 1.396 . S
C2081 C2086 1.390 . S
C2082 C2076 1.465 . S
C2082 C2081 1.396 . S
C2082 C2083 1.399 . S
C2083 H2069 0.929 . S
C2083 C2082 1.399 . S
C2083 C2084 1.385 . S
C2084 H2070 0.931 . S
C2084 C2083 1.385 . S
C2084 C2085 1.389 . S
C2085 C2084 1.389 . S
C2085 C2086 1.387 . S
C2086 H2071 0.930 . S
C2086 C2081 1.390 . S
C2086 C2085 1.387 . S
H2087 C2099 0.930 . S
H2088 C2101 0.930 . S
H2089 C2102 0.930 . S
H2090 C2106 0.959 . S
H2091 C2106 0.959 . S
H2092 C2106 0.961 . S
H2093 C2107 0.960 . S
H2094 C2107 0.961 . S
H2095 C2107 0.959 . S
H2096 C2110 0.929 . S
H2097 C2111 0.931 . S
H2098 C2113 0.930 . S
C2099 H2087 0.930 . S
C2099 C2100 1.399 . S
C2099 C2104 1.399 . S
C2100 C2099 1.399 . S
C2100 C2101 1.376 . S
C2101 H2088 0.930 . S
C2101 C2100 1.376 . S
C2101 C2102 1.388 . S
C2102 H2089 0.930 . S
C2102 C2101 1.388 . S
C2102 C2103 1.390 . S
C2103 C2102 1.390 . S
C2103 C2104 1.394 . S
C2103 C2109 1.465 . S
C2104 C2099 1.399 . S
C2104 C2103 1.394 . S
C2104 C2105 1.516 . S
C2105 C2104 1.516 . S
C2105 C2106 1.502 . S
C2105 C2107 1.561 . S
C2105 C2108 1.526 . S
C2106 H2090 0.959 . S
C2106 H2091 0.959 . S
C2106 H2092 0.961 . S
C2106 C2105 1.502 . S
C2107 H2093 0.960 . S
C2107 H2094 0.961 . S
C2107 H2095 0.959 . S
C2107 C2105 1.561 . S
C2108 C2105 1.526 . S
C2108 C2109 1.396 . S
C2108 C2113 1.390 . S
C2109 C2103 1.465 . S
C2109 C2108 1.396 . S
C2109 C2110 1.399 . S
C2110 H2096 0.929 . S
C2110 C2109 1.399 . S
C2110 C2111 1.385 . S
C2111 H2097 0.931 . S
C2111 C2110 1.385 . S
C2111 C2112 1.389 . S
C2112 C2111 1.389 . S
C2112 C2113 1.387 . S
C2113 H2098 0.930 . S
C2113 C2108 1.390 . S
C2113 C2112 1.387 . S
H2114 C2126 0.930 . S
H2115 C2128 0.930 . S
H2116 C2129 0.930 . S
H2117 C2133 0.959 . S
H2118 C2133 0.959 . S
H2119 C2133 0.961 . S
H2120 C2134 0.960 . S
H2121 C2134 0.961 . S
H2122 C2134 0.959 1_655 S
H2123 C2137 0.929 . S
H2124 C2138 0.931 . S
H2125 C2140 0.930 . S
C2126 H2114 0.930 . S
C2126 C2127 1.399 1_455 S
C2126 C2131 1.399 . S
C2127 C2126 1.399 1_655 S
C2127 C2128 1.376 . S
C2128 H2115 0.930 . S
C2128 C2127 1.376 . S
C2128 C2129 1.388 . S
C2129 H2116 0.930 . S
C2129 C2128 1.388 . S
C2129 C2130 1.390 . S
C2130 C2129 1.390 . S
C2130 C2131 1.394 1_655 S
C2130 C2136 1.465 . S
C2131 C2126 1.399 . S
C2131 C2130 1.394 1_455 S
C2131 C2132 1.516 . S
C2132 C2131 1.516 . S
C2132 C2133 1.502 . S
C2132 C2134 1.561 . S
C2132 C2135 1.526 . S
C2133 H2117 0.959 . S
C2133 H2118 0.959 . S
C2133 H2119 0.961 . S
C2133 C2132 1.502 . S
C2134 H2120 0.960 . S
C2134 H2121 0.961 . S
C2134 H2122 0.959 1_455 S
C2134 C2132 1.561 . S
C2135 C2132 1.526 . S
C2135 C2136 1.396 1_455 S
C2135 C2140 1.390 . S
C2136 C2130 1.465 . S
C2136 C2135 1.396 1_655 S
C2136 C2137 1.399 . S
C2137 H2123 0.929 . S
C2137 C2136 1.399 . S
C2137 C2138 1.385 . S
C2138 H2124 0.931 . S
C2138 C2137 1.385 . S
C2138 C2139 1.389 . S
C2139 C2138 1.389 . S
C2139 C2140 1.387 1_655 S
C2140 H2125 0.930 . S
C2140 C2135 1.390 . S
C2140 C2139 1.387 1_455 S
H2141 C2153 0.930 . S
H2142 C2155 0.930 . S
H2143 C2156 0.930 . S
H2144 C2160 0.959 . S
H2145 C2160 0.959 . S
H2146 C2160 0.961 . S
H2147 C2161 0.960 . S
H2148 C2161 0.961 . S
H2149 C2161 0.959 . S
H2150 C2164 0.929 . S
H2151 C2165 0.931 . S
H2152 C2167 0.930 . S
C2153 H2141 0.930 . S
C2153 C2154 1.399 . S
C2153 C2158 1.399 . S
C2154 C2153 1.399 . S
C2154 C2155 1.376 . S
C2155 H2142 0.930 . S
C2155 C2154 1.376 . S
C2155 C2156 1.388 . S
C2156 H2143 0.930 . S
C2156 C2155 1.388 . S
C2156 C2157 1.390 . S
C2157 C2156 1.390 . S
C2157 C2158 1.394 . S
C2157 C2163 1.465 . S
C2158 C2153 1.399 . S
C2158 C2157 1.394 . S
C2158 C2159 1.516 . S
C2159 C2158 1.516 . S
C2159 C2160 1.502 . S
C2159 C2161 1.561 . S
C2159 C2162 1.526 . S
C2160 H2144 0.959 . S
C2160 H2145 0.959 . S
C2160 H2146 0.961 . S
C2160 C2159 1.502 . S
C2161 H2147 0.960 . S
C2161 H2148 0.961 . S
C2161 H2149 0.959 . S
C2161 C2159 1.561 . S
C2162 C2159 1.526 . S
C2162 C2163 1.396 . S
C2162 C2167 1.390 . S
C2163 C2157 1.465 . S
C2163 C2162 1.396 . S
C2163 C2164 1.399 . S
C2164 H2150 0.929 . S
C2164 C2163 1.399 . S
C2164 C2165 1.385 . S
C2165 H2151 0.931 . S
C2165 C2164 1.385 . S
C2165 C2166 1.389 . S
C2166 C2165 1.389 . S
C2166 C2167 1.387 . S
C2167 H2152 0.930 . S
C2167 C2162 1.390 . S
C2167 C2166 1.387 . S
H2168 C2180 0.930 . S
H2169 C2182 0.930 . S
H2170 C2183 0.930 . S
H2171 C2187 0.959 . S
H2172 C2187 0.959 . S
H2173 C2187 0.961 . S
H2174 C2188 0.960 . S
H2175 C2188 0.961 . S
H2176 C2188 0.959 . S
H2177 C2191 0.929 . S
H2178 C2192 0.931 . S
H2179 C2194 0.930 . S
C2180 H2168 0.930 . S
C2180 C2181 1.399 . S
C2180 C2185 1.399 . S
C2181 C2180 1.399 . S
C2181 C2182 1.376 . S
C2182 H2169 0.930 . S
C2182 C2181 1.376 . S
C2182 C2183 1.388 . S
C2183 H2170 0.930 . S
C2183 C2182 1.388 . S
C2183 C2184 1.390 . S
C2184 C2183 1.390 . S
C2184 C2185 1.394 . S
C2184 C2190 1.465 . S
C2185 C2180 1.399 . S
C2185 C2184 1.394 . S
C2185 C2186 1.516 . S
C2186 C2185 1.516 . S
C2186 C2187 1.502 . S
C2186 C2188 1.561 . S
C2186 C2189 1.526 . S
C2187 H2171 0.959 . S
C2187 H2172 0.959 . S
C2187 H2173 0.961 . S
C2187 C2186 1.502 . S
C2188 H2174 0.960 . S
C2188 H2175 0.961 . S
C2188 H2176 0.959 . S
C2188 C2186 1.561 . S
C2189 C2186 1.526 . S
C2189 C2190 1.396 . S
C2189 C2194 1.390 . S
C2190 C2184 1.465 . S
C2190 C2189 1.396 . S
C2190 C2191 1.399 . S
C2191 H2177 0.929 . S
C2191 C2190 1.399 . S
C2191 C2192 1.385 . S
C2192 H2178 0.931 . S
C2192 C2191 1.385 . S
C2192 C2193 1.389 . S
C2193 C2192 1.389 . S
C2193 C2194 1.387 . S
C2194 H2179 0.930 . S
C2194 C2189 1.390 . S
C2194 C2193 1.387 . S
H2195 C2207 0.930 . S
H2196 C2209 0.930 . S
H2197 C2210 0.930 . S
H2198 C2214 0.959 . S
H2199 C2214 0.959 . S
H2200 C2214 0.961 . S
H2201 C2215 0.960 . S
H2202 C2215 0.961 . S
H2203 C2215 0.959 . S
H2204 C2218 0.929 . S
H2205 C2219 0.931 . S
H2206 C2221 0.930 . S
C2207 H2195 0.930 . S
C2207 C2208 1.399 . S
C2207 C2212 1.399 . S
C2208 C2207 1.399 . S
C2208 C2209 1.376 . S
C2209 H2196 0.930 . S
C2209 C2208 1.376 . S
C2209 C2210 1.388 . S
C2210 H2197 0.930 . S
C2210 C2209 1.388 . S
C2210 C2211 1.390 . S
C2211 C2210 1.390 . S
C2211 C2212 1.394 . S
C2211 C2217 1.465 . S
C2212 C2207 1.399 . S
C2212 C2211 1.394 . S
C2212 C2213 1.516 . S
C2213 C2212 1.516 . S
C2213 C2214 1.502 . S
C2213 C2215 1.561 . S
C2213 C2216 1.526 . S
C2214 H2198 0.959 . S
C2214 H2199 0.959 . S
C2214 H2200 0.961 . S
C2214 C2213 1.502 . S
C2215 H2201 0.960 . S
C2215 H2202 0.961 . S
C2215 H2203 0.959 . S
C2215 C2213 1.561 . S
C2216 C2213 1.526 . S
C2216 C2217 1.396 . S
C2216 C2221 1.390 . S
C2217 C2211 1.465 . S
C2217 C2216 1.396 . S
C2217 C2218 1.399 . S
C2218 H2204 0.929 . S
C2218 C2217 1.399 . S
C2218 C2219 1.385 . S
C2219 H2205 0.931 . S
C2219 C2218 1.385 . S
C2219 C2220 1.389 . S
C2220 C2219 1.389 . S
C2220 C2221 1.387 . S
C2221 H2206 0.930 . S
C2221 C2216 1.390 . S
C2221 C2220 1.387 . S
H2222 C2234 0.930 . S
H2223 C2236 0.930 . S
H2224 C2237 0.930 . S
H2225 C2241 0.959 . S
H2226 C2241 0.959 . S
H2227 C2241 0.961 . S
H2228 C2242 0.960 . S
H2229 C2242 0.961 . S
H2230 C2242 0.959 . S
H2231 C2245 0.929 . S
H2232 C2246 0.931 . S
H2233 C2248 0.930 . S
C2234 H2222 0.930 . S
C2234 C2235 1.399 . S
C2234 C2239 1.399 . S
C2235 C2234 1.399 . S
C2235 C2236 1.376 . S
C2236 H2223 0.930 . S
C2236 C2235 1.376 . S
C2236 C2237 1.388 . S
C2237 H2224 0.930 . S
C2237 C2236 1.388 . S
C2237 C2238 1.390 . S
C2238 C2237 1.390 . S
C2238 C2239 1.394 . S
C2238 C2244 1.465 . S
C2239 C2234 1.399 . S
C2239 C2238 1.394 . S
C2239 C2240 1.516 . S
C2240 C2239 1.516 . S
C2240 C2241 1.502 . S
C2240 C2242 1.561 . S
C2240 C2243 1.526 . S
C2241 H2225 0.959 . S
C2241 H2226 0.959 . S
C2241 H2227 0.961 . S
C2241 C2240 1.502 . S
C2242 H2228 0.960 . S
C2242 H2229 0.961 . S
C2242 H2230 0.959 . S
C2242 C2240 1.561 . S
C2243 C2240 1.526 . S
C2243 C2244 1.396 . S
C2243 C2248 1.390 . S
C2244 C2238 1.465 . S
C2244 C2243 1.396 . S
C2244 C2245 1.399 . S
C2245 H2231 0.929 . S
C2245 C2244 1.399 . S
C2245 C2246 1.385 . S
C2246 H2232 0.931 . S
C2246 C2245 1.385 . S
C2246 C2247 1.389 . S
C2247 C2246 1.389 . S
C2247 C2248 1.387 . S
C2248 H2233 0.930 . S
C2248 C2243 1.390 . S
C2248 C2247 1.387 . S
H2249 C2261 0.930 . S
H2250 C2263 0.930 . S
H2251 C2264 0.930 . S
H2252 C2268 0.959 . S
H2253 C2268 0.959 . S
H2254 C2268 0.961 . S
H2255 C2269 0.960 . S
H2256 C2269 0.961 . S
H2257 C2269 0.959 . S
H2258 C2272 0.929 . S
H2259 C2273 0.931 . S
H2260 C2275 0.930 . S
C2261 H2249 0.930 . S
C2261 C2262 1.399 . S
C2261 C2266 1.399 . S
C2262 C2261 1.399 . S
C2262 C2263 1.376 . S
C2263 H2250 0.930 . S
C2263 C2262 1.376 . S
C2263 C2264 1.388 . S
C2264 H2251 0.930 . S
C2264 C2263 1.388 . S
C2264 C2265 1.390 . S
C2265 C2264 1.390 . S
C2265 C2266 1.394 . S
C2265 C2271 1.465 . S
C2266 C2261 1.399 . S
C2266 C2265 1.394 . S
C2266 C2267 1.516 . S
C2267 C2266 1.516 . S
C2267 C2268 1.502 . S
C2267 C2269 1.561 . S
C2267 C2270 1.526 . S
C2268 H2252 0.959 . S
C2268 H2253 0.959 . S
C2268 H2254 0.961 . S
C2268 C2267 1.502 . S
C2269 H2255 0.960 . S
C2269 H2256 0.961 . S
C2269 H2257 0.959 . S
C2269 C2267 1.561 . S
C2270 C2267 1.526 . S
C2270 C2271 1.396 . S
C2270 C2275 1.390 . S
C2271 C2265 1.465 . S
C2271 C2270 1.396 . S
C2271 C2272 1.399 . S
C2272 H2258 0.929 . S
C2272 C2271 1.399 . S
C2272 C2273 1.385 . S
C2273 H2259 0.931 . S
C2273 C2272 1.385 . S
C2273 C2274 1.389 . S
C2274 C2273 1.389 . S
C2274 C2275 1.387 . S
C2275 H2260 0.930 . S
C2275 C2270 1.390 . S
C2275 C2274 1.387 . S
H2276 C2288 0.930 . S
H2277 C2290 0.930 . S
H2278 C2291 0.930 . S
H2279 C2295 0.959 . S
H2280 C2295 0.959 . S
H2281 C2295 0.961 . S
H2282 C2296 0.960 . S
H2283 C2296 0.961 . S
H2284 C2296 0.959 . S
H2285 C2299 0.929 . S
H2286 C2300 0.931 . S
H2287 C2302 0.930 . S
C2288 H2276 0.930 . S
C2288 C2289 1.399 . S
C2288 C2293 1.399 . S
C2289 C2288 1.399 . S
C2289 C2290 1.376 . S
C2290 H2277 0.930 . S
C2290 C2289 1.376 . S
C2290 C2291 1.388 . S
C2291 H2278 0.930 . S
C2291 C2290 1.388 . S
C2291 C2292 1.390 . S
C2292 C2291 1.390 . S
C2292 C2293 1.394 . S
C2292 C2298 1.465 . S
C2293 C2288 1.399 . S
C2293 C2292 1.394 . S
C2293 C2294 1.516 . S
C2294 C2293 1.516 . S
C2294 C2295 1.502 . S
C2294 C2296 1.561 . S
C2294 C2297 1.526 . S
C2295 H2279 0.959 . S
C2295 H2280 0.959 . S
C2295 H2281 0.961 . S
C2295 C2294 1.502 . S
C2296 H2282 0.960 . S
C2296 H2283 0.961 . S
C2296 H2284 0.959 . S
C2296 C2294 1.561 . S
C2297 C2294 1.526 . S
C2297 C2298 1.396 . S
C2297 C2302 1.390 . S
C2298 C2292 1.465 . S
C2298 C2297 1.396 . S
C2298 C2299 1.399 . S
C2299 H2285 0.929 . S
C2299 C2298 1.399 . S
C2299 C2300 1.385 . S
C2300 H2286 0.931 . S
C2300 C2299 1.385 . S
C2300 C2301 1.389 . S
C2301 C2300 1.389 . S
C2301 C2302 1.387 . S
C2302 H2287 0.930 . S
C2302 C2297 1.390 . S
C2302 C2301 1.387 . S
H2303 C2315 0.930 . S
H2304 C2317 0.930 . S
H2305 C2318 0.930 . S
H2306 C2322 0.959 . S
H2307 C2322 0.959 . S
H2308 C2322 0.961 . S
H2309 C2323 0.960 . S
H2310 C2323 0.961 . S
H2311 C2323 0.959 . S
H2312 C2326 0.929 . S
H2313 C2327 0.931 . S
H2314 C2329 0.930 . S
C2315 H2303 0.930 . S
C2315 C2316 1.399 . S
C2315 C2320 1.399 . S
C2316 C2315 1.399 . S
C2316 C2317 1.376 . S
C2317 H2304 0.930 . S
C2317 C2316 1.376 . S
C2317 C2318 1.388 . S
C2318 H2305 0.930 . S
C2318 C2317 1.388 . S
C2318 C2319 1.390 . S
C2319 C2318 1.390 . S
C2319 C2320 1.394 . S
C2319 C2325 1.465 . S
C2320 C2315 1.399 . S
C2320 C2319 1.394 . S
C2320 C2321 1.516 . S
C2321 C2320 1.516 . S
C2321 C2322 1.502 . S
C2321 C2323 1.561 . S
C2321 C2324 1.526 . S
C2322 H2306 0.959 . S
C2322 H2307 0.959 . S
C2322 H2308 0.961 . S
C2322 C2321 1.502 . S
C2323 H2309 0.960 . S
C2323 H2310 0.961 . S
C2323 H2311 0.959 . S
C2323 C2321 1.561 . S
C2324 C2321 1.526 . S
C2324 C2325 1.396 . S
C2324 C2329 1.390 . S
C2325 C2319 1.465 . S
C2325 C2324 1.396 . S
C2325 C2326 1.399 . S
C2326 H2312 0.929 . S
C2326 C2325 1.399 . S
C2326 C2327 1.385 . S
C2327 H2313 0.931 . S
C2327 C2326 1.385 . S
C2327 C2328 1.389 . S
C2328 C2327 1.389 . S
C2328 C2329 1.387 . S
C2329 H2314 0.930 . S
C2329 C2324 1.390 . S
C2329 C2328 1.387 . S
H2330 C2342 0.930 . S
H2331 C2344 0.930 . S
H2332 C2345 0.930 . S
H2333 C2349 0.959 . S
H2334 C2349 0.959 . S
H2335 C2349 0.961 . S
H2336 C2350 0.960 . S
H2337 C2350 0.961 . S
H2338 C2350 0.959 . S
H2339 C2353 0.929 . S
H2340 C2354 0.931 . S
H2341 C2356 0.930 . S
C2342 H2330 0.930 . S
C2342 C2343 1.399 . S
C2342 C2347 1.399 . S
C2343 C2342 1.399 . S
C2343 C2344 1.376 . S
C2344 H2331 0.930 . S
C2344 C2343 1.376 . S
C2344 C2345 1.388 . S
C2345 H2332 0.930 . S
C2345 C2344 1.388 . S
C2345 C2346 1.390 . S
C2346 C2345 1.390 . S
C2346 C2347 1.394 . S
C2346 C2352 1.465 . S
C2347 C2342 1.399 . S
C2347 C2346 1.394 . S
C2347 C2348 1.516 . S
C2348 C2347 1.516 . S
C2348 C2349 1.502 . S
C2348 C2350 1.561 . S
C2348 C2351 1.526 . S
C2349 H2333 0.959 . S
C2349 H2334 0.959 . S
C2349 H2335 0.961 . S
C2349 C2348 1.502 . S
C2350 H2336 0.960 . S
C2350 H2337 0.961 . S
C2350 H2338 0.959 . S
C2350 C2348 1.561 . S
C2351 C2348 1.526 . S
C2351 C2352 1.396 . S
C2351 C2356 1.390 . S
C2352 C2346 1.465 . S
C2352 C2351 1.396 . S
C2352 C2353 1.399 . S
C2353 H2339 0.929 . S
C2353 C2352 1.399 . S
C2353 C2354 1.385 . S
C2354 H2340 0.931 . S
C2354 C2353 1.385 . S
C2354 C2355 1.389 . S
C2355 C2354 1.389 . S
C2355 C2356 1.387 . S
C2356 H2341 0.930 . S
C2356 C2351 1.390 . S
C2356 C2355 1.387 . S
H2357 C2369 0.930 . S
H2358 C2371 0.930 . S
H2359 C2372 0.930 . S
H2360 C2376 0.959 . S
H2361 C2376 0.959 . S
H2362 C2376 0.961 . S
H2363 C2377 0.960 . S
H2364 C2377 0.961 . S
H2365 C2377 0.959 . S
H2366 C2380 0.929 . S
H2367 C2381 0.931 . S
H2368 C2383 0.930 . S
C2369 H2357 0.930 . S
C2369 C2370 1.399 . S
C2369 C2374 1.399 . S
C2370 C2369 1.399 . S
C2370 C2371 1.376 . S
C2371 H2358 0.930 . S
C2371 C2370 1.376 . S
C2371 C2372 1.388 . S
C2372 H2359 0.930 . S
C2372 C2371 1.388 . S
C2372 C2373 1.390 . S
C2373 C2372 1.390 . S
C2373 C2374 1.394 . S
C2373 C2379 1.465 . S
C2374 C2369 1.399 . S
C2374 C2373 1.394 . S
C2374 C2375 1.516 . S
C2375 C2374 1.516 . S
C2375 C2376 1.502 . S
C2375 C2377 1.561 . S
C2375 C2378 1.526 . S
C2376 H2360 0.959 . S
C2376 H2361 0.959 . S
C2376 H2362 0.961 . S
C2376 C2375 1.502 . S
C2377 H2363 0.960 . S
C2377 H2364 0.961 . S
C2377 H2365 0.959 . S
C2377 C2375 1.561 . S
C2378 C2375 1.526 . S
C2378 C2379 1.396 . S
C2378 C2383 1.390 . S
C2379 C2373 1.465 . S
C2379 C2378 1.396 . S
C2379 C2380 1.399 . S
C2380 H2366 0.929 . S
C2380 C2379 1.399 . S
C2380 C2381 1.385 . S
C2381 H2367 0.931 . S
C2381 C2380 1.385 . S
C2381 C2382 1.389 . S
C2382 C2381 1.389 . S
C2382 C2383 1.387 . S
C2383 H2368 0.930 . S
C2383 C2378 1.390 . S
C2383 C2382 1.387 . S
H2384 C2396 0.930 . S
H2385 C2398 0.930 . S
H2386 C2399 0.930 . S
H2387 C2403 0.959 . S
H2388 C2403 0.959 . S
H2389 C2403 0.961 . S
H2390 C2404 0.960 . S
H2391 C2404 0.961 . S
H2392 C2404 0.959 . S
H2393 C2407 0.929 . S
H2394 C2408 0.931 . S
H2395 C2410 0.930 . S
C2396 H2384 0.930 . S
C2396 C2397 1.399 . S
C2396 C2401 1.399 . S
C2397 C2396 1.399 . S
C2397 C2398 1.376 . S
C2398 H2385 0.930 . S
C2398 C2397 1.376 . S
C2398 C2399 1.388 . S
C2399 H2386 0.930 . S
C2399 C2398 1.388 . S
C2399 C2400 1.390 . S
C2400 C2399 1.390 . S
C2400 C2401 1.394 . S
C2400 C2406 1.465 . S
C2401 C2396 1.399 . S
C2401 C2400 1.394 . S
C2401 C2402 1.516 . S
C2402 C2401 1.516 . S
C2402 C2403 1.502 . S
C2402 C2404 1.561 . S
C2402 C2405 1.526 . S
C2403 H2387 0.959 . S
C2403 H2388 0.959 . S
C2403 H2389 0.961 . S
C2403 C2402 1.502 . S
C2404 H2390 0.960 . S
C2404 H2391 0.961 . S
C2404 H2392 0.959 . S
C2404 C2402 1.561 . S
C2405 C2402 1.526 . S
C2405 C2406 1.396 . S
C2405 C2410 1.390 . S
C2406 C2400 1.465 . S
C2406 C2405 1.396 . S
C2406 C2407 1.399 . S
C2407 H2393 0.929 . S
C2407 C2406 1.399 . S
C2407 C2408 1.385 . S
C2408 H2394 0.931 . S
C2408 C2407 1.385 . S
C2408 C2409 1.389 . S
C2409 C2408 1.389 . S
C2409 C2410 1.387 . S
C2410 H2395 0.930 . S
C2410 C2405 1.390 . S
C2410 C2409 1.387 . S
H2411 C2423 0.930 . S
H2412 C2425 0.930 . S
H2413 C2426 0.930 . S
H2414 C2430 0.959 . S
H2415 C2430 0.959 . S
H2416 C2430 0.961 . S
H2417 C2431 0.960 . S
H2418 C2431 0.961 . S
H2419 C2431 0.959 . S
H2420 C2434 0.929 . S
H2421 C2435 0.931 . S
H2422 C2437 0.930 . S
C2423 H2411 0.930 . S
C2423 C2424 1.399 . S
C2423 C2428 1.399 . S
C2424 C2423 1.399 . S
C2424 C2425 1.376 . S
C2425 H2412 0.930 . S
C2425 C2424 1.376 . S
C2425 C2426 1.388 . S
C2426 H2413 0.930 . S
C2426 C2425 1.388 . S
C2426 C2427 1.390 . S
C2427 C2426 1.390 . S
C2427 C2428 1.394 . S
C2427 C2433 1.465 . S
C2428 C2423 1.399 . S
C2428 C2427 1.394 . S
C2428 C2429 1.516 . S
C2429 C2428 1.516 . S
C2429 C2430 1.502 . S
C2429 C2431 1.561 . S
C2429 C2432 1.526 . S
C2430 H2414 0.959 . S
C2430 H2415 0.959 . S
C2430 H2416 0.961 . S
C2430 C2429 1.502 . S
C2431 H2417 0.960 . S
C2431 H2418 0.961 . S
C2431 H2419 0.959 . S
C2431 C2429 1.561 . S
C2432 C2429 1.526 . S
C2432 C2433 1.396 . S
C2432 C2437 1.390 . S
C2433 C2427 1.465 . S
C2433 C2432 1.396 . S
C2433 C2434 1.399 . S
C2434 H2420 0.929 . S
C2434 C2433 1.399 . S
C2434 C2435 1.385 . S
C2435 H2421 0.931 . S
C2435 C2434 1.385 . S
C2435 C2436 1.389 . S
C2436 C2435 1.389 . S
C2436 C2437 1.387 . S
C2437 H2422 0.930 . S
C2437 C2432 1.390 . S
C2437 C2436 1.387 . S
H2438 C2450 0.930 . S
H2439 C2452 0.930 . S
H2440 C2453 0.930 . S
H2441 C2457 0.959 . S
H2442 C2457 0.959 . S
H2443 C2457 0.961 . S
H2444 C2458 0.960 . S
H2445 C2458 0.961 . S
H2446 C2458 0.959 . S
H2447 C2461 0.929 . S
H2448 C2462 0.931 . S
H2449 C2464 0.930 . S
C2450 H2438 0.930 . S
C2450 C2451 1.399 . S
C2450 C2455 1.399 . S
C2451 C2450 1.399 . S
C2451 C2452 1.376 . S
C2452 H2439 0.930 . S
C2452 C2451 1.376 . S
C2452 C2453 1.388 . S
C2453 H2440 0.930 . S
C2453 C2452 1.388 . S
C2453 C2454 1.390 . S
C2454 C2453 1.390 . S
C2454 C2455 1.394 . S
C2454 C2460 1.465 . S
C2455 C2450 1.399 . S
C2455 C2454 1.394 . S
C2455 C2456 1.516 . S
C2456 C2455 1.516 . S
C2456 C2457 1.502 . S
C2456 C2458 1.561 . S
C2456 C2459 1.526 . S
C2457 H2441 0.959 . S
C2457 H2442 0.959 . S
C2457 H2443 0.961 . S
C2457 C2456 1.502 . S
C2458 H2444 0.960 . S
C2458 H2445 0.961 . S
C2458 H2446 0.959 . S
C2458 C2456 1.561 . S
C2459 C2456 1.526 . S
C2459 C2460 1.396 . S
C2459 C2464 1.390 . S
C2460 C2454 1.465 . S
C2460 C2459 1.396 . S
C2460 C2461 1.399 . S
C2461 H2447 0.929 . S
C2461 C2460 1.399 . S
C2461 C2462 1.385 . S
C2462 H2448 0.931 . S
C2462 C2461 1.385 . S
C2462 C2463 1.389 . S
C2463 C2462 1.389 . S
C2463 C2464 1.387 . S
C2464 H2449 0.930 . S
C2464 C2459 1.390 . S
C2464 C2463 1.387 . S
H2465 C2477 0.930 . S
H2466 C2479 0.930 1_556 S
H2467 C2480 0.930 1_556 S
H2468 C2484 0.959 1_545 S
H2469 C2484 0.959 1_545 S
H2470 C2484 0.961 . S
H2471 C2485 0.960 . S
H2472 C2485 0.961 . S
H2473 C2485 0.959 . S
H2474 C2488 0.929 1_556 S
H2475 C2489 0.931 1_556 S
H2476 C2491 0.930 1_545 S
C2477 H2465 0.930 . S
C2477 C2478 1.399 . S
C2477 C2482 1.399 . S
C2478 C2477 1.399 . S
C2478 C2479 1.376 . S
C2479 H2466 0.930 1_554 S
C2479 C2478 1.376 . S
C2479 C2480 1.388 . S
C2480 H2467 0.930 1_554 S
C2480 C2479 1.388 . S
C2480 C2481 1.390 . S
C2481 C2480 1.390 . S
C2481 C2482 1.394 . S
C2481 C2487 1.465 . S
C2482 C2477 1.399 . S
C2482 C2481 1.394 . S
C2482 C2483 1.516 . S
C2483 C2482 1.516 . S
C2483 C2484 1.502 . S
C2483 C2485 1.561 . S
C2483 C2486 1.526 . S
C2484 H2468 0.959 1_565 S
C2484 H2469 0.959 1_565 S
C2484 H2470 0.961 . S
C2484 C2483 1.502 . S
C2485 H2471 0.960 . S
C2485 H2472 0.961 . S
C2485 H2473 0.959 . S
C2485 C2483 1.561 . S
C2486 C2483 1.526 . S
C2486 C2487 1.396 . S
C2486 C2491 1.390 . S
C2487 C2481 1.465 . S
C2487 C2486 1.396 . S
C2487 C2488 1.399 . S
C2488 H2474 0.929 1_554 S
C2488 C2487 1.399 . S
C2488 C2489 1.385 . S
C2489 H2475 0.931 1_554 S
C2489 C2488 1.385 . S
C2489 C2490 1.389 . S
C2490 C2489 1.389 . S
C2490 C2491 1.387 . S
C2491 H2476 0.930 1_565 S
C2491 C2486 1.390 . S
C2491 C2490 1.387 . S
H2492 C2504 0.930 . S
H2493 C2506 0.930 . S
H2494 C2507 0.930 . S
H2495 C2511 0.959 . S
H2496 C2511 0.959 . S
H2497 C2511 0.961 . S
H2498 C2512 0.960 . S
H2499 C2512 0.961 . S
H2500 C2512 0.959 . S
H2501 C2515 0.929 . S
H2502 C2516 0.931 . S
H2503 C2518 0.930 . S
C2504 H2492 0.930 . S
C2504 C2505 1.399 . S
C2504 C2509 1.399 . S
C2505 C2504 1.399 . S
C2505 C2506 1.376 . S
C2506 H2493 0.930 . S
C2506 C2505 1.376 . S
C2506 C2507 1.388 . S
C2507 H2494 0.930 . S
C2507 C2506 1.388 . S
C2507 C2508 1.390 . S
C2508 C2507 1.390 . S
C2508 C2509 1.394 . S
C2508 C2514 1.465 . S
C2509 C2504 1.399 . S
C2509 C2508 1.394 . S
C2509 C2510 1.516 . S
C2510 C2509 1.516 . S
C2510 C2511 1.502 . S
C2510 C2512 1.561 . S
C2510 C2513 1.526 . S
C2511 H2495 0.959 . S
C2511 H2496 0.959 . S
C2511 H2497 0.961 . S
C2511 C2510 1.502 . S
C2512 H2498 0.960 . S
C2512 H2499 0.961 . S
C2512 H2500 0.959 . S
C2512 C2510 1.561 . S
C2513 C2510 1.526 . S
C2513 C2514 1.396 . S
C2513 C2518 1.390 . S
C2514 C2508 1.465 . S
C2514 C2513 1.396 . S
C2514 C2515 1.399 . S
C2515 H2501 0.929 . S
C2515 C2514 1.399 . S
C2515 C2516 1.385 . S
C2516 H2502 0.931 . S
C2516 C2515 1.385 . S
C2516 C2517 1.389 . S
C2517 C2516 1.389 . S
C2517 C2518 1.387 . S
C2518 H2503 0.930 . S
C2518 C2513 1.390 . S
C2518 C2517 1.387 . S
H2519 C2531 0.930 . S
H2520 C2533 0.922 1_556 S
H2521 C2534 0.897 1_556 S
H2522 C2538 0.959 . S
H2523 C2538 0.959 . S
H2524 C2538 0.961 . S
H2525 C2539 0.960 . S
H2526 C2539 0.961 . S
H2527 C2539 0.959 . S
H2528 C2542 0.929 1_556 S
H2529 C2543 0.931 . S
H2530 C2545 0.930 . S
C2531 H2519 0.930 . S
C2531 C2532 1.399 . S
C2531 C2536 1.399 . S
C2532 C2531 1.399 . S
C2532 C2533 1.385 . S
C2533 H2520 0.922 1_554 S
C2533 C2532 1.385 . S
C2533 C2534 1.389 . S
C2534 H2521 0.897 1_554 S
C2534 C2533 1.389 . S
C2534 C2535 1.424 . S
C2535 C2534 1.424 . S
C2535 C2536 1.394 . S
C2535 C2541 1.465 . S
C2536 C2531 1.399 . S
C2536 C2535 1.394 . S
C2536 C2537 1.516 . S
C2537 C2536 1.516 . S
C2537 C2538 1.502 . S
C2537 C2539 1.561 . S
C2537 C2540 1.526 . S
C2538 H2522 0.959 . S
C2538 H2523 0.959 . S
C2538 H2524 0.961 . S
C2538 C2537 1.502 . S
C2539 H2525 0.960 . S
C2539 H2526 0.961 . S
C2539 H2527 0.959 . S
C2539 C2537 1.561 . S
C2540 C2537 1.526 . S
C2540 C2541 1.396 . S
C2540 C2545 1.390 . S
C2541 C2535 1.465 . S
C2541 C2540 1.396 . S
C2541 C2542 1.399 . S
C2542 H2528 0.929 1_554 S
C2542 C2541 1.399 . S
C2542 C2543 1.385 . S
C2543 H2529 0.931 . S
C2543 C2542 1.385 . S
C2543 C2544 1.389 . S
C2544 C2543 1.389 . S
C2544 C2545 1.387 . S
C2545 H2530 0.930 . S
C2545 C2540 1.390 . S
C2545 C2544 1.387 . S
H2546 C2558 0.930 . S
H2547 C2560 0.930 . S
H2548 C2561 0.930 . S
H2549 C2565 0.959 . S
H2550 C2565 0.959 . S
H2551 C2565 0.961 . S
H2552 C2566 0.960 . S
H2553 C2566 0.961 . S
H2554 C2566 0.959 . S
H2555 C2569 0.929 . S
H2556 C2570 0.931 . S
H2557 C2572 0.930 . S
C2558 H2546 0.930 . S
C2558 C2559 1.399 . S
C2558 C2563 1.399 . S
C2559 C2558 1.399 . S
C2559 C2560 1.376 . S
C2560 H2547 0.930 . S
C2560 C2559 1.376 . S
C2560 C2561 1.388 . S
C2561 H2548 0.930 . S
C2561 C2560 1.388 . S
C2561 C2562 1.390 . S
C2562 C2561 1.390 . S
C2562 C2563 1.394 . S
C2562 C2568 1.465 . S
C2563 C2558 1.399 . S
C2563 C2562 1.394 . S
C2563 C2564 1.516 . S
C2564 C2563 1.516 . S
C2564 C2565 1.502 . S
C2564 C2566 1.561 . S
C2564 C2567 1.526 . S
C2565 H2549 0.959 . S
C2565 H2550 0.959 . S
C2565 H2551 0.961 . S
C2565 C2564 1.502 . S
C2566 H2552 0.960 . S
C2566 H2553 0.961 . S
C2566 H2554 0.959 . S
C2566 C2564 1.561 . S
C2567 C2564 1.526 . S
C2567 C2568 1.396 . S
C2567 C2572 1.390 . S
C2568 C2562 1.465 . S
C2568 C2567 1.396 . S
C2568 C2569 1.399 . S
C2569 H2555 0.929 . S
C2569 C2568 1.399 . S
C2569 C2570 1.385 . S
C2570 H2556 0.931 . S
C2570 C2569 1.385 . S
C2570 C2571 1.389 . S
C2571 C2570 1.389 . S
C2571 C2572 1.387 . S
C2572 H2557 0.930 . S
C2572 C2567 1.390 . S
C2572 C2571 1.387 . S
H2573 C2585 0.930 . S
H2574 C2587 0.930 . S
H2575 C2588 0.930 . S
H2576 C2592 0.959 . S
H2577 C2592 0.959 . S
H2578 C2592 0.961 . S
H2579 C2593 0.960 . S
H2580 C2593 0.961 . S
H2581 C2593 0.959 . S
H2582 C2596 0.929 . S
H2583 C2597 0.931 . S
H2584 C2599 0.930 . S
C2585 H2573 0.930 . S
C2585 C2586 1.399 . S
C2585 C2590 1.399 . S
C2586 C2585 1.399 . S
C2586 C2587 1.376 . S
C2587 H2574 0.930 . S
C2587 C2586 1.376 . S
C2587 C2588 1.388 . S
C2588 H2575 0.930 . S
C2588 C2587 1.388 . S
C2588 C2589 1.390 . S
C2589 C2588 1.390 . S
C2589 C2590 1.394 . S
C2589 C2595 1.465 . S
C2590 C2585 1.399 . S
C2590 C2589 1.394 . S
C2590 C2591 1.516 . S
C2591 C2590 1.516 . S
C2591 C2592 1.502 . S
C2591 C2593 1.561 . S
C2591 C2594 1.526 . S
C2592 H2576 0.959 . S
C2592 H2577 0.959 . S
C2592 H2578 0.961 . S
C2592 C2591 1.502 . S
C2593 H2579 0.960 . S
C2593 H2580 0.961 . S
C2593 H2581 0.959 . S
C2593 C2591 1.561 . S
C2594 C2591 1.526 . S
C2594 C2595 1.396 . S
C2594 C2599 1.390 . S
C2595 C2589 1.465 . S
C2595 C2594 1.396 . S
C2595 C2596 1.399 . S
C2596 H2582 0.929 . S
C2596 C2595 1.399 . S
C2596 C2597 1.385 . S
C2597 H2583 0.931 . S
C2597 C2596 1.385 . S
C2597 C2598 1.389 . S
C2598 C2597 1.389 . S
C2598 C2599 1.387 . S
C2599 H2584 0.930 . S
C2599 C2594 1.390 . S
C2599 C2598 1.387 . S
H2600 C2612 0.930 . S
H2601 C2614 0.930 . S
H2602 C2615 0.930 . S
H2603 C2619 0.959 . S
H2604 C2619 0.959 . S
H2605 C2619 0.961 . S
H2606 C2620 0.960 . S
H2607 C2620 0.961 . S
H2608 C2620 0.959 . S
H2609 C2623 0.929 . S
H2610 C2624 0.931 . S
H2611 C2626 0.930 . S
C2612 H2600 0.930 . S
C2612 C2613 1.399 . S
C2612 C2617 1.399 . S
C2613 C2612 1.399 . S
C2613 C2614 1.376 . S
C2614 H2601 0.930 . S
C2614 C2613 1.376 . S
C2614 C2615 1.388 . S
C2615 H2602 0.930 . S
C2615 C2614 1.388 . S
C2615 C2616 1.390 . S
C2616 C2615 1.390 . S
C2616 C2617 1.394 . S
C2616 C2622 1.465 . S
C2617 C2612 1.399 . S
C2617 C2616 1.394 . S
C2617 C2618 1.516 . S
C2618 C2617 1.516 . S
C2618 C2619 1.502 . S
C2618 C2620 1.561 . S
C2618 C2621 1.526 . S
C2619 H2603 0.959 . S
C2619 H2604 0.959 . S
C2619 H2605 0.961 . S
C2619 C2618 1.502 . S
C2620 H2606 0.960 . S
C2620 H2607 0.961 . S
C2620 H2608 0.959 . S
C2620 C2618 1.561 . S
C2621 C2618 1.526 . S
C2621 C2622 1.396 . S
C2621 C2626 1.390 . S
C2622 C2616 1.465 . S
C2622 C2621 1.396 . S
C2622 C2623 1.399 . S
C2623 H2609 0.929 . S
C2623 C2622 1.399 . S
C2623 C2624 1.385 . S
C2624 H2610 0.931 . S
C2624 C2623 1.385 . S
C2624 C2625 1.389 . S
C2625 C2624 1.389 . S
C2625 C2626 1.387 . S
C2626 H2611 0.930 . S
C2626 C2621 1.390 . S
C2626 C2625 1.387 . S
H2627 C2639 0.930 . S
H2628 C2641 0.930 . S
H2629 C2642 0.930 . S
H2630 C2646 0.959 . S
H2631 C2646 0.959 . S
H2632 C2646 0.961 . S
H2633 C2647 0.960 . S
H2634 C2647 0.961 . S
H2635 C2647 0.959 . S
H2636 C2650 0.929 . S
H2637 C2651 0.931 . S
H2638 C2653 0.930 . S
C2639 H2627 0.930 . S
C2639 C2640 1.399 . S
C2639 C2644 1.399 . S
C2640 C2639 1.399 . S
C2640 C2641 1.376 . S
C2641 H2628 0.930 . S
C2641 C2640 1.376 . S
C2641 C2642 1.388 . S
C2642 H2629 0.930 . S
C2642 C2641 1.388 . S
C2642 C2643 1.390 . S
C2643 C2642 1.390 . S
C2643 C2644 1.394 . S
C2643 C2649 1.465 . S
C2644 C2639 1.399 . S
C2644 C2643 1.394 . S
C2644 C2645 1.516 . S
C2645 C2644 1.516 . S
C2645 C2646 1.502 . S
C2645 C2647 1.561 . S
C2645 C2648 1.526 . S
C2646 H2630 0.959 . S
C2646 H2631 0.959 . S
C2646 H2632 0.961 . S
C2646 C2645 1.502 . S
C2647 H2633 0.960 . S
C2647 H2634 0.961 . S
C2647 H2635 0.959 . S
C2647 C2645 1.561 . S
C2648 C2645 1.526 . S
C2648 C2649 1.396 . S
C2648 C2653 1.390 . S
C2649 C2643 1.465 . S
C2649 C2648 1.396 . S
C2649 C2650 1.399 . S
C2650 H2636 0.929 . S
C2650 C2649 1.399 . S
C2650 C2651 1.385 . S
C2651 H2637 0.931 . S
C2651 C2650 1.385 . S
C2651 C2652 1.389 . S
C2652 C2651 1.389 . S
C2652 C2653 1.387 . S
C2653 H2638 0.930 . S
C2653 C2648 1.390 . S
C2653 C2652 1.387 . S
H2654 C2666 0.930 . S
H2655 C2668 0.930 . S
H2656 C2669 0.930 . S
H2657 C2673 0.959 1_455 S
H2658 C2673 0.959 . S
H2659 C2673 0.961 . S
H2660 C2674 0.960 . S
H2661 C2674 0.961 . S
H2662 C2674 0.959 . S
H2663 C2677 0.929 . S
H2664 C2678 0.931 . S
H2665 C2680 0.930 1_655 S
C2666 H2654 0.930 . S
C2666 C2667 1.399 1_655 S
C2666 C2671 1.402 . S
C2667 C2666 1.399 1_455 S
C2667 C2668 1.376 . S
C2668 H2655 0.930 . S
C2668 C2667 1.376 . S
C2668 C2669 1.388 . S
C2669 H2656 0.930 . S
C2669 C2668 1.388 . S
C2669 C2670 1.390 . S
C2670 C2669 1.390 . S
C2670 C2671 1.389 1_455 S
C2670 C2676 1.465 . S
C2671 C2666 1.402 . S
C2671 C2670 1.389 1_655 S
C2671 C2672 1.518 . S
C2672 C2671 1.518 . S
C2672 C2673 1.502 . S
C2672 C2674 1.561 . S
C2672 C2675 1.526 1_655 S
C2673 H2657 0.959 1_655 S
C2673 H2658 0.959 . S
C2673 H2659 0.961 . S
C2673 C2672 1.502 . S
C2674 H2660 0.960 . S
C2674 H2661 0.961 . S
C2674 H2662 0.959 . S
C2674 C2672 1.561 . S
C2675 C2672 1.526 1_455 S
C2675 C2676 1.396 . S
C2675 C2680 1.390 . S
C2676 C2670 1.465 . S
C2676 C2675 1.396 . S
C2676 C2677 1.399 . S
C2677 H2663 0.929 . S
C2677 C2676 1.399 . S
C2677 C2678 1.385 . S
C2678 H2664 0.931 . S
C2678 C2677 1.385 . S
C2678 C2679 1.389 . S
C2679 C2678 1.389 . S
C2679 C2680 1.387 . S
C2680 H2665 0.930 1_455 S
C2680 C2675 1.390 . S
C2680 C2679 1.387 . S
H2681 C2693 0.930 . S
H2682 C2695 0.930 . S
H2683 C2696 0.930 . S
H2684 C2700 0.959 . S
H2685 C2700 0.959 . S
H2686 C2700 0.961 . S
H2687 C2701 0.960 . S
H2688 C2701 0.961 . S
H2689 C2701 0.959 . S
H2690 C2704 0.929 . S
H2691 C2705 0.931 . S
H2692 C2707 0.930 . S
C2693 H2681 0.930 . S
C2693 C2694 1.399 . S
C2693 C2698 1.399 . S
C2694 C2693 1.399 . S
C2694 C2695 1.376 . S
C2695 H2682 0.930 . S
C2695 C2694 1.376 . S
C2695 C2696 1.388 . S
C2696 H2683 0.930 . S
C2696 C2695 1.388 . S
C2696 C2697 1.390 . S
C2697 C2696 1.390 . S
C2697 C2698 1.394 . S
C2697 C2703 1.465 . S
C2698 C2693 1.399 . S
C2698 C2697 1.394 . S
C2698 C2699 1.516 . S
C2699 C2698 1.516 . S
C2699 C2700 1.502 . S
C2699 C2701 1.561 . S
C2699 C2702 1.526 . S
C2700 H2684 0.959 . S
C2700 H2685 0.959 . S
C2700 H2686 0.961 . S
C2700 C2699 1.502 . S
C2701 H2687 0.960 . S
C2701 H2688 0.961 . S
C2701 H2689 0.959 . S
C2701 C2699 1.561 . S
C2702 C2699 1.526 . S
C2702 C2703 1.396 . S
C2702 C2707 1.390 . S
C2703 C2697 1.465 . S
C2703 C2702 1.396 . S
C2703 C2704 1.399 . S
C2704 H2690 0.929 . S
C2704 C2703 1.399 . S
C2704 C2705 1.385 . S
C2705 H2691 0.931 . S
C2705 C2704 1.385 . S
C2705 C2706 1.389 . S
C2706 C2705 1.389 . S
C2706 C2707 1.387 . S
C2707 H2692 0.930 . S
C2707 C2702 1.390 . S
C2707 C2706 1.387 . S
H2708 C2720 0.930 . S
H2709 C2722 0.930 . S
H2710 C2723 0.930 . S
H2711 C2727 0.959 . S
H2712 C2727 0.959 1_554 S
H2713 C2727 0.961 . S
H2714 C2728 0.966 . S
H2715 C2728 0.961 . S
H2716 C2728 0.959 1_556 S
H2717 C2731 0.929 . S
H2718 C2732 0.931 . S
H2719 C2734 0.930 1_554 S
C2720 H2708 0.930 . S
C2720 C2721 1.399 . S
C2720 C2725 1.399 . S
C2721 C2720 1.399 . S
C2721 C2722 1.376 . S
C2722 H2709 0.930 . S
C2722 C2721 1.376 . S
C2722 C2723 1.388 . S
C2723 H2710 0.930 . S
C2723 C2722 1.388 . S
C2723 C2724 1.390 . S
C2724 C2723 1.390 . S
C2724 C2725 1.394 . S
C2724 C2730 1.465 . S
C2725 C2720 1.399 . S
C2725 C2724 1.394 . S
C2725 C2726 1.516 . S
C2726 C2725 1.516 . S
C2726 C2727 1.502 . S
C2726 C2728 1.561 1_556 S
C2726 C2729 1.526 . S
C2727 H2711 0.959 . S
C2727 H2712 0.959 1_556 S
C2727 H2713 0.961 . S
C2727 C2726 1.502 . S
C2728 H2714 0.966 . S
C2728 H2715 0.961 . S
C2728 H2716 0.959 1_554 S
C2728 C2726 1.561 1_554 S
C2729 C2726 1.526 . S
C2729 C2730 1.396 . S
C2729 C2734 1.390 . S
C2730 C2724 1.465 . S
C2730 C2729 1.396 . S
C2730 C2731 1.399 . S
C2731 H2717 0.929 . S
C2731 C2730 1.399 . S
C2731 C2732 1.385 . S
C2732 H2718 0.931 . S
C2732 C2731 1.385 . S
C2732 C2733 1.389 . S
C2733 C2732 1.389 . S
C2733 C2734 1.387 . S
C2734 H2719 0.930 1_556 S
C2734 C2729 1.390 . S
C2734 C2733 1.387 . S
H2735 C2747 0.930 . S
H2736 C2749 0.930 . S
H2737 C2750 0.930 . S
H2738 C2754 0.959 . S
H2739 C2754 0.959 . S
H2740 C2754 0.961 . S
H2741 C2755 0.960 . S
H2742 C2755 0.961 . S
H2743 C2755 0.959 . S
H2744 C2758 0.929 . S
H2745 C2759 0.931 . S
H2746 C2761 0.930 . S
C2747 H2735 0.930 . S
C2747 C2748 1.399 . S
C2747 C2752 1.399 . S
C2748 C2747 1.399 . S
C2748 C2749 1.376 . S
C2749 H2736 0.930 . S
C2749 C2748 1.376 . S
C2749 C2750 1.388 . S
C2750 H2737 0.930 . S
C2750 C2749 1.388 . S
C2750 C2751 1.390 . S
C2751 C2750 1.390 . S
C2751 C2752 1.394 . S
C2751 C2757 1.465 . S
C2752 C2747 1.399 . S
C2752 C2751 1.394 . S
C2752 C2753 1.516 . S
C2753 C2752 1.516 . S
C2753 C2754 1.502 . S
C2753 C2755 1.561 . S
C2753 C2756 1.526 . S
C2754 H2738 0.959 . S
C2754 H2739 0.959 . S
C2754 H2740 0.961 . S
C2754 C2753 1.502 . S
C2755 H2741 0.960 . S
C2755 H2742 0.961 . S
C2755 H2743 0.959 . S
C2755 C2753 1.561 . S
C2756 C2753 1.526 . S
C2756 C2757 1.396 . S
C2756 C2761 1.390 . S
C2757 C2751 1.465 . S
C2757 C2756 1.396 . S
C2757 C2758 1.399 . S
C2758 H2744 0.929 . S
C2758 C2757 1.399 . S
C2758 C2759 1.385 . S
C2759 H2745 0.931 . S
C2759 C2758 1.385 . S
C2759 C2760 1.389 . S
C2760 C2759 1.389 . S
C2760 C2761 1.387 . S
C2761 H2746 0.930 . S
C2761 C2756 1.390 . S
C2761 C2760 1.387 . S
H2762 C2774 0.930 . S
H2763 C2776 0.930 . S
H2764 C2777 0.930 . S
H2765 C2781 0.959 . S
H2766 C2781 0.959 . S
H2767 C2781 0.961 . S
H2768 C2782 0.960 . S
H2769 C2782 0.961 . S
H2770 C2782 0.959 . S
H2771 C2785 0.929 . S
H2772 C2786 0.931 . S
H2773 C2788 0.930 . S
C2774 H2762 0.930 . S
C2774 C2775 1.399 . S
C2774 C2779 1.399 . S
C2775 C2774 1.399 . S
C2775 C2776 1.376 . S
C2776 H2763 0.930 . S
C2776 C2775 1.376 . S
C2776 C2777 1.388 . S
C2777 H2764 0.930 . S
C2777 C2776 1.388 . S
C2777 C2778 1.390 . S
C2778 C2777 1.390 . S
C2778 C2779 1.394 . S
C2778 C2784 1.465 . S
C2779 C2774 1.399 . S
C2779 C2778 1.394 . S
C2779 C2780 1.516 . S
C2780 C2779 1.516 . S
C2780 C2781 1.502 1_455 S
C2780 C2782 1.561 . S
C2780 C2783 1.526 . S
C2781 H2765 0.959 . S
C2781 H2766 0.959 . S
C2781 H2767 0.961 . S
C2781 C2780 1.502 1_655 S
C2782 H2768 0.960 . S
C2782 H2769 0.961 . S
C2782 H2770 0.959 . S
C2782 C2780 1.561 . S
C2783 C2780 1.526 . S
C2783 C2784 1.396 . S
C2783 C2788 1.390 . S
C2784 C2778 1.465 . S
C2784 C2783 1.396 . S
C2784 C2785 1.399 . S
C2785 H2771 0.929 . S
C2785 C2784 1.399 . S
C2785 C2786 1.385 . S
C2786 H2772 0.931 . S
C2786 C2785 1.385 . S
C2786 C2787 1.389 . S
C2787 C2786 1.389 . S
C2787 C2788 1.387 . S
C2788 H2773 0.930 . S
C2788 C2783 1.390 . S
C2788 C2787 1.387 . S
H2789 C2801 0.930 . S
H2790 C2803 0.930 . S
H2791 C2804 0.930 . S
H2792 C2808 0.959 . S
H2793 C2808 0.959 . S
H2794 C2808 0.961 . S
H2795 C2809 0.960 . S
H2796 C2809 0.961 . S
H2797 C2809 0.959 . S
H2798 C2812 0.929 . S
H2799 C2813 0.931 . S
H2800 C2815 0.930 . S
C2801 H2789 0.930 . S
C2801 C2802 1.399 . S
C2801 C2806 1.399 . S
C2802 C2801 1.399 . S
C2802 C2803 1.376 . S
C2803 H2790 0.930 . S
C2803 C2802 1.376 . S
C2803 C2804 1.388 . S
C2804 H2791 0.930 . S
C2804 C2803 1.388 . S
C2804 C2805 1.390 . S
C2805 C2804 1.390 . S
C2805 C2806 1.394 . S
C2805 C2811 1.465 . S
C2806 C2801 1.399 . S
C2806 C2805 1.394 . S
C2806 C2807 1.516 . S
C2807 C2806 1.516 . S
C2807 C2808 1.502 . S
C2807 C2809 1.561 . S
C2807 C2810 1.526 . S
C2808 H2792 0.959 . S
C2808 H2793 0.959 . S
C2808 H2794 0.961 . S
C2808 C2807 1.502 . S
C2809 H2795 0.960 . S
C2809 H2796 0.961 . S
C2809 H2797 0.959 . S
C2809 C2807 1.561 . S
C2810 C2807 1.526 . S
C2810 C2811 1.396 . S
C2810 C2815 1.390 . S
C2811 C2805 1.465 . S
C2811 C2810 1.396 . S
C2811 C2812 1.399 . S
C2812 H2798 0.929 . S
C2812 C2811 1.399 . S
C2812 C2813 1.385 . S
C2813 H2799 0.931 . S
C2813 C2812 1.385 . S
C2813 C2814 1.389 . S
C2814 C2813 1.389 . S
C2814 C2815 1.387 . S
C2815 H2800 0.930 . S
C2815 C2810 1.390 . S
C2815 C2814 1.387 . S
H2816 C2828 0.930 . S
H2817 C2830 0.930 . S
H2818 C2831 0.930 . S
H2819 C2835 0.959 . S
H2820 C2835 0.959 . S
H2821 C2835 0.961 . S
H2822 C2836 0.960 . S
H2823 C2836 0.961 . S
H2824 C2836 0.959 . S
H2825 C2839 0.929 . S
H2826 C2840 0.931 . S
H2827 C2842 0.930 . S
C2828 H2816 0.930 . S
C2828 C2829 1.399 . S
C2828 C2833 1.399 . S
C2829 C2828 1.399 . S
C2829 C2830 1.376 . S
C2830 H2817 0.930 . S
C2830 C2829 1.376 . S
C2830 C2831 1.388 . S
C2831 H2818 0.930 . S
C2831 C2830 1.388 . S
C2831 C2832 1.390 . S
C2832 C2831 1.390 . S
C2832 C2833 1.394 . S
C2832 C2838 1.465 . S
C2833 C2828 1.399 . S
C2833 C2832 1.394 . S
C2833 C2834 1.516 . S
C2834 C2833 1.516 . S
C2834 C2835 1.502 . S
C2834 C2836 1.561 . S
C2834 C2837 1.526 . S
C2835 H2819 0.959 . S
C2835 H2820 0.959 . S
C2835 H2821 0.961 . S
C2835 C2834 1.502 . S
C2836 H2822 0.960 . S
C2836 H2823 0.961 . S
C2836 H2824 0.959 . S
C2836 C2834 1.561 . S
C2837 C2834 1.526 . S
C2837 C2838 1.396 . S
C2837 C2842 1.390 . S
C2838 C2832 1.465 . S
C2838 C2837 1.396 . S
C2838 C2839 1.399 . S
C2839 H2825 0.929 . S
C2839 C2838 1.399 . S
C2839 C2840 1.385 . S
C2840 H2826 0.931 . S
C2840 C2839 1.385 . S
C2840 C2841 1.389 . S
C2841 C2840 1.389 . S
C2841 C2842 1.387 . S
C2842 H2827 0.930 . S
C2842 C2837 1.390 . S
C2842 C2841 1.387 . S
H2843 C2855 0.930 . S
H2844 C2857 0.930 . S
H2845 C2858 0.930 . S
H2846 C2862 0.959 . S
H2847 C2862 0.959 . S
H2848 C2862 0.961 . S
H2849 C2863 0.960 . S
H2850 C2863 0.961 . S
H2851 C2863 0.959 . S
H2852 C2866 0.929 . S
H2853 C2867 0.931 . S
H2854 C2869 0.930 . S
C2855 H2843 0.930 . S
C2855 C2856 1.399 . S
C2855 C2860 1.399 . S
C2856 C2855 1.399 . S
C2856 C2857 1.376 . S
C2857 H2844 0.930 . S
C2857 C2856 1.376 . S
C2857 C2858 1.388 . S
C2858 H2845 0.930 . S
C2858 C2857 1.388 . S
C2858 C2859 1.390 . S
C2859 C2858 1.390 . S
C2859 C2860 1.394 . S
C2859 C2865 1.465 . S
C2860 C2855 1.399 . S
C2860 C2859 1.394 . S
C2860 C2861 1.516 . S
C2861 C2860 1.516 . S
C2861 C2862 1.502 . S
C2861 C2863 1.561 . S
C2861 C2864 1.526 . S
C2862 H2846 0.959 . S
C2862 H2847 0.959 . S
C2862 H2848 0.961 . S
C2862 C2861 1.502 . S
C2863 H2849 0.960 . S
C2863 H2850 0.961 . S
C2863 H2851 0.959 . S
C2863 C2861 1.561 . S
C2864 C2861 1.526 . S
C2864 C2865 1.396 . S
C2864 C2869 1.390 . S
C2865 C2859 1.465 . S
C2865 C2864 1.396 . S
C2865 C2866 1.399 . S
C2866 H2852 0.929 . S
C2866 C2865 1.399 . S
C2866 C2867 1.385 . S
C2867 H2853 0.931 . S
C2867 C2866 1.385 . S
C2867 C2868 1.389 . S
C2868 C2867 1.389 . S
C2868 C2869 1.387 . S
C2869 H2854 0.930 . S
C2869 C2864 1.390 . S
C2869 C2868 1.387 . S
H2870 C2882 0.930 . S
H2871 C2884 0.930 . S
H2872 C2885 0.930 . S
H2873 C2889 0.959 . S
H2874 C2889 0.959 . S
H2875 C2889 0.961 . S
H2876 C2890 0.960 . S
H2877 C2890 0.961 . S
H2878 C2890 0.959 . S
H2879 C2893 0.929 . S
H2880 C2894 0.931 . S
H2881 C2896 0.930 . S
C2882 H2870 0.930 . S
C2882 C2883 1.399 . S
C2882 C2887 1.399 . S
C2883 C2882 1.399 . S
C2883 C2884 1.376 . S
C2884 H2871 0.930 . S
C2884 C2883 1.376 . S
C2884 C2885 1.388 . S
C2885 H2872 0.930 . S
C2885 C2884 1.388 . S
C2885 C2886 1.390 . S
C2886 C2885 1.390 . S
C2886 C2887 1.394 . S
C2886 C2892 1.465 . S
C2887 C2882 1.399 . S
C2887 C2886 1.394 . S
C2887 C2888 1.516 . S
C2888 C2887 1.516 . S
C2888 C2889 1.502 . S
C2888 C2890 1.561 . S
C2888 C2891 1.526 . S
C2889 H2873 0.959 . S
C2889 H2874 0.959 . S
C2889 H2875 0.961 . S
C2889 C2888 1.502 . S
C2890 H2876 0.960 . S
C2890 H2877 0.961 . S
C2890 H2878 0.959 . S
C2890 C2888 1.561 . S
C2891 C2888 1.526 . S
C2891 C2892 1.396 . S
C2891 C2896 1.390 . S
C2892 C2886 1.465 . S
C2892 C2891 1.396 . S
C2892 C2893 1.399 1_655 S
C2893 H2879 0.929 . S
C2893 C2892 1.399 1_455 S
C2893 C2894 1.385 . S
C2894 H2880 0.931 . S
C2894 C2893 1.385 . S
C2894 C2895 1.389 1_455 S
C2895 C2894 1.389 1_655 S
C2895 C2896 1.387 . S
C2896 H2881 0.930 . S
C2896 C2891 1.390 . S
C2896 C2895 1.387 . S
H2897 C2909 0.930 . S
H2898 C2911 0.930 . S
H2899 C2912 0.930 . S
H2900 C2916 0.959 . S
H2901 C2916 0.959 . S
H2902 C2916 0.961 . S
H2903 C2917 0.960 . S
H2904 C2917 0.961 . S
H2905 C2917 0.959 . S
H2906 C2920 0.929 . S
H2907 C2921 0.931 . S
H2908 C2923 0.930 . S
C2909 H2897 0.930 . S
C2909 C2910 1.399 . S
C2909 C2914 1.399 . S
C2910 C2909 1.399 . S
C2910 C2911 1.376 . S
C2911 H2898 0.930 . S
C2911 C2910 1.376 . S
C2911 C2912 1.388 . S
C2912 H2899 0.930 . S
C2912 C2911 1.388 . S
C2912 C2913 1.390 . S
C2913 C2912 1.390 . S
C2913 C2914 1.394 . S
C2913 C2919 1.465 . S
C2914 C2909 1.399 . S
C2914 C2913 1.394 . S
C2914 C2915 1.516 . S
C2915 C2914 1.516 . S
C2915 C2916 1.502 . S
C2915 C2917 1.561 . S
C2915 C2918 1.526 . S
C2916 H2900 0.959 . S
C2916 H2901 0.959 . S
C2916 H2902 0.961 . S
C2916 C2915 1.502 . S
C2917 H2903 0.960 . S
C2917 H2904 0.961 . S
C2917 H2905 0.959 . S
C2917 C2915 1.561 . S
C2918 C2915 1.526 . S
C2918 C2919 1.396 . S
C2918 C2923 1.390 . S
C2919 C2913 1.465 . S
C2919 C2918 1.396 . S
C2919 C2920 1.399 . S
C2920 H2906 0.929 . S
C2920 C2919 1.399 . S
C2920 C2921 1.385 . S
C2921 H2907 0.931 . S
C2921 C2920 1.385 . S
C2921 C2922 1.389 . S
C2922 C2921 1.389 . S
C2922 C2923 1.387 . S
C2923 H2908 0.930 . S
C2923 C2918 1.390 . S
C2923 C2922 1.387 . S
H2924 C2936 0.930 . S
H2925 C2938 0.930 . S
H2926 C2939 0.930 . S
H2927 C2943 0.959 . S
H2928 C2943 0.959 . S
H2929 C2943 0.961 . S
H2930 C2944 0.960 . S
H2931 C2944 0.961 . S
H2932 C2944 0.959 . S
H2933 C2947 0.929 . S
H2934 C2948 0.931 . S
H2935 C2950 0.930 . S
C2936 H2924 0.930 . S
C2936 C2937 1.399 . S
C2936 C2941 1.399 . S
C2937 C2936 1.399 . S
C2937 C2938 1.376 . S
C2938 H2925 0.930 . S
C2938 C2937 1.376 . S
C2938 C2939 1.388 . S
C2939 H2926 0.930 . S
C2939 C2938 1.388 . S
C2939 C2940 1.390 . S
C2940 C2939 1.390 . S
C2940 C2941 1.394 . S
C2940 C2946 1.465 . S
C2941 C2936 1.399 . S
C2941 C2940 1.394 . S
C2941 C2942 1.516 . S
C2942 C2941 1.516 . S
C2942 C2943 1.502 . S
C2942 C2944 1.561 . S
C2942 C2945 1.526 . S
C2943 H2927 0.959 . S
C2943 H2928 0.959 . S
C2943 H2929 0.961 . S
C2943 C2942 1.502 . S
C2944 H2930 0.960 . S
C2944 H2931 0.961 . S
C2944 H2932 0.959 . S
C2944 C2942 1.561 . S
C2945 C2942 1.526 . S
C2945 C2946 1.396 . S
C2945 C2950 1.390 . S
C2946 C2940 1.465 . S
C2946 C2945 1.396 . S
C2946 C2947 1.399 . S
C2947 H2933 0.929 . S
C2947 C2946 1.399 . S
C2947 C2948 1.385 . S
C2948 H2934 0.931 . S
C2948 C2947 1.385 . S
C2948 C2949 1.389 . S
C2949 C2948 1.389 . S
C2949 C2950 1.387 . S
C2950 H2935 0.930 . S
C2950 C2945 1.390 . S
C2950 C2949 1.387 . S
H2951 C2963 0.930 . S
H2952 C2965 0.930 . S
H2953 C2966 0.930 . S
H2954 C2970 0.959 . S
H2955 C2970 0.959 . S
H2956 C2970 0.961 . S
H2957 C2971 0.960 . S
H2958 C2971 0.961 . S
H2959 C2971 0.959 . S
H2960 C2974 0.929 . S
H2961 C2975 0.931 . S
H2962 C2977 0.930 . S
C2963 H2951 0.930 . S
C2963 C2964 1.399 . S
C2963 C2968 1.399 . S
C2964 C2963 1.399 . S
C2964 C2965 1.376 . S
C2965 H2952 0.930 . S
C2965 C2964 1.376 . S
C2965 C2966 1.388 . S
C2966 H2953 0.930 . S
C2966 C2965 1.388 . S
C2966 C2967 1.390 . S
C2967 C2966 1.390 . S
C2967 C2968 1.394 . S
C2967 C2973 1.465 . S
C2968 C2963 1.399 . S
C2968 C2967 1.394 . S
C2968 C2969 1.516 . S
C2969 C2968 1.516 . S
C2969 C2970 1.502 . S
C2969 C2971 1.561 . S
C2969 C2972 1.526 . S
C2970 H2954 0.959 . S
C2970 H2955 0.959 . S
C2970 H2956 0.961 . S
C2970 C2969 1.502 . S
C2971 H2957 0.960 . S
C2971 H2958 0.961 . S
C2971 H2959 0.959 . S
C2971 C2969 1.561 . S
C2972 C2969 1.526 . S
C2972 C2973 1.396 . S
C2972 C2977 1.390 . S
C2973 C2967 1.465 . S
C2973 C2972 1.396 . S
C2973 C2974 1.399 . S
C2974 H2960 0.929 . S
C2974 C2973 1.399 . S
C2974 C2975 1.385 . S
C2975 H2961 0.931 . S
C2975 C2974 1.385 . S
C2975 C2976 1.389 . S
C2976 C2975 1.389 . S
C2976 C2977 1.387 . S
C2977 H2962 0.930 . S
C2977 C2972 1.390 . S
C2977 C2976 1.387 . S
H2978 C2990 0.930 . S
H2979 C2992 0.930 . S
H2980 C2993 0.930 . S
H2981 C2997 0.959 . S
H2982 C2997 0.959 . S
H2983 C2997 0.961 . S
H2984 C2998 0.960 . S
H2985 C2998 0.961 . S
H2986 C2998 0.959 . S
H2987 C3001 0.929 . S
H2988 C3002 0.931 . S
H2989 C3004 0.930 . S
C2990 H2978 0.930 . S
C2990 C2991 1.399 . S
C2990 C2995 1.399 . S
C2991 C2990 1.399 . S
C2991 C2992 1.376 . S
C2992 H2979 0.930 . S
C2992 C2991 1.376 . S
C2992 C2993 1.388 . S
C2993 H2980 0.930 . S
C2993 C2992 1.388 . S
C2993 C2994 1.390 . S
C2994 C2993 1.390 . S
C2994 C2995 1.394 . S
C2994 C3000 1.465 . S
C2995 C2990 1.399 . S
C2995 C2994 1.394 . S
C2995 C2996 1.516 . S
C2996 C2995 1.516 . S
C2996 C2997 1.502 . S
C2996 C2998 1.561 . S
C2996 C2999 1.526 . S
C2997 H2981 0.959 . S
C2997 H2982 0.959 . S
C2997 H2983 0.961 . S
C2997 C2996 1.502 . S
C2998 H2984 0.960 . S
C2998 H2985 0.961 . S
C2998 H2986 0.959 . S
C2998 C2996 1.561 . S
C2999 C2996 1.526 . S
C2999 C3000 1.396 . S
C2999 C3004 1.390 . S
C3000 C2994 1.465 . S
C3000 C2999 1.396 . S
C3000 C3001 1.399 . S
C3001 H2987 0.929 . S
C3001 C3000 1.399 . S
C3001 C3002 1.385 . S
C3002 H2988 0.931 . S
C3002 C3001 1.385 . S
C3002 C3003 1.389 . S
C3003 C3002 1.389 . S
C3003 C3004 1.387 . S
C3004 H2989 0.930 . S
C3004 C2999 1.390 . S
C3004 C3003 1.387 . S
H3005 C3017 0.930 . S
H3006 C3019 0.930 . S
H3007 C3020 0.930 . S
H3008 C3024 0.959 . S
H3009 C3024 0.959 . S
H3010 C3024 0.961 . S
H3011 C3025 0.960 . S
H3012 C3025 0.961 . S
H3013 C3025 0.959 . S
H3014 C3028 0.929 . S
H3015 C3029 0.931 . S
H3016 C3031 0.930 . S
C3017 H3005 0.930 . S
C3017 C3018 1.399 . S
C3017 C3022 1.399 . S
C3018 C3017 1.399 . S
C3018 C3019 1.376 . S
C3019 H3006 0.930 . S
C3019 C3018 1.376 . S
C3019 C3020 1.388 . S
C3020 H3007 0.930 . S
C3020 C3019 1.388 . S
C3020 C3021 1.390 . S
C3021 C3020 1.390 . S
C3021 C3022 1.394 . S
C3021 C3027 1.465 . S
C3022 C3017 1.399 . S
C3022 C3021 1.394 . S
C3022 C3023 1.516 . S
C3023 C3022 1.516 . S
C3023 C3024 1.502 . S
C3023 C3025 1.561 . S
C3023 C3026 1.526 . S
C3024 H3008 0.959 . S
C3024 H3009 0.959 . S
C3024 H3010 0.961 . S
C3024 C3023 1.502 . S
C3025 H3011 0.960 . S
C3025 H3012 0.961 . S
C3025 H3013 0.959 . S
C3025 C3023 1.561 . S
C3026 C3023 1.526 . S
C3026 C3027 1.396 . S
C3026 C3031 1.390 . S
C3027 C3021 1.465 . S
C3027 C3026 1.396 . S
C3027 C3028 1.399 . S
C3028 H3014 0.929 . S
C3028 C3027 1.399 . S
C3028 C3029 1.385 . S
C3029 H3015 0.931 . S
C3029 C3028 1.385 . S
C3029 C3030 1.389 . S
C3030 C3029 1.389 . S
C3030 C3031 1.387 . S
C3031 H3016 0.930 . S
C3031 C3026 1.390 . S
C3031 C3030 1.387 . S
H3032 C3044 0.930 . S
H3033 C3046 0.930 . S
H3034 C3047 0.930 . S
H3035 C3051 0.959 . S
H3036 C3051 0.959 . S
H3037 C3051 0.961 . S
H3038 C3052 0.960 . S
H3039 C3052 0.961 . S
H3040 C3052 0.959 . S
H3041 C3055 0.929 . S
H3042 C3056 0.931 . S
H3043 C3058 0.930 . S
C3044 H3032 0.930 . S
C3044 C3045 1.399 . S
C3044 C3049 1.399 . S
C3045 C3044 1.399 . S
C3045 C3046 1.376 . S
C3046 H3033 0.930 . S
C3046 C3045 1.376 . S
C3046 C3047 1.388 . S
C3047 H3034 0.930 . S
C3047 C3046 1.388 . S
C3047 C3048 1.390 . S
C3048 C3047 1.390 . S
C3048 C3049 1.394 . S
C3048 C3054 1.465 . S
C3049 C3044 1.399 . S
C3049 C3048 1.394 . S
C3049 C3050 1.516 . S
C3050 C3049 1.516 . S
C3050 C3051 1.502 . S
C3050 C3052 1.561 . S
C3050 C3053 1.526 . S
C3051 H3035 0.959 . S
C3051 H3036 0.959 . S
C3051 H3037 0.961 . S
C3051 C3050 1.502 . S
C3052 H3038 0.960 . S
C3052 H3039 0.961 . S
C3052 H3040 0.959 . S
C3052 C3050 1.561 . S
C3053 C3050 1.526 . S
C3053 C3054 1.396 . S
C3053 C3058 1.390 . S
C3054 C3048 1.465 . S
C3054 C3053 1.396 . S
C3054 C3055 1.399 . S
C3055 H3041 0.929 . S
C3055 C3054 1.399 . S
C3055 C3056 1.385 . S
C3056 H3042 0.931 . S
C3056 C3055 1.385 . S
C3056 C3057 1.389 . S
C3057 C3056 1.389 . S
C3057 C3058 1.387 . S
C3058 H3043 0.930 . S
C3058 C3053 1.390 . S
C3058 C3057 1.387 . S
H3059 C3071 0.930 . S
H3060 C3073 0.930 . S
H3061 C3074 0.930 . S
H3062 C3078 0.959 . S
H3063 C3078 0.959 . S
H3064 C3078 0.961 1_565 S
H3065 C3079 0.960 . S
H3066 C3079 0.961 . S
H3067 C3079 0.959 . S
H3068 C3082 0.929 . S
H3069 C3083 0.931 . S
H3070 C3085 0.930 1_545 S
C3071 H3059 0.930 . S
C3071 C3072 1.399 . S
C3071 C3076 1.399 . S
C3072 C3071 1.399 . S
C3072 C3073 1.376 . S
C3073 H3060 0.930 . S
C3073 C3072 1.376 . S
C3073 C3074 1.388 . S
C3074 H3061 0.930 . S
C3074 C3073 1.388 . S
C3074 C3075 1.390 . S
C3075 C3074 1.390 . S
C3075 C3076 1.394 . S
C3075 C3081 1.465 . S
C3076 C3071 1.399 . S
C3076 C3075 1.394 . S
C3076 C3077 1.516 . S
C3077 C3076 1.516 . S
C3077 C3078 1.502 1_565 S
C3077 C3079 1.561 . S
C3077 C3080 1.526 . S
C3078 H3062 0.959 . S
C3078 H3063 0.959 . S
C3078 H3064 0.961 1_545 S
C3078 C3077 1.502 1_545 S
C3079 H3065 0.960 . S
C3079 H3066 0.961 . S
C3079 H3067 0.959 . S
C3079 C3077 1.561 . S
C3080 C3077 1.526 . S
C3080 C3081 1.396 . S
C3080 C3085 1.390 . S
C3081 C3075 1.465 . S
C3081 C3080 1.396 . S
C3081 C3082 1.399 . S
C3082 H3068 0.929 . S
C3082 C3081 1.399 . S
C3082 C3083 1.385 . S
C3083 H3069 0.931 . S
C3083 C3082 1.385 . S
C3083 C3084 1.389 . S
C3084 C3083 1.389 . S
C3084 C3085 1.387 . S
C3085 H3070 0.930 1_565 S
C3085 C3080 1.390 . S
C3085 C3084 1.387 . S
H3086 C3098 0.930 . S
H3087 C3100 0.930 . S
H3088 C3101 0.930 . S
H3089 C3105 0.959 . S
H3090 C3105 0.959 . S
H3091 C3105 0.961 . S
H3092 C3106 0.960 . S
H3093 C3106 0.961 . S
H3094 C3106 0.959 . S
H3095 C3109 0.929 . S
H3096 C3110 0.931 . S
H3097 C3112 0.930 . S
C3098 H3086 0.930 . S
C3098 C3099 1.399 . S
C3098 C3103 1.399 . S
C3099 C3098 1.399 . S
C3099 C3100 1.376 . S
C3100 H3087 0.930 . S
C3100 C3099 1.376 . S
C3100 C3101 1.388 . S
C3101 H3088 0.930 . S
C3101 C3100 1.388 . S
C3101 C3102 1.390 . S
C3102 C3101 1.390 . S
C3102 C3103 1.394 . S
C3102 C3108 1.465 . S
C3103 C3098 1.399 . S
C3103 C3102 1.394 . S
C3103 C3104 1.516 . S
C3104 C3103 1.516 . S
C3104 C3105 1.502 . S
C3104 C3106 1.561 . S
C3104 C3107 1.526 . S
C3105 H3089 0.959 . S
C3105 H3090 0.959 . S
C3105 H3091 0.961 . S
C3105 C3104 1.502 . S
C3106 H3092 0.960 . S
C3106 H3093 0.961 . S
C3106 H3094 0.959 . S
C3106 C3104 1.561 . S
C3107 C3104 1.526 . S
C3107 C3108 1.396 . S
C3107 C3112 1.390 . S
C3108 C3102 1.465 . S
C3108 C3107 1.396 . S
C3108 C3109 1.399 . S
C3109 H3095 0.929 . S
C3109 C3108 1.399 . S
C3109 C3110 1.385 . S
C3110 H3096 0.931 . S
C3110 C3109 1.385 . S
C3110 C3111 1.389 . S
C3111 C3110 1.389 . S
C3111 C3112 1.387 . S
C3112 H3097 0.930 . S
C3112 C3107 1.390 . S
C3112 C3111 1.387 . S
H3113 C3125 0.930 . S
H3114 C3127 0.930 . S
H3115 C3128 0.930 . S
H3116 C3132 0.959 . S
H3117 C3132 0.959 . S
H3118 C3132 0.961 . S
H3119 C3133 0.960 . S
H3120 C3133 0.961 . S
H3121 C3133 0.959 . S
H3122 C3136 0.929 . S
H3123 C3137 0.931 . S
H3124 C3139 0.930 . S
C3125 H3113 0.930 . S
C3125 C3126 1.399 1_556 S
C3125 C3130 1.399 . S
C3126 C3125 1.399 1_554 S
C3126 C3127 1.376 . S
C3127 H3114 0.930 . S
C3127 C3126 1.376 . S
C3127 C3128 1.388 . S
C3128 H3115 0.930 . S
C3128 C3127 1.388 . S
C3128 C3129 1.390 . S
C3129 C3128 1.390 . S
C3129 C3130 1.394 1_554 S
C3129 C3135 1.465 . S
C3130 C3125 1.399 . S
C3130 C3129 1.394 1_556 S
C3130 C3131 1.516 . S
C3131 C3130 1.516 . S
C3131 C3132 1.502 . S
C3131 C3133 1.561 . S
C3131 C3134 1.509 1_556 S
C3132 H3116 0.959 . S
C3132 H3117 0.959 . S
C3132 H3118 0.961 . S
C3132 C3131 1.502 . S
C3133 H3119 0.960 . S
C3133 H3120 0.961 . S
C3133 H3121 0.959 . S
C3133 C3131 1.561 . S
C3134 C3131 1.509 1_554 S
C3134 C3135 1.413 . S
C3134 C3139 1.391 1_554 S
C3135 C3129 1.465 . S
C3135 C3134 1.413 . S
C3135 C3136 1.399 . S
C3136 H3122 0.929 . S
C3136 C3135 1.399 . S
C3136 C3137 1.385 . S
C3137 H3123 0.931 . S
C3137 C3136 1.385 . S
C3137 C3138 1.389 . S
C3138 C3137 1.389 . S
C3138 C3139 1.387 1_554 S
C3139 H3124 0.930 . S
C3139 C3134 1.391 1_556 S
C3139 C3138 1.387 1_556 S
H3140 C3152 0.930 . S
H3141 C3154 0.930 . S
H3142 C3155 0.930 . S
H3143 C3159 0.959 . S
H3144 C3159 0.959 . S
H3145 C3159 0.961 . S
H3146 C3160 0.960 . S
H3147 C3160 0.961 . S
H3148 C3160 0.959 . S
H3149 C3163 0.929 . S
H3150 C3164 0.931 . S
H3151 C3166 0.930 . S
C3152 H3140 0.930 . S
C3152 C3153 1.399 . S
C3152 C3157 1.399 . S
C3153 C3152 1.399 . S
C3153 C3154 1.376 . S
C3154 H3141 0.930 . S
C3154 C3153 1.376 . S
C3154 C3155 1.388 . S
C3155 H3142 0.930 . S
C3155 C3154 1.388 . S
C3155 C3156 1.390 . S
C3156 C3155 1.390 . S
C3156 C3157 1.394 . S
C3156 C3162 1.465 . S
C3157 C3152 1.399 . S
C3157 C3156 1.394 . S
C3157 C3158 1.516 . S
C3158 C3157 1.516 . S
C3158 C3159 1.502 . S
C3158 C3160 1.561 . S
C3158 C3161 1.526 . S
C3159 H3143 0.959 . S
C3159 H3144 0.959 . S
C3159 H3145 0.961 . S
C3159 C3158 1.502 . S
C3160 H3146 0.960 . S
C3160 H3147 0.961 . S
C3160 H3148 0.959 . S
C3160 C3158 1.561 . S
C3161 C3158 1.526 . S
C3161 C3162 1.396 . S
C3161 C3166 1.390 . S
C3162 C3156 1.465 . S
C3162 C3161 1.396 . S
C3162 C3163 1.399 . S
C3163 H3149 0.929 . S
C3163 C3162 1.399 . S
C3163 C3164 1.385 . S
C3164 H3150 0.931 . S
C3164 C3163 1.385 . S
C3164 C3165 1.389 . S
C3165 C3164 1.389 . S
C3165 C3166 1.387 . S
C3166 H3151 0.930 . S
C3166 C3161 1.390 . S
C3166 C3165 1.387 . S
H3167 C3179 0.930 . S
H3168 C3181 0.930 . S
H3169 C3182 0.930 1_556 S
H3170 C3186 0.959 . S
H3171 C3186 0.959 . S
H3172 C3186 0.961 . S
H3173 C3187 0.960 . S
H3174 C3187 0.961 . S
H3175 C3187 0.959 . S
H3176 C3190 0.929 . S
H3177 C3191 0.931 . S
H3178 C3193 0.930 . S
C3179 H3167 0.930 . S
C3179 C3180 1.399 . S
C3179 C3184 1.399 . S
C3180 C3179 1.399 . S
C3180 C3181 1.376 . S
C3181 H3168 0.930 . S
C3181 C3180 1.376 . S
C3181 C3182 1.388 . S
C3182 H3169 0.930 1_554 S
C3182 C3181 1.388 . S
C3182 C3183 1.390 . S
C3183 C3182 1.390 . S
C3183 C3184 1.394 . S
C3183 C3189 1.465 . S
C3184 C3179 1.399 . S
C3184 C3183 1.394 . S
C3184 C3185 1.516 . S
C3185 C3184 1.516 . S
C3185 C3186 1.502 . S
C3185 C3187 1.561 . S
C3185 C3188 1.526 . S
C3186 H3170 0.959 . S
C3186 H3171 0.959 . S
C3186 H3172 0.961 . S
C3186 C3185 1.502 . S
C3187 H3173 0.960 . S
C3187 H3174 0.961 . S
C3187 H3175 0.959 . S
C3187 C3185 1.561 . S
C3188 C3185 1.526 . S
C3188 C3189 1.396 . S
C3188 C3193 1.390 . S
C3189 C3183 1.465 . S
C3189 C3188 1.396 . S
C3189 C3190 1.399 1_554 S
C3190 H3176 0.929 . S
C3190 C3189 1.399 1_556 S
C3190 C3191 1.385 . S
C3191 H3177 0.931 . S
C3191 C3190 1.385 . S
C3191 C3192 1.389 1_556 S
C3192 C3191 1.389 1_554 S
C3192 C3193 1.387 . S
C3193 H3178 0.930 . S
C3193 C3188 1.390 . S
C3193 C3192 1.387 . S
H3194 C3206 0.930 . S
H3195 C3208 0.930 . S
H3196 C3209 0.930 . S
H3197 C3213 0.959 . S
H3198 C3213 0.959 . S
H3199 C3213 0.961 . S
H3200 C3214 0.960 . S
H3201 C3214 0.961 . S
H3202 C3214 0.959 . S
H3203 C3217 0.929 . S
H3204 C3218 0.931 . S
H3205 C3220 0.930 . S
C3206 H3194 0.930 . S
C3206 C3207 1.399 . S
C3206 C3211 1.399 . S
C3207 C3206 1.399 . S
C3207 C3208 1.376 . S
C3208 H3195 0.930 . S
C3208 C3207 1.376 . S
C3208 C3209 1.388 . S
C3209 H3196 0.930 . S
C3209 C3208 1.388 . S
C3209 C3210 1.390 . S
C3210 C3209 1.390 . S
C3210 C3211 1.394 . S
C3210 C3216 1.465 . S
C3211 C3206 1.399 . S
C3211 C3210 1.394 . S
C3211 C3212 1.516 . S
C3212 C3211 1.516 . S
C3212 C3213 1.502 . S
C3212 C3214 1.561 . S
C3212 C3215 1.526 . S
C3213 H3197 0.959 . S
C3213 H3198 0.959 . S
C3213 H3199 0.961 . S
C3213 C3212 1.502 . S
C3214 H3200 0.960 . S
C3214 H3201 0.961 . S
C3214 H3202 0.959 . S
C3214 C3212 1.561 . S
C3215 C3212 1.526 . S
C3215 C3216 1.396 . S
C3215 C3220 1.390 . S
C3216 C3210 1.465 . S
C3216 C3215 1.396 . S
C3216 C3217 1.399 . S
C3217 H3203 0.929 . S
C3217 C3216 1.399 . S
C3217 C3218 1.385 . S
C3218 H3204 0.931 . S
C3218 C3217 1.385 . S
C3218 C3219 1.389 . S
C3219 C3218 1.389 . S
C3219 C3220 1.387 . S
C3220 H3205 0.930 . S
C3220 C3215 1.390 . S
C3220 C3219 1.387 . S
H3221 C3233 0.930 . S
H3222 C3235 0.930 . S
H3223 C3236 0.930 . S
H3224 C3240 0.959 . S
H3225 C3240 0.959 . S
H3226 C3240 0.961 . S
H3227 C3241 0.960 . S
H3228 C3241 0.961 . S
H3229 C3241 0.959 . S
H3230 C3244 0.929 . S
H3231 C3245 0.931 . S
H3232 C3247 0.930 . S
C3233 H3221 0.930 . S
C3233 C3234 1.399 . S
C3233 C3238 1.399 . S
C3234 C3233 1.399 . S
C3234 C3235 1.376 . S
C3235 H3222 0.930 . S
C3235 C3234 1.376 . S
C3235 C3236 1.388 . S
C3236 H3223 0.930 . S
C3236 C3235 1.388 . S
C3236 C3237 1.390 . S
C3237 C3236 1.390 . S
C3237 C3238 1.394 . S
C3237 C3243 1.465 . S
C3238 C3233 1.399 . S
C3238 C3237 1.394 . S
C3238 C3239 1.516 . S
C3239 C3238 1.516 . S
C3239 C3240 1.502 . S
C3239 C3241 1.561 . S
C3239 C3242 1.526 . S
C3240 H3224 0.959 . S
C3240 H3225 0.959 . S
C3240 H3226 0.961 . S
C3240 C3239 1.502 . S
C3241 H3227 0.960 . S
C3241 H3228 0.961 . S
C3241 H3229 0.959 . S
C3241 C3239 1.561 . S
C3242 C3239 1.526 . S
C3242 C3243 1.396 . S
C3242 C3247 1.390 . S
C3243 C3237 1.465 . S
C3243 C3242 1.396 . S
C3243 C3244 1.399 . S
C3244 H3230 0.929 . S
C3244 C3243 1.399 . S
C3244 C3245 1.385 . S
C3245 H3231 0.931 . S
C3245 C3244 1.385 . S
C3245 C3246 1.389 . S
C3246 C3245 1.389 . S
C3246 C3247 1.387 . S
C3247 H3232 0.930 . S
C3247 C3242 1.390 . S
C3247 C3246 1.387 . S
C669 C106 1.560 . S
C681 C352 1.535 1_556 S
C696 C65 1.309 . S
C708 C365 1.256 . S
C723 C79 1.672 . S
C735 C384 1.693 . S
C762 C415 1.669 . S
C750 C90 1.706 . S
C777 C21 1.459 . S
C789 C435 1.470 . S
C816 C452 0.928 . S
C804 C35 0.900 . S
C843 C465 1.522 . S
C831 C50 1.538 . S
C858 C6 0.988 . S
C870 C492 1.109 . S
C897 C345 1.387 1_655 S
C885 C232 1.452 . S
C912 C245 1.449 . S
C924 C375 1.487 . S
C951 C377 1.664 . S
C939 C274 1.735 . S
C978 C412 0.872 . S
C966 C175 0.921 . S
C993 C231 0.954 . S
C1005 C432 1.011 . S
C1032 C445 1.725 . S
C1020 C246 1.729 . S
C1059 C475 1.120 . S
C1047 C273 1.111 . S
C1086 C485 1.352 . S
C1074 C176 1.349 . S
C1113 C355 1.639 . S
C1101 C160 1.594 . S
C1128 C289 1.785 . S
C1140 C505 1.793 . S
C1167 C535 1.647 . S
C1155 C328 1.580 . S
C1194 C552 1.349 . S
C1182 C317 1.358 . S
C1209 C118 1.869 . S
C1221 C495 1.943 . S
C1236 C132 1.244 . S
C1248 C382 1.256 . S
C1263 C331 1.915 . S
C1275 C565 1.897 . S
C1302 C592 1.101 . S
C1290 C303 1.156 . S
C1329 C342 1.203 . S
C1317 C63 1.115 . S
C1356 C577 1.633 . S
C1344 C107 1.630 . S
C1371 C92 1.459 . S
C1383 C395 1.428 . S
C1398 C78 2.274 . S
C1410 C564 2.232 . S
C1437 C424 2.004 . S
C1425 C8 2.043 . S
C1452 C51 0.966 . S
C1464 C522 0.981 . S
C1491 C457 1.821 1_556 S
C1479 C37 1.805 . S
C1518 C602 0.976 . S
C1506 C20 1.012 . S
C1545 C337 1.201 . S
C1533 C147 1.211 . S
C1572 C584 1.601 . S
C1560 C316 1.653 . S
C1587 C119 1.654 . S
C1599 C385 1.645 . S
C1614 C288 0.941 . S
C1626 C562 0.931 . S
C1641 C148 1.266 1_545 S
C1653 C422 1.246 . S
C1680 C517 1.738 . S
C1668 C315 1.713 . S
C1695 C120 1.485 . S
C1707 C464 1.433 . S
C1722 C287 1.155 . S
C1734 C597 1.171 . S
C1749 C188 1.502 . S
C1761 C344 1.506 . S
C1776 C177 2.013 . S
C1788 C497 2.039 . S
C1803 C258 1.737 . S
C1815 C444 1.769 . S
C1830 C247 1.391 . S
C1842 C542 1.357 . S
C1869 C604 1.797 . S
C1857 C272 1.763 . S
C1884 C216 1.159 . S
C1896 C392 1.083 1_565 S
C1923 C397 2.111 . S
C1911 C261 2.105 . S
C1950 C362 1.132 . S
C1938 C205 1.179 . S
C1965 C76 1.174 . S
C1977 C632 1.247 . S
C2004 C585 1.311 . S
C1992 C93 1.367 . S
C2019 C105 1.330 . S
C2031 C644 1.381 . S
C2046 C62 1.710 . S
C2058 C575 1.713 . S
C2073 C49 1.430 . S
C2085 C515 1.439 . S
C2112 C532 1.251 . S
C2100 C9 1.258 . S
C2139 C545 1.484 1_655 S
C2127 C22 1.481 . S
C2166 C612 1.382 . S
C2154 C36 1.383 . S
C2193 C625 1.384 . S
C2181 C260 1.366 . S
C2208 C189 1.339 . S
C2220 C595 1.342 . S
C2247 C637 1.591 . S
C2235 C204 1.675 . S
C2274 C572 0.746 . S
C2262 C217 0.648 . S
C2301 C512 1.167 . S
C2289 C259 1.096 . S
C2316 C190 1.802 . S
C2328 C525 1.792 . S
C2355 C555 1.299 . S
C2343 C203 1.284 . S
C2370 C218 1.439 . S
C2382 C605 1.427 . S
C2409 C635 1.576 . S
C2397 C314 1.502 . S
C2424 C135 1.855 . S
C2436 C425 1.817 . S
C2463 C455 1.567 . S
C2451 C146 1.500 . S
C2490 C472 1.318 1_565 S
C2478 C163 1.349 . S
C2517 C615 1.995 . S
C2505 C300 1.913 . S
C2532 C286 1.175 . S
C2544 C642 1.140 . S
C2571 C405 1.854 . S
C2559 C149 1.834 . S
C2598 C372 1.071 . S
C2586 C121 1.120 1_565 S
C2613 C91 1.073 . S
C2625 C622 1.141 . S
C2652 C357 1.260 . S
C2640 C77 1.292 . S
C2667 C64 1.438 . S
C2679 C655 1.381 . S
C2694 C104 1.892 . S
C2706 C404 1.912 . S
C2721 C34 1.683 . S
C2733 C504 1.703 1_556 S
C2760 C442 0.970 . S
C2748 C23 0.958 . S
C2775 C7 1.402 . S
C2787 C537 1.407 . S
C2802 C48 0.945 . S
C2814 C482 0.965 . S
C2841 C617 1.242 . S
C2829 C329 1.199 . S
C2856 C162 1.645 . S
C2868 C364 1.624 . S
C2895 C645 1.634 1_655 S
C2883 C301 1.631 . S
C2910 C134 1.011 . S
C2922 C402 1.000 . S
C2937 C330 1.262 . S
C2949 C502 1.232 . S
C2976 C437 1.720 . S
C2964 C161 1.701 . S
C2991 C302 1.458 . S
C3003 C544 1.450 . S
C3030 C477 1.161 . S
C3018 C133 1.149 . S
C3057 C624 1.747 . S
C3045 C244 1.735 . S
C3084 C417 2.021 1_565 S
C3072 C219 1.989 . S
C3099 C230 1.452 . S
C3111 C524 1.536 . S
C3138 C462 1.311 . S
C3126 C191 1.364 1_554 S
C3153 C202 1.972 . S
C3165 C484 2.015 . S
C3180 C174 1.252 . S
C3192 C652 1.328 . S
C3219 C557 2.101 . S
C3207 C233 2.057 1_565 S
C3246 C582 1.125 . S
C3234 C275 1.174 . S
