# Generated by pormake.
# Topology pth, (4,4)-cn, num edge types: 1
# Building blocks:
#     Node 0, Type 0, BuildingBlock: TATPOV_clean_sbu_0, # of connection points: 4
#     Node 1, Type 0, BuildingBlock: TATPOV_clean_sbu_0, # of connection points: 4
#     Node 2, Type 0, BuildingBlock: TATPOV_clean_sbu_0, # of connection points: 4
#     Node 3, Type 1, BuildingBlock: KOZSID_clean_sbu_0, # of connection points: 4
#     Node 4, Type 1, BuildingBlock: KOZSID_clean_sbu_0, # of connection points: 4
#     Node 5, Type 1, BuildingBlock: KOZSID_clean_sbu_0, # of connection points: 4
#     Edge 6, Type (0, 1), BuildingBlock: FUNLAD_clean_linker_0, # of connection points: 2
#     Edge 7, Type (0, 1), BuildingBlock: FUNLAD_clean_linker_0, # of connection points: 2
#     Edge 8, Type (0, 1), BuildingBlock: FUNLAD_clean_linker_0, # of connection points: 2
#     Edge 9, Type (0, 1), BuildingBlock: FUNLAD_clean_linker_0, # of connection points: 2
#     Edge 10, Type (0, 1), BuildingBlock: FUNLAD_clean_linker_0, # of connection points: 2
#     Edge 11, Type (0, 1), BuildingBlock: FUNLAD_clean_linker_0, # of connection points: 2
#     Edge 12, Type (0, 1), BuildingBlock: FUNLAD_clean_linker_0, # of connection points: 2
#     Edge 13, Type (0, 1), BuildingBlock: FUNLAD_clean_linker_0, # of connection points: 2
#     Edge 14, Type (0, 1), BuildingBlock: FUNLAD_clean_linker_0, # of connection points: 2
#     Edge 15, Type (0, 1), BuildingBlock: FUNLAD_clean_linker_0, # of connection points: 2
#     Edge 16, Type (0, 1), BuildingBlock: FUNLAD_clean_linker_0, # of connection points: 2
#     Edge 17, Type (0, 1), BuildingBlock: FUNLAD_clean_linker_0, # of connection points: 2
# Relax obj value: 0.036
# Max RMSD: 0.164
# Mean RMSD: 0.080
data_MOF--net-pth--node1-TATPOV_clean_sbu_0--node2-KOZSID_clean_sbu_0--edge1-FUNLAD_clean_linker_0
_symmetry_space_group_name_H-M    P1
_symmetry_Int_Tables_number       1
_symmetry_cell_setting            triclinic
loop_
_symmetry_equiv_pos_as_xyz
'x, y, z'
_cell_length_a     30.75039
_cell_length_b     30.433645
_cell_length_c     67.798286
_cell_angle_alpha  90.102971
_cell_angle_beta   89.815724
_cell_angle_gamma 121.10592
loop_
_atom_site_label
_atom_site_type_symbol
_atom_site_fract_x
_atom_site_fract_y
_atom_site_fract_z
_atom_type_partial_charge
Zn0 Zn 0.15865 0.03565 0.01594 0.0
Zn1 Zn 0.12318 0.08462 0.03663 0.0
O2 O 0.13546 0.04282 0.05761 0.0
O3 O 0.17161 0.00834 0.0407 0.0
O4 O 0.10323 0.12736 0.05266 0.0
O5 O 0.21344 0.10046 0.00347 0.0
O6 O 0.1849 0.14111 0.02104 0.0
C7 C 0.15558 0.01521 0.05694 0.0
C8 C 0.05419 0.004 0.00683 0.0
O9 O 0.06105 0.03836 0.01933 0.0
O10 O 0.08968 0.99561 0.00309 0.0
C11 C 0.06488 0.10956 0.06405 0.0
O12 O 0.03472 0.05962 0.0657 0.0
C13 C 0.21623 0.1419 0.00846 0.0
Zn14 Zn 0.18815 0.18622 0.34901 0.0
Zn15 Zn 0.0986 0.13604 0.36773 0.0
O16 O 0.15211 0.15207 0.3892 0.0
O17 O 0.22614 0.19931 0.37457 0.0
O18 O 0.03415 0.10846 0.38351 0.0
O19 O 0.17327 0.23809 0.33777 0.0
O20 O 0.09949 0.1955 0.35288 0.0
C21 C 0.20048 0.17766 0.38993 0.0
C22 C 0.12071 0.07879 0.3369 0.0
O23 O 0.08938 0.07836 0.34937 0.0
O24 O 0.16384 0.11911 0.33444 0.0
C25 C 0.99305 0.09944 0.37546 0.0
O26 O 0.99178 0.10395 0.35623 0.0
C27 C 0.13031 0.23216 0.34171 0.0
Zn28 Zn 0.12577 0.95729 0.71715 0.0
Zn29 Zn 0.08024 0.99445 0.69452 0.0
O30 O 0.12352 0.98103 0.67466 0.0
O31 O 0.15701 0.9464 0.693 0.0
O32 O 0.0379 0.01392 0.67814 0.0
O33 O 0.05941 0.90032 0.72792 0.0
O34 O 0.0237 0.93383 0.71033 0.0
C35 C 0.15155 0.96167 0.67635 0.0
C36 C 0.15535 0.06354 0.7255 0.0
O37 O 0.12447 0.05713 0.71175 0.0
O38 O 0.16195 0.0272 0.73042 0.0
C39 C 0.04199 0.02316 0.65972 0.0
O40 O 0.07849 0.02293 0.64969 0.0
C41 C 0.02008 0.90042 0.7226 0.0
C42 C 0.09004 0.65538 0.1748 0.0
C43 C 0.13997 0.69229 0.17023 0.0
C44 C 0.17015 0.68223 0.18167 0.0
C45 C 0.13721 0.64019 0.19261 0.0
N46 N 0.08766 0.62206 0.18861 0.0
Co47 Co 0.02696 0.56393 0.2021 0.0
N48 N 0.07141 0.55489 0.2212 0.0
C49 C 0.12278 0.58221 0.22199 0.0
C50 C 0.14255 0.56763 0.23692 0.0
C51 C 0.10142 0.52839 0.24617 0.0
C52 C 0.05875 0.52116 0.23622 0.0
N53 N 0.96628 0.50576 0.21559 0.0
C54 C 0.96374 0.47603 0.23094 0.0
C55 C 0.91396 0.43904 0.23553 0.0
C56 C 0.88386 0.44541 0.22252 0.0
C57 C 0.91686 0.48572 0.21079 0.0
N58 N 0.9827 0.5737 0.18316 0.0
C59 C 0.93147 0.54531 0.18185 0.0
C60 C 0.91175 0.56307 0.16804 0.0
C61 C 0.95273 0.606 0.16036 0.0
C62 C 0.99516 0.61197 0.17002 0.0
N63 N 0.02961 0.5141 0.18375 0.0
C64 C 0.03364 0.44271 0.15827 0.0
C65 C 0.98773 0.44004 0.1622 0.0
C66 C 0.98662 0.47589 0.1748 0.0
C67 C 0.07743 0.48167 0.16731 0.0
C68 C 0.07456 0.51647 0.17988 0.0
N69 N 0.0243 0.61351 0.22029 0.0
C70 C 0.9775 0.64807 0.23594 0.0
C71 C 0.02243 0.68958 0.24324 0.0
C72 C 0.06793 0.69124 0.23956 0.0
C73 C 0.06798 0.65302 0.22825 0.0
C74 C 0.9793 0.61072 0.22453 0.0
H75 H 0.10394 0.65675 0.22585 0.0
H76 H 0.94401 0.58054 0.21895 0.0
H77 H 0.95048 0.47172 0.17706 0.0
H78 H 0.10931 0.54466 0.18636 0.0
C79 C 0.15151 0.62089 0.20834 0.0
C80 C 0.04621 0.65574 0.16683 0.0
C81 C 0.00732 0.48039 0.24118 0.0
C82 C 0.90273 0.50526 0.19505 0.0
H83 H 0.15347 0.72449 0.16027 0.0
H84 H 0.21117 0.70457 0.18264 0.0
H85 H 0.18216 0.58337 0.24054 0.0
H86 H 0.10271 0.50705 0.25868 0.0
H87 H 0.90087 0.41015 0.24697 0.0
H88 H 0.84284 0.42303 0.22161 0.0
H89 H 0.87215 0.54783 0.16455 0.0
H90 H 0.95148 0.63095 0.14931 0.0
H91 H 0.95279 0.41081 0.15538 0.0
H92 H 0.11386 0.48495 0.16497 0.0
H93 H 0.94134 0.64526 0.23847 0.0
H94 H 0.10358 0.72218 0.24529 0.0
C95 C 0.50526 0.01273 0.55929 0.0
C96 C 0.46895 0.96333 0.56516 0.0
C97 C 0.47384 0.93053 0.55293 0.0
C98 C 0.51256 0.96152 0.54031 0.0
N99 N 0.53346 0.01221 0.54401 0.0
Co100 Co 0.58902 0.07077 0.52869 0.0
N101 N 0.58984 0.02277 0.50864 0.0
C102 C 0.55843 0.97127 0.50779 0.0
C103 C 0.56835 0.94876 0.49228 0.0
C104 C 0.60908 0.98814 0.48285 0.0
C105 C 0.62179 0.03246 0.49329 0.0
N106 N 0.64588 0.12922 0.51371 0.0
C107 C 0.67384 0.12839 0.49835 0.0
C108 C 0.71274 0.17739 0.49334 0.0
C109 C 0.70971 0.21036 0.50615 0.0
C110 C 0.6695 0.17974 0.51827 0.0
N111 N 0.58671 0.11884 0.54836 0.0
C112 C 0.61621 0.17064 0.54865 0.0
C113 C 0.60276 0.19332 0.56297 0.0
C114 C 0.56132 0.15375 0.57204 0.0
C115 C 0.55196 0.10915 0.56266 0.0
N116 N 0.64053 0.06589 0.54464 0.0
C117 C 0.71856 0.06132 0.56451 0.0
C118 C 0.71881 0.10721 0.56324 0.0
C119 C 0.67969 0.10856 0.55345 0.0
C120 C 0.67774 0.01733 0.55618 0.0
C121 C 0.63946 0.02046 0.54638 0.0
N122 N 0.53765 0.07588 0.51284 0.0
C123 C 0.50733 0.12797 0.49871 0.0
C124 C 0.46027 0.08451 0.49445 0.0
C125 C 0.4534 0.03643 0.49882 0.0
C126 C 0.49241 0.03301 0.50781 0.0
C127 C 0.54506 0.12284 0.5078 0.0
H128 H 0.48469 0.99532 0.51093 0.0
H129 H 0.5796 0.15759 0.51088 0.0
H130 H 0.68242 0.14479 0.55301 0.0
H131 H 0.60987 0.98578 0.54005 0.0
C132 C 0.52435 0.94464 0.52307 0.0
C133 C 0.50818 0.05879 0.56718 0.0
C134 C 0.66687 0.08199 0.489 0.0
C135 C 0.65411 0.19695 0.53447 0.0
H136 H 0.44012 0.95192 0.57643 0.0
H137 H 0.44981 0.88914 0.55247 0.0
H138 H 0.54974 0.90829 0.4888 0.0
H139 H 0.6285 0.98451 0.47017 0.0
H140 H 0.74123 0.18814 0.48196 0.0
H141 H 0.73477 0.25158 0.50691 0.0
H142 H 0.61986 0.23389 0.56597 0.0
H143 H 0.53951 0.1573 0.58383 0.0
H144 H 0.74909 0.14211 0.56983 0.0
H145 H 0.67593 0.98085 0.55674 0.0
H146 H 0.51521 0.16606 0.49508 0.0
H147 H 0.41769 0.0015 0.49579 0.0
C148 C 0.65617 0.61034 0.83978 0.0
C149 C 0.68866 0.59466 0.8329 0.0
C150 C 0.67024 0.54593 0.83985 0.0
C151 C 0.62804 0.53476 0.85071 0.0
N152 N 0.61908 0.57364 0.85121 0.0
Co153 Co 0.56295 0.57403 0.86559 0.0
N154 N 0.5511 0.51544 0.88234 0.0
C155 C 0.56683 0.48243 0.8784 0.0
C156 C 0.55252 0.44528 0.89256 0.0
C157 C 0.52571 0.45523 0.90616 0.0
C158 C 0.52515 0.49814 0.8995 0.0
N159 N 0.50664 0.57416 0.87991 0.0
C160 C 0.48416 0.55178 0.89725 0.0
C161 C 0.44578 0.56135 0.90189 0.0
C162 C 0.4438 0.59002 0.88674 0.0
C163 C 0.48104 0.59653 0.87378 0.0
N164 N 0.57468 0.63243 0.84874 0.0
C165 C 0.54169 0.64831 0.84578 0.0
C166 C 0.55984 0.68902 0.833 0.0
C167 C 0.60704 0.69909 0.82746 0.0
C168 C 0.61508 0.66386 0.83727 0.0
N169 N 0.51461 0.52604 0.84629 0.0
C170 C 0.44861 0.45335 0.81896 0.0
C171 C 0.49405 0.49664 0.81277 0.0
C172 C 0.52636 0.53256 0.82664 0.0
C173 C 0.43615 0.44808 0.83905 0.0
C174 C 0.46961 0.48475 0.85244 0.0
N175 N 0.61123 0.62178 0.88486 0.0
C176 C 0.64362 0.69811 0.90462 0.0
C177 C 0.68027 0.68936 0.91281 0.0
C178 C 0.68166 0.64616 0.9066 0.0
C179 C 0.64692 0.61297 0.89267 0.0
C180 C 0.60945 0.66385 0.89069 0.0
H181 H 0.64905 0.58017 0.8882 0.0
H182 H 0.58151 0.67133 0.88468 0.0
H183 H 0.56136 0.5651 0.82144 0.0
H184 H 0.4595 0.47894 0.86785 0.0
C185 C 0.60145 0.49241 0.86316 0.0
C186 C 0.65905 0.65817 0.83385 0.0
C187 C 0.49488 0.51747 0.90864 0.0
C188 C 0.49799 0.62935 0.85744 0.0
H189 H 0.722 0.61592 0.8237 0.0
H190 H 0.6868 0.52232 0.83784 0.0
H191 H 0.56175 0.41548 0.89324 0.0
H192 H 0.50788 0.43286 0.9193 0.0
H193 H 0.42135 0.54839 0.91475 0.0
H194 H 0.41918 0.60553 0.88564 0.0
H195 H 0.54162 0.70986 0.82865 0.0
H196 H 0.63231 0.7285 0.81718 0.0
H197 H 0.50483 0.5025 0.79734 0.0
H198 H 0.40167 0.41492 0.84452 0.0
H199 H 0.64094 0.73083 0.90907 0.0
H200 H 0.70992 0.63834 0.91221 0.0
C201 C 0.08906 0.19843 0.07436 0.0
C202 C 0.05531 0.14513 0.07563 0.0
C203 C 0.081 0.23223 0.08553 0.0
C204 C 0.03858 0.21358 0.09814 0.0
C205 C 0.00501 0.16028 0.09946 0.0
C206 C 0.01313 0.1264 0.08829 0.0
C207 C 0.02945 0.24818 0.11078 0.0
C208 C 0.04927 0.29854 0.10697 0.0
C209 C 0.04323 0.33423 0.12015 0.0
C210 C 0.07933 0.38692 0.11893 0.0
C211 C 0.07604 0.42201 0.1312 0.0
C212 C 0.03614 0.40532 0.14488 0.0
H213 H 0.97315 0.27749 0.13463 0.0
C214 C 0.99919 0.35273 0.14581 0.0
C215 C 0.00264 0.3175 0.13359 0.0
H216 H 0.968 0.33866 0.15621 0.0
H217 H 0.12225 0.2142 0.06491 0.0
H218 H 0.10896 0.27274 0.08451 0.0
H219 H 0.97232 0.14472 0.10918 0.0
H220 H 0.98648 0.08556 0.08968 0.0
H221 H 0.00584 0.23121 0.12375 0.0
H222 H 0.07258 0.31536 0.09393 0.0
H223 H 0.11069 0.40102 0.10859 0.0
H224 H 0.10465 0.46235 0.12987 0.0
C225 C 0.95429 0.09572 0.40842 0.0
C226 C 0.94943 0.09058 0.38782 0.0
C227 C 0.91514 0.09265 0.42 0.0
C228 C 0.8697 0.0836 0.41126 0.0
C229 C 0.86452 0.07724 0.39069 0.0
C230 C 0.90386 0.08069 0.3791 0.0
C231 C 0.82803 0.0832 0.42275 0.0
C232 C 0.82429 0.0802 0.44259 0.0
C233 C 0.78354 0.08152 0.45401 0.0
C234 C 0.77375 0.06246 0.4734 0.0
C235 C 0.73627 0.0633 0.48479 0.0
C236 C 0.70816 0.08367 0.47707 0.0
H237 H 0.7629 0.11925 0.43181 0.0
C238 C 0.718 0.10335 0.45784 0.0
C239 C 0.7556 0.10263 0.44641 0.0
H240 H 0.6965 0.11914 0.45168 0.0
H241 H 0.98909 0.10382 0.41561 0.0
H242 H 0.92179 0.09908 0.43566 0.0
H243 H 0.83015 0.07041 0.38349 0.0
H244 H 0.89888 0.07662 0.36326 0.0
H245 H 0.7988 0.08451 0.41431 0.0
H246 H 0.85094 0.07467 0.45105 0.0
H247 H 0.79488 0.04644 0.47972 0.0
H248 H 0.72898 0.04781 0.49962 0.0
C249 C 0.93297 0.87705 0.7336 0.0
C250 C 0.97074 0.86432 0.73189 0.0
C251 C 0.88869 0.84573 0.74442 0.0
C252 C 0.88111 0.80072 0.75342 0.0
C253 C 0.91761 0.78667 0.75084 0.0
C254 C 0.96236 0.81852 0.74041 0.0
C255 C 0.83583 0.76793 0.76573 0.0
C256 C 0.81579 0.78755 0.77809 0.0
C257 C 0.77388 0.75485 0.79189 0.0
C258 C 0.77294 0.77366 0.81073 0.0
C259 C 0.73542 0.74238 0.8244 0.0
C260 C 0.69804 0.69217 0.81928 0.0
H261 H 0.73385 0.69013 0.77196 0.0
C262 C 0.69733 0.67423 0.80014 0.0
C263 C 0.73512 0.70513 0.78658 0.0
H264 H 0.66786 0.63596 0.79579 0.0
H265 H 0.93842 0.91213 0.72718 0.0
H266 H 0.86057 0.85685 0.74579 0.0
H267 H 0.91229 0.75186 0.75748 0.0
H268 H 0.99068 0.80761 0.73922 0.0
H269 H 0.82178 0.72702 0.76602 0.0
H270 H 0.83345 0.82892 0.77938 0.0
H271 H 0.80205 0.8121 0.81504 0.0
H272 H 0.73592 0.75705 0.83902 0.0
C273 C 0.11998 0.97408 0.08978 0.0
C274 C 0.15491 0.98566 0.07435 0.0
C275 C 0.11252 0.93768 0.10412 0.0
C276 C 0.14014 0.91245 0.10326 0.0
C277 C 0.17781 0.9273 0.08873 0.0
C278 C 0.18493 0.9632 0.07439 0.0
C279 C 0.12942 0.86847 0.11618 0.0
C280 C 0.0865 0.84052 0.12675 0.0
C281 C 0.07483 0.79217 0.13666 0.0
C282 C 0.04948 0.77892 0.1549 0.0
C283 C 0.03934 0.734 0.16459 0.0
C284 C 0.05365 0.70137 0.15596 0.0
H285 H 0.10515 0.7664 0.11335 0.0
C286 C 0.07658 0.71316 0.1373 0.0
C287 C 0.08735 0.75829 0.12776 0.0
H288 H 0.08704 0.68787 0.1303 0.0
H289 H 0.09648 0.99102 0.0902 0.0
H290 H 0.08427 0.92874 0.11542 0.0
H291 H 0.20023 0.90919 0.08785 0.0
H292 H 0.2126 0.97175 0.06283 0.0
H293 H 0.15689 0.85613 0.11581 0.0
H294 H 0.05877 0.85221 0.12809 0.0
H295 H 0.03866 0.80395 0.16187 0.0
H296 H 0.02118 0.72513 0.17895 0.0
C297 C 0.20276 0.13673 0.42158 0.0
C298 C 0.22711 0.17716 0.40795 0.0
C299 C 0.23053 0.13108 0.43661 0.0
C300 C 0.28298 0.16618 0.4384 0.0
C301 C 0.30635 0.20871 0.42574 0.0
C302 C 0.27886 0.21386 0.41051 0.0
C303 C 0.31492 0.15809 0.45249 0.0
C304 C 0.3072 0.1111 0.45623 0.0
C305 C 0.34433 0.1032 0.46718 0.0
C306 C 0.34976 0.06155 0.46209 0.0
C307 C 0.38691 0.05501 0.47106 0.0
C308 C 0.419 0.08969 0.48553 0.0
H309 H 0.37079 0.16837 0.4869 0.0
C310 C 0.41197 0.13011 0.49122 0.0
C311 C 0.37511 0.13686 0.48214 0.0
H312 H 0.43497 0.15664 0.50274 0.0
H313 H 0.16288 0.10793 0.42001 0.0
H314 H 0.2112 0.09863 0.44652 0.0
H315 H 0.34661 0.23658 0.42698 0.0
H316 H 0.29854 0.24566 0.40033 0.0
H317 H 0.34926 0.19191 0.45776 0.0
H318 H 0.2757 0.07779 0.44918 0.0
H319 H 0.32629 0.03489 0.45068 0.0
H320 H 0.39136 0.02362 0.46623 0.0
C321 C 0.22388 0.12254 0.74866 0.0
C322 C 0.18483 0.11372 0.73557 0.0
C323 C 0.25283 0.16996 0.75791 0.0
C324 C 0.24349 0.20982 0.75428 0.0
C325 C 0.2037 0.20077 0.7416 0.0
C326 C 0.17488 0.15328 0.73217 0.0
C327 C 0.27374 0.26029 0.76418 0.0
C328 C 0.32313 0.28026 0.76857 0.0
C329 C 0.35394 0.32798 0.78013 0.0
C330 C 0.40705 0.35327 0.77875 0.0
C331 C 0.43773 0.39512 0.79087 0.0
C332 C 0.41589 0.41229 0.8048 0.0
H333 H 0.29122 0.32688 0.79553 0.0
C334 C 0.36271 0.38778 0.8059 0.0
C335 C 0.33197 0.34602 0.79369 0.0
H336 H 0.34484 0.40035 0.81646 0.0
H337 H 0.23238 0.09286 0.75175 0.0
H338 H 0.28204 0.17498 0.76814 0.0
H339 H 0.19535 0.23069 0.73879 0.0
H340 H 0.14482 0.14756 0.72226 0.0
H341 H 0.25517 0.28163 0.76745 0.0
H342 H 0.34232 0.2608 0.76338 0.0
H343 H 0.42495 0.33987 0.76857 0.0
H344 H 0.47857 0.41273 0.78986 0.0
C345 C 0.00575 0.03806 0.62904 0.0
C346 C 0.00323 0.0299 0.64952 0.0
C347 C 0.96729 0.04108 0.61931 0.0
C348 C 0.92552 0.0362 0.6299 0.0
C349 C 0.92338 0.02854 0.65037 0.0
C350 C 0.96183 0.02569 0.66009 0.0
C351 C 0.88226 0.03621 0.62012 0.0
C352 C 0.88573 0.05824 0.60251 0.0
C353 C 0.84205 0.05798 0.59302 0.0
C354 C 0.85161 0.09777 0.57997 0.0
C355 C 0.81157 0.09888 0.57079 0.0
C356 C 0.76098 0.05976 0.57423 0.0
H357 H 0.78255 0.98622 0.60575 0.0
C358 C 0.75137 0.01931 0.58697 0.0
C359 C 0.79143 0.01838 0.59627 0.0
H360 H 0.71281 0.98861 0.58991 0.0
H361 H 0.03693 0.04112 0.62043 0.0
H362 H 0.96982 0.04568 0.60346 0.0
H363 H 0.8916 0.02439 0.6589 0.0
H364 H 0.95853 0.01924 0.67588 0.0
H365 H 0.84669 0.01914 0.62825 0.0
H366 H 0.92233 0.07966 0.59517 0.0
H367 H 0.89021 0.12839 0.577 0.0
H368 H 0.82028 0.13012 0.56079 0.0
C369 C 0.99583 0.92993 0.98551 0.0
C370 C 0.00464 0.97244 0.99687 0.0
C371 C 0.94932 0.89911 0.97624 0.0
C372 C 0.91023 0.90989 0.97808 0.0
C373 C 0.91918 0.95298 0.98904 0.0
C374 C 0.96584 0.98376 0.99854 0.0
C375 C 0.86093 0.8776 0.96792 0.0
C376 C 0.84083 0.82674 0.96553 0.0
C377 C 0.79552 0.79323 0.95332 0.0
C378 C 0.77065 0.73998 0.95616 0.0
C379 C 0.73203 0.70641 0.94346 0.0
C380 C 0.71766 0.72533 0.92743 0.0
H381 H 0.79893 0.85312 0.93473 0.0
C382 C 0.74129 0.77873 0.92495 0.0
C383 C 0.77992 0.81241 0.93773 0.0
H384 H 0.73152 0.79451 0.9126 0.0
H385 H 0.02489 0.92017 0.98378 0.0
H386 H 0.94444 0.86728 0.96734 0.0
H387 H 0.88985 0.96245 0.99044 0.0
H388 H 0.97157 0.01642 0.00709 0.0
H389 H 0.841 0.896 0.96256 0.0
H390 H 0.85891 0.80842 0.97274 0.0
H391 H 0.78193 0.72415 0.96802 0.0
H392 H 0.71398 0.66551 0.946 0.0
C393 C 0.06055 0.98666 0.32726 0.0
C394 C 0.10788 0.03236 0.3253 0.0
C395 C 0.04967 0.94292 0.31638 0.0
C396 C 0.08608 0.94425 0.30331 0.0
C397 C 0.13316 0.98999 0.30143 0.0
C398 C 0.1439 0.03344 0.31219 0.0
C399 C 0.07802 0.8993 0.29162 0.0
C400 C 0.03283 0.85617 0.28843 0.0
C401 C 0.0284 0.81375 0.27601 0.0
C402 C 0.99037 0.76285 0.28011 0.0
C403 C 0.98754 0.72223 0.26926 0.0
C404 C 0.02267 0.732 0.25409 0.0
H405 H 0.08997 0.8622 0.25583 0.0
C406 C 0.05913 0.78302 0.24941 0.0
C407 C 0.06177 0.82343 0.26012 0.0
H408 H 0.08568 0.79173 0.23739 0.0
H409 H 0.03205 0.98453 0.3373 0.0
H410 H 0.01322 0.90831 0.31857 0.0
H411 H 0.16201 0.99224 0.29153 0.0
H412 H 0.1808 0.06787 0.31028 0.0
H413 H 0.11185 0.90248 0.28509 0.0
H414 H 0.99855 0.85085 0.29531 0.0
H415 H 0.96372 0.75441 0.29207 0.0
H416 H 0.95886 0.6832 0.2731 0.0
C417 C 0.1952 0.99641 0.6438 0.0
C418 C 0.1828 0.96212 0.65962 0.0
C419 C 0.23242 0.00342 0.63005 0.0
C420 C 0.25767 0.97595 0.63188 0.0
C421 C 0.24237 0.93908 0.64688 0.0
C422 C 0.20566 0.93243 0.66063 0.0
C423 C 0.30165 0.98564 0.61938 0.0
C424 C 0.32921 0.02756 0.60806 0.0
C425 C 0.37655 0.03764 0.59807 0.0
C426 C 0.389 0.06081 0.57938 0.0
C427 C 0.43252 0.06875 0.56949 0.0
C428 C 0.46456 0.05441 0.57833 0.0
H429 H 0.40254 0.00927 0.62192 0.0
C430 C 0.45373 0.03388 0.59742 0.0
C431 C 0.41 0.02534 0.6072 0.0
H432 H 0.47857 0.02342 0.60457 0.0
H433 H 0.17805 0.01969 0.64258 0.0
H434 H 0.2418 0.03109 0.61838 0.0
H435 H 0.2605 0.91681 0.64853 0.0
H436 H 0.19657 0.90527 0.67253 0.0
H437 H 0.31386 0.95798 0.6205 0.0
H438 H 0.31756 0.0553 0.60596 0.0
H439 H 0.36431 0.07142 0.5722 0.0
H440 H 0.44063 0.08504 0.55479 0.0
C441 C 0.25835 0.23743 0.00365 0.0
C442 C 0.25334 0.19025 0.99842 0.0
C443 C 0.29005 0.28186 0.99271 0.0
C444 C 0.31698 0.27964 0.97629 0.0
C445 C 0.31291 0.23285 0.97146 0.0
C446 C 0.28186 0.18882 0.98246 0.0
C447 C 0.34626 0.32371 0.96282 0.0
C448 C 0.3689 0.37332 0.96821 0.0
C449 C 0.39831 0.41461 0.95364 0.0
C450 C 0.44589 0.4569 0.95873 0.0
C451 C 0.47677 0.49234 0.94428 0.0
C452 C 0.45976 0.48637 0.92474 0.0
H453 H 0.34343 0.37885 0.93001 0.0
C454 C 0.411 0.44593 0.91993 0.0
C455 C 0.38046 0.41043 0.93425 0.0
H456 H 0.3975 0.44058 0.90486 0.0
H457 H 0.23681 0.23979 0.01584 0.0
H458 H 0.29169 0.31717 0.99662 0.0
H459 H 0.33317 0.2301 0.95887 0.0
H460 H 0.27902 0.15324 0.97799 0.0
H461 H 0.35112 0.31461 0.94775 0.0
H462 H 0.36925 0.38365 0.98358 0.0
H463 H 0.46024 0.46098 0.97361 0.0
H464 H 0.51457 0.52311 0.94816 0.0
C465 C 0.06431 0.25449 0.33365 0.0
C466 C 0.11431 0.26476 0.33176 0.0
C467 C 0.04767 0.28122 0.32221 0.0
C468 C 0.0809 0.31885 0.30872 0.0
C469 C 0.13124 0.33027 0.30742 0.0
C470 C 0.14785 0.30377 0.31884 0.0
C471 C 0.06414 0.34442 0.29467 0.0
C472 C 0.02302 0.34873 0.29711 0.0
C473 C 0.0104 0.37626 0.28235 0.0
C474 C 0.99509 0.41022 0.28863 0.0
C475 C 0.99079 0.44228 0.27501 0.0
C476 C 0.00085 0.43985 0.25498 0.0
H477 H 0.02718 0.34454 0.25674 0.0
C478 C 0.01224 0.40321 0.24849 0.0
C479 C 0.01683 0.3715 0.26206 0.0
H480 H 0.02009 0.40098 0.23305 0.0
H481 H 0.03744 0.22449 0.34341 0.0
H482 H 0.00836 0.27072 0.32341 0.0
H483 H 0.15765 0.3591 0.29717 0.0
H484 H 0.18664 0.31281 0.31704 0.0
H485 H 0.08823 0.36226 0.28183 0.0
H486 H 0.00104 0.33599 0.31066 0.0
H487 H 0.98946 0.41412 0.30417 0.0
H488 H 0.98221 0.47066 0.28019 0.0
loop_
_geom_bond_atom_site_label_1
_geom_bond_atom_site_label_2
_geom_bond_distance
_geom_bond_site_symmetry_2
_ccdc_geom_bond_type
Zn0 O3 2.031 1_545 S
Zn0 O5 2.049 1_554 S
Zn0 O10 2.067 . S
Zn1 O2 1.962 . S
Zn1 O4 1.986 . S
Zn1 O6 1.996 . S
Zn1 O9 1.943 . S
O2 Zn1 1.962 . S
O2 C7 1.254 . S
O3 Zn0 2.031 1_565 S
O3 C7 1.269 1_565 S
O4 Zn1 1.986 . S
O4 C11 1.262 . S
O5 Zn0 2.049 1_556 S
O5 C13 1.260 1_556 S
O6 Zn1 1.996 . S
O6 C13 1.257 . S
C7 O2 1.254 . S
C7 O3 1.269 1_545 S
C8 O9 1.249 . S
C8 O10 1.270 . S
O9 Zn1 1.943 . S
O9 C8 1.249 . S
O10 Zn0 2.067 . S
O10 C8 1.270 . S
C11 O4 1.262 . S
C11 O12 1.232 . S
O12 C11 1.232 . S
C13 O5 1.260 1_554 S
C13 O6 1.257 . S
Zn14 O17 2.031 . S
Zn14 O19 2.049 . S
Zn14 O24 2.067 . S
Zn15 O16 1.962 . S
Zn15 O18 1.986 1_455 S
Zn15 O20 1.996 . S
Zn15 O23 1.943 . S
O16 Zn15 1.962 . S
O16 C21 1.254 . S
O17 Zn14 2.031 . S
O17 C21 1.269 . S
O18 Zn15 1.986 1_655 S
O18 C25 1.262 . S
O19 Zn14 2.049 . S
O19 C27 1.260 . S
O20 Zn15 1.996 . S
O20 C27 1.257 . S
C21 O16 1.254 . S
C21 O17 1.269 . S
C22 O23 1.249 . S
C22 O24 1.270 . S
O23 Zn15 1.943 . S
O23 C22 1.249 . S
O24 Zn14 2.067 . S
O24 C22 1.270 . S
C25 O18 1.262 . S
C25 O26 1.232 . S
O26 C25 1.232 . S
C27 O19 1.260 . S
C27 O20 1.257 . S
Zn28 O31 2.031 1_565 S
Zn28 O33 2.049 . S
Zn28 O38 2.067 1_565 S
Zn29 O30 1.962 . S
Zn29 O32 1.986 1_455 S
Zn29 O34 1.996 1_545 S
Zn29 O37 1.943 . S
O30 Zn29 1.962 . S
O30 C35 1.254 . S
O31 Zn28 2.031 1_545 S
O31 C35 1.269 . S
O32 Zn29 1.986 1_655 S
O32 C39 1.262 . S
O33 Zn28 2.049 . S
O33 C41 1.260 . S
O34 Zn29 1.996 1_565 S
O34 C41 1.257 . S
C35 O30 1.254 . S
C35 O31 1.269 . S
C36 O37 1.249 . S
C36 O38 1.270 . S
O37 Zn29 1.943 . S
O37 C36 1.249 . S
O38 Zn28 2.067 1_545 S
O38 C36 1.270 . S
C39 O32 1.262 . S
C39 O40 1.229 1_655 S
O40 C39 1.229 1_455 S
C41 O33 1.260 . S
C41 O34 1.257 . S
C42 C43 1.443 . S
C42 N46 1.376 . S
C42 C80 1.389 . S
C43 C42 1.443 . S
C43 C44 1.340 . S
C43 H83 0.951 . S
C44 C43 1.340 . S
C44 C45 1.439 . S
C44 H84 0.950 . S
C45 C44 1.439 . S
C45 N46 1.374 . S
C45 C79 1.395 . S
N46 C42 1.376 . S
N46 C45 1.374 . S
N46 Co47 2.008 . S
Co47 N46 2.008 . S
Co47 N48 1.995 . S
Co47 N53 2.008 . S
Co47 N58 1.995 . S
Co47 N63 2.282 . S
Co47 N69 2.282 . S
N48 Co47 1.995 . S
N48 C49 1.376 . S
N48 C52 1.383 . S
C49 N48 1.376 . S
C49 C50 1.446 . S
C49 C79 1.391 . S
C50 C49 1.446 . S
C50 C51 1.339 . S
C50 H85 0.949 . S
C51 C50 1.339 . S
C51 C52 1.439 . S
C51 H86 0.950 . S
C52 N48 1.383 . S
C52 C51 1.439 . S
C52 C81 1.392 . S
N53 Co47 2.008 . S
N53 C54 1.376 . S
N53 C57 1.374 1_455 S
C54 N53 1.376 . S
C54 C55 1.443 1_455 S
C54 C81 1.389 . S
C55 C54 1.443 1_655 S
C55 C56 1.340 . S
C55 H87 0.951 . S
C56 C55 1.340 . S
C56 C57 1.439 . S
C56 H88 0.950 . S
C57 N53 1.374 1_655 S
C57 C56 1.439 . S
C57 C82 1.395 . S
N58 Co47 1.995 . S
N58 C59 1.376 1_455 S
N58 C62 1.383 . S
C59 N58 1.376 1_655 S
C59 C60 1.446 . S
C59 C82 1.391 . S
C60 C59 1.446 . S
C60 C61 1.339 . S
C60 H89 0.949 . S
C61 C60 1.339 . S
C61 C62 1.439 1_655 S
C61 H90 0.950 . S
C62 N58 1.383 . S
C62 C61 1.439 1_455 S
C62 C80 1.392 . S
N63 Co47 2.282 . S
N63 C66 1.332 . S
N63 C68 1.332 . S
C64 C65 1.386 . S
C64 C67 1.388 . S
C65 C64 1.386 . S
C65 C66 1.382 . S
C65 H91 0.950 1_455 S
C66 N63 1.332 . S
C66 C65 1.382 . S
C66 H77 0.952 1_455 S
C67 C64 1.388 . S
C67 C68 1.382 . S
C67 H92 0.950 . S
C68 N63 1.332 . S
C68 C67 1.382 . S
C68 H78 0.948 . S
N69 Co47 2.282 . S
N69 C73 1.332 . S
N69 C74 1.332 . S
C70 C71 1.388 . S
C70 C74 1.382 . S
C70 H93 0.950 1_455 S
C71 C70 1.388 . S
C71 C72 1.386 . S
C72 C71 1.386 . S
C72 C73 1.382 . S
C72 H94 0.950 . S
C73 N69 1.332 . S
C73 C72 1.382 . S
C73 H75 0.952 . S
C74 N69 1.332 . S
C74 C70 1.382 . S
C74 H76 0.948 1_455 S
H75 C73 0.952 . S
H76 C74 0.948 1_655 S
H77 C66 0.952 1_655 S
H78 C68 0.948 . S
C79 C45 1.395 . S
C79 C49 1.391 . S
C80 C42 1.389 . S
C80 C62 1.392 . S
C81 C52 1.392 . S
C81 C54 1.389 . S
C82 C57 1.395 . S
C82 C59 1.391 . S
H83 C43 0.951 . S
H84 C44 0.950 . S
H85 C50 0.949 . S
H86 C51 0.950 . S
H87 C55 0.951 . S
H88 C56 0.950 . S
H89 C60 0.949 . S
H90 C61 0.950 . S
H91 C65 0.950 1_655 S
H92 C67 0.950 . S
H93 C70 0.950 1_655 S
H94 C72 0.950 . S
C95 C96 1.443 1_545 S
C95 N99 1.376 . S
C95 C133 1.389 . S
C96 C95 1.443 1_565 S
C96 C97 1.340 . S
C96 H136 0.951 . S
C97 C96 1.340 . S
C97 C98 1.439 . S
C97 H137 0.950 . S
C98 C97 1.439 . S
C98 N99 1.374 1_565 S
C98 C132 1.395 . S
N99 C95 1.376 . S
N99 C98 1.374 1_545 S
N99 Co100 2.008 . S
Co100 N99 2.008 . S
Co100 N101 1.995 . S
Co100 N106 2.008 . S
Co100 N111 1.995 . S
Co100 N116 2.282 . S
Co100 N122 2.282 . S
N101 Co100 1.995 . S
N101 C102 1.376 1_545 S
N101 C105 1.383 . S
C102 N101 1.376 1_565 S
C102 C103 1.446 . S
C102 C132 1.391 . S
C103 C102 1.446 . S
C103 C104 1.332 1_565 S
C103 H138 0.949 . S
C104 C103 1.332 1_545 S
C104 C105 1.457 . S
C104 H139 0.940 1_545 S
C105 N101 1.383 . S
C105 C104 1.457 . S
C105 C134 1.392 . S
N106 Co100 2.008 . S
N106 C107 1.376 . S
N106 C110 1.374 . S
C107 N106 1.376 . S
C107 C108 1.443 . S
C107 C134 1.389 . S
C108 C107 1.443 . S
C108 C109 1.340 . S
C108 H140 0.951 . S
C109 C108 1.340 . S
C109 C110 1.439 . S
C109 H141 0.950 . S
C110 N106 1.374 . S
C110 C109 1.439 . S
C110 C135 1.395 . S
N111 Co100 1.995 . S
N111 C112 1.376 . S
N111 C115 1.383 . S
C112 N111 1.376 . S
C112 C113 1.446 . S
C112 C135 1.391 . S
C113 C112 1.446 . S
C113 C114 1.339 . S
C113 H142 0.949 . S
C114 C113 1.339 . S
C114 C115 1.439 . S
C114 H143 0.950 . S
C115 N111 1.383 . S
C115 C114 1.439 . S
C115 C133 1.392 . S
N116 Co100 2.282 . S
N116 C119 1.332 . S
N116 C121 1.332 . S
C117 C118 1.386 . S
C117 C120 1.388 . S
C118 C117 1.386 . S
C118 C119 1.382 . S
C118 H144 0.950 . S
C119 N116 1.332 . S
C119 C118 1.382 . S
C119 H130 0.952 . S
C120 C117 1.388 . S
C120 C121 1.382 . S
C120 H145 0.950 . S
C121 N116 1.332 . S
C121 C120 1.382 . S
C121 H131 0.948 . S
N122 Co100 2.282 . S
N122 C126 1.332 . S
N122 C127 1.332 . S
C123 C124 1.388 . S
C123 C127 1.382 . S
C123 H146 0.950 . S
C124 C123 1.388 . S
C124 C125 1.386 . S
C125 C124 1.386 . S
C125 C126 1.382 . S
C125 H147 0.950 . S
C126 N122 1.332 . S
C126 C125 1.382 . S
C126 H128 0.952 . S
C127 N122 1.332 . S
C127 C123 1.382 . S
C127 H129 0.948 . S
H128 C126 0.952 . S
H129 C127 0.948 . S
H130 C119 0.952 . S
H131 C121 0.948 . S
C132 C98 1.395 . S
C132 C102 1.391 . S
C133 C95 1.389 . S
C133 C115 1.392 . S
C134 C105 1.392 . S
C134 C107 1.389 . S
C135 C110 1.395 . S
C135 C112 1.391 . S
H136 C96 0.951 . S
H137 C97 0.950 . S
H138 C103 0.949 . S
H139 C104 0.940 1_565 S
H140 C108 0.951 . S
H141 C109 0.950 . S
H142 C113 0.949 . S
H143 C114 0.950 . S
H144 C118 0.950 . S
H145 C120 0.950 . S
H146 C123 0.950 . S
H147 C125 0.950 . S
C148 C149 1.443 . S
C148 N152 1.376 . S
C148 C186 1.389 . S
C149 C148 1.443 . S
C149 C150 1.340 . S
C149 H189 0.951 . S
C150 C149 1.340 . S
C150 C151 1.439 . S
C150 H190 0.950 . S
C151 C150 1.439 . S
C151 N152 1.374 . S
C151 C185 1.395 . S
N152 C148 1.376 . S
N152 C151 1.374 . S
N152 Co153 2.008 . S
Co153 N152 2.008 . S
Co153 N154 1.995 . S
Co153 N159 2.008 . S
Co153 N164 1.995 . S
Co153 N169 2.282 . S
Co153 N175 2.282 . S
N154 Co153 1.995 . S
N154 C155 1.376 . S
N154 C158 1.383 . S
C155 N154 1.376 . S
C155 C156 1.446 . S
C155 C185 1.391 . S
C156 C155 1.446 . S
C156 C157 1.339 . S
C156 H191 0.949 . S
C157 C156 1.339 . S
C157 C158 1.439 . S
C157 H192 0.950 . S
C158 N154 1.383 . S
C158 C157 1.439 . S
C158 C187 1.392 . S
N159 Co153 2.008 . S
N159 C160 1.376 . S
N159 C163 1.374 . S
C160 N159 1.376 . S
C160 C161 1.443 . S
C160 C187 1.389 . S
C161 C160 1.443 . S
C161 C162 1.340 . S
C161 H193 0.951 . S
C162 C161 1.340 . S
C162 C163 1.439 . S
C162 H194 0.950 . S
C163 N159 1.374 . S
C163 C162 1.439 . S
C163 C188 1.395 . S
N164 Co153 1.995 . S
N164 C165 1.376 . S
N164 C168 1.383 . S
C165 N164 1.376 . S
C165 C166 1.446 . S
C165 C188 1.391 . S
C166 C165 1.446 . S
C166 C167 1.339 . S
C166 H195 0.949 . S
C167 C166 1.339 . S
C167 C168 1.439 . S
C167 H196 0.950 . S
C168 N164 1.383 . S
C168 C167 1.439 . S
C168 C186 1.392 . S
N169 Co153 2.282 . S
N169 C172 1.332 . S
N169 C174 1.332 . S
C170 C171 1.386 . S
C170 C173 1.388 . S
C171 C170 1.386 . S
C171 C172 1.382 . S
C171 H197 0.950 . S
C172 N169 1.332 . S
C172 C171 1.382 . S
C172 H183 0.952 . S
C173 C170 1.388 . S
C173 C174 1.382 . S
C173 H198 0.950 . S
C174 N169 1.332 . S
C174 C173 1.382 . S
C174 H184 0.948 . S
N175 Co153 2.282 . S
N175 C179 1.332 . S
N175 C180 1.332 . S
C176 C177 1.388 . S
C176 C180 1.382 . S
C176 H199 0.950 . S
C177 C176 1.388 . S
C177 C178 1.386 . S
C178 C177 1.386 . S
C178 C179 1.382 . S
C178 H200 0.950 . S
C179 N175 1.332 . S
C179 C178 1.382 . S
C179 H181 0.952 . S
C180 N175 1.332 . S
C180 C176 1.382 . S
C180 H182 0.948 . S
H181 C179 0.952 . S
H182 C180 0.948 . S
H183 C172 0.952 . S
H184 C174 0.948 . S
C185 C151 1.395 . S
C185 C155 1.391 . S
C186 C148 1.389 . S
C186 C168 1.392 . S
C187 C158 1.392 . S
C187 C160 1.389 . S
C188 C163 1.395 . S
C188 C165 1.391 . S
H189 C149 0.951 . S
H190 C150 0.950 . S
H191 C156 0.949 . S
H192 C157 0.950 . S
H193 C161 0.951 . S
H194 C162 0.950 . S
H195 C166 0.949 . S
H196 C167 0.950 . S
H197 C171 0.950 . S
H198 C173 0.950 . S
H199 C176 0.950 . S
H200 C178 0.950 . S
C201 C202 1.386 . S
C201 C203 1.383 . S
C201 H217 0.951 . S
C202 C201 1.386 . S
C202 C206 1.383 . S
C203 C201 1.383 . S
C203 C204 1.402 . S
C203 H218 0.951 . S
C204 C203 1.402 . S
C204 C205 1.375 . S
C204 C207 1.481 . S
C205 C204 1.375 . S
C205 C206 1.367 . S
C205 H219 0.946 1_455 S
C206 C202 1.383 . S
C206 C205 1.367 . S
C206 H220 0.950 . S
C207 C204 1.481 . S
C207 C208 1.297 . S
C207 H221 0.950 . S
C208 C207 1.297 . S
C208 C209 1.479 . S
C208 H222 0.950 . S
C209 C208 1.479 . S
C209 C210 1.375 . S
C209 C215 1.404 . S
C210 C209 1.375 . S
C210 C211 1.369 . S
C210 H223 0.950 . S
C211 C210 1.369 . S
C211 C212 1.392 . S
C211 H224 0.951 . S
C212 C211 1.392 . S
C212 C214 1.384 . S
H213 C215 0.946 1_655 S
C214 C212 1.384 . S
C214 C215 1.385 . S
C214 H216 0.950 1_455 S
C215 C209 1.404 . S
C215 H213 0.946 1_455 S
C215 C214 1.385 . S
H216 C214 0.950 1_655 S
H217 C201 0.951 . S
H218 C203 0.951 . S
H219 C205 0.946 1_655 S
H220 C206 0.950 . S
H221 C207 0.950 . S
H222 C208 0.950 . S
H223 C210 0.950 . S
H224 C211 0.951 . S
C225 C226 1.386 . S
C225 C227 1.383 . S
C225 H241 0.951 . S
C226 C225 1.386 . S
C226 C230 1.383 . S
C227 C225 1.383 . S
C227 C228 1.402 . S
C227 H242 0.951 . S
C228 C227 1.402 . S
C228 C229 1.375 . S
C228 C231 1.481 . S
C229 C228 1.375 . S
C229 C230 1.367 . S
C229 H243 0.951 . S
C230 C226 1.383 . S
C230 C229 1.367 . S
C230 H244 0.950 . S
C231 C228 1.481 . S
C231 C232 1.297 . S
C231 H245 0.950 . S
C232 C231 1.297 . S
C232 C233 1.479 . S
C232 H246 0.950 . S
C233 C232 1.479 . S
C233 C234 1.375 . S
C233 C239 1.404 . S
C234 C233 1.375 . S
C234 C235 1.369 . S
C234 H247 0.950 . S
C235 C234 1.369 . S
C235 C236 1.392 . S
C235 H248 0.951 . S
C236 C235 1.392 . S
C236 C238 1.384 . S
H237 C239 0.949 . S
C238 C236 1.384 . S
C238 C239 1.385 . S
C238 H240 0.950 . S
C239 C233 1.404 . S
C239 H237 0.949 . S
C239 C238 1.385 . S
H240 C238 0.950 . S
H241 C225 0.951 . S
H242 C227 0.951 . S
H243 C229 0.951 . S
H244 C230 0.950 . S
H245 C231 0.950 . S
H246 C232 0.950 . S
H247 C234 0.950 . S
H248 C235 0.951 . S
C249 C250 1.386 . S
C249 C251 1.383 . S
C249 H265 0.951 . S
C250 C249 1.386 . S
C250 C254 1.383 . S
C251 C249 1.383 . S
C251 C252 1.402 . S
C251 H266 0.951 . S
C252 C251 1.402 . S
C252 C253 1.375 . S
C252 C255 1.481 . S
C253 C252 1.375 . S
C253 C254 1.367 . S
C253 H267 0.951 . S
C254 C250 1.383 . S
C254 C253 1.367 . S
C254 H268 0.950 . S
C255 C252 1.481 . S
C255 C256 1.297 . S
C255 H269 0.950 . S
C256 C255 1.297 . S
C256 C257 1.479 . S
C256 H270 0.950 . S
C257 C256 1.479 . S
C257 C258 1.375 . S
C257 C263 1.404 . S
C258 C257 1.375 . S
C258 C259 1.369 . S
C258 H271 0.950 . S
C259 C258 1.369 . S
C259 C260 1.392 . S
C259 H272 0.951 . S
C260 C259 1.392 . S
C260 C262 1.384 . S
H261 C263 0.949 . S
C262 C260 1.384 . S
C262 C263 1.385 . S
C262 H264 0.950 . S
C263 C257 1.404 . S
C263 H261 0.949 . S
C263 C262 1.385 . S
H264 C262 0.950 . S
H265 C249 0.951 . S
H266 C251 0.951 . S
H267 C253 0.951 . S
H268 C254 0.950 . S
H269 C255 0.950 . S
H270 C256 0.950 . S
H271 C258 0.950 . S
H272 C259 0.951 . S
C273 C274 1.386 . S
C273 C275 1.383 . S
C273 H289 0.951 . S
C274 C273 1.386 . S
C274 C278 1.383 . S
C275 C273 1.383 . S
C275 C276 1.402 . S
C275 H290 0.951 . S
C276 C275 1.402 . S
C276 C277 1.375 . S
C276 C279 1.481 . S
C277 C276 1.375 . S
C277 C278 1.367 . S
C277 H291 0.951 . S
C278 C274 1.383 . S
C278 C277 1.367 . S
C278 H292 0.950 . S
C279 C276 1.481 . S
C279 C280 1.297 . S
C279 H293 0.950 . S
C280 C279 1.297 . S
C280 C281 1.479 . S
C280 H294 0.950 . S
C281 C280 1.479 . S
C281 C282 1.375 . S
C281 C287 1.404 . S
C282 C281 1.375 . S
C282 C283 1.369 . S
C282 H295 0.950 . S
C283 C282 1.369 . S
C283 C284 1.392 . S
C283 H296 0.951 . S
C284 C283 1.392 . S
C284 C286 1.384 . S
H285 C287 0.949 . S
C286 C284 1.384 . S
C286 C287 1.385 . S
C286 H288 0.950 . S
C287 C281 1.404 . S
C287 H285 0.949 . S
C287 C286 1.385 . S
H288 C286 0.950 . S
H289 C273 0.951 . S
H290 C275 0.951 . S
H291 C277 0.951 . S
H292 C278 0.950 . S
H293 C279 0.950 . S
H294 C280 0.950 . S
H295 C282 0.950 . S
H296 C283 0.951 . S
C297 C298 1.386 . S
C297 C299 1.383 . S
C297 H313 0.951 . S
C298 C297 1.386 . S
C298 C302 1.383 . S
C299 C297 1.383 . S
C299 C300 1.402 . S
C299 H314 0.951 . S
C300 C299 1.402 . S
C300 C301 1.375 . S
C300 C303 1.481 . S
C301 C300 1.375 . S
C301 C302 1.367 . S
C301 H315 0.951 . S
C302 C298 1.383 . S
C302 C301 1.367 . S
C302 H316 0.950 . S
C303 C300 1.481 . S
C303 C304 1.297 . S
C303 H317 0.950 . S
C304 C303 1.297 . S
C304 C305 1.479 . S
C304 H318 0.950 . S
C305 C304 1.479 . S
C305 C306 1.375 . S
C305 C311 1.404 . S
C306 C305 1.375 . S
C306 C307 1.369 . S
C306 H319 0.950 . S
C307 C306 1.369 . S
C307 C308 1.392 . S
C307 H320 0.951 . S
C308 C307 1.392 . S
C308 C310 1.384 . S
H309 C311 0.949 . S
C310 C308 1.384 . S
C310 C311 1.385 . S
C310 H312 0.950 . S
C311 C305 1.404 . S
C311 H309 0.949 . S
C311 C310 1.385 . S
H312 C310 0.950 . S
H313 C297 0.951 . S
H314 C299 0.951 . S
H315 C301 0.951 . S
H316 C302 0.950 . S
H317 C303 0.950 . S
H318 C304 0.950 . S
H319 C306 0.950 . S
H320 C307 0.951 . S
C321 C322 1.386 . S
C321 C323 1.383 . S
C321 H337 0.951 . S
C322 C321 1.386 . S
C322 C326 1.383 . S
C323 C321 1.383 . S
C323 C324 1.402 . S
C323 H338 0.951 . S
C324 C323 1.402 . S
C324 C325 1.375 . S
C324 C327 1.481 . S
C325 C324 1.375 . S
C325 C326 1.367 . S
C325 H339 0.951 . S
C326 C322 1.383 . S
C326 C325 1.367 . S
C326 H340 0.950 . S
C327 C324 1.481 . S
C327 C328 1.297 . S
C327 H341 0.950 . S
C328 C327 1.297 . S
C328 C329 1.479 . S
C328 H342 0.950 . S
C329 C328 1.479 . S
C329 C330 1.375 . S
C329 C335 1.404 . S
C330 C329 1.375 . S
C330 C331 1.369 . S
C330 H343 0.950 . S
C331 C330 1.369 . S
C331 C332 1.392 . S
C331 H344 0.951 . S
C332 C331 1.392 . S
C332 C334 1.384 . S
H333 C335 0.949 . S
C334 C332 1.384 . S
C334 C335 1.385 . S
C334 H336 0.950 . S
C335 C329 1.404 . S
C335 H333 0.949 . S
C335 C334 1.385 . S
H336 C334 0.950 . S
H337 C321 0.951 . S
H338 C323 0.951 . S
H339 C325 0.951 . S
H340 C326 0.950 . S
H341 C327 0.950 . S
H342 C328 0.950 . S
H343 C330 0.950 . S
H344 C331 0.951 . S
C345 C346 1.386 . S
C345 C347 1.383 . S
C345 H361 0.951 1_655 S
C346 C345 1.386 . S
C346 C350 1.383 . S
C347 C345 1.383 . S
C347 C348 1.402 . S
C347 H362 0.951 . S
C348 C347 1.402 . S
C348 C349 1.375 . S
C348 C351 1.481 . S
C349 C348 1.375 . S
C349 C350 1.367 . S
C349 H363 0.951 1_545 S
C350 C346 1.383 . S
C350 C349 1.367 . S
C350 H364 0.950 1_545 S
C351 C348 1.481 . S
C351 C352 1.297 . S
C351 H365 0.950 . S
C352 C351 1.297 . S
C352 C353 1.479 . S
C352 H366 0.950 . S
C353 C352 1.479 . S
C353 C354 1.375 . S
C353 C359 1.404 . S
C354 C353 1.375 . S
C354 C355 1.369 . S
C354 H367 0.950 . S
C355 C354 1.369 . S
C355 C356 1.392 . S
C355 H368 0.951 . S
C356 C355 1.392 . S
C356 C358 1.384 . S
H357 C359 0.949 1_565 S
C358 C356 1.384 . S
C358 C359 1.385 . S
C358 H360 0.950 1_545 S
C359 C353 1.404 . S
C359 H357 0.949 1_545 S
C359 C358 1.385 . S
H360 C358 0.950 1_565 S
H361 C345 0.951 1_455 S
H362 C347 0.951 . S
H363 C349 0.951 1_565 S
H364 C350 0.950 1_565 S
H365 C351 0.950 . S
H366 C352 0.950 . S
H367 C354 0.950 . S
H368 C355 0.951 . S
C369 C370 1.386 . S
C369 C371 1.383 1_454 S
C369 H385 0.951 . S
C370 C369 1.386 . S
C370 C374 1.383 1_454 S
C371 C369 1.383 1_656 S
C371 C372 1.402 . S
C371 H386 0.951 . S
C372 C371 1.402 . S
C372 C373 1.375 . S
C372 C375 1.481 . S
C373 C372 1.375 . S
C373 C374 1.367 . S
C373 H387 0.951 . S
C374 C370 1.383 1_656 S
C374 C373 1.367 . S
C374 H388 0.950 1_565 S
C375 C372 1.481 . S
C375 C376 1.297 . S
C375 H389 0.950 . S
C376 C375 1.297 . S
C376 C377 1.479 . S
C376 H390 0.950 . S
C377 C376 1.479 . S
C377 C378 1.375 . S
C377 C383 1.404 . S
C378 C377 1.375 . S
C378 C379 1.369 . S
C378 H391 0.950 . S
C379 C378 1.369 . S
C379 C380 1.392 . S
C379 H392 0.951 . S
C380 C379 1.392 . S
C380 C382 1.384 . S
H381 C383 0.949 . S
C382 C380 1.384 . S
C382 C383 1.385 . S
C382 H384 0.950 . S
C383 C377 1.404 . S
C383 H381 0.949 . S
C383 C382 1.385 . S
H384 C382 0.950 . S
H385 C369 0.951 . S
H386 C371 0.951 . S
H387 C373 0.951 . S
H388 C374 0.950 1_545 S
H389 C375 0.950 . S
H390 C376 0.950 . S
H391 C378 0.950 . S
H392 C379 0.951 . S
C393 C394 1.386 1_665 S
C393 C395 1.383 . S
C393 H409 0.951 . S
C394 C393 1.386 1_445 S
C394 C398 1.383 . S
C395 C393 1.383 . S
C395 C396 1.402 1_655 S
C395 H410 0.951 . S
C396 C395 1.402 1_455 S
C396 C397 1.375 . S
C396 C399 1.481 . S
C397 C396 1.375 . S
C397 C398 1.367 1_565 S
C397 H411 0.951 1_565 S
C398 C394 1.383 . S
C398 C397 1.367 1_545 S
C398 H412 0.950 . S
C399 C396 1.481 . S
C399 C400 1.297 . S
C399 H413 0.950 . S
C400 C399 1.297 . S
C400 C401 1.479 . S
C400 H414 0.950 1_455 S
C401 C400 1.479 . S
C401 C402 1.375 1_455 S
C401 C407 1.404 . S
C402 C401 1.375 1_655 S
C402 C403 1.369 . S
C402 H415 0.950 . S
C403 C402 1.369 . S
C403 C404 1.392 1_655 S
C403 H416 0.951 . S
C404 C403 1.392 1_455 S
C404 C406 1.384 . S
H405 C407 0.949 . S
C406 C404 1.384 . S
C406 C407 1.385 . S
C406 H408 0.950 . S
C407 C401 1.404 . S
C407 H405 0.949 . S
C407 C406 1.385 . S
H408 C406 0.950 . S
H409 C393 0.951 . S
H410 C395 0.951 . S
H411 C397 0.951 1_545 S
H412 C398 0.950 . S
H413 C399 0.950 . S
H414 C400 0.950 1_655 S
H415 C402 0.950 . S
H416 C403 0.951 . S
C417 C418 1.386 . S
C417 C419 1.383 . S
C417 H433 0.951 . S
C418 C417 1.386 . S
C418 C422 1.383 1_545 S
C419 C417 1.383 . S
C419 C420 1.402 . S
C419 H434 0.951 . S
C420 C419 1.402 . S
C420 C421 1.375 1_545 S
C420 C423 1.481 . S
C421 C420 1.375 1_565 S
C421 C422 1.367 . S
C421 H435 0.951 . S
C422 C418 1.383 1_565 S
C422 C421 1.367 . S
C422 H436 0.950 . S
C423 C420 1.481 . S
C423 C424 1.297 . S
C423 H437 0.932 1_545 S
C424 C423 1.297 . S
C424 C425 1.479 . S
C424 H438 0.950 . S
C425 C424 1.479 . S
C425 C426 1.375 . S
C425 C431 1.404 . S
C426 C425 1.375 . S
C426 C427 1.369 . S
C426 H439 0.950 . S
C427 C426 1.369 . S
C427 C428 1.392 . S
C427 H440 0.951 . S
C428 C427 1.392 . S
C428 C430 1.384 . S
H429 C431 0.949 . S
C430 C428 1.384 . S
C430 C431 1.385 . S
C430 H432 0.950 . S
C431 C425 1.404 . S
C431 H429 0.949 . S
C431 C430 1.385 . S
H432 C430 0.950 . S
H433 C417 0.951 . S
H434 C419 0.951 . S
H435 C421 0.951 . S
H436 C422 0.950 . S
H437 C423 0.932 1_565 S
H438 C424 0.950 . S
H439 C426 0.950 . S
H440 C427 0.951 . S
C441 C442 1.386 1_554 S
C441 C443 1.383 1_554 S
C441 H457 0.951 . S
C442 C441 1.386 1_556 S
C442 C446 1.383 . S
C443 C441 1.383 1_556 S
C443 C444 1.402 . S
C443 H458 0.951 . S
C444 C443 1.402 . S
C444 C445 1.375 . S
C444 C447 1.481 . S
C445 C444 1.375 . S
C445 C446 1.367 . S
C445 H459 0.951 . S
C446 C442 1.383 . S
C446 C445 1.367 . S
C446 H460 0.950 . S
C447 C444 1.481 . S
C447 C448 1.297 . S
C447 H461 0.950 . S
C448 C447 1.297 . S
C448 C449 1.479 . S
C448 H462 0.950 . S
C449 C448 1.479 . S
C449 C450 1.375 . S
C449 C455 1.404 . S
C450 C449 1.375 . S
C450 C451 1.369 . S
C450 H463 0.950 . S
C451 C450 1.369 . S
C451 C452 1.392 . S
C451 H464 0.951 . S
C452 C451 1.392 . S
C452 C454 1.384 . S
H453 C455 0.949 . S
C454 C452 1.384 . S
C454 C455 1.385 . S
C454 H456 0.950 . S
C455 C449 1.404 . S
C455 H453 0.949 . S
C455 C454 1.385 . S
H456 C454 0.950 . S
H457 C441 0.951 . S
H458 C443 0.951 . S
H459 C445 0.951 . S
H460 C446 0.950 . S
H461 C447 0.950 . S
H462 C448 0.950 . S
H463 C450 0.950 . S
H464 C451 0.951 . S
C465 C466 1.386 . S
C465 C467 1.383 . S
C465 H481 0.951 1_455 S
C466 C465 1.386 . S
C466 C470 1.383 . S
C467 C465 1.383 . S
C467 C468 1.402 . S
C467 H482 0.959 . S
C468 C467 1.402 . S
C468 C469 1.375 . S
C468 C471 1.481 . S
C469 C468 1.375 . S
C469 C470 1.367 . S
C469 H483 0.951 . S
C470 C466 1.383 . S
C470 C469 1.367 . S
C470 H484 0.950 . S
C471 C468 1.481 . S
C471 C472 1.297 . S
C471 H485 0.950 . S
C472 C471 1.297 . S
C472 C473 1.479 . S
C472 H486 0.950 . S
C473 C472 1.479 . S
C473 C474 1.375 . S
C473 C479 1.404 . S
C474 C473 1.375 . S
C474 C475 1.369 . S
C474 H487 0.950 1_455 S
C475 C474 1.369 . S
C475 C476 1.392 . S
C475 H488 0.951 1_455 S
C476 C475 1.392 . S
C476 C478 1.384 . S
H477 C479 0.949 . S
C478 C476 1.384 . S
C478 C479 1.385 . S
C478 H480 0.950 . S
C479 C473 1.404 . S
C479 H477 0.949 . S
C479 C478 1.385 . S
H480 C478 0.950 . S
H481 C465 0.951 1_655 S
H482 C467 0.959 . S
H483 C469 0.951 . S
H484 C470 0.950 . S
H485 C471 0.950 . S
H486 C472 0.950 . S
H487 C474 0.950 1_655 S
H488 C475 0.951 1_655 S
C212 C64 1.314 . S
C202 C11 1.325 . S
C226 C25 1.390 . S
C236 C134 1.379 . S
C250 C41 1.381 1_655 S
C260 C186 1.409 . S
C274 C7 1.338 1_565 S
C284 C80 1.341 . S
C308 C124 1.398 . S
C298 C21 1.413 . S
C322 C36 1.414 . S
C332 C170 1.424 . S
C356 C117 1.381 . S
C346 C39 1.364 . S
C370 C8 1.413 1_565 S
C380 C177 1.419 . S
C404 C71 1.491 . S
C394 C22 1.409 . S
C428 C133 1.400 . S
C418 C35 1.401 . S
C452 C187 1.413 . S
C442 C13 1.326 1_556 S
C466 C27 1.409 . S
C476 C81 1.457 . S
