# Generated by pormake.
# Topology gar, (4,6)-cn, num edge types: 1
# Building blocks:
#     Node 0, Type 0, BuildingBlock: QUQFOY_clean_sbu_3, # of connection points: 4
#     Node 1, Type 0, BuildingBlock: QUQFOY_clean_sbu_3, # of connection points: 4
#     Node 2, Type 0, BuildingBlock: QUQFOY_clean_sbu_3, # of connection points: 4
#     Node 3, Type 0, BuildingBlock: QUQFOY_clean_sbu_3, # of connection points: 4
#     Node 4, Type 0, BuildingBlock: QUQFOY_clean_sbu_3, # of connection points: 4
#     Node 5, Type 0, BuildingBlock: QUQFOY_clean_sbu_3, # of connection points: 4
#     Node 6, Type 0, BuildingBlock: QUQFOY_clean_sbu_3, # of connection points: 4
#     Node 7, Type 0, BuildingBlock: QUQFOY_clean_sbu_3, # of connection points: 4
#     Node 8, Type 0, BuildingBlock: QUQFOY_clean_sbu_3, # of connection points: 4
#     Node 9, Type 0, BuildingBlock: QUQFOY_clean_sbu_3, # of connection points: 4
#     Node 10, Type 0, BuildingBlock: QUQFOY_clean_sbu_3, # of connection points: 4
#     Node 11, Type 0, BuildingBlock: QUQFOY_clean_sbu_3, # of connection points: 4
#     Node 12, Type 0, BuildingBlock: QUQFOY_clean_sbu_3, # of connection points: 4
#     Node 13, Type 0, BuildingBlock: QUQFOY_clean_sbu_3, # of connection points: 4
#     Node 14, Type 0, BuildingBlock: QUQFOY_clean_sbu_3, # of connection points: 4
#     Node 15, Type 0, BuildingBlock: QUQFOY_clean_sbu_3, # of connection points: 4
#     Node 16, Type 0, BuildingBlock: QUQFOY_clean_sbu_3, # of connection points: 4
#     Node 17, Type 0, BuildingBlock: QUQFOY_clean_sbu_3, # of connection points: 4
#     Node 18, Type 0, BuildingBlock: QUQFOY_clean_sbu_3, # of connection points: 4
#     Node 19, Type 0, BuildingBlock: QUQFOY_clean_sbu_3, # of connection points: 4
#     Node 20, Type 0, BuildingBlock: QUQFOY_clean_sbu_3, # of connection points: 4
#     Node 21, Type 0, BuildingBlock: QUQFOY_clean_sbu_3, # of connection points: 4
#     Node 22, Type 0, BuildingBlock: QUQFOY_clean_sbu_3, # of connection points: 4
#     Node 23, Type 0, BuildingBlock: QUQFOY_clean_sbu_3, # of connection points: 4
#     Node 24, Type 1, BuildingBlock: PAMTUU_clean_sbu_0, # of connection points: 6
#     Node 25, Type 1, BuildingBlock: PAMTUU_clean_sbu_0, # of connection points: 6
#     Node 26, Type 1, BuildingBlock: PAMTUU_clean_sbu_0, # of connection points: 6
#     Node 27, Type 1, BuildingBlock: PAMTUU_clean_sbu_0, # of connection points: 6
#     Node 28, Type 1, BuildingBlock: PAMTUU_clean_sbu_0, # of connection points: 6
#     Node 29, Type 1, BuildingBlock: PAMTUU_clean_sbu_0, # of connection points: 6
#     Node 30, Type 1, BuildingBlock: PAMTUU_clean_sbu_0, # of connection points: 6
#     Node 31, Type 1, BuildingBlock: PAMTUU_clean_sbu_0, # of connection points: 6
#     Node 32, Type 1, BuildingBlock: PAMTUU_clean_sbu_0, # of connection points: 6
#     Node 33, Type 1, BuildingBlock: PAMTUU_clean_sbu_0, # of connection points: 6
#     Node 34, Type 1, BuildingBlock: PAMTUU_clean_sbu_0, # of connection points: 6
#     Node 35, Type 1, BuildingBlock: PAMTUU_clean_sbu_0, # of connection points: 6
#     Node 36, Type 1, BuildingBlock: PAMTUU_clean_sbu_0, # of connection points: 6
#     Node 37, Type 1, BuildingBlock: PAMTUU_clean_sbu_0, # of connection points: 6
#     Node 38, Type 1, BuildingBlock: PAMTUU_clean_sbu_0, # of connection points: 6
#     Node 39, Type 1, BuildingBlock: PAMTUU_clean_sbu_0, # of connection points: 6
#     Edge 40, Type (0, 1), BuildingBlock: ZUJKAS_clean_linker_0, # of connection points: 2
#     Edge 41, Type (0, 1), BuildingBlock: ZUJKAS_clean_linker_0, # of connection points: 2
#     Edge 42, Type (0, 1), BuildingBlock: ZUJKAS_clean_linker_0, # of connection points: 2
#     Edge 43, Type (0, 1), BuildingBlock: ZUJKAS_clean_linker_0, # of connection points: 2
#     Edge 44, Type (0, 1), BuildingBlock: ZUJKAS_clean_linker_0, # of connection points: 2
#     Edge 45, Type (0, 1), BuildingBlock: ZUJKAS_clean_linker_0, # of connection points: 2
#     Edge 46, Type (0, 1), BuildingBlock: ZUJKAS_clean_linker_0, # of connection points: 2
#     Edge 47, Type (0, 1), BuildingBlock: ZUJKAS_clean_linker_0, # of connection points: 2
#     Edge 48, Type (0, 1), BuildingBlock: ZUJKAS_clean_linker_0, # of connection points: 2
#     Edge 49, Type (0, 1), BuildingBlock: ZUJKAS_clean_linker_0, # of connection points: 2
#     Edge 50, Type (0, 1), BuildingBlock: ZUJKAS_clean_linker_0, # of connection points: 2
#     Edge 51, Type (0, 1), BuildingBlock: ZUJKAS_clean_linker_0, # of connection points: 2
#     Edge 52, Type (0, 1), BuildingBlock: ZUJKAS_clean_linker_0, # of connection points: 2
#     Edge 53, Type (0, 1), BuildingBlock: ZUJKAS_clean_linker_0, # of connection points: 2
#     Edge 54, Type (0, 1), BuildingBlock: ZUJKAS_clean_linker_0, # of connection points: 2
#     Edge 55, Type (0, 1), BuildingBlock: ZUJKAS_clean_linker_0, # of connection points: 2
#     Edge 56, Type (0, 1), BuildingBlock: ZUJKAS_clean_linker_0, # of connection points: 2
#     Edge 57, Type (0, 1), BuildingBlock: ZUJKAS_clean_linker_0, # of connection points: 2
#     Edge 58, Type (0, 1), BuildingBlock: ZUJKAS_clean_linker_0, # of connection points: 2
#     Edge 59, Type (0, 1), BuildingBlock: ZUJKAS_clean_linker_0, # of connection points: 2
#     Edge 60, Type (0, 1), BuildingBlock: ZUJKAS_clean_linker_0, # of connection points: 2
#     Edge 61, Type (0, 1), BuildingBlock: ZUJKAS_clean_linker_0, # of connection points: 2
#     Edge 62, Type (0, 1), BuildingBlock: ZUJKAS_clean_linker_0, # of connection points: 2
#     Edge 63, Type (0, 1), BuildingBlock: ZUJKAS_clean_linker_0, # of connection points: 2
#     Edge 64, Type (0, 1), BuildingBlock: ZUJKAS_clean_linker_0, # of connection points: 2
#     Edge 65, Type (0, 1), BuildingBlock: ZUJKAS_clean_linker_0, # of connection points: 2
#     Edge 66, Type (0, 1), BuildingBlock: ZUJKAS_clean_linker_0, # of connection points: 2
#     Edge 67, Type (0, 1), BuildingBlock: ZUJKAS_clean_linker_0, # of connection points: 2
#     Edge 68, Type (0, 1), BuildingBlock: ZUJKAS_clean_linker_0, # of connection points: 2
#     Edge 69, Type (0, 1), BuildingBlock: ZUJKAS_clean_linker_0, # of connection points: 2
#     Edge 70, Type (0, 1), BuildingBlock: ZUJKAS_clean_linker_0, # of connection points: 2
#     Edge 71, Type (0, 1), BuildingBlock: ZUJKAS_clean_linker_0, # of connection points: 2
#     Edge 72, Type (0, 1), BuildingBlock: ZUJKAS_clean_linker_0, # of connection points: 2
#     Edge 73, Type (0, 1), BuildingBlock: ZUJKAS_clean_linker_0, # of connection points: 2
#     Edge 74, Type (0, 1), BuildingBlock: ZUJKAS_clean_linker_0, # of connection points: 2
#     Edge 75, Type (0, 1), BuildingBlock: ZUJKAS_clean_linker_0, # of connection points: 2
#     Edge 76, Type (0, 1), BuildingBlock: ZUJKAS_clean_linker_0, # of connection points: 2
#     Edge 77, Type (0, 1), BuildingBlock: ZUJKAS_clean_linker_0, # of connection points: 2
#     Edge 78, Type (0, 1), BuildingBlock: ZUJKAS_clean_linker_0, # of connection points: 2
#     Edge 79, Type (0, 1), BuildingBlock: ZUJKAS_clean_linker_0, # of connection points: 2
#     Edge 80, Type (0, 1), BuildingBlock: ZUJKAS_clean_linker_0, # of connection points: 2
#     Edge 81, Type (0, 1), BuildingBlock: ZUJKAS_clean_linker_0, # of connection points: 2
#     Edge 82, Type (0, 1), BuildingBlock: ZUJKAS_clean_linker_0, # of connection points: 2
#     Edge 83, Type (0, 1), BuildingBlock: ZUJKAS_clean_linker_0, # of connection points: 2
#     Edge 84, Type (0, 1), BuildingBlock: ZUJKAS_clean_linker_0, # of connection points: 2
#     Edge 85, Type (0, 1), BuildingBlock: ZUJKAS_clean_linker_0, # of connection points: 2
#     Edge 86, Type (0, 1), BuildingBlock: ZUJKAS_clean_linker_0, # of connection points: 2
#     Edge 87, Type (0, 1), BuildingBlock: ZUJKAS_clean_linker_0, # of connection points: 2
#     Edge 88, Type (0, 1), BuildingBlock: ZUJKAS_clean_linker_0, # of connection points: 2
#     Edge 89, Type (0, 1), BuildingBlock: ZUJKAS_clean_linker_0, # of connection points: 2
#     Edge 90, Type (0, 1), BuildingBlock: ZUJKAS_clean_linker_0, # of connection points: 2
#     Edge 91, Type (0, 1), BuildingBlock: ZUJKAS_clean_linker_0, # of connection points: 2
#     Edge 92, Type (0, 1), BuildingBlock: ZUJKAS_clean_linker_0, # of connection points: 2
#     Edge 93, Type (0, 1), BuildingBlock: ZUJKAS_clean_linker_0, # of connection points: 2
#     Edge 94, Type (0, 1), BuildingBlock: ZUJKAS_clean_linker_0, # of connection points: 2
#     Edge 95, Type (0, 1), BuildingBlock: ZUJKAS_clean_linker_0, # of connection points: 2
#     Edge 96, Type (0, 1), BuildingBlock: ZUJKAS_clean_linker_0, # of connection points: 2
#     Edge 97, Type (0, 1), BuildingBlock: ZUJKAS_clean_linker_0, # of connection points: 2
#     Edge 98, Type (0, 1), BuildingBlock: ZUJKAS_clean_linker_0, # of connection points: 2
#     Edge 99, Type (0, 1), BuildingBlock: ZUJKAS_clean_linker_0, # of connection points: 2
#     Edge 100, Type (0, 1), BuildingBlock: ZUJKAS_clean_linker_0, # of connection points: 2
#     Edge 101, Type (0, 1), BuildingBlock: ZUJKAS_clean_linker_0, # of connection points: 2
#     Edge 102, Type (0, 1), BuildingBlock: ZUJKAS_clean_linker_0, # of connection points: 2
#     Edge 103, Type (0, 1), BuildingBlock: ZUJKAS_clean_linker_0, # of connection points: 2
#     Edge 104, Type (0, 1), BuildingBlock: ZUJKAS_clean_linker_0, # of connection points: 2
#     Edge 105, Type (0, 1), BuildingBlock: ZUJKAS_clean_linker_0, # of connection points: 2
#     Edge 106, Type (0, 1), BuildingBlock: ZUJKAS_clean_linker_0, # of connection points: 2
#     Edge 107, Type (0, 1), BuildingBlock: ZUJKAS_clean_linker_0, # of connection points: 2
#     Edge 108, Type (0, 1), BuildingBlock: ZUJKAS_clean_linker_0, # of connection points: 2
#     Edge 109, Type (0, 1), BuildingBlock: ZUJKAS_clean_linker_0, # of connection points: 2
#     Edge 110, Type (0, 1), BuildingBlock: ZUJKAS_clean_linker_0, # of connection points: 2
#     Edge 111, Type (0, 1), BuildingBlock: ZUJKAS_clean_linker_0, # of connection points: 2
#     Edge 112, Type (0, 1), BuildingBlock: ZUJKAS_clean_linker_0, # of connection points: 2
#     Edge 113, Type (0, 1), BuildingBlock: ZUJKAS_clean_linker_0, # of connection points: 2
#     Edge 114, Type (0, 1), BuildingBlock: ZUJKAS_clean_linker_0, # of connection points: 2
#     Edge 115, Type (0, 1), BuildingBlock: ZUJKAS_clean_linker_0, # of connection points: 2
#     Edge 116, Type (0, 1), BuildingBlock: ZUJKAS_clean_linker_0, # of connection points: 2
#     Edge 117, Type (0, 1), BuildingBlock: ZUJKAS_clean_linker_0, # of connection points: 2
#     Edge 118, Type (0, 1), BuildingBlock: ZUJKAS_clean_linker_0, # of connection points: 2
#     Edge 119, Type (0, 1), BuildingBlock: ZUJKAS_clean_linker_0, # of connection points: 2
#     Edge 120, Type (0, 1), BuildingBlock: ZUJKAS_clean_linker_0, # of connection points: 2
#     Edge 121, Type (0, 1), BuildingBlock: ZUJKAS_clean_linker_0, # of connection points: 2
#     Edge 122, Type (0, 1), BuildingBlock: ZUJKAS_clean_linker_0, # of connection points: 2
#     Edge 123, Type (0, 1), BuildingBlock: ZUJKAS_clean_linker_0, # of connection points: 2
#     Edge 124, Type (0, 1), BuildingBlock: ZUJKAS_clean_linker_0, # of connection points: 2
#     Edge 125, Type (0, 1), BuildingBlock: ZUJKAS_clean_linker_0, # of connection points: 2
#     Edge 126, Type (0, 1), BuildingBlock: ZUJKAS_clean_linker_0, # of connection points: 2
#     Edge 127, Type (0, 1), BuildingBlock: ZUJKAS_clean_linker_0, # of connection points: 2
#     Edge 128, Type (0, 1), BuildingBlock: ZUJKAS_clean_linker_0, # of connection points: 2
#     Edge 129, Type (0, 1), BuildingBlock: ZUJKAS_clean_linker_0, # of connection points: 2
#     Edge 130, Type (0, 1), BuildingBlock: ZUJKAS_clean_linker_0, # of connection points: 2
#     Edge 131, Type (0, 1), BuildingBlock: ZUJKAS_clean_linker_0, # of connection points: 2
#     Edge 132, Type (0, 1), BuildingBlock: ZUJKAS_clean_linker_0, # of connection points: 2
#     Edge 133, Type (0, 1), BuildingBlock: ZUJKAS_clean_linker_0, # of connection points: 2
#     Edge 134, Type (0, 1), BuildingBlock: ZUJKAS_clean_linker_0, # of connection points: 2
#     Edge 135, Type (0, 1), BuildingBlock: ZUJKAS_clean_linker_0, # of connection points: 2
# Relax obj value: 0.146
# Max RMSD: 0.306
# Mean RMSD: 0.152
data_MOF--net-gar--node1-QUQFOY_clean_sbu_3--node2-PAMTUU_clean_sbu_0--edge1-ZUJKAS_clean_linker_0
_symmetry_space_group_name_H-M    P1
_symmetry_Int_Tables_number       1
_symmetry_cell_setting            triclinic
loop_
_symmetry_equiv_pos_as_xyz
'x, y, z'
_cell_length_a     76.934019
_cell_length_b     73.760277
_cell_length_c     76.621716
_cell_angle_alpha  94.246069
_cell_angle_beta   93.179527
_cell_angle_gamma 106.25053
loop_
_atom_site_label
_atom_site_type_symbol
_atom_site_fract_x
_atom_site_fract_y
_atom_site_fract_z
_atom_type_partial_charge
C0 C 0.00295 0.27078 0.35362 0.0
O1 O 0.01529 0.28253 0.34656 0.0
Cd2 Cd 0.04679 0.29143 0.35777 0.0
O3 O 0.00798 0.26224 0.3664 0.0
Cd4 Cd 0.04178 0.2638 0.38331 0.0
C5 C 0.04609 0.31384 0.39782 0.0
O6 O 0.06161 0.26593 0.35573 0.0
O7 O 0.07695 0.27126 0.3804 0.0
O8 O 0.03107 0.22722 0.38783 0.0
C9 C 0.07719 0.26868 0.36383 0.0
O10 O 0.05038 0.31624 0.38218 0.0
C11 C 0.03758 0.22779 0.4036 0.0
O12 O 0.04179 0.29669 0.40242 0.0
O13 O 0.04533 0.24463 0.41043 0.0
C14 C 0.99689 0.77606 0.68128 0.0
O15 O 0.00478 0.76429 0.68659 0.0
Cd16 Cd 0.03124 0.76837 0.66889 0.0
O17 O 0.00481 0.7864 0.66945 0.0
Cd18 Cd 0.03709 0.78796 0.65333 0.0
C19 C 0.03292 0.73906 0.63802 0.0
O20 O 0.06023 0.78939 0.6815 0.0
O21 O 0.07073 0.78691 0.65659 0.0
O22 O 0.0431 0.82444 0.65 0.0
C23 C 0.07405 0.78896 0.67318 0.0
O24 O 0.03489 0.73892 0.65455 0.0
C25 C 0.04013 0.82395 0.63344 0.0
O26 O 0.03119 0.75459 0.63232 0.0
O27 O 0.03625 0.80723 0.62573 0.0
C28 C 0.50381 0.77105 0.85396 0.0
O29 O 0.5161 0.78241 0.84651 0.0
Cd30 Cd 0.54717 0.79213 0.85855 0.0
O31 O 0.50892 0.76305 0.86712 0.0
Cd32 Cd 0.54287 0.76461 0.884 0.0
C33 C 0.54498 0.81372 0.89896 0.0
O34 O 0.5626 0.76697 0.85639 0.0
O35 O 0.57817 0.77301 0.88094 0.0
O36 O 0.5317 0.72805 0.88851 0.0
C37 C 0.57831 0.77018 0.86438 0.0
O38 O 0.54813 0.81627 0.88306 0.0
C39 C 0.53885 0.72849 0.90402 0.0
O40 O 0.54254 0.79679 0.90376 0.0
O41 O 0.54724 0.74523 0.91066 0.0
C42 C 0.49615 0.2748 0.18148 0.0
O43 O 0.50374 0.2633 0.1879 0.0
Cd44 Cd 0.53244 0.26087 0.17711 0.0
O45 O 0.50437 0.28474 0.16949 0.0
Cd46 Cd 0.53652 0.28771 0.15278 0.0
C47 C 0.53079 0.23758 0.13765 0.0
O48 O 0.5594 0.28877 0.18026 0.0
O49 O 0.56972 0.28609 0.15521 0.0
O50 O 0.54553 0.32427 0.14851 0.0
C51 C 0.57306 0.28792 0.17179 0.0
O52 O 0.53048 0.23528 0.15392 0.0
C53 C 0.53921 0.3236 0.13268 0.0
O54 O 0.53208 0.25435 0.13286 0.0
O55 O 0.53204 0.30671 0.12573 0.0
C56 C 0.03977 0.77622 0.14751 0.0
O57 O 0.0496 0.7688 0.15686 0.0
Cd58 Cd 0.0801 0.76963 0.15282 0.0
O59 O 0.04607 0.78567 0.1348 0.0
Cd60 Cd 0.07479 0.79626 0.11956 0.0
C61 C 0.07116 0.74946 0.10938 0.0
O62 O 0.09297 0.8013 0.14691 0.0
O63 O 0.10863 0.80489 0.12452 0.0
O64 O 0.06336 0.8238 0.1173 0.0
C65 C 0.10846 0.80477 0.14104 0.0
O66 O 0.07514 0.74909 0.12569 0.0
C67 C 0.06903 0.82778 0.10242 0.0
O68 O 0.06974 0.76464 0.10316 0.0
O69 O 0.07748 0.81706 0.0952 0.0
C70 C 0.4706 0.76184 0.38948 0.0
O71 O 0.48296 0.77264 0.38166 0.0
Cd72 Cd 0.51482 0.78045 0.38767 0.0
O73 O 0.4745 0.7534 0.40248 0.0
Cd74 Cd 0.50427 0.75443 0.4189 0.0
C75 C 0.51392 0.8017 0.42881 0.0
O76 O 0.52223 0.75249 0.39397 0.0
O77 O 0.53755 0.76405 0.41855 0.0
O78 O 0.4933 0.72063 0.42359 0.0
C79 C 0.53756 0.75808 0.40262 0.0
O80 O 0.51957 0.80287 0.4135 0.0
C81 C 0.50008 0.72262 0.43936 0.0
O82 O 0.50601 0.78564 0.43405 0.0
O83 O 0.50765 0.73948 0.44599 0.0
C84 C 0.54094 0.27562 0.64892 0.0
O85 O 0.55178 0.26873 0.65748 0.0
Cd86 Cd 0.58263 0.2721 0.65179 0.0
O87 O 0.54612 0.2853 0.63605 0.0
Cd88 Cd 0.57415 0.29614 0.62014 0.0
C89 C 0.57427 0.2508 0.60936 0.0
O90 O 0.59528 0.30405 0.6461 0.0
O91 O 0.60761 0.30172 0.62193 0.0
O92 O 0.56605 0.32575 0.61857 0.0
C93 C 0.60967 0.30538 0.63847 0.0
O94 O 0.58079 0.25141 0.62512 0.0
C95 C 0.56867 0.32748 0.6025 0.0
O96 O 0.5688 0.26443 0.60404 0.0
O97 O 0.57375 0.31445 0.59431 0.0
C98 C 0.96967 0.26149 0.88872 0.0
O99 O 0.98176 0.27309 0.88126 0.0
Cd100 Cd 0.01378 0.28242 0.88686 0.0
O101 O 0.97385 0.25281 0.90144 0.0
Cd102 Cd 0.00345 0.2539 0.91833 0.0
C103 C 0.01271 0.30159 0.92903 0.0
O104 O 0.02126 0.25477 0.89328 0.0
O105 O 0.03696 0.26151 0.91818 0.0
O106 O 0.99455 0.21961 0.92043 0.0
C107 C 0.03668 0.25876 0.90163 0.0
O108 O 0.01747 0.30334 0.91344 0.0
C109 C 0.99852 0.2205 0.93684 0.0
O110 O 0.00582 0.28523 0.93424 0.0
O111 O 0.0036 0.23699 0.94499 0.0
C112 C 0.46148 0.03689 0.32196 0.0
O113 O 0.47005 0.03158 0.30983 0.0
Cd114 Cd 0.45599 0.02514 0.28056 0.0
O115 O 0.4466 0.04058 0.31856 0.0
Cd116 Cd 0.42543 0.04282 0.29569 0.0
C117 C 0.41493 0.99588 0.2904 0.0
O118 O 0.44628 0.05231 0.27447 0.0
O119 O 0.4183 0.04088 0.2641 0.0
O120 O 0.42701 0.07399 0.30778 0.0
C121 C 0.43466 0.04899 0.26142 0.0
O122 O 0.42968 0.9977 0.28297 0.0
C123 C 0.40992 0.07089 0.30757 0.0
O124 O 0.41064 0.01022 0.29692 0.0
O125 O 0.40009 0.054 0.30323 0.0
C126 C 0.31436 0.16161 0.52415 0.0
O127 O 0.30173 0.15124 0.53203 0.0
Cd128 Cd 0.27206 0.15312 0.53517 0.0
O129 O 0.31193 0.17521 0.51575 0.0
Cd130 Cd 0.28658 0.19031 0.50936 0.0
C131 C 0.28612 0.19971 0.55434 0.0
O132 O 0.26328 0.16091 0.5077 0.0
O133 O 0.25294 0.18499 0.50611 0.0
O134 O 0.29363 0.19019 0.47855 0.0
C135 C 0.24965 0.16721 0.50645 0.0
O136 O 0.27942 0.18187 0.55451 0.0
C137 C 0.29476 0.20745 0.47676 0.0
O138 O 0.29041 0.20721 0.54001 0.0
O139 O 0.29294 0.21741 0.49049 0.0
C140 C 0.12883 0.03379 0.83725 0.0
O141 O 0.11868 0.03793 0.8255 0.0
Cd142 Cd 0.12424 0.03944 0.79551 0.0
O143 O 0.14263 0.0285 0.8335 0.0
Cd144 Cd 0.15862 0.02411 0.80817 0.0
C145 C 0.16629 0.0708 0.80698 0.0
O146 O 0.13382 0.0126 0.78624 0.0
O147 O 0.16009 0.02443 0.77674 0.0
O148 O 0.16305 0.99447 0.81566 0.0
C149 C 0.1433 0.01618 0.77326 0.0
O150 O 0.15028 0.06731 0.79965 0.0
C151 C 0.18013 0.99998 0.81462 0.0
O152 O 0.17247 0.05763 0.81208 0.0
O153 O 0.18714 0.0172 0.81193 0.0
C154 C 0.32286 0.94061 0.97825 0.0
O155 O 0.31352 0.95035 0.97141 0.0
Cd156 Cd 0.28152 0.93879 0.97055 0.0
O157 O 0.31534 0.92626 0.98617 0.0
Cd158 Cd 0.28675 0.90736 0.99532 0.0
C159 C 0.28078 0.89423 0.95288 0.0
O160 O 0.27543 0.93371 0.00044 0.0
O161 O 0.25497 0.90641 -0.002 0.0
O162 O 0.30329 0.91106 0.0235 0.0
C163 C 0.25936 0.92415 0.00235 0.0
O164 O 0.27882 0.91057 0.95113 0.0
C165 C 0.29751 0.89383 0.02655 0.0
O166 O 0.28355 0.88894 0.96792 0.0
O167 O 0.28679 0.8825 0.01472 0.0
C168 C 0.31888 0.39697 0.016 0.0
O169 O 0.30894 0.40299 0.00542 0.0
Cd170 Cd 0.27689 0.39304 -0.00014 0.0
O171 O 0.31199 0.38352 0.02539 0.0
Cd172 Cd 0.28053 0.3621 0.02842 0.0
C173 C 0.27577 0.34792 0.98393 0.0
O174 O 0.26682 0.38763 0.02789 0.0
O175 O 0.24734 0.36023 0.02606 0.0
O176 O 0.2889 0.36417 0.06009 0.0
C177 C 0.25035 0.3781 0.02705 0.0
O178 O 0.27221 0.36349 0.98176 0.0
C179 C 0.28271 0.34664 0.06199 0.0
O180 O 0.28069 0.34408 -0.00087 0.0
O181 O 0.27611 0.33581 0.04806 0.0
C182 C 0.8154 0.11382 0.04924 0.0
O183 O 0.80278 0.10294 0.05676 0.0
Cd184 Cd 0.77343 0.10626 0.0605 0.0
O185 O 0.8134 0.12865 0.04288 0.0
Cd186 Cd 0.7901 0.14496 0.03938 0.0
C187 C 0.78513 0.15142 0.08192 0.0
O188 O 0.7662 0.11656 0.03371 0.0
O189 O 0.75794 0.14181 0.03968 0.0
O190 O 0.79478 0.14684 0.009 0.0
C191 C 0.75349 0.12415 0.0352 0.0
O192 O 0.77686 0.13377 0.08087 0.0
C193 C 0.79418 0.1638 0.00856 0.0
O194 O 0.79342 0.15925 0.06926 0.0
O195 O 0.79417 0.17317 0.02319 0.0
C196 C 0.11841 0.51445 0.26369 0.0
O197 O 0.10871 0.5201 0.25254 0.0
Cd198 Cd 0.11617 0.52554 0.22337 0.0
O199 O 0.13282 0.51049 0.25965 0.0
Cd200 Cd 0.15154 0.50915 0.23548 0.0
C201 C 0.15779 0.55622 0.23756 0.0
O202 O 0.12702 0.49939 0.21555 0.0
O203 O 0.15232 0.50785 0.20344 0.0
O204 O 0.15207 0.4794 0.24437 0.0
C205 C 0.13511 0.50166 0.20168 0.0
O206 O 0.14215 0.5537 0.22968 0.0
C207 C 0.16919 0.48279 0.24469 0.0
O208 O 0.16368 0.54248 0.24161 0.0
O209 O 0.17837 0.49899 0.24075 0.0
C210 C 0.81813 0.89719 0.51726 0.0
O211 O 0.80784 0.90328 0.50714 0.0
Cd212 Cd 0.77588 0.89207 0.50233 0.0
O213 O 0.81153 0.88332 0.52629 0.0
Cd214 Cd 0.77999 0.86163 0.52912 0.0
C215 C 0.77557 0.84786 0.48499 0.0
O216 O 0.76597 0.88721 0.53069 0.0
O217 O 0.74685 0.85982 0.52487 0.0
O218 O 0.78964 0.86145 0.56038 0.0
C219 C 0.74954 0.8775 0.52844 0.0
O220 O 0.77117 0.86305 0.48318 0.0
C221 C 0.78152 0.84415 0.56179 0.0
O222 O 0.78106 0.84415 0.50001 0.0
O223 O 0.77318 0.83452 0.54783 0.0
C224 C 0.94878 0.02035 0.25401 0.0
O225 O 0.95745 0.01422 0.24241 0.0
Cd226 Cd 0.9486 0.00961 0.21189 0.0
O227 O 0.93457 0.02516 0.2499 0.0
Cd228 Cd 0.91468 0.02796 0.22528 0.0
C229 C 0.90605 0.98075 0.21714 0.0
O230 O 0.9381 0.03606 0.20754 0.0
O231 O 0.91171 0.02957 0.19355 0.0
O232 O 0.91436 0.05676 0.24134 0.0
C233 C 0.92876 0.03312 0.19302 0.0
O234 O 0.92135 0.98285 0.21072 0.0
C235 C 0.89732 0.05378 0.23862 0.0
O236 O 0.90127 0.9946 0.22416 0.0
O237 O 0.88831 0.03865 0.22944 0.0
C238 C 0.30824 0.61176 0.54478 0.0
O239 O 0.29639 0.60163 0.55359 0.0
Cd240 Cd 0.26994 0.60873 0.56251 0.0
O241 O 0.30707 0.6274 0.53962 0.0
Cd242 Cd 0.28786 0.64851 0.54046 0.0
C243 C 0.28935 0.65388 0.58405 0.0
O244 O 0.2614 0.62318 0.5388 0.0
O245 O 0.25742 0.65085 0.54429 0.0
O246 O 0.28971 0.64859 0.50945 0.0
C247 C 0.25076 0.633 0.54233 0.0
O248 O 0.28012 0.6365 0.58287 0.0
C249 C 0.29192 0.66622 0.50894 0.0
O250 O 0.29607 0.66192 0.57076 0.0
O251 O 0.29406 0.67627 0.52358 0.0
C252 C 0.44805 0.52021 0.75082 0.0
O253 O 0.45707 0.51517 0.73892 0.0
Cd254 Cd 0.44729 0.51039 0.70846 0.0
O255 O 0.43325 0.52408 0.74705 0.0
Cd256 Cd 0.41279 0.5263 0.72218 0.0
C257 C 0.40583 0.47897 0.71457 0.0
O258 O 0.43557 0.53623 0.70345 0.0
O259 O 0.4086 0.52778 0.69044 0.0
O260 O 0.4131 0.55573 0.73762 0.0
C261 C 0.42561 0.53354 0.68927 0.0
O262 O 0.42172 0.48209 0.70924 0.0
C263 C 0.39596 0.55243 0.73664 0.0
O264 O 0.39967 0.49244 0.72029 0.0
O265 O 0.38646 0.53672 0.72867 0.0
C266 C 0.61758 0.01101 0.76429 0.0
O267 O 0.60621 0.01442 0.75329 0.0
Cd268 Cd 0.61387 0.02471 0.72519 0.0
O269 O 0.6331 0.01025 0.76012 0.0
Cd270 Cd 0.65056 0.01009 0.73493 0.0
C271 C 0.65548 0.05666 0.73911 0.0
O272 O 0.6274 0.00251 0.71261 0.0
O273 O 0.65452 0.01164 0.70378 0.0
O274 O 0.64957 0.97984 0.74378 0.0
C275 C 0.63749 0.00684 0.70015 0.0
O276 O 0.63929 0.0534 0.73226 0.0
C277 C 0.66656 0.98242 0.74353 0.0
O278 O 0.66255 0.04348 0.74236 0.0
O279 O 0.67626 0.99814 0.73903 0.0
C280 C 0.81454 0.66172 0.02525 0.0
O281 O 0.80168 0.65042 0.03209 0.0
Cd282 Cd 0.77184 0.65277 0.03345 0.0
O283 O 0.81212 0.67569 0.0175 0.0
Cd284 Cd 0.78633 0.68975 0.01067 0.0
C285 C 0.78528 0.69841 0.05503 0.0
O286 O 0.76307 0.65982 0.00531 0.0
O287 O 0.75296 0.6839 0.01032 0.0
O288 O 0.79628 0.69089 0.98086 0.0
C289 C 0.7495 0.66622 0.00616 0.0
O290 O 0.77813 0.68055 0.0543 0.0
C291 C 0.79447 0.70704 0.97815 0.0
O292 O 0.79043 0.70648 0.04119 0.0
O293 O 0.78968 0.71603 0.99099 0.0
C294 C 0.96052 0.54075 0.8214 0.0
O295 O 0.96959 0.53615 0.80935 0.0
Cd296 Cd 0.95833 0.53237 0.77924 0.0
O297 O 0.94598 0.54509 0.81785 0.0
Cd298 Cd 0.92544 0.54931 0.79511 0.0
C299 C 0.91635 0.50208 0.78591 0.0
O300 O 0.94779 0.55935 0.7755 0.0
O301 O 0.92033 0.55166 0.76374 0.0
O302 O 0.92407 0.57908 0.80926 0.0
C303 C 0.93721 0.55737 0.76183 0.0
O304 O 0.9318 0.50466 0.77965 0.0
C305 C 0.90686 0.57399 0.80912 0.0
O306 O 0.91131 0.51588 0.79264 0.0
O307 O 0.89857 0.55697 0.80335 0.0
C308 C 0.81683 0.44659 0.48518 0.0
O309 O 0.81243 0.45889 0.47658 0.0
Cd310 Cd 0.78029 0.44285 0.47024 0.0
O311 O 0.80446 0.43249 0.48894 0.0
Cd312 Cd 0.78143 0.40606 0.49603 0.0
C313 C 0.78396 0.39804 0.45337 0.0
O314 O 0.77086 0.4325 0.49854 0.0
O315 O 0.74995 0.40605 0.49969 0.0
O316 O 0.80328 0.4084 0.52097 0.0
C317 C 0.75454 0.42408 0.50074 0.0
O318 O 0.78299 0.41488 0.45185 0.0
C319 C 0.79454 0.39297 0.52659 0.0
O320 O 0.78292 0.39101 0.46807 0.0
O321 O 0.77991 0.38352 0.51779 0.0
C322 C 0.63049 0.53546 0.34242 0.0
O323 O 0.61985 0.53959 0.33113 0.0
Cd324 Cd 0.62117 0.53943 0.3003 0.0
O325 O 0.64362 0.52931 0.33799 0.0
Cd326 Cd 0.65686 0.52511 0.31076 0.0
C327 C 0.66249 0.57175 0.30819 0.0
O328 O 0.63037 0.51247 0.29071 0.0
O329 O 0.65573 0.5229 0.27913 0.0
O330 O 0.66518 0.49712 0.31774 0.0
C331 C 0.63881 0.51484 0.27695 0.0
O332 O 0.6462 0.56794 0.30151 0.0
C333 C 0.68156 0.50402 0.31423 0.0
O334 O 0.6691 0.55885 0.31322 0.0
O335 O 0.68652 0.52128 0.31099 0.0
Tb336 Tb 0.06125 0.04043 0.02775 0.0
Tb337 Tb 0.01911 0.0163 0.0153 0.0
C338 C 0.02945 0.04193 0.04959 0.0
C339 C 0.1088 0.04784 0.03502 0.0
C340 C 0.13459 0.02756 0.03567 0.0
C341 C 0.13877 0.04599 0.04426 0.0
C342 C 0.12584 0.05606 0.04403 0.0
C343 C 0.1048 0.02969 0.02613 0.0
C344 C 0.11747 0.01956 0.02659 0.0
C345 C 0.09419 0.05674 0.03628 0.0
O346 O 0.05957 0.01092 0.03101 0.0
O347 O 0.02899 0.99997 0.03416 0.0
O348 O 0.03487 0.0024 3e-05 0.0
O349 O 0.05956 0.02857 0.00084 0.0
O350 O 0.9931 0.00276 0.0225 0.0
O351 O 0.99866 0.00423 0.99517 0.0
O352 O 0.026 0.04151 0.00072 0.0
O353 O 0.04784 0.06136 0.02043 0.0
O354 O 0.04563 0.03955 0.05023 0.0
O355 O 0.01934 0.03883 0.03483 0.0
C356 C 0.04551 0.99812 0.03594 0.0
O357 O 0.08605 0.05821 0.02128 0.0
O358 O 0.08261 0.04961 0.04748 0.0
C359 C 0.04999 0.01164 0.99406 0.0
C360 C 0.97145 0.00894 0.00305 0.0
C361 C 0.94434 0.02649 0.99552 0.0
C362 C 0.94178 0.00735 0.98959 0.0
C363 C 0.95533 0.99862 0.99331 0.0
C364 C 0.97407 0.02803 0.0089 0.0
C365 C 0.9606 0.0367 0.00525 0.0
C366 C 0.98616 1.00042 0.00626 0.0
C367 C 0.03552 0.0587 0.00719 0.0
H368 H 0.15196 0.05258 0.05118 0.0
H369 H 0.129 0.07001 0.05108 0.0
H370 H 0.09162 0.02309 0.01919 0.0
H371 H 0.11367 0.00529 0.02014 0.0
H372 H 0.92936 0.99919 0.98207 0.0
H373 H 0.95329 0.98392 0.98854 0.0
H374 H 0.98655 0.03624 0.0163 0.0
H375 H 0.9628 0.05132 0.01039 0.0
Tb376 Tb 0.27257 0.77675 0.28599 0.0
Tb377 Tb 0.2971 0.77574 0.25206 0.0
C378 C 0.25788 0.77907 0.24746 0.0
C379 C 0.25014 0.76284 0.32585 0.0
C380 C 0.24475 0.73904 0.35325 0.0
C381 C 0.23365 0.75102 0.35066 0.0
C382 C 0.23632 0.76282 0.337 0.0
C383 C 0.26108 0.75075 0.32823 0.0
C384 C 0.25841 0.73895 0.34182 0.0
C385 C 0.25263 0.77472 0.31122 0.0
O386 O 0.27653 0.74899 0.2831 0.0
O387 O 0.2797 0.74732 0.25355 0.0
O388 O 0.31143 0.76705 0.27354 0.0
O389 O 0.30042 0.78064 0.29687 0.0
O390 O 0.29861 0.76629 0.22586 0.0
O391 O 0.32246 0.78372 0.24154 0.0
O392 O 0.30448 0.80463 0.26382 0.0
O393 O 0.27916 0.80526 0.2783 0.0
O394 O 0.25458 0.77078 0.26198 0.0
O395 O 0.27451 0.7857 0.24301 0.0
C396 C 0.27602 0.73917 0.26807 0.0
O397 O 0.2685 0.78715 0.31126 0.0
O398 O 0.24735 0.76541 0.29585 0.0
C399 C 0.31247 0.77298 0.29026 0.0
C400 C 0.31901 0.78961 0.21221 0.0
C401 C 0.32442 0.81399 0.18527 0.0
C402 C 0.33412 0.80047 0.18644 0.0
C403 C 0.33139 0.78833 0.19982 0.0
C404 C 0.30973 0.80345 0.21146 0.0
C405 C 0.31236 0.8155 0.19808 0.0
C406 C 0.31548 0.77645 0.22582 0.0
C407 C 0.29402 0.81377 0.27122 0.0
H408 H 0.22298 0.75131 0.35923 0.0
H409 H 0.22762 0.77193 0.33514 0.0
H410 H 0.27175 0.75053 0.31963 0.0
H411 H 0.26742 0.73016 0.34367 0.0
H412 H 0.34367 0.79914 0.1769 0.0
H413 H 0.33876 0.77781 0.20037 0.0
H414 H 0.30018 0.80467 0.22104 0.0
H415 H 0.30448 0.82555 0.19743 0.0
Tb416 Tb 0.50979 0.0209 0.51981 0.0
Tb417 Tb 0.5586 0.02736 0.51623 0.0
C418 C 0.53451 0.0118 0.54763 0.0
C419 C 0.46816 0.03643 0.51752 0.0
C420 C 0.44906 0.0636 0.52298 0.0
C421 C 0.4421 0.04514 0.52796 0.0
C422 C 0.45155 0.03166 0.52519 0.0
C423 C 0.47539 0.05502 0.51296 0.0
C424 C 0.46586 0.06844 0.51557 0.0
C425 C 0.47771 0.02189 0.51434 0.0
O426 O 0.5233 0.05035 0.52886 0.0
O427 O 0.55477 0.05319 0.52997 0.0
O428 O 0.55441 0.04058 0.49202 0.0
O429 O 0.53161 0.02931 0.50517 0.0
O430 O 0.5821 0.02833 0.53231 0.0
O431 O 0.58254 0.02863 0.50415 0.0
O432 O 0.54291 0.99957 0.50278 0.0
O433 O 0.51223 0.99337 0.50967 0.0
O434 O 0.51978 0.0173 0.54535 0.0
O435 O 0.54386 0.00814 0.5345 0.0
C436 C 0.54065 0.05992 0.53264 0.0
O437 O 0.48962 0.02504 0.50251 0.0
O438 O 0.4835 0.01539 0.52836 0.0
C439 C 0.5372 0.03783 0.49177 0.0
C440 C 0.60171 0.01286 0.51797 0.0
C441 C 0.62335 0.98748 0.51632 0.0
C442 C 0.61604 0.99262 0.50088 0.0
C443 C 0.60542 0.00519 0.50168 0.0
C444 C 0.60886 0.00758 0.53343 0.0
C445 C 0.61954 0.99501 0.53262 0.0
C446 C 0.59142 0.02716 0.51872 0.0
C447 C 0.52593 0.98839 0.50278 0.0
H448 H 0.4291 0.04097 0.53356 0.0
H449 H 0.44579 0.01744 0.52887 0.0
H450 H 0.48832 0.05917 0.50723 0.0
H451 H 0.47163 0.08262 0.51179 0.0
H452 H 0.61892 0.98732 0.48812 0.0
H453 H 0.60038 0.00913 0.48947 0.0
H454 H 0.60639 0.01334 0.54617 0.0
H455 H 0.62483 0.99119 0.54477 0.0
Tb456 Tb 0.31129 0.27958 0.7715 0.0
Tb457 Tb 0.2616 0.27669 0.76619 0.0
C458 C 0.28528 0.2459 0.77537 0.0
C459 C 0.35796 0.28978 0.758 0.0
C460 C 0.38327 0.28126 0.73581 0.0
C461 C 0.3851 0.27972 0.75396 0.0
C462 C 0.37261 0.28401 0.76495 0.0
C463 C 0.35601 0.29112 0.7398 0.0
C464 C 0.36858 0.28697 0.72885 0.0
C465 C 0.3447 0.29395 0.76976 0.0
O466 O 0.30101 0.26783 0.74449 0.0
O467 O 0.27078 0.27011 0.74029 0.0
O468 O 0.27085 0.30703 0.76261 0.0
O469 O 0.29215 0.29494 0.76822 0.0
O470 O 0.23913 0.25517 0.77246 0.0
O471 O 0.23572 0.27754 0.75696 0.0
O472 O 0.27119 0.28621 0.79384 0.0
O473 O 0.30236 0.28667 0.79753 0.0
O474 O 0.30283 0.24966 0.77593 0.0
O475 O 0.27994 0.26025 0.77097 0.0
C476 C 0.28576 0.26655 0.73466 0.0
O477 O 0.33226 0.30071 0.76264 0.0
O478 O 0.33803 0.28104 0.78037 0.0
C479 C 0.2883 0.31023 0.76454 0.0
C480 C 0.21443 0.26732 0.77801 0.0
C481 C 0.18984 0.27415 0.8019 0.0
C482 C 0.19947 0.28874 0.79236 0.0
C483 C 0.2117 0.2854 0.78058 0.0
C484 C 0.2047 0.25271 0.78744 0.0
C485 C 0.19257 0.2561 0.79931 0.0
C486 C 0.22774 0.26366 0.76605 0.0
C487 C 0.2868 0.2885 0.80353 0.0
H488 H 0.39641 0.27556 0.75973 0.0
H489 H 0.37439 0.28284 0.7789 0.0
H490 H 0.34478 0.29535 0.73396 0.0
H491 H 0.36672 0.2881 0.71489 0.0
H492 H 0.19771 0.30281 0.79417 0.0
H493 H 0.21908 0.29702 0.77361 0.0
H494 H 0.20654 0.23867 0.78569 0.0
H495 H 0.18511 0.2445 0.80629 0.0
Tb496 Tb 0.03921 0.03866 0.53777 0.0
Tb497 Tb 0.03808 0.0135 0.5016 0.0
C498 C 0.00229 0.01215 0.51849 0.0
C499 C 0.0458 0.05974 0.58371 0.0
C500 C 0.05736 0.05607 0.61831 0.0
C501 C 0.03896 0.05404 0.6137 0.0
C502 C 0.03324 0.05599 0.59653 0.0
C503 C 0.06429 0.06231 0.58847 0.0
C504 C 0.07001 0.06054 0.60564 0.0
C505 C 0.03928 0.05964 0.56531 0.0
O506 O 0.04321 0.01278 0.54843 0.0
O507 O 0.04032 0.99429 0.52231 0.0
O508 O 0.06537 0.03227 0.50664 0.0
O509 O 0.06706 0.03811 0.53635 0.0
O510 O 0.02734 0.98767 0.4861 0.0
O511 O 0.05087 0.00868 0.47895 0.0
O512 O 0.03257 0.03883 0.49107 0.0
O513 O 0.03843 0.05816 0.51687 0.0
O514 O 0.01179 0.01984 0.53322 0.0
O515 O 0.00988 0.01217 0.50366 0.0
C516 C 0.04219 0.99625 0.53973 0.0
O517 O 0.05158 0.06358 0.55406 0.0
O518 O 0.02562 0.04525 0.55931 0.0
C519 C 0.07487 0.03859 0.52162 0.0
C520 C 0.02929 0.99302 0.45634 0.0
C521 C 0.01472 1.00004 0.4241 0.0
C522 C 0.0325 0.99843 0.42578 0.0
C523 C 0.03972 0.99489 0.44182 0.0
C524 C 0.01127 0.99382 0.45447 0.0
C525 C 0.00401 0.99717 0.43844 0.0
C526 C 0.03809 0.99318 0.47378 0.0
C527 C 0.0351 0.05581 0.49955 0.0
H528 H 0.02901 0.05068 0.62331 0.0
H529 H 0.01893 0.05402 0.59312 0.0
H530 H 0.0743 0.06514 0.57888 0.0
H531 H 0.08424 0.0619 0.60883 0.0
H532 H 0.04109 1.00074 0.41495 0.0
H533 H 0.05372 0.99455 0.44312 0.0
H534 H 0.00298 0.99261 0.46554 0.0
H535 H 0.99015 0.99797 0.43739 0.0
Tb536 Tb 0.29945 0.8039 0.76227 0.0
Tb537 Tb 0.27821 0.75486 0.76701 0.0
C538 C 0.29632 0.77721 0.73499 0.0
C539 C 0.29922 0.85285 0.76362 0.0
C540 C 0.27424 0.87359 0.75766 0.0
C541 C 0.28834 0.87453 0.74659 0.0
C542 C 0.30077 0.86427 0.74959 0.0
C543 C 0.28534 0.85223 0.7749 0.0
C544 C 0.27305 0.86257 0.77199 0.0
C545 C 0.31014 0.83947 0.76459 0.0
O546 O 0.26997 0.79711 0.75182 0.0
O547 O 0.25542 0.76618 0.75872 0.0
O548 O 0.2812 0.76662 0.79357 0.0
O549 O 0.28217 0.79534 0.7837 0.0
O550 O 0.27838 0.73173 0.74975 0.0
O551 O 0.26198 0.72821 0.77235 0.0
O552 O 0.30685 0.75995 0.77799 0.0
O553 O 0.32113 0.79162 0.77288 0.0
O554 O 0.30435 0.79493 0.73546 0.0
O555 O 0.2913 0.77367 0.75031 0.0
C556 C 0.25498 0.78241 0.75221 0.0
O557 O 0.30877 0.82969 0.77821 0.0
O558 O 0.3092 0.82883 0.75007 0.0
C559 C 0.28508 0.7851 0.79636 0.0
C560 C 0.27606 0.70441 0.76396 0.0
C561 C 0.29526 0.67822 0.77113 0.0
C562 C 0.29067 0.68915 0.78496 0.0
C563 C 0.28117 0.70222 0.7814 0.0
C564 C 0.28012 0.69306 0.75022 0.0
C565 C 0.28972 0.68015 0.75375 0.0
C566 C 0.26844 0.71977 0.75958 0.0
C567 C 0.32155 0.77505 0.77881 0.0
H568 H 0.2896 0.88294 0.73548 0.0
H569 H 0.31122 0.8647 0.74058 0.0
H570 H 0.28365 0.8434 0.78573 0.0
H571 H 0.26266 0.86203 0.78109 0.0
H572 H 0.29465 0.6878 0.79847 0.0
H573 H 0.27832 0.71095 0.79225 0.0
H574 H 0.27651 0.69474 0.73668 0.0
H575 H 0.29338 0.6722 0.74279 0.0
Tb576 Tb 0.53559 0.01225 0.03855 0.0
Tb577 Tb 0.52897 0.03187 0.00327 0.0
C578 C 0.56674 0.03127 0.01767 0.0
C579 C 0.53768 0.00287 0.08381 0.0
C580 C 0.52757 0.01159 0.11713 0.0
C581 C 0.53664 0.99761 0.11456 0.0
C582 C 0.54175 0.9933 0.09789 0.0
C583 C 0.52861 0.01674 0.08639 0.0
C584 C 0.52358 0.02106 0.1029 0.0
C585 C 0.54227 0.99841 0.06619 0.0
O586 O 0.53961 0.043 0.04763 0.0
O587 O 0.52733 0.05371 0.0237 0.0
O588 O 0.5026 0.02224 0.01307 0.0
O589 O 0.50914 0.01597 0.04129 0.0
O590 O 0.53717 0.05421 0.9874 0.0
O591 O 0.51354 0.03059 0.97956 0.0
O592 O 0.5336 0.00436 0.99379 0.0
O593 O 0.5269 0.98809 0.018 0.0
O594 O 0.55886 0.01529 0.02368 0.0
O595 O 0.55731 0.04223 0.01228 0.0
C596 C 0.53384 0.05636 0.04029 0.0
O597 O 0.5282 0.99048 0.0551 0.0
O598 O 0.55392 0.01237 0.05984 0.0
C599 C 0.49826 0.01941 0.02914 0.0
C600 C 0.53223 0.043 0.95795 0.0
C601 C 0.54727 0.03805 0.92624 0.0
C602 C 0.53756 0.0515 0.92844 0.0
C603 C 0.52999 0.05392 0.94428 0.0
C604 C 0.542 0.02969 0.95577 0.0
C605 C 0.5494 0.02716 0.94 0.0
C606 C 0.52498 0.04569 0.97475 0.0
C607 C 0.53017 0.98821 0.00124 0.0
H608 H 0.53975 0.9901 0.12539 0.0
H609 H 0.54869 0.98248 0.09595 0.0
H610 H 0.52522 0.02409 0.07555 0.0
H611 H 0.51617 0.03152 0.10444 0.0
H612 H 0.53578 0.06001 0.91792 0.0
H613 H 0.52253 0.06433 0.94591 0.0
H614 H 0.54408 0.02138 0.96633 0.0
H615 H 0.5571 0.01694 0.93867 0.0
Tb616 Tb 0.2764 0.25071 0.26028 0.0
Tb617 Tb 0.29361 0.2936 0.27606 0.0
C618 C 0.27563 0.28459 0.23707 0.0
C619 C 0.27706 0.20308 0.25037 0.0
C620 C 0.3005 0.18036 0.25317 0.0
C621 C 0.28614 0.17554 0.23996 0.0
C622 C 0.27439 0.18693 0.23857 0.0
C623 C 0.29155 0.20793 0.26337 0.0
C624 C 0.30316 0.1967 0.26474 0.0
C625 C 0.2664 0.21638 0.24836 0.0
O626 O 0.30654 0.25608 0.25892 0.0
O627 O 0.31541 0.28845 0.26048 0.0
O628 O 0.30412 0.27655 0.29369 0.0
O629 O 0.28045 0.24997 0.28852 0.0
O630 O 0.30724 0.32224 0.27413 0.0
O631 O 0.29973 0.31217 0.29909 0.0
O632 O 0.26522 0.28616 0.28441 0.0
O633 O 0.25154 0.25832 0.26742 0.0
O634 O 0.27398 0.26655 0.23802 0.0
O635 O 0.28052 0.29697 0.25095 0.0
C636 C 0.31887 0.27218 0.25641 0.0
O637 O 0.26125 0.22268 0.26292 0.0
O638 O 0.27368 0.23014 0.23905 0.0
C639 C 0.29393 0.26087 0.29897 0.0
C640 C 0.29364 0.33986 0.29237 0.0
C641 C 0.27018 0.36234 0.29722 0.0
C642 C 0.28767 0.36791 0.30598 0.0
C643 C 0.29936 0.35658 0.30364 0.0
C644 C 0.27624 0.33442 0.28361 0.0
C645 C 0.26461 0.34553 0.28602 0.0
C646 C 0.30479 0.32696 0.29033 0.0
C647 C 0.25041 0.2722 0.27893 0.0
H648 H 0.28395 0.16299 0.23089 0.0
H649 H 0.26347 0.1833 0.22824 0.0
H650 H 0.2941 0.22065 0.27231 0.0
H651 H 0.31439 0.20093 0.27478 0.0
H652 H 0.29222 0.38092 0.3146 0.0
H653 H 0.31272 0.36077 0.31062 0.0
H654 H 0.27161 0.32149 0.27489 0.0
H655 H 0.25139 0.34116 0.27876 0.0
Tb656 Tb 0.5398 0.53871 0.0375 0.0
Tb657 Tb 0.53784 0.51352 0.00104 0.0
C658 C 0.50267 0.51301 0.01869 0.0
C659 C 0.54715 0.55873 0.08359 0.0
C660 C 0.56031 0.55237 0.1168 0.0
C661 C 0.54157 0.54671 0.112 0.0
C662 C 0.53503 0.54993 0.09554 0.0
C663 C 0.5658 0.56542 0.08884 0.0
C664 C 0.57232 0.56223 0.1053 0.0
C665 C 0.54051 0.55946 0.06534 0.0
O666 O 0.54385 0.51262 0.04772 0.0
O667 O 0.5391 0.49375 0.02158 0.0
O668 O 0.56603 0.53012 0.00647 0.0
O669 O 0.56742 0.53769 0.03606 0.0
O670 O 0.52592 0.48794 0.98546 0.0
O671 O 0.54934 0.50857 0.9776 0.0
O672 O 0.53329 0.53942 0.99092 0.0
O673 O 0.53925 0.55851 0.01685 0.0
O674 O 0.51246 0.51977 0.03345 0.0
O675 O 0.51007 0.51378 0.00373 0.0
C676 C 0.54181 0.49584 0.03898 0.0
O677 O 0.55278 0.56323 0.05406 0.0
O678 O 0.52642 0.54565 0.05905 0.0
C679 C 0.57537 0.53687 0.02151 0.0
C680 C 0.52646 0.49379 0.95588 0.0
C681 C 0.51064 0.49959 0.9237 0.0
C682 C 0.52545 0.4919 0.92417 0.0
C683 C 0.53332 0.48904 0.9402 0.0
C684 C 0.51143 0.50104 0.95542 0.0
C685 C 0.50352 0.50383 0.93946 0.0
C686 C 0.53612 0.49334 0.97271 0.0
C687 C 0.53597 0.55632 -0.00047 0.0
H688 H 0.53202 0.53905 0.12064 0.0
H689 H 0.52056 0.54484 0.0919 0.0
H690 H 0.57548 0.57254 0.08005 0.0
H691 H 0.58681 0.56711 0.10887 0.0
H692 H 0.53134 0.48873 0.91222 0.0
H693 H 0.54511 0.48372 0.9404 0.0
H694 H 0.50608 0.50504 0.96744 0.0
H695 H 0.49199 0.50954 0.93947 0.0
Tb696 Tb 0.79825 0.30199 0.25985 0.0
Tb697 Tb 0.77611 0.25498 0.26948 0.0
C698 C 0.79699 0.27217 0.2362 0.0
C699 C 0.79788 0.3501 0.26138 0.0
C700 C 0.77409 0.37264 0.26088 0.0
C701 C 0.79226 0.38015 0.25707 0.0
C702 C 0.80412 0.36885 0.25725 0.0
C703 C 0.77979 0.34264 0.26517 0.0
C704 C 0.76797 0.35377 0.26485 0.0
C705 C 0.80921 0.33731 0.25994 0.0
O706 O 0.76882 0.29428 0.24892 0.0
O707 O 0.75349 0.26609 0.2606 0.0
O708 O 0.77934 0.27037 0.29459 0.0
O709 O 0.78029 0.29718 0.28124 0.0
O710 O 0.76911 0.2299 0.25285 0.0
O711 O 0.76463 0.2297 0.28072 0.0
O712 O 0.80526 0.25958 0.27869 0.0
O713 O 0.81974 0.29067 0.27232 0.0
O714 O 0.80497 0.2897 0.235 0.0
O715 O 0.79058 0.27064 0.25124 0.0
C716 C 0.75346 0.28086 0.25148 0.0
O717 O 0.8107 0.32846 0.27385 0.0
O718 O 0.8052 0.32579 0.24563 0.0
C719 C 0.78266 0.28882 0.29542 0.0
C720 C 0.77709 0.20689 0.26809 0.0
C721 C 0.79987 0.18378 0.27319 0.0
C722 C 0.78153 0.17754 0.27679 0.0
C723 C 0.77016 0.1891 0.27426 0.0
C724 C 0.79544 0.21317 0.26471 0.0
C725 C 0.80674 0.20175 0.26728 0.0
C726 C 0.76582 0.21967 0.2662 0.0
C727 C 0.82011 0.27439 0.27884 0.0
H728 H 0.79735 0.39476 0.25418 0.0
H729 H 0.818 0.37465 0.25403 0.0
H730 H 0.77469 0.32804 0.26806 0.0
H731 H 0.75399 0.34753 0.26758 0.0
H732 H 0.77594 0.16365 0.28126 0.0
H733 H 0.75606 0.18421 0.27713 0.0
H734 H 0.80112 0.22696 0.2601 0.0
H735 H 0.82089 0.207 0.26467 0.0
Tb736 Tb 0.03742 0.51602 0.53401 0.0
Tb737 Tb 0.02987 0.53438 0.49865 0.0
C738 C 0.06867 0.53536 0.51282 0.0
C739 C 0.03359 0.50355 0.57882 0.0
C740 C 0.01744 0.50688 0.61024 0.0
C741 C 0.03339 0.50117 0.61014 0.0
C742 C 0.04139 0.49939 0.59441 0.0
C743 C 0.01776 0.50942 0.579 0.0
C744 C 0.00967 0.51094 0.59457 0.0
C745 C 0.04192 0.50214 0.56233 0.0
O746 O 0.04107 0.5467 0.54207 0.0
O747 O 0.02332 0.55303 0.51976 0.0
O748 O 0.0046 0.51489 0.50357 0.0
O749 O 0.00941 0.51586 0.53327 0.0
O750 O 0.03548 0.55845 0.48459 0.0
O751 O 0.01599 0.53234 0.47391 0.0
O752 O 0.03802 0.50881 0.48907 0.0
O753 O 0.03156 0.49217 0.51314 0.0
O754 O 0.062 0.52035 0.52093 0.0
O755 O 0.05837 0.54518 0.50673 0.0
C756 C 0.03209 0.55794 0.5355 0.0
O757 O 0.03063 0.493 0.54919 0.0
O758 O 0.05268 0.51798 0.55805 0.0
C759 C 0.99862 0.51147 0.51892 0.0
C760 C 0.03614 0.54833 0.45506 0.0
C761 C 0.05303 0.5389 0.42571 0.0
C762 C 0.03561 0.54146 0.42366 0.0
C763 C 0.02719 0.54613 0.43831 0.0
C764 C 0.05388 0.54669 0.45701 0.0
C765 C 0.06229 0.5421 0.44243 0.0
C766 C 0.02606 0.54887 0.47056 0.0
C767 C 0.03507 0.49258 0.49644 0.0
H768 H 0.03957 0.49805 0.62218 0.0
H769 H 0.05365 0.49491 0.59443 0.0
H770 H 0.0117 0.51292 0.5671 0.0
H771 H 0.99755 0.51569 0.59446 0.0
H772 H 0.02815 0.53893 0.41089 0.0
H773 H 0.01339 0.54703 0.43667 0.0
H774 H 0.06093 0.54805 0.46989 0.0
H775 H 0.07584 0.54053 0.4443 0.0
Tb776 Tb 0.81226 0.77659 0.27368 0.0
Tb777 Tb 0.76441 0.77502 0.26779 0.0
C778 C 0.78546 0.74387 0.27801 0.0
C779 C 0.85838 0.78217 0.2603 0.0
C780 C 0.8821 0.77567 0.23543 0.0
C781 C 0.88609 0.7746 0.25341 0.0
C782 C 0.87434 0.77789 0.26574 0.0
C783 C 0.85411 0.78272 0.24229 0.0
C784 C 0.86593 0.77963 0.22999 0.0
C785 C 0.8463 0.78605 0.27341 0.0
O786 O 0.80228 0.76785 0.2459 0.0
O787 O 0.77118 0.76625 0.24188 0.0
O788 O 0.77833 0.80104 0.25798 0.0
O789 O 0.80291 0.80187 0.27611 0.0
O790 O 0.73957 0.75407 0.26879 0.0
O791 O 0.74078 0.78287 0.26282 0.0
O792 O 0.77337 0.78496 0.29534 0.0
O793 O 0.80288 0.78126 0.29997 0.0
O794 O 0.80277 0.74671 0.27902 0.0
O795 O 0.78181 0.75866 0.27284 0.0
C796 C 0.78674 0.7648 0.23608 0.0
O797 O 0.83621 0.79669 0.26874 0.0
O798 O 0.83717 0.77155 0.28109 0.0
C799 C 0.79556 0.80839 0.26299 0.0
C800 C 0.71695 0.7678 0.27952 0.0
C801 C 0.69097 0.7708 0.30336 0.0
C802 C 0.69719 0.78504 0.29214 0.0
C803 C 0.70994 0.7835 0.2803 0.0
C804 C 0.71076 0.75353 0.29075 0.0
C805 C 0.69787 0.75501 0.30255 0.0
C806 C 0.73047 0.76654 0.26682 0.0
C807 C 0.78792 0.78485 0.30559 0.0
H808 H 0.89854 0.77171 0.25797 0.0
H809 H 0.87781 0.77728 0.27955 0.0
H810 H 0.84171 0.78571 0.23771 0.0
H811 H 0.86244 0.78033 0.21621 0.0
H812 H 0.6919 0.79719 0.29224 0.0
H813 H 0.71424 0.79463 0.27166 0.0
H814 H 0.71581 0.7412 0.29042 0.0
H815 H 0.69337 0.74385 0.31111 0.0
Tb816 Tb 0.77173 0.27843 0.78764 0.0
Tb817 Tb 0.79643 0.27732 0.75388 0.0
C818 C 0.75668 0.28084 0.7496 0.0
C819 C 0.74939 0.26372 0.82665 0.0
C820 C 0.74708 0.23981 0.85374 0.0
C821 C 0.73781 0.25376 0.85426 0.0
C822 C 0.73905 0.26576 0.84076 0.0
C823 C 0.75775 0.24909 0.82568 0.0
C824 C 0.75662 0.23725 0.83911 0.0
C825 C 0.75268 0.27735 0.81343 0.0
O826 O 0.7644 0.24951 0.77574 0.0
O827 O 0.78951 0.24856 0.76097 0.0
O828 O 0.81422 0.28097 0.77784 0.0
O829 O 0.79339 0.26701 0.7967 0.0
O830 O 0.79995 0.26742 0.72825 0.0
O831 O 0.82138 0.2889 0.74356 0.0
O832 O 0.79348 0.30545 0.75832 0.0
O833 O 0.79126 0.30608 0.78789 0.0
O834 O 0.75837 0.28806 0.766 0.0
O835 O 0.7684 0.27251 0.74342 0.0
C836 C 0.77466 0.24019 0.76816 0.0
O837 O 0.76948 0.28779 0.8137 0.0
O838 O 0.74605 0.27038 0.79754 0.0
C839 C 0.81013 0.27267 0.79226 0.0
C840 C 0.81769 0.29208 0.71363 0.0
C841 C 0.82172 0.31583 0.68614 0.0
C842 C 0.83101 0.30191 0.6867 0.0
C843 C 0.82902 0.29013 0.70038 0.0
C844 C 0.80849 0.30601 0.71322 0.0
C845 C 0.81053 0.31784 0.69963 0.0
C846 C 0.81572 0.27993 0.7281 0.0
C847 C 0.79603 0.31478 0.77386 0.0
H848 H 0.73045 0.256 0.86548 0.0
H849 H 0.73249 0.27698 0.84163 0.0
H850 H 0.76573 0.2473 0.81481 0.0
H851 H 0.76375 0.22648 0.83838 0.0
H852 H 0.83949 0.2998 0.67636 0.0
H853 H 0.83622 0.27945 0.70056 0.0
H854 H 0.7997 0.30771 0.7234 0.0
H855 H 0.80335 0.32854 0.6997 0.0
Tb856 Tb 0.77759 0.75168 0.76119 0.0
Tb857 Tb 0.79457 0.79438 0.7767 0.0
C858 C 0.7775 0.78402 0.73766 0.0
C859 C 0.77833 0.70485 0.7466 0.0
C860 C 0.80119 0.68128 0.74403 0.0
C861 C 0.7831 0.67479 0.73668 0.0
C862 C 0.77171 0.68661 0.7379 0.0
C863 C 0.79641 0.71138 0.75363 0.0
C864 C 0.80773 0.69975 0.75236 0.0
C865 C 0.76699 0.71764 0.74841 0.0
O866 O 0.80531 0.76022 0.75142 0.0
O867 O 0.81915 0.78515 0.77156 0.0
O868 O 0.79085 0.77807 0.79913 0.0
O869 O 0.79265 0.75014 0.786 0.0
O870 O 0.80837 0.82249 0.77292 0.0
O871 O 0.80106 0.81475 0.79854 0.0
O872 O 0.76458 0.78999 0.77777 0.0
O873 O 0.75531 0.75754 0.77596 0.0
O874 O 0.76745 0.76799 0.74249 0.0
O875 O 0.7906 0.79505 0.74847 0.0
C876 C 0.82036 0.77284 0.75852 0.0
O877 O 0.76502 0.7231 0.76456 0.0
O878 O 0.77137 0.73193 0.73896 0.0
C879 C 0.79289 0.76123 0.80029 0.0
C880 C 0.79564 0.84215 0.78971 0.0
C881 C 0.774 0.86678 0.79131 0.0
C882 C 0.78983 0.87061 0.80263 0.0
C883 C 0.8007 0.85826 0.80181 0.0
C884 C 0.77952 0.83815 0.77881 0.0
C885 C 0.7688 0.85038 0.7796 0.0
C886 C 0.80622 0.82862 0.78877 0.0
C887 C 0.75201 0.77398 0.78005 0.0
H888 H 0.77774 0.66055 0.73027 0.0
H889 H 0.75778 0.68147 0.73231 0.0
H890 H 0.80172 0.72542 0.76046 0.0
H891 H 0.8214 0.705 0.7586 0.0
H892 H 0.79396 0.88329 0.81173 0.0
H893 H 0.81298 0.86129 0.81047 0.0
H894 H 0.77528 0.82561 0.76956 0.0
H895 H 0.75649 0.84713 0.77092 0.0
Tb896 Tb 0.56147 0.54051 0.52691 0.0
Tb897 Tb 0.51871 0.51696 0.51969 0.0
C898 C 0.53434 0.53935 0.55431 0.0
C899 C 0.61045 0.55075 0.53446 0.0
C900 C 0.63634 0.53138 0.54087 0.0
C901 C 0.63365 0.54449 0.5539 0.0
C902 C 0.62074 0.55413 0.5507 0.0
C903 C 0.61392 0.53841 0.52114 0.0
C904 C 0.62679 0.52885 0.52432 0.0
C905 C 0.59466 0.55807 0.53234 0.0
O906 O 0.561 0.51094 0.52897 0.0
O907 O 0.53099 0.49928 0.53479 0.0
O908 O 0.53202 0.50373 0.50091 0.0
O909 O 0.55539 0.53059 0.49936 0.0
O910 O 0.49394 0.50567 0.53052 0.0
O911 O 0.49602 0.50335 0.50243 0.0
O912 O 0.52298 0.54198 0.50509 0.0
O913 O 0.54723 0.56156 0.52233 0.0
O914 O 0.54965 0.5358 0.5516 0.0
O915 O 0.52294 0.539 0.54099 0.0
C916 C 0.54758 0.49761 0.53441 0.0
O917 O 0.5859 0.55456 0.51686 0.0
O918 O 0.58362 0.5548 0.54476 0.0
C919 C 0.54525 0.51381 0.49282 0.0
C920 C 0.47118 0.51144 0.51234 0.0
C921 C 0.44539 0.53065 0.5051 0.0
C922 C 0.44012 0.51072 0.50471 0.0
C923 C 0.45302 0.50115 0.50822 0.0
C924 C 0.47646 0.53127 0.51281 0.0
C925 C 0.46371 0.54081 0.50905 0.0
C926 C 0.48512 0.50188 0.51502 0.0
C927 C 0.53351 0.55907 0.51053 0.0
H928 H 0.64099 0.54671 0.56671 0.0
H929 H 0.61821 0.56358 0.56114 0.0
H930 H 0.60626 0.53551 0.50845 0.0
H931 H 0.62902 0.51918 0.51391 0.0
H932 H 0.42602 0.50258 0.50204 0.0
H933 H 0.44885 0.48581 0.50774 0.0
H934 H 0.49051 0.53939 0.51595 0.0
H935 H 0.46821 0.55612 0.50928 0.0
Tb936 Tb 0.01051 0.52173 0.01886 0.0
Tb937 Tb 0.05972 0.52805 0.01428 0.0
C938 C 0.03673 0.51824 0.04686 0.0
C939 C 0.9678 0.53638 0.01663 0.0
C940 C 0.94583 0.56067 0.02344 0.0
C941 C 0.9471 0.54712 0.03506 0.0
C942 C 0.95793 0.53502 0.03165 0.0
C943 C 0.96666 0.55012 0.0052 0.0
C944 C 0.95592 0.56217 0.00861 0.0
C945 C 0.97867 0.52319 0.01227 0.0
O946 O 0.02466 0.55084 0.02877 0.0
O947 O 0.05607 0.55494 0.0257 0.0
O948 O 0.05444 0.53893 0.98919 0.0
O949 O 0.03193 0.52826 0.00322 0.0
O950 O 0.0833 0.53003 0.03057 0.0
O951 O 0.08349 0.52827 0.00223 0.0
O952 O 0.044 0.4992 0.0031 0.0
O953 O 0.01311 0.49391 0.00938 0.0
O954 O 0.0206 0.52092 0.0451 0.0
O955 O 0.04341 0.51142 0.03322 0.0
C956 C 0.04202 0.56099 0.03028 0.0
O957 O 0.99197 0.52949 0.00233 0.0
O958 O 0.98322 0.51381 0.02489 0.0
C959 C 0.03719 0.53584 0.98922 0.0
C960 C 0.10335 0.51447 0.01705 0.0
C961 C 0.12432 0.48851 0.01554 0.0
C962 C 0.12695 0.50301 0.0042 0.0
C963 C 0.11664 0.51586 0.00501 0.0
C964 C 0.1005 0.49992 0.02833 0.0
C965 C 0.11092 0.48708 0.0276 0.0
C966 C 0.0926 0.52822 0.01708 0.0
C967 C 0.02686 0.48833 0.00317 0.0
H968 H 0.93936 0.54553 0.04651 0.0
H969 H 0.95837 0.52446 0.04063 0.0
H970 H 0.97396 0.5515 0.99345 0.0
H971 H 0.95547 0.57265 -0.00045 0.0
H972 H 0.13688 0.50437 0.99454 0.0
H973 H 0.11899 0.52688 0.99609 0.0
H974 H 0.09028 0.49845 0.0377 0.0
H975 H 0.10867 0.47621 0.03666 0.0
H976 H 0.0066 0.21778 0.97176 0.0
H977 H 0.01153 0.19018 0.98512 0.0
H978 H 0.9975 0.15707 0.93499 0.0
H979 H 0.9924 0.1844 0.92154 0.0
H980 H 0.98364 0.14523 0.97879 0.0
H981 H 0.05441 0.16265 0.95831 0.0
H982 H 0.04336 0.18083 0.96331 0.0
H983 H 0.03657 0.16548 0.94339 0.0
C984 C 0.00424 0.20453 0.96364 0.0
C985 C 0.99911 0.20332 0.94556 0.0
C986 C 0.00709 0.1888 0.97129 0.0
C987 C 0.00494 0.17166 0.961 0.0
C988 C 0.99921 0.17019 0.94313 0.0
H989 H 0.01915 0.06103 0.97506 0.0
H990 H 0.0115 0.08867 0.96436 0.0
C991 C 0.99627 0.18584 0.93549 0.0
C992 C 0.00972 0.15558 0.96855 0.0
H993 H 0.04371 0.13417 0.97155 0.0
C994 C 0.99677 0.14282 0.97729 0.0
C995 C 0.02688 0.15255 0.96657 0.0
C996 C 0.04123 0.16607 0.95745 0.0
C997 C 1.00052 0.12687 0.98387 0.0
C998 C 0.01759 0.12372 0.98165 0.0
C999 C 0.03061 0.13663 0.97314 0.0
C1000 C 0.02216 0.10705 0.98813 0.0
C1001 C 0.98628 0.11338 0.99313 0.0
C1002 C 0.03085 0.10837 0.00494 0.0
C1003 C 0.03541 0.09272 0.011 0.0
C1004 C 0.03124 0.07541 0.0004 0.0
C1005 C 0.02249 0.07414 0.98355 0.0
C1006 C 0.0181 0.08988 0.97743 0.0
H1007 H 0.97358 0.11769 0.99365 0.0
H1008 H 0.98303 0.09888 0.9863 0.0
H1009 H 0.99168 0.11272 0.00674 0.0
H1010 H 0.03404 0.12151 0.01338 0.0
H1011 H 0.04193 0.09411 0.02412 0.0
H1012 H 0.11028 0.80009 0.17601 0.0
H1013 H 0.13603 0.79643 0.19415 0.0
H1014 H 0.16861 0.80392 0.14981 0.0
H1015 H 0.14287 0.80761 0.13147 0.0
H1016 H 0.16673 0.76977 0.17013 0.0
H1017 H 0.18509 0.83896 0.2112 0.0
H1018 H 0.16142 0.82586 0.20803 0.0
H1019 H 0.17307 0.83555 0.18971 0.0
C1020 C 0.12298 0.8012 0.17014 0.0
C1021 C 0.12455 0.80419 0.15229 0.0
C1022 C 0.13767 0.79911 0.18054 0.0
C1023 C 0.1542 0.80001 0.17332 0.0
C1024 C 0.15593 0.80322 0.15559 0.0
H1025 H 0.25951 0.80091 0.21993 0.0
H1026 H 0.23408 0.80553 0.20189 0.0
C1027 C 0.14125 0.80538 0.14516 0.0
C1028 C 0.16947 0.79694 0.18415 0.0
H1029 H 0.20091 0.81697 0.21847 0.0
C1030 C 0.17425 0.78008 0.18067 0.0
C1031 C 0.17914 0.81042 0.19791 0.0
C1032 C 0.17458 0.8288 0.20197 0.0
C1033 C 0.18845 0.77631 0.19073 0.0
C1034 C 0.1981 0.7898 0.20447 0.0
C1035 C 0.1934 0.80669 0.2079 0.0
C1036 C 0.21336 0.7867 0.21525 0.0
C1037 C 0.19317 0.75803 0.18663 0.0
C1038 C 0.21002 0.77458 0.22871 0.0
C1039 C 0.22449 0.77198 0.23911 0.0
C1040 C 0.24254 0.78138 0.23614 0.0
C1041 C 0.24579 0.79339 0.22251 0.0
C1042 C 0.2313 0.7961 0.21223 0.0
H1043 H 0.18546 0.74979 0.17453 0.0
H1044 H 0.20793 0.76103 0.18502 0.0
H1045 H 0.19009 0.74915 0.19778 0.0
H1046 H 0.19622 0.76726 0.23123 0.0
H1047 H 0.22152 0.76262 0.24949 0.0
H1048 H 0.53525 0.83694 0.42424 0.0
H1049 H 0.53506 0.86701 0.43951 0.0
H1050 H 0.49565 0.83738 0.47313 0.0
H1051 H 0.49584 0.80693 0.45791 0.0
H1052 H 0.50306 0.87902 0.44045 0.0
H1053 H 0.53445 0.87681 0.50728 0.0
H1054 H 0.5373 0.8619 0.48851 0.0
H1055 H 0.51615 0.85651 0.49853 0.0
C1056 C 0.5267 0.83672 0.43504 0.0
C1057 C 0.51546 0.81953 0.43979 0.0
C1058 C 0.52661 0.85395 0.44374 0.0
C1059 C 0.51534 0.8544 0.45741 0.0
C1060 C 0.50459 0.83729 0.46271 0.0
H1061 H 0.49665 0.95806 0.50683 0.0
H1062 H 0.49214 0.92476 0.49625 0.0
C1063 C 0.50471 0.81993 0.45401 0.0
C1064 C 0.51411 0.87296 0.46508 0.0
H1065 H 0.52558 0.90416 0.5019 0.0
C1066 C 0.50781 0.88445 0.45394 0.0
C1067 C 0.52031 0.87994 0.48267 0.0
C1068 C 0.52756 0.86827 0.49499 0.0
C1069 C 0.508 0.90295 0.45981 0.0
C1070 C 0.51469 0.91011 0.4772 0.0
C1071 C 0.52043 0.89848 0.48856 0.0
C1072 C 0.5171 0.93014 0.48333 0.0
C1073 C 0.50152 0.915 0.44733 0.0
C1074 C 0.53256 0.94404 0.47937 0.0
C1075 C 0.53523 0.96302 0.48537 0.0
C1076 C 0.52242 0.96844 0.4954 0.0
C1077 C 0.50674 0.95443 0.49906 0.0
C1078 C 0.50416 0.93539 0.49313 0.0
H1079 H 0.49481 0.90668 0.43487 0.0
H1080 H 0.49182 0.92161 0.4536 0.0
H1081 H 0.51327 0.92663 0.44418 0.0
H1082 H 0.54264 0.94016 0.47175 0.0
H1083 H 0.54741 0.97341 0.48223 0.0
H1084 H 0.52295 0.24945 0.66986 0.0
H1085 H 0.49343 0.24662 0.68131 0.0
H1086 H 0.48762 0.29311 0.65273 0.0
H1087 H 0.51697 0.29568 0.64078 0.0
H1088 H 0.48594 0.27351 0.70219 0.0
H1089 H 0.43757 0.25639 0.64295 0.0
H1090 H 0.46045 0.25454 0.64253 0.0
H1091 H 0.45613 0.27722 0.64172 0.0
C1092 C 0.51528 0.2589 0.66578 0.0
C1093 C 0.52233 0.27286 0.65448 0.0
C1094 C 0.49838 0.25723 0.67231 0.0
C1095 C 0.48822 0.26951 0.66775 0.0
C1096 C 0.49501 0.28317 0.65611 0.0
H1097 H 0.39913 0.30233 0.71006 0.0
H1098 H 0.42349 0.29761 0.69265 0.0
C1099 C 0.51185 0.28471 0.64939 0.0
C1100 C 0.47152 0.26926 0.67662 0.0
H1101 H 0.42659 0.26654 0.66953 0.0
C1102 C 0.47291 0.27175 0.69504 0.0
C1103 C 0.45456 0.26706 0.66727 0.0
C1104 C 0.452 0.26347 0.64753 0.0
C1105 C 0.45797 0.2726 0.70437 0.0
C1106 C 0.44108 0.27066 0.69504 0.0
C1107 C 0.43958 0.26799 0.67662 0.0
C1108 C 0.42509 0.27221 0.70425 0.0
C1109 C 0.46054 0.27618 0.72414 0.0
C1110 C 0.41762 0.25919 0.7162 0.0
C1111 C 0.40376 0.26189 0.72621 0.0
C1112 C 0.39701 0.27755 0.7243 0.0
C1113 C 0.40398 0.29007 0.71175 0.0
C1114 C 0.4179 0.28742 0.70181 0.0
H1115 H 0.47513 0.2815 0.72893 0.0
H1116 H 0.45354 0.28663 0.72893 0.0
H1117 H 0.45461 0.26271 0.72999 0.0
H1118 H 0.42277 0.24716 0.71801 0.0
H1119 H 0.39841 0.25181 0.73554 0.0
H1120 H 0.05126 0.86226 0.6463 0.0
H1121 H 0.0518 0.89056 0.63101 0.0
H1122 H 0.03125 0.85511 0.58295 0.0
H1123 H 0.03063 0.82684 0.59821 0.0
H1124 H 0.06914 0.90815 0.60476 0.0
H1125 H 0.9965 0.88632 0.58144 0.0
H1126 H 0.00568 0.87375 0.59718 0.0
H1127 H 0.00782 0.86929 0.57408 0.0
C1128 C 0.04678 0.86035 0.63246 0.0
C1129 C 0.04081 0.84178 0.62376 0.0
C1130 C 0.04713 0.87679 0.62359 0.0
C1131 C 0.04123 0.87558 0.60557 0.0
C1132 C 0.03547 0.85702 0.59683 0.0
H1133 H 0.03382 0.95809 0.52713 0.0
H1134 H 0.03385 0.93025 0.5428 0.0
C1135 C 0.03527 0.8406 0.60566 0.0
C1136 C 0.04135 0.89351 0.59605 0.0
H1137 H 0.01508 0.91317 0.56938 0.0
C1138 C 0.05718 0.90913 0.59715 0.0
C1139 C 0.02598 0.89553 0.58587 0.0
C1140 C 0.00798 0.88044 0.58467 0.0
C1141 C 0.05819 0.92584 0.58834 0.0
C1142 C 0.04285 0.92779 0.57809 0.0
C1143 C 0.02702 0.9122 0.57701 0.0
C1144 C 0.04298 0.94555 0.56835 0.0
C1145 C 0.07608 0.9411 0.58968 0.0
C1146 C 0.04786 0.96416 0.57701 0.0
C1147 C 0.04767 0.98036 0.56796 0.0
C1148 C 0.04275 0.97889 0.54969 0.0
C1149 C 0.03787 0.96028 0.54106 0.0
C1150 C 0.03782 0.94408 0.55016 0.0
H1151 H 0.08761 0.93555 0.59354 0.0
H1152 H 0.0786 0.94743 0.57702 0.0
H1153 H 0.07578 0.95251 0.59985 0.0
H1154 H 0.05157 0.96623 0.591 0.0
H1155 H 0.05143 0.99415 0.57538 0.0
H1156 H 0.46989 0.75179 0.86669 0.0
H1157 H 0.43886 0.75048 0.8549 0.0
H1158 H 0.46147 0.78477 0.8141 0.0
H1159 H 0.4918 0.78566 0.82524 0.0
H1160 H 0.41923 0.77511 0.85011 0.0
H1161 H 0.42502 0.74583 0.78325 0.0
H1162 H 0.44185 0.74702 0.80093 0.0
H1163 H 0.44283 0.76737 0.78891 0.0
C1164 C 0.46829 0.75881 0.85505 0.0
C1165 C 0.48393 0.76862 0.84702 0.0
C1166 C 0.45033 0.75816 0.84826 0.0
C1167 C 0.44717 0.76714 0.83306 0.0
C1168 C 0.46283 0.77706 0.82533 0.0
H1169 H 0.35659 0.79945 0.77838 0.0
H1170 H 0.38559 0.79689 0.79154 0.0
C1171 C 0.48055 0.77767 0.83199 0.0
C1172 C 0.42796 0.76672 0.82536 0.0
H1173 H 0.40112 0.76063 0.78636 0.0
C1174 C 0.41535 0.77169 0.83619 0.0
C1175 C 0.42213 0.76224 0.80709 0.0
C1176 C 0.43359 0.75512 0.79442 0.0
C1177 C 0.39801 0.77289 0.82939 0.0
C1178 C 0.39258 0.76911 0.81109 0.0
C1179 C 0.40498 0.76383 0.80032 0.0
C1180 C 0.37428 0.77063 0.80298 0.0
C1181 C 0.38561 0.77869 0.84181 0.0
C1182 C 0.35766 0.75674 0.80456 0.0
C1183 C 0.34085 0.75802 0.79671 0.0
C1184 C 0.33976 0.7734 0.78705 0.0
C1185 C 0.35645 0.78733 0.78559 0.0
C1186 C 0.37327 0.78588 0.79321 0.0
H1187 H 0.39211 0.7827 0.85539 0.0
H1188 H 0.38147 0.79087 0.83711 0.0
H1189 H 0.37309 0.76677 0.84207 0.0
H1190 H 0.35766 0.74469 0.81182 0.0
H1191 H 0.3286 0.74691 0.79837 0.0
H1192 H 0.55663 0.2317 0.1155 0.0
H1193 H 0.55757 0.2018 0.09931 0.0
H1194 H 0.50498 0.17368 0.11575 0.0
H1195 H 0.50431 0.2033 0.13232 0.0
H1196 H 0.55464 0.16422 0.11323 0.0
H1197 H 0.50007 0.15882 0.0611 0.0
H1198 H 0.51185 0.18095 0.07373 0.0
H1199 H 0.49461 0.16357 0.0832 0.0
C1200 C 0.54504 0.2193 0.11533 0.0
C1201 C 0.53014 0.22035 0.12496 0.0
C1202 C 0.54567 0.20198 0.10617 0.0
C1203 C 0.53129 0.18505 0.10595 0.0
C1204 C 0.51627 0.18625 0.11531 0.0
H1205 H 0.53552 0.06556 0.0767 0.0
H1206 H 0.53477 0.09546 0.09271 0.0
C1207 C 0.51584 0.2034 0.12478 0.0
C1208 C 0.53206 0.16619 0.09644 0.0
H1209 H 0.51124 0.13219 0.06265 0.0
C1210 C 0.54512 0.15729 0.10215 0.0
C1211 C 0.51986 0.15675 0.08181 0.0
C1212 C 0.50586 0.16548 0.07442 0.0
C1213 C 0.54619 0.1396 0.09397 0.0
C1214 C 0.53374 0.12992 0.07948 0.0
C1215 C 0.52083 0.13904 0.07368 0.0
C1216 C 0.53419 0.11091 0.06978 0.0
C1217 C 0.56111 0.13179 0.1008 0.0
C1218 C 0.53348 0.10854 0.05125 0.0
C1219 C 0.53354 0.09116 0.04201 0.0
C1220 C 0.53443 0.07515 0.05075 0.0
C1221 C 0.53515 0.07741 0.0693 0.0
C1222 C 0.53484 0.09481 0.07857 0.0
H1223 H 0.57248 0.14309 0.108 0.0
H1224 H 0.5556 0.1212 0.11012 0.0
H1225 H 0.56659 0.12476 0.08998 0.0
H1226 H 0.53296 0.12029 0.04376 0.0
H1227 H 0.53297 0.09034 0.02781 0.0
H1228 H 0.1115 0.26951 0.37842 0.0
H1229 H 0.13924 0.26965 0.36421 0.0
H1230 H 0.1115 0.2691 0.31373 0.0
H1231 H 0.0834 0.26808 0.32798 0.0
H1232 H 0.13294 0.24969 0.30739 0.0
H1233 H 0.17806 0.31005 0.34932 0.0
H1234 H 0.16801 0.29135 0.36244 0.0
H1235 H 0.15387 0.30307 0.35079 0.0
C1236 C 0.11117 0.26949 0.36427 0.0
C1237 C 0.09472 0.26891 0.35463 0.0
C1238 C 0.12741 0.26981 0.35599 0.0
C1239 C 0.12841 0.27002 0.33755 0.0
C1240 C 0.11184 0.26913 0.32788 0.0
H1241 H 0.23864 0.302 0.29411 0.0
H1242 H 0.20985 0.3013 0.30671 0.0
C1243 C 0.09549 0.26859 0.33616 0.0
C1244 C 0.14628 0.27073 0.32847 0.0
H1245 H 0.19277 0.29173 0.33178 0.0
C1246 C 0.14593 0.25904 0.31284 0.0
C1247 C 0.16378 0.28308 0.33473 0.0
C1248 C 0.16597 0.29774 0.3501 0.0
C1249 C 0.16184 0.25903 0.30386 0.0
C1250 C 0.17952 0.27056 0.31073 0.0
C1251 C 0.17978 0.2825 0.32619 0.0
C1252 C 0.19762 0.27089 0.30213 0.0
C1253 C 0.15912 0.24705 0.28657 0.0
C1254 C 0.20151 0.25425 0.29497 0.0
C1255 C 0.21805 0.25476 0.28714 0.0
C1256 C 0.23207 0.27185 0.28652 0.0
C1257 C 0.22848 0.28845 0.29406 0.0
C1258 C 0.21173 0.288 0.30149 0.0
H1259 H 0.14526 0.24485 0.2802 0.0
H1260 H 0.16911 0.25363 0.27732 0.0
H1261 H 0.16057 0.23286 0.2889 0.0
H1262 H 0.19189 0.24054 0.29568 0.0
H1263 H 0.22006 0.24149 0.28196 0.0
H1264 H 0.9636 0.03292 0.19065 0.0
H1265 H 0.97728 0.02401 0.16497 0.0
H1266 H 0.92575 0.01085 0.13448 0.0
H1267 H 0.91142 0.01895 0.16062 0.0
H1268 H 0.96841 0.99335 0.1316 0.0
H1269 H 0.96234 0.06676 0.12738 0.0
H1270 H 0.95977 0.05574 0.14764 0.0
H1271 H 0.94229 0.04784 0.13 0.0
C1272 C 0.95496 0.02764 0.17865 0.0
C1273 C 0.93654 0.02715 0.17743 0.0
C1274 C 0.96275 0.02212 0.16413 0.0
C1275 C 0.95241 0.01681 0.14807 0.0
C1276 C 0.93372 0.01474 0.147 0.0
H1277 H 0.99691 0.04848 0.05255 0.0
H1278 H 0.97835 0.04135 0.07703 0.0
C1279 C 0.92575 0.01989 0.16173 0.0
C1280 C 0.96231 0.02016 0.13253 0.0
H1281 H 0.98173 0.05692 0.10925 0.0
C1282 C 0.97105 0.007 0.12627 0.0
C1283 C 0.96597 0.03827 0.12629 0.0
C1284 C 0.9572 0.05306 0.13315 0.0
C1285 C 0.98347 0.01157 0.11351 0.0
C1286 C 0.9874 0.0299 0.10763 0.0
C1287 C 0.9786 0.04294 0.11396 0.0
C1288 C 0.99944 0.03559 0.09379 0.0
C1289 C 0.99214 0.99682 0.10644 0.0
C1290 C 0.01769 0.03578 0.0957 0.0
C1291 C 0.02833 0.03966 0.08161 0.0
C1292 C 0.02069 0.04349 0.06571 0.0
C1293 C 0.003 0.04523 0.06458 0.0
C1294 C 0.99236 0.04107 0.07849 0.0
H1295 H 0.98445 0.98231 0.10924 0.0
H1296 H 0.99305 0.99704 0.09204 0.0
H1297 H 0.00611 0.99993 0.11278 0.0
H1298 H 0.02344 0.03227 0.10777 0.0
H1299 H 0.04205 0.03845 0.0828 0.0
H1300 H 0.28642 0.6473 0.47633 0.0
H1301 H 0.2761 0.65778 0.44915 0.0
H1302 H 0.27962 0.71221 0.47625 0.0
H1303 H 0.29 0.70188 0.50358 0.0
H1304 H 0.24402 0.67041 0.44443 0.0
H1305 H 0.30747 0.72448 0.43178 0.0
H1306 H 0.30719 0.70627 0.44637 0.0
H1307 H 0.30044 0.72684 0.45361 0.0
C1308 C 0.28537 0.66166 0.47646 0.0
C1309 C 0.28911 0.67383 0.49209 0.0
C1310 C 0.27933 0.66753 0.46095 0.0
C1311 C 0.27711 0.68571 0.46077 0.0
C1312 C 0.28143 0.69815 0.47616 0.0
H1313 H 0.24039 0.75058 0.38692 0.0
H1314 H 0.2444 0.73483 0.41315 0.0
C1315 C 0.28744 0.69228 0.49172 0.0
C1316 C 0.26989 0.69155 0.44456 0.0
H1317 H 0.28075 0.72386 0.41449 0.0
C1318 C 0.25203 0.68202 0.43779 0.0
C1319 C 0.28049 0.70657 0.43595 0.0
C1320 C 0.30002 0.71655 0.44216 0.0
C1321 C 0.24435 0.68757 0.42276 0.0
C1322 C 0.25484 0.70293 0.4145 0.0
C1323 C 0.27274 0.7122 0.4211 0.0
C1324 C 0.24779 0.70982 0.39886 0.0
C1325 C 0.22508 0.67734 0.41593 0.0
C1326 C 0.24777 0.70057 0.38222 0.0
C1327 C 0.24549 0.70952 0.36719 0.0
C1328 C 0.2433 0.72787 0.36866 0.0
C1329 C 0.24193 0.73641 0.38534 0.0
C1330 C 0.24425 0.72747 0.40034 0.0
H1331 H 0.2183 0.66646 0.42455 0.0
H1332 H 0.21709 0.68768 0.41474 0.0
H1333 H 0.225 0.67028 0.4026 0.0
H1334 H 0.25065 0.68699 0.38091 0.0
H1335 H 0.24634 0.70251 0.35446 0.0
H1336 H 0.64045 0.99219 0.66738 0.0
H1337 H 0.6226 0.99521 0.64067 0.0
H1338 H 0.60003 0.03421 0.67012 0.0
H1339 H 0.61813 0.03169 0.69636 0.0
H1340 H 0.58424 0.98353 0.64317 0.0
H1341 H 0.60812 0.05677 0.62292 0.0
H1342 H 0.62245 0.04648 0.63607 0.0
H1343 H 0.60542 0.05528 0.64595 0.0
C1344 C 0.63205 0.00178 0.66787 0.0
C1345 C 0.62999 0.01121 0.68378 0.0
C1346 C 0.62199 0.00354 0.65275 0.0
C1347 C 0.61011 0.0149 0.65363 0.0
C1348 C 0.6093 0.02555 0.66925 0.0
H1349 H 0.52593 0.02543 0.57883 0.0
H1350 H 0.54044 0.02377 0.60768 0.0
C1351 C 0.61931 0.02378 0.68427 0.0
C1352 C 0.59619 0.01299 0.63938 0.0
H1353 H 0.5795 0.03751 0.61011 0.0
C1354 C 0.58322 0.99527 0.63583 0.0
C1355 C 0.59476 0.02857 0.63041 0.0
C1356 C 0.60849 0.04783 0.63391 0.0
C1357 C 0.5689 0.99257 0.62306 0.0
C1358 C 0.56781 0.00795 0.61367 0.0
C1359 C 0.58042 0.02585 0.61761 0.0
C1360 C 0.55568 0.00515 0.59782 0.0
C1361 C 0.55521 0.97331 0.61951 0.0
C1362 C 0.55918 0.99469 0.58313 0.0
C1363 C 0.55112 0.99571 0.56676 0.0
C1364 C 0.5395 0.00722 0.565 0.0
C1365 C 0.53482 0.01641 0.57995 0.0
C1366 C 0.54304 0.01551 0.59636 0.0
H1367 H 0.55471 0.9649 0.63102 0.0
H1368 H 0.54142 0.97461 0.61608 0.0
H1369 H 0.55913 0.96536 0.60826 0.0
H1370 H 0.56919 0.98692 0.58411 0.0
H1371 H 0.55484 0.98839 0.55541 0.0
H1372 H 0.24924 0.33575 0.95753 0.0
H1373 H 0.25206 0.32257 0.92795 0.0
H1374 H 0.30656 0.32171 0.94359 0.0
H1375 H 0.30332 0.33402 0.97351 0.0
H1376 H 0.27455 0.3407 0.90668 0.0
H1377 H 0.28981 0.27238 0.91404 0.0
H1378 H 0.28155 0.28461 0.93156 0.0
H1379 H 0.30515 0.29203 0.92728 0.0
C1380 C 0.26153 0.33199 0.95481 0.0
C1381 C 0.27593 0.33557 0.96787 0.0
C1382 C 0.26323 0.32463 0.93786 0.0
C1383 C 0.27951 0.32102 0.93341 0.0
C1384 C 0.29368 0.32386 0.94668 0.0
H1385 H 0.31537 0.29723 0.82912 0.0
H1386 H 0.31461 0.30543 0.86063 0.0
C1387 C 0.29183 0.33088 0.96382 0.0
C1388 C 0.28208 0.3163 0.91459 0.0
H1389 H 0.29337 0.28426 0.88601 0.0
C1390 C 0.27858 0.32828 0.90222 0.0
C1391 C 0.28762 0.30027 0.90865 0.0
C1392 C 0.2911 0.28649 0.92105 0.0
C1393 C 0.28021 0.32461 0.88423 0.0
C1394 C 0.28538 0.3084 0.87827 0.0
C1395 C 0.28937 0.29667 0.8906 0.0
C1396 C 0.2859 0.30306 0.85921 0.0
C1397 C 0.27647 0.33822 0.87175 0.0
C1398 C 0.26998 0.29876 0.84796 0.0
C1399 C 0.27035 0.29413 0.82998 0.0
C1400 C 0.28666 0.29356 0.82274 0.0
C1401 C 0.30257 0.29759 0.83413 0.0
C1402 C 0.30217 0.30224 0.85218 0.0
H1403 H 0.27764 0.35235 0.87865 0.0
H1404 H 0.28596 0.34008 0.86118 0.0
H1405 H 0.26242 0.33247 0.86554 0.0
H1406 H 0.25719 0.29893 0.85311 0.0
H1407 H 0.25773 0.29092 0.8218 0.0
H1408 H 0.9753 0.00674 0.26816 0.0
H1409 H 0.98473 0.00778 0.29922 0.0
H1410 H 0.94562 0.0374 0.31289 0.0
H1411 H 0.93584 0.03625 0.28184 0.0
H1412 H 0.99821 0.04136 0.3231 0.0
H1413 H 0.935 0.99112 0.34257 0.0
H1414 H 0.94031 0.99244 0.31996 0.0
H1415 H 0.93261 0.01073 0.33097 0.0
C1416 C 0.96873 0.01352 0.27775 0.0
C1417 C 0.95487 0.02143 0.27261 0.0
C1418 C 0.97411 0.01408 0.29543 0.0
C1419 C 0.96573 0.02255 0.30815 0.0
C1420 C 0.95201 0.03061 0.30314 0.0
H1421 H 0.99497 0.02523 0.42064 0.0
H1422 H 0.98254 0.03375 0.39333 0.0
C1423 C 0.94654 0.03 0.28544 0.0
C1424 C 0.97169 0.02301 0.32667 0.0
H1425 H 0.95947 0.00224 0.36408 0.0
C1426 C 0.9897 0.03306 0.33219 0.0
C1427 C 0.96038 0.01219 0.33832 0.0
C1428 C 0.94101 1.00089 0.33273 0.0
C1429 C 0.99704 0.03184 0.34897 0.0
C1430 C 0.98603 0.02028 0.36028 0.0
C1431 C 0.96773 0.01109 0.35518 0.0
C1432 C 0.99383 0.01577 0.37662 0.0
C1433 C 0.01668 0.04223 0.35429 0.0
C1434 C 0.00407 0.00279 0.37594 0.0
C1435 C 0.0109 0.99765 0.3914 0.0
C1436 C 0.00757 0.0055 0.40769 0.0
C1437 C 0.99743 0.0187 0.40825 0.0
C1438 C 0.99048 0.02371 0.39276 0.0
H1439 H 0.02231 0.05331 0.34542 0.0
H1440 H 0.01821 0.04896 0.36796 0.0
H1441 H 0.02482 0.03195 0.35384 0.0
H1442 H 0.00654 0.99646 0.36345 0.0
H1443 H 0.01851 0.98732 0.39061 0.0
H1444 H 0.31198 0.68907 0.59559 0.0
H1445 H 0.30922 0.70897 0.62181 0.0
H1446 H 0.26284 0.66491 0.63462 0.0
H1447 H 0.26594 0.64479 0.60921 0.0
H1448 H 0.28009 0.72186 0.62898 0.0
H1449 H 0.29298 0.67687 0.68056 0.0
H1450 H 0.29762 0.67273 0.65803 0.0
H1451 H 0.27476 0.665 0.66446 0.0
C1452 C 0.30149 0.68354 0.60425 0.0
C1453 C 0.2894 0.66532 0.60054 0.0
C1454 C 0.29984 0.69489 0.61909 0.0
C1455 C 0.28599 0.68819 0.63019 0.0
C1456 C 0.27392 0.67006 0.62648 0.0
H1457 H 0.26559 0.74839 0.72635 0.0
H1458 H 0.2591 0.72602 0.69979 0.0
C1459 C 0.27576 0.65862 0.61192 0.0
C1460 C 0.28374 0.70043 0.64535 0.0
H1461 H 0.28437 0.70407 0.68995 0.0
C1462 C 0.28098 0.71798 0.64232 0.0
C1463 C 0.28451 0.69502 0.66264 0.0
C1464 C 0.28777 0.67645 0.66667 0.0
C1465 C 0.27974 0.73069 0.65629 0.0
C1466 C 0.28137 0.72562 0.67354 0.0
C1467 C 0.28309 0.70771 0.67657 0.0
C1468 C 0.28417 0.73964 0.68866 0.0
C1469 C 0.2772 0.74964 0.65261 0.0
C1470 C 0.30041 0.75438 0.69096 0.0
C1471 C 0.30429 0.76671 0.70616 0.0
C1472 C 0.29206 0.7642 0.71921 0.0
C1473 C 0.27554 0.74985 0.71669 0.0
C1474 C 0.27168 0.7374 0.7015 0.0
H1475 H 0.2712 0.7493 0.63901 0.0
H1476 H 0.26835 0.75406 0.66201 0.0
H1477 H 0.29062 0.76052 0.65412 0.0
H1478 H 0.31027 0.75602 0.6812 0.0
H1479 H 0.317 0.77793 0.70788 0.0
H1480 H 0.64057 0.02528 0.79321 0.0
H1481 H 0.63212 0.02822 0.82341 0.0
H1482 H 0.57698 0.9959 0.80647 0.0
H1483 H 0.5852 0.99362 0.77616 0.0
H1484 H 0.58227 0.0338 0.82087 0.0
H1485 H 0.6162 0.99382 0.86377 0.0
H1486 H 0.62947 0.00799 0.84839 0.0
H1487 H 0.61136 0.98735 0.84041 0.0
C1488 C 0.62678 0.01836 0.79608 0.0
C1489 C 0.61338 0.00947 0.78253 0.0
C1490 C 0.62204 0.01993 0.8133 0.0
C1491 C 0.60399 0.0122 0.81702 0.0
C1492 C 0.59099 0.00192 0.80369 0.0
H1493 H 0.54488 0.00487 0.90723 0.0
H1494 H 0.56061 1.0003 0.88112 0.0
C1495 C 0.59562 1.00072 0.78647 0.0
C1496 C 0.59778 0.01773 0.83378 0.0
H1497 H 0.59863 0.01159 0.87735 0.0
C1498 C 0.58585 0.02901 0.83327 0.0
C1499 C 0.6028 0.01159 0.84978 0.0
C1500 C 0.6156 0.99943 0.85076 0.0
C1501 C 0.57806 0.03367 0.84832 0.0
C1502 C 0.58274 0.02722 0.8643 0.0
C1503 C 0.59519 0.01648 0.86497 0.0
C1504 C 0.57373 0.03024 0.88014 0.0
C1505 C 0.56433 0.04476 0.84683 0.0
C1506 C 0.57588 0.0486 0.88796 0.0
C1507 C 0.56677 0.05125 0.90272 0.0
C1508 C 0.55565 0.03552 0.90986 0.0
C1509 C 0.55349 0.01717 0.90194 0.0
C1510 C 0.56249 0.01455 0.88716 0.0
H1511 H 0.5596 0.04526 0.83295 0.0
H1512 H 0.55233 0.03847 0.8541 0.0
H1513 H 0.57062 0.05954 0.85264 0.0
H1514 H 0.58468 0.06081 0.88272 0.0
H1515 H 0.56879 0.06549 0.90881 0.0
H1516 H 0.27094 0.30979 0.07066 0.0
H1517 H 0.26866 0.29884 0.1002 0.0
H1518 H 0.29108 0.35648 0.12303 0.0
H1519 H 0.29341 0.36751 0.09372 0.0
H1520 H 0.29645 0.30401 0.1286 0.0
H1521 H 0.24305 0.33762 0.14679 0.0
H1522 H 0.24825 0.33386 0.12435 0.0
H1523 H 0.26261 0.35333 0.13866 0.0
C1524 C 0.27546 0.32012 0.08197 0.0
C1525 C 0.28231 0.33956 0.07976 0.0
C1526 C 0.27413 0.31384 0.09886 0.0
C1527 C 0.2794 0.32686 0.11388 0.0
C1528 C 0.2866 0.34618 0.11168 0.0
H1529 H 0.28318 0.32121 0.22751 0.0
H1530 H 0.28361 0.3312 0.19763 0.0
C1531 C 0.28804 0.35245 0.09486 0.0
C1532 C 0.27749 0.32036 0.13188 0.0
H1533 H 0.25674 0.325 0.16968 0.0
C1534 C 0.28768 0.30849 0.13754 0.0
C1535 C 0.26609 0.32625 0.1436 0.0
C1536 C 0.25423 0.33833 0.13805 0.0
C1537 C 0.28711 0.30274 0.15469 0.0
C1538 C 0.27575 0.3087 0.16646 0.0
C1539 C 0.26549 0.32048 0.16074 0.0
C1540 C 0.27428 0.30271 0.18468 0.0
C1541 C 0.29909 0.29076 0.1602 0.0
C1542 C 0.26824 0.28343 0.18744 0.0
C1543 C 0.26791 0.27769 0.20446 0.0
C1544 C 0.2735 0.29109 0.21926 0.0
C1545 C 0.27874 0.31047 0.2165 0.0
C1546 C 0.27907 0.31621 0.19939 0.0
H1547 H 0.31039 0.29175 0.15156 0.0
H1548 H 0.30495 0.29508 0.17396 0.0
H1549 H 0.29087 0.27569 0.15934 0.0
H1550 H 0.26402 0.27274 0.17638 0.0
H1551 H 0.26367 0.26263 0.20596 0.0
H1552 H 0.22289 0.91532 0.99411 0.0
H1553 H 0.20242 0.93315 0.00481 0.0
H1554 H 0.24687 0.97103 0.03814 0.0
H1555 H 0.26746 0.95399 0.02675 0.0
H1556 H 0.19224 0.94101 0.03681 0.0
H1557 H 0.23025 0.00774 0.01046 0.0
H1558 H 0.23494 0.98546 0.00514 0.0
H1559 H 0.24375 0.9991 0.02581 0.0
C1560 C 0.22817 0.92743 0.00374 0.0
C1561 C 0.24664 0.93355 0.00949 0.0
C1562 C 0.21655 0.93755 0.00985 0.0
C1563 C 0.22329 0.95359 0.02198 0.0
C1564 C 0.24157 0.95903 0.0284 0.0
H1565 H 0.15782 0.02523 0.06334 0.0
H1566 H 0.17985 0.00671 0.06342 0.0
C1567 C 0.25325 0.94927 0.02196 0.0
C1568 C 0.21131 0.96499 0.02744 0.0
H1569 H 0.20539 0.00902 0.02657 0.0
C1570 C 0.19517 0.95592 0.03473 0.0
C1571 C 0.21525 0.98443 0.02462 0.0
C1572 C 0.23189 0.99472 0.01593 0.0
C1573 C 0.18254 0.96571 0.0388 0.0
C1574 C 0.1864 0.98496 0.0357 0.0
C1575 C 0.2028 0.99425 0.02911 0.0
C1576 C 0.17251 0.99494 0.03646 0.0
C1577 C 0.16479 0.95533 0.04557 0.0
C1578 C 0.16151 0.99442 0.02118 0.0
C1579 C 0.14935 0.00519 0.02093 0.0
C1580 C 0.14787 0.01651 0.03605 0.0
C1581 C 0.15886 0.01683 0.05144 0.0
C1582 C 0.17122 0.00614 0.0516 0.0
H1583 H 0.16469 0.94095 0.04908 0.0
H1584 H 0.16206 0.9636 0.05728 0.0
H1585 H 0.15358 0.95387 0.03531 0.0
H1586 H 0.16265 0.98597 0.00934 0.0
H1587 H 0.14132 0.00488 0.00879 0.0
H1588 H 0.73598 0.63102 0.98917 0.0
H1589 H 0.70651 0.60819 0.9919 0.0
H1590 H 0.69309 0.64856 0.02859 0.0
H1591 H 0.72211 0.67176 0.02508 0.0
H1592 H 0.69362 0.59153 0.01917 0.0
H1593 H 0.64756 0.63279 -0.0025 0.0
H1594 H 0.67158 0.64029 0.99483 0.0
H1595 H 0.66314 0.6451 0.01563 0.0
C1596 C 0.72655 0.6351 -0.00246 0.0
C1597 C 0.73117 0.65318 0.00674 0.0
C1598 C 0.70977 0.62204 -0.00083 0.0
C1599 C 0.69742 0.62672 0.01025 0.0
C1600 C 0.70209 0.6448 0.01952 0.0
H1601 H 0.5982 0.55885 0.04853 0.0
H1602 H 0.62903 0.5793 0.04663 0.0
C1603 C 0.71871 0.65803 0.01757 0.0
C1604 C 0.68004 0.61236 0.01262 0.0
H1605 H 0.63408 0.60478 0.01116 0.0
C1606 C 0.68061 0.59443 0.01732 0.0
C1607 C 0.66302 0.61609 0.01015 0.0
C1608 C 0.66125 0.63454 0.00408 0.0
C1609 C 0.66466 0.58025 0.01972 0.0
C1610 C 0.64782 0.58418 0.01758 0.0
C1611 C 0.64716 0.602 0.01294 0.0
C1612 C 0.63055 0.56979 0.01954 0.0
C1613 C 0.66576 0.5611 0.02447 0.0
C1614 C 0.62153 0.5574 0.00504 0.0
C1615 C 0.60393 0.54573 0.00602 0.0
C1616 C 0.59506 0.54633 0.02154 0.0
C1617 C 0.60462 0.558 0.03638 0.0
C1618 C 0.62221 0.56973 0.03534 0.0
H1619 H 0.68 0.56048 0.02631 0.0
H1620 H 0.65901 0.55769 0.03674 0.0
H1621 H 0.65837 0.55004 0.01393 0.0
H1622 H 0.62783 0.55736 0.99274 0.0
H1623 H 0.597 0.53688 0.99438 0.0
H1624 H 0.71045 0.51173 0.29466 0.0
H1625 H 0.72412 0.48889 0.28101 0.0
H1626 H 0.69255 0.44547 0.31063 0.0
H1627 H 0.67781 0.46813 0.32356 0.0
H1628 H 0.74388 0.46909 0.29179 0.0
H1629 H 0.67917 0.41941 0.26245 0.0
H1630 H 0.68039 0.44244 0.27307 0.0
H1631 H 0.67924 0.42263 0.28586 0.0
C1632 C 0.70661 0.49741 0.29853 0.0
C1633 C 0.69296 0.49161 0.31004 0.0
C1634 C 0.71434 0.48432 0.29058 0.0
C1635 C 0.70884 0.46535 0.29432 0.0
C1636 C 0.69637 0.45988 0.30701 0.0
H1637 H 0.75042 0.37409 0.28555 0.0
H1638 H 0.73202 0.39593 0.28872 0.0
C1639 C 0.68825 0.47289 0.31464 0.0
C1640 C 0.71647 0.45146 0.28509 0.0
H1641 H 0.70529 0.40733 0.26307 0.0
C1642 C 0.73542 0.45576 0.28521 0.0
C1643 C 0.70537 0.43422 0.27622 0.0
C1644 C 0.68492 0.42951 0.27421 0.0
C1645 C 0.74363 0.44281 0.27761 0.0
C1646 C 0.73256 0.42509 0.2699 0.0
C1647 C 0.71363 0.42103 0.26904 0.0
C1648 C 0.74058 0.40973 0.26544 0.0
C1649 C 0.76411 0.4477 0.27868 0.0
C1650 C 0.751 0.41009 0.25098 0.0
C1651 C 0.76154 0.39756 0.24909 0.0
C1652 C 0.7617 0.38465 0.26165 0.0
C1653 C 0.75044 0.38375 0.27557 0.0
C1654 C 0.7399 0.39617 0.2774 0.0
H1655 H 0.7707 0.46172 0.28606 0.0
H1656 H 0.76873 0.43669 0.28516 0.0
H1657 H 0.76878 0.448 0.26523 0.0
H1658 H 0.75158 0.42056 0.24168 0.0
H1659 H 0.76987 0.39827 0.23808 0.0
H1660 H 0.82968 0.4183 0.49553 0.0
H1661 H 0.86047 0.42051 0.50696 0.0
H1662 H 0.87695 0.48029 0.50012 0.0
H1663 H 0.84599 0.47828 0.48856 0.0
H1664 H 0.89346 0.43692 0.48679 0.0
H1665 H 0.89302 0.47173 0.55344 0.0
H1666 H 0.87263 0.45727 0.54082 0.0
H1667 H 0.88265 0.48131 0.5361 0.0
C1668 C 0.83983 0.43197 0.49655 0.0
C1669 C 0.83555 0.44821 0.4913 0.0
C1670 C 0.85731 0.43314 0.50308 0.0
C1671 C 0.8706 0.45056 0.50458 0.0
C1672 C 0.86653 0.46679 0.49922 0.0
H1673 H 0.97072 0.50883 0.4951 0.0
H1674 H 0.94031 0.48709 0.49399 0.0
C1675 C 0.84902 0.46563 0.49252 0.0
C1676 C 0.88917 0.45176 0.51073 0.0
H1677 H 0.92218 0.47654 0.54165 0.0
C1678 C 0.89976 0.44503 0.49903 0.0
C1679 C 0.89701 0.46185 0.5269 0.0
C1680 C 0.88572 0.46832 0.54016 0.0
C1681 C 0.91861 0.45031 0.50218 0.0
C1682 C 0.92666 0.46265 0.51724 0.0
C1683 C 0.91586 0.46721 0.53003 0.0
C1684 C 0.94537 0.47459 0.5178 0.0
C1685 C 0.92978 0.44407 0.48865 0.0
C1686 C 0.95779 0.47536 0.53209 0.0
C1687 C 0.97507 0.48811 0.53296 0.0
C1688 C 0.97992 0.50011 0.51954 0.0
C1689 C 0.96727 0.4996 0.50552 0.0
C1690 C 0.95006 0.487 0.50473 0.0
H1691 H 0.92249 0.4298 0.4821 0.0
H1692 H 0.9321 0.45414 0.47836 0.0
H1693 H 0.94317 0.44374 0.4946 0.0
H1694 H 0.95411 0.4661 0.54244 0.0
H1695 H 0.98477 0.48817 0.54379 0.0
H1696 H 0.37503 0.07031 0.31283 0.0
H1697 H 0.35983 0.09236 0.30114 0.0
H1698 H 0.41138 0.12793 0.288 0.0
H1699 H 0.42672 0.10676 0.30069 0.0
H1700 H 0.3905 0.14865 0.29538 0.0
H1701 H 0.35153 0.08838 0.24884 0.0
H1702 H 0.34714 0.08322 0.27092 0.0
H1703 H 0.36975 0.08669 0.26391 0.0
C1704 C 0.38315 0.08325 0.30812 0.0
C1705 C 0.40193 0.08666 0.30726 0.0
C1706 C 0.37446 0.09561 0.30114 0.0
C1707 C 0.38444 0.11109 0.29282 0.0
C1708 C 0.40342 0.11577 0.29398 0.0
H1709 H 0.31895 0.16672 0.22818 0.0
H1710 H 0.34266 0.15071 0.23356 0.0
C1711 C 0.41217 0.10373 0.3014 0.0
C1712 C 0.37501 0.12169 0.28207 0.0
H1713 H 0.33946 0.11549 0.25149 0.0
C1714 C 0.3796 0.14144 0.28553 0.0
C1715 C 0.36139 0.11238 0.26859 0.0
C1716 C 0.35735 0.09153 0.2627 0.0
C1717 C 0.36958 0.15187 0.27714 0.0
C1718 C 0.35441 0.14215 0.26552 0.0
C1719 C 0.35097 0.12275 0.26068 0.0
C1720 C 0.34 0.15094 0.26153 0.0
C1721 C 0.3746 0.17306 0.28152 0.0
C1722 C 0.33035 0.15537 0.27538 0.0
C1723 C 0.31685 0.16409 0.27236 0.0
C1724 C 0.31282 0.16857 0.25543 0.0
C1725 C 0.32187 0.1633 0.24133 0.0
C1726 C 0.33544 0.15441 0.24438 0.0
H1727 H 0.38933 0.17896 0.28558 0.0
H1728 H 0.37115 0.18025 0.27014 0.0
H1729 H 0.36694 0.17628 0.29262 0.0
H1730 H 0.33345 0.15228 0.28862 0.0
H1731 H 0.30983 0.16776 0.28336 0.0
H1732 H 0.33798 0.16211 0.49845 0.0
H1733 H 0.36421 0.1491 0.49966 0.0
H1734 H 0.35657 0.13915 0.55385 0.0
H1735 H 0.33029 0.15149 0.55256 0.0
H1736 H 0.39733 0.15676 0.52202 0.0
H1737 H 0.34992 0.08606 0.52957 0.0
H1738 H 0.3421 0.10569 0.5232 0.0
H1739 H 0.34879 0.1044 0.54583 0.0
C1740 C 0.34219 0.15748 0.51066 0.0
C1741 C 0.33203 0.15751 0.52532 0.0
C1742 C 0.35709 0.15004 0.51135 0.0
C1743 C 0.36199 0.14275 0.52673 0.0
C1744 C 0.35272 0.14425 0.54174 0.0
H1745 H 0.43144 0.07178 0.55125 0.0
H1746 H 0.41198 0.09297 0.5532 0.0
C1747 C 0.33777 0.15137 0.54099 0.0
C1748 C 0.37583 0.13227 0.52685 0.0
H1749 H 0.38124 0.08863 0.53238 0.0
C1750 C 0.39385 0.14186 0.52422 0.0
C1751 C 0.37121 0.11284 0.52982 0.0
C1752 C 0.35193 0.10157 0.53211 0.0
C1753 C 0.40749 0.13255 0.52472 0.0
C1754 C 0.40283 0.11309 0.52759 0.0
C1755 C 0.38481 0.10357 0.53029 0.0
C1756 C 0.41614 0.10195 0.52711 0.0
C1757 C 0.42678 0.14371 0.5225 0.0
C1758 C 0.42496 0.10003 0.51183 0.0
C1759 C 0.4361 0.088 0.51072 0.0
C1760 C 0.43841 0.07747 0.52478 0.0
C1761 C 0.42979 0.07962 0.54017 0.0
C1762 C 0.41875 0.09177 0.54133 0.0
H1763 H 0.429 0.15915 0.52584 0.0
H1764 H 0.43661 0.13893 0.53085 0.0
H1765 H 0.42967 0.14158 0.50859 0.0
H1766 H 0.42274 0.10731 0.50052 0.0
H1767 H 0.44234 0.08638 0.49859 0.0
H1768 H 0.65203 0.60347 0.30302 0.0
H1769 H 0.67178 0.63588 0.30348 0.0
H1770 H 0.7182 0.61704 0.31863 0.0
H1771 H 0.69869 0.58459 0.31826 0.0
H1772 H 0.71377 0.65733 0.33467 0.0
H1773 H 0.70964 0.63962 0.26212 0.0
H1774 H 0.68905 0.63371 0.27325 0.0
H1775 H 0.70578 0.62147 0.27718 0.0
C1776 C 0.6664 0.60625 0.30668 0.0
C1777 C 0.67392 0.59147 0.31019 0.0
C1778 C 0.67756 0.62475 0.30714 0.0
C1779 C 0.69627 0.62859 0.3111 0.0
C1780 C 0.70368 0.61417 0.31571 0.0
H1781 H 0.78767 0.70804 0.27719 0.0
H1782 H 0.76569 0.68074 0.28743 0.0
C1783 C 0.69256 0.59567 0.31529 0.0
C1784 C 0.70844 0.64669 0.30739 0.0
H1785 H 0.7285 0.66938 0.27353 0.0
C1786 C 0.71695 0.66017 0.32134 0.0
C1787 C 0.7125 0.64994 0.28997 0.0
C1788 C 0.70387 0.63546 0.27469 0.0
C1789 C 0.72979 0.67702 0.31822 0.0
C1790 C 0.73393 0.68016 0.30078 0.0
C1791 C 0.72518 0.66676 0.28687 0.0
C1792 C 0.74783 0.6969 0.29649 0.0
C1793 C 0.73921 0.69106 0.3335 0.0
C1794 C 0.74494 0.71483 0.29842 0.0
C1795 C 0.75742 0.73031 0.29257 0.0
C1796 C 0.77263 0.72785 0.28454 0.0
C1797 C 0.77582 0.71006 0.28316 0.0
C1798 C 0.76338 0.69459 0.28901 0.0
H1799 H 0.73681 0.68496 0.34628 0.0
H1800 H 0.75406 0.69594 0.33221 0.0
H1801 H 0.734 0.70366 0.33357 0.0
H1802 H 0.73291 0.71674 0.30409 0.0
H1803 H 0.75529 0.74419 0.29449 0.0
H1804 H 0.92252 0.46863 0.77409 0.0
H1805 H 0.90152 0.43669 0.77334 0.0
H1806 H 0.86172 0.45994 0.79663 0.0
H1807 H 0.8824 0.49181 0.79742 0.0
H1808 H 0.88238 0.41772 0.80339 0.0
H1809 H 0.83753 0.42914 0.74829 0.0
H1810 H 0.86081 0.44338 0.75299 0.0
H1811 H 0.84354 0.44734 0.76635 0.0
C1812 C 0.9093 0.46694 0.77905 0.0
C1813 C 0.90404 0.48275 0.78564 0.0
C1814 C 0.89741 0.44873 0.77869 0.0
C1815 C 0.88015 0.44618 0.78481 0.0
C1816 C 0.87499 0.4618 0.79173 0.0
H1817 H 0.8017 0.34003 0.80304 0.0
H1818 H 0.82162 0.37263 0.80644 0.0
C1819 C 0.88683 0.47996 0.79213 0.0
C1820 C 0.86715 0.42724 0.78341 0.0
H1821 H 0.82729 0.40071 0.76177 0.0
C1822 C 0.87033 0.41389 0.79431 0.0
C1823 C 0.85163 0.42249 0.77142 0.0
C1824 C 0.84815 0.43625 0.75897 0.0
C1825 C 0.85816 0.39569 0.79357 0.0
C1826 C 0.84238 0.39108 0.78183 0.0
C1827 C 0.83931 0.40446 0.77089 0.0
C1828 C 0.82947 0.372 0.77975 0.0
C1829 C 0.8625 0.38146 0.80499 0.0
C1830 C 0.82675 0.36135 0.76342 0.0
C1831 C 0.81521 0.34298 0.76135 0.0
C1832 C 0.80629 0.33493 0.77564 0.0
C1833 C 0.80852 0.34586 0.79185 0.0
C1834 C 0.81998 0.36437 0.79386 0.0
H1835 H 0.877 0.38585 0.81014 0.0
H1836 H 0.85406 0.38019 0.81636 0.0
H1837 H 0.85941 0.36726 0.79759 0.0
H1838 H 0.83393 0.3671 0.75238 0.0
H1839 H 0.81382 0.33492 0.7487 0.0
H1840 H 0.08954 0.84889 0.07892 0.0
H1841 H 0.08581 0.87786 0.06739 0.0
H1842 H 0.03749 0.87225 0.09502 0.0
H1843 H 0.0418 0.84405 0.10734 0.0
H1844 H 0.06111 0.88603 0.04724 0.0
H1845 H 0.06385 0.92515 0.11227 0.0
H1846 H 0.06898 0.90276 0.10984 0.0
H1847 H 0.04575 0.90351 0.10976 0.0
C1848 C 0.07815 0.8539 0.08253 0.0
C1849 C 0.06611 0.84438 0.09422 0.0
C1850 C 0.07602 0.87045 0.07594 0.0
C1851 C 0.06166 0.87765 0.08072 0.0
C1852 C 0.0491 0.86752 0.09168 0.0
H1853 H 0.02077 0.97021 0.05062 0.0
H1854 H 0.02499 0.94097 0.0609 0.0
C1855 C 0.05148 0.85127 0.09859 0.0
C1856 C 0.05977 0.89566 0.07425 0.0
H1857 H 0.05395 0.93874 0.08766 0.0
C1858 C 0.0597 0.89759 0.05612 0.0
C1859 C 0.05803 0.9109 0.0858 0.0
C1860 C 0.05935 0.91057 0.1055 0.0
C1861 C 0.05754 0.91407 0.04925 0.0
C1862 C 0.05534 0.929 0.06077 0.0
C1863 C 0.05549 0.92717 0.07885 0.0
C1864 C 0.05287 0.94669 0.05435 0.0
C1865 C 0.0573 0.91531 0.02968 0.0
C1866 C 0.06724 0.95973 0.04748 0.0
C1867 C 0.06494 0.97655 0.04172 0.0
C1868 C 0.04817 0.98062 0.04266 0.0
C1869 C 0.03384 0.96754 0.04966 0.0
C1870 C 0.03622 0.9508 0.05554 0.0
H1871 H 0.05606 0.90139 0.02233 0.0
H1872 H 0.04586 0.92062 0.02501 0.0
H1873 H 0.07011 0.92552 0.02659 0.0
H1874 H 0.08028 0.95693 0.04666 0.0
H1875 H 0.07627 0.98626 0.03639 0.0
H1876 H 0.9424 0.22872 0.87849 0.0
H1877 H 0.91279 0.2267 0.86302 0.0
H1878 H 0.92494 0.28763 0.87023 0.0
H1879 H 0.95442 0.28969 0.88513 0.0
H1880 H 0.88216 0.24266 0.87198 0.0
H1881 H 0.91901 0.27376 0.81611 0.0
H1882 H 0.92947 0.2636 0.83305 0.0
H1883 H 0.92701 0.28705 0.837 0.0
C1884 C 0.93846 0.24157 0.8771 0.0
C1885 C 0.95061 0.25937 0.88285 0.0
C1886 C 0.92165 0.24043 0.86824 0.0
C1887 C 0.9169 0.25707 0.86522 0.0
C1888 C 0.92851 0.27467 0.87215 0.0
H1889 H 0.8418 0.29828 0.80487 0.0
H1890 H 0.86658 0.29269 0.82314 0.0
C1891 C 0.94528 0.27583 0.88071 0.0
C1892 C 0.90057 0.25652 0.85377 0.0
H1893 H 0.88789 0.27265 0.81591 0.0
C1894 C 0.88329 0.24902 0.85962 0.0
C1895 C 0.90219 0.2648 0.83765 0.0
C1896 C 0.9204 0.27262 0.83046 0.0
C1897 C 0.86758 0.25053 0.85022 0.0
C1898 C 0.86925 0.25936 0.83431 0.0
C1899 C 0.88655 0.26609 0.82817 0.0
C1900 C 0.85354 0.26266 0.8241 0.0
C1901 C 0.84954 0.24347 0.85793 0.0
C1902 C 0.83786 0.24774 0.81857 0.0
C1903 C 0.82344 0.25112 0.80865 0.0
C1904 C 0.82479 0.26931 0.80352 0.0
C1905 C 0.84052 0.28414 0.80871 0.0
C1906 C 0.85466 0.28091 0.8191 0.0
H1907 H 0.85129 0.24234 0.87227 0.0
H1908 H 0.84085 0.25296 0.85573 0.0
H1909 H 0.84235 0.2291 0.85159 0.0
H1910 H 0.83686 0.23341 0.82162 0.0
H1911 H 0.81149 0.23942 0.80448 0.0
H1912 H 0.59713 0.22882 0.60885 0.0
H1913 H 0.59219 0.19764 0.593 0.0
H1914 H 0.54145 0.20147 0.56888 0.0
H1915 H 0.54683 0.23321 0.58417 0.0
H1916 H 0.56597 0.16764 0.5978 0.0
H1917 H 0.56084 0.17993 0.52743 0.0
H1918 H 0.56928 0.19912 0.54451 0.0
H1919 H 0.54522 0.18849 0.53988 0.0
C1920 C 0.58513 0.22319 0.59983 0.0
C1921 C 0.57236 0.2334 0.5977 0.0
C1922 C 0.58229 0.20535 0.59081 0.0
C1923 C 0.5665 0.19718 0.57965 0.0
C1924 C 0.55396 0.20762 0.57706 0.0
H1925 H 0.51689 0.08147 0.53452 0.0
H1926 H 0.52334 0.11472 0.54574 0.0
C1927 C 0.55699 0.22572 0.58585 0.0
C1928 C 0.56253 0.17711 0.57221 0.0
H1929 H 0.55168 0.14769 0.53415 0.0
C1930 C 0.563 0.16336 0.58385 0.0
C1931 C 0.55853 0.17144 0.55402 0.0
C1932 C 0.5586 0.18554 0.54072 0.0
C1933 C 0.55954 0.14416 0.57786 0.0
C1934 C 0.55549 0.13852 0.55974 0.0
C1935 C 0.55482 0.15214 0.54806 0.0
C1936 C 0.55181 0.11846 0.55274 0.0
C1937 C 0.55998 0.12996 0.59096 0.0
C1938 C 0.56575 0.10961 0.55293 0.0
C1939 C 0.56216 0.09056 0.54651 0.0
C1940 C 0.54453 0.08002 0.53983 0.0
C1941 C 0.53061 0.08904 0.53967 0.0
C1942 C 0.53426 0.10809 0.54599 0.0
H1943 H 0.56007 0.13604 0.60469 0.0
H1944 H 0.54808 0.11722 0.58823 0.0
H1945 H 0.57243 0.12532 0.58981 0.0
H1946 H 0.57942 0.11746 0.558 0.0
H1947 H 0.57321 0.08413 0.54681 0.0
H1948 H 0.57108 0.78151 0.41447 0.0
H1949 H 0.59866 0.78861 0.3987 0.0
H1950 H 0.56999 0.74918 0.35513 0.0
H1951 H 0.54225 0.7426 0.37053 0.0
H1952 H 0.61849 0.76678 0.38767 0.0
H1953 H 0.59234 0.79442 0.32981 0.0
H1954 H 0.58014 0.79058 0.34929 0.0
H1955 H 0.57818 0.77122 0.33279 0.0
C1956 C 0.57067 0.77439 0.40152 0.0
C1957 C 0.55451 0.76157 0.39366 0.0
C1958 C 0.58641 0.77851 0.3925 0.0
C1959 C 0.58627 0.76979 0.37555 0.0
C1960 C 0.57026 0.75658 0.36793 0.0
H1961 H 0.66082 0.74282 0.30938 0.0
H1962 H 0.63673 0.74532 0.32818 0.0
C1963 C 0.55447 0.75267 0.37682 0.0
C1964 C 0.60304 0.77372 0.36611 0.0
H1965 H 0.619 0.78361 0.32614 0.0
C1966 C 0.61869 0.7708 0.37433 0.0
C1967 C 0.60343 0.77929 0.3488 0.0
C1968 C 0.58767 0.78427 0.33976 0.0
C1969 C 0.63429 0.77211 0.36529 0.0
C1970 C 0.63411 0.77625 0.34762 0.0
C1971 C 0.6189 0.78018 0.33967 0.0
C1972 C 0.64901 0.77497 0.33679 0.0
C1973 C 0.65071 0.76845 0.37436 0.0
C1974 C 0.66382 0.79086 0.33557 0.0
C1975 C 0.67765 0.78947 0.32491 0.0
C1976 C 0.67682 0.77215 0.31535 0.0
C1977 C 0.66198 0.75625 0.31679 0.0
C1978 C 0.64817 0.75768 0.3274 0.0
H1979 H 0.64909 0.76648 0.38848 0.0
H1980 H 0.65311 0.75554 0.3678 0.0
H1981 H 0.66292 0.7805 0.37324 0.0
H1982 H 0.66462 0.8043 0.3428 0.0
H1983 H 0.689 0.80191 0.32416 0.0
H1984 H 0.05403 0.22442 0.43626 0.0
H1985 H 0.05325 0.19596 0.45132 0.0
H1986 H 0.01759 0.16135 0.40879 0.0
H1987 H 0.01887 0.1897 0.39349 0.0
H1988 H 0.03009 0.17011 0.46584 0.0
H1989 H 0.04957 0.12855 0.41135 0.0
H1990 H 0.05053 0.15312 0.41025 0.0
H1991 H 0.02927 0.13483 0.4056 0.0
C1992 C 0.04604 0.21078 0.42996 0.0
C1993 C 0.03662 0.20986 0.41333 0.0
C1994 C 0.04557 0.19423 0.43873 0.0
C1995 C 0.03571 0.17572 0.43139 0.0
C1996 C 0.02597 0.17488 0.41491 0.0
H1997 H 0.01983 0.05768 0.46565 0.0
H1998 H 0.01944 0.08566 0.45017 0.0
C1999 C 0.02653 0.19142 0.40609 0.0
C2000 C 0.03535 0.15775 0.44112 0.0
H2001 H 0.03979 0.11222 0.4361 0.0
C2002 C 0.03234 0.15757 0.45918 0.0
C2003 C 0.03805 0.14074 0.43301 0.0
C2004 C 0.04221 0.13931 0.41404 0.0
C2005 C 0.03157 0.1415 0.4689 0.0
C2006 C 0.03454 0.12455 0.46087 0.0
C2007 C 0.03748 0.12472 0.44277 0.0
C2008 C 0.03465 0.10677 0.47079 0.0
C2009 C 0.02676 0.14285 0.48767 0.0
C2010 C 0.04348 0.1082 0.48782 0.0
C2011 C 0.0433 0.09199 0.49695 0.0
C2012 C 0.0348 0.07321 0.48946 0.0
C2013 C 0.02649 0.07162 0.47221 0.0
C2014 C 0.02633 0.08791 0.46319 0.0
H2015 H 0.01867 0.15304 0.48982 0.0
H2016 H 0.01884 0.1289 0.4915 0.0
H2017 H 0.03943 0.14817 0.49646 0.0
H2018 H 0.05092 0.12198 0.49417 0.0
H2019 H 0.05026 0.09425 0.50995 0.0
H2020 H 0.58802 0.29892 0.20659 0.0
H2021 H 0.6179 0.29889 0.21986 0.0
H2022 H 0.62991 0.27515 0.17049 0.0
H2023 H 0.60072 0.27628 0.15709 0.0
H2024 H 0.63544 0.27659 0.2285 0.0
H2025 H 0.67681 0.31243 0.178 0.0
H2026 H 0.65294 0.31035 0.17794 0.0
H2027 H 0.66063 0.29114 0.16831 0.0
C2028 C 0.59709 0.29391 0.19844 0.0
C2029 C 0.59163 0.28791 0.18049 0.0
C2030 C 0.61441 0.29382 0.20614 0.0
C2031 C 0.62715 0.28755 0.19636 0.0
C2032 C 0.62132 0.28098 0.17855 0.0
H2033 H 0.71937 0.25439 0.2496 0.0
H2034 H 0.69006 0.25605 0.23696 0.0
C2035 C 0.60422 0.28142 0.1708 0.0
C2036 C 0.64601 0.28744 0.20474 0.0
H2037 H 0.69159 0.29683 0.19765 0.0
C2038 C 0.64762 0.28114 0.22162 0.0
C2039 C 0.66262 0.29368 0.19648 0.0
C2040 C 0.66322 0.30247 0.17929 0.0
C2041 C 0.66455 0.28051 0.22996 0.0
C2042 C 0.68094 0.28571 0.22125 0.0
C2043 C 0.67942 0.29243 0.20457 0.0
C2044 C 0.69962 0.28456 0.22913 0.0
C2045 C 0.66459 0.27485 0.24847 0.0
C2046 C 0.71582 0.29955 0.22871 0.0
C2047 C 0.73302 0.29847 0.23581 0.0
C2048 C 0.73498 0.2823 0.2437 0.0
C2049 C 0.71883 0.26727 0.24395 0.0
C2050 C 0.70171 0.2683 0.23676 0.0
H2051 H 0.65323 0.27789 0.25535 0.0
H2052 H 0.66276 0.25936 0.2481 0.0
H2053 H 0.67753 0.28242 0.25626 0.0
H2054 H 0.71521 0.31236 0.22298 0.0
H2055 H 0.74483 0.31047 0.23517 0.0
H2056 H 0.53546 0.84492 0.88914 0.0
H2057 H 0.53292 0.87293 0.90674 0.0
H2058 H 0.54789 0.85045 0.95369 0.0
H2059 H 0.55011 0.82187 0.93596 0.0
H2060 H 0.51097 0.87817 0.9336 0.0
H2061 H 0.58323 0.90484 0.95902 0.0
H2062 H 0.5755 0.88702 0.94065 0.0
H2063 H 0.5723 0.88062 0.96265 0.0
C2064 C 0.53825 0.84574 0.90323 0.0
C2065 C 0.54309 0.83071 0.91086 0.0
C2066 C 0.53673 0.862 0.91341 0.0
C2067 C 0.54039 0.86445 0.9318 0.0
C2068 C 0.54518 0.84945 0.93959 0.0
H2069 H 0.53318 0.95461 0.01362 0.0
H2070 H 0.53575 0.92563 -0.00272 0.0
C2071 C 0.54634 0.83286 0.92937 0.0
C2072 C 0.53898 0.88251 0.94247 0.0
H2073 H 0.56342 0.92153 0.97018 0.0
C2074 C 0.52253 0.88755 0.94156 0.0
C2075 C 0.55389 0.89534 0.95294 0.0
C2076 C 0.57231 0.89189 0.95384 0.0
C2077 C 0.52055 0.90432 0.95081 0.0
C2078 C 0.5354 0.91704 0.96137 0.0
C2079 C 0.55186 0.91205 0.96229 0.0
C2080 C 0.53397 0.93534 0.9715 0.0
C2081 C 0.50234 0.90821 0.94952 0.0
C2082 C 0.53217 0.95111 0.96285 0.0
C2083 C 0.53095 0.96803 0.9723 0.0
C2084 C 0.53111 0.96988 0.99085 0.0
C2085 C 0.5328 0.95402 -0.00056 0.0
C2086 C 0.53437 0.93726 0.99001 0.0
H2087 H 0.49148 0.8959 0.94298 0.0
H2088 H 0.49846 0.91179 0.96281 0.0
H2089 H 0.5032 0.9206 0.94188 0.0
H2090 H 0.53189 0.95043 0.94867 0.0
H2091 H 0.52978 0.97971 0.96499 0.0
H2092 H 0.97649 0.75316 0.7043 0.0
H2093 H 0.94798 0.75371 0.71658 0.0
H2094 H 0.94713 0.80219 0.68894 0.0
H2095 H 0.97559 0.8013 0.67614 0.0
H2096 H 0.93608 0.77481 0.738 0.0
H2097 H 0.89599 0.77456 0.67585 0.0
H2098 H 0.91827 0.77105 0.67616 0.0
H2099 H 0.91576 0.79461 0.67955 0.0
C2100 C 0.97032 0.76397 0.70061 0.0
C2101 C 0.97883 0.77708 0.68884 0.0
C2102 C 0.95372 0.76431 0.70783 0.0
C2103 C 0.94444 0.77773 0.70375 0.0
C2104 C 0.95309 0.79111 0.6922 0.0
H2105 H 0.85517 0.79734 0.76863 0.0
H2106 H 0.88424 0.79889 0.7561 0.0
C2107 C 0.96975 0.79073 0.68487 0.0
C2108 C 0.9262 0.77763 0.7118 0.0
H2109 H 0.88198 0.77871 0.70201 0.0
C2110 C 0.92437 0.77572 0.72995 0.0
C2111 C 0.91023 0.77854 0.70182 0.0
C2112 C 0.91003 0.77962 0.68225 0.0
C2113 C 0.90786 0.77492 0.73809 0.0
C2114 C 0.89204 0.77618 0.72818 0.0
C2115 C 0.89375 0.77788 0.71002 0.0
C2116 C 0.87371 0.77528 0.73623 0.0
C2117 C 0.90739 0.77213 0.75737 0.0
C2118 C 0.85724 0.76178 0.72949 0.0
C2119 C 0.84036 0.76083 0.7368 0.0
C2120 C 0.83887 0.77348 0.75114 0.0
C2121 C 0.85533 0.7871 0.7578 0.0
C2122 C 0.87225 0.78796 0.75057 0.0
H2123 H 0.91865 0.76663 0.76218 0.0
H2124 H 0.90882 0.78595 0.76495 0.0
H2125 H 0.89429 0.76214 0.7601 0.0
H2126 H 0.8574 0.7517 0.71853 0.0
H2127 H 0.82832 0.75009 0.73102 0.0
H2128 H 0.14068 0.01679 0.86386 0.0
H2129 H 0.12931 0.01439 0.89294 0.0
H2130 H 0.09673 0.05161 0.88115 0.0
H2131 H 0.10782 0.05397 0.85188 0.0
H2132 H 0.12254 0.04241 0.92265 0.0
H2133 H 0.06278 0.99442 0.88169 0.0
H2134 H 0.08497 0.00201 0.87349 0.0
H2135 H 0.07156 0.01827 0.87589 0.0
C2136 C 0.13142 0.02481 0.8676 0.0
C2137 C 0.12453 0.03497 0.85552 0.0
C2138 C 0.12514 0.02359 0.88423 0.0
C2139 C 0.11211 0.03263 0.88881 0.0
C2140 C 0.10674 0.04448 0.87755 0.0
H2141 H 0.03483 0.01676 0.96353 0.0
H2142 H 0.04945 0.01793 0.93603 0.0
C2143 C 0.11286 0.04557 0.86085 0.0
C2144 C 0.1014 0.02633 0.90341 0.0
H2145 H 0.06103 0.99654 0.91221 0.0
C2146 C 0.10909 0.03241 0.92052 0.0
C2147 C 0.08396 0.01328 0.90022 0.0
C2148 C 0.07528 0.00647 0.88184 0.0
C2149 C 0.09943 0.02598 0.93482 0.0
C2150 C 0.08208 0.01256 0.93162 0.0
C2151 C 0.0745 0.00647 0.91445 0.0
C2152 C 0.07074 0.0065 0.94595 0.0
C2153 C 0.10757 0.03419 0.9531 0.0
C2154 C 0.07715 0.99827 0.95994 0.0
C2155 C 0.06904 0.99801 0.97571 0.0
C2156 C 0.05418 0.00525 0.97708 0.0
C2157 C 0.04626 0.01096 0.96241 0.0
C2158 C 0.0546 0.01168 0.94681 0.0
H2159 H 0.11891 0.04736 0.9529 0.0
H2160 H 0.09715 0.03748 0.96125 0.0
H2161 H 0.11303 0.0237 0.9595 0.0
H2162 H 0.08935 0.99375 0.95917 0.0
H2163 H 0.07522 0.99367 0.98714 0.0
H2164 H 0.82885 0.40337 0.54301 0.0
H2165 H 0.8388 0.39225 0.57024 0.0
H2166 H 0.78387 0.35818 0.57461 0.0
H2167 H 0.77407 0.36856 0.54723 0.0
H2168 H 0.82877 0.39514 0.60363 0.0
H2169 H 0.81119 0.31949 0.57868 0.0
H2170 H 0.81214 0.33799 0.5643 0.0
H2171 H 0.79207 0.32859 0.57559 0.0
C2172 C 0.81897 0.39338 0.54976 0.0
C2173 C 0.80075 0.38655 0.54292 0.0
C2174 C 0.82466 0.38709 0.56529 0.0
C2175 C 0.81215 0.37402 0.57418 0.0
C2176 C 0.79386 0.36775 0.56763 0.0
H2177 H 0.79415 0.32558 0.6689 0.0
H2178 H 0.79537 0.34236 0.64253 0.0
C2179 C 0.78826 0.37374 0.55202 0.0
C2180 C 0.81789 0.36699 0.59049 0.0
H2181 H 0.81348 0.32616 0.61021 0.0
C2182 C 0.82579 0.38007 0.605 0.0
C2183 C 0.81425 0.34733 0.59217 0.0
C2184 C 0.80714 0.33258 0.57678 0.0
C2185 C 0.82893 0.37389 0.62149 0.0
C2186 C 0.82392 0.35427 0.62335 0.0
C2187 C 0.81705 0.34123 0.60867 0.0
C2188 C 0.82416 0.34679 0.64062 0.0
C2189 C 0.83676 0.38822 0.637 0.0
C2190 C 0.84006 0.34402 0.6483 0.0
C2191 C 0.83944 0.33447 0.66346 0.0
C2192 C 0.82289 0.32751 0.67105 0.0
C2193 C 0.80715 0.33094 0.66355 0.0
C2194 C 0.80779 0.34047 0.64846 0.0
H2195 H 0.84028 0.40302 0.6333 0.0
H2196 H 0.82683 0.38666 0.64716 0.0
H2197 H 0.84918 0.38552 0.64296 0.0
H2198 H 0.85277 0.34872 0.64228 0.0
H2199 H 0.85184 0.33225 0.66907 0.0
H2200 H 0.49601 0.04044 0.33548 0.0
H2201 H 0.50619 0.04244 0.36666 0.0
H2202 H 0.45161 0.03758 0.38067 0.0
H2203 H 0.4414 0.03594 0.34984 0.0
H2204 H 0.47858 0.06641 0.40092 0.0
H2205 H 0.49304 0.99657 0.39617 0.0
H2206 H 0.50403 0.01228 0.38072 0.0
H2207 H 0.47966 0.00362 0.37928 0.0
C2208 C 0.48625 0.0398 0.34525 0.0
C2209 C 0.468 0.03809 0.34036 0.0
C2210 C 0.49203 0.04094 0.36293 0.0
C2211 C 0.47953 0.04003 0.3757 0.0
C2212 C 0.46136 0.03839 0.37086 0.0
H2213 H 0.50583 0.0137 0.4785 0.0
H2214 H 0.48729 0.01655 0.45264 0.0
C2215 C 0.45562 0.03745 0.35329 0.0
C2216 C 0.48525 0.04037 0.39419 0.0
H2217 H 0.50338 0.01629 0.42269 0.0
C2218 C 0.48391 0.05545 0.40581 0.0
C2219 C 0.49163 0.02569 0.40035 0.0
C2220 C 0.49202 0.00851 0.38853 0.0
C2221 C 0.48958 0.05659 0.4236 0.0
C2222 C 0.49699 0.0425 0.42951 0.0
C2223 C 0.49772 0.02712 0.41796 0.0
C2224 C 0.5051 0.04366 0.44737 0.0
C2225 C 0.48764 0.07275 0.43586 0.0
C2226 C 0.5209 0.05827 0.45308 0.0
C2227 C 0.53119 0.0569 0.46819 0.0
C2228 C 0.52564 0.04093 0.47749 0.0
C2229 C 0.50967 0.02661 0.47197 0.0
C2230 C 0.49923 0.02813 0.45717 0.0
H2231 H 0.47705 0.07892 0.43052 0.0
H2232 H 0.48412 0.06803 0.44897 0.0
H2233 H 0.50073 0.08411 0.43757 0.0
H2234 H 0.52586 0.07005 0.44529 0.0
H2235 H 0.54375 0.06785 0.47221 0.0
H2236 H 0.79063 0.68503 0.08617 0.0
H2237 H 0.79204 0.70051 0.11563 0.0
H2238 H 0.78743 0.75133 0.09385 0.0
H2239 H 0.78609 0.7358 0.06389 0.0
H2240 H 0.81785 0.74836 0.1284 0.0
H2241 H 0.74298 0.72011 0.13098 0.0
H2242 H 0.75497 0.70582 0.11932 0.0
H2243 H 0.75308 0.72728 0.11093 0.0
C2244 C 0.79004 0.69957 0.08755 0.0
C2245 C 0.78808 0.70914 0.07265 0.0
C2246 C 0.79091 0.70839 0.10443 0.0
C2247 C 0.78974 0.72698 0.10691 0.0
C2248 C 0.78838 0.73694 0.09216 0.0
H2249 H 0.76553 0.77181 0.209 0.0
H2250 H 0.76693 0.76465 0.17749 0.0
C2251 C 0.78766 0.7281 0.0751 0.0
C2252 C 0.78903 0.73525 0.12502 0.0
H2253 H 0.7602 0.73337 0.15758 0.0
C2254 C 0.80524 0.74539 0.13476 0.0
C2255 C 0.77257 0.7313 0.13324 0.0
C2256 C 0.75481 0.72058 0.12317 0.0
C2257 C 0.80547 0.75141 0.15268 0.0
C2258 C 0.78908 0.74665 0.16121 0.0
C2259 C 0.77279 0.73697 0.1512 0.0
C2260 C 0.78849 0.75124 0.18047 0.0
C2261 C 0.8233 0.76292 0.16216 0.0
C2262 C 0.79989 0.74585 0.1928 0.0
C2263 C 0.79934 0.75026 0.21083 0.0
C2264 C 0.78696 0.75964 0.21699 0.0
C2265 C 0.77515 0.76449 0.2047 0.0
C2266 C 0.77598 0.76043 0.18665 0.0
H2267 H 0.83267 0.7707 0.15293 0.0
H2268 H 0.82131 0.77334 0.17252 0.0
H2269 H 0.83001 0.75325 0.16838 0.0
H2270 H 0.80917 0.73809 0.18853 0.0
H2271 H 0.80847 0.74611 0.21996 0.0
H2272 H 0.11056 0.99368 0.75902 0.0
H2273 H 0.09433 0.99739 0.73166 0.0
H2274 H 0.1394 0.04494 0.7225 0.0
H2275 H 0.15594 0.04065 0.74913 0.0
H2276 H 0.08317 0.02701 0.72456 0.0
H2277 H 0.13014 0.01679 0.67516 0.0
H2278 H 0.13238 0.01057 0.69734 0.0
H2279 H 0.1416 0.03471 0.69226 0.0
C2280 C 0.11712 0.00456 0.75085 0.0
C2281 C 0.13453 0.0167 0.75595 0.0
C2282 C 0.10786 0.00673 0.73533 0.0
C2283 C 0.11583 0.02121 0.72492 0.0
C2284 C 0.13328 0.03325 0.73 0.0
H2285 H 0.08652 0.07726 0.63963 0.0
H2286 H 0.099 0.06831 0.66668 0.0
C2287 C 0.14269 0.03082 0.74526 0.0
C2288 C 0.10545 0.02479 0.70946 0.0
H2289 H 0.10862 0.0333 0.6665 0.0
C2290 C 0.08858 0.0281 0.71178 0.0
C2291 C 0.11258 0.02618 0.69284 0.0
C2292 C 0.13008 0.02167 0.68922 0.0
C2293 C 0.07896 0.03355 0.69804 0.0
C2294 C 0.08649 0.03568 0.68169 0.0
C2295 C 0.10308 0.03186 0.67921 0.0
C2296 C 0.07758 0.04207 0.66687 0.0
C2297 C 0.06115 0.03756 0.70121 0.0
C2298 C 0.06128 0.03038 0.65837 0.0
C2299 C 0.05414 0.03546 0.64297 0.0
C2300 C 0.06334 0.0522 0.63587 0.0
C2301 C 0.07928 0.06423 0.64483 0.0
C2302 C 0.08637 0.05917 0.66023 0.0
H2303 H 0.05901 0.03886 0.71542 0.0
H2304 H 0.0605 0.05082 0.69557 0.0
H2305 H 0.04985 0.02575 0.69463 0.0
H2306 H 0.05453 0.01697 0.66321 0.0
H2307 H 0.04197 0.02583 0.63614 0.0
H2308 H 0.78324 0.40573 0.41901 0.0
H2309 H 0.7896 0.3868 0.39387 0.0
H2310 H 0.80115 0.34729 0.42837 0.0
H2311 H 0.79456 0.36581 0.45352 0.0
H2312 H 0.8212 0.37268 0.38658 0.0
H2313 H 0.75702 0.31655 0.39432 0.0
H2314 H 0.76192 0.34023 0.40507 0.0
H2315 H 0.77307 0.32383 0.41324 0.0
C2316 C 0.78714 0.39302 0.42124 0.0
C2317 C 0.78794 0.38698 0.43815 0.0
C2318 C 0.79094 0.38238 0.40693 0.0
C2319 C 0.79566 0.36568 0.40941 0.0
C2320 C 0.79732 0.36008 0.42631 0.0
H2321 H 0.7896 0.27634 0.32684 0.0
H2322 H 0.79691 0.29483 0.3554 0.0
C2323 C 0.79339 0.37059 0.44059 0.0
C2324 C 0.79691 0.3531 0.39411 0.0
H2325 H 0.77337 0.31185 0.37042 0.0
C2326 C 0.8109 0.35927 0.38307 0.0
C2327 C 0.78345 0.33563 0.3898 0.0
C2328 C 0.76792 0.32864 0.40112 0.0
C2329 C 0.81147 0.3485 0.36739 0.0
C2330 C 0.79751 0.33148 0.36271 0.0
C2331 C 0.78403 0.32495 0.37416 0.0
C2332 C 0.79542 0.32104 0.34532 0.0
C2333 C 0.82679 0.35549 0.35588 0.0
C2334 C 0.79202 0.32974 0.33036 0.0
C2335 C 0.7877 0.31922 0.31407 0.0
C2336 C 0.78652 0.29982 0.31262 0.0
C2337 C 0.79014 0.29121 0.32763 0.0
C2338 C 0.79452 0.30176 0.34388 0.0
H2339 H 0.839 0.36503 0.36361 0.0
H2340 H 0.83056 0.34348 0.34908 0.0
H2341 H 0.82241 0.36366 0.34577 0.0
H2342 H 0.79219 0.34451 0.33136 0.0
H2343 H 0.78511 0.32625 0.3027 0.0
H2344 H 0.46437 0.07353 0.25097 0.0
H2345 H 0.47944 0.06901 0.22445 0.0
H2346 H 0.43479 0.01978 0.20647 0.0
H2347 H 0.41939 0.0246 0.23274 0.0
H2348 H 0.48908 0.03574 0.22002 0.0
H2349 H 0.44762 0.04508 0.16141 0.0
H2350 H 0.44507 0.05436 0.18331 0.0
H2351 H 0.43521 0.02961 0.17634 0.0
C2352 C 0.45749 0.0622 0.241 0.0
C2353 C 0.44087 0.04933 0.24379 0.0
C2354 C 0.46609 0.05961 0.22595 0.0
C2355 C 0.45819 0.04405 0.21365 0.0
C2356 C 0.4409 0.03204 0.21573 0.0
H2357 H 0.50942 0.98635 0.13877 0.0
H2358 H 0.49355 0.99367 0.1641 0.0
C2359 C 0.43215 0.0348 0.23071 0.0
C2360 C 0.46925 0.03881 0.20027 0.0
H2361 H 0.47157 0.03122 0.15622 0.0
C2362 C 0.48532 0.03483 0.20606 0.0
C2363 C 0.4641 0.03751 0.18216 0.0
C2364 C 0.44713 0.04201 0.17538 0.0
C2365 C 0.49653 0.02967 0.19409 0.0
C2366 C 0.49137 0.02839 0.17606 0.0
C2367 C 0.47527 0.0322 0.17021 0.0
C2368 C 0.50297 0.02402 0.16291 0.0
C2369 C 0.51391 0.02588 0.20065 0.0
C2370 C 0.51387 0.03881 0.15456 0.0
C2371 C 0.52303 0.03474 0.14036 0.0
C2372 C 0.52119 0.01581 0.13425 0.0
C2373 C 0.51114 1.00104 0.14336 0.0
C2374 C 0.50201 0.00516 0.15766 0.0
H2375 H 0.5163 0.0282 0.21518 0.0
H2376 H 0.51341 0.011 0.19642 0.0
H2377 H 0.5256 0.03527 0.19477 0.0
H2378 H 0.5147 0.05344 0.15862 0.0
H2379 H 0.53088 0.04634 0.13362 0.0
H2380 H 0.8081 0.6922 0.95012 0.0
H2381 H 0.80939 0.70185 0.92029 0.0
H2382 H 0.78628 0.74695 0.93575 0.0
H2383 H 0.7853 0.73758 0.96583 0.0
H2384 H 0.78137 0.70233 0.89733 0.0
H2385 H 0.82847 0.77499 0.90979 0.0
H2386 H 0.82552 0.75811 0.92605 0.0
H2387 H 0.80907 0.7709 0.92248 0.0
C2388 C 0.80352 0.70436 0.94728 0.0
C2389 C 0.79669 0.71418 0.96046 0.0
C2390 C 0.80421 0.70983 0.93015 0.0
C2391 C 0.79812 0.72527 0.92569 0.0
C2392 C 0.79145 0.73525 0.93886 0.0
H2393 H 0.78463 0.77736 0.83057 0.0
H2394 H 0.78614 0.76769 0.86007 0.0
C2395 C 0.79084 0.72984 0.95608 0.0
C2396 C 0.79805 0.73025 0.90711 0.0
H2397 H 0.81366 0.76621 0.88116 0.0
C2398 C 0.78853 0.71628 0.89378 0.0
C2399 C 0.80733 0.74844 0.9024 0.0
C2400 C 0.81831 0.76394 0.9159 0.0
C2401 C 0.78765 0.72009 0.87605 0.0
C2402 C 0.79694 0.7383 0.87132 0.0
C2403 C 0.80658 0.75222 0.88466 0.0
C2404 C 0.79601 0.74366 0.85288 0.0
C2405 C 0.7762 0.70475 0.86267 0.0
C2406 C 0.8011 0.73344 0.8387 0.0
C2407 C 0.80002 0.73885 0.82151 0.0
C2408 C 0.7942 0.75482 0.81822 0.0
C2409 C 0.78934 0.76506 0.8325 0.0
C2410 C 0.79019 0.75954 0.8495 0.0
H2411 H 0.76621 0.6937 0.86894 0.0
H2412 H 0.76873 0.71074 0.85287 0.0
H2413 H 0.78515 0.69775 0.85564 0.0
H2414 H 0.80606 0.72139 0.84094 0.0
H2415 H 0.80396 0.73072 0.81087 0.0
H2416 H 0.81981 0.0788 0.05217 0.0
H2417 H 0.8429 0.06636 0.03926 0.0
H2418 H 0.86953 0.12158 0.02343 0.0
H2419 H 0.84643 0.13428 0.03624 0.0
H2420 H 0.84975 0.07171 -7e-05 0.0
H2421 H 0.9091 0.09888 0.04954 0.0
H2422 H 0.88599 0.09455 0.05548 0.0
H2423 H 0.89587 0.11455 0.04372 0.0
C2424 C 0.83081 0.08845 0.04634 0.0
C2425 C 0.83128 0.10749 0.04508 0.0
C2426 C 0.84386 0.08126 0.03887 0.0
C2427 C 0.85763 0.09309 0.03033 0.0
C2428 C 0.85885 0.11234 0.02998 0.0
H2429 H 0.94756 0.06235 0.98653 0.0
H2430 H 0.92512 0.07987 0.99011 0.0
C2431 C 0.84573 0.11953 0.03734 0.0
C2432 C 0.87014 0.08498 0.02097 0.0
H2433 H 0.91283 0.08027 0.02456 0.0
C2434 C 0.86362 0.07367 0.00515 0.0
C2435 C 0.88811 0.08778 0.02793 0.0
C2436 C 0.8953 0.09953 0.04514 0.0
C2437 C 0.87469 0.06461 0.99619 0.0
C2438 C 0.89251 0.06692 0.00345 0.0
C2439 C 0.89917 0.07876 0.01899 0.0
C2440 C 0.90395 0.05562 0.99646 0.0
C2441 C 0.86724 0.05245 0.97927 0.0
C2442 C 0.89909 0.0361 -0.00179 0.0
C2443 C 0.91191 0.02612 0.99643 0.0
C2444 C 0.92973 0.03563 0.99295 0.0
C2445 C 0.93399 0.05479 0.98955 0.0
C2446 C 0.9212 0.06477 0.99143 0.0
H2447 H 0.85546 0.0562 0.97309 0.0
H2448 H 0.87786 0.05388 0.9698 0.0
H2449 H 0.86262 0.03736 0.98202 0.0
H2450 H 0.88589 0.02893 0.0024 0.0
H2451 H 0.90829 0.01142 -0.00076 0.0
H2452 H 0.34391 0.40099 0.0442 0.0
H2453 H 0.37591 0.42026 0.04659 0.0
H2454 H 0.37031 0.43227 0.99266 0.0
H2455 H 0.33854 0.41365 0.99034 0.0
H2456 H 0.40638 0.41964 0.02762 0.0
H2457 H 0.38594 0.48495 0.01921 0.0
H2458 H 0.37005 0.46304 0.0238 0.0
H2459 H 0.37633 0.46667 0.00176 0.0
C2460 C 0.34962 0.4076 0.03284 0.0
C2461 C 0.33867 0.40614 0.01719 0.0
C2462 C 0.36784 0.4186 0.03422 0.0
C2463 C 0.37528 0.42811 0.01994 0.0
C2464 C 0.36467 0.42553 0.00399 0.0
H2465 H 0.47727 0.49765 0.99106 0.0
H2466 H 0.44636 0.47695 0.99244 0.0
C2467 C 0.34653 0.41482 0.00268 0.0
C2468 C 0.39386 0.44138 0.02161 0.0
H2469 H 0.41712 0.48702 0.01577 0.0
C2470 C 0.40875 0.43442 0.02525 0.0
C2471 C 0.39689 0.46072 0.01864 0.0
C2472 C 0.38145 0.46935 0.01582 0.0
C2473 C 0.42664 0.44616 0.02525 0.0
C2474 C 0.42957 0.46522 0.02153 0.0
C2475 C 0.41473 0.4723 0.01838 0.0
C2476 C 0.44802 0.47806 0.02078 0.0
C2477 C 0.44233 0.43809 0.02878 0.0
C2478 C 0.45886 0.48583 0.03629 0.0
C2479 C 0.47638 0.49782 0.03558 0.0
C2480 C 0.48339 0.50216 0.01931 0.0
C2481 C 0.47228 0.49464 0.00379 0.0
C2482 C 0.45468 0.48276 0.00454 0.0
H2483 H 0.43777 0.42253 0.0297 0.0
H2484 H 0.45177 0.4411 0.01822 0.0
H2485 H 0.45003 0.44503 0.04133 0.0
H2486 H 0.45382 0.48248 0.04894 0.0
H2487 H 0.48457 0.50327 0.04781 0.0
H2488 H 0.41233 0.58315 0.75967 0.0
H2489 H 0.39826 0.60586 0.77352 0.0
H2490 H 0.347 0.57601 0.74509 0.0
H2491 H 0.36082 0.55297 0.73155 0.0
H2492 H 0.38178 0.62951 0.75816 0.0
H2493 H 0.33292 0.58002 0.79512 0.0
H2494 H 0.35187 0.57404 0.78577 0.0
H2495 H 0.33115 0.57143 0.77239 0.0
C2496 C 0.39802 0.58138 0.75646 0.0
C2497 C 0.38757 0.56622 0.74469 0.0
C2498 C 0.39005 0.59432 0.7644 0.0
C2499 C 0.37154 0.59226 0.76066 0.0
C2500 C 0.36119 0.57742 0.74858 0.0
H2501 H 0.29074 0.64267 0.75562 0.0
H2502 H 0.31161 0.62335 0.75809 0.0
C2503 C 0.3691 0.56437 0.74077 0.0
C2504 C 0.36306 0.6061 0.76863 0.0
H2505 H 0.32509 0.60857 0.78831 0.0
C2506 C 0.36965 0.62512 0.76518 0.0
C2507 C 0.34747 0.60031 0.77804 0.0
C2508 C 0.34057 0.58036 0.78321 0.0
C2509 C 0.35997 0.63814 0.76939 0.0
C2510 C 0.34344 0.63182 0.7773 0.0
C2511 C 0.33773 0.61325 0.78212 0.0
C2512 C 0.33034 0.64299 0.77761 0.0
C2513 C 0.36668 0.65807 0.7641 0.0
C2514 C 0.33387 0.6602 0.78809 0.0
C2515 C 0.32203 0.67142 0.78655 0.0
C2516 C 0.30656 0.66546 0.77454 0.0
C2517 C 0.30269 0.64775 0.76476 0.0
C2518 C 0.31451 0.63665 0.76625 0.0
H2519 H 0.37911 0.66021 0.75685 0.0
H2520 H 0.35597 0.66141 0.7557 0.0
H2521 H 0.36986 0.6683 0.776 0.0
H2522 H 0.34597 0.66517 0.79704 0.0
H2523 H 0.32539 0.68507 0.79418 0.0
H2524 H 0.22305 0.64903 0.5443 0.0
H2525 H 0.19089 0.63189 0.54486 0.0
H2526 H 0.20495 0.57976 0.54999 0.0
H2527 H 0.23688 0.59656 0.54925 0.0
H2528 H 0.18209 0.60173 0.5151 0.0
H2529 H 0.15892 0.57538 0.57859 0.0
H2530 H 0.17716 0.59685 0.57747 0.0
H2531 H 0.181 0.57414 0.57297 0.0
C2532 C 0.21927 0.63404 0.54611 0.0
C2533 C 0.23221 0.62393 0.54622 0.0
C2534 C 0.20102 0.62438 0.54665 0.0
C2535 C 0.19581 0.60471 0.54755 0.0
C2536 C 0.20889 0.59502 0.54958 0.0
H2537 H 0.09429 0.51772 0.52136 0.0
H2538 H 0.12687 0.53298 0.52746 0.0
C2539 C 0.22706 0.60458 0.54884 0.0
C2540 C 0.17744 0.5937 0.54132 0.0
H2541 H 0.1395 0.56215 0.5529 0.0
C2542 C 0.17264 0.5932 0.52335 0.0
C2543 C 0.16574 0.58217 0.55212 0.0
C2544 C 0.17085 0.58215 0.57141 0.0
C2545 C 0.15611 0.58142 0.51579 0.0
C2546 C 0.14401 0.57043 0.52669 0.0
C2547 C 0.14896 0.57064 0.54464 0.0
C2548 C 0.12538 0.56034 0.52018 0.0
C2549 C 0.15187 0.58076 0.49623 0.0
C2550 C 0.11415 0.57067 0.51361 0.0
C2551 C 0.09575 0.56202 0.50991 0.0
C2552 C 0.08832 0.54307 0.51319 0.0
C2553 C 0.09974 0.53242 0.51887 0.0
C2554 C 0.11826 0.54106 0.52236 0.0
H2555 H 0.1645 0.5841 0.48923 0.0
H2556 H 0.14301 0.56664 0.49075 0.0
H2557 H 0.1448 0.59159 0.49355 0.0
H2558 H 0.11942 0.5857 0.51226 0.0
H2559 H 0.08724 0.57057 0.50558 0.0
H2560 H 0.69588 0.9738 0.73129 0.0
H2561 H 0.71124 0.95194 0.74316 0.0
H2562 H 0.67158 0.93838 0.7815 0.0
H2563 H 0.65562 0.95935 0.76898 0.0
H2564 H 0.72649 0.95783 0.77603 0.0
H2565 H 0.67576 0.88663 0.76608 0.0
H2566 H 0.67302 0.90651 0.75497 0.0
H2567 H 0.66813 0.90474 0.77755 0.0
C2568 C 0.69032 0.96583 0.74202 0.0
C2569 C 0.67476 0.96816 0.74936 0.0
C2570 C 0.69901 0.95339 0.74875 0.0
C2571 C 0.69245 0.94357 0.76315 0.0
C2572 C 0.67658 0.94551 0.77016 0.0
H2573 H 0.75745 0.8801 0.81798 0.0
H2574 H 0.73653 0.89992 0.81521 0.0
C2575 C 0.6676 0.95756 0.7631 0.0
C2576 C 0.70339 0.93294 0.77181 0.0
H2577 H 0.70383 0.88874 0.78148 0.0
C2578 C 0.72147 0.94276 0.77741 0.0
C2579 C 0.69663 0.91337 0.77377 0.0
C2580 C 0.67737 0.90213 0.76766 0.0
C2581 C 0.73336 0.93326 0.78396 0.0
C2582 C 0.72684 0.91361 0.78517 0.0
C2583 C 0.70852 0.90393 0.78067 0.0
C2584 C 0.73957 0.90245 0.78753 0.0
C2585 C 0.75309 0.94394 0.78843 0.0
C2586 C 0.74808 0.89781 0.77289 0.0
C2587 C 0.75985 0.88675 0.77442 0.0
C2588 C 0.76322 0.8802 0.79062 0.0
C2589 C 0.75506 0.88524 0.80544 0.0
C2590 C 0.74311 0.89632 0.80386 0.0
H2591 H 0.75529 0.95954 0.78985 0.0
H2592 H 0.75824 0.93956 0.80079 0.0
H2593 H 0.7612 0.94052 0.77778 0.0
H2594 H 0.7454 0.90256 0.76023 0.0
H2595 H 0.76609 0.88298 0.76288 0.0
H2596 H 0.71482 0.86222 0.51302 0.0
H2597 H 0.6921 0.87909 0.50698 0.0
H2598 H 0.72884 0.9308 0.53247 0.0
H2599 H 0.75164 0.91426 0.53807 0.0
H2600 H 0.67481 0.89726 0.52824 0.0
H2601 H 0.71535 0.94903 0.48708 0.0
H2602 H 0.72197 0.92854 0.493 0.0
H2603 H 0.72751 0.94981 0.50788 0.0
C2604 C 0.718 0.87717 0.51735 0.0
C2605 C 0.73506 0.88694 0.52593 0.0
C2606 C 0.70505 0.88682 0.51383 0.0
C2607 C 0.70893 0.90635 0.51884 0.0
C2608 C 0.72573 0.91591 0.52793 0.0
H2609 H 0.65506 0.99113 0.5361 0.0
H2610 H 0.6748 0.97026 0.53458 0.0
C2611 C 0.73869 0.90636 0.5313 0.0
C2612 C 0.69527 0.91673 0.51532 0.0
H2613 H 0.69038 0.95754 0.49997 0.0
C2614 C 0.6781 0.91025 0.52178 0.0
C2615 C 0.69946 0.93359 0.50668 0.0
C2616 C 0.71701 0.94052 0.4981 0.0
C2617 C 0.66545 0.92075 0.52075 0.0
C2618 C 0.67015 0.93818 0.51316 0.0
C2619 C 0.68695 0.94427 0.506 0.0
C2620 C 0.65823 0.95083 0.5136 0.0
C2621 C 0.64742 0.91363 0.52842 0.0
C2622 C 0.64245 0.94681 0.50221 0.0
C2623 C 0.63109 0.95868 0.50308 0.0
C2624 C 0.63531 0.97474 0.5154 0.0
C2625 C 0.65125 0.97873 0.52668 0.0
C2626 C 0.66262 0.96692 0.52573 0.0
H2627 H 0.64627 0.90036 0.53484 0.0
H2628 H 0.64548 0.92462 0.53821 0.0
H2629 H 0.63629 0.91084 0.51784 0.0
H2630 H 0.6389 0.93446 0.49272 0.0
H2631 H 0.61889 0.95516 0.49426 0.0
H2632 H 0.41843 0.44861 0.71965 0.0
H2633 H 0.40091 0.41783 0.72805 0.0
H2634 H 0.35163 0.43449 0.72136 0.0
H2635 H 0.36913 0.46549 0.71357 0.0
H2636 H 0.35747 0.42333 0.75404 0.0
H2637 H 0.36596 0.37053 0.70178 0.0
H2638 H 0.38653 0.38677 0.71213 0.0
H2639 H 0.37117 0.39553 0.69894 0.0
C2640 C 0.4038 0.44549 0.71953 0.0
C2641 C 0.39508 0.45939 0.71609 0.0
C2642 C 0.39383 0.42791 0.72429 0.0
C2643 C 0.37502 0.42396 0.72526 0.0
C2644 C 0.36618 0.43739 0.72073 0.0
H2645 H 0.28436 0.3332 0.73971 0.0
H2646 H 0.30759 0.36093 0.73166 0.0
C2647 C 0.37615 0.45503 0.71627 0.0
C2648 C 0.36464 0.40676 0.73272 0.0
H2649 H 0.3491 0.35859 0.72539 0.0
C2650 C 0.35573 0.40916 0.74785 0.0
C2651 C 0.36267 0.38835 0.72468 0.0
C2652 C 0.37197 0.38505 0.70841 0.0
C2653 C 0.34421 0.39363 0.75474 0.0
C2654 C 0.34171 0.37537 0.74632 0.0
C2655 C 0.35118 0.37278 0.73168 0.0
C2656 C 0.32794 0.35905 0.75156 0.0
C2657 C 0.33416 0.39679 0.77052 0.0
C2658 C 0.33181 0.34934 0.7656 0.0
C2659 C 0.31857 0.33366 0.77025 0.0
C2660 C 0.30154 0.32758 0.76075 0.0
C2661 C 0.2975 0.33771 0.7471 0.0
C2662 C 0.31072 0.35334 0.74244 0.0
H2663 H 0.33779 0.41197 0.77567 0.0
H2664 H 0.31929 0.39171 0.76695 0.0
H2665 H 0.33725 0.38843 0.78113 0.0
H2666 H 0.34503 0.35382 0.77285 0.0
H2667 H 0.32164 0.32623 0.78116 0.0
H2668 H 0.17922 0.56732 0.2676 0.0
H2669 H 0.19977 0.59874 0.27673 0.0
H2670 H 0.18259 0.61945 0.2294 0.0
H2671 H 0.16136 0.58806 0.22052 0.0
H2672 H 0.22778 0.61485 0.25835 0.0
H2673 H 0.18302 0.66174 0.26633 0.0
H2674 H 0.17444 0.63621 0.265 0.0
H2675 H 0.17886 0.64813 0.24535 0.0
C2676 C 0.17971 0.57867 0.25926 0.0
C2677 C 0.16901 0.57541 0.24328 0.0
C2678 C 0.19133 0.59654 0.26452 0.0
C2679 C 0.19256 0.6113 0.25376 0.0
C2680 C 0.18149 0.60825 0.23802 0.0
H2681 H 0.2692 0.71381 0.23904 0.0
H2682 H 0.25169 0.68046 0.23751 0.0
C2683 C 0.16954 0.59038 0.23289 0.0
C2684 C 0.20685 0.62919 0.25813 0.0
H2685 H 0.21462 0.67702 0.26397 0.0
C2686 C 0.22491 0.62845 0.25982 0.0
C2687 C 0.20293 0.64678 0.26012 0.0
C2688 C 0.18374 0.64828 0.25928 0.0
C2689 C 0.2393 0.64504 0.26284 0.0
C2690 C 0.23535 0.66253 0.26403 0.0
C2691 C 0.21736 0.66334 0.26291 0.0
C2692 C 0.24965 0.68042 0.26554 0.0
C2693 C 0.25859 0.64395 0.26441 0.0
C2694 C 0.25472 0.69081 0.28191 0.0
C2695 C 0.26465 0.70979 0.28286 0.0
C2696 C 0.26932 0.71849 0.26738 0.0
C2697 C 0.26558 0.7075 0.25114 0.0
C2698 C 0.2557 0.68849 0.25023 0.0
H2699 H 0.25929 0.62911 0.26441 0.0
H2700 H 0.26583 0.65045 0.25327 0.0
H2701 H 0.26581 0.65219 0.2767 0.0
H2702 H 0.25 0.68459 0.29378 0.0
H2703 H 0.26762 0.71786 0.29561 0.0
H2704 H 0.52401 0.72174 0.46667 0.0
H2705 H 0.52871 0.69375 0.47913 0.0
H2706 H 0.48276 0.65807 0.44618 0.0
H2707 H 0.47862 0.68598 0.433 0.0
H2708 H 0.51003 0.66713 0.49699 0.0
H2709 H 0.52019 0.63296 0.43302 0.0
H2710 H 0.51866 0.65694 0.43553 0.0
H2711 H 0.49837 0.63719 0.4332 0.0
C2712 C 0.51479 0.70794 0.46219 0.0
C2713 C 0.50103 0.70603 0.44874 0.0
C2714 C 0.51753 0.69192 0.4693 0.0
C2715 C 0.50643 0.67368 0.46325 0.0
C2716 C 0.49194 0.67188 0.45061 0.0
H2717 H 0.50378 0.56018 0.4896 0.0
H2718 H 0.49718 0.58807 0.47863 0.0
C2719 C 0.48944 0.68787 0.44322 0.0
C2720 C 0.51023 0.65662 0.47003 0.0
H2721 H 0.518 0.61434 0.45724 0.0
C2722 C 0.51183 0.65563 0.48828 0.0
C2723 C 0.51277 0.64163 0.4587 0.0
C2724 C 0.51261 0.64229 0.43905 0.0
C2725 C 0.51553 0.63998 0.49546 0.0
C2726 C 0.51774 0.6249 0.48411 0.0
C2727 C 0.51615 0.62585 0.4659 0.0
C2728 C 0.52182 0.60804 0.49087 0.0
C2729 C 0.51678 0.6396 0.51515 0.0
C2730 C 0.538 0.60997 0.50119 0.0
C2731 C 0.5418 0.59407 0.50754 0.0
C2732 C 0.52956 0.57587 0.50356 0.0
C2733 C 0.5135 0.57396 0.49295 0.0
C2734 C 0.50969 0.58989 0.48666 0.0
H2735 H 0.51049 0.64983 0.52174 0.0
H2736 H 0.51009 0.62519 0.5189 0.0
H2737 H 0.5313 0.64352 0.52013 0.0
H2738 H 0.54776 0.62378 0.50426 0.0
H2739 H 0.55438 0.59606 0.51551 0.0
H2740 H 0.63549 0.28873 0.62821 0.0
H2741 H 0.6606 0.28412 0.64671 0.0
H2742 H 0.64708 0.31713 0.69001 0.0
H2743 H 0.62141 0.32095 0.67181 0.0
H2744 H 0.69043 0.30672 0.66371 0.0
H2745 H 0.64638 0.27013 0.71273 0.0
H2746 H 0.63724 0.27553 0.69221 0.0
H2747 H 0.64429 0.29345 0.71051 0.0
C2748 C 0.63801 0.29517 0.64163 0.0
C2749 C 0.62646 0.30511 0.64864 0.0
C2750 C 0.65231 0.29245 0.65221 0.0
C2751 C 0.65543 0.2998 0.66992 0.0
C2752 C 0.64456 0.31072 0.67659 0.0
H2753 H 0.7334 0.30213 0.756 0.0
H2754 H 0.70903 0.30597 0.73612 0.0
C2755 C 0.63003 0.3131 0.66613 0.0
C2756 C 0.66998 0.29596 0.6814 0.0
H2757 H 0.67826 0.27909 0.72043 0.0
C2758 C 0.68774 0.30055 0.67605 0.0
C2759 C 0.66645 0.28775 0.69746 0.0
C2760 C 0.64752 0.28125 0.70348 0.0
C2761 C 0.70215 0.29774 0.68655 0.0
C2762 C 0.69867 0.28998 0.70278 0.0
C2763 C 0.6809 0.28515 0.70803 0.0
C2764 C 0.71336 0.28724 0.71476 0.0
C2765 C 0.72104 0.30358 0.68038 0.0
C2766 C 0.72373 0.27518 0.70946 0.0
C2767 C 0.73779 0.27305 0.72077 0.0
C2768 C 0.74159 0.28275 0.73767 0.0
C2769 C 0.73088 0.29446 0.74307 0.0
C2770 C 0.71693 0.29668 0.73172 0.0
H2771 H 0.72212 0.31341 0.66992 0.0
H2772 H 0.73123 0.31057 0.69143 0.0
H2773 H 0.72449 0.29078 0.67492 0.0
H2774 H 0.72092 0.26739 0.69659 0.0
H2775 H 0.74563 0.26375 0.71627 0.0
H2776 H 0.0315 0.33752 0.92354 0.0
H2777 H 0.03104 0.367 0.9397 0.0
H2778 H 0.99672 0.3356 0.97633 0.0
H2779 H 0.99699 0.30563 0.96006 0.0
H2780 H 0.99528 0.37544 0.94594 0.0
H2781 H 0.04122 0.37825 0.00564 0.0
H2782 H 0.0431 0.36511 0.98531 0.0
H2783 H 0.02413 0.35642 -0.00202 0.0
C2784 C 0.02396 0.33675 0.93513 0.0
C2785 C 0.01415 0.31917 0.94043 0.0
C2786 C 0.02373 0.35366 0.94433 0.0
C2787 C 0.01379 0.35343 0.9591 0.0
C2788 C 0.00451 0.33599 0.96494 0.0
H2789 H 0.99554 0.45932 0.00448 0.0
H2790 H 0.9903 0.42567 0.9949 0.0
C2791 C 0.00472 0.31892 0.95568 0.0
C2792 C 0.0126 0.37165 0.96757 0.0
H2793 H 0.03147 0.4053 0.00153 0.0
C2794 C 0.00288 0.38186 0.95827 0.0
C2795 C 0.02268 0.37994 0.98355 0.0
C2796 C 0.03346 0.36949 0.99379 0.0
C2797 C 0.00348 0.40048 0.96426 0.0
C2798 C 0.01407 0.40902 0.97992 0.0
C2799 C 0.02331 0.3986 0.98954 0.0
C2800 C 0.01699 0.42928 0.98566 0.0
C2801 C 0.9936 0.41131 0.95341 0.0
C2802 C 0.0337 0.44234 0.98354 0.0
C2803 C 0.03676 0.46155 0.98891 0.0
C2804 C 0.02315 0.46807 -0.00339 0.0
C2805 C 0.00631 0.45487 -0.00145 0.0
C2806 C 0.00327 0.43562 0.99314 0.0
H2807 H 0.98687 0.40298 0.94096 0.0
H2808 H 0.9831 0.41512 0.96108 0.0
H2809 H 0.00325 0.42471 0.95023 0.0
H2810 H 0.0444 0.43766 0.97769 0.0
H2811 H 0.04987 0.47122 0.98711 0.0
H2812 H 0.01837 0.79937 0.14047 0.0
H2813 H 0.9888 0.79795 0.15181 0.0
H2814 H 0.98915 0.74682 0.17555 0.0
H2815 H 0.01869 0.74837 0.16472 0.0
H2816 H 0.95395 0.76945 0.14963 0.0
H2817 H 0.98779 0.78485 0.21714 0.0
H2818 H 1.00033 0.78783 0.19783 0.0
H2819 H 0.99156 0.76463 0.20516 0.0
C2820 C 0.01199 0.78771 0.14791 0.0
C2821 C 0.02096 0.77419 0.15202 0.0
C2822 C 0.99513 0.7869 0.15434 0.0
C2823 C 0.98705 0.7725 0.16481 0.0
C2824 C 0.99539 0.75827 0.16782 0.0
H2825 H 0.8998 0.7484 0.23272 0.0
H2826 H 0.92372 0.74673 0.21342 0.0
C2827 C 0.01226 0.75919 0.16162 0.0
C2828 C 0.97068 0.77301 0.17382 0.0
H2829 H 0.95564 0.77578 0.21468 0.0
C2830 C 0.95427 0.77093 0.16384 0.0
C2831 C 0.97125 0.77509 0.19236 0.0
C2832 C 0.98871 0.77841 0.20377 0.0
C2833 C 0.9382 0.77023 0.17201 0.0
C2834 C 0.93874 0.77186 0.19056 0.0
C2835 C 0.95524 0.77429 0.20046 0.0
C2836 C 0.92253 0.77136 0.20023 0.0
C2837 C 0.92073 0.7673 0.16078 0.0
C2838 C 0.9138 0.78561 0.19902 0.0
C2839 C 0.90014 0.78657 0.21002 0.0
C2840 C 0.89516 0.77343 0.22254 0.0
C2841 C 0.90352 0.75882 0.22333 0.0
C2842 C 0.91709 0.7578 0.21226 0.0
H2843 H 0.92168 0.76164 0.14713 0.0
H2844 H 0.90921 0.75741 0.16644 0.0
H2845 H 0.9177 0.78111 0.16021 0.0
H2846 H 0.91809 0.79647 0.19012 0.0
H2847 H 0.89405 0.79811 0.20928 0.0
H2848 H 0.51847 0.32771 0.10287 0.0
H2849 H 0.51917 0.35633 0.08791 0.0
H2850 H 0.56241 0.38927 0.12511 0.0
H2851 H 0.56139 0.36081 0.14038 0.0
H2852 H 0.51427 0.39324 0.10051 0.0
H2853 H 0.58281 0.4033 0.07686 0.0
H2854 H 0.56981 0.38104 0.08394 0.0
H2855 H 0.5813 0.40037 0.09988 0.0
C2856 C 0.52821 0.34099 0.10794 0.0
C2857 C 0.53991 0.34147 0.12304 0.0
C2858 C 0.52857 0.35758 0.0993 0.0
C2859 C 0.54097 0.37549 0.10498 0.0
C2860 C 0.55274 0.37596 0.12001 0.0
H2861 H 0.55425 0.49394 0.07382 0.0
H2862 H 0.55427 0.46588 0.08946 0.0
C2863 C 0.55211 0.35946 0.12889 0.0
C2864 C 0.54152 0.39343 0.09538 0.0
H2865 H 0.5688 0.4275 0.0722 0.0
C2866 C 0.52627 0.4006 0.09435 0.0
C2867 C 0.55698 0.40358 0.08706 0.0
C2868 C 0.57365 0.3967 0.08679 0.0
C2869 C 0.52619 0.41722 0.08579 0.0
C2870 C 0.54164 0.42736 0.07752 0.0
C2871 C 0.55686 0.42016 0.07844 0.0
C2872 C 0.54195 0.44504 0.06768 0.0
C2873 C 0.5095 0.42407 0.08569 0.0
C2874 C 0.53516 0.44341 0.04992 0.0
C2875 C 0.53534 0.45962 0.04079 0.0
C2876 C 0.54213 0.4784 0.04895 0.0
C2877 C 0.54885 0.48001 0.06679 0.0
C2878 C 0.54888 0.46376 0.07587 0.0
H2879 H 0.49888 0.41552 0.09339 0.0
H2880 H 0.51322 0.43913 0.09121 0.0
H2881 H 0.50378 0.42341 0.07196 0.0
H2882 H 0.52962 0.42944 0.04301 0.0
H2883 H 0.52985 0.45734 0.02722 0.0
H2884 H 0.99082 0.28698 0.32596 0.0
H2885 H 0.96035 0.28595 0.31495 0.0
H2886 H 0.93811 0.24815 0.35349 0.0
H2887 H 0.96913 0.24965 0.3651 0.0
H2888 H 0.93283 0.26267 0.2989 0.0
H2889 H 0.90702 0.28167 0.36149 0.0
H2890 H 0.93056 0.28273 0.35985 0.0
H2891 H 0.91395 0.26042 0.36188 0.0
C2892 C 0.9796 0.27838 0.33233 0.0
C2893 C 0.98307 0.26847 0.34673 0.0
C2894 C 0.96182 0.27778 0.32583 0.0
C2895 C 0.94619 0.26728 0.33328 0.0
C2896 C 0.94948 0.25696 0.3475 0.0
H2897 H 0.82742 0.24709 0.29941 0.0
H2898 H 0.85672 0.24499 0.3124 0.0
C2899 C 0.96748 0.25761 0.35412 0.0
C2900 C 0.92696 0.26718 0.32578 0.0
H2901 H 0.88559 0.27288 0.33667 0.0
C2902 C 0.92267 0.26498 0.30736 0.0
C2903 C 0.91306 0.27022 0.33627 0.0
C2904 C 0.91638 0.27409 0.35594 0.0
C2905 C 0.90558 0.2656 0.29946 0.0
C2906 C 0.89174 0.26857 0.30995 0.0
C2907 C 0.89583 0.27052 0.32834 0.0
C2908 C 0.87329 0.27 0.30202 0.0
C2909 C 0.90234 0.26275 0.27974 0.0
C2910 C 0.87209 0.28481 0.29171 0.0
C2911 C 0.85513 0.28622 0.28439 0.0
C2912 C 0.83844 0.27273 0.28678 0.0
C2913 C 0.83967 0.25784 0.29704 0.0
C2914 C 0.85664 0.25663 0.30462 0.0
H2915 H 0.91246 0.25667 0.2736 0.0
H2916 H 0.88851 0.25323 0.27571 0.0
H2917 H 0.90334 0.27664 0.27457 0.0
H2918 H 0.88437 0.29556 0.2894 0.0
H2919 H 0.85518 0.29796 0.2767 0.0
H2920 H 0.01503 0.72396 0.6047 0.0
H2921 H 0.01454 0.69397 0.5878 0.0
H2922 H 0.05237 0.68448 0.62719 0.0
H2923 H 0.05187 0.71344 0.64441 0.0
H2924 H 0.03511 0.67865 0.57093 0.0
H2925 H 0.02059 0.63357 0.62562 0.0
H2926 H 0.02012 0.65788 0.62786 0.0
H2927 H 0.04135 0.65208 0.63064 0.0
C2928 C 0.0232 0.71546 0.60982 0.0
C2929 C 0.03332 0.7214 0.62624 0.0
C2930 C 0.02292 0.69807 0.60007 0.0
C2931 C 0.03291 0.68591 0.60617 0.0
C2932 C 0.04367 0.69248 0.62218 0.0
H2933 H 0.05187 0.57597 0.56681 0.0
H2934 H 0.05214 0.60618 0.58284 0.0
C2935 C 0.0436 0.70949 0.63207 0.0
C2936 C 0.03242 0.66685 0.59581 0.0
H2937 H 0.0299 0.61983 0.60008 0.0
C2938 C 0.03379 0.66584 0.57745 0.0
C2939 C 0.0308 0.64956 0.60377 0.0
C2940 C 0.02795 0.64825 0.62301 0.0
C2941 C 0.03404 0.64887 0.56724 0.0
C2942 C 0.03253 0.63164 0.57522 0.0
C2943 C 0.03115 0.63264 0.59357 0.0
C2944 C 0.03234 0.61264 0.56499 0.0
C2945 C 0.03661 0.64995 0.54794 0.0
C2946 C 0.02096 0.60519 0.54943 0.0
C2947 C 0.02092 0.58777 0.54006 0.0
C2948 C 0.032 0.57663 0.54588 0.0
C2949 C 0.04309 0.58383 0.56165 0.0
C2950 C 0.04323 0.60134 0.57095 0.0
H2951 H 0.0435 0.66466 0.54504 0.0
H2952 H 0.04472 0.64056 0.54319 0.0
H2953 H 0.02311 0.64549 0.54045 0.0
H2954 H 0.0118 0.61272 0.5445 0.0
H2955 H 0.01198 0.58296 0.52819 0.0
H2956 H 0.58329 0.76484 0.82848 0.0
H2957 H 0.61118 0.76589 0.81394 0.0
H2958 H 0.64185 0.77754 0.86422 0.0
H2959 H 0.61402 0.77685 0.87872 0.0
H2960 H 0.66266 0.79794 0.84324 0.0
H2961 H 0.63786 0.7281 0.80505 0.0
H2962 H 0.62424 0.74341 0.79988 0.0
H2963 H 0.62497 0.73566 0.8216 0.0
C2964 C 0.5959 0.76754 0.83657 0.0
C2965 C 0.59585 0.77063 0.85506 0.0
C2966 C 0.61213 0.76798 0.82812 0.0
C2967 C 0.6293 0.7714 0.83764 0.0
C2968 C 0.62924 0.77475 0.85611 0.0
H2969 H 0.72549 0.74436 0.7921 0.0
H2970 H 0.69729 0.74444 0.80543 0.0
C2971 C 0.61303 0.7743 0.86455 0.0
C2972 C 0.64716 0.77189 0.82862 0.0
H2973 H 0.66622 0.74781 0.79806 0.0
C2974 C 0.66325 0.78686 0.83337 0.0
C2975 C 0.64885 0.75755 0.81574 0.0
C2976 C 0.63314 0.74018 0.81037 0.0
C2977 C 0.68019 0.78801 0.82586 0.0
C2978 C 0.68175 0.77399 0.81255 0.0
C2979 C 0.66568 0.7589 0.80795 0.0
C2980 C 0.69974 0.77422 0.80382 0.0
C2981 C 0.69645 0.80414 0.83295 0.0
C2982 C 0.7114 0.79074 0.79771 0.0
C2983 C 0.72802 0.79077 0.79015 0.0
C2984 C 0.73381 0.77417 0.78781 0.0
C2985 C 0.72194 0.75757 0.79344 0.0
C2986 C 0.70548 0.7576 0.80119 0.0
H2987 H 0.69475 0.80977 0.84641 0.0
H2988 H 0.70908 0.79968 0.83335 0.0
H2989 H 0.69801 0.81592 0.82441 0.0
H2990 H 0.70763 0.80382 0.79858 0.0
H2991 H 0.73631 0.80393 0.78598 0.0
H2992 H 0.40972 0.50887 0.66066 0.0
H2993 H 0.42571 0.49888 0.63653 0.0
H2994 H 0.47526 0.54079 0.65738 0.0
H2995 H 0.45959 0.55051 0.68149 0.0
H2996 H 0.44387 0.51815 0.61139 0.0
H2997 H 0.49165 0.4931 0.65227 0.0
H2998 H 0.47105 0.49662 0.66029 0.0
H2999 H 0.4916 0.51606 0.66165 0.0
C3000 C 0.42395 0.51614 0.65983 0.0
C3001 C 0.43354 0.53039 0.67286 0.0
C3002 C 0.43306 0.51023 0.64627 0.0
C3003 C 0.45176 0.51855 0.64574 0.0
C3004 C 0.46098 0.53364 0.65807 0.0
H3005 H 0.51799 0.56151 0.57259 0.0
H3006 H 0.49711 0.55112 0.59518 0.0
C3007 C 0.45197 0.53943 0.67161 0.0
C3008 C 0.46182 0.51278 0.63171 0.0
H3009 H 0.50441 0.50932 0.62646 0.0
C3010 C 0.45683 0.51552 0.61449 0.0
C3011 C 0.47834 0.50854 0.63565 0.0
C3012 C 0.48331 0.50317 0.65347 0.0
C3013 C 0.4692 0.51693 0.60166 0.0
C3014 C 0.48698 0.51623 0.60656 0.0
C3015 C 0.49098 0.51066 0.62301 0.0
C3016 C 0.50194 0.52356 0.59563 0.0
C3017 C 0.46347 0.52038 0.58333 0.0
C3018 C 0.51285 0.51227 0.59003 0.0
C3019 C 0.52537 0.5186 0.5778 0.0
C3020 C 0.52675 0.53607 0.57104 0.0
C3021 C 0.51703 0.54802 0.57779 0.0
C3022 C 0.50493 0.54193 0.59035 0.0
H3023 H 0.44878 0.51328 0.57999 0.0
H3024 H 0.46565 0.53582 0.5826 0.0
H3025 H 0.47136 0.51518 0.57338 0.0
H3026 H 0.51092 0.4982 0.59428 0.0
H3027 H 0.53269 0.50913 0.57248 0.0
H3028 H 0.79599 0.20023 0.00147 0.0
H3029 H 0.78405 0.20992 0.97446 0.0
H3030 H 0.76841 0.15179 0.95169 0.0
H3031 H 0.78135 0.14236 0.97791 0.0
H3032 H 0.78126 0.17208 0.92845 0.0
H3033 H 0.73286 0.20492 0.959 0.0
H3034 H 0.75539 0.21647 0.96854 0.0
H3035 H 0.74513 0.19173 0.97113 0.0
C3036 C 0.79032 0.18965 0.99053 0.0
C3037 C 0.78974 0.1706 0.99175 0.0
C3038 C 0.78316 0.1951 0.97525 0.0
C3039 C 0.77479 0.18148 0.96123 0.0
C3040 C 0.77467 0.16256 0.96233 0.0
H3041 H 0.71988 0.21932 0.87224 0.0
H3042 H 0.72355 0.20185 0.89777 0.0
C3043 C 0.78223 0.15722 0.97733 0.0
C3044 C 0.76692 0.18695 0.94503 0.0
H3045 H 0.74074 0.21388 0.92997 0.0
C3046 C 0.77216 0.18097 0.92884 0.0
C3047 C 0.75446 0.19793 0.94532 0.0
C3048 C 0.74647 0.20291 0.96193 0.0
C3049 C 0.76628 0.18667 0.91312 0.0
C3050 C 0.75564 0.19949 0.91367 0.0
C3051 C 0.74929 0.20442 0.92964 0.0
C3052 C 0.7529 0.20956 0.89825 0.0
C3053 C 0.7718 0.1791 0.8961 0.0
C3054 C 0.76815 0.21993 0.89044 0.0
C3055 C 0.76608 0.22959 0.87595 0.0
C3056 C 0.74872 0.2294 0.86915 0.0
C3057 C 0.73339 0.21954 0.87725 0.0
C3058 C 0.73547 0.20959 0.89174 0.0
H3059 H 0.77328 0.16464 0.89705 0.0
H3060 H 0.76174 0.17854 0.88495 0.0
H3061 H 0.78518 0.18843 0.89325 0.0
H3062 H 0.78174 0.22068 0.89565 0.0
H3063 H 0.77812 0.23748 0.87017 0.0
H3064 H 0.09878 0.48984 0.1958 0.0
H3065 H 0.08059 0.49631 0.17145 0.0
H3066 H 0.12925 0.52362 0.14724 0.0
H3067 H 0.1479 0.51775 0.17209 0.0
H3068 H 0.09875 0.543 0.1491 0.0
H3069 H 0.07883 0.4672 0.12193 0.0
H3070 H 0.07629 0.47146 0.14492 0.0
H3071 H 0.09856 0.47749 0.13707 0.0
C3072 C 0.10568 0.49714 0.18527 0.0
C3073 C 0.12472 0.50322 0.18569 0.0
C3074 C 0.09527 0.50094 0.17153 0.0
C3075 C 0.10374 0.51046 0.15786 0.0
C3076 C 0.1227 0.51637 0.15795 0.0
H3077 H 0.06785 0.50946 0.05456 0.0
H3078 H 0.08299 0.51056 0.08329 0.0
C3079 C 0.13324 0.51274 0.1719 0.0
C3080 C 0.09251 0.51278 0.14284 0.0
H3081 H 0.06452 0.48737 0.10839 0.0
C3082 C 0.09124 0.53095 0.1401 0.0
C3083 C 0.08273 0.49683 0.13152 0.0
C3084 C 0.08421 0.47714 0.13386 0.0
C3085 C 0.0806 0.53363 0.12568 0.0
C3086 C 0.07111 0.51767 0.11421 0.0
C3087 C 0.07185 0.49947 0.11744 0.0
C3088 C 0.06268 0.51953 0.09727 0.0
C3089 C 0.08007 0.55338 0.12236 0.0
C3090 C 0.04641 0.52445 0.09589 0.0
C3091 C 0.03781 0.52414 0.07936 0.0
C3092 C 0.04539 0.51863 0.0643 0.0
C3093 C 0.06177 0.51389 0.0659 0.0
C3094 C 0.07043 0.5145 0.08227 0.0
H3095 H 0.08951 0.5644 0.13178 0.0
H3096 H 0.08364 0.55632 0.1088 0.0
H3097 H 0.06608 0.55448 0.12355 0.0
H3098 H 0.04023 0.52807 0.10752 0.0
H3099 H 0.02521 0.52797 0.07839 0.0
H3100 H 0.80398 0.83584 0.47398 0.0
H3101 H 0.80702 0.82324 0.44405 0.0
H3102 H 0.75126 0.82041 0.42961 0.0
H3103 H 0.74859 0.83401 0.45911 0.0
H3104 H 0.79173 0.79259 0.42184 0.0
H3105 H 0.77577 0.85398 0.39461 0.0
H3106 H 0.77939 0.85279 0.41789 0.0
H3107 H 0.75761 0.84095 0.40638 0.0
C3108 C 0.79228 0.83209 0.46449 0.0
C3109 C 0.77604 0.83586 0.4688 0.0
C3110 C 0.79405 0.82502 0.44735 0.0
C3111 C 0.77955 0.82144 0.43434 0.0
C3112 C 0.76286 0.82371 0.43916 0.0
H3113 H 0.75846 0.78639 0.32352 0.0
H3114 H 0.75757 0.79451 0.35483 0.0
C3115 C 0.76124 0.8312 0.4561 0.0
C3116 C 0.78201 0.81621 0.41562 0.0
H3117 H 0.77612 0.82839 0.37394 0.0
C3118 C 0.78843 0.80049 0.41138 0.0
C3119 C 0.77799 0.82668 0.4019 0.0
C3120 C 0.77251 0.84465 0.40543 0.0
C3121 C 0.7902 0.79451 0.39383 0.0
C3122 C 0.78551 0.80458 0.38014 0.0
C3123 C 0.7795 0.82053 0.38441 0.0
C3124 C 0.78625 0.79869 0.36122 0.0
C3125 C 0.79659 0.77717 0.39006 0.0
C3126 C 0.8027 0.79836 0.35429 0.0
C3127 C 0.80328 0.79367 0.33629 0.0
C3128 C 0.78744 0.78943 0.3248 0.0
C3129 C 0.77099 0.78972 0.33186 0.0
C3130 C 0.77042 0.79431 0.34982 0.0
H3131 H 0.79559 0.76857 0.40147 0.0
H3132 H 0.78859 0.76809 0.37851 0.0
H3133 H 0.81104 0.78169 0.38706 0.0
H3134 H 0.81518 0.80209 0.36274 0.0
H3135 H 0.81621 0.79371 0.33135 0.0
H3136 H 0.44117 0.54175 0.7786 0.0
H3137 H 0.45166 0.54244 0.80951 0.0
H3138 H 0.47819 0.49961 0.7956 0.0
H3139 H 0.46845 0.49945 0.76474 0.0
H3140 H 0.44544 0.51519 0.83179 0.0
H3141 H 0.51892 0.53947 0.82302 0.0
H3142 H 0.50191 0.5402 0.80611 0.0
H3143 H 0.50796 0.51859 0.80869 0.0
C3144 C 0.44941 0.53265 0.78218 0.0
C3145 C 0.45435 0.52082 0.76933 0.0
C3146 C 0.45533 0.53303 0.79978 0.0
C3147 C 0.46609 0.52146 0.80471 0.0
C3148 C 0.47046 0.50916 0.79195 0.0
H3149 H 0.50366 0.47762 0.89247 0.0
H3150 H 0.49213 0.48531 0.8644 0.0
C3151 C 0.46486 0.50904 0.77435 0.0
C3152 C 0.47255 0.5218 0.82323 0.0
H3153 H 0.51058 0.52412 0.84934 0.0
C3154 C 0.4597 0.51748 0.83574 0.0
C3155 C 0.49121 0.52511 0.82834 0.0
C3156 C 0.50578 0.53131 0.81585 0.0
C3157 C 0.46498 0.51517 0.85304 0.0
C3158 C 0.48345 0.51712 0.85769 0.0
C3159 C 0.49638 0.5224 0.84549 0.0
C3160 C 0.48952 0.51241 0.8748 0.0
C3161 C 0.45083 0.50989 0.86607 0.0
C3162 C 0.49184 0.52524 0.88971 0.0
C3163 C 0.49857 0.52099 0.90569 0.0
C3164 C 0.50304 0.50384 0.90689 0.0
C3165 C 0.50052 0.49099 0.89187 0.0
C3166 C 0.49385 0.49529 0.87591 0.0
H3167 H 0.43689 0.5081 0.86012 0.0
H3168 H 0.45134 0.49648 0.8715 0.0
H3169 H 0.45382 0.52111 0.8772 0.0
H3170 H 0.48874 0.53862 0.88891 0.0
H3171 H 0.50066 0.53129 0.917 0.0
H3172 H 0.81108 0.18198 0.09805 0.0
H3173 H 0.80868 0.2009 0.125 0.0
H3174 H 0.75341 0.16661 0.1274 0.0
H3175 H 0.75609 0.14709 0.10106 0.0
H3176 H 0.78574 0.22194 0.13115 0.0
H3177 H 0.77442 0.16428 0.17594 0.0
H3178 H 0.78136 0.16127 0.15407 0.0
H3179 H 0.75813 0.16017 0.15735 0.0
C3180 C 0.79851 0.17848 0.10446 0.0
C3181 C 0.78387 0.16304 0.09779 0.0
C3182 C 0.79713 0.18923 0.11975 0.0
C3183 C 0.78098 0.18485 0.12829 0.0
C3184 C 0.76615 0.16979 0.12129 0.0
H3185 H 0.76481 0.24673 0.2253 0.0
H3186 H 0.75833 0.22418 0.1989 0.0
C3187 C 0.76768 0.15876 0.10626 0.0
C3188 C 0.77976 0.19637 0.14439 0.0
H3189 H 0.77537 0.19475 0.18832 0.0
C3190 C 0.78337 0.21599 0.14363 0.0
C3191 C 0.7763 0.18842 0.16055 0.0
C3192 C 0.77246 0.1674 0.16213 0.0
C3193 C 0.7845 0.22806 0.15881 0.0
C3194 C 0.78209 0.22021 0.17505 0.0
C3195 C 0.77736 0.20055 0.17574 0.0
C3196 C 0.78602 0.23239 0.19156 0.0
C3197 C 0.78873 0.24913 0.15742 0.0
C3198 C 0.80379 0.24385 0.19619 0.0
C3199 C 0.80749 0.25649 0.21119 0.0
C3200 C 0.79352 0.25741 0.22183 0.0
C3201 C 0.77585 0.24557 0.21752 0.0
C3202 C 0.77211 0.23296 0.20243 0.0
H3203 H 0.78506 0.25227 0.14397 0.0
H3204 H 0.7814 0.25576 0.16692 0.0
H3205 H 0.80352 0.2558 0.16044 0.0
H3206 H 0.81468 0.24329 0.18797 0.0
H3207 H 0.82115 0.26572 0.21436 0.0
H3208 H 0.13245 0.49746 0.2892 0.0
H3209 H 0.12335 0.49437 0.31919 0.0
H3210 H 0.08409 0.52489 0.3089 0.0
H3211 H 0.09285 0.52787 0.27894 0.0
H3212 H 0.12323 0.52412 0.34548 0.0
H3213 H 0.05456 0.47522 0.3274 0.0
H3214 H 0.0726 0.47865 0.31274 0.0
H3215 H 0.05943 0.49529 0.31471 0.0
C3216 C 0.12181 0.50343 0.29332 0.0
C3217 C 0.11312 0.51265 0.28169 0.0
C3218 C 0.11668 0.50164 0.31039 0.0
C3219 C 0.10281 0.509 0.31594 0.0
C3220 C 0.09449 0.51867 0.30456 0.0
H3221 H 0.05365 0.55056 0.39282 0.0
H3222 H 0.06693 0.53874 0.3677 0.0
C3223 C 0.09952 0.52039 0.2875 0.0
C3224 C 0.09707 0.50718 0.33377 0.0
H3225 H 0.05851 0.49474 0.35513 0.0
C3226 C 0.10925 0.5172 0.3478 0.0
C3227 C 0.0789 0.49789 0.33661 0.0
C3228 C 0.06567 0.48598 0.32207 0.0
C3229 C 0.10312 0.5198 0.3644 0.0
C3230 C 0.08452 0.51215 0.3667 0.0
C3231 C 0.07276 0.50066 0.35311 0.0
C3232 C 0.07648 0.51864 0.38191 0.0
C3233 C 0.11611 0.53194 0.37898 0.0
C3234 C 0.0775 0.51102 0.39797 0.0
C3235 C 0.06986 0.51766 0.41228 0.0
C3236 C 0.06118 0.53198 0.41061 0.0
C3237 C 0.06014 0.53944 0.3944 0.0
C3238 C 0.06774 0.53277 0.38013 0.0
H3239 H 0.13029 0.53644 0.37515 0.0
H3240 H 0.11182 0.54478 0.38271 0.0
H3241 H 0.11575 0.52396 0.39075 0.0
H3242 H 0.08415 0.5 0.39938 0.0
H3243 H 0.07054 0.51144 0.42458 0.0
H3244 H 0.7596 0.81027 0.57068 0.0
H3245 H 0.75705 0.79865 0.59991 0.0
H3246 H 0.8 0.84789 0.62123 0.0
H3247 H 0.80222 0.85982 0.59228 0.0
H3248 H 0.78015 0.78909 0.62318 0.0
H3249 H 0.76114 0.85062 0.65331 0.0
H3250 H 0.7618 0.84639 0.6299 0.0
H3251 H 0.78238 0.8576 0.64359 0.0
C3252 C 0.76856 0.81859 0.58159 0.0
C3253 C 0.78101 0.83609 0.57912 0.0
C3254 C 0.76707 0.81193 0.59833 0.0
C3255 C 0.778 0.82259 0.61297 0.0
C3256 C 0.79098 0.83965 0.61034 0.0
H3257 H 0.79739 0.81548 0.72355 0.0
H3258 H 0.79616 0.82322 0.69326 0.0
C3259 C 0.79235 0.84639 0.59369 0.0
C3260 C 0.77584 0.81604 0.631 0.0
H3261 H 0.76933 0.83034 0.67305 0.0
C3262 C 0.77761 0.79804 0.63405 0.0
C3263 C 0.77237 0.82758 0.64525 0.0
C3264 C 0.76912 0.84653 0.64284 0.0
C3265 C 0.77683 0.79168 0.65101 0.0
C3266 C 0.7739 0.8035 0.66534 0.0
C3267 C 0.77167 0.82127 0.66216 0.0
C3268 C 0.77417 0.79834 0.68389 0.0
C3269 C 0.77984 0.77266 0.65351 0.0
C3270 C 0.76199 0.78185 0.689 0.0
C3271 C 0.76268 0.77729 0.70651 0.0
C3272 C 0.77546 0.78922 0.71932 0.0
C3273 C 0.78731 0.80591 0.71417 0.0
C3274 C 0.78666 0.81039 0.69675 0.0
H3275 H 0.78611 0.76741 0.64221 0.0
H3276 H 0.78868 0.77341 0.66566 0.0
H3277 H 0.76657 0.76215 0.65476 0.0
H3278 H 0.75192 0.77251 0.67948 0.0
H3279 H 0.75334 0.76434 0.70994 0.0
H3280 H 0.76478 0.46084 0.51365 0.0
H3281 H 0.74589 0.47897 0.52627 0.0
H3282 H 0.69853 0.43083 0.5141 0.0
H3283 H 0.71766 0.41211 0.50205 0.0
H3284 H 0.71892 0.48861 0.51056 0.0
H3285 H 0.69374 0.44543 0.56507 0.0
H3286 H 0.71222 0.4423 0.55278 0.0
H3287 H 0.68906 0.43199 0.54399 0.0
C3288 C 0.75033 0.45405 0.51364 0.0
C3289 C 0.7426 0.43505 0.50695 0.0
C3290 C 0.73961 0.46442 0.52093 0.0
C3291 C 0.72096 0.45607 0.52145 0.0
C3292 C 0.71304 0.43727 0.5143 0.0
H3293 H 0.62967 0.49348 0.53344 0.0
H3294 H 0.65204 0.47569 0.53333 0.0
C3295 C 0.72388 0.4267 0.50725 0.0
C3296 C 0.70979 0.46755 0.52864 0.0
H3297 H 0.67877 0.46886 0.5584 0.0
C3298 C 0.71034 0.48447 0.52121 0.0
C3299 C 0.6988 0.46207 0.54261 0.0
C3300 C 0.69853 0.44455 0.5517 0.0
C3301 C 0.69952 0.49574 0.52684 0.0
C3302 C 0.688 0.4899 0.54035 0.0
C3303 C 0.68781 0.47327 0.54816 0.0
C3304 C 0.67427 0.49949 0.54457 0.0
C3305 C 0.69981 0.51327 0.51769 0.0
C3306 C 0.67937 0.51845 0.5517 0.0
C3307 C 0.66667 0.52873 0.55154 0.0
C3308 C 0.64886 0.52002 0.54429 0.0
C3309 C 0.64347 0.50056 0.53872 0.0
C3310 C 0.65613 0.49036 0.53883 0.0
H3311 H 0.70762 0.51421 0.50585 0.0
H3312 H 0.68578 0.51347 0.51369 0.0
H3313 H 0.70623 0.52608 0.52685 0.0
H3314 H 0.69337 0.52557 0.55631 0.0
H3315 H 0.67106 0.54371 0.55599 0.0
H3316 H 0.24021 0.14508 0.53306 0.0
H3317 H 0.21068 0.12299 0.53663 0.0
H3318 H 0.18838 0.13974 0.48966 0.0
H3319 H 0.21816 0.16224 0.4861 0.0
H3320 H 0.17124 0.134 0.53308 0.0
H3321 H 0.18436 0.07661 0.48878 0.0
H3322 H 0.2027 0.09441 0.50133 0.0
H3323 H 0.19088 0.10076 0.48303 0.0
C3324 C 0.22907 0.14407 0.52348 0.0
C3325 C 0.23146 0.15512 0.50916 0.0
C3326 C 0.2122 0.13156 0.52562 0.0
C3327 C 0.19752 0.12973 0.51335 0.0
C3328 C 0.19967 0.14106 0.49924 0.0
H3329 H 0.09305 0.04922 0.4929 0.0
H3330 H 0.12333 0.07064 0.4922 0.0
C3331 C 0.21657 0.15385 0.49723 0.0
C3332 C 0.18018 0.11537 0.51506 0.0
H3333 H 0.15651 0.06959 0.50169 0.0
C3334 C 0.16791 0.1199 0.52624 0.0
C3335 C 0.17614 0.09708 0.50617 0.0
C3336 C 0.18916 0.09174 0.49415 0.0
C3337 C 0.1513 0.1066 0.52844 0.0
C3338 C 0.14721 0.08816 0.51958 0.0
C3339 C 0.15971 0.08366 0.50856 0.0
C3340 C 0.12945 0.07385 0.52037 0.0
C3341 C 0.13808 0.11267 0.53973 0.0
C3342 C 0.123 0.06796 0.53643 0.0
C3343 C 0.10544 0.05584 0.53693 0.0
C3344 C 0.09425 0.04913 0.52132 0.0
C3345 C 0.10125 0.05412 0.50521 0.0
C3346 C 0.11861 0.06641 0.50476 0.0
H3347 H 0.14134 0.12837 0.5419 0.0
H3348 H 0.12395 0.10698 0.53369 0.0
H3349 H 0.13877 0.10715 0.55275 0.0
H3350 H 0.13137 0.07306 0.5486 0.0
H3351 H 0.1005 0.05211 0.54952 0.0
H3352 H 0.21593 0.00732 0.809 0.0
H3353 H 0.23061 0.98435 0.79708 0.0
H3354 H 0.18302 0.93866 0.80394 0.0
H3355 H 0.168 0.96159 0.8156 0.0
H3356 H 0.23825 0.95243 0.80845 0.0
H3357 H 0.18755 0.93436 0.75058 0.0
H3358 H 0.18978 0.95447 0.76636 0.0
H3359 H 0.17819 0.93096 0.77147 0.0
C3360 C 0.20873 0.99236 0.80841 0.0
C3361 C 0.19068 0.98625 0.81286 0.0
C3362 C 0.21711 0.97929 0.80151 0.0
C3363 C 0.20758 0.95998 0.79909 0.0
C3364 C 0.1903 0.95363 0.80524 0.0
H3365 H 0.23766 0.86319 0.76093 0.0
H3366 H 0.21947 0.885 0.76673 0.0
C3367 C 0.18186 0.96671 0.81209 0.0
C3368 C 0.21545 0.94677 0.78926 0.0
H3369 H 0.20951 0.9173 0.75151 0.0
C3370 C 0.23202 0.94478 0.79599 0.0
C3371 C 0.20724 0.937 0.77294 0.0
C3372 C 0.18978 0.93938 0.76479 0.0
C3373 C 0.24053 0.93294 0.78698 0.0
C3374 C 0.23234 0.92316 0.77068 0.0
C3375 C 0.21574 0.92507 0.76392 0.0
C3376 C 0.24049 0.90988 0.76138 0.0
C3377 C 0.25804 0.93069 0.79516 0.0
C3378 C 0.25771 0.91662 0.75518 0.0
C3379 C 0.26828 0.90431 0.75227 0.0
C3380 C 0.26157 0.88516 0.75536 0.0
C3381 C 0.24333 0.87804 0.75904 0.0
C3382 C 0.23285 0.8904 0.76214 0.0
H3383 H 0.26066 0.9364 0.80919 0.0
H3384 H 0.2578 0.91552 0.79424 0.0
H3385 H 0.26955 0.9385 0.788 0.0
H3386 H 0.26363 0.93167 0.75435 0.0
H3387 H 0.28223 0.91018 0.74929 0.0
H3388 H 0.34418 0.97231 0.96562 0.0
H3389 H 0.37593 0.98801 0.97564 0.0
H3390 H 0.37806 0.94012 0.00383 0.0
H3391 H 0.34648 0.9242 0.99391 0.0
H3392 H 0.37989 0.98848 0.01875 0.0
H3393 H 0.42952 0.96518 0.97861 0.0
H3394 H 0.40824 0.96691 0.96867 0.0
H3395 H 0.40833 0.94835 0.98246 0.0
C3396 C 0.35156 0.96486 0.97347 0.0
C3397 C 0.34273 0.94739 0.97953 0.0
C3398 C 0.36964 0.9738 0.97911 0.0
C3399 C 0.37891 0.9652 0.9906 0.0
C3400 C 0.37087 0.94683 0.99495 0.0
H3401 H 0.47702 0.99783 0.05148 0.0
H3402 H 0.44386 0.98946 0.04911 0.0
C3403 C 0.35284 0.93786 0.98933 0.0
C3404 C 0.39534 0.97666 0.00077 0.0
H3405 H 0.44121 0.98666 0.00356 0.0
C3406 C 0.39337 0.98823 0.01549 0.0
C3407 C 0.41259 0.97585 0.99637 0.0
C3408 C 0.41498 0.96345 0.98066 0.0
C3409 C 0.40858 0.99935 0.02602 0.0
C3410 C 0.42581 0.99867 0.0215 0.0
C3411 C 0.42774 0.98696 0.00685 0.0
C3412 C 0.44252 0.01034 0.03111 0.0
C3413 C 0.40633 0.01177 0.04173 0.0
C3414 C 0.45238 0.02602 0.02309 0.0
C3415 C 0.47117 0.0304 0.02397 0.0
C3416 C 0.47998 0.01933 0.03318 0.0
C3417 C 0.47031 0.00619 0.04398 0.0
C3418 C 0.45144 1.00161 0.04287 0.0
H3419 H 0.39182 0.01012 0.04384 0.0
H3420 H 0.4131 0.00826 0.05368 0.0
H3421 H 0.41309 0.02685 0.03992 0.0
H3422 H 0.44556 0.03286 0.01399 0.0
H3423 H 0.47859 0.04107 0.01601 0.0
H3424 H 0.87044 0.56733 0.8111 0.0
H3425 H 0.85338 0.58869 0.80163 0.0
H3426 H 0.90326 0.6336 0.8016 0.0
H3427 H 0.92047 0.61246 0.81129 0.0
H3428 H 0.86882 0.64431 0.80958 0.0
H3429 H 0.86562 0.59756 0.74841 0.0
H3430 H 0.85795 0.58537 0.76726 0.0
H3431 H 0.88135 0.59881 0.76715 0.0
C3432 C 0.87771 0.582 0.80988 0.0
C3433 C 0.89678 0.5881 0.8113 0.0
C3434 C 0.86796 0.59413 0.80443 0.0
C3435 C 0.87723 0.61238 0.80043 0.0
C3436 C 0.896 0.61942 0.80446 0.0
H3437 H 0.83726 0.68896 0.73875 0.0
H3438 H 0.85784 0.67178 0.75007 0.0
C3439 C 0.90578 0.60732 0.81004 0.0
C3440 C 0.86792 0.62246 0.78908 0.0
H3441 H 0.84782 0.61918 0.74768 0.0
C3442 C 0.86433 0.63898 0.79603 0.0
C3443 C 0.86255 0.61554 0.77129 0.0
C3444 C 0.86719 0.59845 0.76298 0.0
C3445 C 0.85455 0.6483 0.78578 0.0
C3446 C 0.84838 0.6408 0.76829 0.0
C3447 C 0.85257 0.62471 0.76114 0.0
C3448 C 0.83629 0.64876 0.75786 0.0
C3449 C 0.85032 0.66574 0.79378 0.0
C3450 C 0.81749 0.64078 0.75769 0.0
C3451 C 0.80574 0.65058 0.75143 0.0
C3452 C 0.81276 0.66844 0.74527 0.0
C3453 C 0.83156 0.67534 0.74371 0.0
C3454 C 0.8433 0.66559 0.75011 0.0
H3455 H 0.8554 0.66921 0.80784 0.0
H3456 H 0.85665 0.67805 0.78648 0.0
H3457 H 0.83542 0.66364 0.79265 0.0
H3458 H 0.81198 0.6277 0.76363 0.0
H3459 H 0.79135 0.64497 0.75288 0.0
H3460 H 0.83366 0.6595 0.05513 0.0
H3461 H 0.86029 0.64767 0.05797 0.0
H3462 H 0.86088 0.64218 0.00152 0.0
H3463 H 0.83483 0.65505 -0.00119 0.0
H3464 H 0.86 0.6136 0.0474 0.0
H3465 H 0.91391 0.66191 0.01449 0.0
H3466 H 0.89372 0.66804 0.02032 0.0
H3467 H 0.89347 0.6535 0.00027 0.0
C3468 C 0.83994 0.65638 0.0434 0.0
C3469 C 0.83244 0.65832 0.02677 0.0
C3470 C 0.85507 0.64954 0.04501 0.0
C3471 C 0.86274 0.64415 0.02999 0.0
C3472 C 0.8556 0.64675 0.01334 0.0
H3473 H 0.9232 0.56938 -0.00107 0.0
H3474 H 0.90424 0.59067 0.00286 0.0
C3475 C 0.84068 0.65403 0.01176 0.0
C3476 C 0.87659 0.63367 0.03166 0.0
H3477 H 0.91678 0.63034 0.01698 0.0
C3478 C 0.87259 0.6175 0.04103 0.0
C3479 C 0.89306 0.63875 0.02343 0.0
C3480 C 0.89887 0.65662 0.01424 0.0
C3481 C 0.88411 0.60576 0.04161 0.0
C3482 C 0.90005 0.61032 0.03258 0.0
C3483 C 0.90444 0.62684 0.02379 0.0
C3484 C 0.91149 0.59728 0.03074 0.0
C3485 C 0.87877 0.58811 0.05119 0.0
C3486 C 0.92176 0.59385 0.0452 0.0
C3487 C 0.93273 0.58168 0.04298 0.0
C3488 C 0.93364 0.5729 0.02625 0.0
C3489 C 0.92308 0.5762 0.01191 0.0
C3490 C 0.91219 0.58831 0.01413 0.0
H3491 H 0.86475 0.58522 0.05541 0.0
H3492 H 0.87974 0.5756 0.04272 0.0
H3493 H 0.88825 0.58983 0.06304 0.0
H3494 H 0.92149 0.60078 0.0581 0.0
H3495 H 0.94081 0.57952 0.05424 0.0
H3496 H 0.20229 0.08325 0.81831 0.0
H3497 H 0.22239 0.11541 0.81825 0.0
H3498 H 0.17692 0.13476 0.80093 0.0
H3499 H 0.15667 0.10273 0.80086 0.0
H3500 H 0.20709 0.1377 0.778 0.0
H3501 H 0.2289 0.16902 0.84688 0.0
H3502 H 0.22782 0.14448 0.8417 0.0
H3503 H 0.2073 0.15148 0.84087 0.0
C3504 C 0.1965 0.09442 0.81483 0.0
C3505 C 0.17799 0.09044 0.80922 0.0
C3506 C 0.20796 0.11276 0.81498 0.0
C3507 C 0.20099 0.12727 0.80968 0.0
C3508 C 0.18239 0.12362 0.80515 0.0
H3509 H 0.25672 0.2432 0.795 0.0
H3510 H 0.23606 0.2141 0.80376 0.0
C3511 C 0.17092 0.10531 0.80497 0.0
C3512 C 0.21343 0.14521 0.80579 0.0
H3513 H 0.24401 0.18585 0.82428 0.0
C3514 C 0.21512 0.14831 0.78808 0.0
C3515 C 0.22374 0.15879 0.81908 0.0
C3516 C 0.22187 0.15595 0.83825 0.0
C3517 C 0.22707 0.1648 0.78321 0.0
C3518 C 0.23772 0.17826 0.79647 0.0
C3519 C 0.23587 0.17529 0.81423 0.0
C3520 C 0.25059 0.1957 0.79199 0.0
C3521 C 0.22809 0.16774 0.76396 0.0
C3522 C 0.26562 0.19481 0.78278 0.0
C3523 C 0.27708 0.21129 0.77743 0.0
C3524 C 0.2735 0.2287 0.7812 0.0
C3525 C 0.25898 0.22969 0.79111 0.0
C3526 C 0.24749 0.21323 0.79642 0.0
H3527 H 0.21615 0.15822 0.75584 0.0
H3528 H 0.22895 0.18266 0.76172 0.0
H3529 H 0.24047 0.16463 0.75936 0.0
H3530 H 0.26832 0.18135 0.77956 0.0
H3531 H 0.2885 0.21041 0.77009 0.0
H3532 H 0.38536 0.98678 0.30932 0.0
H3533 H 0.36227 0.95628 0.30809 0.0
H3534 H 0.39223 0.93184 0.27177 0.0
H3535 H 0.41556 0.9624 0.27285 0.0
H3536 H 0.34313 0.9375 0.27383 0.0
H3537 H 0.37819 0.89412 0.31123 0.0
H3538 H 0.38499 0.91974 0.31426 0.0
H3539 H 0.39067 0.90779 0.2951 0.0
C3540 C 0.38716 0.9749 0.30117 0.0
C3541 C 0.40215 0.977 0.291 0.0
C3542 C 0.37399 0.95753 0.30054 0.0
C3543 C 0.37568 0.94203 0.28986 0.0
C3544 C 0.39091 0.94377 0.28019 0.0
H3545 H 0.31131 0.83551 0.24709 0.0
H3546 H 0.32751 0.8693 0.25179 0.0
C3547 C 0.40415 0.96118 0.2808 0.0
C3548 C 0.36079 0.92444 0.28783 0.0
H3549 H 0.34967 0.87813 0.29617 0.0
C3550 C 0.34442 0.92453 0.27884 0.0
C3551 C 0.36272 0.90774 0.29447 0.0
C3552 C 0.38003 0.90723 0.30442 0.0
C3553 C 0.32996 0.90795 0.27583 0.0
C3554 C 0.33205 0.8912 0.28215 0.0
C3555 C 0.34822 0.89123 0.29154 0.0
C3556 C 0.31848 0.87292 0.27771 0.0
C3557 C 0.31271 0.90819 0.26564 0.0
C3558 C 0.30759 0.86427 0.29054 0.0
C3559 C 0.29819 0.84505 0.28783 0.0
C3560 C 0.30008 0.83443 0.27246 0.0
C3561 C 0.30989 0.84349 0.25912 0.0
C3562 C 0.319 0.86272 0.26171 0.0
H3563 H 0.31246 0.92282 0.26336 0.0
H3564 H 0.31143 0.89984 0.25272 0.0
H3565 H 0.30075 0.90137 0.27276 0.0
H3566 H 0.3073 0.87207 0.30302 0.0
H3567 H 0.29069 0.83823 0.29827 0.0
H3568 H 0.57886 0.33869 0.5703 0.0
H3569 H 0.57652 0.36746 0.55737 0.0
H3570 H 0.55039 0.38245 0.60237 0.0
H3571 H 0.55309 0.35409 0.61552 0.0
H3572 H 0.54726 0.38012 0.54802 0.0
H3573 H 0.59171 0.43015 0.60055 0.0
H3574 H 0.59002 0.40517 0.5984 0.0
H3575 H 0.57287 0.41351 0.6087 0.0
C3576 C 0.57261 0.34812 0.57742 0.0
C3577 C 0.56635 0.3442 0.59402 0.0
C3578 C 0.57128 0.36455 0.57002 0.0
C3579 C 0.56366 0.37736 0.57908 0.0
C3580 C 0.55681 0.37309 0.59536 0.0
H3581 H 0.52235 0.46598 0.54287 0.0
H3582 H 0.52727 0.43688 0.55231 0.0
C3583 C 0.55826 0.35679 0.60281 0.0
C3584 C 0.56283 0.39517 0.57155 0.0
H3585 H 0.57492 0.44338 0.5805 0.0
C3586 C 0.55343 0.39396 0.55506 0.0
C3587 C 0.57107 0.41328 0.58063 0.0
C3588 C 0.58214 0.41567 0.59797 0.0
C3589 C 0.55157 0.41028 0.54768 0.0
C3590 C 0.55917 0.42829 0.55711 0.0
C3591 C 0.56903 0.42956 0.57333 0.0
C3592 C 0.55636 0.44589 0.55075 0.0
C3593 C 0.54149 0.40816 0.52985 0.0
C3594 C 0.57116 0.46085 0.54701 0.0
C3595 C 0.56842 0.47766 0.54158 0.0
C3596 C 0.55083 0.47988 0.54002 0.0
C3597 C 0.5361 0.46485 0.54389 0.0
C3598 C 0.53884 0.44808 0.54919 0.0
H3599 H 0.54066 0.39435 0.52247 0.0
H3600 H 0.52744 0.40882 0.53151 0.0
H3601 H 0.54815 0.41979 0.52193 0.0
H3602 H 0.58482 0.45949 0.54827 0.0
H3603 H 0.58007 0.48893 0.53873 0.0
H3604 H 0.44153 0.72985 0.38249 0.0
H3605 H 0.4119 0.72831 0.36734 0.0
H3606 H 0.42776 0.78933 0.36863 0.0
H3607 H 0.45725 0.79085 0.3831 0.0
H3608 H 0.38295 0.7461 0.37392 0.0
H3609 H 0.41966 0.77057 0.31593 0.0
H3610 H 0.42999 0.76185 0.334 0.0
H3611 H 0.42854 0.78584 0.33564 0.0
C3612 C 0.43844 0.74288 0.37983 0.0
C3613 C 0.45165 0.76045 0.38371 0.0
C3614 C 0.42159 0.74201 0.37118 0.0
C3615 C 0.41785 0.75871 0.36655 0.0
C3616 C 0.43054 0.77627 0.37175 0.0
H3617 H 0.32213 0.78591 0.32505 0.0
H3618 H 0.34663 0.78049 0.34392 0.0
C3619 C 0.44734 0.77712 0.38005 0.0
C3620 C 0.40153 0.75809 0.35503 0.0
H3621 H 0.38917 0.77214 0.31596 0.0
C3622 C 0.38422 0.75159 0.36117 0.0
C3623 C 0.40323 0.76496 0.33826 0.0
C3624 C 0.42133 0.77102 0.33047 0.0
C3625 C 0.3686 0.7525 0.3512 0.0
C3626 C 0.37047 0.76046 0.3349 0.0
C3627 C 0.38773 0.76628 0.32855 0.0
C3628 C 0.35482 0.76286 0.324 0.0
C3629 C 0.35027 0.74481 0.35815 0.0
C3630 C 0.35153 0.75513 0.30644 0.0
C3631 C 0.33782 0.75849 0.29558 0.0
C3632 C 0.32701 0.76964 0.30202 0.0
C3633 C 0.33017 0.77723 0.31968 0.0
C3634 C 0.34405 0.77397 0.33054 0.0
H3635 H 0.3506 0.73442 0.36786 0.0
H3636 H 0.3462 0.75668 0.36483 0.0
H3637 H 0.33977 0.73785 0.34734 0.0
H3638 H 0.35971 0.7466 0.30107 0.0
H3639 H 0.33573 0.75229 0.2821 0.0
H3640 H 0.05878 0.71401 0.11936 0.0
H3641 H 0.05411 0.68389 0.10178 0.0
H3642 H 0.07021 0.71352 0.05626 0.0
H3643 H 0.07481 0.74413 0.07389 0.0
H3644 H 0.03221 0.67428 0.05926 0.0
H3645 H 0.10322 0.6726 0.07554 0.0
H3646 H 0.092 0.68345 0.0916 0.0
H3647 H 0.09786 0.69442 0.07182 0.0
C3648 C 0.0613 0.71421 0.10559 0.0
C3649 C 0.06735 0.73146 0.09803 0.0
C3650 C 0.05854 0.69697 0.09558 0.0
C3651 C 0.06191 0.69657 0.07783 0.0
C3652 C 0.06753 0.71366 0.06999 0.0
H3653 H 0.06941 0.59116 0.02244 0.0
H3654 H 0.07422 0.62472 0.0321 0.0
C3655 C 0.07013 0.73106 0.08003 0.0
C3656 C 0.06015 0.67808 0.068 0.0
H3657 H 0.08235 0.64422 0.06284 0.0
C3658 C 0.04322 0.66776 0.05972 0.0
C3659 C 0.07456 0.66973 0.06868 0.0
C3660 C 0.09302 0.68054 0.07732 0.0
C3661 C 0.04016 0.64897 0.05247 0.0
C3662 C 0.0543 0.64016 0.05405 0.0
C3663 C 0.07146 0.65085 0.06174 0.0
C3664 C 0.05147 0.61978 0.04831 0.0
C3665 C 0.02179 0.6388 0.04323 0.0
C3666 C 0.03741 0.60577 0.05457 0.0
C3667 C 0.03448 0.58665 0.04886 0.0
C3668 C 0.04587 0.58109 0.03715 0.0
C3669 C 0.06044 0.59502 0.0315 0.0
C3670 C 0.06315 0.6142 0.03696 0.0
H3671 H 0.01507 0.64898 0.03793 0.0
H3672 H 0.02285 0.62855 0.03227 0.0
H3673 H 0.01291 0.63096 0.05276 0.0
H3674 H 0.02866 0.6096 0.06388 0.0
H3675 H 0.02332 0.57619 0.05367 0.0
H3676 H 0.03994 0.26556 0.8674 0.0
H3677 H 0.06751 0.27254 0.8518 0.0
H3678 H 0.09892 0.26901 0.89918 0.0
H3679 H 0.07134 0.26262 0.9151 0.0
H3680 H 0.11642 0.29876 0.88031 0.0
H3681 H 0.09084 0.23164 0.83692 0.0
H3682 H 0.07598 0.24651 0.83623 0.0
H3683 H 0.07993 0.23645 0.85625 0.0
C3684 C 0.05271 0.26625 0.87451 0.0
C3685 C 0.05347 0.26325 0.8924 0.0
C3686 C 0.06844 0.27024 0.86558 0.0
C3687 C 0.08517 0.27088 0.87425 0.0
C3688 C 0.0861 0.26847 0.89224 0.0
H3689 H 0.18553 0.26304 0.83499 0.0
H3690 H 0.16129 0.26529 0.85377 0.0
C3691 C 0.07036 0.26473 0.90129 0.0
C3692 C 0.1015 0.27328 0.86431 0.0
H3693 H 0.11805 0.25327 0.82978 0.0
C3694 C 0.11682 0.2888 0.8693 0.0
C3695 C 0.10199 0.26018 0.85001 0.0
C3696 C 0.08638 0.24266 0.84462 0.0
C3697 C 0.13255 0.29166 0.86014 0.0
C3698 C 0.13283 0.27871 0.84574 0.0
C3699 C 0.1176 0.26323 0.84078 0.0
C3700 C 0.14902 0.28035 0.83589 0.0
C3701 C 0.1488 0.30839 0.86578 0.0
C3702 C 0.15013 0.28831 0.8198 0.0
C3703 C 0.16389 0.287 0.80904 0.0
C3704 C 0.17657 0.27749 0.81415 0.0
C3705 C 0.17579 0.27021 0.83063 0.0
C3706 C 0.16211 0.27164 0.84142 0.0
H3707 H 0.14617 0.31767 0.8768 0.0
H3708 H 0.16052 0.30327 0.86992 0.0
H3709 H 0.15269 0.31691 0.85451 0.0
H3710 H 0.13996 0.29489 0.8153 0.0
H3711 H 0.16409 0.29263 0.79636 0.0
H3712 H 0.55822 0.72443 0.93474 0.0
H3713 H 0.55735 0.69589 0.94967 0.0
H3714 H 0.51566 0.66271 0.91101 0.0
H3715 H 0.51714 0.69108 0.89568 0.0
H3716 H 0.53564 0.67226 0.96681 0.0
H3717 H 0.54351 0.62609 0.90955 0.0
H3718 H 0.5461 0.65099 0.9083 0.0
H3719 H 0.5238 0.63422 0.90656 0.0
C3720 C 0.54889 0.71107 0.92925 0.0
C3721 C 0.53787 0.71053 0.91366 0.0
C3722 C 0.54837 0.69447 0.93795 0.0
C3723 C 0.53676 0.6763 0.93162 0.0
C3724 C 0.5254 0.67589 0.91624 0.0
H3725 H 0.51764 0.55859 0.96732 0.0
H3726 H 0.51731 0.58667 0.95201 0.0
C3727 C 0.52609 0.69246 0.90742 0.0
C3728 C 0.53632 0.65831 0.94133 0.0
H3729 H 0.53638 0.6113 0.93561 0.0
C3730 C 0.53591 0.65903 0.95982 0.0
C3731 C 0.53646 0.64043 0.9328 0.0
C3732 C 0.53766 0.63787 0.91325 0.0
C3733 C 0.53528 0.64306 0.96962 0.0
C3734 C 0.53572 0.62522 0.96115 0.0
C3735 C 0.53605 0.62449 0.94262 0.0
C3736 C 0.53581 0.6074 0.97101 0.0
C3737 C 0.53335 0.64558 0.98906 0.0
C3738 C 0.54641 0.60855 0.98704 0.0
C3739 C 0.54612 0.59233 0.99618 0.0
C3740 C 0.53581 0.57377 0.98954 0.0
C3741 C 0.52575 0.57239 0.97318 0.0
C3742 C 0.52563 0.58873 0.96426 0.0
H3743 H 0.52668 0.65683 0.99229 0.0
H3744 H 0.52524 0.63227 0.99395 0.0
H3745 H 0.54704 0.65009 0.99618 0.0
H3746 H 0.5553 0.62208 0.99259 0.0
H3747 H 0.55445 0.59434 0.00843 0.0
H3748 H 0.10175 0.77671 0.65916 0.0
H3749 H 0.13091 0.77588 0.67305 0.0
H3750 H 0.11907 0.80234 0.7212 0.0
H3751 H 0.08932 0.80198 0.70756 0.0
H3752 H 0.16072 0.79708 0.68447 0.0
H3753 H 0.13651 0.76587 0.745 0.0
H3754 H 0.12092 0.76775 0.72729 0.0
H3755 H 0.13128 0.78784 0.74309 0.0
C3756 C 0.1052 0.78228 0.67278 0.0
C3757 C 0.09266 0.7893 0.68205 0.0
C3758 C 0.12219 0.78183 0.68086 0.0
C3759 C 0.1278 0.7886 0.69866 0.0
C3760 C 0.11543 0.79616 0.7078 0.0
H3761 H 0.24622 0.81242 0.73676 0.0
H3762 H 0.21669 0.81441 0.72456 0.0
C3763 C 0.09821 0.79622 0.69981 0.0
C3764 C 0.14651 0.78805 0.70716 0.0
H3765 H 0.16844 0.77791 0.74432 0.0
C3766 C 0.16215 0.79281 0.69757 0.0
C3767 C 0.14923 0.78227 0.72429 0.0
C3768 C 0.13358 0.77545 0.73544 0.0
C3769 C 0.17968 0.79214 0.70431 0.0
C3770 C 0.18251 0.78707 0.72164 0.0
C3771 C 0.16689 0.78211 0.73119 0.0
C3772 C 0.20118 0.78621 0.72976 0.0
C3773 C 0.19492 0.79625 0.69232 0.0
C3774 C 0.20311 0.77006 0.73767 0.0
C3775 C 0.22023 0.76894 0.74486 0.0
C3776 C 0.23642 0.78399 0.74473 0.0
C3777 C 0.23444 0.80033 0.73715 0.0
C3778 C 0.2173 0.80142 0.72992 0.0
H3779 H 0.18968 0.79406 0.67829 0.0
H3780 H 0.2031 0.81128 0.6951 0.0
H3781 H 0.20397 0.78708 0.69435 0.0
H3782 H 0.19131 0.75799 0.73808 0.0
H3783 H 0.22071 0.75604 0.7505 0.0
H3784 H 0.0571 0.35132 0.39098 0.0
H3785 H 0.05489 0.37978 0.40782 0.0
H3786 H 0.03057 0.3461 0.44839 0.0
H3787 H 0.03302 0.31724 0.43148 0.0
H3788 H 0.02824 0.39257 0.4175 0.0
H3789 H 0.06578 0.38709 0.4796 0.0
H3790 H 0.0655 0.37194 0.45994 0.0
H3791 H 0.04656 0.3669 0.47337 0.0
C3792 C 0.0514 0.34973 0.40357 0.0
C3793 C 0.04542 0.33145 0.40965 0.0
C3794 C 0.05007 0.36632 0.41331 0.0
C3795 C 0.04276 0.36578 0.42981 0.0
C3796 C 0.03674 0.34754 0.43603 0.0
H3797 H 0.02597 0.45587 0.50638 0.0
H3798 H 0.02735 0.42639 0.4904 0.0
C3799 C 0.03808 0.33078 0.42621 0.0
C3800 C 0.04118 0.38419 0.43987 0.0
H3801 H 0.05156 0.41166 0.47962 0.0
C3802 C 0.03344 0.39664 0.43109 0.0
C3803 C 0.04777 0.3901 0.45775 0.0
C3804 C 0.05703 0.37844 0.46821 0.0
C3805 C 0.03184 0.41403 0.43941 0.0
C3806 C 0.03863 0.42009 0.45724 0.0
C3807 C 0.04629 0.40757 0.46606 0.0
C3808 C 0.0377 0.43891 0.46704 0.0
C3809 C 0.02219 0.42538 0.42896 0.0
C3810 C 0.04315 0.45664 0.45983 0.0
C3811 C 0.04215 0.4738 0.46904 0.0
C3812 C 0.03595 0.4742 0.48608 0.0
C3813 C 0.0308 0.45654 0.49337 0.0
C3814 C 0.03165 0.43942 0.48412 0.0
H3815 H 0.01274 0.41629 0.41822 0.0
H3816 H 0.01433 0.43251 0.4374 0.0
H3817 H 0.03237 0.43634 0.42282 0.0
H3818 H 0.04851 0.45738 0.44707 0.0
H3819 H 0.0465 0.48687 0.46283 0.0
H3820 H 0.47558 0.25251 0.2046 0.0
H3821 H 0.4468 0.25282 0.21612 0.0
H3822 H 0.44549 0.30013 0.1869 0.0
H3823 H 0.47429 0.29937 0.17472 0.0
H3824 H 0.43403 0.27286 0.23652 0.0
H3825 H 0.3947 0.27269 0.17403 0.0
H3826 H 0.41709 0.26952 0.17458 0.0
H3827 H 0.41424 0.29298 0.17767 0.0
C3828 C 0.46926 0.26301 0.20035 0.0
C3829 C 0.47778 0.27581 0.18833 0.0
C3830 C 0.45248 0.26321 0.20716 0.0
C3831 C 0.44298 0.27621 0.20245 0.0
C3832 C 0.45161 0.28932 0.19063 0.0
H3833 H 0.3435 0.30143 0.24211 0.0
H3834 H 0.37234 0.30221 0.22954 0.0
C3835 C 0.46847 0.28904 0.18366 0.0
C3836 C 0.42458 0.27598 0.21022 0.0
H3837 H 0.38061 0.27767 0.20005 0.0
C3838 C 0.42244 0.27378 0.22831 0.0
C3839 C 0.40877 0.27712 0.20009 0.0
C3840 C 0.40869 0.278 0.18051 0.0
C3841 C 0.40581 0.27296 0.23623 0.0
C3842 C 0.39018 0.27429 0.22613 0.0
C3843 C 0.39225 0.27664 0.20813 0.0
C3844 C 0.37185 0.2735 0.23402 0.0
C3845 C 0.4052 0.27106 0.25565 0.0
C3846 C 0.36108 0.25707 0.24091 0.0
C3847 C 0.34411 0.25646 0.24797 0.0
C3848 C 0.33716 0.27237 0.2488 0.0
C3849 C 0.34804 0.28879 0.24198 0.0
C3850 C 0.36477 0.28926 0.23463 0.0
H3851 H 0.41896 0.27357 0.26234 0.0
H3852 H 0.39861 0.28123 0.26187 0.0
H3853 H 0.39698 0.25653 0.25773 0.0
H3854 H 0.3657 0.24448 0.24067 0.0
H3855 H 0.33647 0.24345 0.25291 0.0
H3856 H 0.61356 0.5593 0.35782 0.0
H3857 H 0.60208 0.55759 0.38687 0.0
H3858 H 0.62896 0.51506 0.39766 0.0
H3859 H 0.64076 0.5169 0.36873 0.0
H3860 H 0.57979 0.5191 0.38727 0.0
H3861 H 0.62813 0.54383 0.44671 0.0
H3862 H 0.63199 0.55416 0.42608 0.0
H3863 H 0.63582 0.5316 0.42885 0.0
C3864 C 0.61744 0.55 0.36661 0.0
C3865 C 0.62734 0.53763 0.36094 0.0
C3866 C 0.61115 0.54929 0.38323 0.0
C3867 C 0.6146 0.53609 0.39414 0.0
C3868 C 0.62637 0.52545 0.38936 0.0
H3869 H 0.56265 0.48835 0.48262 0.0
H3870 H 0.57682 0.48809 0.45475 0.0
C3871 C 0.63285 0.52631 0.37278 0.0
C3872 C 0.60198 0.52939 0.40732 0.0
H3873 H 0.59898 0.52357 0.45064 0.0
C3874 C 0.58391 0.52013 0.40118 0.0
C3875 C 0.60767 0.53053 0.42521 0.0
C3876 C 0.62693 0.54068 0.43221 0.0
C3877 C 0.57119 0.51187 0.41261 0.0
C3878 C 0.57678 0.51313 0.43057 0.0
C3879 C 0.59492 0.5223 0.43671 0.0
C3880 C 0.56371 0.50753 0.44369 0.0
C3881 C 0.55194 0.50198 0.40537 0.0
C3882 C 0.55085 0.51755 0.44593 0.0
C3883 C 0.54277 0.51758 0.46165 0.0
C3884 C 0.54758 0.50764 0.47507 0.0
C3885 C 0.55873 0.49586 0.47214 0.0
C3886 C 0.56681 0.49577 0.45636 0.0
H3887 H 0.55143 0.49645 0.3914 0.0
H3888 H 0.54548 0.49004 0.41305 0.0
H3889 H 0.54385 0.51229 0.40597 0.0
H3890 H 0.5486 0.52699 0.43643 0.0
H3891 H 0.53431 0.52691 0.464 0.0
H3892 H 0.3171 0.91595 0.05499 0.0
H3893 H 0.32471 0.9058 0.0834 0.0
H3894 H 0.29714 0.8477 0.06474 0.0
H3895 H 0.28939 0.85765 0.03621 0.0
H3896 H 0.28899 0.86872 0.10126 0.0
H3897 H 0.35989 0.86767 0.09072 0.0
H3898 H 0.3512 0.88613 0.08276 0.0
H3899 H 0.34266 0.86237 0.07259 0.0
C3900 C 0.31276 0.90098 0.05687 0.0
C3901 C 0.30266 0.88755 0.04339 0.0
C3902 C 0.31711 0.89527 0.07309 0.0
C3903 C 0.31149 0.87607 0.07599 0.0
C3904 C 0.30155 0.8626 0.06259 0.0
H3905 H 0.32618 0.80253 0.15092 0.0
H3906 H 0.3251 0.82042 0.12555 0.0
C3907 C 0.29716 0.86829 0.04636 0.0
C3908 C 0.31561 0.87002 0.0932 0.0
H3909 H 0.34812 0.85703 0.11708 0.0
C3910 C 0.30195 0.86633 0.10488 0.0
C3911 C 0.33257 0.86707 0.09768 0.0
C3912 C 0.34752 0.87097 0.08536 0.0
C3913 C 0.30465 0.85912 0.12089 0.0
C3914 C 0.32148 0.85567 0.12522 0.0
C3915 C 0.3353 0.85984 0.11369 0.0
C3916 C 0.32425 0.84598 0.14082 0.0
C3917 C 0.28927 0.85451 0.13273 0.0
C3918 C 0.32466 0.8547 0.15778 0.0
C3919 C 0.32543 0.84456 0.17235 0.0
C3920 C 0.3258 0.82556 0.17013 0.0
C3921 C 0.32615 0.8172 0.15311 0.0
C3922 C 0.32544 0.82735 0.13859 0.0
H3923 H 0.27629 0.85535 0.12621 0.0
H3924 H 0.28723 0.84005 0.13701 0.0
H3925 H 0.29269 0.86473 0.14465 0.0
H3926 H 0.32398 0.86918 0.1597 0.0
H3927 H 0.32543 0.85149 0.18532 0.0
H3928 H 0.99267 0.53699 0.83536 0.0
H3929 H 1.00111 0.53573 0.86645 0.0
H3930 H 0.94896 0.54125 0.8798 0.0
H3931 H 0.94043 0.5427 0.84904 0.0
H3932 H 0.98 0.56691 0.89953 0.0
H3933 H 0.97945 0.49126 0.89698 0.0
H3934 H 0.99169 0.50421 0.88035 0.0
H3935 H 0.96759 0.50048 0.88036 0.0
C3936 C 0.98304 0.53791 0.84493 0.0
C3937 C 0.96601 0.5401 0.83985 0.0
C3938 C 0.98781 0.53709 0.86257 0.0
C3939 C 0.97551 0.53826 0.87512 0.0
C3940 C 0.95852 0.54034 0.87013 0.0
H3941 H 0.00421 0.51305 0.97838 0.0
H3942 H 0.9846 0.51603 0.95337 0.0
C3943 C 0.95376 0.54124 0.85259 0.0
C3944 C 0.98067 0.53808 0.89364 0.0
H3945 H 0.9943 0.51114 0.92243 0.0
C3946 C 0.98291 0.55468 0.90473 0.0
C3947 C 0.98389 0.52189 0.90019 0.0
C3948 C 0.98037 0.50336 0.88892 0.0
C3949 C 0.98937 0.55585 0.92227 0.0
C3950 C 0.99401 0.54014 0.92846 0.0
C3951 C 0.99079 0.52321 0.91755 0.0
C3952 C 0.00367 0.54123 0.94564 0.0
C3953 C 0.99143 0.57392 0.93382 0.0
C3954 C 0.02065 0.55469 0.94969 0.0
C3955 C 0.03145 0.55348 0.96447 0.0
C3956 C 0.02537 0.53868 0.97503 0.0
C3957 C 0.00852 0.52523 0.97093 0.0
C3958 C 0.99748 0.52677 0.95657 0.0
H3959 H 0.98139 0.58125 0.92942 0.0
H3960 H 0.98972 0.57116 0.94776 0.0
H3961 H 0.00518 0.58369 0.93293 0.0
H3962 H 0.02594 0.56548 0.94098 0.0
H3963 H 0.04472 0.56364 0.9673 0.0
H3964 H 0.29726 0.18942 0.58507 0.0
H3965 H 0.2983 0.20491 0.61449 0.0
H3966 H 0.28267 0.25075 0.59262 0.0
H3967 H 0.28179 0.23524 0.56273 0.0
H3968 H 0.31841 0.24677 0.6288 0.0
H3969 H 0.24291 0.22347 0.62837 0.0
H3970 H 0.25483 0.21111 0.61432 0.0
H3971 H 0.2534 0.23413 0.6097 0.0
C3972 C 0.29431 0.20297 0.58645 0.0
C3973 C 0.28938 0.21111 0.57158 0.0
C3974 C 0.29493 0.21179 0.60329 0.0
C3975 C 0.29041 0.22885 0.60574 0.0
C3976 C 0.28614 0.23751 0.59096 0.0
H3977 H 0.26692 0.27626 0.70721 0.0
H3978 H 0.26847 0.26863 0.67577 0.0
C3979 C 0.28576 0.22874 0.57393 0.0
C3980 C 0.28937 0.23677 0.62391 0.0
H3981 H 0.25937 0.23735 0.65504 0.0
C3982 C 0.30552 0.24499 0.63452 0.0
C3983 C 0.27254 0.23431 0.63132 0.0
C3984 C 0.25485 0.22524 0.62046 0.0
C3985 C 0.30531 0.25075 0.6524 0.0
C3986 C 0.28846 0.24758 0.66007 0.0
C3987 C 0.27229 0.23974 0.64928 0.0
C3988 C 0.28731 0.25195 0.67926 0.0
C3989 C 0.32321 0.26034 0.66278 0.0
C3990 C 0.29698 0.24475 0.69181 0.0
C3991 C 0.29638 0.2494 0.70977 0.0
C3992 C 0.28563 0.26086 0.71564 0.0
C3993 C 0.27531 0.26737 0.70312 0.0
C3994 C 0.27622 0.26304 0.68513 0.0
H3995 H 0.33368 0.2674 0.65414 0.0
H3996 H 0.32181 0.2711 0.67312 0.0
H3997 H 0.32821 0.24952 0.66914 0.0
H3998 H 0.30505 0.23553 0.68774 0.0
H3999 H 0.30425 0.24389 0.71908 0.0
H4000 H 0.65353 0.51936 0.24558 0.0
H4001 H 0.63814 0.5227 0.21772 0.0
H4002 H 0.58714 0.51133 0.24147 0.0
H4003 H 0.60235 0.50793 0.26946 0.0
H4004 H 0.5968 0.49336 0.1998 0.0
H4005 H 0.60829 0.57013 0.22107 0.0
H4006 H 0.6246 0.55796 0.22761 0.0
H4007 H 0.60301 0.55262 0.23672 0.0
C4008 C 0.63898 0.5172 0.24479 0.0
C4009 C 0.62912 0.51355 0.25967 0.0
C4010 C 0.63026 0.51909 0.22891 0.0
C4011 C 0.61165 0.51733 0.22779 0.0
C4012 C 0.60156 0.51268 0.24228 0.0
H4013 H 0.5475 0.55439 0.14921 0.0
H4014 H 0.55895 0.54447 0.1763 0.0
C4015 C 0.61024 0.51072 0.25818 0.0
C4016 C 0.6031 0.52195 0.21186 0.0
H4017 H 0.59409 0.55894 0.19286 0.0
C4018 C 0.59607 0.50763 0.19821 0.0
C4019 C 0.60231 0.5406 0.21011 0.0
C4020 C 0.60993 0.55632 0.2246 0.0
C4021 C 0.58818 0.51157 0.18258 0.0
C4022 C 0.58765 0.53033 0.18067 0.0
C4023 C 0.59452 0.54458 0.19447 0.0
C4024 C 0.58044 0.53566 0.16429 0.0
C4025 C 0.58039 0.49565 0.16831 0.0
C4026 C 0.58896 0.53416 0.14879 0.0
C4027 C 0.58244 0.53971 0.13337 0.0
C4028 C 0.56742 0.54701 0.1333 0.0
C4029 C 0.559 0.54865 0.14891 0.0
C4030 C 0.56553 0.54306 0.16433 0.0
H4031 H 0.57751 0.48155 0.17354 0.0
H4032 H 0.56767 0.49705 0.16172 0.0
H4033 H 0.59037 0.49618 0.1583 0.0
H4034 H 0.60071 0.5288 0.14865 0.0
H4035 H 0.58903 0.53807 0.12146 0.0
H4036 H 0.28798 0.90568 0.92051 0.0
H4037 H 0.29375 0.8869 0.89508 0.0
H4038 H 0.28443 0.83791 0.92456 0.0
H4039 H 0.27899 0.85668 0.95029 0.0
H4040 H 0.3159 0.84493 0.90282 0.0
H4041 H 0.25058 0.84573 0.86795 0.0
H4042 H 0.26591 0.86842 0.87589 0.0
H4043 H 0.25556 0.85222 0.89124 0.0
C4044 C 0.28695 0.89085 0.92154 0.0
C4045 C 0.28265 0.88248 0.93723 0.0
C4046 C 0.29045 0.88026 0.9071 0.0
C4047 C 0.28939 0.86113 0.90809 0.0
C4048 C 0.28535 0.85274 0.92373 0.0
H4049 H 0.26781 0.77244 0.82503 0.0
H4050 H 0.27211 0.78974 0.85434 0.0
C4051 C 0.28203 0.86338 0.93827 0.0
C4052 C 0.29098 0.84941 0.89236 0.0
H4053 H 0.2688 0.83012 0.8528 0.0
C4054 C 0.30566 0.84163 0.89184 0.0
C4055 C 0.27752 0.8453 0.87821 0.0
C4056 C 0.26142 0.85322 0.8783 0.0
C4057 C 0.30714 0.82963 0.87731 0.0
C4058 C 0.29352 0.82538 0.86334 0.0
C4059 C 0.27902 0.83333 0.86381 0.0
C4060 C 0.29402 0.81316 0.84764 0.0
C4061 C 0.32302 0.82144 0.8769 0.0
C4062 C 0.30515 0.82066 0.83458 0.0
C4063 C 0.30247 0.81106 0.81793 0.0
C4064 C 0.28868 0.79394 0.81427 0.0
C4065 C 0.27839 0.78576 0.82767 0.0
C4066 C 0.28093 0.79548 0.84432 0.0
H4067 H 0.33145 0.82457 0.88961 0.0
H4068 H 0.31811 0.80583 0.87367 0.0
H4069 H 0.3317 0.82746 0.86644 0.0
H4070 H 0.31517 0.8344 0.83699 0.0
H4071 H 0.31095 0.81715 0.80784 0.0
H4072 H 0.91866 0.53648 0.73231 0.0
H4073 H 0.93204 0.52704 0.70618 0.0
H4074 H 0.98469 0.56326 0.72666 0.0
H4075 H 0.97151 0.5724 0.75303 0.0
H4076 H 0.95179 0.54745 0.68129 0.0
H4077 H 0.99313 0.51102 0.71954 0.0
H4078 H 0.97498 0.51881 0.72859 0.0
H4079 H 0.99684 0.53549 0.7272 0.0
C4080 C 0.93301 0.54275 0.73105 0.0
C4081 C 0.94414 0.55506 0.74466 0.0
C4082 C 0.94062 0.53724 0.71622 0.0
C4083 C 0.95937 0.54409 0.71484 0.0
C4084 C 0.97026 0.55745 0.72781 0.0
H4085 H 0.03383 0.52873 0.63986 0.0
H4086 H 0.01905 0.53667 0.66571 0.0
C4087 C 0.96271 0.56281 0.74271 0.0
C4088 C 0.96762 0.53697 0.69998 0.0
H4089 H 0.99905 0.51412 0.68962 0.0
C4090 C 0.96204 0.54006 0.68304 0.0
C4091 C 0.98089 0.52727 0.70249 0.0
C4092 C 0.98671 0.52277 0.72042 0.0
C4093 C 0.96985 0.53419 0.66841 0.0
C4094 C 0.98331 0.52472 0.67091 0.0
C4095 C 0.98872 0.52142 0.68786 0.0
C4096 C 0.99234 0.51865 0.65611 0.0
C4097 C 0.96398 0.53865 0.65048 0.0
C4098 C 0.98223 0.50547 0.64258 0.0
C4099 C 0.99059 0.50107 0.62784 0.0
C4100 C 0.00919 0.50954 0.62667 0.0
C4101 C 0.01949 0.52195 0.64064 0.0
C4102 C 0.01108 0.52652 0.65529 0.0
H4103 H 0.95689 0.54986 0.65135 0.0
H4104 H 0.97581 0.54334 0.64256 0.0
H4105 H 0.95444 0.52568 0.64345 0.0
H4106 H 0.96783 0.49895 0.64325 0.0
H4107 H 0.98249 0.49137 0.61719 0.0
H4108 H 0.29971 0.24425 0.46847 0.0
H4109 H 0.30186 0.25585 0.4392 0.0
H4110 H 0.29654 0.19929 0.41609 0.0
H4111 H 0.29476 0.18772 0.44516 0.0
H4112 H 0.32335 0.22622 0.40203 0.0
H4113 H 0.25958 0.24768 0.40207 0.0
H4114 H 0.27607 0.25806 0.42019 0.0
H4115 H 0.26529 0.23294 0.41796 0.0
C4116 C 0.29908 0.23431 0.45716 0.0
C4117 C 0.29704 0.21503 0.45923 0.0
C4118 C 0.30018 0.24094 0.44039 0.0
C4119 C 0.29908 0.22841 0.42532 0.0
C4120 C 0.29741 0.20926 0.42744 0.0
H4121 H 0.27206 0.23227 0.31531 0.0
H4122 H 0.27445 0.22583 0.34603 0.0
C4123 C 0.29639 0.20266 0.44414 0.0
C4124 C 0.29956 0.23498 0.40728 0.0
H4125 H 0.27619 0.25317 0.37707 0.0
C4126 C 0.31311 0.23226 0.39664 0.0
C4127 C 0.28612 0.24272 0.40011 0.0
C4128 C 0.27083 0.24542 0.41057 0.0
C4129 C 0.31351 0.2369 0.37912 0.0
C4130 C 0.30005 0.24454 0.37196 0.0
C4131 C 0.28659 0.24743 0.3826 0.0
C4132 C 0.29908 0.24854 0.35315 0.0
C4133 C 0.32799 0.23303 0.36815 0.0
C4134 C 0.31219 0.26348 0.34682 0.0
C4135 C 0.31084 0.2673 0.32916 0.0
C4136 C 0.29639 0.25618 0.31743 0.0
C4137 C 0.28345 0.24109 0.32384 0.0
C4138 C 0.28473 0.23741 0.34148 0.0
H4139 H 0.33586 0.22464 0.37481 0.0
H4140 H 0.32179 0.22525 0.35532 0.0
H4141 H 0.33754 0.2467 0.36546 0.0
H4142 H 0.32333 0.27236 0.3556 0.0
H4143 H 0.32098 0.27911 0.32476 0.0
H4144 H 0.34027 0.61106 0.56083 0.0
H4145 H 0.36264 0.59697 0.54786 0.0
H4146 H 0.3279 0.58002 0.49977 0.0
H4147 H 0.30569 0.59424 0.51263 0.0
H4148 H 0.35126 0.55487 0.5302 0.0
H4149 H 0.38218 0.6127 0.48863 0.0
H4150 H 0.37236 0.61755 0.50872 0.0
H4151 H 0.3579 0.60509 0.48994 0.0
C4152 C 0.33758 0.60435 0.54751 0.0
C4153 C 0.3216 0.60364 0.53753 0.0
C4154 C 0.35021 0.59639 0.54016 0.0
C4155 C 0.34677 0.58773 0.5229 0.0
C4156 C 0.3307 0.5869 0.51303 0.0
H4157 H 0.41573 0.52139 0.48124 0.0
H4158 H 0.39052 0.53568 0.48095 0.0
C4159 C 0.31815 0.59493 0.52033 0.0
C4160 C 0.35987 0.57907 0.51542 0.0
H4161 H 0.39564 0.58767 0.48995 0.0
C4162 C 0.36078 0.56178 0.52114 0.0
C4163 C 0.37204 0.58832 0.50362 0.0
C4164 C 0.37123 0.60698 0.4973 0.0
C4165 C 0.37427 0.55377 0.51587 0.0
C4166 C 0.38697 0.56342 0.50467 0.0
C4167 C 0.38563 0.58035 0.49837 0.0
C4168 C 0.40323 0.55748 0.50184 0.0
C4169 C 0.37558 0.53565 0.52309 0.0
C4170 C 0.41864 0.56551 0.5134 0.0
C4171 C 0.43277 0.55723 0.51388 0.0
C4172 C 0.43167 0.54091 0.50269 0.0
C4173 C 0.41672 0.53374 0.49023 0.0
C4174 C 0.40248 0.54198 0.48986 0.0
H4175 H 0.36446 0.52989 0.53158 0.0
H4176 H 0.37505 0.52476 0.51211 0.0
H4177 H 0.38879 0.53827 0.53089 0.0
H4178 H 0.41919 0.57738 0.52284 0.0
H4179 H 0.44399 0.56295 0.52376 0.0
H4180 H 0.84455 0.89654 0.54293 0.0
H4181 H 0.87672 0.91531 0.54528 0.0
H4182 H 0.8683 0.93775 0.49615 0.0
H4183 H 0.83649 0.91946 0.49377 0.0
H4184 H 0.90529 0.91752 0.52091 0.0
H4185 H 0.88751 0.98513 0.53195 0.0
H4186 H 0.87173 0.96236 0.53444 0.0
H4187 H 0.87543 0.9703 0.51296 0.0
C4188 C 0.84964 0.90536 0.53259 0.0
C4189 C 0.8379 0.90675 0.51832 0.0
C4190 C 0.86797 0.91606 0.53395 0.0
C4191 C 0.87472 0.9282 0.52106 0.0
C4192 C 0.86324 0.92881 0.50643 0.0
H4193 H 0.97773 0.99382 0.49101 0.0
H4194 H 0.94697 0.97296 0.49278 0.0
C4195 C 0.84504 0.9183 0.50511 0.0
C4196 C 0.89357 0.94083 0.52287 0.0
H4197 H 0.91775 0.98755 0.52447 0.0
C4198 C 0.90806 0.93282 0.52189 0.0
C4199 C 0.89712 0.96081 0.52427 0.0
C4200 C 0.88215 0.9702 0.52613 0.0
C4201 C 0.92599 0.94434 0.52154 0.0
C4202 C 0.92936 0.96422 0.52215 0.0
C4203 C 0.91499 0.97225 0.52378 0.0
C4204 C 0.94778 0.97697 0.52108 0.0
C4205 C 0.94127 0.93532 0.52033 0.0
C4206 C 0.95811 0.98639 0.5364 0.0
C4207 C 0.97559 0.99837 0.53546 0.0
C4208 C 0.98304 1.00118 0.51915 0.0
C4209 C 0.97241 0.99202 0.50377 0.0
C4210 C 0.9549 0.98001 0.50474 0.0
H4211 H 0.93656 0.91973 0.52102 0.0
H4212 H 0.94758 0.93819 0.50776 0.0
H4213 H 0.95195 0.94171 0.53115 0.0
H4214 H 0.95273 0.98424 0.5491 0.0
H4215 H 0.9834 0.00507 0.5476 0.0
H4216 H 0.90873 0.07793 0.26802 0.0
H4217 H 0.89345 0.09995 0.28109 0.0
H4218 H 0.8513 0.08265 0.23858 0.0
H4219 H 0.86605 0.05995 0.22597 0.0
H4220 H 0.88648 0.12955 0.2686 0.0
H4221 H 0.82139 0.07819 0.27985 0.0
H4222 H 0.84104 0.07081 0.27432 0.0
H4223 H 0.82623 0.07568 0.25735 0.0
C4224 C 0.89612 0.07877 0.26159 0.0
C4225 C 0.88837 0.06721 0.24615 0.0
C4226 C 0.88742 0.09127 0.26906 0.0
C4227 C 0.87102 0.09249 0.26105 0.0
C4228 C 0.86357 0.08134 0.24532 0.0
H4229 H 0.82302 0.17729 0.24977 0.0
H4230 H 0.84255 0.15657 0.25185 0.0
C4231 C 0.87206 0.06854 0.23805 0.0
C4232 C 0.86216 0.10621 0.26852 0.0
H4233 H 0.82071 0.11069 0.27768 0.0
C4234 C 0.8722 0.12539 0.27101 0.0
C4235 C 0.84366 0.1007 0.27204 0.0
C4236 C 0.83255 0.08018 0.27093 0.0
C4237 C 0.8638 0.1394 0.27554 0.0
C4238 C 0.84491 0.13398 0.27724 0.0
C4239 C 0.8352 0.11474 0.27619 0.0
C4240 C 0.83451 0.14787 0.27728 0.0
C4241 C 0.87502 0.1599 0.27775 0.0
C4242 C 0.82325 0.14941 0.29075 0.0
C4243 C 0.81197 0.16121 0.28956 0.0
C4244 C 0.81181 0.17144 0.27483 0.0
C4245 C 0.82316 0.16984 0.26142 0.0
C4246 C 0.83438 0.15811 0.26263 0.0
H4247 H 0.8894 0.16126 0.28203 0.0
H4248 H 0.87483 0.16601 0.26495 0.0
H4249 H 0.86954 0.16834 0.28747 0.0
H4250 H 0.82306 0.14132 0.30201 0.0
H4251 H 0.80341 0.16236 0.3001 0.0
H4252 H 0.74107 0.08594 0.02849 0.0
H4253 H 0.70963 0.06632 0.02776 0.0
H4254 H 0.69258 0.11609 0.04176 0.0
H4255 H 0.72398 0.13594 0.04245 0.0
H4256 H 0.6814 0.06488 0.05551 0.0
H4257 H 0.66813 0.0904 0.99085 0.0
H4258 H 0.69074 0.09196 -0.0001 0.0
H4259 H 0.67919 0.10845 0.00816 0.0
C4260 C 0.73064 0.09269 0.03152 0.0
C4261 C 0.7348 0.11243 0.03529 0.0
C4262 C 0.71282 0.08146 0.03126 0.0
C4263 C 0.69912 0.08994 0.03471 0.0
C4264 C 0.70324 0.10951 0.0391 0.0
H4265 H 0.58673 0.06773 0.02413 0.0
H4266 H 0.61963 0.07946 0.02981 0.0
C4267 C 0.72105 0.12077 0.03934 0.0
C4268 C 0.68026 0.07869 0.03185 0.0
H4269 H 0.64267 0.07268 0.00422 0.0
C4270 C 0.67284 0.06634 0.04427 0.0
C4271 C 0.66956 0.08068 0.01699 0.0
C4272 C 0.67729 0.09347 0.0031 0.0
C4273 C 0.65435 0.05655 0.04265 0.0
C4274 C 0.64351 0.05924 0.02816 0.0
C4275 C 0.65121 0.07087 0.01534 0.0
C4276 C 0.62383 0.05161 0.02658 0.0
C4277 C 0.64637 0.04415 0.0567 0.0
C4278 C 0.61563 0.03212 0.02296 0.0
C4279 C 0.59686 0.0254 0.0198 0.0
C4280 C 0.58638 0.03821 0.01992 0.0
C4281 C 0.59467 0.05769 0.02359 0.0
C4282 C 0.61332 0.06434 0.02704 0.0
H4283 H 0.65627 0.04561 0.0682 0.0
H4284 H 0.63416 0.04774 0.06121 0.0
H4285 H 0.64206 0.02909 0.05118 0.0
H4286 H 0.62373 0.02225 0.02224 0.0
H4287 H 0.59056 0.01027 0.01707 0.0
H4288 H 0.15243 0.4472 0.25269 0.0
H4289 H 0.16677 0.4245 0.26427 0.0
H4290 H 0.21964 0.4634 0.26026 0.0
H4291 H 0.20545 0.48636 0.24872 0.0
H4292 H 0.1949 0.40888 0.24925 0.0
H4293 H 0.21577 0.45208 0.31349 0.0
H4294 H 0.19813 0.45496 0.29829 0.0
H4295 H 0.2216 0.4648 0.29452 0.0
C4296 C 0.16712 0.45089 0.25416 0.0
C4297 C 0.17789 0.46862 0.25008 0.0
C4298 C 0.17522 0.43791 0.26072 0.0
C4299 C 0.19413 0.44257 0.26331 0.0
C4300 C 0.20496 0.45985 0.25852 0.0
H4301 H 0.27908 0.40012 0.29404 0.0
H4302 H 0.25791 0.41871 0.28863 0.0
C4303 C 0.19687 0.47286 0.25194 0.0
C4304 C 0.20261 0.42966 0.27163 0.0
H4305 H 0.22886 0.42672 0.30793 0.0
C4306 C 0.20213 0.41254 0.26217 0.0
C4307 C 0.21171 0.43461 0.28854 0.0
C4308 C 0.21175 0.45254 0.29941 0.0
C4309 C 0.21164 0.40063 0.26885 0.0
C4310 C 0.2215 0.40605 0.28545 0.0
C4311 C 0.22121 0.42274 0.29523 0.0
C4312 C 0.23394 0.39578 0.29183 0.0
C4313 C 0.21188 0.38292 0.25775 0.0
C4314 C 0.22733 0.37716 0.29624 0.0
C4315 C 0.23938 0.36659 0.29946 0.0
C4316 C 0.2581 0.37459 0.29825 0.0
C4317 C 0.26474 0.39372 0.29521 0.0
C4318 C 0.25269 0.40427 0.29201 0.0
H4319 H 0.2056 0.38226 0.24422 0.0
H4320 H 0.22603 0.38217 0.25693 0.0
H4321 H 0.20422 0.37026 0.26392 0.0
H4322 H 0.21287 0.37058 0.29638 0.0
H4323 H 0.23402 0.35187 0.30197 0.0
H4324 H 0.21344 0.36234 0.02672 0.0
H4325 H 0.18968 0.37832 0.02218 0.0
H4326 H 0.23067 0.43052 0.01634 0.0
H4327 H 0.25435 0.41485 0.02092 0.0
H4328 H 0.18741 0.41213 0.04336 0.0
H4329 H 0.19346 0.42356 0.97289 0.0
H4330 H 0.20168 0.40591 0.98312 0.0
H4331 H 0.21461 0.43046 0.98627 0.0
C4332 C 0.21735 0.3772 0.02439 0.0
C4333 C 0.23576 0.38733 0.02421 0.0
C4334 C 0.20378 0.38628 0.02177 0.0
C4335 C 0.20843 0.40552 0.01867 0.0
C4336 C 0.22678 0.41559 0.01841 0.0
H4337 H 0.16068 0.49669 0.01091 0.0
H4338 H 0.17962 0.47507 0.01045 0.0
C4339 C 0.2403 0.40662 0.02117 0.0
C4340 C 0.19431 0.41553 0.01675 0.0
H4341 H 0.17669 0.44106 0.98881 0.0
C4342 C 0.18482 0.41822 0.03137 0.0
C4343 C 0.19115 0.42358 0.00112 0.0
C4344 C 0.20063 0.42064 0.98488 0.0
C4345 C 0.17273 0.42936 0.031 0.0
C4346 C 0.16975 0.43767 0.01546 0.0
C4347 C 0.17897 0.43464 0.0007 0.0
C4348 C 0.15783 0.45033 0.01463 0.0
C4349 C 0.16385 0.43287 0.0475 0.0
C4350 C 0.1392 0.44351 0.0168 0.0
C4351 C 0.12827 0.45583 0.01699 0.0
C4352 C 0.13577 0.47521 0.01493 0.0
C4353 C 0.15438 0.48185 0.01236 0.0
C4354 C 0.16527 0.46952 0.01214 0.0
H4355 H 0.17055 0.42892 0.05927 0.0
H4356 H 0.16419 0.44802 0.04972 0.0
H4357 H 0.14942 0.42422 0.0461 0.0
H4358 H 0.13312 0.42867 0.01842 0.0
H4359 H 0.11394 0.45015 0.01864 0.0
H4360 H 0.89743 0.95125 0.19159 0.0
H4361 H 0.8767 0.91942 0.1936 0.0
H4362 H 0.86899 0.93578 0.24727 0.0
H4363 H 0.88876 0.96757 0.245 0.0
H4364 H 0.87872 0.89259 0.21597 0.0
H4365 H 0.81748 0.91618 0.22618 0.0
H4366 H 0.83775 0.93146 0.21854 0.0
H4367 H 0.83604 0.92873 0.24162 0.0
C4368 C 0.89113 0.94793 0.20371 0.0
C4369 C 0.89424 0.9617 0.21805 0.0
C4370 C 0.87939 0.9299 0.20484 0.0
C4371 C 0.871 0.92559 0.22041 0.0
C4372 C 0.87482 0.93915 0.23494 0.0
H4373 H 0.82939 0.8311 0.27414 0.0
H4374 H 0.84761 0.85751 0.25966 0.0
C4375 C 0.88612 0.9572 0.23368 0.0
C4376 C 0.85849 0.90682 0.22189 0.0
H4377 H 0.8172 0.88579 0.23614 0.0
C4378 C 0.8651 0.89095 0.21998 0.0
C4379 C 0.84069 0.90482 0.22691 0.0
C4380 C 0.83253 0.92121 0.22824 0.0
C4381 C 0.85473 0.87325 0.2242 0.0
C4382 C 0.83757 0.87168 0.23056 0.0
C4383 C 0.83049 0.88722 0.23134 0.0
C4384 C 0.82735 0.85463 0.23808 0.0
C4385 C 0.86235 0.85651 0.22235 0.0
C4386 C 0.80988 0.84473 0.23082 0.0
C4387 C 0.7994 0.82977 0.2391 0.0
C4388 C 0.80628 0.8247 0.25479 0.0
C4389 C 0.82382 0.83467 0.26201 0.0
C4390 C 0.83429 0.84959 0.25369 0.0
H4391 H 0.87322 0.85874 0.21311 0.0
H4392 H 0.86829 0.85451 0.23535 0.0
H4393 H 0.8515 0.84331 0.21768 0.0
H4394 H 0.80432 0.84873 0.21888 0.0
H4395 H 0.78598 0.82215 0.23317 0.0
H4396 H 0.66918 0.0803 0.715 0.0
H4397 H 0.69236 0.11106 0.72061 0.0
H4398 H 0.68994 0.1072 0.77644 0.0
H4399 H 0.66741 0.07599 0.77076 0.0
H4400 H 0.6928 0.1443 0.73822 0.0
H4401 H 0.74318 0.1139 0.77069 0.0
H4402 H 0.72251 0.09931 0.75876 0.0
H4403 H 0.72209 0.10938 0.78079 0.0
C4404 C 0.67351 0.08625 0.72842 0.0
C4405 C 0.66681 0.07609 0.74251 0.0
C4406 C 0.68671 0.10366 0.73162 0.0
C4407 C 0.69314 0.11104 0.74892 0.0
C4408 C 0.68553 0.10137 0.76301 0.0
H4409 H 0.75711 0.21881 0.79239 0.0
H4410 H 0.74046 0.18517 0.78789 0.0
C4411 C 0.6726 0.08378 0.75981 0.0
C4412 C 0.70805 0.12869 0.75214 0.0
H4413 H 0.75092 0.14764 0.77176 0.0
C4414 C 0.70556 0.14501 0.74539 0.0
C4415 C 0.72469 0.1294 0.76144 0.0
C4416 C 0.72839 0.11203 0.7682 0.0
C4417 C 0.71919 0.16224 0.74808 0.0
C4418 C 0.73563 0.163 0.75766 0.0
C4419 C 0.73825 0.14674 0.76429 0.0
C4420 C 0.74946 0.18116 0.76203 0.0
C4421 C 0.71584 0.17967 0.74106 0.0
C4422 C 0.76064 0.18949 0.74925 0.0
C4423 C 0.77025 0.20867 0.75182 0.0
C4424 C 0.76841 0.21952 0.76706 0.0
C4425 C 0.75846 0.21069 0.78044 0.0
C4426 C 0.74909 0.19153 0.77796 0.0
H4427 H 0.7018 0.17688 0.73494 0.0
H4428 H 0.71823 0.19126 0.7518 0.0
H4429 H 0.72552 0.18473 0.73105 0.0
H4430 H 0.76089 0.18152 0.73685 0.0
H4431 H 0.77789 0.21528 0.74137 0.0
loop_
_geom_bond_atom_site_label_1
_geom_bond_atom_site_label_2
_geom_bond_distance
_geom_bond_site_symmetry_2
_ccdc_geom_bond_type
C0 O1 1.274 1_655 S
C0 O3 1.142 1_655 S
O1 C0 1.274 1_455 S
O1 Cd2 2.228 . S
Cd2 O1 2.228 . S
Cd2 O6 2.273 . S
Cd2 O10 2.277 . S
O3 C0 1.142 1_455 S
O3 Cd4 2.203 . S
Cd4 O3 2.203 . S
Cd4 O6 2.411 . S
Cd4 O7 2.333 . S
Cd4 O8 2.352 . S
Cd4 O12 2.277 . S
Cd4 O13 2.356 . S
C5 O10 1.209 . S
C5 O12 1.226 . S
O6 Cd2 2.273 . S
O6 Cd4 2.411 . S
O6 C9 1.320 . S
O7 Cd4 2.333 . S
O7 C9 1.214 . S
O8 Cd4 2.352 . S
O8 C11 1.258 . S
C9 O6 1.320 . S
C9 O7 1.214 . S
O10 Cd2 2.277 . S
O10 C5 1.209 . S
C11 O8 1.258 . S
C11 O13 1.282 . S
O12 Cd4 2.277 . S
O12 C5 1.226 . S
O13 Cd4 2.356 . S
O13 C11 1.282 . S
C14 O15 1.306 . S
C14 O17 1.160 . S
O15 C14 1.306 . S
O15 Cd16 2.228 . S
Cd16 O15 2.228 . S
Cd16 O20 2.273 . S
Cd16 O24 2.277 . S
O17 C14 1.160 . S
O17 Cd18 2.203 . S
Cd18 O17 2.203 . S
Cd18 O20 2.411 . S
Cd18 O21 2.333 . S
Cd18 O22 2.352 . S
Cd18 O26 2.277 . S
Cd18 O27 2.356 . S
C19 O24 1.209 . S
C19 O26 1.226 . S
O20 Cd16 2.273 . S
O20 Cd18 2.411 . S
O20 C23 1.320 . S
O21 Cd18 2.333 . S
O21 C23 1.214 . S
O22 Cd18 2.352 . S
O22 C25 1.258 . S
C23 O20 1.320 . S
C23 O21 1.214 . S
O24 Cd16 2.277 . S
O24 C19 1.209 . S
C25 O22 1.258 . S
C25 O27 1.282 . S
O26 Cd18 2.277 . S
O26 C19 1.226 . S
O27 Cd18 2.356 . S
O27 C25 1.282 . S
C28 O29 1.306 . S
C28 O31 1.160 . S
O29 C28 1.306 . S
O29 Cd30 2.228 . S
Cd30 O29 2.228 . S
Cd30 O34 2.273 . S
Cd30 O38 2.277 . S
O31 C28 1.160 . S
O31 Cd32 2.203 . S
Cd32 O31 2.203 . S
Cd32 O34 2.411 . S
Cd32 O35 2.333 . S
Cd32 O36 2.352 . S
Cd32 O40 2.277 . S
Cd32 O41 2.356 . S
C33 O38 1.209 . S
C33 O40 1.226 . S
O34 Cd30 2.273 . S
O34 Cd32 2.411 . S
O34 C37 1.320 . S
O35 Cd32 2.333 . S
O35 C37 1.214 . S
O36 Cd32 2.352 . S
O36 C39 1.258 . S
C37 O34 1.320 . S
C37 O35 1.214 . S
O38 Cd30 2.277 . S
O38 C33 1.209 . S
C39 O36 1.258 . S
C39 O41 1.282 . S
O40 Cd32 2.277 . S
O40 C33 1.226 . S
O41 Cd32 2.356 . S
O41 C39 1.282 . S
C42 O43 1.306 . S
C42 O45 1.160 . S
O43 C42 1.306 . S
O43 Cd44 2.228 . S
Cd44 O43 2.228 . S
Cd44 O48 2.273 . S
Cd44 O52 2.277 . S
O45 C42 1.160 . S
O45 Cd46 2.203 . S
Cd46 O45 2.203 . S
Cd46 O48 2.411 . S
Cd46 O49 2.333 . S
Cd46 O50 2.352 . S
Cd46 O54 2.277 . S
Cd46 O55 2.356 . S
C47 O52 1.209 . S
C47 O54 1.226 . S
O48 Cd44 2.273 . S
O48 Cd46 2.411 . S
O48 C51 1.320 . S
O49 Cd46 2.333 . S
O49 C51 1.214 . S
O50 Cd46 2.352 . S
O50 C53 1.258 . S
C51 O48 1.320 . S
C51 O49 1.214 . S
O52 Cd44 2.277 . S
O52 C47 1.209 . S
C53 O50 1.258 . S
C53 O55 1.282 . S
O54 Cd46 2.277 . S
O54 C47 1.226 . S
O55 Cd46 2.356 . S
O55 C53 1.282 . S
C56 O57 1.306 . S
C56 O59 1.160 . S
O57 C56 1.306 . S
O57 Cd58 2.228 . S
Cd58 O57 2.228 . S
Cd58 O62 2.273 . S
Cd58 O66 2.277 . S
O59 C56 1.160 . S
O59 Cd60 2.203 . S
Cd60 O59 2.203 . S
Cd60 O62 2.411 . S
Cd60 O63 2.333 . S
Cd60 O64 2.352 . S
Cd60 O68 2.277 . S
Cd60 O69 2.356 . S
C61 O66 1.209 . S
C61 O68 1.226 . S
O62 Cd58 2.273 . S
O62 Cd60 2.411 . S
O62 C65 1.320 . S
O63 Cd60 2.333 . S
O63 C65 1.214 . S
O64 Cd60 2.352 . S
O64 C67 1.258 . S
C65 O62 1.320 . S
C65 O63 1.214 . S
O66 Cd58 2.277 . S
O66 C61 1.209 . S
C67 O64 1.258 . S
C67 O69 1.282 . S
O68 Cd60 2.277 . S
O68 C61 1.226 . S
O69 Cd60 2.356 . S
O69 C67 1.282 . S
C70 O71 1.306 . S
C70 O73 1.160 . S
O71 C70 1.306 . S
O71 Cd72 2.228 . S
Cd72 O71 2.228 . S
Cd72 O76 2.273 . S
Cd72 O80 2.277 . S
O73 C70 1.160 . S
O73 Cd74 2.203 . S
Cd74 O73 2.203 . S
Cd74 O76 2.411 . S
Cd74 O77 2.333 . S
Cd74 O78 2.352 . S
Cd74 O82 2.277 . S
Cd74 O83 2.356 . S
C75 O80 1.209 . S
C75 O82 1.226 . S
O76 Cd72 2.273 . S
O76 Cd74 2.411 . S
O76 C79 1.320 . S
O77 Cd74 2.333 . S
O77 C79 1.214 . S
O78 Cd74 2.352 . S
O78 C81 1.258 . S
C79 O76 1.320 . S
C79 O77 1.214 . S
O80 Cd72 2.277 . S
O80 C75 1.209 . S
C81 O78 1.258 . S
C81 O83 1.282 . S
O82 Cd74 2.277 . S
O82 C75 1.226 . S
O83 Cd74 2.356 . S
O83 C81 1.282 . S
C84 O85 1.306 . S
C84 O87 1.160 . S
O85 C84 1.306 . S
O85 Cd86 2.228 . S
Cd86 O85 2.228 . S
Cd86 O90 2.273 . S
Cd86 O94 2.277 . S
O87 C84 1.160 . S
O87 Cd88 2.203 . S
Cd88 O87 2.203 . S
Cd88 O90 2.411 . S
Cd88 O91 2.333 . S
Cd88 O92 2.352 . S
Cd88 O96 2.277 . S
Cd88 O97 2.356 . S
C89 O94 1.209 . S
C89 O96 1.226 . S
O90 Cd86 2.273 . S
O90 Cd88 2.411 . S
O90 C93 1.320 . S
O91 Cd88 2.333 . S
O91 C93 1.214 . S
O92 Cd88 2.352 . S
O92 C95 1.258 . S
C93 O90 1.320 . S
C93 O91 1.214 . S
O94 Cd86 2.277 . S
O94 C89 1.209 . S
C95 O92 1.258 . S
C95 O97 1.282 . S
O96 Cd88 2.277 . S
O96 C89 1.226 . S
O97 Cd88 2.356 . S
O97 C95 1.282 . S
C98 O99 1.306 . S
C98 O101 1.160 . S
O99 C98 1.306 . S
O99 Cd100 2.228 1_655 S
Cd100 O99 2.228 1_455 S
Cd100 O104 2.273 . S
Cd100 O108 2.277 . S
O101 C98 1.160 . S
O101 Cd102 2.150 1_655 S
Cd102 O101 2.150 1_455 S
Cd102 O104 2.438 . S
Cd102 O105 2.388 . S
Cd102 O106 2.358 1_455 S
Cd102 O110 2.267 . S
Cd102 O111 2.367 . S
C103 O108 1.209 . S
C103 O110 1.226 . S
O104 Cd100 2.273 . S
O104 Cd102 2.438 . S
O104 C107 1.320 . S
O105 Cd102 2.388 . S
O105 C107 1.214 . S
O106 Cd102 2.358 1_655 S
O106 C109 1.258 . S
C107 O104 1.320 . S
C107 O105 1.214 . S
O108 Cd100 2.277 . S
O108 C103 1.209 . S
C109 O106 1.258 . S
C109 O111 1.282 1_655 S
O110 Cd102 2.267 . S
O110 C103 1.226 . S
O111 Cd102 2.367 . S
O111 C109 1.282 1_455 S
C112 O113 1.306 . S
C112 O115 1.160 . S
O113 C112 1.306 . S
O113 Cd114 2.228 . S
Cd114 O113 2.228 . S
Cd114 O118 2.273 . S
Cd114 O122 2.277 1_545 S
O115 C112 1.160 . S
O115 Cd116 2.203 . S
Cd116 O115 2.203 . S
Cd116 O118 2.411 . S
Cd116 O119 2.333 . S
Cd116 O120 2.352 . S
Cd116 O124 2.252 1_545 S
Cd116 O125 2.356 . S
C117 O122 1.209 . S
C117 O124 1.255 . S
O118 Cd114 2.273 . S
O118 Cd116 2.411 . S
O118 C121 1.320 . S
O119 Cd116 2.333 . S
O119 C121 1.214 . S
O120 Cd116 2.352 . S
O120 C123 1.258 . S
C121 O118 1.320 . S
C121 O119 1.214 . S
O122 Cd114 2.277 1_565 S
O122 C117 1.209 . S
C123 O120 1.258 . S
C123 O125 1.282 . S
O124 Cd116 2.252 1_565 S
O124 C117 1.255 . S
O125 Cd116 2.356 . S
O125 C123 1.282 . S
C126 O127 1.306 . S
C126 O129 1.160 . S
O127 C126 1.306 . S
O127 Cd128 2.228 . S
Cd128 O127 2.228 . S
Cd128 O132 2.273 . S
Cd128 O136 2.277 . S
O129 C126 1.160 . S
O129 Cd130 2.203 . S
Cd130 O129 2.203 . S
Cd130 O132 2.411 . S
Cd130 O133 2.333 . S
Cd130 O134 2.352 . S
Cd130 O138 2.277 . S
Cd130 O139 2.356 . S
C131 O136 1.209 . S
C131 O138 1.226 . S
O132 Cd128 2.273 . S
O132 Cd130 2.411 . S
O132 C135 1.320 . S
O133 Cd130 2.333 . S
O133 C135 1.214 . S
O134 Cd130 2.352 . S
O134 C137 1.258 . S
C135 O132 1.320 . S
C135 O133 1.214 . S
O136 Cd128 2.277 . S
O136 C131 1.209 . S
C137 O134 1.258 . S
C137 O139 1.282 . S
O138 Cd130 2.277 . S
O138 C131 1.226 . S
O139 Cd130 2.356 . S
O139 C137 1.282 . S
C140 O141 1.306 . S
C140 O143 1.160 . S
O141 C140 1.306 . S
O141 Cd142 2.228 . S
Cd142 O141 2.228 . S
Cd142 O146 2.273 . S
Cd142 O150 2.277 . S
O143 C140 1.160 . S
O143 Cd144 2.203 . S
Cd144 O143 2.203 . S
Cd144 O146 2.411 . S
Cd144 O147 2.333 . S
Cd144 O148 2.352 . S
Cd144 O152 2.277 . S
Cd144 O153 2.356 . S
C145 O150 1.209 . S
C145 O152 1.226 . S
O146 Cd142 2.273 . S
O146 Cd144 2.411 . S
O146 C149 1.320 . S
O147 Cd144 2.333 . S
O147 C149 1.214 . S
O148 Cd144 2.352 . S
O148 C151 1.258 . S
C149 O146 1.320 . S
C149 O147 1.214 . S
O150 Cd142 2.277 . S
O150 C145 1.209 . S
C151 O148 1.258 . S
C151 O153 1.282 . S
O152 Cd144 2.277 . S
O152 C145 1.226 . S
O153 Cd144 2.356 . S
O153 C151 1.282 . S
C154 O155 1.322 . S
C154 O157 1.148 1_556 S
O155 C154 1.322 . S
O155 Cd156 2.228 . S
Cd156 O155 2.228 . S
Cd156 O160 2.288 . S
Cd156 O164 2.277 . S
O157 C154 1.148 1_554 S
O157 Cd158 2.203 . S
Cd158 O157 2.203 . S
Cd158 O160 2.409 1_554 S
Cd158 O161 2.333 . S
Cd158 O162 2.352 . S
Cd158 O166 2.277 1_554 S
Cd158 O167 2.356 . S
C159 O164 1.209 . S
C159 O166 1.226 . S
O160 Cd156 2.288 . S
O160 Cd158 2.409 1_556 S
O160 C163 1.318 1_556 S
O161 Cd158 2.333 . S
O161 C163 1.213 . S
O162 Cd158 2.352 . S
O162 C165 1.258 . S
C163 O160 1.318 1_554 S
C163 O161 1.213 . S
O164 Cd156 2.277 . S
O164 C159 1.209 . S
C165 O162 1.258 . S
C165 O167 1.282 . S
O166 Cd158 2.277 1_556 S
O166 C159 1.226 . S
O167 Cd158 2.356 . S
O167 C165 1.282 . S
C168 O169 1.306 . S
C168 O171 1.160 . S
O169 C168 1.306 . S
O169 Cd170 2.228 1_554 S
Cd170 O169 2.228 1_556 S
Cd170 O174 2.273 1_556 S
Cd170 O178 2.277 . S
O171 C168 1.160 . S
O171 Cd172 2.203 . S
Cd172 O171 2.203 . S
Cd172 O174 2.411 . S
Cd172 O175 2.333 . S
Cd172 O176 2.352 . S
Cd172 O180 2.277 . S
Cd172 O181 2.356 . S
C173 O178 1.209 . S
C173 O180 1.226 1_556 S
O174 Cd170 2.273 1_554 S
O174 Cd172 2.411 . S
O174 C177 1.320 . S
O175 Cd172 2.333 . S
O175 C177 1.214 . S
O176 Cd172 2.352 . S
O176 C179 1.258 . S
C177 O174 1.320 . S
C177 O175 1.214 . S
O178 Cd170 2.277 . S
O178 C173 1.209 . S
C179 O176 1.258 . S
C179 O181 1.282 . S
O180 Cd172 2.277 . S
O180 C173 1.226 1_554 S
O181 Cd172 2.356 . S
O181 C179 1.282 . S
C182 O183 1.306 . S
C182 O185 1.160 . S
O183 C182 1.306 . S
O183 Cd184 2.228 . S
Cd184 O183 2.228 . S
Cd184 O188 2.273 . S
Cd184 O192 2.277 . S
O185 C182 1.160 . S
O185 Cd186 2.203 . S
Cd186 O185 2.203 . S
Cd186 O188 2.411 . S
Cd186 O189 2.333 . S
Cd186 O190 2.352 . S
Cd186 O194 2.277 . S
Cd186 O195 2.356 . S
C187 O192 1.209 . S
C187 O194 1.226 . S
O188 Cd184 2.273 . S
O188 Cd186 2.411 . S
O188 C191 1.320 . S
O189 Cd186 2.333 . S
O189 C191 1.214 . S
O190 Cd186 2.352 . S
O190 C193 1.258 . S
C191 O188 1.320 . S
C191 O189 1.214 . S
O192 Cd184 2.277 . S
O192 C187 1.209 . S
C193 O190 1.258 . S
C193 O195 1.282 . S
O194 Cd186 2.277 . S
O194 C187 1.226 . S
O195 Cd186 2.356 . S
O195 C193 1.282 . S
C196 O197 1.306 . S
C196 O199 1.160 . S
O197 C196 1.306 . S
O197 Cd198 2.228 . S
Cd198 O197 2.228 . S
Cd198 O202 2.273 . S
Cd198 O206 2.277 . S
O199 C196 1.160 . S
O199 Cd200 2.203 . S
Cd200 O199 2.203 . S
Cd200 O202 2.411 . S
Cd200 O203 2.333 . S
Cd200 O204 2.352 . S
Cd200 O208 2.277 . S
Cd200 O209 2.356 . S
C201 O206 1.209 . S
C201 O208 1.226 . S
O202 Cd198 2.273 . S
O202 Cd200 2.411 . S
O202 C205 1.320 . S
O203 Cd200 2.333 . S
O203 C205 1.214 . S
O204 Cd200 2.352 . S
O204 C207 1.258 . S
C205 O202 1.320 . S
C205 O203 1.214 . S
O206 Cd198 2.277 . S
O206 C201 1.209 . S
C207 O204 1.258 . S
C207 O209 1.282 . S
O208 Cd200 2.277 . S
O208 C201 1.226 . S
O209 Cd200 2.356 . S
O209 C207 1.282 . S
C210 O211 1.306 . S
C210 O213 1.160 . S
O211 C210 1.306 . S
O211 Cd212 2.228 . S
Cd212 O211 2.228 . S
Cd212 O216 2.273 . S
Cd212 O220 2.277 . S
O213 C210 1.160 . S
O213 Cd214 2.203 . S
Cd214 O213 2.203 . S
Cd214 O216 2.411 . S
Cd214 O217 2.333 . S
Cd214 O218 2.352 . S
Cd214 O222 2.277 . S
Cd214 O223 2.356 . S
C215 O220 1.209 . S
C215 O222 1.226 . S
O216 Cd212 2.273 . S
O216 Cd214 2.411 . S
O216 C219 1.320 . S
O217 Cd214 2.333 . S
O217 C219 1.214 . S
O218 Cd214 2.352 . S
O218 C221 1.258 . S
C219 O216 1.320 . S
C219 O217 1.214 . S
O220 Cd212 2.277 . S
O220 C215 1.209 . S
C221 O218 1.258 . S
C221 O223 1.282 . S
O222 Cd214 2.277 . S
O222 C215 1.226 . S
O223 Cd214 2.356 . S
O223 C221 1.282 . S
C224 O225 1.306 . S
C224 O227 1.160 . S
O225 C224 1.306 . S
O225 Cd226 2.228 1_545 S
Cd226 O225 2.228 1_565 S
Cd226 O230 2.273 1_565 S
Cd226 O234 2.277 . S
O227 C224 1.160 . S
O227 Cd228 2.203 . S
Cd228 O227 2.203 . S
Cd228 O230 2.411 . S
Cd228 O231 2.333 . S
Cd228 O232 2.352 . S
Cd228 O236 2.277 1_545 S
Cd228 O237 2.356 . S
C229 O234 1.209 . S
C229 O236 1.226 . S
O230 Cd226 2.273 1_545 S
O230 Cd228 2.411 . S
O230 C233 1.320 . S
O231 Cd228 2.333 . S
O231 C233 1.214 . S
O232 Cd228 2.352 . S
O232 C235 1.258 . S
C233 O230 1.320 . S
C233 O231 1.214 . S
O234 Cd226 2.277 . S
O234 C229 1.209 . S
C235 O232 1.258 . S
C235 O237 1.282 . S
O236 Cd228 2.277 1_565 S
O236 C229 1.226 . S
O237 Cd228 2.356 . S
O237 C235 1.282 . S
C238 O239 1.306 . S
C238 O241 1.160 . S
O239 C238 1.306 . S
O239 Cd240 2.228 . S
Cd240 O239 2.228 . S
Cd240 O244 2.273 . S
Cd240 O248 2.277 . S
O241 C238 1.160 . S
O241 Cd242 2.203 . S
Cd242 O241 2.203 . S
Cd242 O244 2.411 . S
Cd242 O245 2.333 . S
Cd242 O246 2.352 . S
Cd242 O250 2.277 . S
Cd242 O251 2.356 . S
C243 O248 1.209 . S
C243 O250 1.226 . S
O244 Cd240 2.273 . S
O244 Cd242 2.411 . S
O244 C247 1.320 . S
O245 Cd242 2.333 . S
O245 C247 1.214 . S
O246 Cd242 2.352 . S
O246 C249 1.258 . S
C247 O244 1.320 . S
C247 O245 1.214 . S
O248 Cd240 2.277 . S
O248 C243 1.209 . S
C249 O246 1.258 . S
C249 O251 1.282 . S
O250 Cd242 2.277 . S
O250 C243 1.226 . S
O251 Cd242 2.356 . S
O251 C249 1.282 . S
C252 O253 1.306 . S
C252 O255 1.160 . S
O253 C252 1.306 . S
O253 Cd254 2.228 . S
Cd254 O253 2.228 . S
Cd254 O258 2.273 . S
Cd254 O262 2.277 . S
O255 C252 1.160 . S
O255 Cd256 2.203 . S
Cd256 O255 2.203 . S
Cd256 O258 2.411 . S
Cd256 O259 2.333 . S
Cd256 O260 2.352 . S
Cd256 O264 2.277 . S
Cd256 O265 2.356 . S
C257 O262 1.209 . S
C257 O264 1.226 . S
O258 Cd254 2.273 . S
O258 Cd256 2.411 . S
O258 C261 1.320 . S
O259 Cd256 2.333 . S
O259 C261 1.214 . S
O260 Cd256 2.352 . S
O260 C263 1.258 . S
C261 O258 1.320 . S
C261 O259 1.214 . S
O262 Cd254 2.277 . S
O262 C257 1.209 . S
C263 O260 1.258 . S
C263 O265 1.282 . S
O264 Cd256 2.277 . S
O264 C257 1.226 . S
O265 Cd256 2.356 . S
O265 C263 1.282 . S
C266 O267 1.306 . S
C266 O269 1.160 . S
O267 C266 1.306 . S
O267 Cd268 2.228 . S
Cd268 O267 2.228 . S
Cd268 O272 2.273 . S
Cd268 O276 2.277 . S
O269 C266 1.160 . S
O269 Cd270 2.203 . S
Cd270 O269 2.203 . S
Cd270 O272 2.411 . S
Cd270 O273 2.333 . S
Cd270 O274 2.352 1_545 S
Cd270 O278 2.277 . S
Cd270 O279 2.356 . S
C271 O276 1.209 . S
C271 O278 1.226 . S
O272 Cd268 2.273 . S
O272 Cd270 2.411 . S
O272 C275 1.320 . S
O273 Cd270 2.333 . S
O273 C275 1.214 . S
O274 Cd270 2.352 1_565 S
O274 C277 1.258 . S
C275 O272 1.320 . S
C275 O273 1.214 . S
O276 Cd268 2.277 . S
O276 C271 1.209 . S
C277 O274 1.258 . S
C277 O279 1.282 1_565 S
O278 Cd270 2.277 . S
O278 C271 1.226 . S
O279 Cd270 2.356 . S
O279 C277 1.282 1_545 S
C280 O281 1.306 . S
C280 O283 1.160 . S
O281 C280 1.306 . S
O281 Cd282 2.228 . S
Cd282 O281 2.228 . S
Cd282 O286 2.273 . S
Cd282 O290 2.277 . S
O283 C280 1.160 . S
O283 Cd284 2.203 . S
Cd284 O283 2.203 . S
Cd284 O286 2.411 . S
Cd284 O287 2.333 . S
Cd284 O288 2.352 1_554 S
Cd284 O292 2.277 . S
Cd284 O293 2.390 . S
C285 O290 1.209 . S
C285 O292 1.226 . S
O286 Cd282 2.273 . S
O286 Cd284 2.411 . S
O286 C289 1.320 . S
O287 Cd284 2.333 . S
O287 C289 1.214 . S
O288 Cd284 2.352 1_556 S
O288 C291 1.258 . S
C289 O286 1.320 . S
C289 O287 1.214 . S
O290 Cd282 2.277 . S
O290 C285 1.209 . S
C291 O288 1.258 . S
C291 O293 1.248 1_556 S
O292 Cd284 2.277 . S
O292 C285 1.226 . S
O293 Cd284 2.390 . S
O293 C291 1.248 1_554 S
C294 O295 1.306 . S
C294 O297 1.160 . S
O295 C294 1.306 . S
O295 Cd296 2.228 . S
Cd296 O295 2.228 . S
Cd296 O300 2.273 . S
Cd296 O304 2.277 . S
O297 C294 1.160 . S
O297 Cd298 2.203 . S
Cd298 O297 2.203 . S
Cd298 O300 2.411 . S
Cd298 O301 2.333 . S
Cd298 O302 2.352 . S
Cd298 O306 2.277 . S
Cd298 O307 2.356 . S
C299 O304 1.209 . S
C299 O306 1.226 . S
O300 Cd296 2.273 . S
O300 Cd298 2.411 . S
O300 C303 1.320 . S
O301 Cd298 2.333 . S
O301 C303 1.214 . S
O302 Cd298 2.352 . S
O302 C305 1.258 . S
C303 O300 1.320 . S
C303 O301 1.214 . S
O304 Cd296 2.277 . S
O304 C299 1.209 . S
C305 O302 1.258 . S
C305 O307 1.282 . S
O306 Cd298 2.277 . S
O306 C299 1.226 . S
O307 Cd298 2.356 . S
O307 C305 1.282 . S
C308 O309 1.306 . S
C308 O311 1.160 . S
O309 C308 1.306 . S
O309 Cd310 2.228 . S
Cd310 O309 2.228 . S
Cd310 O314 2.273 . S
Cd310 O318 2.277 . S
O311 C308 1.160 . S
O311 Cd312 2.203 . S
Cd312 O311 2.203 . S
Cd312 O314 2.411 . S
Cd312 O315 2.333 . S
Cd312 O316 2.352 . S
Cd312 O320 2.277 . S
Cd312 O321 2.356 . S
C313 O318 1.209 . S
C313 O320 1.226 . S
O314 Cd310 2.273 . S
O314 Cd312 2.411 . S
O314 C317 1.320 . S
O315 Cd312 2.333 . S
O315 C317 1.214 . S
O316 Cd312 2.352 . S
O316 C319 1.258 . S
C317 O314 1.320 . S
C317 O315 1.214 . S
O318 Cd310 2.277 . S
O318 C313 1.209 . S
C319 O316 1.258 . S
C319 O321 1.282 . S
O320 Cd312 2.277 . S
O320 C313 1.226 . S
O321 Cd312 2.356 . S
O321 C319 1.282 . S
C322 O323 1.306 . S
C322 O325 1.160 . S
O323 C322 1.306 . S
O323 Cd324 2.228 . S
Cd324 O323 2.228 . S
Cd324 O328 2.273 . S
Cd324 O332 2.277 . S
O325 C322 1.160 . S
O325 Cd326 2.203 . S
Cd326 O325 2.203 . S
Cd326 O328 2.411 . S
Cd326 O329 2.333 . S
Cd326 O330 2.352 . S
Cd326 O334 2.277 . S
Cd326 O335 2.356 . S
C327 O332 1.209 . S
C327 O334 1.226 . S
O328 Cd324 2.273 . S
O328 Cd326 2.411 . S
O328 C331 1.320 . S
O329 Cd326 2.333 . S
O329 C331 1.214 . S
O330 Cd326 2.352 . S
O330 C333 1.258 . S
C331 O328 1.320 . S
C331 O329 1.214 . S
O332 Cd324 2.277 . S
O332 C327 1.209 . S
C333 O330 1.258 . S
C333 O335 1.282 . S
O334 Cd326 2.277 . S
O334 C327 1.226 . S
O335 Cd326 2.356 . S
O335 C333 1.282 . S
Tb336 C345 2.764 . S
Tb336 O346 2.325 . S
Tb336 O349 2.303 . S
Tb336 O353 2.322 . S
Tb336 O354 2.349 . S
Tb336 O357 2.415 . S
Tb336 O358 2.399 . S
Tb337 O347 2.322 1_545 S
Tb337 O348 2.349 1_554 S
Tb337 O350 2.415 1_455 S
Tb337 O351 2.399 1_454 S
Tb337 O352 2.325 . S
Tb337 O355 2.303 . S
Tb337 C366 2.764 1_455 S
C338 O354 1.261 . S
C338 O355 1.257 . S
C339 C342 1.358 . S
C339 C343 1.332 . S
C339 C345 1.504 . S
C340 C341 1.373 . S
C340 C344 1.308 . S
C341 C340 1.373 . S
C341 C342 1.429 . S
C341 H368 0.932 . S
C342 C339 1.358 . S
C342 C341 1.429 . S
C342 H369 0.930 . S
C343 C339 1.332 . S
C343 C344 1.394 . S
C343 H370 0.932 . S
C344 C340 1.308 . S
C344 C343 1.394 . S
C344 H371 0.929 1_545 S
C345 Tb336 2.764 . S
C345 C339 1.504 . S
C345 O357 1.239 . S
C345 O358 1.263 . S
O346 Tb336 2.325 . S
O346 C356 1.236 1_545 S
O347 Tb337 2.322 1_565 S
O347 C356 1.257 . S
O348 Tb337 2.349 1_556 S
O348 C359 1.261 . S
O349 Tb336 2.303 . S
O349 C359 1.257 1_554 S
O350 Tb337 2.415 1_655 S
O350 C366 1.239 . S
O351 Tb337 2.399 1_656 S
O351 C366 1.263 1_556 S
O352 Tb337 2.325 . S
O352 C367 1.236 . S
O353 Tb336 2.322 . S
O353 C367 1.257 . S
O354 Tb336 2.349 . S
O354 C338 1.261 . S
O355 Tb337 2.303 . S
O355 C338 1.257 . S
C356 O346 1.236 1_565 S
C356 O347 1.257 . S
O357 Tb336 2.415 . S
O357 C345 1.239 . S
O358 Tb336 2.399 . S
O358 C345 1.263 . S
C359 O348 1.261 . S
C359 O349 1.257 1_556 S
C360 C363 1.358 1_554 S
C360 C364 1.332 . S
C360 C366 1.504 . S
C361 C362 1.412 . S
C361 C365 1.265 1_556 S
C362 C361 1.412 . S
C362 C363 1.429 . S
C362 H372 0.932 . S
C363 C360 1.358 1_556 S
C363 C362 1.429 . S
C363 H373 0.930 . S
C364 C360 1.332 . S
C364 C365 1.394 . S
C364 H374 0.932 . S
C365 C361 1.265 1_554 S
C365 C364 1.394 . S
C365 H375 0.929 . S
C366 Tb337 2.764 1_655 S
C366 O350 1.239 . S
C366 O351 1.263 1_554 S
C366 C360 1.504 . S
C367 O352 1.236 . S
C367 O353 1.257 . S
H368 C341 0.932 . S
H369 C342 0.930 . S
H370 C343 0.932 . S
H371 C344 0.929 1_565 S
H372 C362 0.932 . S
H373 C363 0.930 . S
H374 C364 0.932 . S
H375 C365 0.929 . S
Tb376 C385 2.764 . S
Tb376 O386 2.325 . S
Tb376 O389 2.303 . S
Tb376 O393 2.322 . S
Tb376 O394 2.349 . S
Tb376 O397 2.415 . S
Tb376 O398 2.399 . S
Tb377 O387 2.322 . S
Tb377 O388 2.349 . S
Tb377 O390 2.415 . S
Tb377 O391 2.399 . S
Tb377 O392 2.325 . S
Tb377 O395 2.303 . S
Tb377 C406 2.764 . S
C378 O394 1.261 . S
C378 O395 1.257 . S
C379 C382 1.358 . S
C379 C383 1.332 . S
C379 C385 1.504 . S
C380 C381 1.373 . S
C380 C384 1.308 . S
C381 C380 1.373 . S
C381 C382 1.429 . S
C381 H408 0.932 . S
C382 C379 1.358 . S
C382 C381 1.429 . S
C382 H409 0.930 . S
C383 C379 1.332 . S
C383 C384 1.394 . S
C383 H410 0.932 . S
C384 C380 1.308 . S
C384 C383 1.394 . S
C384 H411 0.929 . S
C385 Tb376 2.764 . S
C385 C379 1.504 . S
C385 O397 1.239 . S
C385 O398 1.263 . S
O386 Tb376 2.325 . S
O386 C396 1.236 . S
O387 Tb377 2.322 . S
O387 C396 1.257 . S
O388 Tb377 2.349 . S
O388 C399 1.261 . S
O389 Tb376 2.303 . S
O389 C399 1.257 . S
O390 Tb377 2.415 . S
O390 C406 1.239 . S
O391 Tb377 2.399 . S
O391 C406 1.263 . S
O392 Tb377 2.325 . S
O392 C407 1.236 . S
O393 Tb376 2.322 . S
O393 C407 1.257 . S
O394 Tb376 2.349 . S
O394 C378 1.261 . S
O395 Tb377 2.303 . S
O395 C378 1.257 . S
C396 O386 1.236 . S
C396 O387 1.257 . S
O397 Tb376 2.415 . S
O397 C385 1.239 . S
O398 Tb376 2.399 . S
O398 C385 1.263 . S
C399 O388 1.261 . S
C399 O389 1.257 . S
C400 C403 1.358 . S
C400 C404 1.332 . S
C400 C406 1.504 . S
C401 C402 1.373 . S
C401 C405 1.308 . S
C402 C401 1.373 . S
C402 C403 1.429 . S
C402 H412 0.932 . S
C403 C400 1.358 . S
C403 C402 1.429 . S
C403 H413 0.930 . S
C404 C400 1.332 . S
C404 C405 1.394 . S
C404 H414 0.932 . S
C405 C401 1.308 . S
C405 C404 1.394 . S
C405 H415 0.929 . S
C406 Tb377 2.764 . S
C406 O390 1.239 . S
C406 O391 1.263 . S
C406 C400 1.504 . S
C407 O392 1.236 . S
C407 O393 1.257 . S
H408 C381 0.932 . S
H409 C382 0.930 . S
H410 C383 0.932 . S
H411 C384 0.929 . S
H412 C402 0.932 . S
H413 C403 0.930 . S
H414 C404 0.932 . S
H415 C405 0.929 . S
Tb416 C425 2.764 . S
Tb416 O426 2.325 . S
Tb416 O429 2.303 . S
Tb416 O433 2.322 1_545 S
Tb416 O434 2.349 . S
Tb416 O437 2.415 . S
Tb416 O438 2.399 . S
Tb417 O427 2.322 . S
Tb417 O428 2.349 . S
Tb417 O430 2.415 . S
Tb417 O431 2.399 . S
Tb417 O432 2.325 1_545 S
Tb417 O435 2.303 . S
Tb417 C446 2.764 . S
C418 O434 1.261 . S
C418 O435 1.257 . S
C419 C422 1.358 . S
C419 C423 1.332 . S
C419 C425 1.504 . S
C420 C421 1.373 . S
C420 C424 1.308 . S
C421 C420 1.373 . S
C421 C422 1.429 . S
C421 H448 0.932 . S
C422 C419 1.358 . S
C422 C421 1.429 . S
C422 H449 0.930 . S
C423 C419 1.332 . S
C423 C424 1.394 . S
C423 H450 0.932 . S
C424 C420 1.308 . S
C424 C423 1.394 . S
C424 H451 0.929 . S
C425 Tb416 2.764 . S
C425 C419 1.504 . S
C425 O437 1.239 . S
C425 O438 1.263 . S
O426 Tb416 2.325 . S
O426 C436 1.236 . S
O427 Tb417 2.322 . S
O427 C436 1.257 . S
O428 Tb417 2.349 . S
O428 C439 1.261 . S
O429 Tb416 2.303 . S
O429 C439 1.257 . S
O430 Tb417 2.415 . S
O430 C446 1.239 . S
O431 Tb417 2.399 . S
O431 C446 1.263 . S
O432 Tb417 2.325 1_565 S
O432 C447 1.236 . S
O433 Tb416 2.322 1_565 S
O433 C447 1.257 . S
O434 Tb416 2.349 . S
O434 C418 1.261 . S
O435 Tb417 2.303 . S
O435 C418 1.257 . S
C436 O426 1.236 . S
C436 O427 1.257 . S
O437 Tb416 2.415 . S
O437 C425 1.239 . S
O438 Tb416 2.399 . S
O438 C425 1.263 . S
C439 O428 1.261 . S
C439 O429 1.257 . S
C440 C443 1.358 . S
C440 C444 1.332 . S
C440 C446 1.504 1_565 S
C441 C442 1.373 . S
C441 C445 1.308 . S
C442 C441 1.373 . S
C442 C443 1.429 . S
C442 H452 0.932 . S
C443 C440 1.358 . S
C443 C442 1.429 . S
C443 H453 0.930 1_565 S
C444 C440 1.332 . S
C444 C445 1.394 . S
C444 H454 0.932 . S
C445 C441 1.308 . S
C445 C444 1.394 . S
C445 H455 0.929 . S
C446 Tb417 2.764 . S
C446 O430 1.239 . S
C446 O431 1.263 . S
C446 C440 1.504 1_545 S
C447 O432 1.236 . S
C447 O433 1.257 . S
H448 C421 0.932 . S
H449 C422 0.930 . S
H450 C423 0.932 . S
H451 C424 0.929 . S
H452 C442 0.932 . S
H453 C443 0.930 1_545 S
H454 C444 0.932 . S
H455 C445 0.929 . S
Tb456 C465 2.764 . S
Tb456 O466 2.325 . S
Tb456 O469 2.303 . S
Tb456 O473 2.322 . S
Tb456 O474 2.349 . S
Tb456 O477 2.415 . S
Tb456 O478 2.399 . S
Tb457 O467 2.322 . S
Tb457 O468 2.349 . S
Tb457 O470 2.415 . S
Tb457 O471 2.399 . S
Tb457 O472 2.325 . S
Tb457 O475 2.303 . S
Tb457 C486 2.764 . S
C458 O474 1.261 . S
C458 O475 1.257 . S
C459 C462 1.358 . S
C459 C463 1.332 . S
C459 C465 1.504 . S
C460 C461 1.373 . S
C460 C464 1.308 . S
C461 C460 1.373 . S
C461 C462 1.429 . S
C461 H488 0.932 . S
C462 C459 1.358 . S
C462 C461 1.429 . S
C462 H489 0.930 . S
C463 C459 1.332 . S
C463 C464 1.394 . S
C463 H490 0.932 . S
C464 C460 1.308 . S
C464 C463 1.394 . S
C464 H491 0.929 . S
C465 Tb456 2.764 . S
C465 C459 1.504 . S
C465 O477 1.239 . S
C465 O478 1.263 . S
O466 Tb456 2.325 . S
O466 C476 1.236 . S
O467 Tb457 2.322 . S
O467 C476 1.257 . S
O468 Tb457 2.349 . S
O468 C479 1.261 . S
O469 Tb456 2.303 . S
O469 C479 1.257 . S
O470 Tb457 2.415 . S
O470 C486 1.239 . S
O471 Tb457 2.399 . S
O471 C486 1.263 . S
O472 Tb457 2.325 . S
O472 C487 1.236 . S
O473 Tb456 2.322 . S
O473 C487 1.257 . S
O474 Tb456 2.349 . S
O474 C458 1.261 . S
O475 Tb457 2.303 . S
O475 C458 1.257 . S
C476 O466 1.236 . S
C476 O467 1.257 . S
O477 Tb456 2.415 . S
O477 C465 1.239 . S
O478 Tb456 2.399 . S
O478 C465 1.263 . S
C479 O468 1.261 . S
C479 O469 1.257 . S
C480 C483 1.358 . S
C480 C484 1.332 . S
C480 C486 1.504 . S
C481 C482 1.373 . S
C481 C485 1.308 . S
C482 C481 1.373 . S
C482 C483 1.429 . S
C482 H492 0.932 . S
C483 C480 1.358 . S
C483 C482 1.429 . S
C483 H493 0.930 . S
C484 C480 1.332 . S
C484 C485 1.394 . S
C484 H494 0.932 . S
C485 C481 1.308 . S
C485 C484 1.394 . S
C485 H495 0.929 . S
C486 Tb457 2.764 . S
C486 O470 1.239 . S
C486 O471 1.263 . S
C486 C480 1.504 . S
C487 O472 1.236 . S
C487 O473 1.257 . S
H488 C461 0.932 . S
H489 C462 0.930 . S
H490 C463 0.932 . S
H491 C464 0.929 . S
H492 C482 0.932 . S
H493 C483 0.930 . S
H494 C484 0.932 . S
H495 C485 0.929 . S
Tb496 C505 2.764 . S
Tb496 O506 2.325 . S
Tb496 O509 2.303 . S
Tb496 O513 2.322 . S
Tb496 O514 2.349 . S
Tb496 O517 2.415 . S
Tb496 O518 2.399 . S
Tb497 O507 2.322 1_545 S
Tb497 O508 2.349 . S
Tb497 O510 2.415 . S
Tb497 O511 2.399 . S
Tb497 O512 2.325 . S
Tb497 O515 2.303 . S
Tb497 C526 2.764 . S
C498 O514 1.261 . S
C498 O515 1.257 . S
C499 C502 1.358 . S
C499 C503 1.332 . S
C499 C505 1.504 . S
C500 C501 1.373 . S
C500 C504 1.308 . S
C501 C500 1.373 . S
C501 C502 1.429 . S
C501 H528 0.932 . S
C502 C499 1.358 . S
C502 C501 1.429 . S
C502 H529 0.930 . S
C503 C499 1.332 . S
C503 C504 1.394 . S
C503 H530 0.932 . S
C504 C500 1.308 . S
C504 C503 1.394 . S
C504 H531 0.929 . S
C505 Tb496 2.764 . S
C505 C499 1.504 . S
C505 O517 1.239 . S
C505 O518 1.263 . S
O506 Tb496 2.325 . S
O506 C516 1.236 1_545 S
O507 Tb497 2.322 1_565 S
O507 C516 1.257 . S
O508 Tb497 2.349 . S
O508 C519 1.261 . S
O509 Tb496 2.303 . S
O509 C519 1.257 . S
O510 Tb497 2.415 . S
O510 C526 1.239 . S
O511 Tb497 2.399 . S
O511 C526 1.263 . S
O512 Tb497 2.325 . S
O512 C527 1.236 . S
O513 Tb496 2.322 . S
O513 C527 1.257 . S
O514 Tb496 2.349 . S
O514 C498 1.261 . S
O515 Tb497 2.303 . S
O515 C498 1.257 . S
C516 O506 1.236 1_565 S
C516 O507 1.257 . S
O517 Tb496 2.415 . S
O517 C505 1.239 . S
O518 Tb496 2.399 . S
O518 C505 1.263 . S
C519 O508 1.261 . S
C519 O509 1.257 . S
C520 C523 1.358 . S
C520 C524 1.332 . S
C520 C526 1.504 . S
C521 C522 1.373 . S
C521 C525 1.308 1_455 S
C522 C521 1.373 . S
C522 C523 1.429 . S
C522 H532 0.932 . S
C523 C520 1.358 . S
C523 C522 1.429 . S
C523 H533 0.930 . S
C524 C520 1.332 . S
C524 C525 1.394 1_455 S
C524 H534 0.932 1_455 S
C525 C521 1.308 1_655 S
C525 C524 1.394 1_655 S
C525 H535 0.929 . S
C526 Tb497 2.764 . S
C526 O510 1.239 . S
C526 O511 1.263 . S
C526 C520 1.504 . S
C527 O512 1.236 . S
C527 O513 1.257 . S
H528 C501 0.932 . S
H529 C502 0.930 . S
H530 C503 0.932 . S
H531 C504 0.929 . S
H532 C522 0.932 . S
H533 C523 0.930 . S
H534 C524 0.932 1_655 S
H535 C525 0.929 . S
Tb536 C545 2.764 . S
Tb536 O546 2.325 . S
Tb536 O549 2.303 . S
Tb536 O553 2.322 . S
Tb536 O554 2.349 . S
Tb536 O557 2.415 . S
Tb536 O558 2.399 . S
Tb537 O547 2.322 . S
Tb537 O548 2.349 . S
Tb537 O550 2.415 . S
Tb537 O551 2.399 . S
Tb537 O552 2.325 . S
Tb537 O555 2.303 . S
Tb537 C566 2.764 . S
C538 O554 1.261 . S
C538 O555 1.257 . S
C539 C542 1.358 . S
C539 C543 1.332 . S
C539 C545 1.504 . S
C540 C541 1.373 . S
C540 C544 1.308 . S
C541 C540 1.373 . S
C541 C542 1.429 . S
C541 H568 0.932 . S
C542 C539 1.358 . S
C542 C541 1.429 . S
C542 H569 0.930 . S
C543 C539 1.332 . S
C543 C544 1.394 . S
C543 H570 0.932 . S
C544 C540 1.308 . S
C544 C543 1.394 . S
C544 H571 0.929 . S
C545 Tb536 2.764 . S
C545 C539 1.504 . S
C545 O557 1.239 . S
C545 O558 1.263 . S
O546 Tb536 2.325 . S
O546 C556 1.236 . S
O547 Tb537 2.322 . S
O547 C556 1.257 . S
O548 Tb537 2.349 . S
O548 C559 1.261 . S
O549 Tb536 2.303 . S
O549 C559 1.257 . S
O550 Tb537 2.415 . S
O550 C566 1.239 . S
O551 Tb537 2.399 . S
O551 C566 1.263 . S
O552 Tb537 2.325 . S
O552 C567 1.236 . S
O553 Tb536 2.322 . S
O553 C567 1.257 . S
O554 Tb536 2.349 . S
O554 C538 1.261 . S
O555 Tb537 2.303 . S
O555 C538 1.257 . S
C556 O546 1.236 . S
C556 O547 1.257 . S
O557 Tb536 2.415 . S
O557 C545 1.239 . S
O558 Tb536 2.399 . S
O558 C545 1.263 . S
C559 O548 1.261 . S
C559 O549 1.257 . S
C560 C563 1.358 . S
C560 C564 1.332 . S
C560 C566 1.504 . S
C561 C562 1.373 . S
C561 C565 1.308 . S
C562 C561 1.373 . S
C562 C563 1.429 . S
C562 H572 0.932 . S
C563 C560 1.358 . S
C563 C562 1.429 . S
C563 H573 0.930 . S
C564 C560 1.332 . S
C564 C565 1.394 . S
C564 H574 0.932 . S
C565 C561 1.308 . S
C565 C564 1.394 . S
C565 H575 0.929 . S
C566 Tb537 2.764 . S
C566 O550 1.239 . S
C566 O551 1.263 . S
C566 C560 1.504 . S
C567 O552 1.236 . S
C567 O553 1.257 . S
H568 C541 0.932 . S
H569 C542 0.930 . S
H570 C543 0.932 . S
H571 C544 0.929 . S
H572 C562 0.932 . S
H573 C563 0.930 . S
H574 C564 0.932 . S
H575 C565 0.929 . S
Tb576 C585 2.764 . S
Tb576 O586 2.325 . S
Tb576 O589 2.303 . S
Tb576 O593 2.322 1_545 S
Tb576 O594 2.349 . S
Tb576 O597 2.415 . S
Tb576 O598 2.399 . S
Tb577 O587 2.322 1_556 S
Tb577 O588 2.349 . S
Tb577 O590 2.415 . S
Tb577 O591 2.399 . S
Tb577 O592 2.325 . S
Tb577 O595 2.303 1_556 S
Tb577 C606 2.764 . S
C578 O594 1.261 . S
C578 O595 1.257 . S
C579 C582 1.358 . S
C579 C583 1.332 . S
C579 C585 1.504 . S
C580 C581 1.373 . S
C580 C584 1.308 . S
C581 C580 1.373 . S
C581 C582 1.429 . S
C581 H608 0.932 . S
C582 C579 1.358 . S
C582 C581 1.429 . S
C582 H609 0.930 . S
C583 C579 1.332 . S
C583 C584 1.394 . S
C583 H610 0.932 . S
C584 C580 1.308 . S
C584 C583 1.394 . S
C584 H611 0.929 . S
C585 Tb576 2.764 . S
C585 C579 1.504 . S
C585 O597 1.239 . S
C585 O598 1.263 . S
O586 Tb576 2.325 . S
O586 C596 1.236 . S
O587 Tb577 2.322 1_554 S
O587 C596 1.257 . S
O588 Tb577 2.349 . S
O588 C599 1.261 1_556 S
O589 Tb576 2.303 . S
O589 C599 1.257 . S
O590 Tb577 2.415 . S
O590 C606 1.239 . S
O591 Tb577 2.399 . S
O591 C606 1.263 . S
O592 Tb577 2.325 . S
O592 C607 1.236 1_546 S
O593 Tb576 2.322 1_565 S
O593 C607 1.257 . S
O594 Tb576 2.349 . S
O594 C578 1.261 . S
O595 Tb577 2.303 1_554 S
O595 C578 1.257 . S
C596 O586 1.236 . S
C596 O587 1.257 . S
O597 Tb576 2.415 . S
O597 C585 1.239 . S
O598 Tb576 2.399 . S
O598 C585 1.263 . S
C599 O588 1.261 1_554 S
C599 O589 1.257 . S
C600 C603 1.358 . S
C600 C604 1.332 . S
C600 C606 1.504 . S
C601 C602 1.373 . S
C601 C605 1.308 . S
C602 C601 1.373 . S
C602 C603 1.429 . S
C602 H612 0.932 . S
C603 C600 1.358 . S
C603 C602 1.429 . S
C603 H613 0.930 . S
C604 C600 1.332 . S
C604 C605 1.394 . S
C604 H614 0.932 . S
C605 C601 1.308 . S
C605 C604 1.394 . S
C605 H615 0.929 . S
C606 Tb577 2.764 . S
C606 O590 1.239 . S
C606 O591 1.263 . S
C606 C600 1.504 . S
C607 O592 1.236 1_564 S
C607 O593 1.257 . S
H608 C581 0.932 . S
H609 C582 0.930 . S
H610 C583 0.932 . S
H611 C584 0.929 . S
H612 C602 0.932 . S
H613 C603 0.930 . S
H614 C604 0.932 . S
H615 C605 0.929 . S
Tb616 C625 2.764 . S
Tb616 O626 2.325 . S
Tb616 O629 2.303 . S
Tb616 O633 2.322 . S
Tb616 O634 2.349 . S
Tb616 O637 2.415 . S
Tb616 O638 2.399 . S
Tb617 O627 2.322 . S
Tb617 O628 2.349 . S
Tb617 O630 2.415 . S
Tb617 O631 2.399 . S
Tb617 O632 2.325 . S
Tb617 O635 2.303 . S
Tb617 C646 2.764 . S
C618 O634 1.261 . S
C618 O635 1.257 . S
C619 C622 1.358 . S
C619 C623 1.332 . S
C619 C625 1.504 . S
C620 C621 1.373 . S
C620 C624 1.308 . S
C621 C620 1.373 . S
C621 C622 1.429 . S
C621 H648 0.932 . S
C622 C619 1.358 . S
C622 C621 1.429 . S
C622 H649 0.930 . S
C623 C619 1.332 . S
C623 C624 1.394 . S
C623 H650 0.932 . S
C624 C620 1.308 . S
C624 C623 1.394 . S
C624 H651 0.929 . S
C625 Tb616 2.764 . S
C625 C619 1.504 . S
C625 O637 1.239 . S
C625 O638 1.263 . S
O626 Tb616 2.325 . S
O626 C636 1.236 . S
O627 Tb617 2.322 . S
O627 C636 1.257 . S
O628 Tb617 2.349 . S
O628 C639 1.261 . S
O629 Tb616 2.303 . S
O629 C639 1.257 . S
O630 Tb617 2.415 . S
O630 C646 1.239 . S
O631 Tb617 2.399 . S
O631 C646 1.263 . S
O632 Tb617 2.325 . S
O632 C647 1.236 . S
O633 Tb616 2.322 . S
O633 C647 1.257 . S
O634 Tb616 2.349 . S
O634 C618 1.261 . S
O635 Tb617 2.303 . S
O635 C618 1.257 . S
C636 O626 1.236 . S
C636 O627 1.257 . S
O637 Tb616 2.415 . S
O637 C625 1.239 . S
O638 Tb616 2.399 . S
O638 C625 1.263 . S
C639 O628 1.261 . S
C639 O629 1.257 . S
C640 C643 1.358 . S
C640 C644 1.332 . S
C640 C646 1.504 . S
C641 C642 1.373 . S
C641 C645 1.308 . S
C642 C641 1.373 . S
C642 C643 1.429 . S
C642 H652 0.932 . S
C643 C640 1.358 . S
C643 C642 1.429 . S
C643 H653 0.930 . S
C644 C640 1.332 . S
C644 C645 1.394 . S
C644 H654 0.932 . S
C645 C641 1.308 . S
C645 C644 1.394 . S
C645 H655 0.929 . S
C646 Tb617 2.764 . S
C646 O630 1.239 . S
C646 O631 1.263 . S
C646 C640 1.504 . S
C647 O632 1.236 . S
C647 O633 1.257 . S
H648 C621 0.932 . S
H649 C622 0.930 . S
H650 C623 0.932 . S
H651 C624 0.929 . S
H652 C642 0.932 . S
H653 C643 0.930 . S
H654 C644 0.932 . S
H655 C645 0.929 . S
Tb656 C665 2.764 . S
Tb656 O666 2.325 . S
Tb656 O669 2.303 . S
Tb656 O673 2.322 . S
Tb656 O674 2.349 . S
Tb656 O677 2.415 . S
Tb656 O678 2.399 . S
Tb657 O667 2.322 1_556 S
Tb657 O668 2.349 1_556 S
Tb657 O670 2.415 . S
Tb657 O671 2.399 . S
Tb657 O672 2.325 . S
Tb657 O675 2.303 1_556 S
Tb657 C686 2.764 . S
C658 O674 1.261 . S
C658 O675 1.257 . S
C659 C662 1.358 . S
C659 C663 1.332 . S
C659 C665 1.504 . S
C660 C661 1.373 . S
C660 C664 1.308 . S
C661 C660 1.373 . S
C661 C662 1.429 . S
C661 H688 0.932 . S
C662 C659 1.358 . S
C662 C661 1.429 . S
C662 H689 0.930 . S
C663 C659 1.332 . S
C663 C664 1.394 . S
C663 H690 0.932 . S
C664 C660 1.308 . S
C664 C663 1.394 . S
C664 H691 0.929 . S
C665 Tb656 2.764 . S
C665 C659 1.504 . S
C665 O677 1.239 . S
C665 O678 1.263 . S
O666 Tb656 2.325 . S
O666 C676 1.236 . S
O667 Tb657 2.322 1_554 S
O667 C676 1.257 . S
O668 Tb657 2.349 1_554 S
O668 C679 1.261 . S
O669 Tb656 2.303 . S
O669 C679 1.257 . S
O670 Tb657 2.415 . S
O670 C686 1.239 . S
O671 Tb657 2.399 . S
O671 C686 1.263 . S
O672 Tb657 2.325 . S
O672 C687 1.236 1_556 S
O673 Tb656 2.322 . S
O673 C687 1.257 . S
O674 Tb656 2.349 . S
O674 C658 1.261 . S
O675 Tb657 2.303 1_554 S
O675 C658 1.257 . S
C676 O666 1.236 . S
C676 O667 1.257 . S
O677 Tb656 2.415 . S
O677 C665 1.239 . S
O678 Tb656 2.399 . S
O678 C665 1.263 . S
C679 O668 1.261 . S
C679 O669 1.257 . S
C680 C683 1.358 . S
C680 C684 1.332 . S
C680 C686 1.504 . S
C681 C682 1.373 . S
C681 C685 1.308 . S
C682 C681 1.373 . S
C682 C683 1.429 . S
C682 H692 0.932 . S
C683 C680 1.358 . S
C683 C682 1.429 . S
C683 H693 0.930 . S
C684 C680 1.332 . S
C684 C685 1.394 . S
C684 H694 0.932 . S
C685 C681 1.308 . S
C685 C684 1.394 . S
C685 H695 0.929 . S
C686 Tb657 2.764 . S
C686 O670 1.239 . S
C686 O671 1.263 . S
C686 C680 1.504 . S
C687 O672 1.236 1_554 S
C687 O673 1.257 . S
H688 C661 0.932 . S
H689 C662 0.930 . S
H690 C663 0.932 . S
H691 C664 0.929 . S
H692 C682 0.932 . S
H693 C683 0.930 . S
H694 C684 0.932 . S
H695 C685 0.929 . S
Tb696 C705 2.764 . S
Tb696 O706 2.325 . S
Tb696 O709 2.303 . S
Tb696 O713 2.322 . S
Tb696 O714 2.349 . S
Tb696 O717 2.415 . S
Tb696 O718 2.399 . S
Tb697 O707 2.322 . S
Tb697 O708 2.349 . S
Tb697 O710 2.415 . S
Tb697 O711 2.399 . S
Tb697 O712 2.325 . S
Tb697 O715 2.303 . S
Tb697 C726 2.764 . S
C698 O714 1.261 . S
C698 O715 1.257 . S
C699 C702 1.358 . S
C699 C703 1.332 . S
C699 C705 1.504 . S
C700 C701 1.373 . S
C700 C704 1.308 . S
C701 C700 1.373 . S
C701 C702 1.429 . S
C701 H728 0.932 . S
C702 C699 1.358 . S
C702 C701 1.429 . S
C702 H729 0.930 . S
C703 C699 1.332 . S
C703 C704 1.394 . S
C703 H730 0.932 . S
C704 C700 1.308 . S
C704 C703 1.394 . S
C704 H731 0.929 . S
C705 Tb696 2.764 . S
C705 C699 1.504 . S
C705 O717 1.239 . S
C705 O718 1.263 . S
O706 Tb696 2.325 . S
O706 C716 1.236 . S
O707 Tb697 2.322 . S
O707 C716 1.257 . S
O708 Tb697 2.349 . S
O708 C719 1.261 . S
O709 Tb696 2.303 . S
O709 C719 1.257 . S
O710 Tb697 2.415 . S
O710 C726 1.239 . S
O711 Tb697 2.399 . S
O711 C726 1.263 . S
O712 Tb697 2.325 . S
O712 C727 1.236 . S
O713 Tb696 2.322 . S
O713 C727 1.257 . S
O714 Tb696 2.349 . S
O714 C698 1.261 . S
O715 Tb697 2.303 . S
O715 C698 1.257 . S
C716 O706 1.236 . S
C716 O707 1.257 . S
O717 Tb696 2.415 . S
O717 C705 1.239 . S
O718 Tb696 2.399 . S
O718 C705 1.263 . S
C719 O708 1.261 . S
C719 O709 1.257 . S
C720 C723 1.358 . S
C720 C724 1.332 . S
C720 C726 1.504 . S
C721 C722 1.373 . S
C721 C725 1.308 . S
C722 C721 1.373 . S
C722 C723 1.429 . S
C722 H732 0.932 . S
C723 C720 1.358 . S
C723 C722 1.429 . S
C723 H733 0.930 . S
C724 C720 1.332 . S
C724 C725 1.394 . S
C724 H734 0.932 . S
C725 C721 1.308 . S
C725 C724 1.394 . S
C725 H735 0.929 . S
C726 Tb697 2.764 . S
C726 O710 1.239 . S
C726 O711 1.263 . S
C726 C720 1.504 . S
C727 O712 1.236 . S
C727 O713 1.257 . S
H728 C701 0.932 . S
H729 C702 0.930 . S
H730 C703 0.932 . S
H731 C704 0.929 . S
H732 C722 0.932 . S
H733 C723 0.930 . S
H734 C724 0.932 . S
H735 C725 0.929 . S
Tb736 C745 2.764 . S
Tb736 O746 2.325 . S
Tb736 O749 2.303 . S
Tb736 O753 2.322 . S
Tb736 O754 2.349 . S
Tb736 O757 2.415 . S
Tb736 O758 2.399 . S
Tb737 O747 2.322 . S
Tb737 O748 2.349 . S
Tb737 O750 2.415 . S
Tb737 O751 2.399 . S
Tb737 O752 2.325 . S
Tb737 O755 2.303 . S
Tb737 C766 2.764 . S
C738 O754 1.261 . S
C738 O755 1.257 . S
C739 C742 1.358 . S
C739 C743 1.332 . S
C739 C745 1.504 . S
C740 C741 1.373 . S
C740 C744 1.308 1_455 S
C741 C740 1.373 . S
C741 C742 1.429 . S
C741 H768 0.932 . S
C742 C739 1.358 . S
C742 C741 1.429 . S
C742 H769 0.930 . S
C743 C739 1.332 . S
C743 C744 1.394 1_455 S
C743 H770 0.932 1_455 S
C744 C740 1.308 1_655 S
C744 C743 1.394 1_655 S
C744 H771 0.929 . S
C745 Tb736 2.764 . S
C745 C739 1.504 . S
C745 O757 1.239 . S
C745 O758 1.263 . S
O746 Tb736 2.325 . S
O746 C756 1.236 . S
O747 Tb737 2.322 . S
O747 C756 1.257 . S
O748 Tb737 2.349 . S
O748 C759 1.261 . S
O749 Tb736 2.303 . S
O749 C759 1.258 . S
O750 Tb737 2.415 . S
O750 C766 1.239 . S
O751 Tb737 2.399 . S
O751 C766 1.263 . S
O752 Tb737 2.325 . S
O752 C767 1.236 . S
O753 Tb736 2.322 . S
O753 C767 1.257 . S
O754 Tb736 2.349 . S
O754 C738 1.261 . S
O755 Tb737 2.303 . S
O755 C738 1.257 . S
C756 O746 1.236 . S
C756 O747 1.257 . S
O757 Tb736 2.415 . S
O757 C745 1.239 . S
O758 Tb736 2.399 . S
O758 C745 1.263 . S
C759 O748 1.261 . S
C759 O749 1.258 . S
C760 C763 1.358 . S
C760 C764 1.332 . S
C760 C766 1.504 . S
C761 C762 1.373 . S
C761 C765 1.308 . S
C762 C761 1.373 . S
C762 C763 1.429 . S
C762 H772 0.932 . S
C763 C760 1.358 . S
C763 C762 1.429 . S
C763 H773 0.930 . S
C764 C760 1.332 . S
C764 C765 1.394 . S
C764 H774 0.932 . S
C765 C761 1.308 . S
C765 C764 1.394 . S
C765 H775 0.929 . S
C766 Tb737 2.764 . S
C766 O750 1.239 . S
C766 O751 1.263 . S
C766 C760 1.504 . S
C767 O752 1.236 . S
C767 O753 1.257 . S
H768 C741 0.932 . S
H769 C742 0.930 . S
H770 C743 0.932 1_655 S
H771 C744 0.929 . S
H772 C762 0.932 . S
H773 C763 0.930 . S
H774 C764 0.932 . S
H775 C765 0.929 . S
Tb776 C785 2.764 . S
Tb776 O786 2.325 . S
Tb776 O789 2.303 . S
Tb776 O793 2.322 . S
Tb776 O794 2.349 . S
Tb776 O797 2.415 . S
Tb776 O798 2.399 . S
Tb777 O787 2.322 . S
Tb777 O788 2.349 . S
Tb777 O790 2.415 . S
Tb777 O791 2.399 . S
Tb777 O792 2.325 . S
Tb777 O795 2.303 . S
Tb777 C806 2.764 . S
C778 O794 1.261 . S
C778 O795 1.257 . S
C779 C782 1.358 . S
C779 C783 1.332 . S
C779 C785 1.504 . S
C780 C781 1.373 . S
C780 C784 1.308 . S
C781 C780 1.373 . S
C781 C782 1.429 . S
C781 H808 0.932 . S
C782 C779 1.358 . S
C782 C781 1.429 . S
C782 H809 0.930 . S
C783 C779 1.332 . S
C783 C784 1.394 . S
C783 H810 0.932 . S
C784 C780 1.308 . S
C784 C783 1.394 . S
C784 H811 0.929 . S
C785 Tb776 2.764 . S
C785 C779 1.504 . S
C785 O797 1.239 . S
C785 O798 1.263 . S
O786 Tb776 2.325 . S
O786 C796 1.236 . S
O787 Tb777 2.322 . S
O787 C796 1.257 . S
O788 Tb777 2.349 . S
O788 C799 1.261 . S
O789 Tb776 2.303 . S
O789 C799 1.257 . S
O790 Tb777 2.415 . S
O790 C806 1.239 . S
O791 Tb777 2.399 . S
O791 C806 1.263 . S
O792 Tb777 2.325 . S
O792 C807 1.236 . S
O793 Tb776 2.322 . S
O793 C807 1.257 . S
O794 Tb776 2.349 . S
O794 C778 1.261 . S
O795 Tb777 2.303 . S
O795 C778 1.257 . S
C796 O786 1.236 . S
C796 O787 1.257 . S
O797 Tb776 2.415 . S
O797 C785 1.239 . S
O798 Tb776 2.399 . S
O798 C785 1.263 . S
C799 O788 1.261 . S
C799 O789 1.257 . S
C800 C803 1.358 . S
C800 C804 1.332 . S
C800 C806 1.504 . S
C801 C802 1.373 . S
C801 C805 1.308 . S
C802 C801 1.373 . S
C802 C803 1.429 . S
C802 H812 0.932 . S
C803 C800 1.358 . S
C803 C802 1.429 . S
C803 H813 0.930 . S
C804 C800 1.332 . S
C804 C805 1.394 . S
C804 H814 0.932 . S
C805 C801 1.308 . S
C805 C804 1.394 . S
C805 H815 0.929 . S
C806 Tb777 2.764 . S
C806 O790 1.239 . S
C806 O791 1.263 . S
C806 C800 1.504 . S
C807 O792 1.236 . S
C807 O793 1.257 . S
H808 C781 0.932 . S
H809 C782 0.930 . S
H810 C783 0.932 . S
H811 C784 0.929 . S
H812 C802 0.932 . S
H813 C803 0.930 . S
H814 C804 0.932 . S
H815 C805 0.929 . S
Tb816 C825 2.764 . S
Tb816 O826 2.325 . S
Tb816 O829 2.303 . S
Tb816 O833 2.322 . S
Tb816 O834 2.349 . S
Tb816 O837 2.415 . S
Tb816 O838 2.399 . S
Tb817 O827 2.322 . S
Tb817 O828 2.349 . S
Tb817 O830 2.415 . S
Tb817 O831 2.399 . S
Tb817 O832 2.325 . S
Tb817 O835 2.303 . S
Tb817 C846 2.764 . S
C818 O834 1.261 . S
C818 O835 1.257 . S
C819 C822 1.358 . S
C819 C823 1.332 . S
C819 C825 1.504 . S
C820 C821 1.373 . S
C820 C824 1.308 . S
C821 C820 1.373 . S
C821 C822 1.429 . S
C821 H848 0.932 . S
C822 C819 1.358 . S
C822 C821 1.429 . S
C822 H849 0.930 . S
C823 C819 1.332 . S
C823 C824 1.394 . S
C823 H850 0.932 . S
C824 C820 1.308 . S
C824 C823 1.394 . S
C824 H851 0.929 . S
C825 Tb816 2.764 . S
C825 C819 1.504 . S
C825 O837 1.239 . S
C825 O838 1.263 . S
O826 Tb816 2.325 . S
O826 C836 1.236 . S
O827 Tb817 2.322 . S
O827 C836 1.257 . S
O828 Tb817 2.349 . S
O828 C839 1.261 . S
O829 Tb816 2.303 . S
O829 C839 1.257 . S
O830 Tb817 2.415 . S
O830 C846 1.239 . S
O831 Tb817 2.399 . S
O831 C846 1.263 . S
O832 Tb817 2.325 . S
O832 C847 1.236 . S
O833 Tb816 2.322 . S
O833 C847 1.257 . S
O834 Tb816 2.349 . S
O834 C818 1.261 . S
O835 Tb817 2.303 . S
O835 C818 1.257 . S
C836 O826 1.236 . S
C836 O827 1.257 . S
O837 Tb816 2.415 . S
O837 C825 1.239 . S
O838 Tb816 2.399 . S
O838 C825 1.263 . S
C839 O828 1.261 . S
C839 O829 1.257 . S
C840 C843 1.358 . S
C840 C844 1.332 . S
C840 C846 1.504 . S
C841 C842 1.373 . S
C841 C845 1.308 . S
C842 C841 1.373 . S
C842 C843 1.429 . S
C842 H852 0.932 . S
C843 C840 1.358 . S
C843 C842 1.429 . S
C843 H853 0.930 . S
C844 C840 1.332 . S
C844 C845 1.394 . S
C844 H854 0.932 . S
C845 C841 1.308 . S
C845 C844 1.394 . S
C845 H855 0.929 . S
C846 Tb817 2.764 . S
C846 O830 1.239 . S
C846 O831 1.263 . S
C846 C840 1.504 . S
C847 O832 1.236 . S
C847 O833 1.257 . S
H848 C821 0.932 . S
H849 C822 0.930 . S
H850 C823 0.932 . S
H851 C824 0.929 . S
H852 C842 0.932 . S
H853 C843 0.930 . S
H854 C844 0.932 . S
H855 C845 0.929 . S
Tb856 C865 2.764 . S
Tb856 O866 2.325 . S
Tb856 O869 2.303 . S
Tb856 O873 2.322 . S
Tb856 O874 2.349 . S
Tb856 O877 2.415 . S
Tb856 O878 2.399 . S
Tb857 O867 2.322 . S
Tb857 O868 2.349 . S
Tb857 O870 2.415 . S
Tb857 O871 2.399 . S
Tb857 O872 2.325 . S
Tb857 O875 2.303 . S
Tb857 C886 2.764 . S
C858 O874 1.261 . S
C858 O875 1.257 . S
C859 C862 1.358 . S
C859 C863 1.332 . S
C859 C865 1.504 . S
C860 C861 1.373 . S
C860 C864 1.308 . S
C861 C860 1.373 . S
C861 C862 1.429 . S
C861 H888 0.932 . S
C862 C859 1.358 . S
C862 C861 1.429 . S
C862 H889 0.930 . S
C863 C859 1.332 . S
C863 C864 1.394 . S
C863 H890 0.932 . S
C864 C860 1.308 . S
C864 C863 1.394 . S
C864 H891 0.929 . S
C865 Tb856 2.764 . S
C865 C859 1.504 . S
C865 O877 1.239 . S
C865 O878 1.263 . S
O866 Tb856 2.325 . S
O866 C876 1.236 . S
O867 Tb857 2.322 . S
O867 C876 1.257 . S
O868 Tb857 2.349 . S
O868 C879 1.261 . S
O869 Tb856 2.303 . S
O869 C879 1.257 . S
O870 Tb857 2.415 . S
O870 C886 1.239 . S
O871 Tb857 2.399 . S
O871 C886 1.263 . S
O872 Tb857 2.325 . S
O872 C887 1.236 . S
O873 Tb856 2.322 . S
O873 C887 1.257 . S
O874 Tb856 2.349 . S
O874 C858 1.261 . S
O875 Tb857 2.303 . S
O875 C858 1.257 . S
C876 O866 1.236 . S
C876 O867 1.257 . S
O877 Tb856 2.415 . S
O877 C865 1.239 . S
O878 Tb856 2.399 . S
O878 C865 1.263 . S
C879 O868 1.261 . S
C879 O869 1.257 . S
C880 C883 1.358 . S
C880 C884 1.332 . S
C880 C886 1.504 . S
C881 C882 1.373 . S
C881 C885 1.308 . S
C882 C881 1.373 . S
C882 C883 1.429 . S
C882 H892 0.932 . S
C883 C880 1.358 . S
C883 C882 1.429 . S
C883 H893 0.930 . S
C884 C880 1.332 . S
C884 C885 1.394 . S
C884 H894 0.932 . S
C885 C881 1.308 . S
C885 C884 1.394 . S
C885 H895 0.929 . S
C886 Tb857 2.764 . S
C886 O870 1.239 . S
C886 O871 1.263 . S
C886 C880 1.504 . S
C887 O872 1.236 . S
C887 O873 1.257 . S
H888 C861 0.932 . S
H889 C862 0.930 . S
H890 C863 0.932 . S
H891 C864 0.929 . S
H892 C882 0.932 . S
H893 C883 0.930 . S
H894 C884 0.932 . S
H895 C885 0.929 . S
Tb896 C905 2.764 . S
Tb896 O906 2.325 . S
Tb896 O909 2.303 . S
Tb896 O913 2.322 . S
Tb896 O914 2.349 . S
Tb896 O917 2.415 . S
Tb896 O918 2.399 . S
Tb897 O907 2.322 . S
Tb897 O908 2.349 . S
Tb897 O910 2.415 . S
Tb897 O911 2.399 . S
Tb897 O912 2.325 . S
Tb897 O915 2.303 . S
Tb897 C926 2.764 . S
C898 O914 1.261 . S
C898 O915 1.257 . S
C899 C902 1.358 . S
C899 C903 1.332 . S
C899 C905 1.504 . S
C900 C901 1.373 . S
C900 C904 1.308 . S
C901 C900 1.373 . S
C901 C902 1.429 . S
C901 H928 0.932 . S
C902 C899 1.358 . S
C902 C901 1.429 . S
C902 H929 0.930 . S
C903 C899 1.332 . S
C903 C904 1.394 . S
C903 H930 0.932 . S
C904 C900 1.308 . S
C904 C903 1.394 . S
C904 H931 0.929 . S
C905 Tb896 2.764 . S
C905 C899 1.504 . S
C905 O917 1.239 . S
C905 O918 1.263 . S
O906 Tb896 2.325 . S
O906 C916 1.236 . S
O907 Tb897 2.322 . S
O907 C916 1.257 . S
O908 Tb897 2.349 . S
O908 C919 1.261 . S
O909 Tb896 2.303 . S
O909 C919 1.257 . S
O910 Tb897 2.415 . S
O910 C926 1.239 . S
O911 Tb897 2.399 . S
O911 C926 1.263 . S
O912 Tb897 2.325 . S
O912 C927 1.236 . S
O913 Tb896 2.322 . S
O913 C927 1.257 . S
O914 Tb896 2.349 . S
O914 C898 1.261 . S
O915 Tb897 2.303 . S
O915 C898 1.257 . S
C916 O906 1.236 . S
C916 O907 1.257 . S
O917 Tb896 2.415 . S
O917 C905 1.239 . S
O918 Tb896 2.399 . S
O918 C905 1.263 . S
C919 O908 1.261 . S
C919 O909 1.257 . S
C920 C923 1.358 . S
C920 C924 1.332 . S
C920 C926 1.504 . S
C921 C922 1.373 . S
C921 C925 1.308 . S
C922 C921 1.373 . S
C922 C923 1.429 . S
C922 H932 0.932 . S
C923 C920 1.358 . S
C923 C922 1.429 . S
C923 H933 0.930 . S
C924 C920 1.332 . S
C924 C925 1.394 . S
C924 H934 0.932 . S
C925 C921 1.308 . S
C925 C924 1.394 . S
C925 H935 0.929 . S
C926 Tb897 2.764 . S
C926 O910 1.239 . S
C926 O911 1.263 . S
C926 C920 1.504 . S
C927 O912 1.236 . S
C927 O913 1.257 . S
H928 C901 0.932 . S
H929 C902 0.930 . S
H930 C903 0.932 . S
H931 C904 0.929 . S
H932 C922 0.932 . S
H933 C923 0.930 . S
H934 C924 0.932 . S
H935 C925 0.929 . S
Tb936 C945 2.764 1_455 S
Tb936 O946 2.325 . S
Tb936 O949 2.303 . S
Tb936 O953 2.322 . S
Tb936 O954 2.349 . S
Tb936 O957 2.415 1_455 S
Tb936 O958 2.399 1_455 S
Tb937 O947 2.322 . S
Tb937 O948 2.349 1_554 S
Tb937 O950 2.415 . S
Tb937 O951 2.399 1_554 S
Tb937 O952 2.325 . S
Tb937 O955 2.303 . S
Tb937 C966 2.764 . S
C938 O954 1.261 . S
C938 O955 1.257 . S
C939 C942 1.358 . S
C939 C943 1.332 . S
C939 C945 1.504 . S
C940 C941 1.373 . S
C940 C944 1.308 . S
C941 C940 1.373 . S
C941 C942 1.429 . S
C941 H968 0.932 . S
C942 C939 1.358 . S
C942 C941 1.429 . S
C942 H969 0.930 . S
C943 C939 1.332 . S
C943 C944 1.394 . S
C943 H970 0.932 . S
C944 C940 1.308 . S
C944 C943 1.394 . S
C944 H971 0.929 . S
C945 Tb936 2.764 1_655 S
C945 C939 1.504 . S
C945 O957 1.239 . S
C945 O958 1.263 . S
O946 Tb936 2.325 . S
O946 C956 1.236 . S
O947 Tb937 2.322 . S
O947 C956 1.257 . S
O948 Tb937 2.349 1_556 S
O948 C959 1.261 . S
O949 Tb936 2.303 . S
O949 C959 1.257 1_554 S
O950 Tb937 2.415 . S
O950 C966 1.239 . S
O951 Tb937 2.399 1_556 S
O951 C966 1.263 1_556 S
O952 Tb937 2.325 . S
O952 C967 1.236 . S
O953 Tb936 2.322 . S
O953 C967 1.257 . S
O954 Tb936 2.349 . S
O954 C938 1.261 . S
O955 Tb937 2.303 . S
O955 C938 1.257 . S
C956 O946 1.236 . S
C956 O947 1.257 . S
O957 Tb936 2.415 1_655 S
O957 C945 1.239 . S
O958 Tb936 2.399 1_655 S
O958 C945 1.263 . S
C959 O948 1.261 . S
C959 O949 1.257 1_556 S
C960 C963 1.358 1_554 S
C960 C964 1.332 . S
C960 C966 1.504 . S
C961 C962 1.373 1_554 S
C961 C965 1.308 . S
C962 C961 1.373 1_556 S
C962 C963 1.429 . S
C962 H972 0.932 . S
C963 C960 1.358 1_556 S
C963 C962 1.429 . S
C963 H973 0.930 . S
C964 C960 1.332 . S
C964 C965 1.394 . S
C964 H974 0.932 . S
C965 C961 1.308 . S
C965 C964 1.394 . S
C965 H975 0.929 . S
C966 Tb937 2.764 . S
C966 O950 1.239 . S
C966 O951 1.263 1_554 S
C966 C960 1.504 . S
C967 O952 1.236 . S
C967 O953 1.257 . S
H968 C941 0.932 . S
H969 C942 0.930 . S
H970 C943 0.932 . S
H971 C944 0.929 . S
H972 C962 0.932 . S
H973 C963 0.930 . S
H974 C964 0.932 . S
H975 C965 0.929 . S
H976 C984 0.929 . S
H977 C986 0.919 1_655 S
H978 C988 0.930 . S
H979 C991 0.929 . S
H980 C994 0.930 . S
H981 C996 0.960 . S
H982 C996 0.960 . S
H983 C996 0.960 . S
C984 H976 0.929 . S
C984 C985 1.389 . S
C984 C986 1.361 1_655 S
C985 C984 1.389 . S
C985 C991 1.352 1_655 S
C986 H977 0.919 1_455 S
C986 C984 1.361 1_455 S
C986 C987 1.407 . S
C987 C986 1.407 . S
C987 C988 1.400 . S
C987 C992 1.490 . S
C988 H978 0.930 . S
C988 C987 1.400 . S
C988 C991 1.386 . S
H989 C1005 0.930 . S
H990 C1006 0.931 . S
C991 H979 0.929 . S
C991 C985 1.352 1_455 S
C991 C988 1.386 . S
C992 C987 1.490 . S
C992 C994 1.395 1_455 S
C992 C995 1.403 . S
H993 C999 0.930 . S
C994 H980 0.930 . S
C994 C992 1.395 1_655 S
C994 C997 1.403 . S
C995 C992 1.403 . S
C995 C996 1.524 . S
C995 C999 1.400 . S
C996 H981 0.960 . S
C996 H982 0.960 . S
C996 H983 0.960 . S
C996 C995 1.524 . S
C997 C994 1.403 . S
C997 C998 1.392 1_655 S
C997 C1001 1.495 . S
C998 C997 1.392 1_455 S
C998 C999 1.385 . S
C998 C1000 1.478 . S
C999 H993 0.930 . S
C999 C995 1.400 . S
C999 C998 1.385 . S
C1000 C998 1.478 . S
C1000 C1002 1.381 1_556 S
C1000 C1006 1.383 . S
C1001 C997 1.495 . S
C1001 H1007 0.959 . S
C1001 H1008 0.961 . S
C1001 H1009 0.960 1_556 S
C1002 C1000 1.381 1_554 S
C1002 C1003 1.394 . S
C1002 H1010 0.930 . S
C1003 C1002 1.394 . S
C1003 C1004 1.383 . S
C1003 H1011 0.929 . S
C1004 C1003 1.383 . S
C1004 C1005 1.377 1_554 S
C1005 H989 0.930 . S
C1005 C1004 1.377 1_556 S
C1005 C1006 1.379 . S
C1006 H990 0.931 . S
C1006 C1000 1.383 . S
C1006 C1005 1.379 . S
H1007 C1001 0.959 . S
H1008 C1001 0.961 . S
H1009 C1001 0.960 1_554 S
H1010 C1002 0.930 . S
H1011 C1003 0.929 . S
H1012 C1020 0.929 . S
H1013 C1022 0.930 . S
H1014 C1024 0.930 . S
H1015 C1027 0.929 . S
H1016 C1030 0.930 . S
H1017 C1032 0.960 . S
H1018 C1032 0.960 . S
H1019 C1032 0.960 . S
C1020 H1012 0.929 . S
C1020 C1021 1.377 . S
C1020 C1022 1.384 . S
C1021 C1020 1.377 . S
C1021 C1027 1.390 . S
C1022 H1013 0.930 . S
C1022 C1020 1.384 . S
C1022 C1023 1.372 . S
C1023 C1022 1.372 . S
C1023 C1024 1.400 . S
C1023 C1028 1.490 . S
C1024 H1014 0.930 . S
C1024 C1023 1.400 . S
C1024 C1027 1.386 . S
H1025 C1041 0.930 . S
H1026 C1042 0.931 . S
C1027 H1015 0.929 . S
C1027 C1021 1.390 . S
C1027 C1024 1.386 . S
C1028 C1023 1.490 . S
C1028 C1030 1.395 . S
C1028 C1031 1.403 . S
H1029 C1035 0.930 . S
C1030 H1016 0.930 . S
C1030 C1028 1.395 . S
C1030 C1033 1.403 . S
C1031 C1028 1.403 . S
C1031 C1032 1.524 . S
C1031 C1035 1.400 . S
C1032 H1017 0.960 . S
C1032 H1018 0.960 . S
C1032 H1019 0.960 . S
C1032 C1031 1.524 . S
C1033 C1030 1.403 . S
C1033 C1034 1.392 . S
C1033 C1037 1.495 . S
C1034 C1033 1.392 . S
C1034 C1035 1.385 . S
C1034 C1036 1.478 . S
C1035 H1029 0.930 . S
C1035 C1031 1.400 . S
C1035 C1034 1.385 . S
C1036 C1034 1.478 . S
C1036 C1038 1.381 . S
C1036 C1042 1.383 . S
C1037 C1033 1.495 . S
C1037 H1043 0.959 . S
C1037 H1044 0.961 . S
C1037 H1045 0.960 . S
C1038 C1036 1.381 . S
C1038 C1039 1.394 . S
C1038 H1046 0.930 . S
C1039 C1038 1.394 . S
C1039 C1040 1.383 . S
C1039 H1047 0.929 . S
C1040 C1039 1.383 . S
C1040 C1041 1.377 . S
C1041 H1025 0.930 . S
C1041 C1040 1.377 . S
C1041 C1042 1.379 . S
C1042 H1026 0.931 . S
C1042 C1036 1.383 . S
C1042 C1041 1.379 . S
H1043 C1037 0.959 . S
H1044 C1037 0.961 . S
H1045 C1037 0.960 . S
H1046 C1038 0.930 . S
H1047 C1039 0.929 . S
H1048 C1056 0.929 . S
H1049 C1058 0.930 . S
H1050 C1060 0.930 . S
H1051 C1063 0.929 . S
H1052 C1066 0.930 . S
H1053 C1068 0.960 . S
H1054 C1068 0.960 . S
H1055 C1068 0.960 . S
C1056 H1048 0.929 . S
C1056 C1057 1.377 . S
C1056 C1058 1.384 . S
C1057 C1056 1.377 . S
C1057 C1063 1.390 . S
C1058 H1049 0.930 . S
C1058 C1056 1.384 . S
C1058 C1059 1.372 . S
C1059 C1058 1.372 . S
C1059 C1060 1.400 . S
C1059 C1064 1.490 . S
C1060 H1050 0.930 . S
C1060 C1059 1.400 . S
C1060 C1063 1.386 . S
H1061 C1077 0.930 . S
H1062 C1078 0.931 . S
C1063 H1051 0.929 . S
C1063 C1057 1.390 . S
C1063 C1060 1.386 . S
C1064 C1059 1.490 . S
C1064 C1066 1.395 . S
C1064 C1067 1.403 . S
H1065 C1071 0.930 . S
C1066 H1052 0.930 . S
C1066 C1064 1.395 . S
C1066 C1069 1.403 . S
C1067 C1064 1.403 . S
C1067 C1068 1.524 . S
C1067 C1071 1.400 . S
C1068 H1053 0.960 . S
C1068 H1054 0.960 . S
C1068 H1055 0.960 . S
C1068 C1067 1.524 . S
C1069 C1066 1.403 . S
C1069 C1070 1.392 . S
C1069 C1073 1.495 . S
C1070 C1069 1.392 . S
C1070 C1071 1.385 . S
C1070 C1072 1.478 . S
C1071 H1065 0.930 . S
C1071 C1067 1.400 . S
C1071 C1070 1.385 . S
C1072 C1070 1.478 . S
C1072 C1074 1.381 . S
C1072 C1078 1.383 . S
C1073 C1069 1.495 . S
C1073 H1079 0.959 . S
C1073 H1080 0.961 . S
C1073 H1081 0.960 . S
C1074 C1072 1.381 . S
C1074 C1075 1.394 . S
C1074 H1082 0.930 . S
C1075 C1074 1.394 . S
C1075 C1076 1.383 . S
C1075 H1083 0.929 . S
C1076 C1075 1.383 . S
C1076 C1077 1.377 . S
C1077 H1061 0.930 . S
C1077 C1076 1.377 . S
C1077 C1078 1.379 . S
C1078 H1062 0.931 . S
C1078 C1072 1.383 . S
C1078 C1077 1.379 . S
H1079 C1073 0.959 . S
H1080 C1073 0.961 . S
H1081 C1073 0.960 . S
H1082 C1074 0.930 . S
H1083 C1075 0.929 . S
H1084 C1092 0.929 . S
H1085 C1094 0.930 . S
H1086 C1096 0.930 . S
H1087 C1099 0.929 . S
H1088 C1102 0.930 . S
H1089 C1104 0.960 . S
H1090 C1104 0.960 . S
H1091 C1104 0.960 . S
C1092 H1084 0.929 . S
C1092 C1093 1.377 . S
C1092 C1094 1.384 . S
C1093 C1092 1.377 . S
C1093 C1099 1.390 . S
C1094 H1085 0.930 . S
C1094 C1092 1.384 . S
C1094 C1095 1.372 . S
C1095 C1094 1.372 . S
C1095 C1096 1.400 . S
C1095 C1100 1.490 . S
C1096 H1086 0.930 . S
C1096 C1095 1.400 . S
C1096 C1099 1.386 . S
H1097 C1113 0.930 . S
H1098 C1114 0.931 . S
C1099 H1087 0.929 . S
C1099 C1093 1.390 . S
C1099 C1096 1.386 . S
C1100 C1095 1.490 . S
C1100 C1102 1.395 . S
C1100 C1103 1.403 . S
H1101 C1107 0.930 . S
C1102 H1088 0.930 . S
C1102 C1100 1.395 . S
C1102 C1105 1.403 . S
C1103 C1100 1.403 . S
C1103 C1104 1.524 . S
C1103 C1107 1.400 . S
C1104 H1089 0.960 . S
C1104 H1090 0.960 . S
C1104 H1091 0.960 . S
C1104 C1103 1.524 . S
C1105 C1102 1.403 . S
C1105 C1106 1.392 . S
C1105 C1109 1.495 . S
C1106 C1105 1.392 . S
C1106 C1107 1.385 . S
C1106 C1108 1.478 . S
C1107 H1101 0.930 . S
C1107 C1103 1.400 . S
C1107 C1106 1.385 . S
C1108 C1106 1.478 . S
C1108 C1110 1.381 . S
C1108 C1114 1.383 . S
C1109 C1105 1.495 . S
C1109 H1115 0.959 . S
C1109 H1116 0.961 . S
C1109 H1117 0.960 . S
C1110 C1108 1.381 . S
C1110 C1111 1.394 . S
C1110 H1118 0.930 . S
C1111 C1110 1.394 . S
C1111 C1112 1.383 . S
C1111 H1119 0.929 . S
C1112 C1111 1.383 . S
C1112 C1113 1.377 . S
C1113 H1097 0.930 . S
C1113 C1112 1.377 . S
C1113 C1114 1.379 . S
C1114 H1098 0.931 . S
C1114 C1108 1.383 . S
C1114 C1113 1.379 . S
H1115 C1109 0.959 . S
H1116 C1109 0.961 . S
H1117 C1109 0.960 . S
H1118 C1110 0.930 . S
H1119 C1111 0.929 . S
H1120 C1128 0.929 . S
H1121 C1130 0.930 . S
H1122 C1132 0.930 . S
H1123 C1135 0.929 . S
H1124 C1138 0.930 . S
H1125 C1140 0.960 . S
H1126 C1140 0.960 . S
H1127 C1140 0.960 . S
C1128 H1120 0.929 . S
C1128 C1129 1.377 . S
C1128 C1130 1.384 . S
C1129 C1128 1.377 . S
C1129 C1135 1.390 . S
C1130 H1121 0.930 . S
C1130 C1128 1.384 . S
C1130 C1131 1.372 . S
C1131 C1130 1.372 . S
C1131 C1132 1.400 . S
C1131 C1136 1.490 . S
C1132 H1122 0.930 . S
C1132 C1131 1.400 . S
C1132 C1135 1.386 . S
H1133 C1149 0.930 . S
H1134 C1150 0.931 . S
C1135 H1123 0.929 . S
C1135 C1129 1.390 . S
C1135 C1132 1.386 . S
C1136 C1131 1.490 . S
C1136 C1138 1.395 . S
C1136 C1139 1.403 . S
H1137 C1143 0.930 . S
C1138 H1124 0.930 . S
C1138 C1136 1.395 . S
C1138 C1141 1.403 . S
C1139 C1136 1.403 . S
C1139 C1140 1.524 . S
C1139 C1143 1.400 . S
C1140 H1125 0.960 . S
C1140 H1126 0.960 . S
C1140 H1127 0.960 . S
C1140 C1139 1.524 . S
C1141 C1138 1.403 . S
C1141 C1142 1.392 . S
C1141 C1145 1.495 . S
C1142 C1141 1.392 . S
C1142 C1143 1.385 . S
C1142 C1144 1.478 . S
C1143 H1137 0.930 . S
C1143 C1139 1.400 . S
C1143 C1142 1.385 . S
C1144 C1142 1.478 . S
C1144 C1146 1.381 . S
C1144 C1150 1.383 . S
C1145 C1141 1.495 . S
C1145 H1151 0.959 . S
C1145 H1152 0.961 . S
C1145 H1153 0.960 . S
C1146 C1144 1.381 . S
C1146 C1147 1.394 . S
C1146 H1154 0.930 . S
C1147 C1146 1.394 . S
C1147 C1148 1.383 . S
C1147 H1155 0.929 . S
C1148 C1147 1.383 . S
C1148 C1149 1.377 . S
C1149 H1133 0.930 . S
C1149 C1148 1.377 . S
C1149 C1150 1.379 . S
C1150 H1134 0.931 . S
C1150 C1144 1.383 . S
C1150 C1149 1.379 . S
H1151 C1145 0.959 . S
H1152 C1145 0.961 . S
H1153 C1145 0.960 . S
H1154 C1146 0.930 . S
H1155 C1147 0.929 . S
H1156 C1164 0.929 . S
H1157 C1166 0.930 . S
H1158 C1168 0.930 . S
H1159 C1171 0.929 . S
H1160 C1174 0.930 . S
H1161 C1176 0.960 . S
H1162 C1176 0.960 . S
H1163 C1176 0.960 . S
C1164 H1156 0.929 . S
C1164 C1165 1.377 . S
C1164 C1166 1.384 . S
C1165 C1164 1.377 . S
C1165 C1171 1.390 . S
C1166 H1157 0.930 . S
C1166 C1164 1.384 . S
C1166 C1167 1.372 . S
C1167 C1166 1.372 . S
C1167 C1168 1.400 . S
C1167 C1172 1.490 . S
C1168 H1158 0.930 . S
C1168 C1167 1.400 . S
C1168 C1171 1.386 . S
H1169 C1185 0.930 . S
H1170 C1186 0.931 . S
C1171 H1159 0.929 . S
C1171 C1165 1.390 . S
C1171 C1168 1.386 . S
C1172 C1167 1.490 . S
C1172 C1174 1.395 . S
C1172 C1175 1.403 . S
H1173 C1179 0.930 . S
C1174 H1160 0.930 . S
C1174 C1172 1.395 . S
C1174 C1177 1.403 . S
C1175 C1172 1.403 . S
C1175 C1176 1.524 . S
C1175 C1179 1.400 . S
C1176 H1161 0.960 . S
C1176 H1162 0.960 . S
C1176 H1163 0.960 . S
C1176 C1175 1.524 . S
C1177 C1174 1.403 . S
C1177 C1178 1.392 . S
C1177 C1181 1.495 . S
C1178 C1177 1.392 . S
C1178 C1179 1.385 . S
C1178 C1180 1.478 . S
C1179 H1173 0.930 . S
C1179 C1175 1.400 . S
C1179 C1178 1.385 . S
C1180 C1178 1.478 . S
C1180 C1182 1.381 . S
C1180 C1186 1.383 . S
C1181 C1177 1.495 . S
C1181 H1187 0.959 . S
C1181 H1188 0.961 . S
C1181 H1189 0.960 . S
C1182 C1180 1.381 . S
C1182 C1183 1.394 . S
C1182 H1190 0.930 . S
C1183 C1182 1.394 . S
C1183 C1184 1.383 . S
C1183 H1191 0.929 . S
C1184 C1183 1.383 . S
C1184 C1185 1.377 . S
C1185 H1169 0.930 . S
C1185 C1184 1.377 . S
C1185 C1186 1.379 . S
C1186 H1170 0.931 . S
C1186 C1180 1.383 . S
C1186 C1185 1.379 . S
H1187 C1181 0.959 . S
H1188 C1181 0.961 . S
H1189 C1181 0.960 . S
H1190 C1182 0.930 . S
H1191 C1183 0.929 . S
H1192 C1200 0.929 . S
H1193 C1202 0.930 . S
H1194 C1204 0.930 . S
H1195 C1207 0.929 . S
H1196 C1210 0.930 . S
H1197 C1212 0.960 . S
H1198 C1212 0.960 . S
H1199 C1212 0.960 . S
C1200 H1192 0.929 . S
C1200 C1201 1.377 . S
C1200 C1202 1.384 . S
C1201 C1200 1.377 . S
C1201 C1207 1.390 . S
C1202 H1193 0.930 . S
C1202 C1200 1.384 . S
C1202 C1203 1.372 . S
C1203 C1202 1.372 . S
C1203 C1204 1.400 . S
C1203 C1208 1.490 . S
C1204 H1194 0.930 . S
C1204 C1203 1.400 . S
C1204 C1207 1.386 . S
H1205 C1221 0.930 . S
H1206 C1222 0.931 . S
C1207 H1195 0.929 . S
C1207 C1201 1.390 . S
C1207 C1204 1.386 . S
C1208 C1203 1.490 . S
C1208 C1210 1.395 . S
C1208 C1211 1.403 . S
H1209 C1215 0.930 . S
C1210 H1196 0.930 . S
C1210 C1208 1.395 . S
C1210 C1213 1.403 . S
C1211 C1208 1.403 . S
C1211 C1212 1.524 . S
C1211 C1215 1.400 . S
C1212 H1197 0.960 . S
C1212 H1198 0.960 . S
C1212 H1199 0.960 . S
C1212 C1211 1.524 . S
C1213 C1210 1.403 . S
C1213 C1214 1.392 . S
C1213 C1217 1.495 . S
C1214 C1213 1.392 . S
C1214 C1215 1.385 . S
C1214 C1216 1.478 . S
C1215 H1209 0.930 . S
C1215 C1211 1.400 . S
C1215 C1214 1.385 . S
C1216 C1214 1.478 . S
C1216 C1218 1.381 . S
C1216 C1222 1.383 . S
C1217 C1213 1.495 . S
C1217 H1223 0.959 . S
C1217 H1224 0.961 . S
C1217 H1225 0.960 . S
C1218 C1216 1.381 . S
C1218 C1219 1.394 . S
C1218 H1226 0.930 . S
C1219 C1218 1.394 . S
C1219 C1220 1.383 . S
C1219 H1227 0.929 . S
C1220 C1219 1.383 . S
C1220 C1221 1.377 . S
C1221 H1205 0.930 . S
C1221 C1220 1.377 . S
C1221 C1222 1.379 . S
C1222 H1206 0.931 . S
C1222 C1216 1.383 . S
C1222 C1221 1.379 . S
H1223 C1217 0.959 . S
H1224 C1217 0.961 . S
H1225 C1217 0.960 . S
H1226 C1218 0.930 . S
H1227 C1219 0.929 . S
H1228 C1236 0.929 . S
H1229 C1238 0.930 . S
H1230 C1240 0.930 . S
H1231 C1243 0.929 . S
H1232 C1246 0.930 . S
H1233 C1248 0.960 . S
H1234 C1248 0.960 . S
H1235 C1248 0.960 . S
C1236 H1228 0.929 . S
C1236 C1237 1.377 . S
C1236 C1238 1.384 . S
C1237 C1236 1.377 . S
C1237 C1243 1.390 . S
C1238 H1229 0.930 . S
C1238 C1236 1.384 . S
C1238 C1239 1.372 . S
C1239 C1238 1.372 . S
C1239 C1240 1.400 . S
C1239 C1244 1.490 . S
C1240 H1230 0.930 . S
C1240 C1239 1.400 . S
C1240 C1243 1.386 . S
H1241 C1257 0.930 . S
H1242 C1258 0.931 . S
C1243 H1231 0.929 . S
C1243 C1237 1.390 . S
C1243 C1240 1.386 . S
C1244 C1239 1.490 . S
C1244 C1246 1.395 . S
C1244 C1247 1.403 . S
H1245 C1251 0.930 . S
C1246 H1232 0.930 . S
C1246 C1244 1.395 . S
C1246 C1249 1.403 . S
C1247 C1244 1.403 . S
C1247 C1248 1.524 . S
C1247 C1251 1.400 . S
C1248 H1233 0.960 . S
C1248 H1234 0.960 . S
C1248 H1235 0.960 . S
C1248 C1247 1.524 . S
C1249 C1246 1.403 . S
C1249 C1250 1.392 . S
C1249 C1253 1.495 . S
C1250 C1249 1.392 . S
C1250 C1251 1.385 . S
C1250 C1252 1.478 . S
C1251 H1245 0.930 . S
C1251 C1247 1.400 . S
C1251 C1250 1.385 . S
C1252 C1250 1.478 . S
C1252 C1254 1.381 . S
C1252 C1258 1.383 . S
C1253 C1249 1.495 . S
C1253 H1259 0.959 . S
C1253 H1260 0.961 . S
C1253 H1261 0.960 . S
C1254 C1252 1.381 . S
C1254 C1255 1.394 . S
C1254 H1262 0.930 . S
C1255 C1254 1.394 . S
C1255 C1256 1.383 . S
C1255 H1263 0.929 . S
C1256 C1255 1.383 . S
C1256 C1257 1.377 . S
C1257 H1241 0.930 . S
C1257 C1256 1.377 . S
C1257 C1258 1.379 . S
C1258 H1242 0.931 . S
C1258 C1252 1.383 . S
C1258 C1257 1.379 . S
H1259 C1253 0.959 . S
H1260 C1253 0.961 . S
H1261 C1253 0.960 . S
H1262 C1254 0.930 . S
H1263 C1255 0.929 . S
H1264 C1272 0.929 . S
H1265 C1274 0.930 . S
H1266 C1276 0.930 . S
H1267 C1279 0.929 . S
H1268 C1282 0.930 1_565 S
H1269 C1284 0.960 . S
H1270 C1284 0.960 . S
H1271 C1284 0.960 . S
C1272 H1264 0.929 . S
C1272 C1273 1.377 . S
C1272 C1274 1.384 . S
C1273 C1272 1.377 . S
C1273 C1279 1.390 . S
C1274 H1265 0.930 . S
C1274 C1272 1.384 . S
C1274 C1275 1.372 . S
C1275 C1274 1.372 . S
C1275 C1276 1.400 . S
C1275 C1280 1.490 . S
C1276 H1266 0.930 . S
C1276 C1275 1.400 . S
C1276 C1279 1.386 . S
H1277 C1293 0.930 1_655 S
H1278 C1294 0.931 . S
C1279 H1267 0.929 . S
C1279 C1273 1.390 . S
C1279 C1276 1.386 . S
C1280 C1275 1.490 . S
C1280 C1282 1.395 . S
C1280 C1283 1.403 . S
H1281 C1287 0.930 . S
C1282 H1268 0.930 1_545 S
C1282 C1280 1.395 . S
C1282 C1285 1.403 . S
C1283 C1280 1.403 . S
C1283 C1284 1.524 . S
C1283 C1287 1.400 . S
C1284 H1269 0.960 . S
C1284 H1270 0.960 . S
C1284 H1271 0.960 . S
C1284 C1283 1.524 . S
C1285 C1282 1.403 . S
C1285 C1286 1.392 . S
C1285 C1289 1.495 1_645 S
C1286 C1285 1.392 . S
C1286 C1287 1.385 . S
C1286 C1288 1.478 1_655 S
C1287 H1281 0.930 . S
C1287 C1283 1.400 . S
C1287 C1286 1.385 . S
C1288 C1286 1.478 1_455 S
C1288 C1290 1.381 . S
C1288 C1294 1.383 1_455 S
C1289 C1285 1.495 1_465 S
C1289 H1295 0.962 . S
C1289 H1296 0.961 1_455 S
C1289 H1297 0.960 1_565 S
C1290 C1288 1.381 . S
C1290 C1291 1.394 . S
C1290 H1298 0.930 . S
C1291 C1290 1.394 . S
C1291 C1292 1.383 . S
C1291 H1299 0.929 . S
C1292 C1291 1.383 . S
C1292 C1293 1.377 . S
C1293 H1277 0.930 1_455 S
C1293 C1292 1.377 . S
C1293 C1294 1.379 1_455 S
C1294 H1278 0.931 . S
C1294 C1288 1.383 1_655 S
C1294 C1293 1.379 1_655 S
H1295 C1289 0.962 . S
H1296 C1289 0.961 1_655 S
H1297 C1289 0.960 1_545 S
H1298 C1290 0.930 . S
H1299 C1291 0.929 . S
H1300 C1308 0.929 . S
H1301 C1310 0.930 . S
H1302 C1312 0.930 . S
H1303 C1315 0.929 . S
H1304 C1318 0.930 . S
H1305 C1320 0.960 . S
H1306 C1320 0.960 . S
H1307 C1320 0.960 . S
C1308 H1300 0.929 . S
C1308 C1309 1.377 . S
C1308 C1310 1.384 . S
C1309 C1308 1.377 . S
C1309 C1315 1.390 . S
C1310 H1301 0.930 . S
C1310 C1308 1.384 . S
C1310 C1311 1.372 . S
C1311 C1310 1.372 . S
C1311 C1312 1.400 . S
C1311 C1316 1.490 . S
C1312 H1302 0.930 . S
C1312 C1311 1.400 . S
C1312 C1315 1.386 . S
H1313 C1329 0.930 . S
H1314 C1330 0.931 . S
C1315 H1303 0.929 . S
C1315 C1309 1.390 . S
C1315 C1312 1.386 . S
C1316 C1311 1.490 . S
C1316 C1318 1.395 . S
C1316 C1319 1.403 . S
H1317 C1323 0.930 . S
C1318 H1304 0.930 . S
C1318 C1316 1.395 . S
C1318 C1321 1.403 . S
C1319 C1316 1.403 . S
C1319 C1320 1.524 . S
C1319 C1323 1.400 . S
C1320 H1305 0.960 . S
C1320 H1306 0.960 . S
C1320 H1307 0.960 . S
C1320 C1319 1.524 . S
C1321 C1318 1.403 . S
C1321 C1322 1.392 . S
C1321 C1325 1.495 . S
C1322 C1321 1.392 . S
C1322 C1323 1.385 . S
C1322 C1324 1.478 . S
C1323 H1317 0.930 . S
C1323 C1319 1.400 . S
C1323 C1322 1.385 . S
C1324 C1322 1.478 . S
C1324 C1326 1.381 . S
C1324 C1330 1.383 . S
C1325 C1321 1.495 . S
C1325 H1331 0.959 . S
C1325 H1332 0.961 . S
C1325 H1333 0.960 . S
C1326 C1324 1.381 . S
C1326 C1327 1.394 . S
C1326 H1334 0.930 . S
C1327 C1326 1.394 . S
C1327 C1328 1.383 . S
C1327 H1335 0.929 . S
C1328 C1327 1.383 . S
C1328 C1329 1.377 . S
C1329 H1313 0.930 . S
C1329 C1328 1.377 . S
C1329 C1330 1.379 . S
C1330 H1314 0.931 . S
C1330 C1324 1.383 . S
C1330 C1329 1.379 . S
H1331 C1325 0.959 . S
H1332 C1325 0.961 . S
H1333 C1325 0.960 . S
H1334 C1326 0.930 . S
H1335 C1327 0.929 . S
H1336 C1344 0.929 1_565 S
H1337 C1346 0.930 1_565 S
H1338 C1348 0.930 . S
H1339 C1351 0.929 . S
H1340 C1354 0.930 . S
H1341 C1356 0.960 . S
H1342 C1356 0.960 . S
H1343 C1356 0.960 . S
C1344 H1336 0.929 1_545 S
C1344 C1345 1.377 . S
C1344 C1346 1.384 . S
C1345 C1344 1.377 . S
C1345 C1351 1.390 . S
C1346 H1337 0.930 1_545 S
C1346 C1344 1.384 . S
C1346 C1347 1.372 . S
C1347 C1346 1.372 . S
C1347 C1348 1.400 . S
C1347 C1352 1.490 . S
C1348 H1338 0.930 . S
C1348 C1347 1.400 . S
C1348 C1351 1.386 . S
H1349 C1365 0.930 . S
H1350 C1366 0.931 . S
C1351 H1339 0.929 . S
C1351 C1345 1.390 . S
C1351 C1348 1.386 . S
C1352 C1347 1.490 . S
C1352 C1354 1.395 1_545 S
C1352 C1355 1.403 . S
H1353 C1359 0.930 . S
C1354 H1340 0.930 . S
C1354 C1352 1.395 1_565 S
C1354 C1357 1.403 . S
C1355 C1352 1.403 . S
C1355 C1356 1.524 . S
C1355 C1359 1.400 . S
C1356 H1341 0.960 . S
C1356 H1342 0.960 . S
C1356 H1343 0.960 . S
C1356 C1355 1.524 . S
C1357 C1354 1.403 . S
C1357 C1358 1.392 1_565 S
C1357 C1361 1.495 . S
C1358 C1357 1.392 1_545 S
C1358 C1359 1.385 . S
C1358 C1360 1.478 . S
C1359 H1353 0.930 . S
C1359 C1355 1.400 . S
C1359 C1358 1.385 . S
C1360 C1358 1.478 . S
C1360 C1362 1.381 . S
C1360 C1366 1.383 . S
C1361 C1357 1.495 . S
C1361 H1367 0.959 . S
C1361 H1368 0.961 . S
C1361 H1369 0.960 . S
C1362 C1360 1.381 . S
C1362 C1363 1.394 . S
C1362 H1370 0.930 1_545 S
C1363 C1362 1.394 . S
C1363 C1364 1.383 . S
C1363 H1371 0.929 1_545 S
C1364 C1363 1.383 . S
C1364 C1365 1.377 . S
C1365 H1349 0.930 . S
C1365 C1364 1.377 . S
C1365 C1366 1.379 . S
C1366 H1350 0.931 . S
C1366 C1360 1.383 . S
C1366 C1365 1.379 . S
H1367 C1361 0.959 . S
H1368 C1361 0.961 . S
H1369 C1361 0.960 . S
H1370 C1362 0.930 1_565 S
H1371 C1363 0.929 1_565 S
H1372 C1380 0.929 . S
H1373 C1382 0.930 . S
H1374 C1384 0.930 . S
H1375 C1387 0.929 . S
H1376 C1390 0.930 . S
H1377 C1392 0.960 . S
H1378 C1392 0.960 . S
H1379 C1392 0.960 . S
C1380 H1372 0.929 . S
C1380 C1381 1.377 . S
C1380 C1382 1.384 . S
C1381 C1380 1.377 . S
C1381 C1387 1.390 . S
C1382 H1373 0.930 . S
C1382 C1380 1.384 . S
C1382 C1383 1.372 . S
C1383 C1382 1.372 . S
C1383 C1384 1.400 . S
C1383 C1388 1.490 . S
C1384 H1374 0.930 . S
C1384 C1383 1.400 . S
C1384 C1387 1.386 . S
H1385 C1401 0.930 . S
H1386 C1402 0.931 . S
C1387 H1375 0.929 . S
C1387 C1381 1.390 . S
C1387 C1384 1.386 . S
C1388 C1383 1.490 . S
C1388 C1390 1.395 . S
C1388 C1391 1.403 . S
H1389 C1395 0.930 . S
C1390 H1376 0.930 . S
C1390 C1388 1.395 . S
C1390 C1393 1.403 . S
C1391 C1388 1.403 . S
C1391 C1392 1.524 . S
C1391 C1395 1.400 . S
C1392 H1377 0.960 . S
C1392 H1378 0.960 . S
C1392 H1379 0.960 . S
C1392 C1391 1.524 . S
C1393 C1390 1.403 . S
C1393 C1394 1.392 . S
C1393 C1397 1.495 . S
C1394 C1393 1.392 . S
C1394 C1395 1.385 . S
C1394 C1396 1.478 . S
C1395 H1389 0.930 . S
C1395 C1391 1.400 . S
C1395 C1394 1.385 . S
C1396 C1394 1.478 . S
C1396 C1398 1.381 . S
C1396 C1402 1.383 . S
C1397 C1393 1.495 . S
C1397 H1403 0.959 . S
C1397 H1404 0.961 . S
C1397 H1405 0.960 . S
C1398 C1396 1.381 . S
C1398 C1399 1.394 . S
C1398 H1406 0.930 . S
C1399 C1398 1.394 . S
C1399 C1400 1.383 . S
C1399 H1407 0.929 . S
C1400 C1399 1.383 . S
C1400 C1401 1.377 . S
C1401 H1385 0.930 . S
C1401 C1400 1.377 . S
C1401 C1402 1.379 . S
C1402 H1386 0.931 . S
C1402 C1396 1.383 . S
C1402 C1401 1.379 . S
H1403 C1397 0.959 . S
H1404 C1397 0.961 . S
H1405 C1397 0.960 . S
H1406 C1398 0.930 . S
H1407 C1399 0.929 . S
H1408 C1416 0.929 . S
H1409 C1418 0.930 . S
H1410 C1420 0.930 . S
H1411 C1423 0.929 . S
H1412 C1426 0.930 . S
H1413 C1428 0.960 . S
H1414 C1428 0.960 . S
H1415 C1428 0.960 . S
C1416 H1408 0.929 . S
C1416 C1417 1.377 . S
C1416 C1418 1.384 . S
C1417 C1416 1.377 . S
C1417 C1423 1.390 . S
C1418 H1409 0.930 . S
C1418 C1416 1.384 . S
C1418 C1419 1.372 . S
C1419 C1418 1.372 . S
C1419 C1420 1.400 . S
C1419 C1424 1.490 . S
C1420 H1410 0.930 . S
C1420 C1419 1.400 . S
C1420 C1423 1.386 . S
H1421 C1437 0.930 . S
H1422 C1438 0.931 . S
C1423 H1411 0.929 . S
C1423 C1417 1.390 . S
C1423 C1420 1.386 . S
C1424 C1419 1.490 . S
C1424 C1426 1.395 . S
C1424 C1427 1.403 . S
H1425 C1431 0.930 1_565 S
C1426 H1412 0.930 . S
C1426 C1424 1.395 . S
C1426 C1429 1.403 . S
C1427 C1424 1.403 . S
C1427 C1428 1.524 1_545 S
C1427 C1431 1.400 . S
C1428 H1413 0.960 . S
C1428 H1414 0.960 . S
C1428 H1415 0.960 . S
C1428 C1427 1.524 1_565 S
C1429 C1426 1.403 . S
C1429 C1430 1.392 . S
C1429 C1433 1.495 1_655 S
C1430 C1429 1.392 . S
C1430 C1431 1.385 . S
C1430 C1432 1.478 . S
C1431 H1425 0.930 1_545 S
C1431 C1427 1.400 . S
C1431 C1430 1.385 . S
C1432 C1430 1.478 . S
C1432 C1434 1.381 1_655 S
C1432 C1438 1.383 . S
C1433 C1429 1.495 1_455 S
C1433 H1439 0.959 . S
C1433 H1440 0.961 . S
C1433 H1441 0.960 . S
C1434 C1432 1.381 1_455 S
C1434 C1435 1.394 . S
C1434 H1442 0.927 1_545 S
C1435 C1434 1.394 . S
C1435 C1436 1.383 . S
C1435 H1443 0.929 1_545 S
C1436 C1435 1.383 . S
C1436 C1437 1.377 1_455 S
C1437 H1421 0.930 . S
C1437 C1436 1.377 1_655 S
C1437 C1438 1.379 . S
C1438 H1422 0.931 . S
C1438 C1432 1.383 . S
C1438 C1437 1.379 . S
H1439 C1433 0.959 . S
H1440 C1433 0.961 . S
H1441 C1433 0.960 . S
H1442 C1434 0.927 1_565 S
H1443 C1435 0.929 1_565 S
H1444 C1452 0.929 . S
H1445 C1454 0.930 . S
H1446 C1456 0.930 . S
H1447 C1459 0.929 . S
H1448 C1462 0.930 . S
H1449 C1464 0.960 . S
H1450 C1464 0.960 . S
H1451 C1464 0.960 . S
C1452 H1444 0.929 . S
C1452 C1453 1.377 . S
C1452 C1454 1.384 . S
C1453 C1452 1.377 . S
C1453 C1459 1.390 . S
C1454 H1445 0.930 . S
C1454 C1452 1.384 . S
C1454 C1455 1.372 . S
C1455 C1454 1.372 . S
C1455 C1456 1.400 . S
C1455 C1460 1.490 . S
C1456 H1446 0.930 . S
C1456 C1455 1.400 . S
C1456 C1459 1.386 . S
H1457 C1473 0.930 . S
H1458 C1474 0.931 . S
C1459 H1447 0.929 . S
C1459 C1453 1.390 . S
C1459 C1456 1.386 . S
C1460 C1455 1.490 . S
C1460 C1462 1.395 . S
C1460 C1463 1.403 . S
H1461 C1467 0.930 . S
C1462 H1448 0.930 . S
C1462 C1460 1.395 . S
C1462 C1465 1.403 . S
C1463 C1460 1.403 . S
C1463 C1464 1.524 . S
C1463 C1467 1.400 . S
C1464 H1449 0.960 . S
C1464 H1450 0.960 . S
C1464 H1451 0.960 . S
C1464 C1463 1.524 . S
C1465 C1462 1.403 . S
C1465 C1466 1.392 . S
C1465 C1469 1.495 . S
C1466 C1465 1.392 . S
C1466 C1467 1.385 . S
C1466 C1468 1.478 . S
C1467 H1461 0.930 . S
C1467 C1463 1.400 . S
C1467 C1466 1.385 . S
C1468 C1466 1.478 . S
C1468 C1470 1.381 . S
C1468 C1474 1.383 . S
C1469 C1465 1.495 . S
C1469 H1475 0.959 . S
C1469 H1476 0.961 . S
C1469 H1477 0.960 . S
C1470 C1468 1.381 . S
C1470 C1471 1.394 . S
C1470 H1478 0.930 . S
C1471 C1470 1.394 . S
C1471 C1472 1.383 . S
C1471 H1479 0.929 . S
C1472 C1471 1.383 . S
C1472 C1473 1.377 . S
C1473 H1457 0.930 . S
C1473 C1472 1.377 . S
C1473 C1474 1.379 . S
C1474 H1458 0.931 . S
C1474 C1468 1.383 . S
C1474 C1473 1.379 . S
H1475 C1469 0.959 . S
H1476 C1469 0.961 . S
H1477 C1469 0.960 . S
H1478 C1470 0.930 . S
H1479 C1471 0.929 . S
H1480 C1488 0.929 . S
H1481 C1490 0.930 . S
H1482 C1492 0.930 1_565 S
H1483 C1495 0.929 1_565 S
H1484 C1498 0.930 . S
H1485 C1500 0.960 1_565 S
H1486 C1500 0.960 . S
H1487 C1500 0.960 1_565 S
C1488 H1480 0.929 . S
C1488 C1489 1.377 . S
C1488 C1490 1.384 . S
C1489 C1488 1.377 . S
C1489 C1495 1.390 . S
C1490 H1481 0.930 . S
C1490 C1488 1.384 . S
C1490 C1491 1.372 . S
C1491 C1490 1.372 . S
C1491 C1492 1.400 . S
C1491 C1496 1.490 . S
C1492 H1482 0.930 1_545 S
C1492 C1491 1.400 . S
C1492 C1495 1.386 . S
H1493 C1509 0.930 1_565 S
H1494 C1510 0.906 1_565 S
C1495 H1483 0.929 1_545 S
C1495 C1489 1.390 . S
C1495 C1492 1.386 . S
C1496 C1491 1.490 . S
C1496 C1498 1.395 . S
C1496 C1499 1.403 . S
H1497 C1503 0.930 . S
C1498 H1484 0.930 . S
C1498 C1496 1.395 . S
C1498 C1501 1.403 . S
C1499 C1496 1.403 . S
C1499 C1500 1.524 . S
C1499 C1503 1.400 . S
C1500 H1485 0.960 1_545 S
C1500 H1486 0.960 . S
C1500 H1487 0.960 1_545 S
C1500 C1499 1.524 . S
C1501 C1498 1.403 . S
C1501 C1502 1.392 . S
C1501 C1505 1.495 . S
C1502 C1501 1.392 . S
C1502 C1503 1.385 . S
C1502 C1504 1.478 . S
C1503 H1497 0.930 . S
C1503 C1499 1.400 . S
C1503 C1502 1.385 . S
C1504 C1502 1.478 . S
C1504 C1506 1.381 . S
C1504 C1510 1.383 . S
C1505 C1501 1.495 . S
C1505 H1511 0.959 . S
C1505 H1512 0.961 . S
C1505 H1513 0.960 . S
C1506 C1504 1.381 . S
C1506 C1507 1.394 . S
C1506 H1514 0.930 . S
C1507 C1506 1.394 . S
C1507 C1508 1.383 . S
C1507 H1515 0.929 . S
C1508 C1507 1.383 . S
C1508 C1509 1.377 . S
C1509 H1493 0.930 1_545 S
C1509 C1508 1.377 . S
C1509 C1510 1.379 . S
C1510 H1494 0.906 1_545 S
C1510 C1504 1.383 . S
C1510 C1509 1.379 . S
H1511 C1505 0.959 . S
H1512 C1505 0.961 . S
H1513 C1505 0.960 . S
H1514 C1506 0.930 . S
H1515 C1507 0.929 . S
H1516 C1524 0.929 . S
H1517 C1526 0.930 . S
H1518 C1528 0.930 . S
H1519 C1531 0.929 . S
H1520 C1534 0.930 . S
H1521 C1536 0.960 . S
H1522 C1536 0.960 . S
H1523 C1536 0.960 . S
C1524 H1516 0.929 . S
C1524 C1525 1.377 . S
C1524 C1526 1.384 . S
C1525 C1524 1.377 . S
C1525 C1531 1.390 . S
C1526 H1517 0.930 . S
C1526 C1524 1.384 . S
C1526 C1527 1.372 . S
C1527 C1526 1.372 . S
C1527 C1528 1.400 . S
C1527 C1532 1.490 . S
C1528 H1518 0.930 . S
C1528 C1527 1.400 . S
C1528 C1531 1.386 . S
H1529 C1545 0.930 . S
H1530 C1546 0.931 . S
C1531 H1519 0.929 . S
C1531 C1525 1.390 . S
C1531 C1528 1.386 . S
C1532 C1527 1.490 . S
C1532 C1534 1.395 . S
C1532 C1535 1.403 . S
H1533 C1539 0.930 . S
C1534 H1520 0.930 . S
C1534 C1532 1.395 . S
C1534 C1537 1.403 . S
C1535 C1532 1.403 . S
C1535 C1536 1.524 . S
C1535 C1539 1.400 . S
C1536 H1521 0.960 . S
C1536 H1522 0.960 . S
C1536 H1523 0.960 . S
C1536 C1535 1.524 . S
C1537 C1534 1.403 . S
C1537 C1538 1.392 . S
C1537 C1541 1.495 . S
C1538 C1537 1.392 . S
C1538 C1539 1.385 . S
C1538 C1540 1.478 . S
C1539 H1533 0.930 . S
C1539 C1535 1.400 . S
C1539 C1538 1.385 . S
C1540 C1538 1.478 . S
C1540 C1542 1.381 . S
C1540 C1546 1.383 . S
C1541 C1537 1.495 . S
C1541 H1547 0.959 . S
C1541 H1548 0.961 . S
C1541 H1549 0.960 . S
C1542 C1540 1.381 . S
C1542 C1543 1.394 . S
C1542 H1550 0.930 . S
C1543 C1542 1.394 . S
C1543 C1544 1.383 . S
C1543 H1551 0.929 . S
C1544 C1543 1.383 . S
C1544 C1545 1.377 . S
C1545 H1529 0.930 . S
C1545 C1544 1.377 . S
C1545 C1546 1.379 . S
C1546 H1530 0.931 . S
C1546 C1540 1.383 . S
C1546 C1545 1.379 . S
H1547 C1541 0.959 . S
H1548 C1541 0.961 . S
H1549 C1541 0.960 . S
H1550 C1542 0.930 . S
H1551 C1543 0.929 . S
H1552 C1560 0.929 . S
H1553 C1562 0.930 . S
H1554 C1564 0.930 . S
H1555 C1567 0.929 . S
H1556 C1570 0.930 . S
H1557 C1572 0.960 1_545 S
H1558 C1572 0.960 . S
H1559 C1572 0.960 . S
C1560 H1552 0.929 . S
C1560 C1561 1.377 1_556 S
C1560 C1562 1.384 . S
C1561 C1560 1.377 1_554 S
C1561 C1567 1.390 . S
C1562 H1553 0.930 . S
C1562 C1560 1.384 . S
C1562 C1563 1.372 1_556 S
C1563 C1562 1.372 1_554 S
C1563 C1564 1.400 . S
C1563 C1568 1.490 . S
C1564 H1554 0.930 . S
C1564 C1563 1.400 . S
C1564 C1567 1.386 . S
H1565 C1581 0.930 . S
H1566 C1582 0.931 . S
C1567 H1555 0.929 . S
C1567 C1561 1.390 . S
C1567 C1564 1.386 . S
C1568 C1563 1.490 . S
C1568 C1570 1.395 . S
C1568 C1571 1.403 . S
H1569 C1575 0.930 1_545 S
C1570 H1556 0.930 . S
C1570 C1568 1.395 . S
C1570 C1573 1.403 . S
C1571 C1568 1.403 . S
C1571 C1572 1.524 . S
C1571 C1575 1.400 . S
C1572 H1557 0.960 1_565 S
C1572 H1558 0.960 . S
C1572 H1559 0.960 . S
C1572 C1571 1.524 . S
C1573 C1570 1.403 . S
C1573 C1574 1.392 . S
C1573 C1577 1.495 . S
C1574 C1573 1.392 . S
C1574 C1575 1.385 . S
C1574 C1576 1.478 . S
C1575 H1569 0.930 1_565 S
C1575 C1571 1.400 . S
C1575 C1574 1.385 . S
C1576 C1574 1.478 . S
C1576 C1578 1.381 . S
C1576 C1582 1.383 . S
C1577 C1573 1.495 . S
C1577 H1583 0.959 . S
C1577 H1584 0.961 . S
C1577 H1585 0.960 . S
C1578 C1576 1.381 . S
C1578 C1579 1.394 . S
C1578 H1586 0.930 . S
C1579 C1578 1.394 . S
C1579 C1580 1.383 1_565 S
C1579 H1587 0.929 . S
C1580 C1579 1.383 1_545 S
C1580 C1581 1.377 . S
C1581 H1565 0.930 . S
C1581 C1580 1.377 . S
C1581 C1582 1.379 1_545 S
C1582 H1566 0.931 . S
C1582 C1576 1.383 . S
C1582 C1581 1.379 1_565 S
H1583 C1577 0.959 . S
H1584 C1577 0.961 . S
H1585 C1577 0.960 . S
H1586 C1578 0.930 . S
H1587 C1579 0.929 . S
H1588 C1596 0.929 1_556 S
H1589 C1598 0.930 1_556 S
H1590 C1600 0.930 . S
H1591 C1603 0.929 . S
H1592 C1606 0.930 . S
H1593 C1608 0.960 . S
H1594 C1608 0.960 . S
H1595 C1608 0.960 . S
C1596 H1588 0.929 1_554 S
C1596 C1597 1.377 . S
C1596 C1598 1.384 . S
C1597 C1596 1.377 . S
C1597 C1603 1.390 . S
C1598 H1589 0.930 1_554 S
C1598 C1596 1.384 . S
C1598 C1599 1.372 . S
C1599 C1598 1.372 . S
C1599 C1600 1.400 . S
C1599 C1604 1.490 . S
C1600 H1590 0.930 . S
C1600 C1599 1.400 . S
C1600 C1603 1.386 . S
H1601 C1617 0.930 . S
H1602 C1618 0.931 . S
C1603 H1591 0.929 . S
C1603 C1597 1.390 . S
C1603 C1600 1.386 . S
C1604 C1599 1.490 . S
C1604 C1606 1.395 . S
C1604 C1607 1.403 . S
H1605 C1611 0.930 . S
C1606 H1592 0.930 . S
C1606 C1604 1.395 . S
C1606 C1609 1.403 . S
C1607 C1604 1.403 . S
C1607 C1608 1.524 . S
C1607 C1611 1.400 . S
C1608 H1593 0.960 . S
C1608 H1594 0.960 . S
C1608 H1595 0.960 . S
C1608 C1607 1.524 . S
C1609 C1606 1.403 . S
C1609 C1610 1.392 . S
C1609 C1613 1.495 . S
C1610 C1609 1.392 . S
C1610 C1611 1.385 . S
C1610 C1612 1.478 . S
C1611 H1605 0.930 . S
C1611 C1607 1.400 . S
C1611 C1610 1.385 . S
C1612 C1610 1.478 . S
C1612 C1614 1.381 . S
C1612 C1618 1.383 . S
C1613 C1609 1.495 . S
C1613 H1619 0.959 . S
C1613 H1620 0.961 . S
C1613 H1621 0.960 . S
C1614 C1612 1.381 . S
C1614 C1615 1.394 . S
C1614 H1622 0.930 1_554 S
C1615 C1614 1.394 . S
C1615 C1616 1.383 . S
C1615 H1623 0.929 1_554 S
C1616 C1615 1.383 . S
C1616 C1617 1.377 . S
C1617 H1601 0.930 . S
C1617 C1616 1.377 . S
C1617 C1618 1.379 . S
C1618 H1602 0.931 . S
C1618 C1612 1.383 . S
C1618 C1617 1.379 . S
H1619 C1613 0.959 . S
H1620 C1613 0.961 . S
H1621 C1613 0.960 . S
H1622 C1614 0.930 1_556 S
H1623 C1615 0.929 1_556 S
H1624 C1632 0.929 . S
H1625 C1634 0.930 . S
H1626 C1636 0.930 . S
H1627 C1639 0.929 . S
H1628 C1642 0.930 . S
H1629 C1644 0.960 . S
H1630 C1644 0.960 . S
H1631 C1644 0.960 . S
C1632 H1624 0.929 . S
C1632 C1633 1.377 . S
C1632 C1634 1.384 . S
C1633 C1632 1.377 . S
C1633 C1639 1.390 . S
C1634 H1625 0.930 . S
C1634 C1632 1.384 . S
C1634 C1635 1.372 . S
C1635 C1634 1.372 . S
C1635 C1636 1.400 . S
C1635 C1640 1.490 . S
C1636 H1626 0.930 . S
C1636 C1635 1.400 . S
C1636 C1639 1.386 . S
H1637 C1653 0.930 . S
H1638 C1654 0.931 . S
C1639 H1627 0.929 . S
C1639 C1633 1.390 . S
C1639 C1636 1.386 . S
C1640 C1635 1.490 . S
C1640 C1642 1.395 . S
C1640 C1643 1.403 . S
H1641 C1647 0.930 . S
C1642 H1628 0.930 . S
C1642 C1640 1.395 . S
C1642 C1645 1.403 . S
C1643 C1640 1.403 . S
C1643 C1644 1.524 . S
C1643 C1647 1.400 . S
C1644 H1629 0.960 . S
C1644 H1630 0.960 . S
C1644 H1631 0.960 . S
C1644 C1643 1.524 . S
C1645 C1642 1.403 . S
C1645 C1646 1.392 . S
C1645 C1649 1.495 . S
C1646 C1645 1.392 . S
C1646 C1647 1.385 . S
C1646 C1648 1.478 . S
C1647 H1641 0.930 . S
C1647 C1643 1.400 . S
C1647 C1646 1.385 . S
C1648 C1646 1.478 . S
C1648 C1650 1.381 . S
C1648 C1654 1.383 . S
C1649 C1645 1.495 . S
C1649 H1655 0.959 . S
C1649 H1656 0.961 . S
C1649 H1657 0.960 . S
C1650 C1648 1.381 . S
C1650 C1651 1.394 . S
C1650 H1658 0.930 . S
C1651 C1650 1.394 . S
C1651 C1652 1.383 . S
C1651 H1659 0.929 . S
C1652 C1651 1.383 . S
C1652 C1653 1.377 . S
C1653 H1637 0.930 . S
C1653 C1652 1.377 . S
C1653 C1654 1.379 . S
C1654 H1638 0.931 . S
C1654 C1648 1.383 . S
C1654 C1653 1.379 . S
H1655 C1649 0.959 . S
H1656 C1649 0.961 . S
H1657 C1649 0.960 . S
H1658 C1650 0.930 . S
H1659 C1651 0.929 . S
H1660 C1668 0.929 . S
H1661 C1670 0.930 . S
H1662 C1672 0.930 . S
H1663 C1675 0.929 . S
H1664 C1678 0.930 . S
H1665 C1680 0.960 . S
H1666 C1680 0.960 . S
H1667 C1680 0.960 . S
C1668 H1660 0.929 . S
C1668 C1669 1.377 . S
C1668 C1670 1.384 . S
C1669 C1668 1.377 . S
C1669 C1675 1.390 . S
C1670 H1661 0.930 . S
C1670 C1668 1.384 . S
C1670 C1671 1.372 . S
C1671 C1670 1.372 . S
C1671 C1672 1.400 . S
C1671 C1676 1.490 . S
C1672 H1662 0.930 . S
C1672 C1671 1.400 . S
C1672 C1675 1.386 . S
H1673 C1689 0.930 . S
H1674 C1690 0.931 . S
C1675 H1663 0.929 . S
C1675 C1669 1.390 . S
C1675 C1672 1.386 . S
C1676 C1671 1.490 . S
C1676 C1678 1.395 . S
C1676 C1679 1.403 . S
H1677 C1683 0.930 . S
C1678 H1664 0.930 . S
C1678 C1676 1.395 . S
C1678 C1681 1.403 . S
C1679 C1676 1.403 . S
C1679 C1680 1.524 . S
C1679 C1683 1.400 . S
C1680 H1665 0.960 . S
C1680 H1666 0.960 . S
C1680 H1667 0.960 . S
C1680 C1679 1.524 . S
C1681 C1678 1.403 . S
C1681 C1682 1.392 . S
C1681 C1685 1.495 . S
C1682 C1681 1.392 . S
C1682 C1683 1.385 . S
C1682 C1684 1.478 . S
C1683 H1677 0.930 . S
C1683 C1679 1.400 . S
C1683 C1682 1.385 . S
C1684 C1682 1.478 . S
C1684 C1686 1.381 . S
C1684 C1690 1.383 . S
C1685 C1681 1.495 . S
C1685 H1691 0.959 . S
C1685 H1692 0.961 . S
C1685 H1693 0.960 . S
C1686 C1684 1.381 . S
C1686 C1687 1.394 . S
C1686 H1694 0.930 . S
C1687 C1686 1.394 . S
C1687 C1688 1.386 . S
C1687 H1695 0.929 1_655 S
C1688 C1687 1.386 . S
C1688 C1689 1.403 . S
C1689 H1673 0.930 . S
C1689 C1688 1.403 . S
C1689 C1690 1.379 . S
C1690 H1674 0.931 . S
C1690 C1684 1.383 . S
C1690 C1689 1.379 . S
H1691 C1685 0.959 . S
H1692 C1685 0.961 . S
H1693 C1685 0.960 . S
H1694 C1686 0.930 . S
H1695 C1687 0.929 1_455 S
H1696 C1704 0.929 . S
H1697 C1706 0.930 . S
H1698 C1708 0.930 . S
H1699 C1711 0.929 . S
H1700 C1714 0.930 . S
H1701 C1716 0.960 . S
H1702 C1716 0.960 . S
H1703 C1716 0.960 . S
C1704 H1696 0.929 . S
C1704 C1705 1.377 . S
C1704 C1706 1.384 . S
C1705 C1704 1.377 . S
C1705 C1711 1.390 . S
C1706 H1697 0.930 . S
C1706 C1704 1.384 . S
C1706 C1707 1.372 . S
C1707 C1706 1.372 . S
C1707 C1708 1.400 . S
C1707 C1712 1.490 . S
C1708 H1698 0.930 . S
C1708 C1707 1.400 . S
C1708 C1711 1.386 . S
H1709 C1725 0.930 . S
H1710 C1726 0.931 . S
C1711 H1699 0.929 . S
C1711 C1705 1.390 . S
C1711 C1708 1.386 . S
C1712 C1707 1.490 . S
C1712 C1714 1.395 . S
C1712 C1715 1.403 . S
H1713 C1719 0.930 . S
C1714 H1700 0.930 . S
C1714 C1712 1.395 . S
C1714 C1717 1.403 . S
C1715 C1712 1.403 . S
C1715 C1716 1.524 . S
C1715 C1719 1.400 . S
C1716 H1701 0.960 . S
C1716 H1702 0.960 . S
C1716 H1703 0.960 . S
C1716 C1715 1.524 . S
C1717 C1714 1.403 . S
C1717 C1718 1.392 . S
C1717 C1721 1.495 . S
C1718 C1717 1.392 . S
C1718 C1719 1.385 . S
C1718 C1720 1.478 . S
C1719 H1713 0.930 . S
C1719 C1715 1.400 . S
C1719 C1718 1.385 . S
C1720 C1718 1.478 . S
C1720 C1722 1.381 . S
C1720 C1726 1.383 . S
C1721 C1717 1.495 . S
C1721 H1727 0.959 . S
C1721 H1728 0.961 . S
C1721 H1729 0.960 . S
C1722 C1720 1.381 . S
C1722 C1723 1.394 . S
C1722 H1730 0.930 . S
C1723 C1722 1.394 . S
C1723 C1724 1.383 . S
C1723 H1731 0.929 . S
C1724 C1723 1.383 . S
C1724 C1725 1.377 . S
C1725 H1709 0.930 . S
C1725 C1724 1.377 . S
C1725 C1726 1.379 . S
C1726 H1710 0.931 . S
C1726 C1720 1.383 . S
C1726 C1725 1.379 . S
H1727 C1721 0.959 . S
H1728 C1721 0.961 . S
H1729 C1721 0.960 . S
H1730 C1722 0.930 . S
H1731 C1723 0.929 . S
H1732 C1740 0.929 . S
H1733 C1742 0.930 . S
H1734 C1744 0.930 . S
H1735 C1747 0.929 . S
H1736 C1750 0.930 . S
H1737 C1752 0.960 . S
H1738 C1752 0.960 . S
H1739 C1752 0.960 . S
C1740 H1732 0.929 . S
C1740 C1741 1.377 . S
C1740 C1742 1.384 . S
C1741 C1740 1.377 . S
C1741 C1747 1.390 . S
C1742 H1733 0.930 . S
C1742 C1740 1.384 . S
C1742 C1743 1.372 . S
C1743 C1742 1.372 . S
C1743 C1744 1.400 . S
C1743 C1748 1.490 . S
C1744 H1734 0.930 . S
C1744 C1743 1.400 . S
C1744 C1747 1.386 . S
H1745 C1761 0.930 . S
H1746 C1762 0.931 . S
C1747 H1735 0.929 . S
C1747 C1741 1.390 . S
C1747 C1744 1.386 . S
C1748 C1743 1.490 . S
C1748 C1750 1.395 . S
C1748 C1751 1.403 . S
H1749 C1755 0.930 . S
C1750 H1736 0.930 . S
C1750 C1748 1.395 . S
C1750 C1753 1.403 . S
C1751 C1748 1.403 . S
C1751 C1752 1.524 . S
C1751 C1755 1.400 . S
C1752 H1737 0.960 . S
C1752 H1738 0.960 . S
C1752 H1739 0.960 . S
C1752 C1751 1.524 . S
C1753 C1750 1.403 . S
C1753 C1754 1.392 . S
C1753 C1757 1.495 . S
C1754 C1753 1.392 . S
C1754 C1755 1.385 . S
C1754 C1756 1.478 . S
C1755 H1749 0.930 . S
C1755 C1751 1.400 . S
C1755 C1754 1.385 . S
C1756 C1754 1.478 . S
C1756 C1758 1.381 . S
C1756 C1762 1.383 . S
C1757 C1753 1.495 . S
C1757 H1763 0.959 . S
C1757 H1764 0.961 . S
C1757 H1765 0.960 . S
C1758 C1756 1.381 . S
C1758 C1759 1.394 . S
C1758 H1766 0.930 . S
C1759 C1758 1.394 . S
C1759 C1760 1.383 . S
C1759 H1767 0.929 . S
C1760 C1759 1.383 . S
C1760 C1761 1.377 . S
C1761 H1745 0.930 . S
C1761 C1760 1.377 . S
C1761 C1762 1.379 . S
C1762 H1746 0.931 . S
C1762 C1756 1.383 . S
C1762 C1761 1.379 . S
H1763 C1757 0.959 . S
H1764 C1757 0.961 . S
H1765 C1757 0.960 . S
H1766 C1758 0.930 . S
H1767 C1759 0.929 . S
H1768 C1776 0.929 . S
H1769 C1778 0.930 . S
H1770 C1780 0.930 . S
H1771 C1783 0.929 . S
H1772 C1786 0.930 . S
H1773 C1788 0.960 . S
H1774 C1788 0.960 . S
H1775 C1788 0.960 . S
C1776 H1768 0.929 . S
C1776 C1777 1.377 . S
C1776 C1778 1.384 . S
C1777 C1776 1.377 . S
C1777 C1783 1.390 . S
C1778 H1769 0.930 . S
C1778 C1776 1.384 . S
C1778 C1779 1.372 . S
C1779 C1778 1.372 . S
C1779 C1780 1.400 . S
C1779 C1784 1.490 . S
C1780 H1770 0.930 . S
C1780 C1779 1.400 . S
C1780 C1783 1.386 . S
H1781 C1797 0.930 . S
H1782 C1798 0.931 . S
C1783 H1771 0.929 . S
C1783 C1777 1.390 . S
C1783 C1780 1.386 . S
C1784 C1779 1.490 . S
C1784 C1786 1.395 . S
C1784 C1787 1.403 . S
H1785 C1791 0.930 . S
C1786 H1772 0.930 . S
C1786 C1784 1.395 . S
C1786 C1789 1.403 . S
C1787 C1784 1.403 . S
C1787 C1788 1.524 . S
C1787 C1791 1.400 . S
C1788 H1773 0.960 . S
C1788 H1774 0.960 . S
C1788 H1775 0.960 . S
C1788 C1787 1.524 . S
C1789 C1786 1.403 . S
C1789 C1790 1.392 . S
C1789 C1793 1.495 . S
C1790 C1789 1.392 . S
C1790 C1791 1.385 . S
C1790 C1792 1.478 . S
C1791 H1785 0.930 . S
C1791 C1787 1.400 . S
C1791 C1790 1.385 . S
C1792 C1790 1.478 . S
C1792 C1794 1.381 . S
C1792 C1798 1.383 . S
C1793 C1789 1.495 . S
C1793 H1799 0.959 . S
C1793 H1800 0.961 . S
C1793 H1801 0.960 . S
C1794 C1792 1.381 . S
C1794 C1795 1.394 . S
C1794 H1802 0.930 . S
C1795 C1794 1.394 . S
C1795 C1796 1.383 . S
C1795 H1803 0.929 . S
C1796 C1795 1.383 . S
C1796 C1797 1.377 . S
C1797 H1781 0.930 . S
C1797 C1796 1.377 . S
C1797 C1798 1.379 . S
C1798 H1782 0.931 . S
C1798 C1792 1.383 . S
C1798 C1797 1.379 . S
H1799 C1793 0.959 . S
H1800 C1793 0.961 . S
H1801 C1793 0.960 . S
H1802 C1794 0.930 . S
H1803 C1795 0.929 . S
H1804 C1812 0.929 . S
H1805 C1814 0.930 . S
H1806 C1816 0.930 . S
H1807 C1819 0.929 . S
H1808 C1822 0.930 . S
H1809 C1824 0.960 . S
H1810 C1824 0.960 . S
H1811 C1824 0.960 . S
C1812 H1804 0.929 . S
C1812 C1813 1.377 . S
C1812 C1814 1.384 . S
C1813 C1812 1.377 . S
C1813 C1819 1.390 . S
C1814 H1805 0.930 . S
C1814 C1812 1.384 . S
C1814 C1815 1.372 . S
C1815 C1814 1.372 . S
C1815 C1816 1.400 . S
C1815 C1820 1.490 . S
C1816 H1806 0.930 . S
C1816 C1815 1.400 . S
C1816 C1819 1.386 . S
H1817 C1833 0.930 . S
H1818 C1834 0.931 . S
C1819 H1807 0.929 . S
C1819 C1813 1.390 . S
C1819 C1816 1.386 . S
C1820 C1815 1.490 . S
C1820 C1822 1.395 . S
C1820 C1823 1.403 . S
H1821 C1827 0.930 . S
C1822 H1808 0.930 . S
C1822 C1820 1.395 . S
C1822 C1825 1.403 . S
C1823 C1820 1.403 . S
C1823 C1824 1.524 . S
C1823 C1827 1.400 . S
C1824 H1809 0.960 . S
C1824 H1810 0.960 . S
C1824 H1811 0.960 . S
C1824 C1823 1.524 . S
C1825 C1822 1.403 . S
C1825 C1826 1.392 . S
C1825 C1829 1.495 . S
C1826 C1825 1.392 . S
C1826 C1827 1.385 . S
C1826 C1828 1.478 . S
C1827 H1821 0.930 . S
C1827 C1823 1.400 . S
C1827 C1826 1.385 . S
C1828 C1826 1.478 . S
C1828 C1830 1.381 . S
C1828 C1834 1.383 . S
C1829 C1825 1.495 . S
C1829 H1835 0.959 . S
C1829 H1836 0.961 . S
C1829 H1837 0.960 . S
C1830 C1828 1.381 . S
C1830 C1831 1.394 . S
C1830 H1838 0.930 . S
C1831 C1830 1.394 . S
C1831 C1832 1.383 . S
C1831 H1839 0.929 . S
C1832 C1831 1.383 . S
C1832 C1833 1.377 . S
C1833 H1817 0.930 . S
C1833 C1832 1.377 . S
C1833 C1834 1.379 . S
C1834 H1818 0.931 . S
C1834 C1828 1.383 . S
C1834 C1833 1.379 . S
H1835 C1829 0.959 . S
H1836 C1829 0.961 . S
H1837 C1829 0.960 . S
H1838 C1830 0.930 . S
H1839 C1831 0.929 . S
H1840 C1848 0.929 . S
H1841 C1850 0.930 . S
H1842 C1852 0.930 . S
H1843 C1855 0.929 . S
H1844 C1858 0.930 . S
H1845 C1860 0.960 . S
H1846 C1860 0.960 . S
H1847 C1860 0.960 . S
C1848 H1840 0.929 . S
C1848 C1849 1.377 . S
C1848 C1850 1.384 . S
C1849 C1848 1.377 . S
C1849 C1855 1.390 . S
C1850 H1841 0.930 . S
C1850 C1848 1.384 . S
C1850 C1851 1.372 . S
C1851 C1850 1.372 . S
C1851 C1852 1.400 . S
C1851 C1856 1.490 . S
C1852 H1842 0.930 . S
C1852 C1851 1.400 . S
C1852 C1855 1.386 . S
H1853 C1869 0.930 . S
H1854 C1870 0.931 . S
C1855 H1843 0.929 . S
C1855 C1849 1.390 . S
C1855 C1852 1.386 . S
C1856 C1851 1.490 . S
C1856 C1858 1.395 . S
C1856 C1859 1.403 . S
H1857 C1863 0.930 . S
C1858 H1844 0.930 . S
C1858 C1856 1.395 . S
C1858 C1861 1.403 . S
C1859 C1856 1.403 . S
C1859 C1860 1.524 . S
C1859 C1863 1.400 . S
C1860 H1845 0.960 . S
C1860 H1846 0.960 . S
C1860 H1847 0.960 . S
C1860 C1859 1.524 . S
C1861 C1858 1.403 . S
C1861 C1862 1.392 . S
C1861 C1865 1.495 . S
C1862 C1861 1.392 . S
C1862 C1863 1.385 . S
C1862 C1864 1.478 . S
C1863 H1857 0.930 . S
C1863 C1859 1.400 . S
C1863 C1862 1.385 . S
C1864 C1862 1.478 . S
C1864 C1866 1.381 . S
C1864 C1870 1.383 . S
C1865 C1861 1.495 . S
C1865 H1871 0.959 . S
C1865 H1872 0.961 . S
C1865 H1873 0.960 . S
C1866 C1864 1.381 . S
C1866 C1867 1.394 . S
C1866 H1874 0.930 . S
C1867 C1866 1.394 . S
C1867 C1868 1.383 . S
C1867 H1875 0.929 . S
C1868 C1867 1.383 . S
C1868 C1869 1.377 . S
C1869 H1853 0.930 . S
C1869 C1868 1.377 . S
C1869 C1870 1.379 . S
C1870 H1854 0.931 . S
C1870 C1864 1.383 . S
C1870 C1869 1.379 . S
H1871 C1865 0.959 . S
H1872 C1865 0.961 . S
H1873 C1865 0.960 . S
H1874 C1866 0.930 . S
H1875 C1867 0.929 . S
H1876 C1884 0.929 . S
H1877 C1886 0.930 . S
H1878 C1888 0.930 . S
H1879 C1891 0.929 . S
H1880 C1894 0.930 . S
H1881 C1896 0.960 . S
H1882 C1896 0.960 . S
H1883 C1896 0.960 . S
C1884 H1876 0.929 . S
C1884 C1885 1.377 . S
C1884 C1886 1.384 . S
C1885 C1884 1.377 . S
C1885 C1891 1.390 . S
C1886 H1877 0.930 . S
C1886 C1884 1.384 . S
C1886 C1887 1.372 . S
C1887 C1886 1.372 . S
C1887 C1888 1.400 . S
C1887 C1892 1.490 . S
C1888 H1878 0.930 . S
C1888 C1887 1.400 . S
C1888 C1891 1.386 . S
H1889 C1905 0.930 . S
H1890 C1906 0.931 . S
C1891 H1879 0.929 . S
C1891 C1885 1.390 . S
C1891 C1888 1.386 . S
C1892 C1887 1.490 . S
C1892 C1894 1.395 . S
C1892 C1895 1.403 . S
H1893 C1899 0.930 . S
C1894 H1880 0.930 . S
C1894 C1892 1.395 . S
C1894 C1897 1.403 . S
C1895 C1892 1.403 . S
C1895 C1896 1.524 . S
C1895 C1899 1.400 . S
C1896 H1881 0.960 . S
C1896 H1882 0.960 . S
C1896 H1883 0.960 . S
C1896 C1895 1.524 . S
C1897 C1894 1.403 . S
C1897 C1898 1.392 . S
C1897 C1901 1.495 . S
C1898 C1897 1.392 . S
C1898 C1899 1.385 . S
C1898 C1900 1.478 . S
C1899 H1893 0.930 . S
C1899 C1895 1.400 . S
C1899 C1898 1.385 . S
C1900 C1898 1.478 . S
C1900 C1902 1.381 . S
C1900 C1906 1.383 . S
C1901 C1897 1.495 . S
C1901 H1907 0.959 . S
C1901 H1908 0.961 . S
C1901 H1909 0.960 . S
C1902 C1900 1.381 . S
C1902 C1903 1.394 . S
C1902 H1910 0.930 . S
C1903 C1902 1.394 . S
C1903 C1904 1.383 . S
C1903 H1911 0.929 . S
C1904 C1903 1.383 . S
C1904 C1905 1.377 . S
C1905 H1889 0.930 . S
C1905 C1904 1.377 . S
C1905 C1906 1.379 . S
C1906 H1890 0.931 . S
C1906 C1900 1.383 . S
C1906 C1905 1.379 . S
H1907 C1901 0.959 . S
H1908 C1901 0.961 . S
H1909 C1901 0.960 . S
H1910 C1902 0.930 . S
H1911 C1903 0.929 . S
H1912 C1920 0.929 . S
H1913 C1922 0.930 . S
H1914 C1924 0.930 . S
H1915 C1927 0.929 . S
H1916 C1930 0.930 . S
H1917 C1932 0.960 . S
H1918 C1932 0.960 . S
H1919 C1932 0.960 . S
C1920 H1912 0.929 . S
C1920 C1921 1.377 . S
C1920 C1922 1.384 . S
C1921 C1920 1.377 . S
C1921 C1927 1.390 . S
C1922 H1913 0.930 . S
C1922 C1920 1.384 . S
C1922 C1923 1.372 . S
C1923 C1922 1.372 . S
C1923 C1924 1.400 . S
C1923 C1928 1.490 . S
C1924 H1914 0.930 . S
C1924 C1923 1.400 . S
C1924 C1927 1.386 . S
H1925 C1941 0.930 . S
H1926 C1942 0.931 . S
C1927 H1915 0.929 . S
C1927 C1921 1.390 . S
C1927 C1924 1.386 . S
C1928 C1923 1.490 . S
C1928 C1930 1.395 . S
C1928 C1931 1.403 . S
H1929 C1935 0.930 . S
C1930 H1916 0.930 . S
C1930 C1928 1.395 . S
C1930 C1933 1.403 . S
C1931 C1928 1.403 . S
C1931 C1932 1.524 . S
C1931 C1935 1.400 . S
C1932 H1917 0.960 . S
C1932 H1918 0.960 . S
C1932 H1919 0.960 . S
C1932 C1931 1.524 . S
C1933 C1930 1.403 . S
C1933 C1934 1.392 . S
C1933 C1937 1.495 . S
C1934 C1933 1.392 . S
C1934 C1935 1.385 . S
C1934 C1936 1.478 . S
C1935 H1929 0.930 . S
C1935 C1931 1.400 . S
C1935 C1934 1.385 . S
C1936 C1934 1.478 . S
C1936 C1938 1.381 . S
C1936 C1942 1.383 . S
C1937 C1933 1.495 . S
C1937 H1943 0.959 . S
C1937 H1944 0.961 . S
C1937 H1945 0.960 . S
C1938 C1936 1.381 . S
C1938 C1939 1.394 . S
C1938 H1946 0.930 . S
C1939 C1938 1.394 . S
C1939 C1940 1.383 . S
C1939 H1947 0.929 . S
C1940 C1939 1.383 . S
C1940 C1941 1.377 . S
C1941 H1925 0.930 . S
C1941 C1940 1.377 . S
C1941 C1942 1.379 . S
C1942 H1926 0.931 . S
C1942 C1936 1.383 . S
C1942 C1941 1.379 . S
H1943 C1937 0.959 . S
H1944 C1937 0.961 . S
H1945 C1937 0.960 . S
H1946 C1938 0.930 . S
H1947 C1939 0.929 . S
H1948 C1956 0.929 . S
H1949 C1958 0.930 . S
H1950 C1960 0.930 . S
H1951 C1963 0.929 . S
H1952 C1966 0.930 . S
H1953 C1968 0.960 . S
H1954 C1968 0.960 . S
H1955 C1968 0.960 . S
C1956 H1948 0.929 . S
C1956 C1957 1.377 . S
C1956 C1958 1.384 . S
C1957 C1956 1.377 . S
C1957 C1963 1.390 . S
C1958 H1949 0.930 . S
C1958 C1956 1.384 . S
C1958 C1959 1.372 . S
C1959 C1958 1.372 . S
C1959 C1960 1.400 . S
C1959 C1964 1.490 . S
C1960 H1950 0.930 . S
C1960 C1959 1.400 . S
C1960 C1963 1.386 . S
H1961 C1977 0.930 . S
H1962 C1978 0.931 . S
C1963 H1951 0.929 . S
C1963 C1957 1.390 . S
C1963 C1960 1.386 . S
C1964 C1959 1.490 . S
C1964 C1966 1.395 . S
C1964 C1967 1.403 . S
H1965 C1971 0.930 . S
C1966 H1952 0.930 . S
C1966 C1964 1.395 . S
C1966 C1969 1.403 . S
C1967 C1964 1.403 . S
C1967 C1968 1.524 . S
C1967 C1971 1.400 . S
C1968 H1953 0.960 . S
C1968 H1954 0.960 . S
C1968 H1955 0.960 . S
C1968 C1967 1.524 . S
C1969 C1966 1.403 . S
C1969 C1970 1.392 . S
C1969 C1973 1.495 . S
C1970 C1969 1.392 . S
C1970 C1971 1.385 . S
C1970 C1972 1.478 . S
C1971 H1965 0.930 . S
C1971 C1967 1.400 . S
C1971 C1970 1.385 . S
C1972 C1970 1.478 . S
C1972 C1974 1.381 . S
C1972 C1978 1.383 . S
C1973 C1969 1.495 . S
C1973 H1979 0.959 . S
C1973 H1980 0.961 . S
C1973 H1981 0.960 . S
C1974 C1972 1.381 . S
C1974 C1975 1.394 . S
C1974 H1982 0.930 . S
C1975 C1974 1.394 . S
C1975 C1976 1.383 . S
C1975 H1983 0.929 . S
C1976 C1975 1.383 . S
C1976 C1977 1.377 . S
C1977 H1961 0.930 . S
C1977 C1976 1.377 . S
C1977 C1978 1.379 . S
C1978 H1962 0.931 . S
C1978 C1972 1.383 . S
C1978 C1977 1.379 . S
H1979 C1973 0.959 . S
H1980 C1973 0.961 . S
H1981 C1973 0.960 . S
H1982 C1974 0.930 . S
H1983 C1975 0.929 . S
H1984 C1992 0.929 . S
H1985 C1994 0.930 . S
H1986 C1996 0.930 . S
H1987 C1999 0.985 . S
H1988 C2002 0.930 . S
H1989 C2004 0.960 . S
H1990 C2004 0.960 . S
H1991 C2004 0.960 . S
C1992 H1984 0.929 . S
C1992 C1993 1.377 . S
C1992 C1994 1.384 . S
C1993 C1992 1.377 . S
C1993 C1999 1.390 . S
C1994 H1985 0.930 . S
C1994 C1992 1.384 . S
C1994 C1995 1.372 . S
C1995 C1994 1.372 . S
C1995 C1996 1.400 . S
C1995 C2000 1.490 . S
C1996 H1986 0.930 . S
C1996 C1995 1.400 . S
C1996 C1999 1.386 . S
H1997 C2013 0.911 1_655 S
H1998 C2014 0.929 . S
C1999 H1987 0.985 . S
C1999 C1993 1.390 . S
C1999 C1996 1.386 . S
C2000 C1995 1.490 . S
C2000 C2002 1.395 . S
C2000 C2003 1.403 . S
H2001 C2007 0.930 . S
C2002 H1988 0.930 . S
C2002 C2000 1.395 . S
C2002 C2005 1.403 . S
C2003 C2000 1.403 . S
C2003 C2004 1.524 . S
C2003 C2007 1.400 . S
C2004 H1989 0.960 . S
C2004 H1990 0.960 . S
C2004 H1991 0.960 . S
C2004 C2003 1.524 . S
C2005 C2002 1.403 . S
C2005 C2006 1.392 . S
C2005 C2009 1.495 . S
C2006 C2005 1.392 . S
C2006 C2007 1.385 . S
C2006 C2008 1.478 . S
C2007 H2001 0.930 . S
C2007 C2003 1.400 . S
C2007 C2006 1.385 . S
C2008 C2006 1.478 . S
C2008 C2010 1.381 . S
C2008 C2014 1.383 . S
C2009 C2005 1.495 . S
C2009 H2015 0.959 . S
C2009 H2016 0.961 . S
C2009 H2017 0.960 . S
C2010 C2008 1.381 . S
C2010 C2011 1.394 . S
C2010 H2018 0.930 . S
C2011 C2010 1.394 . S
C2011 C2012 1.383 . S
C2011 H2019 0.929 . S
C2012 C2011 1.383 . S
C2012 C2013 1.377 . S
C2013 H1997 0.911 1_455 S
C2013 C2012 1.377 . S
C2013 C2014 1.379 . S
C2014 H1998 0.929 . S
C2014 C2008 1.383 . S
C2014 C2013 1.379 . S
H2015 C2009 0.959 . S
H2016 C2009 0.961 . S
H2017 C2009 0.960 . S
H2018 C2010 0.930 . S
H2019 C2011 0.929 . S
H2020 C2028 0.929 . S
H2021 C2030 0.930 . S
H2022 C2032 0.930 . S
H2023 C2035 0.929 . S
H2024 C2038 0.930 . S
H2025 C2040 0.960 . S
H2026 C2040 0.960 . S
H2027 C2040 0.960 . S
C2028 H2020 0.929 . S
C2028 C2029 1.377 . S
C2028 C2030 1.384 . S
C2029 C2028 1.377 . S
C2029 C2035 1.390 . S
C2030 H2021 0.930 . S
C2030 C2028 1.384 . S
C2030 C2031 1.372 . S
C2031 C2030 1.372 . S
C2031 C2032 1.400 . S
C2031 C2036 1.490 . S
C2032 H2022 0.930 . S
C2032 C2031 1.400 . S
C2032 C2035 1.386 . S
H2033 C2049 0.930 . S
H2034 C2050 0.931 . S
C2035 H2023 0.929 . S
C2035 C2029 1.390 . S
C2035 C2032 1.386 . S
C2036 C2031 1.490 . S
C2036 C2038 1.395 . S
C2036 C2039 1.403 . S
H2037 C2043 0.930 . S
C2038 H2024 0.930 . S
C2038 C2036 1.395 . S
C2038 C2041 1.403 . S
C2039 C2036 1.403 . S
C2039 C2040 1.524 . S
C2039 C2043 1.400 . S
C2040 H2025 0.960 . S
C2040 H2026 0.960 . S
C2040 H2027 0.960 . S
C2040 C2039 1.524 . S
C2041 C2038 1.403 . S
C2041 C2042 1.392 . S
C2041 C2045 1.495 . S
C2042 C2041 1.392 . S
C2042 C2043 1.385 . S
C2042 C2044 1.478 . S
C2043 H2037 0.930 . S
C2043 C2039 1.400 . S
C2043 C2042 1.385 . S
C2044 C2042 1.478 . S
C2044 C2046 1.381 . S
C2044 C2050 1.383 . S
C2045 C2041 1.495 . S
C2045 H2051 0.959 . S
C2045 H2052 0.961 . S
C2045 H2053 0.960 . S
C2046 C2044 1.381 . S
C2046 C2047 1.394 . S
C2046 H2054 0.930 . S
C2047 C2046 1.394 . S
C2047 C2048 1.383 . S
C2047 H2055 0.929 . S
C2048 C2047 1.383 . S
C2048 C2049 1.377 . S
C2049 H2033 0.930 . S
C2049 C2048 1.377 . S
C2049 C2050 1.379 . S
C2050 H2034 0.931 . S
C2050 C2044 1.383 . S
C2050 C2049 1.379 . S
H2051 C2045 0.959 . S
H2052 C2045 0.961 . S
H2053 C2045 0.960 . S
H2054 C2046 0.930 . S
H2055 C2047 0.929 . S
H2056 C2064 0.929 . S
H2057 C2066 0.930 . S
H2058 C2068 0.930 . S
H2059 C2071 0.929 . S
H2060 C2074 0.930 . S
H2061 C2076 0.960 . S
H2062 C2076 0.960 . S
H2063 C2076 0.960 . S
C2064 H2056 0.929 . S
C2064 C2065 1.377 . S
C2064 C2066 1.384 . S
C2065 C2064 1.377 . S
C2065 C2071 1.390 . S
C2066 H2057 0.930 . S
C2066 C2064 1.384 . S
C2066 C2067 1.372 . S
C2067 C2066 1.372 . S
C2067 C2068 1.400 . S
C2067 C2072 1.490 . S
C2068 H2058 0.930 . S
C2068 C2067 1.400 . S
C2068 C2071 1.386 . S
H2069 C2085 0.930 1_554 S
H2070 C2086 0.931 . S
C2071 H2059 0.929 . S
C2071 C2065 1.390 . S
C2071 C2068 1.386 . S
C2072 C2067 1.490 . S
C2072 C2074 1.395 . S
C2072 C2075 1.403 . S
H2073 C2079 0.930 . S
C2074 H2060 0.930 . S
C2074 C2072 1.395 . S
C2074 C2077 1.403 . S
C2075 C2072 1.403 . S
C2075 C2076 1.524 . S
C2075 C2079 1.400 . S
C2076 H2061 0.960 . S
C2076 H2062 0.960 . S
C2076 H2063 0.960 . S
C2076 C2075 1.524 . S
C2077 C2074 1.403 . S
C2077 C2078 1.392 . S
C2077 C2081 1.495 . S
C2078 C2077 1.392 . S
C2078 C2079 1.385 . S
C2078 C2080 1.478 . S
C2079 H2073 0.930 . S
C2079 C2075 1.400 . S
C2079 C2078 1.385 . S
C2080 C2078 1.478 . S
C2080 C2082 1.381 . S
C2080 C2086 1.383 . S
C2081 C2077 1.495 . S
C2081 H2087 0.959 . S
C2081 H2088 0.961 . S
C2081 H2089 0.960 . S
C2082 C2080 1.381 . S
C2082 C2083 1.394 . S
C2082 H2090 0.930 . S
C2083 C2082 1.394 . S
C2083 C2084 1.383 . S
C2083 H2091 0.929 . S
C2084 C2083 1.383 . S
C2084 C2085 1.377 . S
C2085 H2069 0.930 1_556 S
C2085 C2084 1.377 . S
C2085 C2086 1.379 . S
C2086 H2070 0.931 . S
C2086 C2080 1.383 . S
C2086 C2085 1.379 . S
H2087 C2081 0.959 . S
H2088 C2081 0.961 . S
H2089 C2081 0.960 . S
H2090 C2082 0.930 . S
H2091 C2083 0.929 . S
H2092 C2100 0.929 . S
H2093 C2102 0.930 . S
H2094 C2104 0.930 . S
H2095 C2107 0.929 . S
H2096 C2110 0.930 . S
H2097 C2112 0.960 . S
H2098 C2112 0.960 . S
H2099 C2112 0.960 . S
C2100 H2092 0.929 . S
C2100 C2101 1.377 . S
C2100 C2102 1.384 . S
C2101 C2100 1.377 . S
C2101 C2107 1.390 . S
C2102 H2093 0.930 . S
C2102 C2100 1.384 . S
C2102 C2103 1.372 . S
C2103 C2102 1.372 . S
C2103 C2104 1.400 . S
C2103 C2108 1.490 . S
C2104 H2094 0.930 . S
C2104 C2103 1.400 . S
C2104 C2107 1.386 . S
H2105 C2121 0.930 . S
H2106 C2122 0.931 . S
C2107 H2095 0.929 . S
C2107 C2101 1.390 . S
C2107 C2104 1.386 . S
C2108 C2103 1.490 . S
C2108 C2110 1.395 . S
C2108 C2111 1.403 . S
H2109 C2115 0.930 . S
C2110 H2096 0.930 . S
C2110 C2108 1.395 . S
C2110 C2113 1.403 . S
C2111 C2108 1.403 . S
C2111 C2112 1.524 . S
C2111 C2115 1.400 . S
C2112 H2097 0.960 . S
C2112 H2098 0.960 . S
C2112 H2099 0.960 . S
C2112 C2111 1.524 . S
C2113 C2110 1.403 . S
C2113 C2114 1.392 . S
C2113 C2117 1.495 . S
C2114 C2113 1.392 . S
C2114 C2115 1.385 . S
C2114 C2116 1.478 . S
C2115 H2109 0.930 . S
C2115 C2111 1.400 . S
C2115 C2114 1.385 . S
C2116 C2114 1.478 . S
C2116 C2118 1.381 . S
C2116 C2122 1.383 . S
C2117 C2113 1.495 . S
C2117 H2123 0.959 . S
C2117 H2124 0.961 . S
C2117 H2125 0.960 . S
C2118 C2116 1.381 . S
C2118 C2119 1.394 . S
C2118 H2126 0.930 . S
C2119 C2118 1.394 . S
C2119 C2120 1.383 . S
C2119 H2127 0.929 . S
C2120 C2119 1.383 . S
C2120 C2121 1.377 . S
C2121 H2105 0.930 . S
C2121 C2120 1.377 . S
C2121 C2122 1.379 . S
C2122 H2106 0.931 . S
C2122 C2116 1.383 . S
C2122 C2121 1.379 . S
H2123 C2117 0.959 . S
H2124 C2117 0.961 . S
H2125 C2117 0.960 . S
H2126 C2118 0.930 . S
H2127 C2119 0.929 . S
H2128 C2136 0.929 . S
H2129 C2138 0.930 . S
H2130 C2140 0.930 . S
H2131 C2143 0.929 . S
H2132 C2146 0.930 . S
H2133 C2148 0.960 . S
H2134 C2148 0.960 . S
H2135 C2148 0.960 . S
C2136 H2128 0.929 . S
C2136 C2137 1.377 . S
C2136 C2138 1.384 . S
C2137 C2136 1.377 . S
C2137 C2143 1.390 . S
C2138 H2129 0.930 . S
C2138 C2136 1.384 . S
C2138 C2139 1.372 . S
C2139 C2138 1.372 . S
C2139 C2140 1.400 . S
C2139 C2144 1.490 . S
C2140 H2130 0.930 . S
C2140 C2139 1.400 . S
C2140 C2143 1.386 . S
H2141 C2157 0.930 . S
H2142 C2158 0.931 . S
C2143 H2131 0.929 . S
C2143 C2137 1.390 . S
C2143 C2140 1.386 . S
C2144 C2139 1.490 . S
C2144 C2146 1.395 . S
C2144 C2147 1.403 . S
H2145 C2151 0.930 . S
C2146 H2132 0.930 . S
C2146 C2144 1.395 . S
C2146 C2149 1.403 . S
C2147 C2144 1.403 . S
C2147 C2148 1.524 . S
C2147 C2151 1.400 . S
C2148 H2133 0.960 . S
C2148 H2134 0.960 . S
C2148 H2135 0.960 . S
C2148 C2147 1.524 . S
C2149 C2146 1.403 . S
C2149 C2150 1.392 . S
C2149 C2153 1.495 . S
C2150 C2149 1.392 . S
C2150 C2151 1.385 . S
C2150 C2152 1.478 . S
C2151 H2145 0.930 . S
C2151 C2147 1.400 . S
C2151 C2150 1.385 . S
C2152 C2150 1.478 . S
C2152 C2154 1.381 . S
C2152 C2158 1.383 . S
C2153 C2149 1.495 . S
C2153 H2159 0.959 . S
C2153 H2160 0.961 . S
C2153 H2161 0.960 . S
C2154 C2152 1.381 . S
C2154 C2155 1.394 . S
C2154 H2162 0.878 1_545 S
C2155 C2154 1.394 . S
C2155 C2156 1.383 . S
C2155 H2163 0.929 1_545 S
C2156 C2155 1.383 . S
C2156 C2157 1.377 . S
C2157 H2141 0.930 . S
C2157 C2156 1.377 . S
C2157 C2158 1.379 . S
C2158 H2142 0.931 . S
C2158 C2152 1.383 . S
C2158 C2157 1.379 . S
H2159 C2153 0.959 . S
H2160 C2153 0.961 . S
H2161 C2153 0.960 . S
H2162 C2154 0.878 1_565 S
H2163 C2155 0.929 1_565 S
H2164 C2172 0.929 . S
H2165 C2174 0.930 . S
H2166 C2176 0.930 . S
H2167 C2179 0.929 . S
H2168 C2182 0.930 . S
H2169 C2184 0.960 . S
H2170 C2184 0.960 . S
H2171 C2184 0.960 . S
C2172 H2164 0.929 . S
C2172 C2173 1.377 . S
C2172 C2174 1.384 . S
C2173 C2172 1.377 . S
C2173 C2179 1.390 . S
C2174 H2165 0.930 . S
C2174 C2172 1.384 . S
C2174 C2175 1.372 . S
C2175 C2174 1.372 . S
C2175 C2176 1.400 . S
C2175 C2180 1.490 . S
C2176 H2166 0.930 . S
C2176 C2175 1.400 . S
C2176 C2179 1.386 . S
H2177 C2193 0.930 . S
H2178 C2194 0.931 . S
C2179 H2167 0.929 . S
C2179 C2173 1.390 . S
C2179 C2176 1.386 . S
C2180 C2175 1.490 . S
C2180 C2182 1.395 . S
C2180 C2183 1.403 . S
H2181 C2187 0.930 . S
C2182 H2168 0.930 . S
C2182 C2180 1.395 . S
C2182 C2185 1.403 . S
C2183 C2180 1.403 . S
C2183 C2184 1.524 . S
C2183 C2187 1.400 . S
C2184 H2169 0.960 . S
C2184 H2170 0.960 . S
C2184 H2171 0.960 . S
C2184 C2183 1.524 . S
C2185 C2182 1.403 . S
C2185 C2186 1.392 . S
C2185 C2189 1.495 . S
C2186 C2185 1.392 . S
C2186 C2187 1.385 . S
C2186 C2188 1.478 . S
C2187 H2181 0.930 . S
C2187 C2183 1.400 . S
C2187 C2186 1.385 . S
C2188 C2186 1.478 . S
C2188 C2190 1.381 . S
C2188 C2194 1.383 . S
C2189 C2185 1.495 . S
C2189 H2195 0.959 . S
C2189 H2196 0.961 . S
C2189 H2197 0.960 . S
C2190 C2188 1.381 . S
C2190 C2191 1.394 . S
C2190 H2198 0.930 . S
C2191 C2190 1.394 . S
C2191 C2192 1.383 . S
C2191 H2199 0.929 . S
C2192 C2191 1.383 . S
C2192 C2193 1.377 . S
C2193 H2177 0.930 . S
C2193 C2192 1.377 . S
C2193 C2194 1.379 . S
C2194 H2178 0.931 . S
C2194 C2188 1.383 . S
C2194 C2193 1.379 . S
H2195 C2189 0.959 . S
H2196 C2189 0.961 . S
H2197 C2189 0.960 . S
H2198 C2190 0.930 . S
H2199 C2191 0.929 . S
H2200 C2208 0.929 . S
H2201 C2210 0.930 . S
H2202 C2212 0.930 . S
H2203 C2215 0.929 . S
H2204 C2218 0.930 . S
H2205 C2220 0.948 1_565 S
H2206 C2220 0.964 . S
H2207 C2220 0.957 1_565 S
C2208 H2200 0.929 . S
C2208 C2209 1.377 . S
C2208 C2210 1.384 . S
C2209 C2208 1.377 . S
C2209 C2215 1.390 . S
C2210 H2201 0.930 . S
C2210 C2208 1.384 . S
C2210 C2211 1.372 . S
C2211 C2210 1.372 . S
C2211 C2212 1.400 . S
C2211 C2216 1.490 . S
C2212 H2202 0.930 . S
C2212 C2211 1.400 . S
C2212 C2215 1.386 . S
H2213 C2229 0.930 . S
H2214 C2230 0.931 . S
C2215 H2203 0.929 . S
C2215 C2209 1.390 . S
C2215 C2212 1.386 . S
C2216 C2211 1.490 . S
C2216 C2218 1.395 . S
C2216 C2219 1.403 . S
H2217 C2223 0.930 . S
C2218 H2204 0.930 . S
C2218 C2216 1.395 . S
C2218 C2221 1.403 . S
C2219 C2216 1.403 . S
C2219 C2220 1.536 . S
C2219 C2223 1.400 . S
C2220 H2205 0.948 1_545 S
C2220 H2206 0.964 . S
C2220 H2207 0.957 1_545 S
C2220 C2219 1.536 . S
C2221 C2218 1.403 . S
C2221 C2222 1.392 . S
C2221 C2225 1.495 . S
C2222 C2221 1.392 . S
C2222 C2223 1.385 . S
C2222 C2224 1.478 . S
C2223 H2217 0.930 . S
C2223 C2219 1.400 . S
C2223 C2222 1.385 . S
C2224 C2222 1.478 . S
C2224 C2226 1.381 . S
C2224 C2230 1.383 . S
C2225 C2221 1.495 . S
C2225 H2231 0.959 . S
C2225 H2232 0.961 . S
C2225 H2233 0.960 . S
C2226 C2224 1.381 . S
C2226 C2227 1.394 . S
C2226 H2234 0.930 . S
C2227 C2226 1.394 . S
C2227 C2228 1.383 . S
C2227 H2235 0.929 . S
C2228 C2227 1.383 . S
C2228 C2229 1.377 . S
C2229 H2213 0.930 . S
C2229 C2228 1.377 . S
C2229 C2230 1.379 . S
C2230 H2214 0.931 . S
C2230 C2224 1.383 . S
C2230 C2229 1.379 . S
H2231 C2225 0.959 . S
H2232 C2225 0.961 . S
H2233 C2225 0.960 . S
H2234 C2226 0.930 . S
H2235 C2227 0.929 . S
H2236 C2244 0.929 . S
H2237 C2246 0.930 . S
H2238 C2248 0.930 . S
H2239 C2251 0.929 . S
H2240 C2254 0.930 . S
H2241 C2256 0.960 . S
H2242 C2256 0.960 . S
H2243 C2256 0.960 . S
C2244 H2236 0.929 . S
C2244 C2245 1.377 . S
C2244 C2246 1.384 . S
C2245 C2244 1.377 . S
C2245 C2251 1.390 . S
C2246 H2237 0.930 . S
C2246 C2244 1.384 . S
C2246 C2247 1.372 . S
C2247 C2246 1.372 . S
C2247 C2248 1.400 . S
C2247 C2252 1.490 . S
C2248 H2238 0.930 . S
C2248 C2247 1.400 . S
C2248 C2251 1.386 . S
H2249 C2265 0.930 . S
H2250 C2266 0.931 . S
C2251 H2239 0.929 . S
C2251 C2245 1.390 . S
C2251 C2248 1.386 . S
C2252 C2247 1.490 . S
C2252 C2254 1.395 . S
C2252 C2255 1.403 . S
H2253 C2259 0.930 . S
C2254 H2240 0.930 . S
C2254 C2252 1.395 . S
C2254 C2257 1.403 . S
C2255 C2252 1.403 . S
C2255 C2256 1.524 . S
C2255 C2259 1.400 . S
C2256 H2241 0.960 . S
C2256 H2242 0.960 . S
C2256 H2243 0.960 . S
C2256 C2255 1.524 . S
C2257 C2254 1.403 . S
C2257 C2258 1.392 . S
C2257 C2261 1.495 . S
C2258 C2257 1.392 . S
C2258 C2259 1.385 . S
C2258 C2260 1.478 . S
C2259 H2253 0.930 . S
C2259 C2255 1.400 . S
C2259 C2258 1.385 . S
C2260 C2258 1.478 . S
C2260 C2262 1.381 . S
C2260 C2266 1.383 . S
C2261 C2257 1.495 . S
C2261 H2267 0.959 . S
C2261 H2268 0.961 . S
C2261 H2269 0.960 . S
C2262 C2260 1.381 . S
C2262 C2263 1.394 . S
C2262 H2270 0.930 . S
C2263 C2262 1.394 . S
C2263 C2264 1.383 . S
C2263 H2271 0.929 . S
C2264 C2263 1.383 . S
C2264 C2265 1.377 . S
C2265 H2249 0.930 . S
C2265 C2264 1.377 . S
C2265 C2266 1.379 . S
C2266 H2250 0.931 . S
C2266 C2260 1.383 . S
C2266 C2265 1.379 . S
H2267 C2261 0.959 . S
H2268 C2261 0.961 . S
H2269 C2261 0.960 . S
H2270 C2262 0.930 . S
H2271 C2263 0.929 . S
H2272 C2280 0.929 . S
H2273 C2282 0.930 . S
H2274 C2284 0.930 . S
H2275 C2287 0.929 . S
H2276 C2290 0.930 . S
H2277 C2292 0.960 . S
H2278 C2292 0.960 . S
H2279 C2292 0.960 . S
C2280 H2272 0.929 . S
C2280 C2281 1.377 . S
C2280 C2282 1.384 . S
C2281 C2280 1.377 . S
C2281 C2287 1.390 . S
C2282 H2273 0.930 . S
C2282 C2280 1.384 . S
C2282 C2283 1.372 . S
C2283 C2282 1.372 . S
C2283 C2284 1.400 . S
C2283 C2288 1.490 . S
C2284 H2274 0.930 . S
C2284 C2283 1.400 . S
C2284 C2287 1.386 . S
H2285 C2301 0.930 . S
H2286 C2302 0.931 . S
C2287 H2275 0.929 . S
C2287 C2281 1.390 . S
C2287 C2284 1.386 . S
C2288 C2283 1.490 . S
C2288 C2290 1.395 . S
C2288 C2291 1.403 . S
H2289 C2295 0.930 . S
C2290 H2276 0.930 . S
C2290 C2288 1.395 . S
C2290 C2293 1.403 . S
C2291 C2288 1.403 . S
C2291 C2292 1.524 . S
C2291 C2295 1.400 . S
C2292 H2277 0.960 . S
C2292 H2278 0.960 . S
C2292 H2279 0.960 . S
C2292 C2291 1.524 . S
C2293 C2290 1.403 . S
C2293 C2294 1.392 . S
C2293 C2297 1.495 . S
C2294 C2293 1.392 . S
C2294 C2295 1.385 . S
C2294 C2296 1.478 . S
C2295 H2289 0.930 . S
C2295 C2291 1.400 . S
C2295 C2294 1.385 . S
C2296 C2294 1.478 . S
C2296 C2298 1.381 . S
C2296 C2302 1.383 . S
C2297 C2293 1.495 . S
C2297 H2303 0.959 . S
C2297 H2304 0.961 . S
C2297 H2305 0.960 . S
C2298 C2296 1.381 . S
C2298 C2299 1.394 . S
C2298 H2306 0.930 . S
C2299 C2298 1.394 . S
C2299 C2300 1.383 . S
C2299 H2307 0.929 . S
C2300 C2299 1.383 . S
C2300 C2301 1.377 . S
C2301 H2285 0.930 . S
C2301 C2300 1.377 . S
C2301 C2302 1.379 . S
C2302 H2286 0.931 . S
C2302 C2296 1.383 . S
C2302 C2301 1.379 . S
H2303 C2297 0.959 . S
H2304 C2297 0.961 . S
H2305 C2297 0.960 . S
H2306 C2298 0.930 . S
H2307 C2299 0.929 . S
H2308 C2316 0.929 . S
H2309 C2318 0.930 . S
H2310 C2320 0.930 . S
H2311 C2323 0.929 . S
H2312 C2326 0.930 . S
H2313 C2328 0.960 . S
H2314 C2328 0.960 . S
H2315 C2328 0.960 . S
C2316 H2308 0.929 . S
C2316 C2317 1.377 . S
C2316 C2318 1.384 . S
C2317 C2316 1.377 . S
C2317 C2323 1.390 . S
C2318 H2309 0.930 . S
C2318 C2316 1.384 . S
C2318 C2319 1.372 . S
C2319 C2318 1.372 . S
C2319 C2320 1.400 . S
C2319 C2324 1.490 . S
C2320 H2310 0.930 . S
C2320 C2319 1.400 . S
C2320 C2323 1.386 . S
H2321 C2337 0.930 . S
H2322 C2338 0.931 . S
C2323 H2311 0.929 . S
C2323 C2317 1.390 . S
C2323 C2320 1.386 . S
C2324 C2319 1.490 . S
C2324 C2326 1.395 . S
C2324 C2327 1.403 . S
H2325 C2331 0.930 . S
C2326 H2312 0.930 . S
C2326 C2324 1.395 . S
C2326 C2329 1.403 . S
C2327 C2324 1.403 . S
C2327 C2328 1.524 . S
C2327 C2331 1.400 . S
C2328 H2313 0.960 . S
C2328 H2314 0.960 . S
C2328 H2315 0.960 . S
C2328 C2327 1.524 . S
C2329 C2326 1.403 . S
C2329 C2330 1.392 . S
C2329 C2333 1.495 . S
C2330 C2329 1.392 . S
C2330 C2331 1.385 . S
C2330 C2332 1.478 . S
C2331 H2325 0.930 . S
C2331 C2327 1.400 . S
C2331 C2330 1.385 . S
C2332 C2330 1.478 . S
C2332 C2334 1.381 . S
C2332 C2338 1.383 . S
C2333 C2329 1.495 . S
C2333 H2339 0.959 . S
C2333 H2340 0.961 . S
C2333 H2341 0.960 . S
C2334 C2332 1.381 . S
C2334 C2335 1.394 . S
C2334 H2342 0.930 . S
C2335 C2334 1.394 . S
C2335 C2336 1.383 . S
C2335 H2343 0.929 . S
C2336 C2335 1.383 . S
C2336 C2337 1.377 . S
C2337 H2321 0.930 . S
C2337 C2336 1.377 . S
C2337 C2338 1.379 . S
C2338 H2322 0.931 . S
C2338 C2332 1.383 . S
C2338 C2337 1.379 . S
H2339 C2333 0.959 . S
H2340 C2333 0.961 . S
H2341 C2333 0.960 . S
H2342 C2334 0.930 . S
H2343 C2335 0.929 . S
H2344 C2352 0.929 . S
H2345 C2354 0.930 . S
H2346 C2356 0.930 . S
H2347 C2359 0.929 . S
H2348 C2362 0.930 . S
H2349 C2364 0.960 . S
H2350 C2364 0.960 . S
H2351 C2364 0.960 . S
C2352 H2344 0.929 . S
C2352 C2353 1.377 . S
C2352 C2354 1.384 . S
C2353 C2352 1.377 . S
C2353 C2359 1.390 . S
C2354 H2345 0.930 . S
C2354 C2352 1.384 . S
C2354 C2355 1.372 . S
C2355 C2354 1.372 . S
C2355 C2356 1.400 . S
C2355 C2360 1.490 . S
C2356 H2346 0.930 . S
C2356 C2355 1.400 . S
C2356 C2359 1.386 . S
H2357 C2373 0.935 . S
H2358 C2374 0.948 . S
C2359 H2347 0.929 . S
C2359 C2353 1.390 . S
C2359 C2356 1.386 . S
C2360 C2355 1.490 . S
C2360 C2362 1.395 . S
C2360 C2363 1.403 . S
H2361 C2367 0.930 . S
C2362 H2348 0.930 . S
C2362 C2360 1.395 . S
C2362 C2365 1.403 . S
C2363 C2360 1.403 . S
C2363 C2364 1.524 . S
C2363 C2367 1.400 . S
C2364 H2349 0.960 . S
C2364 H2350 0.960 . S
C2364 H2351 0.960 . S
C2364 C2363 1.524 . S
C2365 C2362 1.403 . S
C2365 C2366 1.392 . S
C2365 C2369 1.495 . S
C2366 C2365 1.392 . S
C2366 C2367 1.385 . S
C2366 C2368 1.478 . S
C2367 H2361 0.930 . S
C2367 C2363 1.400 . S
C2367 C2366 1.385 . S
C2368 C2366 1.478 . S
C2368 C2370 1.381 . S
C2368 C2374 1.383 . S
C2369 C2365 1.495 . S
C2369 H2375 0.959 . S
C2369 H2376 0.961 . S
C2369 H2377 0.960 . S
C2370 C2368 1.381 . S
C2370 C2371 1.394 . S
C2370 H2378 0.930 . S
C2371 C2370 1.394 . S
C2371 C2372 1.383 . S
C2371 H2379 0.929 . S
C2372 C2371 1.383 . S
C2372 C2373 1.377 . S
C2373 H2357 0.935 . S
C2373 C2372 1.377 . S
C2373 C2374 1.379 . S
C2374 H2358 0.948 . S
C2374 C2368 1.383 . S
C2374 C2373 1.379 . S
H2375 C2369 0.959 . S
H2376 C2369 0.961 . S
H2377 C2369 0.960 . S
H2378 C2370 0.930 . S
H2379 C2371 0.929 . S
H2380 C2388 0.929 . S
H2381 C2390 0.930 . S
H2382 C2392 0.930 . S
H2383 C2395 0.929 . S
H2384 C2398 0.930 . S
H2385 C2400 0.960 . S
H2386 C2400 0.960 . S
H2387 C2400 0.960 . S
C2388 H2380 0.929 . S
C2388 C2389 1.377 . S
C2388 C2390 1.384 . S
C2389 C2388 1.377 . S
C2389 C2395 1.390 . S
C2390 H2381 0.930 . S
C2390 C2388 1.384 . S
C2390 C2391 1.372 . S
C2391 C2390 1.372 . S
C2391 C2392 1.400 . S
C2391 C2396 1.490 . S
C2392 H2382 0.930 . S
C2392 C2391 1.400 . S
C2392 C2395 1.386 . S
H2393 C2409 0.930 . S
H2394 C2410 0.931 . S
C2395 H2383 0.929 . S
C2395 C2389 1.390 . S
C2395 C2392 1.386 . S
C2396 C2391 1.490 . S
C2396 C2398 1.395 . S
C2396 C2399 1.403 . S
H2397 C2403 0.930 . S
C2398 H2384 0.930 . S
C2398 C2396 1.395 . S
C2398 C2401 1.403 . S
C2399 C2396 1.403 . S
C2399 C2400 1.524 . S
C2399 C2403 1.400 . S
C2400 H2385 0.960 . S
C2400 H2386 0.960 . S
C2400 H2387 0.960 . S
C2400 C2399 1.524 . S
C2401 C2398 1.403 . S
C2401 C2402 1.392 . S
C2401 C2405 1.495 . S
C2402 C2401 1.392 . S
C2402 C2403 1.385 . S
C2402 C2404 1.478 . S
C2403 H2397 0.930 . S
C2403 C2399 1.400 . S
C2403 C2402 1.385 . S
C2404 C2402 1.478 . S
C2404 C2406 1.381 . S
C2404 C2410 1.383 . S
C2405 C2401 1.495 . S
C2405 H2411 0.959 . S
C2405 H2412 0.961 . S
C2405 H2413 0.960 . S
C2406 C2404 1.381 . S
C2406 C2407 1.394 . S
C2406 H2414 0.930 . S
C2407 C2406 1.394 . S
C2407 C2408 1.383 . S
C2407 H2415 0.929 . S
C2408 C2407 1.383 . S
C2408 C2409 1.377 . S
C2409 H2393 0.930 . S
C2409 C2408 1.377 . S
C2409 C2410 1.379 . S
C2410 H2394 0.931 . S
C2410 C2404 1.383 . S
C2410 C2409 1.379 . S
H2411 C2405 0.959 . S
H2412 C2405 0.961 . S
H2413 C2405 0.960 . S
H2414 C2406 0.930 . S
H2415 C2407 0.929 . S
H2416 C2424 0.929 . S
H2417 C2426 0.930 . S
H2418 C2428 0.930 . S
H2419 C2431 0.929 . S
H2420 C2434 0.930 . S
H2421 C2436 0.960 . S
H2422 C2436 0.960 . S
H2423 C2436 0.960 . S
C2424 H2416 0.929 . S
C2424 C2425 1.377 . S
C2424 C2426 1.384 . S
C2425 C2424 1.377 . S
C2425 C2431 1.390 . S
C2426 H2417 0.930 . S
C2426 C2424 1.384 . S
C2426 C2427 1.372 . S
C2427 C2426 1.372 . S
C2427 C2428 1.400 . S
C2427 C2432 1.490 . S
C2428 H2418 0.930 . S
C2428 C2427 1.400 . S
C2428 C2431 1.386 . S
H2429 C2445 0.953 . S
H2430 C2446 0.931 . S
C2431 H2419 0.929 . S
C2431 C2425 1.390 . S
C2431 C2428 1.386 . S
C2432 C2427 1.490 . S
C2432 C2434 1.395 . S
C2432 C2435 1.403 . S
H2433 C2439 0.930 . S
C2434 H2420 0.930 . S
C2434 C2432 1.395 . S
C2434 C2437 1.403 . S
C2435 C2432 1.403 . S
C2435 C2436 1.524 . S
C2435 C2439 1.400 . S
C2436 H2421 0.960 . S
C2436 H2422 0.960 . S
C2436 H2423 0.960 . S
C2436 C2435 1.524 . S
C2437 C2434 1.403 . S
C2437 C2438 1.392 . S
C2437 C2441 1.495 1_554 S
C2438 C2437 1.392 . S
C2438 C2439 1.385 . S
C2438 C2440 1.478 . S
C2439 H2433 0.930 . S
C2439 C2435 1.400 . S
C2439 C2438 1.385 . S
C2440 C2438 1.478 . S
C2440 C2442 1.381 . S
C2440 C2446 1.383 . S
C2441 C2437 1.495 1_556 S
C2441 H2447 0.959 . S
C2441 H2448 0.961 . S
C2441 H2449 0.960 . S
C2442 C2440 1.381 . S
C2442 C2443 1.394 . S
C2442 H2450 0.930 . S
C2443 C2442 1.394 . S
C2443 C2444 1.383 1_554 S
C2443 H2451 0.929 . S
C2444 C2443 1.383 1_556 S
C2444 C2445 1.374 . S
C2445 H2429 0.953 . S
C2445 C2444 1.374 . S
C2445 C2446 1.364 1_556 S
C2446 H2430 0.931 . S
C2446 C2440 1.383 . S
C2446 C2445 1.364 1_554 S
H2447 C2441 0.959 . S
H2448 C2441 0.961 . S
H2449 C2441 0.960 . S
H2450 C2442 0.930 . S
H2451 C2443 0.929 . S
H2452 C2460 0.929 . S
H2453 C2462 0.930 . S
H2454 C2464 0.884 1_556 S
H2455 C2467 0.929 1_556 S
H2456 C2470 0.930 . S
H2457 C2472 0.960 . S
H2458 C2472 0.960 . S
H2459 C2472 0.960 . S
C2460 H2452 0.929 . S
C2460 C2461 1.377 . S
C2460 C2462 1.384 . S
C2461 C2460 1.377 . S
C2461 C2467 1.390 . S
C2462 H2453 0.930 . S
C2462 C2460 1.384 . S
C2462 C2463 1.372 . S
C2463 C2462 1.372 . S
C2463 C2464 1.400 . S
C2463 C2468 1.490 . S
C2464 H2454 0.884 1_554 S
C2464 C2463 1.400 . S
C2464 C2467 1.386 . S
H2465 C2481 0.930 1_556 S
H2466 C2482 0.931 1_556 S
C2467 H2455 0.929 1_554 S
C2467 C2461 1.390 . S
C2467 C2464 1.386 . S
C2468 C2463 1.490 . S
C2468 C2470 1.395 . S
C2468 C2471 1.403 . S
H2469 C2475 0.930 . S
C2470 H2456 0.930 . S
C2470 C2468 1.395 . S
C2470 C2473 1.403 . S
C2471 C2468 1.403 . S
C2471 C2472 1.524 . S
C2471 C2475 1.400 . S
C2472 H2457 0.960 . S
C2472 H2458 0.960 . S
C2472 H2459 0.960 . S
C2472 C2471 1.524 . S
C2473 C2470 1.403 . S
C2473 C2474 1.392 . S
C2473 C2477 1.495 . S
C2474 C2473 1.392 . S
C2474 C2475 1.385 . S
C2474 C2476 1.478 . S
C2475 H2469 0.930 . S
C2475 C2471 1.400 . S
C2475 C2474 1.385 . S
C2476 C2474 1.478 . S
C2476 C2478 1.381 . S
C2476 C2482 1.383 . S
C2477 C2473 1.495 . S
C2477 H2483 0.959 . S
C2477 H2484 0.961 . S
C2477 H2485 0.960 . S
C2478 C2476 1.381 . S
C2478 C2479 1.394 . S
C2478 H2486 0.930 . S
C2479 C2478 1.394 . S
C2479 C2480 1.383 . S
C2479 H2487 0.929 . S
C2480 C2479 1.383 . S
C2480 C2481 1.377 . S
C2481 H2465 0.930 1_554 S
C2481 C2480 1.377 . S
C2481 C2482 1.379 . S
C2482 H2466 0.931 1_554 S
C2482 C2476 1.383 . S
C2482 C2481 1.379 . S
H2483 C2477 0.959 . S
H2484 C2477 0.961 . S
H2485 C2477 0.960 . S
H2486 C2478 0.930 . S
H2487 C2479 0.929 . S
H2488 C2496 0.929 . S
H2489 C2498 0.930 . S
H2490 C2500 0.930 . S
H2491 C2503 0.929 . S
H2492 C2506 0.930 . S
H2493 C2508 0.960 . S
H2494 C2508 0.960 . S
H2495 C2508 0.960 . S
C2496 H2488 0.929 . S
C2496 C2497 1.377 . S
C2496 C2498 1.384 . S
C2497 C2496 1.377 . S
C2497 C2503 1.390 . S
C2498 H2489 0.930 . S
C2498 C2496 1.384 . S
C2498 C2499 1.372 . S
C2499 C2498 1.372 . S
C2499 C2500 1.400 . S
C2499 C2504 1.490 . S
C2500 H2490 0.930 . S
C2500 C2499 1.400 . S
C2500 C2503 1.386 . S
H2501 C2517 0.930 . S
H2502 C2518 0.931 . S
C2503 H2491 0.929 . S
C2503 C2497 1.390 . S
C2503 C2500 1.386 . S
C2504 C2499 1.490 . S
C2504 C2506 1.395 . S
C2504 C2507 1.403 . S
H2505 C2511 0.930 . S
C2506 H2492 0.930 . S
C2506 C2504 1.395 . S
C2506 C2509 1.403 . S
C2507 C2504 1.403 . S
C2507 C2508 1.524 . S
C2507 C2511 1.400 . S
C2508 H2493 0.960 . S
C2508 H2494 0.960 . S
C2508 H2495 0.960 . S
C2508 C2507 1.524 . S
C2509 C2506 1.403 . S
C2509 C2510 1.392 . S
C2509 C2513 1.495 . S
C2510 C2509 1.392 . S
C2510 C2511 1.385 . S
C2510 C2512 1.478 . S
C2511 H2505 0.930 . S
C2511 C2507 1.400 . S
C2511 C2510 1.385 . S
C2512 C2510 1.478 . S
C2512 C2514 1.381 . S
C2512 C2518 1.383 . S
C2513 C2509 1.495 . S
C2513 H2519 0.959 . S
C2513 H2520 0.961 . S
C2513 H2521 0.960 . S
C2514 C2512 1.381 . S
C2514 C2515 1.394 . S
C2514 H2522 0.930 . S
C2515 C2514 1.394 . S
C2515 C2516 1.383 . S
C2515 H2523 0.929 . S
C2516 C2515 1.383 . S
C2516 C2517 1.377 . S
C2517 H2501 0.930 . S
C2517 C2516 1.377 . S
C2517 C2518 1.379 . S
C2518 H2502 0.931 . S
C2518 C2512 1.383 . S
C2518 C2517 1.379 . S
H2519 C2513 0.959 . S
H2520 C2513 0.961 . S
H2521 C2513 0.960 . S
H2522 C2514 0.930 . S
H2523 C2515 0.929 . S
H2524 C2532 0.929 . S
H2525 C2534 0.930 . S
H2526 C2536 0.930 . S
H2527 C2539 0.929 . S
H2528 C2542 0.930 . S
H2529 C2544 0.960 . S
H2530 C2544 0.960 . S
H2531 C2544 0.960 . S
C2532 H2524 0.929 . S
C2532 C2533 1.377 . S
C2532 C2534 1.384 . S
C2533 C2532 1.377 . S
C2533 C2539 1.390 . S
C2534 H2525 0.930 . S
C2534 C2532 1.384 . S
C2534 C2535 1.372 . S
C2535 C2534 1.372 . S
C2535 C2536 1.400 . S
C2535 C2540 1.490 . S
C2536 H2526 0.930 . S
C2536 C2535 1.400 . S
C2536 C2539 1.386 . S
H2537 C2553 0.930 . S
H2538 C2554 0.931 . S
C2539 H2527 0.929 . S
C2539 C2533 1.390 . S
C2539 C2536 1.386 . S
C2540 C2535 1.490 . S
C2540 C2542 1.395 . S
C2540 C2543 1.403 . S
H2541 C2547 0.930 . S
C2542 H2528 0.930 . S
C2542 C2540 1.395 . S
C2542 C2545 1.403 . S
C2543 C2540 1.403 . S
C2543 C2544 1.524 . S
C2543 C2547 1.400 . S
C2544 H2529 0.960 . S
C2544 H2530 0.960 . S
C2544 H2531 0.960 . S
C2544 C2543 1.524 . S
C2545 C2542 1.403 . S
C2545 C2546 1.392 . S
C2545 C2549 1.495 . S
C2546 C2545 1.392 . S
C2546 C2547 1.385 . S
C2546 C2548 1.478 . S
C2547 H2541 0.930 . S
C2547 C2543 1.400 . S
C2547 C2546 1.385 . S
C2548 C2546 1.478 . S
C2548 C2550 1.381 . S
C2548 C2554 1.383 . S
C2549 C2545 1.495 . S
C2549 H2555 0.959 . S
C2549 H2556 0.961 . S
C2549 H2557 0.960 . S
C2550 C2548 1.381 . S
C2550 C2551 1.394 . S
C2550 H2558 0.930 . S
C2551 C2550 1.394 . S
C2551 C2552 1.383 . S
C2551 H2559 0.929 . S
C2552 C2551 1.383 . S
C2552 C2553 1.377 . S
C2553 H2537 0.930 . S
C2553 C2552 1.377 . S
C2553 C2554 1.379 . S
C2554 H2538 0.931 . S
C2554 C2548 1.383 . S
C2554 C2553 1.379 . S
H2555 C2549 0.959 . S
H2556 C2549 0.961 . S
H2557 C2549 0.960 . S
H2558 C2550 0.930 . S
H2559 C2551 0.929 . S
H2560 C2568 0.929 . S
H2561 C2570 0.930 . S
H2562 C2572 0.930 . S
H2563 C2575 0.929 . S
H2564 C2578 0.930 . S
H2565 C2580 0.960 . S
H2566 C2580 0.960 . S
H2567 C2580 0.960 . S
C2568 H2560 0.929 . S
C2568 C2569 1.377 . S
C2568 C2570 1.384 . S
C2569 C2568 1.377 . S
C2569 C2575 1.390 . S
C2570 H2561 0.930 . S
C2570 C2568 1.384 . S
C2570 C2571 1.372 . S
C2571 C2570 1.372 . S
C2571 C2572 1.400 . S
C2571 C2576 1.490 . S
C2572 H2562 0.930 . S
C2572 C2571 1.400 . S
C2572 C2575 1.386 . S
H2573 C2589 0.930 . S
H2574 C2590 0.931 . S
C2575 H2563 0.929 . S
C2575 C2569 1.390 . S
C2575 C2572 1.386 . S
C2576 C2571 1.490 . S
C2576 C2578 1.395 . S
C2576 C2579 1.403 . S
H2577 C2583 0.930 . S
C2578 H2564 0.930 . S
C2578 C2576 1.395 . S
C2578 C2581 1.403 . S
C2579 C2576 1.403 . S
C2579 C2580 1.524 . S
C2579 C2583 1.400 . S
C2580 H2565 0.960 . S
C2580 H2566 0.960 . S
C2580 H2567 0.960 . S
C2580 C2579 1.524 . S
C2581 C2578 1.403 . S
C2581 C2582 1.392 . S
C2581 C2585 1.495 . S
C2582 C2581 1.392 . S
C2582 C2583 1.385 . S
C2582 C2584 1.478 . S
C2583 H2577 0.930 . S
C2583 C2579 1.400 . S
C2583 C2582 1.385 . S
C2584 C2582 1.478 . S
C2584 C2586 1.381 . S
C2584 C2590 1.383 . S
C2585 C2581 1.495 . S
C2585 H2591 0.959 . S
C2585 H2592 0.961 . S
C2585 H2593 0.960 . S
C2586 C2584 1.381 . S
C2586 C2587 1.394 . S
C2586 H2594 0.930 . S
C2587 C2586 1.394 . S
C2587 C2588 1.383 . S
C2587 H2595 0.929 . S
C2588 C2587 1.383 . S
C2588 C2589 1.377 . S
C2589 H2573 0.930 . S
C2589 C2588 1.377 . S
C2589 C2590 1.379 . S
C2590 H2574 0.931 . S
C2590 C2584 1.383 . S
C2590 C2589 1.379 . S
H2591 C2585 0.959 . S
H2592 C2585 0.961 . S
H2593 C2585 0.960 . S
H2594 C2586 0.930 . S
H2595 C2587 0.929 . S
H2596 C2604 0.929 . S
H2597 C2606 0.930 . S
H2598 C2608 0.930 . S
H2599 C2611 0.929 . S
H2600 C2614 0.930 . S
H2601 C2616 0.960 . S
H2602 C2616 0.960 . S
H2603 C2616 0.960 . S
C2604 H2596 0.929 . S
C2604 C2605 1.377 . S
C2604 C2606 1.384 . S
C2605 C2604 1.377 . S
C2605 C2611 1.390 . S
C2606 H2597 0.930 . S
C2606 C2604 1.384 . S
C2606 C2607 1.372 . S
C2607 C2606 1.372 . S
C2607 C2608 1.400 . S
C2607 C2612 1.490 . S
C2608 H2598 0.930 . S
C2608 C2607 1.400 . S
C2608 C2611 1.386 . S
H2609 C2625 0.930 . S
H2610 C2626 0.931 . S
C2611 H2599 0.929 . S
C2611 C2605 1.390 . S
C2611 C2608 1.386 . S
C2612 C2607 1.490 . S
C2612 C2614 1.395 . S
C2612 C2615 1.403 . S
H2613 C2619 0.930 . S
C2614 H2600 0.930 . S
C2614 C2612 1.395 . S
C2614 C2617 1.403 . S
C2615 C2612 1.403 . S
C2615 C2616 1.524 . S
C2615 C2619 1.400 . S
C2616 H2601 0.960 . S
C2616 H2602 0.960 . S
C2616 H2603 0.960 . S
C2616 C2615 1.524 . S
C2617 C2614 1.403 . S
C2617 C2618 1.392 . S
C2617 C2621 1.495 . S
C2618 C2617 1.392 . S
C2618 C2619 1.385 . S
C2618 C2620 1.478 . S
C2619 H2613 0.930 . S
C2619 C2615 1.400 . S
C2619 C2618 1.385 . S
C2620 C2618 1.478 . S
C2620 C2622 1.381 . S
C2620 C2626 1.383 . S
C2621 C2617 1.495 . S
C2621 H2627 0.959 . S
C2621 H2628 0.961 . S
C2621 H2629 0.960 . S
C2622 C2620 1.381 . S
C2622 C2623 1.394 . S
C2622 H2630 0.930 . S
C2623 C2622 1.394 . S
C2623 C2624 1.383 . S
C2623 H2631 0.929 . S
C2624 C2623 1.383 . S
C2624 C2625 1.377 . S
C2625 H2609 0.930 . S
C2625 C2624 1.377 . S
C2625 C2626 1.379 . S
C2626 H2610 0.931 . S
C2626 C2620 1.383 . S
C2626 C2625 1.379 . S
H2627 C2621 0.959 . S
H2628 C2621 0.961 . S
H2629 C2621 0.960 . S
H2630 C2622 0.930 . S
H2631 C2623 0.929 . S
H2632 C2640 0.929 . S
H2633 C2642 0.930 . S
H2634 C2644 0.930 . S
H2635 C2647 0.929 . S
H2636 C2650 0.930 . S
H2637 C2652 0.960 . S
H2638 C2652 0.960 . S
H2639 C2652 0.960 . S
C2640 H2632 0.929 . S
C2640 C2641 1.377 . S
C2640 C2642 1.384 . S
C2641 C2640 1.377 . S
C2641 C2647 1.390 . S
C2642 H2633 0.930 . S
C2642 C2640 1.384 . S
C2642 C2643 1.372 . S
C2643 C2642 1.372 . S
C2643 C2644 1.400 . S
C2643 C2648 1.490 . S
C2644 H2634 0.930 . S
C2644 C2643 1.400 . S
C2644 C2647 1.386 . S
H2645 C2661 0.930 . S
H2646 C2662 0.931 . S
C2647 H2635 0.929 . S
C2647 C2641 1.390 . S
C2647 C2644 1.386 . S
C2648 C2643 1.490 . S
C2648 C2650 1.395 . S
C2648 C2651 1.403 . S
H2649 C2655 0.930 . S
C2650 H2636 0.930 . S
C2650 C2648 1.395 . S
C2650 C2653 1.403 . S
C2651 C2648 1.403 . S
C2651 C2652 1.524 . S
C2651 C2655 1.400 . S
C2652 H2637 0.960 . S
C2652 H2638 0.960 . S
C2652 H2639 0.960 . S
C2652 C2651 1.524 . S
C2653 C2650 1.403 . S
C2653 C2654 1.392 . S
C2653 C2657 1.495 . S
C2654 C2653 1.392 . S
C2654 C2655 1.385 . S
C2654 C2656 1.478 . S
C2655 H2649 0.930 . S
C2655 C2651 1.400 . S
C2655 C2654 1.385 . S
C2656 C2654 1.478 . S
C2656 C2658 1.381 . S
C2656 C2662 1.383 . S
C2657 C2653 1.495 . S
C2657 H2663 0.959 . S
C2657 H2664 0.961 . S
C2657 H2665 0.960 . S
C2658 C2656 1.381 . S
C2658 C2659 1.394 . S
C2658 H2666 0.930 . S
C2659 C2658 1.394 . S
C2659 C2660 1.383 . S
C2659 H2667 0.929 . S
C2660 C2659 1.383 . S
C2660 C2661 1.377 . S
C2661 H2645 0.930 . S
C2661 C2660 1.377 . S
C2661 C2662 1.379 . S
C2662 H2646 0.931 . S
C2662 C2656 1.383 . S
C2662 C2661 1.379 . S
H2663 C2657 0.959 . S
H2664 C2657 0.961 . S
H2665 C2657 0.960 . S
H2666 C2658 0.930 . S
H2667 C2659 0.929 . S
H2668 C2676 0.929 . S
H2669 C2678 0.930 . S
H2670 C2680 0.930 . S
H2671 C2683 0.929 . S
H2672 C2686 0.930 . S
H2673 C2688 0.960 . S
H2674 C2688 0.960 . S
H2675 C2688 0.960 . S
C2676 H2668 0.929 . S
C2676 C2677 1.377 . S
C2676 C2678 1.384 . S
C2677 C2676 1.377 . S
C2677 C2683 1.390 . S
C2678 H2669 0.930 . S
C2678 C2676 1.384 . S
C2678 C2679 1.372 . S
C2679 C2678 1.372 . S
C2679 C2680 1.400 . S
C2679 C2684 1.490 . S
C2680 H2670 0.930 . S
C2680 C2679 1.400 . S
C2680 C2683 1.386 . S
H2681 C2697 0.930 . S
H2682 C2698 0.931 . S
C2683 H2671 0.929 . S
C2683 C2677 1.390 . S
C2683 C2680 1.386 . S
C2684 C2679 1.490 . S
C2684 C2686 1.395 . S
C2684 C2687 1.403 . S
H2685 C2691 0.930 . S
C2686 H2672 0.930 . S
C2686 C2684 1.395 . S
C2686 C2689 1.403 . S
C2687 C2684 1.403 . S
C2687 C2688 1.524 . S
C2687 C2691 1.400 . S
C2688 H2673 0.960 . S
C2688 H2674 0.960 . S
C2688 H2675 0.960 . S
C2688 C2687 1.524 . S
C2689 C2686 1.403 . S
C2689 C2690 1.392 . S
C2689 C2693 1.495 . S
C2690 C2689 1.392 . S
C2690 C2691 1.385 . S
C2690 C2692 1.478 . S
C2691 H2685 0.930 . S
C2691 C2687 1.400 . S
C2691 C2690 1.385 . S
C2692 C2690 1.478 . S
C2692 C2694 1.381 . S
C2692 C2698 1.383 . S
C2693 C2689 1.495 . S
C2693 H2699 0.959 . S
C2693 H2700 0.961 . S
C2693 H2701 0.960 . S
C2694 C2692 1.381 . S
C2694 C2695 1.394 . S
C2694 H2702 0.930 . S
C2695 C2694 1.394 . S
C2695 C2696 1.383 . S
C2695 H2703 0.929 . S
C2696 C2695 1.383 . S
C2696 C2697 1.377 . S
C2697 H2681 0.930 . S
C2697 C2696 1.377 . S
C2697 C2698 1.379 . S
C2698 H2682 0.931 . S
C2698 C2692 1.383 . S
C2698 C2697 1.379 . S
H2699 C2693 0.959 . S
H2700 C2693 0.961 . S
H2701 C2693 0.960 . S
H2702 C2694 0.930 . S
H2703 C2695 0.929 . S
H2704 C2712 0.929 . S
H2705 C2714 0.930 . S
H2706 C2716 0.930 . S
H2707 C2719 0.929 . S
H2708 C2722 0.930 . S
H2709 C2724 0.960 . S
H2710 C2724 0.960 . S
H2711 C2724 0.960 . S
C2712 H2704 0.929 . S
C2712 C2713 1.377 . S
C2712 C2714 1.384 . S
C2713 C2712 1.377 . S
C2713 C2719 1.390 . S
C2714 H2705 0.930 . S
C2714 C2712 1.384 . S
C2714 C2715 1.372 . S
C2715 C2714 1.372 . S
C2715 C2716 1.400 . S
C2715 C2720 1.490 . S
C2716 H2706 0.930 . S
C2716 C2715 1.400 . S
C2716 C2719 1.386 . S
H2717 C2733 0.930 . S
H2718 C2734 0.931 . S
C2719 H2707 0.929 . S
C2719 C2713 1.390 . S
C2719 C2716 1.386 . S
C2720 C2715 1.490 . S
C2720 C2722 1.395 . S
C2720 C2723 1.403 . S
H2721 C2727 0.930 . S
C2722 H2708 0.930 . S
C2722 C2720 1.395 . S
C2722 C2725 1.403 . S
C2723 C2720 1.403 . S
C2723 C2724 1.524 . S
C2723 C2727 1.400 . S
C2724 H2709 0.960 . S
C2724 H2710 0.960 . S
C2724 H2711 0.960 . S
C2724 C2723 1.524 . S
C2725 C2722 1.403 . S
C2725 C2726 1.392 . S
C2725 C2729 1.495 . S
C2726 C2725 1.392 . S
C2726 C2727 1.385 . S
C2726 C2728 1.478 . S
C2727 H2721 0.930 . S
C2727 C2723 1.400 . S
C2727 C2726 1.385 . S
C2728 C2726 1.478 . S
C2728 C2730 1.381 . S
C2728 C2734 1.383 . S
C2729 C2725 1.495 . S
C2729 H2735 0.959 . S
C2729 H2736 0.961 . S
C2729 H2737 0.960 . S
C2730 C2728 1.381 . S
C2730 C2731 1.394 . S
C2730 H2738 0.930 . S
C2731 C2730 1.394 . S
C2731 C2732 1.383 . S
C2731 H2739 0.929 . S
C2732 C2731 1.383 . S
C2732 C2733 1.377 . S
C2733 H2717 0.930 . S
C2733 C2732 1.377 . S
C2733 C2734 1.379 . S
C2734 H2718 0.931 . S
C2734 C2728 1.383 . S
C2734 C2733 1.379 . S
H2735 C2729 0.959 . S
H2736 C2729 0.961 . S
H2737 C2729 0.960 . S
H2738 C2730 0.930 . S
H2739 C2731 0.929 . S
H2740 C2748 0.929 . S
H2741 C2750 0.930 . S
H2742 C2752 0.930 . S
H2743 C2755 0.929 . S
H2744 C2758 0.930 . S
H2745 C2760 0.960 . S
H2746 C2760 0.960 . S
H2747 C2760 0.960 . S
C2748 H2740 0.929 . S
C2748 C2749 1.377 . S
C2748 C2750 1.384 . S
C2749 C2748 1.377 . S
C2749 C2755 1.390 . S
C2750 H2741 0.930 . S
C2750 C2748 1.384 . S
C2750 C2751 1.372 . S
C2751 C2750 1.372 . S
C2751 C2752 1.400 . S
C2751 C2756 1.490 . S
C2752 H2742 0.930 . S
C2752 C2751 1.400 . S
C2752 C2755 1.386 . S
H2753 C2769 0.930 . S
H2754 C2770 0.931 . S
C2755 H2743 0.929 . S
C2755 C2749 1.390 . S
C2755 C2752 1.386 . S
C2756 C2751 1.490 . S
C2756 C2758 1.395 . S
C2756 C2759 1.403 . S
H2757 C2763 0.930 . S
C2758 H2744 0.930 . S
C2758 C2756 1.395 . S
C2758 C2761 1.403 . S
C2759 C2756 1.403 . S
C2759 C2760 1.524 . S
C2759 C2763 1.400 . S
C2760 H2745 0.960 . S
C2760 H2746 0.960 . S
C2760 H2747 0.960 . S
C2760 C2759 1.524 . S
C2761 C2758 1.403 . S
C2761 C2762 1.392 . S
C2761 C2765 1.495 . S
C2762 C2761 1.392 . S
C2762 C2763 1.385 . S
C2762 C2764 1.478 . S
C2763 H2757 0.930 . S
C2763 C2759 1.400 . S
C2763 C2762 1.385 . S
C2764 C2762 1.478 . S
C2764 C2766 1.381 . S
C2764 C2770 1.383 . S
C2765 C2761 1.495 . S
C2765 H2771 0.959 . S
C2765 H2772 0.961 . S
C2765 H2773 0.960 . S
C2766 C2764 1.381 . S
C2766 C2767 1.394 . S
C2766 H2774 0.930 . S
C2767 C2766 1.394 . S
C2767 C2768 1.383 . S
C2767 H2775 0.929 . S
C2768 C2767 1.383 . S
C2768 C2769 1.377 . S
C2769 H2753 0.930 . S
C2769 C2768 1.377 . S
C2769 C2770 1.379 . S
C2770 H2754 0.931 . S
C2770 C2764 1.383 . S
C2770 C2769 1.379 . S
H2771 C2765 0.959 . S
H2772 C2765 0.961 . S
H2773 C2765 0.960 . S
H2774 C2766 0.930 . S
H2775 C2767 0.929 . S
H2776 C2784 0.929 . S
H2777 C2786 0.930 . S
H2778 C2788 0.930 . S
H2779 C2791 0.929 1_655 S
H2780 C2794 0.955 . S
H2781 C2796 0.960 1_554 S
H2782 C2796 0.960 . S
H2783 C2796 0.960 . S
C2784 H2776 0.929 . S
C2784 C2785 1.377 . S
C2784 C2786 1.384 . S
C2785 C2784 1.377 . S
C2785 C2791 1.390 . S
C2786 H2777 0.930 . S
C2786 C2784 1.384 . S
C2786 C2787 1.372 . S
C2787 C2786 1.372 . S
C2787 C2788 1.400 . S
C2787 C2792 1.490 . S
C2788 H2778 0.930 . S
C2788 C2787 1.400 . S
C2788 C2791 1.386 . S
H2789 C2805 0.930 . S
H2790 C2806 0.931 . S
C2791 H2779 0.929 1_455 S
C2791 C2785 1.390 . S
C2791 C2788 1.386 . S
C2792 C2787 1.490 . S
C2792 C2794 1.395 . S
C2792 C2795 1.403 . S
H2793 C2799 0.930 1_554 S
C2794 H2780 0.955 . S
C2794 C2792 1.395 . S
C2794 C2797 1.403 . S
C2795 C2792 1.403 . S
C2795 C2796 1.524 . S
C2795 C2799 1.400 . S
C2796 H2781 0.960 1_556 S
C2796 H2782 0.960 . S
C2796 H2783 0.960 . S
C2796 C2795 1.524 . S
C2797 C2794 1.403 . S
C2797 C2798 1.392 . S
C2797 C2801 1.495 1_455 S
C2798 C2797 1.392 . S
C2798 C2799 1.385 . S
C2798 C2800 1.478 . S
C2799 H2793 0.930 1_556 S
C2799 C2795 1.400 . S
C2799 C2798 1.385 . S
C2800 C2798 1.478 . S
C2800 C2802 1.381 . S
C2800 C2806 1.383 1_556 S
C2801 C2797 1.495 1_655 S
C2801 H2807 0.959 . S
C2801 H2808 0.961 . S
C2801 H2809 0.960 1_655 S
C2802 C2800 1.381 . S
C2802 C2803 1.394 . S
C2802 H2810 0.930 . S
C2803 C2802 1.394 . S
C2803 C2804 1.383 1_556 S
C2803 H2811 0.929 . S
C2804 C2803 1.383 1_554 S
C2804 C2805 1.377 . S
C2805 H2789 0.930 . S
C2805 C2804 1.377 . S
C2805 C2806 1.379 . S
C2806 H2790 0.931 . S
C2806 C2800 1.383 1_554 S
C2806 C2805 1.379 . S
H2807 C2801 0.959 . S
H2808 C2801 0.961 . S
H2809 C2801 0.960 1_455 S
H2810 C2802 0.930 . S
H2811 C2803 0.929 . S
H2812 C2820 0.929 . S
H2813 C2822 0.930 . S
H2814 C2824 0.930 1_655 S
H2815 C2827 0.929 . S
H2816 C2830 0.930 . S
H2817 C2832 0.960 . S
H2818 C2832 0.960 1_455 S
H2819 C2832 0.992 . S
C2820 H2812 0.929 . S
C2820 C2821 1.377 . S
C2820 C2822 1.384 1_455 S
C2821 C2820 1.377 . S
C2821 C2827 1.390 . S
C2822 H2813 0.930 . S
C2822 C2820 1.384 1_655 S
C2822 C2823 1.372 . S
C2823 C2822 1.372 . S
C2823 C2824 1.400 1_655 S
C2823 C2828 1.490 . S
C2824 H2814 0.930 1_455 S
C2824 C2823 1.400 1_455 S
C2824 C2827 1.386 . S
H2825 C2841 0.930 . S
H2826 C2842 0.931 . S
C2827 H2815 0.929 . S
C2827 C2821 1.390 . S
C2827 C2824 1.386 . S
C2828 C2823 1.490 . S
C2828 C2830 1.395 . S
C2828 C2831 1.403 . S
H2829 C2835 0.930 . S
C2830 H2816 0.930 . S
C2830 C2828 1.395 . S
C2830 C2833 1.403 . S
C2831 C2828 1.403 . S
C2831 C2832 1.524 . S
C2831 C2835 1.400 . S
C2832 H2817 0.960 . S
C2832 H2818 0.960 1_655 S
C2832 H2819 0.992 . S
C2832 C2831 1.524 . S
C2833 C2830 1.403 . S
C2833 C2834 1.392 . S
C2833 C2837 1.495 . S
C2834 C2833 1.392 . S
C2834 C2835 1.385 . S
C2834 C2836 1.478 . S
C2835 H2829 0.930 . S
C2835 C2831 1.400 . S
C2835 C2834 1.385 . S
C2836 C2834 1.478 . S
C2836 C2838 1.381 . S
C2836 C2842 1.383 . S
C2837 C2833 1.495 . S
C2837 H2843 0.959 . S
C2837 H2844 0.961 . S
C2837 H2845 0.960 . S
C2838 C2836 1.381 . S
C2838 C2839 1.394 . S
C2838 H2846 0.930 . S
C2839 C2838 1.394 . S
C2839 C2840 1.383 . S
C2839 H2847 0.929 . S
C2840 C2839 1.383 . S
C2840 C2841 1.377 . S
C2841 H2825 0.930 . S
C2841 C2840 1.377 . S
C2841 C2842 1.379 . S
C2842 H2826 0.931 . S
C2842 C2836 1.383 . S
C2842 C2841 1.379 . S
H2843 C2837 0.959 . S
H2844 C2837 0.961 . S
H2845 C2837 0.960 . S
H2846 C2838 0.930 . S
H2847 C2839 0.929 . S
H2848 C2856 0.929 . S
H2849 C2858 0.930 . S
H2850 C2860 0.930 . S
H2851 C2863 0.929 . S
H2852 C2866 0.930 . S
H2853 C2868 0.960 . S
H2854 C2868 0.960 . S
H2855 C2868 0.960 . S
C2856 H2848 0.929 . S
C2856 C2857 1.377 . S
C2856 C2858 1.384 . S
C2857 C2856 1.377 . S
C2857 C2863 1.390 . S
C2858 H2849 0.930 . S
C2858 C2856 1.384 . S
C2858 C2859 1.372 . S
C2859 C2858 1.372 . S
C2859 C2860 1.400 . S
C2859 C2864 1.490 . S
C2860 H2850 0.930 . S
C2860 C2859 1.400 . S
C2860 C2863 1.386 . S
H2861 C2877 0.930 . S
H2862 C2878 0.931 . S
C2863 H2851 0.929 . S
C2863 C2857 1.390 . S
C2863 C2860 1.386 . S
C2864 C2859 1.490 . S
C2864 C2866 1.395 . S
C2864 C2867 1.403 . S
H2865 C2871 0.930 . S
C2866 H2852 0.930 . S
C2866 C2864 1.395 . S
C2866 C2869 1.403 . S
C2867 C2864 1.403 . S
C2867 C2868 1.524 . S
C2867 C2871 1.400 . S
C2868 H2853 0.960 . S
C2868 H2854 0.960 . S
C2868 H2855 0.960 . S
C2868 C2867 1.524 . S
C2869 C2866 1.403 . S
C2869 C2870 1.392 . S
C2869 C2873 1.495 . S
C2870 C2869 1.392 . S
C2870 C2871 1.385 . S
C2870 C2872 1.478 . S
C2871 H2865 0.930 . S
C2871 C2867 1.400 . S
C2871 C2870 1.385 . S
C2872 C2870 1.478 . S
C2872 C2874 1.381 . S
C2872 C2878 1.383 . S
C2873 C2869 1.495 . S
C2873 H2879 0.959 . S
C2873 H2880 0.961 . S
C2873 H2881 0.960 . S
C2874 C2872 1.381 . S
C2874 C2875 1.394 . S
C2874 H2882 0.930 . S
C2875 C2874 1.394 . S
C2875 C2876 1.383 . S
C2875 H2883 0.929 . S
C2876 C2875 1.383 . S
C2876 C2877 1.377 . S
C2877 H2861 0.930 . S
C2877 C2876 1.377 . S
C2877 C2878 1.379 . S
C2878 H2862 0.931 . S
C2878 C2872 1.383 . S
C2878 C2877 1.379 . S
H2879 C2873 0.959 . S
H2880 C2873 0.961 . S
H2881 C2873 0.960 . S
H2882 C2874 0.930 . S
H2883 C2875 0.929 . S
H2884 C2892 0.929 . S
H2885 C2894 0.930 . S
H2886 C2896 0.930 . S
H2887 C2899 0.929 . S
H2888 C2902 0.930 . S
H2889 C2904 0.960 . S
H2890 C2904 0.960 . S
H2891 C2904 0.960 . S
C2892 H2884 0.929 . S
C2892 C2893 1.377 . S
C2892 C2894 1.384 . S
C2893 C2892 1.377 . S
C2893 C2899 1.390 . S
C2894 H2885 0.930 . S
C2894 C2892 1.384 . S
C2894 C2895 1.372 . S
C2895 C2894 1.372 . S
C2895 C2896 1.400 . S
C2895 C2900 1.490 . S
C2896 H2886 0.930 . S
C2896 C2895 1.400 . S
C2896 C2899 1.386 . S
H2897 C2913 0.930 . S
H2898 C2914 0.931 . S
C2899 H2887 0.929 . S
C2899 C2893 1.390 . S
C2899 C2896 1.386 . S
C2900 C2895 1.490 . S
C2900 C2902 1.395 . S
C2900 C2903 1.403 . S
H2901 C2907 0.930 . S
C2902 H2888 0.930 . S
C2902 C2900 1.395 . S
C2902 C2905 1.403 . S
C2903 C2900 1.403 . S
C2903 C2904 1.524 . S
C2903 C2907 1.400 . S
C2904 H2889 0.960 . S
C2904 H2890 0.960 . S
C2904 H2891 0.960 . S
C2904 C2903 1.524 . S
C2905 C2902 1.403 . S
C2905 C2906 1.392 . S
C2905 C2909 1.495 . S
C2906 C2905 1.392 . S
C2906 C2907 1.385 . S
C2906 C2908 1.478 . S
C2907 H2901 0.930 . S
C2907 C2903 1.400 . S
C2907 C2906 1.385 . S
C2908 C2906 1.478 . S
C2908 C2910 1.381 . S
C2908 C2914 1.383 . S
C2909 C2905 1.495 . S
C2909 H2915 0.959 . S
C2909 H2916 0.961 . S
C2909 H2917 0.960 . S
C2910 C2908 1.381 . S
C2910 C2911 1.394 . S
C2910 H2918 0.930 . S
C2911 C2910 1.394 . S
C2911 C2912 1.383 . S
C2911 H2919 0.929 . S
C2912 C2911 1.383 . S
C2912 C2913 1.377 . S
C2913 H2897 0.930 . S
C2913 C2912 1.377 . S
C2913 C2914 1.379 . S
C2914 H2898 0.931 . S
C2914 C2908 1.383 . S
C2914 C2913 1.379 . S
H2915 C2909 0.959 . S
H2916 C2909 0.961 . S
H2917 C2909 0.960 . S
H2918 C2910 0.930 . S
H2919 C2911 0.929 . S
H2920 C2928 0.929 . S
H2921 C2930 0.930 . S
H2922 C2932 0.930 . S
H2923 C2935 0.929 . S
H2924 C2938 0.930 . S
H2925 C2940 0.960 . S
H2926 C2940 0.960 . S
H2927 C2940 0.960 . S
C2928 H2920 0.929 . S
C2928 C2929 1.377 . S
C2928 C2930 1.384 . S
C2929 C2928 1.377 . S
C2929 C2935 1.390 . S
C2930 H2921 0.930 . S
C2930 C2928 1.384 . S
C2930 C2931 1.372 . S
C2931 C2930 1.372 . S
C2931 C2932 1.400 . S
C2931 C2936 1.490 . S
C2932 H2922 0.930 . S
C2932 C2931 1.400 . S
C2932 C2935 1.386 . S
H2933 C2949 0.930 . S
H2934 C2950 0.931 . S
C2935 H2923 0.929 . S
C2935 C2929 1.390 . S
C2935 C2932 1.386 . S
C2936 C2931 1.490 . S
C2936 C2938 1.395 . S
C2936 C2939 1.403 . S
H2937 C2943 0.930 . S
C2938 H2924 0.930 . S
C2938 C2936 1.395 . S
C2938 C2941 1.403 . S
C2939 C2936 1.403 . S
C2939 C2940 1.524 . S
C2939 C2943 1.400 . S
C2940 H2925 0.960 . S
C2940 H2926 0.960 . S
C2940 H2927 0.960 . S
C2940 C2939 1.524 . S
C2941 C2938 1.403 . S
C2941 C2942 1.392 . S
C2941 C2945 1.495 . S
C2942 C2941 1.392 . S
C2942 C2943 1.385 . S
C2942 C2944 1.478 . S
C2943 H2937 0.930 . S
C2943 C2939 1.400 . S
C2943 C2942 1.385 . S
C2944 C2942 1.478 . S
C2944 C2946 1.381 . S
C2944 C2950 1.383 . S
C2945 C2941 1.495 . S
C2945 H2951 0.959 . S
C2945 H2952 0.961 . S
C2945 H2953 0.960 . S
C2946 C2944 1.381 . S
C2946 C2947 1.394 . S
C2946 H2954 0.930 . S
C2947 C2946 1.394 . S
C2947 C2948 1.383 . S
C2947 H2955 0.975 . S
C2948 C2947 1.383 . S
C2948 C2949 1.377 . S
C2949 H2933 0.930 . S
C2949 C2948 1.377 . S
C2949 C2950 1.379 . S
C2950 H2934 0.931 . S
C2950 C2944 1.383 . S
C2950 C2949 1.379 . S
H2951 C2945 0.959 . S
H2952 C2945 0.961 . S
H2953 C2945 0.960 . S
H2954 C2946 0.930 . S
H2955 C2947 0.975 . S
H2956 C2964 0.929 . S
H2957 C2966 0.930 . S
H2958 C2968 0.930 . S
H2959 C2971 0.929 . S
H2960 C2974 0.930 . S
H2961 C2976 0.960 . S
H2962 C2976 0.960 . S
H2963 C2976 0.960 . S
C2964 H2956 0.929 . S
C2964 C2965 1.377 . S
C2964 C2966 1.384 . S
C2965 C2964 1.377 . S
C2965 C2971 1.390 . S
C2966 H2957 0.930 . S
C2966 C2964 1.384 . S
C2966 C2967 1.372 . S
C2967 C2966 1.372 . S
C2967 C2968 1.400 . S
C2967 C2972 1.490 . S
C2968 H2958 0.930 . S
C2968 C2967 1.400 . S
C2968 C2971 1.386 . S
H2969 C2985 0.930 . S
H2970 C2986 0.931 . S
C2971 H2959 0.929 . S
C2971 C2965 1.390 . S
C2971 C2968 1.386 . S
C2972 C2967 1.490 . S
C2972 C2974 1.395 . S
C2972 C2975 1.403 . S
H2973 C2979 0.930 . S
C2974 H2960 0.930 . S
C2974 C2972 1.395 . S
C2974 C2977 1.403 . S
C2975 C2972 1.403 . S
C2975 C2976 1.524 . S
C2975 C2979 1.400 . S
C2976 H2961 0.960 . S
C2976 H2962 0.960 . S
C2976 H2963 0.960 . S
C2976 C2975 1.524 . S
C2977 C2974 1.403 . S
C2977 C2978 1.392 . S
C2977 C2981 1.495 . S
C2978 C2977 1.392 . S
C2978 C2979 1.385 . S
C2978 C2980 1.478 . S
C2979 H2973 0.930 . S
C2979 C2975 1.400 . S
C2979 C2978 1.385 . S
C2980 C2978 1.478 . S
C2980 C2982 1.381 . S
C2980 C2986 1.383 . S
C2981 C2977 1.495 . S
C2981 H2987 0.959 . S
C2981 H2988 0.961 . S
C2981 H2989 0.960 . S
C2982 C2980 1.381 . S
C2982 C2983 1.394 . S
C2982 H2990 0.930 . S
C2983 C2982 1.394 . S
C2983 C2984 1.383 . S
C2983 H2991 0.929 . S
C2984 C2983 1.383 . S
C2984 C2985 1.377 . S
C2985 H2969 0.930 . S
C2985 C2984 1.377 . S
C2985 C2986 1.379 . S
C2986 H2970 0.931 . S
C2986 C2980 1.383 . S
C2986 C2985 1.379 . S
H2987 C2981 0.959 . S
H2988 C2981 0.961 . S
H2989 C2981 0.960 . S
H2990 C2982 0.930 . S
H2991 C2983 0.929 . S
H2992 C3000 0.929 . S
H2993 C3002 0.930 . S
H2994 C3004 0.930 . S
H2995 C3007 0.929 . S
H2996 C3010 0.930 . S
H2997 C3012 0.960 . S
H2998 C3012 0.960 . S
H2999 C3012 0.960 . S
C3000 H2992 0.929 . S
C3000 C3001 1.377 . S
C3000 C3002 1.384 . S
C3001 C3000 1.377 . S
C3001 C3007 1.390 . S
C3002 H2993 0.930 . S
C3002 C3000 1.384 . S
C3002 C3003 1.372 . S
C3003 C3002 1.372 . S
C3003 C3004 1.400 . S
C3003 C3008 1.490 . S
C3004 H2994 0.930 . S
C3004 C3003 1.400 . S
C3004 C3007 1.386 . S
H3005 C3021 0.930 . S
H3006 C3022 0.931 . S
C3007 H2995 0.929 . S
C3007 C3001 1.390 . S
C3007 C3004 1.386 . S
C3008 C3003 1.490 . S
C3008 C3010 1.395 . S
C3008 C3011 1.403 . S
H3009 C3015 0.930 . S
C3010 H2996 0.930 . S
C3010 C3008 1.395 . S
C3010 C3013 1.403 . S
C3011 C3008 1.403 . S
C3011 C3012 1.524 . S
C3011 C3015 1.400 . S
C3012 H2997 0.960 . S
C3012 H2998 0.960 . S
C3012 H2999 0.960 . S
C3012 C3011 1.524 . S
C3013 C3010 1.403 . S
C3013 C3014 1.392 . S
C3013 C3017 1.495 . S
C3014 C3013 1.392 . S
C3014 C3015 1.385 . S
C3014 C3016 1.478 . S
C3015 H3009 0.930 . S
C3015 C3011 1.400 . S
C3015 C3014 1.385 . S
C3016 C3014 1.478 . S
C3016 C3018 1.381 . S
C3016 C3022 1.383 . S
C3017 C3013 1.495 . S
C3017 H3023 0.959 . S
C3017 H3024 0.961 . S
C3017 H3025 0.960 . S
C3018 C3016 1.381 . S
C3018 C3019 1.394 . S
C3018 H3026 0.930 . S
C3019 C3018 1.394 . S
C3019 C3020 1.383 . S
C3019 H3027 0.929 . S
C3020 C3019 1.383 . S
C3020 C3021 1.377 . S
C3021 H3005 0.930 . S
C3021 C3020 1.377 . S
C3021 C3022 1.379 . S
C3022 H3006 0.931 . S
C3022 C3016 1.383 . S
C3022 C3021 1.379 . S
H3023 C3017 0.959 . S
H3024 C3017 0.961 . S
H3025 C3017 0.960 . S
H3026 C3018 0.930 . S
H3027 C3019 0.929 . S
H3028 C3036 0.929 1_554 S
H3029 C3038 0.930 . S
H3030 C3040 0.930 . S
H3031 C3043 0.929 . S
H3032 C3046 0.930 . S
H3033 C3048 0.960 . S
H3034 C3048 0.960 . S
H3035 C3048 0.960 . S
C3036 H3028 0.929 1_556 S
C3036 C3037 1.377 1_556 S
C3036 C3038 1.384 . S
C3037 C3036 1.377 1_554 S
C3037 C3043 1.390 1_554 S
C3038 H3029 0.930 . S
C3038 C3036 1.384 . S
C3038 C3039 1.372 . S
C3039 C3038 1.372 . S
C3039 C3040 1.400 . S
C3039 C3044 1.490 . S
C3040 H3030 0.930 . S
C3040 C3039 1.400 . S
C3040 C3043 1.386 . S
H3041 C3057 0.930 . S
H3042 C3058 0.931 . S
C3043 H3031 0.929 . S
C3043 C3037 1.390 1_556 S
C3043 C3040 1.386 . S
C3044 C3039 1.490 . S
C3044 C3046 1.395 . S
C3044 C3047 1.403 . S
H3045 C3051 0.930 . S
C3046 H3032 0.930 . S
C3046 C3044 1.395 . S
C3046 C3049 1.403 . S
C3047 C3044 1.403 . S
C3047 C3048 1.524 . S
C3047 C3051 1.400 . S
C3048 H3033 0.960 . S
C3048 H3034 0.960 . S
C3048 H3035 0.960 . S
C3048 C3047 1.524 . S
C3049 C3046 1.403 . S
C3049 C3050 1.392 . S
C3049 C3053 1.495 . S
C3050 C3049 1.392 . S
C3050 C3051 1.385 . S
C3050 C3052 1.478 . S
C3051 H3045 0.930 . S
C3051 C3047 1.400 . S
C3051 C3050 1.385 . S
C3052 C3050 1.478 . S
C3052 C3054 1.381 . S
C3052 C3058 1.383 . S
C3053 C3049 1.495 . S
C3053 H3059 0.959 . S
C3053 H3060 0.961 . S
C3053 H3061 0.960 . S
C3054 C3052 1.381 . S
C3054 C3055 1.394 . S
C3054 H3062 0.930 . S
C3055 C3054 1.394 . S
C3055 C3056 1.383 . S
C3055 H3063 0.929 . S
C3056 C3055 1.383 . S
C3056 C3057 1.377 . S
C3057 H3041 0.930 . S
C3057 C3056 1.377 . S
C3057 C3058 1.379 . S
C3058 H3042 0.931 . S
C3058 C3052 1.383 . S
C3058 C3057 1.379 . S
H3059 C3053 0.959 . S
H3060 C3053 0.961 . S
H3061 C3053 0.960 . S
H3062 C3054 0.930 . S
H3063 C3055 0.929 . S
H3064 C3072 0.929 . S
H3065 C3074 0.930 . S
H3066 C3076 0.930 . S
H3067 C3079 0.929 . S
H3068 C3082 0.930 . S
H3069 C3084 0.960 . S
H3070 C3084 0.960 . S
H3071 C3084 0.960 . S
C3072 H3064 0.929 . S
C3072 C3073 1.377 . S
C3072 C3074 1.384 . S
C3073 C3072 1.377 . S
C3073 C3079 1.390 . S
C3074 H3065 0.930 . S
C3074 C3072 1.384 . S
C3074 C3075 1.372 . S
C3075 C3074 1.372 . S
C3075 C3076 1.400 . S
C3075 C3080 1.490 . S
C3076 H3066 0.930 . S
C3076 C3075 1.400 . S
C3076 C3079 1.386 . S
H3077 C3093 0.930 . S
H3078 C3094 0.931 . S
C3079 H3067 0.929 . S
C3079 C3073 1.390 . S
C3079 C3076 1.386 . S
C3080 C3075 1.490 . S
C3080 C3082 1.395 . S
C3080 C3083 1.403 . S
H3081 C3087 0.930 . S
C3082 H3068 0.930 . S
C3082 C3080 1.395 . S
C3082 C3085 1.403 . S
C3083 C3080 1.403 . S
C3083 C3084 1.524 . S
C3083 C3087 1.400 . S
C3084 H3069 0.960 . S
C3084 H3070 0.960 . S
C3084 H3071 0.960 . S
C3084 C3083 1.524 . S
C3085 C3082 1.403 . S
C3085 C3086 1.392 . S
C3085 C3089 1.495 . S
C3086 C3085 1.392 . S
C3086 C3087 1.385 . S
C3086 C3088 1.478 . S
C3087 H3081 0.930 . S
C3087 C3083 1.400 . S
C3087 C3086 1.385 . S
C3088 C3086 1.478 . S
C3088 C3090 1.381 . S
C3088 C3094 1.383 . S
C3089 C3085 1.495 . S
C3089 H3095 0.959 . S
C3089 H3096 0.961 . S
C3089 H3097 0.960 . S
C3090 C3088 1.381 . S
C3090 C3091 1.394 . S
C3090 H3098 0.930 . S
C3091 C3090 1.394 . S
C3091 C3092 1.383 . S
C3091 H3099 0.929 . S
C3092 C3091 1.383 . S
C3092 C3093 1.377 . S
C3093 H3077 0.930 . S
C3093 C3092 1.377 . S
C3093 C3094 1.379 . S
C3094 H3078 0.931 . S
C3094 C3088 1.383 . S
C3094 C3093 1.379 . S
H3095 C3089 0.959 . S
H3096 C3089 0.961 . S
H3097 C3089 0.960 . S
H3098 C3090 0.930 . S
H3099 C3091 0.929 . S
H3100 C3108 0.929 . S
H3101 C3110 0.930 . S
H3102 C3112 0.930 . S
H3103 C3115 0.929 . S
H3104 C3118 0.930 . S
H3105 C3120 0.960 . S
H3106 C3120 0.960 . S
H3107 C3120 0.960 . S
C3108 H3100 0.929 . S
C3108 C3109 1.377 . S
C3108 C3110 1.384 . S
C3109 C3108 1.377 . S
C3109 C3115 1.390 . S
C3110 H3101 0.930 . S
C3110 C3108 1.384 . S
C3110 C3111 1.372 . S
C3111 C3110 1.372 . S
C3111 C3112 1.400 . S
C3111 C3116 1.490 . S
C3112 H3102 0.930 . S
C3112 C3111 1.400 . S
C3112 C3115 1.386 . S
H3113 C3129 0.930 . S
H3114 C3130 0.931 . S
C3115 H3103 0.929 . S
C3115 C3109 1.390 . S
C3115 C3112 1.386 . S
C3116 C3111 1.490 . S
C3116 C3118 1.395 . S
C3116 C3119 1.403 . S
H3117 C3123 0.930 . S
C3118 H3104 0.930 . S
C3118 C3116 1.395 . S
C3118 C3121 1.403 . S
C3119 C3116 1.403 . S
C3119 C3120 1.524 . S
C3119 C3123 1.400 . S
C3120 H3105 0.960 . S
C3120 H3106 0.960 . S
C3120 H3107 0.960 . S
C3120 C3119 1.524 . S
C3121 C3118 1.403 . S
C3121 C3122 1.392 . S
C3121 C3125 1.495 . S
C3122 C3121 1.392 . S
C3122 C3123 1.385 . S
C3122 C3124 1.478 . S
C3123 H3117 0.930 . S
C3123 C3119 1.400 . S
C3123 C3122 1.385 . S
C3124 C3122 1.478 . S
C3124 C3126 1.381 . S
C3124 C3130 1.383 . S
C3125 C3121 1.495 . S
C3125 H3131 0.959 . S
C3125 H3132 0.961 . S
C3125 H3133 0.960 . S
C3126 C3124 1.381 . S
C3126 C3127 1.394 . S
C3126 H3134 0.930 . S
C3127 C3126 1.394 . S
C3127 C3128 1.383 . S
C3127 H3135 0.929 . S
C3128 C3127 1.383 . S
C3128 C3129 1.377 . S
C3129 H3113 0.930 . S
C3129 C3128 1.377 . S
C3129 C3130 1.379 . S
C3130 H3114 0.931 . S
C3130 C3124 1.383 . S
C3130 C3129 1.379 . S
H3131 C3125 0.959 . S
H3132 C3125 0.961 . S
H3133 C3125 0.960 . S
H3134 C3126 0.930 . S
H3135 C3127 0.929 . S
H3136 C3144 0.929 . S
H3137 C3146 0.930 . S
H3138 C3148 0.930 . S
H3139 C3151 0.929 . S
H3140 C3154 0.930 . S
H3141 C3156 0.960 . S
H3142 C3156 0.960 . S
H3143 C3156 0.960 . S
C3144 H3136 0.929 . S
C3144 C3145 1.377 . S
C3144 C3146 1.384 . S
C3145 C3144 1.377 . S
C3145 C3151 1.390 . S
C3146 H3137 0.930 . S
C3146 C3144 1.384 . S
C3146 C3147 1.372 . S
C3147 C3146 1.372 . S
C3147 C3148 1.400 . S
C3147 C3152 1.490 . S
C3148 H3138 0.930 . S
C3148 C3147 1.400 . S
C3148 C3151 1.386 . S
H3149 C3165 0.930 . S
H3150 C3166 0.931 . S
C3151 H3139 0.929 . S
C3151 C3145 1.390 . S
C3151 C3148 1.386 . S
C3152 C3147 1.490 . S
C3152 C3154 1.395 . S
C3152 C3155 1.403 . S
H3153 C3159 0.930 . S
C3154 H3140 0.930 . S
C3154 C3152 1.395 . S
C3154 C3157 1.403 . S
C3155 C3152 1.403 . S
C3155 C3156 1.524 . S
C3155 C3159 1.400 . S
C3156 H3141 0.960 . S
C3156 H3142 0.960 . S
C3156 H3143 0.960 . S
C3156 C3155 1.524 . S
C3157 C3154 1.403 . S
C3157 C3158 1.392 . S
C3157 C3161 1.495 . S
C3158 C3157 1.392 . S
C3158 C3159 1.385 . S
C3158 C3160 1.478 . S
C3159 H3153 0.930 . S
C3159 C3155 1.400 . S
C3159 C3158 1.385 . S
C3160 C3158 1.478 . S
C3160 C3162 1.381 . S
C3160 C3166 1.383 . S
C3161 C3157 1.495 . S
C3161 H3167 0.959 . S
C3161 H3168 0.961 . S
C3161 H3169 0.960 . S
C3162 C3160 1.381 . S
C3162 C3163 1.394 . S
C3162 H3170 0.930 . S
C3163 C3162 1.394 . S
C3163 C3164 1.383 . S
C3163 H3171 0.929 . S
C3164 C3163 1.383 . S
C3164 C3165 1.377 . S
C3165 H3149 0.930 . S
C3165 C3164 1.377 . S
C3165 C3166 1.379 . S
C3166 H3150 0.931 . S
C3166 C3160 1.383 . S
C3166 C3165 1.379 . S
H3167 C3161 0.959 . S
H3168 C3161 0.961 . S
H3169 C3161 0.960 . S
H3170 C3162 0.930 . S
H3171 C3163 0.929 . S
H3172 C3180 0.929 . S
H3173 C3182 0.930 . S
H3174 C3184 0.930 . S
H3175 C3187 0.929 . S
H3176 C3190 0.930 . S
H3177 C3192 0.960 . S
H3178 C3192 0.960 . S
H3179 C3192 0.960 . S
C3180 H3172 0.929 . S
C3180 C3181 1.377 . S
C3180 C3182 1.384 . S
C3181 C3180 1.377 . S
C3181 C3187 1.390 . S
C3182 H3173 0.930 . S
C3182 C3180 1.384 . S
C3182 C3183 1.372 . S
C3183 C3182 1.372 . S
C3183 C3184 1.400 . S
C3183 C3188 1.490 . S
C3184 H3174 0.930 . S
C3184 C3183 1.400 . S
C3184 C3187 1.386 . S
H3185 C3201 0.930 . S
H3186 C3202 0.931 . S
C3187 H3175 0.929 . S
C3187 C3181 1.390 . S
C3187 C3184 1.386 . S
C3188 C3183 1.490 . S
C3188 C3190 1.395 . S
C3188 C3191 1.403 . S
H3189 C3195 0.930 . S
C3190 H3176 0.930 . S
C3190 C3188 1.395 . S
C3190 C3193 1.403 . S
C3191 C3188 1.403 . S
C3191 C3192 1.524 . S
C3191 C3195 1.400 . S
C3192 H3177 0.960 . S
C3192 H3178 0.960 . S
C3192 H3179 0.960 . S
C3192 C3191 1.524 . S
C3193 C3190 1.403 . S
C3193 C3194 1.392 . S
C3193 C3197 1.495 . S
C3194 C3193 1.392 . S
C3194 C3195 1.385 . S
C3194 C3196 1.478 . S
C3195 H3189 0.930 . S
C3195 C3191 1.400 . S
C3195 C3194 1.385 . S
C3196 C3194 1.478 . S
C3196 C3198 1.381 . S
C3196 C3202 1.383 . S
C3197 C3193 1.495 . S
C3197 H3203 0.959 . S
C3197 H3204 0.961 . S
C3197 H3205 0.960 . S
C3198 C3196 1.381 . S
C3198 C3199 1.394 . S
C3198 H3206 0.930 . S
C3199 C3198 1.394 . S
C3199 C3200 1.383 . S
C3199 H3207 0.929 . S
C3200 C3199 1.383 . S
C3200 C3201 1.377 . S
C3201 H3185 0.930 . S
C3201 C3200 1.377 . S
C3201 C3202 1.379 . S
C3202 H3186 0.931 . S
C3202 C3196 1.383 . S
C3202 C3201 1.379 . S
H3203 C3197 0.959 . S
H3204 C3197 0.961 . S
H3205 C3197 0.960 . S
H3206 C3198 0.930 . S
H3207 C3199 0.929 . S
H3208 C3216 0.929 . S
H3209 C3218 0.930 . S
H3210 C3220 0.930 . S
H3211 C3223 0.929 . S
H3212 C3226 0.930 . S
H3213 C3228 0.960 . S
H3214 C3228 0.960 . S
H3215 C3228 0.960 . S
C3216 H3208 0.929 . S
C3216 C3217 1.377 . S
C3216 C3218 1.384 . S
C3217 C3216 1.377 . S
C3217 C3223 1.390 . S
C3218 H3209 0.930 . S
C3218 C3216 1.384 . S
C3218 C3219 1.372 . S
C3219 C3218 1.372 . S
C3219 C3220 1.400 . S
C3219 C3224 1.490 . S
C3220 H3210 0.930 . S
C3220 C3219 1.400 . S
C3220 C3223 1.386 . S
H3221 C3237 0.930 . S
H3222 C3238 0.931 . S
C3223 H3211 0.929 . S
C3223 C3217 1.390 . S
C3223 C3220 1.386 . S
C3224 C3219 1.490 . S
C3224 C3226 1.395 . S
C3224 C3227 1.403 . S
H3225 C3231 0.930 . S
C3226 H3212 0.930 . S
C3226 C3224 1.395 . S
C3226 C3229 1.403 . S
C3227 C3224 1.403 . S
C3227 C3228 1.524 . S
C3227 C3231 1.400 . S
C3228 H3213 0.960 . S
C3228 H3214 0.960 . S
C3228 H3215 0.960 . S
C3228 C3227 1.524 . S
C3229 C3226 1.403 . S
C3229 C3230 1.392 . S
C3229 C3233 1.495 . S
C3230 C3229 1.392 . S
C3230 C3231 1.385 . S
C3230 C3232 1.478 . S
C3231 H3225 0.930 . S
C3231 C3227 1.400 . S
C3231 C3230 1.385 . S
C3232 C3230 1.478 . S
C3232 C3234 1.381 . S
C3232 C3238 1.383 . S
C3233 C3229 1.495 . S
C3233 H3239 0.959 . S
C3233 H3240 0.961 . S
C3233 H3241 0.960 . S
C3234 C3232 1.381 . S
C3234 C3235 1.394 . S
C3234 H3242 0.930 . S
C3235 C3234 1.394 . S
C3235 C3236 1.383 . S
C3235 H3243 0.929 . S
C3236 C3235 1.383 . S
C3236 C3237 1.377 . S
C3237 H3221 0.930 . S
C3237 C3236 1.377 . S
C3237 C3238 1.379 . S
C3238 H3222 0.931 . S
C3238 C3232 1.383 . S
C3238 C3237 1.379 . S
H3239 C3233 0.959 . S
H3240 C3233 0.961 . S
H3241 C3233 0.960 . S
H3242 C3234 0.930 . S
H3243 C3235 0.929 . S
H3244 C3252 0.929 . S
H3245 C3254 0.930 . S
H3246 C3256 0.930 . S
H3247 C3259 0.929 . S
H3248 C3262 0.930 . S
H3249 C3264 0.960 . S
H3250 C3264 0.960 . S
H3251 C3264 0.960 . S
C3252 H3244 0.929 . S
C3252 C3253 1.377 . S
C3252 C3254 1.384 . S
C3253 C3252 1.377 . S
C3253 C3259 1.390 . S
C3254 H3245 0.930 . S
C3254 C3252 1.384 . S
C3254 C3255 1.372 . S
C3255 C3254 1.372 . S
C3255 C3256 1.400 . S
C3255 C3260 1.490 . S
C3256 H3246 0.930 . S
C3256 C3255 1.400 . S
C3256 C3259 1.386 . S
H3257 C3273 0.930 . S
H3258 C3274 0.931 . S
C3259 H3247 0.929 . S
C3259 C3253 1.390 . S
C3259 C3256 1.386 . S
C3260 C3255 1.490 . S
C3260 C3262 1.395 . S
C3260 C3263 1.403 . S
H3261 C3267 0.930 . S
C3262 H3248 0.930 . S
C3262 C3260 1.395 . S
C3262 C3265 1.403 . S
C3263 C3260 1.403 . S
C3263 C3264 1.524 . S
C3263 C3267 1.400 . S
C3264 H3249 0.960 . S
C3264 H3250 0.960 . S
C3264 H3251 0.960 . S
C3264 C3263 1.524 . S
C3265 C3262 1.403 . S
C3265 C3266 1.392 . S
C3265 C3269 1.495 . S
C3266 C3265 1.392 . S
C3266 C3267 1.385 . S
C3266 C3268 1.478 . S
C3267 H3261 0.930 . S
C3267 C3263 1.400 . S
C3267 C3266 1.385 . S
C3268 C3266 1.478 . S
C3268 C3270 1.381 . S
C3268 C3274 1.383 . S
C3269 C3265 1.495 . S
C3269 H3275 0.959 . S
C3269 H3276 0.961 . S
C3269 H3277 0.960 . S
C3270 C3268 1.381 . S
C3270 C3271 1.394 . S
C3270 H3278 0.930 . S
C3271 C3270 1.394 . S
C3271 C3272 1.383 . S
C3271 H3279 0.929 . S
C3272 C3271 1.383 . S
C3272 C3273 1.377 . S
C3273 H3257 0.930 . S
C3273 C3272 1.377 . S
C3273 C3274 1.379 . S
C3274 H3258 0.931 . S
C3274 C3268 1.383 . S
C3274 C3273 1.379 . S
H3275 C3269 0.959 . S
H3276 C3269 0.961 . S
H3277 C3269 0.960 . S
H3278 C3270 0.930 . S
H3279 C3271 0.929 . S
H3280 C3288 0.929 . S
H3281 C3290 0.930 . S
H3282 C3292 0.930 . S
H3283 C3295 0.929 . S
H3284 C3298 0.930 . S
H3285 C3300 0.960 . S
H3286 C3300 0.960 . S
H3287 C3300 0.960 . S
C3288 H3280 0.929 . S
C3288 C3289 1.377 . S
C3288 C3290 1.384 . S
C3289 C3288 1.377 . S
C3289 C3295 1.390 . S
C3290 H3281 0.930 . S
C3290 C3288 1.384 . S
C3290 C3291 1.372 . S
C3291 C3290 1.372 . S
C3291 C3292 1.400 . S
C3291 C3296 1.490 . S
C3292 H3282 0.930 . S
C3292 C3291 1.400 . S
C3292 C3295 1.386 . S
H3293 C3309 0.930 . S
H3294 C3310 0.931 . S
C3295 H3283 0.929 . S
C3295 C3289 1.390 . S
C3295 C3292 1.386 . S
C3296 C3291 1.490 . S
C3296 C3298 1.395 . S
C3296 C3299 1.403 . S
H3297 C3303 0.930 . S
C3298 H3284 0.930 . S
C3298 C3296 1.395 . S
C3298 C3301 1.403 . S
C3299 C3296 1.403 . S
C3299 C3300 1.524 . S
C3299 C3303 1.400 . S
C3300 H3285 0.960 . S
C3300 H3286 0.960 . S
C3300 H3287 0.960 . S
C3300 C3299 1.524 . S
C3301 C3298 1.403 . S
C3301 C3302 1.392 . S
C3301 C3305 1.495 . S
C3302 C3301 1.392 . S
C3302 C3303 1.385 . S
C3302 C3304 1.478 . S
C3303 H3297 0.930 . S
C3303 C3299 1.400 . S
C3303 C3302 1.385 . S
C3304 C3302 1.478 . S
C3304 C3306 1.381 . S
C3304 C3310 1.383 . S
C3305 C3301 1.495 . S
C3305 H3311 0.959 . S
C3305 H3312 0.961 . S
C3305 H3313 0.960 . S
C3306 C3304 1.381 . S
C3306 C3307 1.394 . S
C3306 H3314 0.930 . S
C3307 C3306 1.394 . S
C3307 C3308 1.383 . S
C3307 H3315 0.929 . S
C3308 C3307 1.383 . S
C3308 C3309 1.377 . S
C3309 H3293 0.930 . S
C3309 C3308 1.377 . S
C3309 C3310 1.379 . S
C3310 H3294 0.931 . S
C3310 C3304 1.383 . S
C3310 C3309 1.379 . S
H3311 C3305 0.959 . S
H3312 C3305 0.961 . S
H3313 C3305 0.960 . S
H3314 C3306 0.930 . S
H3315 C3307 0.929 . S
H3316 C3324 0.929 . S
H3317 C3326 0.930 . S
H3318 C3328 0.930 . S
H3319 C3331 0.929 . S
H3320 C3334 0.930 . S
H3321 C3336 0.960 . S
H3322 C3336 0.960 . S
H3323 C3336 0.960 . S
C3324 H3316 0.929 . S
C3324 C3325 1.377 . S
C3324 C3326 1.384 . S
C3325 C3324 1.377 . S
C3325 C3331 1.390 . S
C3326 H3317 0.930 . S
C3326 C3324 1.384 . S
C3326 C3327 1.372 . S
C3327 C3326 1.372 . S
C3327 C3328 1.400 . S
C3327 C3332 1.490 . S
C3328 H3318 0.930 . S
C3328 C3327 1.400 . S
C3328 C3331 1.386 . S
H3329 C3345 0.930 . S
H3330 C3346 0.931 . S
C3331 H3319 0.929 . S
C3331 C3325 1.390 . S
C3331 C3328 1.386 . S
C3332 C3327 1.490 . S
C3332 C3334 1.395 . S
C3332 C3335 1.403 . S
H3333 C3339 0.930 . S
C3334 H3320 0.930 . S
C3334 C3332 1.395 . S
C3334 C3337 1.403 . S
C3335 C3332 1.403 . S
C3335 C3336 1.524 . S
C3335 C3339 1.400 . S
C3336 H3321 0.960 . S
C3336 H3322 0.960 . S
C3336 H3323 0.960 . S
C3336 C3335 1.524 . S
C3337 C3334 1.403 . S
C3337 C3338 1.392 . S
C3337 C3341 1.495 . S
C3338 C3337 1.392 . S
C3338 C3339 1.385 . S
C3338 C3340 1.478 . S
C3339 H3333 0.930 . S
C3339 C3335 1.400 . S
C3339 C3338 1.385 . S
C3340 C3338 1.478 . S
C3340 C3342 1.381 . S
C3340 C3346 1.383 . S
C3341 C3337 1.495 . S
C3341 H3347 0.959 . S
C3341 H3348 0.961 . S
C3341 H3349 0.960 . S
C3342 C3340 1.381 . S
C3342 C3343 1.394 . S
C3342 H3350 0.930 . S
C3343 C3342 1.394 . S
C3343 C3344 1.383 . S
C3343 H3351 0.929 . S
C3344 C3343 1.383 . S
C3344 C3345 1.377 . S
C3345 H3329 0.930 . S
C3345 C3344 1.377 . S
C3345 C3346 1.379 . S
C3346 H3330 0.931 . S
C3346 C3340 1.383 . S
C3346 C3345 1.379 . S
H3347 C3341 0.959 . S
H3348 C3341 0.961 . S
H3349 C3341 0.960 . S
H3350 C3342 0.930 . S
H3351 C3343 0.929 . S
H3352 C3360 0.929 1_545 S
H3353 C3362 0.930 . S
H3354 C3364 0.930 . S
H3355 C3367 0.929 . S
H3356 C3370 0.930 . S
H3357 C3372 0.960 . S
H3358 C3372 0.960 . S
H3359 C3372 0.960 . S
C3360 H3352 0.929 1_565 S
C3360 C3361 1.377 . S
C3360 C3362 1.384 . S
C3361 C3360 1.377 . S
C3361 C3367 1.390 . S
C3362 H3353 0.930 . S
C3362 C3360 1.384 . S
C3362 C3363 1.372 . S
C3363 C3362 1.372 . S
C3363 C3364 1.400 . S
C3363 C3368 1.490 . S
C3364 H3354 0.930 . S
C3364 C3363 1.400 . S
C3364 C3367 1.386 . S
H3365 C3381 0.930 . S
H3366 C3382 0.931 . S
C3367 H3355 0.929 . S
C3367 C3361 1.390 . S
C3367 C3364 1.386 . S
C3368 C3363 1.490 . S
C3368 C3370 1.395 . S
C3368 C3371 1.403 . S
H3369 C3375 0.930 . S
C3370 H3356 0.930 . S
C3370 C3368 1.395 . S
C3370 C3373 1.403 . S
C3371 C3368 1.403 . S
C3371 C3372 1.524 . S
C3371 C3375 1.400 . S
C3372 H3357 0.960 . S
C3372 H3358 0.960 . S
C3372 H3359 0.960 . S
C3372 C3371 1.524 . S
C3373 C3370 1.403 . S
C3373 C3374 1.392 . S
C3373 C3377 1.495 . S
C3374 C3373 1.392 . S
C3374 C3375 1.385 . S
C3374 C3376 1.478 . S
C3375 H3369 0.930 . S
C3375 C3371 1.400 . S
C3375 C3374 1.385 . S
C3376 C3374 1.478 . S
C3376 C3378 1.381 . S
C3376 C3382 1.383 . S
C3377 C3373 1.495 . S
C3377 H3383 0.959 . S
C3377 H3384 0.961 . S
C3377 H3385 0.960 . S
C3378 C3376 1.381 . S
C3378 C3379 1.394 . S
C3378 H3386 0.930 . S
C3379 C3378 1.394 . S
C3379 C3380 1.383 . S
C3379 H3387 0.929 . S
C3380 C3379 1.383 . S
C3380 C3381 1.377 . S
C3381 H3365 0.930 . S
C3381 C3380 1.377 . S
C3381 C3382 1.379 . S
C3382 H3366 0.931 . S
C3382 C3376 1.383 . S
C3382 C3381 1.379 . S
H3383 C3377 0.959 . S
H3384 C3377 0.961 . S
H3385 C3377 0.960 . S
H3386 C3378 0.930 . S
H3387 C3379 0.929 . S
H3388 C3396 0.929 . S
H3389 C3398 0.930 . S
H3390 C3400 0.930 . S
H3391 C3403 0.929 . S
H3392 C3406 0.930 . S
H3393 C3408 0.960 . S
H3394 C3408 0.960 . S
H3395 C3408 0.960 . S
C3396 H3388 0.929 . S
C3396 C3397 1.376 . S
C3396 C3398 1.384 . S
C3397 C3396 1.376 . S
C3397 C3403 1.391 1_556 S
C3398 H3389 0.930 . S
C3398 C3396 1.384 . S
C3398 C3399 1.372 1_556 S
C3399 C3398 1.372 1_554 S
C3399 C3400 1.400 . S
C3399 C3404 1.490 . S
C3400 H3390 0.930 . S
C3400 C3399 1.400 . S
C3400 C3403 1.386 . S
H3401 C3417 0.933 1_565 S
H3402 C3418 0.931 . S
C3403 H3391 0.929 . S
C3403 C3397 1.391 1_554 S
C3403 C3400 1.386 . S
C3404 C3399 1.490 . S
C3404 C3406 1.395 . S
C3404 C3407 1.403 1_554 S
H3405 C3411 0.930 1_556 S
C3406 H3392 0.930 . S
C3406 C3404 1.395 . S
C3406 C3409 1.403 . S
C3407 C3404 1.403 1_556 S
C3407 C3408 1.524 . S
C3407 C3411 1.400 1_556 S
C3408 H3393 0.960 . S
C3408 H3394 0.960 . S
C3408 H3395 0.960 . S
C3408 C3407 1.524 . S
C3409 C3406 1.403 . S
C3409 C3410 1.392 . S
C3409 C3413 1.495 1_565 S
C3410 C3409 1.392 . S
C3410 C3411 1.385 . S
C3410 C3412 1.479 . S
C3411 H3405 0.930 1_554 S
C3411 C3407 1.400 1_554 S
C3411 C3410 1.385 . S
C3412 C3410 1.479 . S
C3412 C3414 1.373 1_565 S
C3412 C3418 1.389 . S
C3413 C3409 1.495 1_545 S
C3413 H3419 0.959 . S
C3413 H3420 0.961 . S
C3413 H3421 0.960 . S
C3414 C3412 1.373 1_545 S
C3414 C3415 1.394 . S
C3414 H3422 0.930 . S
C3415 C3414 1.394 . S
C3415 C3416 1.383 . S
C3415 H3423 0.929 . S
C3416 C3415 1.383 . S
C3416 C3417 1.372 . S
C3417 H3401 0.933 1_545 S
C3417 C3416 1.372 . S
C3417 C3418 1.380 1_545 S
C3418 H3402 0.931 . S
C3418 C3412 1.389 . S
C3418 C3417 1.380 1_565 S
H3419 C3413 0.959 . S
H3420 C3413 0.961 . S
H3421 C3413 0.960 . S
H3422 C3414 0.930 . S
H3423 C3415 0.929 . S
H3424 C3432 0.929 . S
H3425 C3434 0.930 . S
H3426 C3436 0.930 . S
H3427 C3439 0.929 . S
H3428 C3442 0.930 . S
H3429 C3444 0.960 . S
H3430 C3444 0.960 . S
H3431 C3444 0.960 . S
C3432 H3424 0.929 . S
C3432 C3433 1.377 . S
C3432 C3434 1.384 . S
C3433 C3432 1.377 . S
C3433 C3439 1.390 . S
C3434 H3425 0.930 . S
C3434 C3432 1.384 . S
C3434 C3435 1.372 . S
C3435 C3434 1.372 . S
C3435 C3436 1.400 . S
C3435 C3440 1.490 . S
C3436 H3426 0.930 . S
C3436 C3435 1.400 . S
C3436 C3439 1.386 . S
H3437 C3453 0.930 . S
H3438 C3454 0.931 . S
C3439 H3427 0.929 . S
C3439 C3433 1.390 . S
C3439 C3436 1.386 . S
C3440 C3435 1.490 . S
C3440 C3442 1.395 . S
C3440 C3443 1.403 . S
H3441 C3447 0.930 . S
C3442 H3428 0.930 . S
C3442 C3440 1.395 . S
C3442 C3445 1.403 . S
C3443 C3440 1.403 . S
C3443 C3444 1.524 . S
C3443 C3447 1.400 . S
C3444 H3429 0.960 . S
C3444 H3430 0.960 . S
C3444 H3431 0.960 . S
C3444 C3443 1.524 . S
C3445 C3442 1.403 . S
C3445 C3446 1.392 . S
C3445 C3449 1.495 . S
C3446 C3445 1.392 . S
C3446 C3447 1.385 . S
C3446 C3448 1.478 . S
C3447 H3441 0.930 . S
C3447 C3443 1.400 . S
C3447 C3446 1.385 . S
C3448 C3446 1.478 . S
C3448 C3450 1.381 . S
C3448 C3454 1.383 . S
C3449 C3445 1.495 . S
C3449 H3455 0.959 . S
C3449 H3456 0.961 . S
C3449 H3457 0.960 . S
C3450 C3448 1.381 . S
C3450 C3451 1.394 . S
C3450 H3458 0.930 . S
C3451 C3450 1.394 . S
C3451 C3452 1.383 . S
C3451 H3459 0.929 . S
C3452 C3451 1.383 . S
C3452 C3453 1.377 . S
C3453 H3437 0.930 . S
C3453 C3452 1.377 . S
C3453 C3454 1.379 . S
C3454 H3438 0.931 . S
C3454 C3448 1.383 . S
C3454 C3453 1.379 . S
H3455 C3449 0.959 . S
H3456 C3449 0.961 . S
H3457 C3449 0.960 . S
H3458 C3450 0.930 . S
H3459 C3451 0.929 . S
H3460 C3468 0.929 . S
H3461 C3470 0.930 . S
H3462 C3472 0.930 . S
H3463 C3475 0.926 1_556 S
H3464 C3478 0.930 . S
H3465 C3480 0.960 . S
H3466 C3480 0.960 . S
H3467 C3480 0.960 . S
C3468 H3460 0.929 . S
C3468 C3469 1.377 . S
C3468 C3470 1.384 . S
C3469 C3468 1.377 . S
C3469 C3475 1.390 . S
C3470 H3461 0.930 . S
C3470 C3468 1.384 . S
C3470 C3471 1.372 . S
C3471 C3470 1.372 . S
C3471 C3472 1.400 . S
C3471 C3476 1.490 . S
C3472 H3462 0.930 . S
C3472 C3471 1.400 . S
C3472 C3475 1.386 . S
H3473 C3489 0.930 . S
H3474 C3490 0.931 . S
C3475 H3463 0.926 1_554 S
C3475 C3469 1.390 . S
C3475 C3472 1.386 . S
C3476 C3471 1.490 . S
C3476 C3478 1.395 . S
C3476 C3479 1.403 . S
H3477 C3483 0.930 . S
C3478 H3464 0.930 . S
C3478 C3476 1.395 . S
C3478 C3481 1.403 . S
C3479 C3476 1.403 . S
C3479 C3480 1.524 . S
C3479 C3483 1.400 . S
C3480 H3465 0.960 . S
C3480 H3466 0.960 . S
C3480 H3467 0.960 . S
C3480 C3479 1.524 . S
C3481 C3478 1.403 . S
C3481 C3482 1.392 . S
C3481 C3485 1.495 . S
C3482 C3481 1.392 . S
C3482 C3483 1.385 . S
C3482 C3484 1.478 . S
C3483 H3477 0.930 . S
C3483 C3479 1.400 . S
C3483 C3482 1.385 . S
C3484 C3482 1.478 . S
C3484 C3486 1.381 . S
C3484 C3490 1.383 . S
C3485 C3481 1.495 . S
C3485 H3491 0.959 . S
C3485 H3492 0.961 . S
C3485 H3493 0.960 . S
C3486 C3484 1.381 . S
C3486 C3487 1.394 . S
C3486 H3494 0.930 . S
C3487 C3486 1.394 . S
C3487 C3488 1.383 . S
C3487 H3495 0.929 . S
C3488 C3487 1.383 . S
C3488 C3489 1.377 . S
C3489 H3473 0.930 . S
C3489 C3488 1.377 . S
C3489 C3490 1.379 . S
C3490 H3474 0.931 . S
C3490 C3484 1.383 . S
C3490 C3489 1.379 . S
H3491 C3485 0.959 . S
H3492 C3485 0.961 . S
H3493 C3485 0.960 . S
H3494 C3486 0.930 . S
H3495 C3487 0.929 . S
H3496 C3504 0.929 . S
H3497 C3506 0.930 . S
H3498 C3508 0.930 . S
H3499 C3511 0.929 . S
H3500 C3514 0.930 . S
H3501 C3516 0.960 . S
H3502 C3516 0.960 . S
H3503 C3516 0.960 . S
C3504 H3496 0.929 . S
C3504 C3505 1.377 . S
C3504 C3506 1.384 . S
C3505 C3504 1.377 . S
C3505 C3511 1.390 . S
C3506 H3497 0.930 . S
C3506 C3504 1.384 . S
C3506 C3507 1.372 . S
C3507 C3506 1.372 . S
C3507 C3508 1.400 . S
C3507 C3512 1.490 . S
C3508 H3498 0.930 . S
C3508 C3507 1.400 . S
C3508 C3511 1.386 . S
H3509 C3525 0.930 . S
H3510 C3526 0.931 . S
C3511 H3499 0.929 . S
C3511 C3505 1.390 . S
C3511 C3508 1.386 . S
C3512 C3507 1.490 . S
C3512 C3514 1.395 . S
C3512 C3515 1.403 . S
H3513 C3519 0.930 . S
C3514 H3500 0.930 . S
C3514 C3512 1.395 . S
C3514 C3517 1.403 . S
C3515 C3512 1.403 . S
C3515 C3516 1.524 . S
C3515 C3519 1.400 . S
C3516 H3501 0.960 . S
C3516 H3502 0.960 . S
C3516 H3503 0.960 . S
C3516 C3515 1.524 . S
C3517 C3514 1.403 . S
C3517 C3518 1.392 . S
C3517 C3521 1.495 . S
C3518 C3517 1.392 . S
C3518 C3519 1.385 . S
C3518 C3520 1.478 . S
C3519 H3513 0.930 . S
C3519 C3515 1.400 . S
C3519 C3518 1.385 . S
C3520 C3518 1.478 . S
C3520 C3522 1.381 . S
C3520 C3526 1.383 . S
C3521 C3517 1.495 . S
C3521 H3527 0.959 . S
C3521 H3528 0.961 . S
C3521 H3529 0.960 . S
C3522 C3520 1.381 . S
C3522 C3523 1.394 . S
C3522 H3530 0.930 . S
C3523 C3522 1.394 . S
C3523 C3524 1.383 . S
C3523 H3531 0.929 . S
C3524 C3523 1.383 . S
C3524 C3525 1.377 . S
C3525 H3509 0.930 . S
C3525 C3524 1.377 . S
C3525 C3526 1.379 . S
C3526 H3510 0.931 . S
C3526 C3520 1.383 . S
C3526 C3525 1.379 . S
H3527 C3521 0.959 . S
H3528 C3521 0.961 . S
H3529 C3521 0.960 . S
H3530 C3522 0.930 . S
H3531 C3523 0.929 . S
H3532 C3540 0.929 . S
H3533 C3542 0.930 . S
H3534 C3544 0.930 . S
H3535 C3547 0.929 . S
H3536 C3550 0.930 . S
H3537 C3552 0.960 . S
H3538 C3552 0.960 . S
H3539 C3552 0.960 . S
C3540 H3532 0.929 . S
C3540 C3541 1.377 . S
C3540 C3542 1.384 . S
C3541 C3540 1.377 . S
C3541 C3547 1.390 . S
C3542 H3533 0.930 . S
C3542 C3540 1.384 . S
C3542 C3543 1.372 . S
C3543 C3542 1.372 . S
C3543 C3544 1.400 . S
C3543 C3548 1.490 . S
C3544 H3534 0.930 . S
C3544 C3543 1.400 . S
C3544 C3547 1.386 . S
H3545 C3561 0.930 . S
H3546 C3562 0.931 . S
C3547 H3535 0.929 . S
C3547 C3541 1.390 . S
C3547 C3544 1.386 . S
C3548 C3543 1.490 . S
C3548 C3550 1.395 . S
C3548 C3551 1.403 . S
H3549 C3555 0.930 . S
C3550 H3536 0.930 . S
C3550 C3548 1.395 . S
C3550 C3553 1.403 . S
C3551 C3548 1.403 . S
C3551 C3552 1.524 . S
C3551 C3555 1.400 . S
C3552 H3537 0.960 . S
C3552 H3538 0.960 . S
C3552 H3539 0.960 . S
C3552 C3551 1.524 . S
C3553 C3550 1.403 . S
C3553 C3554 1.392 . S
C3553 C3557 1.495 . S
C3554 C3553 1.392 . S
C3554 C3555 1.385 . S
C3554 C3556 1.478 . S
C3555 H3549 0.930 . S
C3555 C3551 1.400 . S
C3555 C3554 1.385 . S
C3556 C3554 1.478 . S
C3556 C3558 1.381 . S
C3556 C3562 1.383 . S
C3557 C3553 1.495 . S
C3557 H3563 0.959 . S
C3557 H3564 0.961 . S
C3557 H3565 0.960 . S
C3558 C3556 1.381 . S
C3558 C3559 1.394 . S
C3558 H3566 0.930 . S
C3559 C3558 1.394 . S
C3559 C3560 1.383 . S
C3559 H3567 0.929 . S
C3560 C3559 1.383 . S
C3560 C3561 1.377 . S
C3561 H3545 0.930 . S
C3561 C3560 1.377 . S
C3561 C3562 1.379 . S
C3562 H3546 0.931 . S
C3562 C3556 1.383 . S
C3562 C3561 1.379 . S
H3563 C3557 0.959 . S
H3564 C3557 0.961 . S
H3565 C3557 0.960 . S
H3566 C3558 0.930 . S
H3567 C3559 0.929 . S
H3568 C3576 0.929 . S
H3569 C3578 0.930 . S
H3570 C3580 0.930 . S
H3571 C3583 0.929 . S
H3572 C3586 0.930 . S
H3573 C3588 0.960 . S
H3574 C3588 0.960 . S
H3575 C3588 0.960 . S
C3576 H3568 0.929 . S
C3576 C3577 1.377 . S
C3576 C3578 1.384 . S
C3577 C3576 1.377 . S
C3577 C3583 1.390 . S
C3578 H3569 0.930 . S
C3578 C3576 1.384 . S
C3578 C3579 1.372 . S
C3579 C3578 1.372 . S
C3579 C3580 1.400 . S
C3579 C3584 1.490 . S
C3580 H3570 0.930 . S
C3580 C3579 1.400 . S
C3580 C3583 1.386 . S
H3581 C3597 0.930 . S
H3582 C3598 0.931 . S
C3583 H3571 0.929 . S
C3583 C3577 1.390 . S
C3583 C3580 1.386 . S
C3584 C3579 1.490 . S
C3584 C3586 1.395 . S
C3584 C3587 1.403 . S
H3585 C3591 0.930 . S
C3586 H3572 0.930 . S
C3586 C3584 1.395 . S
C3586 C3589 1.403 . S
C3587 C3584 1.403 . S
C3587 C3588 1.524 . S
C3587 C3591 1.400 . S
C3588 H3573 0.960 . S
C3588 H3574 0.960 . S
C3588 H3575 0.960 . S
C3588 C3587 1.524 . S
C3589 C3586 1.403 . S
C3589 C3590 1.392 . S
C3589 C3593 1.495 . S
C3590 C3589 1.392 . S
C3590 C3591 1.385 . S
C3590 C3592 1.478 . S
C3591 H3585 0.930 . S
C3591 C3587 1.400 . S
C3591 C3590 1.385 . S
C3592 C3590 1.478 . S
C3592 C3594 1.381 . S
C3592 C3598 1.383 . S
C3593 C3589 1.495 . S
C3593 H3599 0.959 . S
C3593 H3600 0.961 . S
C3593 H3601 0.960 . S
C3594 C3592 1.381 . S
C3594 C3595 1.394 . S
C3594 H3602 0.930 . S
C3595 C3594 1.394 . S
C3595 C3596 1.383 . S
C3595 H3603 0.929 . S
C3596 C3595 1.383 . S
C3596 C3597 1.377 . S
C3597 H3581 0.930 . S
C3597 C3596 1.377 . S
C3597 C3598 1.379 . S
C3598 H3582 0.931 . S
C3598 C3592 1.383 . S
C3598 C3597 1.379 . S
H3599 C3593 0.959 . S
H3600 C3593 0.961 . S
H3601 C3593 0.960 . S
H3602 C3594 0.930 . S
H3603 C3595 0.929 . S
H3604 C3612 0.929 . S
H3605 C3614 0.930 . S
H3606 C3616 0.930 . S
H3607 C3619 0.929 . S
H3608 C3622 0.930 . S
H3609 C3624 0.960 . S
H3610 C3624 0.960 . S
H3611 C3624 0.960 . S
C3612 H3604 0.929 . S
C3612 C3613 1.377 . S
C3612 C3614 1.384 . S
C3613 C3612 1.377 . S
C3613 C3619 1.390 . S
C3614 H3605 0.930 . S
C3614 C3612 1.384 . S
C3614 C3615 1.372 . S
C3615 C3614 1.372 . S
C3615 C3616 1.400 . S
C3615 C3620 1.490 . S
C3616 H3606 0.930 . S
C3616 C3615 1.400 . S
C3616 C3619 1.386 . S
H3617 C3633 0.930 . S
H3618 C3634 0.931 . S
C3619 H3607 0.929 . S
C3619 C3613 1.390 . S
C3619 C3616 1.386 . S
C3620 C3615 1.490 . S
C3620 C3622 1.395 . S
C3620 C3623 1.403 . S
H3621 C3627 0.930 . S
C3622 H3608 0.930 . S
C3622 C3620 1.395 . S
C3622 C3625 1.403 . S
C3623 C3620 1.403 . S
C3623 C3624 1.524 . S
C3623 C3627 1.400 . S
C3624 H3609 0.960 . S
C3624 H3610 0.960 . S
C3624 H3611 0.960 . S
C3624 C3623 1.524 . S
C3625 C3622 1.403 . S
C3625 C3626 1.392 . S
C3625 C3629 1.495 . S
C3626 C3625 1.392 . S
C3626 C3627 1.385 . S
C3626 C3628 1.478 . S
C3627 H3621 0.930 . S
C3627 C3623 1.400 . S
C3627 C3626 1.385 . S
C3628 C3626 1.478 . S
C3628 C3630 1.381 . S
C3628 C3634 1.383 . S
C3629 C3625 1.495 . S
C3629 H3635 0.959 . S
C3629 H3636 0.961 . S
C3629 H3637 0.960 . S
C3630 C3628 1.381 . S
C3630 C3631 1.394 . S
C3630 H3638 0.930 . S
C3631 C3630 1.394 . S
C3631 C3632 1.383 . S
C3631 H3639 0.929 . S
C3632 C3631 1.383 . S
C3632 C3633 1.377 . S
C3633 H3617 0.930 . S
C3633 C3632 1.377 . S
C3633 C3634 1.379 . S
C3634 H3618 0.931 . S
C3634 C3628 1.383 . S
C3634 C3633 1.379 . S
H3635 C3629 0.959 . S
H3636 C3629 0.961 . S
H3637 C3629 0.960 . S
H3638 C3630 0.930 . S
H3639 C3631 0.929 . S
H3640 C3648 0.929 . S
H3641 C3650 0.930 . S
H3642 C3652 0.930 . S
H3643 C3655 0.929 . S
H3644 C3658 0.930 . S
H3645 C3660 0.960 . S
H3646 C3660 0.960 . S
H3647 C3660 0.960 . S
C3648 H3640 0.929 . S
C3648 C3649 1.377 . S
C3648 C3650 1.384 . S
C3649 C3648 1.377 . S
C3649 C3655 1.390 . S
C3650 H3641 0.930 . S
C3650 C3648 1.384 . S
C3650 C3651 1.372 . S
C3651 C3650 1.372 . S
C3651 C3652 1.400 . S
C3651 C3656 1.490 . S
C3652 H3642 0.930 . S
C3652 C3651 1.400 . S
C3652 C3655 1.386 . S
H3653 C3669 0.930 . S
H3654 C3670 0.931 . S
C3655 H3643 0.929 . S
C3655 C3649 1.390 . S
C3655 C3652 1.386 . S
C3656 C3651 1.490 . S
C3656 C3658 1.395 . S
C3656 C3659 1.403 . S
H3657 C3663 0.930 . S
C3658 H3644 0.930 . S
C3658 C3656 1.395 . S
C3658 C3661 1.403 . S
C3659 C3656 1.403 . S
C3659 C3660 1.524 . S
C3659 C3663 1.400 . S
C3660 H3645 0.960 . S
C3660 H3646 0.960 . S
C3660 H3647 0.960 . S
C3660 C3659 1.524 . S
C3661 C3658 1.403 . S
C3661 C3662 1.392 . S
C3661 C3665 1.495 . S
C3662 C3661 1.392 . S
C3662 C3663 1.385 . S
C3662 C3664 1.478 . S
C3663 H3657 0.930 . S
C3663 C3659 1.400 . S
C3663 C3662 1.385 . S
C3664 C3662 1.478 . S
C3664 C3666 1.381 . S
C3664 C3670 1.383 . S
C3665 C3661 1.495 . S
C3665 H3671 0.959 . S
C3665 H3672 0.961 . S
C3665 H3673 0.960 . S
C3666 C3664 1.381 . S
C3666 C3667 1.394 . S
C3666 H3674 0.930 . S
C3667 C3666 1.394 . S
C3667 C3668 1.383 . S
C3667 H3675 0.929 . S
C3668 C3667 1.383 . S
C3668 C3669 1.377 . S
C3669 H3653 0.930 . S
C3669 C3668 1.377 . S
C3669 C3670 1.379 . S
C3670 H3654 0.931 . S
C3670 C3664 1.383 . S
C3670 C3669 1.379 . S
H3671 C3665 0.959 . S
H3672 C3665 0.961 . S
H3673 C3665 0.960 . S
H3674 C3666 0.930 . S
H3675 C3667 0.929 . S
H3676 C3684 0.929 . S
H3677 C3686 0.930 . S
H3678 C3688 0.930 . S
H3679 C3691 0.929 . S
H3680 C3694 0.930 . S
H3681 C3696 0.960 . S
H3682 C3696 0.960 . S
H3683 C3696 0.960 . S
C3684 H3676 0.929 . S
C3684 C3685 1.377 . S
C3684 C3686 1.384 . S
C3685 C3684 1.377 . S
C3685 C3691 1.390 . S
C3686 H3677 0.930 . S
C3686 C3684 1.384 . S
C3686 C3687 1.372 . S
C3687 C3686 1.372 . S
C3687 C3688 1.400 . S
C3687 C3692 1.490 . S
C3688 H3678 0.930 . S
C3688 C3687 1.400 . S
C3688 C3691 1.386 . S
H3689 C3705 0.930 . S
H3690 C3706 0.931 . S
C3691 H3679 0.929 . S
C3691 C3685 1.390 . S
C3691 C3688 1.386 . S
C3692 C3687 1.490 . S
C3692 C3694 1.395 . S
C3692 C3695 1.403 . S
H3693 C3699 0.930 . S
C3694 H3680 0.930 . S
C3694 C3692 1.395 . S
C3694 C3697 1.403 . S
C3695 C3692 1.403 . S
C3695 C3696 1.524 . S
C3695 C3699 1.400 . S
C3696 H3681 0.960 . S
C3696 H3682 0.960 . S
C3696 H3683 0.960 . S
C3696 C3695 1.524 . S
C3697 C3694 1.403 . S
C3697 C3698 1.392 . S
C3697 C3701 1.495 . S
C3698 C3697 1.392 . S
C3698 C3699 1.385 . S
C3698 C3700 1.478 . S
C3699 H3693 0.930 . S
C3699 C3695 1.400 . S
C3699 C3698 1.385 . S
C3700 C3698 1.478 . S
C3700 C3702 1.381 . S
C3700 C3706 1.383 . S
C3701 C3697 1.495 . S
C3701 H3707 0.959 . S
C3701 H3708 0.961 . S
C3701 H3709 0.960 . S
C3702 C3700 1.381 . S
C3702 C3703 1.394 . S
C3702 H3710 0.930 . S
C3703 C3702 1.394 . S
C3703 C3704 1.383 . S
C3703 H3711 0.929 . S
C3704 C3703 1.383 . S
C3704 C3705 1.377 . S
C3705 H3689 0.930 . S
C3705 C3704 1.377 . S
C3705 C3706 1.379 . S
C3706 H3690 0.931 . S
C3706 C3700 1.383 . S
C3706 C3705 1.379 . S
H3707 C3701 0.959 . S
H3708 C3701 0.961 . S
H3709 C3701 0.960 . S
H3710 C3702 0.930 . S
H3711 C3703 0.929 . S
H3712 C3720 0.929 . S
H3713 C3722 0.930 . S
H3714 C3724 0.930 . S
H3715 C3727 0.929 . S
H3716 C3730 0.930 . S
H3717 C3732 0.960 . S
H3718 C3732 0.960 . S
H3719 C3732 0.960 . S
C3720 H3712 0.929 . S
C3720 C3721 1.377 . S
C3720 C3722 1.384 . S
C3721 C3720 1.377 . S
C3721 C3727 1.390 . S
C3722 H3713 0.930 . S
C3722 C3720 1.384 . S
C3722 C3723 1.372 . S
C3723 C3722 1.372 . S
C3723 C3724 1.400 . S
C3723 C3728 1.490 . S
C3724 H3714 0.930 . S
C3724 C3723 1.400 . S
C3724 C3727 1.386 . S
H3725 C3741 0.930 . S
H3726 C3742 0.931 . S
C3727 H3715 0.929 . S
C3727 C3721 1.390 . S
C3727 C3724 1.386 . S
C3728 C3723 1.490 . S
C3728 C3730 1.395 . S
C3728 C3731 1.403 . S
H3729 C3735 0.930 . S
C3730 H3716 0.930 . S
C3730 C3728 1.395 . S
C3730 C3733 1.403 . S
C3731 C3728 1.403 . S
C3731 C3732 1.524 . S
C3731 C3735 1.400 . S
C3732 H3717 0.960 . S
C3732 H3718 0.960 . S
C3732 H3719 0.960 . S
C3732 C3731 1.524 . S
C3733 C3730 1.403 . S
C3733 C3734 1.392 . S
C3733 C3737 1.495 . S
C3734 C3733 1.392 . S
C3734 C3735 1.385 . S
C3734 C3736 1.478 . S
C3735 H3729 0.930 . S
C3735 C3731 1.400 . S
C3735 C3734 1.385 . S
C3736 C3734 1.478 . S
C3736 C3738 1.381 . S
C3736 C3742 1.383 . S
C3737 C3733 1.495 . S
C3737 H3743 0.959 . S
C3737 H3744 0.961 . S
C3737 H3745 0.960 . S
C3738 C3736 1.381 . S
C3738 C3739 1.394 . S
C3738 H3746 0.930 . S
C3739 C3738 1.394 . S
C3739 C3740 1.383 . S
C3739 H3747 0.929 . S
C3740 C3739 1.383 . S
C3740 C3741 1.377 . S
C3741 H3725 0.930 . S
C3741 C3740 1.377 . S
C3741 C3742 1.379 . S
C3742 H3726 0.931 . S
C3742 C3736 1.383 . S
C3742 C3741 1.379 . S
H3743 C3737 0.959 . S
H3744 C3737 0.961 . S
H3745 C3737 0.960 . S
H3746 C3738 0.930 . S
H3747 C3739 0.929 . S
H3748 C3756 0.929 . S
H3749 C3758 0.930 . S
H3750 C3760 0.930 . S
H3751 C3763 0.929 . S
H3752 C3766 0.930 . S
H3753 C3768 0.960 . S
H3754 C3768 0.960 . S
H3755 C3768 0.960 . S
C3756 H3748 0.929 . S
C3756 C3757 1.377 . S
C3756 C3758 1.384 . S
C3757 C3756 1.377 . S
C3757 C3763 1.390 . S
C3758 H3749 0.930 . S
C3758 C3756 1.384 . S
C3758 C3759 1.372 . S
C3759 C3758 1.372 . S
C3759 C3760 1.400 . S
C3759 C3764 1.490 . S
C3760 H3750 0.930 . S
C3760 C3759 1.400 . S
C3760 C3763 1.386 . S
H3761 C3777 0.930 . S
H3762 C3778 0.931 . S
C3763 H3751 0.929 . S
C3763 C3757 1.390 . S
C3763 C3760 1.386 . S
C3764 C3759 1.490 . S
C3764 C3766 1.395 . S
C3764 C3767 1.403 . S
H3765 C3771 0.930 . S
C3766 H3752 0.930 . S
C3766 C3764 1.395 . S
C3766 C3769 1.403 . S
C3767 C3764 1.403 . S
C3767 C3768 1.524 . S
C3767 C3771 1.400 . S
C3768 H3753 0.960 . S
C3768 H3754 0.960 . S
C3768 H3755 0.960 . S
C3768 C3767 1.524 . S
C3769 C3766 1.403 . S
C3769 C3770 1.392 . S
C3769 C3773 1.495 . S
C3770 C3769 1.392 . S
C3770 C3771 1.385 . S
C3770 C3772 1.478 . S
C3771 H3765 0.930 . S
C3771 C3767 1.400 . S
C3771 C3770 1.385 . S
C3772 C3770 1.478 . S
C3772 C3774 1.381 . S
C3772 C3778 1.383 . S
C3773 C3769 1.495 . S
C3773 H3779 0.959 . S
C3773 H3780 0.961 . S
C3773 H3781 0.960 . S
C3774 C3772 1.381 . S
C3774 C3775 1.394 . S
C3774 H3782 0.930 . S
C3775 C3774 1.394 . S
C3775 C3776 1.383 . S
C3775 H3783 0.929 . S
C3776 C3775 1.383 . S
C3776 C3777 1.377 . S
C3777 H3761 0.930 . S
C3777 C3776 1.377 . S
C3777 C3778 1.379 . S
C3778 H3762 0.931 . S
C3778 C3772 1.383 . S
C3778 C3777 1.379 . S
H3779 C3773 0.959 . S
H3780 C3773 0.961 . S
H3781 C3773 0.960 . S
H3782 C3774 0.930 . S
H3783 C3775 0.929 . S
H3784 C3792 0.929 . S
H3785 C3794 0.930 . S
H3786 C3796 0.930 . S
H3787 C3799 0.929 . S
H3788 C3802 0.930 . S
H3789 C3804 0.960 . S
H3790 C3804 0.960 . S
H3791 C3804 0.960 . S
C3792 H3784 0.929 . S
C3792 C3793 1.377 . S
C3792 C3794 1.384 . S
C3793 C3792 1.377 . S
C3793 C3799 1.390 . S
C3794 H3785 0.930 . S
C3794 C3792 1.384 . S
C3794 C3795 1.372 . S
C3795 C3794 1.372 . S
C3795 C3796 1.400 . S
C3795 C3800 1.490 . S
C3796 H3786 0.930 . S
C3796 C3795 1.400 . S
C3796 C3799 1.386 . S
H3797 C3813 0.930 . S
H3798 C3814 0.931 . S
C3799 H3787 0.929 . S
C3799 C3793 1.390 . S
C3799 C3796 1.386 . S
C3800 C3795 1.490 . S
C3800 C3802 1.395 . S
C3800 C3803 1.403 . S
H3801 C3807 0.930 . S
C3802 H3788 0.930 . S
C3802 C3800 1.395 . S
C3802 C3805 1.403 . S
C3803 C3800 1.403 . S
C3803 C3804 1.524 . S
C3803 C3807 1.400 . S
C3804 H3789 0.960 . S
C3804 H3790 0.960 . S
C3804 H3791 0.960 . S
C3804 C3803 1.524 . S
C3805 C3802 1.403 . S
C3805 C3806 1.392 . S
C3805 C3809 1.495 . S
C3806 C3805 1.392 . S
C3806 C3807 1.385 . S
C3806 C3808 1.478 . S
C3807 H3801 0.930 . S
C3807 C3803 1.400 . S
C3807 C3806 1.385 . S
C3808 C3806 1.478 . S
C3808 C3810 1.381 . S
C3808 C3814 1.383 . S
C3809 C3805 1.495 . S
C3809 H3815 0.959 . S
C3809 H3816 0.961 . S
C3809 H3817 0.960 . S
C3810 C3808 1.381 . S
C3810 C3811 1.394 . S
C3810 H3818 0.930 . S
C3811 C3810 1.394 . S
C3811 C3812 1.383 . S
C3811 H3819 0.929 . S
C3812 C3811 1.383 . S
C3812 C3813 1.377 . S
C3813 H3797 0.930 . S
C3813 C3812 1.377 . S
C3813 C3814 1.379 . S
C3814 H3798 0.931 . S
C3814 C3808 1.383 . S
C3814 C3813 1.379 . S
H3815 C3809 0.959 . S
H3816 C3809 0.961 . S
H3817 C3809 0.960 . S
H3818 C3810 0.930 . S
H3819 C3811 0.929 . S
H3820 C3828 0.929 . S
H3821 C3830 0.930 . S
H3822 C3832 0.930 . S
H3823 C3835 0.929 . S
H3824 C3838 0.930 . S
H3825 C3840 0.960 . S
H3826 C3840 0.960 . S
H3827 C3840 0.960 . S
C3828 H3820 0.929 . S
C3828 C3829 1.377 . S
C3828 C3830 1.384 . S
C3829 C3828 1.377 . S
C3829 C3835 1.390 . S
C3830 H3821 0.930 . S
C3830 C3828 1.384 . S
C3830 C3831 1.372 . S
C3831 C3830 1.372 . S
C3831 C3832 1.400 . S
C3831 C3836 1.490 . S
C3832 H3822 0.930 . S
C3832 C3831 1.400 . S
C3832 C3835 1.386 . S
H3833 C3849 0.930 . S
H3834 C3850 0.931 . S
C3835 H3823 0.929 . S
C3835 C3829 1.390 . S
C3835 C3832 1.386 . S
C3836 C3831 1.490 . S
C3836 C3838 1.395 . S
C3836 C3839 1.403 . S
H3837 C3843 0.930 . S
C3838 H3824 0.930 . S
C3838 C3836 1.395 . S
C3838 C3841 1.403 . S
C3839 C3836 1.403 . S
C3839 C3840 1.524 . S
C3839 C3843 1.400 . S
C3840 H3825 0.960 . S
C3840 H3826 0.960 . S
C3840 H3827 0.960 . S
C3840 C3839 1.524 . S
C3841 C3838 1.403 . S
C3841 C3842 1.392 . S
C3841 C3845 1.495 . S
C3842 C3841 1.392 . S
C3842 C3843 1.385 . S
C3842 C3844 1.478 . S
C3843 H3837 0.930 . S
C3843 C3839 1.400 . S
C3843 C3842 1.385 . S
C3844 C3842 1.478 . S
C3844 C3846 1.381 . S
C3844 C3850 1.383 . S
C3845 C3841 1.495 . S
C3845 H3851 0.959 . S
C3845 H3852 0.961 . S
C3845 H3853 0.960 . S
C3846 C3844 1.381 . S
C3846 C3847 1.394 . S
C3846 H3854 0.930 . S
C3847 C3846 1.394 . S
C3847 C3848 1.383 . S
C3847 H3855 0.929 . S
C3848 C3847 1.383 . S
C3848 C3849 1.377 . S
C3849 H3833 0.930 . S
C3849 C3848 1.377 . S
C3849 C3850 1.379 . S
C3850 H3834 0.931 . S
C3850 C3844 1.383 . S
C3850 C3849 1.379 . S
H3851 C3845 0.959 . S
H3852 C3845 0.961 . S
H3853 C3845 0.960 . S
H3854 C3846 0.930 . S
H3855 C3847 0.929 . S
H3856 C3864 0.929 . S
H3857 C3866 0.930 . S
H3858 C3868 0.930 . S
H3859 C3871 0.929 . S
H3860 C3874 0.930 . S
H3861 C3876 0.960 . S
H3862 C3876 0.960 . S
H3863 C3876 0.960 . S
C3864 H3856 0.929 . S
C3864 C3865 1.377 . S
C3864 C3866 1.384 . S
C3865 C3864 1.377 . S
C3865 C3871 1.390 . S
C3866 H3857 0.930 . S
C3866 C3864 1.384 . S
C3866 C3867 1.372 . S
C3867 C3866 1.372 . S
C3867 C3868 1.400 . S
C3867 C3872 1.490 . S
C3868 H3858 0.930 . S
C3868 C3867 1.400 . S
C3868 C3871 1.386 . S
H3869 C3885 0.930 . S
H3870 C3886 0.931 . S
C3871 H3859 0.929 . S
C3871 C3865 1.390 . S
C3871 C3868 1.386 . S
C3872 C3867 1.490 . S
C3872 C3874 1.395 . S
C3872 C3875 1.403 . S
H3873 C3879 0.930 . S
C3874 H3860 0.930 . S
C3874 C3872 1.395 . S
C3874 C3877 1.403 . S
C3875 C3872 1.403 . S
C3875 C3876 1.524 . S
C3875 C3879 1.400 . S
C3876 H3861 0.960 . S
C3876 H3862 0.960 . S
C3876 H3863 0.960 . S
C3876 C3875 1.524 . S
C3877 C3874 1.403 . S
C3877 C3878 1.392 . S
C3877 C3881 1.495 . S
C3878 C3877 1.392 . S
C3878 C3879 1.385 . S
C3878 C3880 1.478 . S
C3879 H3873 0.930 . S
C3879 C3875 1.400 . S
C3879 C3878 1.385 . S
C3880 C3878 1.478 . S
C3880 C3882 1.381 . S
C3880 C3886 1.383 . S
C3881 C3877 1.495 . S
C3881 H3887 0.959 . S
C3881 H3888 0.961 . S
C3881 H3889 0.960 . S
C3882 C3880 1.381 . S
C3882 C3883 1.394 . S
C3882 H3890 0.930 . S
C3883 C3882 1.394 . S
C3883 C3884 1.383 . S
C3883 H3891 0.929 . S
C3884 C3883 1.383 . S
C3884 C3885 1.377 . S
C3885 H3869 0.930 . S
C3885 C3884 1.377 . S
C3885 C3886 1.379 . S
C3886 H3870 0.931 . S
C3886 C3880 1.383 . S
C3886 C3885 1.379 . S
H3887 C3881 0.959 . S
H3888 C3881 0.961 . S
H3889 C3881 0.960 . S
H3890 C3882 0.930 . S
H3891 C3883 0.929 . S
H3892 C3900 0.929 . S
H3893 C3902 0.930 . S
H3894 C3904 0.930 . S
H3895 C3907 0.929 . S
H3896 C3910 0.930 . S
H3897 C3912 0.960 . S
H3898 C3912 0.960 . S
H3899 C3912 0.960 . S
C3900 H3892 0.929 . S
C3900 C3901 1.377 . S
C3900 C3902 1.384 . S
C3901 C3900 1.377 . S
C3901 C3907 1.390 . S
C3902 H3893 0.930 . S
C3902 C3900 1.384 . S
C3902 C3903 1.372 . S
C3903 C3902 1.372 . S
C3903 C3904 1.400 . S
C3903 C3908 1.490 . S
C3904 H3894 0.930 . S
C3904 C3903 1.400 . S
C3904 C3907 1.386 . S
H3905 C3921 0.930 . S
H3906 C3922 0.931 . S
C3907 H3895 0.929 . S
C3907 C3901 1.390 . S
C3907 C3904 1.386 . S
C3908 C3903 1.490 . S
C3908 C3910 1.395 . S
C3908 C3911 1.403 . S
H3909 C3915 0.930 . S
C3910 H3896 0.930 . S
C3910 C3908 1.395 . S
C3910 C3913 1.403 . S
C3911 C3908 1.403 . S
C3911 C3912 1.524 . S
C3911 C3915 1.400 . S
C3912 H3897 0.960 . S
C3912 H3898 0.960 . S
C3912 H3899 0.960 . S
C3912 C3911 1.524 . S
C3913 C3910 1.403 . S
C3913 C3914 1.392 . S
C3913 C3917 1.495 . S
C3914 C3913 1.392 . S
C3914 C3915 1.385 . S
C3914 C3916 1.478 . S
C3915 H3909 0.930 . S
C3915 C3911 1.400 . S
C3915 C3914 1.385 . S
C3916 C3914 1.478 . S
C3916 C3918 1.381 . S
C3916 C3922 1.383 . S
C3917 C3913 1.495 . S
C3917 H3923 0.959 . S
C3917 H3924 0.961 . S
C3917 H3925 0.960 . S
C3918 C3916 1.381 . S
C3918 C3919 1.394 . S
C3918 H3926 0.930 . S
C3919 C3918 1.394 . S
C3919 C3920 1.383 . S
C3919 H3927 0.929 . S
C3920 C3919 1.383 . S
C3920 C3921 1.377 . S
C3921 H3905 0.930 . S
C3921 C3920 1.377 . S
C3921 C3922 1.379 . S
C3922 H3906 0.931 . S
C3922 C3916 1.383 . S
C3922 C3921 1.379 . S
H3923 C3917 0.959 . S
H3924 C3917 0.961 . S
H3925 C3917 0.960 . S
H3926 C3918 0.930 . S
H3927 C3919 0.929 . S
H3928 C3936 0.929 . S
H3929 C3938 0.930 . S
H3930 C3940 0.930 . S
H3931 C3943 0.929 . S
H3932 C3946 0.930 . S
H3933 C3948 0.960 . S
H3934 C3948 0.960 . S
H3935 C3948 0.960 . S
C3936 H3928 0.929 . S
C3936 C3937 1.377 . S
C3936 C3938 1.384 . S
C3937 C3936 1.377 . S
C3937 C3943 1.390 . S
C3938 H3929 0.930 . S
C3938 C3936 1.384 . S
C3938 C3939 1.372 . S
C3939 C3938 1.372 . S
C3939 C3940 1.400 . S
C3939 C3944 1.490 . S
C3940 H3930 0.930 . S
C3940 C3939 1.400 . S
C3940 C3943 1.386 . S
H3941 C3957 0.930 1_655 S
H3942 C3958 0.931 . S
C3943 H3931 0.929 . S
C3943 C3937 1.390 . S
C3943 C3940 1.386 . S
C3944 C3939 1.490 . S
C3944 C3946 1.395 . S
C3944 C3947 1.403 . S
H3945 C3951 0.930 . S
C3946 H3932 0.930 . S
C3946 C3944 1.395 . S
C3946 C3949 1.405 1_655 S
C3947 C3944 1.403 . S
C3947 C3948 1.524 . S
C3947 C3951 1.400 . S
C3948 H3933 0.960 . S
C3948 H3934 0.960 . S
C3948 H3935 0.960 . S
C3948 C3947 1.524 . S
C3949 C3946 1.405 1_455 S
C3949 C3950 1.392 1_455 S
C3949 C3953 1.494 . S
C3950 C3949 1.392 1_655 S
C3950 C3951 1.385 . S
C3950 C3952 1.478 1_655 S
C3951 H3945 0.930 . S
C3951 C3947 1.400 . S
C3951 C3950 1.385 . S
C3952 C3950 1.478 1_455 S
C3952 C3954 1.381 . S
C3952 C3958 1.383 1_455 S
C3953 C3949 1.494 . S
C3953 H3959 0.959 . S
C3953 H3960 0.961 . S
C3953 H3961 0.960 . S
C3954 C3952 1.381 . S
C3954 C3955 1.394 . S
C3954 H3962 0.930 . S
C3955 C3954 1.394 . S
C3955 C3956 1.383 . S
C3955 H3963 0.929 . S
C3956 C3955 1.383 . S
C3956 C3957 1.377 . S
C3957 H3941 0.930 1_455 S
C3957 C3956 1.377 . S
C3957 C3958 1.379 1_455 S
C3958 H3942 0.931 . S
C3958 C3952 1.383 1_655 S
C3958 C3957 1.379 1_655 S
H3959 C3953 0.959 . S
H3960 C3953 0.961 . S
H3961 C3953 0.960 . S
H3962 C3954 0.930 . S
H3963 C3955 0.929 . S
H3964 C3972 0.929 . S
H3965 C3974 0.930 . S
H3966 C3976 0.930 . S
H3967 C3979 0.929 . S
H3968 C3982 0.930 . S
H3969 C3984 0.960 . S
H3970 C3984 0.960 . S
H3971 C3984 0.960 . S
C3972 H3964 0.929 . S
C3972 C3973 1.377 . S
C3972 C3974 1.384 . S
C3973 C3972 1.377 . S
C3973 C3979 1.390 . S
C3974 H3965 0.930 . S
C3974 C3972 1.384 . S
C3974 C3975 1.372 . S
C3975 C3974 1.372 . S
C3975 C3976 1.400 . S
C3975 C3980 1.490 . S
C3976 H3966 0.930 . S
C3976 C3975 1.400 . S
C3976 C3979 1.386 . S
H3977 C3993 0.930 . S
H3978 C3994 0.931 . S
C3979 H3967 0.929 . S
C3979 C3973 1.390 . S
C3979 C3976 1.386 . S
C3980 C3975 1.490 . S
C3980 C3982 1.395 . S
C3980 C3983 1.403 . S
H3981 C3987 0.930 . S
C3982 H3968 0.930 . S
C3982 C3980 1.395 . S
C3982 C3985 1.403 . S
C3983 C3980 1.403 . S
C3983 C3984 1.524 . S
C3983 C3987 1.400 . S
C3984 H3969 0.960 . S
C3984 H3970 0.960 . S
C3984 H3971 0.960 . S
C3984 C3983 1.524 . S
C3985 C3982 1.403 . S
C3985 C3986 1.392 . S
C3985 C3989 1.495 . S
C3986 C3985 1.392 . S
C3986 C3987 1.385 . S
C3986 C3988 1.478 . S
C3987 H3981 0.930 . S
C3987 C3983 1.400 . S
C3987 C3986 1.385 . S
C3988 C3986 1.478 . S
C3988 C3990 1.381 . S
C3988 C3994 1.383 . S
C3989 C3985 1.495 . S
C3989 H3995 0.959 . S
C3989 H3996 0.961 . S
C3989 H3997 0.960 . S
C3990 C3988 1.381 . S
C3990 C3991 1.394 . S
C3990 H3998 0.930 . S
C3991 C3990 1.394 . S
C3991 C3992 1.383 . S
C3991 H3999 0.929 . S
C3992 C3991 1.383 . S
C3992 C3993 1.377 . S
C3993 H3977 0.930 . S
C3993 C3992 1.377 . S
C3993 C3994 1.379 . S
C3994 H3978 0.931 . S
C3994 C3988 1.383 . S
C3994 C3993 1.379 . S
H3995 C3989 0.959 . S
H3996 C3989 0.961 . S
H3997 C3989 0.960 . S
H3998 C3990 0.930 . S
H3999 C3991 0.929 . S
H4000 C4008 0.929 . S
H4001 C4010 0.930 . S
H4002 C4012 0.930 . S
H4003 C4015 0.929 . S
H4004 C4018 0.930 . S
H4005 C4020 0.960 . S
H4006 C4020 0.960 . S
H4007 C4020 0.960 . S
C4008 H4000 0.929 . S
C4008 C4009 1.377 . S
C4008 C4010 1.384 . S
C4009 C4008 1.377 . S
C4009 C4015 1.390 . S
C4010 H4001 0.930 . S
C4010 C4008 1.384 . S
C4010 C4011 1.372 . S
C4011 C4010 1.372 . S
C4011 C4012 1.400 . S
C4011 C4016 1.490 . S
C4012 H4002 0.930 . S
C4012 C4011 1.400 . S
C4012 C4015 1.386 . S
H4013 C4029 0.930 . S
H4014 C4030 0.931 . S
C4015 H4003 0.929 . S
C4015 C4009 1.390 . S
C4015 C4012 1.386 . S
C4016 C4011 1.490 . S
C4016 C4018 1.395 . S
C4016 C4019 1.403 . S
H4017 C4023 0.930 . S
C4018 H4004 0.930 . S
C4018 C4016 1.395 . S
C4018 C4021 1.403 . S
C4019 C4016 1.403 . S
C4019 C4020 1.524 . S
C4019 C4023 1.400 . S
C4020 H4005 0.960 . S
C4020 H4006 0.960 . S
C4020 H4007 0.960 . S
C4020 C4019 1.524 . S
C4021 C4018 1.403 . S
C4021 C4022 1.392 . S
C4021 C4025 1.495 . S
C4022 C4021 1.392 . S
C4022 C4023 1.385 . S
C4022 C4024 1.478 . S
C4023 H4017 0.930 . S
C4023 C4019 1.400 . S
C4023 C4022 1.385 . S
C4024 C4022 1.478 . S
C4024 C4026 1.381 . S
C4024 C4030 1.383 . S
C4025 C4021 1.495 . S
C4025 H4031 0.959 . S
C4025 H4032 0.961 . S
C4025 H4033 0.960 . S
C4026 C4024 1.381 . S
C4026 C4027 1.394 . S
C4026 H4034 0.930 . S
C4027 C4026 1.394 . S
C4027 C4028 1.383 . S
C4027 H4035 0.929 . S
C4028 C4027 1.383 . S
C4028 C4029 1.377 . S
C4029 H4013 0.930 . S
C4029 C4028 1.377 . S
C4029 C4030 1.379 . S
C4030 H4014 0.931 . S
C4030 C4024 1.383 . S
C4030 C4029 1.379 . S
H4031 C4025 0.959 . S
H4032 C4025 0.961 . S
H4033 C4025 0.960 . S
H4034 C4026 0.930 . S
H4035 C4027 0.929 . S
H4036 C4044 0.929 . S
H4037 C4046 0.930 . S
H4038 C4048 0.930 . S
H4039 C4051 0.929 . S
H4040 C4054 0.930 . S
H4041 C4056 0.960 . S
H4042 C4056 0.960 . S
H4043 C4056 0.960 . S
C4044 H4036 0.929 . S
C4044 C4045 1.377 . S
C4044 C4046 1.384 . S
C4045 C4044 1.377 . S
C4045 C4051 1.390 . S
C4046 H4037 0.930 . S
C4046 C4044 1.384 . S
C4046 C4047 1.372 . S
C4047 C4046 1.372 . S
C4047 C4048 1.400 . S
C4047 C4052 1.490 . S
C4048 H4038 0.930 . S
C4048 C4047 1.400 . S
C4048 C4051 1.386 . S
H4049 C4065 0.930 . S
H4050 C4066 0.931 . S
C4051 H4039 0.929 . S
C4051 C4045 1.390 . S
C4051 C4048 1.386 . S
C4052 C4047 1.490 . S
C4052 C4054 1.395 . S
C4052 C4055 1.403 . S
H4053 C4059 0.930 . S
C4054 H4040 0.930 . S
C4054 C4052 1.395 . S
C4054 C4057 1.403 . S
C4055 C4052 1.403 . S
C4055 C4056 1.524 . S
C4055 C4059 1.400 . S
C4056 H4041 0.960 . S
C4056 H4042 0.960 . S
C4056 H4043 0.960 . S
C4056 C4055 1.524 . S
C4057 C4054 1.403 . S
C4057 C4058 1.392 . S
C4057 C4061 1.495 . S
C4058 C4057 1.392 . S
C4058 C4059 1.385 . S
C4058 C4060 1.478 . S
C4059 H4053 0.930 . S
C4059 C4055 1.400 . S
C4059 C4058 1.385 . S
C4060 C4058 1.478 . S
C4060 C4062 1.381 . S
C4060 C4066 1.383 . S
C4061 C4057 1.495 . S
C4061 H4067 0.959 . S
C4061 H4068 0.961 . S
C4061 H4069 0.960 . S
C4062 C4060 1.381 . S
C4062 C4063 1.394 . S
C4062 H4070 0.930 . S
C4063 C4062 1.394 . S
C4063 C4064 1.383 . S
C4063 H4071 0.929 . S
C4064 C4063 1.383 . S
C4064 C4065 1.377 . S
C4065 H4049 0.930 . S
C4065 C4064 1.377 . S
C4065 C4066 1.379 . S
C4066 H4050 0.931 . S
C4066 C4060 1.383 . S
C4066 C4065 1.379 . S
H4067 C4061 0.959 . S
H4068 C4061 0.961 . S
H4069 C4061 0.960 . S
H4070 C4062 0.930 . S
H4071 C4063 0.929 . S
H4072 C4080 0.929 . S
H4073 C4082 0.930 . S
H4074 C4084 0.930 . S
H4075 C4087 0.929 . S
H4076 C4090 0.930 . S
H4077 C4092 0.960 1_455 S
H4078 C4092 0.960 . S
H4079 C4092 0.960 . S
C4080 H4072 0.929 . S
C4080 C4081 1.377 . S
C4080 C4082 1.384 . S
C4081 C4080 1.377 . S
C4081 C4087 1.390 . S
C4082 H4073 0.930 . S
C4082 C4080 1.384 . S
C4082 C4083 1.372 . S
C4083 C4082 1.372 . S
C4083 C4084 1.400 . S
C4083 C4088 1.490 . S
C4084 H4074 0.930 . S
C4084 C4083 1.400 . S
C4084 C4087 1.386 . S
H4085 C4101 0.930 . S
H4086 C4102 0.931 . S
C4087 H4075 0.929 . S
C4087 C4081 1.390 . S
C4087 C4084 1.386 . S
C4088 C4083 1.490 . S
C4088 C4090 1.395 . S
C4088 C4091 1.403 . S
H4089 C4095 0.930 1_455 S
C4090 H4076 0.930 . S
C4090 C4088 1.395 . S
C4090 C4093 1.403 . S
C4091 C4088 1.403 . S
C4091 C4092 1.524 . S
C4091 C4095 1.400 . S
C4092 H4077 0.960 1_655 S
C4092 H4078 0.960 . S
C4092 H4079 0.960 . S
C4092 C4091 1.524 . S
C4093 C4090 1.403 . S
C4093 C4094 1.392 . S
C4093 C4097 1.495 . S
C4094 C4093 1.392 . S
C4094 C4095 1.385 . S
C4094 C4096 1.478 . S
C4095 H4089 0.930 1_655 S
C4095 C4091 1.400 . S
C4095 C4094 1.385 . S
C4096 C4094 1.478 . S
C4096 C4098 1.381 . S
C4096 C4102 1.383 1_655 S
C4097 C4093 1.495 . S
C4097 H4103 0.959 . S
C4097 H4104 0.961 . S
C4097 H4105 0.960 . S
C4098 C4096 1.381 . S
C4098 C4099 1.394 . S
C4098 H4106 0.930 . S
C4099 C4098 1.394 . S
C4099 C4100 1.383 1_655 S
C4099 H4107 0.929 . S
C4100 C4099 1.383 1_455 S
C4100 C4101 1.377 . S
C4101 H4085 0.930 . S
C4101 C4100 1.377 . S
C4101 C4102 1.379 . S
C4102 H4086 0.931 . S
C4102 C4096 1.383 1_455 S
C4102 C4101 1.379 . S
H4103 C4097 0.959 . S
H4104 C4097 0.961 . S
H4105 C4097 0.960 . S
H4106 C4098 0.930 . S
H4107 C4099 0.929 . S
H4108 C4116 0.929 . S
H4109 C4118 0.930 . S
H4110 C4120 0.930 . S
H4111 C4123 0.929 . S
H4112 C4126 0.930 . S
H4113 C4128 0.960 . S
H4114 C4128 0.960 . S
H4115 C4128 0.960 . S
C4116 H4108 0.929 . S
C4116 C4117 1.377 . S
C4116 C4118 1.384 . S
C4117 C4116 1.377 . S
C4117 C4123 1.390 . S
C4118 H4109 0.930 . S
C4118 C4116 1.384 . S
C4118 C4119 1.372 . S
C4119 C4118 1.372 . S
C4119 C4120 1.400 . S
C4119 C4124 1.490 . S
C4120 H4110 0.930 . S
C4120 C4119 1.400 . S
C4120 C4123 1.386 . S
H4121 C4137 0.930 . S
H4122 C4138 0.931 . S
C4123 H4111 0.929 . S
C4123 C4117 1.390 . S
C4123 C4120 1.386 . S
C4124 C4119 1.490 . S
C4124 C4126 1.395 . S
C4124 C4127 1.403 . S
H4125 C4131 0.930 . S
C4126 H4112 0.930 . S
C4126 C4124 1.395 . S
C4126 C4129 1.403 . S
C4127 C4124 1.403 . S
C4127 C4128 1.524 . S
C4127 C4131 1.400 . S
C4128 H4113 0.960 . S
C4128 H4114 0.960 . S
C4128 H4115 0.960 . S
C4128 C4127 1.524 . S
C4129 C4126 1.403 . S
C4129 C4130 1.392 . S
C4129 C4133 1.495 . S
C4130 C4129 1.392 . S
C4130 C4131 1.385 . S
C4130 C4132 1.478 . S
C4131 H4125 0.930 . S
C4131 C4127 1.400 . S
C4131 C4130 1.385 . S
C4132 C4130 1.478 . S
C4132 C4134 1.381 . S
C4132 C4138 1.383 . S
C4133 C4129 1.495 . S
C4133 H4139 0.959 . S
C4133 H4140 0.961 . S
C4133 H4141 0.960 . S
C4134 C4132 1.381 . S
C4134 C4135 1.394 . S
C4134 H4142 0.930 . S
C4135 C4134 1.394 . S
C4135 C4136 1.383 . S
C4135 H4143 0.929 . S
C4136 C4135 1.383 . S
C4136 C4137 1.377 . S
C4137 H4121 0.930 . S
C4137 C4136 1.377 . S
C4137 C4138 1.379 . S
C4138 H4122 0.931 . S
C4138 C4132 1.383 . S
C4138 C4137 1.379 . S
H4139 C4133 0.959 . S
H4140 C4133 0.961 . S
H4141 C4133 0.960 . S
H4142 C4134 0.930 . S
H4143 C4135 0.929 . S
H4144 C4152 0.929 . S
H4145 C4154 0.930 . S
H4146 C4156 0.930 . S
H4147 C4159 0.929 . S
H4148 C4162 0.930 . S
H4149 C4164 0.960 . S
H4150 C4164 0.960 . S
H4151 C4164 0.960 . S
C4152 H4144 0.929 . S
C4152 C4153 1.377 . S
C4152 C4154 1.384 . S
C4153 C4152 1.377 . S
C4153 C4159 1.390 . S
C4154 H4145 0.930 . S
C4154 C4152 1.384 . S
C4154 C4155 1.372 . S
C4155 C4154 1.372 . S
C4155 C4156 1.400 . S
C4155 C4160 1.490 . S
C4156 H4146 0.930 . S
C4156 C4155 1.400 . S
C4156 C4159 1.386 . S
H4157 C4173 0.930 . S
H4158 C4174 0.931 . S
C4159 H4147 0.929 . S
C4159 C4153 1.390 . S
C4159 C4156 1.386 . S
C4160 C4155 1.490 . S
C4160 C4162 1.395 . S
C4160 C4163 1.403 . S
H4161 C4167 0.930 . S
C4162 H4148 0.930 . S
C4162 C4160 1.395 . S
C4162 C4165 1.403 . S
C4163 C4160 1.403 . S
C4163 C4164 1.524 . S
C4163 C4167 1.400 . S
C4164 H4149 0.960 . S
C4164 H4150 0.960 . S
C4164 H4151 0.960 . S
C4164 C4163 1.524 . S
C4165 C4162 1.403 . S
C4165 C4166 1.392 . S
C4165 C4169 1.495 . S
C4166 C4165 1.392 . S
C4166 C4167 1.385 . S
C4166 C4168 1.478 . S
C4167 H4161 0.930 . S
C4167 C4163 1.400 . S
C4167 C4166 1.385 . S
C4168 C4166 1.478 . S
C4168 C4170 1.381 . S
C4168 C4174 1.383 . S
C4169 C4165 1.495 . S
C4169 H4175 0.959 . S
C4169 H4176 0.961 . S
C4169 H4177 0.960 . S
C4170 C4168 1.381 . S
C4170 C4171 1.394 . S
C4170 H4178 0.930 . S
C4171 C4170 1.394 . S
C4171 C4172 1.383 . S
C4171 H4179 0.929 . S
C4172 C4171 1.383 . S
C4172 C4173 1.377 . S
C4173 H4157 0.930 . S
C4173 C4172 1.377 . S
C4173 C4174 1.379 . S
C4174 H4158 0.931 . S
C4174 C4168 1.383 . S
C4174 C4173 1.379 . S
H4175 C4169 0.959 . S
H4176 C4169 0.961 . S
H4177 C4169 0.960 . S
H4178 C4170 0.930 . S
H4179 C4171 0.929 . S
H4180 C4188 0.929 . S
H4181 C4190 0.930 . S
H4182 C4192 0.930 . S
H4183 C4195 0.929 . S
H4184 C4198 0.930 . S
H4185 C4200 0.960 . S
H4186 C4200 0.960 . S
H4187 C4200 0.960 . S
C4188 H4180 0.929 . S
C4188 C4189 1.377 . S
C4188 C4190 1.384 . S
C4189 C4188 1.377 . S
C4189 C4195 1.390 . S
C4190 H4181 0.930 . S
C4190 C4188 1.384 . S
C4190 C4191 1.372 . S
C4191 C4190 1.372 . S
C4191 C4192 1.400 . S
C4191 C4196 1.490 . S
C4192 H4182 0.930 . S
C4192 C4191 1.400 . S
C4192 C4195 1.386 . S
H4193 C4209 0.930 1_545 S
H4194 C4210 0.931 . S
C4195 H4183 0.929 . S
C4195 C4189 1.390 . S
C4195 C4192 1.386 . S
C4196 C4191 1.490 . S
C4196 C4198 1.395 . S
C4196 C4199 1.403 . S
H4197 C4203 0.930 . S
C4198 H4184 0.930 . S
C4198 C4196 1.395 . S
C4198 C4201 1.403 . S
C4199 C4196 1.403 . S
C4199 C4200 1.524 . S
C4199 C4203 1.400 . S
C4200 H4185 0.960 . S
C4200 H4186 0.960 . S
C4200 H4187 0.960 . S
C4200 C4199 1.524 . S
C4201 C4198 1.403 . S
C4201 C4202 1.392 . S
C4201 C4205 1.495 . S
C4202 C4201 1.392 . S
C4202 C4203 1.385 . S
C4202 C4204 1.478 . S
C4203 H4197 0.930 . S
C4203 C4199 1.400 . S
C4203 C4202 1.385 . S
C4204 C4202 1.478 . S
C4204 C4206 1.381 . S
C4204 C4210 1.383 . S
C4205 C4201 1.495 . S
C4205 H4211 0.959 . S
C4205 H4212 0.961 . S
C4205 H4213 0.960 . S
C4206 C4204 1.381 . S
C4206 C4207 1.394 . S
C4206 H4214 0.930 . S
C4207 C4206 1.394 . S
C4207 C4208 1.383 . S
C4207 H4215 0.929 . S
C4208 C4207 1.383 . S
C4208 C4209 1.377 . S
C4209 H4193 0.930 1_565 S
C4209 C4208 1.377 . S
C4209 C4210 1.379 . S
C4210 H4194 0.931 . S
C4210 C4204 1.383 . S
C4210 C4209 1.379 . S
H4211 C4205 0.959 . S
H4212 C4205 0.961 . S
H4213 C4205 0.960 . S
H4214 C4206 0.930 . S
H4215 C4207 0.929 . S
H4216 C4224 0.929 . S
H4217 C4226 0.930 . S
H4218 C4228 0.930 . S
H4219 C4231 0.929 . S
H4220 C4234 0.930 . S
H4221 C4236 0.960 . S
H4222 C4236 0.960 . S
H4223 C4236 0.960 . S
C4224 H4216 0.929 . S
C4224 C4225 1.377 . S
C4224 C4226 1.384 . S
C4225 C4224 1.377 . S
C4225 C4231 1.390 . S
C4226 H4217 0.930 . S
C4226 C4224 1.384 . S
C4226 C4227 1.372 . S
C4227 C4226 1.372 . S
C4227 C4228 1.400 . S
C4227 C4232 1.490 . S
C4228 H4218 0.930 . S
C4228 C4227 1.400 . S
C4228 C4231 1.386 . S
H4229 C4245 0.930 . S
H4230 C4246 0.931 . S
C4231 H4219 0.929 . S
C4231 C4225 1.390 . S
C4231 C4228 1.386 . S
C4232 C4227 1.490 . S
C4232 C4234 1.395 . S
C4232 C4235 1.403 . S
H4233 C4239 0.930 . S
C4234 H4220 0.930 . S
C4234 C4232 1.395 . S
C4234 C4237 1.403 . S
C4235 C4232 1.403 . S
C4235 C4236 1.524 . S
C4235 C4239 1.400 . S
C4236 H4221 0.960 . S
C4236 H4222 0.960 . S
C4236 H4223 0.960 . S
C4236 C4235 1.524 . S
C4237 C4234 1.403 . S
C4237 C4238 1.392 . S
C4237 C4241 1.495 . S
C4238 C4237 1.392 . S
C4238 C4239 1.385 . S
C4238 C4240 1.478 . S
C4239 H4233 0.930 . S
C4239 C4235 1.400 . S
C4239 C4238 1.385 . S
C4240 C4238 1.478 . S
C4240 C4242 1.381 . S
C4240 C4246 1.383 . S
C4241 C4237 1.495 . S
C4241 H4247 0.959 . S
C4241 H4248 0.961 . S
C4241 H4249 0.960 . S
C4242 C4240 1.381 . S
C4242 C4243 1.394 . S
C4242 H4250 0.930 . S
C4243 C4242 1.394 . S
C4243 C4244 1.383 . S
C4243 H4251 0.929 . S
C4244 C4243 1.383 . S
C4244 C4245 1.377 . S
C4245 H4229 0.930 . S
C4245 C4244 1.377 . S
C4245 C4246 1.379 . S
C4246 H4230 0.931 . S
C4246 C4240 1.383 . S
C4246 C4245 1.379 . S
H4247 C4241 0.959 . S
H4248 C4241 0.961 . S
H4249 C4241 0.960 . S
H4250 C4242 0.930 . S
H4251 C4243 0.929 . S
H4252 C4260 0.929 . S
H4253 C4262 0.930 . S
H4254 C4264 0.930 . S
H4255 C4267 0.929 . S
H4256 C4270 0.930 . S
H4257 C4272 0.960 . S
H4258 C4272 0.960 . S
H4259 C4272 0.960 . S
C4260 H4252 0.929 . S
C4260 C4261 1.377 . S
C4260 C4262 1.384 . S
C4261 C4260 1.377 . S
C4261 C4267 1.390 . S
C4262 H4253 0.930 . S
C4262 C4260 1.384 . S
C4262 C4263 1.372 . S
C4263 C4262 1.372 . S
C4263 C4264 1.400 . S
C4263 C4268 1.490 . S
C4264 H4254 0.930 . S
C4264 C4263 1.400 . S
C4264 C4267 1.386 . S
H4265 C4281 0.930 . S
H4266 C4282 0.931 . S
C4267 H4255 0.929 . S
C4267 C4261 1.390 . S
C4267 C4264 1.386 . S
C4268 C4263 1.490 . S
C4268 C4270 1.395 . S
C4268 C4271 1.403 . S
H4269 C4275 0.930 . S
C4270 H4256 0.930 . S
C4270 C4268 1.395 . S
C4270 C4273 1.403 . S
C4271 C4268 1.403 . S
C4271 C4272 1.524 . S
C4271 C4275 1.400 . S
C4272 H4257 0.960 . S
C4272 H4258 0.960 . S
C4272 H4259 0.960 . S
C4272 C4271 1.524 . S
C4273 C4270 1.403 . S
C4273 C4274 1.392 . S
C4273 C4277 1.495 . S
C4274 C4273 1.392 . S
C4274 C4275 1.385 . S
C4274 C4276 1.478 . S
C4275 H4269 0.930 . S
C4275 C4271 1.400 . S
C4275 C4274 1.385 . S
C4276 C4274 1.478 . S
C4276 C4278 1.381 . S
C4276 C4282 1.383 . S
C4277 C4273 1.495 . S
C4277 H4283 0.959 . S
C4277 H4284 0.961 . S
C4277 H4285 0.960 . S
C4278 C4276 1.381 . S
C4278 C4279 1.394 . S
C4278 H4286 0.930 . S
C4279 C4278 1.394 . S
C4279 C4280 1.383 . S
C4279 H4287 0.929 . S
C4280 C4279 1.383 . S
C4280 C4281 1.377 . S
C4281 H4265 0.930 . S
C4281 C4280 1.377 . S
C4281 C4282 1.379 . S
C4282 H4266 0.931 . S
C4282 C4276 1.383 . S
C4282 C4281 1.379 . S
H4283 C4277 0.959 . S
H4284 C4277 0.961 . S
H4285 C4277 0.960 . S
H4286 C4278 0.930 . S
H4287 C4279 0.929 . S
H4288 C4296 0.929 . S
H4289 C4298 0.930 . S
H4290 C4300 0.930 . S
H4291 C4303 0.929 . S
H4292 C4306 0.930 . S
H4293 C4308 0.960 . S
H4294 C4308 0.960 . S
H4295 C4308 0.960 . S
C4296 H4288 0.929 . S
C4296 C4297 1.377 . S
C4296 C4298 1.384 . S
C4297 C4296 1.377 . S
C4297 C4303 1.390 . S
C4298 H4289 0.930 . S
C4298 C4296 1.384 . S
C4298 C4299 1.372 . S
C4299 C4298 1.372 . S
C4299 C4300 1.400 . S
C4299 C4304 1.490 . S
C4300 H4290 0.930 . S
C4300 C4299 1.400 . S
C4300 C4303 1.386 . S
H4301 C4317 0.930 . S
H4302 C4318 0.931 . S
C4303 H4291 0.929 . S
C4303 C4297 1.390 . S
C4303 C4300 1.386 . S
C4304 C4299 1.490 . S
C4304 C4306 1.395 . S
C4304 C4307 1.403 . S
H4305 C4311 0.930 . S
C4306 H4292 0.930 . S
C4306 C4304 1.395 . S
C4306 C4309 1.403 . S
C4307 C4304 1.403 . S
C4307 C4308 1.524 . S
C4307 C4311 1.400 . S
C4308 H4293 0.960 . S
C4308 H4294 0.960 . S
C4308 H4295 0.960 . S
C4308 C4307 1.524 . S
C4309 C4306 1.403 . S
C4309 C4310 1.392 . S
C4309 C4313 1.495 . S
C4310 C4309 1.392 . S
C4310 C4311 1.385 . S
C4310 C4312 1.478 . S
C4311 H4305 0.930 . S
C4311 C4307 1.400 . S
C4311 C4310 1.385 . S
C4312 C4310 1.478 . S
C4312 C4314 1.381 . S
C4312 C4318 1.383 . S
C4313 C4309 1.495 . S
C4313 H4319 0.959 . S
C4313 H4320 0.961 . S
C4313 H4321 0.960 . S
C4314 C4312 1.381 . S
C4314 C4315 1.394 . S
C4314 H4322 0.930 . S
C4315 C4314 1.394 . S
C4315 C4316 1.383 . S
C4315 H4323 0.929 . S
C4316 C4315 1.383 . S
C4316 C4317 1.377 . S
C4317 H4301 0.930 . S
C4317 C4316 1.377 . S
C4317 C4318 1.379 . S
C4318 H4302 0.931 . S
C4318 C4312 1.383 . S
C4318 C4317 1.379 . S
H4319 C4313 0.959 . S
H4320 C4313 0.961 . S
H4321 C4313 0.960 . S
H4322 C4314 0.930 . S
H4323 C4315 0.929 . S
H4324 C4332 0.929 . S
H4325 C4334 0.930 . S
H4326 C4336 0.930 . S
H4327 C4339 0.929 . S
H4328 C4342 0.930 . S
H4329 C4344 0.960 . S
H4330 C4344 0.960 . S
H4331 C4344 0.960 . S
C4332 H4324 0.929 . S
C4332 C4333 1.377 . S
C4332 C4334 1.384 . S
C4333 C4332 1.377 . S
C4333 C4339 1.390 . S
C4334 H4325 0.930 . S
C4334 C4332 1.384 . S
C4334 C4335 1.372 . S
C4335 C4334 1.372 . S
C4335 C4336 1.400 . S
C4335 C4340 1.490 . S
C4336 H4326 0.930 . S
C4336 C4335 1.400 . S
C4336 C4339 1.386 . S
H4337 C4353 0.909 1_556 S
H4338 C4354 0.931 . S
C4339 H4327 0.929 . S
C4339 C4333 1.390 . S
C4339 C4336 1.386 . S
C4340 C4335 1.490 . S
C4340 C4342 1.395 . S
C4340 C4343 1.403 1_554 S
H4341 C4347 0.930 . S
C4342 H4328 0.930 . S
C4342 C4340 1.395 . S
C4342 C4345 1.403 . S
C4343 C4340 1.403 1_556 S
C4343 C4344 1.524 . S
C4343 C4347 1.400 . S
C4344 H4329 0.960 . S
C4344 H4330 0.960 . S
C4344 H4331 0.960 . S
C4344 C4343 1.524 . S
C4345 C4342 1.403 . S
C4345 C4346 1.392 . S
C4345 C4349 1.495 . S
C4346 C4345 1.392 . S
C4346 C4347 1.385 1_554 S
C4346 C4348 1.478 . S
C4347 H4341 0.930 . S
C4347 C4343 1.400 . S
C4347 C4346 1.385 1_556 S
C4348 C4346 1.478 . S
C4348 C4350 1.381 . S
C4348 C4354 1.383 . S
C4349 C4345 1.495 . S
C4349 H4355 0.959 . S
C4349 H4356 0.961 . S
C4349 H4357 0.960 . S
C4350 C4348 1.381 . S
C4350 C4351 1.394 . S
C4350 H4358 0.930 . S
C4351 C4350 1.394 . S
C4351 C4352 1.383 . S
C4351 H4359 0.929 . S
C4352 C4351 1.383 . S
C4352 C4353 1.377 . S
C4353 H4337 0.909 1_554 S
C4353 C4352 1.377 . S
C4353 C4354 1.379 . S
C4354 H4338 0.931 . S
C4354 C4348 1.383 . S
C4354 C4353 1.379 . S
H4355 C4349 0.959 . S
H4356 C4349 0.961 . S
H4357 C4349 0.960 . S
H4358 C4350 0.930 . S
H4359 C4351 0.929 . S
H4360 C4368 0.929 . S
H4361 C4370 0.930 . S
H4362 C4372 0.930 . S
H4363 C4375 0.929 . S
H4364 C4378 0.930 . S
H4365 C4380 0.960 . S
H4366 C4380 0.960 . S
H4367 C4380 0.960 . S
C4368 H4360 0.929 . S
C4368 C4369 1.377 . S
C4368 C4370 1.384 . S
C4369 C4368 1.377 . S
C4369 C4375 1.390 . S
C4370 H4361 0.930 . S
C4370 C4368 1.384 . S
C4370 C4371 1.372 . S
C4371 C4370 1.372 . S
C4371 C4372 1.400 . S
C4371 C4376 1.490 . S
C4372 H4362 0.930 . S
C4372 C4371 1.400 . S
C4372 C4375 1.386 . S
H4373 C4389 0.930 . S
H4374 C4390 0.931 . S
C4375 H4363 0.929 . S
C4375 C4369 1.390 . S
C4375 C4372 1.386 . S
C4376 C4371 1.490 . S
C4376 C4378 1.395 . S
C4376 C4379 1.403 . S
H4377 C4383 0.930 . S
C4378 H4364 0.930 . S
C4378 C4376 1.395 . S
C4378 C4381 1.403 . S
C4379 C4376 1.403 . S
C4379 C4380 1.524 . S
C4379 C4383 1.400 . S
C4380 H4365 0.960 . S
C4380 H4366 0.960 . S
C4380 H4367 0.960 . S
C4380 C4379 1.524 . S
C4381 C4378 1.403 . S
C4381 C4382 1.392 . S
C4381 C4385 1.495 . S
C4382 C4381 1.392 . S
C4382 C4383 1.385 . S
C4382 C4384 1.478 . S
C4383 H4377 0.930 . S
C4383 C4379 1.400 . S
C4383 C4382 1.385 . S
C4384 C4382 1.478 . S
C4384 C4386 1.381 . S
C4384 C4390 1.383 . S
C4385 C4381 1.495 . S
C4385 H4391 0.959 . S
C4385 H4392 0.961 . S
C4385 H4393 0.960 . S
C4386 C4384 1.381 . S
C4386 C4387 1.394 . S
C4386 H4394 0.930 . S
C4387 C4386 1.394 . S
C4387 C4388 1.383 . S
C4387 H4395 0.929 . S
C4388 C4387 1.383 . S
C4388 C4389 1.377 . S
C4389 H4373 0.930 . S
C4389 C4388 1.377 . S
C4389 C4390 1.379 . S
C4390 H4374 0.931 . S
C4390 C4384 1.383 . S
C4390 C4389 1.379 . S
H4391 C4385 0.959 . S
H4392 C4385 0.961 . S
H4393 C4385 0.960 . S
H4394 C4386 0.930 . S
H4395 C4387 0.929 . S
H4396 C4404 0.929 . S
H4397 C4406 0.930 . S
H4398 C4408 0.930 . S
H4399 C4411 0.929 . S
H4400 C4414 0.930 . S
H4401 C4416 0.960 . S
H4402 C4416 0.960 . S
H4403 C4416 0.960 . S
C4404 H4396 0.929 . S
C4404 C4405 1.377 . S
C4404 C4406 1.384 . S
C4405 C4404 1.377 . S
C4405 C4411 1.390 . S
C4406 H4397 0.930 . S
C4406 C4404 1.384 . S
C4406 C4407 1.372 . S
C4407 C4406 1.372 . S
C4407 C4408 1.400 . S
C4407 C4412 1.490 . S
C4408 H4398 0.930 . S
C4408 C4407 1.400 . S
C4408 C4411 1.386 . S
H4409 C4425 0.930 . S
H4410 C4426 0.931 . S
C4411 H4399 0.929 . S
C4411 C4405 1.390 . S
C4411 C4408 1.386 . S
C4412 C4407 1.490 . S
C4412 C4414 1.395 . S
C4412 C4415 1.403 . S
H4413 C4419 0.930 . S
C4414 H4400 0.930 . S
C4414 C4412 1.395 . S
C4414 C4417 1.403 . S
C4415 C4412 1.403 . S
C4415 C4416 1.524 . S
C4415 C4419 1.400 . S
C4416 H4401 0.960 . S
C4416 H4402 0.960 . S
C4416 H4403 0.960 . S
C4416 C4415 1.524 . S
C4417 C4414 1.403 . S
C4417 C4418 1.392 . S
C4417 C4421 1.495 . S
C4418 C4417 1.392 . S
C4418 C4419 1.385 . S
C4418 C4420 1.478 . S
C4419 H4413 0.930 . S
C4419 C4415 1.400 . S
C4419 C4418 1.385 . S
C4420 C4418 1.478 . S
C4420 C4422 1.381 . S
C4420 C4426 1.383 . S
C4421 C4417 1.495 . S
C4421 H4427 0.959 . S
C4421 H4428 0.961 . S
C4421 H4429 0.960 . S
C4422 C4420 1.381 . S
C4422 C4423 1.394 . S
C4422 H4430 0.930 . S
C4423 C4422 1.394 . S
C4423 C4424 1.383 . S
C4423 H4431 0.929 . S
C4424 C4423 1.383 . S
C4424 C4425 1.377 . S
C4425 H4409 0.930 . S
C4425 C4424 1.377 . S
C4425 C4426 1.379 . S
C4426 H4410 0.931 . S
C4426 C4420 1.383 . S
C4426 C4425 1.379 . S
H4427 C4421 0.959 . S
H4428 C4421 0.961 . S
H4429 C4421 0.960 . S
H4430 C4422 0.930 . S
H4431 C4423 0.929 . S
C985 C109 1.980 . S
C1004 C367 1.935 . S
C1021 C65 1.728 . S
C1040 C378 1.719 . S
C1057 C75 1.557 . S
C1076 C447 1.506 . S
C1112 C460 1.250 . S
C1093 C84 1.251 . S
C1129 C25 2.520 . S
C1148 C516 2.505 . S
C1184 C567 1.870 . S
C1165 C28 1.903 . S
C1220 C596 2.430 . S
C1201 C47 2.458 . S
C1237 C9 2.371 . S
C1256 C647 2.340 . S
C1292 C338 1.171 . S
C1273 C233 1.198 . S
C1309 C249 0.771 . S
C1328 C380 0.801 . S
C1364 C418 1.089 . S
C1345 C275 1.093 . S
C1400 C487 1.515 . S
C1381 C173 1.535 . S
C1417 C224 0.527 . S
C1436 C521 0.561 . S
C1472 C538 1.419 . S
C1453 C243 1.436 . S
C1508 C601 0.367 . S
C1489 C266 0.275 . S
C1544 C618 1.943 . S
C1525 C179 1.990 . S
C1580 C340 1.476 . S
C1561 C163 1.537 . S
C1597 C289 1.592 . S
C1616 C679 1.558 . S
C1652 C700 1.213 . S
C1633 C333 1.222 . S
C1688 C759 0.203 1_655 S
C1669 C308 0.133 . S
C1705 C123 0.875 . S
C1724 C620 0.832 . S
C1741 C126 1.368 . S
C1760 C420 1.341 . S
C1777 C327 0.859 . S
C1796 C778 0.866 . S
C1832 C847 0.974 . S
C1813 C299 1.022 . S
C1868 C356 1.973 . S
C1849 C67 1.992 . S
C1904 C839 1.773 . S
C1885 C98 1.737 . S
C1921 C89 1.588 . S
C1940 C436 1.539 . S
C1957 C79 1.302 . S
C1976 C801 1.268 . S
C2012 C527 2.546 . S
C1993 C11 2.563 . S
C2029 C51 1.951 . S
C2048 C716 1.931 . S
C2084 C607 2.492 1_556 S
C2065 C33 2.522 . S
C2120 C876 2.348 . S
C2101 C14 2.389 1_655 S
C2156 C359 1.178 . S
C2137 C140 1.175 . S
C2192 C841 0.789 . S
C2173 C319 0.776 . S
C2209 C112 1.116 . S
C2228 C439 1.132 . S
C2245 C285 1.572 . S
C2264 C796 1.569 . S
C2281 C149 0.559 . S
C2300 C500 0.609 . S
C2336 C719 1.474 . S
C2317 C313 1.492 . S
C2353 C121 0.307 . S
C2372 C580 0.411 . S
C2389 C291 2.041 . S
C2408 C879 2.011 . S
C2425 C182 1.525 . S
C2444 C361 1.489 . S
C2461 C168 1.598 . S
C2480 C658 1.557 . S
C2497 C263 1.232 . S
C2516 C561 1.168 . S
C2533 C247 0.233 . S
C2552 C738 0.394 . S
C2588 C881 0.874 . S
C2569 C277 0.869 . S
C2605 C219 1.407 . S
C2624 C441 1.352 . S
C2660 C479 0.903 . S
C2641 C257 0.917 . S
C2696 C396 1.038 . S
C2677 C201 1.027 . S
C2713 C81 1.959 . S
C2732 C927 1.957 . S
C2768 C818 1.728 . S
C2749 C93 1.728 . S
C2785 C103 1.556 . S
C2804 C967 1.509 . S
C2821 C56 1.252 . S
C2840 C780 1.231 . S
C2857 C53 2.517 . S
C2876 C676 2.483 . S
C2912 C727 1.898 . S
C2893 C0 1.956 . S
C2948 C756 2.441 . S
C2929 C19 2.460 . S
C2984 C887 2.320 . S
C2965 C37 2.373 . S
C3020 C898 1.204 . S
C3001 C261 1.202 . S
C3037 C193 0.762 . S
C3056 C820 0.721 . S
C3092 C938 1.062 . S
C3073 C205 1.095 . S
C3128 C807 1.534 . S
C3109 C215 1.532 . S
C3164 C681 0.501 . S
C3145 C252 0.541 . S
C3181 C187 1.437 . S
C3200 C698 1.427 . S
C3236 C761 0.245 . S
C3217 C196 0.281 . S
C3253 C221 1.990 . S
C3272 C858 1.946 . S
C3308 C900 1.488 . S
C3289 C317 1.529 . S
C3325 C135 1.592 . S
C3344 C519 1.552 . S
C3380 C540 1.187 . S
C3361 C151 1.220 1_565 S
C3416 C599 0.375 . S
C3397 C154 0.109 . S
C3452 C860 0.827 . S
C3433 C305 0.869 . S
C3469 C280 1.370 . S
C3488 C940 1.381 . S
C3524 C458 0.857 . S
C3505 C145 0.862 . S
C3560 C407 1.035 . S
C3541 C117 1.023 . S
C3577 C95 1.992 . S
C3596 C916 1.973 . S
C3632 C399 1.772 . S
C3613 C70 1.731 . S
C3649 C61 1.587 . S
C3668 C956 1.561 . S
C3685 C107 1.302 . S
C3704 C481 1.280 . S
C3721 C39 2.564 . S
C3740 C687 2.542 1_556 S
C3776 C556 1.898 . S
C3757 C23 1.950 . S
C3793 C5 2.522 . S
C3812 C767 2.493 . S
C3829 C42 2.389 . S
C3848 C636 2.348 . S
C3884 C919 1.160 . S
C3865 C322 1.176 . S
C3901 C165 0.781 . S
C3920 C401 0.728 . S
C3956 C959 1.123 . S
C3937 C294 1.114 . S
C3973 C131 1.571 . S
C3992 C476 1.568 . S
C4009 C331 0.555 . S
C4028 C660 0.544 . S
C4064 C559 1.468 . S
C4045 C159 1.494 . S
C4081 C303 0.312 . S
C4100 C740 0.290 . S
C4136 C639 2.019 . S
C4117 C137 2.040 . S
C4172 C921 1.450 . S
C4153 C238 1.526 . S
C4208 C498 1.563 1_665 S
C4189 C210 1.599 . S
C4225 C235 1.231 . S
C4244 C721 1.185 . S
C4280 C578 0.265 . S
C4261 C191 0.231 . S
C4297 C207 0.861 . S
C4316 C641 0.810 . S
C4333 C177 1.407 . S
C4352 C961 1.354 . S
C4388 C799 0.937 . S
C4369 C229 0.919 . S
C4424 C836 0.977 . S
C4405 C271 1.026 . S
