# Generated by pormake.
# Topology ocu, (6,8)-cn, num edge types: 1
# Building blocks:
#     Node 0, Type 0, BuildingBlock: VOLQOD_clean_sbu_1, # of connection points: 6
#     Node 1, Type 0, BuildingBlock: VOLQOD_clean_sbu_1, # of connection points: 6
#     Node 2, Type 0, BuildingBlock: VOLQOD_clean_sbu_1, # of connection points: 6
#     Node 3, Type 0, BuildingBlock: VOLQOD_clean_sbu_1, # of connection points: 6
#     Node 4, Type 0, BuildingBlock: VOLQOD_clean_sbu_1, # of connection points: 6
#     Node 5, Type 0, BuildingBlock: VOLQOD_clean_sbu_1, # of connection points: 6
#     Node 6, Type 0, BuildingBlock: VOLQOD_clean_sbu_1, # of connection points: 6
#     Node 7, Type 0, BuildingBlock: VOLQOD_clean_sbu_1, # of connection points: 6
#     Node 8, Type 1, BuildingBlock: TAGTUT_clean_sbu_1, # of connection points: 8
#     Node 9, Type 1, BuildingBlock: TAGTUT_clean_sbu_1, # of connection points: 8
#     Node 10, Type 1, BuildingBlock: TAGTUT_clean_sbu_1, # of connection points: 8
#     Node 11, Type 1, BuildingBlock: TAGTUT_clean_sbu_1, # of connection points: 8
#     Node 12, Type 1, BuildingBlock: TAGTUT_clean_sbu_1, # of connection points: 8
#     Node 13, Type 1, BuildingBlock: TAGTUT_clean_sbu_1, # of connection points: 8
#     Edge 14, Type (0, 1), BuildingBlock: OJICUG_clean_linker_0, # of connection points: 2
#     Edge 15, Type (0, 1), BuildingBlock: OJICUG_clean_linker_0, # of connection points: 2
#     Edge 16, Type (0, 1), BuildingBlock: OJICUG_clean_linker_0, # of connection points: 2
#     Edge 17, Type (0, 1), BuildingBlock: OJICUG_clean_linker_0, # of connection points: 2
#     Edge 18, Type (0, 1), BuildingBlock: OJICUG_clean_linker_0, # of connection points: 2
#     Edge 19, Type (0, 1), BuildingBlock: OJICUG_clean_linker_0, # of connection points: 2
#     Edge 20, Type (0, 1), BuildingBlock: OJICUG_clean_linker_0, # of connection points: 2
#     Edge 21, Type (0, 1), BuildingBlock: OJICUG_clean_linker_0, # of connection points: 2
#     Edge 22, Type (0, 1), BuildingBlock: OJICUG_clean_linker_0, # of connection points: 2
#     Edge 23, Type (0, 1), BuildingBlock: OJICUG_clean_linker_0, # of connection points: 2
#     Edge 24, Type (0, 1), BuildingBlock: OJICUG_clean_linker_0, # of connection points: 2
#     Edge 25, Type (0, 1), BuildingBlock: OJICUG_clean_linker_0, # of connection points: 2
#     Edge 26, Type (0, 1), BuildingBlock: OJICUG_clean_linker_0, # of connection points: 2
#     Edge 27, Type (0, 1), BuildingBlock: OJICUG_clean_linker_0, # of connection points: 2
#     Edge 28, Type (0, 1), BuildingBlock: OJICUG_clean_linker_0, # of connection points: 2
#     Edge 29, Type (0, 1), BuildingBlock: OJICUG_clean_linker_0, # of connection points: 2
#     Edge 30, Type (0, 1), BuildingBlock: OJICUG_clean_linker_0, # of connection points: 2
#     Edge 31, Type (0, 1), BuildingBlock: OJICUG_clean_linker_0, # of connection points: 2
#     Edge 32, Type (0, 1), BuildingBlock: OJICUG_clean_linker_0, # of connection points: 2
#     Edge 33, Type (0, 1), BuildingBlock: OJICUG_clean_linker_0, # of connection points: 2
#     Edge 34, Type (0, 1), BuildingBlock: OJICUG_clean_linker_0, # of connection points: 2
#     Edge 35, Type (0, 1), BuildingBlock: OJICUG_clean_linker_0, # of connection points: 2
#     Edge 36, Type (0, 1), BuildingBlock: OJICUG_clean_linker_0, # of connection points: 2
#     Edge 37, Type (0, 1), BuildingBlock: OJICUG_clean_linker_0, # of connection points: 2
#     Edge 38, Type (0, 1), BuildingBlock: OJICUG_clean_linker_0, # of connection points: 2
#     Edge 39, Type (0, 1), BuildingBlock: OJICUG_clean_linker_0, # of connection points: 2
#     Edge 40, Type (0, 1), BuildingBlock: OJICUG_clean_linker_0, # of connection points: 2
#     Edge 41, Type (0, 1), BuildingBlock: OJICUG_clean_linker_0, # of connection points: 2
#     Edge 42, Type (0, 1), BuildingBlock: OJICUG_clean_linker_0, # of connection points: 2
#     Edge 43, Type (0, 1), BuildingBlock: OJICUG_clean_linker_0, # of connection points: 2
#     Edge 44, Type (0, 1), BuildingBlock: OJICUG_clean_linker_0, # of connection points: 2
#     Edge 45, Type (0, 1), BuildingBlock: OJICUG_clean_linker_0, # of connection points: 2
#     Edge 46, Type (0, 1), BuildingBlock: OJICUG_clean_linker_0, # of connection points: 2
#     Edge 47, Type (0, 1), BuildingBlock: OJICUG_clean_linker_0, # of connection points: 2
#     Edge 48, Type (0, 1), BuildingBlock: OJICUG_clean_linker_0, # of connection points: 2
#     Edge 49, Type (0, 1), BuildingBlock: OJICUG_clean_linker_0, # of connection points: 2
#     Edge 50, Type (0, 1), BuildingBlock: OJICUG_clean_linker_0, # of connection points: 2
#     Edge 51, Type (0, 1), BuildingBlock: OJICUG_clean_linker_0, # of connection points: 2
#     Edge 52, Type (0, 1), BuildingBlock: OJICUG_clean_linker_0, # of connection points: 2
#     Edge 53, Type (0, 1), BuildingBlock: OJICUG_clean_linker_0, # of connection points: 2
#     Edge 54, Type (0, 1), BuildingBlock: OJICUG_clean_linker_0, # of connection points: 2
#     Edge 55, Type (0, 1), BuildingBlock: OJICUG_clean_linker_0, # of connection points: 2
#     Edge 56, Type (0, 1), BuildingBlock: OJICUG_clean_linker_0, # of connection points: 2
#     Edge 57, Type (0, 1), BuildingBlock: OJICUG_clean_linker_0, # of connection points: 2
#     Edge 58, Type (0, 1), BuildingBlock: OJICUG_clean_linker_0, # of connection points: 2
#     Edge 59, Type (0, 1), BuildingBlock: OJICUG_clean_linker_0, # of connection points: 2
#     Edge 60, Type (0, 1), BuildingBlock: OJICUG_clean_linker_0, # of connection points: 2
#     Edge 61, Type (0, 1), BuildingBlock: OJICUG_clean_linker_0, # of connection points: 2
# Relax obj value: 0.186
# Max RMSD: 0.335
# Mean RMSD: 0.219
data_MOF--net-ocu--node1-VOLQOD_clean_sbu_1--node2-TAGTUT_clean_sbu_1--edge1-OJICUG_clean_linker_0
_symmetry_space_group_name_H-M    P1
_symmetry_Int_Tables_number       1
_symmetry_cell_setting            triclinic
loop_
_symmetry_equiv_pos_as_xyz
'x, y, z'
_cell_length_a     29.367029
_cell_length_b     28.238214
_cell_length_c     30.536216
_cell_angle_alpha  92.447819
_cell_angle_beta   91.459415
_cell_angle_gamma 101.70568
loop_
_atom_site_label
_atom_site_type_symbol
_atom_site_fract_x
_atom_site_fract_y
_atom_site_fract_z
_atom_type_partial_charge
O0 O 0.35998 0.30927 0.24535 0.0
Zn1 Zn 0.30929 0.26864 0.28179 0.0
O2 O 0.25273 0.24077 0.2453 0.0
Zn3 Zn 0.19627 0.24913 0.27267 0.0
Zn4 Zn 0.25664 0.27465 0.19152 0.0
Zn5 Zn 0.2452 0.1711 0.23359 0.0
O6 O 0.15766 0.18826 0.29222 0.0
O7 O 0.18651 0.13085 0.25814 0.0
O8 O 0.29149 0.30797 0.33534 0.0
O9 O 0.21425 0.28816 0.32669 0.0
O10 O 0.15684 0.2841 0.23713 0.0
O11 O 0.20461 0.31038 0.18406 0.0
O12 O 0.25997 0.22877 0.14091 0.0
O13 O 0.33662 0.21319 0.30325 0.0
O14 O 0.25613 0.15722 0.17001 0.0
O15 O 0.29472 0.14812 0.26699 0.0
C16 C 0.35614 0.32778 0.20838 0.0
C17 C 0.15718 0.14381 0.2838 0.0
C18 C 0.16685 0.30931 0.20397 0.0
C19 C 0.25063 0.30924 0.34832 0.0
C20 C 0.26266 0.18438 0.13747 0.0
C21 C 0.32776 0.16774 0.2936 0.0
O22 O 0.31752 0.32056 0.18697 0.0
O23 O 0.7692 0.19678 0.17462 0.0
Zn24 Zn 0.79789 0.22263 0.23496 0.0
O25 O 0.74663 0.23358 0.27105 0.0
Zn26 Zn 0.74449 0.30177 0.27521 0.0
Zn27 Zn 0.68979 0.19784 0.24361 0.0
Zn28 Zn 0.7511 0.21046 0.32845 0.0
O29 O 0.76149 0.33096 0.33632 0.0
O30 O 0.77672 0.26714 0.36944 0.0
O31 O 0.8398 0.28573 0.22209 0.0
O32 O 0.7952 0.3376 0.24024 0.0
O33 O 0.68645 0.31579 0.24589 0.0
O34 O 0.65563 0.24329 0.21516 0.0
O35 O 0.64869 0.15788 0.28438 0.0
O36 O 0.83625 0.17974 0.26642 0.0
O37 O 0.6896 0.17193 0.34755 0.0
O38 O 0.79867 0.16869 0.32899 0.0
C39 C 0.73101 0.16686 0.16601 0.0
C40 C 0.77853 0.31256 0.36878 0.0
C41 C 0.65693 0.28856 0.21959 0.0
C42 C 0.83155 0.32832 0.2231 0.0
C43 C 0.65288 0.15233 0.32515 0.0
C44 C 0.83071 0.16111 0.30388 0.0
O45 O 0.70265 0.15358 0.19584 0.0
O46 O 0.6761 0.64698 0.23322 0.0
Zn47 Zn 0.7122 0.69615 0.28044 0.0
O48 O 0.73155 0.7581 0.25264 0.0
Zn49 Zn 0.79637 0.77165 0.24031 0.0
Zn50 Zn 0.69611 0.75033 0.19932 0.0
Zn51 Zn 0.71803 0.81326 0.28371 0.0
O52 O 0.83016 0.83444 0.26981 0.0
O53 O 0.77553 0.85095 0.31338 0.0
O54 O 0.77035 0.67149 0.29884 0.0
O55 O 0.82688 0.72326 0.26871 0.0
O56 O 0.80605 0.76228 0.17597 0.0
O57 O 0.73428 0.72806 0.15179 0.0
O58 O 0.67307 0.80922 0.18538 0.0
O59 O 0.67403 0.70852 0.33452 0.0
O60 O 0.68562 0.85524 0.24718 0.0
O61 O 0.67878 0.78843 0.33136 0.0
C62 C 0.6455 0.65674 0.20657 0.0
C63 C 0.8179 0.8566 0.3034 0.0
C64 C 0.77807 0.73811 0.14659 0.0
C65 C 0.81329 0.68615 0.29074 0.0
C66 C 0.66958 0.84712 0.20791 0.0
C67 C 0.66477 0.74858 0.34928 0.0
O68 O 0.63974 0.69987 0.20556 0.0
O69 O 0.30642 0.73584 0.32547 0.0
Zn70 Zn 0.28953 0.69907 0.26708 0.0
O71 O 0.2755 0.74652 0.22724 0.0
Zn72 Zn 0.20981 0.74272 0.22025 0.0
Zn73 Zn 0.30409 0.80899 0.25135 0.0
Zn74 Zn 0.30121 0.73898 0.17262 0.0
O75 O 0.18878 0.72841 0.157 0.0
O76 O 0.25166 0.70602 0.13059 0.0
O77 O 0.23158 0.65019 0.27596 0.0
O78 O 0.17621 0.68507 0.24929 0.0
O79 O 0.18969 0.79683 0.25508 0.0
O80 O 0.25739 0.83663 0.28444 0.0
O81 O 0.33833 0.85295 0.20827 0.0
O82 O 0.33929 0.66453 0.24344 0.0
O83 O 0.33803 0.79998 0.15227 0.0
O84 O 0.34459 0.6964 0.17794 0.0
C85 C 0.33269 0.77766 0.32974 0.0
C86 C 0.20875 0.70712 0.12769 0.0
C87 C 0.21315 0.82789 0.28297 0.0
C88 C 0.18882 0.65085 0.26878 0.0
C89 C 0.35088 0.84216 0.17022 0.0
C90 C 0.35717 0.66938 0.20585 0.0
O91 O 0.34943 0.79909 0.29632 0.0
O92 O 0.25986 0.68289 0.67697 0.0
Zn93 Zn 0.2916 0.71568 0.73525 0.0
O94 O 0.24452 0.73802 0.77212 0.0
Zn95 Zn 0.2516 0.80806 0.77491 0.0
Zn96 Zn 0.18209 0.71342 0.74855 0.0
Zn97 Zn 0.24898 0.71662 0.831 0.0
O98 O 0.26977 0.8378 0.83468 0.0
O99 O 0.27535 0.77367 0.87229 0.0
O100 O 0.33636 0.7744 0.71532 0.0
O101 O 0.3047 0.83512 0.73959 0.0
O102 O 0.19816 0.83207 0.74719 0.0
O103 O 0.14613 0.76432 0.73416 0.0
O104 O 0.14487 0.66593 0.78637 0.0
O105 O 0.32976 0.67444 0.77071 0.0
O106 O 0.18668 0.67969 0.84929 0.0
O107 O 0.29543 0.6729 0.83499 0.0
C108 C 0.21686 0.67507 0.66483 0.0
C109 C 0.28159 0.81942 0.86941 0.0
C110 C 0.15835 0.80996 0.73226 0.0
C111 C 0.33577 0.81943 0.71862 0.0
C112 C 0.15006 0.65959 0.82693 0.0
C113 C 0.32586 0.66085 0.81019 0.0
O114 O 0.18589 0.68398 0.6902 0.0
O115 O 0.18835 0.15527 0.74236 0.0
Zn116 Zn 0.22471 0.2088 0.7852 0.0
O117 O 0.24245 0.26718 0.75209 0.0
Zn118 Zn 0.30671 0.27934 0.7381 0.0
Zn119 Zn 0.20484 0.25391 0.7003 0.0
Zn120 Zn 0.22899 0.32429 0.77918 0.0
O121 O 0.33846 0.34742 0.75635 0.0
O122 O 0.28728 0.36399 0.8036 0.0
O123 O 0.28344 0.18695 0.80488 0.0
O124 O 0.33998 0.2372 0.77307 0.0
O125 O 0.31357 0.25955 0.67525 0.0
O126 O 0.24085 0.22591 0.65326 0.0
O127 O 0.18017 0.31079 0.68218 0.0
O128 O 0.18744 0.2256 0.83853 0.0
O129 O 0.19464 0.36195 0.74062 0.0
O130 O 0.19247 0.30476 0.83012 0.0
C131 C 0.15537 0.16306 0.71761 0.0
C132 C 0.32864 0.37022 0.79063 0.0
C133 C 0.28462 0.23399 0.64744 0.0
C134 C 0.32641 0.20177 0.79718 0.0
C135 C 0.17697 0.35028 0.70232 0.0
C136 C 0.17901 0.26681 0.85098 0.0
O137 O 0.14934 0.20589 0.71487 0.0
O138 O 0.79589 0.27808 0.81488 0.0
Zn139 Zn 0.77301 0.23833 0.75903 0.0
O140 O 0.74861 0.27927 0.71918 0.0
Zn141 Zn 0.68184 0.25939 0.71522 0.0
Zn142 Zn 0.76676 0.34681 0.73766 0.0
Zn143 Zn 0.7711 0.2717 0.66156 0.0
O144 O 0.66654 0.2148 0.66285 0.0
O145 O 0.72323 0.23791 0.61676 0.0
O146 O 0.72054 0.18765 0.77754 0.0
O147 O 0.65818 0.21874 0.76429 0.0
O148 O 0.6528 0.31796 0.71471 0.0
O149 O 0.71173 0.37727 0.72718 0.0
O150 O 0.822 0.37873 0.70459 0.0
O151 O 0.8208 0.20355 0.73111 0.0
O152 O 0.81313 0.33082 0.6438 0.0
O153 O 0.81306 0.22686 0.66329 0.0
C154 C 0.79471 0.32156 0.82741 0.0
C155 C 0.68523 0.21044 0.62623 0.0
C156 C 0.67291 0.35386 0.73949 0.0
C157 C 0.67745 0.18734 0.78151 0.0
C158 C 0.83455 0.36781 0.66652 0.0
C159 C 0.83076 0.20298 0.69072 0.0
O160 O 0.78345 0.35132 0.80112 0.0
O161 O 0.85777 0.81435 0.74867 0.0
Zn162 Zn 0.80821 0.7698 0.78261 0.0
O163 O 0.75335 0.74002 0.74465 0.0
Zn164 Zn 0.6956 0.74552 0.77148 0.0
Zn165 Zn 0.75737 0.77369 0.69091 0.0
Zn166 Zn 0.74917 0.67101 0.73192 0.0
O167 O 0.65874 0.68271 0.78944 0.0
O168 O 0.69141 0.62834 0.75503 0.0
O169 O 0.78778 0.80758 0.83562 0.0
O170 O 0.71085 0.78467 0.82621 0.0
O171 O 0.65567 0.77966 0.73544 0.0
O172 O 0.70336 0.80593 0.68226 0.0
O173 O 0.76586 0.72952 0.64008 0.0
O174 O 0.83806 0.71603 0.80371 0.0
O175 O 0.76095 0.65754 0.66844 0.0
O176 O 0.79966 0.65032 0.76573 0.0
C177 C 0.85312 0.83387 0.7124 0.0
C178 C 0.6606 0.63892 0.78025 0.0
C179 C 0.66545 0.80447 0.70197 0.0
C180 C 0.7465 0.80729 0.84811 0.0
C181 C 0.76846 0.6851 0.63628 0.0
C182 C 0.83154 0.67087 0.79313 0.0
O183 O 0.81524 0.82402 0.68981 0.0
C184 C 0.91978 0.10364 0.56564 0.0
C185 C 0.94085 0.08024 0.42374 0.0
C186 C 0.94182 0.90072 0.45419 0.0
Mg187 Mg 0.0044 0.09821 0.50754 0.0
O188 O 0.98338 0.03463 0.52475 0.0
Mg189 Mg 0.91935 0.00112 0.50496 0.0
Mg190 Mg 0.01924 0.98606 0.50556 0.0
O191 O 0.0553 0.93854 0.48468 0.0
Mg192 Mg 0.03515 0.87235 0.49194 0.0
Mg193 Mg 0.11802 0.97225 0.50739 0.0
C194 C 0.09612 0.0737 0.54957 0.0
C195 C 0.08662 0.0328 0.42825 0.0
O196 O 0.8979 0.06235 0.54877 0.0
O197 O 0.96047 0.1241 0.55398 0.0
O198 O 0.91805 0.04443 0.44334 0.0
O199 O 0.97835 0.10602 0.44103 0.0
O200 O 0.07828 0.10293 0.52641 0.0
O201 O 0.08219 0.02769 0.54475 0.0
C202 C 0.95264 0.94122 0.58403 0.0
O203 O 0.99271 0.94378 0.56745 0.0
O204 O 0.92116 0.95929 0.56552 0.0
O205 O 0.14556 0.91575 0.46373 0.0
O206 O 0.08563 0.85315 0.44853 0.0
O207 O 0.11196 0.9252 0.56807 0.0
C208 C 0.12703 0.8762 0.44207 0.0
O209 O 0.05114 0.86301 0.56017 0.0
O210 O 0.96556 0.86829 0.4625 0.0
C211 C 0.08524 0.8883 0.58317 0.0
O212 O 0.95538 0.94496 0.46793 0.0
O213 O 0.04597 0.02796 0.44407 0.0
O214 O 0.119 0.01648 0.44738 0.0
C215 C 0.39263 0.12169 0.02462 0.0
C216 C 0.44653 0.11176 0.9001 0.0
C217 C 0.44991 0.92435 0.94851 0.0
Mg218 Mg 0.4943 0.13226 -0.00707 0.0
O219 O 0.48007 0.06507 -0.00025 0.0
Mg220 Mg 0.421 0.02499 0.97328 0.0
Mg221 Mg 0.52264 0.02051 0.98474 0.0
O222 O 0.56531 0.97541 0.97037 0.0
Mg223 Mg 0.54851 0.91201 -0.01148 0.0
Mg224 Mg 0.62378 0.01521 -0.00108 0.0
C225 C 0.59334 0.11606 0.03214 0.0
C226 C 0.59433 0.06569 0.91268 0.0
O227 O 0.38321 0.07921 0.00601 0.0
O228 O 0.43381 0.14832 0.02615 0.0
O229 O 0.42621 0.07034 0.91269 0.0
O230 O 0.4776 0.14038 0.92423 0.0
O231 O 0.56651 0.14584 0.02355 0.0
O232 O 0.58058 0.07046 0.02287 0.0
C233 C 0.45169 0.97273 0.05696 0.0
O234 O 0.49395 0.98045 0.04502 0.0
O235 O 0.41915 0.98546 0.03485 0.0
O236 O 0.66165 0.95626 0.97108 0.0
O237 O 0.60783 0.8869 0.96281 0.0
O238 O 0.61598 0.97709 0.064 0.0
C239 C 0.64969 0.91094 0.95989 0.0
O240 O 0.55658 0.91409 0.05833 0.0
O241 O 0.47678 0.89678 0.96203 0.0
C242 C 0.58891 0.94209 0.08102 0.0
O243 O 0.46375 0.97044 0.94667 0.0
O244 O 0.55206 0.06 0.92466 0.0
O245 O 0.62608 0.05162 0.93518 0.0
C246 C 0.87328 0.61879 0.04236 0.0
C247 C 0.91488 0.57135 0.91872 0.0
C248 C 0.8968 0.39607 0.9813 0.0
Mg249 Mg 0.96509 0.59923 0.00604 0.0
O250 O 0.94412 0.53927 0.02926 0.0
Mg251 Mg 0.8806 0.50526 0.00661 0.0
Mg252 Mg 0.97943 0.48799 0.01305 0.0
O253 O 0.01362 0.43621 -0.00327 0.0
Mg254 Mg 0.99244 0.37459 0.01832 0.0
Mg255 Mg 0.07821 0.46995 0.01424 0.0
C256 C 0.06272 0.58025 0.0381 0.0
C257 C 0.04462 0.52347 0.93199 0.0
O258 O 0.85456 0.5737 0.03453 0.0
O259 O 0.91601 0.63611 0.03493 0.0
O260 O 0.88595 0.54018 0.93872 0.0
O261 O 0.95189 0.59502 0.93786 0.0
O262 O 0.03665 0.60894 0.02599 0.0
O263 O 0.04702 0.53469 0.0427 0.0
C264 C 0.91214 0.45379 0.09284 0.0
O265 O 0.95239 0.45474 0.0769 0.0
O266 O 0.8805 0.4712 0.07307 0.0
O267 O 0.10011 0.40044 0.98314 0.0
O268 O 0.03808 0.33842 0.98241 0.0
O269 O 0.07704 0.43536 0.08007 0.0
C270 C 0.08042 0.35585 0.97367 0.0
O271 O 0.01557 0.37554 0.08567 0.0
O272 O 0.92004 0.3657 -0.00406 0.0
C273 C 0.05304 0.40218 0.10184 0.0
O274 O 0.91412 0.44175 0.98175 0.0
O275 O 0.0053 0.52237 0.94955 0.0
O276 O 0.07641 0.50458 0.94926 0.0
C277 C 0.43607 0.58434 0.06952 0.0
C278 C 0.44191 0.57267 0.92365 0.0
C279 C 0.44803 0.39016 0.94245 0.0
Mg280 Mg 0.51418 0.58471 0.00255 0.0
O281 O 0.49349 0.51981 0.01809 0.0
Mg282 Mg 0.42807 0.48761 0.00082 0.0
Mg283 Mg 0.52785 0.46954 -0.00274 0.0
O284 O 0.56117 0.4212 0.97293 0.0
Mg285 Mg 0.53944 0.35443 0.97501 0.0
Mg286 Mg 0.62511 0.45201 -0.00669 0.0
C287 C 0.60333 0.55454 0.03847 0.0
C288 C 0.59309 0.51735 0.91882 0.0
O289 O 0.41104 0.54651 0.04931 0.0
O290 O 0.47629 0.60512 0.05689 0.0
O291 O 0.42189 0.53436 0.94169 0.0
O292 O 0.48022 0.5979 0.94 0.0
O293 O 0.58808 0.57851 0.00845 0.0
O294 O 0.59373 0.50805 0.03584 0.0
C295 C 0.46228 0.42374 0.07669 0.0
O296 O 0.50201 0.42589 0.05942 0.0
O297 O 0.4313 0.44318 0.05925 0.0
O298 O 0.64903 0.39661 0.94496 0.0
O299 O 0.58773 0.33606 0.92868 0.0
O300 O 0.61833 0.40132 0.05157 0.0
C301 C 0.62908 0.35874 0.92164 0.0
O302 O 0.55604 0.34066 0.04178 0.0
O303 O 0.47045 0.35582 0.94687 0.0
C304 C 0.5907 0.36412 0.06524 0.0
O305 O 0.4624 0.43235 0.96061 0.0
O306 O 0.55318 0.51247 0.93609 0.0
O307 O 0.62569 0.49962 0.93583 0.0
C308 C 0.89191 0.6187 0.51751 0.0
C309 C 0.93929 0.60062 0.39099 0.0
C310 C 0.9484 0.41785 0.44625 0.0
Mg311 Mg 0.99187 0.62791 0.48158 0.0
O312 O 0.97902 0.56143 0.49098 0.0
Mg313 Mg 0.919 0.51938 0.46914 0.0
Mg314 Mg 0.02174 0.51616 0.4788 0.0
O315 O 0.06433 0.47038 0.4672 0.0
Mg316 Mg 0.04806 0.40734 0.48609 0.0
Mg317 Mg 0.12269 0.5122 0.4942 0.0
C318 C 0.0917 0.61445 0.52209 0.0
C319 C 0.09201 0.55293 0.40301 0.0
O320 O 0.88186 0.57535 0.50071 0.0
O321 O 0.93294 0.64528 0.5165 0.0
O322 O 0.92037 0.55996 0.40605 0.0
O323 O 0.97122 0.63096 0.41279 0.0
O324 O 0.06439 0.64324 0.51184 0.0
O325 O 0.0797 0.5686 0.51416 0.0
C326 C 0.95408 0.47521 0.55586 0.0
O327 O -0.00421 0.48192 0.54269 0.0
O328 O 0.9206 0.48513 0.53307 0.0
O329 O 0.16112 0.45294 0.46996 0.0
O330 O 0.10863 0.38266 0.46152 0.0
O331 O 0.11461 0.47722 0.56081 0.0
C332 C 0.15032 0.40752 0.45931 0.0
O333 O 0.05651 0.41263 0.55581 0.0
O334 O 0.97571 0.3907 0.45982 0.0
C335 C 0.08817 0.44197 0.57822 0.0
O336 O 0.96187 0.46388 0.44407 0.0
O337 O 0.04985 0.54921 0.41494 0.0
O338 O 0.12407 0.54255 0.42779 0.0
C339 C 0.37608 0.11068 0.54227 0.0
C340 C 0.41172 0.0638 0.41611 0.0
C341 C 0.39384 0.88757 0.48129 0.0
Mg342 Mg 0.46622 0.09037 0.50155 0.0
O343 O 0.44529 0.03027 0.52455 0.0
Mg344 Mg 0.38068 -0.00295 0.50457 0.0
Mg345 Mg 0.47899 0.97822 0.50696 0.0
O346 O 0.51139 0.92523 0.49051 0.0
Mg347 Mg 0.4891 0.86744 0.51884 0.0
Mg348 Mg 0.5765 0.9578 0.50772 0.0
C349 C 0.56406 0.06885 0.53046 0.0
C350 C 0.54368 0.01251 0.42541 0.0
O351 O 0.3567 0.06574 0.53467 0.0
O352 O 0.41849 0.12759 0.53317 0.0
O353 O 0.38334 0.03282 0.43689 0.0
O354 O 0.44994 0.08644 0.43386 0.0
O355 O 0.53863 0.09851 0.51911 0.0
O356 O 0.54731 0.02369 0.53552 0.0
C357 C 0.41495 0.94375 0.58807 0.0
O358 O 0.45424 0.94497 0.57048 0.0
O359 O 0.38257 0.96189 0.57051 0.0
O360 O 0.59497 0.88563 0.4785 0.0
O361 O 0.53154 0.82603 0.48444 0.0
O362 O 0.57648 0.92594 0.57479 0.0
C363 C 0.57334 0.84103 0.47265 0.0
O364 O 0.51219 0.87212 0.58624 0.0
O365 O 0.4163 0.85907 0.50019 0.0
C366 C 0.55171 0.89661 0.59953 0.0
O367 O 0.41189 0.93264 0.47712 0.0
O368 O 0.50467 0.01263 0.4433 0.0
O369 O 0.5745 -0.00831 0.44203 0.0
C370 C 0.09415 0.12134 0.33759 0.0
C371 C 0.12984 0.1084 0.31251 0.0
H372 H 0.05221 0.10744 0.394 0.0
C373 C 0.14587 0.06638 0.32236 0.0
H374 H 0.08103 0.15357 0.33082 0.0
C375 C 0.13002 0.04076 0.359 0.0
C376 C 0.09717 0.056 0.38612 0.0
H377 H 0.17341 0.05544 0.30399 0.0
H378 H 0.14498 0.01005 0.36715 0.0
C379 C 0.0777 0.0951 0.3739 0.0
C380 C 0.91006 0.15869 0.33386 0.0
C381 C 0.86443 0.13431 0.32218 0.0
H382 H 0.9707 0.1607 0.37539 0.0
C383 C 0.84789 0.0885 0.33826 0.0
H384 H 0.92325 0.19453 0.32244 0.0
C385 C 0.87497 0.06892 0.36806 0.0
C386 C 0.9188 0.09539 0.38358 0.0
H387 H 0.81266 0.06927 0.33009 0.0
H388 H 0.85983 0.03456 0.38143 0.0
C389 C 0.93705 0.13946 0.36447 0.0
C390 C 0.84498 0.90808 0.37178 0.0
C391 C 0.85296 0.87484 0.3386 0.0
H392 H 0.86707 0.94262 0.43512 0.0
C393 C 0.88964 0.85049 0.34431 0.0
H394 H 0.81635 0.92669 0.36841 0.0
C395 C 0.91655 0.8575 0.38294 0.0
C396 C 0.90849 0.89014 0.41649 0.0
H397 H 0.89606 0.82379 0.31994 0.0
H398 H 0.94435 0.8377 0.38606 0.0
C399 C 0.87323 0.91641 0.41018 0.0
C400 C 0.14428 0.8206 0.33037 0.0
C401 C 0.18952 0.84461 0.32116 0.0
H402 H 0.08997 0.81008 0.37623 0.0
C403 C 0.21475 0.87809 0.35288 0.0
H404 H 0.12413 0.79387 0.30717 0.0
C405 C 0.19532 0.887 0.39296 0.0
C406 C 0.15032 0.86236 0.40243 0.0
H407 H 0.24998 0.89672 0.34715 0.0
H408 H 0.21552 0.91338 0.41642 0.0
C409 C 0.12506 0.82913 0.37055 0.0
C410 C 0.15007 0.88255 0.69086 0.0
C411 C 0.1312 0.8352 0.70272 0.0
H412 H 0.15033 0.93651 0.64383 0.0
C413 C 0.09155 0.80897 0.67915 0.0
H414 H 0.18032 0.90404 0.7084 0.0
C415 C 0.07444 0.82756 0.6418 0.0
C416 C 0.09664 0.87273 0.62724 0.0
H417 H 0.07578 0.77254 0.68753 0.0
H418 H 0.04573 0.80514 0.62286 0.0
C419 C 0.13307 0.90105 0.65348 0.0
C420 C 0.09408 0.13595 0.6603 0.0
C421 C 0.13542 0.12918 0.6808 0.0
H422 H 0.05045 0.12497 0.60241 0.0
C423 C 0.16216 0.09975 0.65928 0.0
H424 H 0.07269 0.15824 0.67617 0.0
C425 C 0.14934 0.08061 0.61648 0.0
C426 C 0.11036 0.09169 0.59476 0.0
H427 H 0.19452 0.09443 0.67413 0.0
H428 H 0.1709 0.05922 0.59971 0.0
C429 C 0.08191 0.1178 0.61772 0.0
C430 C 0.83976 0.12514 0.65684 0.0
C431 C 0.86056 0.1723 0.67215 0.0
H432 H 0.8415 0.06663 0.61034 0.0
C433 C 0.90248 0.19525 0.65462 0.0
H434 H 0.80646 0.10754 0.66884 0.0
C435 C 0.92198 0.1726 0.6205 0.0
C436 C 0.89956 0.12668 0.60284 0.0
H437 H 0.91815 0.23234 0.66487 0.0
H438 H 0.95361 0.1921 0.60677 0.0
C439 C 0.85912 0.10243 0.62247 0.0
C440 C 0.88932 0.91416 0.68769 0.0
C441 C 0.89233 0.86589 0.6928 0.0
H442 H 0.90761 0.97633 0.64945 0.0
C443 C 0.92355 0.84564 0.66731 0.0
H444 H 0.86486 0.93017 0.70633 0.0
C445 C 0.94796 0.87199 0.63416 0.0
C446 C 0.94079 0.91855 0.6261 0.0
H447 H 0.92545 0.80795 0.67 0.0
H448 H 0.96851 0.85432 0.61231 0.0
C449 C 0.91346 0.9403 0.65481 0.0
C450 C 0.285 0.11916 0.09017 0.0
C451 C 0.28745 0.16857 0.09995 0.0
H452 H 0.31635 0.0657 0.05825 0.0
C453 C 0.32185 0.2028 0.08057 0.0
H454 H 0.25917 0.09208 0.10491 0.0
C455 C 0.35559 0.18778 0.05508 0.0
C456 C 0.35473 0.13833 0.04754 0.0
H457 H 0.32511 0.24124 0.08792 0.0
H458 H 0.3831 0.21479 0.04247 0.0
C459 C 0.31803 0.10418 0.06376 0.0
C460 C 0.8971 0.35515 0.17333 0.0
C461 C 0.86028 0.36589 0.19773 0.0
H462 H 0.94186 0.37463 0.12039 0.0
C463 C 0.84642 0.41021 0.19223 0.0
H464 H 0.90874 0.32144 0.17686 0.0
C465 C 0.86568 0.44068 0.15984 0.0
C466 C 0.8996 0.42776 0.1329 0.0
H467 H 0.81846 0.41992 0.21082 0.0
H468 H 0.85234 0.47309 0.15438 0.0
C469 C 0.91652 0.38588 0.14115 0.0
C470 C 0.59784 0.85995 0.17166 0.0
C471 C 0.64304 0.87957 0.18806 0.0
H472 H 0.54366 0.86602 0.12578 0.0
C473 C 0.66503 0.92611 0.17727 0.0
H474 H 0.58026 0.82412 0.18018 0.0
C475 C 0.64436 0.95009 0.14564 0.0
C476 C 0.60171 0.92738 0.12466 0.0
H477 H 0.69993 0.94169 0.18985 0.0
H478 H 0.66394 0.98398 0.13463 0.0
C479 C 0.57698 0.88398 0.14053 0.0
C480 C 0.16413 0.62408 0.11436 0.0
C481 C 0.17953 0.6705 0.09874 0.0
H482 H 0.11481 0.55691 0.10577 0.0
C483 C 0.16415 0.68174 0.05766 0.0
H484 H 0.17656 0.61496 0.14602 0.0
C485 C 0.12986 0.64824 0.03425 0.0
C486 C 0.11013 0.60389 0.05235 0.0
H487 H 0.17647 0.71717 0.04504 0.0
H488 H 0.11562 0.65888 0.00396 0.0
C489 C 0.12953 0.59067 0.09114 0.0
C490 C 0.33099 0.90007 0.8922 0.0
C491 C 0.31492 0.85095 0.90071 0.0
H492 H 0.38694 0.96189 0.9003 0.0
C493 C 0.33938 0.82982 0.93203 0.0
H494 H 0.31271 0.91777 0.86868 0.0
C495 C 0.38218 0.85496 0.94963 0.0
C496 C 0.40101 0.90189 0.93671 0.0
H497 H 0.32774 0.79237 0.93996 0.0
H498 H 0.40167 0.83652 0.97144 0.0
C499 C 0.37378 0.92534 0.91004 0.0
C500 C 0.10758 0.25965 0.89398 0.0
C501 C 0.15592 0.27444 0.89189 0.0
H502 H 0.04538 0.27415 0.92202 0.0
C503 C 0.17975 0.31073 0.9219 0.0
H504 H 0.08845 0.23263 0.87041 0.0
C505 C 0.15532 0.33556 0.9503 0.0
C506 C 0.10658 0.32408 0.94961 0.0
H507 H 0.21708 0.32316 0.92033 0.0
H508 H 0.17448 0.36551 0.97099 0.0
C509 C 0.08302 0.28409 0.923 0.0
C510 C 0.66837 0.11095 0.81994 0.0
C511 C 0.65046 0.15145 0.80903 0.0
H512 H 0.66349 0.0512 0.86097 0.0
C513 C 0.60898 0.15903 0.82748 0.0
H514 H 0.69966 0.1036 0.80541 0.0
C515 C 0.58805 0.12871 0.8594 0.0
C516 C 0.60863 0.09086 0.87295 0.0
H517 H 0.59431 0.18989 0.81925 0.0
H518 H 0.55788 0.13685 0.87543 0.0
C519 C 0.64761 0.08091 0.85162 0.0
C520 C 0.90279 0.66013 0.834 0.0
C521 C 0.85806 0.64045 0.81666 0.0
H522 H 0.95749 0.65197 0.87829 0.0
C523 C 0.83678 0.59282 0.82583 0.0
H524 H 0.92024 0.69638 0.82661 0.0
C525 C 0.85761 0.56748 0.85613 0.0
C526 C 0.90031 0.58924 0.87702 0.0
H527 H 0.80237 0.57664 0.81239 0.0
H528 H 0.83867 0.53258 0.86557 0.0
C529 C 0.92414 0.63438 0.86337 0.0
C530 C 0.08653 0.31803 0.18268 0.0
C531 C 0.13424 0.33809 0.18792 0.0
H532 H 0.02191 0.32366 0.15135 0.0
C533 C 0.15151 0.38479 0.17425 0.0
H534 H 0.0725 0.28224 0.19379 0.0
C535 C 0.1225 0.40921 0.15151 0.0
C536 C 0.07618 0.38636 0.14047 0.0
H537 H 0.18804 0.4014 0.17918 0.0
H538 H 0.13781 0.44391 0.13885 0.0
C539 C 0.05758 0.34195 0.15876 0.0
C540 C 0.10793 0.57571 0.83552 0.0
C541 C 0.11455 0.62509 0.84781 0.0
H542 H 0.07934 0.50339 0.85347 0.0
C543 C 0.09053 0.6405 0.88287 0.0
H544 H 0.12652 0.56347 0.80848 0.0
C545 C 0.06216 0.60646 0.90723 0.0
C546 C 0.05885 0.55683 0.89747 0.0
H547 H 0.09548 0.6786 0.89262 0.0
H548 H 0.04658 0.61886 0.93618 0.0
C549 C 0.08076 0.54157 0.86079 0.0
C550 C 0.35 0.12737 0.82266 0.0
C551 C 0.36137 0.17721 0.8166 0.0
H552 H 0.36968 0.06663 0.85105 0.0
C553 C 0.40573 0.20339 0.8305 0.0
H554 H 0.31652 0.10612 0.8112 0.0
C555 C 0.43634 0.18094 0.85407 0.0
C556 C 0.42331 0.13174 0.86343 0.0
H557 H 0.41556 0.24186 0.82563 0.0
H558 H 0.46866 0.20291 0.86751 0.0
C559 C 0.38091 0.1047 0.84509 0.0
C560 C 0.81482 0.38858 0.88504 0.0
C561 C 0.80925 0.33909 0.87277 0.0
H562 H 0.84574 0.4458 0.93096 0.0
C563 C 0.82107 0.30746 0.90326 0.0
H564 H 0.8045 0.41376 0.86287 0.0
C565 C 0.84395 0.32584 0.94278 0.0
C566 C 0.85614 0.3762 0.9519 0.0
H567 H 0.81559 0.2689 0.89544 0.0
H568 H 0.85621 0.30085 0.9639 0.0
C569 C 0.83804 0.40699 0.9244 0.0
C570 C 0.74704 0.88515 0.88964 0.0
C571 C 0.7369 0.83436 0.88775 0.0
H572 H 0.72692 0.94985 0.91458 0.0
C573 C 0.70419 0.80991 0.91606 0.0
H574 H 0.77144 0.90467 0.86743 0.0
C575 C 0.67805 0.83533 0.94202 0.0
C576 C 0.68445 0.88581 0.94047 0.0
H577 H 0.69555 0.77066 0.91482 0.0
H578 H 0.65075 0.81515 0.96111 0.0
C579 C 0.72107 0.91085 0.91615 0.0
C580 C 0.77466 0.66649 0.09478 0.0
C581 C 0.79809 0.71261 0.11111 0.0
H582 H 0.7802 0.60008 0.06065 0.0
C583 C 0.84432 0.72958 0.09984 0.0
H584 H 0.73902 0.65226 0.1032 0.0
C585 C 0.86782 0.69979 0.07558 0.0
C586 C 0.84578 0.65207 0.06244 0.0
H587 H 0.86318 0.76499 0.11184 0.0
H588 H 0.90408 0.71354 0.06912 0.0
C589 C 0.7984 0.63634 0.07085 0.0
C590 C 0.41486 0.86255 0.11868 0.0
C591 C 0.38324 0.87802 0.14704 0.0
H592 H 0.46353 0.88213 0.06837 0.0
C593 C 0.3819 0.92726 0.15162 0.0
H594 H 0.41708 0.82472 0.11539 0.0
C595 C 0.40853 0.95991 0.12477 0.0
C596 C 0.43753 0.94368 0.0942 0.0
H597 H 0.35808 0.93989 0.17365 0.0
H598 H 0.40418 -0.00285 0.12575 0.0
C599 C 0.44218 0.89537 0.09257 0.0
C600 C 0.68807 0.19464 0.10512 0.0
C601 C 0.71103 0.15944 0.12123 0.0
H602 H 0.63235 0.20868 0.06412 0.0
C603 C 0.70068 0.11262 0.10212 0.0
H604 H 0.69469 0.23084 0.12043 0.0
C605 C 0.6652 0.09999 0.07001 0.0
C606 C 0.63839 0.13345 0.05701 0.0
H607 H 0.71706 0.08467 0.11478 0.0
H608 H 0.65663 0.06279 0.0584 0.0
C609 C 0.65189 0.18175 0.07329 0.0
C610 C 0.59836 0.61193 0.8339 0.0
C611 C 0.63405 0.60134 0.80746 0.0
H612 H 0.55697 0.59331 0.89002 0.0
C613 C 0.65062 0.55885 0.81422 0.0
H614 H 0.58472 0.64435 0.82943 0.0
C615 C 0.63542 0.53043 0.84936 0.0
C616 C 0.6027 0.54332 0.878 0.0
H617 H 0.67805 0.54952 0.79462 0.0
H618 H 0.65081 0.49938 0.8552 0.0
C619 C 0.58254 0.5829 0.86872 0.0
C620 C 0.40608 0.65434 0.83743 0.0
C621 C 0.35863 0.6332 0.83001 0.0
H622 H 0.46997 0.6522 0.87291 0.0
C623 C 0.34084 0.58945 0.84942 0.0
H624 H 0.42053 0.68861 0.82357 0.0
C625 C 0.36909 0.56821 0.87696 0.0
C626 C 0.41579 0.59091 0.8872 0.0
H627 H 0.30434 0.57265 0.84479 0.0
H628 H 0.35324 0.5353 0.89233 0.0
C629 C 0.43431 0.63361 0.86597 0.0
C630 C 0.35674 0.41398 0.86183 0.0
C631 C 0.36506 0.38557 0.82502 0.0
H632 H 0.37584 0.43666 0.92896 0.0
C633 C 0.40137 0.3602 0.82724 0.0
H634 H 0.32853 0.43344 0.86105 0.0
C635 C 0.42637 0.36002 0.86633 0.0
C636 C 0.41672 0.38643 0.90378 0.0
H637 H 0.40834 0.33741 0.79979 0.0
H638 H 0.4537 0.33937 0.86695 0.0
C639 C 0.38283 0.41483 0.90087 0.0
C640 C 0.69387 0.38439 0.81748 0.0
C641 C 0.66686 0.35005 0.78756 0.0
H642 H 0.70505 0.41257 0.8838 0.0
C643 C 0.63221 0.31385 0.80398 0.0
H644 H 0.72065 0.41304 0.80609 0.0
C645 C 0.6235 0.31324 0.84878 0.0
C646 C 0.64848 0.34951 0.8783 0.0
H647 H 0.61026 0.28712 0.78203 0.0
H648 H 0.59486 0.28629 0.85969 0.0
C649 C 0.68517 0.38383 0.8623 0.0
C650 C 0.64557 0.3598 0.17796 0.0
C651 C 0.63096 0.31066 0.18664 0.0
H652 H 0.64453 0.41514 0.13248 0.0
C653 C 0.59774 0.28104 0.15794 0.0
H654 H 0.67111 0.38366 0.19929 0.0
C655 C 0.58248 0.29914 0.11957 0.0
C656 C 0.60053 0.34706 0.10893 0.0
H657 H 0.58565 0.24304 0.16373 0.0
H658 H 0.55877 0.27474 0.09703 0.0
C659 C 0.63074 0.37772 0.13934 0.0
C660 C 0.59873 0.63983 0.13641 0.0
C661 C 0.62794 0.62427 0.16763 0.0
H662 H 0.56973 0.63163 0.07115 0.0
C663 C 0.64607 0.58294 0.15709 0.0
H664 H 0.5838 0.67131 0.1433 0.0
C665 C 0.6371 0.55942 0.11539 0.0
C666 C 0.61064 0.57738 0.08335 0.0
H667 H 0.6689 0.57015 0.18018 0.0
H668 H 0.65239 0.52837 0.10761 0.0
C669 C 0.59084 0.61724 0.0947 0.0
C670 C 0.36446 0.59323 0.16973 0.0
C671 C 0.387 0.6382 0.18874 0.0
H672 H 0.36112 0.54178 0.11571 0.0
C673 C 0.42958 0.66139 0.17251 0.0
H674 H 0.33105 0.57522 0.18124 0.0
C675 C 0.44615 0.64326 0.13426 0.0
C676 C 0.42036 0.60149 0.11178 0.0
H677 H 0.44703 0.69663 0.18625 0.0
H678 H 0.47769 0.66361 0.12106 0.0
C679 C 0.38082 0.57511 0.13126 0.0
C680 C 0.42163 0.32846 0.1578 0.0
C681 C 0.39714 0.35416 0.18625 0.0
H682 H 0.46333 0.33083 0.10051 0.0
C683 C 0.40299 0.40433 0.18332 0.0
H684 H 0.41656 0.28942 0.1587 0.0
C685 C 0.42954 0.4278 0.15026 0.0
C686 C 0.45045 0.40156 0.11911 0.0
H687 H 0.38369 0.42472 0.20408 0.0
H688 H 0.43026 0.46597 0.14662 0.0
C689 C 0.44837 0.35206 0.12448 0.0
C690 C 0.8259 0.70212 0.57739 0.0
C691 C 0.79201 0.66864 0.59809 0.0
H692 H 0.88491 0.71259 0.5363 0.0
C693 C 0.78806 0.61904 0.58796 0.0
H694 H 0.83019 0.74065 0.5849 0.0
C695 C 0.81913 0.60311 0.55977 0.0
C696 C 0.85541 0.63643 0.54195 0.0
H697 H 0.7625 0.59247 0.60357 0.0
H698 H 0.81633 0.56448 0.55406 0.0
C699 C 0.85768 0.68613 0.54999 0.0
C700 C 0.36369 0.90308 0.69437 0.0
C701 C 0.36639 0.85378 0.69186 0.0
H702 H 0.37693 0.97049 0.66261 0.0
C703 C 0.39193 0.83681 0.65856 0.0
H704 H 0.34462 0.91746 0.7199 0.0
C705 C 0.41052 0.86744 0.62604 0.0
C706 C 0.40425 0.9154 0.62671 0.0
H707 H 0.39444 0.79907 0.65559 0.0
H708 H 0.42618 0.85241 0.59846 0.0
C709 C 0.38202 0.93351 0.66168 0.0
C710 C 0.16747 0.42842 0.67245 0.0
C711 C 0.14859 0.38042 0.68157 0.0
H712 H 0.16168 0.48726 0.63231 0.0
C713 C 0.10384 0.35859 0.66548 0.0
H714 H 0.2018 0.44589 0.68524 0.0
C715 C 0.08037 0.38231 0.63621 0.0
C716 C 0.10222 0.42751 0.62152 0.0
H717 H 0.0884 0.3218 0.67319 0.0
H718 H 0.04746 0.3629 0.62164 0.0
C719 C 0.14432 0.452 0.64237 0.0
C720 C 0.66202 0.17086 0.55213 0.0
C721 C 0.66553 0.16795 0.59765 0.0
H722 H 0.6268 0.13782 0.49293 0.0
C723 C 0.64749 0.124 0.6169 0.0
H724 H 0.67683 0.20403 0.53662 0.0
C725 C 0.62056 0.08564 0.59186 0.0
C726 C 0.6104 0.09169 0.54774 0.0
H727 H 0.65152 0.12049 0.65192 0.0
H728 H 0.60255 0.05437 0.60836 0.0
C729 C 0.63429 0.13271 0.52716 0.0
C730 C 0.82938 0.3932 0.38952 0.0
C731 C 0.8127 0.34455 0.39914 0.0
H732 H 0.88593 0.45454 0.39656 0.0
C733 C 0.83722 0.32377 0.43076 0.0
H734 H 0.81132 0.41055 0.36555 0.0
C735 C 0.88035 0.3487 0.44784 0.0
C736 C 0.89951 0.39521 0.43425 0.0
H737 H 0.82513 0.28666 0.43951 0.0
H738 H 0.89972 0.33049 0.46999 0.0
C739 C 0.87246 0.41833 0.40697 0.0
C740 C 0.66697 0.78441 0.42351 0.0
C741 C 0.64141 0.75302 0.39056 0.0
H742 H 0.6654 0.83823 0.47474 0.0
C743 C 0.59271 0.74413 0.39028 0.0
H744 H 0.70468 0.79245 0.42375 0.0
C745 C 0.57015 0.77023 0.41971 0.0
C746 C 0.59621 0.80626 0.44885 0.0
H747 H 0.5724 0.72115 0.36446 0.0
H748 H 0.53262 0.76539 0.41685 0.0
C749 C 0.64462 0.81137 0.45204 0.0
C750 C 0.16522 0.57391 0.30553 0.0
C751 C 0.15392 0.6167 0.29136 0.0
H752 H 0.15294 0.51928 0.35227 0.0
C753 C 0.11404 0.63144 0.3071 0.0
H754 H 0.19519 0.56132 0.29323 0.0
C755 C 0.08994 0.60753 0.3413 0.0
C756 C 0.10569 0.56886 0.35949 0.0
H757 H 0.10443 0.66428 0.29638 0.0
H758 H 0.06226 0.6221 0.35615 0.0
C759 C 0.14118 0.55009 0.33938 0.0
C760 C 0.33061 0.0894 0.32711 0.0
C761 C 0.35334 0.13623 0.31691 0.0
H762 H 0.3317 0.02879 0.36665 0.0
C763 C 0.39907 0.15404 0.33257 0.0
H764 H 0.29535 0.07467 0.31503 0.0
C765 C 0.42037 0.12721 0.361 0.0
C766 C 0.39565 0.08282 0.37546 0.0
H767 H 0.4176 0.18962 0.3244 0.0
H768 H 0.45479 0.14337 0.37444 0.0
C769 C 0.35147 0.06301 0.3565 0.0
C770 C 0.65065 0.87954 0.67113 0.0
C771 C 0.63298 0.83336 0.68587 0.0
H772 H 0.63729 0.93806 0.63463 0.0
C773 C 0.58506 0.81409 0.68178 0.0
H774 H 0.68738 0.89565 0.67526 0.0
C775 C 0.55617 0.83806 0.65785 0.0
C776 C 0.57513 0.88166 0.63833 0.0
H777 H 0.57073 0.77879 0.69377 0.0
H778 H 0.52021 0.82024 0.65127 0.0
C779 C 0.62178 0.90395 0.64826 0.0
C780 C 0.59197 0.13152 0.38005 0.0
C781 C 0.61716 0.11721 0.34539 0.0
H782 H 0.54572 0.10817 0.43134 0.0
C783 C 0.61087 0.06808 0.33207 0.0
H784 H 0.5965 0.16937 0.39056 0.0
C785 C 0.58276 0.03309 0.35584 0.0
C786 C 0.55942 0.04715 0.39205 0.0
H787 H 0.63026 0.05661 0.30528 0.0
H788 H 0.58154 -0.00489 0.34769 0.0
C789 C 0.56252 0.09661 0.40281 0.0
C790 C 0.89445 0.68733 0.31882 0.0
C791 C 0.84883 0.66139 0.30899 0.0
H792 H 0.95985 0.68812 0.35189 0.0
C793 C 0.83723 0.61242 0.3185 0.0
H794 H 0.90459 0.72511 0.31137 0.0
C795 C 0.86941 0.59075 0.34038 0.0
C796 C 0.91346 0.61806 0.35458 0.0
H797 H 0.80273 0.59126 0.31038 0.0
H798 H 0.85813 0.55356 0.34924 0.0
C799 C 0.92636 0.66599 0.34168 0.0
C800 C 0.343 0.85711 0.37066 0.0
C801 C 0.33538 0.80633 0.37131 0.0
H802 H 0.36387 0.92428 0.40718 0.0
C803 C 0.33087 0.78427 0.41159 0.0
H804 H 0.3439 0.87513 0.33998 0.0
C805 C 0.34157 0.8127 0.45046 0.0
C806 C 0.35761 0.86319 0.44902 0.0
H807 H 0.32291 0.7452 0.41293 0.0
H808 H 0.34317 0.79465 0.48091 0.0
C809 C 0.35325 0.88543 0.40938 0.0
C810 C 0.24994 0.38611 0.39029 0.0
C811 C 0.24213 0.33542 0.3888 0.0
H812 H 0.22649 0.44915 0.41439 0.0
C813 C 0.21042 0.30983 0.41743 0.0
H814 H 0.2734 0.40646 0.3678 0.0
C815 C 0.18249 0.33377 0.4428 0.0
C816 C 0.18648 0.3839 0.44062 0.0
H817 H 0.20346 0.27058 0.41638 0.0
H818 H 0.15571 0.31263 0.46181 0.0
C819 C 0.22245 0.41032 0.41641 0.0
C820 C 0.27968 0.16008 0.59768 0.0
C821 C 0.30365 0.2065 0.61256 0.0
H822 H 0.28386 0.0928 0.56426 0.0
C823 C 0.3496 0.22271 0.59997 0.0
H824 H 0.24431 0.14651 0.60708 0.0
C825 C 0.3722 0.19215 0.5756 0.0
C826 C 0.34959 0.14435 0.56352 0.0
H827 H 0.36892 0.25835 0.61079 0.0
H828 H 0.4082 0.20554 0.56794 0.0
C829 C 0.30254 0.12913 0.57357 0.0
C830 C 0.8849 0.44753 0.65316 0.0
C831 C 0.87591 0.39697 0.64819 0.0
H832 H 0.91987 0.51361 0.62682 0.0
C833 C 0.9042 0.37403 0.6216 0.0
H834 H 0.86379 0.46577 0.67394 0.0
C835 C 0.93724 0.4013 0.59596 0.0
C836 C 0.94142 0.45149 0.59626 0.0
H837 H 0.89843 0.33487 0.61826 0.0
H838 H 0.95503 0.38283 0.57206 0.0
C839 C 0.91736 0.47478 0.62682 0.0
C840 C 0.19359 0.61606 0.60137 0.0
C841 C 0.20104 0.66364 0.6188 0.0
H842 H 0.15423 0.56358 0.55582 0.0
C843 C 0.17952 0.69725 0.59788 0.0
H844 H 0.20909 0.58933 0.61733 0.0
C845 C 0.14693 0.68232 0.56329 0.0
C846 C 0.13529 0.63337 0.54889 0.0
H847 H 0.18439 0.7342 0.61122 0.0
H848 H 0.1282 0.70835 0.5505 0.0
C849 C 0.16135 0.60123 0.56638 0.0
loop_
_geom_bond_atom_site_label_1
_geom_bond_atom_site_label_2
_geom_bond_distance
_geom_bond_site_symmetry_2
_ccdc_geom_bond_type
O0 Zn1 1.953 . S
O0 C16 1.225 . S
Zn1 O0 1.953 . S
Zn1 O2 1.949 . S
Zn1 O8 1.919 . S
Zn1 O13 1.924 . S
O2 Zn1 1.949 . S
O2 Zn3 1.923 . S
O2 Zn4 1.950 . S
O2 Zn5 1.945 . S
Zn3 O2 1.923 . S
Zn3 O6 1.933 . S
Zn3 O9 1.941 . S
Zn3 O10 1.965 . S
Zn4 O2 1.950 . S
Zn4 O11 1.938 . S
Zn4 O12 1.906 . S
Zn4 O22 1.953 . S
Zn5 O2 1.945 . S
Zn5 O7 1.932 . S
Zn5 O14 1.977 . S
Zn5 O15 1.910 . S
O6 Zn3 1.933 . S
O6 C17 1.226 . S
O7 Zn5 1.932 . S
O7 C17 1.307 . S
O8 Zn1 1.919 . S
O8 C19 1.253 . S
O9 Zn3 1.941 . S
O9 C19 1.283 . S
O10 Zn3 1.965 . S
O10 C18 1.303 . S
O11 Zn4 1.938 . S
O11 C18 1.247 . S
O12 Zn4 1.906 . S
O12 C20 1.304 . S
O13 Zn1 1.924 . S
O13 C21 1.311 . S
O14 Zn5 1.977 . S
O14 C20 1.272 . S
O15 Zn5 1.910 . S
O15 C21 1.231 . S
C16 O0 1.225 . S
C16 O22 1.298 . S
C17 O6 1.226 . S
C17 O7 1.307 . S
C18 O10 1.303 . S
C18 O11 1.247 . S
C19 O8 1.253 . S
C19 O9 1.283 . S
C20 O12 1.304 . S
C20 O14 1.272 . S
C21 O13 1.311 . S
C21 O15 1.231 . S
O22 Zn4 1.953 . S
O22 C16 1.298 . S
O23 Zn24 1.953 . S
O23 C39 1.225 . S
Zn24 O23 1.953 . S
Zn24 O25 1.949 . S
Zn24 O31 1.919 . S
Zn24 O36 1.924 . S
O25 Zn24 1.949 . S
O25 Zn26 1.923 . S
O25 Zn27 1.950 . S
O25 Zn28 1.945 . S
Zn26 O25 1.923 . S
Zn26 O29 1.933 . S
Zn26 O32 1.941 . S
Zn26 O33 1.965 . S
Zn27 O25 1.950 . S
Zn27 O34 1.938 . S
Zn27 O35 1.906 . S
Zn27 O45 1.953 . S
Zn28 O25 1.945 . S
Zn28 O30 1.932 . S
Zn28 O37 1.977 . S
Zn28 O38 1.910 . S
O29 Zn26 1.933 . S
O29 C40 1.226 . S
O30 Zn28 1.932 . S
O30 C40 1.307 . S
O31 Zn24 1.919 . S
O31 C42 1.253 . S
O32 Zn26 1.941 . S
O32 C42 1.283 . S
O33 Zn26 1.965 . S
O33 C41 1.303 . S
O34 Zn27 1.938 . S
O34 C41 1.247 . S
O35 Zn27 1.906 . S
O35 C43 1.304 . S
O36 Zn24 1.924 . S
O36 C44 1.311 . S
O37 Zn28 1.977 . S
O37 C43 1.272 . S
O38 Zn28 1.910 . S
O38 C44 1.231 . S
C39 O23 1.225 . S
C39 O45 1.298 . S
C40 O29 1.226 . S
C40 O30 1.307 . S
C41 O33 1.303 . S
C41 O34 1.247 . S
C42 O31 1.253 . S
C42 O32 1.283 . S
C43 O35 1.304 . S
C43 O37 1.272 . S
C44 O36 1.311 . S
C44 O38 1.231 . S
O45 Zn27 1.953 . S
O45 C39 1.298 . S
O46 Zn47 1.953 . S
O46 C62 1.225 . S
Zn47 O46 1.953 . S
Zn47 O48 1.949 . S
Zn47 O54 1.919 . S
Zn47 O59 1.924 . S
O48 Zn47 1.949 . S
O48 Zn49 1.923 . S
O48 Zn50 1.950 . S
O48 Zn51 1.945 . S
Zn49 O48 1.923 . S
Zn49 O52 1.933 . S
Zn49 O55 1.941 . S
Zn49 O56 1.965 . S
Zn50 O48 1.950 . S
Zn50 O57 1.938 . S
Zn50 O58 1.906 . S
Zn50 O68 1.953 . S
Zn51 O48 1.945 . S
Zn51 O53 1.932 . S
Zn51 O60 1.977 . S
Zn51 O61 1.910 . S
O52 Zn49 1.933 . S
O52 C63 1.226 . S
O53 Zn51 1.932 . S
O53 C63 1.307 . S
O54 Zn47 1.919 . S
O54 C65 1.253 . S
O55 Zn49 1.941 . S
O55 C65 1.283 . S
O56 Zn49 1.965 . S
O56 C64 1.303 . S
O57 Zn50 1.938 . S
O57 C64 1.247 . S
O58 Zn50 1.906 . S
O58 C66 1.304 . S
O59 Zn47 1.924 . S
O59 C67 1.311 . S
O60 Zn51 1.977 . S
O60 C66 1.272 . S
O61 Zn51 1.910 . S
O61 C67 1.231 . S
C62 O46 1.225 . S
C62 O68 1.298 . S
C63 O52 1.226 . S
C63 O53 1.307 . S
C64 O56 1.303 . S
C64 O57 1.247 . S
C65 O54 1.253 . S
C65 O55 1.283 . S
C66 O58 1.304 . S
C66 O60 1.272 . S
C67 O59 1.311 . S
C67 O61 1.231 . S
O68 Zn50 1.953 . S
O68 C62 1.298 . S
O69 Zn70 1.953 . S
O69 C85 1.225 . S
Zn70 O69 1.953 . S
Zn70 O71 1.949 . S
Zn70 O77 1.919 . S
Zn70 O82 1.924 . S
O71 Zn70 1.949 . S
O71 Zn72 1.923 . S
O71 Zn73 1.950 . S
O71 Zn74 1.945 . S
Zn72 O71 1.923 . S
Zn72 O75 1.933 . S
Zn72 O78 1.941 . S
Zn72 O79 1.965 . S
Zn73 O71 1.950 . S
Zn73 O80 1.938 . S
Zn73 O81 1.906 . S
Zn73 O91 1.953 . S
Zn74 O71 1.945 . S
Zn74 O76 1.932 . S
Zn74 O83 1.977 . S
Zn74 O84 1.910 . S
O75 Zn72 1.933 . S
O75 C86 1.226 . S
O76 Zn74 1.932 . S
O76 C86 1.307 . S
O77 Zn70 1.919 . S
O77 C88 1.253 . S
O78 Zn72 1.941 . S
O78 C88 1.283 . S
O79 Zn72 1.965 . S
O79 C87 1.303 . S
O80 Zn73 1.938 . S
O80 C87 1.247 . S
O81 Zn73 1.906 . S
O81 C89 1.304 . S
O82 Zn70 1.924 . S
O82 C90 1.311 . S
O83 Zn74 1.977 . S
O83 C89 1.272 . S
O84 Zn74 1.910 . S
O84 C90 1.231 . S
C85 O69 1.225 . S
C85 O91 1.298 . S
C86 O75 1.226 . S
C86 O76 1.307 . S
C87 O79 1.303 . S
C87 O80 1.247 . S
C88 O77 1.253 . S
C88 O78 1.283 . S
C89 O81 1.304 . S
C89 O83 1.272 . S
C90 O82 1.311 . S
C90 O84 1.231 . S
O91 Zn73 1.953 . S
O91 C85 1.298 . S
O92 Zn93 1.953 . S
O92 C108 1.225 . S
Zn93 O92 1.953 . S
Zn93 O94 1.949 . S
Zn93 O100 1.919 . S
Zn93 O105 1.924 . S
O94 Zn93 1.949 . S
O94 Zn95 1.923 . S
O94 Zn96 1.950 . S
O94 Zn97 1.945 . S
Zn95 O94 1.923 . S
Zn95 O98 1.933 . S
Zn95 O101 1.941 . S
Zn95 O102 1.965 . S
Zn96 O94 1.950 . S
Zn96 O103 1.938 . S
Zn96 O104 1.906 . S
Zn96 O114 1.953 . S
Zn97 O94 1.945 . S
Zn97 O99 1.932 . S
Zn97 O106 1.977 . S
Zn97 O107 1.910 . S
O98 Zn95 1.933 . S
O98 C109 1.226 . S
O99 Zn97 1.932 . S
O99 C109 1.307 . S
O100 Zn93 1.919 . S
O100 C111 1.253 . S
O101 Zn95 1.941 . S
O101 C111 1.283 . S
O102 Zn95 1.965 . S
O102 C110 1.303 . S
O103 Zn96 1.938 . S
O103 C110 1.247 . S
O104 Zn96 1.906 . S
O104 C112 1.304 . S
O105 Zn93 1.924 . S
O105 C113 1.311 . S
O106 Zn97 1.977 . S
O106 C112 1.272 . S
O107 Zn97 1.910 . S
O107 C113 1.231 . S
C108 O92 1.225 . S
C108 O114 1.298 . S
C109 O98 1.226 . S
C109 O99 1.307 . S
C110 O102 1.303 . S
C110 O103 1.247 . S
C111 O100 1.253 . S
C111 O101 1.283 . S
C112 O104 1.304 . S
C112 O106 1.272 . S
C113 O105 1.311 . S
C113 O107 1.231 . S
O114 Zn96 1.953 . S
O114 C108 1.298 . S
O115 Zn116 1.953 . S
O115 C131 1.225 . S
Zn116 O115 1.953 . S
Zn116 O117 1.949 . S
Zn116 O123 1.919 . S
Zn116 O128 1.924 . S
O117 Zn116 1.949 . S
O117 Zn118 1.923 . S
O117 Zn119 1.950 . S
O117 Zn120 1.945 . S
Zn118 O117 1.923 . S
Zn118 O121 1.933 . S
Zn118 O124 1.941 . S
Zn118 O125 1.965 . S
Zn119 O117 1.950 . S
Zn119 O126 1.938 . S
Zn119 O127 1.906 . S
Zn119 O137 1.953 . S
Zn120 O117 1.945 . S
Zn120 O122 1.932 . S
Zn120 O129 1.977 . S
Zn120 O130 1.910 . S
O121 Zn118 1.933 . S
O121 C132 1.226 . S
O122 Zn120 1.932 . S
O122 C132 1.307 . S
O123 Zn116 1.919 . S
O123 C134 1.253 . S
O124 Zn118 1.941 . S
O124 C134 1.283 . S
O125 Zn118 1.965 . S
O125 C133 1.303 . S
O126 Zn119 1.938 . S
O126 C133 1.247 . S
O127 Zn119 1.906 . S
O127 C135 1.304 . S
O128 Zn116 1.924 . S
O128 C136 1.311 . S
O129 Zn120 1.977 . S
O129 C135 1.272 . S
O130 Zn120 1.910 . S
O130 C136 1.231 . S
C131 O115 1.225 . S
C131 O137 1.298 . S
C132 O121 1.226 . S
C132 O122 1.307 . S
C133 O125 1.303 . S
C133 O126 1.247 . S
C134 O123 1.253 . S
C134 O124 1.283 . S
C135 O127 1.304 . S
C135 O129 1.272 . S
C136 O128 1.311 . S
C136 O130 1.231 . S
O137 Zn119 1.953 . S
O137 C131 1.298 . S
O138 Zn139 1.953 . S
O138 C154 1.225 . S
Zn139 O138 1.953 . S
Zn139 O140 1.949 . S
Zn139 O146 1.919 . S
Zn139 O151 1.924 . S
O140 Zn139 1.949 . S
O140 Zn141 1.923 . S
O140 Zn142 1.950 . S
O140 Zn143 1.945 . S
Zn141 O140 1.923 . S
Zn141 O144 1.933 . S
Zn141 O147 1.941 . S
Zn141 O148 1.965 . S
Zn142 O140 1.950 . S
Zn142 O149 1.938 . S
Zn142 O150 1.906 . S
Zn142 O160 1.953 . S
Zn143 O140 1.945 . S
Zn143 O145 1.932 . S
Zn143 O152 1.977 . S
Zn143 O153 1.910 . S
O144 Zn141 1.933 . S
O144 C155 1.226 . S
O145 Zn143 1.932 . S
O145 C155 1.307 . S
O146 Zn139 1.919 . S
O146 C157 1.253 . S
O147 Zn141 1.941 . S
O147 C157 1.283 . S
O148 Zn141 1.965 . S
O148 C156 1.303 . S
O149 Zn142 1.938 . S
O149 C156 1.247 . S
O150 Zn142 1.906 . S
O150 C158 1.304 . S
O151 Zn139 1.924 . S
O151 C159 1.311 . S
O152 Zn143 1.977 . S
O152 C158 1.272 . S
O153 Zn143 1.910 . S
O153 C159 1.231 . S
C154 O138 1.225 . S
C154 O160 1.298 . S
C155 O144 1.226 . S
C155 O145 1.307 . S
C156 O148 1.303 . S
C156 O149 1.247 . S
C157 O146 1.253 . S
C157 O147 1.283 . S
C158 O150 1.304 . S
C158 O152 1.272 . S
C159 O151 1.311 . S
C159 O153 1.231 . S
O160 Zn142 1.953 . S
O160 C154 1.298 . S
O161 Zn162 1.953 . S
O161 C177 1.225 . S
Zn162 O161 1.953 . S
Zn162 O163 1.949 . S
Zn162 O169 1.919 . S
Zn162 O174 1.924 . S
O163 Zn162 1.949 . S
O163 Zn164 1.923 . S
O163 Zn165 1.950 . S
O163 Zn166 1.945 . S
Zn164 O163 1.923 . S
Zn164 O167 1.933 . S
Zn164 O170 1.941 . S
Zn164 O171 1.965 . S
Zn165 O163 1.950 . S
Zn165 O172 1.938 . S
Zn165 O173 1.906 . S
Zn165 O183 1.953 . S
Zn166 O163 1.945 . S
Zn166 O168 1.932 . S
Zn166 O175 1.977 . S
Zn166 O176 1.910 . S
O167 Zn164 1.933 . S
O167 C178 1.226 . S
O168 Zn166 1.932 . S
O168 C178 1.307 . S
O169 Zn162 1.919 . S
O169 C180 1.253 . S
O170 Zn164 1.941 . S
O170 C180 1.283 . S
O171 Zn164 1.965 . S
O171 C179 1.303 . S
O172 Zn165 1.938 . S
O172 C179 1.247 . S
O173 Zn165 1.906 . S
O173 C181 1.304 . S
O174 Zn162 1.924 . S
O174 C182 1.311 . S
O175 Zn166 1.977 . S
O175 C181 1.272 . S
O176 Zn166 1.910 . S
O176 C182 1.231 . S
C177 O161 1.225 . S
C177 O183 1.298 . S
C178 O167 1.226 . S
C178 O168 1.307 . S
C179 O171 1.303 . S
C179 O172 1.247 . S
C180 O169 1.253 . S
C180 O170 1.283 . S
C181 O173 1.304 . S
C181 O175 1.272 . S
C182 O174 1.311 . S
C182 O176 1.231 . S
O183 Zn165 1.953 . S
O183 C177 1.298 . S
C184 O196 1.241 . S
C184 O197 1.280 . S
C185 O198 1.277 . S
C185 O199 1.245 . S
C186 O210 1.247 . S
C186 O212 1.289 . S
Mg187 O188 1.926 . S
Mg187 O197 1.984 . S
Mg187 O199 1.988 . S
Mg187 O200 2.061 1_655 S
O188 Mg187 1.926 . S
O188 Mg189 1.986 . S
O188 Mg190 1.917 1_655 S
Mg189 O188 1.986 . S
Mg189 O196 2.042 . S
Mg189 O198 2.041 . S
Mg189 O204 2.038 1_545 S
Mg189 O212 2.238 1_545 S
Mg190 O188 1.917 1_455 S
Mg190 O191 1.917 1_545 S
Mg190 O201 2.106 . S
Mg190 O203 2.079 1_445 S
Mg190 O212 2.106 1_445 S
Mg190 O213 2.079 . S
O191 Mg190 1.917 1_565 S
O191 Mg192 1.926 . S
O191 Mg193 1.986 . S
Mg192 O191 1.926 . S
Mg192 O206 1.984 . S
Mg192 O209 1.988 . S
Mg192 O210 2.061 1_455 S
Mg193 O191 1.986 . S
Mg193 O201 2.238 1_565 S
Mg193 O205 2.042 . S
Mg193 O207 2.041 . S
Mg193 O214 2.038 1_565 S
C194 O200 1.247 . S
C194 O201 1.289 . S
C195 O213 1.245 . S
C195 O214 1.274 . S
O196 C184 1.241 . S
O196 Mg189 2.042 . S
O197 C184 1.280 . S
O197 Mg187 1.984 . S
O198 C185 1.277 . S
O198 Mg189 2.041 . S
O199 C185 1.245 . S
O199 Mg187 1.988 . S
O200 Mg187 2.061 1_455 S
O200 C194 1.247 . S
O201 Mg190 2.106 . S
O201 Mg193 2.238 1_545 S
O201 C194 1.289 . S
C202 O203 1.245 . S
C202 O204 1.274 . S
O203 Mg190 2.079 1_665 S
O203 C202 1.245 . S
O204 Mg189 2.038 1_565 S
O204 C202 1.274 . S
O205 Mg193 2.042 . S
O205 C208 1.241 . S
O206 Mg192 1.984 . S
O206 C208 1.280 . S
O207 Mg193 2.041 . S
O207 C211 1.277 . S
C208 O205 1.241 . S
C208 O206 1.280 . S
O209 Mg192 1.988 . S
O209 C211 1.245 . S
O210 C186 1.247 . S
O210 Mg192 2.061 1_655 S
C211 O207 1.277 . S
C211 O209 1.245 . S
O212 C186 1.289 . S
O212 Mg189 2.238 1_565 S
O212 Mg190 2.106 1_665 S
O213 Mg190 2.079 . S
O213 C195 1.245 . S
O214 Mg193 2.038 1_545 S
O214 C195 1.274 . S
C215 O227 1.241 . S
C215 O228 1.280 . S
C216 O229 1.277 . S
C216 O230 1.245 . S
C217 O241 1.247 . S
C217 O243 1.289 . S
Mg218 O219 1.926 . S
Mg218 O228 1.984 . S
Mg218 O230 1.988 1_554 S
Mg218 O231 2.061 . S
O219 Mg218 1.926 . S
O219 Mg220 1.986 . S
O219 Mg221 1.917 . S
Mg220 O219 1.986 . S
Mg220 O227 2.042 . S
Mg220 O229 2.041 1_554 S
Mg220 O235 2.038 1_545 S
Mg220 O243 2.238 1_544 S
Mg221 O219 1.917 . S
Mg221 O222 1.917 1_544 S
Mg221 O232 2.106 . S
Mg221 O234 2.079 1_545 S
Mg221 O243 2.106 1_544 S
Mg221 O244 2.079 1_554 S
O222 Mg221 1.917 1_566 S
O222 Mg223 1.926 . S
O222 Mg224 1.986 1_556 S
Mg223 O222 1.926 . S
Mg223 O237 1.984 . S
Mg223 O240 1.988 1_556 S
Mg223 O241 2.061 . S
Mg224 O222 1.986 1_554 S
Mg224 O232 2.238 1_565 S
Mg224 O236 2.042 1_554 S
Mg224 O238 2.041 . S
Mg224 O245 2.038 1_564 S
C225 O231 1.247 . S
C225 O232 1.289 . S
C226 O244 1.245 . S
C226 O245 1.274 . S
O227 C215 1.241 . S
O227 Mg220 2.042 . S
O228 C215 1.280 . S
O228 Mg218 1.984 . S
O229 C216 1.277 . S
O229 Mg220 2.041 1_556 S
O230 C216 1.245 . S
O230 Mg218 1.988 1_556 S
O231 Mg218 2.061 . S
O231 C225 1.247 . S
O232 Mg221 2.106 . S
O232 Mg224 2.238 1_545 S
O232 C225 1.289 . S
C233 O234 1.245 . S
C233 O235 1.274 . S
O234 Mg221 2.079 1_565 S
O234 C233 1.245 . S
O235 Mg220 2.038 1_565 S
O235 C233 1.274 . S
O236 Mg224 2.042 1_556 S
O236 C239 1.241 . S
O237 Mg223 1.984 . S
O237 C239 1.280 . S
O238 Mg224 2.041 . S
O238 C242 1.277 . S
C239 O236 1.241 . S
C239 O237 1.280 . S
O240 Mg223 1.988 1_554 S
O240 C242 1.245 . S
O241 C217 1.247 . S
O241 Mg223 2.061 . S
C242 O238 1.277 . S
C242 O240 1.245 . S
O243 C217 1.289 . S
O243 Mg220 2.238 1_566 S
O243 Mg221 2.106 1_566 S
O244 Mg221 2.079 1_556 S
O244 C226 1.245 . S
O245 Mg224 2.038 1_546 S
O245 C226 1.274 . S
C246 O258 1.241 . S
C246 O259 1.280 . S
C247 O260 1.277 . S
C247 O261 1.245 . S
C248 O272 1.247 . S
C248 O274 1.289 . S
Mg249 O250 1.926 . S
Mg249 O259 1.984 . S
Mg249 O261 1.988 1_554 S
Mg249 O262 2.061 1_655 S
O250 Mg249 1.926 . S
O250 Mg251 1.986 . S
O250 Mg252 1.917 1_655 S
Mg251 O250 1.986 . S
Mg251 O258 2.042 . S
Mg251 O260 2.041 1_554 S
Mg251 O266 2.038 . S
Mg251 O274 2.238 1_554 S
Mg252 O250 1.917 1_455 S
Mg252 O253 1.917 1_554 S
Mg252 O263 2.106 . S
Mg252 O265 2.079 1_455 S
Mg252 O274 2.106 1_454 S
Mg252 O275 2.079 1_554 S
O253 Mg252 1.917 1_556 S
O253 Mg254 1.926 . S
O253 Mg255 1.986 1_556 S
Mg254 O253 1.926 . S
Mg254 O268 1.984 . S
Mg254 O271 1.988 1_556 S
Mg254 O272 2.061 1_455 S
Mg255 O253 1.986 1_554 S
Mg255 O263 2.238 . S
Mg255 O267 2.042 1_554 S
Mg255 O269 2.041 . S
Mg255 O276 2.038 1_554 S
C256 O262 1.247 . S
C256 O263 1.289 . S
C257 O275 1.245 . S
C257 O276 1.274 . S
O258 C246 1.241 . S
O258 Mg251 2.042 . S
O259 C246 1.280 . S
O259 Mg249 1.984 . S
O260 C247 1.277 . S
O260 Mg251 2.041 1_556 S
O261 C247 1.245 . S
O261 Mg249 1.988 1_556 S
O262 Mg249 2.061 1_455 S
O262 C256 1.247 . S
O263 Mg252 2.106 . S
O263 Mg255 2.238 . S
O263 C256 1.289 . S
C264 O265 1.245 . S
C264 O266 1.274 . S
O265 Mg252 2.079 1_655 S
O265 C264 1.245 . S
O266 Mg251 2.038 . S
O266 C264 1.274 . S
O267 Mg255 2.042 1_556 S
O267 C270 1.241 . S
O268 Mg254 1.984 . S
O268 C270 1.280 . S
O269 Mg255 2.041 . S
O269 C273 1.277 . S
C270 O267 1.241 . S
C270 O268 1.280 . S
O271 Mg254 1.988 1_554 S
O271 C273 1.245 . S
O272 C248 1.247 . S
O272 Mg254 2.061 1_655 S
C273 O269 1.277 . S
C273 O271 1.245 . S
O274 C248 1.289 . S
O274 Mg251 2.238 1_556 S
O274 Mg252 2.106 1_656 S
O275 Mg252 2.079 1_556 S
O275 C257 1.245 . S
O276 Mg255 2.038 1_556 S
O276 C257 1.274 . S
C277 O289 1.241 . S
C277 O290 1.280 . S
C278 O291 1.277 . S
C278 O292 1.245 . S
C279 O303 1.247 . S
C279 O305 1.289 . S
Mg280 O281 1.926 . S
Mg280 O290 1.984 . S
Mg280 O292 1.988 1_554 S
Mg280 O293 2.061 . S
O281 Mg280 1.926 . S
O281 Mg282 1.986 . S
O281 Mg283 1.917 . S
Mg282 O281 1.986 . S
Mg282 O289 2.042 . S
Mg282 O291 2.041 1_554 S
Mg282 O297 2.038 . S
Mg282 O305 2.238 1_554 S
Mg283 O281 1.917 . S
Mg283 O284 1.917 1_554 S
Mg283 O294 2.106 . S
Mg283 O296 2.079 . S
Mg283 O305 2.106 1_554 S
Mg283 O306 2.079 1_554 S
O284 Mg283 1.917 1_556 S
O284 Mg285 1.926 . S
O284 Mg286 1.986 1_556 S
Mg285 O284 1.926 . S
Mg285 O299 1.984 . S
Mg285 O302 1.988 1_556 S
Mg285 O303 2.061 . S
Mg286 O284 1.986 1_554 S
Mg286 O294 2.238 . S
Mg286 O298 2.042 1_554 S
Mg286 O300 2.041 . S
Mg286 O307 2.038 1_554 S
C287 O293 1.247 . S
C287 O294 1.289 . S
C288 O306 1.245 . S
C288 O307 1.274 . S
O289 C277 1.241 . S
O289 Mg282 2.042 . S
O290 C277 1.280 . S
O290 Mg280 1.984 . S
O291 C278 1.277 . S
O291 Mg282 2.041 1_556 S
O292 C278 1.245 . S
O292 Mg280 1.988 1_556 S
O293 Mg280 2.061 . S
O293 C287 1.247 . S
O294 Mg283 2.106 . S
O294 Mg286 2.238 . S
O294 C287 1.289 . S
C295 O296 1.245 . S
C295 O297 1.274 . S
O296 Mg283 2.079 . S
O296 C295 1.245 . S
O297 Mg282 2.038 . S
O297 C295 1.274 . S
O298 Mg286 2.042 1_556 S
O298 C301 1.241 . S
O299 Mg285 1.984 . S
O299 C301 1.280 . S
O300 Mg286 2.041 . S
O300 C304 1.277 . S
C301 O298 1.241 . S
C301 O299 1.280 . S
O302 Mg285 1.988 1_554 S
O302 C304 1.245 . S
O303 C279 1.247 . S
O303 Mg285 2.061 . S
C304 O300 1.277 . S
C304 O302 1.245 . S
O305 C279 1.289 . S
O305 Mg282 2.238 1_556 S
O305 Mg283 2.106 1_556 S
O306 Mg283 2.079 1_556 S
O306 C288 1.245 . S
O307 Mg286 2.038 1_556 S
O307 C288 1.274 . S
C308 O320 1.241 . S
C308 O321 1.280 . S
C309 O322 1.277 . S
C309 O323 1.245 . S
C310 O334 1.247 . S
C310 O336 1.289 . S
Mg311 O312 1.926 . S
Mg311 O321 1.984 . S
Mg311 O323 1.988 . S
Mg311 O324 2.061 1_655 S
O312 Mg311 1.926 . S
O312 Mg313 1.986 . S
O312 Mg314 1.917 1_655 S
Mg313 O312 1.986 . S
Mg313 O320 2.042 . S
Mg313 O322 2.041 . S
Mg313 O328 2.038 . S
Mg313 O336 2.238 . S
Mg314 O312 1.917 1_455 S
Mg314 O315 1.917 . S
Mg314 O325 2.106 . S
Mg314 O327 2.079 1_455 S
Mg314 O336 2.106 1_455 S
Mg314 O337 2.079 . S
O315 Mg314 1.917 . S
O315 Mg316 1.926 . S
O315 Mg317 1.986 . S
Mg316 O315 1.926 . S
Mg316 O330 1.984 . S
Mg316 O333 1.988 . S
Mg316 O334 2.061 1_455 S
Mg317 O315 1.986 . S
Mg317 O325 2.238 . S
Mg317 O329 2.042 . S
Mg317 O331 2.041 . S
Mg317 O338 2.038 . S
C318 O324 1.247 . S
C318 O325 1.289 . S
C319 O337 1.245 . S
C319 O338 1.274 . S
O320 C308 1.241 . S
O320 Mg313 2.042 . S
O321 C308 1.280 . S
O321 Mg311 1.984 . S
O322 C309 1.277 . S
O322 Mg313 2.041 . S
O323 C309 1.245 . S
O323 Mg311 1.988 . S
O324 Mg311 2.061 1_455 S
O324 C318 1.247 . S
O325 Mg314 2.106 . S
O325 Mg317 2.238 . S
O325 C318 1.289 . S
C326 O327 1.245 . S
C326 O328 1.274 . S
O327 Mg314 2.079 1_655 S
O327 C326 1.245 . S
O328 Mg313 2.038 . S
O328 C326 1.274 . S
O329 Mg317 2.042 . S
O329 C332 1.241 . S
O330 Mg316 1.984 . S
O330 C332 1.280 . S
O331 Mg317 2.041 . S
O331 C335 1.277 . S
C332 O329 1.241 . S
C332 O330 1.280 . S
O333 Mg316 1.988 . S
O333 C335 1.245 . S
O334 C310 1.247 . S
O334 Mg316 2.061 1_655 S
C335 O331 1.277 . S
C335 O333 1.245 . S
O336 C310 1.289 . S
O336 Mg313 2.238 . S
O336 Mg314 2.106 1_655 S
O337 Mg314 2.079 . S
O337 C319 1.245 . S
O338 Mg317 2.038 . S
O338 C319 1.274 . S
C339 O351 1.241 . S
C339 O352 1.280 . S
C340 O353 1.277 . S
C340 O354 1.245 . S
C341 O365 1.247 . S
C341 O367 1.289 . S
Mg342 O343 1.926 . S
Mg342 O352 1.984 . S
Mg342 O354 1.988 . S
Mg342 O355 2.061 . S
O343 Mg342 1.926 . S
O343 Mg344 1.986 . S
O343 Mg345 1.917 . S
Mg344 O343 1.986 . S
Mg344 O351 2.042 . S
Mg344 O353 2.041 . S
Mg344 O359 2.038 1_545 S
Mg344 O367 2.238 1_545 S
Mg345 O343 1.917 . S
Mg345 O346 1.917 1_545 S
Mg345 O356 2.106 . S
Mg345 O358 2.079 1_545 S
Mg345 O367 2.106 1_545 S
Mg345 O368 2.079 . S
O346 Mg345 1.917 1_565 S
O346 Mg347 1.926 . S
O346 Mg348 1.986 1_565 S
Mg347 O346 1.926 . S
Mg347 O361 1.984 . S
Mg347 O364 1.988 . S
Mg347 O365 2.061 . S
Mg348 O346 1.986 1_545 S
Mg348 O356 2.238 . S
Mg348 O360 2.042 1_545 S
Mg348 O362 2.041 1_545 S
Mg348 O369 2.038 . S
C349 O355 1.247 . S
C349 O356 1.289 . S
C350 O368 1.245 . S
C350 O369 1.274 . S
O351 C339 1.241 . S
O351 Mg344 2.042 . S
O352 C339 1.280 . S
O352 Mg342 1.984 . S
O353 C340 1.277 . S
O353 Mg344 2.041 . S
O354 C340 1.245 . S
O354 Mg342 1.988 . S
O355 Mg342 2.061 . S
O355 C349 1.247 . S
O356 Mg345 2.106 . S
O356 Mg348 2.238 . S
O356 C349 1.289 . S
C357 O358 1.245 . S
C357 O359 1.274 . S
O358 Mg345 2.079 1_565 S
O358 C357 1.245 . S
O359 Mg344 2.038 1_565 S
O359 C357 1.274 . S
O360 Mg348 2.042 1_565 S
O360 C363 1.241 . S
O361 Mg347 1.984 . S
O361 C363 1.280 . S
O362 Mg348 2.041 1_565 S
O362 C366 1.277 . S
C363 O360 1.241 . S
C363 O361 1.280 . S
O364 Mg347 1.988 . S
O364 C366 1.245 . S
O365 C341 1.247 . S
O365 Mg347 2.061 . S
C366 O362 1.277 . S
C366 O364 1.245 . S
O367 C341 1.289 . S
O367 Mg344 2.238 1_565 S
O367 Mg345 2.106 1_565 S
O368 Mg345 2.079 . S
O368 C350 1.245 . S
O369 Mg348 2.038 . S
O369 C350 1.274 . S
C370 C371 1.387 . S
C370 H374 0.950 . S
C370 C379 1.390 . S
C371 C370 1.387 . S
C371 C373 1.387 . S
H372 C379 0.950 . S
C373 C371 1.387 . S
C373 C375 1.390 . S
C373 H377 0.950 . S
H374 C370 0.950 . S
C375 C373 1.390 . S
C375 C376 1.387 . S
C375 H378 0.950 . S
C376 C375 1.387 . S
C376 C379 1.387 . S
H377 C373 0.950 . S
H378 C375 0.950 . S
C379 C370 1.390 . S
C379 H372 0.950 . S
C379 C376 1.387 . S
C380 C381 1.387 . S
C380 H384 0.950 . S
C380 C389 1.390 . S
C381 C380 1.387 . S
C381 C383 1.387 . S
H382 C389 0.950 . S
C383 C381 1.387 . S
C383 C385 1.390 . S
C383 H387 0.950 . S
H384 C380 0.950 . S
C385 C383 1.390 . S
C385 C386 1.387 . S
C385 H388 0.950 . S
C386 C385 1.387 . S
C386 C389 1.387 . S
H387 C383 0.950 . S
H388 C385 0.950 . S
C389 C380 1.390 . S
C389 H382 0.950 . S
C389 C386 1.387 . S
C390 C391 1.387 . S
C390 H394 0.950 . S
C390 C399 1.390 . S
C391 C390 1.387 . S
C391 C393 1.387 . S
H392 C399 0.950 . S
C393 C391 1.387 . S
C393 C395 1.390 . S
C393 H397 0.950 . S
H394 C390 0.950 . S
C395 C393 1.390 . S
C395 C396 1.387 . S
C395 H398 0.950 . S
C396 C395 1.387 . S
C396 C399 1.387 . S
H397 C393 0.950 . S
H398 C395 0.950 . S
C399 C390 1.390 . S
C399 H392 0.950 . S
C399 C396 1.387 . S
C400 C401 1.387 . S
C400 H404 0.950 . S
C400 C409 1.390 . S
C401 C400 1.387 . S
C401 C403 1.387 . S
H402 C409 0.950 . S
C403 C401 1.387 . S
C403 C405 1.390 . S
C403 H407 0.950 . S
H404 C400 0.950 . S
C405 C403 1.390 . S
C405 C406 1.387 . S
C405 H408 0.950 . S
C406 C405 1.387 . S
C406 C409 1.387 . S
H407 C403 0.950 . S
H408 C405 0.950 . S
C409 C400 1.390 . S
C409 H402 0.950 . S
C409 C406 1.387 . S
C410 C411 1.387 . S
C410 H414 0.950 . S
C410 C419 1.390 . S
C411 C410 1.387 . S
C411 C413 1.387 . S
H412 C419 0.950 . S
C413 C411 1.387 . S
C413 C415 1.390 . S
C413 H417 0.950 . S
H414 C410 0.950 . S
C415 C413 1.390 . S
C415 C416 1.387 . S
C415 H418 0.950 . S
C416 C415 1.387 . S
C416 C419 1.387 . S
H417 C413 0.950 . S
H418 C415 0.950 . S
C419 C410 1.390 . S
C419 H412 0.950 . S
C419 C416 1.387 . S
C420 C421 1.387 . S
C420 H424 0.950 . S
C420 C429 1.390 . S
C421 C420 1.387 . S
C421 C423 1.387 . S
H422 C429 0.950 . S
C423 C421 1.387 . S
C423 C425 1.390 . S
C423 H427 0.950 . S
H424 C420 0.950 . S
C425 C423 1.390 . S
C425 C426 1.387 . S
C425 H428 0.950 . S
C426 C425 1.387 . S
C426 C429 1.387 . S
H427 C423 0.950 . S
H428 C425 0.950 . S
C429 C420 1.390 . S
C429 H422 0.950 . S
C429 C426 1.387 . S
C430 C431 1.387 . S
C430 H434 0.950 . S
C430 C439 1.390 . S
C431 C430 1.387 . S
C431 C433 1.387 . S
H432 C439 0.950 . S
C433 C431 1.387 . S
C433 C435 1.390 . S
C433 H437 0.950 . S
H434 C430 0.950 . S
C435 C433 1.390 . S
C435 C436 1.387 . S
C435 H438 0.950 . S
C436 C435 1.387 . S
C436 C439 1.387 . S
H437 C433 0.950 . S
H438 C435 0.950 . S
C439 C430 1.390 . S
C439 H432 0.950 . S
C439 C436 1.387 . S
C440 C441 1.387 . S
C440 H444 0.950 . S
C440 C449 1.390 . S
C441 C440 1.387 . S
C441 C443 1.387 . S
H442 C449 0.950 . S
C443 C441 1.387 . S
C443 C445 1.390 . S
C443 H447 0.950 . S
H444 C440 0.950 . S
C445 C443 1.390 . S
C445 C446 1.387 . S
C445 H448 0.950 . S
C446 C445 1.387 . S
C446 C449 1.387 . S
H447 C443 0.950 . S
H448 C445 0.950 . S
C449 C440 1.390 . S
C449 H442 0.950 . S
C449 C446 1.387 . S
C450 C451 1.387 . S
C450 H454 0.950 . S
C450 C459 1.390 . S
C451 C450 1.387 . S
C451 C453 1.387 . S
H452 C459 0.950 . S
C453 C451 1.387 . S
C453 C455 1.390 . S
C453 H457 0.950 . S
H454 C450 0.950 . S
C455 C453 1.390 . S
C455 C456 1.387 . S
C455 H458 0.950 . S
C456 C455 1.387 . S
C456 C459 1.387 . S
H457 C453 0.950 . S
H458 C455 0.950 . S
C459 C450 1.390 . S
C459 H452 0.950 . S
C459 C456 1.387 . S
C460 C461 1.387 . S
C460 H464 0.950 . S
C460 C469 1.390 . S
C461 C460 1.387 . S
C461 C463 1.387 . S
H462 C469 0.950 . S
C463 C461 1.387 . S
C463 C465 1.390 . S
C463 H467 0.950 . S
H464 C460 0.950 . S
C465 C463 1.390 . S
C465 C466 1.387 . S
C465 H468 0.950 . S
C466 C465 1.387 . S
C466 C469 1.387 . S
H467 C463 0.950 . S
H468 C465 0.950 . S
C469 C460 1.390 . S
C469 H462 0.950 . S
C469 C466 1.387 . S
C470 C471 1.387 . S
C470 H474 0.950 . S
C470 C479 1.390 . S
C471 C470 1.387 . S
C471 C473 1.387 . S
H472 C479 0.950 . S
C473 C471 1.387 . S
C473 C475 1.390 . S
C473 H477 0.950 . S
H474 C470 0.950 . S
C475 C473 1.390 . S
C475 C476 1.387 . S
C475 H478 0.950 . S
C476 C475 1.387 . S
C476 C479 1.387 . S
H477 C473 0.950 . S
H478 C475 0.950 . S
C479 C470 1.390 . S
C479 H472 0.950 . S
C479 C476 1.387 . S
C480 C481 1.387 . S
C480 H484 0.950 . S
C480 C489 1.390 . S
C481 C480 1.387 . S
C481 C483 1.387 . S
H482 C489 0.950 . S
C483 C481 1.387 . S
C483 C485 1.390 . S
C483 H487 0.950 . S
H484 C480 0.950 . S
C485 C483 1.390 . S
C485 C486 1.387 . S
C485 H488 0.950 . S
C486 C485 1.387 . S
C486 C489 1.387 . S
H487 C483 0.950 . S
H488 C485 0.950 . S
C489 C480 1.390 . S
C489 H482 0.950 . S
C489 C486 1.387 . S
C490 C491 1.387 . S
C490 H494 0.950 . S
C490 C499 1.390 . S
C491 C490 1.387 . S
C491 C493 1.387 . S
H492 C499 0.950 . S
C493 C491 1.387 . S
C493 C495 1.390 . S
C493 H497 0.950 . S
H494 C490 0.950 . S
C495 C493 1.390 . S
C495 C496 1.387 . S
C495 H498 0.950 . S
C496 C495 1.387 . S
C496 C499 1.387 . S
H497 C493 0.950 . S
H498 C495 0.950 . S
C499 C490 1.390 . S
C499 H492 0.950 . S
C499 C496 1.387 . S
C500 C501 1.387 . S
C500 H504 0.950 . S
C500 C509 1.390 . S
C501 C500 1.387 . S
C501 C503 1.387 . S
H502 C509 0.950 . S
C503 C501 1.387 . S
C503 C505 1.390 . S
C503 H507 0.950 . S
H504 C500 0.950 . S
C505 C503 1.390 . S
C505 C506 1.387 . S
C505 H508 0.950 . S
C506 C505 1.387 . S
C506 C509 1.387 . S
H507 C503 0.950 . S
H508 C505 0.950 . S
C509 C500 1.390 . S
C509 H502 0.950 . S
C509 C506 1.387 . S
C510 C511 1.387 . S
C510 H514 0.950 . S
C510 C519 1.390 . S
C511 C510 1.387 . S
C511 C513 1.387 . S
H512 C519 0.950 . S
C513 C511 1.387 . S
C513 C515 1.390 . S
C513 H517 0.950 . S
H514 C510 0.950 . S
C515 C513 1.390 . S
C515 C516 1.387 . S
C515 H518 0.950 . S
C516 C515 1.387 . S
C516 C519 1.387 . S
H517 C513 0.950 . S
H518 C515 0.950 . S
C519 C510 1.390 . S
C519 H512 0.950 . S
C519 C516 1.387 . S
C520 C521 1.387 . S
C520 H524 0.950 . S
C520 C529 1.390 . S
C521 C520 1.387 . S
C521 C523 1.387 . S
H522 C529 0.950 . S
C523 C521 1.387 . S
C523 C525 1.390 . S
C523 H527 0.950 . S
H524 C520 0.950 . S
C525 C523 1.390 . S
C525 C526 1.387 . S
C525 H528 0.950 . S
C526 C525 1.387 . S
C526 C529 1.387 . S
H527 C523 0.950 . S
H528 C525 0.950 . S
C529 C520 1.390 . S
C529 H522 0.950 . S
C529 C526 1.387 . S
C530 C531 1.387 . S
C530 H534 0.950 . S
C530 C539 1.390 . S
C531 C530 1.387 . S
C531 C533 1.387 . S
H532 C539 0.950 . S
C533 C531 1.387 . S
C533 C535 1.390 . S
C533 H537 0.950 . S
H534 C530 0.950 . S
C535 C533 1.390 . S
C535 C536 1.387 . S
C535 H538 0.950 . S
C536 C535 1.387 . S
C536 C539 1.387 . S
H537 C533 0.950 . S
H538 C535 0.950 . S
C539 C530 1.390 . S
C539 H532 0.950 . S
C539 C536 1.387 . S
C540 C541 1.387 . S
C540 H544 0.950 . S
C540 C549 1.390 . S
C541 C540 1.387 . S
C541 C543 1.387 . S
H542 C549 0.950 . S
C543 C541 1.387 . S
C543 C545 1.390 . S
C543 H547 0.950 . S
H544 C540 0.950 . S
C545 C543 1.390 . S
C545 C546 1.387 . S
C545 H548 0.950 . S
C546 C545 1.387 . S
C546 C549 1.387 . S
H547 C543 0.950 . S
H548 C545 0.950 . S
C549 C540 1.390 . S
C549 H542 0.950 . S
C549 C546 1.387 . S
C550 C551 1.387 . S
C550 H554 0.950 . S
C550 C559 1.390 . S
C551 C550 1.387 . S
C551 C553 1.387 . S
H552 C559 0.950 . S
C553 C551 1.387 . S
C553 C555 1.390 . S
C553 H557 0.950 . S
H554 C550 0.950 . S
C555 C553 1.390 . S
C555 C556 1.387 . S
C555 H558 0.950 . S
C556 C555 1.387 . S
C556 C559 1.387 . S
H557 C553 0.950 . S
H558 C555 0.950 . S
C559 C550 1.390 . S
C559 H552 0.950 . S
C559 C556 1.387 . S
C560 C561 1.387 . S
C560 H564 0.950 . S
C560 C569 1.390 . S
C561 C560 1.387 . S
C561 C563 1.387 . S
H562 C569 0.950 . S
C563 C561 1.387 . S
C563 C565 1.390 . S
C563 H567 0.950 . S
H564 C560 0.950 . S
C565 C563 1.390 . S
C565 C566 1.387 . S
C565 H568 0.950 . S
C566 C565 1.387 . S
C566 C569 1.387 . S
H567 C563 0.950 . S
H568 C565 0.950 . S
C569 C560 1.390 . S
C569 H562 0.950 . S
C569 C566 1.387 . S
C570 C571 1.387 . S
C570 H574 0.950 . S
C570 C579 1.390 . S
C571 C570 1.387 . S
C571 C573 1.387 . S
H572 C579 0.950 . S
C573 C571 1.387 . S
C573 C575 1.390 . S
C573 H577 0.950 . S
H574 C570 0.950 . S
C575 C573 1.390 . S
C575 C576 1.387 . S
C575 H578 0.950 . S
C576 C575 1.387 . S
C576 C579 1.387 . S
H577 C573 0.950 . S
H578 C575 0.950 . S
C579 C570 1.390 . S
C579 H572 0.950 . S
C579 C576 1.387 . S
C580 C581 1.387 . S
C580 H584 0.950 . S
C580 C589 1.390 . S
C581 C580 1.387 . S
C581 C583 1.387 . S
H582 C589 0.950 . S
C583 C581 1.387 . S
C583 C585 1.390 . S
C583 H587 0.950 . S
H584 C580 0.950 . S
C585 C583 1.390 . S
C585 C586 1.387 . S
C585 H588 0.950 . S
C586 C585 1.387 . S
C586 C589 1.387 . S
H587 C583 0.950 . S
H588 C585 0.950 . S
C589 C580 1.390 . S
C589 H582 0.950 . S
C589 C586 1.387 . S
C590 C591 1.387 . S
C590 H594 0.950 . S
C590 C599 1.390 . S
C591 C590 1.387 . S
C591 C593 1.387 . S
H592 C599 0.950 . S
C593 C591 1.387 . S
C593 C595 1.390 . S
C593 H597 0.950 . S
H594 C590 0.950 . S
C595 C593 1.390 . S
C595 C596 1.387 . S
C595 H598 0.950 . S
C596 C595 1.387 . S
C596 C599 1.387 . S
H597 C593 0.950 . S
H598 C595 0.950 . S
C599 C590 1.390 . S
C599 H592 0.950 . S
C599 C596 1.387 . S
C600 C601 1.387 . S
C600 H604 0.950 . S
C600 C609 1.390 . S
C601 C600 1.387 . S
C601 C603 1.387 . S
H602 C609 0.950 . S
C603 C601 1.387 . S
C603 C605 1.390 . S
C603 H607 0.950 . S
H604 C600 0.950 . S
C605 C603 1.390 . S
C605 C606 1.387 . S
C605 H608 0.950 . S
C606 C605 1.387 . S
C606 C609 1.387 . S
H607 C603 0.950 . S
H608 C605 0.950 . S
C609 C600 1.390 . S
C609 H602 0.950 . S
C609 C606 1.387 . S
C610 C611 1.387 . S
C610 H614 0.950 . S
C610 C619 1.390 . S
C611 C610 1.387 . S
C611 C613 1.387 . S
H612 C619 0.950 . S
C613 C611 1.387 . S
C613 C615 1.390 . S
C613 H617 0.950 . S
H614 C610 0.950 . S
C615 C613 1.390 . S
C615 C616 1.387 . S
C615 H618 0.950 . S
C616 C615 1.387 . S
C616 C619 1.387 . S
H617 C613 0.950 . S
H618 C615 0.950 . S
C619 C610 1.390 . S
C619 H612 0.950 . S
C619 C616 1.387 . S
C620 C621 1.387 . S
C620 H624 0.950 . S
C620 C629 1.390 . S
C621 C620 1.387 . S
C621 C623 1.387 . S
H622 C629 0.950 . S
C623 C621 1.387 . S
C623 C625 1.390 . S
C623 H627 0.950 . S
H624 C620 0.950 . S
C625 C623 1.390 . S
C625 C626 1.387 . S
C625 H628 0.950 . S
C626 C625 1.387 . S
C626 C629 1.387 . S
H627 C623 0.950 . S
H628 C625 0.950 . S
C629 C620 1.390 . S
C629 H622 0.950 . S
C629 C626 1.387 . S
C630 C631 1.387 . S
C630 H634 0.950 . S
C630 C639 1.390 . S
C631 C630 1.387 . S
C631 C633 1.387 . S
H632 C639 0.950 . S
C633 C631 1.387 . S
C633 C635 1.390 . S
C633 H637 0.950 . S
H634 C630 0.950 . S
C635 C633 1.390 . S
C635 C636 1.387 . S
C635 H638 0.950 . S
C636 C635 1.387 . S
C636 C639 1.387 . S
H637 C633 0.950 . S
H638 C635 0.950 . S
C639 C630 1.390 . S
C639 H632 0.950 . S
C639 C636 1.387 . S
C640 C641 1.387 . S
C640 H644 0.950 . S
C640 C649 1.390 . S
C641 C640 1.387 . S
C641 C643 1.387 . S
H642 C649 0.950 . S
C643 C641 1.387 . S
C643 C645 1.390 . S
C643 H647 0.950 . S
H644 C640 0.950 . S
C645 C643 1.390 . S
C645 C646 1.387 . S
C645 H648 0.950 . S
C646 C645 1.387 . S
C646 C649 1.387 . S
H647 C643 0.950 . S
H648 C645 0.950 . S
C649 C640 1.390 . S
C649 H642 0.950 . S
C649 C646 1.387 . S
C650 C651 1.387 . S
C650 H654 0.950 . S
C650 C659 1.390 . S
C651 C650 1.387 . S
C651 C653 1.387 . S
H652 C659 0.950 . S
C653 C651 1.387 . S
C653 C655 1.390 . S
C653 H657 0.950 . S
H654 C650 0.950 . S
C655 C653 1.390 . S
C655 C656 1.387 . S
C655 H658 0.950 . S
C656 C655 1.387 . S
C656 C659 1.387 . S
H657 C653 0.950 . S
H658 C655 0.950 . S
C659 C650 1.390 . S
C659 H652 0.950 . S
C659 C656 1.387 . S
C660 C661 1.387 . S
C660 H664 0.950 . S
C660 C669 1.390 . S
C661 C660 1.387 . S
C661 C663 1.387 . S
H662 C669 0.950 . S
C663 C661 1.387 . S
C663 C665 1.390 . S
C663 H667 0.950 . S
H664 C660 0.950 . S
C665 C663 1.390 . S
C665 C666 1.387 . S
C665 H668 0.950 . S
C666 C665 1.387 . S
C666 C669 1.387 . S
H667 C663 0.950 . S
H668 C665 0.950 . S
C669 C660 1.390 . S
C669 H662 0.950 . S
C669 C666 1.387 . S
C670 C671 1.387 . S
C670 H674 0.950 . S
C670 C679 1.390 . S
C671 C670 1.387 . S
C671 C673 1.387 . S
H672 C679 0.950 . S
C673 C671 1.387 . S
C673 C675 1.390 . S
C673 H677 0.950 . S
H674 C670 0.950 . S
C675 C673 1.390 . S
C675 C676 1.387 . S
C675 H678 0.950 . S
C676 C675 1.387 . S
C676 C679 1.387 . S
H677 C673 0.950 . S
H678 C675 0.950 . S
C679 C670 1.390 . S
C679 H672 0.950 . S
C679 C676 1.387 . S
C680 C681 1.387 . S
C680 H684 0.950 . S
C680 C689 1.390 . S
C681 C680 1.387 . S
C681 C683 1.387 . S
H682 C689 0.950 . S
C683 C681 1.387 . S
C683 C685 1.390 . S
C683 H687 0.950 . S
H684 C680 0.950 . S
C685 C683 1.390 . S
C685 C686 1.387 . S
C685 H688 0.950 . S
C686 C685 1.387 . S
C686 C689 1.387 . S
H687 C683 0.950 . S
H688 C685 0.950 . S
C689 C680 1.390 . S
C689 H682 0.950 . S
C689 C686 1.387 . S
C690 C691 1.387 . S
C690 H694 0.950 . S
C690 C699 1.390 . S
C691 C690 1.387 . S
C691 C693 1.387 . S
H692 C699 0.950 . S
C693 C691 1.387 . S
C693 C695 1.390 . S
C693 H697 0.950 . S
H694 C690 0.950 . S
C695 C693 1.390 . S
C695 C696 1.387 . S
C695 H698 0.950 . S
C696 C695 1.387 . S
C696 C699 1.387 . S
H697 C693 0.950 . S
H698 C695 0.950 . S
C699 C690 1.390 . S
C699 H692 0.950 . S
C699 C696 1.387 . S
C700 C701 1.387 . S
C700 H704 0.950 . S
C700 C709 1.390 . S
C701 C700 1.387 . S
C701 C703 1.387 . S
H702 C709 0.950 . S
C703 C701 1.387 . S
C703 C705 1.390 . S
C703 H707 0.950 . S
H704 C700 0.950 . S
C705 C703 1.390 . S
C705 C706 1.387 . S
C705 H708 0.950 . S
C706 C705 1.387 . S
C706 C709 1.387 . S
H707 C703 0.950 . S
H708 C705 0.950 . S
C709 C700 1.390 . S
C709 H702 0.950 . S
C709 C706 1.387 . S
C710 C711 1.387 . S
C710 H714 0.950 . S
C710 C719 1.390 . S
C711 C710 1.387 . S
C711 C713 1.387 . S
H712 C719 0.950 . S
C713 C711 1.387 . S
C713 C715 1.390 . S
C713 H717 0.950 . S
H714 C710 0.950 . S
C715 C713 1.390 . S
C715 C716 1.387 . S
C715 H718 0.950 . S
C716 C715 1.387 . S
C716 C719 1.387 . S
H717 C713 0.950 . S
H718 C715 0.950 . S
C719 C710 1.390 . S
C719 H712 0.950 . S
C719 C716 1.387 . S
C720 C721 1.387 . S
C720 H724 0.950 . S
C720 C729 1.390 . S
C721 C720 1.387 . S
C721 C723 1.387 . S
H722 C729 0.950 . S
C723 C721 1.387 . S
C723 C725 1.390 . S
C723 H727 0.950 . S
H724 C720 0.950 . S
C725 C723 1.390 . S
C725 C726 1.387 . S
C725 H728 0.950 . S
C726 C725 1.387 . S
C726 C729 1.387 . S
H727 C723 0.950 . S
H728 C725 0.950 . S
C729 C720 1.390 . S
C729 H722 0.950 . S
C729 C726 1.387 . S
C730 C731 1.387 . S
C730 H734 0.950 . S
C730 C739 1.390 . S
C731 C730 1.387 . S
C731 C733 1.387 . S
H732 C739 0.950 . S
C733 C731 1.387 . S
C733 C735 1.390 . S
C733 H737 0.950 . S
H734 C730 0.950 . S
C735 C733 1.390 . S
C735 C736 1.387 . S
C735 H738 0.950 . S
C736 C735 1.387 . S
C736 C739 1.387 . S
H737 C733 0.950 . S
H738 C735 0.950 . S
C739 C730 1.390 . S
C739 H732 0.950 . S
C739 C736 1.387 . S
C740 C741 1.387 . S
C740 H744 0.950 . S
C740 C749 1.390 . S
C741 C740 1.387 . S
C741 C743 1.387 . S
H742 C749 0.950 . S
C743 C741 1.387 . S
C743 C745 1.390 . S
C743 H747 0.950 . S
H744 C740 0.950 . S
C745 C743 1.390 . S
C745 C746 1.387 . S
C745 H748 0.950 . S
C746 C745 1.387 . S
C746 C749 1.387 . S
H747 C743 0.950 . S
H748 C745 0.950 . S
C749 C740 1.390 . S
C749 H742 0.950 . S
C749 C746 1.387 . S
C750 C751 1.387 . S
C750 H754 0.950 . S
C750 C759 1.390 . S
C751 C750 1.387 . S
C751 C753 1.387 . S
H752 C759 0.950 . S
C753 C751 1.387 . S
C753 C755 1.390 . S
C753 H757 0.950 . S
H754 C750 0.950 . S
C755 C753 1.390 . S
C755 C756 1.387 . S
C755 H758 0.950 . S
C756 C755 1.387 . S
C756 C759 1.387 . S
H757 C753 0.950 . S
H758 C755 0.950 . S
C759 C750 1.390 . S
C759 H752 0.950 . S
C759 C756 1.387 . S
C760 C761 1.387 . S
C760 H764 0.950 . S
C760 C769 1.390 . S
C761 C760 1.387 . S
C761 C763 1.387 . S
H762 C769 0.950 . S
C763 C761 1.387 . S
C763 C765 1.390 . S
C763 H767 0.950 . S
H764 C760 0.950 . S
C765 C763 1.390 . S
C765 C766 1.387 . S
C765 H768 0.950 . S
C766 C765 1.387 . S
C766 C769 1.387 . S
H767 C763 0.950 . S
H768 C765 0.950 . S
C769 C760 1.390 . S
C769 H762 0.950 . S
C769 C766 1.387 . S
C770 C771 1.387 . S
C770 H774 0.950 . S
C770 C779 1.390 . S
C771 C770 1.387 . S
C771 C773 1.387 . S
H772 C779 0.950 . S
C773 C771 1.387 . S
C773 C775 1.390 . S
C773 H777 0.950 . S
H774 C770 0.950 . S
C775 C773 1.390 . S
C775 C776 1.387 . S
C775 H778 0.950 . S
C776 C775 1.387 . S
C776 C779 1.387 . S
H777 C773 0.950 . S
H778 C775 0.950 . S
C779 C770 1.390 . S
C779 H772 0.950 . S
C779 C776 1.387 . S
C780 C781 1.387 . S
C780 H784 0.950 . S
C780 C789 1.390 . S
C781 C780 1.387 . S
C781 C783 1.387 . S
H782 C789 0.950 . S
C783 C781 1.387 . S
C783 C785 1.390 . S
C783 H787 0.950 . S
H784 C780 0.950 . S
C785 C783 1.390 . S
C785 C786 1.387 . S
C785 H788 0.950 . S
C786 C785 1.387 . S
C786 C789 1.387 . S
H787 C783 0.950 . S
H788 C785 0.950 . S
C789 C780 1.390 . S
C789 H782 0.950 . S
C789 C786 1.387 . S
C790 C791 1.387 . S
C790 H794 0.950 . S
C790 C799 1.390 . S
C791 C790 1.387 . S
C791 C793 1.387 . S
H792 C799 0.950 . S
C793 C791 1.387 . S
C793 C795 1.390 . S
C793 H797 0.950 . S
H794 C790 0.950 . S
C795 C793 1.390 . S
C795 C796 1.387 . S
C795 H798 0.950 . S
C796 C795 1.387 . S
C796 C799 1.387 . S
H797 C793 0.950 . S
H798 C795 0.950 . S
C799 C790 1.390 . S
C799 H792 0.950 . S
C799 C796 1.387 . S
C800 C801 1.387 . S
C800 H804 0.950 . S
C800 C809 1.390 . S
C801 C800 1.387 . S
C801 C803 1.387 . S
H802 C809 0.950 . S
C803 C801 1.387 . S
C803 C805 1.390 . S
C803 H807 0.950 . S
H804 C800 0.950 . S
C805 C803 1.390 . S
C805 C806 1.387 . S
C805 H808 0.950 . S
C806 C805 1.387 . S
C806 C809 1.387 . S
H807 C803 0.950 . S
H808 C805 0.950 . S
C809 C800 1.390 . S
C809 H802 0.950 . S
C809 C806 1.387 . S
C810 C811 1.387 . S
C810 H814 0.950 . S
C810 C819 1.390 . S
C811 C810 1.387 . S
C811 C813 1.387 . S
H812 C819 0.950 . S
C813 C811 1.387 . S
C813 C815 1.390 . S
C813 H817 0.950 . S
H814 C810 0.950 . S
C815 C813 1.390 . S
C815 C816 1.387 . S
C815 H818 0.950 . S
C816 C815 1.387 . S
C816 C819 1.387 . S
H817 C813 0.950 . S
H818 C815 0.950 . S
C819 C810 1.390 . S
C819 H812 0.950 . S
C819 C816 1.387 . S
C820 C821 1.387 . S
C820 H824 0.950 . S
C820 C829 1.390 . S
C821 C820 1.387 . S
C821 C823 1.387 . S
H822 C829 0.950 . S
C823 C821 1.387 . S
C823 C825 1.390 . S
C823 H827 0.950 . S
H824 C820 0.950 . S
C825 C823 1.390 . S
C825 C826 1.387 . S
C825 H828 0.950 . S
C826 C825 1.387 . S
C826 C829 1.387 . S
H827 C823 0.950 . S
H828 C825 0.950 . S
C829 C820 1.390 . S
C829 H822 0.950 . S
C829 C826 1.387 . S
C830 C831 1.387 . S
C830 H834 0.950 . S
C830 C839 1.390 . S
C831 C830 1.387 . S
C831 C833 1.387 . S
H832 C839 0.950 . S
C833 C831 1.387 . S
C833 C835 1.390 . S
C833 H837 0.950 . S
H834 C830 0.950 . S
C835 C833 1.390 . S
C835 C836 1.387 . S
C835 H838 0.950 . S
C836 C835 1.387 . S
C836 C839 1.387 . S
H837 C833 0.950 . S
H838 C835 0.950 . S
C839 C830 1.390 . S
C839 H832 0.950 . S
C839 C836 1.387 . S
C840 C841 1.387 . S
C840 H844 0.950 . S
C840 C849 1.390 . S
C841 C840 1.387 . S
C841 C843 1.387 . S
H842 C849 0.950 . S
C843 C841 1.387 . S
C843 C845 1.390 . S
C843 H847 0.950 . S
H844 C840 0.950 . S
C845 C843 1.390 . S
C845 C846 1.387 . S
C845 H848 0.950 . S
C846 C845 1.387 . S
C846 C849 1.387 . S
H847 C843 0.950 . S
H848 C845 0.950 . S
C849 C840 1.390 . S
C849 H842 0.950 . S
C849 C846 1.387 . S
C376 C195 1.406 . S
C371 C17 1.406 . S
C386 C185 1.801 . S
C381 C44 1.579 . S
C396 C186 1.185 . S
C391 C63 1.171 . S
C401 C87 1.440 . S
C406 C208 1.424 . S
C411 C110 1.449 . S
C416 C211 1.431 . S
C426 C194 1.210 . S
C421 C131 1.191 . S
C431 C159 1.512 . S
C436 C184 1.724 . S
C441 C177 1.423 . S
C446 C202 1.425 . S
C456 C215 1.541 . S
C451 C20 1.388 . S
C461 C42 1.449 . S
C466 C264 1.448 . S
C476 C242 1.732 . S
C471 C66 1.545 . S
C486 C256 1.047 . S
C481 C86 1.097 . S
C491 C109 1.085 . S
C496 C217 1.078 . S
C506 C270 1.634 . S
C501 C136 1.524 . S
C511 C157 1.452 . S
C516 C226 1.424 . S
C521 C182 1.487 . S
C526 C247 1.584 . S
C531 C18 1.488 . S
C536 C273 1.431 . S
C541 C112 1.388 . S
C546 C257 1.459 . S
C556 C216 1.432 . S
C551 C134 1.454 . S
C566 C248 1.142 . S
C561 C154 1.214 . S
C571 C180 1.369 . S
C576 C239 1.351 . S
C581 C64 1.442 . S
C586 C246 1.362 . S
C596 C233 1.429 . S
C591 C89 1.403 . S
C601 C39 1.214 . S
C606 C225 1.200 . S
C611 C178 1.408 . S
C616 C288 1.406 . S
C621 C113 1.578 . S
C626 C278 1.801 . S
C636 C279 1.182 . S
C631 C132 1.171 . S
C646 C301 1.424 . S
C641 C156 1.440 . S
C651 C41 1.449 . S
C656 C304 1.432 . S
C666 C287 1.210 . S
C661 C62 1.191 . S
C671 C90 1.514 . S
C676 C277 1.724 . S
C681 C16 1.425 . S
C686 C295 1.423 . S
C691 C181 1.392 . S
C696 C308 1.543 . S
C706 C357 1.450 . S
C701 C111 1.446 . S
C711 C135 1.541 . S
C716 C335 1.729 . S
C721 C155 1.097 . S
C726 C349 1.044 . S
C736 C310 1.078 . S
C731 C40 1.085 . S
C741 C67 1.523 . S
C746 C363 1.636 . S
C756 C319 1.425 . S
C751 C88 1.452 . S
C766 C340 1.585 . S
C761 C21 1.486 . S
C776 C366 1.429 . S
C771 C179 1.487 . S
C781 C43 1.384 . S
C786 C350 1.459 . S
C791 C65 1.452 . S
C796 C309 1.429 . S
C806 C341 1.141 . S
C801 C85 1.213 . S
C811 C19 1.370 . S
C816 C332 1.353 . S
C821 C133 1.442 . S
C826 C339 1.363 . S
C836 C326 1.433 . S
C831 C158 1.408 . S
C846 C318 1.200 . S
C841 C108 1.217 . S
