# Generated by pormake.
# Topology csq, (4,8)-cn, num edge types: 1
# Building blocks:
#     Node 0, Type 0, BuildingBlock: KOZSID_clean_sbu_0, # of connection points: 4
#     Node 1, Type 0, BuildingBlock: KOZSID_clean_sbu_0, # of connection points: 4
#     Node 2, Type 0, BuildingBlock: KOZSID_clean_sbu_0, # of connection points: 4
#     Node 3, Type 0, BuildingBlock: KOZSID_clean_sbu_0, # of connection points: 4
#     Node 4, Type 0, BuildingBlock: KOZSID_clean_sbu_0, # of connection points: 4
#     Node 5, Type 0, BuildingBlock: KOZSID_clean_sbu_0, # of connection points: 4
#     Node 6, Type 1, BuildingBlock: TAGTUT_clean_sbu_1, # of connection points: 8
#     Node 7, Type 1, BuildingBlock: TAGTUT_clean_sbu_1, # of connection points: 8
#     Node 8, Type 1, BuildingBlock: TAGTUT_clean_sbu_1, # of connection points: 8
#     Edge 9, Type (0, 1), BuildingBlock: AJUNOK_clean_linker_0, # of connection points: 2
#     Edge 10, Type (0, 1), BuildingBlock: AJUNOK_clean_linker_0, # of connection points: 2
#     Edge 11, Type (0, 1), BuildingBlock: AJUNOK_clean_linker_0, # of connection points: 2
#     Edge 12, Type (0, 1), BuildingBlock: AJUNOK_clean_linker_0, # of connection points: 2
#     Edge 13, Type (0, 1), BuildingBlock: AJUNOK_clean_linker_0, # of connection points: 2
#     Edge 14, Type (0, 1), BuildingBlock: AJUNOK_clean_linker_0, # of connection points: 2
#     Edge 15, Type (0, 1), BuildingBlock: AJUNOK_clean_linker_0, # of connection points: 2
#     Edge 16, Type (0, 1), BuildingBlock: AJUNOK_clean_linker_0, # of connection points: 2
#     Edge 17, Type (0, 1), BuildingBlock: AJUNOK_clean_linker_0, # of connection points: 2
#     Edge 18, Type (0, 1), BuildingBlock: AJUNOK_clean_linker_0, # of connection points: 2
#     Edge 19, Type (0, 1), BuildingBlock: AJUNOK_clean_linker_0, # of connection points: 2
#     Edge 20, Type (0, 1), BuildingBlock: AJUNOK_clean_linker_0, # of connection points: 2
#     Edge 21, Type (0, 1), BuildingBlock: AJUNOK_clean_linker_0, # of connection points: 2
#     Edge 22, Type (0, 1), BuildingBlock: AJUNOK_clean_linker_0, # of connection points: 2
#     Edge 23, Type (0, 1), BuildingBlock: AJUNOK_clean_linker_0, # of connection points: 2
#     Edge 24, Type (0, 1), BuildingBlock: AJUNOK_clean_linker_0, # of connection points: 2
#     Edge 25, Type (0, 1), BuildingBlock: AJUNOK_clean_linker_0, # of connection points: 2
#     Edge 26, Type (0, 1), BuildingBlock: AJUNOK_clean_linker_0, # of connection points: 2
#     Edge 27, Type (0, 1), BuildingBlock: AJUNOK_clean_linker_0, # of connection points: 2
#     Edge 28, Type (0, 1), BuildingBlock: AJUNOK_clean_linker_0, # of connection points: 2
#     Edge 29, Type (0, 1), BuildingBlock: AJUNOK_clean_linker_0, # of connection points: 2
#     Edge 30, Type (0, 1), BuildingBlock: AJUNOK_clean_linker_0, # of connection points: 2
#     Edge 31, Type (0, 1), BuildingBlock: AJUNOK_clean_linker_0, # of connection points: 2
#     Edge 32, Type (0, 1), BuildingBlock: AJUNOK_clean_linker_0, # of connection points: 2
# Relax obj value: 0.038
# Max RMSD: 0.132
# Mean RMSD: 0.041
data_MOF--net-csq--node1-KOZSID_clean_sbu_0--node2-TAGTUT_clean_sbu_1--edge1-AJUNOK_clean_linker_0
_symmetry_space_group_name_H-M    P1
_symmetry_Int_Tables_number       1
_symmetry_cell_setting            triclinic
loop_
_symmetry_equiv_pos_as_xyz
'x, y, z'
_cell_length_a     44.06635
_cell_length_b     43.399554
_cell_length_c     16.187865
_cell_angle_alpha  86.82883
_cell_angle_beta   98.838517
_cell_angle_gamma 119.83201
loop_
_atom_site_label
_atom_site_type_symbol
_atom_site_fract_x
_atom_site_fract_y
_atom_site_fract_z
_atom_type_partial_charge
C0 C 0.31835 0.53401 0.3596 0.0
C1 C 0.33818 0.56876 0.39013 0.0
C2 C 0.32305 0.58705 0.34742 0.0
C3 C 0.29503 0.56238 0.29363 0.0
N4 N 0.2918 0.52985 0.29905 0.0
Co5 Co 0.25418 0.48613 0.23638 0.0
N6 N 0.24034 0.51437 0.15457 0.0
C7 C 0.24911 0.54861 0.16435 0.0
C8 C 0.23567 0.56102 0.0972 0.0
C9 C 0.21707 0.53287 0.04185 0.0
C10 C 0.22007 0.50459 0.07867 0.0
N11 N 0.21649 0.44249 0.17363 0.0
C12 C 0.19882 0.43883 0.09549 0.0
C13 C 0.17569 0.40326 0.07367 0.0
C14 C 0.17847 0.38406 0.14129 0.0
C15 C 0.20321 0.40883 0.20012 0.0
N16 N 0.26748 0.45766 0.31885 0.0
C17 C 0.24812 0.42255 0.33114 0.0
C18 C 0.2638 0.41056 0.39449 0.0
C19 C 0.29484 0.44003 0.42478 0.0
C20 C 0.29609 0.46835 0.37806 0.0
N21 N 0.22053 0.48362 0.30886 0.0
C22 C 0.17404 0.4832 0.41296 0.0
C23 C 0.16403 0.47715 0.32595 0.0
C24 C 0.18748 0.47745 0.27543 0.0
C25 C 0.20772 0.48876 0.44637 0.0
C26 C 0.23039 0.48901 0.39375 0.0
N27 N 0.28819 0.48898 0.16387 0.0
C28 C 0.31339 0.46097 0.09316 0.0
C29 C 0.33351 0.49227 0.05075 0.0
C30 C 0.3301 0.52185 0.06737 0.0
C31 C 0.30806 0.51986 0.12449 0.0
C32 C 0.29101 0.45983 0.14852 0.0
H33 H 0.3067 0.54337 0.13546 0.0
H34 H 0.27572 0.4351 0.17834 0.0
H35 H 0.17905 0.47316 0.20909 0.0
H36 H 0.25609 0.49386 0.42252 0.0
C37 C 0.27386 0.56949 0.23134 0.0
C38 C 0.32373 0.50518 0.39413 0.0
C39 C 0.19891 0.46798 0.04528 0.0
C40 C 0.21805 0.40115 0.27515 0.0
H41 H 0.36068 0.57945 0.43927 0.0
H42 H 0.33177 0.61504 0.35387 0.0
H43 H 0.23946 0.5875 0.08859 0.0
H44 H 0.20217 0.53294 0.9822 0.0
H45 H 0.15792 0.39247 0.01565 0.0
H46 H 0.16475 0.35543 0.14614 0.0
H47 H 0.2543 0.38351 0.41471 0.0
H48 H 0.31407 0.44055 0.4758 0.0
H49 H 0.13839 0.47285 0.29653 0.0
H50 H 0.2166 0.49267 0.51306 0.0
H51 H 0.31492 0.43729 0.08406 0.0
H52 H 0.3437 0.54648 0.03524 0.0
C53 C 0.83877 0.26466 0.07689 0.0
C54 C 0.86641 0.25813 0.0738 0.0
C55 C 0.85925 0.22827 0.11828 0.0
C56 C 0.82796 0.21849 0.14628 0.0
N57 N 0.81409 0.23963 0.12047 0.0
Co58 Co 0.77169 0.23801 0.15616 0.0
N59 N 0.76505 0.19851 0.23523 0.0
C60 C 0.78322 0.18067 0.24311 0.0
C61 C 0.77144 0.15316 0.29724 0.0
C62 C 0.74397 0.15321 0.32575 0.0
C63 C 0.74081 0.18128 0.28812 0.0
N64 N 0.7305 0.23766 0.19566 0.0
C65 C 0.71095 0.21848 0.25623 0.0
C66 C 0.68628 0.22837 0.26704 0.0
C67 C 0.68994 0.25418 0.21063 0.0
C68 C 0.7168 0.25895 0.16918 0.0
N69 N 0.77775 0.27668 0.07528 0.0
C70 C 0.75592 0.29031 0.0555 0.0
C71 C 0.7682 0.31795 1.00131 0.0
C72 C 0.80003 0.32263 0.98713 0.0
C73 C 0.80541 0.29757 0.03391 0.0
N74 N 0.7396 0.20228 0.06586 0.0
C75 C 0.69595 0.15498 0.93089 0.0
C76 C 0.68875 0.18032 0.95751 0.0
C77 C 0.7105 0.20325 0.02456 0.0
C78 C 0.72515 0.15331 0.97339 0.0
C79 C 0.74652 0.17709 0.04002 0.0
N80 N 0.80387 0.27421 0.24311 0.0
C81 C 0.83337 0.33595 0.28508 0.0
C82 C 0.8603 0.33277 0.33531 0.0
C83 C 0.85719 0.29899 0.34278 0.0
C84 C 0.82903 0.27023 0.2958 0.0
C85 C 0.80492 0.30626 0.24288 0.0
H86 H 0.82863 0.24534 0.3005 0.0
H87 H 0.78499 0.31039 0.20683 0.0
H88 H 0.70271 0.22116 0.04202 0.0
H89 H 0.76822 0.17426 0.0698 0.0
C90 C 0.81233 0.19137 0.20195 0.0
C91 C 0.83808 0.29602 0.04191 0.0
C92 C 0.71389 0.18992 0.30332 0.0
C93 C 0.72873 0.28197 0.10257 0.0
H94 H 0.88996 0.27397 0.04498 0.0
H95 H 0.87571 0.2161 0.13184 0.0
H96 H 0.78165 0.1352 0.3141 0.0
H97 H 0.72803 0.13436 0.36895 0.0
H98 H 0.66732 0.21774 0.31066 0.0
H99 H 0.67461 0.26763 0.20055 0.0
H100 H 0.75673 0.33449 0.97972 0.0
H101 H 0.81803 0.3432 0.94993 0.0
H102 H 0.66551 0.1816 0.92885 0.0
H103 H 0.7312 0.13343 0.95598 0.0
H104 H 0.83452 0.36136 0.27549 0.0
H105 H 0.87676 0.29484 0.38322 0.0
C106 C 0.5577 0.73749 0.18589 0.0
C107 C 0.58581 0.74861 0.25063 0.0
C108 C 0.60593 0.7847 0.24508 0.0
C109 C 0.58895 0.79359 0.17787 0.0
N110 N 0.55926 0.7655 0.14096 0.0
Co111 Co 0.5272 0.76661 0.04049 0.0
N112 N 0.56341 0.81534 0.01102 0.0
C113 C 0.59316 0.83743 0.06209 0.0
C114 C 0.61177 0.87063 0.03093 0.0
C115 C 0.59227 0.87012 0.95642 0.0
C116 C 0.56259 0.83644 0.9461 0.0
N117 N 0.49546 0.76711 0.93768 0.0
C118 C 0.5013 0.79165 0.87641 0.0
C119 C 0.47073 0.78196 0.82006 0.0
C120 C 0.44464 0.75125 0.84829 0.0
C121 C 0.4606 0.74372 0.91996 0.0
N122 N 0.49113 0.71857 0.07266 0.0
C123 C 0.45649 0.70167 0.04155 0.0
C124 C 0.43855 0.66776 0.07028 0.0
C125 C 0.46341 0.66293 0.12238 0.0
C126 C 0.49531 0.69438 0.12328 0.0
N127 N 0.50901 0.78842 0.10722 0.0
C128 C 0.50432 0.83638 0.2029 0.0
C129 C 0.49491 0.83461 0.11684 0.0
C130 C 0.49758 0.81065 0.07039 0.0
C131 C 0.51104 0.8104 0.24197 0.0
C132 C 0.51192 0.78558 0.1924 0.0
N133 N 0.54523 0.74445 0.97583 0.0
C134 C 0.53167 0.69041 0.9088 0.0
C135 C 0.56675 0.69845 0.93029 0.0
C136 C 0.59176 0.73159 0.96689 0.0
C137 C 0.58037 0.75442 0.98915 0.0
C138 C 0.52159 0.71406 0.93075 0.0
H139 H 0.59957 0.77895 0.02197 0.0
H140 H 0.4941 0.70635 0.91647 0.0
H141 H 0.49288 0.81274 0.00481 0.0
H142 H 0.5175 0.76594 0.22333 0.0
C143 C 0.60294 0.82627 0.13904 0.0
C144 C 0.52912 0.70047 0.17189 0.0
C145 C 0.53249 0.82764 0.87964 0.0
C146 C 0.444 0.71495 0.97185 0.0
H147 H 0.5913 0.73235 0.29678 0.0
H148 H 0.6308 0.8021 0.28314 0.0
H149 H 0.63615 0.89289 0.06004 0.0
H150 H 0.59846 0.89267 0.91646 0.0
H151 H 0.46715 0.79688 0.76733 0.0
H152 H 0.41705 0.73677 0.82118 0.0
H153 H 0.41122 0.64793 0.05084 0.0
H154 H 0.45866 0.63859 0.15359 0.0
H155 H 0.48923 0.85415 0.08467 0.0
H156 H 0.51756 0.81061 0.30931 0.0
H157 H 0.51199 0.66564 0.87657 0.0
H158 H 0.61944 0.73909 0.9811 0.0
C159 C 0.84203 0.57091 0.24506 0.0
C160 C 0.86906 0.6044 0.27382 0.0
C161 C 0.8666 0.62819 0.21848 0.0
C162 C 0.83856 0.60805 0.15882 0.0
N163 N 0.82292 0.57275 0.17256 0.0
Co164 Co 0.78216 0.53405 0.09907 0.0
N165 N 0.77648 0.56937 0.02246 0.0
C166 C 0.79603 0.60518 0.02942 0.0
C167 C 0.78565 0.6224 0.96779 0.0
C168 C 0.7574 0.59596 0.91916 0.0
C169 C 0.75231 0.56412 0.9541 0.0
N170 N 0.74215 0.49535 0.02414 0.0
C171 C 0.72148 0.49732 0.9551 0.0
C172 C 0.69703 0.46394 0.92053 0.0
C173 C 0.70237 0.43998 0.96962 0.0
C174 C 0.72964 0.46001 0.0311 0.0
N175 N 0.78676 0.49872 0.17765 0.0
C176 C 0.76671 0.4629 0.17093 0.0
C177 C 0.77386 0.44558 0.23777 0.0
C178 C 0.79994 0.47189 0.29071 0.0
C179 C 0.80751 0.50389 0.25248 0.0
N180 N 0.74863 0.53468 0.1675 0.0
C181 C 0.70493 0.53498 0.27816 0.0
C182 C 0.69907 0.50317 0.24435 0.0
C183 C 0.72083 0.50363 0.18922 0.0
C184 C 0.73229 0.56674 0.2527 0.0
C185 C 0.75366 0.566 0.19793 0.0
N186 N 0.81593 0.53336 0.03034 0.0
C187 C 0.8398 0.50157 0.96946 0.0
C188 C 0.86189 0.53174 0.92767 0.0
C189 C 0.8603 0.56264 0.93783 0.0
C190 C 0.83786 0.56302 0.98978 0.0
C191 C 0.81724 0.5029 0.01968 0.0
H192 H 0.8389 0.58778 0.99581 0.0
H193 H 0.80128 0.4789 0.04945 0.0
H194 H 0.71494 0.47848 0.16561 0.0
H195 H 0.77425 0.59106 0.1813 0.0
C196 C 0.8248 0.62166 0.09271 0.0
C197 C 0.83595 0.53822 0.28816 0.0
C198 C 0.7224 0.52984 0.92379 0.0
C199 C 0.74139 0.44636 0.10088 0.0
H200 H 0.88852 0.6111 0.32926 0.0
H201 H 0.88297 0.65683 0.22203 0.0
H202 H 0.79716 0.65075 0.95941 0.0
H203 H 0.74181 0.59954 0.86494 0.0
H204 H 0.6769 0.45753 0.86661 0.0
H205 H 0.6873 0.4113 0.96302 0.0
H206 H 0.7615 0.41722 0.24703 0.0
H207 H 0.8123 0.468 0.35046 0.0
H208 H 0.67798 0.47785 0.26109 0.0
H209 H 0.73705 0.59217 0.27415 0.0
H210 H 0.84031 0.47703 0.96478 0.0
H211 H 0.87631 0.58664 0.90581 0.0
C212 C 0.28829 0.83382 0.20526 0.0
C213 C 0.28547 0.86439 0.20048 0.0
C214 C 0.26238 0.86084 0.12969 0.0
C215 C 0.25184 0.82817 0.09572 0.0
N216 N 0.26645 0.81069 0.14149 0.0
Co217 Co 0.25649 0.76193 0.11618 0.0
N218 N 0.21283 0.75117 0.03782 0.0
C219 C 0.20484 0.77539 1.00155 0.0
C220 C 0.17329 0.76036 0.94875 0.0
C221 C 0.16073 0.72444 0.95169 0.0
C222 C 0.18532 0.71946 0.0068 0.0
N223 N 0.24662 0.71326 0.09028 0.0
C224 C 0.21615 0.68445 0.05644 0.0
C225 C 0.22091 0.65522 0.05325 0.0
C226 C 0.25569 0.66654 0.08365 0.0
C227 C 0.27015 0.70172 0.10489 0.0
N228 N 0.30014 0.77252 0.19483 0.0
C229 C 0.31799 0.75469 0.19682 0.0
C230 C 0.34847 0.76894 0.25318 0.0
C231 C 0.35019 0.7978 0.2885 0.0
C232 C 0.32037 0.79951 0.25198 0.0
N233 N 0.22866 0.74384 0.20686 0.0
C234 C 0.17749 0.7063 0.30878 0.0
C235 C 0.20495 0.69894 0.30803 0.0
C236 C 0.23068 0.71844 0.25714 0.0
C237 C 0.1778 0.73473 0.26372 0.0
C238 C 0.20377 0.75329 0.21313 0.0
N239 N 0.28388 0.78004 0.02385 0.0
C240 C 0.28701 0.77895 0.87702 0.0
C241 C 0.31847 0.81134 0.88722 0.0
C242 C 0.33327 0.82694 0.96698 0.0
C243 C 0.31548 0.81098 0.03443 0.0
C244 C 0.27035 0.76336 0.94679 0.0
H245 H 0.32666 0.82451 0.0944 0.0
H246 H 0.24582 0.73853 0.93766 0.0
H247 H 0.25081 0.71147 0.25434 0.0
H248 H 0.20214 0.7736 0.17481 0.0
C249 C 0.22435 0.8109 0.02958 0.0
C250 C 0.31472 0.82954 0.26546 0.0
C251 C 0.18329 0.68469 0.02191 0.0
C252 C 0.30325 0.72255 0.15223 0.0
H253 H 0.2991 0.88722 0.2429 0.0
H254 H 0.25344 0.87936 0.10737 0.0
H255 H 0.16033 0.77377 0.91441 0.0
H256 H 0.13643 0.7043 0.91656 0.0
H257 H 0.20142 0.62848 0.03141 0.0
H258 H 0.26857 0.65068 0.09282 0.0
H259 H 0.36705 0.75929 0.26767 0.0
H260 H 0.37161 0.81602 0.33413 0.0
H261 H 0.20552 0.67724 0.34332 0.0
H262 H 0.15681 0.74097 0.26297 0.0
H263 H 0.27508 0.76634 0.81574 0.0
H264 H 0.35763 0.85221 0.9764 0.0
C265 C 0.51497 0.20845 0.33912 0.0
C266 C 0.54742 0.21371 0.37925 0.0
C267 C 0.57256 0.24488 0.35088 0.0
C268 C 0.55409 0.25681 0.29534 0.0
N269 N 0.51863 0.23566 0.28849 0.0
Co270 Co 0.48186 0.24076 0.20893 0.0
N271 N 0.51881 0.28204 0.15415 0.0
C272 C 0.55416 0.2952 0.16977 0.0
C273 C 0.57287 0.32533 0.12655 0.0
C274 C 0.54806 0.33242 0.08276 0.0
C275 C 0.51556 0.30615 0.10217 0.0
N276 N 0.4451 0.24664 0.1309 0.0
C277 C 0.44903 0.27459 0.08256 0.0
C278 C 0.41664 0.27051 0.04551 0.0
C279 C 0.39127 0.23942 0.07355 0.0
C280 C 0.40953 0.22639 0.12608 0.0
N281 N 0.44481 0.19886 0.26221 0.0
C282 C 0.4093 0.18423 0.24304 0.0
C283 C 0.39075 0.15337 0.284 0.0
C284 C 0.41586 0.14723 0.32974 0.0
C285 C 0.44837 0.17482 0.31386 0.0
N286 N 0.48224 0.27446 0.28829 0.0
C287 C 0.48014 0.32798 0.37503 0.0
C288 C 0.44927 0.29659 0.34682 0.0
C289 C 0.45099 0.27021 0.30596 0.0
C290 C 0.51236 0.33169 0.36114 0.0
C291 C 0.51283 0.30468 0.31832 0.0
N292 N 0.48111 0.20674 0.1295 0.0
C293 C 0.44662 0.15266 0.04526 0.0
C294 C 0.47664 0.15025 0.03954 0.0
C295 C 0.50928 0.17713 0.07813 0.0
C296 C 0.51096 0.20519 0.12186 0.0
C297 C 0.44949 0.18101 0.0887 0.0
H298 H 0.53656 0.22503 0.14994 0.0
H299 H 0.42546 0.18096 0.08979 0.0
H300 H 0.42642 0.24705 0.287 0.0
H301 H 0.53812 0.30909 0.30862 0.0
C302 C 0.56907 0.28322 0.23724 0.0
C303 C 0.48174 0.17565 0.34362 0.0
C304 C 0.48271 0.30678 0.07599 0.0
C305 C 0.3943 0.19786 0.1794 0.0
H306 H 0.55249 0.19584 0.42074 0.0
H307 H 0.60094 0.25596 0.36401 0.0
H308 H 0.60131 0.34178 0.13146 0.0
H309 H 0.5534 0.35539 0.04472 0.0
H310 H 0.41181 0.28895 0.00571 0.0
H311 H 0.36294 0.22878 0.0613 0.0
H312 H 0.36235 0.13628 0.27756 0.0
H313 H 0.41084 0.12422 0.36739 0.0
H314 H 0.42356 0.29248 0.35472 0.0
H315 H 0.53708 0.3553 0.3831 0.0
H316 H 0.42073 0.13251 0.01633 0.0
H317 H 0.53337 0.17674 0.07375 0.0
C318 C 0.96226 0.40253 0.90052 0.0
C319 C 0.07294 0.45532 0.85161 0.0
C320 C 0.06126 0.57353 0.81707 0.0
Mg321 Mg 1.00172 0.42346 0.74447 0.0
O322 O 0.99947 0.46451 0.76265 0.0
Mg323 Mg 0.02043 0.48978 0.87347 0.0
Mg324 Mg 0.01916 0.50468 0.68718 0.0
O325 O 0.03679 0.54497 0.61071 0.0
Mg326 Mg 0.02511 0.58024 0.63182 0.0
Mg327 Mg 0.01296 0.51736 0.50183 0.0
C328 C 0.97532 0.4355 0.55908 0.0
C329 C 0.07262 0.49646 0.57645 0.0
O330 O 0.98013 0.4351 0.92765 0.0
O331 O 0.96707 0.3927 0.83275 0.0
O332 O 0.06284 0.47353 0.88709 0.0
O333 O 0.05477 0.43524 0.78778 0.0
O334 O 0.98088 0.41519 0.61232 0.0
O335 O 0.98384 0.4674 0.5778 0.0
C336 C 0.96508 0.51443 0.7898 0.0
O337 O 0.97474 0.51556 0.71823 0.0
O338 O 0.97882 0.50585 0.85559 0.0
O339 O 0.04602 0.57177 0.44525 0.0
O340 O 0.05536 0.61348 0.53838 0.0
O341 O 0.96781 0.52796 0.49013 0.0
C342 C 0.06004 0.60442 0.46935 0.0
O343 O 0.96947 0.56408 0.5841 0.0
O344 O 0.05055 0.59074 0.76434 0.0
C345 C 0.95372 0.5435 0.51955 0.0
O346 O 0.05492 0.54191 0.80039 0.0
O347 O 0.06406 0.49405 0.65045 0.0
O348 O 0.05734 0.50527 0.51404 0.0
C349 C 0.45989 0.03325 0.83747 0.0
C350 C 0.40873 0.92657 0.7117 0.0
C351 C 0.53841 0.95156 0.69428 0.0
Mg352 Mg 0.43854 1.00213 0.65555 0.0
O353 O 0.48498 0.01036 0.68397 0.0
Mg354 Mg 0.49517 0.98452 0.77967 0.0
Mg355 Mg 0.50439 0.9994 0.59659 0.0
O356 O 0.52506 0.99037 0.50879 0.0
Mg357 Mg 0.57233 1.00055 0.53742 0.0
Mg358 Mg 0.51448 0.01774 0.41563 0.0
C359 C 0.47163 0.04814 0.50056 0.0
C360 C 0.43879 0.95048 0.44862 0.0
O361 O 0.47933 0.0186 0.85764 0.0
O362 O 0.44102 0.02778 0.76577 0.0
O363 O 0.43872 0.93812 0.75742 0.0
O364 O 0.40214 0.94619 0.6591 0.0
O365 O 0.44618 0.03426 0.54441 0.0
O366 O 0.49702 0.04102 0.51257 0.0
C367 C 0.57085 0.04709 0.74038 0.0
O368 O 0.55959 0.0424 0.66167 0.0
O369 O 0.5511 0.02881 0.79455 0.0
O370 O 0.53073 0.98738 0.33723 0.0
O371 O 0.56704 0.97375 0.42574 0.0
O372 O 0.57085 0.06443 0.42992 0.0
C373 C 0.5482 0.9708 0.35479 0.0
O374 O 0.60972 0.0573 0.5219 0.0
O375 O 0.56381 0.96685 0.64967 0.0
C376 C 0.60225 0.07612 0.46784 0.0
O377 O 0.51261 0.9584 0.68415 0.0
O378 O 0.4486 0.95462 0.52831 0.0
O379 O 0.45926 0.97154 0.39872 0.0
C380 C 0.55191 0.59896 0.38921 0.0
C381 C 0.60843 0.54103 0.47909 0.0
C382 C 0.47605 0.43864 0.55587 0.0
Mg383 Mg 0.58563 0.58742 0.56463 0.0
O384 O 0.54059 0.54822 0.56136 0.0
Mg385 Mg 0.52138 0.51469 0.46273 0.0
Mg386 Mg 0.52125 0.51551 0.65564 0.0
O387 O 0.49992 0.48219 0.74623 0.0
Mg388 Mg 0.45172 0.44785 0.72905 0.0
Mg389 Mg 0.51748 0.51315 0.84768 0.0
C390 C 0.56778 0.59118 0.75391 0.0
C391 C 0.58727 0.51913 0.78736 0.0
O392 O 0.53467 0.56496 0.37696 0.0
O393 O 0.57192 0.61355 0.45826 0.0
O394 O 0.57551 0.52015 0.45493 0.0
O395 O 0.61897 0.56816 0.52667 0.0
O396 O 0.58658 0.60238 0.69357 0.0
O397 O 0.53841 0.56118 0.74929 0.0
C398 C 0.45568 0.51344 0.52795 0.0
O399 O 0.4685 0.51467 0.60512 0.0
O400 O 0.47099 0.51164 0.46961 0.0
O401 O 0.49955 0.4585 0.92078 0.0
O402 O 0.45879 0.4165 0.82662 0.0
O403 O 0.46286 0.50941 0.8587 0.0
C404 C 0.47914 0.42558 0.89677 0.0
O405 O 0.41853 0.46581 0.77705 0.0
O406 O 0.45261 0.42909 0.60534 0.0
C407 C 0.42965 0.49048 0.83267 0.0
O408 O 0.50459 0.46921 0.56373 0.0
O409 O 0.57554 0.51824 0.70915 0.0
O410 O 0.56889 0.51659 0.84329 0.0
C411 C 0.11313 0.45852 0.45396 0.0
C412 C 0.14948 0.4838 0.46761 0.0
C413 C 0.08883 0.46069 0.49714 0.0
C414 C 0.09961 0.48798 0.55679 0.0
H415 H 0.1031 0.43747 0.4073 0.0
H416 H 0.06092 0.44198 0.48003 0.0
S417 S 0.19151 0.56022 0.61917 0.0
N418 N 0.19501 0.53658 0.54841 0.0
N419 N 0.14916 0.54019 0.62926 0.0
C420 C 0.13593 0.51237 0.57444 0.0
C421 C 0.16085 0.51035 0.53018 0.0
C422 C 0.65076 0.14425 0.30971 0.0
C423 C 0.68514 0.16478 0.35208 0.0
C424 C 0.62406 0.11718 0.34979 0.0
C425 C 0.63062 0.1087 0.43382 0.0
H426 H 0.64472 0.1483 0.24393 0.0
H427 H 0.59839 0.10159 0.31266 0.0
S428 S 0.71561 0.15709 0.57514 0.0
N429 N 0.72375 0.17742 0.48512 0.0
N430 N 0.67387 0.12503 0.55958 0.0
C431 C 0.66464 0.12993 0.47803 0.0
C432 C 0.69174 0.15833 0.4375 0.0
C433 C 0.51215 0.65422 0.28462 0.0
C434 C 0.53276 0.67153 0.22064 0.0
C435 C 0.51775 0.62977 0.33641 0.0
C436 C 0.54447 0.62192 0.32719 0.0
H437 H 0.49224 0.66043 0.29653 0.0
H438 H 0.50167 0.61765 0.38578 0.0
S439 S 0.60657 0.66077 0.17167 0.0
N440 N 0.5814 0.67933 0.15232 0.0
N441 N 0.59201 0.63371 0.24998 0.0
C442 C 0.5652 0.63887 0.26358 0.0
C443 C 0.55939 0.66363 0.21049 0.0
C444 C 0.88401 0.52403 0.33074 0.0
C445 C 0.86431 0.53875 0.35248 0.0
C446 C 0.91146 0.52445 0.38715 0.0
C447 C 0.92124 0.5404 0.46783 0.0
H448 H 0.87836 0.51238 0.26886 0.0
H449 H 0.92579 0.51295 0.3654 0.0
S450 S 0.87589 0.58059 0.55701 0.0
N451 N 0.85425 0.56758 0.46133 0.0
N452 N 0.90733 0.56978 0.56759 0.0
C453 C 0.90114 0.5546 0.49126 0.0
C454 C 0.87241 0.5535 0.43356 0.0
C455 C 0.36493 0.89242 0.27735 0.0
C456 C 0.34364 0.86108 0.31733 0.0
C457 C 0.394 0.92141 0.32195 0.0
C458 C 0.4043 0.9203 0.40873 0.0
H459 H 0.35963 0.89431 0.2102 0.0
H460 H 0.40929 0.94459 0.28663 0.0
S461 S 0.35778 0.84344 0.54254 0.0
N462 N 0.33425 0.83036 0.44875 0.0
N463 N 0.39039 0.88424 0.53252 0.0
C464 C 0.38306 0.88906 0.4499 0.0
C465 C 0.35263 0.85962 0.40424 0.0
C466 C 0.4978 0.39216 0.39968 0.0
C467 C 0.47831 0.35607 0.41976 0.0
C468 C 0.49584 0.41871 0.44107 0.0
C469 C 0.47403 0.41018 0.50358 0.0
H470 H 0.51468 0.39996 0.35156 0.0
H471 H 0.51192 0.44615 0.42475 0.0
S472 S 0.41922 0.31953 0.5826 0.0
N473 N 0.43806 0.31349 0.50936 0.0
N474 N 0.43316 0.3625 0.58457 0.0
C475 C 0.45418 0.37398 0.5235 0.0
C476 C 0.45666 0.34722 0.48242 0.0
C477 C 0.55292 0.87348 0.76727 0.0
C478 C 0.53113 0.85759 0.82947 0.0
C479 C 0.55544 0.90398 0.72609 0.0
C480 C 0.53613 0.92024 0.7445 0.0
H481 H 0.56874 0.86257 0.75133 0.0
H482 H 0.57261 0.91466 0.67848 0.0
S483 S 0.47592 0.88959 0.90498 0.0
N484 N 0.49025 0.86082 0.90884 0.0
N485 N 0.49472 0.91773 0.83146 0.0
C486 C 0.51403 0.90441 0.80648 0.0
C487 C 0.5116 0.87331 0.84877 0.0
C488 C 0.674 0.51769 0.80212 0.0
C489 C 0.68882 0.52844 0.88604 0.0
C490 C 0.64154 0.51566 0.76854 0.0
C491 C 0.62316 0.52439 0.81816 0.0
H492 H 0.68735 0.51042 0.7628 0.0
H493 H 0.63043 0.50641 0.7044 0.0
S494 S 0.65349 0.55718 0.04025 0.0
N495 N 0.68413 0.54937 0.01641 0.0
N496 N 0.62448 0.5472 0.95446 0.0
C497 C 0.63893 0.53662 0.9015 0.0
C498 C 0.6714 0.5382 0.93517 0.0
C499 C 0.15546 0.63655 0.90966 0.0
C500 C 0.15201 0.65211 0.97911 0.0
C501 C 0.1259 0.60868 0.86245 0.0
C502 C 0.09154 0.59582 0.88128 0.0
H503 H 0.18108 0.64696 0.88955 0.0
H504 H 0.12974 0.59862 0.80745 0.0
S505 S 0.0681 0.62682 0.0575 0.0
N506 N 0.11159 0.65155 0.06635 0.0
N507 N 0.0558 0.6002 0.97506 0.0
C508 C 0.08768 0.61063 0.95124 0.0
C509 C 0.11794 0.63854 1.00063 0.0
C510 C 0.4868 0.09856 0.02113 0.0
C511 C 0.4734 0.12093 0.98846 0.0
C512 C 0.4817 0.0696 0.97346 0.0
C513 C 0.46286 0.06189 0.89159 0.0
H514 H 0.50091 0.10322 0.08422 0.0
H515 H 0.49269 0.05329 1.00083 0.0
S516 S 0.42518 0.11501 0.77581 0.0
N517 N 0.44283 0.13509 0.8682 0.0
N518 N 0.43231 0.08108 0.77949 0.0
C519 C 0.44979 0.08471 0.8585 0.0
C520 C 0.45533 0.11408 0.90657 0.0
C521 C 0.34748 0.46407 0.93781 0.0
C522 C 0.35748 0.4937 0.99001 0.0
C523 C 0.36989 0.464 0.88376 0.0
C524 C 0.40371 0.49355 0.87875 0.0
H525 H 0.32205 0.44036 0.93895 0.0
H526 H 0.36102 0.43995 0.84781 0.0
S527 S 0.44216 0.57928 0.99589 0.0
N528 N 0.4038 0.55426 0.02942 0.0
N529 N 0.44468 0.55448 0.92643 0.0
C530 C 0.41345 0.5239 0.92771 0.0
C531 C 0.39078 0.52393 0.98326 0.0
C532 C 0.87656 0.3184 0.92994 0.0
C533 C 0.86947 0.32428 0.00716 0.0
C534 C 0.9071 0.34345 0.89798 0.0
C535 C 0.9318 0.37571 0.94152 0.0
H536 H 0.85844 0.29402 0.89436 0.0
H537 H 0.91094 0.33747 0.83762 0.0
S538 S 0.92489 0.40299 0.14836 0.0
N539 N 0.8891 0.36372 0.12788 0.0
N540 N 0.94653 0.41155 0.06758 0.0
C541 C 0.92477 0.38182 0.01933 0.0
C542 C 0.8936 0.35596 0.05208 0.0
C543 C 0.8773 0.50157 0.82553 0.0
C544 C 0.88753 0.53116 0.87775 0.0
C545 C 0.90222 0.49797 0.78815 0.0
C546 C 0.93817 0.52395 0.8011 0.0
H547 H 0.85008 0.48026 0.8164 0.0
H548 H 0.89371 0.47358 0.75392 0.0
S549 S 0.97865 0.60755 0.92613 0.0
N550 N 0.93633 0.58782 0.93598 0.0
N551 N 0.98255 0.58109 0.86434 0.0
C552 C 0.94838 0.5546 0.8483 0.0
C553 C 0.92323 0.55826 0.88681 0.0
C554 C 0.36834 0.83692 0.80632 0.0
C555 C 0.33495 0.83144 0.81569 0.0
C556 C 0.39081 0.86595 0.76247 0.0
C557 C 0.38078 0.89068 0.72849 0.0
H558 H 0.3783 0.8206 0.83929 0.0
H559 H 0.41728 0.87069 0.76112 0.0
S560 S 0.2932 0.88364 0.72298 0.0
N561 N 0.29049 0.84914 0.77693 0.0
N562 N 0.3331 0.90438 0.69512 0.0
C563 C 0.34584 0.88294 0.7287 0.0
C564 C 0.3228 0.8531 0.77276 0.0
C565 C 0.48813 0.36754 0.07512 0.0
C566 C 0.48331 0.33793 0.03119 0.0
C567 C 0.4876 0.39654 0.0322 0.0
C568 C 0.48182 0.39642 0.94418 0.0
H569 H 0.49195 0.36806 0.14287 0.0
H570 H 0.49088 0.41865 0.06787 0.0
S571 S 0.47141 0.32617 0.80187 0.0
N572 N 0.47514 0.31117 0.89663 0.0
N573 N 0.47407 0.3649 0.81545 0.0
C574 C 0.4781 0.36715 0.90031 0.0
C575 C 0.47885 0.33809 0.94393 0.0
C576 C 0.13567 0.44996 0.02683 0.0
C577 C 0.16582 0.45967 0.98957 0.0
C578 C 0.10532 0.44743 0.98004 0.0
C579 C 0.10395 0.45413 0.89427 0.0
H580 H 0.13597 0.44558 0.09335 0.0
H581 H 0.08297 0.44102 0.01168 0.0
S582 S 0.17499 0.4782 0.76612 0.0
N583 N 0.19229 0.4745 0.86178 0.0
N584 N 0.13419 0.46898 0.77223 0.0
C585 C 0.13315 0.46208 0.85492 0.0
C586 C 0.16447 0.46509 0.90317 0.0
C587 C 0.6553 0.09153 0.89035 0.0
C588 C 0.66987 0.12731 0.86825 0.0
C589 C 0.62458 0.06523 0.84371 0.0
C590 C 0.60749 0.07368 0.77285 0.0
H591 H 0.66603 0.08409 0.94773 0.0
H592 H 0.61291 0.03831 0.86625 0.0
S593 S 0.63871 0.16238 0.67995 0.0
N594 N 0.66788 0.16927 0.76439 0.0
N595 N 0.60985 0.11937 0.67614 0.0
C596 C 0.62364 0.1087 0.74511 0.0
C597 C 0.65489 0.13569 0.79323 0.0
C598 C 0.59791 0.68124 0.84478 0.0
C599 C 0.57666 0.67273 0.90752 0.0
C600 C 0.59807 0.65443 0.80146 0.0
C601 C 0.57654 0.6182 0.81893 0.0
H602 H 0.61181 0.7083 0.8237 0.0
H603 H 0.61262 0.66225 0.74879 0.0
S604 S 0.52729 0.58444 0.99954 0.0
N605 N 0.54111 0.62747 1.00016 0.0
N606 N 0.54183 0.5768 0.9192 0.0
C607 C 0.55954 0.61013 0.89003 0.0
C608 C 0.5594 0.63753 0.93415 0.0
C609 C 0.47705 0.11567 0.33466 0.0
C610 C 0.48167 0.14397 0.3836 0.0
C611 C 0.47511 0.08476 0.37219 0.0
C612 C 0.47742 0.08142 0.45943 0.0
H613 H 0.47443 0.11731 0.26713 0.0
H614 H 0.47078 0.06309 0.33297 0.0
S615 S 0.49121 0.14877 0.61426 0.0
N616 N 0.48973 0.1672 0.52279 0.0
N617 N 0.486 0.10945 0.59346 0.0
C618 C 0.48284 0.10996 0.50857 0.0
C619 C 0.48495 0.14119 0.4706 0.0
C620 C 0.38404 0.51995 0.38264 0.0
C621 C 0.35888 0.51283 0.43425 0.0
C622 C 0.41577 0.52153 0.41529 0.0
C623 C 0.42334 0.51564 0.50086 0.0
H624 H 0.37851 0.52283 0.3159 0.0
H625 H 0.43398 0.52638 0.37179 0.0
S626 S 0.36719 0.5016 0.66334 0.0
N627 N 0.34408 0.50412 0.57522 0.0
N628 N 0.40435 0.50675 0.63793 0.0
C629 C 0.39918 0.51101 0.55425 0.0
C630 C 0.36668 0.50961 0.5205 0.0
C631 C 0.92512 0.36717 0.38753 0.0
C632 C 0.89147 0.36422 0.37978 0.0
C633 C 0.95395 0.39326 0.43967 0.0
C634 C 0.95042 0.41801 0.48348 0.0
H635 H 0.92887 0.34815 0.35624 0.0
H636 H 0.97858 0.39273 0.44981 0.0
S637 S 0.86987 0.42533 0.47701 0.0
N638 N 0.85732 0.39043 0.41648 0.0
N639 N 0.91239 0.44088 0.50948 0.0
C640 C 0.91813 0.41782 0.46984 0.0
C641 C 0.88836 0.39053 0.41916 0.0
C642 C 0.54931 0.8911 0.28147 0.0
C643 C 0.51394 0.86933 0.24631 0.0
C644 C 0.56117 0.92556 0.30986 0.0
C645 C 0.53805 0.93936 0.30368 0.0
H646 H 0.56811 0.88169 0.2854 0.0
H647 H 0.5884 0.94116 0.33912 0.0
S648 S 0.44257 0.8922 0.21564 0.0
N649 N 0.45589 0.86333 0.20571 0.0
N650 N 0.47784 0.92824 0.25923 0.0
C651 C 0.50262 0.91788 0.26687 0.0
C652 C 0.4906 0.88273 0.2386 0.0
C653 C 0.64467 0.51258 0.31809 0.0
C654 C 0.68148 0.53491 0.33606 0.0
C655 C 0.62167 0.51332 0.3679 0.0
C656 C 0.63428 0.5367 0.43789 0.0
H657 H 0.63328 0.49517 0.26315 0.0
H658 H 0.59356 0.49634 0.34872 0.0
S659 S 0.72882 0.59721 0.5189 0.0
N660 N 0.72984 0.57833 0.43432 0.0
N661 N 0.68657 0.58043 0.52687 0.0
C662 C 0.67119 0.55801 0.45902 0.0
C663 C 0.69472 0.55703 0.40836 0.0
C664 C 0.12767 0.64586 0.32184 0.0
C665 C 0.14642 0.6817 0.34769 0.0
C666 C 0.09826 0.62146 0.35794 0.0
C667 C 0.08674 0.63201 0.42189 0.0
H668 H 0.13601 0.63657 0.27369 0.0
H669 H 0.0854 0.5939 0.33748 0.0
S670 S 0.12558 0.72413 0.50561 0.0
N671 N 0.15062 0.72753 0.43564 0.0
N672 N 0.09513 0.68173 0.5047 0.0
C673 C 0.10445 0.66834 0.44538 0.0
C674 C 0.13439 0.6932 0.40801 0.0
loop_
_geom_bond_atom_site_label_1
_geom_bond_atom_site_label_2
_geom_bond_distance
_geom_bond_site_symmetry_2
_ccdc_geom_bond_type
C0 C1 1.443 . S
C0 N4 1.376 . S
C0 C38 1.389 . S
C1 C0 1.443 . S
C1 C2 1.340 . S
C1 H41 0.951 . S
C2 C1 1.340 . S
C2 C3 1.439 . S
C2 H42 0.950 . S
C3 C2 1.439 . S
C3 N4 1.374 . S
C3 C37 1.395 . S
N4 C0 1.376 . S
N4 C3 1.374 . S
N4 Co5 2.008 . S
Co5 N4 2.008 . S
Co5 N6 1.995 . S
Co5 N11 2.008 . S
Co5 N16 1.995 . S
Co5 N21 2.282 . S
Co5 N27 2.282 . S
N6 Co5 1.995 . S
N6 C7 1.376 . S
N6 C10 1.383 . S
C7 N6 1.376 . S
C7 C8 1.446 . S
C7 C37 1.391 . S
C8 C7 1.446 . S
C8 C9 1.339 . S
C8 H43 0.949 . S
C9 C8 1.339 . S
C9 C10 1.439 . S
C9 H44 0.950 . S
C10 N6 1.383 . S
C10 C9 1.439 . S
C10 C39 1.392 . S
N11 Co5 2.008 . S
N11 C12 1.376 . S
N11 C15 1.374 . S
C12 N11 1.376 . S
C12 C13 1.443 . S
C12 C39 1.389 . S
C13 C12 1.443 . S
C13 C14 1.340 . S
C13 H45 0.951 . S
C14 C13 1.340 . S
C14 C15 1.439 . S
C14 H46 0.950 . S
C15 N11 1.374 . S
C15 C14 1.439 . S
C15 C40 1.395 . S
N16 Co5 1.995 . S
N16 C17 1.376 . S
N16 C20 1.383 . S
C17 N16 1.376 . S
C17 C18 1.446 . S
C17 C40 1.391 . S
C18 C17 1.446 . S
C18 C19 1.339 . S
C18 H47 0.949 . S
C19 C18 1.339 . S
C19 C20 1.439 . S
C19 H48 0.950 . S
C20 N16 1.383 . S
C20 C19 1.439 . S
C20 C38 1.392 . S
N21 Co5 2.282 . S
N21 C24 1.332 . S
N21 C26 1.332 . S
C22 C23 1.386 . S
C22 C25 1.388 . S
C23 C22 1.386 . S
C23 C24 1.382 . S
C23 H49 0.950 . S
C24 N21 1.332 . S
C24 C23 1.382 . S
C24 H35 0.952 . S
C25 C22 1.388 . S
C25 C26 1.382 . S
C25 H50 0.950 . S
C26 N21 1.332 . S
C26 C25 1.382 . S
C26 H36 0.948 . S
N27 Co5 2.282 . S
N27 C31 1.332 . S
N27 C32 1.332 . S
C28 C29 1.388 . S
C28 C32 1.382 . S
C28 H51 0.950 . S
C29 C28 1.388 . S
C29 C30 1.386 . S
C30 C29 1.386 . S
C30 C31 1.382 . S
C30 H52 0.950 . S
C31 N27 1.332 . S
C31 C30 1.382 . S
C31 H33 0.952 . S
C32 N27 1.332 . S
C32 C28 1.382 . S
C32 H34 0.948 . S
H33 C31 0.952 . S
H34 C32 0.948 . S
H35 C24 0.952 . S
H36 C26 0.948 . S
C37 C3 1.395 . S
C37 C7 1.391 . S
C38 C0 1.389 . S
C38 C20 1.392 . S
C39 C10 1.392 . S
C39 C12 1.389 . S
C40 C15 1.395 . S
C40 C17 1.391 . S
H41 C1 0.951 . S
H42 C2 0.950 . S
H43 C8 0.949 . S
H44 C9 0.950 . S
H45 C13 0.951 . S
H46 C14 0.950 . S
H47 C18 0.949 . S
H48 C19 0.950 . S
H49 C23 0.950 . S
H50 C25 0.950 . S
H51 C28 0.950 . S
H52 C30 0.950 . S
C53 C54 1.443 . S
C53 N57 1.376 . S
C53 C91 1.389 . S
C54 C53 1.443 . S
C54 C55 1.340 . S
C54 H94 0.951 . S
C55 C54 1.340 . S
C55 C56 1.439 . S
C55 H95 0.950 . S
C56 C55 1.439 . S
C56 N57 1.374 . S
C56 C90 1.395 . S
N57 C53 1.376 . S
N57 C56 1.374 . S
N57 Co58 2.008 . S
Co58 N57 2.008 . S
Co58 N59 1.995 . S
Co58 N64 2.008 . S
Co58 N69 1.995 . S
Co58 N74 2.282 . S
Co58 N80 2.282 . S
N59 Co58 1.995 . S
N59 C60 1.376 . S
N59 C63 1.383 . S
C60 N59 1.376 . S
C60 C61 1.446 . S
C60 C90 1.391 . S
C61 C60 1.446 . S
C61 C62 1.339 . S
C61 H96 0.949 . S
C62 C61 1.339 . S
C62 C63 1.439 . S
C62 H97 0.950 . S
C63 N59 1.383 . S
C63 C62 1.439 . S
C63 C92 1.392 . S
N64 Co58 2.008 . S
N64 C65 1.376 . S
N64 C68 1.374 . S
C65 N64 1.376 . S
C65 C66 1.443 . S
C65 C92 1.389 . S
C66 C65 1.443 . S
C66 C67 1.340 . S
C66 H98 0.951 . S
C67 C66 1.340 . S
C67 C68 1.439 . S
C67 H99 0.950 . S
C68 N64 1.374 . S
C68 C67 1.439 . S
C68 C93 1.395 . S
N69 Co58 1.995 . S
N69 C70 1.376 . S
N69 C73 1.383 . S
C70 N69 1.376 . S
C70 C71 1.446 . S
C70 C93 1.391 . S
C71 C70 1.446 . S
C71 C72 1.339 . S
C71 H100 0.949 . S
C72 C71 1.339 . S
C72 C73 1.439 . S
C72 H101 0.950 . S
C73 N69 1.383 . S
C73 C72 1.439 . S
C73 C91 1.392 . S
N74 Co58 2.282 . S
N74 C77 1.332 . S
N74 C79 1.332 . S
C75 C76 1.386 . S
C75 C78 1.388 1_556 S
C76 C75 1.386 . S
C76 C77 1.382 1_556 S
C76 H102 0.950 . S
C77 N74 1.332 . S
C77 C76 1.382 1_554 S
C77 H88 0.952 . S
C78 C75 1.388 1_554 S
C78 C79 1.382 . S
C78 H103 0.950 . S
C79 N74 1.332 . S
C79 C78 1.382 . S
C79 H89 0.948 . S
N80 Co58 2.282 . S
N80 C84 1.332 . S
N80 C85 1.332 . S
C81 C82 1.388 . S
C81 C85 1.382 . S
C81 H104 0.950 . S
C82 C81 1.388 . S
C82 C83 1.386 . S
C83 C82 1.386 . S
C83 C84 1.382 . S
C83 H105 0.950 . S
C84 N80 1.332 . S
C84 C83 1.382 . S
C84 H86 0.952 . S
C85 N80 1.332 . S
C85 C81 1.382 . S
C85 H87 0.948 . S
H86 C84 0.952 . S
H87 C85 0.948 . S
H88 C77 0.952 . S
H89 C79 0.948 . S
C90 C56 1.395 . S
C90 C60 1.391 . S
C91 C53 1.389 . S
C91 C73 1.392 . S
C92 C63 1.392 . S
C92 C65 1.389 . S
C93 C68 1.395 . S
C93 C70 1.391 . S
H94 C54 0.951 . S
H95 C55 0.950 . S
H96 C61 0.949 . S
H97 C62 0.950 . S
H98 C66 0.951 . S
H99 C67 0.950 . S
H100 C71 0.949 . S
H101 C72 0.950 . S
H102 C76 0.950 . S
H103 C78 0.950 . S
H104 C81 0.950 . S
H105 C83 0.950 . S
C106 C107 1.443 . S
C106 N110 1.376 . S
C106 C144 1.389 . S
C107 C106 1.443 . S
C107 C108 1.340 . S
C107 H147 0.951 . S
C108 C107 1.340 . S
C108 C109 1.439 . S
C108 H148 0.950 . S
C109 C108 1.439 . S
C109 N110 1.374 . S
C109 C143 1.395 . S
N110 C106 1.376 . S
N110 C109 1.374 . S
N110 Co111 2.008 . S
Co111 N110 2.008 . S
Co111 N112 1.995 1_554 S
Co111 N117 2.008 1_554 S
Co111 N122 1.995 . S
Co111 N127 2.282 . S
Co111 N133 2.282 1_554 S
N112 Co111 1.995 1_556 S
N112 C113 1.376 . S
N112 C116 1.383 . S
C113 N112 1.376 . S
C113 C114 1.446 . S
C113 C143 1.391 1_556 S
C114 C113 1.446 . S
C114 C115 1.339 . S
C114 H149 0.949 . S
C115 C114 1.339 . S
C115 C116 1.439 . S
C115 H150 0.950 . S
C116 N112 1.383 . S
C116 C115 1.439 . S
C116 C145 1.392 . S
N117 Co111 2.008 1_556 S
N117 C118 1.376 . S
N117 C121 1.374 . S
C118 N117 1.376 . S
C118 C119 1.443 . S
C118 C145 1.389 . S
C119 C118 1.443 . S
C119 C120 1.340 . S
C119 H151 0.951 . S
C120 C119 1.340 . S
C120 C121 1.439 . S
C120 H152 0.950 . S
C121 N117 1.374 . S
C121 C120 1.439 . S
C121 C146 1.395 1_556 S
N122 Co111 1.995 . S
N122 C123 1.376 . S
N122 C126 1.383 . S
C123 N122 1.376 . S
C123 C124 1.446 . S
C123 C146 1.391 . S
C124 C123 1.446 . S
C124 C125 1.339 . S
C124 H153 0.949 . S
C125 C124 1.339 . S
C125 C126 1.439 . S
C125 H154 0.950 . S
C126 N122 1.383 . S
C126 C125 1.439 . S
C126 C144 1.392 . S
N127 Co111 2.282 . S
N127 C130 1.332 . S
N127 C132 1.332 . S
C128 C129 1.386 . S
C128 C131 1.388 . S
C129 C128 1.386 . S
C129 C130 1.382 . S
C129 H155 0.950 . S
C130 N127 1.332 . S
C130 C129 1.382 . S
C130 H141 0.952 . S
C131 C128 1.388 . S
C131 C132 1.382 . S
C131 H156 0.950 . S
C132 N127 1.332 . S
C132 C131 1.382 . S
C132 H142 0.948 . S
N133 Co111 2.282 1_556 S
N133 C137 1.332 . S
N133 C138 1.332 . S
C134 C135 1.388 . S
C134 C138 1.382 . S
C134 H157 0.950 . S
C135 C134 1.388 . S
C135 C136 1.386 . S
C136 C135 1.386 . S
C136 C137 1.382 . S
C136 H158 0.950 . S
C137 N133 1.332 . S
C137 C136 1.382 . S
C137 H139 0.952 . S
C138 N133 1.332 . S
C138 C134 1.382 . S
C138 H140 0.948 . S
H139 C137 0.952 . S
H140 C138 0.948 . S
H141 C130 0.952 . S
H142 C132 0.948 . S
C143 C109 1.395 . S
C143 C113 1.391 1_554 S
C144 C106 1.389 . S
C144 C126 1.392 . S
C145 C116 1.392 . S
C145 C118 1.389 . S
C146 C121 1.395 1_554 S
C146 C123 1.391 . S
H147 C107 0.951 . S
H148 C108 0.950 . S
H149 C114 0.949 . S
H150 C115 0.950 . S
H151 C119 0.951 . S
H152 C120 0.950 . S
H153 C124 0.949 . S
H154 C125 0.950 . S
H155 C129 0.950 . S
H156 C131 0.950 . S
H157 C134 0.950 . S
H158 C136 0.950 . S
C159 C160 1.443 . S
C159 N163 1.376 . S
C159 C197 1.389 . S
C160 C159 1.443 . S
C160 C161 1.340 . S
C160 H200 0.951 . S
C161 C160 1.340 . S
C161 C162 1.439 . S
C161 H201 0.950 . S
C162 C161 1.439 . S
C162 N163 1.374 . S
C162 C196 1.395 . S
N163 C159 1.376 . S
N163 C162 1.374 . S
N163 Co164 2.008 . S
Co164 N163 2.008 . S
Co164 N165 1.995 . S
Co164 N170 2.008 . S
Co164 N175 1.995 . S
Co164 N180 2.282 . S
Co164 N186 2.282 . S
N165 Co164 1.995 . S
N165 C166 1.376 . S
N165 C169 1.383 1_554 S
C166 N165 1.376 . S
C166 C167 1.446 1_554 S
C166 C196 1.391 . S
C167 C166 1.446 1_556 S
C167 C168 1.339 . S
C167 H202 0.949 . S
C168 C167 1.339 . S
C168 C169 1.439 . S
C168 H203 0.950 . S
C169 N165 1.383 1_556 S
C169 C168 1.439 . S
C169 C198 1.392 . S
N170 Co164 2.008 . S
N170 C171 1.376 1_554 S
N170 C174 1.374 . S
C171 N170 1.376 1_556 S
C171 C172 1.443 . S
C171 C198 1.389 . S
C172 C171 1.443 . S
C172 C173 1.337 1_556 S
C172 H204 0.951 . S
C173 C172 1.337 1_554 S
C173 C174 1.442 . S
C173 H205 0.951 1_554 S
C174 N170 1.374 . S
C174 C173 1.442 . S
C174 C199 1.395 . S
N175 Co164 1.995 . S
N175 C176 1.376 . S
N175 C179 1.383 . S
C176 N175 1.376 . S
C176 C177 1.446 . S
C176 C199 1.391 . S
C177 C176 1.446 . S
C177 C178 1.339 . S
C177 H206 0.949 . S
C178 C177 1.339 . S
C178 C179 1.439 . S
C178 H207 0.950 . S
C179 N175 1.383 . S
C179 C178 1.439 . S
C179 C197 1.392 . S
N180 Co164 2.282 . S
N180 C183 1.332 . S
N180 C185 1.332 . S
C181 C182 1.386 . S
C181 C184 1.388 . S
C182 C181 1.386 . S
C182 C183 1.382 . S
C182 H208 0.950 . S
C183 N180 1.332 . S
C183 C182 1.382 . S
C183 H194 0.952 . S
C184 C181 1.388 . S
C184 C185 1.382 . S
C184 H209 0.950 . S
C185 N180 1.332 . S
C185 C184 1.382 . S
C185 H195 0.948 . S
N186 Co164 2.282 . S
N186 C190 1.332 1_554 S
N186 C191 1.332 1_554 S
C187 C188 1.388 . S
C187 C191 1.382 . S
C187 H210 0.950 . S
C188 C187 1.388 . S
C188 C189 1.386 . S
C189 C188 1.386 . S
C189 C190 1.382 . S
C189 H211 0.950 . S
C190 N186 1.332 1_556 S
C190 C189 1.382 . S
C190 H192 0.952 . S
C191 N186 1.332 1_556 S
C191 C187 1.382 . S
C191 H193 0.948 1_556 S
H192 C190 0.952 . S
H193 C191 0.948 1_554 S
H194 C183 0.952 . S
H195 C185 0.948 . S
C196 C162 1.395 . S
C196 C166 1.391 . S
C197 C159 1.389 . S
C197 C179 1.392 . S
C198 C169 1.392 . S
C198 C171 1.389 . S
C199 C174 1.395 . S
C199 C176 1.391 . S
H200 C160 0.951 . S
H201 C161 0.950 . S
H202 C167 0.949 . S
H203 C168 0.950 . S
H204 C172 0.951 . S
H205 C173 0.951 1_556 S
H206 C177 0.949 . S
H207 C178 0.950 . S
H208 C182 0.950 . S
H209 C184 0.950 . S
H210 C187 0.950 . S
H211 C189 0.950 . S
C212 C213 1.443 . S
C212 N216 1.376 . S
C212 C250 1.389 . S
C213 C212 1.443 . S
C213 C214 1.340 . S
C213 H253 0.951 . S
C214 C213 1.340 . S
C214 C215 1.439 . S
C214 H254 0.950 . S
C215 C214 1.439 . S
C215 N216 1.374 . S
C215 C249 1.395 . S
N216 C212 1.376 . S
N216 C215 1.374 . S
N216 Co217 2.008 . S
Co217 N216 2.008 . S
Co217 N218 1.995 . S
Co217 N223 2.008 . S
Co217 N228 1.995 . S
Co217 N233 2.282 . S
Co217 N239 2.292 . S
N218 Co217 1.995 . S
N218 C219 1.376 . S
N218 C222 1.383 1_554 S
C219 N218 1.376 . S
C219 C220 1.446 1_554 S
C219 C249 1.391 . S
C220 C219 1.446 1_556 S
C220 C221 1.339 . S
C220 H255 0.949 . S
C221 C220 1.339 . S
C221 C222 1.439 . S
C221 H256 0.950 . S
C222 N218 1.383 1_556 S
C222 C221 1.439 . S
C222 C251 1.392 . S
N223 Co217 2.008 . S
N223 C224 1.376 . S
N223 C227 1.374 . S
C224 N223 1.376 . S
C224 C225 1.443 . S
C224 C251 1.389 1_554 S
C225 C224 1.443 . S
C225 C226 1.340 . S
C225 H257 0.951 1_554 S
C226 C225 1.340 . S
C226 C227 1.439 . S
C226 H258 0.950 . S
C227 N223 1.374 . S
C227 C226 1.439 . S
C227 C252 1.395 . S
N228 Co217 1.995 . S
N228 C229 1.376 . S
N228 C232 1.383 . S
C229 N228 1.376 . S
C229 C230 1.446 . S
C229 C252 1.391 . S
C230 C229 1.446 . S
C230 C231 1.339 . S
C230 H259 0.949 . S
C231 C230 1.339 . S
C231 C232 1.439 . S
C231 H260 0.950 . S
C232 N228 1.383 . S
C232 C231 1.439 . S
C232 C250 1.392 . S
N233 Co217 2.282 . S
N233 C236 1.332 . S
N233 C238 1.332 . S
C234 C235 1.386 . S
C234 C237 1.388 . S
C235 C234 1.386 . S
C235 C236 1.382 . S
C235 H261 0.950 . S
C236 N233 1.332 . S
C236 C235 1.382 . S
C236 H247 0.952 . S
C237 C234 1.388 . S
C237 C238 1.382 . S
C237 H262 0.950 . S
C238 N233 1.332 . S
C238 C237 1.382 . S
C238 H248 0.948 . S
N239 Co217 2.292 . S
N239 C243 1.326 1_554 S
N239 C244 1.332 . S
C240 C241 1.388 . S
C240 C244 1.375 1_556 S
C240 H263 0.950 . S
C241 C240 1.388 . S
C241 C242 1.386 . S
C242 C241 1.386 . S
C242 C243 1.382 . S
C242 H264 0.950 . S
C243 N239 1.326 1_556 S
C243 C242 1.382 . S
C243 H245 0.952 . S
C244 N239 1.332 . S
C244 C240 1.375 1_554 S
C244 H246 0.954 . S
H245 C243 0.952 . S
H246 C244 0.954 . S
H247 C236 0.952 . S
H248 C238 0.948 . S
C249 C215 1.395 . S
C249 C219 1.391 . S
C250 C212 1.389 . S
C250 C232 1.392 . S
C251 C222 1.392 . S
C251 C224 1.389 1_556 S
C252 C227 1.395 . S
C252 C229 1.391 . S
H253 C213 0.951 . S
H254 C214 0.950 . S
H255 C220 0.949 . S
H256 C221 0.950 . S
H257 C225 0.951 1_556 S
H258 C226 0.950 . S
H259 C230 0.949 . S
H260 C231 0.950 . S
H261 C235 0.950 . S
H262 C237 0.950 . S
H263 C240 0.950 . S
H264 C242 0.950 . S
C265 C266 1.443 . S
C265 N269 1.376 . S
C265 C303 1.389 . S
C266 C265 1.443 . S
C266 C267 1.340 . S
C266 H306 0.951 . S
C267 C266 1.340 . S
C267 C268 1.439 . S
C267 H307 0.950 . S
C268 C267 1.439 . S
C268 N269 1.374 . S
C268 C302 1.395 . S
N269 C265 1.376 . S
N269 C268 1.374 . S
N269 Co270 2.008 . S
Co270 N269 2.008 . S
Co270 N271 1.995 . S
Co270 N276 2.008 . S
Co270 N281 1.995 . S
Co270 N286 2.282 . S
Co270 N292 2.282 . S
N271 Co270 1.995 . S
N271 C272 1.376 . S
N271 C275 1.383 . S
C272 N271 1.376 . S
C272 C273 1.446 . S
C272 C302 1.391 . S
C273 C272 1.446 . S
C273 C274 1.339 . S
C273 H308 0.949 . S
C274 C273 1.339 . S
C274 C275 1.439 . S
C274 H309 0.950 . S
C275 N271 1.383 . S
C275 C274 1.439 . S
C275 C304 1.392 . S
N276 Co270 2.008 . S
N276 C277 1.376 . S
N276 C280 1.374 . S
C277 N276 1.376 . S
C277 C278 1.443 . S
C277 C304 1.389 . S
C278 C277 1.443 . S
C278 C279 1.340 . S
C278 H310 0.951 . S
C279 C278 1.340 . S
C279 C280 1.439 . S
C279 H311 0.950 . S
C280 N276 1.374 . S
C280 C279 1.439 . S
C280 C305 1.395 . S
N281 Co270 1.995 . S
N281 C282 1.376 . S
N281 C285 1.383 . S
C282 N281 1.376 . S
C282 C283 1.446 . S
C282 C305 1.391 . S
C283 C282 1.446 . S
C283 C284 1.339 . S
C283 H312 0.949 . S
C284 C283 1.339 . S
C284 C285 1.439 . S
C284 H313 0.950 . S
C285 N281 1.383 . S
C285 C284 1.439 . S
C285 C303 1.392 . S
N286 Co270 2.282 . S
N286 C289 1.332 . S
N286 C291 1.332 . S
C287 C288 1.386 . S
C287 C290 1.388 . S
C288 C287 1.386 . S
C288 C289 1.382 . S
C288 H314 0.950 . S
C289 N286 1.332 . S
C289 C288 1.382 . S
C289 H300 0.952 . S
C290 C287 1.388 . S
C290 C291 1.382 . S
C290 H315 0.950 . S
C291 N286 1.332 . S
C291 C290 1.382 . S
C291 H301 0.948 . S
N292 Co270 2.282 . S
N292 C296 1.332 . S
N292 C297 1.332 . S
C293 C294 1.388 . S
C293 C297 1.382 . S
C293 H316 0.950 . S
C294 C293 1.388 . S
C294 C295 1.386 . S
C295 C294 1.386 . S
C295 C296 1.382 . S
C295 H317 0.950 . S
C296 N292 1.332 . S
C296 C295 1.382 . S
C296 H298 0.952 . S
C297 N292 1.332 . S
C297 C293 1.382 . S
C297 H299 0.948 . S
H298 C296 0.952 . S
H299 C297 0.948 . S
H300 C289 0.952 . S
H301 C291 0.948 . S
C302 C268 1.395 . S
C302 C272 1.391 . S
C303 C265 1.389 . S
C303 C285 1.392 . S
C304 C275 1.392 . S
C304 C277 1.389 . S
C305 C280 1.395 . S
C305 C282 1.391 . S
H306 C266 0.951 . S
H307 C267 0.950 . S
H308 C273 0.949 . S
H309 C274 0.950 . S
H310 C278 0.951 . S
H311 C279 0.950 . S
H312 C283 0.949 . S
H313 C284 0.950 . S
H314 C288 0.950 . S
H315 C290 0.950 . S
H316 C293 0.950 . S
H317 C295 0.950 . S
C318 O330 1.241 . S
C318 O331 1.280 . S
C319 O332 1.277 . S
C319 O333 1.245 . S
C320 O344 1.247 . S
C320 O346 1.289 . S
Mg321 O322 1.932 1_655 S
Mg321 O331 1.992 . S
Mg321 O333 1.978 1_655 S
Mg321 O334 2.066 . S
O322 Mg321 1.932 1_455 S
O322 Mg323 1.986 . S
O322 Mg324 1.917 . S
Mg323 O322 1.986 . S
Mg323 O330 2.042 1_455 S
Mg323 O332 2.041 . S
Mg323 O338 2.038 1_455 S
Mg323 O346 2.238 . S
Mg324 O322 1.917 . S
Mg324 O325 1.917 . S
Mg324 O335 2.106 1_455 S
Mg324 O337 2.079 1_455 S
Mg324 O346 2.106 . S
Mg324 O347 2.079 . S
O325 Mg324 1.917 . S
O325 Mg326 1.926 . S
O325 Mg327 1.986 . S
Mg326 O325 1.926 . S
Mg326 O340 1.984 . S
Mg326 O343 1.988 1_455 S
Mg326 O344 2.061 . S
Mg327 O325 1.986 . S
Mg327 O335 2.238 1_455 S
Mg327 O339 2.042 . S
Mg327 O341 2.041 1_455 S
Mg327 O348 2.038 . S
C328 O334 1.247 . S
C328 O335 1.289 . S
C329 O347 1.245 . S
C329 O348 1.274 . S
O330 C318 1.241 . S
O330 Mg323 2.042 1_655 S
O331 C318 1.280 . S
O331 Mg321 1.992 . S
O332 C319 1.277 . S
O332 Mg323 2.041 . S
O333 C319 1.245 . S
O333 Mg321 1.978 1_455 S
O334 Mg321 2.066 . S
O334 C328 1.247 . S
O335 Mg324 2.106 1_655 S
O335 Mg327 2.238 1_655 S
O335 C328 1.289 . S
C336 O337 1.245 . S
C336 O338 1.274 . S
O337 Mg324 2.079 1_655 S
O337 C336 1.245 . S
O338 Mg323 2.038 1_655 S
O338 C336 1.274 . S
O339 Mg327 2.042 . S
O339 C342 1.241 . S
O340 Mg326 1.984 . S
O340 C342 1.280 . S
O341 Mg327 2.041 1_655 S
O341 C345 1.277 . S
C342 O339 1.241 . S
C342 O340 1.280 . S
O343 Mg326 1.988 1_655 S
O343 C345 1.245 . S
O344 C320 1.247 . S
O344 Mg326 2.061 . S
C345 O341 1.277 . S
C345 O343 1.245 . S
O346 C320 1.289 . S
O346 Mg323 2.238 . S
O346 Mg324 2.106 . S
O347 Mg324 2.079 . S
O347 C329 1.245 . S
O348 Mg327 2.038 . S
O348 C329 1.274 . S
C349 O361 1.241 . S
C349 O362 1.280 . S
C350 O363 1.277 . S
C350 O364 1.245 . S
C351 O375 1.247 . S
C351 O377 1.289 . S
Mg352 O353 1.926 . S
Mg352 O362 1.984 . S
Mg352 O364 1.988 1_545 S
Mg352 O365 2.061 . S
O353 Mg352 1.926 . S
O353 Mg354 1.989 . S
O353 Mg355 1.917 . S
Mg354 O353 1.989 . S
Mg354 O361 2.049 . S
Mg354 O363 2.039 1_545 S
Mg354 O369 2.041 . S
Mg354 O377 2.232 1_545 S
Mg355 O353 1.917 . S
Mg355 O356 1.917 1_545 S
Mg355 O366 2.106 . S
Mg355 O368 2.079 . S
Mg355 O377 2.106 1_545 S
Mg355 O378 2.079 1_545 S
O356 Mg355 1.917 1_565 S
O356 Mg357 1.926 . S
O356 Mg358 1.986 1_565 S
Mg357 O356 1.926 . S
Mg357 O371 1.984 . S
Mg357 O374 1.988 1_565 S
Mg357 O375 2.061 . S
Mg358 O356 1.986 1_545 S
Mg358 O366 2.238 . S
Mg358 O370 2.042 1_545 S
Mg358 O372 2.041 . S
Mg358 O379 2.038 1_545 S
C359 O365 1.247 . S
C359 O366 1.289 . S
C360 O378 1.245 . S
C360 O379 1.274 . S
O361 C349 1.241 . S
O361 Mg354 2.049 . S
O362 C349 1.280 . S
O362 Mg352 1.984 . S
O363 C350 1.277 . S
O363 Mg354 2.039 1_565 S
O364 C350 1.245 . S
O364 Mg352 1.988 1_565 S
O365 Mg352 2.061 . S
O365 C359 1.247 . S
O366 Mg355 2.106 . S
O366 Mg358 2.238 . S
O366 C359 1.289 . S
C367 O368 1.245 . S
C367 O369 1.274 . S
O368 Mg355 2.079 . S
O368 C367 1.245 . S
O369 Mg354 2.041 . S
O369 C367 1.274 . S
O370 Mg358 2.042 1_565 S
O370 C373 1.241 . S
O371 Mg357 1.984 . S
O371 C373 1.280 . S
O372 Mg358 2.041 . S
O372 C376 1.277 . S
C373 O370 1.241 . S
C373 O371 1.280 . S
O374 Mg357 1.988 1_545 S
O374 C376 1.245 . S
O375 C351 1.247 . S
O375 Mg357 2.061 . S
C376 O372 1.277 . S
C376 O374 1.245 . S
O377 C351 1.289 . S
O377 Mg354 2.232 1_565 S
O377 Mg355 2.106 1_565 S
O378 Mg355 2.079 1_565 S
O378 C360 1.245 . S
O379 Mg358 2.038 1_565 S
O379 C360 1.274 . S
C380 O392 1.241 . S
C380 O393 1.280 . S
C381 O394 1.277 . S
C381 O395 1.245 . S
C382 O406 1.247 . S
C382 O408 1.289 . S
Mg383 O384 1.926 . S
Mg383 O393 1.984 . S
Mg383 O395 1.988 . S
Mg383 O396 2.061 . S
O384 Mg383 1.926 . S
O384 Mg385 1.986 . S
O384 Mg386 1.917 . S
Mg385 O384 1.986 . S
Mg385 O392 2.042 . S
Mg385 O394 2.041 . S
Mg385 O400 2.038 . S
Mg385 O408 2.238 . S
Mg386 O384 1.917 . S
Mg386 O387 1.917 . S
Mg386 O397 2.106 . S
Mg386 O399 2.079 . S
Mg386 O408 2.106 . S
Mg386 O409 2.079 . S
O387 Mg386 1.917 . S
O387 Mg388 1.926 . S
O387 Mg389 1.986 . S
Mg388 O387 1.926 . S
Mg388 O402 1.984 . S
Mg388 O405 1.988 . S
Mg388 O406 2.061 . S
Mg389 O387 1.986 . S
Mg389 O397 2.238 . S
Mg389 O401 2.042 . S
Mg389 O403 2.041 . S
Mg389 O410 2.038 . S
C390 O396 1.247 . S
C390 O397 1.289 . S
C391 O409 1.245 . S
C391 O410 1.274 . S
O392 C380 1.241 . S
O392 Mg385 2.042 . S
O393 C380 1.280 . S
O393 Mg383 1.984 . S
O394 C381 1.277 . S
O394 Mg385 2.041 . S
O395 C381 1.245 . S
O395 Mg383 1.988 . S
O396 Mg383 2.061 . S
O396 C390 1.247 . S
O397 Mg386 2.106 . S
O397 Mg389 2.238 . S
O397 C390 1.289 . S
C398 O399 1.245 . S
C398 O400 1.274 . S
O399 Mg386 2.079 . S
O399 C398 1.245 . S
O400 Mg385 2.038 . S
O400 C398 1.274 . S
O401 Mg389 2.042 . S
O401 C404 1.241 . S
O402 Mg388 1.984 . S
O402 C404 1.280 . S
O403 Mg389 2.041 . S
O403 C407 1.277 . S
C404 O401 1.241 . S
C404 O402 1.280 . S
O405 Mg388 1.988 . S
O405 C407 1.245 . S
O406 C382 1.247 . S
O406 Mg388 2.061 . S
C407 O403 1.277 . S
C407 O405 1.245 . S
O408 C382 1.289 . S
O408 Mg385 2.238 . S
O408 Mg386 2.106 . S
O409 Mg386 2.079 . S
O409 C391 1.245 . S
O410 Mg389 2.038 . S
O410 C391 1.274 . S
C411 C412 1.369 . S
C411 C413 1.419 . S
C411 H415 0.930 . S
C412 C411 1.369 . S
C412 C421 1.429 . S
C413 C411 1.419 . S
C413 C414 1.363 . S
C413 H416 0.929 . S
C414 C413 1.363 . S
C414 C420 1.428 . S
H415 C411 0.930 . S
H416 C413 0.929 . S
S417 N418 1.613 . S
S417 N419 1.610 . S
N418 S417 1.613 . S
N418 C421 1.350 . S
N419 S417 1.610 . S
N419 C420 1.351 . S
C420 C414 1.428 . S
C420 N419 1.351 . S
C420 C421 1.434 . S
C421 C412 1.429 . S
C421 N418 1.350 . S
C421 C420 1.434 . S
C422 C423 1.369 . S
C422 C424 1.419 . S
C422 H426 0.930 . S
C423 C422 1.369 . S
C423 C432 1.429 . S
C424 C422 1.419 . S
C424 C425 1.363 . S
C424 H427 0.929 . S
C425 C424 1.363 . S
C425 C431 1.428 . S
H426 C422 0.930 . S
H427 C424 0.929 . S
S428 N429 1.613 . S
S428 N430 1.610 . S
N429 S428 1.613 . S
N429 C432 1.350 . S
N430 S428 1.610 . S
N430 C431 1.351 . S
C431 C425 1.428 . S
C431 N430 1.351 . S
C431 C432 1.434 . S
C432 C423 1.429 . S
C432 N429 1.350 . S
C432 C431 1.434 . S
C433 C434 1.369 . S
C433 C435 1.419 . S
C433 H437 0.930 . S
C434 C433 1.369 . S
C434 C443 1.429 . S
C435 C433 1.419 . S
C435 C436 1.363 . S
C435 H438 0.929 . S
C436 C435 1.363 . S
C436 C442 1.428 . S
H437 C433 0.930 . S
H438 C435 0.929 . S
S439 N440 1.613 . S
S439 N441 1.610 . S
N440 S439 1.613 . S
N440 C443 1.350 . S
N441 S439 1.610 . S
N441 C442 1.351 . S
C442 C436 1.428 . S
C442 N441 1.351 . S
C442 C443 1.434 . S
C443 C434 1.429 . S
C443 N440 1.350 . S
C443 C442 1.434 . S
C444 C445 1.369 . S
C444 C446 1.419 . S
C444 H448 0.930 . S
C445 C444 1.369 . S
C445 C454 1.429 . S
C446 C444 1.419 . S
C446 C447 1.363 . S
C446 H449 0.929 . S
C447 C446 1.363 . S
C447 C453 1.428 . S
H448 C444 0.930 . S
H449 C446 0.929 . S
S450 N451 1.613 . S
S450 N452 1.610 . S
N451 S450 1.613 . S
N451 C454 1.350 . S
N452 S450 1.610 . S
N452 C453 1.351 . S
C453 C447 1.428 . S
C453 N452 1.351 . S
C453 C454 1.434 . S
C454 C445 1.429 . S
C454 N451 1.350 . S
C454 C453 1.434 . S
C455 C456 1.369 . S
C455 C457 1.419 . S
C455 H459 0.930 . S
C456 C455 1.369 . S
C456 C465 1.429 . S
C457 C455 1.419 . S
C457 C458 1.363 . S
C457 H460 0.929 . S
C458 C457 1.363 . S
C458 C464 1.428 . S
H459 C455 0.930 . S
H460 C457 0.929 . S
S461 N462 1.613 . S
S461 N463 1.610 . S
N462 S461 1.613 . S
N462 C465 1.350 . S
N463 S461 1.610 . S
N463 C464 1.351 . S
C464 C458 1.428 . S
C464 N463 1.351 . S
C464 C465 1.434 . S
C465 C456 1.429 . S
C465 N462 1.350 . S
C465 C464 1.434 . S
C466 C467 1.369 . S
C466 C468 1.419 . S
C466 H470 0.930 . S
C467 C466 1.369 . S
C467 C476 1.429 . S
C468 C466 1.419 . S
C468 C469 1.363 . S
C468 H471 0.929 . S
C469 C468 1.363 . S
C469 C475 1.428 . S
H470 C466 0.930 . S
H471 C468 0.929 . S
S472 N473 1.613 . S
S472 N474 1.610 . S
N473 S472 1.613 . S
N473 C476 1.350 . S
N474 S472 1.610 . S
N474 C475 1.351 . S
C475 C469 1.428 . S
C475 N474 1.351 . S
C475 C476 1.434 . S
C476 C467 1.429 . S
C476 N473 1.350 . S
C476 C475 1.434 . S
C477 C478 1.369 . S
C477 C479 1.419 . S
C477 H481 0.930 . S
C478 C477 1.369 . S
C478 C487 1.429 . S
C479 C477 1.419 . S
C479 C480 1.363 . S
C479 H482 0.929 . S
C480 C479 1.363 . S
C480 C486 1.428 . S
H481 C477 0.930 . S
H482 C479 0.929 . S
S483 N484 1.613 . S
S483 N485 1.610 . S
N484 S483 1.613 . S
N484 C487 1.350 . S
N485 S483 1.610 . S
N485 C486 1.351 . S
C486 C480 1.428 . S
C486 N485 1.351 . S
C486 C487 1.434 . S
C487 C478 1.429 . S
C487 N484 1.350 . S
C487 C486 1.434 . S
C488 C489 1.369 . S
C488 C490 1.419 . S
C488 H492 0.930 . S
C489 C488 1.369 . S
C489 C498 1.429 . S
C490 C488 1.419 . S
C490 C491 1.363 . S
C490 H493 0.929 . S
C491 C490 1.363 . S
C491 C497 1.428 . S
H492 C488 0.930 . S
H493 C490 0.929 . S
S494 N495 1.613 . S
S494 N496 1.610 . S
N495 S494 1.613 . S
N495 C498 1.350 . S
N496 S494 1.610 . S
N496 C497 1.351 . S
C497 C491 1.428 . S
C497 N496 1.351 . S
C497 C498 1.434 . S
C498 C489 1.429 . S
C498 N495 1.350 . S
C498 C497 1.434 . S
C499 C500 1.369 . S
C499 C501 1.419 . S
C499 H503 0.930 . S
C500 C499 1.369 . S
C500 C509 1.429 . S
C501 C499 1.419 . S
C501 C502 1.363 . S
C501 H504 0.929 . S
C502 C501 1.363 . S
C502 C508 1.428 . S
H503 C499 0.930 . S
H504 C501 0.929 . S
S505 N506 1.613 . S
S505 N507 1.610 1_554 S
N506 S505 1.613 . S
N506 C509 1.350 1_554 S
N507 S505 1.610 1_556 S
N507 C508 1.351 . S
C508 C502 1.428 . S
C508 N507 1.351 . S
C508 C509 1.434 . S
C509 C500 1.429 . S
C509 N506 1.350 1_556 S
C509 C508 1.434 . S
C510 C511 1.369 . S
C510 C512 1.419 . S
C510 H514 0.930 1_556 S
C511 C510 1.369 . S
C511 C520 1.429 . S
C512 C510 1.419 . S
C512 C513 1.363 . S
C512 H515 0.929 . S
C513 C512 1.363 . S
C513 C519 1.428 . S
H514 C510 0.930 1_554 S
H515 C512 0.929 . S
S516 N517 1.613 . S
S516 N518 1.610 . S
N517 S516 1.613 . S
N517 C520 1.350 . S
N518 S516 1.610 . S
N518 C519 1.351 . S
C519 C513 1.428 . S
C519 N518 1.351 . S
C519 C520 1.434 . S
C520 C511 1.429 . S
C520 N517 1.350 . S
C520 C519 1.434 . S
C521 C522 1.369 . S
C521 C523 1.419 . S
C521 H525 0.930 . S
C522 C521 1.369 . S
C522 C531 1.429 . S
C523 C521 1.419 . S
C523 C524 1.363 . S
C523 H526 0.929 . S
C524 C523 1.363 . S
C524 C530 1.428 . S
H525 C521 0.930 . S
H526 C523 0.929 . S
S527 N528 1.613 . S
S527 N529 1.610 . S
N528 S527 1.613 . S
N528 C531 1.350 . S
N529 S527 1.610 . S
N529 C530 1.351 . S
C530 C524 1.428 . S
C530 N529 1.351 . S
C530 C531 1.434 . S
C531 C522 1.429 . S
C531 N528 1.350 . S
C531 C530 1.434 . S
C532 C533 1.369 1_556 S
C532 C534 1.419 . S
C532 H536 0.930 . S
C533 C532 1.369 1_554 S
C533 C542 1.429 . S
C534 C532 1.419 . S
C534 C535 1.363 . S
C534 H537 0.929 . S
C535 C534 1.363 . S
C535 C541 1.428 1_556 S
H536 C532 0.930 . S
H537 C534 0.929 . S
S538 N539 1.613 . S
S538 N540 1.610 . S
N539 S538 1.613 . S
N539 C542 1.350 . S
N540 S538 1.610 . S
N540 C541 1.351 . S
C541 C535 1.428 1_554 S
C541 N540 1.351 . S
C541 C542 1.434 . S
C542 C533 1.429 . S
C542 N539 1.350 . S
C542 C541 1.434 . S
C543 C544 1.369 . S
C543 C545 1.419 . S
C543 H547 0.930 . S
C544 C543 1.369 . S
C544 C553 1.429 . S
C545 C543 1.419 . S
C545 C546 1.363 . S
C545 H548 0.929 . S
C546 C545 1.363 . S
C546 C552 1.428 . S
H547 C543 0.930 . S
H548 C545 0.929 . S
S549 N550 1.613 1_554 S
S549 N551 1.610 1_554 S
N550 S549 1.613 1_556 S
N550 C553 1.350 . S
N551 S549 1.610 1_556 S
N551 C552 1.351 . S
C552 C546 1.428 . S
C552 N551 1.351 . S
C552 C553 1.434 . S
C553 C544 1.429 . S
C553 N550 1.350 . S
C553 C552 1.434 . S
C554 C555 1.369 . S
C554 C556 1.419 . S
C554 H558 0.930 . S
C555 C554 1.369 . S
C555 C564 1.429 . S
C556 C554 1.419 . S
C556 C557 1.363 . S
C556 H559 0.929 . S
C557 C556 1.363 . S
C557 C563 1.428 . S
H558 C554 0.930 . S
H559 C556 0.929 . S
S560 N561 1.613 . S
S560 N562 1.610 . S
N561 S560 1.613 . S
N561 C564 1.350 . S
N562 S560 1.610 . S
N562 C563 1.351 . S
C563 C557 1.428 . S
C563 N562 1.351 . S
C563 C564 1.434 . S
C564 C555 1.429 . S
C564 N561 1.350 . S
C564 C563 1.434 . S
C565 C566 1.369 . S
C565 C567 1.419 . S
C565 H569 0.930 . S
C566 C565 1.369 . S
C566 C575 1.429 1_554 S
C567 C565 1.419 . S
C567 C568 1.363 1_554 S
C567 H570 0.929 . S
C568 C567 1.363 1_556 S
C568 C574 1.428 . S
H569 C565 0.930 . S
H570 C567 0.929 . S
S571 N572 1.613 . S
S571 N573 1.610 . S
N572 S571 1.613 . S
N572 C575 1.350 . S
N573 S571 1.610 . S
N573 C574 1.351 . S
C574 C568 1.428 . S
C574 N573 1.351 . S
C574 C575 1.434 . S
C575 C566 1.429 1_556 S
C575 N572 1.350 . S
C575 C574 1.434 . S
C576 C577 1.369 . S
C576 C578 1.419 1_554 S
C576 H580 0.930 . S
C577 C576 1.369 . S
C577 C586 1.429 1_554 S
C578 C576 1.419 1_556 S
C578 C579 1.363 . S
C578 H581 0.929 1_556 S
C579 C578 1.363 . S
C579 C585 1.428 . S
H580 C576 0.930 . S
H581 C578 0.929 1_554 S
S582 N583 1.613 . S
S582 N584 1.610 . S
N583 S582 1.613 . S
N583 C586 1.350 . S
N584 S582 1.610 . S
N584 C585 1.351 . S
C585 C579 1.428 . S
C585 N584 1.351 . S
C585 C586 1.434 . S
C586 C577 1.429 1_556 S
C586 N583 1.350 . S
C586 C585 1.434 . S
C587 C588 1.369 . S
C587 C589 1.419 . S
C587 H591 0.930 . S
C588 C587 1.369 . S
C588 C597 1.429 . S
C589 C587 1.419 . S
C589 C590 1.363 . S
C589 H592 0.929 . S
C590 C589 1.363 . S
C590 C596 1.428 . S
H591 C587 0.930 . S
H592 C589 0.929 . S
S593 N594 1.613 . S
S593 N595 1.610 . S
N594 S593 1.613 . S
N594 C597 1.350 . S
N595 S593 1.610 . S
N595 C596 1.351 . S
C596 C590 1.428 . S
C596 N595 1.351 . S
C596 C597 1.434 . S
C597 C588 1.429 . S
C597 N594 1.350 . S
C597 C596 1.434 . S
C598 C599 1.369 . S
C598 C600 1.419 . S
C598 H602 0.930 . S
C599 C598 1.369 . S
C599 C608 1.429 . S
C600 C598 1.419 . S
C600 C601 1.363 . S
C600 H603 0.929 . S
C601 C600 1.363 . S
C601 C607 1.428 . S
H602 C598 0.930 . S
H603 C600 0.929 . S
S604 N605 1.613 . S
S604 N606 1.610 . S
N605 S604 1.613 . S
N605 C608 1.350 . S
N606 S604 1.610 . S
N606 C607 1.351 . S
C607 C601 1.428 . S
C607 N606 1.351 . S
C607 C608 1.434 . S
C608 C599 1.429 . S
C608 N605 1.350 . S
C608 C607 1.434 . S
C609 C610 1.369 . S
C609 C611 1.419 . S
C609 H613 0.930 . S
C610 C609 1.369 . S
C610 C619 1.429 . S
C611 C609 1.419 . S
C611 C612 1.363 . S
C611 H614 0.929 . S
C612 C611 1.363 . S
C612 C618 1.428 . S
H613 C609 0.930 . S
H614 C611 0.929 . S
S615 N616 1.613 . S
S615 N617 1.610 . S
N616 S615 1.613 . S
N616 C619 1.350 . S
N617 S615 1.610 . S
N617 C618 1.351 . S
C618 C612 1.428 . S
C618 N617 1.351 . S
C618 C619 1.434 . S
C619 C610 1.429 . S
C619 N616 1.350 . S
C619 C618 1.434 . S
C620 C621 1.369 . S
C620 C622 1.419 . S
C620 H624 0.930 . S
C621 C620 1.369 . S
C621 C630 1.429 . S
C622 C620 1.419 . S
C622 C623 1.363 . S
C622 H625 0.929 . S
C623 C622 1.363 . S
C623 C629 1.428 . S
H624 C620 0.930 . S
H625 C622 0.929 . S
S626 N627 1.613 . S
S626 N628 1.610 . S
N627 S626 1.613 . S
N627 C630 1.350 . S
N628 S626 1.610 . S
N628 C629 1.351 . S
C629 C623 1.428 . S
C629 N628 1.351 . S
C629 C630 1.434 . S
C630 C621 1.429 . S
C630 N627 1.350 . S
C630 C629 1.434 . S
C631 C632 1.369 . S
C631 C633 1.419 . S
C631 H635 0.930 . S
C632 C631 1.369 . S
C632 C641 1.429 . S
C633 C631 1.419 . S
C633 C634 1.363 . S
C633 H636 0.929 . S
C634 C633 1.363 . S
C634 C640 1.428 . S
H635 C631 0.930 . S
H636 C633 0.929 . S
S637 N638 1.613 . S
S637 N639 1.610 . S
N638 S637 1.613 . S
N638 C641 1.350 . S
N639 S637 1.610 . S
N639 C640 1.351 . S
C640 C634 1.428 . S
C640 N639 1.351 . S
C640 C641 1.434 . S
C641 C632 1.429 . S
C641 N638 1.350 . S
C641 C640 1.434 . S
C642 C643 1.369 . S
C642 C644 1.419 . S
C642 H646 0.930 . S
C643 C642 1.369 . S
C643 C652 1.429 . S
C644 C642 1.419 . S
C644 C645 1.363 . S
C644 H647 0.929 . S
C645 C644 1.363 . S
C645 C651 1.428 . S
H646 C642 0.930 . S
H647 C644 0.929 . S
S648 N649 1.613 . S
S648 N650 1.610 . S
N649 S648 1.613 . S
N649 C652 1.350 . S
N650 S648 1.610 . S
N650 C651 1.351 . S
C651 C645 1.428 . S
C651 N650 1.351 . S
C651 C652 1.434 . S
C652 C643 1.429 . S
C652 N649 1.350 . S
C652 C651 1.434 . S
C653 C654 1.369 . S
C653 C655 1.419 . S
C653 H657 0.930 . S
C654 C653 1.369 . S
C654 C663 1.429 . S
C655 C653 1.419 . S
C655 C656 1.363 . S
C655 H658 0.929 . S
C656 C655 1.363 . S
C656 C662 1.428 . S
H657 C653 0.930 . S
H658 C655 0.929 . S
S659 N660 1.613 . S
S659 N661 1.610 . S
N660 S659 1.613 . S
N660 C663 1.350 . S
N661 S659 1.610 . S
N661 C662 1.351 . S
C662 C656 1.428 . S
C662 N661 1.351 . S
C662 C663 1.434 . S
C663 C654 1.429 . S
C663 N660 1.350 . S
C663 C662 1.434 . S
C664 C665 1.369 . S
C664 C666 1.419 . S
C664 H668 0.930 . S
C665 C664 1.369 . S
C665 C674 1.429 . S
C666 C664 1.419 . S
C666 C667 1.363 . S
C666 H669 0.929 . S
C667 C666 1.363 . S
C667 C673 1.428 . S
H668 C664 0.930 . S
H669 C666 0.929 . S
S670 N671 1.613 . S
S670 N672 1.610 . S
N671 S670 1.613 . S
N671 C674 1.350 . S
N672 S670 1.610 . S
N672 C673 1.351 . S
C673 C667 1.428 . S
C673 N672 1.351 . S
C673 C674 1.434 . S
C674 C665 1.429 . S
C674 N671 1.350 . S
C674 C673 1.434 . S
C412 C22 1.896 . S
C414 C329 1.819 . S
C423 C92 1.798 . S
C425 C376 1.763 . S
C436 C380 1.839 . S
C434 C144 1.927 . S
C447 C345 1.608 . S
C445 C197 1.653 . S
C456 C250 2.018 . S
C458 C360 1.951 . S
C469 C382 1.220 . S
C467 C287 1.275 . S
C480 C351 1.663 . S
C478 C145 1.735 . S
C489 C198 1.621 . S
C491 C391 1.570 . S
C502 C320 1.619 . S
C500 C251 1.706 . S
C511 C294 1.439 1_556 S
C513 C349 1.385 . S
C522 C29 1.855 1_556 S
C524 C407 1.795 . S
C535 C318 1.726 . S
C533 C91 1.765 . S
C546 C336 1.653 . S
C544 C188 1.718 . S
C557 C350 1.302 . S
C555 C241 1.344 . S
C568 C404 1.689 . S
C566 C304 1.767 . S
C579 C319 1.440 . S
C577 C39 1.470 . S
C590 C367 1.504 . S
C588 C75 1.586 . S
C599 C135 1.086 . S
C601 C390 1.054 . S
C612 C359 1.475 . S
C610 C303 1.539 . S
C623 C398 1.408 . S
C621 C38 1.426 . S
C634 C328 1.227 . S
C632 C82 1.291 . S
C645 C373 1.232 . S
C643 C128 1.276 . S
C654 C181 1.676 . S
C656 C381 1.630 . S
C665 C234 1.297 . S
C667 C342 1.262 . S
