# Generated by pormake.
# Topology pth, (4,4)-cn, num edge types: 1
# Building blocks:
#     Node 0, Type 0, BuildingBlock: AZAVOO_clean_sbu_0, # of connection points: 4
#     Node 1, Type 0, BuildingBlock: AZAVOO_clean_sbu_0, # of connection points: 4
#     Node 2, Type 0, BuildingBlock: AZAVOO_clean_sbu_0, # of connection points: 4
#     Node 3, Type 1, BuildingBlock: KOZSID_clean_sbu_0, # of connection points: 4
#     Node 4, Type 1, BuildingBlock: KOZSID_clean_sbu_0, # of connection points: 4
#     Node 5, Type 1, BuildingBlock: KOZSID_clean_sbu_0, # of connection points: 4
#     Edge 6, Type (0, 1), BuildingBlock: TEMPAE_clean_linker_10, # of connection points: 2
#     Edge 7, Type (0, 1), BuildingBlock: TEMPAE_clean_linker_10, # of connection points: 2
#     Edge 8, Type (0, 1), BuildingBlock: TEMPAE_clean_linker_10, # of connection points: 2
#     Edge 9, Type (0, 1), BuildingBlock: TEMPAE_clean_linker_10, # of connection points: 2
#     Edge 10, Type (0, 1), BuildingBlock: TEMPAE_clean_linker_10, # of connection points: 2
#     Edge 11, Type (0, 1), BuildingBlock: TEMPAE_clean_linker_10, # of connection points: 2
#     Edge 12, Type (0, 1), BuildingBlock: TEMPAE_clean_linker_10, # of connection points: 2
#     Edge 13, Type (0, 1), BuildingBlock: TEMPAE_clean_linker_10, # of connection points: 2
#     Edge 14, Type (0, 1), BuildingBlock: TEMPAE_clean_linker_10, # of connection points: 2
#     Edge 15, Type (0, 1), BuildingBlock: TEMPAE_clean_linker_10, # of connection points: 2
#     Edge 16, Type (0, 1), BuildingBlock: TEMPAE_clean_linker_10, # of connection points: 2
#     Edge 17, Type (0, 1), BuildingBlock: TEMPAE_clean_linker_10, # of connection points: 2
# Relax obj value: 0.066
# Max RMSD: 0.216
# Mean RMSD: 0.106
data_MOF--net-pth--node1-AZAVOO_clean_sbu_0--node2-KOZSID_clean_sbu_0--edge1-TEMPAE_clean_linker_10
_symmetry_space_group_name_H-M    P1
_symmetry_Int_Tables_number       1
_symmetry_cell_setting            triclinic
loop_
_symmetry_equiv_pos_as_xyz
'x, y, z'
_cell_length_a     26.690987
_cell_length_b     27.284902
_cell_length_c     60.080916
_cell_angle_alpha  88.246236
_cell_angle_beta   90.098881
_cell_angle_gamma 122.16639
loop_
_atom_site_label
_atom_site_type_symbol
_atom_site_fract_x
_atom_site_fract_y
_atom_site_fract_z
_atom_type_partial_charge
Mg0 Mg 0.13156 0.08667 0.04137 0.0
O1 O 0.05183 0.02509 0.0209 0.0
O2 O 0.02877 0.07561 -0.00207 0.0
Mg3 Mg 0.09528 0.17145 0.00397 0.0
C4 C 0.01955 0.02746 0.0058 0.0
C5 C 0.15171 0.00409 0.07203 0.0
O6 O 0.2073 0.04529 0.06825 0.0
O7 O 0.07523 0.1066 0.063 0.0
O8 O 0.05905 0.16176 0.03954 0.0
O9 O 0.19279 0.09221 0.01466 0.0
O10 O 0.16034 0.15142 0.01663 0.0
C11 C 0.05385 0.13799 0.05878 0.0
C12 C 0.19097 0.13543 0.00615 0.0
O13 O 0.11111 0.00949 0.06368 0.0
Mg14 Mg 0.97526 0.04293 0.37073 0.0
O15 O 0.06673 0.07184 0.38427 0.0
O16 O 0.10299 0.15584 0.40098 0.0
Mg17 Mg 0.03461 0.18149 0.39782 0.0
C18 C 0.10746 0.11384 0.39498 0.0
C19 C 0.99793 0.94592 0.35783 0.0
O20 O 0.01514 0.95184 0.3786 0.0
O21 O 0.01539 0.10985 0.34215 0.0
O22 O 0.04693 0.19205 0.35986 0.0
O23 O 0.93178 0.99804 0.40326 0.0
O24 O 0.96413 0.08962 0.39471 0.0
C25 C 0.03921 0.16467 0.34203 0.0
C26 C 0.9399 0.04707 0.40908 0.0
O27 O 0.97829 0.97622 0.35003 0.0
Mg28 Mg 0.04592 0.03721 0.69298 0.0
O29 O 0.10365 0.10525 0.71796 0.0
O30 O 0.04694 0.11855 0.74097 0.0
Mg31 Mg 0.95083 0.05603 0.73088 0.0
C32 C 0.09772 0.13042 0.73433 0.0
C33 C 0.14232 0.02838 0.66846 0.0
O34 O 0.10571 0.97409 0.67496 0.0
O35 O 0.02856 0.09994 0.67393 0.0
O36 O 0.96598 0.10476 0.69717 0.0
O37 O 0.03451 0.96622 0.7161 0.0
O38 O 0.97421 0.99851 0.7151 0.0
C39 C 0.99428 0.1177 0.67859 0.0
C40 C 0.98782 0.96356 0.72384 0.0
O41 O 0.12938 0.06566 0.67279 0.0
C42 C 0.10759 0.64733 0.17078 0.0
C43 C 0.16545 0.68823 0.16415 0.0
C44 C 0.20127 0.68027 0.17799 0.0
C45 C 0.16344 0.63515 0.19218 0.0
N46 N 0.10552 0.61337 0.1881 0.0
Co47 Co 0.03559 0.54755 0.20458 0.0
N48 N 0.08843 0.53846 0.22566 0.0
C49 C 0.14795 0.57287 0.22704 0.0
C50 C 0.17149 0.55468 0.24316 0.0
C51 C 0.12431 0.50486 0.25219 0.0
C52 C 0.07474 0.49544 0.24083 0.0
N53 N 0.96583 0.4801 0.22062 0.0
C54 C 0.9646 0.4406 0.23523 0.0
C55 C 0.90709 0.39592 0.24043 0.0
C56 C 0.87066 0.40717 0.22841 0.0
C57 C 0.90783 0.45755 0.21647 0.0
N58 N 0.98266 0.55785 0.18383 0.0
C59 C 0.92274 0.52724 0.18416 0.0
C60 C 0.89893 0.54624 0.16848 0.0
C61 C 0.94645 0.59234 0.15772 0.0
C62 C 0.99661 0.5987 0.16751 0.0
N63 N 0.03708 0.49218 0.18451 0.0
C64 C 0.03406 0.40255 0.16146 0.0
C65 C 0.98381 0.40584 0.16318 0.0
C66 C 0.98635 0.45078 0.17457 0.0
C67 C 0.08665 0.44642 0.17061 0.0
C68 C 0.08726 0.49076 0.18187 0.0
N69 N 0.03374 0.60254 0.22503 0.0
C70 C 0.97831 0.63196 0.24661 0.0
C71 C 0.0303 0.6784 0.25497 0.0
C72 C 0.08417 0.68685 0.24778 0.0
C73 C 0.08487 0.64894 0.23285 0.0
C74 C 0.98103 0.59495 0.23186 0.0
H75 H 0.12736 0.65811 0.22799 0.0
H76 H 0.93973 0.56063 0.22623 0.0
H77 H 0.94635 0.4504 0.17551 0.0
H78 H 0.1284 0.52266 0.18878 0.0
C79 C 0.18091 0.61597 0.21071 0.0
C80 C 0.05641 0.64537 0.16124 0.0
C81 C 0.01703 0.442 0.24308 0.0
C82 C 0.89015 0.48102 0.19947 0.0
H83 H 0.18028 0.72155 0.15111 0.0
H84 H 0.24916 0.70571 0.1782 0.0
H85 H 0.21775 0.57327 0.2469 0.0
H86 H 0.12647 0.47685 0.26479 0.0
H87 H 0.89283 0.35788 0.25105 0.0
H88 H 0.82293 0.38009 0.22752 0.0
H89 H 0.85257 0.52909 0.16542 0.0
H90 H 0.94453 0.61885 0.14438 0.0
H91 H 0.94253 0.37383 0.15574 0.0
H92 H 0.12687 0.4459 0.16957 0.0
H93 H 0.93543 0.6243 0.25124 0.0
H94 H 0.12577 0.72209 0.25384 0.0
C95 C 0.47564 0.05528 0.5676 0.0
C96 C 0.43031 0.00328 0.57725 0.0
C97 C 0.42213 0.96011 0.56376 0.0
C98 C 0.46275 0.98777 0.54671 0.0
N99 N 0.49662 0.04563 0.54885 0.0
Co100 Co 0.55923 0.1015 0.52763 0.0
N101 N 0.56402 0.03912 0.51402 0.0
C102 C 0.52228 0.98226 0.51481 0.0
C103 C 0.53978 0.94998 0.50399 0.0
C104 C 0.59601 0.98923 0.49603 0.0
C105 C 0.6095 0.04325 0.50255 0.0
N106 N 0.622 0.1567 0.50638 0.0
C107 C 0.66288 0.15082 0.4957 0.0
C108 C 0.70114 0.20039 0.483 0.0
C109 C 0.68296 0.23843 0.48596 0.0
C110 C 0.63493 0.21004 0.5003 0.0
N111 N 0.55412 0.16424 0.54097 0.0
C112 C 0.57447 0.21719 0.53155 0.0
C113 C 0.56335 0.25116 0.54442 0.0
C114 C 0.53337 0.21716 0.56288 0.0
C115 C 0.52765 0.16401 0.56019 0.0
N116 N 0.61984 0.11333 0.5488 0.0
C117 C 0.713 0.13048 0.57588 0.0
C118 C 0.71181 0.1777 0.56669 0.0
C119 C 0.66521 0.1682 0.55312 0.0
C120 C 0.66552 0.07443 0.57156 0.0
C121 C 0.61916 0.06686 0.55828 0.0
N122 N 0.49891 0.08998 0.50627 0.0
C123 C 0.40746 0.08371 0.49843 0.0
C124 C 0.41476 0.07913 0.47566 0.0
C125 C 0.46479 0.0792 0.46857 0.0
C126 C 0.50625 0.08451 0.48415 0.0
C127 C 0.44974 0.08889 0.51338 0.0
H128 H 0.54463 0.08486 0.47827 0.0
H129 H 0.44293 0.09303 0.53068 0.0
H130 H 0.6665 0.20538 0.54578 0.0
H131 H 0.58347 0.0233 0.55519 0.0
C132 C 0.47491 0.96052 0.53002 0.0
C133 C 0.4905 0.11258 0.57471 0.0
C134 C 0.66459 0.09804 0.49714 0.0
C135 C 0.61021 0.23576 0.5122 0.0
H136 H 0.40432 0.99725 0.59206 0.0
H137 H 0.39077 0.91404 0.56626 0.0
H138 H 0.51615 0.90328 0.50318 0.0
H139 H 0.6241 0.97925 0.4868 0.0
H140 H 0.73864 0.20858 0.47297 0.0
H141 H 0.70455 0.28271 0.47954 0.0
H142 H 0.57639 0.29565 0.54102 0.0
H143 H 0.51628 0.2295 0.57648 0.0
H144 H 0.7466 0.22183 0.56988 0.0
H145 H 0.66452 0.03639 0.57795 0.0
H146 H 0.3701 0.08491 0.50467 0.0
H147 H 0.47194 0.07527 0.45115 0.0
C148 C 0.69497 0.59027 0.83074 0.0
C149 C 0.74081 0.58527 0.82269 0.0
C150 C 0.74544 0.54806 0.83708 0.0
C151 C 0.70231 0.5323 0.85304 0.0
N152 N 0.67009 0.55647 0.84938 0.0
Co153 Co 0.60489 0.54636 0.86879 0.0
N154 N 0.59727 0.47751 0.88427 0.0
C155 C 0.63812 0.46294 0.88481 0.0
C156 C 0.61936 0.41214 0.89674 0.0
C157 C 0.56322 0.39375 0.90412 0.0
C158 C 0.55104 0.43462 0.89623 0.0
N159 N 0.5396 0.53564 0.88819 0.0
C160 C 0.4981 0.48757 0.89969 0.0
C161 C 0.45951 0.49785 0.91105 0.0
C162 C 0.47791 0.55464 0.90638 0.0
C163 C 0.52648 0.57569 0.8925 0.0
N164 N 0.6127 0.61577 0.8536 0.0
C165 C 0.59098 0.64699 0.86118 0.0
C166 C 0.60429 0.69353 0.84739 0.0
C167 C 0.63734 0.69218 0.83029 0.0
C168 C 0.64264 0.64483 0.83469 0.0
N169 N 0.54699 0.49677 0.847 0.0
C170 C 0.45759 0.42036 0.8188 0.0
C171 C 0.45761 0.46769 0.82713 0.0
C172 C 0.5025 0.50519 0.8412 0.0
C173 C 0.50419 0.41293 0.82439 0.0
C174 C 0.54868 0.45187 0.83839 0.0
N175 N 0.66238 0.59617 0.89072 0.0
C176 C 0.68851 0.62163 0.92886 0.0
C177 C 0.73918 0.67417 0.92184 0.0
C178 C 0.7516 0.68579 0.899 0.0
C179 C 0.7128 0.64642 0.8838 0.0
C180 C 0.65095 0.58296 0.91302 0.0
H181 H 0.72294 0.65772 0.86641 0.0
H182 H 0.61187 0.54304 0.91881 0.0
H183 H 0.50026 0.54017 0.84785 0.0
H184 H 0.58377 0.44496 0.84262 0.0
C185 C 0.68701 0.49074 0.87025 0.0
C186 C 0.68334 0.63433 0.82238 0.0
C187 C 0.49652 0.43309 0.90105 0.0
C188 C 0.55284 0.62757 0.8798 0.0
H189 H 0.76942 0.60788 0.80837 0.0
H190 H 0.77631 0.53395 0.83595 0.0
H191 H 0.64233 0.38948 0.89879 0.0
H192 H 0.53444 0.35458 0.91397 0.0
H193 H 0.42195 0.46749 0.9215 0.0
H194 H 0.45657 0.5769 0.91157 0.0
H195 H 0.591 0.72435 0.84937 0.0
H196 H 0.65703 0.72359 0.81654 0.0
H197 H 0.42212 0.4747 0.82342 0.0
H198 H 0.50611 0.37719 0.81809 0.0
H199 H 0.67771 0.61079 0.9464 0.0
H200 H 0.78993 0.72616 0.89282 0.0
C201 C 0.00013 0.18307 0.07262 0.0
C202 C 0.03128 0.15584 0.07731 0.0
C203 C 0.99232 0.21432 0.08884 0.0
C204 C 0.01648 0.21856 0.11019 0.0
C205 C 0.04239 0.18615 0.11573 0.0
C206 C 0.04932 0.15487 0.09918 0.0
C207 C 0.96324 0.24727 0.08241 0.0
C208 C 0.0679 0.18889 0.13842 0.0
C209 C 0.07706 0.36532 0.1349 0.0
C210 C 0.03156 0.35424 0.14976 0.0
C211 C 0.07349 0.32085 0.12257 0.0
C212 C 0.02311 0.2639 0.12515 0.0
C213 C 0.978 0.25192 0.14073 0.0
C214 C 0.98274 0.29733 0.15286 0.0
C215 C 0.12273 0.33535 0.10616 0.0
C216 C 0.92396 0.19169 0.14407 0.0
H217 H 0.98511 0.1831 0.05584 0.0
H218 H 0.0731 0.13361 0.103 0.0
H219 H 0.93157 0.24206 0.0956 0.0
H220 H 0.99756 0.29415 0.08053 0.0
H221 H 0.93933 0.23281 0.06646 0.0
H222 H 0.07565 0.15309 0.14147 0.0
H223 H 0.11087 0.23062 0.13963 0.0
H224 H 0.0382 0.18702 0.15177 0.0
H225 H 0.11463 0.40923 0.13232 0.0
H226 H 0.94793 0.28838 0.16465 0.0
H227 H 0.1055 0.32825 0.08897 0.0
H228 H 0.13958 0.30638 0.10927 0.0
H229 H 0.16034 0.38098 0.1071 0.0
H230 H 0.89623 0.18003 0.12902 0.0
H231 H 0.89662 0.18819 0.15868 0.0
H232 H 0.93697 0.15946 0.14635 0.0
C233 C 0.86261 0.00462 0.43909 0.0
C234 C 0.91457 0.05254 0.42996 0.0
C235 C 0.82773 0.01217 0.45436 0.0
C236 C 0.84592 0.06883 0.46068 0.0
C237 C 0.90205 0.11622 0.45371 0.0
C238 C 0.93566 0.1075 0.43831 0.0
C239 C 0.76844 0.96038 0.46167 0.0
C240 C 0.92382 0.17708 0.46057 0.0
C241 C 0.7231 0.09841 0.46506 0.0
C242 C 0.71509 0.09669 0.48808 0.0
C243 C 0.76628 0.09022 0.45604 0.0
C244 C 0.80203 0.0799 0.4705 0.0
C245 C 0.79472 0.07926 0.49386 0.0
C246 C 0.75068 0.08718 0.50241 0.0
C247 C 0.7726 0.0912 0.43102 0.0
C248 C 0.83211 0.06872 0.50976 0.0
H249 H 0.84634 0.96194 0.43279 0.0
H250 H 0.97662 0.14444 0.43178 0.0
H251 H 0.75985 0.96195 0.4796 0.0
H252 H 0.73297 0.96088 0.45219 0.0
H253 H 0.76548 0.91894 0.45867 0.0
H254 H 0.97215 0.20668 0.45743 0.0
H255 H 0.90044 0.19405 0.45089 0.0
H256 H 0.91418 0.17769 0.47848 0.0
H257 H 0.69435 0.10457 0.45414 0.0
H258 H 0.74328 0.08499 0.52026 0.0
H259 H 0.76381 0.04876 0.4257 0.0
H260 H 0.81854 0.12466 0.42569 0.0
H261 H 0.74175 0.10047 0.4222 0.0
H262 H 0.81966 0.02301 0.50898 0.0
H263 H 0.82626 0.07723 0.52724 0.0
H264 H 0.87965 0.09647 0.50498 0.0
C265 C 0.8966 0.91566 0.74779 0.0
C266 C 0.94852 0.91906 0.7408 0.0
C267 C 0.8549 0.86972 0.76169 0.0
C268 C 0.86528 0.826 0.76873 0.0
C269 C 0.91845 0.83006 0.76237 0.0
C270 C 0.95956 0.87667 0.74847 0.0
C271 C 0.7989 0.8671 0.7683 0.0
C272 C 0.93107 0.78433 0.76973 0.0
C273 C 0.77574 0.73156 0.81862 0.0
C274 C 0.73001 0.68276 0.80836 0.0
C275 C 0.82071 0.77817 0.80593 0.0
C276 C 0.81977 0.77558 0.78245 0.0
C277 C 0.77395 0.72581 0.77203 0.0
C278 C 0.72939 0.67972 0.7852 0.0
C279 C 0.86867 0.83044 0.81763 0.0
C280 C 0.77166 0.72161 0.74702 0.0
H281 H 0.88752 0.94803 0.74189 0.0
H282 H -0.0005 0.87893 0.74308 0.0
H283 H 0.75996 0.82797 0.76149 0.0
H284 H 0.79345 0.86348 0.78669 0.0
H285 H 0.79872 0.90583 0.76215 0.0
H286 H 0.97567 0.79523 0.76419 0.0
H287 H 0.92786 0.77868 0.78814 0.0
H288 H 0.89743 0.74209 0.76285 0.0
H289 H 0.77598 0.73325 0.83663 0.0
H290 H 0.69398 0.6415 0.77747 0.0
H291 H 0.86725 0.86917 0.81264 0.0
H292 H 0.91285 0.83943 0.81261 0.0
H293 H 0.86405 0.82457 0.83605 0.0
H294 H 0.76701 0.75653 0.73941 0.0
H295 H 0.73422 0.6792 0.7416 0.0
H296 H 0.8136 0.72788 0.74047 0.0
C297 C 0.0773 0.90398 0.08657 0.0
C298 C 0.13622 0.95095 0.08519 0.0
C299 C 0.06196 0.85285 0.09859 0.0
C300 C 0.10653 0.84875 0.10961 0.0
C301 C 0.16602 0.89603 0.10837 0.0
C302 C 0.1802 0.94655 0.09611 0.0
C303 C 0.99809 0.80317 0.09945 0.0
C304 C 0.21467 0.89324 0.12003 0.0
C305 C 0.06289 0.73954 0.15773 0.0
C306 C 0.06553 0.69555 0.14758 0.0
C307 C 0.07545 0.78948 0.14547 0.0
C308 C 0.0909 0.79511 0.12258 0.0
C309 C 0.09249 0.74998 0.11222 0.0
C310 C 0.07977 0.70053 0.12492 0.0
C311 C 0.07331 0.83663 0.1571 0.0
C312 C 0.10858 0.7544 0.08785 0.0
H313 H 0.04305 0.9069 0.07809 0.0
H314 H 0.22579 0.98265 0.09514 0.0
H315 H 0.99433 0.76394 0.09272 0.0
H316 H 0.9818 0.79249 0.11698 0.0
H317 H 0.96885 0.81313 0.08979 0.0
H318 H 0.25868 0.93379 0.11745 0.0
H319 H 0.20481 0.88517 0.13818 0.0
H320 H 0.21703 0.8566 0.11386 0.0
H321 H 0.05202 0.73517 0.17535 0.0
H322 H 0.08186 0.66614 0.11729 0.0
H323 H 0.04229 0.84594 0.14851 0.0
H324 H 0.11768 0.87718 0.15635 0.0
H325 H 0.05909 0.8248 0.17484 0.0
H326 H 0.07865 0.76209 0.07759 0.0
H327 H 0.10588 0.71469 0.08219 0.0
H328 H 0.1543 0.7919 0.08472 0.0
C329 C 0.19745 0.14932 0.41819 0.0
C330 C 0.15909 0.11125 0.40227 0.0
C331 C 0.24195 0.14287 0.42742 0.0
C332 C 0.2487 0.0976 0.42041 0.0
C333 C 0.21241 0.06106 0.40344 0.0
C334 C 0.16783 0.06816 0.39463 0.0
C335 C 0.27967 0.18266 0.44555 0.0
C336 C 0.21897 0.01294 0.39528 0.0
C337 C 0.39063 0.11075 0.4397 0.0
C338 C 0.37138 0.07701 0.45959 0.0
C339 C 0.35054 0.11522 0.42595 0.0
C340 C 0.29006 0.08572 0.43239 0.0
C341 C 0.26992 0.04901 0.45176 0.0
C342 C 0.31077 0.04484 0.46503 0.0
C343 C 0.37346 0.15404 0.40523 0.0
C344 C 0.20573 0.0167 0.45919 0.0
H345 H 0.19126 0.18285 0.42417 0.0
H346 H 0.1389 0.03896 0.38212 0.0
H347 H 0.27028 0.15732 0.46147 0.0
H348 H 0.32729 0.20243 0.44146 0.0
H349 H 0.27136 0.21792 0.4481 0.0
H350 H 0.19199 0.99266 0.38033 0.0
H351 H 0.26603 0.02959 0.39119 0.0
H352 H 0.20478 0.97892 0.40864 0.0
H353 H 0.43742 0.13591 0.43542 0.0
H354 H 0.29545 0.01764 0.4801 0.0
H355 H 0.37314 0.19391 0.40795 0.0
H356 H 0.34445 0.13218 0.39093 0.0
H357 H 0.41937 0.16686 0.40079 0.0
H358 H 0.19358 0.04814 0.46388 0.0
H359 H 0.19657 0.9867 0.47371 0.0
H360 H 0.17667 0.99139 0.44538 0.0
C361 C 0.20798 0.19027 0.73817 0.0
C362 C 0.1515 0.17399 0.74611 0.0
C363 C 0.25928 0.23057 0.74929 0.0
C364 C 0.2541 0.25513 0.76888 0.0
C365 C 0.19737 0.23918 0.77696 0.0
C366 C 0.14677 0.19891 0.76546 0.0
C367 C 0.31903 0.24672 0.74011 0.0
C368 C 0.19012 0.26442 0.79784 0.0
C369 C 0.38053 0.31835 0.80978 0.0
C370 C 0.40779 0.37794 0.80509 0.0
C371 C 0.33078 0.27783 0.79798 0.0
C372 C 0.30802 0.29743 0.781 0.0
C373 C 0.33614 0.35749 0.77588 0.0
C374 C 0.38559 0.39704 0.78804 0.0
C375 C 0.30182 0.21415 0.804 0.0
C376 C 0.31351 0.38001 0.75775 0.0
H377 H 0.21228 0.17147 0.72321 0.0
H378 H 0.10345 0.18664 0.77176 0.0
H379 H 0.34685 0.29416 0.73665 0.0
H380 H 0.34237 0.23562 0.75263 0.0
H381 H 0.3155 0.22425 0.72453 0.0
H382 H 0.14295 0.24757 0.80191 0.0
H383 H 0.20981 0.25424 0.81214 0.0
H384 H 0.21413 0.3123 0.79585 0.0
H385 H 0.39709 0.30347 0.82315 0.0
H386 H 0.40693 0.44307 0.78423 0.0
H387 H 0.29967 0.19014 0.78909 0.0
H388 H 0.25565 0.19621 0.80988 0.0
H389 H 0.32587 0.20596 0.81724 0.0
H390 H 0.31199 0.36007 0.74175 0.0
H391 H 0.34149 0.42788 0.75538 0.0
H392 H 0.26765 0.3677 0.76189 0.0
C393 C 0.95302 0.17683 0.6658 0.0
C394 C 0.97642 0.1431 0.66059 0.0
C395 C 0.91969 0.18655 0.65025 0.0
C396 C 0.90818 0.16044 0.62931 0.0
C397 C 0.93656 0.13122 0.62322 0.0
C398 C 0.97111 0.12359 0.63888 0.0
C399 C 0.89219 0.22002 0.65704 0.0
C400 C 0.92499 0.10211 0.60119 0.0
C401 C 0.75341 0.10121 0.60779 0.0
C402 C 0.76337 0.13947 0.58978 0.0
C403 C 0.8003 0.10754 0.62058 0.0
C404 C 0.8587 0.15442 0.61574 0.0
C405 C 0.86918 0.19419 0.598 0.0
C406 C 0.82152 0.18579 0.58503 0.0
C407 C 0.78723 0.06364 0.63922 0.0
C408 C 0.93064 0.24537 0.59267 0.0
H409 H 0.95761 0.19253 0.6825 0.0
H410 H 0.98895 0.09733 0.63477 0.0
H411 H 0.89387 0.24837 0.64304 0.0
H412 H 0.84495 0.18927 0.66165 0.0
H413 H 0.9147 0.24709 0.67158 0.0
H414 H 0.95758 0.08982 0.59748 0.0
H415 H 0.88006 0.0622 0.6017 0.0
H416 H 0.92625 0.13059 0.58736 0.0
H417 H 0.70873 0.06615 0.61203 0.0
H418 H 0.83009 0.2152 0.57097 0.0
H419 H 0.79975 0.08531 0.6554 0.0
H420 H 0.81393 0.04392 0.63681 0.0
H421 H 0.73972 0.02842 0.64021 0.0
H422 H 0.95067 0.27048 0.60783 0.0
H423 H 0.93066 0.27474 0.57944 0.0
H424 H 0.9594 0.23003 0.58706 0.0
C425 C 0.94312 0.9734 0.977 0.0
C426 C 0.97201 0.9726 0.9964 0.0
C427 C 0.90192 0.9218 0.96683 0.0
C428 C 0.88902 0.86811 0.97637 0.0
C429 C 0.91604 0.86678 0.99645 0.0
C430 C 0.95736 0.91906 0.0062 0.0
C431 C 0.87397 0.92491 0.94538 0.0
C432 C 0.90289 0.81031 0.00722 0.0
C433 C 0.75263 0.73434 0.95459 0.0
C434 C 0.77756 0.71858 0.9379 0.0
C435 C 0.78853 0.78176 0.96789 0.0
C436 C 0.85064 0.81393 0.96436 0.0
C437 C 0.87613 0.79642 0.94826 0.0
C438 C 0.83926 0.74893 0.93523 0.0
C439 C 0.75983 0.79904 0.98497 0.0
C440 C 0.94223 0.82933 0.94412 0.0
H441 H 0.954 0.01446 0.96933 0.0
H442 H 0.979 0.9179 0.02131 0.0
H443 H 0.88856 0.90891 0.9316 0.0
H444 H 0.82506 0.89657 0.94678 0.0
H445 H 0.88591 0.96971 0.94087 0.0
H446 H 0.92351 0.81638 0.02381 0.0
H447 H 0.8544 0.77963 0.0092 0.0
H448 H 0.91982 0.78991 0.99636 0.0
H449 H 0.70491 0.71127 0.95657 0.0
H450 H 0.85864 0.73631 0.92253 0.0
H451 H 0.76532 0.84096 0.97966 0.0
H452 H 0.78165 0.80536 0.00128 0.0
H453 H 0.7118 0.76626 0.98723 0.0
H454 H 0.95782 0.87381 0.93764 0.0
H455 H 0.95518 0.80801 0.93194 0.0
H456 H 0.96549 0.83346 0.95993 0.0
C457 C 0.03716 0.88283 0.34997 0.0
C458 C 0.00317 0.9059 0.34339 0.0
C459 C 0.04371 0.84603 0.33612 0.0
C460 C 0.01503 0.83153 0.31536 0.0
C461 C 0.98032 0.85435 0.30871 0.0
C462 C 0.97508 0.89153 0.32276 0.0
C463 C 0.08159 0.82297 0.34364 0.0
C464 C 0.94859 0.83938 0.28677 0.0
C465 C 0.069 0.7776 0.26933 0.0
C466 C 0.02803 0.71763 0.271 0.0
C467 C 0.06611 0.81512 0.28399 0.0
C468 C 0.02084 0.79214 0.30056 0.0
C469 C 0.97983 0.73165 0.30253 0.0
C470 C 0.98412 0.69512 0.28781 0.0
C471 C 0.11084 0.87943 0.2815 0.0
C472 C 0.93082 0.70559 0.31995 0.0
H473 H 0.05936 0.89415 0.36583 0.0
H474 H 0.94861 0.90909 0.31761 0.0
H475 H 0.05464 0.77494 0.34469 0.0
H476 H 0.11769 0.83585 0.33126 0.0
H477 H 0.10157 0.83906 0.36013 0.0
H478 H 0.923 0.86046 0.28416 0.0
H479 H 0.981 0.85299 0.27282 0.0
H480 H 0.91777 0.79178 0.28606 0.0
H481 H 0.10262 0.79544 0.25625 0.0
H482 H 0.95298 0.64875 0.28948 0.0
H483 H 0.13305 0.89643 0.29756 0.0
H484 H 0.08806 0.90237 0.27695 0.0
H485 H 0.14514 0.89002 0.26854 0.0
H486 H 0.94973 0.71786 0.3368 0.0
H487 H 0.90313 0.65758 0.31952 0.0
H488 H 0.90186 0.72296 0.31735 0.0
C489 C 0.24232 0.10468 0.65328 0.0
C490 C 0.19802 0.04589 0.65644 0.0
C491 C 0.29498 0.12173 0.64161 0.0
C492 C 0.30305 0.07899 0.63268 0.0
C493 C 0.25893 0.01958 0.63614 0.0
C494 C 0.20709 0.00375 0.64809 0.0
C495 C 0.34143 0.18543 0.63847 0.0
C496 C 0.26572 0.97273 0.62665 0.0
C497 C 0.39866 0.11219 0.58122 0.0
C498 C 0.44786 0.11358 0.59011 0.0
C499 C 0.35227 0.10339 0.59505 0.0
C500 C 0.35546 0.096 0.61833 0.0
C501 C 0.40655 0.10018 0.62747 0.0
C502 C 0.45221 0.10851 0.61315 0.0
C503 C 0.29843 0.09873 0.58461 0.0
C504 C 0.4117 0.09312 0.65222 0.0
H505 H 0.23586 0.13748 0.6599 0.0
H506 H 0.17311 0.95827 0.65051 0.0
H507 H 0.38513 0.19416 0.6439 0.0
H508 H 0.34587 0.1984 0.62056 0.0
H509 H 0.33045 0.21297 0.64793 0.0
H510 H 0.22835 0.92854 0.63156 0.0
H511 H 0.26825 0.97715 0.6082 0.0
H512 H 0.30755 0.97737 0.63234 0.0
H513 H 0.39542 0.11543 0.56331 0.0
H514 H 0.49025 0.10904 0.61983 0.0
H515 H 0.28773 0.12816 0.59268 0.0
H516 H 0.25966 0.05392 0.58721 0.0
H517 H 0.30475 0.10942 0.56644 0.0
H518 H 0.40057 0.12079 0.66144 0.0
H519 H 0.45685 0.10435 0.65684 0.0
H520 H 0.37964 0.04753 0.65771 0.0
C521 C 0.22422 0.21618 0.97792 0.0
C522 C 0.22585 0.16825 0.98597 0.0
C523 C 0.26392 0.25389 0.9613 0.0
C524 C 0.30653 0.24359 0.95258 0.0
C525 C 0.30573 0.19307 0.95944 0.0
C526 C 0.26528 0.15586 0.97611 0.0
C527 C 0.2631 0.30715 0.95435 0.0
C528 C 0.35024 0.18045 0.95034 0.0
C529 C 0.39896 0.3395 0.90311 0.0
C530 C 0.44848 0.38314 0.91389 0.0
C531 C 0.3527 0.2925 0.91539 0.0
C532 C 0.35663 0.28982 0.93887 0.0
C533 C 0.40741 0.33372 0.94967 0.0
C534 C 0.45277 0.37996 0.93699 0.0
C535 C 0.29928 0.24651 0.90336 0.0
C536 C 0.41326 0.33259 0.97466 0.0
H537 H 0.19391 0.22615 0.98536 0.0
H538 H 0.2666 0.11873 0.98215 0.0
H539 H 0.30241 0.34609 0.9611 0.0
H540 H 0.26555 0.31297 0.93595 0.0
H541 H 0.22274 0.305 0.96052 0.0
H542 H 0.33821 0.13557 0.95474 0.0
H543 H 0.35424 0.18685 0.93196 0.0
H544 H 0.39441 0.21107 0.95726 0.0
H545 H 0.39634 0.34252 0.88515 0.0
H546 H 0.49155 0.41414 0.9451 0.0
H547 H 0.25969 0.24731 0.90828 0.0
H548 H 0.29033 0.20292 0.90814 0.0
H549 H 0.30505 0.25278 0.88497 0.0
H550 H 0.37767 0.33547 0.9828 0.0
H551 H 0.45668 0.36882 0.9803 0.0
H552 H 0.40803 0.29109 0.98047 0.0
C553 C 0.00566 0.1707 0.304 0.0
C554 C 0.04777 0.19659 0.32073 0.0
C555 C 0.00106 0.20474 0.28712 0.0
C556 C 0.04027 0.26562 0.28688 0.0
C557 C 0.08748 0.29088 0.30206 0.0
C558 C 0.09023 0.25606 0.31901 0.0
C559 C 0.95037 0.17618 0.27115 0.0
C560 C 0.13154 0.35546 0.30182 0.0
C561 C 0.0437 0.36752 0.24172 0.0
C562 C 0.01365 0.38955 0.2525 0.0
C563 C 0.05049 0.3248 0.25218 0.0
C564 C 0.02617 0.30367 0.27381 0.0
C565 C 0.99273 0.32351 0.28415 0.0
C566 C 0.98763 0.36694 0.27346 0.0
C567 C 0.08698 0.30541 0.2407 0.0
C568 C 0.96516 0.30131 0.30706 0.0
H569 H 0.97266 0.12466 0.3053 0.0
H570 H 0.12323 0.27597 0.33182 0.0
H571 H 0.91489 0.18302 0.2766 0.0
H572 H 0.96466 0.1956 0.25409 0.0
H573 H 0.93141 0.1288 0.27058 0.0
H574 H 0.17074 0.36686 0.31208 0.0
H575 H 0.14677 0.37271 0.28456 0.0
H576 H 0.11001 0.37733 0.30857 0.0
H577 H 0.06429 0.38581 0.22553 0.0
H578 H 0.96545 0.385 0.28188 0.0
H579 H 0.06678 0.25802 0.24306 0.0
H580 H 0.13162 0.32714 0.24811 0.0
H581 H 0.09231 0.31666 0.22257 0.0
H582 H 0.93935 0.25325 0.30793 0.0
H583 H 0.93544 0.31648 0.31165 0.0
H584 H 0.00053 0.31648 0.31961 0.0
loop_
_geom_bond_atom_site_label_1
_geom_bond_atom_site_label_2
_geom_bond_distance
_geom_bond_site_symmetry_2
_ccdc_geom_bond_type
Mg0 O1 2.028 . S
Mg0 O7 1.986 . S
Mg0 O9 2.114 . S
Mg0 O10 2.251 . S
Mg0 O13 2.010 . S
O1 Mg0 2.028 . S
O1 C4 1.250 . S
O2 Mg3 2.028 . S
O2 C4 1.248 . S
Mg3 O2 2.028 . S
Mg3 O8 2.032 . S
Mg3 O10 2.079 . S
C4 O1 1.250 . S
C4 O2 1.248 . S
C5 O6 1.264 1_565 S
C5 O13 1.249 1_565 S
O6 C5 1.264 1_545 S
O7 Mg0 1.986 . S
O7 C11 1.246 . S
O8 Mg3 2.032 . S
O8 C11 1.259 . S
O9 Mg0 2.114 . S
O9 C12 1.252 . S
O10 Mg0 2.251 . S
O10 Mg3 2.079 . S
O10 C12 1.273 . S
C11 O7 1.246 . S
C11 O8 1.259 . S
C12 O9 1.252 . S
C12 O10 1.273 . S
O13 Mg0 2.010 . S
O13 C5 1.249 1_545 S
Mg14 O15 2.028 1_655 S
Mg14 O21 1.986 1_655 S
Mg14 O23 2.114 . S
Mg14 O24 2.251 . S
Mg14 O27 2.010 1_545 S
O15 Mg14 2.028 1_455 S
O15 C18 1.250 . S
O16 Mg17 2.028 . S
O16 C18 1.248 . S
Mg17 O16 2.028 . S
Mg17 O22 2.032 . S
Mg17 O24 2.079 1_455 S
C18 O15 1.250 . S
C18 O16 1.248 . S
C19 O20 1.264 . S
C19 O27 1.249 . S
O20 C19 1.264 . S
O21 Mg14 1.986 1_455 S
O21 C25 1.246 . S
O22 Mg17 2.032 . S
O22 C25 1.259 . S
O23 Mg14 2.114 . S
O23 C26 1.252 . S
O24 Mg14 2.251 . S
O24 Mg17 2.079 1_655 S
O24 C26 1.273 . S
C25 O21 1.246 . S
C25 O22 1.259 . S
C26 O23 1.252 . S
C26 O24 1.273 . S
O27 Mg14 2.010 1_565 S
O27 C19 1.249 . S
Mg28 O29 2.028 . S
Mg28 O35 1.986 . S
Mg28 O37 2.114 1_545 S
Mg28 O38 2.251 1_445 S
Mg28 O41 2.010 . S
O29 Mg28 2.028 . S
O29 C32 1.250 . S
O30 Mg31 2.028 1_455 S
O30 C32 1.248 . S
Mg31 O30 2.028 1_655 S
Mg31 O36 2.032 . S
Mg31 O38 2.079 1_545 S
C32 O29 1.250 . S
C32 O30 1.248 . S
C33 O34 1.264 . S
C33 O41 1.249 1_565 S
O34 C33 1.264 . S
O35 Mg28 1.986 . S
O35 C39 1.246 1_455 S
O36 Mg31 2.032 . S
O36 C39 1.259 . S
O37 Mg28 2.114 1_565 S
O37 C40 1.255 . S
O38 Mg28 2.251 1_665 S
O38 Mg31 2.079 1_565 S
O38 C40 1.271 1_655 S
C39 O35 1.246 1_655 S
C39 O36 1.259 . S
C40 O37 1.255 . S
C40 O38 1.271 1_455 S
O41 Mg28 2.010 . S
O41 C33 1.249 1_545 S
C42 C43 1.443 . S
C42 N46 1.376 . S
C42 C80 1.389 . S
C43 C42 1.443 . S
C43 C44 1.340 . S
C43 H83 0.951 . S
C44 C43 1.340 . S
C44 C45 1.439 . S
C44 H84 0.950 . S
C45 C44 1.439 . S
C45 N46 1.374 . S
C45 C79 1.395 . S
N46 C42 1.376 . S
N46 C45 1.374 . S
N46 Co47 2.008 . S
Co47 N46 2.008 . S
Co47 N48 1.995 . S
Co47 N53 2.008 1_455 S
Co47 N58 1.995 1_455 S
Co47 N63 2.282 . S
Co47 N69 2.282 . S
N48 Co47 1.995 . S
N48 C49 1.376 . S
N48 C52 1.383 . S
C49 N48 1.376 . S
C49 C50 1.446 . S
C49 C79 1.391 . S
C50 C49 1.446 . S
C50 C51 1.339 . S
C50 H85 0.949 . S
C51 C50 1.339 . S
C51 C52 1.439 . S
C51 H86 0.950 . S
C52 N48 1.383 . S
C52 C51 1.439 . S
C52 C81 1.392 . S
N53 Co47 2.008 1_655 S
N53 C54 1.376 . S
N53 C57 1.374 . S
C54 N53 1.376 . S
C54 C55 1.443 . S
C54 C81 1.389 1_655 S
C55 C54 1.443 . S
C55 C56 1.340 . S
C55 H87 0.951 . S
C56 C55 1.340 . S
C56 C57 1.439 . S
C56 H88 0.950 . S
C57 N53 1.374 . S
C57 C56 1.439 . S
C57 C82 1.395 . S
N58 Co47 1.995 1_655 S
N58 C59 1.376 . S
N58 C62 1.383 . S
C59 N58 1.376 . S
C59 C60 1.446 . S
C59 C82 1.391 . S
C60 C59 1.446 . S
C60 C61 1.339 . S
C60 H89 0.949 . S
C61 C60 1.339 . S
C61 C62 1.439 . S
C61 H90 0.950 . S
C62 N58 1.383 . S
C62 C61 1.439 . S
C62 C80 1.392 1_655 S
N63 Co47 2.282 . S
N63 C66 1.332 . S
N63 C68 1.332 . S
C64 C65 1.386 . S
C64 C67 1.388 . S
C65 C64 1.386 . S
C65 C66 1.382 . S
C65 H91 0.950 1_455 S
C66 N63 1.332 . S
C66 C65 1.382 . S
C66 H77 0.952 1_455 S
C67 C64 1.388 . S
C67 C68 1.382 . S
C67 H92 0.950 . S
C68 N63 1.332 . S
C68 C67 1.382 . S
C68 H78 0.948 . S
N69 Co47 2.282 . S
N69 C73 1.332 . S
N69 C74 1.332 1_455 S
C70 C71 1.388 1_655 S
C70 C74 1.382 . S
C70 H93 0.950 . S
C71 C70 1.388 1_455 S
C71 C72 1.386 . S
C72 C71 1.386 . S
C72 C73 1.382 . S
C72 H94 0.950 . S
C73 N69 1.332 . S
C73 C72 1.382 . S
C73 H75 0.952 . S
C74 N69 1.332 1_655 S
C74 C70 1.382 . S
C74 H76 0.948 . S
H75 C73 0.952 . S
H76 C74 0.948 . S
H77 C66 0.952 1_655 S
H78 C68 0.948 . S
C79 C45 1.395 . S
C79 C49 1.391 . S
C80 C42 1.389 . S
C80 C62 1.392 1_455 S
C81 C52 1.392 . S
C81 C54 1.389 1_455 S
C82 C57 1.395 . S
C82 C59 1.391 . S
H83 C43 0.951 . S
H84 C44 0.950 . S
H85 C50 0.949 . S
H86 C51 0.950 . S
H87 C55 0.951 . S
H88 C56 0.950 . S
H89 C60 0.949 . S
H90 C61 0.950 . S
H91 C65 0.950 1_655 S
H92 C67 0.950 . S
H93 C70 0.950 . S
H94 C72 0.950 . S
C95 C96 1.443 1_545 S
C95 N99 1.376 . S
C95 C133 1.389 . S
C96 C95 1.443 1_565 S
C96 C97 1.340 . S
C96 H136 0.951 . S
C97 C96 1.340 . S
C97 C98 1.439 . S
C97 H137 0.950 . S
C98 C97 1.439 . S
C98 N99 1.374 1_565 S
C98 C132 1.395 . S
N99 C95 1.376 . S
N99 C98 1.374 1_545 S
N99 Co100 2.008 . S
Co100 N99 2.008 . S
Co100 N101 1.995 . S
Co100 N106 2.008 . S
Co100 N111 1.995 . S
Co100 N116 2.282 . S
Co100 N122 2.282 . S
N101 Co100 1.995 . S
N101 C102 1.376 1_545 S
N101 C105 1.383 . S
C102 N101 1.376 1_565 S
C102 C103 1.446 . S
C102 C132 1.391 . S
C103 C102 1.446 . S
C103 C104 1.339 1_565 S
C103 H138 0.949 . S
C104 C103 1.339 1_545 S
C104 C105 1.439 . S
C104 H139 0.939 1_545 S
C105 N101 1.383 . S
C105 C104 1.439 . S
C105 C134 1.392 . S
N106 Co100 2.008 . S
N106 C107 1.376 . S
N106 C110 1.374 . S
C107 N106 1.376 . S
C107 C108 1.443 . S
C107 C134 1.389 . S
C108 C107 1.443 . S
C108 C109 1.340 . S
C108 H140 0.951 . S
C109 C108 1.340 . S
C109 C110 1.439 . S
C109 H141 0.950 . S
C110 N106 1.374 . S
C110 C109 1.439 . S
C110 C135 1.395 . S
N111 Co100 1.995 . S
N111 C112 1.376 . S
N111 C115 1.383 . S
C112 N111 1.376 . S
C112 C113 1.446 . S
C112 C135 1.391 . S
C113 C112 1.446 . S
C113 C114 1.339 . S
C113 H142 0.949 . S
C114 C113 1.339 . S
C114 C115 1.439 . S
C114 H143 0.950 . S
C115 N111 1.383 . S
C115 C114 1.439 . S
C115 C133 1.392 . S
N116 Co100 2.282 . S
N116 C119 1.332 . S
N116 C121 1.332 . S
C117 C118 1.386 . S
C117 C120 1.388 . S
C118 C117 1.386 . S
C118 C119 1.382 . S
C118 H144 0.950 . S
C119 N116 1.332 . S
C119 C118 1.382 . S
C119 H130 0.952 . S
C120 C117 1.388 . S
C120 C121 1.382 . S
C120 H145 0.950 . S
C121 N116 1.332 . S
C121 C120 1.382 . S
C121 H131 0.948 . S
N122 Co100 2.282 . S
N122 C126 1.332 . S
N122 C127 1.332 . S
C123 C124 1.388 . S
C123 C127 1.382 . S
C123 H146 0.950 . S
C124 C123 1.388 . S
C124 C125 1.386 . S
C125 C124 1.386 . S
C125 C126 1.382 . S
C125 H147 0.950 . S
C126 N122 1.332 . S
C126 C125 1.382 . S
C126 H128 0.952 . S
C127 N122 1.332 . S
C127 C123 1.382 . S
C127 H129 0.948 . S
H128 C126 0.952 . S
H129 C127 0.948 . S
H130 C119 0.952 . S
H131 C121 0.948 . S
C132 C98 1.395 . S
C132 C102 1.391 . S
C133 C95 1.389 . S
C133 C115 1.392 . S
C134 C105 1.392 . S
C134 C107 1.389 . S
C135 C110 1.395 . S
C135 C112 1.391 . S
H136 C96 0.951 . S
H137 C97 0.950 . S
H138 C103 0.949 . S
H139 C104 0.939 1_565 S
H140 C108 0.951 . S
H141 C109 0.950 . S
H142 C113 0.949 . S
H143 C114 0.950 . S
H144 C118 0.950 . S
H145 C120 0.950 . S
H146 C123 0.950 . S
H147 C125 0.950 . S
C148 C149 1.443 . S
C148 N152 1.376 . S
C148 C186 1.389 . S
C149 C148 1.443 . S
C149 C150 1.340 . S
C149 H189 0.951 . S
C150 C149 1.340 . S
C150 C151 1.439 . S
C150 H190 0.950 . S
C151 C150 1.439 . S
C151 N152 1.374 . S
C151 C185 1.395 . S
N152 C148 1.376 . S
N152 C151 1.374 . S
N152 Co153 2.008 . S
Co153 N152 2.008 . S
Co153 N154 1.995 . S
Co153 N159 2.008 . S
Co153 N164 1.995 . S
Co153 N169 2.282 . S
Co153 N175 2.282 . S
N154 Co153 1.995 . S
N154 C155 1.376 . S
N154 C158 1.383 . S
C155 N154 1.376 . S
C155 C156 1.446 . S
C155 C185 1.391 . S
C156 C155 1.446 . S
C156 C157 1.339 . S
C156 H191 0.949 . S
C157 C156 1.339 . S
C157 C158 1.439 . S
C157 H192 0.950 . S
C158 N154 1.383 . S
C158 C157 1.439 . S
C158 C187 1.392 . S
N159 Co153 2.008 . S
N159 C160 1.376 . S
N159 C163 1.374 . S
C160 N159 1.376 . S
C160 C161 1.443 . S
C160 C187 1.389 . S
C161 C160 1.443 . S
C161 C162 1.340 . S
C161 H193 0.951 . S
C162 C161 1.340 . S
C162 C163 1.439 . S
C162 H194 0.950 . S
C163 N159 1.374 . S
C163 C162 1.439 . S
C163 C188 1.395 . S
N164 Co153 1.995 . S
N164 C165 1.376 . S
N164 C168 1.383 . S
C165 N164 1.376 . S
C165 C166 1.446 . S
C165 C188 1.391 . S
C166 C165 1.446 . S
C166 C167 1.339 . S
C166 H195 0.949 . S
C167 C166 1.339 . S
C167 C168 1.439 . S
C167 H196 0.950 . S
C168 N164 1.383 . S
C168 C167 1.439 . S
C168 C186 1.392 . S
N169 Co153 2.282 . S
N169 C172 1.332 . S
N169 C174 1.332 . S
C170 C171 1.386 . S
C170 C173 1.388 . S
C171 C170 1.386 . S
C171 C172 1.382 . S
C171 H197 0.950 . S
C172 N169 1.332 . S
C172 C171 1.382 . S
C172 H183 0.952 . S
C173 C170 1.388 . S
C173 C174 1.382 . S
C173 H198 0.950 . S
C174 N169 1.332 . S
C174 C173 1.382 . S
C174 H184 0.948 . S
N175 Co153 2.282 . S
N175 C179 1.332 . S
N175 C180 1.332 . S
C176 C177 1.388 . S
C176 C180 1.382 . S
C176 H199 0.950 . S
C177 C176 1.388 . S
C177 C178 1.386 . S
C178 C177 1.386 . S
C178 C179 1.382 . S
C178 H200 0.950 . S
C179 N175 1.332 . S
C179 C178 1.382 . S
C179 H181 0.952 . S
C180 N175 1.332 . S
C180 C176 1.382 . S
C180 H182 0.948 . S
H181 C179 0.952 . S
H182 C180 0.948 . S
H183 C172 0.952 . S
H184 C174 0.948 . S
C185 C151 1.395 . S
C185 C155 1.391 . S
C186 C148 1.389 . S
C186 C168 1.392 . S
C187 C158 1.392 . S
C187 C160 1.389 . S
C188 C163 1.395 . S
C188 C165 1.391 . S
H189 C149 0.951 . S
H190 C150 0.950 . S
H191 C156 0.949 . S
H192 C157 0.950 . S
H193 C161 0.951 . S
H194 C162 0.950 . S
H195 C166 0.949 . S
H196 C167 0.950 . S
H197 C171 0.950 . S
H198 C173 0.950 . S
H199 C176 0.950 . S
H200 C178 0.950 . S
C201 C202 1.391 . S
C201 C203 1.394 . S
C201 H217 0.931 1_455 S
C202 C201 1.391 . S
C202 C206 1.376 . S
C203 C201 1.394 . S
C203 C204 1.369 . S
C203 C207 1.531 1_455 S
C204 C203 1.369 . S
C204 C205 1.410 . S
C204 C212 1.503 . S
C205 C204 1.410 . S
C205 C206 1.392 . S
C205 C208 1.511 . S
C206 C202 1.376 . S
C206 C205 1.392 . S
C206 H218 0.929 . S
C207 C203 1.531 1_655 S
C207 H219 0.960 . S
C207 H220 0.962 . S
C207 H221 0.960 . S
C208 C205 1.511 . S
C208 H222 0.961 . S
C208 H223 0.961 . S
C208 H224 0.961 . S
C209 C210 1.370 . S
C209 C211 1.363 . S
C209 H225 0.931 . S
C210 C209 1.370 . S
C210 C214 1.408 . S
C211 C209 1.363 . S
C211 C212 1.370 . S
C211 C215 1.524 . S
C212 C204 1.503 . S
C212 C211 1.370 . S
C212 C213 1.403 . S
C213 C212 1.403 . S
C213 C214 1.404 . S
C213 C216 1.539 . S
C214 C210 1.408 . S
C214 C213 1.404 . S
C214 H226 0.930 . S
C215 C211 1.524 . S
C215 H227 0.956 . S
C215 H228 0.961 . S
C215 H229 0.961 . S
C216 C213 1.539 . S
C216 H230 0.958 1_455 S
C216 H231 0.961 . S
C216 H232 0.960 . S
H217 C201 0.931 1_655 S
H218 C206 0.929 . S
H219 C207 0.960 . S
H220 C207 0.962 . S
H221 C207 0.960 . S
H222 C208 0.961 . S
H223 C208 0.961 . S
H224 C208 0.961 . S
H225 C209 0.931 . S
H226 C214 0.930 . S
H227 C215 0.956 . S
H228 C215 0.961 . S
H229 C215 0.961 . S
H230 C216 0.958 1_655 S
H231 C216 0.961 . S
H232 C216 0.960 . S
C233 C234 1.391 . S
C233 C235 1.394 . S
C233 H249 0.931 1_545 S
C234 C233 1.391 . S
C234 C238 1.376 . S
C235 C233 1.394 . S
C235 C236 1.369 . S
C235 C239 1.531 1_545 S
C236 C235 1.369 . S
C236 C237 1.410 . S
C236 C244 1.503 . S
C237 C236 1.410 . S
C237 C238 1.392 . S
C237 C240 1.511 . S
C238 C234 1.376 . S
C238 C237 1.392 . S
C238 H250 0.929 . S
C239 C235 1.531 1_565 S
C239 H251 0.968 . S
C239 H252 0.962 . S
C239 H253 0.960 . S
C240 C237 1.511 . S
C240 H254 0.961 . S
C240 H255 0.961 . S
C240 H256 0.961 . S
C241 C242 1.370 . S
C241 C243 1.363 . S
C241 H257 0.931 . S
C242 C241 1.370 . S
C242 C246 1.408 . S
C243 C241 1.363 . S
C243 C244 1.370 . S
C243 C247 1.524 . S
C244 C236 1.503 . S
C244 C243 1.370 . S
C244 C245 1.403 . S
C245 C244 1.403 . S
C245 C246 1.404 . S
C245 C248 1.539 . S
C246 C242 1.408 . S
C246 C245 1.404 . S
C246 H258 0.930 . S
C247 C243 1.524 . S
C247 H259 0.956 . S
C247 H260 0.961 . S
C247 H261 0.961 . S
C248 C245 1.539 . S
C248 H262 0.958 . S
C248 H263 0.961 . S
C248 H264 0.960 . S
H249 C233 0.931 1_565 S
H250 C238 0.929 . S
H251 C239 0.968 . S
H252 C239 0.962 . S
H253 C239 0.960 . S
H254 C240 0.961 . S
H255 C240 0.961 . S
H256 C240 0.961 . S
H257 C241 0.931 . S
H258 C246 0.930 . S
H259 C247 0.956 . S
H260 C247 0.961 . S
H261 C247 0.961 . S
H262 C248 0.958 . S
H263 C248 0.961 . S
H264 C248 0.960 . S
C265 C266 1.391 . S
C265 C267 1.394 . S
C265 H281 0.931 . S
C266 C265 1.391 . S
C266 C270 1.376 . S
C267 C265 1.394 . S
C267 C268 1.369 . S
C267 C271 1.531 . S
C268 C267 1.369 . S
C268 C269 1.410 . S
C268 C276 1.503 . S
C269 C268 1.410 . S
C269 C270 1.392 . S
C269 C272 1.511 . S
C270 C266 1.376 . S
C270 C269 1.392 . S
C270 H282 0.929 1_655 S
C271 C267 1.531 . S
C271 H283 0.960 . S
C271 H284 0.962 . S
C271 H285 0.960 . S
C272 C269 1.511 . S
C272 H286 0.961 . S
C272 H287 0.961 . S
C272 H288 0.961 . S
C273 C274 1.370 . S
C273 C275 1.363 . S
C273 H289 0.931 . S
C274 C273 1.370 . S
C274 C278 1.408 . S
C275 C273 1.363 . S
C275 C276 1.370 . S
C275 C279 1.524 . S
C276 C268 1.503 . S
C276 C275 1.370 . S
C276 C277 1.403 . S
C277 C276 1.403 . S
C277 C278 1.404 . S
C277 C280 1.539 . S
C278 C274 1.408 . S
C278 C277 1.404 . S
C278 H290 0.930 . S
C279 C275 1.524 . S
C279 H291 0.956 . S
C279 H292 0.961 . S
C279 H293 0.961 . S
C280 C277 1.539 . S
C280 H294 0.958 . S
C280 H295 0.961 . S
C280 H296 0.960 . S
H281 C265 0.931 . S
H282 C270 0.929 1_455 S
H283 C271 0.960 . S
H284 C271 0.962 . S
H285 C271 0.960 . S
H286 C272 0.961 . S
H287 C272 0.961 . S
H288 C272 0.961 . S
H289 C273 0.931 . S
H290 C278 0.930 . S
H291 C279 0.956 . S
H292 C279 0.961 . S
H293 C279 0.961 . S
H294 C280 0.958 . S
H295 C280 0.961 . S
H296 C280 0.960 . S
C297 C298 1.391 . S
C297 C299 1.394 . S
C297 H313 0.931 . S
C298 C297 1.391 . S
C298 C302 1.376 . S
C299 C297 1.394 . S
C299 C300 1.369 . S
C299 C303 1.531 . S
C300 C299 1.369 . S
C300 C301 1.410 . S
C300 C308 1.503 . S
C301 C300 1.410 . S
C301 C302 1.392 . S
C301 C304 1.511 . S
C302 C298 1.376 . S
C302 C301 1.392 . S
C302 H314 0.929 . S
C303 C299 1.531 . S
C303 H315 0.960 . S
C303 H316 0.962 1_455 S
C303 H317 0.960 . S
C304 C301 1.511 . S
C304 H318 0.961 . S
C304 H319 0.961 . S
C304 H320 0.961 . S
C305 C306 1.370 . S
C305 C307 1.363 . S
C305 H321 0.931 . S
C306 C305 1.370 . S
C306 C310 1.408 . S
C307 C305 1.363 . S
C307 C308 1.370 . S
C307 C311 1.524 . S
C308 C300 1.503 . S
C308 C307 1.370 . S
C308 C309 1.403 . S
C309 C308 1.403 . S
C309 C310 1.404 . S
C309 C312 1.539 . S
C310 C306 1.408 . S
C310 C309 1.404 . S
C310 H322 0.930 . S
C311 C307 1.524 . S
C311 H323 0.956 . S
C311 H324 0.961 . S
C311 H325 0.961 . S
C312 C309 1.539 . S
C312 H326 0.958 . S
C312 H327 0.961 . S
C312 H328 0.960 . S
H313 C297 0.931 . S
H314 C302 0.929 . S
H315 C303 0.960 . S
H316 C303 0.962 1_655 S
H317 C303 0.960 . S
H318 C304 0.961 . S
H319 C304 0.961 . S
H320 C304 0.961 . S
H321 C305 0.931 . S
H322 C310 0.930 . S
H323 C311 0.956 . S
H324 C311 0.961 . S
H325 C311 0.961 . S
H326 C312 0.958 . S
H327 C312 0.961 . S
H328 C312 0.960 . S
C329 C330 1.391 . S
C329 C331 1.394 . S
C329 H345 0.931 . S
C330 C329 1.391 . S
C330 C334 1.376 . S
C331 C329 1.394 . S
C331 C332 1.369 . S
C331 C335 1.531 . S
C332 C331 1.369 . S
C332 C333 1.410 . S
C332 C340 1.503 . S
C333 C332 1.410 . S
C333 C334 1.392 . S
C333 C336 1.511 . S
C334 C330 1.376 . S
C334 C333 1.392 . S
C334 H346 0.929 . S
C335 C331 1.531 . S
C335 H347 0.960 . S
C335 H348 0.962 . S
C335 H349 0.960 . S
C336 C333 1.511 . S
C336 H350 0.961 . S
C336 H351 0.961 . S
C336 H352 0.961 . S
C337 C338 1.370 . S
C337 C339 1.363 . S
C337 H353 0.931 . S
C338 C337 1.370 . S
C338 C342 1.408 . S
C339 C337 1.363 . S
C339 C340 1.370 . S
C339 C343 1.524 . S
C340 C332 1.503 . S
C340 C339 1.370 . S
C340 C341 1.403 . S
C341 C340 1.403 . S
C341 C342 1.404 . S
C341 C344 1.539 1_545 S
C342 C338 1.408 . S
C342 C341 1.404 . S
C342 H354 0.930 . S
C343 C339 1.524 . S
C343 H355 0.956 . S
C343 H356 0.961 . S
C343 H357 0.961 . S
C344 C341 1.539 1_565 S
C344 H358 0.958 . S
C344 H359 0.961 . S
C344 H360 0.960 . S
H345 C329 0.931 . S
H346 C334 0.929 . S
H347 C335 0.960 . S
H348 C335 0.962 . S
H349 C335 0.960 . S
H350 C336 0.961 . S
H351 C336 0.961 . S
H352 C336 0.961 . S
H353 C337 0.931 . S
H354 C342 0.930 . S
H355 C343 0.956 . S
H356 C343 0.961 . S
H357 C343 0.961 . S
H358 C344 0.958 . S
H359 C344 0.961 . S
H360 C344 0.960 . S
C361 C362 1.391 . S
C361 C363 1.394 . S
C361 H377 0.931 . S
C362 C361 1.391 . S
C362 C366 1.376 . S
C363 C361 1.394 . S
C363 C364 1.369 . S
C363 C367 1.531 . S
C364 C363 1.369 . S
C364 C365 1.410 . S
C364 C372 1.503 . S
C365 C364 1.410 . S
C365 C366 1.392 . S
C365 C368 1.511 . S
C366 C362 1.376 . S
C366 C365 1.392 . S
C366 H378 0.929 . S
C367 C363 1.531 . S
C367 H379 0.960 . S
C367 H380 0.962 . S
C367 H381 0.960 . S
C368 C365 1.511 . S
C368 H382 0.961 . S
C368 H383 0.961 . S
C368 H384 0.961 . S
C369 C370 1.370 . S
C369 C371 1.363 . S
C369 H385 0.931 . S
C370 C369 1.370 . S
C370 C374 1.408 . S
C371 C369 1.363 . S
C371 C372 1.370 . S
C371 C375 1.524 . S
C372 C364 1.503 . S
C372 C371 1.370 . S
C372 C373 1.403 . S
C373 C372 1.403 . S
C373 C374 1.404 . S
C373 C376 1.539 . S
C374 C370 1.408 . S
C374 C373 1.404 . S
C374 H386 0.930 . S
C375 C371 1.524 . S
C375 H387 0.956 . S
C375 H388 0.961 . S
C375 H389 0.961 . S
C376 C373 1.539 . S
C376 H390 0.958 . S
C376 H391 0.961 . S
C376 H392 0.960 . S
H377 C361 0.931 . S
H378 C366 0.929 . S
H379 C367 0.960 . S
H380 C367 0.962 . S
H381 C367 0.960 . S
H382 C368 0.961 . S
H383 C368 0.961 . S
H384 C368 0.961 . S
H385 C369 0.931 . S
H386 C374 0.930 . S
H387 C375 0.956 . S
H388 C375 0.961 . S
H389 C375 0.961 . S
H390 C376 0.958 . S
H391 C376 0.961 . S
H392 C376 0.960 . S
C393 C394 1.391 . S
C393 C395 1.394 . S
C393 H409 0.931 . S
C394 C393 1.391 . S
C394 C398 1.376 . S
C395 C393 1.394 . S
C395 C396 1.369 . S
C395 C399 1.531 . S
C396 C395 1.369 . S
C396 C397 1.410 . S
C396 C404 1.503 . S
C397 C396 1.410 . S
C397 C398 1.392 . S
C397 C400 1.511 . S
C398 C394 1.376 . S
C398 C397 1.392 . S
C398 H410 0.929 . S
C399 C395 1.531 . S
C399 H411 0.960 . S
C399 H412 0.962 . S
C399 H413 0.960 . S
C400 C397 1.511 . S
C400 H414 0.961 1_545 S
C400 H415 0.961 1_545 S
C400 H416 0.961 . S
C401 C402 1.370 . S
C401 C403 1.363 . S
C401 H417 0.931 . S
C402 C401 1.370 . S
C402 C406 1.408 . S
C403 C401 1.363 . S
C403 C404 1.370 . S
C403 C407 1.524 . S
C404 C396 1.503 . S
C404 C403 1.370 . S
C404 C405 1.403 . S
C405 C404 1.403 . S
C405 C406 1.404 . S
C405 C408 1.539 . S
C406 C402 1.408 . S
C406 C405 1.404 . S
C406 H418 0.930 . S
C407 C403 1.524 . S
C407 H419 0.956 . S
C407 H420 0.961 . S
C407 H421 0.961 . S
C408 C405 1.539 . S
C408 H422 0.958 . S
C408 H423 0.961 . S
C408 H424 0.960 . S
H409 C393 0.931 . S
H410 C398 0.929 . S
H411 C399 0.960 . S
H412 C399 0.962 . S
H413 C399 0.960 . S
H414 C400 0.961 1_565 S
H415 C400 0.961 1_565 S
H416 C400 0.961 . S
H417 C401 0.931 . S
H418 C406 0.930 . S
H419 C407 0.956 . S
H420 C407 0.961 . S
H421 C407 0.961 . S
H422 C408 0.958 . S
H423 C408 0.961 . S
H424 C408 0.960 . S
C425 C426 1.391 1_456 S
C425 C427 1.394 1_455 S
C425 H441 0.931 . S
C426 C425 1.391 1_654 S
C426 C430 1.376 . S
C427 C425 1.394 1_655 S
C427 C428 1.369 . S
C427 C431 1.531 . S
C428 C427 1.369 . S
C428 C429 1.410 . S
C428 C436 1.503 . S
C429 C428 1.410 . S
C429 C430 1.392 1_556 S
C429 C432 1.511 1_556 S
C430 C426 1.376 . S
C430 C429 1.392 1_554 S
C430 H442 0.929 . S
C431 C427 1.531 . S
C431 H443 0.960 . S
C431 H444 0.962 . S
C431 H445 0.960 1_655 S
C432 C429 1.511 1_554 S
C432 H446 0.961 . S
C432 H447 0.961 1_554 S
C432 H448 0.961 . S
C433 C434 1.370 . S
C433 C435 1.363 . S
C433 H449 0.931 . S
C434 C433 1.370 . S
C434 C438 1.408 . S
C435 C433 1.363 . S
C435 C436 1.370 . S
C435 C439 1.524 . S
C436 C428 1.503 . S
C436 C435 1.370 . S
C436 C437 1.403 . S
C437 C436 1.403 . S
C437 C438 1.404 . S
C437 C440 1.539 . S
C438 C434 1.408 . S
C438 C437 1.404 . S
C438 H450 0.930 . S
C439 C435 1.524 . S
C439 H451 0.956 . S
C439 H452 0.961 . S
C439 H453 0.961 . S
C440 C437 1.539 . S
C440 H454 0.958 . S
C440 H455 0.961 . S
C440 H456 0.960 . S
H441 C425 0.931 . S
H442 C430 0.929 . S
H443 C431 0.960 . S
H444 C431 0.962 . S
H445 C431 0.960 1_455 S
H446 C432 0.961 . S
H447 C432 0.961 1_556 S
H448 C432 0.961 . S
H449 C433 0.931 . S
H450 C438 0.930 . S
H451 C439 0.956 . S
H452 C439 0.961 . S
H453 C439 0.961 . S
H454 C440 0.958 . S
H455 C440 0.961 . S
H456 C440 0.960 . S
C457 C458 1.399 . S
C457 C459 1.387 1_655 S
C457 H473 0.929 1_655 S
C458 C457 1.399 . S
C458 C462 1.376 . S
C459 C457 1.387 1_455 S
C459 C460 1.369 1_455 S
C459 C463 1.531 . S
C460 C459 1.369 1_655 S
C460 C461 1.410 . S
C460 C468 1.503 1_655 S
C461 C460 1.410 . S
C461 C462 1.392 . S
C461 C464 1.511 . S
C462 C458 1.376 . S
C462 C461 1.392 . S
C462 H474 0.929 . S
C463 C459 1.531 . S
C463 H475 0.960 1_455 S
C463 H476 0.962 . S
C463 H477 0.960 1_455 S
C464 C461 1.511 . S
C464 H478 0.961 . S
C464 H479 0.961 1_655 S
C464 H480 0.961 . S
C465 C466 1.370 . S
C465 C467 1.363 . S
C465 H481 0.931 . S
C466 C465 1.370 . S
C466 C470 1.408 1_455 S
C467 C465 1.363 . S
C467 C468 1.370 . S
C467 C471 1.524 . S
C468 C460 1.503 1_455 S
C468 C467 1.370 . S
C468 C469 1.403 1_455 S
C469 C468 1.403 1_655 S
C469 C470 1.404 . S
C469 C472 1.539 . S
C470 C466 1.408 1_655 S
C470 C469 1.404 . S
C470 H482 0.930 . S
C471 C467 1.524 . S
C471 H483 0.956 . S
C471 H484 0.961 . S
C471 H485 0.961 . S
C472 C469 1.539 . S
C472 H486 0.958 . S
C472 H487 0.961 . S
C472 H488 0.960 . S
H473 C457 0.929 1_455 S
H474 C462 0.929 . S
H475 C463 0.960 1_655 S
H476 C463 0.962 . S
H477 C463 0.960 1_655 S
H478 C464 0.961 . S
H479 C464 0.961 1_455 S
H480 C464 0.961 . S
H481 C465 0.931 . S
H482 C470 0.930 . S
H483 C471 0.956 . S
H484 C471 0.961 . S
H485 C471 0.961 . S
H486 C472 0.958 . S
H487 C472 0.961 . S
H488 C472 0.960 . S
C489 C490 1.391 . S
C489 C491 1.394 . S
C489 H505 0.931 . S
C490 C489 1.391 . S
C490 C494 1.376 1_545 S
C491 C489 1.394 . S
C491 C492 1.369 . S
C491 C495 1.531 . S
C492 C491 1.369 . S
C492 C493 1.410 . S
C492 C500 1.503 . S
C493 C492 1.410 . S
C493 C494 1.392 1_545 S
C493 C496 1.511 1_545 S
C494 C490 1.376 1_565 S
C494 C493 1.392 1_565 S
C494 H506 0.929 . S
C495 C491 1.531 . S
C495 H507 0.960 . S
C495 H508 0.962 . S
C495 H509 0.960 . S
C496 C493 1.511 1_565 S
C496 H510 0.961 . S
C496 H511 0.961 . S
C496 H512 0.961 . S
C497 C498 1.370 . S
C497 C499 1.363 . S
C497 H513 0.931 . S
C498 C497 1.370 . S
C498 C502 1.408 . S
C499 C497 1.363 . S
C499 C500 1.370 . S
C499 C503 1.524 . S
C500 C492 1.503 . S
C500 C499 1.370 . S
C500 C501 1.403 . S
C501 C500 1.403 . S
C501 C502 1.404 . S
C501 C504 1.539 . S
C502 C498 1.408 . S
C502 C501 1.404 . S
C502 H514 0.930 . S
C503 C499 1.524 . S
C503 H515 0.956 . S
C503 H516 0.961 1_545 S
C503 H517 0.961 . S
C504 C501 1.539 . S
C504 H518 0.958 . S
C504 H519 0.961 . S
C504 H520 0.960 . S
H505 C489 0.931 . S
H506 C494 0.929 . S
H507 C495 0.960 . S
H508 C495 0.962 . S
H509 C495 0.960 . S
H510 C496 0.961 . S
H511 C496 0.961 . S
H512 C496 0.961 . S
H513 C497 0.931 . S
H514 C502 0.930 . S
H515 C503 0.956 . S
H516 C503 0.961 1_565 S
H517 C503 0.961 . S
H518 C504 0.958 . S
H519 C504 0.961 . S
H520 C504 0.960 . S
C521 C522 1.396 . S
C521 C523 1.414 . S
C521 H537 0.907 1_556 S
C522 C521 1.396 . S
C522 C526 1.376 . S
C523 C521 1.414 . S
C523 C524 1.369 . S
C523 C527 1.531 . S
C524 C523 1.369 . S
C524 C525 1.410 . S
C524 C532 1.503 . S
C525 C524 1.410 . S
C525 C526 1.392 . S
C525 C528 1.511 . S
C526 C522 1.376 . S
C526 C525 1.392 . S
C526 H538 0.929 . S
C527 C523 1.531 . S
C527 H539 0.960 . S
C527 H540 0.962 . S
C527 H541 0.960 1_556 S
C528 C525 1.511 . S
C528 H542 0.961 . S
C528 H543 0.961 . S
C528 H544 0.961 . S
C529 C530 1.370 . S
C529 C531 1.363 . S
C529 H545 0.931 . S
C530 C529 1.370 . S
C530 C534 1.408 . S
C531 C529 1.363 . S
C531 C532 1.370 . S
C531 C535 1.524 . S
C532 C524 1.503 . S
C532 C531 1.370 . S
C532 C533 1.403 . S
C533 C532 1.403 . S
C533 C534 1.404 . S
C533 C536 1.539 . S
C534 C530 1.408 . S
C534 C533 1.404 . S
C534 H546 0.930 . S
C535 C531 1.524 . S
C535 H547 0.956 . S
C535 H548 0.961 . S
C535 H549 0.961 . S
C536 C533 1.539 . S
C536 H550 0.958 . S
C536 H551 0.961 . S
C536 H552 0.960 . S
H537 C521 0.907 1_554 S
H538 C526 0.929 . S
H539 C527 0.960 . S
H540 C527 0.962 . S
H541 C527 0.960 1_554 S
H542 C528 0.961 . S
H543 C528 0.961 . S
H544 C528 0.961 . S
H545 C529 0.931 . S
H546 C534 0.930 . S
H547 C535 0.956 . S
H548 C535 0.961 . S
H549 C535 0.961 . S
H550 C536 0.958 . S
H551 C536 0.961 . S
H552 C536 0.960 . S
C553 C554 1.391 . S
C553 C555 1.394 . S
C553 H569 0.931 1_455 S
C554 C553 1.391 . S
C554 C558 1.376 . S
C555 C553 1.394 . S
C555 C556 1.369 . S
C555 C559 1.531 1_455 S
C556 C555 1.369 . S
C556 C557 1.410 . S
C556 C564 1.503 . S
C557 C556 1.410 . S
C557 C558 1.392 . S
C557 C560 1.511 . S
C558 C554 1.376 . S
C558 C557 1.392 . S
C558 H570 0.929 . S
C559 C555 1.531 1_655 S
C559 H571 0.960 . S
C559 H572 0.962 . S
C559 H573 0.960 . S
C560 C557 1.511 . S
C560 H574 0.961 . S
C560 H575 0.961 . S
C560 H576 0.961 . S
C561 C562 1.370 . S
C561 C563 1.363 . S
C561 H577 0.931 . S
C562 C561 1.370 . S
C562 C566 1.408 1_455 S
C563 C561 1.363 . S
C563 C564 1.370 . S
C563 C567 1.524 . S
C564 C556 1.503 . S
C564 C563 1.370 . S
C564 C565 1.403 1_455 S
C565 C564 1.403 1_655 S
C565 C566 1.404 . S
C565 C568 1.539 . S
C566 C562 1.408 1_655 S
C566 C565 1.404 . S
C566 H578 0.930 . S
C567 C563 1.524 . S
C567 H579 0.956 . S
C567 H580 0.961 . S
C567 H581 0.961 . S
C568 C565 1.539 . S
C568 H582 0.958 . S
C568 H583 0.961 . S
C568 H584 0.960 . S
H569 C553 0.931 1_655 S
H570 C558 0.929 . S
H571 C559 0.960 . S
H572 C559 0.962 . S
H573 C559 0.960 . S
H574 C560 0.961 . S
H575 C560 0.961 . S
H576 C560 0.961 . S
H577 C561 0.931 . S
H578 C566 0.930 . S
H579 C567 0.956 . S
H580 C567 0.961 . S
H581 C567 0.961 . S
H582 C568 0.958 . S
H583 C568 0.961 . S
H584 C568 0.960 . S
C210 C64 1.401 . S
C202 C11 1.397 . S
C234 C26 1.536 . S
C242 C134 1.563 . S
C266 C40 1.430 1_655 S
C274 C186 1.424 . S
C298 C5 1.271 . S
C306 C80 1.404 . S
C338 C124 1.536 . S
C330 C18 1.524 . S
C362 C32 1.402 . S
C370 C170 1.416 . S
C402 C117 1.301 . S
C394 C39 1.303 . S
C426 C4 1.419 1_665 S
C434 C177 1.425 . S
C466 C71 1.396 . S
C458 C19 1.191 . S
C498 C133 1.333 . S
C490 C33 1.250 1_545 S
C530 C187 1.442 . S
C522 C12 1.436 1_556 S
C554 C25 1.357 . S
C562 C81 1.409 . S
