# Generated by pormake.
# Topology apo, (3,6)-cn, num edge types: 1
# Building blocks:
#     Node 0, Type 0, BuildingBlock: WUSLED_clean_sbu_0, # of connection points: 3
#     Node 1, Type 0, BuildingBlock: WUSLED_clean_sbu_0, # of connection points: 3
#     Node 2, Type 0, BuildingBlock: WUSLED_clean_sbu_0, # of connection points: 3
#     Node 3, Type 0, BuildingBlock: WUSLED_clean_sbu_0, # of connection points: 3
#     Node 4, Type 0, BuildingBlock: WUSLED_clean_sbu_0, # of connection points: 3
#     Node 5, Type 0, BuildingBlock: WUSLED_clean_sbu_0, # of connection points: 3
#     Node 6, Type 0, BuildingBlock: WUSLED_clean_sbu_0, # of connection points: 3
#     Node 7, Type 0, BuildingBlock: WUSLED_clean_sbu_0, # of connection points: 3
#     Node 8, Type 1, BuildingBlock: MIDCAF_clean_sbu_0, # of connection points: 6
#     Node 9, Type 1, BuildingBlock: MIDCAF_clean_sbu_0, # of connection points: 6
#     Node 10, Type 1, BuildingBlock: MIDCAF_clean_sbu_0, # of connection points: 6
#     Node 11, Type 1, BuildingBlock: MIDCAF_clean_sbu_0, # of connection points: 6
#     Edge 12, Type (0, 1), BuildingBlock: XIVTED_clean_linker_0, # of connection points: 2
#     Edge 13, Type (0, 1), BuildingBlock: XIVTED_clean_linker_0, # of connection points: 2
#     Edge 14, Type (0, 1), BuildingBlock: XIVTED_clean_linker_0, # of connection points: 2
#     Edge 15, Type (0, 1), BuildingBlock: XIVTED_clean_linker_0, # of connection points: 2
#     Edge 16, Type (0, 1), BuildingBlock: XIVTED_clean_linker_0, # of connection points: 2
#     Edge 17, Type (0, 1), BuildingBlock: XIVTED_clean_linker_0, # of connection points: 2
#     Edge 18, Type (0, 1), BuildingBlock: XIVTED_clean_linker_0, # of connection points: 2
#     Edge 19, Type (0, 1), BuildingBlock: XIVTED_clean_linker_0, # of connection points: 2
#     Edge 20, Type (0, 1), BuildingBlock: XIVTED_clean_linker_0, # of connection points: 2
#     Edge 21, Type (0, 1), BuildingBlock: XIVTED_clean_linker_0, # of connection points: 2
#     Edge 22, Type (0, 1), BuildingBlock: XIVTED_clean_linker_0, # of connection points: 2
#     Edge 23, Type (0, 1), BuildingBlock: XIVTED_clean_linker_0, # of connection points: 2
#     Edge 24, Type (0, 1), BuildingBlock: XIVTED_clean_linker_0, # of connection points: 2
#     Edge 25, Type (0, 1), BuildingBlock: XIVTED_clean_linker_0, # of connection points: 2
#     Edge 26, Type (0, 1), BuildingBlock: XIVTED_clean_linker_0, # of connection points: 2
#     Edge 27, Type (0, 1), BuildingBlock: XIVTED_clean_linker_0, # of connection points: 2
#     Edge 28, Type (0, 1), BuildingBlock: XIVTED_clean_linker_0, # of connection points: 2
#     Edge 29, Type (0, 1), BuildingBlock: XIVTED_clean_linker_0, # of connection points: 2
#     Edge 30, Type (0, 1), BuildingBlock: XIVTED_clean_linker_0, # of connection points: 2
#     Edge 31, Type (0, 1), BuildingBlock: XIVTED_clean_linker_0, # of connection points: 2
#     Edge 32, Type (0, 1), BuildingBlock: XIVTED_clean_linker_0, # of connection points: 2
#     Edge 33, Type (0, 1), BuildingBlock: XIVTED_clean_linker_0, # of connection points: 2
#     Edge 34, Type (0, 1), BuildingBlock: XIVTED_clean_linker_0, # of connection points: 2
#     Edge 35, Type (0, 1), BuildingBlock: XIVTED_clean_linker_0, # of connection points: 2
# Relax obj value: 0.081
# Max RMSD: 0.098
# Mean RMSD: 0.087
data_MOF--net-apo--node1-WUSLED_clean_sbu_0--node2-MIDCAF_clean_sbu_0--edge1-XIVTED_clean_linker_0
_symmetry_space_group_name_H-M    P1
_symmetry_Int_Tables_number       1
_symmetry_cell_setting            triclinic
loop_
_symmetry_equiv_pos_as_xyz
'x, y, z'
_cell_length_a     45.164022
_cell_length_b     53.992991
_cell_length_c     47.45507
_cell_angle_alpha  90.333321
_cell_angle_beta   90.148934
_cell_angle_gamma 90.140439
loop_
_atom_site_label
_atom_site_type_symbol
_atom_site_fract_x
_atom_site_fract_y
_atom_site_fract_z
_atom_type_partial_charge
C0 C 0.36377 0.39263 0.35675 0.0
C1 C 0.37474 0.40826 0.37809 0.0
C2 C 0.40128 0.43283 0.34322 0.0
C3 C 0.39324 0.42821 0.37138 0.0
C4 C 0.39061 0.41676 0.32202 0.0
C5 C 0.37202 0.39689 0.32874 0.0
U6 U 0.33003 0.34574 0.40784 0.0
O7 O 0.28376 0.33309 0.41183 0.0
O8 O 0.31875 0.3065 0.40119 0.0
C9 C 0.29013 0.31041 0.40362 0.0
C10 C 0.34347 0.37205 0.36322 0.0
C11 C 0.27071 0.29955 0.38149 0.0
C12 C 0.26361 0.27642 0.33768 0.0
C13 C 0.28234 0.2884 0.35704 0.0
C14 C 0.22123 0.28727 0.36624 0.0
C15 C 0.23285 0.27543 0.34222 0.0
C16 C 0.23995 0.29908 0.38567 0.0
C17 C 0.35945 0.34598 0.48537 0.0
C18 C 0.3895 0.32756 0.52243 0.0
C19 C 0.34278 0.34673 0.53428 0.0
C20 C 0.3382 0.35241 0.50577 0.0
C21 C 0.36874 0.33458 0.54305 0.0
C22 C 0.38494 0.33325 0.49406 0.0
C23 C 0.35739 0.35484 0.45583 0.0
O24 O 0.35612 0.35081 0.36911 0.0
O25 O 0.32138 0.37743 0.38016 0.0
O26 O 0.33299 0.36623 0.44806 0.0
O27 O 0.36799 0.34007 0.4362 0.0
H28 H 0.36869 0.40522 0.39988 0.0
H29 H 0.40065 0.44033 0.38824 0.0
H30 H 0.39666 0.41947 0.30019 0.0
H31 H 0.36391 0.38492 0.31201 0.0
H32 H 0.27327 0.26769 0.31927 0.0
H33 H 0.30594 0.28849 0.35307 0.0
H34 H 0.19772 0.28658 0.37063 0.0
H35 H 0.23041 0.30738 0.4044 0.0
H36 H 0.41004 0.31865 0.52832 0.0
H37 H 0.3262 0.35225 0.54949 0.0
H38 H 0.31841 0.36245 0.49991 0.0
H39 H 0.40202 0.32844 0.479 0.0
C40 C 0.18848 0.19415 0.98648 0.0
C41 C 0.17815 0.17214 0.99874 0.0
C42 C 0.16604 0.19436 0.04214 0.0
C43 C 0.1672 0.17223 0.02634 0.0
C44 C 0.17651 0.21632 0.02978 0.0
C45 C 0.18769 0.21618 1.00227 0.0
U46 U 0.1866 0.17153 0.90987 0.0
O47 O 0.19138 0.19239 0.87031 0.0
O48 O 0.22268 0.16274 0.88049 0.0
C49 C 0.21582 0.18079 0.86319 0.0
C50 C 0.19969 0.19461 0.95723 0.0
C51 C 0.24063 0.19659 0.854 0.0
C52 C 0.28552 0.22001 0.86395 0.0
C53 C 0.26128 0.20614 0.87336 0.0
C54 C 0.26834 0.21555 0.8158 0.0
C55 C 0.28954 0.22468 0.83501 0.0
C56 C 0.24418 0.20159 0.82523 0.0
C57 C 0.12843 0.12137 0.88993 0.0
C58 C 0.12886 0.08519 0.859 0.0
C59 C 0.0822 0.10362 0.87262 0.0
C60 C 0.09742 0.12161 0.88831 0.0
C61 C 0.09768 0.08479 0.8583 0.0
C62 C 0.14408 0.10329 0.87463 0.0
C63 C 0.14352 0.13873 0.90955 0.0
O64 O 0.21349 0.17458 0.94847 0.0
O65 O 0.18142 0.20366 0.93833 0.0
O66 O 0.13915 0.16248 0.9053 0.0
O67 O 0.17097 0.13347 0.91659 0.0
H68 H 0.17827 0.15492 0.98692 0.0
H69 H 0.1589 0.15507 0.03505 0.0
H70 H 0.17612 0.23364 0.0414 0.0
H71 H 0.19555 0.23336 0.99324 0.0
H72 H 0.30114 0.2271 0.87938 0.0
H73 H 0.25883 0.20264 0.89569 0.0
H74 H 0.27084 0.21861 0.7934 0.0
H75 H 0.22846 0.19436 0.80996 0.0
H76 H 0.14154 0.07089 0.8485 0.0
H77 H 0.05824 0.10418 0.87218 0.0
H78 H 0.08484 0.13536 0.89989 0.0
H79 H 0.16803 0.1026 0.87543 0.0
C80 C 0.85448 0.12026 0.67971 0.0
C81 C 0.878 0.1111 0.66344 0.0
C82 C 0.88579 0.07784 0.69721 0.0
C83 C 0.89365 0.0901 0.67221 0.0
C84 C 0.86254 0.08744 0.71361 0.0
C85 C 0.84708 0.10845 0.70493 0.0
U86 U 0.82622 0.16557 0.62355 0.0
O87 O 0.78097 0.17976 0.61752 0.0
O88 O 0.8173 0.20552 0.62719 0.0
C89 C 0.78849 0.20248 0.62467 0.0
C90 C 0.83673 0.14157 0.67053 0.0
C91 C 0.76955 0.21452 0.64626 0.0
C92 C 0.76327 0.23863 0.68947 0.0
C93 C 0.78168 0.22664 0.66998 0.0
C94 C 0.72028 0.22617 0.66229 0.0
C95 C 0.73235 0.23864 0.68579 0.0
C96 C 0.73867 0.21437 0.64273 0.0
C97 C 0.85472 0.15809 0.5466 0.0
C98 C 0.86186 0.188 0.50896 0.0
C99 C 0.86319 0.14409 0.49846 0.0
C100 C 0.85765 0.13889 0.5268 0.0
C101 C 0.86601 0.16871 0.48923 0.0
C102 C 0.85624 0.18275 0.53738 0.0
C103 C 0.85268 0.15168 0.57678 0.0
O104 O 0.85156 0.16141 0.66291 0.0
O105 O 0.81452 0.13627 0.6536 0.0
O106 O 0.82751 0.14209 0.58535 0.0
O107 O 0.86428 0.16751 0.59489 0.0
H108 H 0.88393 0.11994 0.6438 0.0
H109 H 0.91124 0.083 0.65898 0.0
H110 H 0.85616 0.0786 0.73311 0.0
H111 H 0.82903 0.11529 0.71777 0.0
H112 H 0.77326 0.24791 0.70743 0.0
H113 H 0.80538 0.22707 0.67344 0.0
H114 H 0.69662 0.22614 0.65854 0.0
H115 H 0.72873 0.20532 0.62458 0.0
H116 H 0.86351 0.20717 0.50256 0.0
H117 H 0.86666 0.12873 0.48408 0.0
H118 H 0.8567 0.11973 0.53346 0.0
H119 H 0.85392 0.19793 0.55222 0.0
C120 C 0.68651 0.32069 0.05328 0.0
C121 C 0.66769 0.34062 0.04734 0.0
C122 C 0.66465 0.32781 0.99795 0.0
C123 C 0.6569 0.34416 0.01998 0.0
C124 C 0.68328 0.30768 1.00414 0.0
C125 C 0.69415 0.3042 0.03155 0.0
U126 U 0.68878 0.33829 0.13115 0.0
O127 O 0.69171 0.31525 0.16922 0.0
O128 O 0.72633 0.34269 0.16041 0.0
C129 C 0.71761 0.32442 0.17666 0.0
C130 C 0.69836 0.31711 0.08196 0.0
C131 C 0.74042 0.30647 0.18611 0.0
C132 C 0.75333 0.2702 0.21392 0.0
C133 C 0.73201 0.28611 0.20262 0.0
C134 C 0.7921 0.2947 0.19261 0.0
C135 C 0.78367 0.27437 0.20923 0.0
C136 C 0.77076 0.31057 0.18122 0.0
C137 C 0.63697 0.39105 0.15647 0.0
C138 C 0.63889 0.42967 0.18332 0.0
C139 C 0.59445 0.40459 0.18406 0.0
C140 C 0.60796 0.38727 0.16623 0.0
C141 C 0.60952 0.42627 0.19241 0.0
C142 C 0.65243 0.41231 0.16555 0.0
C143 C 0.6496 0.37408 0.1349 0.0
O144 O 0.71448 0.3355 0.09193 0.0
O145 O 0.67946 0.30844 0.10049 0.0
O146 O 0.64267 0.35049 0.137 0.0
O147 O 0.67736 0.37772 0.12767 0.0
H148 H 0.66139 0.35347 0.06387 0.0
H149 H 0.6422 0.3596 1.01616 0.0
H150 H 0.68989 0.29484 0.98772 0.0
H151 H 0.70866 0.2887 0.03574 0.0
H152 H 0.74603 0.25493 0.22689 0.0
H153 H 0.70889 0.28273 0.20729 0.0
H154 H 0.81524 0.29829 0.18826 0.0
H155 H 0.77812 0.32623 0.16889 0.0
H156 H 0.65107 0.44629 0.1889 0.0
H157 H 0.57195 0.40118 0.1909 0.0
H158 H 0.59535 0.3712 0.15945 0.0
H159 H 0.67469 0.41602 0.15824 0.0
C160 C 0.65782 0.62176 0.67779 0.0
C161 C 0.63118 0.61738 0.66329 0.0
C162 C 0.62165 0.58091 0.69207 0.0
C163 C 0.61321 0.59723 0.67044 0.0
C164 C 0.64841 0.58548 0.70652 0.0
C165 C 0.66626 0.60572 0.69946 0.0
U166 U 0.68765 0.66864 0.62483 0.0
O167 O 0.69779 0.70833 0.6306 0.0
O168 O 0.73294 0.68243 0.6184 0.0
C169 C 0.72631 0.70504 0.62667 0.0
C170 C 0.67718 0.64276 0.67045 0.0
C171 C 0.74606 0.71611 0.64821 0.0
C172 C 0.77818 0.7125 0.6893 0.0
C173 C 0.75828 0.70183 0.66999 0.0
C174 C 0.77309 0.752 0.66592 0.0
C175 C 0.78603 0.73769 0.68736 0.0
C176 C 0.75338 0.74129 0.64655 0.0
C177 C 0.65569 0.66413 0.54818 0.0
C178 C 0.65176 0.65057 0.49923 0.0
C179 C 0.63842 0.69253 0.51197 0.0
C180 C 0.64587 0.68775 0.54012 0.0
C181 C 0.64058 0.67381 0.49127 0.0
C182 C 0.65912 0.6458 0.52734 0.0
C183 C 0.65905 0.6571 0.57818 0.0
O184 O 0.6988 0.63763 0.6529 0.0
O185 O 0.66368 0.66367 0.66466 0.0
O186 O 0.64869 0.67249 0.59733 0.0
O187 O 0.6842 0.64674 0.58555 0.0
H188 H 0.62428 0.62952 0.64641 0.0
H189 H 0.59263 0.59453 0.65907 0.0
H190 H 0.65595 0.57312 0.72292 0.0
H191 H 0.68683 0.60873 0.71079 0.0
H192 H 0.78749 0.701 0.7057 0.0
H193 H 0.75275 0.68238 0.67186 0.0
H194 H 0.7789 0.77134 0.66352 0.0
H195 H 0.7442 0.75263 0.62992 0.0
H196 H 0.65339 0.6356 0.48403 0.0
H197 H 0.63028 0.71074 0.50655 0.0
H198 H 0.64298 0.70231 0.55566 0.0
H199 H 0.66636 0.62736 0.533 0.0
C200 C 0.83359 0.81286 0.04303 0.0
C201 C 0.84195 0.83513 0.03006 0.0
C202 C 0.85564 0.81273 0.98729 0.0
C203 C 0.8527 0.83507 1.00243 0.0
C204 C 0.84716 0.79048 1.00033 0.0
C205 C 0.83614 0.79058 0.0279 0.0
U206 U 0.83567 0.83821 0.11808 0.0
O207 O 0.79967 0.8466 0.1478 0.0
O208 O 0.83344 0.81922 0.15895 0.0
C209 C 0.80803 0.82948 0.1657 0.0
C210 C 0.82293 0.81253 0.07244 0.0
C211 C 0.78453 0.81225 0.1745 0.0
C212 C 0.75177 0.77756 0.16444 0.0
C213 C 0.77488 0.79326 0.1564 0.0
C214 C 0.74782 0.79945 0.20897 0.0
C215 C 0.73767 0.78061 0.1907 0.0
C216 C 0.77102 0.81514 0.20089 0.0
C217 C 0.89155 0.89214 0.13089 0.0
C218 C 0.92109 0.92973 0.13116 0.0
C219 C 0.90933 0.90961 0.17525 0.0
C220 C 0.89344 0.8913 0.16043 0.0
C221 C 0.92365 0.92889 0.16069 0.0
C222 C 0.90527 0.91156 0.11648 0.0
C223 C 0.87632 0.87291 0.11417 0.0
O224 O 0.84231 0.80517 0.0913 0.0
O225 O 0.80775 0.83202 0.08065 0.0
O226 O 0.84817 0.87674 0.10869 0.0
O227 O 0.88234 0.84976 0.1204 0.0
H228 H 0.84051 0.85256 0.04139 0.0
H229 H 0.85951 0.85247 0.9932 0.0
H230 H 0.84904 0.77298 0.9892 0.0
H231 H 0.82987 0.77319 0.03752 0.0
H232 H 0.74495 0.763 0.15003 0.0
H233 H 0.78507 0.79072 0.13594 0.0
H234 H 0.73734 0.80251 0.22918 0.0
H235 H 0.77816 0.82977 0.21511 0.0
H236 H 0.93118 0.94459 0.11929 0.0
H237 H 0.91089 0.90844 0.19798 0.0
H238 H 0.88292 0.87642 0.17192 0.0
H239 H 0.90391 0.91259 0.09371 0.0
C240 C 0.16493 0.88769 0.35018 0.0
C241 C 0.137 0.89026 0.36278 0.0
C242 C 0.12654 0.92647 0.33386 0.0
C243 C 0.11795 0.90932 0.35458 0.0
C244 C 0.15441 0.92356 0.32102 0.0
C245 C 0.17336 0.90435 0.32909 0.0
U246 U 0.19823 0.84849 0.4085 0.0
O247 O 0.21053 0.80913 0.40963 0.0
O248 O 0.24441 0.83772 0.41705 0.0
C249 C 0.23875 0.81399 0.41385 0.0
C250 C 0.18585 0.8684 0.35953 0.0
C251 C 0.26011 0.79971 0.39687 0.0
C252 C 0.2755 0.77938 0.35336 0.0
C253 C 0.25548 0.79446 0.36815 0.0
C254 C 0.30515 0.7753 0.39566 0.0
C255 C 0.30032 0.76926 0.36713 0.0
C256 C 0.28526 0.7903 0.41032 0.0
C257 C 0.16813 0.85927 0.48378 0.0
C258 C 0.16874 0.83121 0.52376 0.0
C259 C 0.15677 0.87449 0.53083 0.0
C260 C 0.16062 0.87874 0.50204 0.0
C261 C 0.16027 0.85059 0.54203 0.0
C262 C 0.17271 0.83553 0.4949 0.0
C263 C 0.16944 0.86411 0.45323 0.0
O264 O 0.20756 0.87626 0.37581 0.0
O265 O 0.17395 0.84756 0.36827 0.0
O266 O 0.15964 0.84637 0.43651 0.0
O267 O 0.19373 0.87472 0.44402 0.0
H268 H 0.12999 0.87771 0.3792 0.0
H269 H 0.09653 0.91068 0.36466 0.0
H270 H 0.16204 0.93656 0.30533 0.0
H271 H 0.19489 0.90279 0.31921 0.0
H272 H 0.2711 0.77505 0.33143 0.0
H273 H 0.23619 0.80163 0.35734 0.0
H274 H 0.32433 0.7683 0.40678 0.0
H275 H 0.28932 0.79426 0.43242 0.0
H276 H 0.17192 0.81265 0.5317 0.0
H277 H 0.14981 0.88979 0.54409 0.0
H278 H 0.15693 0.89719 0.49388 0.0
H279 H 0.17873 0.82023 0.48121 0.0
C280 C 0.33029 0.694 0.982 0.0
C281 C 0.3457 0.67245 0.98936 0.0
C282 C 0.35058 0.68718 0.03783 0.0
C283 C 0.35567 0.66905 0.01696 0.0
C284 C 0.33552 0.70896 0.03027 0.0
C285 C 0.32536 0.71228 1.00258 0.0
U286 U 0.33094 0.67355 0.90574 0.0
O287 O 0.29482 0.66782 0.8751 0.0
O288 O 0.3304 0.69429 0.86598 0.0
C289 C 0.30488 0.68484 0.85788 0.0
C290 C 0.31941 0.69725 0.95293 0.0
C291 C 0.28285 0.70262 0.84734 0.0
C292 C 0.25298 0.73968 0.85305 0.0
C293 C 0.27353 0.72277 0.86382 0.0
C294 C 0.25059 0.71629 0.80939 0.0
C295 C 0.24133 0.7367 0.82564 0.0
C296 C 0.27118 0.69945 0.82015 0.0
C297 C 0.38292 0.61897 0.88821 0.0
C298 C 0.38158 0.59352 0.84578 0.0
C299 C 0.42143 0.58859 0.87954 0.0
C300 C 0.40918 0.60725 0.89634 0.0
C301 C 0.4076 0.58124 0.85422 0.0
C302 C 0.36936 0.61228 0.86263 0.0
C303 C 0.36962 0.6373 0.9074 0.0
O304 O 0.33928 0.70488 0.93473 0.0
O305 O 0.30302 0.67895 0.94316 0.0
O306 O 0.34131 0.63433 0.91282 0.0
O307 O 0.37707 0.66052 0.90319 0.0
H308 H 0.34999 0.65821 0.97371 0.0
H309 H 0.36769 0.65228 0.02189 0.0
H310 H 0.33117 0.72322 0.04584 0.0
H311 H 0.31356 0.72907 0.99726 0.0
H312 H 0.246 0.75495 0.86633 0.0
H313 H 0.28219 0.72543 0.88494 0.0
H314 H 0.24234 0.71354 0.78815 0.0
H315 H 0.27816 0.68399 0.80713 0.0
H316 H 0.37054 0.5885 0.82628 0.0
H317 H 0.44118 0.57932 0.88696 0.0
H318 H 0.41991 0.61214 0.91606 0.0
H319 H 0.34911 0.62124 0.85594 0.0
Zn320 Zn 0.03805 0.1386 0.31225 0.0
Zn321 Zn 0.99021 0.13845 0.21354 0.0
Zn322 Zn 0.01399 0.13917 0.26304 0.0
C323 C 0.04132 0.16615 0.20764 0.0
C324 C 1.00029 0.08949 0.22578 0.0
O325 O 0.98217 0.15673 0.29329 0.0
O326 O 1.00852 0.15881 0.33256 0.0
C327 C 0.07771 0.16386 0.27874 0.0
O328 O 0.04429 0.1592 0.23349 0.0
O329 O 0.01803 0.16085 0.19415 0.0
O330 O 0.99298 0.10267 0.20506 0.0
O331 O 1.00815 0.09977 0.24926 0.0
O332 O 0.07614 0.15437 0.30291 0.0
O333 O 0.05631 0.1609 0.26094 0.0
O334 O 0.02318 0.09982 0.27522 0.0
O335 O 0.03856 0.10261 0.31936 0.0
C336 C 0.0322 0.08946 0.29814 0.0
O337 O 0.96994 0.15816 0.26592 0.0
O338 O 0.9509 0.15158 0.22353 0.0
C339 C 0.98482 0.1632 0.3194 0.0
C340 C 0.94843 0.16029 0.24812 0.0
Zn341 Zn 0.53391 0.36687 0.71948 0.0
Zn342 Zn 0.49118 0.37285 0.81491 0.0
Zn343 Zn 0.51216 0.36888 0.76961 0.0
C344 C 0.47962 0.41696 0.7932 0.0
C345 C 0.46163 0.33391 0.79276 0.0
O346 O 0.55522 0.34861 0.77303 0.0
O347 O 0.5708 0.34932 0.72884 0.0
C348 C 0.53 0.41678 0.73144 0.0
O349 O 0.50138 0.40866 0.77836 0.0
O350 O 0.46602 0.40254 0.80948 0.0
O351 O 0.47121 0.34027 0.81672 0.0
O352 O 0.4713 0.3452 0.77071 0.0
O353 O 0.53705 0.40265 0.7113 0.0
O354 O 0.51993 0.40759 0.7546 0.0
O355 O 0.47902 0.34898 0.74228 0.0
O356 O 0.50181 0.34796 0.70105 0.0
C357 C 0.4795 0.34295 0.71591 0.0
O358 O 0.54553 0.35487 0.80064 0.0
O359 O 0.52864 0.37681 0.83642 0.0
C360 C 0.57463 0.34304 0.75414 0.0
C361 C 0.54873 0.3635 0.82589 0.0
Zn362 Zn 0.03232 0.87345 0.81816 0.0
Zn363 Zn 0.98696 0.86361 0.71859 0.0
Zn364 Zn 0.01003 0.86891 0.76807 0.0
C365 C 0.97957 0.91324 0.73363 0.0
C366 C 0.95409 0.83305 0.75199 0.0
O367 O 0.05527 0.85189 0.76736 0.0
O368 O 0.07217 0.8604 0.81012 0.0
C369 C 0.02053 0.92123 0.80161 0.0
O370 O 0.99661 0.90646 0.75399 0.0
O371 O 0.97057 0.89758 0.71569 0.0
O372 O 0.95878 0.83683 0.72622 0.0
O373 O 0.96971 0.84435 0.77096 0.0
O374 O 0.02835 0.9096 0.82335 0.0
O375 O 0.0132 0.90934 0.77895 0.0
O376 O 0.98062 0.84872 0.79823 0.0
O377 O 1.00483 0.85166 0.83872 0.0
C378 C 0.98289 0.84384 0.82476 0.0
O379 O 0.04473 0.85326 0.73948 0.0
O380 O 0.02288 0.85449 0.6977 0.0
C381 C 0.07606 0.85091 0.78606 0.0
C382 C 0.04543 0.85002 0.71252 0.0
Zn383 Zn 0.52608 0.62858 0.21199 0.0
Zn384 Zn 0.4869 0.64627 0.34276 0.0
Zn385 Zn 0.51124 0.64159 0.25911 0.0
C386 C 0.53725 0.66471 0.30578 0.0
C387 C 0.49377 0.59754 0.31204 0.0
O388 O 0.47554 0.65537 0.23017 0.0
O389 O 0.48793 0.63385 0.19231 0.0
C390 C 0.5669 0.66531 0.22826 0.0
O391 O 0.54641 0.6632 0.28046 0.0
O392 O 0.51114 0.65715 0.30962 0.0
O393 O 0.48867 0.60918 0.3352 0.0
O394 O 0.50078 0.60853 0.28846 0.0
O395 O 0.55779 0.65363 0.20677 0.0
O396 O 0.55386 0.66203 0.2521 0.0
O397 O 0.51584 0.60108 0.26092 0.0
O398 O 0.53741 0.59408 0.21997 0.0
C399 C 0.52841 0.58624 0.24341 0.0
O400 O 0.4696 0.66295 0.25805 0.0
O401 O 0.47897 0.65563 0.30151 0.0
C402 C 0.47008 0.64812 0.20474 0.0
C403 C 0.46157 0.66522 0.28367 0.0
H404 H 0.09168 0.95383 0.36958 0.0
H405 H 0.05189 0.05781 0.25659 0.0
H406 H 0.11739 0.94864 0.28216 0.0
H407 H 0.02666 0.06024 0.34411 0.0
H408 H 0.07012 0.0154 0.2633 0.0
H409 H 0.06254 0.9903 0.35867 0.0
C410 C 0.09092 0.96009 0.34796 0.0
C411 C 0.10722 0.948 0.32682 0.0
C412 C 0.06013 0.02508 0.2809 0.0
C413 C 0.07411 0.99051 0.3142 0.0
C414 C 0.0494 0.04917 0.27698 0.0
C415 C 0.03771 0.06251 0.29982 0.0
C416 C 0.05925 0.01444 0.30789 0.0
C417 C 0.03566 0.05065 0.32596 0.0
C418 C 0.07435 0.98113 0.34175 0.0
C419 C 0.10565 0.95752 0.29929 0.0
N420 N 0.04655 0.02745 0.32932 0.0
N421 N 0.0896 0.97829 0.29382 0.0
H422 H 0.46571 0.56941 0.84319 0.0
H423 H 0.42436 0.43466 0.78484 0.0
H424 H 0.37637 0.54389 0.8282 0.0
H425 H 0.51361 0.4581 0.80281 0.0
H426 H 0.40721 0.47698 0.79323 0.0
H427 H 0.4844 0.53131 0.82157 0.0
C428 C 0.45 0.55589 0.83519 0.0
C429 C 0.41937 0.55979 0.83787 0.0
C430 C 0.43067 0.47309 0.79473 0.0
C431 C 0.44069 0.51613 0.81292 0.0
C432 C 0.44045 0.44897 0.7898 0.0
C433 C 0.47051 0.44312 0.79255 0.0
C434 C 0.45106 0.49142 0.80309 0.0
C435 C 0.49044 0.46212 0.79949 0.0
C436 C 0.46072 0.53418 0.82272 0.0
C437 C 0.40013 0.54182 0.82654 0.0
N438 N 0.48033 0.48541 0.80486 0.0
N439 N 0.4111 0.52071 0.81487 0.0
H440 H 0.59054 0.55082 0.65564 0.0
H441 H 0.55154 0.44905 0.77109 0.0
H442 H 0.61072 0.56022 0.74406 0.0
H443 H 0.52415 0.44458 0.68421 0.0
H444 H 0.56918 0.49145 0.76307 0.0
H445 H 0.56263 0.51352 0.66674 0.0
C446 C 0.58883 0.54527 0.67746 0.0
C447 C 0.60322 0.55877 0.69889 0.0
C448 C 0.55876 0.48139 0.74589 0.0
C449 C 0.57156 0.5155 0.71176 0.0
C450 C 0.54826 0.45737 0.75063 0.0
C451 C 0.53586 0.44355 0.72845 0.0
C452 C 0.55722 0.49146 0.71865 0.0
C453 C 0.53348 0.45468 0.70191 0.0
C454 C 0.57297 0.52381 0.68379 0.0
C455 C 0.60052 0.55023 0.72673 0.0
N456 N 0.54425 0.47787 0.69771 0.0
N457 N 0.58521 0.52908 0.73233 0.0
H458 H 0.97693 0.9488 0.14544 0.0
H459 H 0.97559 0.05624 0.26243 0.0
H460 H 0.91039 0.9533 0.21035 0.0
H461 H 0.01787 0.0616 0.18138 0.0
H462 H 0.96163 0.01311 0.25119 0.0
H463 H 1.0019 0.98462 0.1662 0.0
C464 C 0.96762 0.95724 0.16417 0.0
C465 C 0.94109 0.94836 0.17575 0.0
C466 C 0.97447 0.02363 0.23616 0.0
C467 C 0.9699 0.98934 0.19988 0.0
C468 C 0.98263 0.04808 0.24265 0.0
C469 C 0.99773 0.06238 0.22269 0.0
C470 C 0.98187 0.01352 0.20973 0.0
C471 C 1.00609 0.05116 0.19725 0.0
C472 C 0.982 0.97763 0.17609 0.0
C473 C 0.93067 0.95961 0.2006 0.0
N474 N 0.99792 0.02748 0.19144 0.0
N475 N 0.9449 0.97975 0.21166 0.0
H476 H 0.85964 0.03558 0.71632 0.0
H477 H 0.0092 0.95791 0.73557 0.0
H478 H 0.94532 0.06646 0.69675 0.0
H479 H 0.92231 0.92563 0.72737 0.0
H480 H 0.98721 0.99937 0.72947 0.0
H481 H 0.88335 0.99663 0.72866 0.0
C482 C 0.88352 0.03425 0.71488 0.0
C483 C 0.90051 0.05434 0.70548 0.0
C484 C 0.97301 0.98318 0.72928 0.0
C485 C 0.92789 0.00954 0.71941 0.0
C486 C 0.9855 0.95966 0.73311 0.0
C487 C 0.96744 0.93852 0.73228 0.0
C488 C 0.94229 0.98534 0.72489 0.0
C489 C 0.93695 0.94154 0.72812 0.0
C490 C 0.89704 0.01193 0.72177 0.0
C491 C 0.93137 0.05134 0.70365 0.0
N492 N 0.92535 0.96446 0.72465 0.0
N493 N 0.94412 0.02934 0.71057 0.0
H494 H 0.63166 0.45648 0.23463 0.0
H495 H 0.49435 0.54809 0.2254 0.0
H496 H 0.55198 0.44184 0.18686 0.0
H497 H 0.57406 0.56493 0.27162 0.0
H498 H 0.51066 0.50514 0.22035 0.0
H499 H 0.60753 0.49244 0.2561 0.0
C500 C 0.60903 0.46066 0.2288 0.0
C501 C 0.59404 0.44619 0.20856 0.0
C502 C 0.52432 0.51797 0.23227 0.0
C503 C 0.56614 0.48731 0.23332 0.0
C504 C 0.51479 0.5424 0.23544 0.0
C505 C 0.53274 0.55982 0.24928 0.0
C506 C 0.55246 0.51114 0.24227 0.0
C507 C 0.55942 0.55183 0.26122 0.0
C508 C 0.59519 0.48113 0.24123 0.0
C509 C 0.56448 0.45227 0.2024 0.0
N510 N 0.56877 0.52814 0.25702 0.0
N511 N 0.55169 0.47247 0.21444 0.0
H512 H 0.44871 0.45231 0.37249 0.0
H513 H 0.46632 0.56967 0.27131 0.0
H514 H 0.39653 0.4635 0.29729 0.0
H515 H 0.50598 0.56462 0.35379 0.0
H516 H 0.44824 0.52706 0.27601 0.0
H517 H 0.47646 0.49002 0.36196 0.0
C518 C 0.44306 0.46264 0.35375 0.0
C519 C 0.41993 0.45474 0.33596 0.0
C520 C 0.46129 0.53513 0.2929 0.0
C521 C 0.45205 0.49788 0.32353 0.0
C522 C 0.47192 0.55934 0.29007 0.0
C523 C 0.48786 0.57059 0.31211 0.0
C524 C 0.46647 0.52217 0.31805 0.0
C525 C 0.4938 0.55659 0.33629 0.0
C526 C 0.45908 0.48411 0.34765 0.0
C527 C 0.41423 0.46867 0.31158 0.0
N528 N 0.48295 0.5332 0.3387 0.0
N529 N 0.43001 0.4896 0.30621 0.0
H530 H 0.11065 0.06019 0.80865 0.0
H531 H 0.99451 0.95227 0.83902 0.0
H532 H 0.04767 0.06116 0.87692 0.0
H533 H 0.05368 0.95123 0.76805 0.0
H534 H 1.00862 0.99523 0.84864 0.0
H535 H 0.08622 0.02312 0.78962 0.0
C536 C 0.0916 0.05275 0.81956 0.0
C537 C 0.08141 0.06382 0.8446 0.0
C538 C 0.0181 0.98589 0.83055 0.0
C539 C 0.05318 0.02142 0.82276 0.0
C540 C 0.00982 0.96145 0.82495 0.0
C541 C 0.02266 0.94844 0.80251 0.0
C542 C 0.04002 0.99724 0.81403 0.0
C543 C 0.04289 0.96088 0.78523 0.0
C544 C 0.07753 0.03166 0.80856 0.0
C545 C 0.05626 0.05353 0.85747 0.0
N546 N 0.05131 0.98451 0.79159 0.0
N547 N 0.04326 0.03286 0.84658 0.0
H548 H 0.1276 0.22838 0.06441 0.0
H549 H 0.10001 0.15333 0.20727 0.0
H550 H 0.17384 0.16108 0.08529 0.0
H551 H 0.03741 0.20388 0.17043 0.0
H552 H 0.13558 0.1639 0.16994 0.0
H553 H 0.10263 0.2269 0.11002 0.0
C554 C 0.13286 0.21348 0.07875 0.0
C555 C 0.15267 0.19469 0.07085 0.0
C556 C 0.11431 0.1731 0.17048 0.0
C557 C 0.12403 0.19288 0.1232 0.0
C558 C 0.0942 0.16732 0.19196 0.0
C559 C 0.06576 0.1777 0.19176 0.0
C560 C 0.10591 0.18958 0.14904 0.0
C561 C 0.05911 0.19542 0.17121 0.0
C562 C 0.11849 0.2126 0.10476 0.0
C563 C 0.15837 0.17573 0.0903 0.0
N564 N 0.07889 0.20064 0.15056 0.0
N565 N 0.14401 0.17522 0.11551 0.0
H566 H 0.3575 0.36596 0.58773 0.0
H567 H 0.4762 0.30147 0.6837 0.0
H568 H 0.39589 0.29478 0.56826 0.0
H569 H 0.42485 0.36389 0.71189 0.0
H570 H 0.4409 0.29462 0.64536 0.0
H571 H 0.37573 0.36233 0.63604 0.0
C572 C 0.3692 0.34931 0.59368 0.0
C573 C 0.37556 0.33085 0.57358 0.0
C574 C 0.43672 0.3094 0.66033 0.0
C575 C 0.39703 0.32679 0.62899 0.0
C576 C 0.45673 0.31311 0.68244 0.0
C577 C 0.45328 0.33317 0.701 0.0
C578 C 0.41359 0.32639 0.65621 0.0
C579 C 0.42805 0.34804 0.69815 0.0
C580 C 0.37974 0.3473 0.62134 0.0
C581 C 0.3911 0.30982 0.5827 0.0
N582 N 0.40954 0.34475 0.6757 0.0
N583 N 0.40165 0.30856 0.60953 0.0
H584 H 0.64471 0.29323 0.95916 0.0
H585 H 0.58096 0.39621 0.85621 0.0
H586 H 0.65886 0.37179 0.9699 0.0
H587 H 0.57388 0.31826 0.83752 0.0
H588 H 0.6147 0.38699 0.89484 0.0
H589 H 0.62322 0.3011 0.91254 0.0
C590 C 0.64363 0.3121 0.95164 0.0
C591 C 0.65329 0.33191 0.96876 0.0
C592 C 0.60629 0.37181 0.88211 0.0
C593 C 0.62856 0.34103 0.91539 0.0
C594 C 0.58718 0.37712 0.85989 0.0
C595 C 0.57469 0.35796 0.84371 0.0
C596 C 0.61252 0.34705 0.88879 0.0
C597 C 0.58326 0.33354 0.84944 0.0
C598 C 0.6313 0.31657 0.92501 0.0
C599 C 0.65112 0.35596 0.95786 0.0
N600 N 0.60126 0.32871 0.87191 0.0
N601 N 0.63885 0.35981 0.93208 0.0
H602 H 0.84959 0.14508 0.43982 0.0
H603 H 0.98633 0.20087 0.35725 0.0
H604 H 0.90545 0.20403 0.47142 0.0
H605 H 0.92741 0.14661 0.32069 0.0
H606 H 0.95095 0.20786 0.39517 0.0
H607 H 0.87216 0.14985 0.39329 0.0
C608 C 0.86636 0.15921 0.43695 0.0
C609 C 0.87588 0.17393 0.45982 0.0
C610 C 0.94529 0.19481 0.3786 0.0
C611 C 0.90174 0.17956 0.40642 0.0
C612 C 0.96541 0.19099 0.35678 0.0
C613 C 0.9598 0.17307 0.33594 0.0
C614 C 0.91962 0.18012 0.38005 0.0
C615 C 0.93248 0.16066 0.33636 0.0
C616 C 0.87911 0.16202 0.41029 0.0
C617 C 0.89725 0.19227 0.45456 0.0
N618 N 0.91367 0.16397 0.3585 0.0
N619 N 0.90969 0.1943 0.42861 0.0
H620 H 0.84464 0.84438 0.94332 0.0
H621 H 0.98928 0.80643 0.86192 0.0
H622 H 0.89731 0.78098 0.966 0.0
H623 H 0.92348 0.85376 0.82466 0.0
H624 H 0.95358 0.79404 0.89772 0.0
H625 H 0.87087 0.84643 0.89824 0.0
C626 C 0.86156 0.83077 0.93872 0.0
C627 C 0.86899 0.81263 0.95862 0.0
C628 C 0.94658 0.80669 0.88139 0.0
C629 C 0.8991 0.81487 0.90705 0.0
C630 C 0.96693 0.81362 0.86084 0.0
C631 C 0.95922 0.83109 0.84038 0.0
C632 C 0.91855 0.81788 0.88203 0.0
C633 C 0.93013 0.84009 0.84002 0.0
C634 C 0.87635 0.83183 0.91289 0.0
C635 C 0.89077 0.79524 0.95133 0.0
N636 N 0.91099 0.83383 0.86099 0.0
N637 N 0.90532 0.79702 0.92636 0.0
H638 H 0.59022 0.69842 0.47568 0.0
H639 H 0.59772 0.6595 0.31236 0.0
H640 H 0.66345 0.65752 0.44047 0.0
H641 H 0.51922 0.68497 0.35501 0.0
H642 H 0.62599 0.6656 0.35642 0.0
H643 H 0.56812 0.70084 0.42891 0.0
C644 C 0.60198 0.6903 0.45806 0.0
C645 C 0.62874 0.67764 0.46219 0.0
C646 C 0.60265 0.67012 0.35595 0.0
C647 C 0.60309 0.67997 0.40829 0.0
C648 C 0.58661 0.66683 0.3308 0.0
C649 C 0.55609 0.6716 0.33016 0.0
C650 C 0.58803 0.67852 0.38036 0.0
C651 C 0.54267 0.68082 0.35468 0.0
C652 C 0.58916 0.6915 0.43131 0.0
C653 C 0.64257 0.66715 0.43841 0.0
N654 N 0.55864 0.68388 0.37871 0.0
N655 N 0.62952 0.66842 0.41252 0.0
H656 H 0.34734 0.64473 0.06883 0.0
H657 H 0.45014 0.69531 0.19452 0.0
H658 H 0.37786 0.7204 0.07396 0.0
H659 H 0.43137 0.61839 0.17759 0.0
H660 H 0.41471 0.70682 0.15719 0.0
H661 H 0.36928 0.63684 0.11487 0.0
C662 C 0.35862 0.65973 0.07969 0.0
C663 C 0.36122 0.68314 0.06721 0.0
C664 C 0.41787 0.68746 0.16214 0.0
C665 C 0.38641 0.67425 0.1203 0.0
C666 C 0.43778 0.68093 0.18361 0.0
C667 C 0.44356 0.6559 0.18899 0.0
C668 C 0.40368 0.66874 0.14627 0.0
C669 C 0.42748 0.63791 0.174 0.0
C670 C 0.37103 0.65526 0.10609 0.0
C671 C 0.3754 0.70204 0.08271 0.0
N672 N 0.40851 0.64466 0.15322 0.0
N673 N 0.38781 0.69712 0.1083 0.0
H674 H 0.17248 0.87943 0.58878 0.0
H675 H 0.05259 0.80933 0.67998 0.0
H676 H 0.13033 0.81086 0.56393 0.0
H677 H 0.09794 0.87493 0.70898 0.0
H678 H 0.08885 0.80479 0.64226 0.0
H679 H 0.15276 0.87424 0.63637 0.0
C680 C 0.15936 0.86314 0.59338 0.0
C681 C 0.15269 0.84576 0.57209 0.0
C682 C 0.09149 0.81985 0.65723 0.0
C683 C 0.13011 0.83966 0.62669 0.0
C684 C 0.07096 0.82225 0.67897 0.0
C685 C 0.07245 0.84246 0.69755 0.0
C686 C 0.11319 0.83824 0.65355 0.0
C687 C 0.09628 0.85896 0.69514 0.0
C688 C 0.14825 0.86011 0.62064 0.0
C689 C 0.13612 0.82476 0.57953 0.0
N690 N 0.11538 0.85683 0.67307 0.0
N691 N 0.12508 0.8225 0.60603 0.0
H692 H 0.24332 0.22964 0.31917 0.0
H693 H 0.07745 0.21232 0.26245 0.0
H694 H 0.17731 0.28723 0.32229 0.0
H695 H 0.13564 0.15248 0.28489 0.0
H696 H 0.11849 0.24172 0.27014 0.0
H697 H 0.20854 0.20339 0.29307 0.0
C698 C 0.22172 0.23698 0.3139 0.0
C699 C 0.21315 0.26062 0.32326 0.0
C700 C 0.12246 0.22208 0.27257 0.0
C701 C 0.17306 0.23046 0.29348 0.0
C702 C 0.0992 0.20531 0.26781 0.0
C703 C 0.10331 0.18003 0.27309 0.0
C704 C 0.14992 0.21333 0.28239 0.0
C705 C 0.13168 0.17187 0.28059 0.0
C706 C 0.2018 0.2219 0.29911 0.0
C707 C 0.18468 0.26897 0.31597 0.0
N708 N 0.15381 0.18847 0.28531 0.0
N709 N 0.16557 0.25384 0.30174 0.0
H710 H 0.34673 0.22014 0.85327 0.0
H711 H 0.41215 0.33002 0.7585 0.0
H712 H 0.29327 0.26021 0.79349 0.0
H713 H 0.45925 0.29325 0.82532 0.0
H714 H 0.37048 0.30097 0.76514 0.0
H715 H 0.38994 0.24352 0.83814 0.0
C716 C 0.34402 0.23397 0.83702 0.0
C717 C 0.31616 0.23842 0.82497 0.0
C718 C 0.39016 0.29908 0.77801 0.0
C719 C 0.36595 0.2653 0.80715 0.0
C720 C 0.414 0.31547 0.77401 0.0
C721 C 0.43902 0.31408 0.79152 0.0
C722 C 0.39168 0.2812 0.79948 0.0
C723 C 0.44023 0.29511 0.81155 0.0
C724 C 0.36881 0.24723 0.8282 0.0
C725 C 0.3143 0.25614 0.80339 0.0
N726 N 0.41691 0.2796 0.81509 0.0
N727 N 0.3388 0.26909 0.79533 0.0
H728 H 0.74134 0.28486 0.70861 0.0
H729 H 0.57669 0.2945 0.76917 0.0
H730 H 0.67851 0.22453 0.70756 0.0
H731 H 0.63185 0.35719 0.74964 0.0
H732 H 0.61895 0.26694 0.7603 0.0
H733 H 0.70642 0.30948 0.73628 0.0
C734 C 0.72042 0.2766 0.71461 0.0
C735 C 0.71273 0.25266 0.7054 0.0
C736 C 0.62206 0.28679 0.75883 0.0
C737 C 0.6725 0.28089 0.73701 0.0
C738 C 0.59809 0.3025 0.76434 0.0
C739 C 0.601 0.32808 0.76031 0.0
C740 C 0.64896 0.29685 0.74927 0.0
C741 C 0.6289 0.33754 0.7532 0.0
C742 C 0.70043 0.29073 0.73032 0.0
C743 C 0.68515 0.24307 0.7137 0.0
N744 N 0.65171 0.32193 0.74755 0.0
N745 N 0.66595 0.25726 0.72881 0.0
H746 H 0.83744 0.28636 0.23331 0.0
H747 H 0.89192 0.14674 0.23715 0.0
H748 H 0.7817 0.22369 0.21303 0.0
H749 H 0.94402 0.20685 0.27111 0.0
H750 H 0.84941 0.17431 0.23364 0.0
H751 H 0.8753 0.25788 0.25091 0.0
C752 C 0.83312 0.26663 0.23258 0.0
C753 C 0.80637 0.25744 0.22139 0.0
C754 C 0.86988 0.18148 0.24244 0.0
C755 C 0.84957 0.22472 0.24182 0.0
C756 C 0.89408 0.16565 0.24467 0.0
C757 C 0.92143 0.17457 0.25444 0.0
C758 C 0.87319 0.20667 0.24933 0.0
C759 C 0.92319 0.19926 0.26366 0.0
C760 C 0.85465 0.25039 0.2429 0.0
C761 C 0.80184 0.2317 0.22155 0.0
N762 N 0.89954 0.21464 0.26032 0.0
N763 N 0.82327 0.2163 0.23131 0.0
H764 H 0.83832 0.7172 0.7053 0.0
H765 H 0.89861 0.84483 0.76953 0.0
H766 H 0.78588 0.78359 0.71292 0.0
H767 H 0.95394 0.78321 0.7465 0.0
H768 H 0.85466 0.81878 0.76168 0.0
H769 H 0.87795 0.73746 0.73205 0.0
C770 C 0.83488 0.73589 0.71302 0.0
C771 C 0.8088 0.74879 0.70649 0.0
C772 C 0.87643 0.81071 0.7592 0.0
C773 C 0.85435 0.77223 0.73703 0.0
C774 C 0.90148 0.82546 0.76414 0.0
C775 C 0.92981 0.81599 0.75894 0.0
C776 C 0.87989 0.78642 0.74881 0.0
C777 C 0.93241 0.79103 0.75107 0.0
C778 C 0.85762 0.7475 0.7282 0.0
C779 C 0.80582 0.77308 0.71693 0.0
N780 N 0.90778 0.7772 0.74586 0.0
N781 N 0.82839 0.78407 0.73143 0.0
H782 H 0.72337 0.76061 0.24254 0.0
H783 H 0.58836 0.68263 0.17892 0.0
H784 H 0.69269 0.76454 0.15646 0.0
H785 H 0.60187 0.68899 0.26879 0.0
H786 H 0.62873 0.71119 0.1713 0.0
H787 H 0.68108 0.73364 0.25359 0.0
C788 C 0.70773 0.75596 0.226 0.0
C789 C 0.7119 0.76468 0.19839 0.0
C790 C 0.623 0.70649 0.19276 0.0
C791 C 0.6637 0.7337 0.2109 0.0
C792 C 0.59989 0.68998 0.19719 0.0
C793 C 0.59167 0.68317 0.2246 0.0
C794 C 0.63856 0.71638 0.21583 0.0
C795 C 0.60746 0.69367 0.24731 0.0
C796 C 0.68366 0.74051 0.23235 0.0
C797 C 0.69097 0.75786 0.17785 0.0
N798 N 0.63034 0.70969 0.24241 0.0
N799 N 0.66799 0.74277 0.1845 0.0
H800 H 0.32424 0.72664 0.38767 0.0
H801 H 0.42624 0.69728 0.25343 0.0
H802 H 0.32286 0.77193 0.31307 0.0
H803 H 0.43517 0.66298 0.33488 0.0
H804 H 0.38406 0.72138 0.27166 0.0
H805 H 0.36049 0.69973 0.36539 0.0
C806 C 0.33164 0.73099 0.36657 0.0
C807 C 0.32082 0.75188 0.35245 0.0
C808 C 0.3952 0.70844 0.2854 0.0
C809 C 0.36243 0.72078 0.32649 0.0
C810 C 0.41914 0.69463 0.27499 0.0
C811 C 0.43437 0.67826 0.29275 0.0
C812 C 0.38637 0.70558 0.31362 0.0
C813 C 0.42432 0.67554 0.3205 0.0
C814 C 0.3523 0.71551 0.35377 0.0
C815 C 0.33064 0.75607 0.32477 0.0
N816 N 0.4011 0.68906 0.33003 0.0
N817 N 0.35109 0.74077 0.31275 0.0
H818 H 0.24195 0.78726 0.83124 0.0
H819 H 0.08439 0.80734 0.75672 0.0
H820 H 0.19155 0.72772 0.79334 0.0
H821 H 0.13049 0.86249 0.80622 0.0
H822 H 0.12765 0.77992 0.7611 0.0
H823 H 0.20508 0.81665 0.81447 0.0
C824 C 0.22309 0.78033 0.81943 0.0
C825 C 0.21971 0.75488 0.81409 0.0
C826 C 0.12846 0.79822 0.77052 0.0
C827 C 0.17734 0.78863 0.79441 0.0
C828 C 0.10394 0.81395 0.76774 0.0
C829 C 0.10383 0.83707 0.78138 0.0
C830 C 0.15295 0.80588 0.78684 0.0
C831 C 0.12957 0.84468 0.79563 0.0
C832 C 0.20212 0.79717 0.80964 0.0
C833 C 0.19514 0.74715 0.79795 0.0
N834 N 0.1529 0.82907 0.79822 0.0
N835 N 0.17477 0.76392 0.78891 0.0
loop_
_geom_bond_atom_site_label_1
_geom_bond_atom_site_label_2
_geom_bond_distance
_geom_bond_site_symmetry_2
_ccdc_geom_bond_type
C0 C1 1.264 . S
C0 C5 1.479 . S
C0 C10 1.465 . S
C1 C0 1.264 . S
C1 C3 1.339 . S
C1 H28 0.931 . S
C2 C3 1.395 . S
C2 C4 1.320 . S
C3 C1 1.339 . S
C3 C2 1.395 . S
C3 H29 0.929 . S
C4 C2 1.320 . S
C4 C5 1.405 . S
C4 H30 0.930 . S
C5 C0 1.479 . S
C5 C4 1.405 . S
C5 H31 0.931 . S
U6 O7 2.454 . S
U6 O8 2.458 . S
U6 C9 2.984 . S
U6 C10 2.847 . S
U6 C23 2.882 . S
U6 O24 2.441 . S
U6 O25 2.420 . S
U6 O26 2.455 . S
U6 O27 2.449 . S
O7 U6 2.454 . S
O7 C9 1.353 . S
O8 U6 2.458 . S
O8 C9 1.286 . S
C9 U6 2.984 . S
C9 O7 1.353 . S
C9 O8 1.286 . S
C9 C11 1.363 . S
C10 C0 1.465 . S
C10 U6 2.847 . S
C10 O24 1.249 . S
C10 O25 1.202 . S
C11 C9 1.363 . S
C11 C13 1.408 . S
C11 C16 1.342 . S
C12 C13 1.310 . S
C12 C15 1.461 . S
C12 H32 0.932 . S
C13 C11 1.408 . S
C13 C12 1.310 . S
C13 H33 0.930 . S
C14 C15 1.474 . S
C14 C16 1.285 . S
C14 H34 0.929 . S
C15 C12 1.461 . S
C15 C14 1.474 . S
C16 C11 1.342 . S
C16 C14 1.285 . S
C16 H35 0.930 . S
C17 C20 1.424 . S
C17 C22 1.245 . S
C17 C23 1.428 . S
C18 C21 1.260 . S
C18 C22 1.477 . S
C18 H36 0.932 . S
C19 C20 1.384 . S
C19 C21 1.479 . S
C19 H37 0.929 . S
C20 C17 1.424 . S
C20 C19 1.384 . S
C20 H38 0.928 . S
C21 C18 1.260 . S
C21 C19 1.479 . S
C22 C17 1.245 . S
C22 C18 1.477 . S
C22 H39 0.932 . S
C23 U6 2.882 . S
C23 C17 1.428 . S
C23 O26 1.301 . S
C23 O27 1.282 . S
O24 U6 2.441 . S
O24 C10 1.249 . S
O25 U6 2.420 . S
O25 C10 1.202 . S
O26 U6 2.455 . S
O26 C23 1.301 . S
O27 U6 2.449 . S
O27 C23 1.282 . S
H28 C1 0.931 . S
H29 C3 0.929 . S
H30 C4 0.930 . S
H31 C5 0.931 . S
H32 C12 0.932 . S
H33 C13 0.930 . S
H34 C14 0.929 . S
H35 C16 0.930 . S
H36 C18 0.932 . S
H37 C19 0.929 . S
H38 C20 0.928 . S
H39 C22 0.932 . S
C40 C41 1.264 . S
C40 C45 1.479 . S
C40 C50 1.465 . S
C41 C40 1.264 . S
C41 C43 1.339 1_556 S
C41 H68 0.931 . S
C42 C43 1.395 . S
C42 C44 1.320 . S
C43 C41 1.339 1_554 S
C43 C42 1.395 . S
C43 H69 0.929 . S
C44 C42 1.320 . S
C44 C45 1.405 1_554 S
C44 H70 0.930 . S
C45 C40 1.479 . S
C45 C44 1.405 1_556 S
C45 H71 0.931 . S
U46 O47 2.454 . S
U46 O48 2.458 . S
U46 C49 2.984 . S
U46 C50 2.847 . S
U46 C63 2.882 . S
U46 O64 2.441 . S
U46 O65 2.420 . S
U46 O66 2.455 . S
U46 O67 2.449 . S
O47 U46 2.454 . S
O47 C49 1.353 . S
O48 U46 2.458 . S
O48 C49 1.286 . S
C49 U46 2.984 . S
C49 O47 1.353 . S
C49 O48 1.286 . S
C49 C51 1.363 . S
C50 C40 1.465 . S
C50 U46 2.847 . S
C50 O64 1.249 . S
C50 O65 1.202 . S
C51 C49 1.363 . S
C51 C53 1.408 . S
C51 C56 1.342 . S
C52 C53 1.310 . S
C52 C55 1.461 . S
C52 H72 0.932 . S
C53 C51 1.408 . S
C53 C52 1.310 . S
C53 H73 0.930 . S
C54 C55 1.474 . S
C54 C56 1.285 . S
C54 H74 0.929 . S
C55 C52 1.461 . S
C55 C54 1.474 . S
C56 C51 1.342 . S
C56 C54 1.285 . S
C56 H75 0.930 . S
C57 C60 1.424 . S
C57 C62 1.245 . S
C57 C63 1.428 . S
C58 C61 1.260 . S
C58 C62 1.477 . S
C58 H76 0.932 . S
C59 C60 1.384 . S
C59 C61 1.479 . S
C59 H77 0.929 . S
C60 C57 1.424 . S
C60 C59 1.384 . S
C60 H78 0.928 . S
C61 C58 1.260 . S
C61 C59 1.479 . S
C62 C57 1.245 . S
C62 C58 1.477 . S
C62 H79 0.932 . S
C63 U46 2.882 . S
C63 C57 1.428 . S
C63 O66 1.301 . S
C63 O67 1.282 . S
O64 U46 2.441 . S
O64 C50 1.249 . S
O65 U46 2.420 . S
O65 C50 1.202 . S
O66 U46 2.455 . S
O66 C63 1.301 . S
O67 U46 2.449 . S
O67 C63 1.282 . S
H68 C41 0.931 . S
H69 C43 0.929 . S
H70 C44 0.930 . S
H71 C45 0.931 . S
H72 C52 0.932 . S
H73 C53 0.930 . S
H74 C54 0.929 . S
H75 C56 0.930 . S
H76 C58 0.932 . S
H77 C59 0.929 . S
H78 C60 0.928 . S
H79 C62 0.932 . S
C80 C81 1.264 . S
C80 C85 1.479 . S
C80 C90 1.465 . S
C81 C80 1.264 . S
C81 C83 1.339 . S
C81 H108 0.931 . S
C82 C83 1.395 . S
C82 C84 1.320 . S
C83 C81 1.339 . S
C83 C82 1.395 . S
C83 H109 0.929 . S
C84 C82 1.320 . S
C84 C85 1.405 . S
C84 H110 0.930 . S
C85 C80 1.479 . S
C85 C84 1.405 . S
C85 H111 0.931 . S
U86 O87 2.454 . S
U86 O88 2.458 . S
U86 C89 2.984 . S
U86 C90 2.847 . S
U86 C103 2.882 . S
U86 O104 2.441 . S
U86 O105 2.420 . S
U86 O106 2.455 . S
U86 O107 2.449 . S
O87 U86 2.454 . S
O87 C89 1.353 . S
O88 U86 2.458 . S
O88 C89 1.286 . S
C89 U86 2.984 . S
C89 O87 1.353 . S
C89 O88 1.286 . S
C89 C91 1.363 . S
C90 C80 1.465 . S
C90 U86 2.847 . S
C90 O104 1.249 . S
C90 O105 1.202 . S
C91 C89 1.363 . S
C91 C93 1.408 . S
C91 C96 1.342 . S
C92 C93 1.310 . S
C92 C95 1.461 . S
C92 H112 0.932 . S
C93 C91 1.408 . S
C93 C92 1.310 . S
C93 H113 0.930 . S
C94 C95 1.474 . S
C94 C96 1.285 . S
C94 H114 0.929 . S
C95 C92 1.461 . S
C95 C94 1.474 . S
C96 C91 1.342 . S
C96 C94 1.285 . S
C96 H115 0.930 . S
C97 C100 1.424 . S
C97 C102 1.245 . S
C97 C103 1.428 . S
C98 C101 1.260 . S
C98 C102 1.477 . S
C98 H116 0.932 . S
C99 C100 1.384 . S
C99 C101 1.479 . S
C99 H117 0.929 . S
C100 C97 1.424 . S
C100 C99 1.384 . S
C100 H118 0.928 . S
C101 C98 1.260 . S
C101 C99 1.479 . S
C102 C97 1.245 . S
C102 C98 1.477 . S
C102 H119 0.932 . S
C103 U86 2.882 . S
C103 C97 1.428 . S
C103 O106 1.301 . S
C103 O107 1.282 . S
O104 U86 2.441 . S
O104 C90 1.249 . S
O105 U86 2.420 . S
O105 C90 1.202 . S
O106 U86 2.455 . S
O106 C103 1.301 . S
O107 U86 2.449 . S
O107 C103 1.282 . S
H108 C81 0.931 . S
H109 C83 0.929 . S
H110 C84 0.930 . S
H111 C85 0.931 . S
H112 C92 0.932 . S
H113 C93 0.930 . S
H114 C94 0.929 . S
H115 C96 0.930 . S
H116 C98 0.932 . S
H117 C99 0.929 . S
H118 C100 0.928 . S
H119 C102 0.932 . S
C120 C121 1.264 . S
C120 C125 1.479 . S
C120 C130 1.465 . S
C121 C120 1.264 . S
C121 C123 1.326 1_554 S
C121 H148 0.931 . S
C122 C123 1.404 . S
C122 C124 1.320 . S
C123 C121 1.326 1_556 S
C123 C122 1.404 . S
C123 H149 0.933 . S
C124 C122 1.320 . S
C124 C125 1.405 1_556 S
C124 H150 0.930 . S
C125 C120 1.479 . S
C125 C124 1.405 1_554 S
C125 H151 0.931 . S
U126 O127 2.454 . S
U126 O128 2.458 . S
U126 C129 2.984 . S
U126 C130 2.847 . S
U126 C143 2.882 . S
U126 O144 2.441 . S
U126 O145 2.420 . S
U126 O146 2.455 . S
U126 O147 2.449 . S
O127 U126 2.454 . S
O127 C129 1.353 . S
O128 U126 2.458 . S
O128 C129 1.286 . S
C129 U126 2.984 . S
C129 O127 1.353 . S
C129 O128 1.286 . S
C129 C131 1.363 . S
C130 C120 1.465 . S
C130 U126 2.847 . S
C130 O144 1.249 . S
C130 O145 1.202 . S
C131 C129 1.363 . S
C131 C133 1.408 . S
C131 C136 1.342 . S
C132 C133 1.310 . S
C132 C135 1.461 . S
C132 H152 0.932 . S
C133 C131 1.408 . S
C133 C132 1.310 . S
C133 H153 0.930 . S
C134 C135 1.474 . S
C134 C136 1.285 . S
C134 H154 0.929 . S
C135 C132 1.461 . S
C135 C134 1.474 . S
C136 C131 1.342 . S
C136 C134 1.285 . S
C136 H155 0.930 . S
C137 C140 1.424 . S
C137 C142 1.245 . S
C137 C143 1.428 . S
C138 C141 1.260 . S
C138 C142 1.477 . S
C138 H156 0.932 . S
C139 C140 1.384 . S
C139 C141 1.479 . S
C139 H157 0.929 . S
C140 C137 1.424 . S
C140 C139 1.384 . S
C140 H158 0.928 . S
C141 C138 1.260 . S
C141 C139 1.479 . S
C142 C137 1.245 . S
C142 C138 1.477 . S
C142 H159 0.932 . S
C143 U126 2.882 . S
C143 C137 1.428 . S
C143 O146 1.301 . S
C143 O147 1.282 . S
O144 U126 2.441 . S
O144 C130 1.249 . S
O145 U126 2.420 . S
O145 C130 1.202 . S
O146 U126 2.455 . S
O146 C143 1.301 . S
O147 U126 2.449 . S
O147 C143 1.282 . S
H148 C121 0.931 . S
H149 C123 0.933 . S
H150 C124 0.930 . S
H151 C125 0.931 . S
H152 C132 0.932 . S
H153 C133 0.930 . S
H154 C134 0.929 . S
H155 C136 0.930 . S
H156 C138 0.932 . S
H157 C139 0.929 . S
H158 C140 0.928 . S
H159 C142 0.932 . S
C160 C161 1.264 . S
C160 C165 1.479 . S
C160 C170 1.465 . S
C161 C160 1.264 . S
C161 C163 1.339 . S
C161 H188 0.931 . S
C162 C163 1.395 . S
C162 C164 1.320 . S
C163 C161 1.339 . S
C163 C162 1.395 . S
C163 H189 0.929 . S
C164 C162 1.320 . S
C164 C165 1.405 . S
C164 H190 0.930 . S
C165 C160 1.479 . S
C165 C164 1.405 . S
C165 H191 0.931 . S
U166 O167 2.454 . S
U166 O168 2.458 . S
U166 C169 2.984 . S
U166 C170 2.847 . S
U166 C183 2.882 . S
U166 O184 2.441 . S
U166 O185 2.420 . S
U166 O186 2.455 . S
U166 O187 2.449 . S
O167 U166 2.454 . S
O167 C169 1.353 . S
O168 U166 2.458 . S
O168 C169 1.286 . S
C169 U166 2.984 . S
C169 O167 1.353 . S
C169 O168 1.286 . S
C169 C171 1.363 . S
C170 C160 1.465 . S
C170 U166 2.847 . S
C170 O184 1.249 . S
C170 O185 1.202 . S
C171 C169 1.363 . S
C171 C173 1.408 . S
C171 C176 1.342 . S
C172 C173 1.310 . S
C172 C175 1.461 . S
C172 H192 0.932 . S
C173 C171 1.408 . S
C173 C172 1.310 . S
C173 H193 0.930 . S
C174 C175 1.474 . S
C174 C176 1.285 . S
C174 H194 0.929 . S
C175 C172 1.461 . S
C175 C174 1.474 . S
C176 C171 1.342 . S
C176 C174 1.285 . S
C176 H195 0.930 . S
C177 C180 1.424 . S
C177 C182 1.245 . S
C177 C183 1.428 . S
C178 C181 1.260 . S
C178 C182 1.477 . S
C178 H196 0.932 . S
C179 C180 1.384 . S
C179 C181 1.479 . S
C179 H197 0.929 . S
C180 C177 1.424 . S
C180 C179 1.384 . S
C180 H198 0.928 . S
C181 C178 1.260 . S
C181 C179 1.479 . S
C182 C177 1.245 . S
C182 C178 1.477 . S
C182 H199 0.932 . S
C183 U166 2.882 . S
C183 C177 1.428 . S
C183 O186 1.301 . S
C183 O187 1.282 . S
O184 U166 2.441 . S
O184 C170 1.249 . S
O185 U166 2.420 . S
O185 C170 1.202 . S
O186 U166 2.455 . S
O186 C183 1.301 . S
O187 U166 2.449 . S
O187 C183 1.282 . S
H188 C161 0.931 . S
H189 C163 0.929 . S
H190 C164 0.930 . S
H191 C165 0.931 . S
H192 C172 0.932 . S
H193 C173 0.930 . S
H194 C174 0.929 . S
H195 C176 0.930 . S
H196 C178 0.932 . S
H197 C179 0.929 . S
H198 C180 0.928 . S
H199 C182 0.932 . S
C200 C201 1.264 . S
C200 C205 1.479 . S
C200 C210 1.465 . S
C201 C200 1.264 . S
C201 C203 1.339 1_554 S
C201 H228 0.931 . S
C202 C203 1.395 . S
C202 C204 1.320 . S
C203 C201 1.339 1_556 S
C203 C202 1.395 . S
C203 H229 0.929 . S
C204 C202 1.320 . S
C204 C205 1.405 1_556 S
C204 H230 0.930 . S
C205 C200 1.479 . S
C205 C204 1.405 1_554 S
C205 H231 0.931 . S
U206 O207 2.454 . S
U206 O208 2.458 . S
U206 C209 2.984 . S
U206 C210 2.847 . S
U206 C223 2.882 . S
U206 O224 2.441 . S
U206 O225 2.420 . S
U206 O226 2.455 . S
U206 O227 2.449 . S
O207 U206 2.454 . S
O207 C209 1.353 . S
O208 U206 2.458 . S
O208 C209 1.286 . S
C209 U206 2.984 . S
C209 O207 1.353 . S
C209 O208 1.286 . S
C209 C211 1.363 . S
C210 C200 1.465 . S
C210 U206 2.847 . S
C210 O224 1.249 . S
C210 O225 1.202 . S
C211 C209 1.363 . S
C211 C213 1.408 . S
C211 C216 1.342 . S
C212 C213 1.310 . S
C212 C215 1.461 . S
C212 H232 0.932 . S
C213 C211 1.408 . S
C213 C212 1.310 . S
C213 H233 0.930 . S
C214 C215 1.474 . S
C214 C216 1.285 . S
C214 H234 0.929 . S
C215 C212 1.461 . S
C215 C214 1.474 . S
C216 C211 1.342 . S
C216 C214 1.285 . S
C216 H235 0.930 . S
C217 C220 1.424 . S
C217 C222 1.245 . S
C217 C223 1.428 . S
C218 C221 1.260 . S
C218 C222 1.477 . S
C218 H236 0.932 . S
C219 C220 1.384 . S
C219 C221 1.479 . S
C219 H237 0.929 . S
C220 C217 1.424 . S
C220 C219 1.384 . S
C220 H238 0.928 . S
C221 C218 1.260 . S
C221 C219 1.479 . S
C222 C217 1.245 . S
C222 C218 1.477 . S
C222 H239 0.932 . S
C223 U206 2.882 . S
C223 C217 1.428 . S
C223 O226 1.301 . S
C223 O227 1.282 . S
O224 U206 2.441 . S
O224 C210 1.249 . S
O225 U206 2.420 . S
O225 C210 1.202 . S
O226 U206 2.455 . S
O226 C223 1.301 . S
O227 U206 2.449 . S
O227 C223 1.282 . S
H228 C201 0.931 . S
H229 C203 0.929 . S
H230 C204 0.930 . S
H231 C205 0.931 . S
H232 C212 0.932 . S
H233 C213 0.930 . S
H234 C214 0.929 . S
H235 C216 0.930 . S
H236 C218 0.932 . S
H237 C219 0.929 . S
H238 C220 0.928 . S
H239 C222 0.932 . S
C240 C241 1.264 . S
C240 C245 1.479 . S
C240 C250 1.465 . S
C241 C240 1.264 . S
C241 C243 1.339 . S
C241 H268 0.931 . S
C242 C243 1.395 . S
C242 C244 1.320 . S
C243 C241 1.339 . S
C243 C242 1.395 . S
C243 H269 0.929 . S
C244 C242 1.320 . S
C244 C245 1.405 . S
C244 H270 0.930 . S
C245 C240 1.479 . S
C245 C244 1.405 . S
C245 H271 0.931 . S
U246 O247 2.454 . S
U246 O248 2.458 . S
U246 C249 2.984 . S
U246 C250 2.847 . S
U246 C263 2.882 . S
U246 O264 2.441 . S
U246 O265 2.420 . S
U246 O266 2.455 . S
U246 O267 2.449 . S
O247 U246 2.454 . S
O247 C249 1.353 . S
O248 U246 2.458 . S
O248 C249 1.286 . S
C249 U246 2.984 . S
C249 O247 1.353 . S
C249 O248 1.286 . S
C249 C251 1.363 . S
C250 C240 1.465 . S
C250 U246 2.847 . S
C250 O264 1.249 . S
C250 O265 1.202 . S
C251 C249 1.363 . S
C251 C253 1.408 . S
C251 C256 1.342 . S
C252 C253 1.310 . S
C252 C255 1.461 . S
C252 H272 0.932 . S
C253 C251 1.408 . S
C253 C252 1.310 . S
C253 H273 0.930 . S
C254 C255 1.474 . S
C254 C256 1.285 . S
C254 H274 0.929 . S
C255 C252 1.461 . S
C255 C254 1.474 . S
C256 C251 1.342 . S
C256 C254 1.285 . S
C256 H275 0.930 . S
C257 C260 1.424 . S
C257 C262 1.245 . S
C257 C263 1.428 . S
C258 C261 1.260 . S
C258 C262 1.477 . S
C258 H276 0.932 . S
C259 C260 1.384 . S
C259 C261 1.479 . S
C259 H277 0.929 . S
C260 C257 1.424 . S
C260 C259 1.384 . S
C260 H278 0.928 . S
C261 C258 1.260 . S
C261 C259 1.479 . S
C262 C257 1.245 . S
C262 C258 1.477 . S
C262 H279 0.932 . S
C263 U246 2.882 . S
C263 C257 1.428 . S
C263 O266 1.301 . S
C263 O267 1.282 . S
O264 U246 2.441 . S
O264 C250 1.249 . S
O265 U246 2.420 . S
O265 C250 1.202 . S
O266 U246 2.455 . S
O266 C263 1.301 . S
O267 U246 2.449 . S
O267 C263 1.282 . S
H268 C241 0.931 . S
H269 C243 0.929 . S
H270 C244 0.930 . S
H271 C245 0.931 . S
H272 C252 0.932 . S
H273 C253 0.930 . S
H274 C254 0.929 . S
H275 C256 0.930 . S
H276 C258 0.932 . S
H277 C259 0.929 . S
H278 C260 0.928 . S
H279 C262 0.932 . S
C280 C281 1.264 . S
C280 C285 1.479 . S
C280 C290 1.465 . S
C281 C280 1.264 . S
C281 C283 1.339 1_556 S
C281 H308 0.931 . S
C282 C283 1.395 . S
C282 C284 1.320 . S
C283 C281 1.339 1_554 S
C283 C282 1.395 . S
C283 H309 0.929 . S
C284 C282 1.320 . S
C284 C285 1.405 1_554 S
C284 H310 0.930 . S
C285 C280 1.479 . S
C285 C284 1.405 1_556 S
C285 H311 0.931 . S
U286 O287 2.454 . S
U286 O288 2.458 . S
U286 C289 2.984 . S
U286 C290 2.847 . S
U286 C303 2.882 . S
U286 O304 2.441 . S
U286 O305 2.420 . S
U286 O306 2.455 . S
U286 O307 2.449 . S
O287 U286 2.454 . S
O287 C289 1.353 . S
O288 U286 2.458 . S
O288 C289 1.286 . S
C289 U286 2.984 . S
C289 O287 1.353 . S
C289 O288 1.286 . S
C289 C291 1.363 . S
C290 C280 1.465 . S
C290 U286 2.847 . S
C290 O304 1.249 . S
C290 O305 1.202 . S
C291 C289 1.363 . S
C291 C293 1.408 . S
C291 C296 1.342 . S
C292 C293 1.310 . S
C292 C295 1.461 . S
C292 H312 0.932 . S
C293 C291 1.408 . S
C293 C292 1.310 . S
C293 H313 0.930 . S
C294 C295 1.474 . S
C294 C296 1.285 . S
C294 H314 0.929 . S
C295 C292 1.461 . S
C295 C294 1.474 . S
C296 C291 1.342 . S
C296 C294 1.285 . S
C296 H315 0.930 . S
C297 C300 1.424 . S
C297 C302 1.245 . S
C297 C303 1.428 . S
C298 C301 1.260 . S
C298 C302 1.477 . S
C298 H316 0.932 . S
C299 C300 1.384 . S
C299 C301 1.479 . S
C299 H317 0.929 . S
C300 C297 1.424 . S
C300 C299 1.384 . S
C300 H318 0.928 . S
C301 C298 1.260 . S
C301 C299 1.479 . S
C302 C297 1.245 . S
C302 C298 1.477 . S
C302 H319 0.932 . S
C303 U286 2.882 . S
C303 C297 1.428 . S
C303 O306 1.301 . S
C303 O307 1.282 . S
O304 U286 2.441 . S
O304 C290 1.249 . S
O305 U286 2.420 . S
O305 C290 1.202 . S
O306 U286 2.455 . S
O306 C303 1.301 . S
O307 U286 2.449 . S
O307 C303 1.282 . S
H308 C281 0.931 . S
H309 C283 0.929 . S
H310 C284 0.930 . S
H311 C285 0.931 . S
H312 C292 0.932 . S
H313 C293 0.930 . S
H314 C294 0.929 . S
H315 C296 0.930 . S
H316 C298 0.932 . S
H317 C299 0.929 . S
H318 C300 0.928 . S
H319 C302 0.932 . S
Zn320 O326 1.920 1_455 S
Zn320 O332 1.898 . S
Zn320 O335 1.905 . S
Zn321 O329 1.905 1_655 S
Zn321 O330 1.898 . S
Zn321 O338 1.920 . S
Zn322 O325 2.080 1_455 S
Zn322 O328 2.114 . S
Zn322 O331 2.120 1_455 S
Zn322 O333 2.120 . S
Zn322 O334 2.114 . S
Zn322 O337 2.080 1_455 S
C323 O328 1.166 . S
C323 O329 1.182 . S
C324 O330 1.167 . S
C324 O331 1.299 . S
O325 Zn322 2.080 1_655 S
O325 C339 1.305 . S
O326 Zn320 1.920 1_655 S
O326 C339 1.234 . S
C327 O332 1.167 . S
C327 O333 1.299 . S
O328 Zn322 2.114 . S
O328 C323 1.166 . S
O329 Zn321 1.905 1_455 S
O329 C323 1.182 . S
O330 Zn321 1.898 . S
O330 C324 1.167 . S
O331 Zn322 2.120 1_655 S
O331 C324 1.299 . S
O332 Zn320 1.898 . S
O332 C327 1.167 . S
O333 Zn322 2.120 . S
O333 C327 1.299 . S
O334 Zn322 2.114 . S
O334 C336 1.166 . S
O335 Zn320 1.905 . S
O335 C336 1.182 . S
C336 O334 1.166 . S
C336 O335 1.182 . S
O337 Zn322 2.080 1_655 S
O337 C340 1.305 . S
O338 Zn321 1.920 . S
O338 C340 1.234 . S
C339 O325 1.305 . S
C339 O326 1.234 . S
C340 O337 1.305 . S
C340 O338 1.234 . S
Zn341 O347 1.920 . S
Zn341 O353 1.898 . S
Zn341 O356 1.905 . S
Zn342 O350 1.905 . S
Zn342 O351 1.898 . S
Zn342 O359 1.920 . S
Zn343 O346 2.080 . S
Zn343 O349 2.114 . S
Zn343 O352 2.120 . S
Zn343 O354 2.120 . S
Zn343 O355 2.114 . S
Zn343 O358 2.080 . S
C344 O349 1.166 . S
C344 O350 1.182 . S
C345 O351 1.167 . S
C345 O352 1.299 . S
O346 Zn343 2.080 . S
O346 C360 1.305 . S
O347 Zn341 1.920 . S
O347 C360 1.234 . S
C348 O353 1.167 . S
C348 O354 1.299 . S
O349 Zn343 2.114 . S
O349 C344 1.166 . S
O350 Zn342 1.905 . S
O350 C344 1.182 . S
O351 Zn342 1.898 . S
O351 C345 1.167 . S
O352 Zn343 2.120 . S
O352 C345 1.299 . S
O353 Zn341 1.898 . S
O353 C348 1.167 . S
O354 Zn343 2.120 . S
O354 C348 1.299 . S
O355 Zn343 2.114 . S
O355 C357 1.166 . S
O356 Zn341 1.905 . S
O356 C357 1.182 . S
C357 O355 1.166 . S
C357 O356 1.182 . S
O358 Zn343 2.080 . S
O358 C361 1.305 . S
O359 Zn342 1.920 . S
O359 C361 1.234 . S
C360 O346 1.305 . S
C360 O347 1.234 . S
C361 O358 1.305 . S
C361 O359 1.234 . S
Zn362 O368 1.920 . S
Zn362 O374 1.898 . S
Zn362 O377 1.905 . S
Zn363 O371 1.905 . S
Zn363 O372 1.898 . S
Zn363 O380 1.920 1_655 S
Zn364 O367 2.080 . S
Zn364 O370 2.114 1_455 S
Zn364 O373 2.120 1_455 S
Zn364 O375 2.120 . S
Zn364 O376 2.114 1_455 S
Zn364 O379 2.080 . S
C365 O370 1.166 . S
C365 O371 1.182 . S
C366 O372 1.167 . S
C366 O373 1.299 . S
O367 Zn364 2.080 . S
O367 C381 1.305 . S
O368 Zn362 1.920 . S
O368 C381 1.234 . S
C369 O374 1.167 . S
C369 O375 1.299 . S
O370 Zn364 2.114 1_655 S
O370 C365 1.166 . S
O371 Zn363 1.905 . S
O371 C365 1.182 . S
O372 Zn363 1.898 . S
O372 C366 1.167 . S
O373 Zn364 2.120 1_655 S
O373 C366 1.299 . S
O374 Zn362 1.898 . S
O374 C369 1.167 . S
O375 Zn364 2.120 . S
O375 C369 1.299 . S
O376 Zn364 2.114 1_655 S
O376 C378 1.166 . S
O377 Zn362 1.905 . S
O377 C378 1.182 1_455 S
C378 O376 1.166 . S
C378 O377 1.182 1_655 S
O379 Zn364 2.080 . S
O379 C382 1.305 . S
O380 Zn363 1.920 1_455 S
O380 C382 1.234 . S
C381 O367 1.305 . S
C381 O368 1.234 . S
C382 O379 1.305 . S
C382 O380 1.234 . S
Zn383 O389 1.920 . S
Zn383 O395 1.898 . S
Zn383 O398 1.905 . S
Zn384 O392 1.905 . S
Zn384 O393 1.898 . S
Zn384 O401 1.920 . S
Zn385 O388 2.080 . S
Zn385 O391 2.114 . S
Zn385 O394 2.120 . S
Zn385 O396 2.120 . S
Zn385 O397 2.114 . S
Zn385 O400 2.080 . S
C386 O391 1.166 . S
C386 O392 1.182 . S
C387 O393 1.167 . S
C387 O394 1.299 . S
O388 Zn385 2.080 . S
O388 C402 1.305 . S
O389 Zn383 1.920 . S
O389 C402 1.234 . S
C390 O395 1.167 . S
C390 O396 1.299 . S
O391 Zn385 2.114 . S
O391 C386 1.166 . S
O392 Zn384 1.905 . S
O392 C386 1.182 . S
O393 Zn384 1.898 . S
O393 C387 1.167 . S
O394 Zn385 2.120 . S
O394 C387 1.299 . S
O395 Zn383 1.898 . S
O395 C390 1.167 . S
O396 Zn385 2.120 . S
O396 C390 1.299 . S
O397 Zn385 2.114 . S
O397 C399 1.166 . S
O398 Zn383 1.905 . S
O398 C399 1.182 . S
C399 O397 1.166 . S
C399 O398 1.182 . S
O400 Zn385 2.080 . S
O400 C403 1.305 . S
O401 Zn384 1.920 . S
O401 C403 1.234 . S
C402 O388 1.305 . S
C402 O389 1.234 . S
C403 O400 1.305 . S
C403 O401 1.234 . S
H404 C410 0.930 . S
H405 C414 0.930 . S
H406 C419 0.929 . S
H407 C417 0.929 . S
H408 C412 0.929 . S
H409 C418 0.929 . S
C410 H404 0.930 . S
C410 C411 1.367 . S
C410 C418 1.378 1_565 S
C411 C410 1.367 . S
C411 C419 1.433 . S
C412 H408 0.929 . S
C412 C414 1.378 . S
C412 C416 1.350 . S
C413 C416 1.463 . S
C413 C418 1.350 . S
C413 N421 1.427 . S
C414 H405 0.930 . S
C414 C412 1.378 . S
C414 C415 1.367 . S
C415 C414 1.367 . S
C415 C417 1.433 . S
C416 C412 1.350 . S
C416 C413 1.463 . S
C416 N420 1.427 . S
C417 H407 0.929 . S
C417 C415 1.433 . S
C417 N420 1.384 . S
C418 H409 0.929 . S
C418 C410 1.378 1_545 S
C418 C413 1.350 . S
C419 H406 0.929 . S
C419 C411 1.433 . S
C419 N421 1.384 1_565 S
N420 C416 1.427 . S
N420 C417 1.384 . S
N421 C413 1.427 . S
N421 C419 1.384 1_545 S
H422 C428 0.930 . S
H423 C432 0.930 . S
H424 C437 0.929 . S
H425 C435 0.929 . S
H426 C430 0.929 . S
H427 C436 0.929 . S
C428 H422 0.930 . S
C428 C429 1.367 . S
C428 C436 1.378 . S
C429 C428 1.367 . S
C429 C437 1.433 . S
C430 H426 0.929 . S
C430 C432 1.378 . S
C430 C434 1.350 . S
C431 C434 1.463 . S
C431 C436 1.350 . S
C431 N439 1.427 . S
C432 H423 0.930 . S
C432 C430 1.378 . S
C432 C433 1.367 . S
C433 C432 1.367 . S
C433 C435 1.433 . S
C434 C430 1.350 . S
C434 C431 1.463 . S
C434 N438 1.427 . S
C435 H425 0.929 . S
C435 C433 1.433 . S
C435 N438 1.384 . S
C436 H427 0.929 . S
C436 C428 1.378 . S
C436 C431 1.350 . S
C437 H424 0.929 . S
C437 C429 1.433 . S
C437 N439 1.384 . S
N438 C434 1.427 . S
N438 C435 1.384 . S
N439 C431 1.427 . S
N439 C437 1.384 . S
H440 C446 0.930 . S
H441 C450 0.930 . S
H442 C455 0.929 . S
H443 C453 0.929 . S
H444 C448 0.929 . S
H445 C454 0.929 . S
C446 H440 0.930 . S
C446 C447 1.367 . S
C446 C454 1.378 . S
C447 C446 1.367 . S
C447 C455 1.433 . S
C448 H444 0.929 . S
C448 C450 1.378 . S
C448 C452 1.350 . S
C449 C452 1.463 . S
C449 C454 1.350 . S
C449 N457 1.427 . S
C450 H441 0.930 . S
C450 C448 1.378 . S
C450 C451 1.367 . S
C451 C450 1.367 . S
C451 C453 1.433 . S
C452 C448 1.350 . S
C452 C449 1.463 . S
C452 N456 1.427 . S
C453 H443 0.929 . S
C453 C451 1.433 . S
C453 N456 1.384 . S
C454 H445 0.929 . S
C454 C446 1.378 . S
C454 C449 1.350 . S
C455 H442 0.929 . S
C455 C447 1.433 . S
C455 N457 1.384 . S
N456 C452 1.427 . S
N456 C453 1.384 . S
N457 C449 1.427 . S
N457 C455 1.384 . S
H458 C464 0.930 . S
H459 C468 0.930 . S
H460 C473 0.929 . S
H461 C471 0.929 . S
H462 C466 0.929 . S
H463 C472 0.929 . S
C464 H458 0.930 . S
C464 C465 1.367 . S
C464 C472 1.378 1_565 S
C465 C464 1.367 . S
C465 C473 1.433 . S
C466 H462 0.929 . S
C466 C468 1.378 . S
C466 C470 1.350 . S
C467 C470 1.463 . S
C467 C472 1.350 . S
C467 N475 1.427 1_545 S
C468 H459 0.930 . S
C468 C466 1.378 . S
C468 C469 1.367 . S
C469 C468 1.367 . S
C469 C471 1.433 . S
C470 C466 1.350 . S
C470 C467 1.463 . S
C470 N474 1.427 . S
C471 H461 0.929 . S
C471 C469 1.433 . S
C471 N474 1.384 . S
C472 H463 0.929 . S
C472 C464 1.378 1_545 S
C472 C467 1.350 . S
C473 H460 0.929 . S
C473 C465 1.433 . S
C473 N475 1.384 . S
N474 C470 1.427 . S
N474 C471 1.384 . S
N475 C467 1.427 1_565 S
N475 C473 1.384 . S
H476 C482 0.930 . S
H477 C486 0.900 1_455 S
H478 C491 0.929 . S
H479 C489 0.929 . S
H480 C484 0.929 . S
H481 C490 0.929 . S
C482 H476 0.930 . S
C482 C483 1.367 . S
C482 C490 1.378 1_545 S
C483 C482 1.367 . S
C483 C491 1.433 . S
C484 H480 0.929 . S
C484 C486 1.378 . S
C484 C488 1.350 . S
C485 C488 1.463 . S
C485 C490 1.350 . S
C485 N493 1.427 1_565 S
C486 H477 0.900 1_655 S
C486 C484 1.378 . S
C486 C487 1.367 . S
C487 C486 1.367 . S
C487 C489 1.433 . S
C488 C484 1.350 . S
C488 C485 1.463 . S
C488 N492 1.427 . S
C489 H479 0.929 . S
C489 C487 1.433 . S
C489 N492 1.384 . S
C490 H481 0.929 . S
C490 C482 1.378 1_565 S
C490 C485 1.350 . S
C491 H478 0.929 . S
C491 C483 1.433 . S
C491 N493 1.384 . S
N492 C488 1.427 . S
N492 C489 1.384 . S
N493 C485 1.427 1_545 S
N493 C491 1.384 . S
H494 C500 0.930 . S
H495 C504 0.930 . S
H496 C509 0.929 . S
H497 C507 0.929 . S
H498 C502 0.929 . S
H499 C508 0.929 . S
C500 H494 0.930 . S
C500 C501 1.367 . S
C500 C508 1.378 . S
C501 C500 1.367 . S
C501 C509 1.433 . S
C502 H498 0.929 . S
C502 C504 1.378 . S
C502 C506 1.350 . S
C503 C506 1.463 . S
C503 C508 1.350 . S
C503 N511 1.427 . S
C504 H495 0.930 . S
C504 C502 1.378 . S
C504 C505 1.367 . S
C505 C504 1.367 . S
C505 C507 1.433 . S
C506 C502 1.350 . S
C506 C503 1.463 . S
C506 N510 1.427 . S
C507 H497 0.929 . S
C507 C505 1.433 . S
C507 N510 1.384 . S
C508 H499 0.929 . S
C508 C500 1.378 . S
C508 C503 1.350 . S
C509 H496 0.929 . S
C509 C501 1.433 . S
C509 N511 1.384 . S
N510 C506 1.427 . S
N510 C507 1.384 . S
N511 C503 1.427 . S
N511 C509 1.384 . S
H512 C518 0.930 . S
H513 C522 0.930 . S
H514 C527 0.929 . S
H515 C525 0.929 . S
H516 C520 0.929 . S
H517 C526 0.929 . S
C518 H512 0.930 . S
C518 C519 1.367 . S
C518 C526 1.378 . S
C519 C518 1.367 . S
C519 C527 1.433 . S
C520 H516 0.929 . S
C520 C522 1.378 . S
C520 C524 1.350 . S
C521 C524 1.463 . S
C521 C526 1.350 . S
C521 N529 1.427 . S
C522 H513 0.930 . S
C522 C520 1.378 . S
C522 C523 1.367 . S
C523 C522 1.367 . S
C523 C525 1.433 . S
C524 C520 1.350 . S
C524 C521 1.463 . S
C524 N528 1.427 . S
C525 H515 0.929 . S
C525 C523 1.433 . S
C525 N528 1.384 . S
C526 H517 0.929 . S
C526 C518 1.378 . S
C526 C521 1.350 . S
C527 H514 0.929 . S
C527 C519 1.433 . S
C527 N529 1.384 . S
N528 C524 1.427 . S
N528 C525 1.384 . S
N529 C521 1.427 . S
N529 C527 1.384 . S
H530 C536 0.930 . S
H531 C540 0.930 . S
H532 C545 0.929 . S
H533 C543 0.929 . S
H534 C538 0.929 . S
H535 C544 0.929 1_565 S
C536 H530 0.930 . S
C536 C537 1.367 . S
C536 C544 1.378 . S
C537 C536 1.367 . S
C537 C545 1.433 . S
C538 H534 0.929 . S
C538 C540 1.378 . S
C538 C542 1.350 . S
C539 C542 1.463 . S
C539 C544 1.350 1_565 S
C539 N547 1.431 . S
C540 H531 0.930 . S
C540 C538 1.378 . S
C540 C541 1.367 . S
C541 C540 1.367 . S
C541 C543 1.433 . S
C542 C538 1.350 . S
C542 C539 1.463 . S
C542 N546 1.427 . S
C543 H533 0.929 . S
C543 C541 1.433 . S
C543 N546 1.384 . S
C544 H535 0.929 1_545 S
C544 C536 1.378 . S
C544 C539 1.350 1_545 S
C545 H532 0.929 . S
C545 C537 1.433 . S
C545 N547 1.373 1_545 S
N546 C542 1.427 . S
N546 C543 1.384 . S
N547 C539 1.431 . S
N547 C545 1.373 1_565 S
H548 C554 0.930 . S
H549 C558 0.930 . S
H550 C563 0.929 . S
H551 C561 0.929 . S
H552 C556 0.929 . S
H553 C562 0.929 . S
C554 H548 0.930 . S
C554 C555 1.367 . S
C554 C562 1.378 . S
C555 C554 1.367 . S
C555 C563 1.433 . S
C556 H552 0.929 . S
C556 C558 1.378 . S
C556 C560 1.350 . S
C557 C560 1.463 . S
C557 C562 1.350 . S
C557 N565 1.427 . S
C558 H549 0.930 . S
C558 C556 1.378 . S
C558 C559 1.367 . S
C559 C558 1.367 . S
C559 C561 1.433 . S
C560 C556 1.350 . S
C560 C557 1.463 . S
C560 N564 1.427 . S
C561 H551 0.929 . S
C561 C559 1.433 . S
C561 N564 1.384 . S
C562 H553 0.929 . S
C562 C554 1.378 . S
C562 C557 1.350 . S
C563 H550 0.929 . S
C563 C555 1.433 . S
C563 N565 1.384 . S
N564 C560 1.427 . S
N564 C561 1.384 . S
N565 C557 1.427 . S
N565 C563 1.384 . S
H566 C572 0.930 . S
H567 C576 0.930 . S
H568 C581 0.929 . S
H569 C579 0.929 . S
H570 C574 0.929 . S
H571 C580 0.929 . S
C572 H566 0.930 . S
C572 C573 1.367 . S
C572 C580 1.378 . S
C573 C572 1.367 . S
C573 C581 1.433 . S
C574 H570 0.929 . S
C574 C576 1.378 . S
C574 C578 1.350 . S
C575 C578 1.463 . S
C575 C580 1.350 . S
C575 N583 1.427 . S
C576 H567 0.930 . S
C576 C574 1.378 . S
C576 C577 1.367 . S
C577 C576 1.367 . S
C577 C579 1.433 . S
C578 C574 1.350 . S
C578 C575 1.463 . S
C578 N582 1.427 . S
C579 H569 0.929 . S
C579 C577 1.433 . S
C579 N582 1.384 . S
C580 H571 0.929 . S
C580 C572 1.378 . S
C580 C575 1.350 . S
C581 H568 0.929 . S
C581 C573 1.433 . S
C581 N583 1.384 . S
N582 C578 1.427 . S
N582 C579 1.384 . S
N583 C575 1.427 . S
N583 C581 1.384 . S
H584 C590 0.930 . S
H585 C594 0.930 . S
H586 C599 0.929 . S
H587 C597 0.929 . S
H588 C592 0.929 . S
H589 C598 0.929 . S
C590 H584 0.930 . S
C590 C591 1.367 . S
C590 C598 1.378 . S
C591 C590 1.367 . S
C591 C599 1.433 . S
C592 H588 0.929 . S
C592 C594 1.378 . S
C592 C596 1.350 . S
C593 C596 1.463 . S
C593 C598 1.350 . S
C593 N601 1.427 . S
C594 H585 0.930 . S
C594 C592 1.378 . S
C594 C595 1.367 . S
C595 C594 1.367 . S
C595 C597 1.433 . S
C596 C592 1.350 . S
C596 C593 1.463 . S
C596 N600 1.427 . S
C597 H587 0.929 . S
C597 C595 1.433 . S
C597 N600 1.384 . S
C598 H589 0.929 . S
C598 C590 1.378 . S
C598 C593 1.350 . S
C599 H586 0.929 . S
C599 C591 1.433 . S
C599 N601 1.384 . S
N600 C596 1.427 . S
N600 C597 1.384 . S
N601 C593 1.427 . S
N601 C599 1.384 . S
H602 C608 0.930 . S
H603 C612 0.930 . S
H604 C617 0.929 . S
H605 C615 0.929 . S
H606 C610 0.929 . S
H607 C616 0.929 . S
C608 H602 0.930 . S
C608 C609 1.367 . S
C608 C616 1.378 . S
C609 C608 1.367 . S
C609 C617 1.433 . S
C610 H606 0.929 . S
C610 C612 1.378 . S
C610 C614 1.350 . S
C611 C614 1.463 . S
C611 C616 1.350 . S
C611 N619 1.427 . S
C612 H603 0.930 . S
C612 C610 1.378 . S
C612 C613 1.367 . S
C613 C612 1.367 . S
C613 C615 1.433 . S
C614 C610 1.350 . S
C614 C611 1.463 . S
C614 N618 1.427 . S
C615 H605 0.929 . S
C615 C613 1.433 . S
C615 N618 1.384 . S
C616 H607 0.929 . S
C616 C608 1.378 . S
C616 C611 1.350 . S
C617 H604 0.929 . S
C617 C609 1.433 . S
C617 N619 1.384 . S
N618 C614 1.427 . S
N618 C615 1.384 . S
N619 C611 1.427 . S
N619 C617 1.384 . S
H620 C626 0.930 . S
H621 C630 0.930 . S
H622 C635 0.929 . S
H623 C633 0.929 . S
H624 C628 0.929 . S
H625 C634 0.929 . S
C626 H620 0.930 . S
C626 C627 1.367 . S
C626 C634 1.378 . S
C627 C626 1.367 . S
C627 C635 1.433 . S
C628 H624 0.929 . S
C628 C630 1.378 . S
C628 C632 1.350 . S
C629 C632 1.463 . S
C629 C634 1.350 . S
C629 N637 1.427 . S
C630 H621 0.930 . S
C630 C628 1.378 . S
C630 C631 1.367 . S
C631 C630 1.367 . S
C631 C633 1.433 . S
C632 C628 1.350 . S
C632 C629 1.463 . S
C632 N636 1.427 . S
C633 H623 0.929 . S
C633 C631 1.433 . S
C633 N636 1.384 . S
C634 H625 0.929 . S
C634 C626 1.378 . S
C634 C629 1.350 . S
C635 H622 0.929 . S
C635 C627 1.433 . S
C635 N637 1.384 . S
N636 C632 1.427 . S
N636 C633 1.384 . S
N637 C629 1.427 . S
N637 C635 1.384 . S
H638 C644 0.930 . S
H639 C648 0.930 . S
H640 C653 0.929 . S
H641 C651 0.929 . S
H642 C646 0.929 . S
H643 C652 0.929 . S
C644 H638 0.930 . S
C644 C645 1.367 . S
C644 C652 1.378 . S
C645 C644 1.367 . S
C645 C653 1.433 . S
C646 H642 0.929 . S
C646 C648 1.378 . S
C646 C650 1.350 . S
C647 C650 1.463 . S
C647 C652 1.350 . S
C647 N655 1.427 . S
C648 H639 0.930 . S
C648 C646 1.378 . S
C648 C649 1.367 . S
C649 C648 1.367 . S
C649 C651 1.433 . S
C650 C646 1.350 . S
C650 C647 1.463 . S
C650 N654 1.427 . S
C651 H641 0.929 . S
C651 C649 1.433 . S
C651 N654 1.384 . S
C652 H643 0.929 . S
C652 C644 1.378 . S
C652 C647 1.350 . S
C653 H640 0.929 . S
C653 C645 1.433 . S
C653 N655 1.384 . S
N654 C650 1.427 . S
N654 C651 1.384 . S
N655 C647 1.427 . S
N655 C653 1.384 . S
H656 C662 0.930 . S
H657 C666 0.930 . S
H658 C671 0.929 . S
H659 C669 0.929 . S
H660 C664 0.929 . S
H661 C670 0.929 . S
C662 H656 0.930 . S
C662 C663 1.367 . S
C662 C670 1.378 . S
C663 C662 1.367 . S
C663 C671 1.433 . S
C664 H660 0.929 . S
C664 C666 1.378 . S
C664 C668 1.350 . S
C665 C668 1.463 . S
C665 C670 1.350 . S
C665 N673 1.427 . S
C666 H657 0.930 . S
C666 C664 1.378 . S
C666 C667 1.367 . S
C667 C666 1.367 . S
C667 C669 1.433 . S
C668 C664 1.350 . S
C668 C665 1.463 . S
C668 N672 1.427 . S
C669 H659 0.929 . S
C669 C667 1.433 . S
C669 N672 1.384 . S
C670 H661 0.929 . S
C670 C662 1.378 . S
C670 C665 1.350 . S
C671 H658 0.929 . S
C671 C663 1.433 . S
C671 N673 1.384 . S
N672 C668 1.427 . S
N672 C669 1.384 . S
N673 C665 1.427 . S
N673 C671 1.384 . S
H674 C680 0.930 . S
H675 C684 0.930 . S
H676 C689 0.929 . S
H677 C687 0.929 . S
H678 C682 0.929 . S
H679 C688 0.929 . S
C680 H674 0.930 . S
C680 C681 1.367 . S
C680 C688 1.378 . S
C681 C680 1.367 . S
C681 C689 1.433 . S
C682 H678 0.929 . S
C682 C684 1.378 . S
C682 C686 1.350 . S
C683 C686 1.463 . S
C683 C688 1.350 . S
C683 N691 1.427 . S
C684 H675 0.930 . S
C684 C682 1.378 . S
C684 C685 1.367 . S
C685 C684 1.367 . S
C685 C687 1.433 . S
C686 C682 1.350 . S
C686 C683 1.463 . S
C686 N690 1.427 . S
C687 H677 0.929 . S
C687 C685 1.433 . S
C687 N690 1.384 . S
C688 H679 0.929 . S
C688 C680 1.378 . S
C688 C683 1.350 . S
C689 H676 0.929 . S
C689 C681 1.433 . S
C689 N691 1.384 . S
N690 C686 1.427 . S
N690 C687 1.384 . S
N691 C683 1.427 . S
N691 C689 1.384 . S
H692 C698 0.930 . S
H693 C702 0.930 . S
H694 C707 0.929 . S
H695 C705 0.929 . S
H696 C700 0.929 . S
H697 C706 0.929 . S
C698 H692 0.930 . S
C698 C699 1.367 . S
C698 C706 1.378 . S
C699 C698 1.367 . S
C699 C707 1.433 . S
C700 H696 0.929 . S
C700 C702 1.378 . S
C700 C704 1.350 . S
C701 C704 1.463 . S
C701 C706 1.350 . S
C701 N709 1.427 . S
C702 H693 0.930 . S
C702 C700 1.378 . S
C702 C703 1.367 . S
C703 C702 1.367 . S
C703 C705 1.433 . S
C704 C700 1.350 . S
C704 C701 1.463 . S
C704 N708 1.427 . S
C705 H695 0.929 . S
C705 C703 1.433 . S
C705 N708 1.384 . S
C706 H697 0.929 . S
C706 C698 1.378 . S
C706 C701 1.350 . S
C707 H694 0.929 . S
C707 C699 1.433 . S
C707 N709 1.384 . S
N708 C704 1.427 . S
N708 C705 1.384 . S
N709 C701 1.427 . S
N709 C707 1.384 . S
H710 C716 0.930 . S
H711 C720 0.930 . S
H712 C725 0.929 . S
H713 C723 0.929 . S
H714 C718 0.929 . S
H715 C724 0.929 . S
C716 H710 0.930 . S
C716 C717 1.367 . S
C716 C724 1.378 . S
C717 C716 1.367 . S
C717 C725 1.433 . S
C718 H714 0.929 . S
C718 C720 1.378 . S
C718 C722 1.350 . S
C719 C722 1.463 . S
C719 C724 1.350 . S
C719 N727 1.427 . S
C720 H711 0.930 . S
C720 C718 1.378 . S
C720 C721 1.367 . S
C721 C720 1.367 . S
C721 C723 1.433 . S
C722 C718 1.350 . S
C722 C719 1.463 . S
C722 N726 1.427 . S
C723 H713 0.929 . S
C723 C721 1.433 . S
C723 N726 1.384 . S
C724 H715 0.929 . S
C724 C716 1.378 . S
C724 C719 1.350 . S
C725 H712 0.929 . S
C725 C717 1.433 . S
C725 N727 1.384 . S
N726 C722 1.427 . S
N726 C723 1.384 . S
N727 C719 1.427 . S
N727 C725 1.384 . S
H728 C734 0.930 . S
H729 C738 0.930 . S
H730 C743 0.929 . S
H731 C741 0.929 . S
H732 C736 0.929 . S
H733 C742 0.929 . S
C734 H728 0.930 . S
C734 C735 1.367 . S
C734 C742 1.378 . S
C735 C734 1.367 . S
C735 C743 1.433 . S
C736 H732 0.929 . S
C736 C738 1.378 . S
C736 C740 1.350 . S
C737 C740 1.463 . S
C737 C742 1.350 . S
C737 N745 1.427 . S
C738 H729 0.930 . S
C738 C736 1.378 . S
C738 C739 1.367 . S
C739 C738 1.367 . S
C739 C741 1.433 . S
C740 C736 1.350 . S
C740 C737 1.463 . S
C740 N744 1.427 . S
C741 H731 0.929 . S
C741 C739 1.433 . S
C741 N744 1.384 . S
C742 H733 0.929 . S
C742 C734 1.378 . S
C742 C737 1.350 . S
C743 H730 0.929 . S
C743 C735 1.433 . S
C743 N745 1.384 . S
N744 C740 1.427 . S
N744 C741 1.384 . S
N745 C737 1.427 . S
N745 C743 1.384 . S
H746 C752 0.930 . S
H747 C756 0.930 . S
H748 C761 0.929 . S
H749 C759 0.929 . S
H750 C754 0.929 . S
H751 C760 0.929 . S
C752 H746 0.930 . S
C752 C753 1.367 . S
C752 C760 1.378 . S
C753 C752 1.367 . S
C753 C761 1.433 . S
C754 H750 0.929 . S
C754 C756 1.378 . S
C754 C758 1.350 . S
C755 C758 1.463 . S
C755 C760 1.350 . S
C755 N763 1.427 . S
C756 H747 0.930 . S
C756 C754 1.378 . S
C756 C757 1.367 . S
C757 C756 1.367 . S
C757 C759 1.433 . S
C758 C754 1.350 . S
C758 C755 1.463 . S
C758 N762 1.427 . S
C759 H749 0.929 . S
C759 C757 1.433 . S
C759 N762 1.384 . S
C760 H751 0.929 . S
C760 C752 1.378 . S
C760 C755 1.350 . S
C761 H748 0.929 . S
C761 C753 1.433 . S
C761 N763 1.384 . S
N762 C758 1.427 . S
N762 C759 1.384 . S
N763 C755 1.427 . S
N763 C761 1.384 . S
H764 C770 0.930 . S
H765 C774 0.930 . S
H766 C779 0.929 . S
H767 C777 0.929 . S
H768 C772 0.929 . S
H769 C778 0.929 . S
C770 H764 0.930 . S
C770 C771 1.367 . S
C770 C778 1.378 . S
C771 C770 1.367 . S
C771 C779 1.433 . S
C772 H768 0.929 . S
C772 C774 1.378 . S
C772 C776 1.350 . S
C773 C776 1.463 . S
C773 C778 1.350 . S
C773 N781 1.427 . S
C774 H765 0.930 . S
C774 C772 1.378 . S
C774 C775 1.367 . S
C775 C774 1.367 . S
C775 C777 1.433 . S
C776 C772 1.350 . S
C776 C773 1.463 . S
C776 N780 1.427 . S
C777 H767 0.929 . S
C777 C775 1.433 . S
C777 N780 1.384 . S
C778 H769 0.929 . S
C778 C770 1.378 . S
C778 C773 1.350 . S
C779 H766 0.929 . S
C779 C771 1.433 . S
C779 N781 1.384 . S
N780 C776 1.427 . S
N780 C777 1.384 . S
N781 C773 1.427 . S
N781 C779 1.384 . S
H782 C788 0.930 . S
H783 C792 0.930 . S
H784 C797 0.929 . S
H785 C795 0.929 . S
H786 C790 0.929 . S
H787 C796 0.929 . S
C788 H782 0.930 . S
C788 C789 1.367 . S
C788 C796 1.378 . S
C789 C788 1.367 . S
C789 C797 1.433 . S
C790 H786 0.929 . S
C790 C792 1.378 . S
C790 C794 1.350 . S
C791 C794 1.463 . S
C791 C796 1.350 . S
C791 N799 1.427 . S
C792 H783 0.930 . S
C792 C790 1.378 . S
C792 C793 1.367 . S
C793 C792 1.367 . S
C793 C795 1.433 . S
C794 C790 1.350 . S
C794 C791 1.463 . S
C794 N798 1.427 . S
C795 H785 0.929 . S
C795 C793 1.433 . S
C795 N798 1.384 . S
C796 H787 0.929 . S
C796 C788 1.378 . S
C796 C791 1.350 . S
C797 H784 0.929 . S
C797 C789 1.433 . S
C797 N799 1.384 . S
N798 C794 1.427 . S
N798 C795 1.384 . S
N799 C791 1.427 . S
N799 C797 1.384 . S
H800 C806 0.930 . S
H801 C810 0.930 . S
H802 C815 0.929 . S
H803 C813 0.929 . S
H804 C808 0.929 . S
H805 C814 0.929 . S
C806 H800 0.930 . S
C806 C807 1.367 . S
C806 C814 1.378 . S
C807 C806 1.367 . S
C807 C815 1.433 . S
C808 H804 0.929 . S
C808 C810 1.378 . S
C808 C812 1.350 . S
C809 C812 1.463 . S
C809 C814 1.350 . S
C809 N817 1.427 . S
C810 H801 0.930 . S
C810 C808 1.378 . S
C810 C811 1.367 . S
C811 C810 1.367 . S
C811 C813 1.433 . S
C812 C808 1.350 . S
C812 C809 1.463 . S
C812 N816 1.427 . S
C813 H803 0.929 . S
C813 C811 1.433 . S
C813 N816 1.384 . S
C814 H805 0.929 . S
C814 C806 1.378 . S
C814 C809 1.350 . S
C815 H802 0.929 . S
C815 C807 1.433 . S
C815 N817 1.384 . S
N816 C812 1.427 . S
N816 C813 1.384 . S
N817 C809 1.427 . S
N817 C815 1.384 . S
H818 C824 0.930 . S
H819 C828 0.930 . S
H820 C833 0.929 . S
H821 C831 0.929 . S
H822 C826 0.929 . S
H823 C832 0.929 . S
C824 H818 0.930 . S
C824 C825 1.367 . S
C824 C832 1.378 . S
C825 C824 1.367 . S
C825 C833 1.433 . S
C826 H822 0.929 . S
C826 C828 1.378 . S
C826 C830 1.350 . S
C827 C830 1.463 . S
C827 C832 1.350 . S
C827 N835 1.427 . S
C828 H819 0.930 . S
C828 C826 1.378 . S
C828 C829 1.367 . S
C829 C828 1.367 . S
C829 C831 1.433 . S
C830 C826 1.350 . S
C830 C827 1.463 . S
C830 N834 1.427 . S
C831 H821 0.929 . S
C831 C829 1.433 . S
C831 N834 1.384 . S
C832 H823 0.929 . S
C832 C824 1.378 . S
C832 C827 1.350 . S
C833 H820 0.929 . S
C833 C825 1.433 . S
C833 N835 1.384 . S
N834 C830 1.427 . S
N834 C831 1.384 . S
N835 C827 1.427 . S
N835 C833 1.384 . S
C411 C242 1.432 . S
C415 C336 1.385 . S
C433 C344 1.412 . S
C429 C301 1.434 . S
C451 C348 1.365 . S
C447 C162 1.418 . S
C465 C221 1.406 . S
C469 C324 1.410 . S
C487 C365 1.384 . S
C483 C82 1.410 . S
C505 C399 1.415 . S
C501 C141 1.461 . S
C519 C2 1.394 . S
C523 C387 1.363 . S
C537 C61 1.451 . S
C541 C369 1.395 . S
C559 C323 1.313 . S
C555 C42 1.468 . S
C577 C357 1.326 . S
C573 C21 1.424 . S
C595 C361 1.314 . S
C591 C122 1.466 . S
C613 C339 1.317 . S
C609 C101 1.427 . S
C631 C378 1.315 . S
C627 C202 1.439 . S
C645 C181 1.443 . S
C649 C386 1.325 . S
C667 C402 1.313 . S
C663 C282 1.442 . S
C681 C261 1.450 . S
C685 C382 1.312 . S
C703 C327 1.310 . S
C699 C15 1.505 . S
C721 C345 1.334 . S
C717 C55 1.508 . S
C735 C95 1.490 . S
C739 C360 1.301 . S
C757 C340 1.304 . S
C753 C135 1.493 . S
C775 C366 1.307 . S
C771 C175 1.504 . S
C789 C215 1.508 . S
C793 C390 1.318 . S
C807 C255 1.492 . S
C811 C403 1.326 . S
C825 C295 1.493 . S
C829 C381 1.323 . S
