# Generated by pormake.
# Topology gar, (4,6)-cn, num edge types: 1
# Building blocks:
#     Node 0, Type 0, BuildingBlock: QUQFOY_clean_sbu_1, # of connection points: 4
#     Node 1, Type 0, BuildingBlock: QUQFOY_clean_sbu_1, # of connection points: 4
#     Node 2, Type 0, BuildingBlock: QUQFOY_clean_sbu_1, # of connection points: 4
#     Node 3, Type 0, BuildingBlock: QUQFOY_clean_sbu_1, # of connection points: 4
#     Node 4, Type 0, BuildingBlock: QUQFOY_clean_sbu_1, # of connection points: 4
#     Node 5, Type 0, BuildingBlock: QUQFOY_clean_sbu_1, # of connection points: 4
#     Node 6, Type 0, BuildingBlock: QUQFOY_clean_sbu_1, # of connection points: 4
#     Node 7, Type 0, BuildingBlock: QUQFOY_clean_sbu_1, # of connection points: 4
#     Node 8, Type 0, BuildingBlock: QUQFOY_clean_sbu_1, # of connection points: 4
#     Node 9, Type 0, BuildingBlock: QUQFOY_clean_sbu_1, # of connection points: 4
#     Node 10, Type 0, BuildingBlock: QUQFOY_clean_sbu_1, # of connection points: 4
#     Node 11, Type 0, BuildingBlock: QUQFOY_clean_sbu_1, # of connection points: 4
#     Node 12, Type 0, BuildingBlock: QUQFOY_clean_sbu_1, # of connection points: 4
#     Node 13, Type 0, BuildingBlock: QUQFOY_clean_sbu_1, # of connection points: 4
#     Node 14, Type 0, BuildingBlock: QUQFOY_clean_sbu_1, # of connection points: 4
#     Node 15, Type 0, BuildingBlock: QUQFOY_clean_sbu_1, # of connection points: 4
#     Node 16, Type 0, BuildingBlock: QUQFOY_clean_sbu_1, # of connection points: 4
#     Node 17, Type 0, BuildingBlock: QUQFOY_clean_sbu_1, # of connection points: 4
#     Node 18, Type 0, BuildingBlock: QUQFOY_clean_sbu_1, # of connection points: 4
#     Node 19, Type 0, BuildingBlock: QUQFOY_clean_sbu_1, # of connection points: 4
#     Node 20, Type 0, BuildingBlock: QUQFOY_clean_sbu_1, # of connection points: 4
#     Node 21, Type 0, BuildingBlock: QUQFOY_clean_sbu_1, # of connection points: 4
#     Node 22, Type 0, BuildingBlock: QUQFOY_clean_sbu_1, # of connection points: 4
#     Node 23, Type 0, BuildingBlock: QUQFOY_clean_sbu_1, # of connection points: 4
#     Node 24, Type 1, BuildingBlock: KUMBOL_clean_sbu_1, # of connection points: 6
#     Node 25, Type 1, BuildingBlock: KUMBOL_clean_sbu_1, # of connection points: 6
#     Node 26, Type 1, BuildingBlock: KUMBOL_clean_sbu_1, # of connection points: 6
#     Node 27, Type 1, BuildingBlock: KUMBOL_clean_sbu_1, # of connection points: 6
#     Node 28, Type 1, BuildingBlock: KUMBOL_clean_sbu_1, # of connection points: 6
#     Node 29, Type 1, BuildingBlock: KUMBOL_clean_sbu_1, # of connection points: 6
#     Node 30, Type 1, BuildingBlock: KUMBOL_clean_sbu_1, # of connection points: 6
#     Node 31, Type 1, BuildingBlock: KUMBOL_clean_sbu_1, # of connection points: 6
#     Node 32, Type 1, BuildingBlock: KUMBOL_clean_sbu_1, # of connection points: 6
#     Node 33, Type 1, BuildingBlock: KUMBOL_clean_sbu_1, # of connection points: 6
#     Node 34, Type 1, BuildingBlock: KUMBOL_clean_sbu_1, # of connection points: 6
#     Node 35, Type 1, BuildingBlock: KUMBOL_clean_sbu_1, # of connection points: 6
#     Node 36, Type 1, BuildingBlock: KUMBOL_clean_sbu_1, # of connection points: 6
#     Node 37, Type 1, BuildingBlock: KUMBOL_clean_sbu_1, # of connection points: 6
#     Node 38, Type 1, BuildingBlock: KUMBOL_clean_sbu_1, # of connection points: 6
#     Node 39, Type 1, BuildingBlock: KUMBOL_clean_sbu_1, # of connection points: 6
#     Edge 40, Type (0, 1), BuildingBlock: CIFDUS_clean_linker_0, # of connection points: 2
#     Edge 41, Type (0, 1), BuildingBlock: CIFDUS_clean_linker_0, # of connection points: 2
#     Edge 42, Type (0, 1), BuildingBlock: CIFDUS_clean_linker_0, # of connection points: 2
#     Edge 43, Type (0, 1), BuildingBlock: CIFDUS_clean_linker_0, # of connection points: 2
#     Edge 44, Type (0, 1), BuildingBlock: CIFDUS_clean_linker_0, # of connection points: 2
#     Edge 45, Type (0, 1), BuildingBlock: CIFDUS_clean_linker_0, # of connection points: 2
#     Edge 46, Type (0, 1), BuildingBlock: CIFDUS_clean_linker_0, # of connection points: 2
#     Edge 47, Type (0, 1), BuildingBlock: CIFDUS_clean_linker_0, # of connection points: 2
#     Edge 48, Type (0, 1), BuildingBlock: CIFDUS_clean_linker_0, # of connection points: 2
#     Edge 49, Type (0, 1), BuildingBlock: CIFDUS_clean_linker_0, # of connection points: 2
#     Edge 50, Type (0, 1), BuildingBlock: CIFDUS_clean_linker_0, # of connection points: 2
#     Edge 51, Type (0, 1), BuildingBlock: CIFDUS_clean_linker_0, # of connection points: 2
#     Edge 52, Type (0, 1), BuildingBlock: CIFDUS_clean_linker_0, # of connection points: 2
#     Edge 53, Type (0, 1), BuildingBlock: CIFDUS_clean_linker_0, # of connection points: 2
#     Edge 54, Type (0, 1), BuildingBlock: CIFDUS_clean_linker_0, # of connection points: 2
#     Edge 55, Type (0, 1), BuildingBlock: CIFDUS_clean_linker_0, # of connection points: 2
#     Edge 56, Type (0, 1), BuildingBlock: CIFDUS_clean_linker_0, # of connection points: 2
#     Edge 57, Type (0, 1), BuildingBlock: CIFDUS_clean_linker_0, # of connection points: 2
#     Edge 58, Type (0, 1), BuildingBlock: CIFDUS_clean_linker_0, # of connection points: 2
#     Edge 59, Type (0, 1), BuildingBlock: CIFDUS_clean_linker_0, # of connection points: 2
#     Edge 60, Type (0, 1), BuildingBlock: CIFDUS_clean_linker_0, # of connection points: 2
#     Edge 61, Type (0, 1), BuildingBlock: CIFDUS_clean_linker_0, # of connection points: 2
#     Edge 62, Type (0, 1), BuildingBlock: CIFDUS_clean_linker_0, # of connection points: 2
#     Edge 63, Type (0, 1), BuildingBlock: CIFDUS_clean_linker_0, # of connection points: 2
#     Edge 64, Type (0, 1), BuildingBlock: CIFDUS_clean_linker_0, # of connection points: 2
#     Edge 65, Type (0, 1), BuildingBlock: CIFDUS_clean_linker_0, # of connection points: 2
#     Edge 66, Type (0, 1), BuildingBlock: CIFDUS_clean_linker_0, # of connection points: 2
#     Edge 67, Type (0, 1), BuildingBlock: CIFDUS_clean_linker_0, # of connection points: 2
#     Edge 68, Type (0, 1), BuildingBlock: CIFDUS_clean_linker_0, # of connection points: 2
#     Edge 69, Type (0, 1), BuildingBlock: CIFDUS_clean_linker_0, # of connection points: 2
#     Edge 70, Type (0, 1), BuildingBlock: CIFDUS_clean_linker_0, # of connection points: 2
#     Edge 71, Type (0, 1), BuildingBlock: CIFDUS_clean_linker_0, # of connection points: 2
#     Edge 72, Type (0, 1), BuildingBlock: CIFDUS_clean_linker_0, # of connection points: 2
#     Edge 73, Type (0, 1), BuildingBlock: CIFDUS_clean_linker_0, # of connection points: 2
#     Edge 74, Type (0, 1), BuildingBlock: CIFDUS_clean_linker_0, # of connection points: 2
#     Edge 75, Type (0, 1), BuildingBlock: CIFDUS_clean_linker_0, # of connection points: 2
#     Edge 76, Type (0, 1), BuildingBlock: CIFDUS_clean_linker_0, # of connection points: 2
#     Edge 77, Type (0, 1), BuildingBlock: CIFDUS_clean_linker_0, # of connection points: 2
#     Edge 78, Type (0, 1), BuildingBlock: CIFDUS_clean_linker_0, # of connection points: 2
#     Edge 79, Type (0, 1), BuildingBlock: CIFDUS_clean_linker_0, # of connection points: 2
#     Edge 80, Type (0, 1), BuildingBlock: CIFDUS_clean_linker_0, # of connection points: 2
#     Edge 81, Type (0, 1), BuildingBlock: CIFDUS_clean_linker_0, # of connection points: 2
#     Edge 82, Type (0, 1), BuildingBlock: CIFDUS_clean_linker_0, # of connection points: 2
#     Edge 83, Type (0, 1), BuildingBlock: CIFDUS_clean_linker_0, # of connection points: 2
#     Edge 84, Type (0, 1), BuildingBlock: CIFDUS_clean_linker_0, # of connection points: 2
#     Edge 85, Type (0, 1), BuildingBlock: CIFDUS_clean_linker_0, # of connection points: 2
#     Edge 86, Type (0, 1), BuildingBlock: CIFDUS_clean_linker_0, # of connection points: 2
#     Edge 87, Type (0, 1), BuildingBlock: CIFDUS_clean_linker_0, # of connection points: 2
#     Edge 88, Type (0, 1), BuildingBlock: CIFDUS_clean_linker_0, # of connection points: 2
#     Edge 89, Type (0, 1), BuildingBlock: CIFDUS_clean_linker_0, # of connection points: 2
#     Edge 90, Type (0, 1), BuildingBlock: CIFDUS_clean_linker_0, # of connection points: 2
#     Edge 91, Type (0, 1), BuildingBlock: CIFDUS_clean_linker_0, # of connection points: 2
#     Edge 92, Type (0, 1), BuildingBlock: CIFDUS_clean_linker_0, # of connection points: 2
#     Edge 93, Type (0, 1), BuildingBlock: CIFDUS_clean_linker_0, # of connection points: 2
#     Edge 94, Type (0, 1), BuildingBlock: CIFDUS_clean_linker_0, # of connection points: 2
#     Edge 95, Type (0, 1), BuildingBlock: CIFDUS_clean_linker_0, # of connection points: 2
#     Edge 96, Type (0, 1), BuildingBlock: CIFDUS_clean_linker_0, # of connection points: 2
#     Edge 97, Type (0, 1), BuildingBlock: CIFDUS_clean_linker_0, # of connection points: 2
#     Edge 98, Type (0, 1), BuildingBlock: CIFDUS_clean_linker_0, # of connection points: 2
#     Edge 99, Type (0, 1), BuildingBlock: CIFDUS_clean_linker_0, # of connection points: 2
#     Edge 100, Type (0, 1), BuildingBlock: CIFDUS_clean_linker_0, # of connection points: 2
#     Edge 101, Type (0, 1), BuildingBlock: CIFDUS_clean_linker_0, # of connection points: 2
#     Edge 102, Type (0, 1), BuildingBlock: CIFDUS_clean_linker_0, # of connection points: 2
#     Edge 103, Type (0, 1), BuildingBlock: CIFDUS_clean_linker_0, # of connection points: 2
#     Edge 104, Type (0, 1), BuildingBlock: CIFDUS_clean_linker_0, # of connection points: 2
#     Edge 105, Type (0, 1), BuildingBlock: CIFDUS_clean_linker_0, # of connection points: 2
#     Edge 106, Type (0, 1), BuildingBlock: CIFDUS_clean_linker_0, # of connection points: 2
#     Edge 107, Type (0, 1), BuildingBlock: CIFDUS_clean_linker_0, # of connection points: 2
#     Edge 108, Type (0, 1), BuildingBlock: CIFDUS_clean_linker_0, # of connection points: 2
#     Edge 109, Type (0, 1), BuildingBlock: CIFDUS_clean_linker_0, # of connection points: 2
#     Edge 110, Type (0, 1), BuildingBlock: CIFDUS_clean_linker_0, # of connection points: 2
#     Edge 111, Type (0, 1), BuildingBlock: CIFDUS_clean_linker_0, # of connection points: 2
#     Edge 112, Type (0, 1), BuildingBlock: CIFDUS_clean_linker_0, # of connection points: 2
#     Edge 113, Type (0, 1), BuildingBlock: CIFDUS_clean_linker_0, # of connection points: 2
#     Edge 114, Type (0, 1), BuildingBlock: CIFDUS_clean_linker_0, # of connection points: 2
#     Edge 115, Type (0, 1), BuildingBlock: CIFDUS_clean_linker_0, # of connection points: 2
#     Edge 116, Type (0, 1), BuildingBlock: CIFDUS_clean_linker_0, # of connection points: 2
#     Edge 117, Type (0, 1), BuildingBlock: CIFDUS_clean_linker_0, # of connection points: 2
#     Edge 118, Type (0, 1), BuildingBlock: CIFDUS_clean_linker_0, # of connection points: 2
#     Edge 119, Type (0, 1), BuildingBlock: CIFDUS_clean_linker_0, # of connection points: 2
#     Edge 120, Type (0, 1), BuildingBlock: CIFDUS_clean_linker_0, # of connection points: 2
#     Edge 121, Type (0, 1), BuildingBlock: CIFDUS_clean_linker_0, # of connection points: 2
#     Edge 122, Type (0, 1), BuildingBlock: CIFDUS_clean_linker_0, # of connection points: 2
#     Edge 123, Type (0, 1), BuildingBlock: CIFDUS_clean_linker_0, # of connection points: 2
#     Edge 124, Type (0, 1), BuildingBlock: CIFDUS_clean_linker_0, # of connection points: 2
#     Edge 125, Type (0, 1), BuildingBlock: CIFDUS_clean_linker_0, # of connection points: 2
#     Edge 126, Type (0, 1), BuildingBlock: CIFDUS_clean_linker_0, # of connection points: 2
#     Edge 127, Type (0, 1), BuildingBlock: CIFDUS_clean_linker_0, # of connection points: 2
#     Edge 128, Type (0, 1), BuildingBlock: CIFDUS_clean_linker_0, # of connection points: 2
#     Edge 129, Type (0, 1), BuildingBlock: CIFDUS_clean_linker_0, # of connection points: 2
#     Edge 130, Type (0, 1), BuildingBlock: CIFDUS_clean_linker_0, # of connection points: 2
#     Edge 131, Type (0, 1), BuildingBlock: CIFDUS_clean_linker_0, # of connection points: 2
#     Edge 132, Type (0, 1), BuildingBlock: CIFDUS_clean_linker_0, # of connection points: 2
#     Edge 133, Type (0, 1), BuildingBlock: CIFDUS_clean_linker_0, # of connection points: 2
#     Edge 134, Type (0, 1), BuildingBlock: CIFDUS_clean_linker_0, # of connection points: 2
#     Edge 135, Type (0, 1), BuildingBlock: CIFDUS_clean_linker_0, # of connection points: 2
# Relax obj value: 0.104
# Max RMSD: 0.195
# Mean RMSD: 0.143
data_MOF--net-gar--node1-QUQFOY_clean_sbu_1--node2-KUMBOL_clean_sbu_1--edge1-CIFDUS_clean_linker_0
_symmetry_space_group_name_H-M    P1
_symmetry_Int_Tables_number       1
_symmetry_cell_setting            triclinic
loop_
_symmetry_equiv_pos_as_xyz
'x, y, z'
_cell_length_a     54.418979
_cell_length_b     54.297922
_cell_length_c     50.726841
_cell_angle_alpha  96.932387
_cell_angle_beta   96.814315
_cell_angle_gamma 104.11911
loop_
_atom_site_label
_atom_site_type_symbol
_atom_site_fract_x
_atom_site_fract_y
_atom_site_fract_z
_atom_type_partial_charge
O0 O 0.06509 0.29097 0.38308 0.0
Cd1 Cd 0.06816 0.31132 0.35091 0.0
Cd2 Cd 0.04988 0.3463 0.40299 0.0
O3 O 0.05962 0.31562 0.41949 0.0
O4 O 0.08683 0.29147 0.32402 0.0
O5 O 0.10754 0.32816 0.3477 0.0
C6 C 0.10868 0.30845 0.33124 0.0
C7 C 0.05452 0.38725 0.43125 0.0
C8 C 0.06283 0.29458 0.40792 0.0
C9 C 1.01066 0.32086 0.3494 0.0
O10 O 1.01747 0.33321 0.37334 0.0
O11 O 0.02737 0.31276 0.33652 0.0
O12 O 0.03775 0.36667 0.43364 0.0
O13 O 0.06905 0.38477 0.41328 0.0
O14 O 1.01787 0.72341 0.7088 0.0
Cd15 Cd 0.0254 0.7555 0.74043 0.0
Cd16 Cd 0.05419 0.77813 0.70202 0.0
O17 O 0.04126 0.74187 0.68022 0.0
O18 O 0.99312 0.74876 0.7623 0.0
O19 O 1.00041 0.78083 0.74032 0.0
C20 C 0.9852 0.76772 0.75445 0.0
C21 C 0.05005 0.81294 0.68103 0.0
C22 C 0.02718 0.72189 0.68675 0.0
C23 C 0.08908 0.77331 0.7495 0.0
O24 O 0.08731 0.78284 0.72798 0.0
O25 O 0.068 0.76285 0.75851 0.0
O26 O 0.0668 0.8007 0.67579 0.0
O27 O 0.03511 0.80528 0.69802 0.0
O28 O 0.61617 0.83266 0.88266 0.0
Cd29 Cd 0.58992 0.83294 0.90963 0.0
Cd30 Cd 0.5546 0.84186 0.8592 0.0
O31 O 0.59026 0.83118 0.84478 0.0
O32 O 0.59994 0.81428 0.93958 0.0
O33 O 0.56484 0.79876 0.90951 0.0
C34 C 0.57965 0.79595 0.93017 0.0
C35 C 0.50871 0.83131 0.83647 0.0
C36 C 0.61246 0.82988 0.85703 0.0
C37 C 0.56874 0.8799 0.91622 0.0
O38 O 0.55814 0.8731 0.89154 0.0
O39 O 0.58252 0.86682 0.92703 0.0
O40 O 0.52716 0.84767 0.82906 0.0
O41 O 0.51619 0.81881 0.85465 0.0
O42 O 0.52395 0.20936 0.20679 0.0
Cd43 Cd 0.52937 0.24495 0.23395 0.0
Cd44 Cd 0.55473 0.26242 0.19117 0.0
O45 O 0.53851 0.22533 0.17174 0.0
O46 O 0.50152 0.24226 0.26099 0.0
O47 O 0.49898 0.2643 0.22856 0.0
C48 C 0.48867 0.25571 0.24851 0.0
C49 C 0.55 0.2989 0.17324 0.0
C50 C 0.52889 0.20599 0.18261 0.0
C51 C 0.59212 0.26422 0.2404 0.0
O52 O 0.58888 0.26694 0.21581 0.0
O53 O 0.57191 0.25782 0.25219 0.0
O54 O 0.56311 0.28448 0.16283 0.0
O55 O 0.53851 0.29189 0.19305 0.0
O56 O 0.06779 0.76511 0.12514 0.0
Cd57 Cd 0.07077 0.79962 0.1483 0.0
Cd58 Cd 0.09502 0.82544 0.11086 0.0
O59 O 0.08243 0.78302 0.09112 0.0
O60 O 0.05122 0.78937 0.17746 0.0
O61 O 0.04143 0.81617 0.15093 0.0
C62 C 0.03723 0.80431 0.17114 0.0
C63 C 0.08665 0.86722 0.09619 0.0
C64 C 0.07403 0.76244 0.10189 0.0
C65 C 0.12704 0.82202 0.16473 0.0
O66 O 0.12814 0.82924 0.14158 0.0
O67 O 0.10539 0.81294 0.17143 0.0
O68 O 0.10347 0.85621 0.08765 0.0
O69 O 0.07339 0.85444 0.11206 0.0
O70 O 0.5596 0.7837 0.45943 0.0
Cd71 Cd 0.54019 0.78269 0.49288 0.0
Cd72 Cd 0.50348 0.80277 0.44415 0.0
O73 O 0.53257 0.79176 0.42703 0.0
O74 O 0.55654 0.75916 0.51677 0.0
O75 O 0.51766 0.74539 0.4952 0.0
C76 C 0.5364 0.73995 0.50954 0.0
C77 C 0.46646 0.8021 0.4124 0.0
C78 C 0.55357 0.78654 0.43507 0.0
C79 C 0.52925 0.84021 0.49824 0.0
O80 O 0.5161 0.83427 0.47471 0.0
O81 O 0.53831 0.823 0.50925 0.0
O82 O 0.48842 0.81802 0.41326 0.0
O83 O 0.46501 0.7865 0.42975 0.0
O84 O 0.57808 0.26125 0.6279 0.0
Cd85 Cd 0.5828 0.29569 0.65172 0.0
Cd86 Cd 0.60812 0.32208 0.61638 0.0
O87 O 0.59688 0.27966 0.5964 0.0
O88 O 0.55942 0.28759 0.67851 0.0
O89 O 0.55473 0.3138 0.64916 0.0
C90 C 0.54672 0.30229 0.66853 0.0
C91 C 0.59597 0.36262 0.60214 0.0
C92 C 0.58627 0.25879 0.60562 0.0
C93 C 0.63958 0.3179 0.67026 0.0
O94 O 0.64121 0.32658 0.64779 0.0
O95 O 0.6176 0.30749 0.67566 0.0
O96 O 0.61147 0.35158 0.5908 0.0
O97 O 0.58639 0.35075 0.62074 0.0
O98 O 1.01687 0.23592 0.96643 0.0
Cd99 Cd 1.01703 0.26343 0.94058 0.0
Cd100 Cd 1.00447 0.29472 0.98998 0.0
O101 O 1.01391 0.2591 0.00466 0.0
O102 O 0.03154 0.25095 0.90829 0.0
O103 O 0.05201 0.28582 0.93701 0.0
C104 C 0.05152 0.27009 0.9156 0.0
C105 C 0.01928 0.34263 0.00558 0.0
C106 C 1.01693 0.23791 0.99176 0.0
C107 C 0.96614 0.27975 0.93551 0.0
O108 O 0.97065 0.28757 0.96093 0.0
O109 O 0.98257 0.27095 0.92402 0.0
O110 O 1.0035 0.32747 0.01746 0.0
O111 O 0.02871 0.33076 0.98718 0.0
O112 O 0.40694 0.0373 0.29452 0.0
Cd113 Cd 0.38903 0.04182 0.32821 0.0
Cd114 Cd 0.42906 0.03161 0.34234 0.0
O115 O 0.44457 0.05525 0.31765 0.0
O116 O 0.38248 0.07499 0.34031 0.0
O117 O 0.35564 0.04317 0.31112 0.0
C118 C 0.3609 0.06603 0.32436 0.0
C119 C 0.45017 0.02926 0.38212 0.0
C120 C 0.4307 0.0471 0.29506 0.0
C121 C 0.38331 0.99323 0.33665 0.0
O122 O 0.40364 0.99753 0.3263 0.0
O123 O 0.37678 1.01204 0.34792 0.0
O124 O 0.43278 0.04182 0.38129 0.0
O125 O 0.45645 0.01988 0.36008 0.0
O126 O 0.29333 0.21129 0.58195 0.0
Cd127 Cd 0.29209 0.18401 0.54972 0.0
Cd128 Cd 0.26855 0.21937 0.5225 0.0
O129 O 0.27826 0.24032 0.56309 0.0
O130 O 0.30466 0.1597 0.57073 0.0
O131 O 0.32432 0.17594 0.5388 0.0
C132 C 0.32326 0.16138 0.55714 0.0
C133 C 0.27774 0.23658 0.48143 0.0
C134 C 0.28699 0.23236 0.58423 0.0
C135 C 0.23644 0.165 0.52387 0.0
O136 O 0.23662 0.18733 0.51819 0.0
O137 O 0.25684 0.16035 0.53432 0.0
O138 O 0.26117 0.2428 0.49535 0.0
O139 O 0.29008 0.2213 0.49109 0.0
O140 O 0.13516 0.05786 0.75895 0.0
Cd141 Cd 0.16149 0.06026 0.79262 0.0
Cd142 Cd 0.12746 0.08341 0.819 0.0
O143 O 0.10738 0.07453 0.77861 0.0
O144 O 0.18649 0.04267 0.77843 0.0
O145 O 0.16368 0.02876 0.80942 0.0
C146 C 0.18064 0.02616 0.79433 0.0
C147 C 0.1086 0.07545 0.85923 0.0
C148 C 0.11469 0.06533 0.75726 0.0
C149 C 0.18037 0.1165 0.81585 0.0
O150 O 0.15845 0.11572 0.82272 0.0
O151 O 0.18543 0.0963 0.80525 0.0
O152 O 0.10349 0.09208 0.84474 0.0
O153 O 0.12382 0.06245 0.85064 0.0
O154 O 0.31224 0.94916 0.04975 0.0
Cd155 Cd 0.31098 0.96836 0.01673 0.0
Cd156 Cd 0.31305 0.92666 0.99904 0.0
O157 O 0.2926 0.9116 0.02637 0.0
O158 O 0.31035 1.00171 0.0347 0.0
O159 O 0.27827 0.9759 0.00498 0.0
C160 C 0.28717 0.99658 0.02244 0.0
C161 C 0.30494 0.9095 0.95557 0.0
C162 C 0.30019 0.92581 0.0489 0.0
C163 C 0.35785 0.9667 1.00314 0.0
O164 O 0.35089 0.94533 0.01128 0.0
O165 O 0.34118 0.97834 0.99683 0.0
O166 O 0.31513 0.89853 0.97353 0.0
O167 O 0.29728 0.9297 0.96274 0.0
O168 O 0.31653 0.39625 0.10801 0.0
Cd169 Cd 0.31932 0.42043 0.07965 0.0
Cd170 Cd 0.33862 0.38032 0.05336 0.0
O171 O 0.32612 0.36259 0.08668 0.0
O172 O 0.29987 0.44554 0.09147 0.0
O173 O 0.28734 0.41678 0.05436 0.0
C174 C 0.283 0.43499 0.07057 0.0
C175 C 0.32546 0.36308 0.00663 0.0
C176 C 0.31869 0.3734 0.10706 0.0
C177 C 0.37315 0.43492 0.06646 0.0
O178 O 0.37164 0.41104 0.06047 0.0
O179 O 0.354 0.44235 0.07299 0.0
O180 O 0.34199 0.35512 0.02146 0.0
O181 O 0.31512 0.37947 0.01863 0.0
O182 O 0.77237 0.14204 0.1216 0.0
Cd183 Cd 0.77127 0.11835 0.08715 0.0
Cd184 Cd 0.77717 0.16044 0.07015 0.0
O185 O 0.7995 0.17218 0.10676 0.0
O186 O 0.78703 0.08946 0.08934 0.0
O187 O 0.80365 0.12571 0.07357 0.0
C188 C 0.80509 0.10344 0.07896 0.0
C189 C 0.78697 0.17259 0.03056 0.0
C190 C 0.78841 0.16389 0.12574 0.0
C191 C 0.72686 0.12764 0.05958 0.0
O192 O 0.73843 0.15075 0.06914 0.0
O193 O 0.73899 0.11047 0.05998 0.0
O194 O 0.78389 0.18901 0.04967 0.0
O195 O 0.78695 0.14966 0.03493 0.0
O196 O 0.2011 0.5649 0.21952 0.0
Cd197 Cd 0.2321 0.56729 0.24622 0.0
Cd198 Cd 0.2012 0.57685 0.28425 0.0
O199 O 0.1766 0.55771 0.25096 0.0
O200 O 0.24879 0.53979 0.23964 0.0
O201 O 0.22503 0.54442 0.27234 0.0
C202 C 0.23793 0.53138 0.25936 0.0
C203 C 0.176 0.58165 0.31707 0.0
C204 C 0.17924 0.55882 0.22672 0.0
C205 C 0.24626 0.61845 0.27256 0.0
O206 O 0.22611 0.61134 0.28285 0.0
O207 O 0.25475 0.60259 0.25838 0.0
O208 O 0.17519 0.59285 0.29634 0.0
O209 O 0.1919 0.56765 0.31981 0.0
O210 O 0.82403 0.89891 0.61548 0.0
Cd211 Cd 0.82705 0.92019 0.5843 0.0
Cd212 Cd 0.84101 0.87579 0.56071 0.0
O213 O 0.82727 0.8615 0.5957 0.0
O214 O 0.80904 0.94747 0.5932 0.0
O215 O 0.79488 0.9157 0.55884 0.0
C216 C 0.79163 0.93572 0.57312 0.0
C217 C 0.83031 0.85396 0.51482 0.0
C218 C 0.82293 0.8753 0.61616 0.0
C219 C 0.88019 0.92867 0.57085 0.0
O220 O 0.87599 0.90425 0.5669 0.0
O221 O 0.8624 0.93907 0.57593 0.0
O222 O 0.84556 0.84755 0.53267 0.0
O223 O 0.81952 0.87153 0.52329 0.0
O224 O 0.95366 0.02842 0.22896 0.0
Cd225 Cd 0.92733 0.02492 0.25473 0.0
Cd226 Cd 0.96692 0.01443 0.29108 0.0
O227 O 0.98627 0.02492 0.25774 0.0
O228 O 0.90324 0.04625 0.24631 0.0
O229 O 0.93209 0.05462 0.28339 0.0
C230 C 0.91418 0.0609 0.26869 0.0
C231 C 0.98634 0.02912 0.33697 0.0
C232 C 0.97713 0.0288 0.23452 0.0
C233 C 0.91415 0.9743 0.27291 0.0
O234 O 0.93655 0.98085 0.28666 0.0
O235 O 0.90656 0.98916 0.2583 0.0
O236 O 0.99149 1.01019 0.32276 0.0
O237 O 0.97127 0.04072 0.32491 0.0
O238 O 0.29349 0.65885 0.61927 0.0
Cd239 Cd 0.28527 0.62545 0.59408 0.0
Cd240 Cd 0.27461 0.65251 0.55399 0.0
O241 O 0.28103 0.67947 0.58737 0.0
O242 O 0.30999 0.60493 0.59881 0.0
O243 O 0.30336 0.62492 0.56352 0.0
C244 C 0.31507 0.6105 0.57559 0.0
C245 C 0.27656 0.66907 0.51466 0.0
C246 C 0.28883 0.67888 0.61175 0.0
C247 C 0.23478 0.60652 0.56345 0.0
O248 O 0.24315 0.62223 0.5481 0.0
O249 O 0.24835 0.60543 0.58515 0.0
O250 O 0.25949 0.6715 0.52941 0.0
O251 O 0.294 0.65816 0.52273 0.0
O252 O 0.46019 0.53281 0.73874 0.0
Cd253 Cd 0.43175 0.52823 0.76255 0.0
Cd254 Cd 0.47109 0.51142 0.79704 0.0
O255 O 0.49057 0.52179 0.76408 0.0
O256 O 0.40607 0.54421 0.74488 0.0
O257 O 0.42708 0.5592 0.7859 0.0
C258 C 0.41051 0.56101 0.76625 0.0
C259 C 0.49209 0.51999 0.84268 0.0
C260 C 0.48259 0.52946 0.74249 0.0
C261 C 0.41733 0.47453 0.77684 0.0
O262 O 0.43967 0.47909 0.79034 0.0
O263 O 0.41067 0.49131 0.76425 0.0
O264 O 0.49638 0.503 0.82502 0.0
O265 O 0.47694 0.53334 0.83425 0.0
O266 O 0.70688 0.07484 0.71653 0.0
Cd267 Cd 0.732 0.07264 0.7481 0.0
Cd268 Cd 0.69553 0.07859 0.77897 0.0
O269 O 0.67631 0.06648 0.74167 0.0
O270 O 0.74747 0.04373 0.74283 0.0
O271 O 0.71751 0.04622 0.76871 0.0
C272 C 0.73234 0.03365 0.7588 0.0
C273 C 0.6683 0.06978 0.80944 0.0
C274 C 0.68346 0.06937 0.71924 0.0
C275 C 0.7443 0.12044 0.78461 0.0
O276 O 0.72117 0.11344 0.78828 0.0
O277 O 0.75414 0.10575 0.77036 0.0
O278 O 0.66645 0.0863 0.79373 0.0
O279 O 0.68644 0.05837 0.8085 0.0
O280 O 0.79563 0.70796 0.08533 0.0
Cd281 Cd 0.79365 0.68464 0.0499 0.0
Cd282 Cd 0.76706 0.71821 0.03169 0.0
O283 O 0.77784 0.73787 0.07284 0.0
O284 O 0.81245 0.66089 0.06454 0.0
O285 O 0.82499 0.68274 0.03238 0.0
C286 C 0.82841 0.66659 0.04816 0.0
C287 C 0.77854 0.73152 0.98986 0.0
C288 C 0.78815 0.72798 0.09157 0.0
C289 C 0.73725 0.66316 0.03164 0.0
O290 O 0.73586 0.68573 0.02824 0.0
O291 O 0.75887 0.65877 0.0379 0.0
O292 O 0.76177 0.73986 1.00183 0.0
O293 O 0.78993 0.71692 1.00228 0.0
O294 O 0.88837 0.54189 0.79178 0.0
Cd295 Cd 0.87434 0.5438 0.82775 0.0
Cd296 Cd 0.91606 0.53952 0.84297 0.0
O297 O 0.92679 0.56016 0.81368 0.0
O298 O 0.84619 0.55967 0.82456 0.0
O299 O 0.8839 0.57747 0.85094 0.0
C300 C 0.8613 0.57876 0.84116 0.0
C301 C 0.93732 0.54832 0.88521 0.0
C302 C 0.91178 0.55281 0.79155 0.0
C303 C 0.87353 0.49445 0.83593 0.0
O304 O 0.89639 0.50191 0.83152 0.0
O305 O 0.86112 0.51075 0.84131 0.0
O306 O 0.94727 0.53903 0.86574 0.0
O307 O 0.91565 0.55392 0.88043 0.0
O308 O 0.81233 0.45011 0.56199 0.0
Cd309 Cd 0.81151 0.46335 0.52546 0.0
Cd310 Cd 0.81371 0.42134 0.51152 0.0
O311 O 0.79322 0.41139 0.54108 0.0
O312 O 0.79755 0.49267 0.5285 0.0
O313 O 0.77792 0.45519 0.50244 0.0
C314 C 0.77774 0.47819 0.51238 0.0
C315 C 0.80434 0.3998 0.46933 0.0
C316 C 0.80066 0.42698 0.56284 0.0
C317 C 0.86015 0.4614 0.51656 0.0
O318 O 0.85189 0.43909 0.5222 0.0
O319 O 0.84451 0.47445 0.51102 0.0
O320 O 0.81359 0.39007 0.48899 0.0
O321 O 0.79844 0.42138 0.47414 0.0
O322 O 0.64414 0.55725 0.26677 0.0
Cd323 Cd 0.67228 0.56115 0.29855 0.0
Cd324 Cd 0.63527 0.58015 0.32668 0.0
O325 O 0.61414 0.57009 0.28616 0.0
O326 O 0.69733 0.54855 0.27867 0.0
O327 O 0.68134 0.53009 0.31144 0.0
C328 C 0.69596 0.5306 0.29316 0.0
C329 C 0.62231 0.56838 0.36848 0.0
C330 C 0.6224 0.5621 0.26484 0.0
C331 C 0.68696 0.61671 0.32422 0.0
O332 O 0.66509 0.61369 0.33185 0.0
O333 O 0.69332 0.5981 0.31177 0.0
O334 O 0.61325 0.58458 0.35628 0.0
O335 O 0.63732 0.55747 0.35618 0.0
C336 C 1.00019 0.98373 1.00084 0.0
C337 C 0.97609 0.95559 0.02808 0.0
C338 C 0.99056 0.98002 0.0247 0.0
C339 C 0.97232 0.93462 0.00762 0.0
C340 C 0.99534 0.96284 0.97979 0.0
C341 C 0.98196 0.93822 0.98356 0.0
N342 N 1.01228 1.00802 0.9974 0.0
C343 C 1.01732 1.01281 0.97246 0.0
C344 C 1.0029 0.96749 0.95505 0.0
C345 C 1.01348 0.99265 0.95124 0.0
Gd346 Gd 0.0859 0.07146 0.07036 0.0
Gd347 Gd 1.01664 0.04016 0.03474 0.0
N348 N 0.99447 1.00062 0.04424 0.0
C349 C 0.96506 0.95318 0.05155 0.0
C350 C 0.98231 0.9988 0.06618 0.0
C351 C 0.96785 0.97498 0.0705 0.0
H352 H 0.98353 0.01582 0.08018 0.0
H353 H 0.95865 0.97353 0.08823 0.0
H354 H 0.11053 0.09559 0.0185 0.0
H355 H 0.02306 0.0321 0.9682 0.0
H356 H 0.13624 0.13698 0.00972 0.0
H357 H 0.95369 0.93476 0.05483 0.0
H358 H 0.96136 0.91566 0.00989 0.0
H359 H 0.07542 0.08201 0.13554 0.0
H360 H 0.99943 0.95197 0.93837 0.0
H361 H 1.01794 0.99665 0.9317 0.0
H362 H 0.14688 0.19405 0.09247 0.0
H363 H 0.97819 0.92197 0.96762 0.0
H364 H 0.1087 0.16124 0.16545 0.0
H365 H 0.08478 0.11813 0.17203 0.0
N366 N 0.08995 0.1046 0.10642 0.0
C367 C 0.10427 0.12802 0.10274 0.0
C368 C 0.08363 0.10088 0.13123 0.0
C369 C 0.1035 0.14557 0.14873 0.0
C370 C 0.08982 0.12132 0.15248 0.0
C371 C 0.11129 0.1491 0.12384 0.0
H372 H 0.13209 0.18914 0.13589 0.0
N373 N 0.10623 0.11034 0.05789 0.0
C374 C 0.11307 0.1308 0.07814 0.0
C375 C 0.1367 0.15685 0.04926 0.0
C376 C 0.1285 0.15466 0.07424 0.0
C377 C 0.11467 0.1122 0.03377 0.0
C378 C 0.1297 0.13555 0.02895 0.0
O379 O 0.03571 1.01002 0.05245 0.0
O380 O 0.07875 0.02718 0.06896 0.0
O381 O 0.12364 0.0693 0.06281 0.0
O382 O 0.11628 0.0772 0.10361 0.0
O383 O 0.02183 0.05681 0.07921 0.0
O384 O 0.06 0.05074 0.09684 0.0
O385 O 0.06466 0.1016 0.05588 0.0
O386 O 0.02577 0.08281 0.02872 0.0
O387 O 0.98309 0.04996 0.04697 0.0
O388 O 0.98227 0.03291 0.00575 0.0
O389 O 0.08209 0.05229 0.02722 0.0
O390 O 0.04458 0.05874 0.00811 0.0
C391 C 0.05837 1.00703 0.06262 0.0
C392 C 0.03638 0.05111 0.09891 0.0
C393 C 0.14473 0.05207 0.09626 0.0
C394 C 0.17251 0.02504 0.08616 0.0
C395 C 0.15565 0.02501 0.12816 0.0
C396 C 0.14262 0.04297 0.12098 0.0
C397 C 0.17086 0.01621 0.11089 0.0
C398 C 0.15951 0.04282 0.07891 0.0
C399 C 0.13222 0.0715 0.08836 0.0
C400 C 0.13507 0.17561 0.09516 0.0
C401 C 0.12653 0.17284 0.11985 0.0
H402 H 0.14847 0.17488 0.04548 0.0
C403 C 0.04395 0.10368 0.04016 0.0
C404 C 0.06769 0.05605 0.0062 0.0
C405 C 0.95773 0.06238 0.01334 0.0
C406 C 0.92752 0.08744 0.02048 0.0
C407 C 0.95103 0.09225 0.983 0.0
C408 C 0.96349 0.07399 0.9907 0.0
C409 C 0.93309 0.09909 0.99795 0.0
C410 C 0.9397 0.06909 0.02802 0.0
C411 C 0.97034 0.04358 0.02265 0.0
H412 H 0.15431 0.01827 0.1473 0.0
H413 H 0.13122 0.04986 0.13483 0.0
H414 H 0.18161 1.00291 0.11691 0.0
H415 H 0.16176 0.05019 0.06011 0.0
H416 H 0.95531 0.10113 0.96552 0.0
H417 H 0.97759 0.06911 0.97912 0.0
H418 H 0.92335 0.11313 0.99181 0.0
H419 H 0.9352 0.06013 0.0455 0.0
C420 C 0.33333 0.76429 0.21726 0.0
C421 C 0.29841 0.74555 0.18041 0.0
C422 C 0.30974 0.7642 0.20325 0.0
C423 C 0.31125 0.72729 0.17169 0.0
C424 C 0.34636 0.74612 0.20842 0.0
C425 C 0.33519 0.72763 0.1856 0.0
N426 N 0.34313 0.7816 0.24004 0.0
C427 C 0.36648 0.7827 0.25403 0.0
C428 C 0.3701 0.74683 0.22301 0.0
C429 C 0.3803 0.76537 0.24577 0.0
Gd430 Gd 0.27335 0.80542 0.31992 0.0
Gd431 Gd 0.31773 0.80847 0.25375 0.0
N432 N 0.29717 0.78131 0.21306 0.0
C433 C 0.27426 0.74547 0.16733 0.0
C434 C 0.27402 0.78186 0.19971 0.0
C435 C 0.26215 0.76385 0.17689 0.0
H436 H 0.26443 0.79599 0.20636 0.0
H437 H 0.24359 0.76412 0.16672 0.0
H438 H 0.33103 0.83059 0.36112 0.0
H439 H 0.37464 0.79714 0.27142 0.0
H440 H 0.35039 0.86654 0.39714 0.0
H441 H 0.26485 0.73136 0.14982 0.0
H442 H 0.30275 0.71273 0.1543 0.0
H443 H 0.21446 0.81011 0.30097 0.0
H444 H 0.38072 0.73322 0.21685 0.0
H445 H 0.39876 0.76627 0.25703 0.0
H446 H 0.28382 0.90887 0.40826 0.0
H447 H 0.34481 0.71337 0.17866 0.0
H448 H 0.20327 0.87517 0.35011 0.0
H449 H 0.18683 0.83835 0.3132 0.0
N450 N 0.24599 0.83082 0.33061 0.0
C451 C 0.25531 0.85064 0.35122 0.0
C452 C 0.22175 0.82617 0.31706 0.0
C453 C 0.2154 0.86277 0.34491 0.0
C454 C 0.20607 0.84205 0.32401 0.0
C455 C 0.24032 0.86734 0.35876 0.0
H456 H 0.23952 0.9013 0.38555 0.0
N457 N 0.2945 0.83881 0.35564 0.0
C458 C 0.28026 0.85476 0.36416 0.0
C459 C 0.31635 0.88007 0.39678 0.0
C460 C 0.29088 0.87592 0.38479 0.0
C461 C 0.31939 0.84284 0.36742 0.0
C462 C 0.33063 0.86344 0.38806 0.0
O463 O 0.29668 0.76739 0.25229 0.0
O464 O 0.28556 0.7881 0.28496 0.0
O465 O 0.27427 0.78067 0.34937 0.0
O466 O 0.23796 0.77804 0.32461 0.0
O467 O 0.27978 0.82055 0.24975 0.0
O468 O 0.25101 0.80104 0.27737 0.0
O469 O 0.28803 0.84493 0.31105 0.0
O470 O 0.31759 0.82946 0.29407 0.0
O471 O 0.31994 0.84081 0.23221 0.0
O472 O 0.35461 0.83109 0.24767 0.0
O473 O 0.31188 0.795 0.32795 0.0
O474 O 0.33872 0.80373 0.29466 0.0
C475 C 0.28387 0.76573 0.27187 0.0
C476 C 0.25651 0.81374 0.25689 0.0
C477 C 0.23811 0.7677 0.36915 0.0
C478 C 0.24065 0.75363 0.41257 0.0
C479 C 0.20698 0.7734 0.3982 0.0
C480 C 0.2166 0.77647 0.37405 0.0
C481 C 0.21889 0.76185 0.41743 0.0
C482 C 0.24996 0.75635 0.38848 0.0
C483 C 0.24964 0.77033 0.34477 0.0
C484 C 0.27595 0.89251 0.39248 0.0
C485 C 0.25073 0.88821 0.37953 0.0
H486 H 0.32522 0.89614 0.41264 0.0
C487 C 0.30752 0.8486 0.29816 0.0
C488 C 0.33401 0.79664 0.31841 0.0
C489 C 0.35503 0.84954 0.2081 0.0
C490 C 0.34975 0.85838 0.16242 0.0
C491 C 0.39103 0.85525 0.18331 0.0
C492 C 0.38091 0.85055 0.20677 0.0
C493 C 0.3755 0.85907 0.16111 0.0
C494 C 0.33957 0.85374 0.18587 0.0
C495 C 0.34472 0.84538 0.23308 0.0
H496 H 0.19028 0.77992 0.402 0.0
H497 H 0.20734 0.78559 0.3594 0.0
H498 H 0.2112 0.7593 0.43595 0.0
H499 H 0.26652 0.74938 0.38471 0.0
H500 H 0.41101 0.85618 0.18244 0.0
H501 H 0.39335 0.8479 0.22391 0.0
H502 H 0.38366 0.86317 0.14314 0.0
H503 H 0.31971 0.85362 0.1867 0.0
C504 C 0.62016 0.10496 0.51537 0.0
C505 C 0.64746 0.13526 0.55302 0.0
C506 C 0.62993 0.11123 0.54282 0.0
C507 C 0.65478 0.15298 0.5356 0.0
C508 C 0.62843 0.12247 0.49778 0.0
C509 C 0.64536 0.14659 0.5081 0.0
N510 N 0.60371 0.08145 0.50565 0.0
C511 C 0.59724 0.07341 0.47849 0.0
C512 C 0.62011 0.11498 0.47014 0.0
C513 C 0.60483 0.09019 0.46045 0.0
Gd514 Gd 0.52108 0.04133 0.57186 0.0
Gd515 Gd 0.59314 0.05548 0.53865 0.0
N516 N 0.6225 0.09388 0.55953 0.0
C517 C 0.65732 0.14076 0.58047 0.0
C518 C 0.63305 0.09865 0.58597 0.0
C519 C 0.65027 0.12226 0.59696 0.0
H520 H 0.62841 0.08431 0.59855 0.0
H521 H 0.65827 0.12608 0.61807 0.0
H522 H 0.48028 1.01034 0.5168 0.0
H523 H 0.58646 0.05388 0.47049 0.0
H524 H 0.45005 0.96751 0.50157 0.0
H525 H 0.67075 0.15903 0.58903 0.0
H526 H 0.66809 0.17157 0.54315 0.0
H527 H 0.53559 0.04696 0.64044 0.0
H528 H 0.62612 0.12788 0.45604 0.0
H529 H 0.5992 0.08386 0.43903 0.0
H530 H 0.45332 0.92526 0.5791 0.0
H531 H 0.6517 0.16029 0.49485 0.0
H532 H 0.50306 0.97349 0.6613 0.0
H533 H 0.52879 0.01852 0.67442 0.0
N534 N 0.51686 0.0174 0.60734 0.0
C535 C 0.5011 0.99313 0.59984 0.0
C536 C 0.52566 0.02694 0.63393 0.0
C537 C 0.50672 0.98563 0.64599 0.0
C538 C 0.52133 1.01102 0.65348 0.0
C539 C 0.49583 0.97659 0.61908 0.0
H540 H 0.47494 0.93903 0.62575 0.0
N541 N 0.49278 1.00161 0.55494 0.0
C542 C 0.48854 0.9852 0.57322 0.0
C543 C 0.45757 0.9542 0.53933 0.0
C544 C 0.47097 0.96081 0.56563 0.0
C545 C 0.47833 0.99615 0.53004 0.0
C546 C 0.461 0.9721 0.52159 0.0
O547 O 0.58237 0.09285 0.5576 0.0
O548 O 0.54414 0.08441 0.57713 0.0
O549 O 0.49186 0.05777 0.55313 0.0
O550 O 0.4912 0.04822 0.59338 0.0
O551 O 0.57533 0.03764 0.57161 0.0
O552 O 0.55576 0.05412 0.60275 0.0
O553 O 0.52921 1.00486 0.54877 0.0
O554 O 0.56929 1.0124 0.53317 0.0
O555 O 0.6288 0.0453 0.55411 0.0
O556 O 0.61191 0.0371 0.51133 0.0
O557 O 0.54397 0.05219 0.54102 0.0
O558 O 0.561 0.04965 0.50525 0.0
C559 C 0.56472 0.10068 0.57055 0.0
C560 C 0.57667 0.04963 0.59562 0.0
C561 C 0.47585 0.08335 0.58483 0.0
C562 C 0.44704 0.11103 0.58374 0.0
C563 C 0.48268 0.1199 0.62012 0.0
C564 C 0.48976 0.09842 0.60899 0.0
C565 C 0.46124 0.12607 0.60771 0.0
C566 C 0.45463 0.08991 0.57206 0.0
C567 C 0.48128 0.05908 0.57486 0.0
C568 C 0.46669 0.9441 0.58462 0.0
C569 C 0.47905 0.95195 0.61121 0.0
H570 H 0.44391 0.93564 0.5328 0.0
C571 C 0.54734 0.9967 0.53735 0.0
C572 C 0.54034 0.04921 0.51519 0.0
C573 C 0.65001 0.02355 0.52102 0.0
C574 C 0.68461 1.00315 0.52993 0.0
C575 C 0.66644 1.00337 0.48395 0.0
C576 C 0.64969 0.01676 0.49325 0.0
C577 C 0.68375 0.99653 0.50212 0.0
C578 C 0.66787 0.01701 0.53951 0.0
C579 C 0.63009 0.03546 0.52959 0.0
H580 H 0.49347 0.13141 0.6387 0.0
H581 H 0.50587 0.09333 0.61955 0.0
H582 H 0.45551 0.14243 0.61695 0.0
H583 H 0.44331 0.0779 0.55391 0.0
H584 H 0.66582 0.99805 0.46257 0.0
H585 H 0.63617 0.02144 0.47848 0.0
H586 H 0.69656 0.98593 0.49444 0.0
H587 H 0.66814 0.02173 0.56094 0.0
C588 C 0.24954 0.31755 0.73664 0.0
C589 C 0.21996 0.27819 0.71216 0.0
C590 C 0.23722 0.29162 0.73525 0.0
C591 C 0.21581 0.29094 0.6902 0.0
C592 C 0.24533 0.33042 0.71471 0.0
C593 C 0.2285 0.31694 0.69145 0.0
N594 N 0.26626 0.32992 0.75917 0.0
C595 C 0.27847 0.35538 0.76157 0.0
C596 C 0.25834 0.35639 0.71674 0.0
C597 C 0.27486 0.36894 0.74032 0.0
Gd598 Gd 0.33426 0.27997 0.79775 0.0
Gd599 Gd 0.2715 0.30493 0.79292 0.0
N600 N 0.24241 0.27949 0.7564 0.0
C601 C 0.20721 0.25241 0.71198 0.0
C602 C 0.22867 0.25513 0.75717 0.0
C603 C 0.21124 0.24098 0.73481 0.0
H604 H 0.23048 0.24705 0.77538 0.0
H605 H 0.20063 0.22144 0.73536 0.0
H606 H 0.37705 0.33749 0.81437 0.0
H607 H 0.29076 0.36539 0.77994 0.0
H608 H 0.40844 0.3622 0.85344 0.0
H609 H 0.1937 0.24143 0.69467 0.0
H610 H 0.20275 0.28089 0.67219 0.0
H611 H 0.31828 0.21855 0.80825 0.0
H612 H 0.25567 0.36695 0.70029 0.0
H613 H 0.28475 0.38909 0.74219 0.0
H614 H 0.41096 0.3008 0.91368 0.0
H615 H 0.22511 0.32649 0.67433 0.0
H616 H 0.35899 0.21454 0.88444 0.0
H617 H 0.32789 0.19336 0.84359 0.0
N618 N 0.34296 0.25385 0.8293 0.0
C619 C 0.36074 0.26569 0.85114 0.0
C620 C 0.33151 0.22813 0.82621 0.0
C621 C 0.35476 0.22574 0.86904 0.0
C622 C 0.33713 0.21373 0.84606 0.0
C623 C 0.36692 0.252 0.87176 0.0
H624 H 0.38977 0.25476 0.91055 0.0
N625 N 0.36602 0.30438 0.83283 0.0
C626 C 0.37256 0.29172 0.85301 0.0
C627 C 0.40344 0.33054 0.87591 0.0
C628 C 0.39107 0.30461 0.87539 0.0
C629 C 0.37966 0.32883 0.83208 0.0
C630 C 0.39808 0.34255 0.85388 0.0
O631 O 0.28785 0.29597 0.75343 0.0
O632 O 0.30305 0.26235 0.7628 0.0
O633 O 0.36399 0.29057 0.77201 0.0
O634 O 0.35456 0.25267 0.78499 0.0
O635 O 0.26976 0.26828 0.81081 0.0
O636 O 0.29686 0.24916 0.78939 0.0
O637 O 0.32098 0.28954 0.8379 0.0
O638 O 0.29811 0.31981 0.83292 0.0
O639 O 0.23699 0.29353 0.81191 0.0
O640 O 0.25066 0.33282 0.80358 0.0
O641 O 0.3354 0.31844 0.78315 0.0
O642 O 0.30815 0.33593 0.80621 0.0
C643 C 0.29565 0.27562 0.74506 0.0
C644 C 0.27837 0.24821 0.80396 0.0
C645 C 0.38608 0.25856 0.75569 0.0
C646 C 0.42417 0.266 0.73417 0.0
C647 C 0.39769 0.22258 0.73184 0.0
C648 C 0.38125 0.23204 0.74687 0.0
C649 C 0.41903 0.23946 0.72543 0.0
C650 C 0.40769 0.27562 0.74938 0.0
C651 C 0.36834 0.26792 0.77138 0.0
C652 C 0.39693 0.29116 0.89622 0.0
C653 C 0.38491 0.26492 0.8944 0.0
H654 H 0.41778 0.34116 0.89274 0.0
C655 C 0.31094 0.30763 0.84816 0.0
C656 C 0.32857 0.33841 0.7944 0.0
C657 C 0.21217 0.32428 0.82442 0.0
C658 C 0.17535 0.31673 0.84865 0.0
C659 C 0.18868 0.35671 0.83105 0.0
C660 C 0.2085 0.34849 0.82097 0.0
C661 C 0.17219 0.34096 0.84472 0.0
C662 C 0.19547 0.30827 0.83849 0.0
C663 C 0.23358 0.31656 0.81323 0.0
H664 H 0.39392 0.20213 0.7252 0.0
H665 H 0.36467 0.21857 0.7515 0.0
H666 H 0.43178 0.23179 0.71391 0.0
H667 H 0.41172 0.2961 0.75626 0.0
H668 H 0.1861 0.37542 0.82826 0.0
H669 H 0.22096 0.3612 0.81037 0.0
H670 H 0.15695 0.34781 0.85249 0.0
H671 H 0.19807 0.2896 0.84154 0.0
C672 C 0.03392 0.11528 0.60651 0.0
C673 C 0.07515 0.14042 0.6316 0.0
C674 C 0.06065 0.12359 0.6086 0.0
C675 C 0.06263 0.14917 0.65204 0.0
C676 C 0.02143 0.12393 0.62718 0.0
C677 C 0.03589 0.141 0.64982 0.0
N678 N 0.02023 0.09826 0.58471 0.0
C679 C 0.9942 0.08976 0.58189 0.0
C680 C 0.9947 0.11504 0.62459 0.0
C681 C 0.98104 0.09793 0.60182 0.0
Gd682 Gd 0.06699 0.02231 0.54714 0.0
Gd683 Gd 0.04417 0.08803 0.55198 0.0
N684 N 0.07249 0.11428 0.58884 0.0
C685 C 0.10189 0.14762 0.63368 0.0
C686 C 0.09851 0.12156 0.59066 0.0
C687 C 0.1136 0.13813 0.61313 0.0
H688 H 0.10782 0.11478 0.575 0.0
H689 H 0.13427 0.14365 0.61453 0.0
H690 H 1.00981 0.98003 0.5304 0.0
H691 H 0.98351 0.07732 0.56393 0.0
H692 H 0.98708 0.94398 0.49453 0.0
H693 H 0.11367 0.16041 0.65109 0.0
H694 H 0.07349 0.16212 0.66981 0.0
H695 H 0.129 0.03266 0.54082 0.0
H696 H 0.98442 0.12132 0.64 0.0
H697 H 0.96036 0.09122 0.59948 0.0
H698 H 0.04945 0.93883 0.43583 0.0
H699 H 0.02658 0.14785 0.66586 0.0
H700 H 0.13476 0.99284 0.46466 0.0
H701 H 0.15535 0.02299 0.50643 0.0
N702 N 0.09379 1.01173 0.51698 0.0
C703 C 0.08242 0.99368 0.49522 0.0
C704 C 0.11978 0.02115 0.52179 0.0
C705 C 0.12309 0.99789 0.47924 0.0
C706 C 0.13477 0.015 0.50272 0.0
C707 C 0.0967 0.98635 0.47565 0.0
H708 H 0.09502 0.96133 0.43842 0.0
N709 N 0.04391 0.98842 0.51323 0.0
C710 C 0.05681 0.98111 0.49366 0.0
C711 C 0.01924 0.94739 0.47289 0.0
C712 C 0.04472 0.96072 0.47265 0.0
C713 C 0.01943 0.97495 0.51411 0.0
C714 C 1.00664 0.95438 0.49391 0.0
O715 O 0.0517 0.0713 0.59099 0.0
O716 O 0.08446 0.05569 0.58008 0.0
O717 O 0.05473 0.99458 0.57382 0.0
O718 O 0.09365 1.00331 0.56522 0.0
O719 O 0.07571 0.08395 0.5282 0.0
O720 O 0.09846 0.05913 0.54847 0.0
O721 O 0.04572 0.02742 0.50742 0.0
O722 O 0.03276 0.06549 0.50974 0.0
O723 O 0.05806 0.12629 0.54011 0.0
O724 O 1.01694 0.10758 0.53707 0.0
O725 O 0.02974 0.02346 0.56309 0.0
O726 O 1.01136 0.05213 0.54308 0.0
C727 C 0.07118 0.06203 0.59839 0.0
C728 C 0.09737 0.07841 0.53524 0.0
C729 C 0.0761 0.96149 0.57311 0.0
C730 C 0.07398 0.92258 0.59267 0.0
C731 C 0.08256 0.92374 0.54695 0.0
C732 C 0.08112 0.94917 0.54912 0.0
C733 C 0.07904 0.91046 0.56866 0.0
C734 C 0.07245 0.94809 0.59488 0.0
C735 C 0.07665 0.98877 0.5765 0.0
C736 C 0.0585 0.95416 0.45239 0.0
C737 C 0.08443 0.96703 0.45382 0.0
H738 H 1.00926 0.93157 0.45716 0.0
C739 C 0.0349 0.04385 0.49644 0.0
C740 C 1.00947 0.03045 0.55288 0.0
C741 C 0.02691 0.1498 0.52458 0.0
C742 C 0.03249 0.18631 0.49989 0.0
C743 C 0.99492 0.17406 0.52179 0.0
C744 C 1.00369 0.1541 0.53079 0.0
C745 C 1.00909 0.18995 0.50636 0.0
C746 C 0.04166 0.16626 0.50935 0.0
C747 C 0.0345 0.12752 0.53361 0.0
H748 H 0.08677 0.91443 0.52856 0.0
H749 H 0.08451 0.95933 0.53231 0.0
H750 H 0.08062 0.89083 0.5669 0.0
H751 H 0.06898 0.95761 0.61361 0.0
H752 H 0.97696 0.17713 0.52667 0.0
H753 H 0.99218 0.14192 0.54264 0.0
H754 H 1.00176 0.2053 0.4995 0.0
H755 H 0.05955 0.16307 0.50427 0.0
C756 C 0.24906 0.7357 0.826 0.0
C757 C 0.21753 0.70606 0.7909 0.0
C758 C 0.2413 0.72447 0.79905 0.0
C759 C 0.20151 0.69918 0.81001 0.0
C760 C 0.2331 0.72842 0.84522 0.0
C761 C 0.20925 0.71033 0.83705 0.0
N762 N 0.27218 0.7534 0.83348 0.0
C763 C 0.28118 0.76312 0.85991 0.0
C764 C 0.24167 0.73936 0.8722 0.0
C765 C 0.26591 0.75655 0.87959 0.0
Gd766 Gd 0.30277 0.83205 0.76618 0.0
Gd767 Gd 0.29506 0.76276 0.79818 0.0
N768 N 0.25668 0.73213 0.78065 0.0
C769 C 0.21047 0.69523 0.76371 0.0
C770 C 0.25033 0.72115 0.75431 0.0
C771 C 0.22703 0.70268 0.74538 0.0
H772 H 0.2632 0.72657 0.74024 0.0
H773 H 0.22188 0.69419 0.7244 0.0
H774 H 0.32979 0.87557 0.82067 0.0
H775 H 0.30024 0.77568 0.86612 0.0
H776 H 0.37052 0.90883 0.83656 0.0
H777 H 0.19234 0.68103 0.75669 0.0
H778 H 0.18308 0.6852 0.8041 0.0
H779 H 0.30251 0.81241 0.69902 0.0
H780 H 0.22994 0.73429 0.88754 0.0
H781 H 0.27295 0.76457 0.90049 0.0
H782 H 0.41592 0.90797 0.76115 0.0
H783 H 0.1967 0.70466 0.85156 0.0
H784 H 0.37473 0.851 0.68018 0.0
H785 H 0.33221 0.82008 0.66665 0.0
N786 N 0.32881 0.8365 0.73228 0.0
C787 C 0.35151 0.85494 0.73972 0.0
C788 C 0.32145 0.82482 0.70608 0.0
C789 C 0.362 0.8472 0.69494 0.0
C790 C 0.33808 0.82961 0.68726 0.0
C791 C 0.36882 0.86044 0.72126 0.0
H792 H 0.40562 0.88372 0.71539 0.0
N793 N 0.34023 0.86406 0.78317 0.0
C794 C 0.35725 0.86919 0.76562 0.0
C795 C 0.38545 0.90247 0.79954 0.0
C796 C 0.3805 0.88844 0.77356 0.0
C797 C 0.34433 0.87847 0.80795 0.0
C798 C 0.36717 0.89762 0.81671 0.0
O799 O 0.25535 0.77136 0.78428 0.0
O800 O 0.26105 0.81062 0.76807 0.0
O801 O 0.29045 0.86711 0.77838 0.0
O802 O 0.28636 0.84989 0.73601 0.0
O803 O 0.30934 0.77969 0.76398 0.0
O804 O 0.28724 0.79671 0.73603 0.0
O805 O 0.34206 0.82474 0.7847 0.0
O806 O 0.33635 0.7887 0.80703 0.0
O807 O 0.30637 0.73017 0.77831 0.0
O808 O 0.3158 0.74186 0.82163 0.0
O809 O 0.28954 0.82083 0.80398 0.0
O810 O 0.30873 0.79743 0.82902 0.0
C811 C 0.24595 0.78954 0.77435 0.0
C812 C 0.29488 0.77686 0.74124 0.0
C813 C 0.2701 0.88695 0.74339 0.0
C814 C 0.25136 0.92299 0.75098 0.0
C815 C 0.24872 0.90142 0.70565 0.0
C816 C 0.26201 0.88479 0.71558 0.0
C817 C 0.24336 0.92041 0.72323 0.0
C818 C 0.26475 0.90624 0.76118 0.0
C819 C 0.28235 0.86774 0.75321 0.0
C820 C 0.39795 0.89327 0.75537 0.0
C821 C 0.39211 0.87939 0.72931 0.0
H822 H 0.4031 0.91741 0.80636 0.0
C823 C 0.35132 0.80915 0.79948 0.0
C824 C 0.30489 0.81952 0.8251 0.0
C825 C 0.31544 0.69953 0.80538 0.0
C826 C 0.33533 0.66408 0.80626 0.0
C827 C 0.29777 0.66379 0.82784 0.0
C828 C 0.29698 0.6874 0.82004 0.0
C829 C 0.31692 0.65222 0.82111 0.0
C830 C 0.33447 0.68771 0.79825 0.0
C831 C 0.31758 0.72602 0.80094 0.0
H832 H 0.24249 0.89951 0.68426 0.0
H833 H 0.26565 0.87001 0.70139 0.0
H834 H 0.23302 0.93325 0.71519 0.0
H835 H 0.27066 0.9081 0.78266 0.0
H836 H 0.28378 0.65464 0.83951 0.0
H837 H 0.28251 0.69655 0.82613 0.0
H838 H 0.31748 0.63404 0.82758 0.0
H839 H 0.34905 0.69724 0.78733 0.0
C840 C 0.59275 1.00615 0.11969 0.0
C841 C 0.61664 0.04326 0.1524 0.0
C842 C 0.59636 0.03167 0.13113 0.0
C843 C 0.63242 0.02863 0.16273 0.0
C844 C 0.60906 0.99167 0.12956 0.0
C845 C 0.62863 1.00292 0.15138 0.0
N846 N 0.5745 0.99608 0.09773 0.0
C847 C 0.57142 0.97171 0.08485 0.0
C848 C 0.60575 0.96652 0.11668 0.0
C849 C 0.58688 0.95653 0.09422 0.0
Gd850 Gd 0.55049 0.06391 0.01735 0.0
Gd851 Gd 0.54891 0.02252 0.08396 0.0
N852 N 0.58176 0.04581 0.11952 0.0
C853 C 0.62118 0.06948 0.16193 0.0
C854 C 0.58657 0.07156 0.12854 0.0
C855 C 0.60616 0.08369 0.14985 0.0
H856 H 0.57605 0.08325 0.11914 0.0
H857 H 0.60989 0.10412 0.15669 0.0
H858 H 0.52457 1.00465 0.97855 0.0
H859 H 0.55669 0.96374 0.06762 0.0
H860 H 0.48899 0.98425 0.94275 0.0
H861 H 0.63664 0.07908 0.17814 0.0
H862 H 0.64806 0.03722 0.17906 0.0
H863 H 0.5505 0.12564 0.02714 0.0
H864 H 0.6179 0.95479 0.12369 0.0
H865 H 0.58425 0.93715 0.08407 0.0
H866 H 0.44994 0.05164 0.92446 0.0
H867 H 0.64135 0.99207 0.1592 0.0
H868 H 0.48722 0.13567 0.97497 0.0
H869 H 0.52464 0.15364 0.01075 0.0
N870 N 0.52819 0.09208 1.00086 0.0
C871 C 0.50819 0.08197 0.98079 0.0
C872 C 0.53436 0.11753 0.01136 0.0
C873 C 0.49867 0.1233 0.98195 0.0
C874 C 0.51974 0.13351 1.00214 0.0
C875 C 0.49268 0.09727 0.97094 0.0
H876 H 0.45943 0.09751 0.94297 0.0
N877 N 0.51825 0.04205 0.98055 0.0
C878 C 0.50305 0.05622 0.97027 0.0
C879 C 0.47695 0.01882 0.93976 0.0
C880 C 0.48195 0.04496 0.94975 0.0
C881 C 0.51327 0.01645 0.97073 0.0
C882 C 0.49275 1.00455 0.95025 0.0
O883 O 0.58968 0.03795 0.07977 0.0
O884 O 0.56581 0.0533 0.05378 0.0
O885 O 0.57973 0.06499 0.99206 0.0
O886 O 0.57997 0.09921 0.0193 0.0
O887 O 0.53729 0.06133 0.09025 0.0
O888 O 0.54878 0.0877 0.05724 0.0
O889 O 0.51181 0.0512 0.02841 0.0
O890 O 0.52307 0.01834 0.04477 0.0
O891 O 0.52314 0.02424 0.11317 0.0
O892 O 0.52719 0.98701 0.0947 0.0
O893 O 0.5613 0.02533 0.00989 0.0
O894 O 0.54916 0.99855 0.04242 0.0
C895 C 0.58893 0.05277 0.06233 0.0
C896 C 0.54024 0.08356 0.0804 0.0
C897 C 0.5964 0.10471 0.97877 0.0
C898 C 0.61478 0.10794 0.93799 0.0
C899 C 0.59527 0.14089 0.95533 0.0
C900 C 0.58965 0.12791 0.97692 0.0
C901 C 0.60758 0.1308 0.93566 0.0
C902 C 0.60942 0.0952 0.95961 0.0
C903 C 0.5901 0.08952 0.99996 0.0
C904 C 0.46629 0.06002 0.94007 0.0
C905 C 0.47167 0.08612 0.95062 0.0
H906 H 0.46092 1.00947 0.92407 0.0
C907 C 0.50598 0.03123 0.04064 0.0
C908 C 0.5578 1.00291 0.0192 0.0
C909 C 0.4985 0.98612 0.12763 0.0
C910 C 0.47323 0.98813 0.16362 0.0
C911 C 0.47256 0.94681 0.13874 0.0
C912 C 0.48958 0.95921 0.12304 0.0
C913 C 0.46446 0.96117 0.15906 0.0
C914 C 0.49017 1.00048 0.14781 0.0
C915 C 0.51677 0.99932 0.11181 0.0
H916 H 0.58991 0.15864 0.95373 0.0
H917 H 0.58004 0.13595 0.99191 0.0
H918 H 0.61157 0.14079 0.91878 0.0
H919 H 0.61469 0.0773 0.96103 0.0
H920 H 0.46574 0.92606 0.13523 0.0
H921 H 0.49578 0.94777 0.10743 0.0
H922 H 0.45131 0.95126 0.17115 0.0
H923 H 0.49737 0.02126 0.15174 0.0
C924 C 0.37441 0.34275 0.33506 0.0
C925 C 0.40094 0.36225 0.30383 0.0
C926 C 0.37701 0.34851 0.30934 0.0
C927 C 0.42229 0.36948 0.32421 0.0
C928 C 0.39578 0.35056 0.3557 0.0
C929 C 0.41972 0.36366 0.35005 0.0
N930 N 0.35079 0.33082 0.34026 0.0
C931 C 0.34722 0.32686 0.36579 0.0
C932 C 0.39231 0.34573 0.38166 0.0
C933 C 0.36791 0.33396 0.38674 0.0
Gd934 Gd 0.28094 0.25763 0.26674 0.0
Gd935 Gd 0.31714 0.32306 0.3042 0.0
N936 N 0.35591 0.34178 0.29006 0.0
C937 C 0.40248 0.36927 0.2783 0.0
C938 C 0.35697 0.35053 0.26603 0.0
C939 C 0.38029 0.36369 0.25944 0.0
H940 H 0.33979 0.34888 0.25251 0.0
H941 H 0.38095 0.37031 0.24017 0.0
H942 H 0.25322 0.23886 0.31936 0.0
H943 H 0.32836 0.31938 0.37052 0.0
H944 H 0.21003 0.21931 0.32855 0.0
H945 H 0.42047 0.37997 0.27336 0.0
H946 H 0.44078 0.38012 0.32035 0.0
H947 H 0.27355 0.26722 0.20125 0.0
H948 H 0.40822 0.35159 0.39806 0.0
H949 H 0.3649 0.33088 0.40693 0.0
H950 H 0.15575 0.21025 0.24443 0.0
H951 H 0.43629 0.36987 0.3657 0.0
H952 H 0.19397 0.24007 0.17009 0.0
H953 H 0.23848 0.25961 0.16389 0.0
N954 N 0.24923 0.25526 0.22996 0.0
C955 C 0.22484 0.24391 0.23365 0.0
C956 C 0.25421 0.26058 0.20513 0.0
C957 C 0.20926 0.24436 0.18706 0.0
C958 C 0.23433 0.25553 0.18351 0.0
C959 C 0.20426 0.2382 0.21223 0.0
H960 H 0.16346 0.22136 0.20005 0.0
N961 N 0.2406 0.24273 0.2792 0.0
C962 C 0.22048 0.2372 0.25877 0.0
C963 C 0.19173 0.21904 0.28843 0.0
C964 C 0.19548 0.2252 0.26293 0.0
C965 C 0.23716 0.23599 0.3038 0.0
C966 C 0.21267 0.22446 0.30893 0.0
O967 O 0.34602 0.29851 0.29461 0.0
O968 O 0.3238 0.26616 0.26028 0.0
O969 O 0.28192 0.21983 0.27521 0.0
O970 O 0.27143 0.22568 0.23438 0.0
O971 O 0.29827 0.31998 0.26052 0.0
O972 O 0.30409 0.28251 0.24145 0.0
O973 O 0.25427 0.28433 0.27697 0.0
O974 O 0.2762 0.31117 0.31511 0.0
O975 O 0.30848 0.35695 0.29149 0.0
O976 O 0.32462 0.35764 0.33301 0.0
O977 O 0.29832 0.2577 0.31043 0.0
O978 O 0.29839 0.29719 0.33203 0.0
C979 C 0.34595 0.27976 0.27509 0.0
C980 C 0.30288 0.30591 0.23971 0.0
C981 C 0.29512 0.19586 0.24036 0.0
C982 C 0.32328 0.16921 0.25016 0.0
C983 C 0.31725 0.18031 0.20561 0.0
C984 C 0.30049 0.1945 0.21379 0.0
C985 C 0.32854 0.16741 0.22376 0.0
C986 C 0.30667 0.18322 0.25835 0.0
C987 C 0.27742 0.21002 0.24975 0.0
C988 C 0.17504 0.21963 0.24161 0.0
C989 C 0.17943 0.22603 0.21635 0.0
H990 H 0.1728 0.20985 0.29241 0.0
C991 C 0.25408 0.29962 0.29938 0.0
C992 C 0.29805 0.27302 0.33266 0.0
C993 C 0.29627 0.383 0.32475 0.0
C994 C 0.27528 0.4167 0.31902 0.0
C995 C 0.26629 0.39088 0.35435 0.0
C996 C 0.28343 0.37706 0.34652 0.0
C997 C 0.26234 0.41082 0.34082 0.0
C998 C 0.29181 0.40237 0.31089 0.0
C999 C 0.31466 0.36974 0.31584 0.0
H1000 H 0.32117 0.17901 0.18514 0.0
H1001 H 0.29168 0.20416 0.19936 0.0
H1002 H 0.34095 0.1558 0.21722 0.0
H1003 H 0.30225 0.18361 0.27871 0.0
H1004 H 0.25635 0.38636 0.37112 0.0
H1005 H 0.2867 0.36193 0.35745 0.0
H1006 H 0.24956 0.42185 0.34765 0.0
H1007 H 0.30139 0.4063 0.29367 0.0
C1008 C 0.53604 0.60348 0.11831 0.0
C1009 C 0.5771 0.62762 0.14449 0.0
C1010 C 0.56269 0.6122 0.12066 0.0
C1011 C 0.56452 0.63412 0.16587 0.0
C1012 C 0.52343 0.61003 0.13977 0.0
C1013 C 0.5378 0.62534 0.16353 0.0
N1014 N 0.52249 0.58857 0.09515 0.0
C1015 C 0.49641 0.5803 0.09176 0.0
C1016 C 0.49668 0.60106 0.1367 0.0
C1017 C 0.48312 0.58623 0.11255 0.0
Gd1018 Gd 0.56933 0.5164 0.04736 0.0
Gd1019 Gd 0.54674 0.58082 0.06171 0.0
N1020 N 0.57453 0.60494 0.09996 0.0
C1021 C 0.60377 0.63604 0.14616 0.0
C1022 C 0.60037 0.61398 0.10107 0.0
C1023 C 0.61541 0.62934 0.12427 0.0
H1024 H 0.60946 0.60974 0.08412 0.0
H1025 H 0.63596 0.6362 0.12516 0.0
H1026 H 0.5088 0.48387 0.02144 0.0
H1027 H 0.48579 0.56981 0.07276 0.0
H1028 H 0.48568 0.45492 0.98008 0.0
H1029 H 0.6155 0.64795 0.16412 0.0
H1030 H 0.5753 0.64593 0.18433 0.0
H1031 H 0.63193 0.52957 0.04149 0.0
H1032 H 0.4863 0.60572 0.15273 0.0
H1033 H 0.46241 0.57961 0.10982 0.0
H1034 H 0.55162 0.44893 0.92654 0.0
H1035 H 0.52841 0.63056 0.18022 0.0
H1036 H 0.63825 0.49463 0.96332 0.0
H1037 H 0.6586 0.52144 0.00706 0.0
N1038 N 0.59672 0.51005 0.01648 0.0
C1039 C 0.58517 0.49452 0.99295 0.0
C1040 C 0.62277 0.51917 0.02193 0.0
C1041 C 0.62639 0.4988 0.97808 0.0
C1042 C 0.63795 0.51404 1.0027 0.0
C1043 C 0.59975 0.48851 0.97309 0.0
H1044 H 0.59833 0.46737 0.93363 0.0
N1045 N 0.54496 0.49057 0.00814 0.0
C1046 C 0.55869 0.48405 0.9889 0.0
C1047 C 0.51972 0.4571 0.96172 0.0
C1048 C 0.54632 0.46741 0.96496 0.0
C1049 C 0.51924 0.47975 0.00557 0.0
C1050 C 0.50617 0.46317 0.98219 0.0
O1051 O 0.55935 0.56302 0.09846 0.0
O1052 O 0.58974 0.54308 0.08565 0.0
O1053 O 0.55456 0.48358 0.06712 0.0
O1054 O 0.59125 0.48867 0.05335 0.0
O1055 O 0.57792 0.57772 0.03685 0.0
O1056 O 0.60139 0.55305 0.05564 0.0
O1057 O 0.55279 0.53075 0.01015 0.0
O1058 O 0.52589 0.55605 0.02226 0.0
O1059 O 0.56327 0.61614 0.04663 0.0
O1060 O 0.5242 0.60794 0.0546 0.0
O1061 O 0.53522 0.51747 0.0687 0.0
O1062 O 0.5134 0.54509 0.05254 0.0
C1063 C 0.57861 0.55283 0.10456 0.0
C1064 C 0.60008 0.5733 0.04428 0.0
C1065 C 0.5849 0.46517 0.08923 0.0
C1066 C 0.58319 0.43048 0.11586 0.0
C1067 C 0.61753 0.46989 0.12785 0.0
C1068 C 0.60753 0.47956 0.10593 0.0
C1069 C 0.60541 0.44552 0.13289 0.0
C1070 C 0.57288 0.44049 0.09411 0.0
C1071 C 0.57462 0.47474 0.06556 0.0
C1072 C 0.56081 0.46162 0.94509 0.0
C1073 C 0.58741 0.47217 0.94911 0.0
H1074 H 0.50953 0.44423 0.94362 0.0
C1075 C 0.53463 0.54236 1.00397 0.0
C1076 C 0.5136 0.52288 0.06046 0.0
C1077 C 0.53429 0.63296 0.02031 0.0
C1078 C 0.53778 0.66724 0.99268 0.0
C1079 C 0.50749 0.62557 0.97681 0.0
C1080 C 0.5151 0.61687 1.00042 0.0
C1081 C 0.51881 0.65054 0.97288 0.0
C1082 C 0.54554 0.65834 0.01648 0.0
C1083 C 0.54215 0.62352 0.04525 0.0
H1084 H 0.635 0.48109 0.14064 0.0
H1085 H 0.61775 0.49796 0.1016 0.0
H1086 H 0.61383 0.43806 0.1496 0.0
H1087 H 0.55578 0.42898 0.08083 0.0
H1088 H 0.49261 0.61299 0.96161 0.0
H1089 H 0.50579 0.59768 1.0034 0.0
H1090 H 0.5124 0.65704 0.95454 0.0
H1091 H 0.56022 0.67103 0.03186 0.0
C1092 C 0.74666 0.23673 0.32901 0.0
C1093 C 0.71573 0.2078 0.29282 0.0
C1094 C 0.73977 0.2255 0.30191 0.0
C1095 C 0.69853 0.20163 0.31104 0.0
C1096 C 0.72939 0.23032 0.34728 0.0
C1097 C 0.70531 0.21287 0.33812 0.0
N1098 N 0.77023 0.25353 0.33754 0.0
C1099 C 0.77804 0.2635 0.3641 0.0
C1100 C 0.73692 0.24138 0.37433 0.0
C1101 C 0.76138 0.25789 0.38278 0.0
Gd1102 Gd 0.80739 0.32653 0.27563 0.0
Gd1103 Gd 0.79605 0.25937 0.30387 0.0
N1104 N 0.75639 0.23236 0.28434 0.0
C1105 C 0.70972 0.19674 0.26565 0.0
C1106 C 0.75129 0.22069 0.2583 0.0
C1107 C 0.7277 0.20302 0.24838 0.0
H1108 H 0.76573 0.22445 0.24553 0.0
H1109 H 0.72357 0.19395 0.22756 0.0
H1110 H 0.84046 0.36324 0.3322 0.0
H1111 H 0.79727 0.27519 0.37129 0.0
H1112 H 0.88329 0.39321 0.34766 0.0
H1113 H 0.69146 0.18299 0.25792 0.0
H1114 H 0.67994 0.1881 0.3044 0.0
H1115 H 0.80188 0.31197 0.20742 0.0
H1116 H 0.72417 0.23693 0.38896 0.0
H1117 H 0.76757 0.26598 0.40379 0.0
H1118 H 0.92328 0.39521 0.26824 0.0
H1119 H 0.69183 0.20777 0.35192 0.0
H1120 H 0.87438 0.3463 0.18563 0.0
H1121 H 0.82983 0.3193 0.17305 0.0
N1122 N 0.83108 0.33232 0.24005 0.0
C1123 C 0.85515 0.34835 0.24725 0.0
C1124 C 0.82162 0.32273 0.21363 0.0
C1125 C 0.86239 0.34264 0.20106 0.0
C1126 C 0.83728 0.3273 0.19388 0.0
C1127 C 0.87147 0.35379 0.22789 0.0
H1128 H 0.90893 0.37475 0.22115 0.0
N1129 N 0.84765 0.35405 0.29257 0.0
C1130 C 0.86341 0.36 0.27402 0.0
C1131 C 0.89526 0.38885 0.30872 0.0
C1132 C 0.88793 0.37717 0.28181 0.0
C1133 C 0.85404 0.36641 0.31841 0.0
C1134 C 0.8781 0.38369 0.32702 0.0
O1135 O 0.75869 0.27311 0.29194 0.0
O1136 O 0.76591 0.30231 0.26203 0.0
O1137 O 0.7919 0.3568 0.2939 0.0
O1138 O 0.80273 0.35734 0.2542 0.0
O1139 O 0.81227 0.26922 0.2672 0.0
O1140 O 0.79026 0.29205 0.24451 0.0
O1141 O 0.84468 0.31458 0.28964 0.0
O1142 O 0.83944 0.2808 0.3146 0.0
O1143 O 0.80774 0.22641 0.2856 0.0
O1144 O 0.80118 0.22994 0.32713 0.0
O1145 O 0.79479 0.31812 0.31471 0.0
O1146 O 0.8153 0.29257 0.33503 0.0
C1147 C 0.74993 0.2866 0.27436 0.0
C1148 C 0.7989 0.27182 0.24534 0.0
C1149 C 0.76836 0.37434 0.26221 0.0
C1150 C 0.74154 0.40397 0.26415 0.0
C1151 C 0.73203 0.36867 0.22717 0.0
C1152 C 0.75301 0.36073 0.23809 0.0
C1153 C 0.72643 0.39038 0.23999 0.0
C1154 C 0.76237 0.3958 0.27539 0.0
C1155 C 0.79188 0.36775 0.27239 0.0
C1156 C 0.90429 0.38218 0.26259 0.0
C1157 C 0.89612 0.37048 0.23576 0.0
H1158 H 0.91392 0.40223 0.31547 0.0
C1159 C 0.85443 0.29936 0.30423 0.0
C1160 C 0.81005 0.31467 0.33493 0.0
C1161 C 0.83349 0.21054 0.31683 0.0
C1162 C 0.85954 0.17993 0.31346 0.0
C1163 C 0.8714 0.21649 0.34969 0.0
C1164 C 0.85057 0.22491 0.33952 0.0
C1165 C 0.8756 0.19395 0.33716 0.0
C1166 C 0.83831 0.18844 0.30349 0.0
C1167 C 0.80967 0.2174 0.30827 0.0
H1168 H 0.7204 0.35827 0.20849 0.0
H1169 H 0.75758 0.34435 0.22737 0.0
H1170 H 0.71042 0.3967 0.23101 0.0
H1171 H 0.7744 0.40667 0.29374 0.0
H1172 H 0.88409 0.22722 0.36764 0.0
H1173 H 0.84742 0.24226 0.3499 0.0
H1174 H 0.89138 0.18747 0.34634 0.0
H1175 H 0.82542 0.17793 0.28554 0.0
C1176 C 0.08553 0.52265 0.6277 0.0
C1177 C 0.10692 0.5591 0.66206 0.0
C1178 C 0.08714 0.54724 0.6403 0.0
C1179 C 0.12508 0.5461 0.67049 0.0
C1180 C 0.10362 0.50944 0.63625 0.0
C1181 C 0.12343 0.52133 0.65763 0.0
N1182 N 0.06673 0.51194 0.60648 0.0
C1183 C 0.06434 0.48778 0.59349 0.0
C1184 C 0.10143 0.48474 0.62283 0.0
C1185 C 0.08159 0.47381 0.60145 0.0
Gd1186 Gd 0.04645 0.57442 0.527 0.0
Gd1187 Gd 0.03939 0.53687 0.59292 0.0
N1188 N 0.06983 0.55974 0.63093 0.0
C1189 C 0.1081 0.58385 0.67449 0.0
C1190 C 0.07008 0.58324 0.64437 0.0
C1191 C 0.08939 0.59581 0.66582 0.0
H1192 H 0.05526 0.59246 0.63952 0.0
H1193 H 0.08962 0.61463 0.67588 0.0
H1194 H 0.02931 0.51701 0.48303 0.0
H1195 H 0.049 0.47918 0.57708 0.0
H1196 H 0.99162 0.49081 0.45248 0.0
H1197 H 0.12307 0.59367 0.6911 0.0
H1198 H 0.14051 0.55506 0.68694 0.0
H1199 H 0.03664 0.63245 0.53909 0.0
H1200 H 0.11493 0.47395 0.62881 0.0
H1201 H 0.07963 0.45466 0.59102 0.0
H1202 H 0.93672 0.54697 0.44328 0.0
H1203 H 0.1376 0.51155 0.66434 0.0
H1204 H 0.96649 0.63288 0.49136 0.0
H1205 H 1.00465 0.65545 0.52488 0.0
N1206 N 1.0173 0.59762 0.51329 0.0
C1207 C 0.99681 0.58502 0.49439 0.0
C1208 C 0.02027 0.62259 0.52418 0.0
C1209 C 0.98069 0.62283 0.49723 0.0
C1210 C 1.00216 0.63563 0.5162 0.0
C1211 C 0.97768 0.59716 0.48624 0.0
H1212 H 0.94102 0.59216 0.46144 0.0
N1213 N 1.01328 0.5484 0.49283 0.0
C1214 C 0.99441 0.55949 0.48435 0.0
C1215 C 0.97135 0.52021 0.45485 0.0
C1216 C 0.97279 0.54557 0.46551 0.0
C1217 C 1.01302 0.52461 0.48019 0.0
C1218 C 0.99184 0.50991 0.46178 0.0
O1219 O 0.07842 0.54473 0.58168 0.0
O1220 O 0.07469 0.57998 0.56428 0.0
O1221 O 0.07013 0.57446 0.49517 0.0
O1222 O 0.06782 0.61053 0.51793 0.0
O1223 O 0.03143 0.57686 0.59746 0.0
O1224 O 0.0539 0.5999 0.56794 0.0
O1225 O 1.0089 0.57055 0.54154 0.0
O1226 O 1.01632 0.53576 0.55394 0.0
O1227 O 1.01017 0.53685 0.61831 0.0
O1228 O 1.01632 0.50088 0.60097 0.0
O1229 O 0.05665 0.53494 0.52349 0.0
O1230 O 0.03338 0.51157 0.55214 0.0
C1231 C 0.08798 0.56387 0.56968 0.0
C1232 C 0.04098 0.59875 0.58861 0.0
C1233 C 0.09493 0.61446 0.4839 0.0
C1234 C 0.12012 0.61618 0.4478 0.0
C1235 C 0.11946 0.65564 0.47539 0.0
C1236 C 0.1029 0.64141 0.49026 0.0
C1237 C 0.12801 0.64311 0.45412 0.0
C1238 C 0.10375 0.60191 0.46281 0.0
C1239 C 0.07739 0.59948 0.49916 0.0
C1240 C 0.95352 0.55746 0.45757 0.0
C1241 C 0.95601 0.58322 0.46782 0.0
H1242 H 0.95503 0.50884 0.44043 0.0
C1243 C 1.00058 0.54996 0.5515 0.0
C1244 C 0.04705 0.51278 0.53207 0.0
C1245 C 1.00547 0.50377 0.64459 0.0
C1246 C 0.99532 0.50958 0.68966 0.0
C1247 C 1.01744 0.47743 0.67679 0.0
C1248 C 1.01695 0.48424 0.65107 0.0
C1249 C 1.0068 0.49019 0.69618 0.0
C1250 C 0.99445 0.51611 0.66391 0.0
C1251 C 1.00517 0.51211 0.6182 0.0
H1252 H 0.12557 0.67639 0.48027 0.0
H1253 H 0.09633 0.65147 0.50664 0.0
H1254 H 0.14076 0.65439 0.44259 0.0
H1255 H 0.09745 0.58113 0.45759 0.0
H1256 H 0.02616 0.46232 0.68171 0.0
H1257 H 0.0256 0.47432 0.63643 0.0
H1258 H 1.00723 0.4848 0.71607 0.0
H1259 H 0.98549 0.53115 0.65909 0.0
C1260 C 0.74038 0.81992 0.24212 0.0
C1261 C 0.7116 0.77974 0.21864 0.0
C1262 C 0.72912 0.79385 0.2413 0.0
C1263 C 0.70628 0.79195 0.19656 0.0
C1264 C 0.73506 0.83223 0.22003 0.0
C1265 C 0.71802 0.81809 0.19723 0.0
N1266 N 0.75743 0.83295 0.26412 0.0
C1267 C 0.76919 0.85844 0.26575 0.0
C1268 C 0.7474 0.85831 0.22135 0.0
C1269 C 0.76445 0.87147 0.24436 0.0
Gd1270 Gd 0.82811 0.78548 0.3025 0.0
Gd1271 Gd 0.76515 0.80911 0.29818 0.0
N1272 N 0.7353 0.78233 0.26264 0.0
C1273 C 0.6997 0.75387 0.21901 0.0
C1274 C 0.72213 0.75783 0.26399 0.0
C1275 C 0.70463 0.74301 0.24201 0.0
H1276 H 0.72422 0.74992 0.28228 0.0
H1277 H 0.6946 0.72339 0.24302 0.0
H1278 H 0.87004 0.84373 0.31953 0.0
H1279 H 0.7821 0.86883 0.28362 0.0
H1280 H 0.90212 0.86795 0.35809 0.0
H1281 H 0.68606 0.74238 0.20204 0.0
H1282 H 0.693 0.78136 0.1789 0.0
H1283 H 0.80888 0.72497 0.3152 0.0
H1284 H 0.7439 0.86844 0.20474 0.0
H1285 H 0.77396 0.89166 0.24563 0.0
H1286 H 0.90465 0.8066 0.41829 0.0
H1287 H 0.71377 0.82719 0.18 0.0
H1288 H 0.8497 0.72138 0.39143 0.0
H1289 H 0.81756 0.70031 0.35134 0.0
N1290 N 0.8346 0.76004 0.33537 0.0
C1291 C 0.85295 0.77183 0.3568 0.0
C1292 C 0.82225 0.73461 0.333 0.0
C1293 C 0.84571 0.73241 0.37578 0.0
C1294 C 0.82746 0.72047 0.35324 0.0
C1295 C 0.85882 0.75835 0.37772 0.0
H1296 H 0.88216 0.76108 0.41619 0.0
N1297 N 0.85919 0.81039 0.33779 0.0
C1298 C 0.86556 0.7977 0.35806 0.0
C1299 C 0.89725 0.83622 0.38043 0.0
C1300 C 0.88449 0.81045 0.38016 0.0
C1301 C 0.87284 0.83486 0.33705 0.0
C1302 C 0.89164 0.84836 0.35859 0.0
O1303 O 0.78191 0.80356 0.2589 0.0
O1304 O 0.80022 0.77041 0.26362 0.0
O1305 O 0.86107 0.79538 0.28102 0.0
O1306 O 0.84741 0.75666 0.29111 0.0
O1307 O 0.76498 0.77178 0.31433 0.0
O1308 O 0.7912 0.7552 0.28943 0.0
O1309 O 0.81362 0.79413 0.34291 0.0
O1310 O 0.79383 0.82589 0.33574 0.0
O1311 O 0.73257 0.79817 0.32024 0.0
O1312 O 0.74447 0.83676 0.30961 0.0
O1313 O 0.82971 0.82338 0.2872 0.0
O1314 O 0.80198 0.84063 0.30982 0.0
C1315 C 0.79021 0.78437 0.2482 0.0
C1316 C 0.77219 0.75214 0.30322 0.0
C1317 C 0.88401 0.76327 0.268 0.0
C1318 C 0.91801 0.76896 0.24062 0.0
C1319 C 0.90709 0.73053 0.26128 0.0
C1320 C 0.88818 0.73946 0.27254 0.0
C1321 C 0.92199 0.74521 0.24542 0.0
C1322 C 0.89901 0.77807 0.25191 0.0
C1323 C 0.8639 0.77212 0.28012 0.0
C1324 C 0.89024 0.79707 0.4011 0.0
C1325 C 0.87745 0.77112 0.39989 0.0
H1326 H 0.91191 0.84669 0.39705 0.0
C1327 C 0.80437 0.81323 0.35227 0.0
C1328 C 0.82206 0.84318 0.29732 0.0
C1329 C 0.70836 0.82924 0.33392 0.0
C1330 C 0.67205 0.82181 0.35883 0.0
C1331 C 0.68695 0.8629 0.34373 0.0
C1332 C 0.70589 0.85421 0.33235 0.0
C1333 C 0.67011 0.84685 0.35677 0.0
C1334 C 0.69144 0.81297 0.34753 0.0
C1335 C 0.72876 0.82103 0.3212 0.0
H1336 H 0.91026 0.71224 0.26495 0.0
H1337 H 0.87691 0.72773 0.28492 0.0
H1338 H 0.93677 0.7381 0.23693 0.0
H1339 H 0.89608 0.7965 0.24828 0.0
H1340 H 0.68528 0.88218 0.34237 0.0
H1341 H 0.71861 0.86719 0.32222 0.0
H1342 H 0.6555 0.85408 0.36547 0.0
H1343 H 0.69308 0.79367 0.34903 0.0
C1344 C 0.84619 0.26306 0.72352 0.0
C1345 C 0.80982 0.243 0.68859 0.0
C1346 C 0.82164 0.2618 0.71119 0.0
C1347 C 0.82302 0.22555 0.67864 0.0
C1348 C 0.85963 0.24579 0.71334 0.0
C1349 C 0.84787 0.22697 0.69095 0.0
N1350 N 0.85674 0.28081 0.74578 0.0
C1351 C 0.88113 0.28329 0.75792 0.0
C1352 C 0.88443 0.24779 0.72616 0.0
C1353 C 0.89532 0.26681 0.74837 0.0
Gd1354 Gd 0.78683 0.30076 0.82795 0.0
Gd1355 Gd 0.83065 0.30549 0.76259 0.0
N1356 N 0.80886 0.27816 0.7222 0.0
C1357 C 0.78494 0.24201 0.67689 0.0
C1358 C 0.78493 0.27783 0.71008 0.0
C1359 C 0.77258 0.2597 0.68751 0.0
H1360 H 0.77501 0.29132 0.71741 0.0
H1361 H 0.75345 0.25936 0.67837 0.0
H1362 H 0.84432 0.32766 0.86847 0.0
H1363 H 0.88968 0.29815 0.77494 0.0
H1364 H 0.86238 0.36183 0.90663 0.0
H1365 H 0.77518 0.2278 0.65958 0.0
H1366 H 0.81416 0.21085 0.66145 0.0
H1367 H 0.72721 0.30451 0.80946 0.0
H1368 H 0.89538 0.23487 0.71897 0.0
H1369 H 0.91459 0.26873 0.75824 0.0
H1370 H 0.79371 0.40045 0.92031 0.0
H1371 H 0.85781 0.21337 0.68304 0.0
H1372 H 0.71409 0.36702 0.86073 0.0
H1373 H 0.69879 0.33139 0.82251 0.0
N1374 N 0.7583 0.3246 0.84003 0.0
C1375 C 0.76697 0.3438 0.86128 0.0
C1376 C 0.73414 0.31999 0.82618 0.0
C1377 C 0.72661 0.35516 0.85519 0.0
C1378 C 0.71793 0.33513 0.83357 0.0
C1379 C 0.75141 0.35977 0.86931 0.0
H1380 H 0.74954 0.39257 0.89719 0.0
N1381 N 0.80663 0.33305 0.86525 0.0
C1382 C 0.79181 0.34809 0.8744 0.0
C1383 C 0.82733 0.37332 0.90776 0.0
C1384 C 0.80182 0.36871 0.89577 0.0
C1385 C 0.83183 0.33814 0.8764 0.0
C1386 C 0.84242 0.35803 0.89793 0.0
O1387 O 0.81037 0.26408 0.76135 0.0
O1388 O 0.79843 0.28697 0.79156 0.0
O1389 O 0.78662 0.27048 0.85186 0.0
O1390 O 0.75093 0.27363 0.83021 0.0
O1391 O 0.79295 0.31864 0.75853 0.0
O1392 O 0.76402 0.29955 0.78608 0.0
O1393 O 0.80271 0.34029 0.82072 0.0
O1394 O 0.83397 0.32674 0.80381 0.0
O1395 O 0.83117 0.33839 0.74247 0.0
O1396 O 0.86679 0.32948 0.75591 0.0
O1397 O 0.82575 0.29044 0.83731 0.0
O1398 O 0.85122 0.2974 0.80248 0.0
C1399 C 0.79646 0.26414 0.77988 0.0
C1400 C 0.76954 0.31215 0.76552 0.0
C1401 C 0.74998 0.25957 0.87245 0.0
C1402 C 0.75133 0.24517 0.9157 0.0
C1403 C 0.71771 0.26455 0.90041 0.0
C1404 C 0.72803 0.2679 0.87674 0.0
C1405 C 0.72927 0.2531 0.91989 0.0
C1406 C 0.76146 0.24819 0.89203 0.0
C1407 C 0.76165 0.26271 0.84813 0.0
C1408 C 0.78631 0.3845 0.90401 0.0
C1409 C 0.76117 0.38005 0.89081 0.0
H1410 H 0.83572 0.38897 0.92419 0.0
C1411 C 0.82264 0.34492 0.80847 0.0
C1412 C 0.84735 0.29089 0.82677 0.0
C1413 C 0.86366 0.34656 0.7154 0.0
C1414 C 0.85455 0.35638 0.67052 0.0
C1415 C 0.89418 0.3454 0.68428 0.0
C1416 C 0.88715 0.34255 0.70955 0.0
C1417 C 0.87786 0.35214 0.66469 0.0
C1418 C 0.84762 0.35385 0.69583 0.0
C1419 C 0.85573 0.34325 0.74169 0.0
H1420 H 0.70079 0.2709 0.90369 0.0
H1421 H 0.71888 0.27696 0.86195 0.0
H1422 H 0.72123 0.25064 0.93823 0.0
H1423 H 0.77841 0.24168 0.88893 0.0
H1424 H 0.91229 0.34237 0.67987 0.0
H1425 H 0.90004 0.33719 0.72443 0.0
H1426 H 0.88353 0.35442 0.64518 0.0
H1427 H 0.82958 0.35737 0.70006 0.0
C1428 C 0.8698 0.84959 0.8424 0.0
C1429 C 0.89438 0.87173 0.81119 0.0
C1430 C 0.87108 0.85711 0.81721 0.0
C1431 C 0.91641 0.87856 0.83071 0.0
C1432 C 0.89182 0.85703 0.86223 0.0
C1433 C 0.91511 0.87131 0.85617 0.0
N1434 N 0.84684 0.8361 0.84788 0.0
C1435 C 0.84456 0.8307 0.87327 0.0
C1436 C 0.88968 0.85056 0.88787 0.0
C1437 C 0.86591 0.83754 0.89345 0.0
Gd1438 Gd 0.77513 0.76112 0.77992 0.0
Gd1439 Gd 0.81188 0.82882 0.81307 0.0
N1440 N 0.84941 0.85054 0.79875 0.0
C1441 C 0.89473 0.87955 0.7859 0.0
C1442 C 0.84935 0.85942 0.77475 0.0
C1443 C 0.87204 0.87355 0.76768 0.0
H1444 H 0.83175 0.85647 0.7614 0.0
H1445 H 0.87187 0.88028 0.74844 0.0
H1446 H 0.74935 0.74283 0.83407 0.0
H1447 H 0.82626 0.82225 0.87873 0.0
H1448 H 0.70705 0.72227 0.8444 0.0
H1449 H 0.91225 0.8908 0.78052 0.0
H1450 H 0.93445 0.88983 0.82646 0.0
H1451 H 0.7653 0.76978 0.71411 0.0
H1452 H 0.9061 0.85612 0.9037 0.0
H1453 H 0.86387 0.83324 0.91349 0.0
H1454 H 0.65064 0.71049 0.76133 0.0
H1455 H 0.93218 0.87717 0.8712 0.0
H1456 H 0.68562 0.73998 0.6853 0.0
H1457 H 0.72935 0.76059 0.67764 0.0
N1458 N 0.74233 0.75806 0.74396 0.0
C1459 C 0.71836 0.74626 0.74851 0.0
C1460 C 0.74633 0.76295 0.71874 0.0
C1461 C 0.7013 0.74513 0.70194 0.0
C1462 C 0.72592 0.75691 0.69757 0.0
C1463 C 0.69728 0.73945 0.72751 0.0
H1464 H 0.65668 0.72095 0.71639 0.0
N1465 N 0.73553 0.74621 0.79402 0.0
C1466 C 0.71492 0.74003 0.77405 0.0
C1467 C 0.68757 0.72121 0.80462 0.0
C1468 C 0.69039 0.7273 0.77892 0.0
C1469 C 0.73296 0.73964 0.81887 0.0
C1470 C 0.70894 0.72744 0.82465 0.0
O1471 O 0.84153 0.80735 0.79902 0.0
O1472 O 0.81884 0.76654 0.77825 0.0
O1473 O 0.77411 0.72261 0.78802 0.0
O1474 O 0.76646 0.72955 0.74722 0.0
O1475 O 0.7935 0.82383 0.76911 0.0
O1476 O 0.79772 0.78467 0.75263 0.0
O1477 O 0.74814 0.78823 0.78924 0.0
O1478 O 0.77164 0.81656 0.82549 0.0
O1479 O 0.79885 0.86148 0.80226 0.0
O1480 O 0.81888 0.86237 0.84297 0.0
O1481 O 0.79209 0.76228 0.82404 0.0
O1482 O 0.79421 0.80361 0.8417 0.0
C1483 C 0.8411 0.78437 0.78625 0.0
C1484 C 0.79784 0.80825 0.74932 0.0
C1485 C 0.78719 0.69752 0.75349 0.0
C1486 C 0.81953 0.67495 0.76366 0.0
C1487 C 0.80267 0.67505 0.71728 0.0
C1488 C 0.78662 0.68983 0.72589 0.0
C1489 C 0.81911 0.66756 0.73609 0.0
C1490 C 0.80377 0.69009 0.77222 0.0
C1491 C 0.77039 0.71307 0.76255 0.0
C1492 C 0.66953 0.72057 0.75798 0.0
C1493 C 0.67297 0.72657 0.73239 0.0
H1494 H 0.66906 0.71134 0.80908 0.0
C1495 C 0.74897 0.80503 0.8109 0.0
C1496 C 0.79317 0.77979 0.84486 0.0
C1497 C 0.80512 0.89976 0.83502 0.0
C1498 C 0.78841 0.93508 0.8246 0.0
C1499 C 0.80741 0.93501 0.87025 0.0
C1500 C 0.81232 0.91146 0.86203 0.0
C1501 C 0.79529 0.94679 0.85161 0.0
C1502 C 0.79347 0.91176 0.81638 0.0
C1503 C 0.80739 0.87406 0.82659 0.0
H1504 H 0.80207 0.66907 0.69602 0.0
H1505 H 0.77375 0.69522 0.71101 0.0
H1506 H 0.83082 0.65533 0.72918 0.0
H1507 H 0.80426 0.69571 0.79358 0.0
H1508 H 0.81275 0.94397 0.89107 0.0
H1509 H 0.8212 0.90221 0.87684 0.0
H1510 H 0.79148 0.96505 0.85815 0.0
H1511 H 0.78753 0.90264 0.79557 0.0
C1512 C 0.50816 0.47726 0.5137 0.0
C1513 C 0.48946 0.45086 0.54554 0.0
C1514 C 0.50266 0.47487 0.53968 0.0
C1515 C 0.48184 0.42939 0.5252 0.0
C1516 C 0.50031 0.45565 0.49327 0.0
C1517 C 0.48721 0.43178 0.49918 0.0
N1518 N 0.52043 0.50074 0.50823 0.0
C1519 C 0.52487 0.5039 0.48273 0.0
C1520 C 0.50534 0.45872 0.46727 0.0
C1521 C 0.51761 0.48294 0.462 0.0
Gd1522 Gd 0.59409 0.56785 0.57959 0.0
Gd1523 Gd 0.52696 0.5346 0.5438 0.0
N1524 N 0.50999 0.49602 0.55911 0.0
C1525 C 0.48377 0.44922 0.57158 0.0
C1526 C 0.50332 0.49472 0.58406 0.0
C1527 C 0.4906 0.47129 0.59086 0.0
H1528 H 0.50668 0.51174 0.59842 0.0
H1529 H 0.48549 0.47041 0.61078 0.0
H1530 H 0.61983 0.59272 0.52885 0.0
H1531 H 0.53279 0.52265 0.47782 0.0
H1532 H 0.64628 0.63388 0.52074 0.0
H1533 H 0.47356 0.43115 0.57681 0.0
H1534 H 0.47153 0.41087 0.52933 0.0
H1535 H 0.58593 0.57756 0.64571 0.0
H1536 H 0.49943 0.44261 0.45103 0.0
H1537 H 0.52097 0.48561 0.4418 0.0
H1538 H 0.65737 0.69031 0.60404 0.0
H1539 H 0.48092 0.41505 0.48366 0.0
H1540 H 0.61873 0.6567 0.6765 0.0
H1541 H 0.5951 0.61328 0.68256 0.0
N1542 N 0.60033 0.60063 0.61684 0.0
C1543 C 0.61454 0.62417 0.61353 0.0
C1544 C 0.5942 0.59652 0.64164 0.0
C1545 C 0.61369 0.64117 0.65964 0.0
C1546 C 0.60021 0.61675 0.6631 0.0
C1547 C 0.62154 0.64503 0.63486 0.0
H1548 H 0.6423 0.68505 0.64731 0.0
N1549 N 0.61573 0.60706 0.56854 0.0
C1550 C 0.62319 0.6272 0.58907 0.0
C1551 C 0.64705 0.65343 0.5605 0.0
C1552 C 0.63888 0.65105 0.58545 0.0
C1553 C 0.62426 0.60909 0.54445 0.0
C1554 C 0.63973 0.63234 0.53995 0.0
O1555 O 0.55192 0.50538 0.55326 0.0
O1556 O 0.58241 0.52657 0.58918 0.0
O1557 O 0.62834 0.55921 0.5683 0.0
O1558 O 0.62751 0.57498 0.60967 0.0
O1559 O 0.53133 0.55708 0.58535 0.0
O1560 O 0.56673 0.54902 0.60633 0.0
O1561 O 0.57275 0.59789 0.56744 0.0
O1562 O 0.5365 0.57767 0.53663 0.0
O1563 O 0.49103 0.5391 0.5554 0.0
O1564 O 0.49349 0.52692 0.51364 0.0
O1565 O 0.59064 0.55186 0.53429 0.0
O1566 O 0.55116 0.55481 0.51648 0.0
C1567 C 0.56932 0.50469 0.57389 0.0
C1568 C 0.54408 0.55304 0.60717 0.0
C1569 C 0.65605 0.54981 0.60219 0.0
C1570 C 0.69 0.53024 0.59412 0.0
C1571 C 0.66985 0.52386 0.63367 0.0
C1572 C 0.65376 0.53913 0.62597 0.0
C1573 C 0.6879 0.51917 0.61759 0.0
C1574 C 0.67427 0.54552 0.58665 0.0
C1575 C 0.64065 0.5662 0.59284 0.0
C1576 C 0.6455 0.67184 0.60654 0.0
C1577 C 0.6368 0.66886 0.63113 0.0
H1578 H 0.65904 0.67143 0.55692 0.0
C1579 C 0.55326 0.59919 0.54966 0.0
C1580 C 0.57481 0.55518 0.51389 0.0
C1581 C 0.46879 0.55564 0.52251 0.0
C1582 C 0.43902 0.58122 0.52975 0.0
C1583 C 0.46643 0.58942 0.49576 0.0
C1584 C 0.4773 0.56977 0.50231 0.0
C1585 C 0.44735 0.59522 0.50947 0.0
C1586 C 0.44977 0.56149 0.53618 0.0
C1587 C 0.48009 0.5354 0.5304 0.0
H1588 H 0.66824 0.51559 0.65196 0.0
H1589 H 0.63973 0.54254 0.63845 0.0
H1590 H 0.70014 0.50708 0.62337 0.0
H1591 H 0.67595 0.5538 0.56825 0.0
H1592 H 0.47297 0.60029 0.48024 0.0
H1593 H 0.49243 0.56584 0.49174 0.0
H1594 H 0.43905 0.61053 0.50424 0.0
H1595 H 0.44304 0.55037 0.55154 0.0
C1596 C 0.11189 0.60306 0.02185 0.0
C1597 C 0.14251 0.63226 0.05803 0.0
C1598 C 0.12328 0.60915 0.04884 0.0
C1599 C 0.15016 0.64919 0.03993 0.0
C1600 C 0.12013 0.61979 1.00358 0.0
C1601 C 0.13909 0.64294 0.01281 0.0
N1602 N 0.09325 0.58067 0.01333 0.0
C1603 C 0.08362 0.573 0.98671 0.0
C1604 C 0.10938 0.61258 0.97642 0.0
C1605 C 0.0913 0.58896 0.96792 0.0
Gd1606 Gd 0.01989 0.55098 0.08219 0.0
Gd1607 Gd 0.08356 0.55514 0.0465 0.0
N1608 N 0.11506 0.59274 0.06624 0.0
C1609 C 0.15364 0.63762 0.08513 0.0
C1610 C 0.12686 0.5972 0.09227 0.0
C1611 C 0.14601 0.61984 0.10223 0.0
H1612 H 0.12187 0.58328 0.1053 0.0
H1613 H 0.15498 0.62349 0.12304 0.0
H1614 H 0.97331 0.52294 0.03194 0.0
H1615 H 0.07025 0.5544 0.97983 0.0
H1616 H 0.93954 0.48181 0.01866 0.0
H1617 H 0.16844 0.65519 0.09294 0.0
H1618 H 0.16484 0.66707 0.04666 0.0
H1619 H 0.04349 0.55366 0.1484 0.0
H1620 H 0.11531 0.62488 0.96177 0.0
H1621 H 0.08341 0.58294 0.94686 0.0
H1622 H 0.94739 0.43797 0.09477 0.0
H1623 H 0.1455 0.65607 0.99905 0.0
H1624 H 1.00944 0.48162 0.17148 0.0
H1625 H 0.03978 0.5248 0.18218 0.0
N1626 N 1.01805 0.52608 0.11727 0.0
C1627 C 0.9999 0.5031 0.11159 0.0
C1628 C 0.03141 0.53435 0.14269 0.0
C1629 C 1.01155 0.49396 0.15617 0.0
C1630 C 0.02881 0.51825 0.16225 0.0
C1631 C 0.99644 0.48631 0.13081 0.0
H1632 H 0.9749 0.44953 0.13886 0.0
N1633 N 0.9878 0.51291 0.06838 0.0
C1634 C 0.98408 0.49654 0.0867 0.0
C1635 C 0.94907 0.46758 0.0554 0.0
C1636 C 0.96487 0.47312 0.08043 0.0
C1637 C 0.97158 0.50843 0.04476 0.0
C1638 C 0.95221 0.4855 0.03764 0.0
O1639 O 0.07688 0.59493 0.06231 0.0
O1640 O 0.0401 0.59329 0.08194 0.0
O1641 O 0.98473 0.56312 0.07313 0.0
O1642 O 1.00243 0.56505 0.11489 0.0
O1643 O 0.07214 0.53844 0.08178 0.0
O1644 O 0.05805 0.56561 0.10838 0.0
O1645 O 0.02589 0.5114 0.06359 0.0
O1646 O 0.05717 0.51379 0.03556 0.0
O1647 O 0.11716 0.54154 0.06141 0.0
O1648 O 0.10385 0.53969 0.01834 0.0
O1649 O 0.01873 0.56158 0.04073 0.0
O1650 O 0.04733 0.54495 0.0179 0.0
C1651 C 0.06082 0.60639 0.07358 0.0
C1652 C 0.07499 0.55292 0.10446 0.0
C1653 C 0.96328 0.57827 0.10885 0.0
C1654 C 0.93295 0.60432 0.10568 0.0
C1655 C 0.93796 0.58284 0.14448 0.0
C1656 C 0.95652 0.57281 0.13378 0.0
C1657 C 0.92632 0.59868 0.13061 0.0
C1658 C 0.95114 0.59372 0.09452 0.0
C1659 C 0.98374 0.56867 0.09863 0.0
C1660 C 0.96194 0.45613 0.09929 0.0
C1661 C 0.97767 0.4627 0.12439 0.0
H1662 H 0.93405 0.44981 0.04985 0.0
C1663 C 0.03848 0.50014 0.04671 0.0
C1664 C 0.02788 0.55495 0.01891 0.0
C1665 C 0.14125 0.52477 0.02808 0.0
C1666 C 0.17573 0.50404 0.03617 0.0
C1667 C 0.16289 0.51245 0.99138 0.0
C1668 C 0.14444 0.52334 1.00084 0.0
C1669 C 0.17841 0.50282 0.00886 0.0
C1670 C 0.15727 0.51537 0.04598 0.0
C1671 C 0.12057 0.53548 0.0366 0.0
H1672 H 0.93278 0.57857 0.16369 0.0
H1673 H 0.96566 0.56083 0.145 0.0
H1674 H 0.91215 0.60661 0.13935 0.0
H1675 H 0.95646 0.59826 0.07539 0.0
H1676 H 0.16506 0.51134 0.97037 0.0
H1677 H 0.13254 0.53055 0.98663 0.0
H1678 H 0.19264 0.49432 1.001 0.0
H1679 H 0.15497 0.51618 0.06699 0.0
H1680 H 0.05886 0.22202 0.01683 0.0
H1681 H 0.97718 0.19583 0.99235 0.0
H1682 H 0.97752 0.15328 1.00379 0.0
H1683 H 1.00112 0.12171 0.01986 0.0
H1684 H 0.08252 0.14853 0.0447 0.0
H1685 H 0.08208 0.19107 0.03471 0.0
C1686 C 0.04092 0.20736 0.01472 0.0
C1687 C 1.01773 0.21337 0.00451 0.0
C1688 C 0.04123 0.18219 0.02136 0.0
C1689 C 0.99523 0.19289 1.00098 0.0
C1690 C 0.99547 0.16809 0.00731 0.0
C1691 C 0.01887 0.13673 0.02323 0.0
C1692 C 0.04211 0.13078 0.03362 0.0
C1693 C 1.01836 0.16217 0.01738 0.0
C1694 C 0.06437 0.15153 0.03746 0.0
C1695 C 0.06408 0.17634 0.03146 0.0
H1696 H 0.17963 0.84852 0.17215 0.0
H1697 H 0.12585 0.78719 0.19845 0.0
H1698 H 0.1598 0.77966 0.22894 0.0
H1699 H 0.20493 0.78976 0.2491 0.0
H1700 H 0.25989 0.85041 0.2238 0.0
H1701 H 0.22588 0.8588 0.19295 0.0
C1702 C 0.17536 0.83359 0.18457 0.0
C1703 C 0.14977 0.81888 0.18292 0.0
C1704 C 0.19537 0.82913 0.20274 0.0
C1705 C 0.145 0.79944 0.19933 0.0
C1706 C 0.16455 0.79488 0.21693 0.0
C1707 C 0.2095 0.80498 0.23705 0.0
C1708 C 0.23511 0.81938 0.23902 0.0
C1709 C 0.1898 0.80964 0.21903 0.0
C1710 C 0.24045 0.83883 0.2228 0.0
C1711 C 0.22091 0.84369 0.20502 0.0
H1712 H 0.51612 0.88024 0.476 0.0
H1713 H 0.55478 0.86606 0.54963 0.0
H1714 H 0.56351 0.912 0.56819 0.0
H1715 H 0.56077 0.95749 0.56329 0.0
H1716 H 0.52161 0.96972 0.48905 0.0
H1717 H 0.51284 0.92404 0.47134 0.0
C1718 C 0.5264 0.88683 0.49626 0.0
C1719 C 0.53454 0.86871 0.51118 0.0
C1720 C 0.53153 0.91355 0.5068 0.0
C1721 C 0.54802 0.87875 0.53733 0.0
C1722 C 0.5531 0.90533 0.548 0.0
C1723 C 0.55034 0.95018 0.54319 0.0
C1724 C 0.54216 0.96777 0.52748 0.0
C1725 C 0.54508 0.92314 0.53293 0.0
C1726 C 0.52845 0.95733 0.50164 0.0
C1727 C 0.52333 0.93091 0.49147 0.0
H1728 H 0.53725 0.30827 0.7196 0.0
H1729 H 0.50173 0.29779 0.63703 0.0
H1730 H 0.45927 0.28951 0.65087 0.0
H1731 H 0.43261 0.27846 0.68581 0.0
H1732 H 0.46793 0.28962 0.76843 0.0
H1733 H 0.5103 0.30547 0.75555 0.0
C1734 C 0.52018 0.30492 0.70482 0.0
C1735 C 0.52233 0.30347 0.67741 0.0
C1736 C 0.49596 0.30036 0.71297 0.0
C1737 C 0.50033 0.29917 0.65826 0.0
C1738 C 0.47611 0.29428 0.66615 0.0
C1739 C 0.44957 0.28528 0.70099 0.0
C1740 C 0.44752 0.28285 0.72788 0.0
C1741 C 0.47371 0.29392 0.69334 0.0
C1742 C 0.46934 0.29152 0.7476 0.0
C1743 C 0.49349 0.30027 0.74019 0.0
H1744 H 0.08821 0.85484 0.68113 0.0
H1745 H 1.00837 0.81977 0.65071 0.0
H1746 H 1.00782 0.85313 0.62218 0.0
H1747 H 0.0318 0.88911 0.60213 0.0
H1748 H 0.11131 0.92467 0.63359 0.0
H1749 H 0.11029 0.89479 0.66626 0.0
C1750 C 0.07061 0.85493 0.66863 0.0
C1751 C 0.04839 0.83506 0.66769 0.0
C1752 C 0.07047 0.87419 0.65262 0.0
C1753 C 0.02559 0.83512 0.65168 0.0
C1754 C 0.02534 0.85405 0.63533 0.0
C1755 C 0.04862 0.89056 0.61665 0.0
C1756 C 0.07164 0.90862 0.61561 0.0
C1757 C 0.04786 0.87324 0.63511 0.0
C1758 C 0.09347 0.91069 0.63427 0.0
C1759 C 0.09291 0.89357 0.65274 0.0
H1760 H 0.46446 0.81437 0.8598 0.0
H1761 H 0.48756 0.84212 0.78818 0.0
H1762 H 0.44275 0.83926 0.7707 0.0
H1763 H 0.39555 0.82867 0.7753 0.0
H1764 H 0.37351 0.80113 0.84753 0.0
H1765 H 0.41817 0.80484 0.86483 0.0
C1766 C 0.45984 0.81965 0.84025 0.0
C1767 C 0.48018 0.82824 0.82546 0.0
C1768 C 0.43359 0.81839 0.83029 0.0
C1769 C 0.47298 0.83535 0.80032 0.0
C1770 C 0.44704 0.83377 0.79022 0.0
C1771 C 0.40045 0.8237 0.79495 0.0
C1772 C 0.38028 0.81457 0.80988 0.0
C1773 C 0.42693 0.82541 0.80498 0.0
C1774 C 0.38787 0.80811 0.83521 0.0
C1775 C 0.41375 0.81014 0.84525 0.0
H1776 H 0.52322 0.19111 0.1283 0.0
H1777 H 0.53158 0.16161 0.20302 0.0
H1778 H 0.53538 0.12104 0.17876 0.0
H1779 H 0.53853 0.09432 0.13583 0.0
H1780 H 0.52741 0.12436 0.06182 0.0
H1781 H 0.5226 0.16367 0.08595 0.0
C1782 C 0.52544 0.17569 0.13936 0.0
C1783 C 0.52687 0.17962 0.16762 0.0
C1784 C 0.52756 0.15233 0.12524 0.0
C1785 C 0.52992 0.15922 0.18132 0.0
C1786 C 0.53236 0.13598 0.16739 0.0
C1787 C 0.53498 0.10939 0.12493 0.0
C1788 C 0.53457 0.10636 0.09664 0.0
C1789 C 0.53153 0.13232 0.13927 0.0
C1790 C 0.5293 0.12623 0.08332 0.0
C1791 C 0.52612 0.14883 0.09724 0.0
H1792 H 0.16082 0.32961 0.35473 0.0
H1793 H 0.11459 0.27825 0.28555 0.0
H1794 H 0.15344 0.27132 0.2693 0.0
H1795 H 0.20169 0.28008 0.27387 0.0
H1796 H 0.24723 0.32791 0.34556 0.0
H1797 H 0.20866 0.33601 0.36071 0.0
C1798 C 0.15904 0.317 0.33596 0.0
C1799 C 0.13389 0.30491 0.32142 0.0
C1800 C 0.18197 0.31243 0.32679 0.0
C1801 C 0.133 0.28821 0.29742 0.0
C1802 C 0.15554 0.28416 0.28799 0.0
C1803 C 0.20341 0.29208 0.29296 0.0
C1804 C 0.22851 0.30353 0.30808 0.0
C1805 C 0.18035 0.29614 0.30237 0.0
C1806 C 0.2291 0.31909 0.33275 0.0
C1807 C 0.20663 0.32367 0.34171 0.0
H1808 H 0.9848 0.99812 0.19116 0.0
H1809 H 1.00493 0.07659 0.23074 0.0
H1810 H 0.02428 0.09104 0.19212 0.0
H1811 H 0.03218 0.08154 0.14503 0.0
H1812 H 0.019 1.00262 0.10913 0.0
H1813 H 0.99933 0.98815 0.14738 0.0
C1814 C 0.99407 0.01829 0.19158 0.0
C1815 C 0.99377 0.03624 0.21398 0.0
C1816 C 1.00547 0.02643 0.16935 0.0
C1817 C 1.00533 0.06238 0.21397 0.0
C1818 C 1.01612 0.07067 0.19171 0.0
C1819 C 0.02517 0.06119 0.14568 0.0
C1820 C 0.02574 0.04314 0.1234 0.0
C1821 C 1.01576 0.05294 0.16894 0.0
C1822 C 1.01744 0.01688 0.12519 0.0
C1823 C 1.00657 1.00859 0.14735 0.0
H1824 H 0.30375 0.71237 0.50048 0.0
H1825 H 0.24158 0.64454 0.47259 0.0
H1826 H 0.2248 0.66514 0.43693 0.0
H1827 H 0.2242 0.70465 0.41862 0.0
H1828 H 0.28577 0.77298 0.44622 0.0
H1829 H 0.30673 0.7502 0.47725 0.0
C1830 C 0.28731 0.70185 0.48567 0.0
C1831 C 0.27401 0.67705 0.48851 0.0
C1832 C 0.27725 0.71422 0.466 0.0
C1833 C 0.25228 0.66353 0.47004 0.0
C1834 C 0.24245 0.67543 0.45007 0.0
C1835 C 0.24214 0.71442 0.43161 0.0
C1836 C 0.25302 0.74046 0.43143 0.0
C1837 C 0.25407 0.70116 0.44878 0.0
C1838 C 0.27677 0.75304 0.44717 0.0
C1839 C 0.2888 0.74 0.46455 0.0
H1840 H 0.67424 0.04258 0.66949 0.0
H1841 H 0.64908 0.09649 0.72247 0.0
H1842 H 0.61286 0.09483 0.68851 0.0
H1843 H 0.58834 0.07766 0.64431 0.0
H1844 H 0.61101 0.02093 0.59229 0.0
H1845 H 0.64841 0.02398 0.62532 0.0
C1846 C 0.66095 0.05417 0.67314 0.0
C1847 C 0.66402 0.06984 0.69773 0.0
C1848 C 0.63984 0.05248 0.65397 0.0
C1849 C 0.64673 0.08447 0.70317 0.0
C1850 C 0.62609 0.08345 0.68398 0.0
C1851 C 0.6014 0.06586 0.6404 0.0
C1852 C 0.59757 0.04965 0.61602 0.0
C1853 C 0.62238 0.06736 0.65946 0.0
C1854 C 0.61425 0.03416 0.6109 0.0
C1855 C 0.6355 0.03578 0.6297 0.0
H1856 H 0.33779 0.32361 0.97603 0.0
H1857 H 0.30078 0.38481 0.96922 0.0
H1858 H 0.29354 0.37383 0.92024 0.0
H1859 H 0.29797 0.347 0.87877 0.0
H1860 H 0.33216 0.28391 0.88621 0.0
H1861 H 0.34047 0.29563 0.93478 0.0
C1862 C 0.328 0.33449 0.96389 0.0
C1863 C 0.3198 0.35503 0.97663 0.0
C1864 C 0.32359 0.32787 0.9355 0.0
C1865 C 0.30716 0.36879 0.96026 0.0
C1866 C 0.30308 0.36257 0.9321 0.0
C1867 C 0.30722 0.33576 0.89096 0.0
C1868 C 0.31503 0.31489 0.8783 0.0
C1869 C 0.31124 0.34216 0.9194 0.0
C1870 C 0.32669 0.30055 0.89485 0.0
C1871 C 0.33121 0.30709 0.92291 0.0
H1872 H 0.99345 0.99739 0.37329 0.0
H1873 H 1.00123 0.07723 0.36699 0.0
H1874 H 1.01706 0.08915 0.41538 0.0
H1875 H 0.02858 0.07672 0.46 0.0
H1876 H 1.0166 0.99652 0.46606 0.0
H1877 H 1.00264 0.98488 0.41787 0.0
C1878 C 0.99876 0.01743 0.38248 0.0
C1879 C 0.9964 0.03642 0.36639 0.0
C1880 C 1.00711 0.02406 0.41051 0.0
C1881 C 1.00287 0.06222 0.37882 0.0
C1882 C 1.01193 0.06904 0.40655 0.0
C1883 C 0.02281 0.05669 0.4508 0.0
C1884 C 0.02453 0.03744 0.4669 0.0
C1885 C 1.01403 0.05012 0.42272 0.0
C1886 C 1.01668 1.01169 0.45434 0.0
C1887 C 1.00833 1.00503 0.42663 0.0
H1888 H 0.31804 0.6924 0.66024 0.0
H1889 H 0.26013 0.71301 0.60813 0.0
H1890 H 0.25652 0.74542 0.64416 0.0
H1891 H 0.26825 0.766 0.69117 0.0
H1892 H 0.32912 0.7479 0.74154 0.0
H1893 H 0.33266 0.71579 0.70564 0.0
C1894 C 0.30487 0.70423 0.65677 0.0
C1895 C 0.28936 0.7005 0.6319 0.0
C1896 C 0.30302 0.72277 0.67733 0.0
C1897 C 0.27244 0.71589 0.62728 0.0
C1898 C 0.27019 0.7342 0.64784 0.0
C1899 C 0.28233 0.75508 0.69414 0.0
C1900 C 0.29763 0.75847 0.71912 0.0
C1901 C 0.28513 0.73751 0.67305 0.0
C1902 C 0.3162 0.74467 0.7228 0.0
C1903 C 0.31858 0.72661 0.70218 0.0
H1904 H 0.68175 0.06605 0.86106 0.0
H1905 H 0.61825 0.06852 0.80282 0.0
H1906 H 0.59448 0.07857 0.8387 0.0
H1907 H 0.59527 0.09407 0.88603 0.0
H1908 H 0.65958 0.09423 0.9445 0.0
H1909 H 0.67985 0.07577 0.90919 0.0
C1910 C 0.66232 0.0678 0.8564 0.0
C1911 C 0.65162 0.06682 0.82973 0.0
C1912 C 0.64942 0.07488 0.87706 0.0
C1913 C 0.62665 0.06936 0.82349 0.0
C1914 C 0.61324 0.07536 0.8439 0.0
C1915 C 0.61373 0.09004 0.89085 0.0
C1916 C 0.62656 0.0962 0.91723 0.0
C1917 C 0.62507 0.07957 0.87064 0.0
C1918 C 0.64991 0.09011 0.9239 0.0
C1919 C 0.66133 0.07946 0.90387 0.0
H1920 H 0.34253 0.34196 0.13371 0.0
H1921 H 0.27802 0.37488 0.13252 0.0
H1922 H 0.26702 0.35731 0.17297 0.0
H1923 H 0.2768 0.33409 0.21056 0.0
H1924 H 0.34142 0.30163 0.21195 0.0
H1925 H 0.35149 0.31761 0.17051 0.0
C1926 C 0.32587 0.34493 0.14209 0.0
C1927 C 0.31111 0.35969 0.12992 0.0
C1928 C 0.31985 0.33512 0.16592 0.0
C1929 C 0.2898 0.36367 0.14144 0.0
C1930 C 0.2835 0.35368 0.16471 0.0
C1931 C 0.29305 0.33055 0.20174 0.0
C1932 C 0.30826 0.31642 0.21436 0.0
C1933 C 0.29861 0.33973 0.17749 0.0
C1934 C 0.32912 0.31189 0.20244 0.0
C1935 C 0.33498 0.32121 0.17873 0.0
H1936 H 0.2374 0.99038 1.00263 0.0
H1937 H 0.29839 0.03418 0.06567 0.0
H1938 H 0.26737 0.04702 0.09116 0.0
H1939 H 0.22296 0.04089 0.09831 0.0
H1940 H 0.16164 0.99803 0.03576 0.0
H1941 H 0.19286 0.98944 0.00704 0.0
C1942 C 0.2439 1.00335 0.02156 0.0
C1943 C 0.26994 1.01092 0.03253 0.0
C1944 C 0.22598 1.01012 0.03645 0.0
C1945 C 0.27832 0.02798 0.05688 0.0
C1946 C 0.26063 0.03509 0.07167 0.0
C1947 C 0.21664 0.02946 0.07847 0.0
C1948 C 0.19056 0.01891 0.0693 0.0
C1949 C 0.23446 0.02525 0.06218 0.0
C1950 C 0.18197 1.00528 0.04323 0.0
C1951 C 0.19968 1.0007 0.02686 0.0
H1952 H 0.68711 0.66202 0.01531 0.0
H1953 H 0.73477 0.61759 0.05006 0.0
H1954 H 0.69696 0.58597 0.05713 0.0
H1955 H 0.65039 0.57237 0.05648 0.0
H1956 H 0.60251 0.61485 0.01846 0.0
H1957 H 0.64023 0.64585 0.0104 0.0
C1958 C 0.68921 0.64525 0.02408 0.0
C1959 C 0.71383 0.64241 0.0322 0.0
C1960 C 0.66729 0.62685 0.02797 0.0
C1961 C 0.71612 0.62042 0.0435 0.0
C1962 C 0.69446 0.60229 0.04775 0.0
C1963 C 0.64809 0.58796 0.04582 0.0
C1964 C 0.62346 0.59098 0.03804 0.0
C1965 C 0.66994 0.6055 0.04045 0.0
C1966 C 0.62112 0.6119 0.02486 0.0
C1967 C 0.64275 0.62972 0.02011 0.0
H1968 H 0.6966 0.48939 0.31896 0.0
H1969 H 0.7261 0.52702 0.2546 0.0
H1970 H 0.74513 0.4921 0.2417 0.0
H1971 H 0.74988 0.44898 0.24585 0.0
H1972 H 0.72084 0.41088 0.30974 0.0
H1973 H 0.70541 0.44799 0.32603 0.0
C1974 C 0.70746 0.49008 0.30235 0.0
C1975 C 0.70965 0.51063 0.28761 0.0
C1976 C 0.71834 0.46983 0.29491 0.0
C1977 C 0.72392 0.51133 0.2662 0.0
C1978 C 0.73483 0.49137 0.25875 0.0
C1979 C 0.7405 0.44913 0.26358 0.0
C1980 C 0.73611 0.42749 0.27655 0.0
C1981 C 0.73163 0.47028 0.27254 0.0
C1982 C 0.72423 0.42756 0.29958 0.0
C1983 C 0.71535 0.44864 0.30874 0.0
H1984 H 0.88227 0.51158 0.51771 0.0
H1985 H 0.89903 0.43877 0.52589 0.0
H1986 H 0.9444 0.46061 0.5395 0.0
H1987 H 0.97835 0.50003 0.55023 0.0
H1988 H 0.96204 0.5729 0.54142 0.0
H1989 H 0.91658 0.55113 0.52755 0.0
C1990 C 0.89587 0.50042 0.52213 0.0
C1991 C 0.88752 0.47369 0.52091 0.0
C1992 C 0.92159 0.51305 0.53037 0.0
C1993 C 0.90521 0.45943 0.52677 0.0
C1994 C 0.931 0.47187 0.53471 0.0
C1995 C 0.96485 0.51123 0.54552 0.0
C1996 C 0.97324 0.53792 0.54679 0.0
C1997 C 0.93922 0.49865 0.53697 0.0
C1998 C 0.95572 0.55225 0.5406 0.0
C1999 C 0.92991 0.53984 0.53249 0.0
H2000 H 0.37342 0.1174 0.33653 0.0
H2001 H 0.31297 0.05198 0.29551 0.0
H2002 H 0.29469 0.0797 0.26925 0.0
H2003 H 0.30116 0.12063 0.25213 0.0
H2004 H 0.36272 0.18549 0.29117 0.0
H2005 H 0.3759 0.15973 0.32409 0.0
C2006 C 0.35577 0.10937 0.3225 0.0
C2007 C 0.34493 0.08281 0.31722 0.0
C2008 C 0.34633 0.12506 0.30649 0.0
C2009 C 0.32183 0.07249 0.29942 0.0
C2010 C 0.31158 0.0882 0.28419 0.0
C2011 C 0.3176 0.12882 0.26777 0.0
C2012 C 0.33209 0.15401 0.26881 0.0
C2013 C 0.3247 0.11411 0.28639 0.0
C2014 C 0.3524 0.16547 0.28967 0.0
C2015 C 0.35956 0.15098 0.30855 0.0
H2016 H 0.36059 0.15391 0.52799 0.0
H2017 H 0.33019 0.13829 0.60091 0.0
H2018 H 0.36467 0.11895 0.61423 0.0
H2019 H 0.40545 0.10993 0.60723 0.0
H2020 H 0.43617 0.12453 0.53456 0.0
H2021 H 0.39931 0.14036 0.51868 0.0
C2022 C 0.36146 0.1461 0.54667 0.0
C2023 C 0.34311 0.14787 0.56359 0.0
C2024 C 0.38134 0.13485 0.55423 0.0
C2025 C 0.34419 0.13733 0.58758 0.0
C2026 C 0.3639 0.12627 0.59527 0.0
C2027 C 0.40381 0.11637 0.5878 0.0
C2028 C 0.4234 0.11668 0.5722 0.0
C2029 C 0.38284 0.12545 0.57905 0.0
C2030 C 0.42117 0.12444 0.54685 0.0
C2031 C 0.40025 0.13356 0.53791 0.0
H2032 H 0.70622 0.63732 0.28348 0.0
H2033 H 0.70516 0.65388 0.36847 0.0
H2034 H 0.73237 0.6976 0.36981 0.0
H2035 H 0.7549 0.7316 0.34595 0.0
H2036 H 0.75545 0.71413 0.26088 0.0
H2037 H 0.72925 0.67046 0.26006 0.0
C2038 C 0.71208 0.65054 0.3023 0.0
C2039 C 0.70379 0.6427 0.32585 0.0
C2040 C 0.72716 0.67552 0.30271 0.0
C2041 C 0.7112 0.65982 0.35011 0.0
C2042 C 0.72671 0.6847 0.35083 0.0
C2043 C 0.7492 0.71811 0.32735 0.0
C2044 C 0.75688 0.72584 0.3035 0.0
C2045 C 0.73449 0.69288 0.32715 0.0
C2046 C 0.74985 0.70833 0.27947 0.0
C2047 C 0.73486 0.68345 0.27899 0.0
H2048 H 0.89509 0.45513 0.82807 0.0
H2049 H 0.82238 0.47329 0.83188 0.0
H2050 H 0.79994 0.42799 0.81981 0.0
H2051 H 0.80114 0.38373 0.80958 0.0
H2052 H 0.87356 0.3648 0.80768 0.0
H2053 H 0.89615 0.41047 0.81658 0.0
C2054 C 0.87435 0.44912 0.82633 0.0
C2055 C 0.86036 0.46726 0.831 0.0
C2056 C 0.86161 0.42323 0.81926 0.0
C2057 C 0.83353 0.45946 0.8287 0.0
C2058 C 0.82067 0.4337 0.82155 0.0
C2059 C 0.82186 0.38969 0.81082 0.0
C2060 C 0.83584 0.37139 0.80825 0.0
C2061 C 0.83456 0.41554 0.81687 0.0
C2062 C 0.86255 0.37891 0.80948 0.0
C2063 C 0.87543 0.40486 0.81488 0.0
H2064 H 0.04509 0.89176 0.09566 0.0
H2065 H 0.12314 0.90519 0.08052 0.0
H2066 H 0.12243 0.94797 0.07044 0.0
H2067 H 0.10003 0.98321 0.06544 0.0
H2068 H 0.02062 0.96803 0.07568 0.0
H2069 H 0.0217 0.92605 0.08772 0.0
C2070 C 0.06205 0.90385 0.09012 0.0
C2071 C 0.08436 0.89414 0.08925 0.0
C2072 C 0.06134 0.929 0.08327 0.0
C2073 C 0.10562 0.91109 0.0816 0.0
C2074 C 0.10525 0.93603 0.07577 0.0
C2075 C 0.08281 0.97085 0.07023 0.0
C2076 C 0.06013 0.98001 0.06952 0.0
C2077 C 0.08328 0.94548 0.07645 0.0
C2078 C 0.03841 0.96257 0.07575 0.0
C2079 C 0.03904 0.93808 0.0828 0.0
H2080 H 0.95335 0.2735 0.88016 0.0
H2081 H 0.92333 0.29047 0.95319 0.0
H2082 H 0.88408 0.29429 0.92691 0.0
H2083 H 0.85782 0.29321 0.88279 0.0
H2084 H 0.88854 0.27644 0.81026 0.0
H2085 H 0.92723 0.27226 0.83641 0.0
C2086 C 0.93824 0.27792 0.89046 0.0
C2087 C 0.94168 0.28155 0.91894 0.0
C2088 C 0.91554 0.28036 0.87511 0.0
C2089 C 0.9216 0.28751 0.93149 0.0
C2090 C 0.89896 0.2897 0.91636 0.0
C2091 C 0.87294 0.28878 0.87256 0.0
C2092 C 0.87009 0.28611 0.84405 0.0
C2093 C 0.89562 0.28624 0.88807 0.0
C2094 C 0.89012 0.27973 0.83181 0.0
C2095 C 0.91238 0.277 0.84692 0.0
H2096 H 0.55324 0.21374 0.61317 0.0
H2097 H 0.61629 0.23938 0.57062 0.0
H2098 H 0.61633 0.19421 0.55659 0.0
H2099 H 0.59834 0.146 0.55691 0.0
H2100 H 0.53625 0.12317 0.6016 0.0
H2101 H 0.53572 0.16751 0.61333 0.0
C2102 C 0.56692 0.20974 0.60047 0.0
C2103 C 0.58451 0.23086 0.59285 0.0
C2104 C 0.56698 0.18351 0.59266 0.0
C2105 C 0.60202 0.22426 0.57655 0.0
C2106 C 0.60219 0.1981 0.56869 0.0
C2107 C 0.58482 0.15058 0.56943 0.0
C2108 C 0.56707 0.12994 0.57808 0.0
C2109 C 0.58482 0.17728 0.57673 0.0
C2110 C 0.54985 0.13748 0.59408 0.0
C2111 C 0.54963 0.16333 0.60104 0.0
H2112 H 0.60412 0.78511 0.44507 0.0
H2113 H 0.54523 0.78828 0.38139 0.0
H2114 H 0.57646 0.79496 0.35079 0.0
H2115 H 0.62115 0.8056 0.34348 0.0
H2116 H 0.68089 0.80432 0.40655 0.0
H2117 H 0.64876 0.7904 0.43564 0.0
C2118 C 0.59801 0.78671 0.42436 0.0
C2119 C 0.57226 0.78643 0.4158 0.0
C2120 C 0.61628 0.79086 0.40665 0.0
C2121 C 0.56484 0.78861 0.3888 0.0
C2122 C 0.58272 0.79244 0.37115 0.0
C2123 C 0.62699 0.80143 0.3633 0.0
C2124 C 0.65322 0.80588 0.37291 0.0
C2125 C 0.60856 0.79434 0.38005 0.0
C2126 C 0.66074 0.8007 0.39867 0.0
C2127 C 0.64238 0.79311 0.41539 0.0
H2128 H 0.08871 0.28376 0.45364 0.0
H2129 H 0.02319 0.25359 0.3914 0.0
H2130 H 1.00996 0.21535 0.41231 0.0
H2131 H 1.01488 0.19203 0.44995 0.0
H2132 H 0.08001 0.22062 0.51256 0.0
H2133 H 0.09625 0.25719 0.48943 0.0
C2134 C 0.07171 0.26864 0.44468 0.0
C2135 C 0.05682 0.27146 0.42111 0.0
C2136 C 0.06437 0.24627 0.45666 0.0
C2137 C 0.03493 0.25174 0.4095 0.0
C2138 C 0.02736 0.22986 0.42141 0.0
C2139 C 0.03298 0.20596 0.45814 0.0
C2140 C 0.04619 0.20379 0.48291 0.0
C2141 C 0.04172 0.22706 0.44512 0.0
C2142 C 0.06961 0.22186 0.49341 0.0
C2143 C 0.07867 0.24295 0.48036 0.0
H2144 H 0.63656 0.29217 0.22588 0.0
H2145 H 0.61244 0.2425 0.2832 0.0
H2146 H 0.65767 0.24396 0.29849 0.0
H2147 H 0.70548 0.2594 0.2952 0.0
H2148 H 0.72678 0.30798 0.23583 0.0
H2149 H 0.68239 0.30727 0.22278 0.0
C2150 C 0.64092 0.2818 0.24203 0.0
C2151 C 0.62022 0.26749 0.25339 0.0
C2152 C 0.66719 0.2826 0.25064 0.0
C2153 C 0.62726 0.25421 0.27418 0.0
C2154 C 0.65344 0.25488 0.28282 0.0
C2155 C 0.70055 0.26971 0.27926 0.0
C2156 C 0.72074 0.284 0.26686 0.0
C2157 C 0.67385 0.26895 0.27114 0.0
C2158 C 0.71281 0.29713 0.24636 0.0
C2159 C 0.68694 0.29662 0.2386 0.0
H2160 H 0.6017 0.92388 0.94638 0.0
H2161 H 0.52159 0.8843 0.92602 0.0
H2162 H 0.51081 0.91691 0.95721 0.0
H2163 H 0.52431 0.95738 0.99111 0.0
H2164 H 0.60363 1.00006 0.00449 0.0
H2165 H 0.61446 0.96613 0.97619 0.0
C2166 C 0.58186 0.92249 0.9486 0.0
C2167 C 0.56252 0.90148 0.93366 0.0
C2168 C 0.57565 0.94196 0.96598 0.0
C2169 C 0.5369 0.90025 0.93692 0.0
C2170 C 0.53073 0.91891 0.95498 0.0
C2171 C 0.54401 0.9591 0.98806 0.0
C2172 C 0.56338 0.98105 1.00143 0.0
C2173 C 0.54994 0.93992 0.96982 0.0
C2174 C 0.5885 0.98318 0.99596 0.0
C2175 C 0.59469 0.96374 0.97925 0.0
H2176 H 0.93491 0.73597 0.7548 0.0
H2177 H 0.97731 0.81562 0.7699 0.0
H2178 H 0.93899 0.82796 0.78165 0.0
H2179 H 0.8921 0.81666 0.78783 0.0
H2180 H 0.84907 0.73715 0.76858 0.0
H2181 H 0.88762 0.725 0.7583 0.0
C2182 C 0.93603 0.7561 0.76076 0.0
C2183 C 0.96013 0.77463 0.76162 0.0
C2184 C 0.91306 0.76339 0.76679 0.0
C2185 C 0.95986 0.80057 0.76895 0.0
C2186 C 0.93758 0.80775 0.77577 0.0
C2187 C 0.89094 0.79659 0.78151 0.0
C2188 C 0.8666 0.778 0.77965 0.0
C2189 C 0.91382 0.78943 0.77484 0.0
C2190 C 0.86667 0.75226 0.77075 0.0
C2191 C 0.88913 0.74514 0.76475 0.0
H2192 H 0.1263 0.05578 0.90372 0.0
H2193 H 0.06558 0.08768 0.87288 0.0
H2194 H 0.04741 0.0842 0.91447 0.0
H2195 H 0.04917 0.07349 0.96063 0.0
H2196 H 0.11024 0.04233 0.99212 0.0
H2197 H 0.12785 0.04468 0.95009 0.0
C2198 C 0.10899 0.06181 0.906 0.0
C2199 C 0.09739 0.07196 0.88482 0.0
C2200 C 0.09872 0.06017 0.93049 0.0
C2201 C 0.0751 0.07989 0.8886 0.0
C2202 C 0.06463 0.07792 0.91253 0.0
C2203 C 0.06616 0.06689 0.95827 0.0
C2204 C 0.07802 0.05739 0.97981 0.0
C2205 C 0.07633 0.06829 0.93377 0.0
C2206 C 0.10042 0.04956 0.97615 0.0
C2207 C 0.11057 0.05088 0.95194 0.0
H2208 H 0.79213 0.37711 0.56861 0.0
H2209 H 0.81446 0.4538 0.61388 0.0
H2210 H 0.83012 0.43728 0.65352 0.0
H2211 H 0.84443 0.40243 0.67227 0.0
H2212 H 0.82724 0.32746 0.62443 0.0
H2213 H 0.80262 0.34183 0.5885 0.0
C2214 C 0.79976 0.39017 0.58733 0.0
C2215 C 0.80249 0.41668 0.58828 0.0
C2216 C 0.81019 0.38086 0.60929 0.0
C2217 C 0.81232 0.43331 0.61269 0.0
C2218 C 0.82151 0.42392 0.63523 0.0
C2219 C 0.8349 0.3893 0.65406 0.0
C2220 C 0.83769 0.36419 0.65042 0.0
C2221 C 0.82171 0.39799 0.63328 0.0
C2222 C 0.82543 0.347 0.6271 0.0
C2223 C 0.81136 0.35518 0.60676 0.0
H2224 H 0.45339 0.05719 0.43056 0.0
H2225 H 0.47511 0.99284 0.39023 0.0
H2226 H 0.50111 0.9898 0.43157 0.0
H2227 H 0.52303 1.01006 0.47618 0.0
H2228 H 0.50673 0.07824 0.51416 0.0
H2229 H 0.47234 0.07482 0.47718 0.0
C2230 C 0.46343 0.04223 0.43108 0.0
C2231 C 0.46291 0.02561 0.4076 0.0
C2232 C 0.47894 0.04115 0.45456 0.0
C2233 C 0.47581 1.00618 0.40817 0.0
C2234 C 0.49053 1.00433 0.43173 0.0
C2235 C 0.51103 0.02334 0.47673 0.0
C2236 C 0.51604 0.04347 0.49807 0.0
C2237 C 0.49295 0.02233 0.45465 0.0
C2238 C 0.50173 0.06165 0.49849 0.0
C2239 C 0.48262 0.06006 0.47709 0.0
H2240 H 0.78046 0.77333 0.11944 0.0
H2241 H 0.79781 0.70159 0.13181 0.0
H2242 H 0.79911 0.71202 0.17955 0.0
H2243 H 0.79613 0.74106 0.21893 0.0
H2244 H 0.77997 0.81351 0.20915 0.0
H2245 H 0.77739 0.80326 0.16031 0.0
C2246 C 0.78465 0.76008 0.13256 0.0
C2247 C 0.78934 0.73675 0.12133 0.0
C2248 C 0.78559 0.76624 0.16096 0.0
C2249 C 0.79451 0.7199 0.13919 0.0
C2250 C 0.79518 0.72574 0.16686 0.0
C2251 C 0.79205 0.75472 0.20622 0.0
C2252 C 0.7881 0.77802 0.21808 0.0
C2253 C 0.79091 0.74884 0.17808 0.0
C2254 C 0.78273 0.79524 0.20087 0.0
C2255 C 0.78143 0.78943 0.17277 0.0
H2256 H 0.11418 0.03461 0.7103 0.0
H2257 H 0.08684 0.09857 0.74165 0.0
H2258 H 0.07026 0.10309 0.69581 0.0
H2259 H 0.06408 0.08907 0.64609 0.0
H2260 H 0.09589 0.02795 0.61599 0.0
H2261 H 0.10866 0.02122 0.6615 0.0
C2262 C 0.1042 0.04929 0.70722 0.0
C2263 C 0.10136 0.06586 0.72969 0.0
C2264 C 0.09505 0.05203 0.68072 0.0
C2265 C 0.08869 0.08501 0.72499 0.0
C2266 C 0.07938 0.08776 0.69864 0.0
C2267 C 0.07384 0.07434 0.64944 0.0
C2268 C 0.07859 0.05877 0.62711 0.0
C2269 C 0.08251 0.07142 0.67622 0.0
C2270 C 0.09146 0.03992 0.63232 0.0
C2271 C 0.09905 0.03619 0.65857 0.0
H2272 H 0.8313 0.36748 0.45386 0.0
H2273 H 0.77543 0.40569 0.42367 0.0
H2274 H 0.77374 0.38376 0.37801 0.0
H2275 H 0.78631 0.35171 0.348 0.0
H2276 H 0.84299 0.31465 0.37914 0.0
H2277 H 0.84635 0.3386 0.42373 0.0
C2278 C 0.81856 0.37087 0.43734 0.0
C2279 C 0.80293 0.38742 0.44193 0.0
C2280 C 0.81793 0.35858 0.41161 0.0
C2281 C 0.78724 0.39252 0.42039 0.0
C2282 C 0.78635 0.38011 0.39444 0.0
C2283 C 0.79955 0.34908 0.36451 0.0
C2284 C 0.81394 0.33113 0.36069 0.0
C2285 C 0.80134 0.3628 0.38999 0.0
C2286 C 0.83134 0.32807 0.38197 0.0
C2287 C 0.8333 0.34171 0.40735 0.0
H2288 H 0.43291 0.06022 0.24523 0.0
H2289 H 0.45353 1.00928 0.29771 0.0
H2290 H 0.46904 0.9865 0.26152 0.0
H2291 H 0.47503 0.97998 0.21472 0.0
H2292 H 0.45572 0.03102 0.16168 0.0
H2293 H 0.44208 0.05549 0.19845 0.0
C2294 C 0.44125 0.04443 0.24861 0.0
C2295 C 0.44253 0.03646 0.27379 0.0
C2296 C 0.45026 0.03152 0.22775 0.0
C2297 C 0.45295 0.01585 0.27835 0.0
C2298 C 0.46162 1.00276 0.25772 0.0
C2299 C 0.46762 0.99634 0.21124 0.0
C2300 C 0.46568 1.0034 0.18564 0.0
C2301 C 0.46004 1.01022 0.2323 0.0
C2302 C 0.45699 0.02515 0.18135 0.0
C2303 C 0.4492 0.03908 0.20227 0.0
H2304 H 0.7685 0.77072 0.964 0.0
H2305 H 0.79959 0.70513 0.95271 0.0
H2306 H 0.8059 0.71285 0.90706 0.0
H2307 H 0.80267 0.73859 0.86946 0.0
H2308 H 0.77442 0.80593 0.88333 0.0
H2309 H 0.76707 0.79718 0.92785 0.0
C2310 C 0.77676 0.75812 0.95166 0.0
C2311 C 0.78353 0.73732 0.9622 0.0
C2312 C 0.78084 0.76297 0.92538 0.0
C2313 C 0.79431 0.72141 0.94555 0.0
C2314 C 0.79785 0.72577 0.91922 0.0
C2315 C 0.79483 0.75128 0.88217 0.0
C2316 C 0.78896 0.77286 0.87238 0.0
C2317 C 0.79119 0.74652 0.90874 0.0
C2318 C 0.77906 0.7891 0.8897 0.0
C2319 C 0.77485 0.78415 0.9155 0.0
H2320 H 0.85385 0.13057 0.08713 0.0
H2321 H 0.80347 0.05605 0.05392 0.0
H2322 H 0.83825 0.04374 0.03358 0.0
H2323 H 0.88164 0.05622 0.02181 0.0
H2324 H 0.93149 0.13117 0.05418 0.0
H2325 H 0.89837 0.14142 0.07912 0.0
C2326 C 0.85081 0.11146 0.07593 0.0
C2327 C 0.82657 0.09409 0.07187 0.0
C2328 C 0.87059 0.10486 0.06412 0.0
C2329 C 0.82235 0.0694 0.05745 0.0
C2330 C 0.84205 0.06253 0.04566 0.0
C2331 C 0.88504 0.07474 0.03439 0.0
C2332 C 0.90821 0.09337 0.03581 0.0
C2333 C 0.86599 0.08041 0.04826 0.0
C2334 C 0.9132 0.11709 0.05243 0.0
C2335 C 0.89446 0.12279 0.0667 0.0
H2336 H 0.42191 0.42991 0.07332 0.0
H2337 H 0.37812 0.48402 0.05644 0.0
H2338 H 0.41731 0.516 0.05244 0.0
H2339 H 0.46416 0.52818 0.05263 0.0
H2340 H 0.50779 0.47505 0.07429 0.0
H2341 H 0.46873 0.44324 0.07699 0.0
C2342 C 0.42096 0.4487 0.06876 0.0
C2343 C 0.39713 0.45446 0.06498 0.0
C2344 C 0.44362 0.46724 0.06717 0.0
C2345 C 0.39626 0.47907 0.05947 0.0
C2346 C 0.41866 0.49736 0.0571 0.0
C2347 C 0.46523 0.50986 0.05836 0.0
C2348 C 0.48919 0.5043 0.06323 0.0
C2349 C 0.44251 0.49165 0.06083 0.0
C2350 C 0.48986 0.48014 0.07035 0.0
C2351 C 0.46741 0.46176 0.07192 0.0
H2352 H 0.41883 0.60253 0.80563 0.0
H2353 H 0.37052 0.56491 0.73076 0.0
H2354 H 0.34503 0.59596 0.73477 0.0
H2355 H 0.3337 0.63114 0.76171 0.0
H2356 H 0.38108 0.66847 0.83678 0.0
H2357 H 0.41009 0.64075 0.83031 0.0
C2358 C 0.40285 0.60125 0.79011 0.0
C2359 C 0.39641 0.58117 0.76814 0.0
C2360 C 0.38816 0.61921 0.79253 0.0
C2361 C 0.37581 0.58001 0.74802 0.0
C2362 C 0.36119 0.59778 0.75025 0.0
C2363 C 0.35072 0.63345 0.77627 0.0
C2364 C 0.35539 0.65151 0.79967 0.0
C2365 C 0.36683 0.61709 0.77268 0.0
C2366 C 0.37731 0.65455 0.81861 0.0
C2367 C 0.39372 0.63862 0.81499 0.0
H2368 H 0.20619 0.59402 0.60116 0.0
H2369 H 0.20249 0.5938 0.51567 0.0
H2370 H 0.15555 0.58127 0.50991 0.0
H2371 H 0.11579 0.57159 0.52997 0.0
H2372 H 0.12098 0.57647 0.61581 0.0
H2373 H 0.16748 0.5864 0.62101 0.0
C2374 C 0.19514 0.59051 0.58117 0.0
C2375 C 0.20747 0.59411 0.55881 0.0
C2376 C 0.16861 0.58457 0.57826 0.0
C2377 C 0.19309 0.59053 0.53308 0.0
C2378 C 0.1664 0.5837 0.52983 0.0
C2379 C 0.12733 0.57491 0.54968 0.0
C2380 C 0.11552 0.57243 0.57252 0.0
C2381 C 0.15401 0.58099 0.55238 0.0
C2382 C 0.13006 0.57717 0.5981 0.0
C2383 C 0.15653 0.58302 0.60102 0.0
H2384 H 0.76084 1.00259 0.74202 0.0
H2385 H 0.70622 1.01069 0.79559 0.0
H2386 H 0.71596 0.97643 0.81818 0.0
H2387 H 0.74589 0.95071 0.82807 0.0
H2388 H 0.80255 0.94489 0.77668 0.0
H2389 H 0.78568 0.97135 0.74726 0.0
C2390 C 0.75069 0.99645 0.75824 0.0
C2391 C 0.73354 1.00948 0.76774 0.0
C2392 C 0.75692 0.97742 0.77163 0.0
C2393 C 0.71996 1.00113 0.78832 0.0
C2394 C 0.72552 0.98163 0.8013 0.0
C2395 C 0.75426 0.95514 0.81025 0.0
C2396 C 0.77582 0.94706 0.80483 0.0
C2397 C 0.74497 0.97074 0.79405 0.0
C2398 C 0.78617 0.95167 0.78129 0.0
C2399 C 0.7766 0.96672 0.76458 0.0
H2400 H 0.785 0.98376 0.58609 0.0
H2401 H 0.74546 0.90666 0.5473 0.0
H2402 H 0.70655 0.92022 0.53584 0.0
H2403 H 0.6854 0.95455 0.53216 0.0
H2404 H 0.72528 0.03256 0.56647 0.0
H2405 H 0.76218 0.01816 0.58525 0.0
C2406 C 0.76777 0.96995 0.57532 0.0
C2407 C 0.76814 0.94431 0.56718 0.0
C2408 C 0.74554 0.97804 0.56822 0.0
C2409 C 0.74575 0.92658 0.5533 0.0
C2410 C 0.72345 0.93426 0.54692 0.0
C2411 C 0.70196 0.96823 0.54441 0.0
C2412 C 0.70288 0.99445 0.54799 0.0
C2413 C 0.72334 0.95999 0.5537 0.0
C2414 C 0.72423 1.01221 0.56377 0.0
C2415 C 0.7454 1.004 0.5741 0.0
H2416 H 0.40675 0.44834 0.81814 0.0
H2417 H 0.38604 0.44439 0.73281 0.0
H2418 H 0.35714 0.40142 0.73019 0.0
H2419 H 0.33881 0.36411 0.75232 0.0
H2420 H 0.35428 0.37157 0.83857 0.0
H2421 H 0.38433 0.41373 0.84085 0.0
C2422 C 0.3959 0.43801 0.79901 0.0
C2423 C 0.39888 0.44919 0.77561 0.0
C2424 C 0.37856 0.41382 0.79786 0.0
C2425 C 0.38421 0.43599 0.75103 0.0
C2426 C 0.36774 0.41143 0.74953 0.0
C2427 C 0.34879 0.3751 0.77153 0.0
C2428 C 0.3451 0.36458 0.79521 0.0
C2429 C 0.36494 0.4 0.77279 0.0
C2430 C 0.3573 0.37922 0.8201 0.0
C2431 C 0.37443 0.4033 0.8214 0.0
H2432 H 0.2599 0.65959 0.3117 0.0
H2433 H 0.24654 0.63587 0.22583 0.0
H2434 H 0.25061 0.68012 0.21855 0.0
H2435 H 0.25984 0.72526 0.23645 0.0
H2436 H 0.28607 0.74981 0.32088 0.0
H2437 H 0.27298 0.70595 0.32965 0.0
C2438 C 0.25847 0.66442 0.29152 0.0
C2439 C 0.25378 0.64512 0.26932 0.0
C2440 C 0.26166 0.68989 0.2875 0.0
C2441 C 0.25119 0.65094 0.24311 0.0
C2442 C 0.25298 0.67601 0.23895 0.0
C2443 C 0.26201 0.72092 0.25683 0.0
C2444 C 0.2717 0.74083 0.27843 0.0
C2445 C 0.25831 0.69557 0.26099 0.0
C2446 C 0.27575 0.73521 0.30455 0.0
C2447 C 0.26949 0.70988 0.30928 0.0
H2448 H 0.57475 0.71955 0.53422 0.0
H2449 H 0.49505 0.69659 0.49909 0.0
H2450 H 0.49232 0.65245 0.50726 0.0
H2451 H 0.51271 0.61882 0.52478 0.0
H2452 H 0.59218 0.64327 0.55885 0.0
H2453 H 0.59469 0.68654 0.55104 0.0
C2454 C 0.55661 0.70509 0.52842 0.0
C2455 C 0.53507 0.71241 0.51606 0.0
C2456 C 0.55508 0.6791 0.53308 0.0
C2457 C 0.5121 0.69242 0.50871 0.0
C2458 C 0.5105 0.66676 0.51337 0.0
C2459 C 0.53064 0.63343 0.53038 0.0
C2460 C 0.55246 0.62647 0.54297 0.0
C2461 C 0.53188 0.65955 0.52555 0.0
C2462 C 0.57502 0.64684 0.54985 0.0
C2463 C 0.57648 0.6722 0.54513 0.0
H2464 H 0.69259 0.34395 0.67739 0.0
H2465 H 0.63825 0.28559 0.70702 0.0
H2466 H 0.67208 0.27906 0.73845 0.0
H2467 H 0.71743 0.289 0.75847 0.0
H2468 H 0.77286 0.347 0.73016 0.0
H2469 H 0.73893 0.3544 0.69838 0.0
C2470 C 0.68812 0.32992 0.69078 0.0
C2471 C 0.66232 0.31569 0.68955 0.0
C2472 C 0.70813 0.32607 0.7096 0.0
C2473 C 0.65747 0.29743 0.70731 0.0
C2474 C 0.67699 0.29345 0.72552 0.0
C2475 C 0.72216 0.30351 0.74563 0.0
C2476 C 0.74797 0.31744 0.74715 0.0
C2477 C 0.70242 0.30766 0.72706 0.0
C2478 C 0.75334 0.33584 0.72972 0.0
C2479 C 0.73382 0.34012 0.71135 0.0
H2480 H 1.01062 0.3768 0.04878 0.0
H2481 H 0.03962 0.37693 0.97332 0.0
H2482 H 0.0472 0.42359 0.97822 0.0
H2483 H 0.04656 0.46581 1.00398 0.0
H2484 H 0.01879 0.4661 0.07999 0.0
H2485 H 1.01029 0.41938 0.07489 0.0
C2486 C 0.01876 0.38691 0.03339 0.0
C2487 C 0.0247 0.37239 0.01065 0.0
C2488 C 0.0234 0.41456 0.03642 0.0
C2489 C 0.0351 0.38677 0.99124 0.0
C2490 C 0.03941 0.41383 0.99399 0.0
C2491 C 0.03849 0.45578 0.01945 0.0
C2492 C 0.03278 0.47041 0.04217 0.0
C2493 C 0.0338 0.42818 0.0165 0.0
C2494 C 0.0226 0.45616 0.06179 0.0
C2495 C 1.01798 0.42904 0.05901 0.0
H2496 H 0.98658 0.79645 0.15372 0.0
H2497 H 0.04384 0.81814 0.22462 0.0
H2498 H 1.01048 0.81489 0.25325 0.0
H2499 H 0.96557 0.79803 0.25788 0.0
H2500 H 0.9082 0.77151 0.18744 0.0
H2501 H 0.94069 0.78483 0.15866 0.0
C2502 C 0.99157 0.80122 0.1754 0.0
C2503 C 1.01736 0.80756 0.18726 0.0
C2504 C 0.97223 0.79815 0.19171 0.0
C2505 C 0.02394 0.81322 0.2153 0.0
C2506 C 1.00493 0.81129 0.23161 0.0
C2507 C 0.96018 0.79616 0.23628 0.0
C2508 C 0.93484 0.78406 0.22457 0.0
C2509 C 0.97907 0.80269 0.22004 0.0
C2510 C 0.92774 0.78114 0.19666 0.0
C2511 C 0.94632 0.78846 0.18028 0.0
H2512 H 0.55601 0.31246 0.12387 0.0
H2513 H 0.54582 0.34188 0.20358 0.0
H2514 H 0.55328 0.38521 0.19213 0.0
H2515 H 0.56672 0.41533 0.16093 0.0
H2516 H 0.57509 0.38626 0.08059 0.0
H2517 H 0.56375 0.34213 0.09048 0.0
C2518 C 0.555 0.32832 0.13854 0.0
C2519 C 0.55051 0.32404 0.16458 0.0
C2520 C 0.55901 0.35321 0.13171 0.0
C2521 C 0.54909 0.34467 0.18336 0.0
C2522 C 0.55349 0.36949 0.17689 0.0
C2523 C 0.56564 0.39923 0.14553 0.0
C2524 C 0.57199 0.40388 0.12025 0.0
C2525 C 0.55904 0.37406 0.15136 0.0
C2526 C 0.57027 0.38301 0.10022 0.0
C2527 C 0.56396 0.35784 0.10594 0.0
H2528 H 0.97787 0.32969 0.30474 0.0
H2529 H 0.97605 0.29336 0.37568 0.0
H2530 H 0.92937 0.28365 0.36921 0.0
H2531 H 0.8877 0.28618 0.34439 0.0
H2532 H 0.88902 0.32174 0.273 0.0
H2533 H 0.93561 0.33086 0.27879 0.0
C2534 C 0.96734 0.31906 0.31843 0.0
C2535 C 0.98134 0.31178 0.34046 0.0
C2536 C 0.93966 0.31364 0.31481 0.0
C2537 C 0.96649 0.29885 0.35821 0.0
C2538 C 0.93944 0.29338 0.35465 0.0
C2539 C 0.89803 0.29585 0.32996 0.0
C2540 C 0.88392 0.30373 0.3085 0.0
C2541 C 0.92558 0.30079 0.33316 0.0
C2542 C 0.89857 0.31615 0.2903 0.0
C2543 C 0.92564 0.32113 0.29341 0.0
H2544 H 0.04753 0.7129 0.64098 0.0
H2545 H 1.00164 0.67318 0.69439 0.0
H2546 H 1.00122 0.63178 0.66864 0.0
H2547 H 1.01489 0.60667 0.63133 0.0
H2548 H 0.06382 0.6476 0.58092 0.0
H2549 H 0.06154 0.68834 0.60475 0.0
C2550 C 0.03713 0.69527 0.64697 0.0
C2551 C 0.0244 0.69644 0.66966 0.0
C2552 C 0.03747 0.67152 0.63245 0.0
C2553 C 1.01136 0.67311 0.67696 0.0
C2554 C 1.01124 0.64935 0.66227 0.0
C2555 C 0.02511 0.62448 0.62554 0.0
C2556 C 0.03932 0.62367 0.60393 0.0
C2557 C 0.02441 0.64827 0.64005 0.0
C2558 C 0.05237 0.64719 0.597 0.0
C2559 C 0.05123 0.6707 0.6108 0.0
H2560 H 0.66352 0.83541 0.87865 0.0
H2561 H 0.6137 0.81091 0.80257 0.0
H2562 H 0.64928 0.80003 0.78184 0.0
H2563 H 0.69609 0.79703 0.78504 0.0
H2564 H 0.7448 0.82507 0.8617 0.0
H2565 H 0.70894 0.83414 0.88155 0.0
C2566 C 0.66009 0.82781 0.8574 0.0
C2567 C 0.63497 0.82431 0.84263 0.0
C2568 C 0.68107 0.82179 0.84534 0.0
C2569 C 0.63215 0.81428 0.815 0.0
C2570 C 0.65283 0.80786 0.80301 0.0
C2571 C 0.69904 0.80513 0.80611 0.0
C2572 C 0.72429 0.80993 0.82149 0.0
C2573 C 0.67765 0.81142 0.81787 0.0
C2574 C 0.72651 0.8207 0.84879 0.0
C2575 C 0.70563 0.82613 0.86041 0.0
H2576 H 0.47366 0.55205 0.69833 0.0
H2577 H 0.52802 0.51654 0.73679 0.0
H2578 H 0.55251 0.5214 0.69925 0.0
H2579 H 0.55748 0.53422 0.65401 0.0
H2580 H 0.50263 0.57017 0.61698 0.0
H2581 H 0.47962 0.56658 0.65517 0.0
C2582 C 0.49094 0.54544 0.69872 0.0
C2583 C 0.49881 0.53383 0.72059 0.0
C2584 C 0.50495 0.54832 0.67706 0.0
C2585 C 0.5214 0.52559 0.72044 0.0
C2586 C 0.53542 0.52831 0.69884 0.0
C2587 C 0.54072 0.54161 0.65448 0.0
C2588 C 0.53198 0.55254 0.63237 0.0
C2589 C 0.52729 0.53948 0.67685 0.0
C2590 C 0.50996 0.56167 0.63344 0.0
C2591 C 0.49667 0.5596 0.65538 0.0
H2592 H 0.81219 0.2151 0.0134 0.0
H2593 H 0.75388 0.14373 0.98823 0.0
H2594 H 0.73775 0.15987 0.94857 0.0
H2595 H 0.73647 0.19677 0.9252 0.0
H2596 H 0.79529 0.2678 0.94966 0.0
H2597 H 0.81552 0.24933 0.98544 0.0
C2598 C 0.79669 0.20282 0.99854 0.0
C2599 C 0.78426 0.1784 1.00331 0.0
C2600 C 0.78734 0.21238 0.97617 0.0
C2601 C 0.76398 0.16247 0.9844 0.0
C2602 C 0.75449 0.17183 0.96205 0.0
C2603 C 0.75378 0.20798 0.9384 0.0
C2604 C 0.76408 0.23365 0.9359 0.0
C2605 C 0.76534 0.19714 0.95845 0.0
C2606 C 0.78688 0.24813 0.95215 0.0
C2607 C 0.79844 0.23757 0.97234 0.0
H2608 H 0.16235 0.52873 0.17937 0.0
H2609 H 0.14751 0.58893 0.23359 0.0
H2610 H 0.11238 0.59232 0.2005 0.0
H2611 H 0.08816 0.57978 0.1549 0.0
H2612 H 0.10115 0.51658 0.10275 0.0
H2613 H 0.13477 0.51269 0.13629 0.0
C2614 C 0.15106 0.54224 0.18385 0.0
C2615 C 0.15698 0.55852 0.20827 0.0
C2616 C 0.13079 0.54363 0.1652 0.0
C2617 C 0.14266 0.5761 0.21455 0.0
C2618 C 0.1228 0.57812 0.19575 0.0
C2619 C 0.09796 0.56482 0.15124 0.0
C2620 C 0.09249 0.5488 0.12646 0.0
C2621 C 0.11693 0.56216 0.17085 0.0
C2622 C 0.10535 0.52952 0.12166 0.0
C2623 C 0.12457 0.52714 0.14078 0.0
H2624 H 0.80129 0.86482 0.47141 0.0
H2625 H 0.85204 0.81782 0.49159 0.0
H2626 H 0.84856 0.80074 0.44404 0.0
H2627 H 0.83109 0.79903 0.39604 0.0
H2628 H 0.78148 0.84736 0.37635 0.0
H2629 H 0.78418 0.86329 0.42373 0.0
C2630 C 0.81146 0.85069 0.46551 0.0
C2631 C 0.82675 0.84259 0.48549 0.0
C2632 C 0.80955 0.84098 0.43785 0.0
C2633 C 0.83991 0.82439 0.47701 0.0
C2634 C 0.83799 0.81458 0.44964 0.0
C2635 C 0.82104 0.81317 0.40199 0.0
C2636 C 0.80637 0.82203 0.38206 0.0
C2637 C 0.8229 0.82274 0.42975 0.0
C2638 C 0.79319 0.84016 0.39076 0.0
C2639 C 0.79466 0.84938 0.41809 0.0
H2640 H 0.47751 0.54376 0.88701 0.0
H2641 H 0.53162 0.50203 0.86398 0.0
H2642 H 0.54964 0.50542 0.91116 0.0
H2643 H 0.55096 0.52134 0.9591 0.0
H2644 H 0.4926 0.55696 0.98252 0.0
H2645 H 0.47634 0.55609 0.93541 0.0
C2646 C 0.49339 0.5356 0.89227 0.0
C2647 C 0.50342 0.52306 0.8717 0.0
C2648 C 0.50327 0.53695 0.91969 0.0
C2649 C 0.52364 0.51209 0.87917 0.0
C2650 C 0.53399 0.51398 0.90625 0.0
C2651 C 0.53435 0.52843 0.9541 0.0
C2652 C 0.52353 0.53981 0.97483 0.0
C2653 C 0.52401 0.52642 0.92673 0.0
C2654 C 0.50215 0.54911 0.96737 0.0
C2655 C 0.49252 0.54824 0.94026 0.0
H2656 H 0.82748 0.19657 0.15971 0.0
H2657 H 0.7452 0.17412 0.1383 0.0
H2658 H 0.74161 0.2101 0.17013 0.0
H2659 H 0.76186 0.24668 0.20533 0.0
H2660 H 0.84336 0.2651 0.23159 0.0
H2661 H 0.84772 0.23271 0.19586 0.0
C2662 C 0.80887 0.19951 0.16249 0.0
C2663 C 0.78664 0.18278 0.14757 0.0
C2664 C 0.80696 0.21981 0.18104 0.0
C2665 C 0.76246 0.18659 0.15054 0.0
C2666 C 0.76042 0.20729 0.16827 0.0
C2667 C 0.78054 0.24386 0.20262 0.0
C2668 C 0.8022 0.25776 0.22058 0.0
C2669 C 0.78254 0.22397 0.18364 0.0
C2670 C 0.82647 0.25422 0.21761 0.0
C2671 C 0.82892 0.23563 0.19752 0.0
H2672 H 0.17238 0.56156 0.36352 0.0
H2673 H 0.14327 0.61189 0.31556 0.0
H2674 H 0.12104 0.62487 0.35124 0.0
H2675 H 0.11408 0.62596 0.39765 0.0
H2676 H 0.1429 0.57661 0.44667 0.0
H2677 H 0.16056 0.55862 0.40872 0.0
C2678 C 0.16091 0.57511 0.36085 0.0
C2679 C 0.15997 0.58623 0.33734 0.0
C2680 C 0.14827 0.58273 0.38158 0.0
C2681 C 0.14466 0.60338 0.33375 0.0
C2682 C 0.13191 0.61085 0.35409 0.0
C2683 C 0.12419 0.61121 0.39987 0.0
C2684 C 0.12809 0.6031 0.42473 0.0
C2685 C 0.13435 0.60134 0.37835 0.0
C2686 C 0.14026 0.58335 0.42754 0.0
C2687 C 0.15034 0.57317 0.40598 0.0
H2688 H 0.82653 0.82896 0.63334 0.0
H2689 H 0.8033 0.89801 0.65655 0.0
H2690 H 0.79294 0.88365 0.69834 0.0
H2691 H 0.79084 0.85197 0.72961 0.0
H2692 H 0.81547 0.78358 0.70799 0.0
H2693 H 0.82427 0.79689 0.665 0.0
C2694 C 0.81909 0.84081 0.64745 0.0
C2695 C 0.81591 0.86471 0.64134 0.0
C2696 C 0.81325 0.83251 0.67216 0.0
C2697 C 0.80625 0.87964 0.6603 0.0
C2698 C 0.80019 0.87141 0.68445 0.0
C2699 C 0.79818 0.83994 0.71558 0.0
C2700 C 0.80253 0.81675 0.72253 0.0
C2701 C 0.80373 0.84797 0.69079 0.0
C2702 C 0.81188 0.80153 0.7036 0.0
C2703 C 0.81703 0.80918 0.67883 0.0
H2704 H 0.77279 0.52615 0.52079 0.0
H2705 H 0.72939 0.44667 0.50344 0.0
H2706 H 0.69599 0.45683 0.52739 0.0
H2707 H 0.68511 0.48608 0.5623 0.0
H2708 H 0.73099 0.56441 0.58328 0.0
H2709 H 0.75834 0.55691 0.5498 0.0
C2710 C 0.75546 0.51132 0.52134 0.0
C2711 C 0.7538 0.48568 0.51149 0.0
C2712 C 0.73774 0.51684 0.53716 0.0
C2713 C 0.73112 0.46657 0.51132 0.0
C2714 C 0.71236 0.47223 0.52561 0.0
C2715 C 0.70134 0.50125 0.55959 0.0
C2716 C 0.70732 0.52519 0.57584 0.0
C2717 C 0.71662 0.49681 0.54033 0.0
C2718 C 0.72722 0.54546 0.57156 0.0
C2719 C 0.7424 0.54132 0.55221 0.0
H2720 H 0.18723 0.16953 0.51472 0.0
H2721 H 0.23092 0.11466 0.52934 0.0
H2722 H 0.19215 0.08311 0.53431 0.0
H2723 H 0.14661 0.07252 0.53857 0.0
H2724 H 0.10207 0.12569 0.52024 0.0
H2725 H 0.14049 0.15667 0.51377 0.0
C2726 C 0.18821 0.15052 0.51845 0.0
C2727 C 0.21208 0.14471 0.52187 0.0
C2728 C 0.16575 0.13226 0.5213 0.0
C2729 C 0.2129 0.11989 0.52681 0.0
C2730 C 0.19071 0.10177 0.52981 0.0
C2731 C 0.14496 0.09039 0.53241 0.0
C2732 C 0.12111 0.09624 0.52965 0.0
C2733 C 0.1671 0.10794 0.52771 0.0
C2734 C 0.11997 0.12025 0.52235 0.0
C2735 C 0.14202 0.13815 0.51861 0.0
H2736 H 0.22938 0.02705 0.7883 0.0
H2737 H 0.15796 0.97673 0.7992 0.0
H2738 H 0.17544 0.93943 0.79102 0.0
H2739 H 0.20908 0.92106 0.77436 0.0
H2740 H 0.28048 0.97168 0.76414 0.0
H2741 H 0.26544 1.00916 0.77933 0.0
C2742 C 0.21787 1.00794 0.78941 0.0
C2743 C 0.1924 1.00444 0.79402 0.0
C2744 C 0.22813 0.98676 0.78496 0.0
C2745 C 0.17765 0.97975 0.79569 0.0
C2746 C 0.1876 0.95847 0.79093 0.0
C2747 C 0.2216 0.94033 0.77656 0.0
C2748 C 0.2458 0.94391 0.76839 0.0
C2749 C 0.21257 0.9617 0.78477 0.0
C2750 C 0.26189 0.96876 0.77071 0.0
C2751 C 0.25316 0.9901 0.77905 0.0
H2752 H 0.3964 0.95918 0.0364 0.0
H2753 H 0.37909 1.00404 0.97541 0.0
H2754 H 0.42391 0.02906 0.98265 0.0
H2755 H 0.467 0.03865 0.00722 0.0
H2756 H 0.48472 0.99264 0.06674 0.0
H2757 H 0.44003 0.96804 0.0601 0.0
C2758 C 0.40256 0.9742 0.02446 0.0
C2759 C 0.38485 0.97983 0.00535 0.0
C2760 C 0.42797 0.98865 0.02906 0.0
C2761 C 0.39269 0.99954 0.99024 0.0
C2762 C 0.41813 1.01386 0.99446 0.0
C2763 C 0.46111 0.02338 0.0189 0.0
C2764 C 0.47895 0.01769 0.03791 0.0
C2765 C 0.43577 1.00876 0.01408 0.0
C2766 C 0.47114 0.99762 0.05252 0.0
C2767 C 0.4457 0.98339 0.04845 0.0
H2768 H 0.88944 0.62012 0.82673 0.0
H2769 H 0.81836 0.58991 0.85518 0.0
H2770 H 0.80017 0.62228 0.83662 0.0
H2771 H 0.80143 0.65114 0.80329 0.0
H2772 H 0.87003 0.67567 0.76821 0.0
H2773 H 0.89246 0.65306 0.79782 0.0
C2774 C 0.87049 0.62168 0.83007 0.0
C2775 C 0.85519 0.60326 0.84243 0.0
C2776 C 0.85952 0.63848 0.81708 0.0
C2777 C 0.83039 0.60446 0.84605 0.0
C2778 C 0.81992 0.62255 0.83499 0.0
C2779 C 0.82152 0.65212 0.80275 0.0
C2780 C 0.83421 0.6647 0.78368 0.0
C2781 C 0.83378 0.63844 0.81902 0.0
C2782 C 0.86002 0.66569 0.78265 0.0
C2783 C 0.87279 0.65296 0.79962 0.0
H2784 H 0.87324 0.6849 0.08061 0.0
H2785 H 0.83099 0.62241 0.01894 0.0
H2786 H 0.86306 0.59848 0.0284 0.0
H2787 H 0.89932 0.59292 0.05935 0.0
H2788 H 0.93962 0.65473 0.12276 0.0
H2789 H 0.91272 0.68179 0.10725 0.0
C2790 C 0.8717 0.66645 0.06866 0.0
C2791 C 0.85031 0.65546 0.04886 0.0
C2792 C 0.88974 0.65267 0.07479 0.0
C2793 C 0.84775 0.63127 0.03392 0.0
C2794 C 0.86592 0.61756 0.0395 0.0
C2795 C 0.90256 0.61259 0.06914 0.0
C2796 C 0.92107 0.62196 0.09219 0.0
C2797 C 0.88648 0.62769 0.06057 0.0
C2798 C 0.92526 0.6473 0.10503 0.0
C2799 C 0.90984 0.66266 0.09626 0.0
H2800 H 0.2206 0.15067 0.85002 0.0
H2801 H 0.17658 0.13628 0.77071 0.0
H2802 H 0.20508 0.17405 0.75869 0.0
H2803 H 0.24318 0.21038 0.77019 0.0
H2804 H 0.28311 0.23012 0.8514 0.0
H2805 H 0.25713 0.19014 0.86285 0.0
C2806 C 0.2172 0.15616 0.83032 0.0
C2807 C 0.19653 0.14104 0.81126 0.0
C2808 C 0.23345 0.17831 0.82369 0.0
C2809 C 0.19234 0.14793 0.78565 0.0
C2810 C 0.20871 0.16933 0.7787 0.0
C2811 C 0.24572 0.20626 0.79056 0.0
C2812 C 0.26449 0.22326 0.81012 0.0
C2813 C 0.22939 0.18455 0.79747 0.0
C2814 C 0.26849 0.21721 0.83613 0.0
C2815 C 0.25353 0.19453 0.8427 0.0
H2816 H 0.39367 0.95011 0.31589 0.0
H2817 H 0.33355 0.97982 0.34523 0.0
H2818 H 0.30339 0.9374 0.3323 0.0
H2819 H 0.29469 0.89224 0.31319 0.0
H2820 H 0.35658 0.86244 0.28883 0.0
H2821 H 0.38525 0.90524 0.2976 0.0
C2822 C 0.37397 0.94731 0.31949 0.0
C2823 C 0.36572 0.96776 0.33143 0.0
C2824 C 0.35695 0.92325 0.31202 0.0
C2825 C 0.34026 0.96406 0.33619 0.0
C2826 C 0.323 0.94001 0.32859 0.0
C2827 C 0.31434 0.89524 0.30941 0.0
C2828 C 0.32336 0.8745 0.29952 0.0
C2829 C 0.33119 0.91955 0.3164 0.0
C2830 C 0.34891 0.87835 0.29513 0.0
C2831 C 0.3655 0.90271 0.30081 0.0
H2832 H 0.59967 0.41215 0.63162 0.0
H2833 H 0.57577 0.36969 0.5516 0.0
H2834 H 0.56394 0.40691 0.5359 0.0
H2835 H 0.56082 0.45332 0.544 0.0
H2836 H 0.58907 0.49648 0.62345 0.0
H2837 H 0.59837 0.4586 0.63925 0.0
C2838 C 0.59182 0.41079 0.61068 0.0
C2839 C 0.58867 0.38701 0.59314 0.0
C2840 C 0.58572 0.43319 0.60126 0.0
C2841 C 0.57868 0.38694 0.56602 0.0
C2842 C 0.57179 0.4086 0.55688 0.0
C2843 C 0.56894 0.45463 0.56484 0.0
C2844 C 0.57389 0.47891 0.58221 0.0
C2845 C 0.57525 0.43215 0.57414 0.0
C2846 C 0.58475 0.47898 0.60907 0.0
C2847 C 0.5902 0.4569 0.61836 0.0
H2848 H 0.41492 0.78174 0.41279 0.0
H2849 H 0.46773 0.82208 0.36564 0.0
H2850 H 0.43198 0.82297 0.33213 0.0
H2851 H 0.38562 0.81399 0.31689 0.0
H2852 H 0.33242 0.77426 0.36408 0.0
H2853 H 0.36817 0.77206 0.39692 0.0
C2854 C 0.41861 0.79061 0.39513 0.0
C2855 C 0.44414 0.80186 0.39192 0.0
C2856 C 0.39778 0.79139 0.37591 0.0
C2857 C 0.4484 0.81343 0.36888 0.0
C2858 C 0.4279 0.81392 0.3496 0.0
C2859 C 0.38173 0.80424 0.33393 0.0
C2860 C 0.35611 0.79384 0.33746 0.0
C2861 C 0.40248 0.80311 0.35294 0.0
C2862 C 0.35178 0.78225 0.36049 0.0
C2863 C 0.37229 0.78099 0.37939 0.0
H2864 H 0.10202 0.72861 0.11713 0.0
H2865 H 0.03811 0.73149 0.06 0.0
H2866 H 0.02792 0.6846 0.04673 0.0
H2867 H 0.03571 0.64133 0.05273 0.0
H2868 H 0.10124 0.63932 0.10819 0.0
H2869 H 0.11211 0.68621 0.12024 0.0
C2870 C 0.08632 0.7192 0.10109 0.0
C2871 C 0.07152 0.73453 0.08902 0.0
C2872 C 0.08057 0.69176 0.09337 0.0
C2873 C 0.05063 0.72108 0.06908 0.0
C2874 C 0.04455 0.6939 0.06172 0.0
C2875 C 0.05253 0.65111 0.0673 0.0
C2876 C 0.06762 0.63604 0.07937 0.0
C2877 C 0.05913 0.67879 0.07388 0.0
C2878 C 0.0893 0.64975 0.09819 0.0
C2879 C 0.09551 0.67686 0.10523 0.0
H2880 H 0.10303 0.2879 0.93341 0.0
H2881 H 0.04754 0.26058 0.86131 0.0
H2882 H 0.08174 0.26894 0.83376 0.0
H2883 H 0.12704 0.28797 0.83015 0.0
H2884 H 0.1829 0.31379 0.9019 0.0
H2885 H 0.1493 0.30127 0.92962 0.0
C2886 C 0.09852 0.28367 0.91167 0.0
C2887 C 0.07275 0.27405 0.89938 0.0
C2888 C 0.11842 0.28791 0.89592 0.0
C2889 C 0.06719 0.26814 0.87122 0.0
C2890 C 0.08675 0.27288 0.85545 0.0
C2891 C 0.1319 0.28993 0.85181 0.0
C2892 C 0.15736 0.30149 0.86403 0.0
C2893 C 0.11239 0.28313 0.86755 0.0
C2894 C 0.16347 0.30449 0.89211 0.0
C2895 C 0.14419 0.2977 0.90794 0.0
H2896 H 0.56075 0.78378 0.976 0.0
H2897 H 0.58953 0.75296 0.90731 0.0
H2898 H 0.58201 0.71098 0.92236 0.0
H2899 H 0.56411 0.68211 0.95299 0.0
H2900 H 0.53434 0.71183 0.02139 0.0
H2901 H 0.54527 0.75504 0.00878 0.0
C2902 C 0.5654 0.7678 0.9645 0.0
C2903 C 0.57535 0.77117 0.94041 0.0
C2904 C 0.56075 0.74356 0.9732 0.0
C2905 C 0.58149 0.75055 0.92567 0.0
C2906 C 0.57727 0.72662 0.93432 0.0
C2907 C 0.56047 0.69821 0.96535 0.0
C2908 C 0.54855 0.69395 0.98808 0.0
C2909 C 0.5665 0.72276 0.95774 0.0
C2910 C 0.54382 0.71482 1.00398 0.0
C2911 C 0.54985 0.73943 0.99662 0.0
H2912 H 0.13411 0.81251 0.76494 0.0
H2913 H 0.10708 0.73016 0.75407 0.0
H2914 H 0.15165 0.72682 0.75995 0.0
H2915 H 0.19989 0.74759 0.76681 0.0
H2916 H 0.22521 0.83042 0.77807 0.0
H2917 H 0.18105 0.83294 0.77425 0.0
C2918 C 0.13778 0.79376 0.76486 0.0
C2919 C 0.11635 0.77167 0.76033 0.0
C2920 C 0.1639 0.79197 0.76819 0.0
C2921 C 0.12244 0.7477 0.75897 0.0
C2922 C 0.14829 0.74577 0.76191 0.0
C2923 C 0.19591 0.76624 0.76868 0.0
C2924 C 0.21701 0.78883 0.77258 0.0
C2925 C 0.16948 0.76778 0.76642 0.0
C2926 C 0.21032 0.81253 0.77465 0.0
C2927 C 0.18465 0.81408 0.77256 0.0
H2928 H 0.02977 0.39748 0.47398 0.0
H2929 H 0.08387 0.43504 0.42646 0.0
H2930 H 0.08686 0.47675 0.45298 0.0
H2931 H 0.07403 0.50314 0.49011 0.0
H2932 H 0.01883 0.46471 0.53627 0.0
H2933 H 1.01691 0.4235 0.5105 0.0
C2934 C 0.04231 0.41474 0.4694 0.0
C2935 C 0.05664 0.4128 0.44809 0.0
C2936 C 0.04398 0.43886 0.48484 0.0
C2937 C 0.07269 0.43565 0.4427 0.0
C2938 C 0.0744 0.45965 0.45792 0.0
C2939 C 0.06165 0.48576 0.49463 0.0
C2940 C 0.04694 0.4875 0.5157 0.0
C2941 C 0.06016 0.4616 0.47914 0.0
C2942 C 0.03087 0.46446 0.52077 0.0
C2943 C 0.02954 0.44062 0.50579 0.0
H2944 H 0.44336 0.26194 0.21795 0.0
H2945 H 0.47553 0.26132 0.29953 0.0
H2946 H 0.43714 0.27008 0.31523 0.0
H2947 H 0.39302 0.27817 0.30652 0.0
H2948 H 0.35802 0.27024 0.22425 0.0
H2949 H 0.39776 0.26564 0.20893 0.0
C2950 C 0.44225 0.26382 0.23925 0.0
C2951 C 0.46358 0.26126 0.25733 0.0
C2952 C 0.41897 0.26782 0.24837 0.0
C2953 C 0.46035 0.2633 0.28474 0.0
C2954 C 0.43803 0.2684 0.29389 0.0
C2955 C 0.39392 0.27549 0.28519 0.0
C2956 C 0.37174 0.27569 0.26683 0.0
C2957 C 0.41697 0.27077 0.27604 0.0
C2958 C 0.37418 0.27129 0.2393 0.0
C2959 C 0.39724 0.26827 0.23035 0.0
H2960 H 0.58461 0.58033 0.39528 0.0
H2961 H 0.64802 0.5461 0.40498 0.0
H2962 H 0.6405 0.53997 0.45075 0.0
H2963 H 0.61519 0.54383 0.48874 0.0
H2964 H 0.55118 0.57731 0.47699 0.0
H2965 H 0.55955 0.58382 0.43219 0.0
C2966 C 0.59677 0.57141 0.40729 0.0
C2967 C 0.61679 0.56357 0.39624 0.0
C2968 C 0.59218 0.56768 0.43369 0.0
C2969 C 0.63225 0.5521 0.41251 0.0
C2970 C 0.62802 0.54867 0.43891 0.0
C2971 C 0.60321 0.55271 0.47647 0.0
C2972 C 0.58247 0.55994 0.48679 0.0
C2973 C 0.60797 0.55634 0.44988 0.0
C2974 C 0.56721 0.5713 0.47007 0.0
C2975 C 0.57196 0.57513 0.44416 0.0
H2976 H 0.30024 0.87689 0.05223 0.0
H2977 H 0.30282 0.949 0.10018 0.0
H2978 H 0.31456 0.93217 0.14114 0.0
H2979 H 0.33107 0.89965 0.16201 0.0
H2980 H 0.33394 0.83021 0.11292 0.0
H2981 H 0.31288 0.84308 0.07341 0.0
C2982 C 0.30262 0.88865 0.07171 0.0
C2983 C 0.30083 0.91411 0.07339 0.0
C2984 C 0.31078 0.87941 0.09478 0.0
C2985 C 0.30424 0.92933 0.09861 0.0
C2986 C 0.31109 0.91978 0.12192 0.0
C2987 C 0.32654 0.88724 0.14268 0.0
C2988 C 0.33401 0.86425 0.13988 0.0
C2989 C 0.31552 0.8953 0.12007 0.0
C2990 C 0.32838 0.84811 0.11506 0.0
C2991 C 0.3164 0.85545 0.09265 0.0
H2992 H 0.98103 0.58121 0.91062 0.0
H2993 H 0.92023 0.51625 0.91893 0.0
H2994 H 0.94438 0.51122 0.96093 0.0
H2995 H 0.98436 0.52329 0.99244 0.0
H2996 H 0.04166 0.59282 0.98945 0.0
H2997 H 1.01833 0.5974 0.94664 0.0
C2998 C 0.97298 0.56647 0.92216 0.0
C2999 C 0.94914 0.54923 0.91241 0.0
C3000 C 0.98669 0.56407 0.94631 0.0
C3001 C 0.93856 0.52986 0.92678 0.0
C3002 C 0.95241 0.52682 0.95043 0.0
C3003 C 0.99109 0.53998 0.98304 0.0
C3004 C 1.01431 0.55776 0.9937 0.0
C3005 C 0.97664 0.54355 0.96003 0.0
C3006 C 0.02391 0.57865 0.98082 0.0
C3007 C 1.01044 0.58147 0.95676 0.0
H3008 H 0.30676 0.21993 0.63122 0.0
H3009 H 0.26925 0.27472 0.60162 0.0
H3010 H 0.26846 0.2933 0.64817 0.0
H3011 H 0.27794 0.29333 0.69812 0.0
H3012 H 0.31478 0.23683 0.72523 0.0
H3013 H 0.3162 0.21997 0.67926 0.0
C3014 C 0.29852 0.2361 0.63468 0.0
C3015 C 0.28821 0.24588 0.61246 0.0
C3016 C 0.29787 0.24645 0.66144 0.0
C3017 C 0.27759 0.26681 0.61799 0.0
C3018 C 0.27702 0.27738 0.64476 0.0
C3019 C 0.28622 0.27732 0.694 0.0
C3020 C 0.29606 0.26647 0.71574 0.0
C3021 C 0.28699 0.26728 0.66681 0.0
C3022 C 0.30684 0.24574 0.70947 0.0
C3023 C 0.30776 0.23596 0.68294 0.0
H3024 H 0.63441 0.54155 0.21798 0.0
H3025 H 0.58023 0.57995 0.24766 0.0
H3026 H 0.56175 0.58063 0.20111 0.0
H3027 H 0.56131 0.57028 0.15139 0.0
H3028 H 0.61968 0.53666 0.12406 0.0
H3029 H 0.63545 0.53342 0.16994 0.0
C3030 C 0.61837 0.54993 0.21454 0.0
C3031 C 0.60863 0.5604 0.23674 0.0
C3032 C 0.60834 0.55085 0.18781 0.0
C3033 C 0.58794 0.57129 0.23128 0.0
C3034 C 0.57748 0.57185 0.20453 0.0
C3035 C 0.57763 0.56246 0.15542 0.0
C3036 C 0.58875 0.55302 0.13365 0.0
C3037 C 0.5876 0.56176 0.18252 0.0
C3038 C 0.60997 0.54313 0.13982 0.0
C3039 C 0.61929 0.54157 0.1663 0.0
H3040 H 0.33904 0.88837 0.93587 0.0
H3041 H 0.26866 0.9089 0.91301 0.0
H3042 H 0.2642 0.88486 0.86767 0.0
H3043 H 0.27731 0.85293 0.8378 0.0
H3044 H 0.34635 0.83071 0.86294 0.0
H3045 H 0.35461 0.8608 0.9047 0.0
C3046 C 0.32281 0.88771 0.92085 0.0
C3047 C 0.30374 0.89945 0.92752 0.0
C3048 C 0.32016 0.87352 0.89565 0.0
C3049 C 0.28328 0.89949 0.90801 0.0
C3050 C 0.28072 0.88574 0.88233 0.0
C3051 C 0.29431 0.85507 0.85234 0.0
C3052 C 0.31104 0.83961 0.84802 0.0
C3053 C 0.29853 0.87186 0.87639 0.0
C3054 C 0.33313 0.84233 0.86651 0.0
C3055 C 0.33786 0.85948 0.89017 0.0
H3056 H 0.96169 0.56863 0.78635 0.0
H3057 H 0.88688 0.53005 0.74126 0.0
H3058 H 0.90679 0.51473 0.70415 0.0
H3059 H 0.94543 0.5073 0.68755 0.0
H3060 H 0.01973 0.54219 0.73482 0.0
H3061 H 1.00008 0.56394 0.76845 0.0
C3062 C 0.94967 0.55739 0.76817 0.0
C3063 C 0.92288 0.55023 0.76666 0.0
C3064 C 0.9612 0.54752 0.74768 0.0
C3065 C 0.90758 0.53582 0.74289 0.0
C3066 C 0.91894 0.52679 0.72182 0.0
C3067 C 0.95715 0.51979 0.70524 0.0
C3068 C 0.98371 0.52295 0.70939 0.0
C3069 C 0.94569 0.53164 0.72453 0.0
C3070 C 0.99911 0.53925 0.73191 0.0
C3071 C 0.98793 0.55175 0.75087 0.0
H3072 H 0.29139 0.21373 0.43504 0.0
H3073 H 0.27357 0.28285 0.46883 0.0
H3074 H 0.27884 0.30029 0.42703 0.0
H3075 H 0.28706 0.29578 0.38006 0.0
H3076 H 0.30326 0.22622 0.34495 0.0
H3077 H 0.29948 0.20913 0.38727 0.0
C3078 C 0.28884 0.23269 0.43333 0.0
C3079 C 0.28218 0.24694 0.45549 0.0
C3080 C 0.29131 0.24252 0.40863 0.0
C3081 C 0.27861 0.27132 0.4524 0.0
C3082 C 0.28162 0.28136 0.42835 0.0
C3083 C 0.29012 0.27699 0.38162 0.0
C3084 C 0.29589 0.26261 0.359 0.0
C3085 C 0.28777 0.26713 0.4062 0.0
C3086 C 0.29905 0.23799 0.36174 0.0
C3087 C 0.29689 0.22816 0.38612 0.0
H3088 H 0.35748 0.60171 0.60102 0.0
H3089 H 0.31595 0.59996 0.52254 0.0
H3090 H 0.35081 0.58951 0.50131 0.0
H3091 H 0.3938 0.5836 0.50529 0.0
H3092 H 0.43679 0.58764 0.58349 0.0
H3093 H 0.40044 0.59443 0.60493 0.0
C3094 C 0.35604 0.59861 0.57928 0.0
C3095 C 0.33455 0.6015 0.5632 0.0
C3096 C 0.37637 0.59343 0.56734 0.0
C3097 C 0.33264 0.59787 0.53512 0.0
C3098 C 0.35246 0.59198 0.52304 0.0
C3099 C 0.39522 0.58629 0.52703 0.0
C3100 C 0.41777 0.58575 0.54294 0.0
C3101 C 0.37459 0.59033 0.539 0.0
C3102 C 0.41944 0.58832 0.57103 0.0
C3103 C 0.39877 0.59212 0.58321 0.0
H3104 H 0.89225 0.9753 0.55374 0.0
H3105 H 0.92628 0.91886 0.58503 0.0
H3106 H 0.96914 0.94596 0.58388 0.0
H3107 H 0.99697 0.9857 0.57412 0.0
H3108 H 0.96269 0.03893 0.53621 0.0
H3109 H 0.92018 1.01362 0.5406 0.0
C3110 C 0.90908 0.969 0.56037 0.0
C3111 C 0.90609 0.94516 0.56968 0.0
C3112 C 0.93369 0.9843 0.55876 0.0
C3113 C 0.92806 0.93708 0.57778 0.0
C3114 C 0.95257 0.95262 0.57719 0.0
C3115 C 0.98026 0.99179 0.56663 0.0
C3116 C 0.98337 0.01464 0.55526 0.0
C3117 C 0.95564 0.97627 0.56771 0.0
C3118 C 0.96123 0.02192 0.54567 0.0
C3119 C 0.93676 1.00725 0.54791 0.0
H3120 H 0.86708 0.07038 0.26126 0.0
H3121 H 0.9467 0.10554 0.29348 0.0
H3122 H 0.93693 0.14636 0.30658 0.0
H3123 H 0.90617 0.17145 0.31019 0.0
H3124 H 0.82533 0.13535 0.28528 0.0
H3125 H 0.83527 0.09593 0.26662 0.0
C3126 C 0.88219 0.08706 0.27114 0.0
C3127 C 0.90754 0.0851 0.27658 0.0
C3128 C 0.87627 0.11029 0.27957 0.0
C3129 C 0.92702 0.10664 0.28942 0.0
C3130 C 0.92149 0.12997 0.29676 0.0
C3131 C 0.89053 0.15489 0.30126 0.0
C3132 C 0.86503 0.15641 0.29984 0.0
C3133 C 0.89619 0.13188 0.29226 0.0
C3134 C 0.84523 0.13497 0.28674 0.0
C3135 C 0.85086 0.11224 0.2763 0.0
H3136 H 0.69856 0.08094 0.03615 0.0
H3137 H 0.69301 0.15682 0.0667 0.0
H3138 H 0.64679 0.14023 0.06509 0.0
H3139 H 0.61062 0.10267 0.06435 0.0
H3140 H 0.61916 0.02692 0.04128 0.0
H3141 H 0.66173 0.04459 0.03053 0.0
C3142 C 0.68717 0.09399 0.0419 0.0
C3143 C 0.69903 0.11981 0.05215 0.0
C3144 C 0.66118 0.08417 0.04225 0.0
C3145 C 0.68414 0.1367 0.05905 0.0
C3146 C 0.65783 0.12722 0.05833 0.0
C3147 C 0.62148 0.09034 0.05558 0.0
C3148 C 0.61145 0.06372 0.05117 0.0
C3149 C 0.64648 0.10078 0.05131 0.0
C3150 C 0.62602 0.04745 0.04214 0.0
C3151 C 0.65048 0.05759 0.03674 0.0
H3152 H 0.27996 0.51422 0.26321 0.0
H3153 H 0.20022 0.49534 0.27293 0.0
H3154 H 0.20421 0.45596 0.28976 0.0
H3155 H 0.23119 0.42915 0.30486 0.0
H3156 H 0.31233 0.45132 0.30082 0.0
H3157 H 0.30696 0.48695 0.27789 0.0
C3158 C 0.26351 0.50118 0.26873 0.0
C3159 C 0.23996 0.50719 0.26711 0.0
C3160 C 0.26624 0.47941 0.27941 0.0
C3161 C 0.21858 0.49075 0.27441 0.0
C3162 C 0.22084 0.4684 0.28395 0.0
C3163 C 0.24771 0.44196 0.29923 0.0
C3164 C 0.27203 0.43788 0.30474 0.0
C3165 C 0.24474 0.46295 0.2872 0.0
C3166 C 0.29327 0.45406 0.29662 0.0
C3167 C 0.29031 0.4745 0.28366 0.0
H3168 H 0.27283 0.47927 0.09253 0.0
H3169 H 0.23932 0.40838 0.03774 0.0
H3170 H 0.20014 0.42166 0.02735 0.0
H3171 H 0.17763 0.45518 0.02932 0.0
H3172 H 0.21186 0.52801 0.07993 0.0
H3173 H 0.24807 0.51196 0.0975 0.0
C3174 C 0.25683 0.46668 0.07852 0.0
C3175 C 0.25908 0.44302 0.06558 0.0
C3176 C 0.23444 0.4747 0.07216 0.0
C3177 C 0.23822 0.42685 0.04757 0.0
C3178 C 0.21574 0.43433 0.04176 0.0
C3179 C 0.19271 0.46722 0.04479 0.0
C3180 C 0.19237 0.49265 0.05327 0.0
C3181 C 0.21392 0.45842 0.05337 0.0
C3182 C 0.2118 0.50826 0.0733 0.0
C3183 C 0.23264 0.49921 0.08296 0.0
H3184 H 0.89976 0.95321 0.31645 0.0
H3185 H 0.88865 0.93925 0.2299 0.0
H3186 H 0.85914 0.89715 0.22954 0.0
H3187 H 0.83693 0.8639 0.25406 0.0
H3188 H 0.84349 0.88018 0.34018 0.0
H3189 H 0.87426 0.92167 0.34074 0.0
C3190 C 0.89095 0.94079 0.2976 0.0
C3191 C 0.8967 0.9489 0.27324 0.0
C3192 C 0.87313 0.91711 0.29754 0.0
C3193 C 0.88467 0.93312 0.24886 0.0
C3194 C 0.86779 0.90912 0.24865 0.0
C3195 C 0.845 0.87673 0.27284 0.0
C3196 C 0.83827 0.86915 0.29706 0.0
C3197 C 0.86191 0.90088 0.27286 0.0
C3198 C 0.8484 0.88588 0.32132 0.0
C3199 C 0.86609 0.90946 0.32164 0.0
H3200 H 0.72359 0.16025 0.78912 0.0
H3201 H 0.79581 0.14012 0.79786 0.0
H3202 H 0.81893 0.1855 0.80281 0.0
H3203 H 0.81799 0.22913 0.79666 0.0
H3204 H 0.74564 0.2476 0.78045 0.0
H3205 H 0.72274 0.20454 0.78693 0.0
C3206 C 0.7444 0.16591 0.79293 0.0
C3207 C 0.7582 0.14723 0.7931 0.0
C3208 C 0.75731 0.19159 0.7942 0.0
C3209 C 0.78504 0.15447 0.79756 0.0
C3210 C 0.79816 0.18025 0.8003 0.0
C3211 C 0.79725 0.22369 0.79526 0.0
C3212 C 0.78325 0.241 0.78866 0.0
C3213 C 0.78443 0.19872 0.79743 0.0
C3214 C 0.75651 0.23433 0.78628 0.0
C3215 C 0.74352 0.20978 0.78969 0.0
loop_
_geom_bond_atom_site_label_1
_geom_bond_atom_site_label_2
_geom_bond_distance
_geom_bond_site_symmetry_2
_ccdc_geom_bond_type
O0 Cd1 2.223 . S
O0 C8 1.315 . S
Cd1 O0 2.223 . S
Cd1 O4 2.297 . S
Cd1 O5 2.439 . S
Cd1 O11 2.240 . S
Cd2 O3 2.240 . S
Cd2 O10 2.223 1_455 S
Cd2 O12 2.297 . S
Cd2 O13 2.439 . S
O3 Cd2 2.240 . S
O3 C8 1.279 . S
O4 Cd1 2.297 . S
O4 C6 1.247 . S
O5 Cd1 2.439 . S
O5 C6 1.208 . S
C6 O4 1.247 . S
C6 O5 1.208 . S
C7 O12 1.247 . S
C7 O13 1.208 . S
C8 O0 1.315 . S
C8 O3 1.279 . S
C9 O10 1.315 . S
C9 O11 1.279 1_655 S
O10 Cd2 2.223 1_655 S
O10 C9 1.315 . S
O11 Cd1 2.240 . S
O11 C9 1.279 1_455 S
O12 Cd2 2.297 . S
O12 C7 1.247 . S
O13 Cd2 2.439 . S
O13 C7 1.208 . S
O14 Cd15 2.223 . S
O14 C22 1.315 . S
Cd15 O14 2.223 . S
Cd15 O18 2.297 1_455 S
Cd15 O19 2.439 1_455 S
Cd15 O25 2.240 . S
Cd16 O17 2.240 . S
Cd16 O24 2.223 . S
Cd16 O26 2.297 . S
Cd16 O27 2.439 . S
O17 Cd16 2.240 . S
O17 C22 1.279 . S
O18 Cd15 2.297 1_655 S
O18 C20 1.247 . S
O19 Cd15 2.439 1_655 S
O19 C20 1.208 . S
C20 O18 1.247 . S
C20 O19 1.208 . S
C21 O26 1.247 . S
C21 O27 1.208 . S
C22 O14 1.315 . S
C22 O17 1.279 . S
C23 O24 1.315 . S
C23 O25 1.279 . S
O24 Cd16 2.223 . S
O24 C23 1.315 . S
O25 Cd15 2.240 . S
O25 C23 1.279 . S
O26 Cd16 2.297 . S
O26 C21 1.247 . S
O27 Cd16 2.439 . S
O27 C21 1.208 . S
O28 Cd29 2.223 . S
O28 C36 1.315 . S
Cd29 O28 2.223 . S
Cd29 O32 2.297 . S
Cd29 O33 2.439 . S
Cd29 O39 2.240 . S
Cd30 O31 2.240 . S
Cd30 O38 2.223 . S
Cd30 O40 2.297 . S
Cd30 O41 2.439 . S
O31 Cd30 2.240 . S
O31 C36 1.279 . S
O32 Cd29 2.297 . S
O32 C34 1.247 . S
O33 Cd29 2.439 . S
O33 C34 1.208 . S
C34 O32 1.247 . S
C34 O33 1.208 . S
C35 O40 1.247 . S
C35 O41 1.208 . S
C36 O28 1.315 . S
C36 O31 1.279 . S
C37 O38 1.315 . S
C37 O39 1.279 . S
O38 Cd30 2.223 . S
O38 C37 1.315 . S
O39 Cd29 2.240 . S
O39 C37 1.279 . S
O40 Cd30 2.297 . S
O40 C35 1.247 . S
O41 Cd30 2.439 . S
O41 C35 1.208 . S
O42 Cd43 2.223 . S
O42 C50 1.315 . S
Cd43 O42 2.223 . S
Cd43 O46 2.297 . S
Cd43 O47 2.439 . S
Cd43 O53 2.240 . S
Cd44 O45 2.240 . S
Cd44 O52 2.223 . S
Cd44 O54 2.297 . S
Cd44 O55 2.439 . S
O45 Cd44 2.240 . S
O45 C50 1.279 . S
O46 Cd43 2.297 . S
O46 C48 1.247 . S
O47 Cd43 2.439 . S
O47 C48 1.208 . S
C48 O46 1.247 . S
C48 O47 1.208 . S
C49 O54 1.247 . S
C49 O55 1.208 . S
C50 O42 1.315 . S
C50 O45 1.279 . S
C51 O52 1.315 . S
C51 O53 1.279 . S
O52 Cd44 2.223 . S
O52 C51 1.315 . S
O53 Cd43 2.240 . S
O53 C51 1.279 . S
O54 Cd44 2.297 . S
O54 C49 1.247 . S
O55 Cd44 2.439 . S
O55 C49 1.208 . S
O56 Cd57 2.223 . S
O56 C64 1.315 . S
Cd57 O56 2.223 . S
Cd57 O60 2.297 . S
Cd57 O61 2.439 . S
Cd57 O67 2.240 . S
Cd58 O59 2.240 . S
Cd58 O66 2.223 . S
Cd58 O68 2.297 . S
Cd58 O69 2.439 . S
O59 Cd58 2.240 . S
O59 C64 1.279 . S
O60 Cd57 2.297 . S
O60 C62 1.247 . S
O61 Cd57 2.439 . S
O61 C62 1.208 . S
C62 O60 1.247 . S
C62 O61 1.208 . S
C63 O68 1.247 . S
C63 O69 1.208 . S
C64 O56 1.315 . S
C64 O59 1.279 . S
C65 O66 1.315 . S
C65 O67 1.279 . S
O66 Cd58 2.223 . S
O66 C65 1.315 . S
O67 Cd57 2.240 . S
O67 C65 1.279 . S
O68 Cd58 2.297 . S
O68 C63 1.247 . S
O69 Cd58 2.439 . S
O69 C63 1.208 . S
O70 Cd71 2.223 . S
O70 C78 1.315 . S
Cd71 O70 2.223 . S
Cd71 O74 2.297 . S
Cd71 O75 2.439 . S
Cd71 O81 2.240 . S
Cd72 O73 2.240 . S
Cd72 O80 2.223 . S
Cd72 O82 2.297 . S
Cd72 O83 2.439 . S
O73 Cd72 2.240 . S
O73 C78 1.279 . S
O74 Cd71 2.297 . S
O74 C76 1.247 . S
O75 Cd71 2.439 . S
O75 C76 1.208 . S
C76 O74 1.247 . S
C76 O75 1.208 . S
C77 O82 1.247 . S
C77 O83 1.208 . S
C78 O70 1.315 . S
C78 O73 1.279 . S
C79 O80 1.315 . S
C79 O81 1.279 . S
O80 Cd72 2.223 . S
O80 C79 1.315 . S
O81 Cd71 2.240 . S
O81 C79 1.279 . S
O82 Cd72 2.297 . S
O82 C77 1.247 . S
O83 Cd72 2.439 . S
O83 C77 1.208 . S
O84 Cd85 2.223 . S
O84 C92 1.315 . S
Cd85 O84 2.223 . S
Cd85 O88 2.297 . S
Cd85 O89 2.439 . S
Cd85 O95 2.240 . S
Cd86 O87 2.240 . S
Cd86 O94 2.223 . S
Cd86 O96 2.297 . S
Cd86 O97 2.439 . S
O87 Cd86 2.240 . S
O87 C92 1.279 . S
O88 Cd85 2.297 . S
O88 C90 1.247 . S
O89 Cd85 2.439 . S
O89 C90 1.208 . S
C90 O88 1.247 . S
C90 O89 1.208 . S
C91 O96 1.247 . S
C91 O97 1.208 . S
C92 O84 1.315 . S
C92 O87 1.279 . S
C93 O94 1.315 . S
C93 O95 1.279 . S
O94 Cd86 2.223 . S
O94 C93 1.315 . S
O95 Cd85 2.240 . S
O95 C93 1.279 . S
O96 Cd86 2.297 . S
O96 C91 1.247 . S
O97 Cd86 2.439 . S
O97 C91 1.208 . S
O98 Cd99 2.223 1_655 S
O98 C106 1.315 . S
Cd99 O98 2.223 1_455 S
Cd99 O102 2.297 . S
Cd99 O103 2.439 . S
Cd99 O109 2.240 1_455 S
Cd100 O101 2.240 1_655 S
Cd100 O108 2.223 . S
Cd100 O110 2.297 1_556 S
Cd100 O111 2.439 1_655 S
O101 Cd100 2.240 1_455 S
O101 C106 1.279 1_455 S
O102 Cd99 2.297 . S
O102 C104 1.247 . S
O103 Cd99 2.439 . S
O103 C104 1.208 . S
C104 O102 1.247 . S
C104 O103 1.208 . S
C105 O110 1.247 1_456 S
C105 O111 1.208 . S
C106 O98 1.315 . S
C106 O101 1.279 1_655 S
C107 O108 1.315 . S
C107 O109 1.279 . S
O108 Cd100 2.223 . S
O108 C107 1.315 . S
O109 Cd99 2.240 1_655 S
O109 C107 1.279 . S
O110 Cd100 2.297 1_554 S
O110 C105 1.247 1_654 S
O111 Cd100 2.439 1_455 S
O111 C105 1.208 . S
O112 Cd113 2.216 1_565 S
O112 C120 1.315 1_565 S
Cd113 O112 2.216 1_545 S
Cd113 O116 2.297 . S
Cd113 O117 2.439 . S
Cd113 O123 2.240 1_545 S
Cd114 O115 2.240 . S
Cd114 O122 2.223 1_545 S
Cd114 O124 2.297 1_545 S
Cd114 O125 2.439 . S
O115 Cd114 2.240 . S
O115 C120 1.279 . S
O116 Cd113 2.297 . S
O116 C118 1.247 . S
O117 Cd113 2.439 . S
O117 C118 1.208 . S
C118 O116 1.247 . S
C118 O117 1.208 . S
C119 O124 1.247 1_545 S
C119 O125 1.208 . S
C120 O112 1.315 1_545 S
C120 O115 1.279 . S
C121 O122 1.315 . S
C121 O123 1.279 . S
O122 Cd114 2.223 1_565 S
O122 C121 1.315 . S
O123 Cd113 2.240 1_565 S
O123 C121 1.279 . S
O124 Cd114 2.297 1_565 S
O124 C119 1.247 1_565 S
O125 Cd114 2.439 . S
O125 C119 1.208 . S
O126 Cd127 2.223 . S
O126 C134 1.315 . S
Cd127 O126 2.223 . S
Cd127 O130 2.297 . S
Cd127 O131 2.439 . S
Cd127 O137 2.240 . S
Cd128 O129 2.240 . S
Cd128 O136 2.223 . S
Cd128 O138 2.297 . S
Cd128 O139 2.439 . S
O129 Cd128 2.240 . S
O129 C134 1.279 . S
O130 Cd127 2.297 . S
O130 C132 1.247 . S
O131 Cd127 2.439 . S
O131 C132 1.208 . S
C132 O130 1.247 . S
C132 O131 1.208 . S
C133 O138 1.247 . S
C133 O139 1.208 . S
C134 O126 1.315 . S
C134 O129 1.279 . S
C135 O136 1.315 . S
C135 O137 1.279 . S
O136 Cd128 2.223 . S
O136 C135 1.315 . S
O137 Cd127 2.240 . S
O137 C135 1.279 . S
O138 Cd128 2.297 . S
O138 C133 1.247 . S
O139 Cd128 2.439 . S
O139 C133 1.208 . S
O140 Cd141 2.223 . S
O140 C148 1.315 . S
Cd141 O140 2.223 . S
Cd141 O144 2.297 . S
Cd141 O145 2.439 . S
Cd141 O151 2.240 . S
Cd142 O143 2.240 . S
Cd142 O150 2.223 . S
Cd142 O152 2.297 . S
Cd142 O153 2.439 . S
O143 Cd142 2.240 . S
O143 C148 1.279 . S
O144 Cd141 2.297 . S
O144 C146 1.245 1_545 S
O145 Cd141 2.439 . S
O145 C146 1.206 1_545 S
C146 O144 1.245 1_565 S
C146 O145 1.206 1_565 S
C147 O152 1.247 . S
C147 O153 1.208 . S
C148 O140 1.315 . S
C148 O143 1.279 . S
C149 O150 1.315 . S
C149 O151 1.279 . S
O150 Cd142 2.223 . S
O150 C149 1.315 . S
O151 Cd141 2.240 . S
O151 C149 1.279 . S
O152 Cd142 2.297 . S
O152 C147 1.247 . S
O153 Cd142 2.439 . S
O153 C147 1.208 . S
O154 Cd155 2.223 . S
O154 C162 1.315 . S
Cd155 O154 2.223 . S
Cd155 O158 2.297 . S
Cd155 O159 2.439 1_554 S
Cd155 O165 2.240 1_554 S
Cd156 O157 2.240 1_556 S
Cd156 O164 2.223 1_556 S
Cd156 O166 2.297 . S
Cd156 O167 2.439 . S
O157 Cd156 2.240 1_554 S
O157 C162 1.279 . S
O158 Cd155 2.297 . S
O158 C160 1.247 . S
O159 Cd155 2.439 1_556 S
O159 C160 1.208 1_556 S
C160 O158 1.247 . S
C160 O159 1.208 1_554 S
C161 O166 1.247 . S
C161 O167 1.208 . S
C162 O154 1.315 . S
C162 O157 1.279 . S
C163 O164 1.315 . S
C163 O165 1.279 1_554 S
O164 Cd156 2.223 1_554 S
O164 C163 1.315 . S
O165 Cd155 2.240 1_556 S
O165 C163 1.279 1_556 S
O166 Cd156 2.297 . S
O166 C161 1.247 . S
O167 Cd156 2.439 . S
O167 C161 1.208 . S
O168 Cd169 2.223 . S
O168 C176 1.315 . S
Cd169 O168 2.223 . S
Cd169 O172 2.297 . S
Cd169 O173 2.439 . S
Cd169 O179 2.240 . S
Cd170 O171 2.240 . S
Cd170 O178 2.223 . S
Cd170 O180 2.297 . S
Cd170 O181 2.439 . S
O171 Cd170 2.240 . S
O171 C176 1.279 . S
O172 Cd169 2.297 . S
O172 C174 1.247 . S
O173 Cd169 2.439 . S
O173 C174 1.208 . S
C174 O172 1.247 . S
C174 O173 1.208 . S
C175 O180 1.247 1_556 S
C175 O181 1.208 1_556 S
C176 O168 1.315 . S
C176 O171 1.279 . S
C177 O178 1.315 . S
C177 O179 1.279 . S
O178 Cd170 2.223 . S
O178 C177 1.315 . S
O179 Cd169 2.240 . S
O179 C177 1.279 . S
O180 Cd170 2.297 . S
O180 C175 1.247 1_554 S
O181 Cd170 2.439 . S
O181 C175 1.208 1_554 S
O182 Cd183 2.223 . S
O182 C190 1.315 . S
Cd183 O182 2.223 . S
Cd183 O186 2.297 . S
Cd183 O187 2.439 . S
Cd183 O193 2.240 . S
Cd184 O185 2.240 . S
Cd184 O192 2.223 . S
Cd184 O194 2.297 . S
Cd184 O195 2.439 . S
O185 Cd184 2.240 . S
O185 C190 1.279 . S
O186 Cd183 2.297 . S
O186 C188 1.247 . S
O187 Cd183 2.439 . S
O187 C188 1.208 . S
C188 O186 1.247 . S
C188 O187 1.208 . S
C189 O194 1.247 . S
C189 O195 1.208 . S
C190 O182 1.315 . S
C190 O185 1.279 . S
C191 O192 1.315 . S
C191 O193 1.279 . S
O192 Cd184 2.223 . S
O192 C191 1.315 . S
O193 Cd183 2.240 . S
O193 C191 1.279 . S
O194 Cd184 2.297 . S
O194 C189 1.247 . S
O195 Cd184 2.439 . S
O195 C189 1.208 . S
O196 Cd197 2.223 . S
O196 C204 1.315 . S
Cd197 O196 2.223 . S
Cd197 O200 2.297 . S
Cd197 O201 2.439 . S
Cd197 O207 2.240 . S
Cd198 O199 2.240 . S
Cd198 O206 2.223 . S
Cd198 O208 2.297 . S
Cd198 O209 2.439 . S
O199 Cd198 2.240 . S
O199 C204 1.279 . S
O200 Cd197 2.297 . S
O200 C202 1.247 . S
O201 Cd197 2.439 . S
O201 C202 1.208 . S
C202 O200 1.247 . S
C202 O201 1.208 . S
C203 O208 1.247 . S
C203 O209 1.208 . S
C204 O196 1.315 . S
C204 O199 1.279 . S
C205 O206 1.315 . S
C205 O207 1.279 . S
O206 Cd198 2.223 . S
O206 C205 1.315 . S
O207 Cd197 2.240 . S
O207 C205 1.279 . S
O208 Cd198 2.297 . S
O208 C203 1.247 . S
O209 Cd198 2.439 . S
O209 C203 1.208 . S
O210 Cd211 2.223 . S
O210 C218 1.315 . S
Cd211 O210 2.223 . S
Cd211 O214 2.297 . S
Cd211 O215 2.439 . S
Cd211 O221 2.240 . S
Cd212 O213 2.240 . S
Cd212 O220 2.223 . S
Cd212 O222 2.297 . S
Cd212 O223 2.439 . S
O213 Cd212 2.240 . S
O213 C218 1.279 . S
O214 Cd211 2.297 . S
O214 C216 1.247 . S
O215 Cd211 2.439 . S
O215 C216 1.208 . S
C216 O214 1.247 . S
C216 O215 1.208 . S
C217 O222 1.247 . S
C217 O223 1.208 . S
C218 O210 1.315 . S
C218 O213 1.279 . S
C219 O220 1.315 . S
C219 O221 1.279 . S
O220 Cd212 2.223 . S
O220 C219 1.315 . S
O221 Cd211 2.240 . S
O221 C219 1.279 . S
O222 Cd212 2.297 . S
O222 C217 1.247 . S
O223 Cd212 2.439 . S
O223 C217 1.208 . S
O224 Cd225 2.223 . S
O224 C232 1.315 . S
Cd225 O224 2.223 . S
Cd225 O228 2.297 . S
Cd225 O229 2.439 . S
Cd225 O235 2.240 1_545 S
Cd226 O227 2.240 . S
Cd226 O234 2.223 1_545 S
Cd226 O236 2.297 1_545 S
Cd226 O237 2.439 . S
O227 Cd226 2.240 . S
O227 C232 1.279 . S
O228 Cd225 2.297 . S
O228 C230 1.247 . S
O229 Cd225 2.439 . S
O229 C230 1.208 . S
C230 O228 1.247 . S
C230 O229 1.208 . S
C231 O236 1.247 1_545 S
C231 O237 1.208 . S
C232 O224 1.315 . S
C232 O227 1.279 . S
C233 O234 1.315 . S
C233 O235 1.279 . S
O234 Cd226 2.223 1_565 S
O234 C233 1.315 . S
O235 Cd225 2.240 1_565 S
O235 C233 1.279 . S
O236 Cd226 2.297 1_565 S
O236 C231 1.247 1_565 S
O237 Cd226 2.439 . S
O237 C231 1.208 . S
O238 Cd239 2.223 . S
O238 C246 1.315 . S
Cd239 O238 2.223 . S
Cd239 O242 2.297 . S
Cd239 O243 2.439 . S
Cd239 O249 2.240 . S
Cd240 O241 2.240 . S
Cd240 O248 2.223 . S
Cd240 O250 2.297 . S
Cd240 O251 2.439 . S
O241 Cd240 2.240 . S
O241 C246 1.279 . S
O242 Cd239 2.297 . S
O242 C244 1.247 . S
O243 Cd239 2.439 . S
O243 C244 1.208 . S
C244 O242 1.247 . S
C244 O243 1.208 . S
C245 O250 1.247 . S
C245 O251 1.208 . S
C246 O238 1.315 . S
C246 O241 1.279 . S
C247 O248 1.315 . S
C247 O249 1.279 . S
O248 Cd240 2.223 . S
O248 C247 1.315 . S
O249 Cd239 2.240 . S
O249 C247 1.279 . S
O250 Cd240 2.297 . S
O250 C245 1.247 . S
O251 Cd240 2.439 . S
O251 C245 1.208 . S
O252 Cd253 2.223 . S
O252 C260 1.315 . S
Cd253 O252 2.223 . S
Cd253 O256 2.297 . S
Cd253 O257 2.439 . S
Cd253 O263 2.240 . S
Cd254 O255 2.240 . S
Cd254 O262 2.223 . S
Cd254 O264 2.297 . S
Cd254 O265 2.439 . S
O255 Cd254 2.240 . S
O255 C260 1.279 . S
O256 Cd253 2.297 . S
O256 C258 1.247 . S
O257 Cd253 2.439 . S
O257 C258 1.208 . S
C258 O256 1.247 . S
C258 O257 1.208 . S
C259 O264 1.247 . S
C259 O265 1.208 . S
C260 O252 1.315 . S
C260 O255 1.279 . S
C261 O262 1.315 . S
C261 O263 1.279 . S
O262 Cd254 2.223 . S
O262 C261 1.315 . S
O263 Cd253 2.240 . S
O263 C261 1.279 . S
O264 Cd254 2.297 . S
O264 C259 1.247 . S
O265 Cd254 2.439 . S
O265 C259 1.208 . S
O266 Cd267 2.223 . S
O266 C274 1.315 . S
Cd267 O266 2.223 . S
Cd267 O270 2.297 . S
Cd267 O271 2.439 . S
Cd267 O277 2.240 . S
Cd268 O269 2.240 . S
Cd268 O276 2.223 . S
Cd268 O278 2.297 . S
Cd268 O279 2.439 . S
O269 Cd268 2.240 . S
O269 C274 1.279 . S
O270 Cd267 2.297 . S
O270 C272 1.247 . S
O271 Cd267 2.439 . S
O271 C272 1.208 . S
C272 O270 1.247 . S
C272 O271 1.208 . S
C273 O278 1.247 . S
C273 O279 1.208 . S
C274 O266 1.315 . S
C274 O269 1.279 . S
C275 O276 1.315 . S
C275 O277 1.279 . S
O276 Cd268 2.223 . S
O276 C275 1.315 . S
O277 Cd267 2.240 . S
O277 C275 1.279 . S
O278 Cd268 2.297 . S
O278 C273 1.247 . S
O279 Cd268 2.439 . S
O279 C273 1.208 . S
O280 Cd281 2.223 . S
O280 C288 1.315 . S
Cd281 O280 2.223 . S
Cd281 O284 2.297 . S
Cd281 O285 2.439 . S
Cd281 O291 2.240 . S
Cd282 O283 2.240 . S
Cd282 O290 2.223 . S
Cd282 O292 2.297 1_554 S
Cd282 O293 2.439 1_554 S
O283 Cd282 2.240 . S
O283 C288 1.279 . S
O284 Cd281 2.297 . S
O284 C286 1.247 . S
O285 Cd281 2.439 . S
O285 C286 1.208 . S
C286 O284 1.247 . S
C286 O285 1.208 . S
C287 O292 1.247 . S
C287 O293 1.208 . S
C288 O280 1.315 . S
C288 O283 1.279 . S
C289 O290 1.315 . S
C289 O291 1.279 . S
O290 Cd282 2.223 . S
O290 C289 1.315 . S
O291 Cd281 2.240 . S
O291 C289 1.279 . S
O292 Cd282 2.297 1_556 S
O292 C287 1.247 . S
O293 Cd282 2.439 1_556 S
O293 C287 1.208 . S
O294 Cd295 2.223 . S
O294 C302 1.315 . S
Cd295 O294 2.223 . S
Cd295 O298 2.297 . S
Cd295 O299 2.439 . S
Cd295 O305 2.240 . S
Cd296 O297 2.240 . S
Cd296 O304 2.223 . S
Cd296 O306 2.297 . S
Cd296 O307 2.439 . S
O297 Cd296 2.240 . S
O297 C302 1.279 . S
O298 Cd295 2.297 . S
O298 C300 1.247 . S
O299 Cd295 2.439 . S
O299 C300 1.208 . S
C300 O298 1.247 . S
C300 O299 1.208 . S
C301 O306 1.247 . S
C301 O307 1.208 . S
C302 O294 1.315 . S
C302 O297 1.279 . S
C303 O304 1.315 . S
C303 O305 1.279 . S
O304 Cd296 2.223 . S
O304 C303 1.315 . S
O305 Cd295 2.240 . S
O305 C303 1.279 . S
O306 Cd296 2.297 . S
O306 C301 1.247 . S
O307 Cd296 2.439 . S
O307 C301 1.208 . S
O308 Cd309 2.223 . S
O308 C316 1.315 . S
Cd309 O308 2.223 . S
Cd309 O312 2.297 . S
Cd309 O313 2.439 . S
Cd309 O319 2.240 . S
Cd310 O311 2.240 . S
Cd310 O318 2.223 . S
Cd310 O320 2.297 . S
Cd310 O321 2.439 . S
O311 Cd310 2.240 . S
O311 C316 1.279 . S
O312 Cd309 2.297 . S
O312 C314 1.247 . S
O313 Cd309 2.439 . S
O313 C314 1.208 . S
C314 O312 1.247 . S
C314 O313 1.208 . S
C315 O320 1.247 . S
C315 O321 1.208 . S
C316 O308 1.315 . S
C316 O311 1.279 . S
C317 O318 1.315 . S
C317 O319 1.279 . S
O318 Cd310 2.223 . S
O318 C317 1.315 . S
O319 Cd309 2.240 . S
O319 C317 1.279 . S
O320 Cd310 2.297 . S
O320 C315 1.247 . S
O321 Cd310 2.439 . S
O321 C315 1.208 . S
O322 Cd323 2.223 . S
O322 C330 1.315 . S
Cd323 O322 2.223 . S
Cd323 O326 2.297 . S
Cd323 O327 2.439 . S
Cd323 O333 2.240 . S
Cd324 O325 2.240 . S
Cd324 O332 2.223 . S
Cd324 O334 2.297 . S
Cd324 O335 2.439 . S
O325 Cd324 2.240 . S
O325 C330 1.279 . S
O326 Cd323 2.297 . S
O326 C328 1.247 . S
O327 Cd323 2.439 . S
O327 C328 1.208 . S
C328 O326 1.247 . S
C328 O327 1.208 . S
C329 O334 1.247 . S
C329 O335 1.208 . S
C330 O322 1.315 . S
C330 O325 1.279 . S
C331 O332 1.315 . S
C331 O333 1.279 . S
O332 Cd324 2.223 . S
O332 C331 1.315 . S
O333 Cd323 2.240 . S
O333 C331 1.279 . S
O334 Cd324 2.297 . S
O334 C329 1.247 . S
O335 Cd324 2.439 . S
O335 C329 1.208 . S
C336 C338 1.419 . S
C336 C340 1.417 1_554 S
C336 N342 1.371 1_554 S
C337 C338 1.421 . S
C337 C339 1.417 . S
C337 C349 1.422 . S
C338 C336 1.419 . S
C338 C337 1.421 . S
C338 N348 1.359 . S
C339 C337 1.417 . S
C339 C341 1.329 1_554 S
C339 H358 0.930 . S
C340 C336 1.417 1_556 S
C340 C341 1.437 . S
C340 C344 1.413 . S
C341 C339 1.329 1_556 S
C341 C340 1.437 . S
C341 H363 0.929 . S
N342 C336 1.371 1_556 S
N342 C343 1.338 . S
N342 Gd347 2.622 1_566 S
C343 N342 1.338 . S
C343 C345 1.378 . S
C343 H355 0.929 1_565 S
C344 C340 1.413 . S
C344 C345 1.348 . S
C344 H360 0.931 . S
C345 C343 1.378 . S
C345 C344 1.348 . S
C345 H361 0.930 . S
Gd346 N366 2.622 . S
Gd346 N373 2.570 . S
Gd346 O380 2.353 . S
Gd346 O381 2.468 . S
Gd346 O382 2.427 . S
Gd346 O384 2.388 . S
Gd346 O385 2.386 . S
Gd346 O389 2.307 . S
Gd346 C399 2.805 . S
Gd347 N342 2.622 1_544 S
Gd347 N348 2.570 1_545 S
Gd347 O379 2.355 1_645 S
Gd347 O383 2.307 1_655 S
Gd347 O386 2.353 1_655 S
Gd347 O387 2.468 . S
Gd347 O388 2.427 . S
Gd347 O390 2.362 1_654 S
Gd347 C411 2.805 . S
N348 C338 1.359 . S
N348 Gd347 2.570 1_565 S
N348 C350 1.343 . S
C349 C337 1.422 . S
C349 C351 1.321 . S
C349 H357 0.931 . S
C350 N348 1.343 . S
C350 C351 1.390 . S
C350 H352 0.931 1_565 S
C351 C349 1.321 . S
C351 C350 1.390 . S
C351 H353 0.930 . S
H352 C350 0.931 1_545 S
H353 C351 0.930 . S
H354 C377 0.931 . S
H355 C343 0.929 1_545 S
H356 C378 0.930 . S
H357 C349 0.931 . S
H358 C339 0.930 . S
H359 C368 0.929 . S
H360 C344 0.931 . S
H361 C345 0.930 . S
H362 C400 0.930 . S
H363 C341 0.929 . S
H364 C369 0.931 . S
H365 C370 0.930 . S
N366 Gd346 2.622 . S
N366 C367 1.369 . S
N366 C368 1.338 . S
C367 N366 1.369 . S
C367 C371 1.415 . S
C367 C374 1.422 . S
C368 H359 0.929 . S
C368 N366 1.338 . S
C368 C370 1.378 . S
C369 H364 0.931 . S
C369 C370 1.348 . S
C369 C371 1.413 . S
C370 H365 0.930 . S
C370 C368 1.378 . S
C370 C369 1.348 . S
C371 C367 1.415 . S
C371 C369 1.413 . S
C371 C401 1.437 . S
H372 C401 0.929 . S
N373 Gd346 2.570 . S
N373 C374 1.359 . S
N373 C377 1.343 . S
C374 C367 1.422 . S
C374 N373 1.359 . S
C374 C376 1.421 . S
C375 C376 1.422 . S
C375 C378 1.321 . S
C375 H402 0.931 . S
C376 C374 1.421 . S
C376 C375 1.422 . S
C376 C400 1.417 . S
C377 H354 0.931 . S
C377 N373 1.343 . S
C377 C378 1.390 . S
C378 H356 0.930 . S
C378 C375 1.321 . S
C378 C377 1.390 . S
O379 Gd347 2.355 1_465 S
O379 C391 1.279 . S
O380 Gd346 2.353 . S
O380 C391 1.242 1_545 S
O381 Gd346 2.468 . S
O381 C399 1.263 . S
O382 Gd346 2.427 . S
O382 C399 1.252 . S
O383 Gd347 2.307 1_455 S
O383 C392 1.261 . S
O384 Gd346 2.388 . S
O384 C392 1.252 . S
O385 Gd346 2.386 . S
O385 C403 1.265 . S
O386 Gd347 2.353 1_455 S
O386 C403 1.242 . S
O387 Gd347 2.468 . S
O387 C411 1.263 . S
O388 Gd347 2.427 . S
O388 C411 1.252 . S
O389 Gd346 2.307 . S
O389 C404 1.261 . S
O390 Gd347 2.362 1_456 S
O390 C404 1.250 1_556 S
C391 O379 1.279 . S
C391 O380 1.242 1_565 S
C392 O383 1.261 . S
C392 O384 1.252 . S
C393 C396 1.394 . S
C393 C398 1.370 . S
C393 C399 1.500 . S
C394 C397 1.383 . S
C394 C398 1.395 . S
C395 C396 1.396 . S
C395 C397 1.365 . S
C395 H412 0.929 . S
C396 C393 1.394 . S
C396 C395 1.396 . S
C396 H413 0.930 . S
C397 C394 1.383 . S
C397 C395 1.365 . S
C397 H414 0.931 . S
C398 C393 1.370 . S
C398 C394 1.395 . S
C398 H415 0.930 . S
C399 Gd346 2.805 . S
C399 O381 1.263 . S
C399 O382 1.252 . S
C399 C393 1.500 . S
C400 H362 0.930 . S
C400 C376 1.417 . S
C400 C401 1.329 . S
C401 C371 1.437 . S
C401 H372 0.929 . S
C401 C400 1.329 . S
H402 C375 0.931 . S
C403 O385 1.265 . S
C403 O386 1.242 . S
C404 O389 1.261 . S
C404 O390 1.250 1_554 S
C405 C408 1.394 1_554 S
C405 C410 1.370 . S
C405 C411 1.500 . S
C406 C409 1.383 . S
C406 C410 1.395 . S
C407 C408 1.396 . S
C407 C409 1.365 1_556 S
C407 H416 0.929 . S
C408 C405 1.394 1_556 S
C408 C407 1.396 . S
C408 H417 0.930 . S
C409 C406 1.383 . S
C409 C407 1.365 1_554 S
C409 H418 0.931 . S
C410 C405 1.370 . S
C410 C406 1.395 . S
C410 H419 0.930 . S
C411 Gd347 2.805 . S
C411 O387 1.263 . S
C411 O388 1.252 . S
C411 C405 1.500 . S
H412 C395 0.929 . S
H413 C396 0.930 . S
H414 C397 0.931 . S
H415 C398 0.930 . S
H416 C407 0.929 . S
H417 C408 0.930 . S
H418 C409 0.931 . S
H419 C410 0.930 . S
C420 C422 1.422 . S
C420 C424 1.415 . S
C420 N426 1.369 . S
C421 C422 1.421 . S
C421 C423 1.417 . S
C421 C433 1.422 . S
C422 C420 1.422 . S
C422 C421 1.421 . S
C422 N432 1.359 . S
C423 C421 1.417 . S
C423 C425 1.329 . S
C423 H442 0.930 . S
C424 C420 1.415 . S
C424 C425 1.437 . S
C424 C428 1.413 . S
C425 C423 1.329 . S
C425 C424 1.437 . S
C425 H447 0.929 . S
N426 C420 1.369 . S
N426 C427 1.338 . S
N426 Gd431 2.622 . S
C427 N426 1.338 . S
C427 C429 1.378 . S
C427 H439 0.929 . S
C428 C424 1.413 . S
C428 C429 1.348 . S
C428 H444 0.931 . S
C429 C427 1.378 . S
C429 C428 1.348 . S
C429 H445 0.930 . S
Gd430 N450 2.622 . S
Gd430 N457 2.570 . S
Gd430 O464 2.353 . S
Gd430 O465 2.468 . S
Gd430 O466 2.427 . S
Gd430 O468 2.388 . S
Gd430 O469 2.386 . S
Gd430 O473 2.307 . S
Gd430 C483 2.805 . S
Gd431 N426 2.622 . S
Gd431 N432 2.570 . S
Gd431 O463 2.386 . S
Gd431 O467 2.307 . S
Gd431 O470 2.353 . S
Gd431 O471 2.468 . S
Gd431 O472 2.427 . S
Gd431 O474 2.388 . S
Gd431 C495 2.805 . S
N432 C422 1.359 . S
N432 Gd431 2.570 . S
N432 C434 1.343 . S
C433 C421 1.422 . S
C433 C435 1.321 . S
C433 H441 0.931 . S
C434 N432 1.343 . S
C434 C435 1.390 . S
C434 H436 0.931 . S
C435 C433 1.321 . S
C435 C434 1.390 . S
C435 H437 0.930 . S
H436 C434 0.931 . S
H437 C435 0.930 . S
H438 C461 0.931 . S
H439 C427 0.929 . S
H440 C462 0.930 . S
H441 C433 0.931 . S
H442 C423 0.930 . S
H443 C452 0.929 . S
H444 C428 0.931 . S
H445 C429 0.930 . S
H446 C484 0.930 . S
H447 C425 0.929 . S
H448 C453 0.931 . S
H449 C454 0.930 . S
N450 Gd430 2.622 . S
N450 C451 1.369 . S
N450 C452 1.338 . S
C451 N450 1.369 . S
C451 C455 1.415 . S
C451 C458 1.422 . S
C452 H443 0.929 . S
C452 N450 1.338 . S
C452 C454 1.378 . S
C453 H448 0.931 . S
C453 C454 1.348 . S
C453 C455 1.413 . S
C454 H449 0.930 . S
C454 C452 1.378 . S
C454 C453 1.348 . S
C455 C451 1.415 . S
C455 C453 1.413 . S
C455 C485 1.437 . S
H456 C485 0.929 . S
N457 Gd430 2.570 . S
N457 C458 1.359 . S
N457 C461 1.343 . S
C458 C451 1.422 . S
C458 N457 1.359 . S
C458 C460 1.421 . S
C459 C460 1.422 . S
C459 C462 1.321 . S
C459 H486 0.931 . S
C460 C458 1.421 . S
C460 C459 1.422 . S
C460 C484 1.417 . S
C461 H438 0.931 . S
C461 N457 1.343 . S
C461 C462 1.390 . S
C462 H440 0.930 . S
C462 C459 1.321 . S
C462 C461 1.390 . S
O463 Gd431 2.386 . S
O463 C475 1.265 . S
O464 Gd430 2.353 . S
O464 C475 1.242 . S
O465 Gd430 2.468 . S
O465 C483 1.263 . S
O466 Gd430 2.427 . S
O466 C483 1.252 . S
O467 Gd431 2.307 . S
O467 C476 1.261 . S
O468 Gd430 2.388 . S
O468 C476 1.252 . S
O469 Gd430 2.386 . S
O469 C487 1.265 . S
O470 Gd431 2.353 . S
O470 C487 1.242 . S
O471 Gd431 2.468 . S
O471 C495 1.263 . S
O472 Gd431 2.427 . S
O472 C495 1.252 . S
O473 Gd430 2.307 . S
O473 C488 1.261 . S
O474 Gd431 2.388 . S
O474 C488 1.252 . S
C475 O463 1.265 . S
C475 O464 1.242 . S
C476 O467 1.261 . S
C476 O468 1.252 . S
C477 C480 1.394 . S
C477 C482 1.370 . S
C477 C483 1.500 . S
C478 C481 1.383 . S
C478 C482 1.395 . S
C479 C480 1.396 . S
C479 C481 1.365 . S
C479 H496 0.929 . S
C480 C477 1.394 . S
C480 C479 1.396 . S
C480 H497 0.930 . S
C481 C478 1.383 . S
C481 C479 1.365 . S
C481 H498 0.931 . S
C482 C477 1.370 . S
C482 C478 1.395 . S
C482 H499 0.930 . S
C483 Gd430 2.805 . S
C483 O465 1.263 . S
C483 O466 1.252 . S
C483 C477 1.500 . S
C484 H446 0.930 . S
C484 C460 1.417 . S
C484 C485 1.329 . S
C485 C455 1.437 . S
C485 H456 0.929 . S
C485 C484 1.329 . S
H486 C459 0.931 . S
C487 O469 1.265 . S
C487 O470 1.242 . S
C488 O473 1.261 . S
C488 O474 1.252 . S
C489 C492 1.394 . S
C489 C494 1.370 . S
C489 C495 1.500 . S
C490 C493 1.383 . S
C490 C494 1.395 . S
C491 C492 1.396 . S
C491 C493 1.365 . S
C491 H500 0.929 . S
C492 C489 1.394 . S
C492 C491 1.396 . S
C492 H501 0.930 . S
C493 C490 1.383 . S
C493 C491 1.365 . S
C493 H502 0.931 . S
C494 C489 1.370 . S
C494 C490 1.395 . S
C494 H503 0.930 . S
C495 Gd431 2.805 . S
C495 O471 1.263 . S
C495 O472 1.252 . S
C495 C489 1.500 . S
H496 C479 0.929 . S
H497 C480 0.930 . S
H498 C481 0.931 . S
H499 C482 0.930 . S
H500 C491 0.929 . S
H501 C492 0.930 . S
H502 C493 0.931 . S
H503 C494 0.930 . S
C504 C506 1.422 . S
C504 C508 1.415 . S
C504 N510 1.369 . S
C505 C506 1.421 . S
C505 C507 1.417 . S
C505 C517 1.422 . S
C506 C504 1.422 . S
C506 C505 1.421 . S
C506 N516 1.359 . S
C507 C505 1.417 . S
C507 C509 1.329 . S
C507 H526 0.930 . S
C508 C504 1.415 . S
C508 C509 1.437 . S
C508 C512 1.413 . S
C509 C507 1.329 . S
C509 C508 1.437 . S
C509 H531 0.929 . S
N510 C504 1.369 . S
N510 C511 1.338 . S
N510 Gd515 2.622 . S
C511 N510 1.338 . S
C511 C513 1.378 . S
C511 H523 0.929 . S
C512 C508 1.413 . S
C512 C513 1.348 . S
C512 H528 0.931 . S
C513 C511 1.378 . S
C513 C512 1.348 . S
C513 H529 0.930 . S
Gd514 N534 2.622 . S
Gd514 N541 2.570 1_545 S
Gd514 O548 2.353 . S
Gd514 O549 2.468 . S
Gd514 O550 2.427 . S
Gd514 O552 2.388 . S
Gd514 O553 2.386 1_545 S
Gd514 O557 2.307 . S
Gd514 C567 2.805 . S
Gd515 N510 2.622 . S
Gd515 N516 2.570 . S
Gd515 O547 2.386 . S
Gd515 O551 2.307 . S
Gd515 O554 2.353 1_545 S
Gd515 O555 2.468 . S
Gd515 O556 2.427 . S
Gd515 O558 2.388 . S
Gd515 C579 2.805 . S
N516 C506 1.359 . S
N516 Gd515 2.570 . S
N516 C518 1.343 . S
C517 C505 1.422 . S
C517 C519 1.321 . S
C517 H525 0.931 . S
C518 N516 1.343 . S
C518 C519 1.390 . S
C518 H520 0.931 . S
C519 C517 1.321 . S
C519 C518 1.390 . S
C519 H521 0.930 . S
H520 C518 0.931 . S
H521 C519 0.930 . S
H522 C545 0.956 . S
H523 C511 0.929 . S
H524 C546 0.930 . S
H525 C517 0.931 . S
H526 C507 0.930 . S
H527 C536 0.929 . S
H528 C512 0.931 . S
H529 C513 0.930 . S
H530 C568 0.930 . S
H531 C509 0.929 . S
H532 C537 0.931 . S
H533 C538 0.930 . S
N534 Gd514 2.622 . S
N534 C535 1.369 1_545 S
N534 C536 1.338 . S
C535 N534 1.369 1_565 S
C535 C539 1.415 . S
C535 C542 1.422 . S
C536 H527 0.929 . S
C536 N534 1.338 . S
C536 C538 1.378 1_545 S
C537 H532 0.931 . S
C537 C538 1.348 . S
C537 C539 1.413 . S
C538 H533 0.930 . S
C538 C536 1.378 1_565 S
C538 C537 1.348 . S
C539 C535 1.415 . S
C539 C537 1.413 . S
C539 C569 1.437 . S
H540 C569 0.929 . S
N541 Gd514 2.570 1_565 S
N541 C542 1.359 . S
N541 C545 1.343 . S
C542 C535 1.422 . S
C542 N541 1.359 . S
C542 C544 1.421 . S
C543 C544 1.422 . S
C543 C546 1.321 . S
C543 H570 0.931 . S
C544 C542 1.421 . S
C544 C543 1.422 . S
C544 C568 1.417 . S
C545 H522 0.956 . S
C545 N541 1.343 . S
C545 C546 1.390 . S
C546 H524 0.930 . S
C546 C543 1.321 . S
C546 C545 1.390 . S
O547 Gd515 2.386 . S
O547 C559 1.265 . S
O548 Gd514 2.353 . S
O548 C559 1.242 . S
O549 Gd514 2.468 . S
O549 C567 1.263 . S
O550 Gd514 2.427 . S
O550 C567 1.252 . S
O551 Gd515 2.307 . S
O551 C560 1.261 . S
O552 Gd514 2.388 . S
O552 C560 1.252 . S
O553 Gd514 2.386 1_565 S
O553 C571 1.265 . S
O554 Gd515 2.353 1_565 S
O554 C571 1.242 . S
O555 Gd515 2.468 . S
O555 C579 1.263 . S
O556 Gd515 2.427 . S
O556 C579 1.252 . S
O557 Gd514 2.307 . S
O557 C572 1.261 . S
O558 Gd515 2.388 . S
O558 C572 1.252 . S
C559 O547 1.265 . S
C559 O548 1.242 . S
C560 O551 1.261 . S
C560 O552 1.252 . S
C561 C564 1.394 . S
C561 C566 1.370 . S
C561 C567 1.500 . S
C562 C565 1.383 . S
C562 C566 1.395 . S
C563 C564 1.396 . S
C563 C565 1.365 . S
C563 H580 0.929 . S
C564 C561 1.394 . S
C564 C563 1.396 . S
C564 H581 0.930 . S
C565 C562 1.383 . S
C565 C563 1.365 . S
C565 H582 0.931 . S
C566 C561 1.370 . S
C566 C562 1.395 . S
C566 H583 0.930 . S
C567 Gd514 2.805 . S
C567 O549 1.263 . S
C567 O550 1.252 . S
C567 C561 1.500 . S
C568 H530 0.930 . S
C568 C544 1.417 . S
C568 C569 1.329 . S
C569 C539 1.437 . S
C569 H540 0.929 . S
C569 C568 1.329 . S
H570 C543 0.931 . S
C571 O553 1.265 . S
C571 O554 1.242 . S
C572 O557 1.261 . S
C572 O558 1.252 . S
C573 C576 1.394 1_545 S
C573 C578 1.370 1_545 S
C573 C579 1.500 . S
C574 C577 1.383 . S
C574 C578 1.395 . S
C575 C576 1.396 . S
C575 C577 1.365 . S
C575 H584 0.929 . S
C576 C573 1.394 1_565 S
C576 C575 1.396 . S
C576 H585 0.952 . S
C577 C574 1.383 . S
C577 C575 1.365 . S
C577 H586 0.931 . S
C578 C573 1.370 1_565 S
C578 C574 1.395 . S
C578 H587 0.931 1_565 S
C579 Gd515 2.805 . S
C579 O555 1.263 . S
C579 O556 1.252 . S
C579 C573 1.500 . S
H580 C563 0.929 . S
H581 C564 0.930 . S
H582 C565 0.931 . S
H583 C566 0.930 . S
H584 C575 0.929 . S
H585 C576 0.952 . S
H586 C577 0.931 . S
H587 C578 0.931 1_545 S
C588 C590 1.422 . S
C588 C592 1.415 . S
C588 N594 1.369 . S
C589 C590 1.421 . S
C589 C591 1.417 . S
C589 C601 1.422 . S
C590 C588 1.422 . S
C590 C589 1.421 . S
C590 N600 1.359 . S
C591 C589 1.417 . S
C591 C593 1.329 . S
C591 H610 0.930 . S
C592 C588 1.415 . S
C592 C593 1.437 . S
C592 C596 1.413 . S
C593 C591 1.329 . S
C593 C592 1.437 . S
C593 H615 0.929 . S
N594 C588 1.369 . S
N594 C595 1.338 . S
N594 Gd599 2.622 . S
C595 N594 1.338 . S
C595 C597 1.378 . S
C595 H607 0.929 . S
C596 C592 1.413 . S
C596 C597 1.348 . S
C596 H612 0.931 . S
C597 C595 1.378 . S
C597 C596 1.348 . S
C597 H613 0.930 . S
Gd598 N618 2.622 . S
Gd598 N625 2.570 . S
Gd598 O632 2.353 . S
Gd598 O633 2.468 . S
Gd598 O634 2.427 . S
Gd598 O636 2.388 . S
Gd598 O637 2.386 . S
Gd598 O641 2.307 . S
Gd598 C651 2.805 . S
Gd599 N594 2.622 . S
Gd599 N600 2.570 . S
Gd599 O631 2.386 . S
Gd599 O635 2.307 . S
Gd599 O638 2.353 . S
Gd599 O639 2.468 . S
Gd599 O640 2.427 . S
Gd599 O642 2.388 . S
Gd599 C663 2.805 . S
N600 C590 1.359 . S
N600 Gd599 2.570 . S
N600 C602 1.343 . S
C601 C589 1.422 . S
C601 C603 1.321 . S
C601 H609 0.931 . S
C602 N600 1.343 . S
C602 C603 1.390 . S
C602 H604 0.931 . S
C603 C601 1.321 . S
C603 C602 1.390 . S
C603 H605 0.930 . S
H604 C602 0.931 . S
H605 C603 0.930 . S
H606 C629 0.931 . S
H607 C595 0.929 . S
H608 C630 0.930 . S
H609 C601 0.931 . S
H610 C591 0.930 . S
H611 C620 0.929 . S
H612 C596 0.931 . S
H613 C597 0.930 . S
H614 C652 0.930 . S
H615 C593 0.929 . S
H616 C621 0.931 . S
H617 C622 0.930 . S
N618 Gd598 2.622 . S
N618 C619 1.369 . S
N618 C620 1.338 . S
C619 N618 1.369 . S
C619 C623 1.415 . S
C619 C626 1.422 . S
C620 H611 0.929 . S
C620 N618 1.338 . S
C620 C622 1.378 . S
C621 H616 0.931 . S
C621 C622 1.348 . S
C621 C623 1.413 . S
C622 H617 0.930 . S
C622 C620 1.378 . S
C622 C621 1.348 . S
C623 C619 1.415 . S
C623 C621 1.413 . S
C623 C653 1.437 . S
H624 C653 0.929 . S
N625 Gd598 2.570 . S
N625 C626 1.359 . S
N625 C629 1.343 . S
C626 C619 1.422 . S
C626 N625 1.359 . S
C626 C628 1.421 . S
C627 C628 1.422 . S
C627 C630 1.321 . S
C627 H654 0.931 . S
C628 C626 1.421 . S
C628 C627 1.422 . S
C628 C652 1.417 . S
C629 H606 0.931 . S
C629 N625 1.343 . S
C629 C630 1.390 . S
C630 H608 0.930 . S
C630 C627 1.321 . S
C630 C629 1.390 . S
O631 Gd599 2.386 . S
O631 C643 1.265 . S
O632 Gd598 2.353 . S
O632 C643 1.242 . S
O633 Gd598 2.468 . S
O633 C651 1.263 . S
O634 Gd598 2.427 . S
O634 C651 1.252 . S
O635 Gd599 2.307 . S
O635 C644 1.261 . S
O636 Gd598 2.388 . S
O636 C644 1.252 . S
O637 Gd598 2.386 . S
O637 C655 1.265 . S
O638 Gd599 2.353 . S
O638 C655 1.242 . S
O639 Gd599 2.468 . S
O639 C663 1.263 . S
O640 Gd599 2.427 . S
O640 C663 1.252 . S
O641 Gd598 2.307 . S
O641 C656 1.261 . S
O642 Gd599 2.388 . S
O642 C656 1.252 . S
C643 O631 1.265 . S
C643 O632 1.242 . S
C644 O635 1.261 . S
C644 O636 1.252 . S
C645 C648 1.394 . S
C645 C650 1.370 . S
C645 C651 1.500 . S
C646 C649 1.383 . S
C646 C650 1.395 . S
C647 C648 1.396 . S
C647 C649 1.365 . S
C647 H664 0.929 . S
C648 C645 1.394 . S
C648 C647 1.396 . S
C648 H665 0.930 . S
C649 C646 1.383 . S
C649 C647 1.365 . S
C649 H666 0.931 . S
C650 C645 1.370 . S
C650 C646 1.395 . S
C650 H667 0.930 . S
C651 Gd598 2.805 . S
C651 O633 1.263 . S
C651 O634 1.252 . S
C651 C645 1.500 . S
C652 H614 0.930 . S
C652 C628 1.417 . S
C652 C653 1.329 . S
C653 C623 1.437 . S
C653 H624 0.929 . S
C653 C652 1.329 . S
H654 C627 0.931 . S
C655 O637 1.265 . S
C655 O638 1.242 . S
C656 O641 1.261 . S
C656 O642 1.252 . S
C657 C660 1.394 . S
C657 C662 1.370 . S
C657 C663 1.500 . S
C658 C661 1.383 . S
C658 C662 1.395 . S
C659 C660 1.396 . S
C659 C661 1.365 . S
C659 H668 0.929 . S
C660 C657 1.394 . S
C660 C659 1.396 . S
C660 H669 0.930 . S
C661 C658 1.383 . S
C661 C659 1.365 . S
C661 H670 0.931 . S
C662 C657 1.370 . S
C662 C658 1.395 . S
C662 H671 0.930 . S
C663 Gd599 2.805 . S
C663 O639 1.263 . S
C663 O640 1.252 . S
C663 C657 1.500 . S
H664 C647 0.929 . S
H665 C648 0.930 . S
H666 C649 0.931 . S
H667 C650 0.930 . S
H668 C659 0.929 . S
H669 C660 0.930 . S
H670 C661 0.931 . S
H671 C662 0.930 . S
C672 C674 1.422 . S
C672 C676 1.415 . S
C672 N678 1.369 . S
C673 C674 1.421 . S
C673 C675 1.417 . S
C673 C685 1.422 . S
C674 C672 1.422 . S
C674 C673 1.421 . S
C674 N684 1.359 . S
C675 C673 1.417 . S
C675 C677 1.329 . S
C675 H694 0.930 . S
C676 C672 1.415 . S
C676 C677 1.437 . S
C676 C680 1.413 1_455 S
C677 C675 1.329 . S
C677 C676 1.437 . S
C677 H699 0.929 . S
N678 C672 1.369 . S
N678 C679 1.338 1_455 S
N678 Gd683 2.622 . S
C679 N678 1.338 1_655 S
C679 C681 1.378 . S
C679 H691 0.929 . S
C680 C676 1.413 1_655 S
C680 C681 1.348 . S
C680 H696 0.931 . S
C681 C679 1.378 . S
C681 C680 1.348 . S
C681 H697 0.930 . S
Gd682 N702 2.622 1_545 S
Gd682 N709 2.570 1_545 S
Gd682 O716 2.353 . S
Gd682 O717 2.468 1_545 S
Gd682 O718 2.427 1_545 S
Gd682 O720 2.388 . S
Gd682 O721 2.386 . S
Gd682 O725 2.307 . S
Gd682 C735 2.805 1_545 S
Gd683 N678 2.622 . S
Gd683 N684 2.570 . S
Gd683 O715 2.386 . S
Gd683 O719 2.307 . S
Gd683 O722 2.353 . S
Gd683 O723 2.468 . S
Gd683 O724 2.427 . S
Gd683 O726 2.388 1_455 S
Gd683 C747 2.805 . S
N684 C674 1.359 . S
N684 Gd683 2.570 . S
N684 C686 1.343 . S
C685 C673 1.422 . S
C685 C687 1.321 . S
C685 H693 0.931 . S
C686 N684 1.343 . S
C686 C687 1.390 . S
C686 H688 0.931 . S
C687 C685 1.321 . S
C687 C686 1.390 . S
C687 H689 0.930 . S
H688 C686 0.931 . S
H689 C687 0.930 . S
H690 C713 0.931 1_655 S
H691 C679 0.929 . S
H692 C714 0.930 . S
H693 C685 0.931 . S
H694 C675 0.930 . S
H695 C704 0.948 . S
H696 C680 0.931 . S
H697 C681 0.930 . S
H698 C736 0.930 . S
H699 C677 0.929 . S
H700 C705 0.931 . S
H701 C706 0.930 1_545 S
N702 Gd682 2.622 1_565 S
N702 C703 1.369 . S
N702 C704 1.331 1_565 S
C703 N702 1.369 . S
C703 C707 1.415 . S
C703 C710 1.422 . S
C704 H695 0.948 . S
C704 N702 1.331 1_545 S
C704 C706 1.368 1_545 S
C705 H700 0.931 . S
C705 C706 1.348 . S
C705 C707 1.413 . S
C706 H701 0.930 1_565 S
C706 C704 1.368 1_565 S
C706 C705 1.348 . S
C707 C703 1.415 . S
C707 C705 1.413 . S
C707 C737 1.437 . S
H708 C737 0.929 . S
N709 Gd682 2.570 1_565 S
N709 C710 1.359 . S
N709 C713 1.343 . S
C710 C703 1.422 . S
C710 N709 1.359 . S
C710 C712 1.421 . S
C711 C712 1.422 1_655 S
C711 C714 1.321 . S
C711 H738 0.931 . S
C712 C710 1.421 . S
C712 C711 1.422 1_455 S
C712 C736 1.417 . S
C713 H690 0.931 1_455 S
C713 N709 1.343 . S
C713 C714 1.390 1_455 S
C714 H692 0.930 . S
C714 C711 1.321 . S
C714 C713 1.390 1_655 S
O715 Gd683 2.386 . S
O715 C727 1.265 . S
O716 Gd682 2.353 . S
O716 C727 1.242 . S
O717 Gd682 2.468 1_565 S
O717 C735 1.263 . S
O718 Gd682 2.427 1_565 S
O718 C735 1.252 . S
O719 Gd683 2.307 . S
O719 C728 1.261 . S
O720 Gd682 2.388 . S
O720 C728 1.252 . S
O721 Gd682 2.386 . S
O721 C739 1.265 . S
O722 Gd683 2.353 . S
O722 C739 1.242 . S
O723 Gd683 2.468 . S
O723 C747 1.263 . S
O724 Gd683 2.427 . S
O724 C747 1.252 . S
O725 Gd682 2.307 . S
O725 C740 1.261 1_455 S
O726 Gd683 2.388 1_655 S
O726 C740 1.252 . S
C727 O715 1.265 . S
C727 O716 1.242 . S
C728 O719 1.261 . S
C728 O720 1.252 . S
C729 C732 1.394 . S
C729 C734 1.370 . S
C729 C735 1.500 . S
C730 C733 1.383 . S
C730 C734 1.395 . S
C731 C732 1.396 . S
C731 C733 1.365 . S
C731 H748 0.929 . S
C732 C729 1.394 . S
C732 C731 1.396 . S
C732 H749 0.930 . S
C733 C730 1.383 . S
C733 C731 1.365 . S
C733 H750 0.931 . S
C734 C729 1.370 . S
C734 C730 1.395 . S
C734 H751 0.930 . S
C735 Gd682 2.805 1_565 S
C735 O717 1.263 . S
C735 O718 1.252 . S
C735 C729 1.500 . S
C736 H698 0.930 . S
C736 C712 1.417 . S
C736 C737 1.329 . S
C737 C707 1.437 . S
C737 H708 0.929 . S
C737 C736 1.329 . S
H738 C711 0.931 . S
C739 O721 1.265 . S
C739 O722 1.242 . S
C740 O725 1.261 1_655 S
C740 O726 1.252 . S
C741 C744 1.394 1_455 S
C741 C746 1.370 . S
C741 C747 1.500 . S
C742 C745 1.383 . S
C742 C746 1.395 . S
C743 C744 1.396 . S
C743 C745 1.365 1_655 S
C743 H752 0.929 . S
C744 C741 1.394 1_655 S
C744 C743 1.396 . S
C744 H753 0.930 . S
C745 C742 1.383 . S
C745 C743 1.365 1_455 S
C745 H754 0.931 . S
C746 C741 1.370 . S
C746 C742 1.395 . S
C746 H755 0.930 . S
C747 Gd683 2.805 . S
C747 O723 1.263 . S
C747 O724 1.252 . S
C747 C741 1.500 . S
H748 C731 0.929 . S
H749 C732 0.930 . S
H750 C733 0.931 . S
H751 C734 0.930 . S
H752 C743 0.929 . S
H753 C744 0.930 . S
H754 C745 0.931 . S
H755 C746 0.930 . S
C756 C758 1.422 . S
C756 C760 1.415 . S
C756 N762 1.369 . S
C757 C758 1.421 . S
C757 C759 1.417 . S
C757 C769 1.422 . S
C758 C756 1.422 . S
C758 C757 1.421 . S
C758 N768 1.359 . S
C759 C757 1.417 . S
C759 C761 1.329 . S
C759 H778 0.930 . S
C760 C756 1.415 . S
C760 C761 1.437 . S
C760 C764 1.413 . S
C761 C759 1.329 . S
C761 C760 1.437 . S
C761 H783 0.929 . S
N762 C756 1.369 . S
N762 C763 1.338 . S
N762 Gd767 2.622 . S
C763 N762 1.338 . S
C763 C765 1.378 . S
C763 H775 0.929 . S
C764 C760 1.413 . S
C764 C765 1.348 . S
C764 H780 0.931 . S
C765 C763 1.378 . S
C765 C764 1.348 . S
C765 H781 0.930 . S
Gd766 N786 2.622 . S
Gd766 N793 2.570 . S
Gd766 O800 2.353 . S
Gd766 O801 2.468 . S
Gd766 O802 2.427 . S
Gd766 O804 2.388 . S
Gd766 O805 2.386 . S
Gd766 O809 2.307 . S
Gd766 C819 2.805 . S
Gd767 N762 2.622 . S
Gd767 N768 2.570 . S
Gd767 O799 2.386 . S
Gd767 O803 2.307 . S
Gd767 O806 2.353 . S
Gd767 O807 2.468 . S
Gd767 O808 2.427 . S
Gd767 O810 2.388 . S
Gd767 C831 2.805 . S
N768 C758 1.359 . S
N768 Gd767 2.570 . S
N768 C770 1.343 . S
C769 C757 1.422 . S
C769 C771 1.321 . S
C769 H777 0.931 . S
C770 N768 1.343 . S
C770 C771 1.390 . S
C770 H772 0.931 . S
C771 C769 1.321 . S
C771 C770 1.390 . S
C771 H773 0.930 . S
H772 C770 0.931 . S
H773 C771 0.930 . S
H774 C797 0.931 . S
H775 C763 0.929 . S
H776 C798 0.930 . S
H777 C769 0.931 . S
H778 C759 0.930 . S
H779 C788 0.929 . S
H780 C764 0.931 . S
H781 C765 0.930 . S
H782 C820 0.930 . S
H783 C761 0.929 . S
H784 C789 0.931 . S
H785 C790 0.930 . S
N786 Gd766 2.622 . S
N786 C787 1.369 . S
N786 C788 1.338 . S
C787 N786 1.369 . S
C787 C791 1.415 . S
C787 C794 1.422 . S
C788 H779 0.929 . S
C788 N786 1.338 . S
C788 C790 1.378 . S
C789 H784 0.931 . S
C789 C790 1.348 . S
C789 C791 1.413 . S
C790 H785 0.930 . S
C790 C788 1.378 . S
C790 C789 1.348 . S
C791 C787 1.415 . S
C791 C789 1.413 . S
C791 C821 1.437 . S
H792 C821 0.929 . S
N793 Gd766 2.570 . S
N793 C794 1.359 . S
N793 C797 1.343 . S
C794 C787 1.422 . S
C794 N793 1.359 . S
C794 C796 1.421 . S
C795 C796 1.422 . S
C795 C798 1.321 . S
C795 H822 0.931 . S
C796 C794 1.421 . S
C796 C795 1.422 . S
C796 C820 1.417 . S
C797 H774 0.931 . S
C797 N793 1.343 . S
C797 C798 1.390 . S
C798 H776 0.930 . S
C798 C795 1.321 . S
C798 C797 1.390 . S
O799 Gd767 2.386 . S
O799 C811 1.265 . S
O800 Gd766 2.353 . S
O800 C811 1.242 . S
O801 Gd766 2.468 . S
O801 C819 1.263 . S
O802 Gd766 2.427 . S
O802 C819 1.252 . S
O803 Gd767 2.307 . S
O803 C812 1.261 . S
O804 Gd766 2.388 . S
O804 C812 1.252 . S
O805 Gd766 2.386 . S
O805 C823 1.265 . S
O806 Gd767 2.353 . S
O806 C823 1.242 . S
O807 Gd767 2.468 . S
O807 C831 1.263 . S
O808 Gd767 2.427 . S
O808 C831 1.252 . S
O809 Gd766 2.307 . S
O809 C824 1.261 . S
O810 Gd767 2.388 . S
O810 C824 1.252 . S
C811 O799 1.265 . S
C811 O800 1.242 . S
C812 O803 1.261 . S
C812 O804 1.252 . S
C813 C816 1.394 . S
C813 C818 1.370 . S
C813 C819 1.500 . S
C814 C817 1.383 . S
C814 C818 1.395 . S
C815 C816 1.396 . S
C815 C817 1.365 . S
C815 H832 0.929 . S
C816 C813 1.394 . S
C816 C815 1.396 . S
C816 H833 0.930 . S
C817 C814 1.383 . S
C817 C815 1.365 . S
C817 H834 0.931 . S
C818 C813 1.370 . S
C818 C814 1.395 . S
C818 H835 0.930 . S
C819 Gd766 2.805 . S
C819 O801 1.263 . S
C819 O802 1.252 . S
C819 C813 1.500 . S
C820 H782 0.930 . S
C820 C796 1.417 . S
C820 C821 1.329 . S
C821 C791 1.437 . S
C821 H792 0.929 . S
C821 C820 1.329 . S
H822 C795 0.931 . S
C823 O805 1.265 . S
C823 O806 1.242 . S
C824 O809 1.261 . S
C824 O810 1.252 . S
C825 C828 1.394 . S
C825 C830 1.370 . S
C825 C831 1.500 . S
C826 C829 1.383 . S
C826 C830 1.395 . S
C827 C828 1.396 . S
C827 C829 1.365 . S
C827 H836 0.929 . S
C828 C825 1.394 . S
C828 C827 1.396 . S
C828 H837 0.930 . S
C829 C826 1.383 . S
C829 C827 1.365 . S
C829 H838 0.931 . S
C830 C825 1.370 . S
C830 C826 1.395 . S
C830 H839 0.930 . S
C831 Gd767 2.805 . S
C831 O807 1.263 . S
C831 O808 1.252 . S
C831 C825 1.500 . S
H832 C815 0.929 . S
H833 C816 0.930 . S
H834 C817 0.931 . S
H835 C818 0.930 . S
H836 C827 0.929 . S
H837 C828 0.930 . S
H838 C829 0.931 . S
H839 C830 0.930 . S
C840 C842 1.422 . S
C840 C844 1.415 1_545 S
C840 N846 1.369 1_545 S
C841 C842 1.421 . S
C841 C843 1.417 . S
C841 C853 1.422 . S
C842 C840 1.422 . S
C842 C841 1.421 . S
C842 N852 1.359 . S
C843 C841 1.417 . S
C843 C845 1.329 . S
C843 H862 0.930 . S
C844 C840 1.415 1_565 S
C844 C845 1.437 1_565 S
C844 C848 1.413 . S
C845 C843 1.329 . S
C845 C844 1.437 1_545 S
C845 H867 0.929 1_545 S
N846 C840 1.369 1_565 S
N846 C847 1.338 . S
N846 Gd851 2.622 1_565 S
C847 N846 1.338 . S
C847 C849 1.378 . S
C847 H859 0.929 . S
C848 C844 1.413 . S
C848 C849 1.348 . S
C848 H864 0.931 . S
C849 C847 1.378 . S
C849 C848 1.348 . S
C849 H865 0.930 . S
Gd850 N870 2.622 1_554 S
Gd850 N877 2.570 1_554 S
Gd850 O884 2.353 . S
Gd850 O885 2.468 1_554 S
Gd850 O886 2.427 1_554 S
Gd850 O888 2.388 . S
Gd850 O889 2.386 . S
Gd850 O893 2.307 . S
Gd850 C903 2.805 1_554 S
Gd851 N846 2.622 1_545 S
Gd851 N852 2.570 . S
Gd851 O883 2.386 . S
Gd851 O887 2.307 . S
Gd851 O890 2.353 . S
Gd851 O891 2.468 . S
Gd851 O892 2.427 1_545 S
Gd851 O894 2.388 1_545 S
Gd851 C915 2.805 . S
N852 C842 1.359 . S
N852 Gd851 2.570 . S
N852 C854 1.343 . S
C853 C841 1.422 . S
C853 C855 1.321 . S
C853 H861 0.931 . S
C854 N852 1.343 . S
C854 C855 1.390 . S
C854 H856 0.931 . S
C855 C853 1.321 . S
C855 C854 1.390 . S
C855 H857 0.930 . S
H856 C854 0.931 . S
H857 C855 0.930 . S
H858 C881 0.931 . S
H859 C847 0.929 . S
H860 C882 0.930 . S
H861 C853 0.931 . S
H862 C843 0.930 . S
H863 C872 0.929 . S
H864 C848 0.931 . S
H865 C849 0.930 . S
H866 C904 0.930 . S
H867 C845 0.929 1_565 S
H868 C873 0.931 . S
H869 C874 0.930 . S
N870 Gd850 2.622 1_556 S
N870 C871 1.369 . S
N870 C872 1.338 1_556 S
C871 N870 1.369 . S
C871 C875 1.415 . S
C871 C878 1.422 . S
C872 H863 0.929 . S
C872 N870 1.338 1_554 S
C872 C874 1.378 . S
C873 H868 0.931 . S
C873 C874 1.348 1_556 S
C873 C875 1.413 . S
C874 H869 0.930 . S
C874 C872 1.378 . S
C874 C873 1.348 1_554 S
C875 C871 1.415 . S
C875 C873 1.413 . S
C875 C905 1.437 . S
H876 C905 0.929 . S
N877 Gd850 2.570 1_556 S
N877 C878 1.359 . S
N877 C881 1.343 . S
C878 C871 1.422 . S
C878 N877 1.359 . S
C878 C880 1.421 . S
C879 C880 1.422 . S
C879 C882 1.321 1_545 S
C879 H906 0.921 1_545 S
C880 C878 1.421 . S
C880 C879 1.422 . S
C880 C904 1.417 . S
C881 H858 0.931 . S
C881 N877 1.343 . S
C881 C882 1.390 1_545 S
C882 H860 0.930 . S
C882 C879 1.321 1_565 S
C882 C881 1.390 1_565 S
O883 Gd851 2.386 . S
O883 C895 1.265 . S
O884 Gd850 2.353 . S
O884 C895 1.242 . S
O885 Gd850 2.468 1_556 S
O885 C903 1.263 . S
O886 Gd850 2.427 1_556 S
O886 C903 1.252 . S
O887 Gd851 2.307 . S
O887 C896 1.261 . S
O888 Gd850 2.388 . S
O888 C896 1.252 . S
O889 Gd850 2.386 . S
O889 C907 1.265 . S
O890 Gd851 2.353 . S
O890 C907 1.242 . S
O891 Gd851 2.468 . S
O891 C915 1.263 . S
O892 Gd851 2.427 1_565 S
O892 C915 1.252 1_565 S
O893 Gd850 2.307 . S
O893 C908 1.261 1_545 S
O894 Gd851 2.388 1_565 S
O894 C908 1.252 . S
C895 O883 1.265 . S
C895 O884 1.242 . S
C896 O887 1.261 . S
C896 O888 1.252 . S
C897 C900 1.394 . S
C897 C902 1.370 . S
C897 C903 1.500 . S
C898 C901 1.383 . S
C898 C902 1.395 . S
C899 C900 1.396 . S
C899 C901 1.365 . S
C899 H916 0.929 . S
C900 C897 1.394 . S
C900 C899 1.396 . S
C900 H917 0.930 . S
C901 C898 1.383 . S
C901 C899 1.365 . S
C901 H918 0.931 . S
C902 C897 1.370 . S
C902 C898 1.395 . S
C902 H919 0.930 . S
C903 Gd850 2.805 1_556 S
C903 O885 1.263 . S
C903 O886 1.252 . S
C903 C897 1.500 . S
C904 H866 0.930 . S
C904 C880 1.417 . S
C904 C905 1.329 . S
C905 C875 1.437 . S
C905 H876 0.929 . S
C905 C904 1.329 . S
H906 C879 0.921 1_565 S
C907 O889 1.265 . S
C907 O890 1.242 . S
C908 O893 1.261 1_565 S
C908 O894 1.252 . S
C909 C912 1.394 . S
C909 C914 1.370 1_565 S
C909 C915 1.500 1_565 S
C910 C913 1.383 1_545 S
C910 C914 1.395 . S
C911 C912 1.396 . S
C911 C913 1.365 . S
C911 H920 0.929 . S
C912 C909 1.394 . S
C912 C911 1.396 . S
C912 H921 0.930 . S
C913 C910 1.383 1_565 S
C913 C911 1.365 . S
C913 H922 0.931 . S
C914 C909 1.370 1_545 S
C914 C910 1.395 . S
C914 H923 0.930 . S
C915 Gd851 2.805 . S
C915 O891 1.263 . S
C915 O892 1.252 1_545 S
C915 C909 1.500 1_545 S
H916 C899 0.929 . S
H917 C900 0.930 . S
H918 C901 0.931 . S
H919 C902 0.930 . S
H920 C911 0.929 . S
H921 C912 0.930 . S
H922 C913 0.931 . S
H923 C914 0.930 . S
C924 C926 1.422 . S
C924 C928 1.415 . S
C924 N930 1.369 . S
C925 C926 1.421 . S
C925 C927 1.417 . S
C925 C937 1.422 . S
C926 C924 1.422 . S
C926 C925 1.421 . S
C926 N936 1.359 . S
C927 C925 1.417 . S
C927 C929 1.329 . S
C927 H946 0.930 . S
C928 C924 1.415 . S
C928 C929 1.437 . S
C928 C932 1.413 . S
C929 C927 1.329 . S
C929 C928 1.437 . S
C929 H951 0.929 . S
N930 C924 1.369 . S
N930 C931 1.338 . S
N930 Gd935 2.622 . S
C931 N930 1.338 . S
C931 C933 1.378 . S
C931 H943 0.929 . S
C932 C928 1.413 . S
C932 C933 1.348 . S
C932 H948 0.931 . S
C933 C931 1.378 . S
C933 C932 1.348 . S
C933 H949 0.930 . S
Gd934 N954 2.622 . S
Gd934 N961 2.570 . S
Gd934 O968 2.353 . S
Gd934 O969 2.468 . S
Gd934 O970 2.427 . S
Gd934 O972 2.388 . S
Gd934 O973 2.386 . S
Gd934 O977 2.307 . S
Gd934 C987 2.805 . S
Gd935 N930 2.622 . S
Gd935 N936 2.570 . S
Gd935 O967 2.386 . S
Gd935 O971 2.307 . S
Gd935 O974 2.353 . S
Gd935 O975 2.468 . S
Gd935 O976 2.427 . S
Gd935 O978 2.388 . S
Gd935 C999 2.805 . S
N936 C926 1.359 . S
N936 Gd935 2.570 . S
N936 C938 1.343 . S
C937 C925 1.422 . S
C937 C939 1.321 . S
C937 H945 0.931 . S
C938 N936 1.343 . S
C938 C939 1.390 . S
C938 H940 0.931 . S
C939 C937 1.321 . S
C939 C938 1.390 . S
C939 H941 0.930 . S
H940 C938 0.931 . S
H941 C939 0.930 . S
H942 C965 0.931 . S
H943 C931 0.929 . S
H944 C966 0.930 . S
H945 C937 0.931 . S
H946 C927 0.930 . S
H947 C956 0.929 . S
H948 C932 0.931 . S
H949 C933 0.930 . S
H950 C988 0.930 . S
H951 C929 0.929 . S
H952 C957 0.931 . S
H953 C958 0.930 . S
N954 Gd934 2.622 . S
N954 C955 1.369 . S
N954 C956 1.338 . S
C955 N954 1.369 . S
C955 C959 1.415 . S
C955 C962 1.422 . S
C956 H947 0.929 . S
C956 N954 1.338 . S
C956 C958 1.378 . S
C957 H952 0.931 . S
C957 C958 1.348 . S
C957 C959 1.413 . S
C958 H953 0.930 . S
C958 C956 1.378 . S
C958 C957 1.348 . S
C959 C955 1.415 . S
C959 C957 1.413 . S
C959 C989 1.437 . S
H960 C989 0.929 . S
N961 Gd934 2.570 . S
N961 C962 1.359 . S
N961 C965 1.343 . S
C962 C955 1.422 . S
C962 N961 1.359 . S
C962 C964 1.421 . S
C963 C964 1.422 . S
C963 C966 1.321 . S
C963 H990 0.931 . S
C964 C962 1.421 . S
C964 C963 1.422 . S
C964 C988 1.417 . S
C965 H942 0.931 . S
C965 N961 1.343 . S
C965 C966 1.390 . S
C966 H944 0.930 . S
C966 C963 1.321 . S
C966 C965 1.390 . S
O967 Gd935 2.386 . S
O967 C979 1.265 . S
O968 Gd934 2.353 . S
O968 C979 1.242 . S
O969 Gd934 2.468 . S
O969 C987 1.263 . S
O970 Gd934 2.427 . S
O970 C987 1.252 . S
O971 Gd935 2.307 . S
O971 C980 1.261 . S
O972 Gd934 2.388 . S
O972 C980 1.252 . S
O973 Gd934 2.386 . S
O973 C991 1.265 . S
O974 Gd935 2.353 . S
O974 C991 1.242 . S
O975 Gd935 2.468 . S
O975 C999 1.263 . S
O976 Gd935 2.427 . S
O976 C999 1.252 . S
O977 Gd934 2.307 . S
O977 C992 1.261 . S
O978 Gd935 2.388 . S
O978 C992 1.252 . S
C979 O967 1.265 . S
C979 O968 1.242 . S
C980 O971 1.261 . S
C980 O972 1.252 . S
C981 C984 1.394 . S
C981 C986 1.370 . S
C981 C987 1.500 . S
C982 C985 1.383 . S
C982 C986 1.395 . S
C983 C984 1.396 . S
C983 C985 1.365 . S
C983 H1000 0.929 . S
C984 C981 1.394 . S
C984 C983 1.396 . S
C984 H1001 0.930 . S
C985 C982 1.383 . S
C985 C983 1.365 . S
C985 H1002 0.931 . S
C986 C981 1.370 . S
C986 C982 1.395 . S
C986 H1003 0.930 . S
C987 Gd934 2.805 . S
C987 O969 1.263 . S
C987 O970 1.252 . S
C987 C981 1.500 . S
C988 H950 0.930 . S
C988 C964 1.417 . S
C988 C989 1.329 . S
C989 C959 1.437 . S
C989 H960 0.929 . S
C989 C988 1.329 . S
H990 C963 0.931 . S
C991 O973 1.265 . S
C991 O974 1.242 . S
C992 O977 1.261 . S
C992 O978 1.252 . S
C993 C996 1.394 . S
C993 C998 1.370 . S
C993 C999 1.500 . S
C994 C997 1.383 . S
C994 C998 1.395 . S
C995 C996 1.396 . S
C995 C997 1.365 . S
C995 H1004 0.929 . S
C996 C993 1.394 . S
C996 C995 1.396 . S
C996 H1005 0.930 . S
C997 C994 1.383 . S
C997 C995 1.365 . S
C997 H1006 0.931 . S
C998 C993 1.370 . S
C998 C994 1.395 . S
C998 H1007 0.930 . S
C999 Gd935 2.805 . S
C999 O975 1.263 . S
C999 O976 1.252 . S
C999 C993 1.500 . S
H1000 C983 0.929 . S
H1001 C984 0.930 . S
H1002 C985 0.931 . S
H1003 C986 0.930 . S
H1004 C995 0.929 . S
H1005 C996 0.930 . S
H1006 C997 0.931 . S
H1007 C998 0.930 . S
C1008 C1010 1.422 . S
C1008 C1012 1.415 . S
C1008 N1014 1.369 . S
C1009 C1010 1.421 . S
C1009 C1011 1.417 . S
C1009 C1021 1.422 . S
C1010 C1008 1.422 . S
C1010 C1009 1.421 . S
C1010 N1020 1.359 . S
C1011 C1009 1.417 . S
C1011 C1013 1.329 . S
C1011 H1030 0.930 . S
C1012 C1008 1.415 . S
C1012 C1013 1.437 . S
C1012 C1016 1.413 . S
C1013 C1011 1.329 . S
C1013 C1012 1.437 . S
C1013 H1035 0.929 . S
N1014 C1008 1.369 . S
N1014 C1015 1.338 . S
N1014 Gd1019 2.622 . S
C1015 N1014 1.338 . S
C1015 C1017 1.378 . S
C1015 H1027 0.929 . S
C1016 C1012 1.413 . S
C1016 C1017 1.348 . S
C1016 H1032 0.931 . S
C1017 C1015 1.378 . S
C1017 C1016 1.348 . S
C1017 H1033 0.930 . S
Gd1018 N1038 2.622 . S
Gd1018 N1045 2.570 . S
Gd1018 O1052 2.353 . S
Gd1018 O1053 2.468 . S
Gd1018 O1054 2.427 . S
Gd1018 O1056 2.388 . S
Gd1018 O1057 2.386 . S
Gd1018 O1061 2.307 . S
Gd1018 C1071 2.805 . S
Gd1019 N1014 2.622 . S
Gd1019 N1020 2.570 . S
Gd1019 O1051 2.386 . S
Gd1019 O1055 2.307 . S
Gd1019 O1058 2.353 . S
Gd1019 O1059 2.468 . S
Gd1019 O1060 2.427 . S
Gd1019 O1062 2.388 . S
Gd1019 C1083 2.805 . S
N1020 C1010 1.359 . S
N1020 Gd1019 2.570 . S
N1020 C1022 1.343 . S
C1021 C1009 1.422 . S
C1021 C1023 1.321 . S
C1021 H1029 0.931 . S
C1022 N1020 1.343 . S
C1022 C1023 1.390 . S
C1022 H1024 0.931 . S
C1023 C1021 1.321 . S
C1023 C1022 1.390 . S
C1023 H1025 0.930 . S
H1024 C1022 0.931 . S
H1025 C1023 0.930 . S
H1026 C1049 0.931 . S
H1027 C1015 0.929 . S
H1028 C1050 0.930 . S
H1029 C1021 0.931 . S
H1030 C1011 0.930 . S
H1031 C1040 0.929 . S
H1032 C1016 0.931 . S
H1033 C1017 0.930 . S
H1034 C1072 0.930 . S
H1035 C1013 0.929 . S
H1036 C1041 0.931 . S
H1037 C1042 0.930 . S
N1038 Gd1018 2.622 . S
N1038 C1039 1.369 1_554 S
N1038 C1040 1.338 . S
C1039 N1038 1.369 1_556 S
C1039 C1043 1.415 . S
C1039 C1046 1.422 . S
C1040 H1031 0.929 . S
C1040 N1038 1.338 . S
C1040 C1042 1.378 1_554 S
C1041 H1036 0.931 . S
C1041 C1042 1.348 . S
C1041 C1043 1.413 . S
C1042 H1037 0.930 . S
C1042 C1040 1.378 1_556 S
C1042 C1041 1.348 . S
C1043 C1039 1.415 . S
C1043 C1041 1.413 . S
C1043 C1073 1.437 . S
H1044 C1073 0.929 . S
N1045 Gd1018 2.570 . S
N1045 C1046 1.359 1_554 S
N1045 C1049 1.343 . S
C1046 C1039 1.422 . S
C1046 N1045 1.359 1_556 S
C1046 C1048 1.421 . S
C1047 C1048 1.422 . S
C1047 C1050 1.321 . S
C1047 H1074 0.931 . S
C1048 C1046 1.421 . S
C1048 C1047 1.422 . S
C1048 C1072 1.417 . S
C1049 H1026 0.931 . S
C1049 N1045 1.343 . S
C1049 C1050 1.390 1_554 S
C1050 H1028 0.930 . S
C1050 C1047 1.321 . S
C1050 C1049 1.390 1_556 S
O1051 Gd1019 2.386 . S
O1051 C1063 1.265 . S
O1052 Gd1018 2.353 . S
O1052 C1063 1.242 . S
O1053 Gd1018 2.468 . S
O1053 C1071 1.263 . S
O1054 Gd1018 2.427 . S
O1054 C1071 1.252 . S
O1055 Gd1019 2.307 . S
O1055 C1064 1.261 . S
O1056 Gd1018 2.388 . S
O1056 C1064 1.252 . S
O1057 Gd1018 2.386 . S
O1057 C1075 1.265 1_554 S
O1058 Gd1019 2.353 . S
O1058 C1075 1.242 1_554 S
O1059 Gd1019 2.468 . S
O1059 C1083 1.263 . S
O1060 Gd1019 2.427 . S
O1060 C1083 1.252 . S
O1061 Gd1018 2.307 . S
O1061 C1076 1.261 . S
O1062 Gd1019 2.388 . S
O1062 C1076 1.252 . S
C1063 O1051 1.265 . S
C1063 O1052 1.242 . S
C1064 O1055 1.261 . S
C1064 O1056 1.252 . S
C1065 C1068 1.394 . S
C1065 C1070 1.370 . S
C1065 C1071 1.500 . S
C1066 C1069 1.383 . S
C1066 C1070 1.395 . S
C1067 C1068 1.396 . S
C1067 C1069 1.365 . S
C1067 H1084 0.929 . S
C1068 C1065 1.394 . S
C1068 C1067 1.396 . S
C1068 H1085 0.930 . S
C1069 C1066 1.383 . S
C1069 C1067 1.365 . S
C1069 H1086 0.931 . S
C1070 C1065 1.370 . S
C1070 C1066 1.395 . S
C1070 H1087 0.930 . S
C1071 Gd1018 2.805 . S
C1071 O1053 1.263 . S
C1071 O1054 1.252 . S
C1071 C1065 1.500 . S
C1072 H1034 0.930 . S
C1072 C1048 1.417 . S
C1072 C1073 1.329 . S
C1073 C1043 1.437 . S
C1073 H1044 0.929 . S
C1073 C1072 1.329 . S
H1074 C1047 0.931 . S
C1075 O1057 1.265 1_556 S
C1075 O1058 1.242 1_556 S
C1076 O1061 1.261 . S
C1076 O1062 1.252 . S
C1077 C1080 1.394 . S
C1077 C1082 1.370 . S
C1077 C1083 1.500 . S
C1078 C1081 1.383 . S
C1078 C1082 1.395 1_556 S
C1079 C1080 1.396 1_556 S
C1079 C1081 1.365 . S
C1079 H1088 0.929 . S
C1080 C1077 1.394 . S
C1080 C1079 1.396 1_554 S
C1080 H1089 0.930 . S
C1081 C1078 1.383 . S
C1081 C1079 1.365 . S
C1081 H1090 0.931 . S
C1082 C1077 1.370 . S
C1082 C1078 1.395 1_554 S
C1082 H1091 0.930 . S
C1083 Gd1019 2.805 . S
C1083 O1059 1.263 . S
C1083 O1060 1.252 . S
C1083 C1077 1.500 . S
H1084 C1067 0.929 . S
H1085 C1068 0.930 . S
H1086 C1069 0.931 . S
H1087 C1070 0.930 . S
H1088 C1079 0.929 . S
H1089 C1080 0.930 . S
H1090 C1081 0.931 . S
H1091 C1082 0.930 . S
C1092 C1094 1.422 . S
C1092 C1096 1.415 . S
C1092 N1098 1.369 . S
C1093 C1094 1.421 . S
C1093 C1095 1.417 . S
C1093 C1105 1.422 . S
C1094 C1092 1.422 . S
C1094 C1093 1.421 . S
C1094 N1104 1.359 . S
C1095 C1093 1.417 . S
C1095 C1097 1.329 . S
C1095 H1114 0.930 . S
C1096 C1092 1.415 . S
C1096 C1097 1.437 . S
C1096 C1100 1.413 . S
C1097 C1095 1.329 . S
C1097 C1096 1.437 . S
C1097 H1119 0.929 . S
N1098 C1092 1.369 . S
N1098 C1099 1.338 . S
N1098 Gd1103 2.622 . S
C1099 N1098 1.338 . S
C1099 C1101 1.378 . S
C1099 H1111 0.929 . S
C1100 C1096 1.413 . S
C1100 C1101 1.348 . S
C1100 H1116 0.931 . S
C1101 C1099 1.378 . S
C1101 C1100 1.348 . S
C1101 H1117 0.930 . S
Gd1102 N1122 2.622 . S
Gd1102 N1129 2.570 . S
Gd1102 O1136 2.353 . S
Gd1102 O1137 2.468 . S
Gd1102 O1138 2.427 . S
Gd1102 O1140 2.388 . S
Gd1102 O1141 2.386 . S
Gd1102 O1145 2.307 . S
Gd1102 C1155 2.805 . S
Gd1103 N1098 2.622 . S
Gd1103 N1104 2.570 . S
Gd1103 O1135 2.386 . S
Gd1103 O1139 2.307 . S
Gd1103 O1142 2.353 . S
Gd1103 O1143 2.468 . S
Gd1103 O1144 2.427 . S
Gd1103 O1146 2.388 . S
Gd1103 C1167 2.805 . S
N1104 C1094 1.359 . S
N1104 Gd1103 2.570 . S
N1104 C1106 1.343 . S
C1105 C1093 1.422 . S
C1105 C1107 1.321 . S
C1105 H1113 0.931 . S
C1106 N1104 1.343 . S
C1106 C1107 1.390 . S
C1106 H1108 0.931 . S
C1107 C1105 1.321 . S
C1107 C1106 1.390 . S
C1107 H1109 0.930 . S
H1108 C1106 0.931 . S
H1109 C1107 0.930 . S
H1110 C1133 0.931 . S
H1111 C1099 0.929 . S
H1112 C1134 0.930 . S
H1113 C1105 0.931 . S
H1114 C1095 0.930 . S
H1115 C1124 0.929 . S
H1116 C1100 0.931 . S
H1117 C1101 0.930 . S
H1118 C1156 0.930 . S
H1119 C1097 0.929 . S
H1120 C1125 0.931 . S
H1121 C1126 0.930 . S
N1122 Gd1102 2.622 . S
N1122 C1123 1.369 . S
N1122 C1124 1.338 . S
C1123 N1122 1.369 . S
C1123 C1127 1.415 . S
C1123 C1130 1.422 . S
C1124 H1115 0.929 . S
C1124 N1122 1.338 . S
C1124 C1126 1.378 . S
C1125 H1120 0.931 . S
C1125 C1126 1.348 . S
C1125 C1127 1.413 . S
C1126 H1121 0.930 . S
C1126 C1124 1.378 . S
C1126 C1125 1.348 . S
C1127 C1123 1.415 . S
C1127 C1125 1.413 . S
C1127 C1157 1.437 . S
H1128 C1157 0.929 . S
N1129 Gd1102 2.570 . S
N1129 C1130 1.359 . S
N1129 C1133 1.343 . S
C1130 C1123 1.422 . S
C1130 N1129 1.359 . S
C1130 C1132 1.421 . S
C1131 C1132 1.422 . S
C1131 C1134 1.321 . S
C1131 H1158 0.931 . S
C1132 C1130 1.421 . S
C1132 C1131 1.422 . S
C1132 C1156 1.417 . S
C1133 H1110 0.931 . S
C1133 N1129 1.343 . S
C1133 C1134 1.390 . S
C1134 H1112 0.930 . S
C1134 C1131 1.321 . S
C1134 C1133 1.390 . S
O1135 Gd1103 2.386 . S
O1135 C1147 1.265 . S
O1136 Gd1102 2.353 . S
O1136 C1147 1.242 . S
O1137 Gd1102 2.468 . S
O1137 C1155 1.263 . S
O1138 Gd1102 2.427 . S
O1138 C1155 1.252 . S
O1139 Gd1103 2.307 . S
O1139 C1148 1.261 . S
O1140 Gd1102 2.388 . S
O1140 C1148 1.252 . S
O1141 Gd1102 2.386 . S
O1141 C1159 1.265 . S
O1142 Gd1103 2.353 . S
O1142 C1159 1.242 . S
O1143 Gd1103 2.468 . S
O1143 C1167 1.263 . S
O1144 Gd1103 2.427 . S
O1144 C1167 1.252 . S
O1145 Gd1102 2.307 . S
O1145 C1160 1.261 . S
O1146 Gd1103 2.388 . S
O1146 C1160 1.252 . S
C1147 O1135 1.265 . S
C1147 O1136 1.242 . S
C1148 O1139 1.261 . S
C1148 O1140 1.252 . S
C1149 C1152 1.394 . S
C1149 C1154 1.370 . S
C1149 C1155 1.500 . S
C1150 C1153 1.383 . S
C1150 C1154 1.395 . S
C1151 C1152 1.396 . S
C1151 C1153 1.365 . S
C1151 H1168 0.929 . S
C1152 C1149 1.394 . S
C1152 C1151 1.396 . S
C1152 H1169 0.930 . S
C1153 C1150 1.383 . S
C1153 C1151 1.365 . S
C1153 H1170 0.931 . S
C1154 C1149 1.370 . S
C1154 C1150 1.395 . S
C1154 H1171 0.930 . S
C1155 Gd1102 2.805 . S
C1155 O1137 1.263 . S
C1155 O1138 1.252 . S
C1155 C1149 1.500 . S
C1156 H1118 0.930 . S
C1156 C1132 1.417 . S
C1156 C1157 1.329 . S
C1157 C1127 1.437 . S
C1157 H1128 0.929 . S
C1157 C1156 1.329 . S
H1158 C1131 0.931 . S
C1159 O1141 1.265 . S
C1159 O1142 1.242 . S
C1160 O1145 1.261 . S
C1160 O1146 1.252 . S
C1161 C1164 1.394 . S
C1161 C1166 1.370 . S
C1161 C1167 1.500 . S
C1162 C1165 1.383 . S
C1162 C1166 1.395 . S
C1163 C1164 1.396 . S
C1163 C1165 1.365 . S
C1163 H1172 0.929 . S
C1164 C1161 1.394 . S
C1164 C1163 1.396 . S
C1164 H1173 0.930 . S
C1165 C1162 1.383 . S
C1165 C1163 1.365 . S
C1165 H1174 0.931 . S
C1166 C1161 1.370 . S
C1166 C1162 1.395 . S
C1166 H1175 0.930 . S
C1167 Gd1103 2.805 . S
C1167 O1143 1.263 . S
C1167 O1144 1.252 . S
C1167 C1161 1.500 . S
H1168 C1151 0.929 . S
H1169 C1152 0.930 . S
H1170 C1153 0.931 . S
H1171 C1154 0.930 . S
H1172 C1163 0.929 . S
H1173 C1164 0.930 . S
H1174 C1165 0.931 . S
H1175 C1166 0.930 . S
C1176 C1178 1.422 . S
C1176 C1180 1.415 . S
C1176 N1182 1.369 . S
C1177 C1178 1.421 . S
C1177 C1179 1.417 . S
C1177 C1189 1.422 . S
C1178 C1176 1.422 . S
C1178 C1177 1.421 . S
C1178 N1188 1.359 . S
C1179 C1177 1.417 . S
C1179 C1181 1.329 . S
C1179 H1198 0.930 . S
C1180 C1176 1.415 . S
C1180 C1181 1.437 . S
C1180 C1184 1.413 . S
C1181 C1179 1.329 . S
C1181 C1180 1.437 . S
C1181 H1203 0.929 . S
N1182 C1176 1.369 . S
N1182 C1183 1.338 . S
N1182 Gd1187 2.622 . S
C1183 N1182 1.338 . S
C1183 C1185 1.378 . S
C1183 H1195 0.929 . S
C1184 C1180 1.413 . S
C1184 C1185 1.348 . S
C1184 H1200 0.931 . S
C1185 C1183 1.378 . S
C1185 C1184 1.348 . S
C1185 H1201 0.930 . S
Gd1186 N1206 2.622 1_455 S
Gd1186 N1213 2.570 1_455 S
Gd1186 O1220 2.353 . S
Gd1186 O1221 2.468 . S
Gd1186 O1222 2.427 . S
Gd1186 O1224 2.388 . S
Gd1186 O1225 2.386 1_455 S
Gd1186 O1229 2.307 . S
Gd1186 C1239 2.805 . S
Gd1187 N1182 2.622 . S
Gd1187 N1188 2.570 . S
Gd1187 O1219 2.386 . S
Gd1187 O1223 2.307 . S
Gd1187 O1226 2.353 1_455 S
Gd1187 O1227 2.468 . S
Gd1187 O1228 2.427 . S
Gd1187 O1230 2.388 . S
Gd1187 C1251 2.805 . S
N1188 C1178 1.359 . S
N1188 Gd1187 2.570 . S
N1188 C1190 1.343 . S
C1189 C1177 1.422 . S
C1189 C1191 1.321 . S
C1189 H1197 0.931 . S
C1190 N1188 1.343 . S
C1190 C1191 1.390 . S
C1190 H1192 0.931 . S
C1191 C1189 1.321 . S
C1191 C1190 1.390 . S
C1191 H1193 0.930 . S
H1192 C1190 0.931 . S
H1193 C1191 0.930 . S
H1194 C1217 0.930 . S
H1195 C1183 0.929 . S
H1196 C1218 0.930 . S
H1197 C1189 0.931 . S
H1198 C1179 0.930 . S
H1199 C1208 0.929 1_455 S
H1200 C1184 0.931 . S
H1201 C1185 0.930 . S
H1202 C1240 0.930 . S
H1203 C1181 0.929 . S
H1204 C1209 0.931 . S
H1205 C1210 0.930 . S
N1206 Gd1186 2.622 1_655 S
N1206 C1207 1.369 . S
N1206 C1208 1.338 . S
C1207 N1206 1.369 . S
C1207 C1211 1.415 . S
C1207 C1214 1.422 . S
C1208 H1199 0.929 1_655 S
C1208 N1206 1.338 . S
C1208 C1210 1.378 . S
C1209 H1204 0.931 . S
C1209 C1210 1.348 . S
C1209 C1211 1.413 . S
C1210 H1205 0.930 . S
C1210 C1208 1.378 . S
C1210 C1209 1.348 . S
C1211 C1207 1.415 . S
C1211 C1209 1.413 . S
C1211 C1241 1.437 . S
H1212 C1241 0.929 . S
N1213 Gd1186 2.570 1_655 S
N1213 C1214 1.359 . S
N1213 C1217 1.343 . S
C1214 C1207 1.422 . S
C1214 N1213 1.359 . S
C1214 C1216 1.421 . S
C1215 C1216 1.422 . S
C1215 C1218 1.321 . S
C1215 H1242 0.931 . S
C1216 C1214 1.421 . S
C1216 C1215 1.422 . S
C1216 C1240 1.417 . S
C1217 H1194 0.930 . S
C1217 N1213 1.343 . S
C1217 C1218 1.390 . S
C1218 H1196 0.930 . S
C1218 C1215 1.321 . S
C1218 C1217 1.390 . S
O1219 Gd1187 2.386 . S
O1219 C1231 1.265 . S
O1220 Gd1186 2.353 . S
O1220 C1231 1.242 . S
O1221 Gd1186 2.468 . S
O1221 C1239 1.263 . S
O1222 Gd1186 2.427 . S
O1222 C1239 1.252 . S
O1223 Gd1187 2.307 . S
O1223 C1232 1.261 . S
O1224 Gd1186 2.388 . S
O1224 C1232 1.252 . S
O1225 Gd1186 2.386 1_655 S
O1225 C1243 1.265 . S
O1226 Gd1187 2.353 1_655 S
O1226 C1243 1.242 . S
O1227 Gd1187 2.468 . S
O1227 C1251 1.263 . S
O1228 Gd1187 2.427 . S
O1228 C1251 1.252 . S
O1229 Gd1186 2.307 . S
O1229 C1244 1.261 . S
O1230 Gd1187 2.388 . S
O1230 C1244 1.252 . S
C1231 O1219 1.265 . S
C1231 O1220 1.242 . S
C1232 O1223 1.261 . S
C1232 O1224 1.252 . S
C1233 C1236 1.394 . S
C1233 C1238 1.370 . S
C1233 C1239 1.500 . S
C1234 C1237 1.383 . S
C1234 C1238 1.395 . S
C1235 C1236 1.396 . S
C1235 C1237 1.365 . S
C1235 H1252 0.929 . S
C1236 C1233 1.394 . S
C1236 C1235 1.396 . S
C1236 H1253 0.930 . S
C1237 C1234 1.383 . S
C1237 C1235 1.365 . S
C1237 H1254 0.931 . S
C1238 C1233 1.370 . S
C1238 C1234 1.395 . S
C1238 H1255 0.930 . S
C1239 Gd1186 2.805 . S
C1239 O1221 1.263 . S
C1239 O1222 1.252 . S
C1239 C1233 1.500 . S
C1240 H1202 0.930 . S
C1240 C1216 1.417 . S
C1240 C1241 1.329 . S
C1241 C1211 1.437 . S
C1241 H1212 0.929 . S
C1241 C1240 1.329 . S
H1242 C1215 0.931 . S
C1243 O1225 1.265 . S
C1243 O1226 1.242 . S
C1244 O1229 1.261 . S
C1244 O1230 1.252 . S
C1245 C1248 1.394 . S
C1245 C1250 1.370 . S
C1245 C1251 1.500 1_655 S
C1246 C1249 1.383 . S
C1246 C1250 1.395 . S
C1247 C1248 1.396 . S
C1247 C1249 1.365 . S
C1247 H1256 0.929 . S
C1248 C1245 1.394 . S
C1248 C1247 1.396 . S
C1248 H1257 0.930 . S
C1249 C1246 1.383 . S
C1249 C1247 1.365 . S
C1249 H1258 0.931 . S
C1250 C1245 1.370 . S
C1250 C1246 1.395 . S
C1250 H1259 0.930 . S
C1251 Gd1187 2.805 . S
C1251 O1227 1.263 . S
C1251 O1228 1.252 . S
C1251 C1245 1.500 1_455 S
H1252 C1235 0.929 . S
H1253 C1236 0.930 . S
H1254 C1237 0.931 . S
H1255 C1238 0.930 . S
H1256 C1247 0.929 . S
H1257 C1248 0.930 . S
H1258 C1249 0.931 . S
H1259 C1250 0.930 . S
C1260 C1262 1.422 . S
C1260 C1264 1.415 . S
C1260 N1266 1.369 . S
C1261 C1262 1.421 . S
C1261 C1263 1.417 . S
C1261 C1273 1.422 . S
C1262 C1260 1.422 . S
C1262 C1261 1.421 . S
C1262 N1272 1.359 . S
C1263 C1261 1.417 . S
C1263 C1265 1.329 . S
C1263 H1282 0.930 . S
C1264 C1260 1.415 . S
C1264 C1265 1.437 . S
C1264 C1268 1.413 . S
C1265 C1263 1.329 . S
C1265 C1264 1.437 . S
C1265 H1287 0.929 . S
N1266 C1260 1.369 . S
N1266 C1267 1.338 . S
N1266 Gd1271 2.622 . S
C1267 N1266 1.338 . S
C1267 C1269 1.378 . S
C1267 H1279 0.929 . S
C1268 C1264 1.413 . S
C1268 C1269 1.348 . S
C1268 H1284 0.931 . S
C1269 C1267 1.378 . S
C1269 C1268 1.348 . S
C1269 H1285 0.930 . S
Gd1270 N1290 2.622 . S
Gd1270 N1297 2.570 . S
Gd1270 O1304 2.353 . S
Gd1270 O1305 2.468 . S
Gd1270 O1306 2.427 . S
Gd1270 O1308 2.388 . S
Gd1270 O1309 2.386 . S
Gd1270 O1313 2.307 . S
Gd1270 C1323 2.805 . S
Gd1271 N1266 2.622 . S
Gd1271 N1272 2.570 . S
Gd1271 O1303 2.386 . S
Gd1271 O1307 2.307 . S
Gd1271 O1310 2.353 . S
Gd1271 O1311 2.468 . S
Gd1271 O1312 2.427 . S
Gd1271 O1314 2.388 . S
Gd1271 C1335 2.805 . S
N1272 C1262 1.359 . S
N1272 Gd1271 2.570 . S
N1272 C1274 1.343 . S
C1273 C1261 1.422 . S
C1273 C1275 1.321 . S
C1273 H1281 0.931 . S
C1274 N1272 1.343 . S
C1274 C1275 1.390 . S
C1274 H1276 0.931 . S
C1275 C1273 1.321 . S
C1275 C1274 1.390 . S
C1275 H1277 0.930 . S
H1276 C1274 0.931 . S
H1277 C1275 0.930 . S
H1278 C1301 0.931 . S
H1279 C1267 0.929 . S
H1280 C1302 0.930 . S
H1281 C1273 0.931 . S
H1282 C1263 0.930 . S
H1283 C1292 0.929 . S
H1284 C1268 0.931 . S
H1285 C1269 0.930 . S
H1286 C1324 0.930 . S
H1287 C1265 0.929 . S
H1288 C1293 0.931 . S
H1289 C1294 0.930 . S
N1290 Gd1270 2.622 . S
N1290 C1291 1.369 . S
N1290 C1292 1.338 . S
C1291 N1290 1.369 . S
C1291 C1295 1.415 . S
C1291 C1298 1.422 . S
C1292 H1283 0.929 . S
C1292 N1290 1.338 . S
C1292 C1294 1.378 . S
C1293 H1288 0.931 . S
C1293 C1294 1.348 . S
C1293 C1295 1.413 . S
C1294 H1289 0.930 . S
C1294 C1292 1.378 . S
C1294 C1293 1.348 . S
C1295 C1291 1.415 . S
C1295 C1293 1.413 . S
C1295 C1325 1.437 . S
H1296 C1325 0.929 . S
N1297 Gd1270 2.570 . S
N1297 C1298 1.359 . S
N1297 C1301 1.343 . S
C1298 C1291 1.422 . S
C1298 N1297 1.359 . S
C1298 C1300 1.421 . S
C1299 C1300 1.422 . S
C1299 C1302 1.321 . S
C1299 H1326 0.931 . S
C1300 C1298 1.421 . S
C1300 C1299 1.422 . S
C1300 C1324 1.417 . S
C1301 H1278 0.931 . S
C1301 N1297 1.343 . S
C1301 C1302 1.390 . S
C1302 H1280 0.930 . S
C1302 C1299 1.321 . S
C1302 C1301 1.390 . S
O1303 Gd1271 2.386 . S
O1303 C1315 1.265 . S
O1304 Gd1270 2.353 . S
O1304 C1315 1.242 . S
O1305 Gd1270 2.468 . S
O1305 C1323 1.263 . S
O1306 Gd1270 2.427 . S
O1306 C1323 1.252 . S
O1307 Gd1271 2.307 . S
O1307 C1316 1.261 . S
O1308 Gd1270 2.388 . S
O1308 C1316 1.252 . S
O1309 Gd1270 2.386 . S
O1309 C1327 1.265 . S
O1310 Gd1271 2.353 . S
O1310 C1327 1.242 . S
O1311 Gd1271 2.468 . S
O1311 C1335 1.263 . S
O1312 Gd1271 2.427 . S
O1312 C1335 1.252 . S
O1313 Gd1270 2.307 . S
O1313 C1328 1.261 . S
O1314 Gd1271 2.388 . S
O1314 C1328 1.252 . S
C1315 O1303 1.265 . S
C1315 O1304 1.242 . S
C1316 O1307 1.261 . S
C1316 O1308 1.252 . S
C1317 C1320 1.394 . S
C1317 C1322 1.370 . S
C1317 C1323 1.500 . S
C1318 C1321 1.383 . S
C1318 C1322 1.395 . S
C1319 C1320 1.396 . S
C1319 C1321 1.365 . S
C1319 H1336 0.929 . S
C1320 C1317 1.394 . S
C1320 C1319 1.396 . S
C1320 H1337 0.930 . S
C1321 C1318 1.383 . S
C1321 C1319 1.365 . S
C1321 H1338 0.931 . S
C1322 C1317 1.370 . S
C1322 C1318 1.395 . S
C1322 H1339 0.930 . S
C1323 Gd1270 2.805 . S
C1323 O1305 1.263 . S
C1323 O1306 1.252 . S
C1323 C1317 1.500 . S
C1324 H1286 0.930 . S
C1324 C1300 1.417 . S
C1324 C1325 1.329 . S
C1325 C1295 1.437 . S
C1325 H1296 0.929 . S
C1325 C1324 1.329 . S
H1326 C1299 0.931 . S
C1327 O1309 1.265 . S
C1327 O1310 1.242 . S
C1328 O1313 1.261 . S
C1328 O1314 1.252 . S
C1329 C1332 1.394 . S
C1329 C1334 1.370 . S
C1329 C1335 1.500 . S
C1330 C1333 1.383 . S
C1330 C1334 1.395 . S
C1331 C1332 1.396 . S
C1331 C1333 1.365 . S
C1331 H1340 0.929 . S
C1332 C1329 1.394 . S
C1332 C1331 1.396 . S
C1332 H1341 0.930 . S
C1333 C1330 1.383 . S
C1333 C1331 1.365 . S
C1333 H1342 0.931 . S
C1334 C1329 1.370 . S
C1334 C1330 1.395 . S
C1334 H1343 0.930 . S
C1335 Gd1271 2.805 . S
C1335 O1311 1.263 . S
C1335 O1312 1.252 . S
C1335 C1329 1.500 . S
H1336 C1319 0.929 . S
H1337 C1320 0.930 . S
H1338 C1321 0.931 . S
H1339 C1322 0.930 . S
H1340 C1331 0.929 . S
H1341 C1332 0.930 . S
H1342 C1333 0.931 . S
H1343 C1334 0.930 . S
C1344 C1346 1.422 . S
C1344 C1348 1.415 . S
C1344 N1350 1.369 . S
C1345 C1346 1.421 . S
C1345 C1347 1.417 . S
C1345 C1357 1.422 . S
C1346 C1344 1.422 . S
C1346 C1345 1.421 . S
C1346 N1356 1.359 . S
C1347 C1345 1.417 . S
C1347 C1349 1.329 . S
C1347 H1366 0.930 . S
C1348 C1344 1.415 . S
C1348 C1349 1.437 . S
C1348 C1352 1.413 . S
C1349 C1347 1.329 . S
C1349 C1348 1.437 . S
C1349 H1371 0.929 . S
N1350 C1344 1.369 . S
N1350 C1351 1.338 . S
N1350 Gd1355 2.622 . S
C1351 N1350 1.338 . S
C1351 C1353 1.378 . S
C1351 H1363 0.929 . S
C1352 C1348 1.413 . S
C1352 C1353 1.348 . S
C1352 H1368 0.931 . S
C1353 C1351 1.378 . S
C1353 C1352 1.348 . S
C1353 H1369 0.930 . S
Gd1354 N1374 2.622 . S
Gd1354 N1381 2.570 . S
Gd1354 O1388 2.353 . S
Gd1354 O1389 2.468 . S
Gd1354 O1390 2.427 . S
Gd1354 O1392 2.388 . S
Gd1354 O1393 2.386 . S
Gd1354 O1397 2.307 . S
Gd1354 C1407 2.805 . S
Gd1355 N1350 2.622 . S
Gd1355 N1356 2.570 . S
Gd1355 O1387 2.386 . S
Gd1355 O1391 2.307 . S
Gd1355 O1394 2.353 . S
Gd1355 O1395 2.468 . S
Gd1355 O1396 2.427 . S
Gd1355 O1398 2.388 . S
Gd1355 C1419 2.805 . S
N1356 C1346 1.359 . S
N1356 Gd1355 2.570 . S
N1356 C1358 1.343 . S
C1357 C1345 1.422 . S
C1357 C1359 1.321 . S
C1357 H1365 0.931 . S
C1358 N1356 1.343 . S
C1358 C1359 1.390 . S
C1358 H1360 0.931 . S
C1359 C1357 1.321 . S
C1359 C1358 1.390 . S
C1359 H1361 0.930 . S
H1360 C1358 0.931 . S
H1361 C1359 0.930 . S
H1362 C1385 0.931 . S
H1363 C1351 0.929 . S
H1364 C1386 0.930 . S
H1365 C1357 0.931 . S
H1366 C1347 0.930 . S
H1367 C1376 0.929 . S
H1368 C1352 0.931 . S
H1369 C1353 0.930 . S
H1370 C1408 0.930 . S
H1371 C1349 0.929 . S
H1372 C1377 0.931 . S
H1373 C1378 0.930 . S
N1374 Gd1354 2.622 . S
N1374 C1375 1.369 . S
N1374 C1376 1.338 . S
C1375 N1374 1.369 . S
C1375 C1379 1.415 . S
C1375 C1382 1.422 . S
C1376 H1367 0.929 . S
C1376 N1374 1.338 . S
C1376 C1378 1.378 . S
C1377 H1372 0.931 . S
C1377 C1378 1.348 . S
C1377 C1379 1.413 . S
C1378 H1373 0.930 . S
C1378 C1376 1.378 . S
C1378 C1377 1.348 . S
C1379 C1375 1.415 . S
C1379 C1377 1.413 . S
C1379 C1409 1.437 . S
H1380 C1409 0.929 . S
N1381 Gd1354 2.570 . S
N1381 C1382 1.359 . S
N1381 C1385 1.343 . S
C1382 C1375 1.422 . S
C1382 N1381 1.359 . S
C1382 C1384 1.421 . S
C1383 C1384 1.422 . S
C1383 C1386 1.321 . S
C1383 H1410 0.931 . S
C1384 C1382 1.421 . S
C1384 C1383 1.422 . S
C1384 C1408 1.417 . S
C1385 H1362 0.931 . S
C1385 N1381 1.343 . S
C1385 C1386 1.390 . S
C1386 H1364 0.930 . S
C1386 C1383 1.321 . S
C1386 C1385 1.390 . S
O1387 Gd1355 2.386 . S
O1387 C1399 1.265 . S
O1388 Gd1354 2.353 . S
O1388 C1399 1.242 . S
O1389 Gd1354 2.468 . S
O1389 C1407 1.263 . S
O1390 Gd1354 2.427 . S
O1390 C1407 1.252 . S
O1391 Gd1355 2.307 . S
O1391 C1400 1.261 . S
O1392 Gd1354 2.388 . S
O1392 C1400 1.252 . S
O1393 Gd1354 2.386 . S
O1393 C1411 1.265 . S
O1394 Gd1355 2.353 . S
O1394 C1411 1.242 . S
O1395 Gd1355 2.468 . S
O1395 C1419 1.263 . S
O1396 Gd1355 2.427 . S
O1396 C1419 1.252 . S
O1397 Gd1354 2.307 . S
O1397 C1412 1.261 . S
O1398 Gd1355 2.388 . S
O1398 C1412 1.252 . S
C1399 O1387 1.265 . S
C1399 O1388 1.242 . S
C1400 O1391 1.261 . S
C1400 O1392 1.252 . S
C1401 C1404 1.394 . S
C1401 C1406 1.370 . S
C1401 C1407 1.500 . S
C1402 C1405 1.383 . S
C1402 C1406 1.395 . S
C1403 C1404 1.396 . S
C1403 C1405 1.365 . S
C1403 H1420 0.929 . S
C1404 C1401 1.394 . S
C1404 C1403 1.396 . S
C1404 H1421 0.930 . S
C1405 C1402 1.383 . S
C1405 C1403 1.365 . S
C1405 H1422 0.931 . S
C1406 C1401 1.370 . S
C1406 C1402 1.395 . S
C1406 H1423 0.930 . S
C1407 Gd1354 2.805 . S
C1407 O1389 1.263 . S
C1407 O1390 1.252 . S
C1407 C1401 1.500 . S
C1408 H1370 0.930 . S
C1408 C1384 1.417 . S
C1408 C1409 1.329 . S
C1409 C1379 1.437 . S
C1409 H1380 0.929 . S
C1409 C1408 1.329 . S
H1410 C1383 0.931 . S
C1411 O1393 1.265 . S
C1411 O1394 1.242 . S
C1412 O1397 1.261 . S
C1412 O1398 1.252 . S
C1413 C1416 1.394 . S
C1413 C1418 1.370 . S
C1413 C1419 1.500 . S
C1414 C1417 1.383 . S
C1414 C1418 1.395 . S
C1415 C1416 1.396 . S
C1415 C1417 1.365 . S
C1415 H1424 0.929 . S
C1416 C1413 1.394 . S
C1416 C1415 1.396 . S
C1416 H1425 0.930 . S
C1417 C1414 1.383 . S
C1417 C1415 1.365 . S
C1417 H1426 0.931 . S
C1418 C1413 1.370 . S
C1418 C1414 1.395 . S
C1418 H1427 0.930 . S
C1419 Gd1355 2.805 . S
C1419 O1395 1.263 . S
C1419 O1396 1.252 . S
C1419 C1413 1.500 . S
H1420 C1403 0.929 . S
H1421 C1404 0.930 . S
H1422 C1405 0.931 . S
H1423 C1406 0.930 . S
H1424 C1415 0.929 . S
H1425 C1416 0.930 . S
H1426 C1417 0.931 . S
H1427 C1418 0.930 . S
C1428 C1430 1.422 . S
C1428 C1432 1.415 . S
C1428 N1434 1.369 . S
C1429 C1430 1.421 . S
C1429 C1431 1.417 . S
C1429 C1441 1.422 . S
C1430 C1428 1.422 . S
C1430 C1429 1.421 . S
C1430 N1440 1.359 . S
C1431 C1429 1.417 . S
C1431 C1433 1.329 . S
C1431 H1450 0.930 . S
C1432 C1428 1.415 . S
C1432 C1433 1.437 . S
C1432 C1436 1.413 . S
C1433 C1431 1.329 . S
C1433 C1432 1.437 . S
C1433 H1455 0.929 . S
N1434 C1428 1.369 . S
N1434 C1435 1.338 . S
N1434 Gd1439 2.622 . S
C1435 N1434 1.338 . S
C1435 C1437 1.378 . S
C1435 H1447 0.929 . S
C1436 C1432 1.413 . S
C1436 C1437 1.348 . S
C1436 H1452 0.931 . S
C1437 C1435 1.378 . S
C1437 C1436 1.348 . S
C1437 H1453 0.930 . S
Gd1438 N1458 2.622 . S
Gd1438 N1465 2.570 . S
Gd1438 O1472 2.353 . S
Gd1438 O1473 2.468 . S
Gd1438 O1474 2.427 . S
Gd1438 O1476 2.388 . S
Gd1438 O1477 2.386 . S
Gd1438 O1481 2.307 . S
Gd1438 C1491 2.805 . S
Gd1439 N1434 2.622 . S
Gd1439 N1440 2.570 . S
Gd1439 O1471 2.386 . S
Gd1439 O1475 2.307 . S
Gd1439 O1478 2.353 . S
Gd1439 O1479 2.468 . S
Gd1439 O1480 2.427 . S
Gd1439 O1482 2.388 . S
Gd1439 C1503 2.805 . S
N1440 C1430 1.359 . S
N1440 Gd1439 2.570 . S
N1440 C1442 1.343 . S
C1441 C1429 1.422 . S
C1441 C1443 1.321 . S
C1441 H1449 0.931 . S
C1442 N1440 1.343 . S
C1442 C1443 1.390 . S
C1442 H1444 0.931 . S
C1443 C1441 1.321 . S
C1443 C1442 1.390 . S
C1443 H1445 0.930 . S
H1444 C1442 0.931 . S
H1445 C1443 0.930 . S
H1446 C1469 0.931 . S
H1447 C1435 0.929 . S
H1448 C1470 0.930 . S
H1449 C1441 0.931 . S
H1450 C1431 0.930 . S
H1451 C1460 0.929 . S
H1452 C1436 0.931 . S
H1453 C1437 0.930 . S
H1454 C1492 0.930 . S
H1455 C1433 0.929 . S
H1456 C1461 0.931 . S
H1457 C1462 0.930 . S
N1458 Gd1438 2.622 . S
N1458 C1459 1.369 . S
N1458 C1460 1.338 . S
C1459 N1458 1.369 . S
C1459 C1463 1.415 . S
C1459 C1466 1.422 . S
C1460 H1451 0.929 . S
C1460 N1458 1.338 . S
C1460 C1462 1.378 . S
C1461 H1456 0.931 . S
C1461 C1462 1.348 . S
C1461 C1463 1.413 . S
C1462 H1457 0.930 . S
C1462 C1460 1.378 . S
C1462 C1461 1.348 . S
C1463 C1459 1.415 . S
C1463 C1461 1.413 . S
C1463 C1493 1.437 . S
H1464 C1493 0.929 . S
N1465 Gd1438 2.570 . S
N1465 C1466 1.359 . S
N1465 C1469 1.343 . S
C1466 C1459 1.422 . S
C1466 N1465 1.359 . S
C1466 C1468 1.421 . S
C1467 C1468 1.422 . S
C1467 C1470 1.321 . S
C1467 H1494 0.931 . S
C1468 C1466 1.421 . S
C1468 C1467 1.422 . S
C1468 C1492 1.417 . S
C1469 H1446 0.931 . S
C1469 N1465 1.343 . S
C1469 C1470 1.390 . S
C1470 H1448 0.930 . S
C1470 C1467 1.321 . S
C1470 C1469 1.390 . S
O1471 Gd1439 2.386 . S
O1471 C1483 1.265 . S
O1472 Gd1438 2.353 . S
O1472 C1483 1.242 . S
O1473 Gd1438 2.468 . S
O1473 C1491 1.263 . S
O1474 Gd1438 2.427 . S
O1474 C1491 1.252 . S
O1475 Gd1439 2.307 . S
O1475 C1484 1.261 . S
O1476 Gd1438 2.388 . S
O1476 C1484 1.252 . S
O1477 Gd1438 2.386 . S
O1477 C1495 1.265 . S
O1478 Gd1439 2.353 . S
O1478 C1495 1.242 . S
O1479 Gd1439 2.468 . S
O1479 C1503 1.263 . S
O1480 Gd1439 2.427 . S
O1480 C1503 1.252 . S
O1481 Gd1438 2.307 . S
O1481 C1496 1.261 . S
O1482 Gd1439 2.388 . S
O1482 C1496 1.252 . S
C1483 O1471 1.265 . S
C1483 O1472 1.242 . S
C1484 O1475 1.261 . S
C1484 O1476 1.252 . S
C1485 C1488 1.394 . S
C1485 C1490 1.370 . S
C1485 C1491 1.500 . S
C1486 C1489 1.383 . S
C1486 C1490 1.395 . S
C1487 C1488 1.396 . S
C1487 C1489 1.365 . S
C1487 H1504 0.929 . S
C1488 C1485 1.394 . S
C1488 C1487 1.396 . S
C1488 H1505 0.930 . S
C1489 C1486 1.383 . S
C1489 C1487 1.365 . S
C1489 H1506 0.931 . S
C1490 C1485 1.370 . S
C1490 C1486 1.395 . S
C1490 H1507 0.930 . S
C1491 Gd1438 2.805 . S
C1491 O1473 1.263 . S
C1491 O1474 1.252 . S
C1491 C1485 1.500 . S
C1492 H1454 0.930 . S
C1492 C1468 1.417 . S
C1492 C1493 1.329 . S
C1493 C1463 1.437 . S
C1493 H1464 0.929 . S
C1493 C1492 1.329 . S
H1494 C1467 0.931 . S
C1495 O1477 1.265 . S
C1495 O1478 1.242 . S
C1496 O1481 1.261 . S
C1496 O1482 1.252 . S
C1497 C1500 1.394 . S
C1497 C1502 1.370 . S
C1497 C1503 1.500 . S
C1498 C1501 1.383 . S
C1498 C1502 1.395 . S
C1499 C1500 1.396 . S
C1499 C1501 1.365 . S
C1499 H1508 0.929 . S
C1500 C1497 1.394 . S
C1500 C1499 1.396 . S
C1500 H1509 0.930 . S
C1501 C1498 1.383 . S
C1501 C1499 1.365 . S
C1501 H1510 0.931 . S
C1502 C1497 1.370 . S
C1502 C1498 1.395 . S
C1502 H1511 0.930 . S
C1503 Gd1439 2.805 . S
C1503 O1479 1.263 . S
C1503 O1480 1.252 . S
C1503 C1497 1.500 . S
H1504 C1487 0.929 . S
H1505 C1488 0.930 . S
H1506 C1489 0.931 . S
H1507 C1490 0.930 . S
H1508 C1499 0.929 . S
H1509 C1500 0.930 . S
H1510 C1501 0.931 . S
H1511 C1502 0.930 . S
C1512 C1514 1.422 . S
C1512 C1516 1.415 . S
C1512 N1518 1.369 . S
C1513 C1514 1.421 . S
C1513 C1515 1.417 . S
C1513 C1525 1.422 . S
C1514 C1512 1.422 . S
C1514 C1513 1.421 . S
C1514 N1524 1.359 . S
C1515 C1513 1.417 . S
C1515 C1517 1.329 . S
C1515 H1534 0.930 . S
C1516 C1512 1.415 . S
C1516 C1517 1.437 . S
C1516 C1520 1.413 . S
C1517 C1515 1.329 . S
C1517 C1516 1.437 . S
C1517 H1539 0.929 . S
N1518 C1512 1.369 . S
N1518 C1519 1.338 . S
N1518 Gd1523 2.622 . S
C1519 N1518 1.338 . S
C1519 C1521 1.378 . S
C1519 H1531 0.929 . S
C1520 C1516 1.413 . S
C1520 C1521 1.348 . S
C1520 H1536 0.931 . S
C1521 C1519 1.378 . S
C1521 C1520 1.348 . S
C1521 H1537 0.930 . S
Gd1522 N1542 2.622 . S
Gd1522 N1549 2.570 . S
Gd1522 O1556 2.353 . S
Gd1522 O1557 2.468 . S
Gd1522 O1558 2.427 . S
Gd1522 O1560 2.388 . S
Gd1522 O1561 2.386 . S
Gd1522 O1565 2.307 . S
Gd1522 C1575 2.805 . S
Gd1523 N1518 2.622 . S
Gd1523 N1524 2.570 . S
Gd1523 O1555 2.386 . S
Gd1523 O1559 2.307 . S
Gd1523 O1562 2.353 . S
Gd1523 O1563 2.468 . S
Gd1523 O1564 2.427 . S
Gd1523 O1566 2.388 . S
Gd1523 C1587 2.805 . S
N1524 C1514 1.359 . S
N1524 Gd1523 2.570 . S
N1524 C1526 1.343 . S
C1525 C1513 1.422 . S
C1525 C1527 1.321 . S
C1525 H1533 0.931 . S
C1526 N1524 1.343 . S
C1526 C1527 1.390 . S
C1526 H1528 0.931 . S
C1527 C1525 1.321 . S
C1527 C1526 1.390 . S
C1527 H1529 0.930 . S
H1528 C1526 0.931 . S
H1529 C1527 0.930 . S
H1530 C1553 0.931 . S
H1531 C1519 0.929 . S
H1532 C1554 0.930 . S
H1533 C1525 0.931 . S
H1534 C1515 0.930 . S
H1535 C1544 0.929 . S
H1536 C1520 0.931 . S
H1537 C1521 0.930 . S
H1538 C1576 0.930 . S
H1539 C1517 0.929 . S
H1540 C1545 0.931 . S
H1541 C1546 0.930 . S
N1542 Gd1522 2.622 . S
N1542 C1543 1.369 . S
N1542 C1544 1.338 . S
C1543 N1542 1.369 . S
C1543 C1547 1.415 . S
C1543 C1550 1.422 . S
C1544 H1535 0.929 . S
C1544 N1542 1.338 . S
C1544 C1546 1.378 . S
C1545 H1540 0.931 . S
C1545 C1546 1.348 . S
C1545 C1547 1.413 . S
C1546 H1541 0.930 . S
C1546 C1544 1.378 . S
C1546 C1545 1.348 . S
C1547 C1543 1.415 . S
C1547 C1545 1.413 . S
C1547 C1577 1.437 . S
H1548 C1577 0.929 . S
N1549 Gd1522 2.570 . S
N1549 C1550 1.359 . S
N1549 C1553 1.343 . S
C1550 C1543 1.422 . S
C1550 N1549 1.359 . S
C1550 C1552 1.421 . S
C1551 C1552 1.422 . S
C1551 C1554 1.321 . S
C1551 H1578 0.931 . S
C1552 C1550 1.421 . S
C1552 C1551 1.422 . S
C1552 C1576 1.417 . S
C1553 H1530 0.931 . S
C1553 N1549 1.343 . S
C1553 C1554 1.390 . S
C1554 H1532 0.930 . S
C1554 C1551 1.321 . S
C1554 C1553 1.390 . S
O1555 Gd1523 2.386 . S
O1555 C1567 1.265 . S
O1556 Gd1522 2.353 . S
O1556 C1567 1.242 . S
O1557 Gd1522 2.468 . S
O1557 C1575 1.263 . S
O1558 Gd1522 2.427 . S
O1558 C1575 1.252 . S
O1559 Gd1523 2.307 . S
O1559 C1568 1.261 . S
O1560 Gd1522 2.388 . S
O1560 C1568 1.252 . S
O1561 Gd1522 2.386 . S
O1561 C1579 1.265 . S
O1562 Gd1523 2.353 . S
O1562 C1579 1.242 . S
O1563 Gd1523 2.468 . S
O1563 C1587 1.263 . S
O1564 Gd1523 2.427 . S
O1564 C1587 1.252 . S
O1565 Gd1522 2.307 . S
O1565 C1580 1.261 . S
O1566 Gd1523 2.388 . S
O1566 C1580 1.252 . S
C1567 O1555 1.265 . S
C1567 O1556 1.242 . S
C1568 O1559 1.261 . S
C1568 O1560 1.252 . S
C1569 C1572 1.394 . S
C1569 C1574 1.370 . S
C1569 C1575 1.500 . S
C1570 C1573 1.383 . S
C1570 C1574 1.395 . S
C1571 C1572 1.396 . S
C1571 C1573 1.365 . S
C1571 H1588 0.929 . S
C1572 C1569 1.394 . S
C1572 C1571 1.396 . S
C1572 H1589 0.930 . S
C1573 C1570 1.383 . S
C1573 C1571 1.365 . S
C1573 H1590 0.931 . S
C1574 C1569 1.370 . S
C1574 C1570 1.395 . S
C1574 H1591 0.930 . S
C1575 Gd1522 2.805 . S
C1575 O1557 1.263 . S
C1575 O1558 1.252 . S
C1575 C1569 1.500 . S
C1576 H1538 0.930 . S
C1576 C1552 1.417 . S
C1576 C1577 1.329 . S
C1577 C1547 1.437 . S
C1577 H1548 0.929 . S
C1577 C1576 1.329 . S
H1578 C1551 0.931 . S
C1579 O1561 1.265 . S
C1579 O1562 1.242 . S
C1580 O1565 1.261 . S
C1580 O1566 1.252 . S
C1581 C1584 1.394 . S
C1581 C1586 1.370 . S
C1581 C1587 1.500 . S
C1582 C1585 1.383 . S
C1582 C1586 1.395 . S
C1583 C1584 1.396 . S
C1583 C1585 1.365 . S
C1583 H1592 0.929 . S
C1584 C1581 1.394 . S
C1584 C1583 1.396 . S
C1584 H1593 0.930 . S
C1585 C1582 1.383 . S
C1585 C1583 1.365 . S
C1585 H1594 0.931 . S
C1586 C1581 1.370 . S
C1586 C1582 1.395 . S
C1586 H1595 0.930 . S
C1587 Gd1523 2.805 . S
C1587 O1563 1.263 . S
C1587 O1564 1.252 . S
C1587 C1581 1.500 . S
H1588 C1571 0.929 . S
H1589 C1572 0.930 . S
H1590 C1573 0.931 . S
H1591 C1574 0.930 . S
H1592 C1583 0.929 . S
H1593 C1584 0.930 . S
H1594 C1585 0.931 . S
H1595 C1586 0.930 . S
C1596 C1598 1.422 . S
C1596 C1600 1.415 . S
C1596 N1602 1.369 . S
C1597 C1598 1.421 . S
C1597 C1599 1.417 . S
C1597 C1609 1.422 . S
C1598 C1596 1.422 . S
C1598 C1597 1.421 . S
C1598 N1608 1.359 . S
C1599 C1597 1.417 . S
C1599 C1601 1.329 . S
C1599 H1618 0.930 . S
C1600 C1596 1.415 . S
C1600 C1601 1.437 . S
C1600 C1604 1.413 1_554 S
C1601 C1599 1.329 . S
C1601 C1600 1.437 . S
C1601 H1623 0.929 . S
N1602 C1596 1.369 . S
N1602 C1603 1.338 1_554 S
N1602 Gd1607 2.622 . S
C1603 N1602 1.338 1_556 S
C1603 C1605 1.378 . S
C1603 H1615 0.929 . S
C1604 C1600 1.413 1_556 S
C1604 C1605 1.348 . S
C1604 H1620 0.931 . S
C1605 C1603 1.378 . S
C1605 C1604 1.348 . S
C1605 H1621 0.930 . S
Gd1606 N1626 2.622 1_455 S
Gd1606 N1633 2.570 1_455 S
Gd1606 O1640 2.353 . S
Gd1606 O1641 2.468 1_455 S
Gd1606 O1642 2.427 1_455 S
Gd1606 O1644 2.388 . S
Gd1606 O1645 2.386 . S
Gd1606 O1649 2.307 . S
Gd1606 C1659 2.805 1_455 S
Gd1607 N1602 2.622 . S
Gd1607 N1608 2.570 . S
Gd1607 O1639 2.386 . S
Gd1607 O1643 2.307 . S
Gd1607 O1646 2.353 . S
Gd1607 O1647 2.468 . S
Gd1607 O1648 2.427 . S
Gd1607 O1650 2.388 . S
Gd1607 C1671 2.805 . S
N1608 C1598 1.359 . S
N1608 Gd1607 2.570 . S
N1608 C1610 1.343 . S
C1609 C1597 1.422 . S
C1609 C1611 1.321 . S
C1609 H1617 0.931 . S
C1610 N1608 1.343 . S
C1610 C1611 1.390 . S
C1610 H1612 0.931 . S
C1611 C1609 1.321 . S
C1611 C1610 1.390 . S
C1611 H1613 0.930 . S
H1612 C1610 0.931 . S
H1613 C1611 0.930 . S
H1614 C1637 0.931 . S
H1615 C1603 0.929 . S
H1616 C1638 0.930 . S
H1617 C1609 0.931 . S
H1618 C1599 0.930 . S
H1619 C1628 0.931 1_455 S
H1620 C1604 0.931 . S
H1621 C1605 0.930 . S
H1622 C1660 0.930 . S
H1623 C1601 0.929 . S
H1624 C1629 0.931 . S
H1625 C1630 0.930 1_455 S
N1626 Gd1606 2.622 1_655 S
N1626 C1627 1.369 . S
N1626 C1628 1.336 . S
C1627 N1626 1.369 . S
C1627 C1631 1.415 . S
C1627 C1634 1.422 . S
C1628 H1619 0.931 1_655 S
C1628 N1626 1.336 . S
C1628 C1630 1.378 . S
C1629 H1624 0.931 . S
C1629 C1630 1.348 . S
C1629 C1631 1.413 . S
C1630 H1625 0.930 1_655 S
C1630 C1628 1.378 . S
C1630 C1629 1.348 . S
C1631 C1627 1.415 . S
C1631 C1629 1.413 . S
C1631 C1661 1.437 . S
H1632 C1661 0.929 . S
N1633 Gd1606 2.570 1_655 S
N1633 C1634 1.359 . S
N1633 C1637 1.343 . S
C1634 C1627 1.422 . S
C1634 N1633 1.359 . S
C1634 C1636 1.421 . S
C1635 C1636 1.422 . S
C1635 C1638 1.321 . S
C1635 H1662 0.931 . S
C1636 C1634 1.421 . S
C1636 C1635 1.422 . S
C1636 C1660 1.417 . S
C1637 H1614 0.931 . S
C1637 N1633 1.343 . S
C1637 C1638 1.390 . S
C1638 H1616 0.930 . S
C1638 C1635 1.321 . S
C1638 C1637 1.390 . S
O1639 Gd1607 2.386 . S
O1639 C1651 1.265 . S
O1640 Gd1606 2.353 . S
O1640 C1651 1.242 . S
O1641 Gd1606 2.468 1_655 S
O1641 C1659 1.263 . S
O1642 Gd1606 2.427 1_655 S
O1642 C1659 1.252 . S
O1643 Gd1607 2.307 . S
O1643 C1652 1.261 . S
O1644 Gd1606 2.388 . S
O1644 C1652 1.252 . S
O1645 Gd1606 2.386 . S
O1645 C1663 1.265 . S
O1646 Gd1607 2.353 . S
O1646 C1663 1.242 . S
O1647 Gd1607 2.468 . S
O1647 C1671 1.263 . S
O1648 Gd1607 2.427 . S
O1648 C1671 1.252 . S
O1649 Gd1606 2.307 . S
O1649 C1664 1.261 . S
O1650 Gd1607 2.388 . S
O1650 C1664 1.252 . S
C1651 O1639 1.265 . S
C1651 O1640 1.242 . S
C1652 O1643 1.261 . S
C1652 O1644 1.252 . S
C1653 C1656 1.394 . S
C1653 C1658 1.370 . S
C1653 C1659 1.500 . S
C1654 C1657 1.383 . S
C1654 C1658 1.395 . S
C1655 C1656 1.396 . S
C1655 C1657 1.365 . S
C1655 H1672 0.929 . S
C1656 C1653 1.394 . S
C1656 C1655 1.396 . S
C1656 H1673 0.930 . S
C1657 C1654 1.383 . S
C1657 C1655 1.365 . S
C1657 H1674 0.931 . S
C1658 C1653 1.370 . S
C1658 C1654 1.395 . S
C1658 H1675 0.930 . S
C1659 Gd1606 2.805 1_655 S
C1659 O1641 1.263 . S
C1659 O1642 1.252 . S
C1659 C1653 1.500 . S
C1660 H1622 0.930 . S
C1660 C1636 1.417 . S
C1660 C1661 1.329 . S
C1661 C1631 1.437 . S
C1661 H1632 0.929 . S
C1661 C1660 1.329 . S
H1662 C1635 0.931 . S
C1663 O1645 1.265 . S
C1663 O1646 1.242 . S
C1664 O1649 1.261 . S
C1664 O1650 1.252 . S
C1665 C1668 1.394 . S
C1665 C1670 1.370 . S
C1665 C1671 1.500 . S
C1666 C1669 1.383 . S
C1666 C1670 1.395 . S
C1667 C1668 1.400 . S
C1667 C1669 1.378 . S
C1667 H1676 0.912 1_554 S
C1668 C1665 1.394 . S
C1668 C1667 1.400 . S
C1668 H1677 0.930 1_554 S
C1669 C1666 1.383 . S
C1669 C1667 1.378 . S
C1669 H1678 0.931 . S
C1670 C1665 1.370 . S
C1670 C1666 1.395 . S
C1670 H1679 0.930 . S
C1671 Gd1607 2.805 . S
C1671 O1647 1.263 . S
C1671 O1648 1.252 . S
C1671 C1665 1.500 . S
H1672 C1655 0.929 . S
H1673 C1656 0.930 . S
H1674 C1657 0.931 . S
H1675 C1658 0.930 . S
H1676 C1667 0.912 1_556 S
H1677 C1668 0.930 1_556 S
H1678 C1669 0.931 . S
H1679 C1670 0.930 . S
H1680 C1686 0.930 . S
H1681 C1689 0.930 . S
H1682 C1690 0.926 . S
H1683 C1691 0.930 1_655 S
H1684 C1694 0.930 . S
H1685 C1695 0.930 . S
C1686 H1680 0.930 . S
C1686 C1687 1.355 1_455 S
C1686 C1688 1.415 1_556 S
C1687 C1686 1.355 1_655 S
C1687 C1689 1.419 . S
C1688 C1686 1.415 1_554 S
C1688 C1693 1.422 1_455 S
C1688 C1695 1.409 . S
C1689 H1681 0.930 . S
C1689 C1687 1.419 . S
C1689 C1690 1.356 1_556 S
C1690 H1682 0.926 . S
C1690 C1689 1.356 1_554 S
C1690 C1693 1.417 . S
C1691 H1683 0.930 1_455 S
C1691 C1692 1.355 . S
C1691 C1693 1.413 1_455 S
C1692 C1691 1.355 . S
C1692 C1694 1.419 . S
C1693 C1688 1.422 1_655 S
C1693 C1690 1.417 . S
C1693 C1691 1.413 1_655 S
C1694 H1684 0.930 . S
C1694 C1692 1.419 . S
C1694 C1695 1.362 . S
C1695 H1685 0.930 . S
C1695 C1688 1.409 . S
C1695 C1694 1.362 . S
H1696 C1702 0.930 . S
H1697 C1705 0.930 . S
H1698 C1706 0.930 . S
H1699 C1707 0.930 . S
H1700 C1710 0.930 . S
H1701 C1711 0.930 . S
C1702 H1696 0.930 . S
C1702 C1703 1.355 . S
C1702 C1704 1.415 . S
C1703 C1702 1.355 . S
C1703 C1705 1.419 . S
C1704 C1702 1.415 . S
C1704 C1709 1.425 . S
C1704 C1711 1.409 . S
C1705 H1697 0.930 . S
C1705 C1703 1.419 . S
C1705 C1706 1.362 . S
C1706 H1698 0.930 . S
C1706 C1705 1.362 . S
C1706 C1709 1.409 . S
C1707 H1699 0.930 . S
C1707 C1708 1.355 . S
C1707 C1709 1.415 . S
C1708 C1707 1.355 . S
C1708 C1710 1.419 . S
C1709 C1704 1.425 . S
C1709 C1706 1.409 . S
C1709 C1707 1.415 . S
C1710 H1700 0.930 . S
C1710 C1708 1.419 . S
C1710 C1711 1.362 . S
C1711 H1701 0.930 . S
C1711 C1704 1.409 . S
C1711 C1710 1.362 . S
H1712 C1718 0.930 . S
H1713 C1721 0.930 . S
H1714 C1722 0.930 . S
H1715 C1723 0.930 . S
H1716 C1726 0.930 . S
H1717 C1727 0.930 . S
C1718 H1712 0.930 . S
C1718 C1719 1.355 . S
C1718 C1720 1.415 . S
C1719 C1718 1.355 . S
C1719 C1721 1.419 . S
C1720 C1718 1.415 . S
C1720 C1725 1.425 . S
C1720 C1727 1.409 . S
C1721 H1713 0.930 . S
C1721 C1719 1.419 . S
C1721 C1722 1.362 . S
C1722 H1714 0.930 . S
C1722 C1721 1.362 . S
C1722 C1725 1.409 . S
C1723 H1715 0.930 . S
C1723 C1724 1.355 . S
C1723 C1725 1.415 . S
C1724 C1723 1.355 . S
C1724 C1726 1.419 . S
C1725 C1720 1.425 . S
C1725 C1722 1.409 . S
C1725 C1723 1.415 . S
C1726 H1716 0.930 . S
C1726 C1724 1.419 . S
C1726 C1727 1.362 . S
C1727 H1717 0.930 . S
C1727 C1720 1.409 . S
C1727 C1726 1.362 . S
H1728 C1734 0.930 . S
H1729 C1737 0.930 . S
H1730 C1738 0.930 . S
H1731 C1739 0.930 . S
H1732 C1742 0.930 . S
H1733 C1743 0.930 . S
C1734 H1728 0.930 . S
C1734 C1735 1.355 . S
C1734 C1736 1.415 . S
C1735 C1734 1.355 . S
C1735 C1737 1.419 . S
C1736 C1734 1.415 . S
C1736 C1741 1.425 . S
C1736 C1743 1.409 . S
C1737 H1729 0.930 . S
C1737 C1735 1.419 . S
C1737 C1738 1.362 . S
C1738 H1730 0.930 . S
C1738 C1737 1.362 . S
C1738 C1741 1.409 . S
C1739 H1731 0.930 . S
C1739 C1740 1.355 . S
C1739 C1741 1.415 . S
C1740 C1739 1.355 . S
C1740 C1742 1.419 . S
C1741 C1736 1.425 . S
C1741 C1738 1.409 . S
C1741 C1739 1.415 . S
C1742 H1732 0.930 . S
C1742 C1740 1.419 . S
C1742 C1743 1.362 . S
C1743 H1733 0.930 . S
C1743 C1736 1.409 . S
C1743 C1742 1.362 . S
H1744 C1750 0.930 . S
H1745 C1753 0.930 1_655 S
H1746 C1754 0.930 1_655 S
H1747 C1755 0.930 . S
H1748 C1758 0.930 . S
H1749 C1759 0.930 . S
C1750 H1744 0.930 . S
C1750 C1751 1.355 . S
C1750 C1752 1.415 . S
C1751 C1750 1.355 . S
C1751 C1753 1.419 . S
C1752 C1750 1.415 . S
C1752 C1757 1.425 . S
C1752 C1759 1.409 . S
C1753 H1745 0.930 1_455 S
C1753 C1751 1.419 . S
C1753 C1754 1.362 . S
C1754 H1746 0.930 1_455 S
C1754 C1753 1.362 . S
C1754 C1757 1.409 . S
C1755 H1747 0.930 . S
C1755 C1756 1.355 . S
C1755 C1757 1.415 . S
C1756 C1755 1.355 . S
C1756 C1758 1.419 . S
C1757 C1752 1.425 . S
C1757 C1754 1.409 . S
C1757 C1755 1.415 . S
C1758 H1748 0.930 . S
C1758 C1756 1.419 . S
C1758 C1759 1.362 . S
C1759 H1749 0.930 . S
C1759 C1752 1.409 . S
C1759 C1758 1.362 . S
H1760 C1766 0.930 . S
H1761 C1769 0.930 . S
H1762 C1770 0.930 . S
H1763 C1771 0.930 . S
H1764 C1774 0.930 . S
H1765 C1775 0.930 . S
C1766 H1760 0.930 . S
C1766 C1767 1.355 . S
C1766 C1768 1.415 . S
C1767 C1766 1.355 . S
C1767 C1769 1.419 . S
C1768 C1766 1.415 . S
C1768 C1773 1.425 . S
C1768 C1775 1.409 . S
C1769 H1761 0.930 . S
C1769 C1767 1.419 . S
C1769 C1770 1.362 . S
C1770 H1762 0.930 . S
C1770 C1769 1.362 . S
C1770 C1773 1.409 . S
C1771 H1763 0.930 . S
C1771 C1772 1.355 . S
C1771 C1773 1.415 . S
C1772 C1771 1.355 . S
C1772 C1774 1.419 . S
C1773 C1768 1.425 . S
C1773 C1770 1.409 . S
C1773 C1771 1.415 . S
C1774 H1764 0.930 . S
C1774 C1772 1.419 . S
C1774 C1775 1.362 . S
C1775 H1765 0.930 . S
C1775 C1768 1.409 . S
C1775 C1774 1.362 . S
H1776 C1782 0.930 . S
H1777 C1785 0.930 . S
H1778 C1786 0.930 . S
H1779 C1787 0.930 . S
H1780 C1790 0.930 . S
H1781 C1791 0.930 . S
C1782 H1776 0.930 . S
C1782 C1783 1.355 . S
C1782 C1784 1.415 . S
C1783 C1782 1.355 . S
C1783 C1785 1.419 . S
C1784 C1782 1.415 . S
C1784 C1789 1.425 . S
C1784 C1791 1.409 . S
C1785 H1777 0.930 . S
C1785 C1783 1.419 . S
C1785 C1786 1.362 . S
C1786 H1778 0.930 . S
C1786 C1785 1.362 . S
C1786 C1789 1.409 . S
C1787 H1779 0.930 . S
C1787 C1788 1.355 . S
C1787 C1789 1.415 . S
C1788 C1787 1.355 . S
C1788 C1790 1.419 . S
C1789 C1784 1.425 . S
C1789 C1786 1.409 . S
C1789 C1787 1.415 . S
C1790 H1780 0.930 . S
C1790 C1788 1.419 . S
C1790 C1791 1.362 . S
C1791 H1781 0.930 . S
C1791 C1784 1.409 . S
C1791 C1790 1.362 . S
H1792 C1798 0.930 . S
H1793 C1801 0.930 . S
H1794 C1802 0.930 . S
H1795 C1803 0.930 . S
H1796 C1806 0.930 . S
H1797 C1807 0.930 . S
C1798 H1792 0.930 . S
C1798 C1799 1.355 . S
C1798 C1800 1.415 . S
C1799 C1798 1.355 . S
C1799 C1801 1.419 . S
C1800 C1798 1.415 . S
C1800 C1805 1.425 . S
C1800 C1807 1.409 . S
C1801 H1793 0.930 . S
C1801 C1799 1.419 . S
C1801 C1802 1.362 . S
C1802 H1794 0.930 . S
C1802 C1801 1.362 . S
C1802 C1805 1.409 . S
C1803 H1795 0.930 . S
C1803 C1804 1.355 . S
C1803 C1805 1.415 . S
C1804 C1803 1.355 . S
C1804 C1806 1.419 . S
C1805 C1800 1.425 . S
C1805 C1802 1.409 . S
C1805 C1803 1.415 . S
C1806 H1796 0.930 . S
C1806 C1804 1.419 . S
C1806 C1807 1.362 . S
C1807 H1797 0.930 . S
C1807 C1800 1.409 . S
C1807 C1806 1.362 . S
H1808 C1814 0.930 1_565 S
H1809 C1817 0.930 . S
H1810 C1818 0.930 1_455 S
H1811 C1819 0.930 . S
H1812 C1822 0.930 . S
H1813 C1823 0.930 1_565 S
C1814 H1808 0.930 1_545 S
C1814 C1815 1.355 . S
C1814 C1816 1.415 . S
C1815 C1814 1.355 . S
C1815 C1817 1.419 . S
C1816 C1814 1.415 . S
C1816 C1821 1.425 . S
C1816 C1823 1.409 . S
C1817 H1809 0.930 . S
C1817 C1815 1.419 . S
C1817 C1818 1.362 . S
C1818 H1810 0.930 1_655 S
C1818 C1817 1.362 . S
C1818 C1821 1.409 . S
C1819 H1811 0.930 . S
C1819 C1820 1.355 . S
C1819 C1821 1.415 1_455 S
C1820 C1819 1.355 . S
C1820 C1822 1.419 1_455 S
C1821 C1816 1.425 . S
C1821 C1818 1.409 . S
C1821 C1819 1.415 1_655 S
C1822 H1812 0.930 . S
C1822 C1820 1.419 1_655 S
C1822 C1823 1.362 . S
C1823 H1813 0.930 1_545 S
C1823 C1816 1.409 . S
C1823 C1822 1.362 . S
H1824 C1830 0.930 . S
H1825 C1833 0.930 . S
H1826 C1834 0.930 . S
H1827 C1835 0.930 . S
H1828 C1838 0.930 . S
H1829 C1839 0.930 . S
C1830 H1824 0.930 . S
C1830 C1831 1.355 . S
C1830 C1832 1.415 . S
C1831 C1830 1.355 . S
C1831 C1833 1.419 . S
C1832 C1830 1.415 . S
C1832 C1837 1.425 . S
C1832 C1839 1.409 . S
C1833 H1825 0.930 . S
C1833 C1831 1.419 . S
C1833 C1834 1.362 . S
C1834 H1826 0.930 . S
C1834 C1833 1.362 . S
C1834 C1837 1.409 . S
C1835 H1827 0.930 . S
C1835 C1836 1.355 . S
C1835 C1837 1.415 . S
C1836 C1835 1.355 . S
C1836 C1838 1.419 . S
C1837 C1832 1.425 . S
C1837 C1834 1.409 . S
C1837 C1835 1.415 . S
C1838 H1828 0.930 . S
C1838 C1836 1.419 . S
C1838 C1839 1.362 . S
C1839 H1829 0.930 . S
C1839 C1832 1.409 . S
C1839 C1838 1.362 . S
H1840 C1846 0.930 . S
H1841 C1849 0.930 . S
H1842 C1850 0.930 . S
H1843 C1851 0.930 . S
H1844 C1854 0.930 . S
H1845 C1855 0.930 . S
C1846 H1840 0.930 . S
C1846 C1847 1.355 . S
C1846 C1848 1.415 . S
C1847 C1846 1.355 . S
C1847 C1849 1.419 . S
C1848 C1846 1.415 . S
C1848 C1853 1.425 . S
C1848 C1855 1.409 . S
C1849 H1841 0.930 . S
C1849 C1847 1.419 . S
C1849 C1850 1.362 . S
C1850 H1842 0.930 . S
C1850 C1849 1.362 . S
C1850 C1853 1.409 . S
C1851 H1843 0.930 . S
C1851 C1852 1.355 . S
C1851 C1853 1.415 . S
C1852 C1851 1.355 . S
C1852 C1854 1.419 . S
C1853 C1848 1.425 . S
C1853 C1850 1.409 . S
C1853 C1851 1.415 . S
C1854 H1844 0.930 . S
C1854 C1852 1.419 . S
C1854 C1855 1.362 . S
C1855 H1845 0.930 . S
C1855 C1848 1.409 . S
C1855 C1854 1.362 . S
H1856 C1862 0.930 . S
H1857 C1865 0.930 . S
H1858 C1866 0.930 . S
H1859 C1867 0.930 . S
H1860 C1870 0.930 . S
H1861 C1871 0.930 . S
C1862 H1856 0.930 . S
C1862 C1863 1.355 . S
C1862 C1864 1.415 . S
C1863 C1862 1.355 . S
C1863 C1865 1.419 . S
C1864 C1862 1.415 . S
C1864 C1869 1.425 . S
C1864 C1871 1.409 . S
C1865 H1857 0.930 . S
C1865 C1863 1.419 . S
C1865 C1866 1.362 . S
C1866 H1858 0.930 . S
C1866 C1865 1.362 . S
C1866 C1869 1.409 . S
C1867 H1859 0.930 . S
C1867 C1868 1.355 . S
C1867 C1869 1.415 . S
C1868 C1867 1.355 . S
C1868 C1870 1.419 . S
C1869 C1864 1.425 . S
C1869 C1866 1.409 . S
C1869 C1867 1.415 . S
C1870 H1860 0.930 . S
C1870 C1868 1.419 . S
C1870 C1871 1.362 . S
C1871 H1861 0.930 . S
C1871 C1864 1.409 . S
C1871 C1870 1.362 . S
H1872 C1878 0.930 1_565 S
H1873 C1881 0.930 . S
H1874 C1882 0.934 . S
H1875 C1883 0.930 . S
H1876 C1886 0.930 1_565 S
H1877 C1887 0.930 . S
C1878 H1872 0.930 1_545 S
C1878 C1879 1.355 . S
C1878 C1880 1.415 . S
C1879 C1878 1.355 . S
C1879 C1881 1.419 . S
C1880 C1878 1.415 . S
C1880 C1885 1.425 . S
C1880 C1887 1.409 1_545 S
C1881 H1873 0.930 . S
C1881 C1879 1.419 . S
C1881 C1882 1.358 1_655 S
C1882 H1874 0.934 . S
C1882 C1881 1.358 1_455 S
C1882 C1885 1.409 1_455 S
C1883 H1875 0.930 . S
C1883 C1884 1.355 . S
C1883 C1885 1.415 1_455 S
C1884 C1883 1.355 . S
C1884 C1886 1.419 1_455 S
C1885 C1880 1.425 . S
C1885 C1882 1.409 1_655 S
C1885 C1883 1.415 1_655 S
C1886 H1876 0.930 1_545 S
C1886 C1884 1.419 1_655 S
C1886 C1887 1.362 1_545 S
C1887 H1877 0.930 . S
C1887 C1880 1.409 1_565 S
C1887 C1886 1.362 1_565 S
H1888 C1894 0.930 . S
H1889 C1897 0.930 . S
H1890 C1898 0.930 . S
H1891 C1899 0.930 . S
H1892 C1902 0.930 . S
H1893 C1903 0.930 . S
C1894 H1888 0.930 . S
C1894 C1895 1.355 . S
C1894 C1896 1.415 . S
C1895 C1894 1.355 . S
C1895 C1897 1.419 . S
C1896 C1894 1.415 . S
C1896 C1901 1.425 . S
C1896 C1903 1.409 . S
C1897 H1889 0.930 . S
C1897 C1895 1.419 . S
C1897 C1898 1.362 . S
C1898 H1890 0.930 . S
C1898 C1897 1.362 . S
C1898 C1901 1.409 . S
C1899 H1891 0.930 . S
C1899 C1900 1.355 . S
C1899 C1901 1.415 . S
C1900 C1899 1.355 . S
C1900 C1902 1.419 . S
C1901 C1896 1.425 . S
C1901 C1898 1.409 . S
C1901 C1899 1.415 . S
C1902 H1892 0.930 . S
C1902 C1900 1.419 . S
C1902 C1903 1.362 . S
C1903 H1893 0.930 . S
C1903 C1896 1.409 . S
C1903 C1902 1.362 . S
H1904 C1910 0.930 . S
H1905 C1913 0.930 . S
H1906 C1914 0.930 . S
H1907 C1915 0.930 . S
H1908 C1918 0.930 . S
H1909 C1919 0.930 . S
C1910 H1904 0.930 . S
C1910 C1911 1.355 . S
C1910 C1912 1.415 . S
C1911 C1910 1.355 . S
C1911 C1913 1.419 . S
C1912 C1910 1.415 . S
C1912 C1917 1.425 . S
C1912 C1919 1.409 . S
C1913 H1905 0.930 . S
C1913 C1911 1.419 . S
C1913 C1914 1.362 . S
C1914 H1906 0.930 . S
C1914 C1913 1.362 . S
C1914 C1917 1.409 . S
C1915 H1907 0.930 . S
C1915 C1916 1.355 . S
C1915 C1917 1.415 . S
C1916 C1915 1.355 . S
C1916 C1918 1.419 . S
C1917 C1912 1.425 . S
C1917 C1914 1.409 . S
C1917 C1915 1.415 . S
C1918 H1908 0.930 . S
C1918 C1916 1.419 . S
C1918 C1919 1.362 . S
C1919 H1909 0.930 . S
C1919 C1912 1.409 . S
C1919 C1918 1.362 . S
H1920 C1926 0.930 . S
H1921 C1929 0.930 . S
H1922 C1930 0.930 . S
H1923 C1931 0.930 . S
H1924 C1934 0.930 . S
H1925 C1935 0.930 . S
C1926 H1920 0.930 . S
C1926 C1927 1.355 . S
C1926 C1928 1.415 . S
C1927 C1926 1.355 . S
C1927 C1929 1.419 . S
C1928 C1926 1.415 . S
C1928 C1933 1.425 . S
C1928 C1935 1.409 . S
C1929 H1921 0.930 . S
C1929 C1927 1.419 . S
C1929 C1930 1.362 . S
C1930 H1922 0.930 . S
C1930 C1929 1.362 . S
C1930 C1933 1.409 . S
C1931 H1923 0.930 . S
C1931 C1932 1.355 . S
C1931 C1933 1.415 . S
C1932 C1931 1.355 . S
C1932 C1934 1.419 . S
C1933 C1928 1.425 . S
C1933 C1930 1.409 . S
C1933 C1931 1.415 . S
C1934 H1924 0.930 . S
C1934 C1932 1.419 . S
C1934 C1935 1.362 . S
C1935 H1925 0.930 . S
C1935 C1928 1.409 . S
C1935 C1934 1.362 . S
H1936 C1942 0.930 1_556 S
H1937 C1945 0.930 . S
H1938 C1946 0.930 . S
H1939 C1947 0.930 . S
H1940 C1950 0.930 . S
H1941 C1951 0.930 1_556 S
C1942 H1936 0.930 1_554 S
C1942 C1943 1.355 . S
C1942 C1944 1.415 . S
C1943 C1942 1.355 . S
C1943 C1945 1.419 . S
C1944 C1942 1.415 . S
C1944 C1949 1.425 . S
C1944 C1951 1.409 . S
C1945 H1937 0.930 . S
C1945 C1943 1.419 . S
C1945 C1946 1.362 . S
C1946 H1938 0.930 . S
C1946 C1945 1.362 . S
C1946 C1949 1.409 . S
C1947 H1939 0.930 . S
C1947 C1948 1.355 . S
C1947 C1949 1.415 1_545 S
C1948 C1947 1.355 . S
C1948 C1950 1.419 . S
C1949 C1944 1.425 . S
C1949 C1946 1.409 . S
C1949 C1947 1.415 1_565 S
C1950 H1940 0.930 . S
C1950 C1948 1.419 . S
C1950 C1951 1.362 1_545 S
C1951 H1941 0.930 1_554 S
C1951 C1944 1.409 . S
C1951 C1950 1.362 1_565 S
H1952 C1958 0.930 . S
H1953 C1961 0.930 . S
H1954 C1962 0.930 . S
H1955 C1963 0.930 . S
H1956 C1966 0.930 . S
H1957 C1967 0.930 . S
C1958 H1952 0.930 . S
C1958 C1959 1.355 . S
C1958 C1960 1.415 . S
C1959 C1958 1.355 . S
C1959 C1961 1.419 . S
C1960 C1958 1.415 . S
C1960 C1965 1.425 . S
C1960 C1967 1.409 . S
C1961 H1953 0.930 . S
C1961 C1959 1.419 . S
C1961 C1962 1.362 . S
C1962 H1954 0.930 . S
C1962 C1961 1.362 . S
C1962 C1965 1.409 . S
C1963 H1955 0.930 . S
C1963 C1964 1.355 . S
C1963 C1965 1.415 . S
C1964 C1963 1.355 . S
C1964 C1966 1.419 . S
C1965 C1960 1.425 . S
C1965 C1962 1.409 . S
C1965 C1963 1.415 . S
C1966 H1956 0.930 . S
C1966 C1964 1.419 . S
C1966 C1967 1.362 . S
C1967 H1957 0.930 . S
C1967 C1960 1.409 . S
C1967 C1966 1.362 . S
H1968 C1974 0.930 . S
H1969 C1977 0.930 . S
H1970 C1978 0.930 . S
H1971 C1979 0.930 . S
H1972 C1982 0.930 . S
H1973 C1983 0.930 . S
C1974 H1968 0.930 . S
C1974 C1975 1.355 . S
C1974 C1976 1.415 . S
C1975 C1974 1.355 . S
C1975 C1977 1.419 . S
C1976 C1974 1.415 . S
C1976 C1981 1.425 . S
C1976 C1983 1.409 . S
C1977 H1969 0.930 . S
C1977 C1975 1.419 . S
C1977 C1978 1.362 . S
C1978 H1970 0.930 . S
C1978 C1977 1.362 . S
C1978 C1981 1.409 . S
C1979 H1971 0.930 . S
C1979 C1980 1.355 . S
C1979 C1981 1.415 . S
C1980 C1979 1.355 . S
C1980 C1982 1.419 . S
C1981 C1976 1.425 . S
C1981 C1978 1.409 . S
C1981 C1979 1.415 . S
C1982 H1972 0.930 . S
C1982 C1980 1.419 . S
C1982 C1983 1.362 . S
C1983 H1973 0.930 . S
C1983 C1976 1.409 . S
C1983 C1982 1.362 . S
H1984 C1990 0.930 . S
H1985 C1993 0.930 . S
H1986 C1994 0.930 . S
H1987 C1995 0.930 . S
H1988 C1998 0.930 . S
H1989 C1999 0.930 . S
C1990 H1984 0.930 . S
C1990 C1991 1.355 . S
C1990 C1992 1.415 . S
C1991 C1990 1.355 . S
C1991 C1993 1.419 . S
C1992 C1990 1.415 . S
C1992 C1997 1.425 . S
C1992 C1999 1.409 . S
C1993 H1985 0.930 . S
C1993 C1991 1.419 . S
C1993 C1994 1.362 . S
C1994 H1986 0.930 . S
C1994 C1993 1.362 . S
C1994 C1997 1.409 . S
C1995 H1987 0.930 . S
C1995 C1996 1.355 . S
C1995 C1997 1.415 . S
C1996 C1995 1.355 . S
C1996 C1998 1.419 . S
C1997 C1992 1.425 . S
C1997 C1994 1.409 . S
C1997 C1995 1.415 . S
C1998 H1988 0.930 . S
C1998 C1996 1.419 . S
C1998 C1999 1.362 . S
C1999 H1989 0.930 . S
C1999 C1992 1.409 . S
C1999 C1998 1.362 . S
H2000 C2006 0.930 . S
H2001 C2009 0.930 . S
H2002 C2010 0.930 . S
H2003 C2011 0.930 . S
H2004 C2014 0.930 . S
H2005 C2015 0.930 . S
C2006 H2000 0.930 . S
C2006 C2007 1.355 . S
C2006 C2008 1.415 . S
C2007 C2006 1.355 . S
C2007 C2009 1.419 . S
C2008 C2006 1.415 . S
C2008 C2013 1.425 . S
C2008 C2015 1.409 . S
C2009 H2001 0.930 . S
C2009 C2007 1.419 . S
C2009 C2010 1.362 . S
C2010 H2002 0.930 . S
C2010 C2009 1.362 . S
C2010 C2013 1.409 . S
C2011 H2003 0.930 . S
C2011 C2012 1.355 . S
C2011 C2013 1.415 . S
C2012 C2011 1.355 . S
C2012 C2014 1.419 . S
C2013 C2008 1.425 . S
C2013 C2010 1.409 . S
C2013 C2011 1.415 . S
C2014 H2004 0.930 . S
C2014 C2012 1.419 . S
C2014 C2015 1.362 . S
C2015 H2005 0.930 . S
C2015 C2008 1.409 . S
C2015 C2014 1.362 . S
H2016 C2022 0.930 . S
H2017 C2025 0.930 . S
H2018 C2026 0.930 . S
H2019 C2027 0.930 . S
H2020 C2030 0.930 . S
H2021 C2031 0.930 . S
C2022 H2016 0.930 . S
C2022 C2023 1.355 . S
C2022 C2024 1.415 . S
C2023 C2022 1.355 . S
C2023 C2025 1.419 . S
C2024 C2022 1.415 . S
C2024 C2029 1.425 . S
C2024 C2031 1.409 . S
C2025 H2017 0.930 . S
C2025 C2023 1.419 . S
C2025 C2026 1.362 . S
C2026 H2018 0.930 . S
C2026 C2025 1.362 . S
C2026 C2029 1.409 . S
C2027 H2019 0.930 . S
C2027 C2028 1.355 . S
C2027 C2029 1.415 . S
C2028 C2027 1.355 . S
C2028 C2030 1.419 . S
C2029 C2024 1.425 . S
C2029 C2026 1.409 . S
C2029 C2027 1.415 . S
C2030 H2020 0.930 . S
C2030 C2028 1.419 . S
C2030 C2031 1.362 . S
C2031 H2021 0.930 . S
C2031 C2024 1.409 . S
C2031 C2030 1.362 . S
H2032 C2038 0.930 . S
H2033 C2041 0.930 . S
H2034 C2042 0.930 . S
H2035 C2043 0.930 . S
H2036 C2046 0.930 . S
H2037 C2047 0.930 . S
C2038 H2032 0.930 . S
C2038 C2039 1.355 . S
C2038 C2040 1.415 . S
C2039 C2038 1.355 . S
C2039 C2041 1.419 . S
C2040 C2038 1.415 . S
C2040 C2045 1.425 . S
C2040 C2047 1.409 . S
C2041 H2033 0.930 . S
C2041 C2039 1.419 . S
C2041 C2042 1.362 . S
C2042 H2034 0.930 . S
C2042 C2041 1.362 . S
C2042 C2045 1.409 . S
C2043 H2035 0.930 . S
C2043 C2044 1.355 . S
C2043 C2045 1.415 . S
C2044 C2043 1.355 . S
C2044 C2046 1.419 . S
C2045 C2040 1.425 . S
C2045 C2042 1.409 . S
C2045 C2043 1.415 . S
C2046 H2036 0.930 . S
C2046 C2044 1.419 . S
C2046 C2047 1.362 . S
C2047 H2037 0.930 . S
C2047 C2040 1.409 . S
C2047 C2046 1.362 . S
H2048 C2054 0.930 . S
H2049 C2057 0.930 . S
H2050 C2058 0.930 . S
H2051 C2059 0.930 . S
H2052 C2062 0.930 . S
H2053 C2063 0.930 . S
C2054 H2048 0.930 . S
C2054 C2055 1.355 . S
C2054 C2056 1.415 . S
C2055 C2054 1.355 . S
C2055 C2057 1.419 . S
C2056 C2054 1.415 . S
C2056 C2061 1.425 . S
C2056 C2063 1.409 . S
C2057 H2049 0.930 . S
C2057 C2055 1.419 . S
C2057 C2058 1.362 . S
C2058 H2050 0.930 . S
C2058 C2057 1.362 . S
C2058 C2061 1.409 . S
C2059 H2051 0.930 . S
C2059 C2060 1.355 . S
C2059 C2061 1.415 . S
C2060 C2059 1.355 . S
C2060 C2062 1.419 . S
C2061 C2056 1.425 . S
C2061 C2058 1.409 . S
C2061 C2059 1.415 . S
C2062 H2052 0.930 . S
C2062 C2060 1.419 . S
C2062 C2063 1.362 . S
C2063 H2053 0.930 . S
C2063 C2056 1.409 . S
C2063 C2062 1.362 . S
H2064 C2070 0.930 . S
H2065 C2073 0.930 . S
H2066 C2074 0.930 . S
H2067 C2075 0.930 . S
H2068 C2078 0.930 . S
H2069 C2079 0.930 . S
C2070 H2064 0.930 . S
C2070 C2071 1.355 . S
C2070 C2072 1.415 . S
C2071 C2070 1.355 . S
C2071 C2073 1.419 . S
C2072 C2070 1.415 . S
C2072 C2077 1.425 . S
C2072 C2079 1.409 . S
C2073 H2065 0.930 . S
C2073 C2071 1.419 . S
C2073 C2074 1.362 . S
C2074 H2066 0.930 . S
C2074 C2073 1.362 . S
C2074 C2077 1.409 . S
C2075 H2067 0.930 . S
C2075 C2076 1.355 . S
C2075 C2077 1.415 . S
C2076 C2075 1.355 . S
C2076 C2078 1.419 . S
C2077 C2072 1.425 . S
C2077 C2074 1.409 . S
C2077 C2075 1.415 . S
C2078 H2068 0.930 . S
C2078 C2076 1.419 . S
C2078 C2079 1.362 . S
C2079 H2069 0.930 . S
C2079 C2072 1.409 . S
C2079 C2078 1.362 . S
H2080 C2086 0.930 . S
H2081 C2089 0.930 . S
H2082 C2090 0.930 . S
H2083 C2091 0.930 . S
H2084 C2094 0.930 . S
H2085 C2095 0.930 . S
C2086 H2080 0.930 . S
C2086 C2087 1.355 . S
C2086 C2088 1.415 . S
C2087 C2086 1.355 . S
C2087 C2089 1.419 . S
C2088 C2086 1.415 . S
C2088 C2093 1.425 . S
C2088 C2095 1.409 . S
C2089 H2081 0.930 . S
C2089 C2087 1.419 . S
C2089 C2090 1.362 . S
C2090 H2082 0.930 . S
C2090 C2089 1.362 . S
C2090 C2093 1.409 . S
C2091 H2083 0.930 . S
C2091 C2092 1.355 . S
C2091 C2093 1.415 . S
C2092 C2091 1.355 . S
C2092 C2094 1.419 . S
C2093 C2088 1.425 . S
C2093 C2090 1.409 . S
C2093 C2091 1.415 . S
C2094 H2084 0.930 . S
C2094 C2092 1.419 . S
C2094 C2095 1.362 . S
C2095 H2085 0.930 . S
C2095 C2088 1.409 . S
C2095 C2094 1.362 . S
H2096 C2102 0.930 . S
H2097 C2105 0.930 . S
H2098 C2106 0.930 . S
H2099 C2107 0.930 . S
H2100 C2110 0.930 . S
H2101 C2111 0.930 . S
C2102 H2096 0.930 . S
C2102 C2103 1.355 . S
C2102 C2104 1.415 . S
C2103 C2102 1.355 . S
C2103 C2105 1.419 . S
C2104 C2102 1.415 . S
C2104 C2109 1.425 . S
C2104 C2111 1.409 . S
C2105 H2097 0.930 . S
C2105 C2103 1.419 . S
C2105 C2106 1.362 . S
C2106 H2098 0.930 . S
C2106 C2105 1.362 . S
C2106 C2109 1.409 . S
C2107 H2099 0.930 . S
C2107 C2108 1.355 . S
C2107 C2109 1.415 . S
C2108 C2107 1.355 . S
C2108 C2110 1.419 . S
C2109 C2104 1.425 . S
C2109 C2106 1.409 . S
C2109 C2107 1.415 . S
C2110 H2100 0.930 . S
C2110 C2108 1.419 . S
C2110 C2111 1.362 . S
C2111 H2101 0.930 . S
C2111 C2104 1.409 . S
C2111 C2110 1.362 . S
H2112 C2118 0.930 . S
H2113 C2121 0.930 . S
H2114 C2122 0.930 . S
H2115 C2123 0.930 . S
H2116 C2126 0.930 . S
H2117 C2127 0.930 . S
C2118 H2112 0.930 . S
C2118 C2119 1.355 . S
C2118 C2120 1.415 . S
C2119 C2118 1.355 . S
C2119 C2121 1.419 . S
C2120 C2118 1.415 . S
C2120 C2125 1.425 . S
C2120 C2127 1.409 . S
C2121 H2113 0.930 . S
C2121 C2119 1.419 . S
C2121 C2122 1.362 . S
C2122 H2114 0.930 . S
C2122 C2121 1.362 . S
C2122 C2125 1.409 . S
C2123 H2115 0.930 . S
C2123 C2124 1.355 . S
C2123 C2125 1.415 . S
C2124 C2123 1.355 . S
C2124 C2126 1.419 . S
C2125 C2120 1.425 . S
C2125 C2122 1.409 . S
C2125 C2123 1.415 . S
C2126 H2116 0.930 . S
C2126 C2124 1.419 . S
C2126 C2127 1.362 . S
C2127 H2117 0.930 . S
C2127 C2120 1.409 . S
C2127 C2126 1.362 . S
H2128 C2134 0.930 . S
H2129 C2137 0.930 1_655 S
H2130 C2138 0.930 1_655 S
H2131 C2139 0.930 . S
H2132 C2142 0.930 . S
H2133 C2143 0.930 . S
C2134 H2128 0.930 . S
C2134 C2135 1.355 . S
C2134 C2136 1.415 . S
C2135 C2134 1.355 . S
C2135 C2137 1.419 . S
C2136 C2134 1.415 . S
C2136 C2141 1.425 . S
C2136 C2143 1.409 . S
C2137 H2129 0.930 1_455 S
C2137 C2135 1.419 . S
C2137 C2138 1.362 . S
C2138 H2130 0.930 1_455 S
C2138 C2137 1.362 . S
C2138 C2141 1.409 . S
C2139 H2131 0.930 . S
C2139 C2140 1.355 . S
C2139 C2141 1.415 . S
C2140 C2139 1.355 . S
C2140 C2142 1.419 . S
C2141 C2136 1.425 . S
C2141 C2138 1.409 . S
C2141 C2139 1.415 . S
C2142 H2132 0.930 . S
C2142 C2140 1.419 . S
C2142 C2143 1.362 . S
C2143 H2133 0.930 . S
C2143 C2136 1.409 . S
C2143 C2142 1.362 . S
H2144 C2150 0.930 . S
H2145 C2153 0.930 . S
H2146 C2154 0.930 . S
H2147 C2155 0.930 . S
H2148 C2158 0.930 . S
H2149 C2159 0.930 . S
C2150 H2144 0.930 . S
C2150 C2151 1.355 . S
C2150 C2152 1.415 . S
C2151 C2150 1.355 . S
C2151 C2153 1.419 . S
C2152 C2150 1.415 . S
C2152 C2157 1.425 . S
C2152 C2159 1.409 . S
C2153 H2145 0.930 . S
C2153 C2151 1.419 . S
C2153 C2154 1.362 . S
C2154 H2146 0.930 . S
C2154 C2153 1.362 . S
C2154 C2157 1.409 . S
C2155 H2147 0.930 . S
C2155 C2156 1.355 . S
C2155 C2157 1.415 . S
C2156 C2155 1.355 . S
C2156 C2158 1.419 . S
C2157 C2152 1.425 . S
C2157 C2154 1.409 . S
C2157 C2155 1.415 . S
C2158 H2148 0.930 . S
C2158 C2156 1.419 . S
C2158 C2159 1.362 . S
C2159 H2149 0.930 . S
C2159 C2152 1.409 . S
C2159 C2158 1.362 . S
H2160 C2166 0.930 . S
H2161 C2169 0.930 . S
H2162 C2170 0.930 . S
H2163 C2171 0.930 . S
H2164 C2174 0.930 . S
H2165 C2175 0.930 . S
C2166 H2160 0.930 . S
C2166 C2167 1.355 . S
C2166 C2168 1.415 . S
C2167 C2166 1.355 . S
C2167 C2169 1.419 . S
C2168 C2166 1.415 . S
C2168 C2173 1.425 . S
C2168 C2175 1.409 . S
C2169 H2161 0.930 . S
C2169 C2167 1.419 . S
C2169 C2170 1.362 . S
C2170 H2162 0.930 . S
C2170 C2169 1.362 . S
C2170 C2173 1.409 . S
C2171 H2163 0.930 . S
C2171 C2172 1.355 . S
C2171 C2173 1.415 . S
C2172 C2171 1.355 . S
C2172 C2174 1.419 . S
C2173 C2168 1.425 . S
C2173 C2170 1.409 . S
C2173 C2171 1.415 . S
C2174 H2164 0.930 . S
C2174 C2172 1.419 . S
C2174 C2175 1.362 . S
C2175 H2165 0.930 . S
C2175 C2168 1.409 . S
C2175 C2174 1.362 . S
H2176 C2182 0.930 . S
H2177 C2185 0.930 . S
H2178 C2186 0.930 . S
H2179 C2187 0.930 . S
H2180 C2190 0.930 . S
H2181 C2191 0.930 . S
C2182 H2176 0.930 . S
C2182 C2183 1.355 . S
C2182 C2184 1.415 . S
C2183 C2182 1.355 . S
C2183 C2185 1.419 . S
C2184 C2182 1.415 . S
C2184 C2189 1.425 . S
C2184 C2191 1.409 . S
C2185 H2177 0.930 . S
C2185 C2183 1.419 . S
C2185 C2186 1.362 . S
C2186 H2178 0.930 . S
C2186 C2185 1.362 . S
C2186 C2189 1.409 . S
C2187 H2179 0.930 . S
C2187 C2188 1.355 . S
C2187 C2189 1.415 . S
C2188 C2187 1.355 . S
C2188 C2190 1.419 . S
C2189 C2184 1.425 . S
C2189 C2186 1.409 . S
C2189 C2187 1.415 . S
C2190 H2180 0.930 . S
C2190 C2188 1.419 . S
C2190 C2191 1.362 . S
C2191 H2181 0.930 . S
C2191 C2184 1.409 . S
C2191 C2190 1.362 . S
H2192 C2198 0.930 . S
H2193 C2201 0.930 . S
H2194 C2202 0.930 . S
H2195 C2203 0.930 . S
H2196 C2206 0.930 1_554 S
H2197 C2207 0.930 . S
C2198 H2192 0.930 . S
C2198 C2199 1.355 . S
C2198 C2200 1.415 . S
C2199 C2198 1.355 . S
C2199 C2201 1.419 . S
C2200 C2198 1.415 . S
C2200 C2205 1.425 . S
C2200 C2207 1.409 . S
C2201 H2193 0.930 . S
C2201 C2199 1.419 . S
C2201 C2202 1.362 . S
C2202 H2194 0.930 . S
C2202 C2201 1.362 . S
C2202 C2205 1.409 . S
C2203 H2195 0.930 . S
C2203 C2204 1.355 . S
C2203 C2205 1.415 . S
C2204 C2203 1.355 . S
C2204 C2206 1.419 . S
C2205 C2200 1.425 . S
C2205 C2202 1.409 . S
C2205 C2203 1.415 . S
C2206 H2196 0.930 1_556 S
C2206 C2204 1.419 . S
C2206 C2207 1.362 . S
C2207 H2197 0.930 . S
C2207 C2200 1.409 . S
C2207 C2206 1.362 . S
H2208 C2214 0.930 . S
H2209 C2217 0.930 . S
H2210 C2218 0.930 . S
H2211 C2219 0.930 . S
H2212 C2222 0.930 . S
H2213 C2223 0.930 . S
C2214 H2208 0.930 . S
C2214 C2215 1.355 . S
C2214 C2216 1.415 . S
C2215 C2214 1.355 . S
C2215 C2217 1.419 . S
C2216 C2214 1.415 . S
C2216 C2221 1.425 . S
C2216 C2223 1.409 . S
C2217 H2209 0.930 . S
C2217 C2215 1.419 . S
C2217 C2218 1.362 . S
C2218 H2210 0.930 . S
C2218 C2217 1.362 . S
C2218 C2221 1.409 . S
C2219 H2211 0.930 . S
C2219 C2220 1.355 . S
C2219 C2221 1.415 . S
C2220 C2219 1.355 . S
C2220 C2222 1.419 . S
C2221 C2216 1.425 . S
C2221 C2218 1.409 . S
C2221 C2219 1.415 . S
C2222 H2212 0.930 . S
C2222 C2220 1.419 . S
C2222 C2223 1.362 . S
C2223 H2213 0.930 . S
C2223 C2216 1.409 . S
C2223 C2222 1.362 . S
H2224 C2230 0.930 . S
H2225 C2233 0.922 1_565 S
H2226 C2234 0.930 . S
H2227 C2235 0.930 . S
H2228 C2238 0.930 . S
H2229 C2239 0.930 . S
C2230 H2224 0.930 . S
C2230 C2231 1.355 . S
C2230 C2232 1.415 . S
C2231 C2230 1.355 . S
C2231 C2233 1.419 . S
C2232 C2230 1.415 . S
C2232 C2237 1.425 . S
C2232 C2239 1.409 . S
C2233 H2225 0.922 1_545 S
C2233 C2231 1.419 . S
C2233 C2234 1.362 . S
C2234 H2226 0.930 . S
C2234 C2233 1.362 . S
C2234 C2237 1.409 . S
C2235 H2227 0.930 . S
C2235 C2236 1.355 . S
C2235 C2237 1.415 . S
C2236 C2235 1.355 . S
C2236 C2238 1.419 . S
C2237 C2232 1.425 . S
C2237 C2234 1.409 . S
C2237 C2235 1.415 . S
C2238 H2228 0.930 . S
C2238 C2236 1.419 . S
C2238 C2239 1.362 . S
C2239 H2229 0.930 . S
C2239 C2232 1.409 . S
C2239 C2238 1.362 . S
H2240 C2246 0.930 . S
H2241 C2249 0.930 . S
H2242 C2250 0.930 . S
H2243 C2251 0.930 . S
H2244 C2254 0.930 . S
H2245 C2255 0.930 . S
C2246 H2240 0.930 . S
C2246 C2247 1.355 . S
C2246 C2248 1.415 . S
C2247 C2246 1.355 . S
C2247 C2249 1.419 . S
C2248 C2246 1.415 . S
C2248 C2253 1.425 . S
C2248 C2255 1.409 . S
C2249 H2241 0.930 . S
C2249 C2247 1.419 . S
C2249 C2250 1.362 . S
C2250 H2242 0.930 . S
C2250 C2249 1.362 . S
C2250 C2253 1.409 . S
C2251 H2243 0.930 . S
C2251 C2252 1.355 . S
C2251 C2253 1.415 . S
C2252 C2251 1.355 . S
C2252 C2254 1.419 . S
C2253 C2248 1.425 . S
C2253 C2250 1.409 . S
C2253 C2251 1.415 . S
C2254 H2244 0.930 . S
C2254 C2252 1.419 . S
C2254 C2255 1.362 . S
C2255 H2245 0.930 . S
C2255 C2248 1.409 . S
C2255 C2254 1.362 . S
H2256 C2262 0.930 . S
H2257 C2265 0.930 . S
H2258 C2266 0.930 . S
H2259 C2267 0.930 . S
H2260 C2270 0.930 . S
H2261 C2271 0.930 1_565 S
C2262 H2256 0.930 . S
C2262 C2263 1.355 . S
C2262 C2264 1.415 . S
C2263 C2262 1.355 . S
C2263 C2265 1.419 . S
C2264 C2262 1.415 . S
C2264 C2269 1.425 . S
C2264 C2271 1.409 . S
C2265 H2257 0.930 . S
C2265 C2263 1.419 . S
C2265 C2266 1.362 . S
C2266 H2258 0.930 . S
C2266 C2265 1.362 . S
C2266 C2269 1.409 . S
C2267 H2259 0.930 . S
C2267 C2268 1.355 . S
C2267 C2269 1.415 . S
C2268 C2267 1.355 . S
C2268 C2270 1.419 . S
C2269 C2264 1.425 . S
C2269 C2266 1.409 . S
C2269 C2267 1.415 . S
C2270 H2260 0.930 . S
C2270 C2268 1.419 . S
C2270 C2271 1.362 . S
C2271 H2261 0.930 1_545 S
C2271 C2264 1.409 . S
C2271 C2270 1.362 . S
H2272 C2278 0.930 . S
H2273 C2281 0.930 . S
H2274 C2282 0.930 . S
H2275 C2283 0.930 . S
H2276 C2286 0.930 . S
H2277 C2287 0.930 . S
C2278 H2272 0.930 . S
C2278 C2279 1.355 . S
C2278 C2280 1.415 . S
C2279 C2278 1.355 . S
C2279 C2281 1.419 . S
C2280 C2278 1.415 . S
C2280 C2285 1.425 . S
C2280 C2287 1.409 . S
C2281 H2273 0.930 . S
C2281 C2279 1.419 . S
C2281 C2282 1.362 . S
C2282 H2274 0.930 . S
C2282 C2281 1.362 . S
C2282 C2285 1.409 . S
C2283 H2275 0.930 . S
C2283 C2284 1.355 . S
C2283 C2285 1.415 . S
C2284 C2283 1.355 . S
C2284 C2286 1.419 . S
C2285 C2280 1.425 . S
C2285 C2282 1.409 . S
C2285 C2283 1.415 . S
C2286 H2276 0.930 . S
C2286 C2284 1.419 . S
C2286 C2287 1.362 . S
C2287 H2277 0.930 . S
C2287 C2280 1.409 . S
C2287 C2286 1.362 . S
H2288 C2294 0.930 . S
H2289 C2297 0.930 . S
H2290 C2298 0.930 . S
H2291 C2299 0.930 . S
H2292 C2302 0.930 . S
H2293 C2303 0.930 . S
C2294 H2288 0.930 . S
C2294 C2295 1.355 . S
C2294 C2296 1.415 . S
C2295 C2294 1.355 . S
C2295 C2297 1.419 1_545 S
C2296 C2294 1.415 . S
C2296 C2301 1.425 1_545 S
C2296 C2303 1.409 . S
C2297 H2289 0.930 . S
C2297 C2295 1.419 1_565 S
C2297 C2298 1.362 . S
C2298 H2290 0.930 . S
C2298 C2297 1.362 . S
C2298 C2301 1.409 . S
C2299 H2291 0.930 . S
C2299 C2300 1.355 1_565 S
C2299 C2301 1.415 . S
C2300 C2299 1.355 1_545 S
C2300 C2302 1.419 . S
C2301 C2296 1.425 1_565 S
C2301 C2298 1.409 . S
C2301 C2299 1.415 . S
C2302 H2292 0.930 . S
C2302 C2300 1.419 . S
C2302 C2303 1.362 . S
C2303 H2293 0.930 . S
C2303 C2296 1.409 . S
C2303 C2302 1.362 . S
H2304 C2310 0.930 . S
H2305 C2313 0.930 . S
H2306 C2314 0.930 . S
H2307 C2315 0.930 . S
H2308 C2318 0.930 . S
H2309 C2319 0.930 . S
C2310 H2304 0.930 . S
C2310 C2311 1.355 . S
C2310 C2312 1.415 . S
C2311 C2310 1.355 . S
C2311 C2313 1.419 . S
C2312 C2310 1.415 . S
C2312 C2317 1.425 . S
C2312 C2319 1.409 . S
C2313 H2305 0.930 . S
C2313 C2311 1.419 . S
C2313 C2314 1.362 . S
C2314 H2306 0.930 . S
C2314 C2313 1.362 . S
C2314 C2317 1.409 . S
C2315 H2307 0.930 . S
C2315 C2316 1.355 . S
C2315 C2317 1.415 . S
C2316 C2315 1.355 . S
C2316 C2318 1.419 . S
C2317 C2312 1.425 . S
C2317 C2314 1.409 . S
C2317 C2315 1.415 . S
C2318 H2308 0.930 . S
C2318 C2316 1.419 . S
C2318 C2319 1.362 . S
C2319 H2309 0.930 . S
C2319 C2312 1.409 . S
C2319 C2318 1.362 . S
H2320 C2326 0.930 . S
H2321 C2329 0.930 . S
H2322 C2330 0.930 . S
H2323 C2331 0.930 . S
H2324 C2334 0.930 . S
H2325 C2335 0.930 . S
C2326 H2320 0.930 . S
C2326 C2327 1.355 . S
C2326 C2328 1.415 . S
C2327 C2326 1.355 . S
C2327 C2329 1.419 . S
C2328 C2326 1.415 . S
C2328 C2333 1.425 . S
C2328 C2335 1.409 . S
C2329 H2321 0.930 . S
C2329 C2327 1.419 . S
C2329 C2330 1.362 . S
C2330 H2322 0.930 . S
C2330 C2329 1.362 . S
C2330 C2333 1.409 . S
C2331 H2323 0.930 . S
C2331 C2332 1.355 . S
C2331 C2333 1.415 . S
C2332 C2331 1.355 . S
C2332 C2334 1.419 . S
C2333 C2328 1.425 . S
C2333 C2330 1.409 . S
C2333 C2331 1.415 . S
C2334 H2324 0.930 . S
C2334 C2332 1.419 . S
C2334 C2335 1.362 . S
C2335 H2325 0.930 . S
C2335 C2328 1.409 . S
C2335 C2334 1.362 . S
H2336 C2342 0.930 . S
H2337 C2345 0.930 . S
H2338 C2346 0.930 . S
H2339 C2347 0.930 . S
H2340 C2350 0.930 . S
H2341 C2351 0.930 . S
C2342 H2336 0.930 . S
C2342 C2343 1.355 . S
C2342 C2344 1.415 . S
C2343 C2342 1.355 . S
C2343 C2345 1.419 . S
C2344 C2342 1.415 . S
C2344 C2349 1.425 . S
C2344 C2351 1.409 . S
C2345 H2337 0.930 . S
C2345 C2343 1.419 . S
C2345 C2346 1.362 . S
C2346 H2338 0.930 . S
C2346 C2345 1.362 . S
C2346 C2349 1.409 . S
C2347 H2339 0.930 . S
C2347 C2348 1.355 . S
C2347 C2349 1.415 . S
C2348 C2347 1.355 . S
C2348 C2350 1.419 . S
C2349 C2344 1.425 . S
C2349 C2346 1.409 . S
C2349 C2347 1.415 . S
C2350 H2340 0.930 . S
C2350 C2348 1.419 . S
C2350 C2351 1.362 . S
C2351 H2341 0.930 . S
C2351 C2344 1.409 . S
C2351 C2350 1.362 . S
H2352 C2358 0.930 . S
H2353 C2361 0.930 . S
H2354 C2362 0.930 . S
H2355 C2363 0.930 . S
H2356 C2366 0.930 . S
H2357 C2367 0.930 . S
C2358 H2352 0.930 . S
C2358 C2359 1.355 . S
C2358 C2360 1.415 . S
C2359 C2358 1.355 . S
C2359 C2361 1.419 . S
C2360 C2358 1.415 . S
C2360 C2365 1.425 . S
C2360 C2367 1.409 . S
C2361 H2353 0.930 . S
C2361 C2359 1.419 . S
C2361 C2362 1.362 . S
C2362 H2354 0.930 . S
C2362 C2361 1.362 . S
C2362 C2365 1.409 . S
C2363 H2355 0.930 . S
C2363 C2364 1.355 . S
C2363 C2365 1.415 . S
C2364 C2363 1.355 . S
C2364 C2366 1.419 . S
C2365 C2360 1.425 . S
C2365 C2362 1.409 . S
C2365 C2363 1.415 . S
C2366 H2356 0.930 . S
C2366 C2364 1.419 . S
C2366 C2367 1.362 . S
C2367 H2357 0.930 . S
C2367 C2360 1.409 . S
C2367 C2366 1.362 . S
H2368 C2374 0.930 . S
H2369 C2377 0.930 . S
H2370 C2378 0.930 . S
H2371 C2379 0.930 . S
H2372 C2382 0.930 . S
H2373 C2383 0.930 . S
C2374 H2368 0.930 . S
C2374 C2375 1.355 . S
C2374 C2376 1.415 . S
C2375 C2374 1.355 . S
C2375 C2377 1.419 . S
C2376 C2374 1.415 . S
C2376 C2381 1.425 . S
C2376 C2383 1.409 . S
C2377 H2369 0.930 . S
C2377 C2375 1.419 . S
C2377 C2378 1.362 . S
C2378 H2370 0.930 . S
C2378 C2377 1.362 . S
C2378 C2381 1.409 . S
C2379 H2371 0.930 . S
C2379 C2380 1.355 . S
C2379 C2381 1.415 . S
C2380 C2379 1.355 . S
C2380 C2382 1.419 . S
C2381 C2376 1.425 . S
C2381 C2378 1.409 . S
C2381 C2379 1.415 . S
C2382 H2372 0.930 . S
C2382 C2380 1.419 . S
C2382 C2383 1.362 . S
C2383 H2373 0.930 . S
C2383 C2376 1.409 . S
C2383 C2382 1.362 . S
H2384 C2390 0.930 . S
H2385 C2393 0.930 1_545 S
H2386 C2394 0.930 . S
H2387 C2395 0.930 . S
H2388 C2398 0.930 . S
H2389 C2399 0.930 . S
C2390 H2384 0.930 . S
C2390 C2391 1.355 . S
C2390 C2392 1.415 . S
C2391 C2390 1.355 . S
C2391 C2393 1.419 . S
C2392 C2390 1.415 . S
C2392 C2397 1.425 . S
C2392 C2399 1.409 . S
C2393 H2385 0.930 1_565 S
C2393 C2391 1.419 . S
C2393 C2394 1.362 . S
C2394 H2386 0.930 . S
C2394 C2393 1.362 . S
C2394 C2397 1.409 . S
C2395 H2387 0.930 . S
C2395 C2396 1.355 . S
C2395 C2397 1.415 . S
C2396 C2395 1.355 . S
C2396 C2398 1.419 . S
C2397 C2392 1.425 . S
C2397 C2394 1.409 . S
C2397 C2395 1.415 . S
C2398 H2388 0.930 . S
C2398 C2396 1.419 . S
C2398 C2399 1.362 . S
C2399 H2389 0.930 . S
C2399 C2392 1.409 . S
C2399 C2398 1.362 . S
H2400 C2406 0.930 . S
H2401 C2409 0.930 . S
H2402 C2410 0.930 . S
H2403 C2411 0.930 . S
H2404 C2414 0.930 1_545 S
H2405 C2415 0.930 . S
C2406 H2400 0.930 . S
C2406 C2407 1.355 . S
C2406 C2408 1.415 . S
C2407 C2406 1.355 . S
C2407 C2409 1.419 . S
C2408 C2406 1.415 . S
C2408 C2413 1.425 . S
C2408 C2415 1.409 . S
C2409 H2401 0.930 . S
C2409 C2407 1.419 . S
C2409 C2410 1.362 . S
C2410 H2402 0.930 . S
C2410 C2409 1.362 . S
C2410 C2413 1.409 . S
C2411 H2403 0.930 . S
C2411 C2412 1.355 . S
C2411 C2413 1.415 . S
C2412 C2411 1.355 . S
C2412 C2414 1.419 . S
C2413 C2408 1.425 . S
C2413 C2410 1.409 . S
C2413 C2411 1.415 . S
C2414 H2404 0.930 1_565 S
C2414 C2412 1.419 . S
C2414 C2415 1.362 . S
C2415 H2405 0.930 . S
C2415 C2408 1.409 . S
C2415 C2414 1.362 . S
H2416 C2422 0.930 . S
H2417 C2425 0.930 . S
H2418 C2426 0.930 . S
H2419 C2427 0.930 . S
H2420 C2430 0.930 . S
H2421 C2431 0.930 . S
C2422 H2416 0.930 . S
C2422 C2423 1.355 . S
C2422 C2424 1.415 . S
C2423 C2422 1.355 . S
C2423 C2425 1.419 . S
C2424 C2422 1.415 . S
C2424 C2429 1.425 . S
C2424 C2431 1.409 . S
C2425 H2417 0.930 . S
C2425 C2423 1.419 . S
C2425 C2426 1.362 . S
C2426 H2418 0.930 . S
C2426 C2425 1.362 . S
C2426 C2429 1.409 . S
C2427 H2419 0.930 . S
C2427 C2428 1.355 . S
C2427 C2429 1.415 . S
C2428 C2427 1.355 . S
C2428 C2430 1.419 . S
C2429 C2424 1.425 . S
C2429 C2426 1.409 . S
C2429 C2427 1.415 . S
C2430 H2420 0.930 . S
C2430 C2428 1.419 . S
C2430 C2431 1.362 . S
C2431 H2421 0.930 . S
C2431 C2424 1.409 . S
C2431 C2430 1.362 . S
H2432 C2438 0.930 . S
H2433 C2441 0.930 . S
H2434 C2442 0.930 . S
H2435 C2443 0.930 . S
H2436 C2446 0.930 . S
H2437 C2447 0.930 . S
C2438 H2432 0.930 . S
C2438 C2439 1.355 . S
C2438 C2440 1.415 . S
C2439 C2438 1.355 . S
C2439 C2441 1.419 . S
C2440 C2438 1.415 . S
C2440 C2445 1.425 . S
C2440 C2447 1.409 . S
C2441 H2433 0.930 . S
C2441 C2439 1.419 . S
C2441 C2442 1.362 . S
C2442 H2434 0.930 . S
C2442 C2441 1.362 . S
C2442 C2445 1.409 . S
C2443 H2435 0.930 . S
C2443 C2444 1.355 . S
C2443 C2445 1.415 . S
C2444 C2443 1.355 . S
C2444 C2446 1.419 . S
C2445 C2440 1.425 . S
C2445 C2442 1.409 . S
C2445 C2443 1.415 . S
C2446 H2436 0.930 . S
C2446 C2444 1.419 . S
C2446 C2447 1.362 . S
C2447 H2437 0.930 . S
C2447 C2440 1.409 . S
C2447 C2446 1.362 . S
H2448 C2454 0.930 . S
H2449 C2457 0.930 . S
H2450 C2458 0.930 . S
H2451 C2459 0.930 . S
H2452 C2462 0.930 . S
H2453 C2463 0.930 . S
C2454 H2448 0.930 . S
C2454 C2455 1.355 . S
C2454 C2456 1.415 . S
C2455 C2454 1.355 . S
C2455 C2457 1.419 . S
C2456 C2454 1.415 . S
C2456 C2461 1.425 . S
C2456 C2463 1.409 . S
C2457 H2449 0.930 . S
C2457 C2455 1.419 . S
C2457 C2458 1.362 . S
C2458 H2450 0.930 . S
C2458 C2457 1.362 . S
C2458 C2461 1.409 . S
C2459 H2451 0.930 . S
C2459 C2460 1.355 . S
C2459 C2461 1.415 . S
C2460 C2459 1.355 . S
C2460 C2462 1.419 . S
C2461 C2456 1.425 . S
C2461 C2458 1.409 . S
C2461 C2459 1.415 . S
C2462 H2452 0.930 . S
C2462 C2460 1.419 . S
C2462 C2463 1.362 . S
C2463 H2453 0.930 . S
C2463 C2456 1.409 . S
C2463 C2462 1.362 . S
H2464 C2470 0.930 . S
H2465 C2473 0.930 . S
H2466 C2474 0.930 . S
H2467 C2475 0.930 . S
H2468 C2478 0.930 . S
H2469 C2479 0.930 . S
C2470 H2464 0.930 . S
C2470 C2471 1.355 . S
C2470 C2472 1.415 . S
C2471 C2470 1.355 . S
C2471 C2473 1.419 . S
C2472 C2470 1.415 . S
C2472 C2477 1.425 . S
C2472 C2479 1.409 . S
C2473 H2465 0.930 . S
C2473 C2471 1.419 . S
C2473 C2474 1.362 . S
C2474 H2466 0.930 . S
C2474 C2473 1.362 . S
C2474 C2477 1.409 . S
C2475 H2467 0.930 . S
C2475 C2476 1.355 . S
C2475 C2477 1.415 . S
C2476 C2475 1.355 . S
C2476 C2478 1.419 . S
C2477 C2472 1.425 . S
C2477 C2474 1.409 . S
C2477 C2475 1.415 . S
C2478 H2468 0.930 . S
C2478 C2476 1.419 . S
C2478 C2479 1.362 . S
C2479 H2469 0.930 . S
C2479 C2472 1.409 . S
C2479 C2478 1.362 . S
H2480 C2486 0.930 . S
H2481 C2489 0.930 . S
H2482 C2490 0.930 . S
H2483 C2491 0.930 . S
H2484 C2494 0.930 . S
H2485 C2495 0.930 . S
C2486 H2480 0.930 . S
C2486 C2487 1.355 . S
C2486 C2488 1.415 . S
C2487 C2486 1.355 . S
C2487 C2489 1.419 1_454 S
C2488 C2486 1.415 . S
C2488 C2493 1.425 . S
C2488 C2495 1.409 . S
C2489 H2481 0.930 . S
C2489 C2487 1.419 1_656 S
C2489 C2490 1.362 . S
C2490 H2482 0.930 . S
C2490 C2489 1.362 . S
C2490 C2493 1.409 1_656 S
C2491 H2483 0.930 . S
C2491 C2492 1.355 . S
C2491 C2493 1.415 . S
C2492 C2491 1.355 . S
C2492 C2494 1.419 . S
C2493 C2488 1.425 . S
C2493 C2490 1.409 1_454 S
C2493 C2491 1.415 . S
C2494 H2484 0.930 . S
C2494 C2492 1.419 . S
C2494 C2495 1.362 . S
C2495 H2485 0.930 . S
C2495 C2488 1.409 . S
C2495 C2494 1.362 . S
H2496 C2502 0.930 . S
H2497 C2505 0.930 . S
H2498 C2506 0.930 . S
H2499 C2507 0.930 . S
H2500 C2510 0.930 . S
H2501 C2511 0.930 . S
C2502 H2496 0.930 . S
C2502 C2503 1.355 . S
C2502 C2504 1.415 . S
C2503 C2502 1.355 . S
C2503 C2505 1.419 1_655 S
C2504 C2502 1.415 . S
C2504 C2509 1.425 . S
C2504 C2511 1.409 . S
C2505 H2497 0.930 . S
C2505 C2503 1.419 1_455 S
C2505 C2506 1.362 1_455 S
C2506 H2498 0.930 . S
C2506 C2505 1.362 1_655 S
C2506 C2509 1.409 . S
C2507 H2499 0.930 . S
C2507 C2508 1.355 . S
C2507 C2509 1.415 . S
C2508 C2507 1.355 . S
C2508 C2510 1.419 . S
C2509 C2504 1.425 . S
C2509 C2506 1.409 . S
C2509 C2507 1.415 . S
C2510 H2500 0.930 . S
C2510 C2508 1.419 . S
C2510 C2511 1.362 . S
C2511 H2501 0.930 . S
C2511 C2504 1.409 . S
C2511 C2510 1.362 . S
H2512 C2518 0.930 . S
H2513 C2521 0.930 . S
H2514 C2522 0.930 . S
H2515 C2523 0.930 . S
H2516 C2526 0.930 . S
H2517 C2527 0.930 . S
C2518 H2512 0.930 . S
C2518 C2519 1.355 . S
C2518 C2520 1.415 . S
C2519 C2518 1.355 . S
C2519 C2521 1.419 . S
C2520 C2518 1.415 . S
C2520 C2525 1.425 . S
C2520 C2527 1.409 . S
C2521 H2513 0.930 . S
C2521 C2519 1.419 . S
C2521 C2522 1.362 . S
C2522 H2514 0.930 . S
C2522 C2521 1.362 . S
C2522 C2525 1.409 . S
C2523 H2515 0.930 . S
C2523 C2524 1.355 . S
C2523 C2525 1.415 . S
C2524 C2523 1.355 . S
C2524 C2526 1.419 . S
C2525 C2520 1.425 . S
C2525 C2522 1.409 . S
C2525 C2523 1.415 . S
C2526 H2516 0.930 . S
C2526 C2524 1.419 . S
C2526 C2527 1.362 . S
C2527 H2517 0.930 . S
C2527 C2520 1.409 . S
C2527 C2526 1.362 . S
H2528 C2534 0.930 . S
H2529 C2537 0.930 . S
H2530 C2538 0.930 . S
H2531 C2539 0.930 . S
H2532 C2542 0.930 . S
H2533 C2543 0.930 . S
C2534 H2528 0.930 . S
C2534 C2535 1.355 . S
C2534 C2536 1.415 . S
C2535 C2534 1.355 . S
C2535 C2537 1.419 . S
C2536 C2534 1.415 . S
C2536 C2541 1.425 . S
C2536 C2543 1.409 . S
C2537 H2529 0.930 . S
C2537 C2535 1.419 . S
C2537 C2538 1.362 . S
C2538 H2530 0.930 . S
C2538 C2537 1.362 . S
C2538 C2541 1.409 . S
C2539 H2531 0.930 . S
C2539 C2540 1.355 . S
C2539 C2541 1.415 . S
C2540 C2539 1.355 . S
C2540 C2542 1.419 . S
C2541 C2536 1.425 . S
C2541 C2538 1.409 . S
C2541 C2539 1.415 . S
C2542 H2532 0.930 . S
C2542 C2540 1.419 . S
C2542 C2543 1.362 . S
C2543 H2533 0.930 . S
C2543 C2536 1.409 . S
C2543 C2542 1.362 . S
H2544 C2550 0.930 . S
H2545 C2553 0.930 . S
H2546 C2554 0.930 . S
H2547 C2555 0.930 . S
H2548 C2558 0.930 . S
H2549 C2559 0.930 . S
C2550 H2544 0.930 . S
C2550 C2551 1.355 . S
C2550 C2552 1.415 . S
C2551 C2550 1.355 . S
C2551 C2553 1.419 . S
C2552 C2550 1.415 . S
C2552 C2557 1.425 . S
C2552 C2559 1.409 . S
C2553 H2545 0.930 . S
C2553 C2551 1.419 . S
C2553 C2554 1.362 . S
C2554 H2546 0.930 . S
C2554 C2553 1.362 . S
C2554 C2557 1.409 . S
C2555 H2547 0.930 . S
C2555 C2556 1.355 . S
C2555 C2557 1.415 . S
C2556 C2555 1.355 . S
C2556 C2558 1.419 . S
C2557 C2552 1.425 . S
C2557 C2554 1.409 . S
C2557 C2555 1.415 . S
C2558 H2548 0.930 . S
C2558 C2556 1.419 . S
C2558 C2559 1.362 . S
C2559 H2549 0.930 . S
C2559 C2552 1.409 . S
C2559 C2558 1.362 . S
H2560 C2566 0.930 . S
H2561 C2569 0.930 . S
H2562 C2570 0.930 . S
H2563 C2571 0.930 . S
H2564 C2574 0.930 . S
H2565 C2575 0.930 . S
C2566 H2560 0.930 . S
C2566 C2567 1.355 . S
C2566 C2568 1.415 . S
C2567 C2566 1.355 . S
C2567 C2569 1.419 . S
C2568 C2566 1.415 . S
C2568 C2573 1.425 . S
C2568 C2575 1.409 . S
C2569 H2561 0.930 . S
C2569 C2567 1.419 . S
C2569 C2570 1.362 . S
C2570 H2562 0.930 . S
C2570 C2569 1.362 . S
C2570 C2573 1.409 . S
C2571 H2563 0.930 . S
C2571 C2572 1.355 . S
C2571 C2573 1.415 . S
C2572 C2571 1.355 . S
C2572 C2574 1.419 . S
C2573 C2568 1.425 . S
C2573 C2570 1.409 . S
C2573 C2571 1.415 . S
C2574 H2564 0.930 . S
C2574 C2572 1.419 . S
C2574 C2575 1.362 . S
C2575 H2565 0.930 . S
C2575 C2568 1.409 . S
C2575 C2574 1.362 . S
H2576 C2582 0.930 . S
H2577 C2585 0.930 . S
H2578 C2586 0.930 . S
H2579 C2587 0.930 . S
H2580 C2590 0.930 . S
H2581 C2591 0.930 . S
C2582 H2576 0.930 . S
C2582 C2583 1.355 . S
C2582 C2584 1.415 . S
C2583 C2582 1.355 . S
C2583 C2585 1.419 . S
C2584 C2582 1.415 . S
C2584 C2589 1.425 . S
C2584 C2591 1.409 . S
C2585 H2577 0.930 . S
C2585 C2583 1.419 . S
C2585 C2586 1.362 . S
C2586 H2578 0.930 . S
C2586 C2585 1.362 . S
C2586 C2589 1.409 . S
C2587 H2579 0.930 . S
C2587 C2588 1.355 . S
C2587 C2589 1.415 . S
C2588 C2587 1.355 . S
C2588 C2590 1.419 . S
C2589 C2584 1.425 . S
C2589 C2586 1.409 . S
C2589 C2587 1.415 . S
C2590 H2580 0.930 . S
C2590 C2588 1.419 . S
C2590 C2591 1.362 . S
C2591 H2581 0.930 . S
C2591 C2584 1.409 . S
C2591 C2590 1.362 . S
H2592 C2598 0.930 1_554 S
H2593 C2601 0.930 . S
H2594 C2602 0.930 . S
H2595 C2603 0.930 . S
H2596 C2606 0.930 . S
H2597 C2607 0.930 . S
C2598 H2592 0.930 1_556 S
C2598 C2599 1.355 . S
C2598 C2600 1.415 . S
C2599 C2598 1.355 . S
C2599 C2601 1.419 . S
C2600 C2598 1.415 . S
C2600 C2605 1.425 . S
C2600 C2607 1.409 . S
C2601 H2593 0.930 . S
C2601 C2599 1.419 . S
C2601 C2602 1.362 . S
C2602 H2594 0.930 . S
C2602 C2601 1.362 . S
C2602 C2605 1.409 . S
C2603 H2595 0.930 . S
C2603 C2604 1.355 . S
C2603 C2605 1.415 . S
C2604 C2603 1.355 . S
C2604 C2606 1.419 . S
C2605 C2600 1.425 . S
C2605 C2602 1.409 . S
C2605 C2603 1.415 . S
C2606 H2596 0.930 . S
C2606 C2604 1.419 . S
C2606 C2607 1.362 . S
C2607 H2597 0.930 . S
C2607 C2600 1.409 . S
C2607 C2606 1.362 . S
H2608 C2614 0.930 . S
H2609 C2617 0.930 . S
H2610 C2618 0.930 . S
H2611 C2619 0.930 . S
H2612 C2622 0.930 . S
H2613 C2623 0.930 . S
C2614 H2608 0.930 . S
C2614 C2615 1.355 . S
C2614 C2616 1.415 . S
C2615 C2614 1.355 . S
C2615 C2617 1.419 . S
C2616 C2614 1.415 . S
C2616 C2621 1.425 . S
C2616 C2623 1.409 . S
C2617 H2609 0.930 . S
C2617 C2615 1.419 . S
C2617 C2618 1.362 . S
C2618 H2610 0.930 . S
C2618 C2617 1.362 . S
C2618 C2621 1.409 . S
C2619 H2611 0.930 . S
C2619 C2620 1.355 . S
C2619 C2621 1.415 . S
C2620 C2619 1.355 . S
C2620 C2622 1.419 . S
C2621 C2616 1.425 . S
C2621 C2618 1.409 . S
C2621 C2619 1.415 . S
C2622 H2612 0.930 . S
C2622 C2620 1.419 . S
C2622 C2623 1.362 . S
C2623 H2613 0.930 . S
C2623 C2616 1.409 . S
C2623 C2622 1.362 . S
H2624 C2630 0.930 . S
H2625 C2633 0.930 . S
H2626 C2634 0.930 . S
H2627 C2635 0.930 . S
H2628 C2638 0.930 . S
H2629 C2639 0.930 . S
C2630 H2624 0.930 . S
C2630 C2631 1.355 . S
C2630 C2632 1.415 . S
C2631 C2630 1.355 . S
C2631 C2633 1.419 . S
C2632 C2630 1.415 . S
C2632 C2637 1.425 . S
C2632 C2639 1.409 . S
C2633 H2625 0.930 . S
C2633 C2631 1.419 . S
C2633 C2634 1.362 . S
C2634 H2626 0.930 . S
C2634 C2633 1.362 . S
C2634 C2637 1.409 . S
C2635 H2627 0.930 . S
C2635 C2636 1.355 . S
C2635 C2637 1.415 . S
C2636 C2635 1.355 . S
C2636 C2638 1.419 . S
C2637 C2632 1.425 . S
C2637 C2634 1.409 . S
C2637 C2635 1.415 . S
C2638 H2628 0.930 . S
C2638 C2636 1.419 . S
C2638 C2639 1.362 . S
C2639 H2629 0.930 . S
C2639 C2632 1.409 . S
C2639 C2638 1.362 . S
H2640 C2646 0.930 . S
H2641 C2649 0.930 . S
H2642 C2650 0.930 . S
H2643 C2651 0.930 . S
H2644 C2654 0.930 . S
H2645 C2655 0.930 . S
C2646 H2640 0.930 . S
C2646 C2647 1.355 . S
C2646 C2648 1.415 . S
C2647 C2646 1.355 . S
C2647 C2649 1.419 . S
C2648 C2646 1.415 . S
C2648 C2653 1.425 . S
C2648 C2655 1.409 . S
C2649 H2641 0.930 . S
C2649 C2647 1.419 . S
C2649 C2650 1.362 . S
C2650 H2642 0.930 . S
C2650 C2649 1.362 . S
C2650 C2653 1.409 . S
C2651 H2643 0.930 . S
C2651 C2652 1.355 . S
C2651 C2653 1.415 . S
C2652 C2651 1.355 . S
C2652 C2654 1.419 . S
C2653 C2648 1.425 . S
C2653 C2650 1.409 . S
C2653 C2651 1.415 . S
C2654 H2644 0.930 . S
C2654 C2652 1.419 . S
C2654 C2655 1.362 . S
C2655 H2645 0.930 . S
C2655 C2648 1.409 . S
C2655 C2654 1.362 . S
H2656 C2662 0.930 . S
H2657 C2665 0.930 . S
H2658 C2666 0.930 . S
H2659 C2667 0.930 . S
H2660 C2670 0.930 . S
H2661 C2671 0.930 . S
C2662 H2656 0.930 . S
C2662 C2663 1.355 . S
C2662 C2664 1.415 . S
C2663 C2662 1.355 . S
C2663 C2665 1.419 . S
C2664 C2662 1.415 . S
C2664 C2669 1.425 . S
C2664 C2671 1.409 . S
C2665 H2657 0.930 . S
C2665 C2663 1.419 . S
C2665 C2666 1.362 . S
C2666 H2658 0.930 . S
C2666 C2665 1.362 . S
C2666 C2669 1.409 . S
C2667 H2659 0.930 . S
C2667 C2668 1.355 . S
C2667 C2669 1.415 . S
C2668 C2667 1.355 . S
C2668 C2670 1.419 . S
C2669 C2664 1.425 . S
C2669 C2666 1.409 . S
C2669 C2667 1.415 . S
C2670 H2660 0.930 . S
C2670 C2668 1.419 . S
C2670 C2671 1.362 . S
C2671 H2661 0.930 . S
C2671 C2664 1.409 . S
C2671 C2670 1.362 . S
H2672 C2678 0.930 . S
H2673 C2681 0.930 . S
H2674 C2682 0.930 . S
H2675 C2683 0.930 . S
H2676 C2686 0.930 . S
H2677 C2687 0.930 . S
C2678 H2672 0.930 . S
C2678 C2679 1.355 . S
C2678 C2680 1.415 . S
C2679 C2678 1.355 . S
C2679 C2681 1.419 . S
C2680 C2678 1.415 . S
C2680 C2685 1.425 . S
C2680 C2687 1.409 . S
C2681 H2673 0.930 . S
C2681 C2679 1.419 . S
C2681 C2682 1.362 . S
C2682 H2674 0.930 . S
C2682 C2681 1.362 . S
C2682 C2685 1.409 . S
C2683 H2675 0.930 . S
C2683 C2684 1.355 . S
C2683 C2685 1.415 . S
C2684 C2683 1.355 . S
C2684 C2686 1.419 . S
C2685 C2680 1.425 . S
C2685 C2682 1.409 . S
C2685 C2683 1.415 . S
C2686 H2676 0.930 . S
C2686 C2684 1.419 . S
C2686 C2687 1.362 . S
C2687 H2677 0.930 . S
C2687 C2680 1.409 . S
C2687 C2686 1.362 . S
H2688 C2694 0.930 . S
H2689 C2697 0.930 . S
H2690 C2698 0.930 . S
H2691 C2699 0.930 . S
H2692 C2702 0.930 . S
H2693 C2703 0.930 . S
C2694 H2688 0.930 . S
C2694 C2695 1.355 . S
C2694 C2696 1.415 . S
C2695 C2694 1.355 . S
C2695 C2697 1.419 . S
C2696 C2694 1.415 . S
C2696 C2701 1.425 . S
C2696 C2703 1.409 . S
C2697 H2689 0.930 . S
C2697 C2695 1.419 . S
C2697 C2698 1.362 . S
C2698 H2690 0.930 . S
C2698 C2697 1.362 . S
C2698 C2701 1.409 . S
C2699 H2691 0.930 . S
C2699 C2700 1.355 . S
C2699 C2701 1.415 . S
C2700 C2699 1.355 . S
C2700 C2702 1.419 . S
C2701 C2696 1.425 . S
C2701 C2698 1.409 . S
C2701 C2699 1.415 . S
C2702 H2692 0.930 . S
C2702 C2700 1.419 . S
C2702 C2703 1.362 . S
C2703 H2693 0.930 . S
C2703 C2696 1.409 . S
C2703 C2702 1.362 . S
H2704 C2710 0.930 . S
H2705 C2713 0.930 . S
H2706 C2714 0.930 . S
H2707 C2715 0.930 . S
H2708 C2718 0.930 . S
H2709 C2719 0.930 . S
C2710 H2704 0.930 . S
C2710 C2711 1.355 . S
C2710 C2712 1.415 . S
C2711 C2710 1.355 . S
C2711 C2713 1.419 . S
C2712 C2710 1.415 . S
C2712 C2717 1.425 . S
C2712 C2719 1.409 . S
C2713 H2705 0.930 . S
C2713 C2711 1.419 . S
C2713 C2714 1.362 . S
C2714 H2706 0.930 . S
C2714 C2713 1.362 . S
C2714 C2717 1.409 . S
C2715 H2707 0.930 . S
C2715 C2716 1.355 . S
C2715 C2717 1.415 . S
C2716 C2715 1.355 . S
C2716 C2718 1.419 . S
C2717 C2712 1.425 . S
C2717 C2714 1.409 . S
C2717 C2715 1.415 . S
C2718 H2708 0.930 . S
C2718 C2716 1.419 . S
C2718 C2719 1.362 . S
C2719 H2709 0.930 . S
C2719 C2712 1.409 . S
C2719 C2718 1.362 . S
H2720 C2726 0.930 . S
H2721 C2729 0.930 . S
H2722 C2730 0.930 . S
H2723 C2731 0.930 . S
H2724 C2734 0.930 . S
H2725 C2735 0.930 . S
C2726 H2720 0.930 . S
C2726 C2727 1.355 . S
C2726 C2728 1.415 . S
C2727 C2726 1.355 . S
C2727 C2729 1.419 . S
C2728 C2726 1.415 . S
C2728 C2733 1.425 . S
C2728 C2735 1.409 . S
C2729 H2721 0.930 . S
C2729 C2727 1.419 . S
C2729 C2730 1.362 . S
C2730 H2722 0.930 . S
C2730 C2729 1.362 . S
C2730 C2733 1.409 . S
C2731 H2723 0.930 . S
C2731 C2732 1.355 . S
C2731 C2733 1.415 . S
C2732 C2731 1.355 . S
C2732 C2734 1.419 . S
C2733 C2728 1.425 . S
C2733 C2730 1.409 . S
C2733 C2731 1.415 . S
C2734 H2724 0.930 . S
C2734 C2732 1.419 . S
C2734 C2735 1.362 . S
C2735 H2725 0.930 . S
C2735 C2728 1.409 . S
C2735 C2734 1.362 . S
H2736 C2742 0.930 . S
H2737 C2745 0.930 . S
H2738 C2746 0.930 . S
H2739 C2747 0.930 . S
H2740 C2750 0.930 . S
H2741 C2751 0.930 . S
C2742 H2736 0.930 . S
C2742 C2743 1.355 . S
C2742 C2744 1.415 . S
C2743 C2742 1.355 . S
C2743 C2745 1.419 . S
C2744 C2742 1.415 . S
C2744 C2749 1.425 . S
C2744 C2751 1.409 . S
C2745 H2737 0.930 . S
C2745 C2743 1.419 . S
C2745 C2746 1.362 . S
C2746 H2738 0.930 . S
C2746 C2745 1.362 . S
C2746 C2749 1.409 . S
C2747 H2739 0.930 . S
C2747 C2748 1.355 . S
C2747 C2749 1.415 . S
C2748 C2747 1.355 . S
C2748 C2750 1.419 . S
C2749 C2744 1.425 . S
C2749 C2746 1.409 . S
C2749 C2747 1.415 . S
C2750 H2740 0.930 . S
C2750 C2748 1.419 . S
C2750 C2751 1.362 . S
C2751 H2741 0.930 . S
C2751 C2744 1.409 . S
C2751 C2750 1.362 . S
H2752 C2758 0.930 . S
H2753 C2761 0.930 . S
H2754 C2762 0.930 . S
H2755 C2763 0.949 . S
H2756 C2766 0.930 1_545 S
H2757 C2767 0.930 . S
C2758 H2752 0.930 . S
C2758 C2759 1.355 . S
C2758 C2760 1.415 . S
C2759 C2758 1.355 . S
C2759 C2761 1.419 1_554 S
C2760 C2758 1.415 . S
C2760 C2765 1.425 . S
C2760 C2767 1.409 . S
C2761 H2753 0.930 . S
C2761 C2759 1.419 1_556 S
C2761 C2762 1.362 . S
C2762 H2754 0.930 . S
C2762 C2761 1.362 . S
C2762 C2765 1.409 1_556 S
C2763 H2755 0.949 . S
C2763 C2764 1.355 . S
C2763 C2765 1.415 1_545 S
C2764 C2763 1.355 . S
C2764 C2766 1.419 1_545 S
C2765 C2760 1.425 . S
C2765 C2762 1.409 1_554 S
C2765 C2763 1.415 1_565 S
C2766 H2756 0.930 1_565 S
C2766 C2764 1.419 1_565 S
C2766 C2767 1.362 . S
C2767 H2757 0.930 . S
C2767 C2760 1.409 . S
C2767 C2766 1.362 . S
H2768 C2774 0.930 . S
H2769 C2777 0.930 . S
H2770 C2778 0.930 . S
H2771 C2779 0.930 . S
H2772 C2782 0.930 . S
H2773 C2783 0.930 . S
C2774 H2768 0.930 . S
C2774 C2775 1.355 . S
C2774 C2776 1.415 . S
C2775 C2774 1.355 . S
C2775 C2777 1.419 . S
C2776 C2774 1.415 . S
C2776 C2781 1.425 . S
C2776 C2783 1.409 . S
C2777 H2769 0.930 . S
C2777 C2775 1.419 . S
C2777 C2778 1.362 . S
C2778 H2770 0.930 . S
C2778 C2777 1.362 . S
C2778 C2781 1.409 . S
C2779 H2771 0.930 . S
C2779 C2780 1.355 . S
C2779 C2781 1.415 . S
C2780 C2779 1.355 . S
C2780 C2782 1.419 . S
C2781 C2776 1.425 . S
C2781 C2778 1.409 . S
C2781 C2779 1.415 . S
C2782 H2772 0.930 . S
C2782 C2780 1.419 . S
C2782 C2783 1.362 . S
C2783 H2773 0.930 . S
C2783 C2776 1.409 . S
C2783 C2782 1.362 . S
H2784 C2790 0.930 . S
H2785 C2793 0.930 . S
H2786 C2794 0.930 . S
H2787 C2795 0.930 . S
H2788 C2798 0.930 . S
H2789 C2799 0.930 . S
C2790 H2784 0.930 . S
C2790 C2791 1.355 . S
C2790 C2792 1.415 . S
C2791 C2790 1.355 . S
C2791 C2793 1.419 . S
C2792 C2790 1.415 . S
C2792 C2797 1.425 . S
C2792 C2799 1.409 . S
C2793 H2785 0.930 . S
C2793 C2791 1.419 . S
C2793 C2794 1.362 . S
C2794 H2786 0.930 . S
C2794 C2793 1.362 . S
C2794 C2797 1.409 . S
C2795 H2787 0.930 . S
C2795 C2796 1.355 . S
C2795 C2797 1.415 . S
C2796 C2795 1.355 . S
C2796 C2798 1.419 . S
C2797 C2792 1.425 . S
C2797 C2794 1.409 . S
C2797 C2795 1.415 . S
C2798 H2788 0.930 . S
C2798 C2796 1.419 . S
C2798 C2799 1.362 . S
C2799 H2789 0.930 . S
C2799 C2792 1.409 . S
C2799 C2798 1.362 . S
H2800 C2806 0.930 . S
H2801 C2809 0.930 . S
H2802 C2810 0.930 . S
H2803 C2811 0.930 . S
H2804 C2814 0.930 . S
H2805 C2815 0.930 . S
C2806 H2800 0.930 . S
C2806 C2807 1.355 . S
C2806 C2808 1.415 . S
C2807 C2806 1.355 . S
C2807 C2809 1.419 . S
C2808 C2806 1.415 . S
C2808 C2813 1.425 . S
C2808 C2815 1.409 . S
C2809 H2801 0.930 . S
C2809 C2807 1.419 . S
C2809 C2810 1.362 . S
C2810 H2802 0.930 . S
C2810 C2809 1.362 . S
C2810 C2813 1.409 . S
C2811 H2803 0.930 . S
C2811 C2812 1.355 . S
C2811 C2813 1.415 . S
C2812 C2811 1.355 . S
C2812 C2814 1.419 . S
C2813 C2808 1.425 . S
C2813 C2810 1.409 . S
C2813 C2811 1.415 . S
C2814 H2804 0.930 . S
C2814 C2812 1.419 . S
C2814 C2815 1.362 . S
C2815 H2805 0.930 . S
C2815 C2808 1.409 . S
C2815 C2814 1.362 . S
H2816 C2822 0.930 . S
H2817 C2825 0.930 . S
H2818 C2826 0.930 . S
H2819 C2827 0.930 . S
H2820 C2830 0.930 . S
H2821 C2831 0.930 . S
C2822 H2816 0.930 . S
C2822 C2823 1.355 . S
C2822 C2824 1.415 . S
C2823 C2822 1.355 . S
C2823 C2825 1.419 . S
C2824 C2822 1.415 . S
C2824 C2829 1.425 . S
C2824 C2831 1.409 . S
C2825 H2817 0.930 . S
C2825 C2823 1.419 . S
C2825 C2826 1.362 . S
C2826 H2818 0.930 . S
C2826 C2825 1.362 . S
C2826 C2829 1.409 . S
C2827 H2819 0.930 . S
C2827 C2828 1.355 . S
C2827 C2829 1.415 . S
C2828 C2827 1.355 . S
C2828 C2830 1.419 . S
C2829 C2824 1.425 . S
C2829 C2826 1.409 . S
C2829 C2827 1.415 . S
C2830 H2820 0.930 . S
C2830 C2828 1.419 . S
C2830 C2831 1.362 . S
C2831 H2821 0.930 . S
C2831 C2824 1.409 . S
C2831 C2830 1.362 . S
H2832 C2838 0.930 . S
H2833 C2841 0.930 . S
H2834 C2842 0.930 . S
H2835 C2843 0.930 . S
H2836 C2846 0.930 . S
H2837 C2847 0.930 . S
C2838 H2832 0.930 . S
C2838 C2839 1.355 . S
C2838 C2840 1.415 . S
C2839 C2838 1.355 . S
C2839 C2841 1.419 . S
C2840 C2838 1.415 . S
C2840 C2845 1.425 . S
C2840 C2847 1.409 . S
C2841 H2833 0.930 . S
C2841 C2839 1.419 . S
C2841 C2842 1.362 . S
C2842 H2834 0.930 . S
C2842 C2841 1.362 . S
C2842 C2845 1.409 . S
C2843 H2835 0.930 . S
C2843 C2844 1.355 . S
C2843 C2845 1.415 . S
C2844 C2843 1.355 . S
C2844 C2846 1.419 . S
C2845 C2840 1.425 . S
C2845 C2842 1.409 . S
C2845 C2843 1.415 . S
C2846 H2836 0.930 . S
C2846 C2844 1.419 . S
C2846 C2847 1.362 . S
C2847 H2837 0.930 . S
C2847 C2840 1.409 . S
C2847 C2846 1.362 . S
H2848 C2854 0.930 . S
H2849 C2857 0.930 . S
H2850 C2858 0.930 . S
H2851 C2859 0.930 . S
H2852 C2862 0.930 . S
H2853 C2863 0.930 . S
C2854 H2848 0.930 . S
C2854 C2855 1.355 . S
C2854 C2856 1.415 . S
C2855 C2854 1.355 . S
C2855 C2857 1.419 . S
C2856 C2854 1.415 . S
C2856 C2861 1.425 . S
C2856 C2863 1.409 . S
C2857 H2849 0.930 . S
C2857 C2855 1.419 . S
C2857 C2858 1.362 . S
C2858 H2850 0.930 . S
C2858 C2857 1.362 . S
C2858 C2861 1.409 . S
C2859 H2851 0.930 . S
C2859 C2860 1.355 . S
C2859 C2861 1.415 . S
C2860 C2859 1.355 . S
C2860 C2862 1.419 . S
C2861 C2856 1.425 . S
C2861 C2858 1.409 . S
C2861 C2859 1.415 . S
C2862 H2852 0.930 . S
C2862 C2860 1.419 . S
C2862 C2863 1.362 . S
C2863 H2853 0.930 . S
C2863 C2856 1.409 . S
C2863 C2862 1.362 . S
H2864 C2870 0.930 . S
H2865 C2873 0.930 . S
H2866 C2874 0.930 . S
H2867 C2875 0.930 . S
H2868 C2878 0.930 . S
H2869 C2879 0.930 . S
C2870 H2864 0.930 . S
C2870 C2871 1.355 . S
C2870 C2872 1.415 . S
C2871 C2870 1.355 . S
C2871 C2873 1.419 . S
C2872 C2870 1.415 . S
C2872 C2877 1.425 . S
C2872 C2879 1.409 . S
C2873 H2865 0.930 . S
C2873 C2871 1.419 . S
C2873 C2874 1.362 . S
C2874 H2866 0.930 . S
C2874 C2873 1.362 . S
C2874 C2877 1.409 . S
C2875 H2867 0.930 . S
C2875 C2876 1.355 . S
C2875 C2877 1.415 . S
C2876 C2875 1.355 . S
C2876 C2878 1.419 . S
C2877 C2872 1.425 . S
C2877 C2874 1.409 . S
C2877 C2875 1.415 . S
C2878 H2868 0.930 . S
C2878 C2876 1.419 . S
C2878 C2879 1.362 . S
C2879 H2869 0.930 . S
C2879 C2872 1.409 . S
C2879 C2878 1.362 . S
H2880 C2886 0.930 . S
H2881 C2889 0.930 . S
H2882 C2890 0.930 . S
H2883 C2891 0.930 . S
H2884 C2894 0.930 . S
H2885 C2895 0.930 . S
C2886 H2880 0.930 . S
C2886 C2887 1.355 . S
C2886 C2888 1.415 . S
C2887 C2886 1.355 . S
C2887 C2889 1.419 . S
C2888 C2886 1.415 . S
C2888 C2893 1.425 . S
C2888 C2895 1.409 . S
C2889 H2881 0.930 . S
C2889 C2887 1.419 . S
C2889 C2890 1.362 . S
C2890 H2882 0.930 . S
C2890 C2889 1.362 . S
C2890 C2893 1.409 . S
C2891 H2883 0.930 . S
C2891 C2892 1.355 . S
C2891 C2893 1.415 . S
C2892 C2891 1.355 . S
C2892 C2894 1.419 . S
C2893 C2888 1.425 . S
C2893 C2890 1.409 . S
C2893 C2891 1.415 . S
C2894 H2884 0.930 . S
C2894 C2892 1.419 . S
C2894 C2895 1.362 . S
C2895 H2885 0.930 . S
C2895 C2888 1.409 . S
C2895 C2894 1.362 . S
H2896 C2902 0.930 . S
H2897 C2905 0.930 . S
H2898 C2906 0.930 . S
H2899 C2907 0.930 . S
H2900 C2910 0.930 . S
H2901 C2911 0.930 . S
C2902 H2896 0.930 . S
C2902 C2903 1.355 . S
C2902 C2904 1.415 . S
C2903 C2902 1.355 . S
C2903 C2905 1.419 . S
C2904 C2902 1.415 . S
C2904 C2909 1.425 . S
C2904 C2911 1.409 . S
C2905 H2897 0.930 . S
C2905 C2903 1.419 . S
C2905 C2906 1.362 . S
C2906 H2898 0.930 . S
C2906 C2905 1.362 . S
C2906 C2909 1.409 . S
C2907 H2899 0.930 . S
C2907 C2908 1.355 . S
C2907 C2909 1.415 . S
C2908 C2907 1.355 . S
C2908 C2910 1.419 . S
C2909 C2904 1.425 . S
C2909 C2906 1.409 . S
C2909 C2907 1.415 . S
C2910 H2900 0.930 . S
C2910 C2908 1.419 . S
C2910 C2911 1.362 . S
C2911 H2901 0.930 . S
C2911 C2904 1.409 . S
C2911 C2910 1.362 . S
H2912 C2918 0.930 . S
H2913 C2921 0.930 . S
H2914 C2922 0.930 . S
H2915 C2923 0.930 . S
H2916 C2926 0.930 . S
H2917 C2927 0.930 . S
C2918 H2912 0.930 . S
C2918 C2919 1.355 . S
C2918 C2920 1.415 . S
C2919 C2918 1.355 . S
C2919 C2921 1.419 . S
C2920 C2918 1.415 . S
C2920 C2925 1.425 . S
C2920 C2927 1.409 . S
C2921 H2913 0.930 . S
C2921 C2919 1.419 . S
C2921 C2922 1.362 . S
C2922 H2914 0.930 . S
C2922 C2921 1.362 . S
C2922 C2925 1.409 . S
C2923 H2915 0.930 . S
C2923 C2924 1.355 . S
C2923 C2925 1.415 . S
C2924 C2923 1.355 . S
C2924 C2926 1.419 . S
C2925 C2920 1.425 . S
C2925 C2922 1.409 . S
C2925 C2923 1.415 . S
C2926 H2916 0.930 . S
C2926 C2924 1.419 . S
C2926 C2927 1.362 . S
C2927 H2917 0.930 . S
C2927 C2920 1.409 . S
C2927 C2926 1.362 . S
H2928 C2934 0.930 . S
H2929 C2937 0.930 . S
H2930 C2938 0.930 . S
H2931 C2939 0.930 . S
H2932 C2942 0.930 . S
H2933 C2943 0.930 . S
C2934 H2928 0.930 . S
C2934 C2935 1.355 . S
C2934 C2936 1.415 . S
C2935 C2934 1.355 . S
C2935 C2937 1.419 . S
C2936 C2934 1.415 . S
C2936 C2941 1.425 . S
C2936 C2943 1.409 . S
C2937 H2929 0.930 . S
C2937 C2935 1.419 . S
C2937 C2938 1.362 . S
C2938 H2930 0.930 . S
C2938 C2937 1.362 . S
C2938 C2941 1.409 . S
C2939 H2931 0.930 . S
C2939 C2940 1.355 . S
C2939 C2941 1.415 . S
C2940 C2939 1.355 . S
C2940 C2942 1.419 . S
C2941 C2936 1.425 . S
C2941 C2938 1.409 . S
C2941 C2939 1.415 . S
C2942 H2932 0.930 . S
C2942 C2940 1.419 . S
C2942 C2943 1.362 . S
C2943 H2933 0.930 . S
C2943 C2936 1.409 . S
C2943 C2942 1.362 . S
H2944 C2950 0.930 . S
H2945 C2953 0.930 . S
H2946 C2954 0.930 . S
H2947 C2955 0.930 . S
H2948 C2958 0.930 . S
H2949 C2959 0.930 . S
C2950 H2944 0.930 . S
C2950 C2951 1.355 . S
C2950 C2952 1.415 . S
C2951 C2950 1.355 . S
C2951 C2953 1.419 . S
C2952 C2950 1.415 . S
C2952 C2957 1.425 . S
C2952 C2959 1.409 . S
C2953 H2945 0.930 . S
C2953 C2951 1.419 . S
C2953 C2954 1.362 . S
C2954 H2946 0.930 . S
C2954 C2953 1.362 . S
C2954 C2957 1.409 . S
C2955 H2947 0.930 . S
C2955 C2956 1.355 . S
C2955 C2957 1.415 . S
C2956 C2955 1.355 . S
C2956 C2958 1.419 . S
C2957 C2952 1.425 . S
C2957 C2954 1.409 . S
C2957 C2955 1.415 . S
C2958 H2948 0.930 . S
C2958 C2956 1.419 . S
C2958 C2959 1.362 . S
C2959 H2949 0.930 . S
C2959 C2952 1.409 . S
C2959 C2958 1.362 . S
H2960 C2966 0.930 . S
H2961 C2969 0.930 . S
H2962 C2970 0.930 . S
H2963 C2971 0.930 . S
H2964 C2974 0.930 . S
H2965 C2975 0.930 . S
C2966 H2960 0.930 . S
C2966 C2967 1.355 . S
C2966 C2968 1.415 . S
C2967 C2966 1.355 . S
C2967 C2969 1.419 . S
C2968 C2966 1.415 . S
C2968 C2973 1.425 . S
C2968 C2975 1.409 . S
C2969 H2961 0.930 . S
C2969 C2967 1.419 . S
C2969 C2970 1.362 . S
C2970 H2962 0.930 . S
C2970 C2969 1.362 . S
C2970 C2973 1.409 . S
C2971 H2963 0.930 . S
C2971 C2972 1.355 . S
C2971 C2973 1.415 . S
C2972 C2971 1.355 . S
C2972 C2974 1.419 . S
C2973 C2968 1.425 . S
C2973 C2970 1.409 . S
C2973 C2971 1.415 . S
C2974 H2964 0.930 . S
C2974 C2972 1.419 . S
C2974 C2975 1.362 . S
C2975 H2965 0.930 . S
C2975 C2968 1.409 . S
C2975 C2974 1.362 . S
H2976 C2982 0.930 . S
H2977 C2985 0.930 . S
H2978 C2986 0.930 . S
H2979 C2987 0.930 . S
H2980 C2990 0.930 . S
H2981 C2991 0.930 . S
C2982 H2976 0.930 . S
C2982 C2983 1.355 . S
C2982 C2984 1.415 . S
C2983 C2982 1.355 . S
C2983 C2985 1.419 . S
C2984 C2982 1.415 . S
C2984 C2989 1.425 . S
C2984 C2991 1.409 . S
C2985 H2977 0.930 . S
C2985 C2983 1.419 . S
C2985 C2986 1.362 . S
C2986 H2978 0.930 . S
C2986 C2985 1.362 . S
C2986 C2989 1.409 . S
C2987 H2979 0.930 . S
C2987 C2988 1.355 . S
C2987 C2989 1.415 . S
C2988 C2987 1.355 . S
C2988 C2990 1.419 . S
C2989 C2984 1.425 . S
C2989 C2986 1.409 . S
C2989 C2987 1.415 . S
C2990 H2980 0.930 . S
C2990 C2988 1.419 . S
C2990 C2991 1.362 . S
C2991 H2981 0.930 . S
C2991 C2984 1.409 . S
C2991 C2990 1.362 . S
H2992 C2998 0.930 . S
H2993 C3001 0.930 . S
H2994 C3002 0.930 . S
H2995 C3003 0.930 1_554 S
H2996 C3006 0.930 . S
H2997 C3007 0.930 . S
C2998 H2992 0.930 . S
C2998 C2999 1.355 . S
C2998 C3000 1.415 . S
C2999 C2998 1.355 . S
C2999 C3001 1.419 . S
C3000 C2998 1.415 . S
C3000 C3005 1.425 . S
C3000 C3007 1.409 . S
C3001 H2993 0.930 . S
C3001 C2999 1.419 . S
C3001 C3002 1.362 . S
C3002 H2994 0.930 . S
C3002 C3001 1.362 . S
C3002 C3005 1.409 . S
C3003 H2995 0.930 1_556 S
C3003 C3004 1.357 1_556 S
C3003 C3005 1.415 . S
C3004 C3003 1.357 1_554 S
C3004 C3006 1.398 1_654 S
C3005 C3000 1.425 . S
C3005 C3002 1.409 . S
C3005 C3003 1.415 . S
C3006 H2996 0.930 . S
C3006 C3004 1.398 1_456 S
C3006 C3007 1.362 1_455 S
C3007 H2997 0.930 . S
C3007 C3000 1.409 . S
C3007 C3006 1.362 1_655 S
H3008 C3014 0.930 . S
H3009 C3017 0.930 . S
H3010 C3018 0.930 . S
H3011 C3019 0.930 . S
H3012 C3022 0.930 . S
H3013 C3023 0.930 . S
C3014 H3008 0.930 . S
C3014 C3015 1.355 . S
C3014 C3016 1.415 . S
C3015 C3014 1.355 . S
C3015 C3017 1.419 . S
C3016 C3014 1.415 . S
C3016 C3021 1.425 . S
C3016 C3023 1.409 . S
C3017 H3009 0.930 . S
C3017 C3015 1.419 . S
C3017 C3018 1.362 . S
C3018 H3010 0.930 . S
C3018 C3017 1.362 . S
C3018 C3021 1.409 . S
C3019 H3011 0.930 . S
C3019 C3020 1.355 . S
C3019 C3021 1.415 . S
C3020 C3019 1.355 . S
C3020 C3022 1.419 . S
C3021 C3016 1.425 . S
C3021 C3018 1.409 . S
C3021 C3019 1.415 . S
C3022 H3012 0.930 . S
C3022 C3020 1.419 . S
C3022 C3023 1.362 . S
C3023 H3013 0.930 . S
C3023 C3016 1.409 . S
C3023 C3022 1.362 . S
H3024 C3030 0.930 . S
H3025 C3033 0.930 . S
H3026 C3034 0.930 . S
H3027 C3035 0.930 . S
H3028 C3038 0.930 . S
H3029 C3039 0.930 . S
C3030 H3024 0.930 . S
C3030 C3031 1.355 . S
C3030 C3032 1.415 . S
C3031 C3030 1.355 . S
C3031 C3033 1.419 . S
C3032 C3030 1.415 . S
C3032 C3037 1.425 . S
C3032 C3039 1.409 . S
C3033 H3025 0.930 . S
C3033 C3031 1.419 . S
C3033 C3034 1.362 . S
C3034 H3026 0.930 . S
C3034 C3033 1.362 . S
C3034 C3037 1.409 . S
C3035 H3027 0.930 . S
C3035 C3036 1.355 . S
C3035 C3037 1.415 . S
C3036 C3035 1.355 . S
C3036 C3038 1.419 . S
C3037 C3032 1.425 . S
C3037 C3034 1.409 . S
C3037 C3035 1.415 . S
C3038 H3028 0.930 . S
C3038 C3036 1.419 . S
C3038 C3039 1.362 . S
C3039 H3029 0.930 . S
C3039 C3032 1.409 . S
C3039 C3038 1.362 . S
H3040 C3046 0.930 . S
H3041 C3049 0.930 . S
H3042 C3050 0.930 . S
H3043 C3051 0.930 . S
H3044 C3054 0.930 . S
H3045 C3055 0.930 . S
C3046 H3040 0.930 . S
C3046 C3047 1.355 . S
C3046 C3048 1.415 . S
C3047 C3046 1.355 . S
C3047 C3049 1.419 . S
C3048 C3046 1.415 . S
C3048 C3053 1.425 . S
C3048 C3055 1.409 . S
C3049 H3041 0.930 . S
C3049 C3047 1.419 . S
C3049 C3050 1.362 . S
C3050 H3042 0.930 . S
C3050 C3049 1.362 . S
C3050 C3053 1.409 . S
C3051 H3043 0.930 . S
C3051 C3052 1.355 . S
C3051 C3053 1.415 . S
C3052 C3051 1.355 . S
C3052 C3054 1.419 . S
C3053 C3048 1.425 . S
C3053 C3050 1.409 . S
C3053 C3051 1.415 . S
C3054 H3044 0.930 . S
C3054 C3052 1.419 . S
C3054 C3055 1.362 . S
C3055 H3045 0.930 . S
C3055 C3048 1.409 . S
C3055 C3054 1.362 . S
H3056 C3062 0.930 . S
H3057 C3065 0.930 . S
H3058 C3066 0.930 . S
H3059 C3067 0.930 . S
H3060 C3070 0.930 . S
H3061 C3071 0.930 . S
C3062 H3056 0.930 . S
C3062 C3063 1.355 . S
C3062 C3064 1.415 . S
C3063 C3062 1.355 . S
C3063 C3065 1.419 . S
C3064 C3062 1.415 . S
C3064 C3069 1.425 . S
C3064 C3071 1.409 . S
C3065 H3057 0.930 . S
C3065 C3063 1.419 . S
C3065 C3066 1.362 . S
C3066 H3058 0.930 . S
C3066 C3065 1.362 . S
C3066 C3069 1.409 . S
C3067 H3059 0.930 . S
C3067 C3068 1.355 . S
C3067 C3069 1.415 . S
C3068 C3067 1.355 . S
C3068 C3070 1.419 . S
C3069 C3064 1.425 . S
C3069 C3066 1.409 . S
C3069 C3067 1.415 . S
C3070 H3060 0.930 . S
C3070 C3068 1.419 . S
C3070 C3071 1.362 . S
C3071 H3061 0.930 . S
C3071 C3064 1.409 . S
C3071 C3070 1.362 . S
H3072 C3078 0.930 . S
H3073 C3081 0.930 . S
H3074 C3082 0.930 . S
H3075 C3083 0.930 . S
H3076 C3086 0.930 . S
H3077 C3087 0.930 . S
C3078 H3072 0.930 . S
C3078 C3079 1.355 . S
C3078 C3080 1.415 . S
C3079 C3078 1.355 . S
C3079 C3081 1.419 . S
C3080 C3078 1.415 . S
C3080 C3085 1.425 . S
C3080 C3087 1.409 . S
C3081 H3073 0.930 . S
C3081 C3079 1.419 . S
C3081 C3082 1.362 . S
C3082 H3074 0.930 . S
C3082 C3081 1.362 . S
C3082 C3085 1.409 . S
C3083 H3075 0.930 . S
C3083 C3084 1.355 . S
C3083 C3085 1.415 . S
C3084 C3083 1.355 . S
C3084 C3086 1.419 . S
C3085 C3080 1.425 . S
C3085 C3082 1.409 . S
C3085 C3083 1.415 . S
C3086 H3076 0.930 . S
C3086 C3084 1.419 . S
C3086 C3087 1.362 . S
C3087 H3077 0.930 . S
C3087 C3080 1.409 . S
C3087 C3086 1.362 . S
H3088 C3094 0.930 . S
H3089 C3097 0.930 . S
H3090 C3098 0.930 . S
H3091 C3099 0.930 . S
H3092 C3102 0.930 . S
H3093 C3103 0.930 . S
C3094 H3088 0.930 . S
C3094 C3095 1.355 . S
C3094 C3096 1.415 . S
C3095 C3094 1.355 . S
C3095 C3097 1.419 . S
C3096 C3094 1.415 . S
C3096 C3101 1.425 . S
C3096 C3103 1.409 . S
C3097 H3089 0.930 . S
C3097 C3095 1.419 . S
C3097 C3098 1.362 . S
C3098 H3090 0.930 . S
C3098 C3097 1.362 . S
C3098 C3101 1.409 . S
C3099 H3091 0.930 . S
C3099 C3100 1.355 . S
C3099 C3101 1.415 . S
C3100 C3099 1.355 . S
C3100 C3102 1.419 . S
C3101 C3096 1.425 . S
C3101 C3098 1.409 . S
C3101 C3099 1.415 . S
C3102 H3092 0.930 . S
C3102 C3100 1.419 . S
C3102 C3103 1.362 . S
C3103 H3093 0.930 . S
C3103 C3096 1.409 . S
C3103 C3102 1.362 . S
H3104 C3110 0.930 . S
H3105 C3113 0.930 . S
H3106 C3114 0.930 . S
H3107 C3115 0.930 . S
H3108 C3118 0.930 . S
H3109 C3119 0.903 1_545 S
C3110 H3104 0.930 . S
C3110 C3111 1.355 . S
C3110 C3112 1.415 . S
C3111 C3110 1.355 . S
C3111 C3113 1.419 . S
C3112 C3110 1.415 . S
C3112 C3117 1.425 . S
C3112 C3119 1.409 . S
C3113 H3105 0.930 . S
C3113 C3111 1.419 . S
C3113 C3114 1.362 . S
C3114 H3106 0.930 . S
C3114 C3113 1.362 . S
C3114 C3117 1.409 . S
C3115 H3107 0.930 . S
C3115 C3116 1.355 . S
C3115 C3117 1.415 . S
C3116 C3115 1.355 . S
C3116 C3118 1.419 1_565 S
C3117 C3112 1.425 . S
C3117 C3114 1.409 . S
C3117 C3115 1.415 . S
C3118 H3108 0.930 . S
C3118 C3116 1.419 1_545 S
C3118 C3119 1.362 1_545 S
C3119 H3109 0.903 1_565 S
C3119 C3112 1.409 . S
C3119 C3118 1.362 1_565 S
H3120 C3126 0.930 . S
H3121 C3129 0.930 . S
H3122 C3130 0.930 . S
H3123 C3131 0.930 . S
H3124 C3134 0.930 . S
H3125 C3135 0.930 . S
C3126 H3120 0.930 . S
C3126 C3127 1.355 . S
C3126 C3128 1.415 . S
C3127 C3126 1.355 . S
C3127 C3129 1.419 . S
C3128 C3126 1.415 . S
C3128 C3133 1.425 . S
C3128 C3135 1.409 . S
C3129 H3121 0.930 . S
C3129 C3127 1.419 . S
C3129 C3130 1.362 . S
C3130 H3122 0.930 . S
C3130 C3129 1.362 . S
C3130 C3133 1.409 . S
C3131 H3123 0.930 . S
C3131 C3132 1.355 . S
C3131 C3133 1.415 . S
C3132 C3131 1.355 . S
C3132 C3134 1.419 . S
C3133 C3128 1.425 . S
C3133 C3130 1.409 . S
C3133 C3131 1.415 . S
C3134 H3124 0.930 . S
C3134 C3132 1.419 . S
C3134 C3135 1.362 . S
C3135 H3125 0.930 . S
C3135 C3128 1.409 . S
C3135 C3134 1.362 . S
H3136 C3142 0.930 . S
H3137 C3145 0.930 . S
H3138 C3146 0.930 . S
H3139 C3147 0.930 . S
H3140 C3150 0.930 . S
H3141 C3151 0.930 . S
C3142 H3136 0.930 . S
C3142 C3143 1.355 . S
C3142 C3144 1.415 . S
C3143 C3142 1.355 . S
C3143 C3145 1.419 . S
C3144 C3142 1.415 . S
C3144 C3149 1.425 . S
C3144 C3151 1.409 . S
C3145 H3137 0.930 . S
C3145 C3143 1.419 . S
C3145 C3146 1.362 . S
C3146 H3138 0.930 . S
C3146 C3145 1.362 . S
C3146 C3149 1.409 . S
C3147 H3139 0.930 . S
C3147 C3148 1.355 . S
C3147 C3149 1.415 . S
C3148 C3147 1.355 . S
C3148 C3150 1.419 . S
C3149 C3144 1.425 . S
C3149 C3146 1.409 . S
C3149 C3147 1.415 . S
C3150 H3140 0.930 . S
C3150 C3148 1.419 . S
C3150 C3151 1.362 . S
C3151 H3141 0.930 . S
C3151 C3144 1.409 . S
C3151 C3150 1.362 . S
H3152 C3158 0.930 . S
H3153 C3161 0.930 . S
H3154 C3162 0.930 . S
H3155 C3163 0.930 . S
H3156 C3166 0.930 . S
H3157 C3167 0.930 . S
C3158 H3152 0.930 . S
C3158 C3159 1.355 . S
C3158 C3160 1.415 . S
C3159 C3158 1.355 . S
C3159 C3161 1.419 . S
C3160 C3158 1.415 . S
C3160 C3165 1.425 . S
C3160 C3167 1.409 . S
C3161 H3153 0.930 . S
C3161 C3159 1.419 . S
C3161 C3162 1.362 . S
C3162 H3154 0.930 . S
C3162 C3161 1.362 . S
C3162 C3165 1.409 . S
C3163 H3155 0.930 . S
C3163 C3164 1.355 . S
C3163 C3165 1.415 . S
C3164 C3163 1.355 . S
C3164 C3166 1.419 . S
C3165 C3160 1.425 . S
C3165 C3162 1.409 . S
C3165 C3163 1.415 . S
C3166 H3156 0.930 . S
C3166 C3164 1.419 . S
C3166 C3167 1.362 . S
C3167 H3157 0.930 . S
C3167 C3160 1.409 . S
C3167 C3166 1.362 . S
H3168 C3174 0.930 . S
H3169 C3177 0.930 . S
H3170 C3178 0.930 . S
H3171 C3179 0.930 . S
H3172 C3182 0.930 . S
H3173 C3183 0.930 . S
C3174 H3168 0.930 . S
C3174 C3175 1.355 . S
C3174 C3176 1.415 . S
C3175 C3174 1.355 . S
C3175 C3177 1.419 . S
C3176 C3174 1.415 . S
C3176 C3181 1.425 . S
C3176 C3183 1.409 . S
C3177 H3169 0.930 . S
C3177 C3175 1.419 . S
C3177 C3178 1.362 . S
C3178 H3170 0.930 . S
C3178 C3177 1.362 . S
C3178 C3181 1.409 . S
C3179 H3171 0.930 . S
C3179 C3180 1.355 . S
C3179 C3181 1.415 . S
C3180 C3179 1.355 . S
C3180 C3182 1.419 . S
C3181 C3176 1.425 . S
C3181 C3178 1.409 . S
C3181 C3179 1.415 . S
C3182 H3172 0.930 . S
C3182 C3180 1.419 . S
C3182 C3183 1.362 . S
C3183 H3173 0.930 . S
C3183 C3176 1.409 . S
C3183 C3182 1.362 . S
H3184 C3190 0.930 . S
H3185 C3193 0.930 . S
H3186 C3194 0.930 . S
H3187 C3195 0.930 . S
H3188 C3198 0.930 . S
H3189 C3199 0.930 . S
C3190 H3184 0.930 . S
C3190 C3191 1.355 . S
C3190 C3192 1.415 . S
C3191 C3190 1.355 . S
C3191 C3193 1.419 . S
C3192 C3190 1.415 . S
C3192 C3197 1.425 . S
C3192 C3199 1.409 . S
C3193 H3185 0.930 . S
C3193 C3191 1.419 . S
C3193 C3194 1.362 . S
C3194 H3186 0.930 . S
C3194 C3193 1.362 . S
C3194 C3197 1.409 . S
C3195 H3187 0.930 . S
C3195 C3196 1.355 . S
C3195 C3197 1.415 . S
C3196 C3195 1.355 . S
C3196 C3198 1.419 . S
C3197 C3192 1.425 . S
C3197 C3194 1.409 . S
C3197 C3195 1.415 . S
C3198 H3188 0.930 . S
C3198 C3196 1.419 . S
C3198 C3199 1.362 . S
C3199 H3189 0.930 . S
C3199 C3192 1.409 . S
C3199 C3198 1.362 . S
H3200 C3206 0.930 . S
H3201 C3209 0.930 . S
H3202 C3210 0.930 . S
H3203 C3211 0.930 . S
H3204 C3214 0.930 . S
H3205 C3215 0.930 . S
C3206 H3200 0.930 . S
C3206 C3207 1.355 . S
C3206 C3208 1.415 . S
C3207 C3206 1.355 . S
C3207 C3209 1.419 . S
C3208 C3206 1.415 . S
C3208 C3213 1.425 . S
C3208 C3215 1.409 . S
C3209 H3201 0.930 . S
C3209 C3207 1.419 . S
C3209 C3210 1.362 . S
C3210 H3202 0.930 . S
C3210 C3209 1.362 . S
C3210 C3213 1.409 . S
C3211 H3203 0.930 . S
C3211 C3212 1.355 . S
C3211 C3213 1.415 . S
C3212 C3211 1.355 . S
C3212 C3214 1.419 . S
C3213 C3208 1.425 . S
C3213 C3210 1.409 . S
C3213 C3211 1.415 . S
C3214 H3204 0.930 . S
C3214 C3212 1.419 . S
C3214 C3215 1.362 . S
C3215 H3205 0.930 . S
C3215 C3208 1.409 . S
C3215 C3214 1.362 . S
C1687 C106 2.475 . S
C1692 C403 2.533 . S
C1703 C65 1.888 . S
C1708 C476 1.894 . S
C1719 C79 2.146 . S
C1724 C571 2.156 . S
C1740 C646 1.212 . S
C1735 C90 1.267 . S
C1751 C21 1.279 . S
C1756 C730 1.157 . S
C1772 C823 1.811 . S
C1767 C35 1.786 . S
C1788 C896 1.947 . S
C1783 C50 1.964 . S
C1799 C6 2.064 . S
C1804 C991 2.128 . S
C1820 C392 1.955 . S
C1815 C232 1.984 . S
C1831 C245 0.941 . S
C1836 C478 1.008 . S
C1852 C560 1.261 . S
C1847 C274 1.261 . S
C1868 C655 1.640 . S
C1863 C175 1.623 . S
C1879 C231 1.468 . S
C1884 C739 1.497 . S
C1900 C812 1.206 . S
C1895 C246 1.201 . S
C1916 C898 0.843 . S
C1911 C273 0.800 . S
C1932 C980 1.865 . S
C1927 C176 1.896 . S
C1948 C394 1.165 . S
C1943 C160 1.036 . S
C1959 C289 1.678 . S
C1964 C1064 1.678 . S
C1980 C1150 1.394 . S
C1975 C328 1.319 . S
C1996 C1243 0.995 . S
C1991 C317 0.971 . S
C2007 C118 1.026 . S
C2012 C982 1.143 . S
C2023 C132 1.325 . S
C2028 C562 1.406 . S
C2039 C331 1.745 . S
C2044 C1316 1.724 . S
C2060 C1411 1.044 . S
C2055 C303 1.062 . S
C2076 C391 2.174 . S
C2071 C63 2.161 . S
C2092 C1412 2.332 . S
C2087 C107 2.265 . S
C2103 C92 2.009 . S
C2108 C559 2.053 . S
C2119 C78 1.770 . S
C2124 C1330 1.632 . S
C2140 C742 1.647 . S
C2135 C8 1.775 . S
C2151 C51 2.016 . S
C2156 C1147 2.054 . S
C2172 C908 2.338 1_556 S
C2167 C37 2.248 . S
C2188 C1483 2.153 . S
C2183 C20 2.143 . S
C2204 C404 1.787 1_556 S
C2199 C147 1.783 . S
C2220 C1414 1.040 . S
C2215 C316 1.126 . S
C2231 C119 1.127 . S
C2236 C572 1.250 . S
C2247 C288 1.771 . S
C2252 C1315 1.803 . S
C2263 C148 1.786 . S
C2268 C727 1.796 . S
C2284 C1160 1.251 . S
C2279 C315 1.245 . S
C2295 C120 1.159 . S
C2300 C910 1.136 . S
C2311 C287 1.827 . S
C2316 C1496 1.782 . S
C2327 C188 0.956 . S
C2332 C406 1.036 . S
C2343 C177 1.975 . S
C2348 C1076 1.997 . S
C2359 C258 1.424 . S
C2364 C826 1.362 . S
C2375 C247 1.010 . S
C2380 C1231 1.047 . S
C2396 C1498 1.038 . S
C2391 C272 0.997 1_565 S
C2407 C216 1.318 . S
C2412 C574 1.251 . S
C2428 C656 1.978 . S
C2423 C261 1.992 . S
C2444 C475 1.013 . S
C2439 C205 1.037 . S
C2455 C76 2.101 . S
C2460 C1579 2.149 . S
C2476 C1400 1.960 . S
C2471 C93 1.958 . S
C2487 C105 1.804 1_554 S
C2492 C1663 1.815 . S
C2503 C62 1.233 1_655 S
C2508 C1318 1.175 . S
C2519 C49 1.273 . S
C2524 C1066 1.182 . S
C2540 C1159 2.159 . S
C2535 C9 2.111 . S
C2556 C1232 1.873 . S
C2551 C22 1.898 . S
C2572 C1495 2.513 . S
C2567 C36 2.472 . S
C2588 C1568 1.913 . S
C2583 C260 1.936 . S
C2599 C189 0.871 1_556 S
C2604 C1402 0.939 . S
C2620 C1652 1.210 . S
C2615 C204 1.204 . S
C2636 C1327 1.489 . S
C2631 C217 1.441 . S
C2652 C1075 1.628 . S
C2647 C259 1.570 . S
C2663 C190 1.286 . S
C2668 C1148 1.287 . S
C2684 C1234 0.991 . S
C2679 C203 0.905 . S
C2695 C218 1.968 . S
C2700 C1484 1.940 . S
C2716 C1570 1.176 . S
C2711 C314 1.122 . S
C2727 C135 1.746 . S
C2732 C728 1.731 . S
C2748 C814 1.398 . S
C2743 C146 1.395 . S
C2764 C907 1.043 . S
C2759 C163 1.043 . S
C2780 C1486 1.104 . S
C2775 C300 1.112 . S
C2791 C286 1.356 . S
C2796 C1654 1.340 . S
C2812 C644 1.670 . S
C2807 C149 1.683 . S
C2828 C487 0.970 . S
C2823 C121 0.991 . S
C2839 C91 2.137 . S
C2844 C1567 2.151 . S
C2860 C488 1.953 . S
C2855 C77 1.803 . S
C2871 C64 2.007 . S
C2876 C1651 2.059 . S
C2887 C104 1.383 . S
C2892 C658 1.377 . S
C2903 C34 1.417 . S
C2908 C1078 1.314 . S
C2924 C811 2.042 . S
C2919 C23 1.971 . S
C2935 C7 1.863 . S
C2940 C1244 1.956 . S
C2951 C48 2.145 . S
C2956 C979 2.161 . S
C2972 C1580 1.760 . S
C2967 C329 1.804 . S
C2983 C162 1.150 . S
C2988 C490 1.027 . S
C3004 C1664 1.274 1_655 S
C2999 C301 1.205 . S
C3015 C134 1.817 . S
C3020 C643 1.817 . S
C3031 C330 1.812 . S
C3036 C1063 1.815 . S
C3052 C824 1.209 . S
C3047 C161 1.221 . S
C3063 C302 1.171 . S
C3068 C1246 1.108 . S
C3084 C992 1.753 . S
C3079 C133 1.763 . S
C3100 C1582 1.158 . S
C3095 C244 1.117 . S
C3116 C740 1.955 1_565 S
C3111 C219 1.915 . S
C3127 C230 1.320 . S
C3132 C1162 1.258 . S
C3148 C895 0.999 . S
C3143 C191 0.963 . S
C3159 C202 1.166 . S
C3164 C994 1.083 . S
C3175 C174 1.486 . S
C3180 C1666 1.423 . S
C3196 C1328 1.944 . S
C3191 C233 1.946 . S
C3212 C1399 0.998 . S
C3207 C275 1.015 . S
